# Generated by pormake.
# Topology uoq, (4)-cn, num edge types: 1
# Building blocks:
#     Node 0, Type 0, BuildingBlock: AZAVOO_clean_sbu_0, # of connection points: 4
#     Node 1, Type 0, BuildingBlock: AZAVOO_clean_sbu_0, # of connection points: 4
#     Node 2, Type 0, BuildingBlock: AZAVOO_clean_sbu_0, # of connection points: 4
#     Node 3, Type 0, BuildingBlock: AZAVOO_clean_sbu_0, # of connection points: 4
#     Node 4, Type 0, BuildingBlock: AZAVOO_clean_sbu_0, # of connection points: 4
#     Node 5, Type 0, BuildingBlock: AZAVOO_clean_sbu_0, # of connection points: 4
#     Node 6, Type 0, BuildingBlock: AZAVOO_clean_sbu_0, # of connection points: 4
#     Node 7, Type 0, BuildingBlock: AZAVOO_clean_sbu_0, # of connection points: 4
#     Node 8, Type 0, BuildingBlock: AZAVOO_clean_sbu_0, # of connection points: 4
#     Node 9, Type 0, BuildingBlock: AZAVOO_clean_sbu_0, # of connection points: 4
#     Node 10, Type 0, BuildingBlock: AZAVOO_clean_sbu_0, # of connection points: 4
#     Node 11, Type 0, BuildingBlock: AZAVOO_clean_sbu_0, # of connection points: 4
#     Edge 12, Type (0, 0), BuildingBlock: ZUJKAS_clean_linker_0, # of connection points: 2
#     Edge 13, Type (0, 0), BuildingBlock: ZUJKAS_clean_linker_0, # of connection points: 2
#     Edge 14, Type (0, 0), BuildingBlock: ZUJKAS_clean_linker_0, # of connection points: 2
#     Edge 15, Type (0, 0), BuildingBlock: ZUJKAS_clean_linker_0, # of connection points: 2
#     Edge 16, Type (0, 0), BuildingBlock: ZUJKAS_clean_linker_0, # of connection points: 2
#     Edge 17, Type (0, 0), BuildingBlock: ZUJKAS_clean_linker_0, # of connection points: 2
#     Edge 18, Type (0, 0), BuildingBlock: ZUJKAS_clean_linker_0, # of connection points: 2
#     Edge 19, Type (0, 0), BuildingBlock: ZUJKAS_clean_linker_0, # of connection points: 2
#     Edge 20, Type (0, 0), BuildingBlock: ZUJKAS_clean_linker_0, # of connection points: 2
#     Edge 21, Type (0, 0), BuildingBlock: ZUJKAS_clean_linker_0, # of connection points: 2
#     Edge 22, Type (0, 0), BuildingBlock: ZUJKAS_clean_linker_0, # of connection points: 2
#     Edge 23, Type (0, 0), BuildingBlock: ZUJKAS_clean_linker_0, # of connection points: 2
#     Edge 24, Type (0, 0), BuildingBlock: ZUJKAS_clean_linker_0, # of connection points: 2
#     Edge 25, Type (0, 0), BuildingBlock: ZUJKAS_clean_linker_0, # of connection points: 2
#     Edge 26, Type (0, 0), BuildingBlock: ZUJKAS_clean_linker_0, # of connection points: 2
#     Edge 27, Type (0, 0), BuildingBlock: ZUJKAS_clean_linker_0, # of connection points: 2
#     Edge 28, Type (0, 0), BuildingBlock: ZUJKAS_clean_linker_0, # of connection points: 2
#     Edge 29, Type (0, 0), BuildingBlock: ZUJKAS_clean_linker_0, # of connection points: 2
#     Edge 30, Type (0, 0), BuildingBlock: ZUJKAS_clean_linker_0, # of connection points: 2
#     Edge 31, Type (0, 0), BuildingBlock: ZUJKAS_clean_linker_0, # of connection points: 2
#     Edge 32, Type (0, 0), BuildingBlock: ZUJKAS_clean_linker_0, # of connection points: 2
#     Edge 33, Type (0, 0), BuildingBlock: ZUJKAS_clean_linker_0, # of connection points: 2
#     Edge 34, Type (0, 0), BuildingBlock: ZUJKAS_clean_linker_0, # of connection points: 2
#     Edge 35, Type (0, 0), BuildingBlock: ZUJKAS_clean_linker_0, # of connection points: 2
# Relax obj value: 0.091
# Max RMSD: 0.086
# Mean RMSD: 0.086
data_MOF--net-uoq--node1-AZAVOO_clean_sbu_0--edge1-ZUJKAS_clean_linker_0
_symmetry_space_group_name_H-M    P1
_symmetry_Int_Tables_number       1
_symmetry_cell_setting            triclinic
loop_
_symmetry_equiv_pos_as_xyz
'x, y, z'
_cell_length_a     75.053118
_cell_length_b     75.069166
_cell_length_c     30.666318
_cell_angle_alpha  90.015616
_cell_angle_beta   89.994189
_cell_angle_gamma 120.01406
loop_
_atom_site_label
_atom_site_type_symbol
_atom_site_fract_x
_atom_site_fract_y
_atom_site_fract_z
_atom_type_partial_charge
Mg0 Mg 0.3111 0.44627 0.23483 0.0
O1 O 0.29487 0.44759 0.29771 0.0
O2 O 0.31818 0.45848 0.35153 0.0
Mg3 Mg 0.34777 0.46119 0.32551 0.0
C4 C 0.30014 0.45288 0.33738 0.0
C5 C 0.27079 0.44017 0.19301 0.0
O6 O 0.27701 0.45736 0.21482 0.0
O7 O 0.30727 0.41551 0.25757 0.0
O8 O 0.33009 0.42647 0.31217 0.0
O9 O 0.32346 0.48001 0.22356 0.0
O10 O 0.33959 0.46729 0.26114 0.0
C11 C 0.31644 0.41201 0.28868 0.0
C12 C 0.33887 0.48316 0.24783 0.0
O13 O 0.28087 0.43078 0.19675 0.0
Mg14 Mg 0.86366 0.30664 0.58831 0.0
O15 O 0.84559 0.28849 0.64939 0.0
O16 O 0.8606 0.30937 0.70637 0.0
Mg17 Mg 0.88733 0.33977 0.68358 0.0
C18 C 0.84692 0.29223 0.69038 0.0
C19 C 0.84443 0.28257 0.50693 0.0
O20 O 0.8499 0.30181 0.49858 0.0
O21 O 0.89009 0.30102 0.60598 0.0
O22 O 0.90369 0.32231 0.66283 0.0
O23 O 0.84337 0.32042 0.58176 0.0
O24 O 0.87205 0.33431 0.62016 0.0
C25 C 0.90351 0.30912 0.63624 0.0
C26 C 0.85591 0.33481 0.60782 0.0
O27 O 0.84815 0.27816 0.54465 0.0
Mg28 Mg 0.5526 0.86408 0.90442 0.0
O29 O 0.54979 0.84564 0.96704 0.0
O30 O 0.54192 0.86037 0.02148 0.0
Mg31 Mg 0.541 0.8882 0.9958 0.0
C32 C 0.5456 0.84657 0.00718 0.0
C33 C 0.56928 0.8526 0.82565 0.0
O34 O 0.56591 0.86719 0.81157 0.0
O35 O 0.58445 0.88944 0.92656 0.0
O36 O 0.57551 0.90268 0.98225 0.0
O37 O 0.5187 0.84468 0.89354 0.0
O38 O 0.53322 0.8735 0.93162 0.0
C39 C 0.58907 0.9021 0.95813 0.0
C40 C 0.51667 0.85748 0.91845 0.0
O41 O 0.56603 0.84756 0.86569 0.0
Mg42 Mg 0.68574 0.55059 0.24885 0.0
O43 O 0.70391 0.55109 0.31035 0.0
O44 O 0.68236 0.54397 0.36661 0.0
Mg45 Mg 0.65161 0.53921 0.34313 0.0
C46 C 0.69986 0.54827 0.35119 0.0
C47 C 0.70907 0.56086 0.16541 0.0
O48 O 0.68934 0.55111 0.1559 0.0
O49 O 0.69018 0.58216 0.26745 0.0
O50 O 0.66828 0.57315 0.32349 0.0
O51 O 0.67308 0.51667 0.24159 0.0
O52 O 0.65817 0.53051 0.27973 0.0
C53 C 0.68143 0.58673 0.2977 0.0
C54 C 0.65839 0.51424 0.26743 0.0
O55 O 0.71429 0.56449 0.20532 0.0
Mg56 Mg 0.13238 0.68868 0.58179 0.0
O57 O 0.15267 0.70551 0.64173 0.0
O58 O 0.13964 0.68381 0.69813 0.0
Mg59 Mg 0.11086 0.65478 0.67688 0.0
C60 C 0.15303 0.70101 0.68187 0.0
C61 C 0.1672 0.72679 0.53409 0.0
O62 O 0.17796 0.72023 0.55558 0.0
O63 O 0.10767 0.69559 0.60647 0.0
O64 O 0.09594 0.6745 0.66416 0.0
O65 O 0.15105 0.6735 0.5688 0.0
O66 O 0.12351 0.66032 0.61079 0.0
C67 C 0.09584 0.68816 0.63952 0.0
C68 C 0.13881 0.65914 0.59527 0.0
O69 O 0.14786 0.71782 0.54007 0.0
Mg70 Mg 0.4437 0.13375 0.9115 0.0
O71 O 0.44442 0.15173 0.97336 0.0
O72 O 0.45268 0.13796 0.02905 0.0
Mg73 Mg 0.45652 0.11156 0.00461 0.0
C74 C 0.44812 0.15101 0.01388 0.0
C75 C 0.43789 0.16768 0.86661 0.0
O76 O 0.45473 0.17905 0.88919 0.0
O77 O 0.41248 0.10687 0.93247 0.0
O78 O 0.42214 0.09445 0.9883 0.0
O79 O 0.47749 0.15497 0.90198 0.0
O80 O 0.46423 0.12633 0.9405 0.0
C81 C 0.40825 0.09395 0.96338 0.0
C82 C 0.4803 0.14288 0.92755 0.0
O83 O 0.42874 0.14824 0.87092 0.0
Mg84 Mg 0.5506 0.69037 0.41945 0.0
O85 O 0.54912 0.70745 0.35795 0.0
O86 O 0.54131 0.68567 0.3019 0.0
Mg87 Mg 0.53898 0.65598 0.32554 0.0
C88 C 0.54534 0.70307 0.31742 0.0
C89 C 0.57016 0.71804 0.49855 0.0
O90 O 0.56921 0.70066 0.50949 0.0
O91 O 0.58234 0.69609 0.39833 0.0
O92 O 0.57341 0.67477 0.34107 0.0
O93 O 0.51666 0.67661 0.42876 0.0
O94 O 0.53093 0.66225 0.39005 0.0
C95 C 0.58696 0.68824 0.36638 0.0
C96 C 0.51448 0.66199 0.40298 0.0
O97 O 0.56439 0.71967 0.46049 0.0
Mg98 Mg 0.8601 0.54987 0.76252 0.0
O99 O 0.84214 0.55012 0.7013 0.0
O100 O 0.85613 0.54275 0.64451 0.0
Mg101 Mg 0.88208 0.53779 0.6676 0.0
C102 C 0.84307 0.54715 0.66041 0.0
C103 C 0.827 0.55767 0.80711 0.0
O104 O 0.81502 0.54254 0.78082 0.0
O105 O 0.88722 0.58113 0.74243 0.0
O106 O 0.89986 0.57186 0.68636 0.0
O107 O 0.83876 0.51594 0.7717 0.0
O108 O 0.86675 0.52946 0.73088 0.0
C109 C 0.90043 0.58554 0.71203 0.0
C110 C 0.8504 0.51336 0.74433 0.0
O111 O 0.84633 0.56483 0.8055 0.0
Mg112 Mg 0.30851 0.86112 0.09466 0.0
O113 O 0.29211 0.8431 0.032 0.0
O114 O 0.31431 0.85815 0.97702 0.0
Mg115 Mg 0.34323 0.886 0.00211 0.0
C116 C 0.29695 0.84423 0.99163 0.0
C117 C 0.2803 0.85197 0.17294 0.0
O118 O 0.29712 0.86913 0.18334 0.0
O119 O 0.30185 0.88668 0.07539 0.0
O120 O 0.3235 0.90048 0.01898 0.0
O121 O 0.32322 0.84174 0.10266 0.0
O122 O 0.33702 0.87083 0.06566 0.0
C123 C 0.30963 0.89968 0.04435 0.0
C124 C 0.33779 0.85479 0.07759 0.0
O125 O 0.27912 0.84438 0.13524 0.0
Mg126 Mg 0.4436 0.30649 0.42741 0.0
O127 O 0.44504 0.28988 0.36498 0.0
O128 O 0.45266 0.31211 0.3099 0.0
Mg129 Mg 0.45503 0.34161 0.33504 0.0
C130 C 0.44871 0.2946 0.32456 0.0
C131 C 0.42296 0.27809 0.50477 0.0
O132 O 0.42254 0.29491 0.51473 0.0
O133 O 0.41186 0.30085 0.40707 0.0
O134 O 0.42061 0.32272 0.35085 0.0
O135 O 0.47748 0.32014 0.4367 0.0
O136 O 0.4633 0.33484 0.39884 0.0
C137 C 0.40715 0.30899 0.37587 0.0
C138 C 0.47972 0.33497 0.41154 0.0
O139 O 0.42992 0.27701 0.46766 0.0
Mg140 Mg 0.13724 0.44522 0.75188 0.0
O141 O 0.15761 0.44683 0.69353 0.0
O142 O 0.14569 0.45547 0.63488 0.0
Mg143 Mg 0.11702 0.45664 0.65312 0.0
C144 C 0.15851 0.45134 0.65302 0.0
C145 C 0.14416 0.42664 0.83473 0.0
O146 O 0.12788 0.42811 0.84437 0.0
O147 O 0.11212 0.4135 0.7289 0.0
O148 O 0.10124 0.42217 0.66883 0.0
O149 O 0.15665 0.47924 0.76288 0.0
O150 O 0.12978 0.4648 0.7188 0.0
C151 C 0.10056 0.40872 0.6953 0.0
C152 C 0.14526 0.48127 0.73389 0.0
O153 O 0.15173 0.43165 0.7966 0.0
Mg154 Mg 0.68445 0.13409 0.09873 0.0
O155 O 0.70254 0.15194 0.03744 0.0
O156 O 0.68098 0.13835 0.9809 0.0
Mg157 Mg 0.65033 0.1121 0.00411 0.0
C158 C 0.69852 0.15127 0.99668 0.0
C159 C 0.70969 0.15367 0.17862 0.0
O160 O 0.69096 0.14997 0.18689 0.0
O161 O 0.68884 0.10706 0.079 0.0
O162 O 0.6672 0.09485 0.02241 0.0
O163 O 0.67201 0.15554 0.10638 0.0
O164 O 0.65686 0.12685 0.06807 0.0
C165 C 0.68027 0.09415 0.04799 0.0
C166 C 0.6573 0.14345 0.08042 0.0
O167 O 0.7133 0.14859 0.14149 0.0
H168 H 0.32476 0.39755 0.36252 0.0
H169 H 0.32547 0.36571 0.37106 0.0
H170 H 0.2999 0.34652 0.24224 0.0
H171 H 0.29941 0.37878 0.23302 0.0
H172 H 0.298 0.32183 0.36223 0.0
H173 H 0.35883 0.35563 0.23391 0.0
H174 H 0.34903 0.37057 0.25966 0.0
H175 H 0.33355 0.35104 0.22068 0.0
C176 C 0.3189 0.38642 0.33621 0.0
C177 C 0.31253 0.39091 0.29663 0.0
C178 C 0.31913 0.36811 0.34135 0.0
C179 C 0.31305 0.35393 0.30705 0.0
C180 C 0.30487 0.35742 0.26892 0.0
H181 H 0.38423 0.29298 0.30321 0.0
H182 H 0.35335 0.29441 0.2838 0.0
C183 C 0.30459 0.37583 0.26373 0.0
C184 C 0.3188 0.33775 0.30924 0.0
H185 H 0.35756 0.32969 0.27679 0.0
C186 C 0.31065 0.32308 0.3428 0.0
C187 C 0.33522 0.33934 0.2837 0.0
C188 C 0.34482 0.355 0.24755 0.0
C189 C 0.31942 0.31089 0.35335 0.0
C190 C 0.33709 0.3139 0.33044 0.0
C191 C 0.34405 0.32733 0.29453 0.0
C192 C 0.35066 0.30614 0.34652 0.0
C193 C 0.31004 0.29544 0.38977 0.0
C194 C 0.35868 0.31096 0.38912 0.0
C195 C 0.37597 0.30954 0.40056 0.0
C196 C 0.38572 0.30377 0.36925 0.0
C197 C 0.37679 0.29734 0.3279 0.0
C198 C 0.3592 0.29821 0.31682 0.0
H199 H 0.29305 0.2886 0.39026 0.0
H200 H 0.3137 0.28288 0.38669 0.0
H201 H 0.316 0.30335 0.42146 0.0
H202 H 0.35286 0.31766 0.41236 0.0
H203 H 0.38287 0.31492 0.43237 0.0
H204 H 0.92087 0.2983 0.57019 0.0
H205 H 0.95465 0.30065 0.57225 0.0
H206 H 0.9589 0.31351 0.71015 0.0
H207 H 0.92539 0.31112 0.70833 0.0
H208 H 0.9862 0.33844 0.59417 0.0
H209 H 0.98894 0.28124 0.70232 0.0
H210 H 0.96528 0.27729 0.67796 0.0
H211 H 0.97499 0.29219 0.72721 0.0
C212 C 0.92866 0.30078 0.60123 0.0
C213 C 0.9207 0.30487 0.63896 0.0
C214 C 0.94794 0.30208 0.60238 0.0
C215 C 0.95927 0.30713 0.64141 0.0
C216 C 0.95034 0.30919 0.67985 0.0
H217 H 0.07152 0.3837 0.75336 0.0
H218 H 0.03842 0.35354 0.73477 0.0
C219 C 0.93125 0.30809 0.67864 0.0
C220 C 0.98176 0.31514 0.64068 0.0
H221 H 0.02034 0.31499 0.69938 0.0
C222 C 0.99376 0.33295 0.61607 0.0
C223 C 0.99153 0.30806 0.66963 0.0
C224 C 0.97947 0.28851 0.69544 0.0
C225 C 0.01502 0.34501 0.62261 0.0
C226 C 0.02473 0.3386 0.65351 0.0
C227 C 0.01293 0.31991 0.67575 0.0
C228 C 0.04634 0.35257 0.6672 0.0
C229 C 0.02642 0.36543 0.59916 0.0
C230 C 0.06226 0.36112 0.63629 0.0
C231 C 0.0809 0.37869 0.64657 0.0
C232 C 0.08417 0.38734 0.68843 0.0
C233 C 0.06933 0.37719 0.72093 0.0
C234 C 0.05042 0.35997 0.71027 0.0
H235 H 0.01579 0.36983 0.58369 0.0
H236 H 0.03658 0.3779 0.62196 0.0
H237 H 0.03608 0.36441 0.573 0.0
H238 H 0.05967 0.35525 0.60325 0.0
H239 H 0.09225 0.38627 0.62111 0.0
H240 H 0.61511 0.93251 0.90389 0.0
H241 H 0.64531 0.96454 0.92676 0.0
H242 H 0.64145 0.93898 0.05488 0.0
H243 H 0.61045 0.90741 0.0325 0.0
H244 H 0.63793 0.97057 0.06158 0.0
H245 H 0.70469 0.9937 0.95489 0.0
H246 H 0.68254 0.98624 0.92138 0.0
H247 H 0.68358 0.96749 0.95654 0.0
C248 C 0.62133 0.93345 0.93624 0.0
C249 C 0.6106 0.91766 0.96653 0.0
C250 C 0.63872 0.95174 0.94934 0.0
C251 C 0.64584 0.95426 0.99263 0.0
C252 C 0.63631 0.93746 0.02136 0.0
H253 H 0.69535 0.07763 0.10782 0.0
H254 H 0.69492 0.04479 0.10087 0.0
C255 C 0.61865 0.91942 0.00859 0.0
C256 C 0.65945 0.9753 0.01012 0.0
H257 H 0.69982 0.0222 0.98193 0.0
C258 C 0.65193 0.98169 0.04518 0.0
C259 C 0.67775 0.9899 0.98901 0.0
C260 C 0.68767 0.98385 0.95369 0.0
C261 C 0.66084 0.00248 0.05659 0.0
C262 C 0.67793 0.01733 0.03257 0.0
C263 C 0.68665 0.0108 1.00019 0.0
C264 C 0.68379 0.0393 0.03434 0.0
C265 C 0.6506 0.00852 0.09142 0.0
C266 C 0.67892 0.04762 0.99847 0.0
C267 C 0.67915 0.06621 0.0023 0.0
C268 C 0.68432 0.07693 0.04213 0.0
C269 C 0.69111 0.0696 0.07687 0.0
C270 C 0.69084 0.05085 0.07298 0.0
H271 H 0.6362 0.99516 0.1038 0.0
H272 H 0.66127 0.01553 0.11936 0.0
H273 H 0.64686 0.02009 0.07852 0.0
H274 H 0.67348 0.039 0.96832 0.0
H275 H 0.67422 0.07162 0.97463 0.0
H276 H 0.67506 0.604 0.3694 0.0
H277 H 0.67322 0.6354 0.37253 0.0
H278 H 0.69445 0.64929 0.23954 0.0
H279 H 0.696 0.6174 0.23581 0.0
H280 H 0.69831 0.67859 0.35532 0.0
H281 H 0.63465 0.63741 0.2352 0.0
H282 H 0.64627 0.62458 0.26276 0.0
H283 H 0.65995 0.64269 0.22001 0.0
C284 C 0.67976 0.6139 0.341 0.0
C285 C 0.68515 0.60795 0.30196 0.0
C286 C 0.67888 0.63198 0.34301 0.0
C287 C 0.68333 0.64446 0.30605 0.0
C288 C 0.69069 0.63968 0.26826 0.0
H289 H 0.60856 0.70152 0.29134 0.0
H290 H 0.63947 0.70003 0.27272 0.0
C291 C 0.69161 0.6215 0.26621 0.0
C292 C 0.67664 0.65997 0.30569 0.0
H293 H 0.6359 0.66472 0.27276 0.0
C294 C 0.685 0.67599 0.33644 0.0
C295 C 0.65931 0.65658 0.28096 0.0
C296 C 0.64937 0.63936 0.24798 0.0
C297 C 0.67568 0.68787 0.34503 0.0
C298 C 0.65729 0.68324 0.32299 0.0
C299 C 0.64998 0.66833 0.28979 0.0
C300 C 0.64356 0.69109 0.33742 0.0
C301 C 0.68531 0.7048 0.3785 0.0
C302 C 0.63629 0.68787 0.38067 0.0
C303 C 0.61895 0.68931 0.39157 0.0
C304 C 0.60838 0.69346 0.35914 0.0
C305 C 0.61658 0.69836 0.31687 0.0
C306 C 0.6342 0.69747 0.30624 0.0
H307 H 0.70234 0.71208 0.37799 0.0
H308 H 0.68111 0.71686 0.37296 0.0
H309 H 0.68001 0.69815 0.41149 0.0
H310 H 0.64279 0.68239 0.40516 0.0
H311 H 0.61266 0.68515 0.4242 0.0
H312 H 0.92429 0.60255 0.6404 0.0
H313 H 0.95741 0.63414 0.63706 0.0
H314 H 0.94978 0.6484 0.76957 0.0
H315 H 0.91643 0.6164 0.77345 0.0
H316 H 0.97487 0.67788 0.6549 0.0
H317 H -0.00175 0.6368 0.77322 0.0
H318 H 0.97389 0.6237 0.74523 0.0
H319 H 0.9778 0.64144 0.78844 0.0
C320 C 0.9294 0.61258 0.66863 0.0
C321 C 0.91798 0.60674 0.70757 0.0
C322 C 0.94828 0.63075 0.66649 0.0
C323 C 0.95617 0.64342 0.70325 0.0
C324 C 0.944 0.63867 0.74097 0.0
H325 H 0.08795 0.70086 0.71601 0.0
H326 H 0.05569 0.69933 0.73611 0.0
C327 C 0.92496 0.62042 0.74312 0.0
C328 C 0.9783 0.65914 0.70362 0.0
H329 H 0.02406 0.66432 0.73563 0.0
C330 C 0.98573 0.67535 0.67338 0.0
C331 C 0.99241 0.65586 0.72791 0.0
C332 C 0.98533 0.63849 0.76043 0.0
C333 C 0.00691 0.68756 0.66487 0.0
C334 C 0.02087 0.68301 0.6863 0.0
C335 C 0.01347 0.66789 0.71905 0.0
C336 C 0.04244 0.69111 0.67141 0.0
C337 C 0.01397 0.70475 0.63211 0.0
C338 C 0.04637 0.68839 0.62774 0.0
C339 C 0.0651 0.68991 0.61602 0.0
C340 C 0.07988 0.69359 0.64803 0.0
C341 C 0.07673 0.69806 0.69081 0.0
C342 C 0.05828 0.69713 0.70227 0.0
H343 H 0.00415 0.71194 0.63372 0.0
H344 H 0.03024 0.71683 0.6375 0.0
H345 H 0.01243 0.69839 0.59877 0.0
H346 H 0.03434 0.68319 0.60342 0.0
H347 H 0.0671 0.6861 0.58298 0.0
H348 H 0.29064 0.90527 0.97499 0.0
H349 H 0.29187 0.93755 0.95551 0.0
H350 H 0.32018 0.96345 0.07953 0.0
H351 H 0.31772 0.93077 0.09996 0.0
H352 H 0.29821 0.98112 0.0487 0.0
H353 H 0.34929 0.97906 0.91909 0.0
H354 H 0.32284 0.95916 0.91638 0.0
H355 H 0.33861 0.95991 0.96133 0.0
C356 C 0.2962 0.91759 0.99876 0.0
C357 C 0.30413 0.91573 0.03885 0.0
C358 C 0.29709 0.93606 0.9875 0.0
C359 C 0.30679 0.95312 0.01543 0.0
C360 C 0.31274 0.95053 0.05733 0.0
H361 H 0.39114 0.07331 0.03836 0.0
H362 H 0.35956 0.04046 0.04583 0.0
C363 C 0.31132 0.93187 0.06907 0.0
C364 C 0.31415 0.97426 0.99892 0.0
H365 H 0.35015 0.00993 0.93044 0.0
C366 C 0.30923 0.98735 0.02221 0.0
C367 C 0.32853 0.98241 0.96419 0.0
C368 C 0.3353 0.96952 0.93894 0.0
C369 C 0.31927 0.00857 0.01351 0.0
C370 C 0.33466 0.01684 0.98094 0.0
C371 C 0.33826 0.00352 0.95526 0.0
C372 C 0.35009 0.03906 0.97863 0.0
C373 C 0.31397 0.02205 0.04053 0.0
C374 C 0.35514 0.04955 0.93853 0.0
C375 C 0.3734 0.06845 0.93409 0.0
C376 C 0.38698 0.07685 0.96955 0.0
C377 C 0.38106 0.06709 0.01035 0.0
C378 C 0.36282 0.0484 0.01484 0.0
H379 H 0.29754 0.01355 0.05058 0.0
H380 H 0.32345 0.02675 0.07064 0.0
H381 H 0.317 0.03612 0.02248 0.0
H382 H 0.34565 0.04249 0.91005 0.0
H383 H 0.37759 0.07563 0.90226 0.0
H384 H 0.18012 0.42565 0.8283 0.0
H385 H 0.19981 0.42204 0.88787 0.0
H386 H 0.15269 0.41412 0.97921 0.0
H387 H 0.13281 0.41734 0.91999 0.0
H388 H 0.21516 0.4484 0.95619 0.0
H389 H 0.16458 0.3695 0.01834 0.0
H390 H 0.16077 0.3779 0.96573 0.0
H391 H 0.1516 0.38405 0.01448 0.0
C392 C 0.17374 0.42271 0.86092 0.0
C393 C 0.15491 0.42186 0.86938 0.0
C394 C 0.18503 0.42067 0.89494 0.0
C395 C 0.17764 0.41759 0.93797 0.0
C396 C 0.15851 0.41602 0.94621 0.0
H397 H 0.24759 0.45797 0.1748 0.0
H398 H 0.22433 0.45071 0.11317 0.0
C399 C 0.14722 0.41803 0.91226 0.0
C400 C 0.19083 0.41829 0.97477 0.0
H401 H 0.19157 0.39276 0.06646 0.0
C402 C 0.21008 0.43612 0.97998 0.0
C403 C 0.18429 0.4022 0.00568 0.0
C404 C 0.16426 0.38225 1.0006 0.0
C405 C 0.22264 0.43861 0.01599 0.0
C406 C 0.21563 0.42301 0.04807 0.0
C407 C 0.19675 0.40483 0.04213 0.0
C408 C 0.22773 0.42563 0.08815 0.0
C409 C 0.24332 0.458 0.0195 0.0
C410 C 0.23661 0.41331 0.09556 0.0
C411 C 0.2499 0.41737 0.13094 0.0
C412 C 0.25446 0.43379 0.15952 0.0
C413 C 0.24458 0.44532 0.15328 0.0
C414 C 0.23133 0.44126 0.11796 0.0
H415 H 0.24855 0.46592 0.98755 0.0
H416 H 0.24214 0.46875 0.0426 0.0
H417 H 0.25516 0.45458 0.03208 0.0
H418 H 0.2339 0.40109 0.07303 0.0
H419 H 0.25719 0.40814 0.1349 0.0
H420 H 0.83459 0.24195 0.50782 0.0
H421 H 0.81635 0.21601 0.45097 0.0
H422 H 0.8111 0.26125 0.37395 0.0
H423 H 0.82969 0.28714 0.42937 0.0
H424 H 0.77861 0.20057 0.42144 0.0
H425 H 0.83066 0.23739 0.28246 0.0
H426 H 0.83824 0.24613 0.33778 0.0
H427 H 0.82408 0.25517 0.30604 0.0
C428 C 0.82973 0.24637 0.4785 0.0
C429 C 0.83371 0.26664 0.47301 0.0
C430 C 0.81935 0.23155 0.44602 0.0
C431 C 0.8128 0.23678 0.40758 0.0
C432 C 0.81662 0.25696 0.40246 0.0
H433 H 0.70746 0.17168 0.25361 0.0
H434 H 0.73381 0.18887 0.30892 0.0
C435 C 0.82711 0.27175 0.43452 0.0
C436 C 0.80054 0.22101 0.3741 0.0
H437 H 0.7946 0.21418 0.26386 0.0
C438 C 0.78235 0.20334 0.38704 0.0
C439 C 0.8056 0.22418 0.32918 0.0
C440 C 0.82585 0.24164 0.31318 0.0
C441 C 0.76834 0.18971 0.35619 0.0
C442 C 0.7723 0.19422 0.31119 0.0
C443 C 0.79127 0.21093 0.2983 0.0
C444 C 0.75626 0.18309 0.27746 0.0
C445 C 0.74924 0.17081 0.3723 0.0
C446 C 0.76032 0.1748 0.24015 0.0
C447 C 0.74528 0.16522 0.20771 0.0
C448 C 0.72595 0.1638 0.21213 0.0
C449 C 0.72207 0.17226 0.24935 0.0
C450 C 0.73709 0.18194 0.28135 0.0
H451 H 0.75221 0.16541 0.40374 0.0
H452 H 0.73696 0.17467 0.37812 0.0
H453 H 0.74355 0.15804 0.34831 0.0
H454 H 0.7751 0.17573 0.23614 0.0
H455 H 0.74874 0.15889 0.17936 0.0
H456 H 0.57516 0.81993 0.84205 0.0
H457 H 0.58087 0.79904 0.7885 0.0
H458 H 0.58044 0.83768 0.68492 0.0
H459 H 0.5752 0.85878 0.73798 0.0
H460 H 0.55465 0.77699 0.72343 0.0
H461 H 0.62985 0.83284 0.65159 0.0
H462 H 0.62065 0.83773 0.70206 0.0
H463 H 0.61191 0.84201 0.65054 0.0
C464 C 0.57666 0.82419 0.80794 0.0
C465 C 0.57471 0.84102 0.79432 0.0
C466 C 0.5799 0.81223 0.77738 0.0
C467 C 0.58138 0.81696 0.73271 0.0
C468 C 0.57988 0.83402 0.71922 0.0
H469 H 0.57035 0.75454 0.48973 0.0
H470 H 0.575 0.77904 0.54762 0.0
C471 C 0.57671 0.84599 0.74968 0.0
C472 C 0.58255 0.80305 0.69982 0.0
H473 H 0.60914 0.80203 0.61021 0.0
C474 C 0.56673 0.7824 0.69908 0.0
C475 C 0.59827 0.81014 0.66789 0.0
C476 C 0.61624 0.83185 0.66825 0.0
C477 C 0.56582 0.76885 0.66649 0.0
C478 C 0.58127 0.77606 0.63403 0.0
C479 C 0.59728 0.79659 0.63508 0.0
C480 C 0.58068 0.76247 0.59834 0.0
C481 C 0.54797 0.74706 0.66619 0.0
C482 C 0.58297 0.74543 0.60752 0.0
C483 C 0.58034 0.73145 0.57462 0.0
C484 C 0.57539 0.73424 0.53185 0.0
C485 C 0.57407 0.75188 0.52233 0.0
C486 C 0.57674 0.7659 0.55533 0.0
H487 H 0.53533 0.74511 0.68811 0.0
H488 H 0.54173 0.74239 0.63269 0.0
H489 H 0.55334 0.73649 0.67739 0.0
H490 H 0.58629 0.74269 0.64042 0.0
H491 H 0.58162 0.71812 0.58307 0.0
H492 H 0.70142 0.55243 0.07897 0.0
H493 H 0.72588 0.5583 0.02101 0.0
H494 H 0.77599 0.58718 0.11276 0.0
H495 H 0.75136 0.58083 0.17172 0.0
H496 H 0.75812 0.59307 0.98754 0.0
H497 H 0.78531 0.54293 0.06014 0.0
H498 H 0.76303 0.54346 0.08049 0.0
H499 H 0.78845 0.56388 0.09384 0.0
C500 C 0.71764 0.56009 0.08702 0.0
C501 C 0.72441 0.56598 0.13016 0.0
C502 C 0.73163 0.56349 0.0537 0.0
C503 C 0.75275 0.57289 0.06257 0.0
C504 C 0.75972 0.57949 0.10531 0.0
H505 H 0.84652 0.58234 0.87745 0.0
H506 H 0.83063 0.58967 0.93949 0.0
C507 C 0.74564 0.57597 0.13891 0.0
C508 C 0.76709 0.57507 0.02685 0.0
H509 H 0.79909 0.55785 0.99214 0.0
C510 C 0.76724 0.58554 0.98873 0.0
C511 C 0.779 0.56524 0.02839 0.0
C512 C 0.7789 0.5531 0.0677 0.0
C513 C 0.7785 0.58596 0.95177 0.0
C514 C 0.78979 0.57554 0.95287 0.0
C515 C 0.7904 0.56584 0.9915 0.0
C516 C 0.79975 0.57306 0.91338 0.0
C517 C 0.77799 0.59728 0.91161 0.0
C518 C 0.78766 0.56143 0.87801 0.0
C519 C 0.79664 0.55709 0.84266 0.0
C520 C 0.81791 0.56432 0.84199 0.0
C521 C 0.8301 0.57659 0.87683 0.0
C522 C 0.82106 0.58077 0.91236 0.0
H523 H 0.77343 0.6089 0.91953 0.0
H524 H 0.79323 0.60511 0.89522 0.0
H525 H 0.76656 0.5861 0.88829 0.0
H526 H 0.77113 0.55506 0.87846 0.0
H527 H 0.78681 0.5476 0.81643 0.0
H528 H 0.14859 0.73939 0.47424 0.0
H529 H 0.16451 0.7614 0.41049 0.0
H530 H 0.22381 0.77118 0.45052 0.0
H531 H 0.20807 0.74904 0.51384 0.0
H532 H 0.19644 0.80228 0.39991 0.0
H533 H 0.21676 0.74712 0.32749 0.0
H534 H 0.19914 0.74047 0.37269 0.0
H535 H 0.22648 0.75484 0.38183 0.0
C536 C 0.16506 0.7464 0.46975 0.0
C537 C 0.17703 0.74225 0.49889 0.0
C538 C 0.17412 0.75896 0.43327 0.0
C539 C 0.19525 0.76752 0.42526 0.0
C540 C 0.20739 0.76431 0.45554 0.0
H541 H 0.27981 0.86355 0.25705 0.0
H542 H 0.25648 0.84301 0.3153 0.0
C543 C 0.19837 0.75174 0.49188 0.0
C544 C 0.2046 0.77928 0.38465 0.0
H545 H 0.23219 0.78042 0.29515 0.0
C546 C 0.20412 0.79745 0.37677 0.0
C547 C 0.21419 0.77269 0.35397 0.0
C548 C 0.21402 0.75261 0.35909 0.0
C549 C 0.21377 0.80968 0.33995 0.0
C550 C 0.22445 0.80372 0.3107 0.0
C551 C 0.22416 0.78509 0.3177 0.0
C552 C 0.23706 0.81701 0.27408 0.0
C553 C 0.21242 0.82884 0.33276 0.0
C554 C 0.23404 0.80924 0.23137 0.0
C555 C 0.24755 0.82091 0.19788 0.0
C556 C 0.26442 0.84053 0.20661 0.0
C557 C 0.26696 0.84853 0.2491 0.0
C558 C 0.25351 0.83685 0.28249 0.0
H559 H 0.19852 0.82759 0.34861 0.0
H560 H 0.22609 0.84218 0.34747 0.0
H561 H 0.21202 0.83195 0.29748 0.0
H562 H 0.22152 0.79392 0.22417 0.0
H563 H 0.24516 0.81428 0.16556 0.0
H564 H 0.4071 0.14824 0.80617 0.0
H565 H 0.40018 0.16375 0.74289 0.0
H566 H 0.44734 0.22386 0.78509 0.0
H567 H 0.45455 0.20855 0.84807 0.0
H568 H 0.38942 0.19491 0.73304 0.0
H569 H 0.46592 0.21783 0.66216 0.0
H570 H 0.45507 0.19984 0.70675 0.0
H571 H 0.46711 0.22704 0.71673 0.0
C572 C 0.41584 0.16479 0.80231 0.0
C573 C 0.43157 0.17714 0.83192 0.0
C574 C 0.41185 0.17362 0.7661 0.0
C575 C 0.42355 0.19489 0.75885 0.0
C576 C 0.43844 0.20735 0.78963 0.0
H577 H 0.41003 0.27748 0.58821 0.0
H578 H 0.40736 0.25449 0.64711 0.0
C579 C 0.44247 0.19857 0.82574 0.0
C580 C 0.42089 0.20403 0.71825 0.0
H581 H 0.44705 0.23186 0.62879 0.0
C582 C 0.40194 0.20287 0.71002 0.0
C583 C 0.4371 0.21398 0.68779 0.0
C584 C 0.45739 0.21461 0.69346 0.0
C585 C 0.39907 0.21218 0.67297 0.0
C586 C 0.41568 0.22314 0.64381 0.0
C587 C 0.43435 0.22357 0.65125 0.0
C588 C 0.41461 0.2353 0.60676 0.0
C589 C 0.37828 0.21015 0.66539 0.0
C590 C 0.41961 0.23223 0.56431 0.0
C591 C 0.42136 0.24553 0.53048 0.0
C592 C 0.41829 0.26224 0.53859 0.0
C593 C 0.41247 0.26476 0.58075 0.0
C594 C 0.41077 0.2515 0.6145 0.0
H595 H 0.36586 0.1962 0.68153 0.0
H596 H 0.3782 0.22372 0.67948 0.0
H597 H 0.37476 0.20941 0.63004 0.0
H598 H 0.42274 0.21989 0.55763 0.0
H599 H 0.42587 0.24316 0.49841 0.0
H600 H 0.17865 0.47732 0.58639 0.0
H601 H 0.20243 0.47553 0.53473 0.0
H602 H 0.19721 0.42286 0.60307 0.0
H603 H 0.17415 0.42535 0.65648 0.0
H604 H 0.23505 0.44635 0.5777 0.0
H605 H 0.18503 0.43576 0.43675 0.0
H606 H 0.19169 0.45933 0.46423 0.0
H607 H 0.17668 0.43513 0.49213 0.0
C608 C 0.18273 0.46547 0.59058 0.0
C609 C 0.17447 0.45135 0.62509 0.0
C610 C 0.19613 0.46431 0.56078 0.0
C611 C 0.201 0.44858 0.564 0.0
C612 C 0.19345 0.43497 0.5996 0.0
H613 H 0.25864 0.42627 0.33776 0.0
H614 H 0.23397 0.42302 0.394 0.0
C615 C 0.18037 0.43643 0.63014 0.0
C616 C 0.21401 0.44653 0.53018 0.0
H617 H 0.22025 0.4462 0.42 0.0
C618 C 0.23169 0.44606 0.54322 0.0
C619 C 0.20933 0.44551 0.48516 0.0
C620 C 0.18951 0.44371 0.46882 0.0
C621 C 0.24528 0.44555 0.51249 0.0
C622 C 0.24155 0.44644 0.46744 0.0
C623 C 0.22339 0.44596 0.45446 0.0
C624 C 0.25644 0.44832 0.4333 0.0
C625 C 0.26332 0.44381 0.52882 0.0
C626 C 0.27714 0.46392 0.43599 0.0
C627 C 0.29125 0.46549 0.40447 0.0
C628 C 0.28483 0.45194 0.36881 0.0
C629 C 0.26396 0.43694 0.36491 0.0
C630 C 0.2499 0.43505 0.39708 0.0
H631 H 0.25984 0.43582 0.56084 0.0
H632 H 0.26764 0.4353 0.50547 0.0
H633 H 0.27673 0.45945 0.53355 0.0
H634 H 0.28243 0.47491 0.46252 0.0
H635 H 0.30722 0.4774 0.40791 0.0
H636 H 0.8495 0.29232 0.779 0.0
H637 H 0.82499 0.26731 0.83019 0.0
H638 H 0.78625 0.23158 0.72323 0.0
H639 H 0.81103 0.25646 0.67129 0.0
H640 H 0.78506 0.25713 0.84184 0.0
H641 H 0.78987 0.18811 0.79578 0.0
H642 H 0.80855 0.21369 0.77795 0.0
H643 H 0.78399 0.19983 0.75123 0.0
C644 C 0.83585 0.27909 0.76615 0.0
C645 C 0.83223 0.27642 0.72094 0.0
C646 C 0.82186 0.2648 0.79556 0.0
C647 C 0.80392 0.24749 0.78055 0.0
C648 C 0.80023 0.24463 0.73547 0.0
H649 H 0.69619 0.15187 0.90792 0.0
H650 H 0.72228 0.17543 0.85707 0.0
C651 C 0.81434 0.25891 0.70585 0.0
C652 C 0.78875 0.23308 0.81249 0.0
H653 H 0.76364 0.18302 0.84608 0.0
C654 C 0.78046 0.24094 0.84293 0.0
C655 C 0.78281 0.212 0.81383 0.0
C656 C 0.79188 0.20289 0.78324 0.0
C657 C 0.76613 0.22821 0.87428 0.0
C658 C 0.76013 0.20713 0.87546 0.0
C659 C 0.76838 0.19924 0.84507 0.0
C660 C 0.74466 0.19285 0.90694 0.0
C661 C 0.75716 0.23728 0.90527 0.0
C662 C 0.74872 0.19477 0.9519 0.0
C663 C 0.7338 0.18127 0.98131 0.0
C664 C 0.71459 0.16565 0.96612 0.0
C665 C 0.71075 0.16375 0.92092 0.0
C666 C 0.72566 0.17717 0.89168 0.0
H667 H 0.76031 0.25272 0.89456 0.0
H668 H 0.74027 0.22702 0.90834 0.0
H669 H 0.76406 0.23887 0.93805 0.0
H670 H 0.76345 0.20666 0.96419 0.0
H671 H 0.7373 0.18312 0.01584 0.0
H672 H 0.54891 0.8123 0.99083 0.0
H673 H 0.54858 0.78787 0.04435 0.0
H674 H 0.54222 0.82293 0.14844 0.0
H675 H 0.5421 0.84704 0.09565 0.0
H676 H 0.57518 0.79503 0.11308 0.0
H677 H 0.49574 0.76531 0.17445 0.0
H678 H 0.50497 0.78018 0.12496 0.0
H679 H 0.51123 0.79281 0.17717 0.0
C680 C 0.54731 0.81473 0.02509 0.0
C681 C 0.54536 0.83155 0.03885 0.0
C682 C 0.54714 0.80078 0.0556 0.0
C683 C 0.54498 0.8034 0.10026 0.0
C684 C 0.54335 0.82031 0.11407 0.0
H685 H 0.54796 0.74013 0.33644 0.0
H686 H 0.54871 0.76536 0.2844 0.0
C687 C 0.5434 0.83416 0.08373 0.0
C688 C 0.54507 0.78886 0.13275 0.0
H689 H 0.51709 0.75641 0.2155 0.0
C690 C 0.56244 0.78649 0.1353 0.0
C691 C 0.52844 0.77782 0.16182 0.0
C692 C 0.50896 0.77898 0.15928 0.0
C693 C 0.56372 0.77354 0.16654 0.0
C694 C 0.54716 0.76262 0.19567 0.0
C695 C 0.52982 0.765 0.19329 0.0
C696 C 0.54706 0.74772 0.22722 0.0
C697 C 0.58285 0.77174 0.16852 0.0
C698 C 0.54564 0.72946 0.2121 0.0
C699 C 0.54508 0.71505 0.2415 0.0
C700 C 0.54594 0.7186 0.28675 0.0
C701 C 0.54734 0.73696 0.30185 0.0
C702 C 0.54775 0.75135 0.27224 0.0
H703 H 0.59589 0.78443 0.1506 0.0
H704 H 0.58757 0.7718 0.20287 0.0
H705 H 0.57958 0.75695 0.15353 0.0
H706 H 0.54481 0.72629 0.17745 0.0
H707 H 0.54402 0.70111 0.22861 0.0
H708 H 0.69865 0.54968 0.43987 0.0
H709 H 0.72399 0.55156 0.49193 0.0
H710 H 0.76221 0.5522 0.38622 0.0
H711 H 0.73698 0.55072 0.33339 0.0
H712 H 0.73669 0.52378 0.50369 0.0
H713 H 0.80302 0.60016 0.46092 0.0
H714 H 0.77722 0.59171 0.44206 0.0
H715 H 0.79263 0.58269 0.41573 0.0
C716 C 0.71248 0.55033 0.42746 0.0
C717 C 0.71576 0.55003 0.38233 0.0
C718 C 0.72696 0.55143 0.45739 0.0
C719 C 0.74507 0.55225 0.443 0.0
C720 C 0.74852 0.55201 0.39801 0.0
H721 H 0.84346 0.54583 0.57153 0.0
H722 H 0.8195 0.54764 0.52068 0.0
C723 C 0.73403 0.55105 0.36787 0.0
C724 C 0.75977 0.55239 0.47545 0.0
H725 H 0.80949 0.57983 0.51089 0.0
C726 C 0.75258 0.5361 0.50545 0.0
C727 C 0.78046 0.56851 0.4777 0.0
C728 C 0.78879 0.58687 0.44767 0.0
C729 C 0.76562 0.53529 0.53714 0.0
C730 C 0.78633 0.55131 0.53914 0.0
C731 C 0.79354 0.56763 0.50927 0.0
C732 C 0.801 0.55086 0.57067 0.0
C733 C 0.75731 0.51706 0.56755 0.0
C734 C 0.79864 0.55232 0.61572 0.0
C735 C 0.81237 0.5513 0.64515 0.0
C736 C 0.82865 0.54879 0.62987 0.0
C737 C 0.83105 0.54765 0.58458 0.0
C738 C 0.81741 0.54874 0.55535 0.0
H739 H 0.74224 0.50423 0.55638 0.0
H740 H 0.76833 0.51132 0.57053 0.0
H741 H 0.75517 0.52185 0.60047 0.0
H742 H 0.78616 0.55421 0.62808 0.0
H743 H 0.81011 0.55231 0.67975 0.0
H744 H 0.16199 0.69439 0.76428 0.0
H745 H 0.18689 0.71943 0.81498 0.0
H746 H 0.20541 0.76707 0.71808 0.0
H747 H 0.18031 0.742 0.66662 0.0
H748 H 0.2307 0.7453 0.80315 0.0
H749 H 0.18965 0.789 0.82918 0.0
H750 H 0.17717 0.76342 0.80615 0.0
H751 H 0.1945 0.78507 0.77352 0.0
C752 C 0.17132 0.71017 0.75352 0.0
C753 C 0.16904 0.71621 0.71139 0.0
C754 C 0.18558 0.72444 0.7826 0.0
C755 C 0.19776 0.74508 0.77041 0.0
C756 C 0.1959 0.75121 0.7282 0.0
H757 H 0.30392 0.83935 0.90633 0.0
H758 H 0.27968 0.81512 0.85352 0.0
C759 C 0.18166 0.73686 0.69881 0.0
C760 C 0.21237 0.76001 0.80228 0.0
H761 H 0.22132 0.80102 0.86586 0.0
C762 C 0.22873 0.75754 0.81677 0.0
C763 C 0.20948 0.77571 0.82036 0.0
C764 C 0.19169 0.77848 0.80689 0.0
C765 C 0.24245 0.77053 0.84872 0.0
C766 C 0.23975 0.78642 0.86634 0.0
C767 C 0.2233 0.7888 0.85215 0.0
C768 C 0.25423 0.80105 0.89878 0.0
C769 C 0.25957 0.76701 0.86385 0.0
C770 C 0.24781 0.8013 0.94165 0.0
C771 C 0.26168 0.81516 0.97221 0.0
C772 C 0.28211 0.82912 0.96012 0.0
C773 C 0.28833 0.82883 0.91691 0.0
C774 C 0.27453 0.81495 0.88661 0.0
H775 H 0.25685 0.75157 0.85427 0.0
H776 H 0.27427 0.77876 0.84892 0.0
H777 H 0.26133 0.76856 0.89984 0.0
H778 H 0.23213 0.79068 0.95149 0.0
H779 H 0.25636 0.81504 0.0051 0.0
H780 H 0.44915 0.14999 0.1027 0.0
H781 H 0.44801 0.17406 0.15428 0.0
H782 H 0.44356 0.20917 0.04793 0.0
H783 H 0.4447 0.18504 0.9955 0.0
H784 H 0.47505 0.23209 0.11531 0.0
H785 H 0.39719 0.18066 0.18383 0.0
H786 H 0.41381 0.16988 0.1807 0.0
H787 H 0.40522 0.17614 0.13143 0.0
C788 C 0.44785 0.16276 0.09005 0.0
C789 C 0.44701 0.16557 0.04485 0.0
C790 C 0.44708 0.17643 0.11969 0.0
C791 C 0.44544 0.19319 0.10486 0.0
C792 C 0.44467 0.19619 0.05988 0.0
H793 H 0.4502 0.29746 0.23586 0.0
H794 H 0.44943 0.27282 0.1833 0.0
C795 C 0.44531 0.1824 0.03005 0.0
C796 C 0.44539 0.20796 0.13661 0.0
H797 H 0.41795 0.21223 0.22066 0.0
C798 C 0.46252 0.22785 0.13816 0.0
C799 C 0.42911 0.20221 0.16659 0.0
C800 C 0.41018 0.18111 0.16554 0.0
C801 C 0.46399 0.24211 0.16957 0.0
C802 C 0.44763 0.23642 0.19945 0.0
C803 C 0.43048 0.21651 0.1978 0.0
C804 C 0.44779 0.25114 0.23182 0.0
C805 C 0.48327 0.26295 0.17112 0.0
C806 C 0.4464 0.24679 0.27665 0.0
C807 C 0.44662 0.26082 0.30705 0.0
C808 C 0.44819 0.27939 0.29301 0.0
C809 C 0.44924 0.28345 0.24798 0.0
C810 C 0.44891 0.26942 0.21776 0.0
H811 H 0.49645 0.26269 0.15528 0.0
H812 H 0.48054 0.27424 0.15336 0.0
H813 H 0.48758 0.26837 0.20524 0.0
H814 H 0.44536 0.23265 0.2881 0.0
H815 H 0.44571 0.25718 0.34144 0.0
H816 H 0.33866 0.51941 0.23717 0.0
H817 H 0.36467 0.55374 0.26305 0.0
H818 H 0.39995 0.52812 0.31738 0.0
H819 H 0.37445 0.49412 0.29144 0.0
H820 H 0.39241 0.55548 0.37487 0.0
H821 H 0.42502 0.58813 0.21147 0.0
H822 H 0.39756 0.57553 0.21918 0.0
H823 H 0.41028 0.56072 0.22063 0.0
C824 C 0.35199 0.52114 0.25457 0.0
C825 C 0.3544 0.50401 0.26259 0.0
C826 C 0.36679 0.54072 0.26931 0.0
C827 C 0.38415 0.54337 0.29215 0.0
C828 C 0.38655 0.52632 0.30009 0.0
H829 H 0.50535 0.62807 0.35445 0.0
H830 H 0.47184 0.60196 0.32729 0.0
C831 C 0.3719 0.50687 0.28531 0.0
C832 C 0.40025 0.56382 0.30758 0.0
H833 H 0.44286 0.60756 0.27285 0.0
C834 C 0.40322 0.56713 0.35268 0.0
C835 C 0.4143 0.57882 0.27836 0.0
C836 C 0.41183 0.57576 0.22965 0.0
C837 C 0.42052 0.58464 0.36941 0.0
C838 C 0.43508 0.59919 0.34017 0.0
C839 C 0.43157 0.59637 0.29508 0.0
C840 C 0.45527 0.61584 0.35552 0.0
C841 C 0.42379 0.58686 0.41811 0.0
C842 C 0.45705 0.63237 0.38028 0.0
C843 C 0.47631 0.64748 0.39578 0.0
C844 C 0.49404 0.64625 0.38662 0.0
C845 C 0.49211 0.62968 0.36163 0.0
C846 C 0.47294 0.6147 0.3461 0.0
H847 H 0.41212 0.57308 0.43607 0.0
H848 H 0.43933 0.58952 0.42644 0.0
H849 H 0.42285 0.6004 0.42954 0.0
H850 H 0.44356 0.63354 0.38765 0.0
H851 H 0.47731 0.66009 0.41489 0.0
H852 H 0.85276 0.50268 0.66083 0.0
H853 H 0.84808 0.46985 0.63491 0.0
H854 H 0.83203 0.44523 0.76534 0.0
H855 H 0.83593 0.47795 0.79089 0.0
H856 H 0.87069 0.45458 0.65746 0.0
H857 H 0.79028 0.39692 0.69791 0.0
H858 H 0.7996 0.42422 0.69958 0.0
H859 H 0.80397 0.41161 0.74489 0.0
C860 C 0.848 0.49017 0.6838 0.0
C861 C 0.84496 0.49284 0.7279 0.0
C862 C 0.84521 0.47138 0.66896 0.0
C863 C 0.8396 0.45497 0.69805 0.0
C864 C 0.83586 0.45743 0.74197 0.0
H865 H 0.8784 0.36571 0.66587 0.0
H866 H 0.87275 0.39359 0.68815 0.0
C867 C 0.83824 0.47616 0.75664 0.0
C868 C 0.84002 0.43633 0.68333 0.0
H869 H 0.81311 0.38376 0.68349 0.0
C870 C 0.85796 0.43912 0.66276 0.0
C871 C 0.82338 0.41611 0.68972 0.0
C872 C 0.80315 0.41203 0.70881 0.0
C873 C 0.85993 0.42236 0.64928 0.0
C874 C 0.84381 0.40216 0.65805 0.0
C875 C 0.8256 0.39927 0.67747 0.0
C876 C 0.84584 0.38397 0.64769 0.0
C877 C 0.87923 0.42655 0.62533 0.0
C878 C 0.83196 0.36867 0.61921 0.0
C879 C 0.8349 0.35234 0.60708 0.0
C880 C 0.85179 0.35109 0.6232 0.0
C881 C 0.86523 0.3661 0.65282 0.0
C882 C 0.86214 0.38222 0.66531 0.0
H883 H 0.88675 0.4419 0.60939 0.0
H884 H 0.89035 0.42639 0.64892 0.0
H885 H 0.87588 0.41469 0.60003 0.0
H886 H 0.81919 0.36967 0.60544 0.0
H887 H 0.82423 0.34101 0.58426 0.0
H888 H 0.50781 0.88257 0.96679 0.0
H889 H 0.47442 0.87533 0.99444 0.0
H890 H 0.44558 0.81585 0.93228 0.0
H891 H 0.47922 0.82282 0.90488 0.0
H892 H 0.42643 0.84105 0.91738 0.0
H893 H 0.43975 0.83346 0.09257 0.0
H894 H 0.46032 0.8558 0.06681 0.0
H895 H 0.4546 0.8306 0.04955 0.0
C896 C 0.49448 0.86781 0.95945 0.0
C897 C 0.49625 0.85314 0.93418 0.0
C898 C 0.47539 0.86371 0.9753 0.0
C899 C 0.45765 0.84492 0.96606 0.0
C900 C 0.45919 0.83036 0.94012 0.0
H901 H 0.34133 0.82045 0.08919 0.0
H902 H 0.36838 0.81435 0.06059 0.0
C903 C 0.47838 0.83439 0.92445 0.0
C904 C 0.43749 0.84114 0.98221 0.0
H905 H 0.41232 0.84 0.07579 0.0
C906 C 0.42314 0.84043 0.95197 0.0
C907 C 0.43317 0.84008 0.02732 0.0
C908 C 0.44768 0.83982 0.06101 0.0
C909 C 0.40512 0.84002 0.96583 0.0
C910 C 0.40153 0.84047 0.01098 0.0
C911 C 0.41523 0.83983 0.04118 0.0
C912 C 0.38478 0.84362 0.02735 0.0
C913 C 0.39033 0.83969 0.93211 0.0
C914 C 0.38533 0.86222 0.01875 0.0
C915 C 0.37012 0.86583 0.03529 0.0
C916 C 0.35396 0.85085 0.06064 0.0
C917 C 0.35352 0.83225 0.06957 0.0
C918 C 0.3689 0.82871 0.05322 0.0
H919 H 0.39216 0.83366 0.90036 0.0
H920 H 0.37415 0.83014 0.94322 0.0
H921 H 0.3934 0.85561 0.92681 0.0
H922 H 0.39776 0.87411 0.99973 0.0
H923 H 0.37122 0.88049 0.02853 0.0
H924 H 0.62513 0.50468 0.31883 0.0
H925 H 0.59909 0.47091 0.34465 0.0
H926 H 0.62958 0.44312 0.2776 0.0
H927 H 0.65612 0.47717 0.25189 0.0
H928 H 0.58617 0.42457 0.26145 0.0
H929 H 0.60392 0.4336 0.43812 0.0
H930 H 0.60242 0.45481 0.41509 0.0
H931 H 0.62228 0.44972 0.39724 0.0
C932 C 0.62662 0.49152 0.31018 0.0
C933 C 0.6429 0.49369 0.28376 0.0
C934 C 0.61169 0.47219 0.32503 0.0
C935 C 0.61265 0.4546 0.31371 0.0
C936 C 0.62875 0.45659 0.28709 0.0
H937 H 0.51691 0.33742 0.42632 0.0
H938 H 0.55086 0.36417 0.40067 0.0
C939 C 0.64385 0.47602 0.27241 0.0
C940 C 0.59593 0.43415 0.32757 0.0
H941 H 0.56972 0.40731 0.41793 0.0
C942 C 0.58277 0.42057 0.29562 0.0
C943 C 0.5917 0.42887 0.37213 0.0
C944 C 0.60594 0.44242 0.40765 0.0
C945 C 0.5647 0.40247 0.30721 0.0
C946 C 0.55966 0.39804 0.35182 0.0
C947 C 0.57353 0.41088 0.38373 0.0
C948 C 0.53924 0.38132 0.36591 0.0
C949 C 0.55084 0.38855 0.27166 0.0
C950 C 0.5216 0.38235 0.3554 0.0
C951 C 0.5023 0.36728 0.37021 0.0
C952 C 0.50024 0.35082 0.39579 0.0
C953 C 0.51798 0.34985 0.40649 0.0
C954 C 0.53735 0.36507 0.39183 0.0
H955 H 0.55946 0.39065 0.24084 0.0
H956 H 0.54341 0.37215 0.28157 0.0
H957 H 0.53856 0.39232 0.26506 0.0
H958 H 0.52281 0.39506 0.33636 0.0
H959 H 0.48908 0.36875 0.36207 0.0
H960 H 0.17087 0.65342 0.57169 0.0
H961 H 0.17597 0.62465 0.59173 0.0
H962 H 0.12087 0.59873 0.67 0.0
H963 H 0.11522 0.62673 0.64888 0.0
H964 H 0.18091 0.61019 0.67109 0.0
H965 H 0.10975 0.55151 0.58978 0.0
H966 H 0.12023 0.57872 0.58113 0.0
H967 H 0.10472 0.56636 0.62848 0.0
C968 C 0.15984 0.64157 0.59314 0.0
C969 C 0.14262 0.64239 0.60866 0.0
C970 C 0.16282 0.6252 0.60466 0.0
C971 C 0.14861 0.60938 0.63175 0.0
C972 C 0.13179 0.61053 0.6483 0.0
H973 H 0.15714 0.51629 0.78049 0.0
H974 H 0.16078 0.54871 0.75356 0.0
C975 C 0.12871 0.62672 0.63653 0.0
C976 C 0.15098 0.59143 0.64239 0.0
H977 H 0.12503 0.53901 0.64063 0.0
C978 C 0.16882 0.59461 0.66405 0.0
C979 C 0.13538 0.57114 0.63238 0.0
C980 C 0.11655 0.56671 0.60625 0.0
C981 C 0.17112 0.57795 0.67745 0.0
C982 C 0.1549 0.55763 0.66987 0.0
C983 C 0.1374 0.55456 0.64688 0.0
C984 C 0.15533 0.53917 0.68584 0.0
C985 C 0.19094 0.58234 0.69918 0.0
C986 C 0.15096 0.52297 0.65695 0.0
C987 C 0.14834 0.50435 0.67249 0.0
C988 C 0.15026 0.50162 0.71714 0.0
C989 C 0.15568 0.51811 0.74585 0.0
C990 C 0.15792 0.53667 0.73041 0.0
H991 H 0.20388 0.59761 0.68936 0.0
H992 H 0.18915 0.58256 0.73506 0.0
H993 H 0.19502 0.5704 0.6911 0.0
H994 H 0.14899 0.52454 0.62242 0.0
H995 H 0.14468 0.49206 0.64952 0.0
H996 H 0.62389 0.12001 0.02927 0.0
H997 H 0.59877 0.12861 1.00151 0.0
H998 H 0.63045 0.18734 0.06662 0.0
H999 H 0.65612 0.17897 0.09423 0.0
H1000 H 0.58675 0.1636 0.08165 0.0
H1001 H 0.60561 0.17065 0.90567 0.0
H1002 H 0.60347 0.14787 0.92987 0.0
H1003 H 0.62353 0.17276 0.94754 0.0
C1004 C 0.62584 0.13493 0.0371 0.0
C1005 C 0.64221 0.14892 0.06346 0.0
C1006 C 0.61144 0.13983 0.02113 0.0
C1007 C 0.61302 0.15876 0.03128 0.0
C1008 C 0.62917 0.17274 0.05799 0.0
H1009 H 0.51691 0.17836 0.91258 0.0
H1010 H 0.55115 0.1869 0.93925 0.0
C1011 C 0.64375 0.16791 0.07378 0.0
C1012 C 0.59681 0.16302 0.01615 0.0
H1013 H 0.5712 0.16292 0.92414 0.0
C1014 C 0.58359 0.16395 0.04723 0.0
C1015 C 0.5929 0.16374 0.97127 0.0
C1016 C 0.60725 0.16392 0.93663 0.0
C1017 C 0.56564 0.16395 0.03449 0.0
C1018 C 0.56082 0.16284 0.98965 0.0
C1019 C 0.57486 0.16356 0.95854 0.0
C1020 C 0.54027 0.15841 0.97473 0.0
C1021 C 0.55157 0.16434 0.06911 0.0
C1022 C 0.52301 0.13946 0.98523 0.0
C1023 C 0.50359 0.13446 0.96978 0.0
C1024 C 0.50101 0.14838 0.94363 0.0
C1025 C 0.51838 0.16736 0.93288 0.0
C1026 C 0.53791 0.17229 0.94813 0.0
H1027 H 0.56001 0.1712 0.09995 0.0
H1028 H 0.54416 0.17316 0.05798 0.0
H1029 H 0.53927 0.14834 0.07617 0.0
H1030 H 0.52461 0.12833 0.00482 0.0
H1031 H 0.49069 0.11955 0.97794 0.0
loop_
_geom_bond_atom_site_label_1
_geom_bond_atom_site_label_2
_geom_bond_distance
_geom_bond_site_symmetry_2
_ccdc_geom_bond_type
Mg0 O1 2.028 . S
Mg0 O7 1.986 . S
Mg0 O9 2.114 . S
Mg0 O10 2.251 . S
Mg0 O13 2.010 . S
O1 Mg0 2.028 . S
O1 C4 1.250 . S
O2 Mg3 2.028 . S
O2 C4 1.248 . S
Mg3 O2 2.028 . S
Mg3 O8 2.032 . S
Mg3 O10 2.079 . S
C4 O1 1.250 . S
C4 O2 1.248 . S
C5 O6 1.264 . S
C5 O13 1.249 . S
O6 C5 1.264 . S
O7 Mg0 1.986 . S
O7 C11 1.246 . S
O8 Mg3 2.032 . S
O8 C11 1.259 . S
O9 Mg0 2.114 . S
O9 C12 1.252 . S
O10 Mg0 2.251 . S
O10 Mg3 2.079 . S
O10 C12 1.273 . S
C11 O7 1.246 . S
C11 O8 1.259 . S
C12 O9 1.252 . S
C12 O10 1.273 . S
O13 Mg0 2.010 . S
O13 C5 1.249 . S
Mg14 O15 2.028 . S
Mg14 O21 1.986 . S
Mg14 O23 2.114 . S
Mg14 O24 2.251 . S
Mg14 O27 2.010 . S
O15 Mg14 2.028 . S
O15 C18 1.250 . S
O16 Mg17 2.028 . S
O16 C18 1.248 . S
Mg17 O16 2.028 . S
Mg17 O22 2.032 . S
Mg17 O24 2.079 . S
C18 O15 1.250 . S
C18 O16 1.248 . S
C19 O20 1.264 . S
C19 O27 1.249 . S
O20 C19 1.264 . S
O21 Mg14 1.986 . S
O21 C25 1.246 . S
O22 Mg17 2.032 . S
O22 C25 1.259 . S
O23 Mg14 2.114 . S
O23 C26 1.252 . S
O24 Mg14 2.251 . S
O24 Mg17 2.079 . S
O24 C26 1.273 . S
C25 O21 1.246 . S
C25 O22 1.259 . S
C26 O23 1.252 . S
C26 O24 1.273 . S
O27 Mg14 2.010 . S
O27 C19 1.249 . S
Mg28 O29 2.028 . S
Mg28 O35 1.986 . S
Mg28 O37 2.114 . S
Mg28 O38 2.251 . S
Mg28 O41 2.010 . S
O29 Mg28 2.028 . S
O29 C32 1.250 1_556 S
O30 Mg31 2.028 . S
O30 C32 1.248 . S
Mg31 O30 2.028 . S
Mg31 O36 2.032 . S
Mg31 O38 2.079 1_554 S
C32 O29 1.250 1_554 S
C32 O30 1.248 . S
C33 O34 1.264 . S
C33 O41 1.249 . S
O34 C33 1.264 . S
O35 Mg28 1.986 . S
O35 C39 1.246 . S
O36 Mg31 2.032 . S
O36 C39 1.259 1_554 S
O37 Mg28 2.114 . S
O37 C40 1.252 . S
O38 Mg28 2.251 . S
O38 Mg31 2.079 1_556 S
O38 C40 1.273 . S
C39 O35 1.246 . S
C39 O36 1.259 1_556 S
C40 O37 1.252 . S
C40 O38 1.273 . S
O41 Mg28 2.010 . S
O41 C33 1.249 . S
Mg42 O43 2.028 . S
Mg42 O49 1.986 . S
Mg42 O51 2.114 . S
Mg42 O52 2.251 . S
Mg42 O55 2.010 . S
O43 Mg42 2.028 . S
O43 C46 1.250 . S
O44 Mg45 2.028 . S
O44 C46 1.248 . S
Mg45 O44 2.028 . S
Mg45 O50 2.032 . S
Mg45 O52 2.079 . S
C46 O43 1.250 . S
C46 O44 1.248 . S
C47 O48 1.264 . S
C47 O55 1.249 . S
O48 C47 1.264 . S
O49 Mg42 1.986 . S
O49 C53 1.246 . S
O50 Mg45 2.032 . S
O50 C53 1.259 . S
O51 Mg42 2.114 . S
O51 C54 1.252 . S
O52 Mg42 2.251 . S
O52 Mg45 2.079 . S
O52 C54 1.273 . S
C53 O49 1.246 . S
C53 O50 1.259 . S
C54 O51 1.252 . S
C54 O52 1.273 . S
O55 Mg42 2.010 . S
O55 C47 1.249 . S
Mg56 O57 2.028 . S
Mg56 O63 1.986 . S
Mg56 O65 2.114 . S
Mg56 O66 2.251 . S
Mg56 O69 2.010 . S
O57 Mg56 2.028 . S
O57 C60 1.250 . S
O58 Mg59 2.028 . S
O58 C60 1.248 . S
Mg59 O58 2.028 . S
Mg59 O64 2.032 . S
Mg59 O66 2.079 . S
C60 O57 1.250 . S
C60 O58 1.248 . S
C61 O62 1.264 . S
C61 O69 1.249 . S
O62 C61 1.264 . S
O63 Mg56 1.986 . S
O63 C67 1.246 . S
O64 Mg59 2.032 . S
O64 C67 1.259 . S
O65 Mg56 2.114 . S
O65 C68 1.252 . S
O66 Mg56 2.251 . S
O66 Mg59 2.079 . S
O66 C68 1.273 . S
C67 O63 1.246 . S
C67 O64 1.259 . S
C68 O65 1.252 . S
C68 O66 1.273 . S
O69 Mg56 2.010 . S
O69 C61 1.249 . S
Mg70 O71 2.028 . S
Mg70 O77 1.986 . S
Mg70 O79 2.114 . S
Mg70 O80 2.251 . S
Mg70 O83 2.010 . S
O71 Mg70 2.028 . S
O71 C74 1.250 1_556 S
O72 Mg73 2.028 . S
O72 C74 1.248 . S
Mg73 O72 2.028 . S
Mg73 O78 2.032 . S
Mg73 O80 2.079 1_554 S
C74 O71 1.250 1_554 S
C74 O72 1.248 . S
C75 O76 1.264 . S
C75 O83 1.249 . S
O76 C75 1.264 . S
O77 Mg70 1.986 . S
O77 C81 1.246 . S
O78 Mg73 2.032 . S
O78 C81 1.259 1_554 S
O79 Mg70 2.114 . S
O79 C82 1.252 . S
O80 Mg70 2.251 . S
O80 Mg73 2.079 1_556 S
O80 C82 1.273 . S
C81 O77 1.246 . S
C81 O78 1.259 1_556 S
C82 O79 1.252 . S
C82 O80 1.273 . S
O83 Mg70 2.010 . S
O83 C75 1.249 . S
Mg84 O85 2.028 . S
Mg84 O91 1.986 . S
Mg84 O93 2.114 . S
Mg84 O94 2.251 . S
Mg84 O97 2.010 . S
O85 Mg84 2.028 . S
O85 C88 1.250 . S
O86 Mg87 2.028 . S
O86 C88 1.248 . S
Mg87 O86 2.028 . S
Mg87 O92 2.032 . S
Mg87 O94 2.079 . S
C88 O85 1.250 . S
C88 O86 1.248 . S
C89 O90 1.264 . S
C89 O97 1.249 . S
O90 C89 1.264 . S
O91 Mg84 1.986 . S
O91 C95 1.246 . S
O92 Mg87 2.032 . S
O92 C95 1.259 . S
O93 Mg84 2.114 . S
O93 C96 1.252 . S
O94 Mg84 2.251 . S
O94 Mg87 2.079 . S
O94 C96 1.273 . S
C95 O91 1.246 . S
C95 O92 1.259 . S
C96 O93 1.252 . S
C96 O94 1.273 . S
O97 Mg84 2.010 . S
O97 C89 1.249 . S
Mg98 O99 2.028 . S
Mg98 O105 1.986 . S
Mg98 O107 2.114 . S
Mg98 O108 2.251 . S
Mg98 O111 2.010 . S
O99 Mg98 2.028 . S
O99 C102 1.250 . S
O100 Mg101 2.028 . S
O100 C102 1.248 . S
Mg101 O100 2.028 . S
Mg101 O106 2.032 . S
Mg101 O108 2.079 . S
C102 O99 1.250 . S
C102 O100 1.248 . S
C103 O104 1.264 . S
C103 O111 1.249 . S
O104 C103 1.264 . S
O105 Mg98 1.986 . S
O105 C109 1.246 . S
O106 Mg101 2.032 . S
O106 C109 1.259 . S
O107 Mg98 2.114 . S
O107 C110 1.252 . S
O108 Mg98 2.251 . S
O108 Mg101 2.079 . S
O108 C110 1.273 . S
C109 O105 1.246 . S
C109 O106 1.259 . S
C110 O107 1.252 . S
C110 O108 1.273 . S
O111 Mg98 2.010 . S
O111 C103 1.249 . S
Mg112 O113 2.028 . S
Mg112 O119 1.986 . S
Mg112 O121 2.114 . S
Mg112 O122 2.251 . S
Mg112 O125 2.010 . S
O113 Mg112 2.028 . S
O113 C116 1.250 1_554 S
O114 Mg115 2.028 . S
O114 C116 1.248 . S
Mg115 O114 2.028 . S
Mg115 O120 2.032 . S
Mg115 O122 2.079 1_556 S
C116 O113 1.250 1_556 S
C116 O114 1.248 . S
C117 O118 1.264 . S
C117 O125 1.249 . S
O118 C117 1.264 . S
O119 Mg112 1.986 . S
O119 C123 1.246 . S
O120 Mg115 2.032 . S
O120 C123 1.259 1_556 S
O121 Mg112 2.114 . S
O121 C124 1.252 . S
O122 Mg112 2.251 . S
O122 Mg115 2.079 1_554 S
O122 C124 1.273 . S
C123 O119 1.246 . S
C123 O120 1.259 1_554 S
C124 O121 1.252 . S
C124 O122 1.273 . S
O125 Mg112 2.010 . S
O125 C117 1.249 . S
Mg126 O127 2.028 . S
Mg126 O133 1.986 . S
Mg126 O135 2.114 . S
Mg126 O136 2.251 . S
Mg126 O139 2.010 . S
O127 Mg126 2.028 . S
O127 C130 1.250 . S
O128 Mg129 2.028 . S
O128 C130 1.248 . S
Mg129 O128 2.028 . S
Mg129 O134 2.032 . S
Mg129 O136 2.079 . S
C130 O127 1.250 . S
C130 O128 1.248 . S
C131 O132 1.264 . S
C131 O139 1.249 . S
O132 C131 1.264 . S
O133 Mg126 1.986 . S
O133 C137 1.246 . S
O134 Mg129 2.032 . S
O134 C137 1.259 . S
O135 Mg126 2.114 . S
O135 C138 1.252 . S
O136 Mg126 2.251 . S
O136 Mg129 2.079 . S
O136 C138 1.273 . S
C137 O133 1.246 . S
C137 O134 1.259 . S
C138 O135 1.252 . S
C138 O136 1.273 . S
O139 Mg126 2.010 . S
O139 C131 1.249 . S
Mg140 O141 2.028 . S
Mg140 O147 1.986 . S
Mg140 O149 2.114 . S
Mg140 O150 2.251 . S
Mg140 O153 2.010 . S
O141 Mg140 2.028 . S
O141 C144 1.250 . S
O142 Mg143 2.028 . S
O142 C144 1.248 . S
Mg143 O142 2.028 . S
Mg143 O148 2.032 . S
Mg143 O150 2.079 . S
C144 O141 1.250 . S
C144 O142 1.248 . S
C145 O146 1.264 . S
C145 O153 1.249 . S
O146 C145 1.264 . S
O147 Mg140 1.986 . S
O147 C151 1.246 . S
O148 Mg143 2.032 . S
O148 C151 1.259 . S
O149 Mg140 2.114 . S
O149 C152 1.252 . S
O150 Mg140 2.251 . S
O150 Mg143 2.079 . S
O150 C152 1.273 . S
C151 O147 1.246 . S
C151 O148 1.259 . S
C152 O149 1.252 . S
C152 O150 1.273 . S
O153 Mg140 2.010 . S
O153 C145 1.249 . S
Mg154 O155 2.028 . S
Mg154 O161 1.986 . S
Mg154 O163 2.114 . S
Mg154 O164 2.251 . S
Mg154 O167 2.010 . S
O155 Mg154 2.028 . S
O155 C158 1.250 1_554 S
O156 Mg157 2.028 . S
O156 C158 1.248 . S
Mg157 O156 2.028 . S
Mg157 O162 2.032 . S
Mg157 O164 2.079 1_556 S
C158 O155 1.250 1_556 S
C158 O156 1.248 . S
C159 O160 1.264 . S
C159 O167 1.249 . S
O160 C159 1.264 . S
O161 Mg154 1.986 . S
O161 C165 1.246 . S
O162 Mg157 2.032 . S
O162 C165 1.259 1_556 S
O163 Mg154 2.114 . S
O163 C166 1.252 . S
O164 Mg154 2.251 . S
O164 Mg157 2.079 1_554 S
O164 C166 1.273 . S
C165 O161 1.246 . S
C165 O162 1.259 1_554 S
C166 O163 1.252 . S
C166 O164 1.273 . S
O167 Mg154 2.010 . S
O167 C159 1.249 . S
H168 C176 0.929 . S
H169 C178 0.930 . S
H170 C180 0.930 . S
H171 C183 0.929 . S
H172 C186 0.930 . S
H173 C188 0.960 . S
H174 C188 0.960 . S
H175 C188 0.960 . S
C176 H168 0.929 . S
C176 C177 1.377 . S
C176 C178 1.384 . S
C177 C176 1.377 . S
C177 C183 1.390 . S
C178 H169 0.930 . S
C178 C176 1.384 . S
C178 C179 1.372 . S
C179 C178 1.372 . S
C179 C180 1.400 . S
C179 C184 1.490 . S
C180 H170 0.930 . S
C180 C179 1.400 . S
C180 C183 1.386 . S
H181 C197 0.930 . S
H182 C198 0.931 . S
C183 H171 0.929 . S
C183 C177 1.390 . S
C183 C180 1.386 . S
C184 C179 1.490 . S
C184 C186 1.395 . S
C184 C187 1.403 . S
H185 C191 0.930 . S
C186 H172 0.930 . S
C186 C184 1.395 . S
C186 C189 1.403 . S
C187 C184 1.403 . S
C187 C188 1.524 . S
C187 C191 1.400 . S
C188 H173 0.960 . S
C188 H174 0.960 . S
C188 H175 0.960 . S
C188 C187 1.524 . S
C189 C186 1.403 . S
C189 C190 1.392 . S
C189 C193 1.495 . S
C190 C189 1.392 . S
C190 C191 1.385 . S
C190 C192 1.478 . S
C191 H185 0.930 . S
C191 C187 1.400 . S
C191 C190 1.385 . S
C192 C190 1.478 . S
C192 C194 1.381 . S
C192 C198 1.383 . S
C193 C189 1.495 . S
C193 H199 0.959 . S
C193 H200 0.961 . S
C193 H201 0.960 . S
C194 C192 1.381 . S
C194 C195 1.394 . S
C194 H202 0.930 . S
C195 C194 1.394 . S
C195 C196 1.383 . S
C195 H203 0.929 . S
C196 C195 1.383 . S
C196 C197 1.377 . S
C197 H181 0.930 . S
C197 C196 1.377 . S
C197 C198 1.379 . S
C198 H182 0.931 . S
C198 C192 1.383 . S
C198 C197 1.379 . S
H199 C193 0.959 . S
H200 C193 0.961 . S
H201 C193 0.960 . S
H202 C194 0.930 . S
H203 C195 0.929 . S
H204 C212 0.929 . S
H205 C214 0.930 . S
H206 C216 0.930 . S
H207 C219 0.929 . S
H208 C222 0.930 . S
H209 C224 0.960 . S
H210 C224 0.960 . S
H211 C224 0.960 . S
C212 H204 0.929 . S
C212 C213 1.377 . S
C212 C214 1.384 . S
C213 C212 1.377 . S
C213 C219 1.390 . S
C214 H205 0.930 . S
C214 C212 1.384 . S
C214 C215 1.372 . S
C215 C214 1.372 . S
C215 C216 1.400 . S
C215 C220 1.490 . S
C216 H206 0.930 . S
C216 C215 1.400 . S
C216 C219 1.386 . S
H217 C233 0.930 . S
H218 C234 0.931 . S
C219 H207 0.929 . S
C219 C213 1.390 . S
C219 C216 1.386 . S
C220 C215 1.490 . S
C220 C222 1.395 . S
C220 C223 1.403 . S
H221 C227 0.930 . S
C222 H208 0.930 . S
C222 C220 1.395 . S
C222 C225 1.403 1_655 S
C223 C220 1.403 . S
C223 C224 1.524 . S
C223 C227 1.400 1_655 S
C224 H209 0.960 . S
C224 H210 0.960 . S
C224 H211 0.960 . S
C224 C223 1.524 . S
C225 C222 1.403 1_455 S
C225 C226 1.392 . S
C225 C229 1.495 . S
C226 C225 1.392 . S
C226 C227 1.385 . S
C226 C228 1.478 . S
C227 H221 0.930 . S
C227 C223 1.400 1_455 S
C227 C226 1.385 . S
C228 C226 1.478 . S
C228 C230 1.381 . S
C228 C234 1.383 . S
C229 C225 1.495 . S
C229 H235 0.959 . S
C229 H236 0.961 . S
C229 H237 0.960 . S
C230 C228 1.381 . S
C230 C231 1.394 . S
C230 H238 0.930 . S
C231 C230 1.394 . S
C231 C232 1.383 . S
C231 H239 0.929 . S
C232 C231 1.383 . S
C232 C233 1.377 . S
C233 H217 0.930 . S
C233 C232 1.377 . S
C233 C234 1.379 . S
C234 H218 0.931 . S
C234 C228 1.383 . S
C234 C233 1.379 . S
H235 C229 0.959 . S
H236 C229 0.961 . S
H237 C229 0.960 . S
H238 C230 0.930 . S
H239 C231 0.929 . S
H240 C248 0.929 . S
H241 C250 0.930 . S
H242 C252 0.930 . S
H243 C255 0.929 . S
H244 C258 0.930 . S
H245 C260 0.948 1_545 S
H246 C260 0.960 . S
H247 C260 0.960 . S
C248 H240 0.929 . S
C248 C249 1.377 . S
C248 C250 1.384 . S
C249 C248 1.377 . S
C249 C255 1.390 . S
C250 H241 0.930 . S
C250 C248 1.384 . S
C250 C251 1.372 . S
C251 C250 1.372 . S
C251 C252 1.400 . S
C251 C256 1.490 . S
C252 H242 0.930 . S
C252 C251 1.400 . S
C252 C255 1.386 . S
H253 C269 0.930 . S
H254 C270 0.931 . S
C255 H243 0.929 . S
C255 C249 1.390 . S
C255 C252 1.386 . S
C256 C251 1.490 . S
C256 C258 1.395 1_556 S
C256 C259 1.403 . S
H257 C263 0.930 . S
C258 H244 0.930 . S
C258 C256 1.395 1_554 S
C258 C261 1.403 1_565 S
C259 C256 1.403 . S
C259 C260 1.524 . S
C259 C263 1.400 1_565 S
C260 H245 0.948 1_565 S
C260 H246 0.960 . S
C260 H247 0.960 . S
C260 C259 1.524 . S
C261 C258 1.403 1_545 S
C261 C262 1.392 . S
C261 C265 1.495 . S
C262 C261 1.392 . S
C262 C263 1.385 1_554 S
C262 C264 1.478 . S
C263 H257 0.930 . S
C263 C259 1.400 1_545 S
C263 C262 1.385 1_556 S
C264 C262 1.478 . S
C264 C266 1.381 . S
C264 C270 1.383 . S
C265 C261 1.495 . S
C265 H271 0.961 1_545 S
C265 H272 0.961 . S
C265 H273 0.960 . S
C266 C264 1.381 . S
C266 C267 1.394 . S
C266 H274 0.930 . S
C267 C266 1.394 . S
C267 C268 1.383 . S
C267 H275 0.929 . S
C268 C267 1.383 . S
C268 C269 1.377 . S
C269 H253 0.930 . S
C269 C268 1.377 . S
C269 C270 1.379 . S
C270 H254 0.931 . S
C270 C264 1.383 . S
C270 C269 1.379 . S
H271 C265 0.961 1_565 S
H272 C265 0.961 . S
H273 C265 0.960 . S
H274 C266 0.930 . S
H275 C267 0.929 . S
H276 C284 0.929 . S
H277 C286 0.930 . S
H278 C288 0.930 . S
H279 C291 0.929 . S
H280 C294 0.930 . S
H281 C296 0.960 . S
H282 C296 0.960 . S
H283 C296 0.960 . S
C284 H276 0.929 . S
C284 C285 1.377 . S
C284 C286 1.384 . S
C285 C284 1.377 . S
C285 C291 1.390 . S
C286 H277 0.930 . S
C286 C284 1.384 . S
C286 C287 1.372 . S
C287 C286 1.372 . S
C287 C288 1.400 . S
C287 C292 1.490 . S
C288 H278 0.930 . S
C288 C287 1.400 . S
C288 C291 1.386 . S
H289 C305 0.930 . S
H290 C306 0.931 . S
C291 H279 0.929 . S
C291 C285 1.390 . S
C291 C288 1.386 . S
C292 C287 1.490 . S
C292 C294 1.395 . S
C292 C295 1.403 . S
H293 C299 0.930 . S
C294 H280 0.930 . S
C294 C292 1.395 . S
C294 C297 1.403 . S
C295 C292 1.403 . S
C295 C296 1.524 . S
C295 C299 1.400 . S
C296 H281 0.960 . S
C296 H282 0.960 . S
C296 H283 0.960 . S
C296 C295 1.524 . S
C297 C294 1.403 . S
C297 C298 1.392 . S
C297 C301 1.495 . S
C298 C297 1.392 . S
C298 C299 1.385 . S
C298 C300 1.478 . S
C299 H293 0.930 . S
C299 C295 1.400 . S
C299 C298 1.385 . S
C300 C298 1.478 . S
C300 C302 1.381 . S
C300 C306 1.383 . S
C301 C297 1.495 . S
C301 H307 0.959 . S
C301 H308 0.961 . S
C301 H309 0.960 . S
C302 C300 1.381 . S
C302 C303 1.394 . S
C302 H310 0.930 . S
C303 C302 1.394 . S
C303 C304 1.383 . S
C303 H311 0.929 . S
C304 C303 1.383 . S
C304 C305 1.377 . S
C305 H289 0.930 . S
C305 C304 1.377 . S
C305 C306 1.379 . S
C306 H290 0.931 . S
C306 C300 1.383 . S
C306 C305 1.379 . S
H307 C301 0.959 . S
H308 C301 0.961 . S
H309 C301 0.960 . S
H310 C302 0.930 . S
H311 C303 0.929 . S
H312 C320 0.929 . S
H313 C322 0.930 . S
H314 C324 0.930 . S
H315 C327 0.929 . S
H316 C330 0.930 . S
H317 C332 0.960 . S
H318 C332 0.960 . S
H319 C332 0.960 . S
C320 H312 0.929 . S
C320 C321 1.377 . S
C320 C322 1.384 . S
C321 C320 1.377 . S
C321 C327 1.390 . S
C322 H313 0.930 . S
C322 C320 1.384 . S
C322 C323 1.372 . S
C323 C322 1.372 . S
C323 C324 1.400 . S
C323 C328 1.490 . S
C324 H314 0.930 . S
C324 C323 1.400 . S
C324 C327 1.386 . S
H325 C341 0.930 . S
H326 C342 0.931 . S
C327 H315 0.929 . S
C327 C321 1.390 . S
C327 C324 1.386 . S
C328 C323 1.490 . S
C328 C330 1.395 . S
C328 C331 1.403 . S
H329 C335 0.930 . S
C330 H316 0.930 . S
C330 C328 1.395 . S
C330 C333 1.403 1_655 S
C331 C328 1.403 . S
C331 C332 1.524 . S
C331 C335 1.400 1_655 S
C332 H317 0.960 . S
C332 H318 0.960 . S
C332 H319 0.960 . S
C332 C331 1.524 . S
C333 C330 1.403 1_455 S
C333 C334 1.392 . S
C333 C337 1.495 . S
C334 C333 1.392 . S
C334 C335 1.385 . S
C334 C336 1.478 . S
C335 H329 0.930 . S
C335 C331 1.400 1_455 S
C335 C334 1.385 . S
C336 C334 1.478 . S
C336 C338 1.381 . S
C336 C342 1.383 . S
C337 C333 1.495 . S
C337 H343 0.959 . S
C337 H344 0.961 . S
C337 H345 0.960 . S
C338 C336 1.381 . S
C338 C339 1.394 . S
C338 H346 0.930 . S
C339 C338 1.394 . S
C339 C340 1.383 . S
C339 H347 0.929 . S
C340 C339 1.383 . S
C340 C341 1.377 . S
C341 H325 0.930 . S
C341 C340 1.377 . S
C341 C342 1.379 . S
C342 H326 0.931 . S
C342 C336 1.383 . S
C342 C341 1.379 . S
H343 C337 0.959 . S
H344 C337 0.961 . S
H345 C337 0.960 . S
H346 C338 0.930 . S
H347 C339 0.929 . S
H348 C356 0.929 1_556 S
H349 C358 0.937 . S
H350 C360 0.930 . S
H351 C363 0.929 . S
H352 C366 0.930 . S
H353 C368 0.960 . S
H354 C368 0.960 . S
H355 C368 0.960 . S
C356 H348 0.929 1_554 S
C356 C357 1.377 . S
C356 C358 1.381 1_554 S
C357 C356 1.377 . S
C357 C363 1.390 . S
C358 H349 0.937 . S
C358 C356 1.381 1_556 S
C358 C359 1.367 1_556 S
C359 C358 1.367 1_554 S
C359 C360 1.400 . S
C359 C364 1.490 . S
C360 H350 0.930 . S
C360 C359 1.400 . S
C360 C363 1.386 . S
H361 C377 0.930 1_554 S
H362 C378 0.931 . S
C363 H351 0.929 . S
C363 C357 1.390 . S
C363 C360 1.386 . S
C364 C359 1.490 . S
C364 C366 1.395 . S
C364 C367 1.403 1_554 S
H365 C371 0.930 . S
C366 H352 0.930 . S
C366 C364 1.395 . S
C366 C369 1.403 1_565 S
C367 C364 1.403 1_556 S
C367 C368 1.524 . S
C367 C371 1.400 1_565 S
C368 H353 0.960 . S
C368 H354 0.960 . S
C368 H355 0.960 . S
C368 C367 1.524 . S
C369 C366 1.403 1_545 S
C369 C370 1.392 1_554 S
C369 C373 1.495 . S
C370 C369 1.392 1_556 S
C370 C371 1.385 . S
C370 C372 1.478 . S
C371 H365 0.930 . S
C371 C367 1.400 1_545 S
C371 C370 1.385 . S
C372 C370 1.478 . S
C372 C374 1.381 . S
C372 C378 1.383 1_556 S
C373 C369 1.495 . S
C373 H379 0.959 . S
C373 H380 0.961 . S
C373 H381 0.960 . S
C374 C372 1.381 . S
C374 C375 1.394 . S
C374 H382 0.930 . S
C375 C374 1.394 . S
C375 C376 1.383 . S
C375 H383 0.929 . S
C376 C375 1.383 . S
C376 C377 1.377 . S
C377 H361 0.930 1_556 S
C377 C376 1.377 . S
C377 C378 1.379 1_556 S
C378 H362 0.931 . S
C378 C372 1.383 1_554 S
C378 C377 1.379 1_554 S
H379 C373 0.959 . S
H380 C373 0.961 . S
H381 C373 0.960 . S
H382 C374 0.930 . S
H383 C375 0.929 . S
H384 C392 0.929 . S
H385 C394 0.930 . S
H386 C396 0.930 . S
H387 C399 0.929 . S
H388 C402 0.930 . S
H389 C404 0.960 1_554 S
H390 C404 0.960 . S
H391 C404 0.960 . S
C392 H384 0.929 . S
C392 C393 1.377 . S
C392 C394 1.384 . S
C393 C392 1.377 . S
C393 C399 1.390 . S
C394 H385 0.930 . S
C394 C392 1.384 . S
C394 C395 1.372 . S
C395 C394 1.372 . S
C395 C396 1.400 . S
C395 C400 1.490 . S
C396 H386 0.930 . S
C396 C395 1.400 . S
C396 C399 1.386 . S
H397 C413 0.930 . S
H398 C414 0.931 . S
C399 H387 0.929 . S
C399 C393 1.390 . S
C399 C396 1.386 . S
C400 C395 1.490 . S
C400 C402 1.395 . S
C400 C403 1.403 . S
H401 C407 0.930 . S
C402 H388 0.930 . S
C402 C400 1.395 . S
C402 C405 1.403 . S
C403 C400 1.403 . S
C403 C404 1.524 . S
C403 C407 1.400 1_556 S
C404 H389 0.960 1_556 S
C404 H390 0.960 . S
C404 H391 0.960 . S
C404 C403 1.524 . S
C405 C402 1.403 . S
C405 C406 1.392 1_556 S
C405 C409 1.495 . S
C406 C405 1.392 1_554 S
C406 C407 1.385 . S
C406 C408 1.478 . S
C407 H401 0.930 . S
C407 C403 1.400 1_554 S
C407 C406 1.385 . S
C408 C406 1.478 . S
C408 C410 1.381 . S
C408 C414 1.383 . S
C409 C405 1.495 . S
C409 H415 0.959 . S
C409 H416 0.961 1_556 S
C409 H417 0.960 1_556 S
C410 C408 1.381 . S
C410 C411 1.394 . S
C410 H418 0.930 . S
C411 C410 1.394 . S
C411 C412 1.383 . S
C411 H419 0.929 . S
C412 C411 1.383 . S
C412 C413 1.377 . S
C413 H397 0.930 . S
C413 C412 1.377 . S
C413 C414 1.379 . S
C414 H398 0.931 . S
C414 C408 1.383 . S
C414 C413 1.379 . S
H415 C409 0.959 . S
H416 C409 0.961 1_554 S
H417 C409 0.960 1_554 S
H418 C410 0.930 . S
H419 C411 0.929 . S
H420 C428 0.929 . S
H421 C430 0.930 . S
H422 C432 0.930 . S
H423 C435 0.929 . S
H424 C438 0.930 . S
H425 C440 0.960 . S
H426 C440 0.960 . S
H427 C440 0.960 . S
C428 H420 0.929 . S
C428 C429 1.377 . S
C428 C430 1.384 . S
C429 C428 1.377 . S
C429 C435 1.390 . S
C430 H421 0.930 . S
C430 C428 1.384 . S
C430 C431 1.372 . S
C431 C430 1.372 . S
C431 C432 1.400 . S
C431 C436 1.490 . S
C432 H422 0.930 . S
C432 C431 1.400 . S
C432 C435 1.386 . S
H433 C449 0.930 . S
H434 C450 0.931 . S
C435 H423 0.929 . S
C435 C429 1.390 . S
C435 C432 1.386 . S
C436 C431 1.490 . S
C436 C438 1.395 . S
C436 C439 1.403 . S
H437 C443 0.930 . S
C438 H424 0.930 . S
C438 C436 1.395 . S
C438 C441 1.403 . S
C439 C436 1.403 . S
C439 C440 1.524 . S
C439 C443 1.400 . S
C440 H425 0.960 . S
C440 H426 0.960 . S
C440 H427 0.960 . S
C440 C439 1.524 . S
C441 C438 1.403 . S
C441 C442 1.392 . S
C441 C445 1.495 . S
C442 C441 1.392 . S
C442 C443 1.385 . S
C442 C444 1.478 . S
C443 H437 0.930 . S
C443 C439 1.400 . S
C443 C442 1.385 . S
C444 C442 1.478 . S
C444 C446 1.381 . S
C444 C450 1.383 . S
C445 C441 1.495 . S
C445 H451 0.959 . S
C445 H452 0.961 . S
C445 H453 0.960 . S
C446 C444 1.381 . S
C446 C447 1.394 . S
C446 H454 0.930 . S
C447 C446 1.394 . S
C447 C448 1.383 . S
C447 H455 0.929 . S
C448 C447 1.383 . S
C448 C449 1.377 . S
C449 H433 0.930 . S
C449 C448 1.377 . S
C449 C450 1.379 . S
C450 H434 0.931 . S
C450 C444 1.383 . S
C450 C449 1.379 . S
H451 C445 0.959 . S
H452 C445 0.961 . S
H453 C445 0.960 . S
H454 C446 0.930 . S
H455 C447 0.929 . S
H456 C464 0.929 . S
H457 C466 0.930 . S
H458 C468 0.930 . S
H459 C471 0.929 . S
H460 C474 0.930 . S
H461 C476 0.960 . S
H462 C476 0.960 . S
H463 C476 0.960 . S
C464 H456 0.929 . S
C464 C465 1.377 . S
C464 C466 1.384 . S
C465 C464 1.377 . S
C465 C471 1.390 . S
C466 H457 0.930 . S
C466 C464 1.384 . S
C466 C467 1.372 . S
C467 C466 1.372 . S
C467 C468 1.400 . S
C467 C472 1.490 . S
C468 H458 0.930 . S
C468 C467 1.400 . S
C468 C471 1.386 . S
H469 C485 0.930 . S
H470 C486 0.931 . S
C471 H459 0.929 . S
C471 C465 1.390 . S
C471 C468 1.386 . S
C472 C467 1.490 . S
C472 C474 1.395 . S
C472 C475 1.403 . S
H473 C479 0.930 . S
C474 H460 0.930 . S
C474 C472 1.395 . S
C474 C477 1.403 . S
C475 C472 1.403 . S
C475 C476 1.524 . S
C475 C479 1.400 . S
C476 H461 0.960 . S
C476 H462 0.960 . S
C476 H463 0.960 . S
C476 C475 1.524 . S
C477 C474 1.403 . S
C477 C478 1.392 . S
C477 C481 1.495 . S
C478 C477 1.392 . S
C478 C479 1.385 . S
C478 C480 1.478 . S
C479 H473 0.930 . S
C479 C475 1.400 . S
C479 C478 1.385 . S
C480 C478 1.478 . S
C480 C482 1.381 . S
C480 C486 1.383 . S
C481 C477 1.495 . S
C481 H487 0.959 . S
C481 H488 0.961 . S
C481 H489 0.960 . S
C482 C480 1.381 . S
C482 C483 1.394 . S
C482 H490 0.930 . S
C483 C482 1.394 . S
C483 C484 1.383 . S
C483 H491 0.929 . S
C484 C483 1.383 . S
C484 C485 1.377 . S
C485 H469 0.930 . S
C485 C484 1.377 . S
C485 C486 1.379 . S
C486 H470 0.931 . S
C486 C480 1.383 . S
C486 C485 1.379 . S
H487 C481 0.959 . S
H488 C481 0.961 . S
H489 C481 0.960 . S
H490 C482 0.930 . S
H491 C483 0.929 . S
H492 C500 0.929 . S
H493 C502 0.930 . S
H494 C504 0.930 . S
H495 C507 0.929 . S
H496 C510 0.931 . S
H497 C512 0.960 . S
H498 C512 0.960 . S
H499 C512 0.960 . S
C500 H492 0.929 . S
C500 C501 1.377 . S
C500 C502 1.384 . S
C501 C500 1.377 . S
C501 C507 1.390 . S
C502 H493 0.930 . S
C502 C500 1.384 . S
C502 C503 1.372 . S
C503 C502 1.372 . S
C503 C504 1.400 . S
C503 C508 1.490 . S
C504 H494 0.930 . S
C504 C503 1.400 . S
C504 C507 1.386 . S
H505 C521 0.930 . S
H506 C522 0.931 . S
C507 H495 0.929 . S
C507 C501 1.390 . S
C507 C504 1.386 . S
C508 C503 1.490 . S
C508 C510 1.395 1_554 S
C508 C511 1.403 . S
H509 C515 0.930 . S
C510 H496 0.931 . S
C510 C508 1.395 1_556 S
C510 C513 1.403 . S
C511 C508 1.403 . S
C511 C512 1.524 . S
C511 C515 1.400 1_554 S
C512 H497 0.960 . S
C512 H498 0.960 . S
C512 H499 0.960 . S
C512 C511 1.524 . S
C513 C510 1.403 . S
C513 C514 1.392 . S
C513 C517 1.495 . S
C514 C513 1.392 . S
C514 C515 1.385 . S
C514 C516 1.478 . S
C515 H509 0.930 . S
C515 C511 1.400 1_556 S
C515 C514 1.385 . S
C516 C514 1.478 . S
C516 C518 1.381 . S
C516 C522 1.383 . S
C517 C513 1.495 . S
C517 H523 0.959 . S
C517 H524 0.961 . S
C517 H525 0.960 . S
C518 C516 1.381 . S
C518 C519 1.394 . S
C518 H526 0.930 . S
C519 C518 1.394 . S
C519 C520 1.383 . S
C519 H527 0.929 . S
C520 C519 1.383 . S
C520 C521 1.377 . S
C521 H505 0.930 . S
C521 C520 1.377 . S
C521 C522 1.379 . S
C522 H506 0.931 . S
C522 C516 1.383 . S
C522 C521 1.379 . S
H523 C517 0.959 . S
H524 C517 0.961 . S
H525 C517 0.960 . S
H526 C518 0.930 . S
H527 C519 0.929 . S
H528 C536 0.929 . S
H529 C538 0.930 . S
H530 C540 0.930 . S
H531 C543 0.929 . S
H532 C546 0.930 . S
H533 C548 0.960 . S
H534 C548 0.960 . S
H535 C548 0.960 . S
C536 H528 0.929 . S
C536 C537 1.377 . S
C536 C538 1.384 . S
C537 C536 1.377 . S
C537 C543 1.390 . S
C538 H529 0.930 . S
C538 C536 1.384 . S
C538 C539 1.372 . S
C539 C538 1.372 . S
C539 C540 1.400 . S
C539 C544 1.490 . S
C540 H530 0.930 . S
C540 C539 1.400 . S
C540 C543 1.386 . S
H541 C557 0.930 . S
H542 C558 0.931 . S
C543 H531 0.929 . S
C543 C537 1.390 . S
C543 C540 1.386 . S
C544 C539 1.490 . S
C544 C546 1.395 . S
C544 C547 1.403 . S
H545 C551 0.930 . S
C546 H532 0.930 . S
C546 C544 1.395 . S
C546 C549 1.403 . S
C547 C544 1.403 . S
C547 C548 1.524 . S
C547 C551 1.400 . S
C548 H533 0.960 . S
C548 H534 0.960 . S
C548 H535 0.960 . S
C548 C547 1.524 . S
C549 C546 1.403 . S
C549 C550 1.392 . S
C549 C553 1.495 . S
C550 C549 1.392 . S
C550 C551 1.385 . S
C550 C552 1.478 . S
C551 H545 0.930 . S
C551 C547 1.400 . S
C551 C550 1.385 . S
C552 C550 1.478 . S
C552 C554 1.381 . S
C552 C558 1.383 . S
C553 C549 1.495 . S
C553 H559 0.959 . S
C553 H560 0.961 . S
C553 H561 0.960 . S
C554 C552 1.381 . S
C554 C555 1.394 . S
C554 H562 0.930 . S
C555 C554 1.394 . S
C555 C556 1.383 . S
C555 H563 0.929 . S
C556 C555 1.383 . S
C556 C557 1.377 . S
C557 H541 0.930 . S
C557 C556 1.377 . S
C557 C558 1.379 . S
C558 H542 0.931 . S
C558 C552 1.383 . S
C558 C557 1.379 . S
H559 C553 0.959 . S
H560 C553 0.961 . S
H561 C553 0.960 . S
H562 C554 0.930 . S
H563 C555 0.929 . S
H564 C572 0.929 . S
H565 C574 0.930 . S
H566 C576 0.930 . S
H567 C579 0.929 . S
H568 C582 0.930 . S
H569 C584 0.960 . S
H570 C584 0.960 . S
H571 C584 0.960 . S
C572 H564 0.929 . S
C572 C573 1.377 . S
C572 C574 1.384 . S
C573 C572 1.377 . S
C573 C579 1.390 . S
C574 H565 0.930 . S
C574 C572 1.384 . S
C574 C575 1.372 . S
C575 C574 1.372 . S
C575 C576 1.400 . S
C575 C580 1.490 . S
C576 H566 0.930 . S
C576 C575 1.400 . S
C576 C579 1.386 . S
H577 C593 0.930 . S
H578 C594 0.931 . S
C579 H567 0.929 . S
C579 C573 1.390 . S
C579 C576 1.386 . S
C580 C575 1.490 . S
C580 C582 1.395 . S
C580 C583 1.403 . S
H581 C587 0.930 . S
C582 H568 0.930 . S
C582 C580 1.395 . S
C582 C585 1.403 . S
C583 C580 1.403 . S
C583 C584 1.524 . S
C583 C587 1.400 . S
C584 H569 0.960 . S
C584 H570 0.960 . S
C584 H571 0.960 . S
C584 C583 1.524 . S
C585 C582 1.403 . S
C585 C586 1.392 . S
C585 C589 1.495 . S
C586 C585 1.392 . S
C586 C587 1.385 . S
C586 C588 1.478 . S
C587 H581 0.930 . S
C587 C583 1.400 . S
C587 C586 1.385 . S
C588 C586 1.478 . S
C588 C590 1.381 . S
C588 C594 1.383 . S
C589 C585 1.495 . S
C589 H595 0.959 . S
C589 H596 0.961 . S
C589 H597 0.960 . S
C590 C588 1.381 . S
C590 C591 1.394 . S
C590 H598 0.930 . S
C591 C590 1.394 . S
C591 C592 1.383 . S
C591 H599 0.929 . S
C592 C591 1.383 . S
C592 C593 1.377 . S
C593 H577 0.930 . S
C593 C592 1.377 . S
C593 C594 1.379 . S
C594 H578 0.931 . S
C594 C588 1.383 . S
C594 C593 1.379 . S
H595 C589 0.959 . S
H596 C589 0.961 . S
H597 C589 0.960 . S
H598 C590 0.930 . S
H599 C591 0.929 . S
H600 C608 0.929 . S
H601 C610 0.930 . S
H602 C612 0.930 . S
H603 C615 0.929 . S
H604 C618 0.930 . S
H605 C620 0.960 . S
H606 C620 0.960 . S
H607 C620 0.960 . S
C608 H600 0.929 . S
C608 C609 1.377 . S
C608 C610 1.384 . S
C609 C608 1.377 . S
C609 C615 1.390 . S
C610 H601 0.930 . S
C610 C608 1.384 . S
C610 C611 1.372 . S
C611 C610 1.372 . S
C611 C612 1.400 . S
C611 C616 1.490 . S
C612 H602 0.930 . S
C612 C611 1.400 . S
C612 C615 1.386 . S
H613 C629 0.930 . S
H614 C630 0.931 . S
C615 H603 0.929 . S
C615 C609 1.390 . S
C615 C612 1.386 . S
C616 C611 1.490 . S
C616 C618 1.395 . S
C616 C619 1.403 . S
H617 C623 0.930 . S
C618 H604 0.930 . S
C618 C616 1.395 . S
C618 C621 1.403 . S
C619 C616 1.403 . S
C619 C620 1.524 . S
C619 C623 1.400 . S
C620 H605 0.960 . S
C620 H606 0.960 . S
C620 H607 0.960 . S
C620 C619 1.524 . S
C621 C618 1.403 . S
C621 C622 1.392 . S
C621 C625 1.495 . S
C622 C621 1.392 . S
C622 C623 1.385 . S
C622 C624 1.478 . S
C623 H617 0.930 . S
C623 C619 1.400 . S
C623 C622 1.385 . S
C624 C622 1.478 . S
C624 C626 1.381 . S
C624 C630 1.383 . S
C625 C621 1.495 . S
C625 H631 0.959 . S
C625 H632 0.961 . S
C625 H633 0.960 . S
C626 C624 1.381 . S
C626 C627 1.394 . S
C626 H634 0.930 . S
C627 C626 1.394 . S
C627 C628 1.383 . S
C627 H635 0.929 . S
C628 C627 1.383 . S
C628 C629 1.377 . S
C629 H613 0.930 . S
C629 C628 1.377 . S
C629 C630 1.379 . S
C630 H614 0.931 . S
C630 C624 1.383 . S
C630 C629 1.379 . S
H631 C625 0.959 . S
H632 C625 0.961 . S
H633 C625 0.960 . S
H634 C626 0.930 . S
H635 C627 0.929 . S
H636 C644 0.929 . S
H637 C646 0.930 . S
H638 C648 0.930 . S
H639 C651 0.929 . S
H640 C654 0.930 . S
H641 C656 0.960 . S
H642 C656 0.960 . S
H643 C656 0.960 . S
C644 H636 0.929 . S
C644 C645 1.377 . S
C644 C646 1.384 . S
C645 C644 1.377 . S
C645 C651 1.390 . S
C646 H637 0.930 . S
C646 C644 1.384 . S
C646 C647 1.372 . S
C647 C646 1.372 . S
C647 C648 1.400 . S
C647 C652 1.490 . S
C648 H638 0.930 . S
C648 C647 1.400 . S
C648 C651 1.386 . S
H649 C665 0.930 . S
H650 C666 0.931 . S
C651 H639 0.929 . S
C651 C645 1.390 . S
C651 C648 1.386 . S
C652 C647 1.490 . S
C652 C654 1.395 . S
C652 C655 1.403 . S
H653 C659 0.930 . S
C654 H640 0.930 . S
C654 C652 1.395 . S
C654 C657 1.403 . S
C655 C652 1.403 . S
C655 C656 1.524 . S
C655 C659 1.400 . S
C656 H641 0.960 . S
C656 H642 0.960 . S
C656 H643 0.960 . S
C656 C655 1.524 . S
C657 C654 1.403 . S
C657 C658 1.392 . S
C657 C661 1.495 . S
C658 C657 1.392 . S
C658 C659 1.385 . S
C658 C660 1.478 . S
C659 H653 0.930 . S
C659 C655 1.400 . S
C659 C658 1.385 . S
C660 C658 1.478 . S
C660 C662 1.381 . S
C660 C666 1.383 . S
C661 C657 1.495 . S
C661 H667 0.959 . S
C661 H668 0.961 . S
C661 H669 0.960 . S
C662 C660 1.381 . S
C662 C663 1.394 . S
C662 H670 0.930 . S
C663 C662 1.394 . S
C663 C664 1.383 . S
C663 H671 0.929 . S
C664 C663 1.383 . S
C664 C665 1.377 . S
C665 H649 0.930 . S
C665 C664 1.377 . S
C665 C666 1.379 . S
C666 H650 0.931 . S
C666 C660 1.383 . S
C666 C665 1.379 . S
H667 C661 0.959 . S
H668 C661 0.961 . S
H669 C661 0.960 . S
H670 C662 0.930 . S
H671 C663 0.929 . S
H672 C680 0.929 1_556 S
H673 C682 0.930 . S
H674 C684 0.930 . S
H675 C687 0.929 . S
H676 C690 0.930 . S
H677 C692 0.960 . S
H678 C692 0.960 . S
H679 C692 0.960 . S
C680 H672 0.929 1_554 S
C680 C681 1.377 . S
C680 C682 1.384 . S
C681 C680 1.377 . S
C681 C687 1.390 . S
C682 H673 0.930 . S
C682 C680 1.384 . S
C682 C683 1.372 . S
C683 C682 1.372 . S
C683 C684 1.400 . S
C683 C688 1.490 . S
C684 H674 0.930 . S
C684 C683 1.400 . S
C684 C687 1.386 . S
H685 C701 0.930 . S
H686 C702 0.931 . S
C687 H675 0.929 . S
C687 C681 1.390 . S
C687 C684 1.386 . S
C688 C683 1.490 . S
C688 C690 1.395 . S
C688 C691 1.403 . S
H689 C695 0.930 . S
C690 H676 0.930 . S
C690 C688 1.395 . S
C690 C693 1.403 . S
C691 C688 1.403 . S
C691 C692 1.524 . S
C691 C695 1.400 . S
C692 H677 0.960 . S
C692 H678 0.960 . S
C692 H679 0.960 . S
C692 C691 1.524 . S
C693 C690 1.403 . S
C693 C694 1.392 . S
C693 C697 1.495 . S
C694 C693 1.392 . S
C694 C695 1.385 . S
C694 C696 1.478 . S
C695 H689 0.930 . S
C695 C691 1.400 . S
C695 C694 1.385 . S
C696 C694 1.478 . S
C696 C698 1.381 . S
C696 C702 1.383 . S
C697 C693 1.495 . S
C697 H703 0.959 . S
C697 H704 0.961 . S
C697 H705 0.960 . S
C698 C696 1.381 . S
C698 C699 1.394 . S
C698 H706 0.930 . S
C699 C698 1.394 . S
C699 C700 1.383 . S
C699 H707 0.929 . S
C700 C699 1.383 . S
C700 C701 1.377 . S
C701 H685 0.930 . S
C701 C700 1.377 . S
C701 C702 1.379 . S
C702 H686 0.931 . S
C702 C696 1.383 . S
C702 C701 1.379 . S
H703 C697 0.959 . S
H704 C697 0.961 . S
H705 C697 0.960 . S
H706 C698 0.930 . S
H707 C699 0.929 . S
H708 C716 0.929 . S
H709 C718 0.930 . S
H710 C720 0.930 . S
H711 C723 0.929 . S
H712 C726 0.930 . S
H713 C728 0.960 . S
H714 C728 0.960 . S
H715 C728 0.960 . S
C716 H708 0.929 . S
C716 C717 1.377 . S
C716 C718 1.384 . S
C717 C716 1.377 . S
C717 C723 1.390 . S
C718 H709 0.930 . S
C718 C716 1.384 . S
C718 C719 1.372 . S
C719 C718 1.372 . S
C719 C720 1.400 . S
C719 C724 1.490 . S
C720 H710 0.930 . S
C720 C719 1.400 . S
C720 C723 1.386 . S
H721 C737 0.930 . S
H722 C738 0.931 . S
C723 H711 0.929 . S
C723 C717 1.390 . S
C723 C720 1.386 . S
C724 C719 1.490 . S
C724 C726 1.395 . S
C724 C727 1.403 . S
H725 C731 0.930 . S
C726 H712 0.930 . S
C726 C724 1.395 . S
C726 C729 1.403 . S
C727 C724 1.403 . S
C727 C728 1.524 . S
C727 C731 1.400 . S
C728 H713 0.960 . S
C728 H714 0.960 . S
C728 H715 0.960 . S
C728 C727 1.524 . S
C729 C726 1.403 . S
C729 C730 1.392 . S
C729 C733 1.495 . S
C730 C729 1.392 . S
C730 C731 1.385 . S
C730 C732 1.478 . S
C731 H725 0.930 . S
C731 C727 1.400 . S
C731 C730 1.385 . S
C732 C730 1.478 . S
C732 C734 1.381 . S
C732 C738 1.383 . S
C733 C729 1.495 . S
C733 H739 0.959 . S
C733 H740 0.961 . S
C733 H741 0.960 . S
C734 C732 1.381 . S
C734 C735 1.394 . S
C734 H742 0.930 . S
C735 C734 1.394 . S
C735 C736 1.383 . S
C735 H743 0.929 . S
C736 C735 1.383 . S
C736 C737 1.377 . S
C737 H721 0.930 . S
C737 C736 1.377 . S
C737 C738 1.379 . S
C738 H722 0.931 . S
C738 C732 1.383 . S
C738 C737 1.379 . S
H739 C733 0.959 . S
H740 C733 0.961 . S
H741 C733 0.960 . S
H742 C734 0.930 . S
H743 C735 0.929 . S
H744 C752 0.929 . S
H745 C754 0.930 . S
H746 C756 0.930 . S
H747 C759 0.929 . S
H748 C762 0.930 . S
H749 C764 0.960 . S
H750 C764 0.960 . S
H751 C764 0.960 . S
C752 H744 0.929 . S
C752 C753 1.377 . S
C752 C754 1.384 . S
C753 C752 1.377 . S
C753 C759 1.390 . S
C754 H745 0.930 . S
C754 C752 1.384 . S
C754 C755 1.372 . S
C755 C754 1.372 . S
C755 C756 1.400 . S
C755 C760 1.490 . S
C756 H746 0.930 . S
C756 C755 1.400 . S
C756 C759 1.386 . S
H757 C773 0.930 . S
H758 C774 0.931 . S
C759 H747 0.929 . S
C759 C753 1.390 . S
C759 C756 1.386 . S
C760 C755 1.490 . S
C760 C762 1.395 . S
C760 C763 1.403 . S
H761 C767 0.930 . S
C762 H748 0.930 . S
C762 C760 1.395 . S
C762 C765 1.403 . S
C763 C760 1.403 . S
C763 C764 1.524 . S
C763 C767 1.400 . S
C764 H749 0.960 . S
C764 H750 0.960 . S
C764 H751 0.960 . S
C764 C763 1.524 . S
C765 C762 1.403 . S
C765 C766 1.392 . S
C765 C769 1.495 . S
C766 C765 1.392 . S
C766 C767 1.385 . S
C766 C768 1.478 . S
C767 H761 0.930 . S
C767 C763 1.400 . S
C767 C766 1.385 . S
C768 C766 1.478 . S
C768 C770 1.381 . S
C768 C774 1.383 . S
C769 C765 1.495 . S
C769 H775 0.959 . S
C769 H776 0.961 . S
C769 H777 0.960 . S
C770 C768 1.381 . S
C770 C771 1.394 . S
C770 H778 0.930 . S
C771 C770 1.394 . S
C771 C772 1.383 . S
C771 H779 0.929 1_556 S
C772 C771 1.383 . S
C772 C773 1.377 . S
C773 H757 0.930 . S
C773 C772 1.377 . S
C773 C774 1.379 . S
C774 H758 0.931 . S
C774 C768 1.383 . S
C774 C773 1.379 . S
H775 C769 0.959 . S
H776 C769 0.961 . S
H777 C769 0.960 . S
H778 C770 0.930 . S
H779 C771 0.929 1_554 S
H780 C788 0.929 . S
H781 C790 0.930 . S
H782 C792 0.930 . S
H783 C795 0.929 . S
H784 C798 0.930 . S
H785 C800 0.960 . S
H786 C800 0.960 . S
H787 C800 0.960 . S
C788 H780 0.929 . S
C788 C789 1.377 . S
C788 C790 1.384 . S
C789 C788 1.377 . S
C789 C795 1.390 . S
C790 H781 0.930 . S
C790 C788 1.384 . S
C790 C791 1.372 . S
C791 C790 1.372 . S
C791 C792 1.400 . S
C791 C796 1.490 . S
C792 H782 0.930 . S
C792 C791 1.400 . S
C792 C795 1.386 . S
H793 C809 0.930 . S
H794 C810 0.931 . S
C795 H783 0.929 . S
C795 C789 1.390 . S
C795 C792 1.386 . S
C796 C791 1.490 . S
C796 C798 1.395 . S
C796 C799 1.403 . S
H797 C803 0.930 . S
C798 H784 0.930 . S
C798 C796 1.395 . S
C798 C801 1.403 . S
C799 C796 1.403 . S
C799 C800 1.524 . S
C799 C803 1.400 . S
C800 H785 0.960 . S
C800 H786 0.960 . S
C800 H787 0.960 . S
C800 C799 1.524 . S
C801 C798 1.403 . S
C801 C802 1.392 . S
C801 C805 1.495 . S
C802 C801 1.392 . S
C802 C803 1.385 . S
C802 C804 1.478 . S
C803 H797 0.930 . S
C803 C799 1.400 . S
C803 C802 1.385 . S
C804 C802 1.478 . S
C804 C806 1.381 . S
C804 C810 1.383 . S
C805 C801 1.495 . S
C805 H811 0.959 . S
C805 H812 0.961 . S
C805 H813 0.960 . S
C806 C804 1.381 . S
C806 C807 1.394 . S
C806 H814 0.930 . S
C807 C806 1.394 . S
C807 C808 1.383 . S
C807 H815 0.929 . S
C808 C807 1.383 . S
C808 C809 1.377 . S
C809 H793 0.930 . S
C809 C808 1.377 . S
C809 C810 1.379 . S
C810 H794 0.931 . S
C810 C804 1.383 . S
C810 C809 1.379 . S
H811 C805 0.959 . S
H812 C805 0.961 . S
H813 C805 0.960 . S
H814 C806 0.930 . S
H815 C807 0.929 . S
H816 C824 0.929 . S
H817 C826 0.930 . S
H818 C828 0.930 . S
H819 C831 0.929 . S
H820 C834 0.930 . S
H821 C836 0.960 . S
H822 C836 0.960 . S
H823 C836 0.960 . S
C824 H816 0.929 . S
C824 C825 1.377 . S
C824 C826 1.384 . S
C825 C824 1.377 . S
C825 C831 1.390 . S
C826 H817 0.930 . S
C826 C824 1.384 . S
C826 C827 1.372 . S
C827 C826 1.372 . S
C827 C828 1.400 . S
C827 C832 1.490 . S
C828 H818 0.930 . S
C828 C827 1.400 . S
C828 C831 1.386 . S
H829 C845 0.930 . S
H830 C846 0.931 . S
C831 H819 0.929 . S
C831 C825 1.390 . S
C831 C828 1.386 . S
C832 C827 1.490 . S
C832 C834 1.395 . S
C832 C835 1.403 . S
H833 C839 0.930 . S
C834 H820 0.930 . S
C834 C832 1.395 . S
C834 C837 1.403 . S
C835 C832 1.403 . S
C835 C836 1.524 . S
C835 C839 1.400 . S
C836 H821 0.960 . S
C836 H822 0.960 . S
C836 H823 0.960 . S
C836 C835 1.524 . S
C837 C834 1.403 . S
C837 C838 1.392 . S
C837 C841 1.495 . S
C838 C837 1.392 . S
C838 C839 1.385 . S
C838 C840 1.478 . S
C839 H833 0.930 . S
C839 C835 1.400 . S
C839 C838 1.385 . S
C840 C838 1.478 . S
C840 C842 1.381 . S
C840 C846 1.383 . S
C841 C837 1.495 . S
C841 H847 0.959 . S
C841 H848 0.961 . S
C841 H849 0.960 . S
C842 C840 1.381 . S
C842 C843 1.394 . S
C842 H850 0.930 . S
C843 C842 1.394 . S
C843 C844 1.383 . S
C843 H851 0.929 . S
C844 C843 1.383 . S
C844 C845 1.377 . S
C845 H829 0.930 . S
C845 C844 1.377 . S
C845 C846 1.379 . S
C846 H830 0.931 . S
C846 C840 1.383 . S
C846 C845 1.379 . S
H847 C841 0.959 . S
H848 C841 0.961 . S
H849 C841 0.960 . S
H850 C842 0.930 . S
H851 C843 0.929 . S
H852 C860 0.929 . S
H853 C862 0.930 . S
H854 C864 0.930 . S
H855 C867 0.929 . S
H856 C870 0.930 . S
H857 C872 0.960 . S
H858 C872 0.960 . S
H859 C872 0.960 . S
C860 H852 0.929 . S
C860 C861 1.377 . S
C860 C862 1.384 . S
C861 C860 1.377 . S
C861 C867 1.390 . S
C862 H853 0.930 . S
C862 C860 1.384 . S
C862 C863 1.372 . S
C863 C862 1.372 . S
C863 C864 1.400 . S
C863 C868 1.490 . S
C864 H854 0.930 . S
C864 C863 1.400 . S
C864 C867 1.386 . S
H865 C881 0.930 . S
H866 C882 0.931 . S
C867 H855 0.929 . S
C867 C861 1.390 . S
C867 C864 1.386 . S
C868 C863 1.490 . S
C868 C870 1.395 . S
C868 C871 1.403 . S
H869 C875 0.930 . S
C870 H856 0.930 . S
C870 C868 1.395 . S
C870 C873 1.403 . S
C871 C868 1.403 . S
C871 C872 1.524 . S
C871 C875 1.400 . S
C872 H857 0.960 . S
C872 H858 0.960 . S
C872 H859 0.960 . S
C872 C871 1.524 . S
C873 C870 1.403 . S
C873 C874 1.392 . S
C873 C877 1.495 . S
C874 C873 1.392 . S
C874 C875 1.385 . S
C874 C876 1.478 . S
C875 H869 0.930 . S
C875 C871 1.400 . S
C875 C874 1.385 . S
C876 C874 1.478 . S
C876 C878 1.381 . S
C876 C882 1.383 . S
C877 C873 1.495 . S
C877 H883 0.959 . S
C877 H884 0.961 . S
C877 H885 0.960 . S
C878 C876 1.381 . S
C878 C879 1.394 . S
C878 H886 0.930 . S
C879 C878 1.394 . S
C879 C880 1.383 . S
C879 H887 0.929 . S
C880 C879 1.383 . S
C880 C881 1.377 . S
C881 H865 0.930 . S
C881 C880 1.377 . S
C881 C882 1.379 . S
C882 H866 0.931 . S
C882 C876 1.383 . S
C882 C881 1.379 . S
H883 C877 0.959 . S
H884 C877 0.961 . S
H885 C877 0.960 . S
H886 C878 0.930 . S
H887 C879 0.929 . S
H888 C896 0.928 1_554 S
H889 C898 0.930 . S
H890 C900 0.930 . S
H891 C903 0.929 . S
H892 C906 0.930 . S
H893 C908 0.960 . S
H894 C908 0.960 . S
H895 C908 0.960 1_556 S
C896 H888 0.928 1_556 S
C896 C897 1.379 . S
C896 C898 1.383 1_556 S
C897 C896 1.379 . S
C897 C903 1.390 . S
C898 H889 0.930 . S
C898 C896 1.383 1_554 S
C898 C899 1.372 1_554 S
C899 C898 1.372 1_556 S
C899 C900 1.400 . S
C899 C904 1.490 . S
C900 H890 0.930 . S
C900 C899 1.400 . S
C900 C903 1.386 . S
H901 C917 0.930 . S
H902 C918 0.931 . S
C903 H891 0.929 . S
C903 C897 1.390 . S
C903 C900 1.386 . S
C904 C899 1.490 . S
C904 C906 1.395 . S
C904 C907 1.403 1_556 S
H905 C911 0.930 . S
C906 H892 0.930 . S
C906 C904 1.395 . S
C906 C909 1.403 . S
C907 C904 1.403 1_554 S
C907 C908 1.524 . S
C907 C911 1.400 . S
C908 H893 0.960 . S
C908 H894 0.960 . S
C908 H895 0.960 1_554 S
C908 C907 1.524 . S
C909 C906 1.403 . S
C909 C910 1.392 1_556 S
C909 C913 1.495 . S
C910 C909 1.392 1_554 S
C910 C911 1.385 . S
C910 C912 1.478 . S
C911 H905 0.930 . S
C911 C907 1.400 . S
C911 C910 1.385 . S
C912 C910 1.478 . S
C912 C914 1.381 . S
C912 C918 1.383 1_554 S
C913 C909 1.495 . S
C913 H919 0.959 . S
C913 H920 0.961 . S
C913 H921 0.960 1_556 S
C914 C912 1.381 . S
C914 C915 1.394 . S
C914 H922 0.930 . S
C915 C914 1.394 . S
C915 C916 1.383 . S
C915 H923 0.929 . S
C916 C915 1.383 . S
C916 C917 1.377 1_554 S
C917 H901 0.930 . S
C917 C916 1.377 1_556 S
C917 C918 1.379 . S
C918 H902 0.931 . S
C918 C912 1.383 1_556 S
C918 C917 1.379 . S
H919 C913 0.959 . S
H920 C913 0.961 . S
H921 C913 0.960 1_554 S
H922 C914 0.930 . S
H923 C915 0.929 . S
H924 C932 0.929 . S
H925 C934 0.930 . S
H926 C936 0.930 . S
H927 C939 0.929 . S
H928 C942 0.930 . S
H929 C944 0.960 . S
H930 C944 0.960 . S
H931 C944 0.960 . S
C932 H924 0.929 . S
C932 C933 1.377 . S
C932 C934 1.384 . S
C933 C932 1.377 . S
C933 C939 1.390 . S
C934 H925 0.930 . S
C934 C932 1.384 . S
C934 C935 1.372 . S
C935 C934 1.372 . S
C935 C936 1.400 . S
C935 C940 1.490 . S
C936 H926 0.930 . S
C936 C935 1.400 . S
C936 C939 1.386 . S
H937 C953 0.930 . S
H938 C954 0.931 . S
C939 H927 0.929 . S
C939 C933 1.390 . S
C939 C936 1.386 . S
C940 C935 1.490 . S
C940 C942 1.395 . S
C940 C943 1.403 . S
H941 C947 0.930 . S
C942 H928 0.930 . S
C942 C940 1.395 . S
C942 C945 1.403 . S
C943 C940 1.403 . S
C943 C944 1.524 . S
C943 C947 1.400 . S
C944 H929 0.960 . S
C944 H930 0.960 . S
C944 H931 0.960 . S
C944 C943 1.524 . S
C945 C942 1.403 . S
C945 C946 1.392 . S
C945 C949 1.495 . S
C946 C945 1.392 . S
C946 C947 1.385 . S
C946 C948 1.478 . S
C947 H941 0.930 . S
C947 C943 1.400 . S
C947 C946 1.385 . S
C948 C946 1.478 . S
C948 C950 1.381 . S
C948 C954 1.383 . S
C949 C945 1.495 . S
C949 H955 0.959 . S
C949 H956 0.961 . S
C949 H957 0.960 . S
C950 C948 1.381 . S
C950 C951 1.394 . S
C950 H958 0.930 . S
C951 C950 1.394 . S
C951 C952 1.383 . S
C951 H959 0.929 . S
C952 C951 1.383 . S
C952 C953 1.377 . S
C953 H937 0.930 . S
C953 C952 1.377 . S
C953 C954 1.379 . S
C954 H938 0.931 . S
C954 C948 1.383 . S
C954 C953 1.379 . S
H955 C949 0.959 . S
H956 C949 0.961 . S
H957 C949 0.960 . S
H958 C950 0.930 . S
H959 C951 0.929 . S
H960 C968 0.929 . S
H961 C970 0.930 . S
H962 C972 0.930 . S
H963 C975 0.929 . S
H964 C978 0.930 . S
H965 C980 0.960 . S
H966 C980 0.960 . S
H967 C980 0.960 . S
C968 H960 0.929 . S
C968 C969 1.377 . S
C968 C970 1.384 . S
C969 C968 1.377 . S
C969 C975 1.390 . S
C970 H961 0.930 . S
C970 C968 1.384 . S
C970 C971 1.372 . S
C971 C970 1.372 . S
C971 C972 1.400 . S
C971 C976 1.490 . S
C972 H962 0.930 . S
C972 C971 1.400 . S
C972 C975 1.386 . S
H973 C989 0.930 . S
H974 C990 0.931 . S
C975 H963 0.929 . S
C975 C969 1.390 . S
C975 C972 1.386 . S
C976 C971 1.490 . S
C976 C978 1.395 . S
C976 C979 1.403 . S
H977 C983 0.930 . S
C978 H964 0.930 . S
C978 C976 1.395 . S
C978 C981 1.403 . S
C979 C976 1.403 . S
C979 C980 1.524 . S
C979 C983 1.400 . S
C980 H965 0.960 . S
C980 H966 0.960 . S
C980 H967 0.960 . S
C980 C979 1.524 . S
C981 C978 1.403 . S
C981 C982 1.392 . S
C981 C985 1.495 . S
C982 C981 1.392 . S
C982 C983 1.385 . S
C982 C984 1.478 . S
C983 H977 0.930 . S
C983 C979 1.400 . S
C983 C982 1.385 . S
C984 C982 1.478 . S
C984 C986 1.381 . S
C984 C990 1.383 . S
C985 C981 1.495 . S
C985 H991 0.959 . S
C985 H992 0.961 . S
C985 H993 0.960 . S
C986 C984 1.381 . S
C986 C987 1.394 . S
C986 H994 0.930 . S
C987 C986 1.394 . S
C987 C988 1.383 . S
C987 H995 0.929 . S
C988 C987 1.383 . S
C988 C989 1.377 . S
C989 H973 0.930 . S
C989 C988 1.377 . S
C989 C990 1.379 . S
C990 H974 0.931 . S
C990 C984 1.383 . S
C990 C989 1.379 . S
H991 C985 0.959 . S
H992 C985 0.961 . S
H993 C985 0.960 . S
H994 C986 0.930 . S
H995 C987 0.929 . S
H996 C1004 0.929 . S
H997 C1006 0.930 . S
H998 C1008 0.930 . S
H999 C1011 0.929 . S
H1000 C1014 0.930 . S
H1001 C1016 0.960 . S
H1002 C1016 0.960 . S
H1003 C1016 0.960 . S
C1004 H996 0.929 . S
C1004 C1005 1.377 . S
C1004 C1006 1.384 . S
C1005 C1004 1.377 . S
C1005 C1011 1.390 1_554 S
C1006 H997 0.930 . S
C1006 C1004 1.384 . S
C1006 C1007 1.372 . S
C1007 C1006 1.372 . S
C1007 C1008 1.400 1_554 S
C1007 C1012 1.490 . S
C1008 H998 0.930 . S
C1008 C1007 1.400 1_556 S
C1008 C1011 1.386 . S
H1009 C1025 0.930 . S
H1010 C1026 0.931 . S
C1011 H999 0.929 . S
C1011 C1005 1.390 1_556 S
C1011 C1008 1.386 . S
C1012 C1007 1.490 . S
C1012 C1014 1.395 . S
C1012 C1015 1.403 1_554 S
H1013 C1019 0.930 . S
C1014 H1000 0.930 . S
C1014 C1012 1.395 . S
C1014 C1017 1.403 . S
C1015 C1012 1.403 1_556 S
C1015 C1016 1.524 . S
C1015 C1019 1.400 . S
C1016 H1001 0.960 . S
C1016 H1002 0.960 . S
C1016 H1003 0.960 . S
C1016 C1015 1.524 . S
C1017 C1014 1.403 . S
C1017 C1018 1.400 . S
C1017 C1021 1.495 . S
C1018 C1017 1.400 . S
C1018 C1019 1.379 1_554 S
C1018 C1020 1.476 1_554 S
C1019 H1013 0.930 . S
C1019 C1015 1.400 . S
C1019 C1018 1.379 1_556 S
C1020 C1018 1.476 1_556 S
C1020 C1022 1.381 1_556 S
C1020 C1026 1.383 . S
C1021 C1017 1.495 . S
C1021 H1027 0.959 . S
C1021 H1028 0.961 . S
C1021 H1029 0.960 . S
C1022 C1020 1.381 1_554 S
C1022 C1023 1.394 . S
C1022 H1030 0.930 . S
C1023 C1022 1.394 . S
C1023 C1024 1.383 1_554 S
C1023 H1031 0.929 . S
C1024 C1023 1.383 1_556 S
C1024 C1025 1.377 . S
C1025 H1009 0.930 . S
C1025 C1024 1.377 . S
C1025 C1026 1.379 . S
C1026 H1010 0.931 . S
C1026 C1020 1.383 . S
C1026 C1025 1.379 . S
H1027 C1021 0.959 . S
H1028 C1021 0.961 . S
H1029 C1021 0.960 . S
H1030 C1022 0.930 . S
H1031 C1023 0.929 . S
C177 C11 1.266 . S
C196 C137 1.298 . S
C213 C25 1.273 . S
C232 C151 1.242 . S
C249 C39 1.270 . S
C268 C165 1.282 . S
C285 C53 1.264 . S
C304 C95 1.291 . S
C321 C109 1.264 . S
C340 C67 1.292 . S
C357 C123 1.266 . S
C376 C81 1.274 . S
C393 C145 1.348 . S
C412 C5 1.296 . S
C429 C19 1.343 . S
C448 C159 1.288 . S
C465 C33 1.350 . S
C484 C89 1.303 . S
C501 C47 1.343 . S
C520 C103 1.392 . S
C537 C61 1.333 . S
C556 C117 1.321 . S
C573 C75 1.333 . S
C592 C131 1.318 . S
C609 C144 0.797 . S
C628 C4 0.763 . S
C645 C18 0.813 . S
C664 C158 0.846 . S
C681 C32 0.810 . S
C700 C88 0.802 . S
C717 C46 0.811 . S
C736 C102 0.840 . S
C753 C60 0.799 . S
C772 C116 0.780 . S
C789 C74 0.797 . S
C808 C130 0.762 . S
C825 C12 1.578 . S
C844 C96 1.573 . S
C861 C110 1.577 . S
C880 C26 1.569 . S
C897 C40 1.577 . S
C916 C124 1.568 . S
C933 C54 1.577 . S
C952 C138 1.568 . S
C969 C68 1.576 . S
C988 C152 1.578 . S
C1005 C166 1.575 . S
C1024 C82 1.576 . S
