# Generated by pormake.
# Topology ske, (6)-cn, num edge types: 1
# Building blocks:
#     Node 0, Type 0, BuildingBlock: PAMTUU_clean_sbu_0, # of connection points: 6
#     Node 1, Type 0, BuildingBlock: PAMTUU_clean_sbu_0, # of connection points: 6
#     Node 2, Type 0, BuildingBlock: PAMTUU_clean_sbu_0, # of connection points: 6
#     Node 3, Type 0, BuildingBlock: PAMTUU_clean_sbu_0, # of connection points: 6
#     Node 4, Type 0, BuildingBlock: PAMTUU_clean_sbu_0, # of connection points: 6
#     Node 5, Type 0, BuildingBlock: PAMTUU_clean_sbu_0, # of connection points: 6
#     Node 6, Type 0, BuildingBlock: PAMTUU_clean_sbu_0, # of connection points: 6
#     Node 7, Type 0, BuildingBlock: PAMTUU_clean_sbu_0, # of connection points: 6
#     Edge 8, Type (0, 0), BuildingBlock: EYOCIG_clean_linker_4, # of connection points: 2
#     Edge 9, Type (0, 0), BuildingBlock: EYOCIG_clean_linker_4, # of connection points: 2
#     Edge 10, Type (0, 0), BuildingBlock: EYOCIG_clean_linker_4, # of connection points: 2
#     Edge 11, Type (0, 0), BuildingBlock: EYOCIG_clean_linker_4, # of connection points: 2
#     Edge 12, Type (0, 0), BuildingBlock: EYOCIG_clean_linker_4, # of connection points: 2
#     Edge 13, Type (0, 0), BuildingBlock: EYOCIG_clean_linker_4, # of connection points: 2
#     Edge 14, Type (0, 0), BuildingBlock: EYOCIG_clean_linker_4, # of connection points: 2
#     Edge 15, Type (0, 0), BuildingBlock: EYOCIG_clean_linker_4, # of connection points: 2
#     Edge 16, Type (0, 0), BuildingBlock: EYOCIG_clean_linker_4, # of connection points: 2
#     Edge 17, Type (0, 0), BuildingBlock: EYOCIG_clean_linker_4, # of connection points: 2
#     Edge 18, Type (0, 0), BuildingBlock: EYOCIG_clean_linker_4, # of connection points: 2
#     Edge 19, Type (0, 0), BuildingBlock: EYOCIG_clean_linker_4, # of connection points: 2
#     Edge 20, Type (0, 0), BuildingBlock: EYOCIG_clean_linker_4, # of connection points: 2
#     Edge 21, Type (0, 0), BuildingBlock: EYOCIG_clean_linker_4, # of connection points: 2
#     Edge 22, Type (0, 0), BuildingBlock: EYOCIG_clean_linker_4, # of connection points: 2
#     Edge 23, Type (0, 0), BuildingBlock: EYOCIG_clean_linker_4, # of connection points: 2
#     Edge 24, Type (0, 0), BuildingBlock: EYOCIG_clean_linker_4, # of connection points: 2
#     Edge 25, Type (0, 0), BuildingBlock: EYOCIG_clean_linker_4, # of connection points: 2
#     Edge 26, Type (0, 0), BuildingBlock: EYOCIG_clean_linker_4, # of connection points: 2
#     Edge 27, Type (0, 0), BuildingBlock: EYOCIG_clean_linker_4, # of connection points: 2
#     Edge 28, Type (0, 0), BuildingBlock: EYOCIG_clean_linker_4, # of connection points: 2
#     Edge 29, Type (0, 0), BuildingBlock: EYOCIG_clean_linker_4, # of connection points: 2
#     Edge 30, Type (0, 0), BuildingBlock: EYOCIG_clean_linker_4, # of connection points: 2
#     Edge 31, Type (0, 0), BuildingBlock: EYOCIG_clean_linker_4, # of connection points: 2
# Relax obj value: 0.138
# Max RMSD: 0.175
# Mean RMSD: 0.168
data_MOF--net-ske--node1-PAMTUU_clean_sbu_0--edge1-EYOCIG_clean_linker_4
_symmetry_space_group_name_H-M    P1
_symmetry_Int_Tables_number       1
_symmetry_cell_setting            triclinic
loop_
_symmetry_equiv_pos_as_xyz
'x, y, z'
_cell_length_a     89.896988
_cell_length_b     23.912534
_cell_length_c     11.99874
_cell_angle_alpha  89.980729
_cell_angle_beta   90.054178
_cell_angle_gamma 99.047267
loop_
_atom_site_label
_atom_site_type_symbol
_atom_site_fract_x
_atom_site_fract_y
_atom_site_fract_z
_atom_type_partial_charge
Tb0 Tb 0.17355 0.25364 0.47852 0.0
Tb1 Tb 0.13542 0.23269 0.47076 0.0
C2 C 0.15495 0.35307 0.4849 0.0
C3 C 0.21567 0.26353 0.54863 0.0
C4 C 0.24336 0.24978 0.64962 0.0
C5 C 0.24109 0.30279 0.6093 0.0
C6 C 0.2274 0.30956 0.5593 0.0
C7 C 0.21776 0.21064 0.59233 0.0
C8 C 0.23152 0.20388 0.64262 0.0
C9 C 0.20216 0.27144 0.48256 0.0
O10 O 0.16619 0.26022 0.64972 0.0
O11 O 0.141 0.21845 0.6435 0.0
O12 O 0.14277 0.15003 0.45004 0.0
O13 O 0.16627 0.16681 0.53269 0.0
O14 O 0.11559 0.26851 0.48141 0.0
O15 O 0.11444 0.17933 0.45027 0.0
O16 O 0.14291 0.25541 0.30312 0.0
O17 O 0.16683 0.23152 0.30782 0.0
O18 O 0.16615 0.33379 0.43552 0.0
O19 O 0.1435 0.31881 0.52668 0.0
C20 C 0.15343 0.23854 0.69774 0.0
O21 O 0.1941 0.22704 0.43756 0.0
O22 O 0.19376 0.30694 0.52041 0.0
C23 C 0.15441 0.13215 0.49724 0.0
C24 C 0.09344 0.22246 0.38785 0.0
C25 C 0.06465 0.23002 0.29858 0.0
C26 C 0.06781 0.1786 0.34135 0.0
C27 C 0.08205 0.17487 0.38556 0.0
C28 C 0.09057 0.27292 0.33713 0.0
C29 C 0.07628 0.27657 0.29267 0.0
C30 C 0.10682 0.22105 0.46049 0.0
C31 C 0.15494 0.24273 0.25379 0.0
H32 H 0.25005 0.33879 0.61404 0.0
H33 H 0.22613 0.35065 0.52587 0.0
H34 H 0.20894 0.17432 0.58531 0.0
H35 H 0.23302 0.16259 0.67368 0.0
H36 H 0.05899 0.14215 0.34669 0.0
H37 H 0.08387 0.13561 0.42449 0.0
H38 H 0.09905 0.31049 0.33742 0.0
H39 H 0.07407 0.31669 0.25981 0.0
Tb40 Tb 0.88254 0.22484 0.47863 0.0
Tb41 Tb 0.92066 0.24508 0.47141 0.0
C42 C 0.90103 0.12526 0.48708 0.0
C43 C 0.8404 0.21503 0.54821 0.0
C44 C 0.81266 0.22866 0.64815 0.0
C45 C 0.81499 0.1756 0.60857 0.0
C46 C 0.82871 0.16888 0.55908 0.0
C47 C 0.83824 0.26797 0.59125 0.0
C48 C 0.82446 0.27465 0.64102 0.0
C49 C 0.85393 0.20722 0.48241 0.0
O50 O 0.88984 0.21887 0.65019 0.0
O51 O 0.91515 0.25908 0.64424 0.0
O52 O 0.91347 0.32791 0.44871 0.0
O53 O 0.88999 0.31177 0.53174 0.0
O54 O 0.94018 0.20718 0.47397 0.0
O55 O 0.94191 0.29768 0.45928 0.0
O56 O 0.91316 0.22341 0.3033 0.0
O57 O 0.88917 0.24678 0.3079 0.0
O58 O 0.88993 0.14459 0.43628 0.0
O59 O 0.91238 0.15959 0.52995 0.0
C60 C 0.90265 0.2399 0.69827 0.0
O61 O 0.862 0.25167 0.43776 0.0
O62 O 0.8623 0.17161 0.52019 0.0
C63 C 0.90187 0.34616 0.49581 0.0
C64 C 0.96263 0.25538 0.38793 0.0
C65 C 0.99154 0.25024 0.29868 0.0
C66 C 0.98818 0.30093 0.34347 0.0
C67 C 0.97387 0.30347 0.38773 0.0
C68 C 0.96572 0.20577 0.33507 0.0
C69 C 0.98006 0.20331 0.2907 0.0
C70 C 0.94923 0.25481 0.4612 0.0
C71 C 0.90109 0.23593 0.25401 0.0
H72 H 0.80606 0.13951 0.61343 0.0
H73 H 0.83002 0.12776 0.52614 0.0
H74 H 0.84703 0.30437 0.58405 0.0
H75 H 0.82291 0.31599 0.67151 0.0
H76 H 0.99689 0.33766 0.35042 0.0
H77 H 0.97192 0.34209 0.4284 0.0
H78 H 0.95738 0.1678 0.3338 0.0
H79 H 0.98243 0.16373 0.25633 0.0
Tb80 Tb 0.13547 0.7332 0.58883 0.0
Tb81 Tb 0.1736 0.75326 0.58173 0.0
C82 C 0.15425 0.6321 0.56297 0.0
C83 C 0.09351 0.72357 0.6718 0.0
C84 C 0.06471 0.73044 0.76113 0.0
C85 C 0.06791 0.67923 0.71772 0.0
C86 C 0.08216 0.67584 0.67345 0.0
C87 C 0.09059 0.77378 0.7232 0.0
C88 C 0.07629 0.77708 0.76766 0.0
C89 C 0.10688 0.72282 0.59884 0.0
O90 O 0.14299 0.75533 0.75673 0.0
O91 O 0.16688 0.73115 0.7523 0.0
O92 O 0.16628 0.83355 0.62455 0.0
O93 O 0.14373 0.81898 0.53191 0.0
O94 O 0.19411 0.72606 0.62227 0.0
O95 O 0.19387 0.80648 0.54108 0.0
O96 O 0.16629 0.75985 0.4103 0.0
O97 O 0.14102 0.71914 0.41607 0.0
O98 O 0.14265 0.65027 0.61011 0.0
O99 O 0.16616 0.66652 0.52761 0.0
C100 C 0.155 0.74247 0.80616 0.0
O101 O 0.11582 0.77029 0.58147 0.0
O102 O 0.11433 0.68041 0.60552 0.0
C103 C 0.15516 0.85308 0.57441 0.0
C104 C 0.21578 0.76312 0.51278 0.0
C105 C 0.24359 0.75015 0.41298 0.0
C106 C 0.24117 0.80307 0.45274 0.0
C107 C 0.22742 0.80946 0.50215 0.0
C108 C 0.21803 0.71029 0.4697 0.0
C109 C 0.23184 0.70393 0.41999 0.0
C110 C 0.20222 0.77066 0.57841 0.0
C111 C 0.15349 0.73868 0.36209 0.0
H112 H 0.05912 0.64271 0.71189 0.0
H113 H 0.08401 0.63678 0.63395 0.0
H114 H 0.09903 0.81146 0.72338 0.0
H115 H 0.07405 0.81704 0.80099 0.0
H116 H 0.25005 0.83932 0.44801 0.0
H117 H 0.22604 0.85049 0.53518 0.0
H118 H 0.20929 0.67373 0.47676 0.0
H119 H 0.23346 0.66269 0.38937 0.0
Tb120 Tb 0.92064 0.74502 0.58877 0.0
Tb121 Tb 0.88254 0.72485 0.58125 0.0
C122 C 0.90187 0.84614 0.56428 0.0
C123 C 0.96263 0.7554 0.67249 0.0
C124 C 0.99157 0.75042 0.76157 0.0
C125 C 0.98819 0.80104 0.71647 0.0
C126 C 0.97386 0.80349 0.67228 0.0
C127 C 0.96574 0.70588 0.7257 0.0
C128 C 0.9801 0.70351 0.76999 0.0
C129 C 0.94921 0.75463 0.59915 0.0
O130 O 0.91315 0.72339 0.75686 0.0
O131 O 0.88917 0.74681 0.752 0.0
O132 O 0.88993 0.6446 0.62377 0.0
O133 O 0.91235 0.65958 0.53003 0.0
O134 O 0.86201 0.75189 0.62118 0.0
O135 O 0.86231 0.6714 0.54048 0.0
O136 O 0.8898 0.71878 0.40974 0.0
O137 O 0.91511 0.759 0.41586 0.0
O138 O 0.91346 0.82785 0.61164 0.0
O139 O 0.89 0.81176 0.52806 0.0
C140 C 0.90109 0.73591 0.80602 0.0
O141 O 0.94014 0.707 0.58711 0.0
O142 O 0.9419 0.79757 0.60029 0.0
C143 C 0.90101 0.62524 0.57293 0.0
C144 C 0.8404 0.71459 0.51113 0.0
C145 C 0.81264 0.72733 0.41016 0.0
C146 C 0.81505 0.67448 0.45045 0.0
C147 C 0.82877 0.6682 0.50045 0.0
C148 C 0.83817 0.76733 0.46744 0.0
C149 C 0.82438 0.77358 0.41714 0.0
C150 C 0.85393 0.70719 0.57735 0.0
C151 C 0.90261 0.73981 0.36175 0.0
H152 H 0.99689 0.83776 0.70919 0.0
H153 H 0.97189 0.84204 0.63133 0.0
H154 H 0.9574 0.66791 0.72729 0.0
H155 H 0.98248 0.66399 0.80461 0.0
H156 H 0.80616 0.63822 0.44572 0.0
H157 H 0.83014 0.62723 0.53392 0.0
H158 H 0.84691 0.80391 0.4745 0.0
H159 H 0.82277 0.81476 0.38612 0.0
Tb160 Tb 0.67382 0.75088 0.03041 0.0
Tb161 Tb 0.63567 0.73345 1.02344 0.0
C162 C 0.65588 0.85115 1.02213 0.0
C163 C 0.71579 0.76056 0.10671 0.0
C164 C 0.74346 0.74885 0.21033 0.0
C165 C 0.741 0.8015 0.16929 0.0
C166 C 0.72732 0.80727 0.118 0.0
C167 C 0.71805 0.7081 0.15157 0.0
C168 C 0.73179 0.70236 0.20318 0.0
C169 C 0.7024 0.76723 0.03812 0.0
O170 O 0.6664 0.76093 0.2004 0.0
O171 O 0.64141 0.71754 0.19503 0.0
O172 O 0.64254 0.65158 0.98807 0.0
O173 O 0.66559 0.66367 0.07742 0.0
O174 O 0.61665 0.77413 1.02143 0.0
O175 O 0.61406 0.68304 1.02152 0.0
O176 O 0.64296 0.7518 0.85361 0.0
O177 O 0.66728 0.73068 0.85863 0.0
O178 O 0.66682 0.82948 0.97514 0.0
O179 O 0.64484 0.81931 0.07373 0.0
C180 C 0.65378 0.73838 0.24901 0.0
O181 O 0.6943 0.72208 0.9961 0.0
O182 O 0.69408 0.80405 0.07116 0.0
C183 C 0.65386 0.63119 0.03408 0.0
C184 C 0.59363 0.72545 0.94468 0.0
C185 C 0.56457 0.72909 0.85658 0.0
C186 C 0.56815 0.67871 0.90144 0.0
C187 C 0.58253 0.67692 0.94524 0.0
C188 C 0.59029 0.77479 0.89204 0.0
C189 C 0.57588 0.7765 0.84827 0.0
C190 C 0.60718 0.7271 1.01694 0.0
C191 C 0.65519 0.74041 0.80482 0.0
H192 H 0.74983 0.83794 0.17418 0.0
H193 H 0.72593 0.84806 0.08375 0.0
H194 H 0.70939 0.67129 0.1442 0.0
H195 H 0.73344 0.66134 0.23484 0.0
H196 H 0.55956 0.64164 0.90874 0.0
H197 H 0.58466 0.63851 0.98595 0.0
H198 H 0.5985 0.81315 0.89048 0.0
H199 H 0.57334 0.81588 0.81404 0.0
Tb200 Tb 0.3822 0.72657 1.02966 0.0
Tb201 Tb 0.42045 0.74619 1.02226 0.0
C202 C 0.40052 0.627 1.01874 0.0
C203 C 0.34025 0.71614 0.10706 0.0
C204 C 0.3127 0.72822 0.21202 0.0
C205 C 0.31506 0.67555 0.1705 0.0
C206 C 0.32867 0.6696 0.11857 0.0
C207 C 0.3381 0.76862 0.15234 0.0
C208 C 0.32442 0.77454 0.20459 0.0
C209 C 0.3536 0.70922 0.03825 0.0
O210 O 0.38988 0.71627 0.19907 0.0
O211 O 0.41461 0.76219 0.1936 0.0
O212 O 0.41316 0.8277 0.99066 0.0
O213 O 0.39 0.81381 0.07813 0.0
O214 O 0.44006 0.70912 0.03507 0.0
O215 O 0.44163 0.79863 1.00588 0.0
O216 O 0.41313 0.72624 0.85298 0.0
O217 O 0.38878 0.74713 0.85785 0.0
O218 O 0.38931 0.64821 0.97425 0.0
O219 O 0.4118 0.65904 0.06767 0.0
C220 C 0.4024 0.73996 0.24773 0.0
O221 O 0.36157 0.75417 0.9944 0.0
O222 O 0.36206 0.67309 0.07239 0.0
C223 C 0.40168 0.84707 0.03635 0.0
C224 C 0.46253 0.75461 0.94503 0.0
C225 C 0.49137 0.74714 0.85716 0.0
C226 C 0.48809 0.79883 0.8975 0.0
C227 C 0.47382 0.80251 0.94109 0.0
C228 C 0.46557 0.70371 0.89719 0.0
C229 C 0.47988 0.70011 0.85343 0.0
C230 C 0.44905 0.75632 1.01622 0.0
C231 C 0.40087 0.73747 0.80402 0.0
H232 H 0.3062 0.63922 0.17556 0.0
H233 H 0.32999 0.62879 0.08409 0.0
H234 H 0.34679 0.8053 0.14486 0.0
H235 H 0.32285 0.81558 0.2366 0.0
H236 H 0.49682 0.83562 0.90127 0.0
H237 H 0.4719 0.84209 0.97801 0.0
H238 H 0.45718 0.66586 0.89904 0.0
H239 H 0.48219 0.65976 0.82264 0.0
Tb240 Tb 0.63557 0.22982 0.03926 0.0
Tb241 Tb 0.67378 0.25045 0.03178 0.0
C242 C 0.65404 0.13044 1.02497 0.0
C243 C 0.59339 0.21915 0.11172 0.0
C244 C 0.56484 0.23205 0.19772 0.0
C245 C 0.56775 0.17871 0.16426 0.0
C246 C 0.58188 0.17233 0.12176 0.0
C247 C 0.59076 0.27211 0.15169 0.0
C248 C 0.57656 0.27844 0.19467 0.0
C249 C 0.607 0.21222 0.04626 0.0
O250 O 0.64328 0.21868 0.20825 0.0
O251 O 0.6678 0.26651 0.20295 0.0
O252 O 0.66617 0.3313 0.99864 0.0
O253 O 0.64315 0.31722 0.08767 0.0
O254 O 0.69382 0.21664 0.05375 0.0
O255 O 0.69461 0.30365 1.00566 0.0
O256 O 0.66648 0.22854 0.86319 0.0
O257 O 0.64222 0.25015 0.86744 0.0
O258 O 0.64263 0.15153 0.98328 0.0
O259 O 0.66551 0.16231 0.07216 0.0
C260 C 0.6557 0.24308 0.25713 0.0
O261 O 0.61498 0.25699 1.00189 0.0
O262 O 0.61543 0.17652 0.08281 0.0
C263 C 0.65467 0.3506 0.04408 0.0
C264 C 0.71568 0.2593 0.95229 0.0
C265 C 0.74342 0.25049 0.84673 0.0
C266 C 0.74083 0.30218 0.89169 0.0
C267 C 0.72712 0.30651 0.944 0.0
C268 C 0.71807 0.20794 0.90298 0.0
C269 C 0.73183 0.20367 0.85047 0.0
C270 C 0.70244 0.26327 1.02479 0.0
C271 C 0.65427 0.23984 0.81377 0.0
H272 H 0.55886 0.14239 0.16575 0.0
H273 H 0.58357 0.13114 0.09128 0.0
H274 H 0.59941 0.309 0.14524 0.0
H275 H 0.57454 0.32004 0.2202 0.0
H276 H 0.7496 0.33888 0.88953 0.0
H277 H 0.72567 0.34641 0.98193 0.0
H278 H 0.70954 0.17063 0.90811 0.0
H279 H 0.73358 0.16336 0.81586 0.0
Tb280 Tb 0.42045 0.24592 0.03739 0.0
Tb281 Tb 0.38221 0.22659 1.03019 0.0
C282 C 0.40176 0.34699 1.02401 0.0
C283 C 0.46261 0.25491 0.11467 0.0
C284 C 0.49169 0.25021 0.20145 0.0
C285 C 0.48803 0.30128 0.16063 0.0
C286 C 0.47364 0.30359 0.11754 0.0
C287 C 0.46601 0.20464 0.16309 0.0
C288 C 0.48044 0.2024 0.20628 0.0
C289 C 0.44902 0.25485 0.04335 0.0
O290 O 0.41319 0.22681 0.20702 0.0
O291 O 0.38879 0.24731 0.20187 0.0
O292 O 0.3894 0.14837 0.08574 0.0
O293 O 0.41165 0.15923 0.98987 0.0
O294 O 0.36159 0.25413 0.06552 0.0
O295 O 0.36208 0.17295 0.98794 0.0
O296 O 0.38978 0.2167 0.86048 0.0
O297 O 0.41462 0.26174 0.86594 0.0
O298 O 0.41323 0.32749 0.06983 0.0
O299 O 0.39006 0.31384 0.98202 0.0
C300 C 0.40092 0.23792 0.25578 0.0
O301 O 0.43986 0.20744 0.03105 0.0
O302 O 0.44179 0.29793 0.04725 0.0
C303 C 0.4005 0.12712 0.04002 0.0
C304 C 0.34019 0.2157 0.95381 0.0
C305 C 0.31249 0.22726 0.85018 0.0
C306 C 0.31498 0.17463 0.89117 0.0
C307 C 0.32867 0.16894 0.94245 0.0
C308 C 0.3379 0.26815 0.90906 0.0
C309 C 0.32414 0.27381 0.85747 0.0
C310 C 0.35362 0.20905 1.02214 0.0
C311 C 0.40233 0.24004 0.81188 0.0
H312 H 0.49657 0.33864 0.156 0.0
H313 H 0.47146 0.34272 0.08006 0.0
H314 H 0.45785 0.16618 0.16193 0.0
H315 H 0.48304 0.16249 0.23736 0.0
H316 H 0.30617 0.13813 0.88621 0.0
H317 H 0.33009 0.12814 0.97659 0.0
H318 H 0.34654 0.305 0.91647 0.0
H319 H 0.32248 0.31482 0.82586 0.0
C320 C 0.27051 0.2393 0.72933 0.0
C321 C 0.25803 0.24264 0.6936 0.0
C322 C 0.2853 0.23641 0.76957 0.0
C323 C 0.29778 0.23347 0.80578 0.0
C324 C 0.77069 0.24241 0.76652 0.0
C325 C 0.7582 0.24517 0.8026 0.0
C326 C 0.78548 0.23932 0.7267 0.0
C327 C 0.79796 0.23579 0.69145 0.0
C328 C 0.28559 0.73763 0.29358 0.0
C329 C 0.29804 0.73469 0.25699 0.0
C330 C 0.2708 0.74036 0.33391 0.0
C331 C 0.2583 0.74346 0.36938 0.0
C332 C 0.77065 0.73968 0.29063 0.0
C333 C 0.75816 0.74256 0.25459 0.0
C334 C 0.78545 0.73701 0.33069 0.0
C335 C 0.79794 0.73397 0.36634 0.0
C336 C 0.15524 0.96359 0.54725 0.0
C337 C 0.15561 0.91355 0.56132 0.0
C338 C 0.15457 0.02199 0.52819 0.0
C339 C 0.15417 0.07192 0.51293 0.0
C340 C 0.90177 0.45642 0.52617 0.0
C341 C 0.90219 0.40648 0.51103 0.0
C342 C 0.90104 0.51479 0.54533 0.0
C343 C 0.90062 0.56478 0.55963 0.0
C344 C 0.90179 0.95642 0.53392 0.0
C345 C 0.9022 0.90647 0.54907 0.0
C346 C 0.90107 0.0148 0.51475 0.0
C347 C 0.90064 0.0648 0.50043 0.0
C348 C 0.15427 0.52189 0.53169 0.0
C349 C 0.15391 0.57183 0.54718 0.0
C350 C 0.15494 0.46352 0.51238 0.0
C351 C 0.15535 0.41351 0.49822 0.0
C352 C 0.65372 0.52023 0.03903 0.0
C353 C 0.65358 0.57072 0.036 0.0
C354 C 0.65412 0.46116 0.04181 0.0
C355 C 0.65441 0.41075 0.04267 0.0
C356 C 0.40141 0.95768 0.04192 0.0
C357 C 0.40169 0.90732 0.03878 0.0
C358 C 0.40084 0.01657 0.04369 0.0
C359 C 0.40044 0.06687 0.04307 0.0
C360 C 0.40148 0.45759 1.01793 0.0
C361 C 0.4018 0.40726 1.02143 0.0
C362 C 0.40085 0.51644 1.0156 0.0
C363 C 0.40043 0.56673 1.01589 0.0
C364 C 0.65456 0.02015 1.01692 0.0
C365 C 0.65405 0.07032 1.01953 0.0
C366 C 0.65538 0.96149 1.01626 0.0
C367 C 0.65589 0.91131 1.01766 0.0
C368 C 0.15442 0.23847 0.03436 0.0
C369 C 0.15492 0.24015 0.13457 0.0
C370 C 0.15361 0.23708 0.91714 0.0
C371 C 0.15316 0.23714 0.81692 0.0
C372 C 0.90162 0.24031 0.0347 0.0
C373 C 0.9011 0.23858 0.13485 0.0
C374 C 0.90246 0.24163 0.91756 0.0
C375 C 0.90292 0.24144 0.81738 0.0
C376 C 0.15368 0.73709 0.14274 0.0
C377 C 0.15323 0.73724 0.24294 0.0
C378 C 0.15449 0.73834 1.02555 0.0
C379 C 0.15499 0.73996 0.92536 0.0
C380 C 0.9016 0.74021 1.02532 0.0
C381 C 0.9011 0.73851 0.92516 0.0
C382 C 0.90242 0.7415 0.14247 0.0
C383 C 0.90287 0.74131 0.24265 0.0
C384 C 0.65401 0.73648 0.46835 0.0
C385 C 0.65358 0.73679 0.36816 0.0
C386 C 0.6548 0.73721 0.58551 0.0
C387 C 0.65527 0.73842 0.68568 0.0
C388 C 0.40129 0.7407 0.5845 0.0
C389 C 0.40079 0.73949 0.68474 0.0
C390 C 0.40213 0.7416 0.46725 0.0
C391 C 0.4026 0.7415 0.36699 0.0
C392 C 0.65545 0.24385 0.47681 0.0
C393 C 0.65591 0.24416 0.3765 0.0
C394 C 0.65466 0.24269 0.59414 0.0
C395 C 0.65421 0.24163 0.69443 0.0
C396 C 0.40131 0.2412 0.47521 0.0
C397 C 0.40084 0.23995 0.375 0.0
C398 C 0.40209 0.24198 0.59244 0.0
C399 C 0.40252 0.24168 0.69267 0.0
C400 C 0.03598 0.2393 0.25869 0.0
C401 C 0.04915 0.23667 0.2759 0.0
C402 C 1.02029 0.24223 0.25877 0.0
C403 C 1.0071 0.24448 0.27606 0.0
C404 C 1.02034 0.74241 0.80118 0.0
C405 C 1.00714 0.74468 0.78403 0.0
C406 C 0.03603 0.73944 0.80111 0.0
C407 C 0.0492 0.73686 0.78383 0.0
C408 C 0.53576 0.73591 0.81689 0.0
C409 C 0.54896 0.73408 0.83416 0.0
C410 C 0.52005 0.73848 0.81701 0.0
C411 C 0.50689 0.7409 0.83447 0.0
C412 C 0.52057 0.24413 0.24003 0.0
C413 C 0.50732 0.24539 0.2233 0.0
C414 C 0.53631 0.24233 0.23916 0.0
C415 C 0.54946 0.23979 0.22119 0.0
loop_
_geom_bond_atom_site_label_1
_geom_bond_atom_site_label_2
_geom_bond_distance
_geom_bond_site_symmetry_2
_ccdc_geom_bond_type
Tb0 C9 2.764 . S
Tb0 O10 2.325 . S
Tb0 O13 2.303 . S
Tb0 O17 2.322 . S
Tb0 O18 2.349 . S
Tb0 O21 2.415 . S
Tb0 O22 2.399 . S
Tb1 O11 2.322 . S
Tb1 O12 2.349 . S
Tb1 O14 2.415 . S
Tb1 O15 2.399 . S
Tb1 O16 2.325 . S
Tb1 O19 2.303 . S
Tb1 C30 2.764 . S
C2 O18 1.261 . S
C2 O19 1.257 . S
C3 C6 1.358 . S
C3 C7 1.332 . S
C3 C9 1.504 . S
C4 C5 1.373 . S
C4 C8 1.308 . S
C5 C4 1.373 . S
C5 C6 1.429 . S
C5 H32 0.932 . S
C6 C3 1.358 . S
C6 C5 1.429 . S
C6 H33 0.930 . S
C7 C3 1.332 . S
C7 C8 1.394 . S
C7 H34 0.932 . S
C8 C4 1.308 . S
C8 C7 1.394 . S
C8 H35 0.929 . S
C9 Tb0 2.764 . S
C9 C3 1.504 . S
C9 O21 1.239 . S
C9 O22 1.263 . S
O10 Tb0 2.325 . S
O10 C20 1.236 . S
O11 Tb1 2.322 . S
O11 C20 1.257 . S
O12 Tb1 2.349 . S
O12 C23 1.261 . S
O13 Tb0 2.303 . S
O13 C23 1.257 . S
O14 Tb1 2.415 . S
O14 C30 1.239 . S
O15 Tb1 2.399 . S
O15 C30 1.263 . S
O16 Tb1 2.325 . S
O16 C31 1.236 . S
O17 Tb0 2.322 . S
O17 C31 1.257 . S
O18 Tb0 2.349 . S
O18 C2 1.261 . S
O19 Tb1 2.303 . S
O19 C2 1.257 . S
C20 O10 1.236 . S
C20 O11 1.257 . S
O21 Tb0 2.415 . S
O21 C9 1.239 . S
O22 Tb0 2.399 . S
O22 C9 1.263 . S
C23 O12 1.261 . S
C23 O13 1.257 . S
C24 C27 1.358 . S
C24 C28 1.332 . S
C24 C30 1.504 . S
C25 C26 1.373 . S
C25 C29 1.308 . S
C26 C25 1.373 . S
C26 C27 1.429 . S
C26 H36 0.932 . S
C27 C24 1.358 . S
C27 C26 1.429 . S
C27 H37 0.930 . S
C28 C24 1.332 . S
C28 C29 1.394 . S
C28 H38 0.932 . S
C29 C25 1.308 . S
C29 C28 1.394 . S
C29 H39 0.929 . S
C30 Tb1 2.764 . S
C30 O14 1.239 . S
C30 O15 1.263 . S
C30 C24 1.504 . S
C31 O16 1.236 . S
C31 O17 1.257 . S
H32 C5 0.932 . S
H33 C6 0.930 . S
H34 C7 0.932 . S
H35 C8 0.929 . S
H36 C26 0.932 . S
H37 C27 0.930 . S
H38 C28 0.932 . S
H39 C29 0.929 . S
Tb40 C49 2.764 . S
Tb40 O50 2.325 . S
Tb40 O53 2.303 . S
Tb40 O57 2.322 . S
Tb40 O58 2.349 . S
Tb40 O61 2.415 . S
Tb40 O62 2.399 . S
Tb41 O51 2.322 . S
Tb41 O52 2.349 . S
Tb41 O54 2.415 . S
Tb41 O55 2.399 . S
Tb41 O56 2.325 . S
Tb41 O59 2.303 . S
Tb41 C70 2.764 . S
C42 O58 1.261 . S
C42 O59 1.257 . S
C43 C46 1.358 . S
C43 C47 1.332 . S
C43 C49 1.504 . S
C44 C45 1.373 . S
C44 C48 1.308 . S
C45 C44 1.373 . S
C45 C46 1.429 . S
C45 H72 0.932 . S
C46 C43 1.358 . S
C46 C45 1.429 . S
C46 H73 0.930 . S
C47 C43 1.332 . S
C47 C48 1.394 . S
C47 H74 0.932 . S
C48 C44 1.308 . S
C48 C47 1.394 . S
C48 H75 0.929 . S
C49 Tb40 2.764 . S
C49 C43 1.504 . S
C49 O61 1.239 . S
C49 O62 1.263 . S
O50 Tb40 2.325 . S
O50 C60 1.236 . S
O51 Tb41 2.322 . S
O51 C60 1.257 . S
O52 Tb41 2.349 . S
O52 C63 1.261 . S
O53 Tb40 2.303 . S
O53 C63 1.257 . S
O54 Tb41 2.415 . S
O54 C70 1.239 . S
O55 Tb41 2.399 . S
O55 C70 1.263 . S
O56 Tb41 2.325 . S
O56 C71 1.236 . S
O57 Tb40 2.322 . S
O57 C71 1.257 . S
O58 Tb40 2.349 . S
O58 C42 1.261 . S
O59 Tb41 2.303 . S
O59 C42 1.257 . S
C60 O50 1.236 . S
C60 O51 1.257 . S
O61 Tb40 2.415 . S
O61 C49 1.239 . S
O62 Tb40 2.399 . S
O62 C49 1.263 . S
C63 O52 1.261 . S
C63 O53 1.257 . S
C64 C67 1.358 . S
C64 C68 1.332 . S
C64 C70 1.504 . S
C65 C66 1.373 . S
C65 C69 1.308 . S
C66 C65 1.373 . S
C66 C67 1.429 . S
C66 H76 0.932 . S
C67 C64 1.358 . S
C67 C66 1.429 . S
C67 H77 0.930 . S
C68 C64 1.332 . S
C68 C69 1.394 . S
C68 H78 0.932 . S
C69 C65 1.308 . S
C69 C68 1.394 . S
C69 H79 0.929 . S
C70 Tb41 2.764 . S
C70 O54 1.239 . S
C70 O55 1.263 . S
C70 C64 1.504 . S
C71 O56 1.236 . S
C71 O57 1.257 . S
H72 C45 0.932 . S
H73 C46 0.930 . S
H74 C47 0.932 . S
H75 C48 0.929 . S
H76 C66 0.932 . S
H77 C67 0.930 . S
H78 C68 0.932 . S
H79 C69 0.929 . S
Tb80 C89 2.764 . S
Tb80 O90 2.325 . S
Tb80 O93 2.303 . S
Tb80 O97 2.322 . S
Tb80 O98 2.349 . S
Tb80 O101 2.415 . S
Tb80 O102 2.399 . S
Tb81 O91 2.322 . S
Tb81 O92 2.349 . S
Tb81 O94 2.415 . S
Tb81 O95 2.399 . S
Tb81 O96 2.325 . S
Tb81 O99 2.303 . S
Tb81 C110 2.764 . S
C82 O98 1.261 . S
C82 O99 1.257 . S
C83 C86 1.358 . S
C83 C87 1.332 . S
C83 C89 1.504 . S
C84 C85 1.373 . S
C84 C88 1.308 . S
C85 C84 1.373 . S
C85 C86 1.429 . S
C85 H112 0.932 . S
C86 C83 1.358 . S
C86 C85 1.429 . S
C86 H113 0.930 . S
C87 C83 1.332 . S
C87 C88 1.394 . S
C87 H114 0.932 . S
C88 C84 1.308 . S
C88 C87 1.394 . S
C88 H115 0.929 . S
C89 Tb80 2.764 . S
C89 C83 1.504 . S
C89 O101 1.239 . S
C89 O102 1.263 . S
O90 Tb80 2.325 . S
O90 C100 1.236 . S
O91 Tb81 2.322 . S
O91 C100 1.257 . S
O92 Tb81 2.349 . S
O92 C103 1.261 . S
O93 Tb80 2.303 . S
O93 C103 1.257 . S
O94 Tb81 2.415 . S
O94 C110 1.239 . S
O95 Tb81 2.399 . S
O95 C110 1.263 . S
O96 Tb81 2.325 . S
O96 C111 1.236 . S
O97 Tb80 2.322 . S
O97 C111 1.257 . S
O98 Tb80 2.349 . S
O98 C82 1.261 . S
O99 Tb81 2.303 . S
O99 C82 1.257 . S
C100 O90 1.236 . S
C100 O91 1.257 . S
O101 Tb80 2.415 . S
O101 C89 1.239 . S
O102 Tb80 2.399 . S
O102 C89 1.263 . S
C103 O92 1.261 . S
C103 O93 1.257 . S
C104 C107 1.358 . S
C104 C108 1.332 . S
C104 C110 1.504 . S
C105 C106 1.373 . S
C105 C109 1.308 . S
C106 C105 1.373 . S
C106 C107 1.429 . S
C106 H116 0.932 . S
C107 C104 1.358 . S
C107 C106 1.429 . S
C107 H117 0.930 . S
C108 C104 1.332 . S
C108 C109 1.394 . S
C108 H118 0.932 . S
C109 C105 1.308 . S
C109 C108 1.394 . S
C109 H119 0.929 . S
C110 Tb81 2.764 . S
C110 O94 1.239 . S
C110 O95 1.263 . S
C110 C104 1.504 . S
C111 O96 1.236 . S
C111 O97 1.257 . S
H112 C85 0.932 . S
H113 C86 0.930 . S
H114 C87 0.932 . S
H115 C88 0.929 . S
H116 C106 0.932 . S
H117 C107 0.930 . S
H118 C108 0.932 . S
H119 C109 0.929 . S
Tb120 C129 2.764 . S
Tb120 O130 2.325 . S
Tb120 O133 2.303 . S
Tb120 O137 2.322 . S
Tb120 O138 2.349 . S
Tb120 O141 2.415 . S
Tb120 O142 2.399 . S
Tb121 O131 2.322 . S
Tb121 O132 2.349 . S
Tb121 O134 2.415 . S
Tb121 O135 2.399 . S
Tb121 O136 2.325 . S
Tb121 O139 2.303 . S
Tb121 C150 2.764 . S
C122 O138 1.261 . S
C122 O139 1.257 . S
C123 C126 1.358 . S
C123 C127 1.332 . S
C123 C129 1.504 . S
C124 C125 1.373 . S
C124 C128 1.308 . S
C125 C124 1.373 . S
C125 C126 1.429 . S
C125 H152 0.932 . S
C126 C123 1.358 . S
C126 C125 1.429 . S
C126 H153 0.930 . S
C127 C123 1.332 . S
C127 C128 1.394 . S
C127 H154 0.932 . S
C128 C124 1.308 . S
C128 C127 1.394 . S
C128 H155 0.929 . S
C129 Tb120 2.764 . S
C129 C123 1.504 . S
C129 O141 1.239 . S
C129 O142 1.263 . S
O130 Tb120 2.325 . S
O130 C140 1.236 . S
O131 Tb121 2.322 . S
O131 C140 1.257 . S
O132 Tb121 2.349 . S
O132 C143 1.261 . S
O133 Tb120 2.303 . S
O133 C143 1.257 . S
O134 Tb121 2.415 . S
O134 C150 1.239 . S
O135 Tb121 2.399 . S
O135 C150 1.263 . S
O136 Tb121 2.325 . S
O136 C151 1.236 . S
O137 Tb120 2.322 . S
O137 C151 1.257 . S
O138 Tb120 2.349 . S
O138 C122 1.261 . S
O139 Tb121 2.303 . S
O139 C122 1.257 . S
C140 O130 1.236 . S
C140 O131 1.257 . S
O141 Tb120 2.415 . S
O141 C129 1.239 . S
O142 Tb120 2.399 . S
O142 C129 1.263 . S
C143 O132 1.261 . S
C143 O133 1.257 . S
C144 C147 1.358 . S
C144 C148 1.332 . S
C144 C150 1.504 . S
C145 C146 1.373 . S
C145 C149 1.308 . S
C146 C145 1.373 . S
C146 C147 1.429 . S
C146 H156 0.932 . S
C147 C144 1.358 . S
C147 C146 1.429 . S
C147 H157 0.930 . S
C148 C144 1.332 . S
C148 C149 1.394 . S
C148 H158 0.932 . S
C149 C145 1.308 . S
C149 C148 1.394 . S
C149 H159 0.929 . S
C150 Tb121 2.764 . S
C150 O134 1.239 . S
C150 O135 1.263 . S
C150 C144 1.504 . S
C151 O136 1.236 . S
C151 O137 1.257 . S
H152 C125 0.932 . S
H153 C126 0.930 . S
H154 C127 0.932 . S
H155 C128 0.929 . S
H156 C146 0.932 . S
H157 C147 0.930 . S
H158 C148 0.932 . S
H159 C149 0.929 . S
Tb160 C169 2.764 1_556 S
Tb160 O170 2.325 1_556 S
Tb160 O173 2.303 . S
Tb160 O177 2.322 . S
Tb160 O178 2.349 . S
Tb160 O181 2.415 1_556 S
Tb160 O182 2.399 1_556 S
Tb161 O171 2.322 . S
Tb161 O172 2.349 . S
Tb161 O174 2.415 1_554 S
Tb161 O175 2.399 1_554 S
Tb161 O176 2.325 1_554 S
Tb161 O179 2.303 . S
Tb161 C190 2.764 1_554 S
C162 O178 1.261 . S
C162 O179 1.257 1_556 S
C163 C166 1.358 . S
C163 C167 1.332 . S
C163 C169 1.504 . S
C164 C165 1.373 . S
C164 C168 1.308 . S
C165 C164 1.373 . S
C165 C166 1.429 . S
C165 H192 0.932 . S
C166 C163 1.358 . S
C166 C165 1.429 . S
C166 H193 0.930 . S
C167 C163 1.332 . S
C167 C168 1.394 . S
C167 H194 0.932 . S
C168 C164 1.308 . S
C168 C167 1.394 . S
C168 H195 0.929 . S
C169 Tb160 2.764 1_554 S
C169 C163 1.504 . S
C169 O181 1.239 . S
C169 O182 1.263 . S
O170 Tb160 2.325 1_554 S
O170 C180 1.236 . S
O171 Tb161 2.322 . S
O171 C180 1.257 . S
O172 Tb161 2.349 . S
O172 C183 1.261 . S
O173 Tb160 2.303 . S
O173 C183 1.257 1_556 S
O174 Tb161 2.415 1_556 S
O174 C190 1.239 . S
O175 Tb161 2.399 1_556 S
O175 C190 1.263 . S
O176 Tb161 2.325 1_556 S
O176 C191 1.236 . S
O177 Tb160 2.322 . S
O177 C191 1.257 . S
O178 Tb160 2.349 . S
O178 C162 1.261 . S
O179 Tb161 2.303 . S
O179 C162 1.257 1_554 S
C180 O170 1.236 . S
C180 O171 1.257 . S
O181 Tb160 2.415 1_554 S
O181 C169 1.239 . S
O182 Tb160 2.399 1_554 S
O182 C169 1.263 . S
C183 O172 1.261 . S
C183 O173 1.257 1_554 S
C184 C187 1.358 . S
C184 C188 1.332 . S
C184 C190 1.504 . S
C185 C186 1.373 . S
C185 C189 1.308 . S
C186 C185 1.373 . S
C186 C187 1.429 . S
C186 H196 0.932 . S
C187 C184 1.358 . S
C187 C186 1.429 . S
C187 H197 0.930 . S
C188 C184 1.332 . S
C188 C189 1.394 . S
C188 H198 0.932 . S
C189 C185 1.308 . S
C189 C188 1.394 . S
C189 H199 0.929 . S
C190 Tb161 2.764 1_556 S
C190 O174 1.239 . S
C190 O175 1.263 . S
C190 C184 1.504 . S
C191 O176 1.236 . S
C191 O177 1.257 . S
H192 C165 0.932 . S
H193 C166 0.930 . S
H194 C167 0.932 . S
H195 C168 0.929 . S
H196 C186 0.932 . S
H197 C187 0.930 . S
H198 C188 0.932 . S
H199 C189 0.929 . S
Tb200 C209 2.764 1_556 S
Tb200 O210 2.325 1_556 S
Tb200 O213 2.303 . S
Tb200 O217 2.322 . S
Tb200 O218 2.349 . S
Tb200 O221 2.415 1_556 S
Tb200 O222 2.399 1_556 S
Tb201 O211 2.322 . S
Tb201 O212 2.349 . S
Tb201 O214 2.415 1_554 S
Tb201 O215 2.399 1_554 S
Tb201 O216 2.325 1_554 S
Tb201 O219 2.303 . S
Tb201 C230 2.764 1_554 S
C202 O218 1.261 . S
C202 O219 1.257 1_556 S
C203 C206 1.358 . S
C203 C207 1.332 . S
C203 C209 1.504 . S
C204 C205 1.373 . S
C204 C208 1.308 . S
C205 C204 1.373 . S
C205 C206 1.429 . S
C205 H232 0.932 . S
C206 C203 1.358 . S
C206 C205 1.429 . S
C206 H233 0.930 . S
C207 C203 1.332 . S
C207 C208 1.394 . S
C207 H234 0.932 . S
C208 C204 1.308 . S
C208 C207 1.394 . S
C208 H235 0.929 . S
C209 Tb200 2.764 1_554 S
C209 C203 1.504 . S
C209 O221 1.239 . S
C209 O222 1.263 . S
O210 Tb200 2.325 1_554 S
O210 C220 1.236 . S
O211 Tb201 2.322 . S
O211 C220 1.257 . S
O212 Tb201 2.349 . S
O212 C223 1.261 . S
O213 Tb200 2.303 . S
O213 C223 1.257 1_556 S
O214 Tb201 2.415 1_556 S
O214 C230 1.239 . S
O215 Tb201 2.399 1_556 S
O215 C230 1.263 . S
O216 Tb201 2.325 1_556 S
O216 C231 1.236 . S
O217 Tb200 2.322 . S
O217 C231 1.257 . S
O218 Tb200 2.349 . S
O218 C202 1.261 . S
O219 Tb201 2.303 . S
O219 C202 1.257 1_554 S
C220 O210 1.236 . S
C220 O211 1.257 . S
O221 Tb200 2.415 1_554 S
O221 C209 1.239 . S
O222 Tb200 2.399 1_554 S
O222 C209 1.263 . S
C223 O212 1.261 . S
C223 O213 1.257 1_554 S
C224 C227 1.358 . S
C224 C228 1.332 . S
C224 C230 1.504 . S
C225 C226 1.373 . S
C225 C229 1.308 . S
C226 C225 1.373 . S
C226 C227 1.429 . S
C226 H236 0.932 . S
C227 C224 1.358 . S
C227 C226 1.429 . S
C227 H237 0.930 . S
C228 C224 1.332 . S
C228 C229 1.394 . S
C228 H238 0.932 . S
C229 C225 1.308 . S
C229 C228 1.394 . S
C229 H239 0.929 . S
C230 Tb201 2.764 1_556 S
C230 O214 1.239 . S
C230 O215 1.263 . S
C230 C224 1.504 . S
C231 O216 1.236 . S
C231 O217 1.257 . S
H232 C205 0.932 . S
H233 C206 0.930 . S
H234 C207 0.932 . S
H235 C208 0.929 . S
H236 C226 0.932 . S
H237 C227 0.930 . S
H238 C228 0.932 . S
H239 C229 0.929 . S
Tb240 C249 2.764 1_556 S
Tb240 O250 2.325 1_556 S
Tb240 O253 2.303 . S
Tb240 O257 2.322 . S
Tb240 O258 2.349 . S
Tb240 O261 2.415 1_556 S
Tb240 O262 2.399 1_556 S
Tb241 O251 2.322 . S
Tb241 O252 2.349 . S
Tb241 O254 2.415 1_554 S
Tb241 O255 2.399 1_554 S
Tb241 O256 2.325 1_554 S
Tb241 O259 2.303 . S
Tb241 C270 2.764 1_554 S
C242 O258 1.261 . S
C242 O259 1.257 1_556 S
C243 C246 1.358 . S
C243 C247 1.332 . S
C243 C249 1.504 . S
C244 C245 1.373 . S
C244 C248 1.308 . S
C245 C244 1.373 . S
C245 C246 1.429 . S
C245 H272 0.932 . S
C246 C243 1.358 . S
C246 C245 1.429 . S
C246 H273 0.930 . S
C247 C243 1.332 . S
C247 C248 1.394 . S
C247 H274 0.932 . S
C248 C244 1.308 . S
C248 C247 1.394 . S
C248 H275 0.929 . S
C249 Tb240 2.764 1_554 S
C249 C243 1.504 . S
C249 O261 1.239 . S
C249 O262 1.263 . S
O250 Tb240 2.325 1_554 S
O250 C260 1.236 . S
O251 Tb241 2.322 . S
O251 C260 1.257 . S
O252 Tb241 2.349 . S
O252 C263 1.261 . S
O253 Tb240 2.303 . S
O253 C263 1.257 1_556 S
O254 Tb241 2.415 1_556 S
O254 C270 1.239 . S
O255 Tb241 2.399 1_556 S
O255 C270 1.263 . S
O256 Tb241 2.325 1_556 S
O256 C271 1.236 . S
O257 Tb240 2.322 . S
O257 C271 1.257 . S
O258 Tb240 2.349 . S
O258 C242 1.261 . S
O259 Tb241 2.303 . S
O259 C242 1.257 1_554 S
C260 O250 1.236 . S
C260 O251 1.257 . S
O261 Tb240 2.415 1_554 S
O261 C249 1.239 . S
O262 Tb240 2.399 1_554 S
O262 C249 1.263 . S
C263 O252 1.261 . S
C263 O253 1.257 1_554 S
C264 C267 1.358 . S
C264 C268 1.332 . S
C264 C270 1.504 . S
C265 C266 1.373 . S
C265 C269 1.308 . S
C266 C265 1.373 . S
C266 C267 1.429 . S
C266 H276 0.932 . S
C267 C264 1.358 . S
C267 C266 1.429 . S
C267 H277 0.930 . S
C268 C264 1.332 . S
C268 C269 1.394 . S
C268 H278 0.932 . S
C269 C265 1.308 . S
C269 C268 1.394 . S
C269 H279 0.929 . S
C270 Tb241 2.764 1_556 S
C270 O254 1.239 . S
C270 O255 1.263 . S
C270 C264 1.504 . S
C271 O256 1.236 . S
C271 O257 1.257 . S
H272 C245 0.932 . S
H273 C246 0.930 . S
H274 C247 0.932 . S
H275 C248 0.929 . S
H276 C266 0.932 . S
H277 C267 0.930 . S
H278 C268 0.932 . S
H279 C269 0.929 . S
Tb280 C289 2.764 1_556 S
Tb280 O290 2.325 1_556 S
Tb280 O293 2.303 . S
Tb280 O297 2.322 . S
Tb280 O298 2.349 . S
Tb280 O301 2.415 1_556 S
Tb280 O302 2.399 1_556 S
Tb281 O291 2.322 . S
Tb281 O292 2.349 . S
Tb281 O294 2.415 1_554 S
Tb281 O295 2.399 1_554 S
Tb281 O296 2.325 1_554 S
Tb281 O299 2.303 . S
Tb281 C310 2.764 1_554 S
C282 O298 1.261 . S
C282 O299 1.257 1_556 S
C283 C286 1.358 . S
C283 C287 1.332 . S
C283 C289 1.504 . S
C284 C285 1.373 . S
C284 C288 1.308 . S
C285 C284 1.373 . S
C285 C286 1.429 . S
C285 H312 0.932 . S
C286 C283 1.358 . S
C286 C285 1.429 . S
C286 H313 0.930 . S
C287 C283 1.332 . S
C287 C288 1.394 . S
C287 H314 0.932 . S
C288 C284 1.308 . S
C288 C287 1.394 . S
C288 H315 0.929 . S
C289 Tb280 2.764 1_554 S
C289 C283 1.504 . S
C289 O301 1.239 . S
C289 O302 1.263 . S
O290 Tb280 2.325 1_554 S
O290 C300 1.236 . S
O291 Tb281 2.322 . S
O291 C300 1.257 . S
O292 Tb281 2.349 . S
O292 C303 1.261 . S
O293 Tb280 2.303 . S
O293 C303 1.257 1_556 S
O294 Tb281 2.415 1_556 S
O294 C310 1.239 . S
O295 Tb281 2.399 1_556 S
O295 C310 1.263 . S
O296 Tb281 2.325 1_556 S
O296 C311 1.236 . S
O297 Tb280 2.322 . S
O297 C311 1.257 . S
O298 Tb280 2.349 . S
O298 C282 1.261 . S
O299 Tb281 2.303 . S
O299 C282 1.257 1_554 S
C300 O290 1.236 . S
C300 O291 1.257 . S
O301 Tb280 2.415 1_554 S
O301 C289 1.239 . S
O302 Tb280 2.399 1_554 S
O302 C289 1.263 . S
C303 O292 1.261 . S
C303 O293 1.257 1_554 S
C304 C307 1.358 . S
C304 C308 1.332 . S
C304 C310 1.504 . S
C305 C306 1.373 . S
C305 C309 1.308 . S
C306 C305 1.373 . S
C306 C307 1.429 . S
C306 H316 0.932 . S
C307 C304 1.358 . S
C307 C306 1.429 . S
C307 H317 0.930 . S
C308 C304 1.332 . S
C308 C309 1.394 . S
C308 H318 0.932 . S
C309 C305 1.308 . S
C309 C308 1.394 . S
C309 H319 0.929 . S
C310 Tb281 2.764 1_556 S
C310 O294 1.239 . S
C310 O295 1.263 . S
C310 C304 1.504 . S
C311 O296 1.236 . S
C311 O297 1.257 . S
H312 C285 0.932 . S
H313 C286 0.930 . S
H314 C287 0.932 . S
H315 C288 0.929 . S
H316 C306 0.932 . S
H317 C307 0.930 . S
H318 C308 0.932 . S
H319 C309 0.929 . S
C320 C321 1.170 . S
C320 C322 1.380 . S
C321 C320 1.170 . S
C322 C320 1.380 . S
C322 C323 1.170 . S
C323 C322 1.170 . S
C324 C325 1.170 . S
C324 C326 1.380 . S
C325 C324 1.170 . S
C326 C324 1.380 . S
C326 C327 1.170 . S
C327 C326 1.170 . S
C328 C329 1.170 . S
C328 C330 1.380 . S
C329 C328 1.170 . S
C330 C328 1.380 . S
C330 C331 1.170 . S
C331 C330 1.170 . S
C332 C333 1.170 . S
C332 C334 1.380 . S
C333 C332 1.170 . S
C334 C332 1.380 . S
C334 C335 1.170 . S
C335 C334 1.170 . S
C336 C337 1.170 . S
C336 C338 1.380 1_565 S
C337 C336 1.170 . S
C338 C336 1.380 1_545 S
C338 C339 1.170 . S
C339 C338 1.170 . S
C340 C341 1.170 . S
C340 C342 1.380 . S
C341 C340 1.170 . S
C342 C340 1.380 . S
C342 C343 1.170 . S
C343 C342 1.170 . S
C344 C345 1.170 . S
C344 C346 1.380 1_565 S
C345 C344 1.170 . S
C346 C344 1.380 1_545 S
C346 C347 1.170 . S
C347 C346 1.170 . S
C348 C349 1.170 . S
C348 C350 1.380 . S
C349 C348 1.170 . S
C350 C348 1.380 . S
C350 C351 1.170 . S
C351 C350 1.170 . S
C352 C353 1.170 . S
C352 C354 1.380 . S
C353 C352 1.170 . S
C354 C352 1.380 . S
C354 C355 1.170 . S
C355 C354 1.170 . S
C356 C357 1.170 . S
C356 C358 1.380 1_565 S
C357 C356 1.170 . S
C358 C356 1.380 1_545 S
C358 C359 1.170 . S
C359 C358 1.170 . S
C360 C361 1.170 . S
C360 C362 1.380 . S
C361 C360 1.170 . S
C362 C360 1.380 . S
C362 C363 1.170 . S
C363 C362 1.170 . S
C364 C365 1.170 . S
C364 C366 1.380 1_545 S
C365 C364 1.170 . S
C366 C364 1.380 1_565 S
C366 C367 1.170 . S
C367 C366 1.170 . S
C368 C369 1.170 1_556 S
C368 C370 1.380 . S
C369 C368 1.170 1_554 S
C370 C368 1.380 . S
C370 C371 1.170 . S
C371 C370 1.170 . S
C372 C373 1.170 1_556 S
C372 C374 1.380 . S
C373 C372 1.170 1_554 S
C374 C372 1.380 . S
C374 C375 1.170 . S
C375 C374 1.170 . S
C376 C377 1.170 . S
C376 C378 1.380 . S
C377 C376 1.170 . S
C378 C376 1.380 . S
C378 C379 1.170 1_554 S
C379 C378 1.170 1_556 S
C380 C381 1.170 1_554 S
C380 C382 1.380 . S
C381 C380 1.170 1_556 S
C382 C380 1.380 . S
C382 C383 1.170 . S
C383 C382 1.170 . S
C384 C385 1.170 . S
C384 C386 1.380 . S
C385 C384 1.170 . S
C386 C384 1.380 . S
C386 C387 1.170 . S
C387 C386 1.170 . S
C388 C389 1.170 . S
C388 C390 1.380 . S
C389 C388 1.170 . S
C390 C388 1.380 . S
C390 C391 1.170 . S
C391 C390 1.170 . S
C392 C393 1.170 . S
C392 C394 1.380 . S
C393 C392 1.170 . S
C394 C392 1.380 . S
C394 C395 1.170 . S
C395 C394 1.170 . S
C396 C397 1.170 . S
C396 C398 1.380 . S
C397 C396 1.170 . S
C398 C396 1.380 . S
C398 C399 1.170 . S
C399 C398 1.170 . S
C400 C401 1.170 . S
C400 C402 1.380 1_455 S
C401 C400 1.170 . S
C402 C400 1.380 1_655 S
C402 C403 1.170 . S
C403 C402 1.170 . S
C404 C405 1.170 . S
C404 C406 1.380 1_655 S
C405 C404 1.170 . S
C406 C404 1.380 1_455 S
C406 C407 1.170 . S
C407 C406 1.170 . S
C408 C409 1.170 . S
C408 C410 1.380 . S
C409 C408 1.170 . S
C410 C408 1.380 . S
C410 C411 1.170 . S
C411 C410 1.170 . S
C412 C413 1.170 . S
C412 C414 1.380 . S
C413 C412 1.170 . S
C414 C412 1.380 . S
C414 C415 1.170 . S
C415 C414 1.170 . S
C321 C4 1.609 . S
C323 C305 1.607 . S
C325 C265 1.611 . S
C327 C44 1.610 . S
C329 C204 1.611 . S
C331 C105 1.605 . S
C333 C164 1.605 . S
C335 C145 1.612 . S
C337 C103 1.527 . S
C339 C23 1.578 . S
C341 C63 1.579 . S
C343 C143 1.528 . S
C345 C122 1.580 . S
C347 C42 1.535 . S
C349 C82 1.548 . S
C351 C2 1.562 . S
C353 C183 1.445 . S
C355 C263 1.476 . S
C357 C223 1.470 . S
C359 C303 1.455 . S
C361 C282 1.473 . S
C363 C202 1.446 . S
C365 C242 1.468 . S
C367 C162 1.445 . S
C369 C31 1.930 . S
C371 C20 1.904 . S
C373 C71 1.931 . S
C375 C60 1.905 . S
C377 C111 1.906 . S
C379 C100 1.931 . S
C381 C140 1.930 . S
C383 C151 1.911 . S
C385 C180 1.929 . S
C387 C191 1.911 . S
C389 C231 1.907 . S
C391 C220 1.920 . S
C393 C260 1.917 . S
C395 C271 1.909 . S
C397 C300 1.903 . S
C399 C311 1.928 . S
C401 C25 2.071 . S
C403 C65 2.069 . S
C405 C124 2.071 . S
C407 C84 2.065 . S
C409 C185 2.074 . S
C411 C225 2.073 . S
C413 C284 2.060 . S
C415 C244 2.058 . S
