# Generated by pormake.
# Topology wlk, (5)-cn, num edge types: 1
# Building blocks:
#     Node 0, Type 0, BuildingBlock: XOMCOT_clean_sbu_1, # of connection points: 5
#     Node 1, Type 0, BuildingBlock: XOMCOT_clean_sbu_1, # of connection points: 5
#     Node 2, Type 0, BuildingBlock: XOMCOT_clean_sbu_1, # of connection points: 5
#     Node 3, Type 0, BuildingBlock: XOMCOT_clean_sbu_1, # of connection points: 5
#     Node 4, Type 0, BuildingBlock: XOMCOT_clean_sbu_1, # of connection points: 5
#     Node 5, Type 0, BuildingBlock: XOMCOT_clean_sbu_1, # of connection points: 5
#     Node 6, Type 0, BuildingBlock: XOMCOT_clean_sbu_1, # of connection points: 5
#     Node 7, Type 0, BuildingBlock: XOMCOT_clean_sbu_1, # of connection points: 5
#     Node 8, Type 0, BuildingBlock: XOMCOT_clean_sbu_1, # of connection points: 5
#     Node 9, Type 0, BuildingBlock: XOMCOT_clean_sbu_1, # of connection points: 5
#     Node 10, Type 0, BuildingBlock: XOMCOT_clean_sbu_1, # of connection points: 5
#     Node 11, Type 0, BuildingBlock: XOMCOT_clean_sbu_1, # of connection points: 5
#     Node 12, Type 0, BuildingBlock: XOMCOT_clean_sbu_1, # of connection points: 5
#     Node 13, Type 0, BuildingBlock: XOMCOT_clean_sbu_1, # of connection points: 5
#     Node 14, Type 0, BuildingBlock: XOMCOT_clean_sbu_1, # of connection points: 5
#     Node 15, Type 0, BuildingBlock: XOMCOT_clean_sbu_1, # of connection points: 5
#     Node 16, Type 0, BuildingBlock: XOMCOT_clean_sbu_1, # of connection points: 5
#     Node 17, Type 0, BuildingBlock: XOMCOT_clean_sbu_1, # of connection points: 5
#     Edge 18, Type (0, 0), BuildingBlock: EZIPEK_clean_linker_0, # of connection points: 2
#     Edge 19, Type (0, 0), BuildingBlock: EZIPEK_clean_linker_0, # of connection points: 2
#     Edge 20, Type (0, 0), BuildingBlock: EZIPEK_clean_linker_0, # of connection points: 2
#     Edge 21, Type (0, 0), BuildingBlock: EZIPEK_clean_linker_0, # of connection points: 2
#     Edge 22, Type (0, 0), BuildingBlock: EZIPEK_clean_linker_0, # of connection points: 2
#     Edge 23, Type (0, 0), BuildingBlock: EZIPEK_clean_linker_0, # of connection points: 2
#     Edge 24, Type (0, 0), BuildingBlock: EZIPEK_clean_linker_0, # of connection points: 2
#     Edge 25, Type (0, 0), BuildingBlock: EZIPEK_clean_linker_0, # of connection points: 2
#     Edge 26, Type (0, 0), BuildingBlock: EZIPEK_clean_linker_0, # of connection points: 2
#     Edge 27, Type (0, 0), BuildingBlock: EZIPEK_clean_linker_0, # of connection points: 2
#     Edge 28, Type (0, 0), BuildingBlock: EZIPEK_clean_linker_0, # of connection points: 2
#     Edge 29, Type (0, 0), BuildingBlock: EZIPEK_clean_linker_0, # of connection points: 2
#     Edge 30, Type (0, 0), BuildingBlock: EZIPEK_clean_linker_0, # of connection points: 2
#     Edge 31, Type (0, 0), BuildingBlock: EZIPEK_clean_linker_0, # of connection points: 2
#     Edge 32, Type (0, 0), BuildingBlock: EZIPEK_clean_linker_0, # of connection points: 2
#     Edge 33, Type (0, 0), BuildingBlock: EZIPEK_clean_linker_0, # of connection points: 2
#     Edge 34, Type (0, 0), BuildingBlock: EZIPEK_clean_linker_0, # of connection points: 2
#     Edge 35, Type (0, 0), BuildingBlock: EZIPEK_clean_linker_0, # of connection points: 2
#     Edge 36, Type (0, 0), BuildingBlock: EZIPEK_clean_linker_0, # of connection points: 2
#     Edge 37, Type (0, 0), BuildingBlock: EZIPEK_clean_linker_0, # of connection points: 2
#     Edge 38, Type (0, 0), BuildingBlock: EZIPEK_clean_linker_0, # of connection points: 2
#     Edge 39, Type (0, 0), BuildingBlock: EZIPEK_clean_linker_0, # of connection points: 2
#     Edge 40, Type (0, 0), BuildingBlock: EZIPEK_clean_linker_0, # of connection points: 2
#     Edge 41, Type (0, 0), BuildingBlock: EZIPEK_clean_linker_0, # of connection points: 2
#     Edge 42, Type (0, 0), BuildingBlock: EZIPEK_clean_linker_0, # of connection points: 2
#     Edge 43, Type (0, 0), BuildingBlock: EZIPEK_clean_linker_0, # of connection points: 2
#     Edge 44, Type (0, 0), BuildingBlock: EZIPEK_clean_linker_0, # of connection points: 2
#     Edge 45, Type (0, 0), BuildingBlock: EZIPEK_clean_linker_0, # of connection points: 2
#     Edge 46, Type (0, 0), BuildingBlock: EZIPEK_clean_linker_0, # of connection points: 2
#     Edge 47, Type (0, 0), BuildingBlock: EZIPEK_clean_linker_0, # of connection points: 2
#     Edge 48, Type (0, 0), BuildingBlock: EZIPEK_clean_linker_0, # of connection points: 2
#     Edge 49, Type (0, 0), BuildingBlock: EZIPEK_clean_linker_0, # of connection points: 2
#     Edge 50, Type (0, 0), BuildingBlock: EZIPEK_clean_linker_0, # of connection points: 2
#     Edge 51, Type (0, 0), BuildingBlock: EZIPEK_clean_linker_0, # of connection points: 2
#     Edge 52, Type (0, 0), BuildingBlock: EZIPEK_clean_linker_0, # of connection points: 2
#     Edge 53, Type (0, 0), BuildingBlock: EZIPEK_clean_linker_0, # of connection points: 2
#     Edge 54, Type (0, 0), BuildingBlock: EZIPEK_clean_linker_0, # of connection points: 2
#     Edge 55, Type (0, 0), BuildingBlock: EZIPEK_clean_linker_0, # of connection points: 2
#     Edge 56, Type (0, 0), BuildingBlock: EZIPEK_clean_linker_0, # of connection points: 2
#     Edge 57, Type (0, 0), BuildingBlock: EZIPEK_clean_linker_0, # of connection points: 2
#     Edge 58, Type (0, 0), BuildingBlock: EZIPEK_clean_linker_0, # of connection points: 2
#     Edge 59, Type (0, 0), BuildingBlock: EZIPEK_clean_linker_0, # of connection points: 2
#     Edge 60, Type (0, 0), BuildingBlock: EZIPEK_clean_linker_0, # of connection points: 2
#     Edge 61, Type (0, 0), BuildingBlock: EZIPEK_clean_linker_0, # of connection points: 2
#     Edge 62, Type (0, 0), BuildingBlock: EZIPEK_clean_linker_0, # of connection points: 2
# Relax obj value: 0.165
# Max RMSD: 0.220
# Mean RMSD: 0.220
data_MOF--net-wlk--node1-XOMCOT_clean_sbu_1--edge1-EZIPEK_clean_linker_0
_symmetry_space_group_name_H-M    P1
_symmetry_Int_Tables_number       1
_symmetry_cell_setting            triclinic
loop_
_symmetry_equiv_pos_as_xyz
'x, y, z'
_cell_length_a     48.654442
_cell_length_b     48.871809
_cell_length_c     21.384657
_cell_angle_alpha  90.487467
_cell_angle_beta   90.006502
_cell_angle_gamma 120.67292
loop_
_atom_site_label
_atom_site_type_symbol
_atom_site_fract_x
_atom_site_fract_y
_atom_site_fract_z
_atom_type_partial_charge
C0 C 0.19069 0.25013 0.97338 0.0
C1 C 0.19458 0.22773 0.94141 0.0
N2 N 0.21527 0.2229 0.97387 0.0
N3 N 0.20929 0.26003 0.02543 0.0
C4 C 0.22358 0.2423 0.02442 0.0
H5 H 0.17559 0.25916 0.95859 0.0
Co6 Co 0.21001 0.29117 0.0823 0.0
C7 C 0.26007 0.2839 0.14994 0.0
O8 O 0.27865 0.29416 0.10072 0.0
N9 N 0.2091 0.321 0.13837 0.0
C10 C 0.2091 0.3637 0.17607 0.0
C11 C 0.2114 0.34882 0.12283 0.0
C12 C 0.20481 0.31922 0.20127 0.0
N13 N 0.20458 0.34485 0.22525 0.0
O14 O 0.16796 0.25908 0.11112 0.0
H15 H 0.21465 0.35775 0.07566 0.0
H16 H 0.20165 0.29941 0.22902 0.0
O17 O 0.23214 0.28058 0.14835 0.0
C18 C 0.14725 0.2625 0.08072 0.0
O19 O 0.15747 0.28619 0.04135 0.0
N20 N 0.24935 0.32422 0.04794 0.0
C21 C 0.30216 0.37416 0.98819 0.0
C22 C 0.3009 0.37256 0.05356 0.0
C23 C 0.27393 0.34768 0.08256 0.0
C24 C 0.2499 0.32668 0.9843 0.0
C25 C 0.27622 0.35101 0.95358 0.0
H26 H 0.27273 0.3474 0.13281 0.0
H27 H 0.2295 0.3104 0.95655 0.0
H28 H 0.23976 0.243 0.05924 0.0
H29 H 0.18349 0.21624 0.89746 0.0
H30 H 0.21028 0.3864 0.17854 0.0
H31 H 0.32035 0.39052 0.08176 0.0
H32 H 0.27609 0.35205 0.90299 0.0
C33 C 0.81489 0.95282 0.99015 0.0
C34 C 0.8379 0.98024 0.96163 0.0
N35 N 0.83343 1.00418 0.97898 0.0
N36 N 0.79639 0.95948 0.02683 0.0
C37 C 0.80774 0.99087 0.01717 0.0
H38 H 0.8125 0.92969 0.98548 0.0
Co39 Co 0.7639 0.93144 0.08278 0.0
C40 C 0.77215 0.97232 0.19781 0.0
O41 O 0.74326 0.95225 0.21701 0.0
N42 N 0.731 0.90241 0.13813 0.0
C43 C 0.68269 0.86728 0.17496 0.0
C44 C 0.69939 0.8856 0.12459 0.0
C45 C 0.73285 0.89265 0.19667 0.0
N46 N 0.70371 0.87185 0.22041 0.0
O47 O 0.79152 0.91635 0.11272 0.0
H48 H 0.68883 0.88652 0.08078 0.0
H49 H 0.75505 0.90138 0.22217 0.0
O50 O 0.7818 0.96687 0.14596 0.0
C51 C 0.78498 0.89026 0.08557 0.0
O52 O 0.76115 0.8775 0.04532 0.0
N53 N 0.73587 0.94337 0.04789 0.0
C54 C 0.68758 0.94727 0.98504 0.0
C55 C 0.69717 0.96007 0.04551 0.0
C56 C 0.72178 0.95837 0.07583 0.0
C57 C 0.72708 0.93126 0.98876 0.0
C58 C 0.70327 0.93323 0.95626 0.0
H59 H 0.72845 0.9683 0.12201 0.0
H60 H 0.73802 0.91903 0.96737 0.0
H61 H 0.79758 1.00385 0.03826 0.0
H62 H 0.85707 0.98266 0.93208 0.0
H63 H 0.65703 0.8519 0.17825 0.0
H64 H 0.68562 0.97122 0.06908 0.0
H65 H 0.69659 0.92317 0.90955 0.0
C66 C 0.10438 0.85088 0.93915 0.0
C67 C 0.07573 0.84388 0.912 0.0
N68 N 0.05525 0.84053 0.95778 0.0
N69 N 0.10192 0.85146 1.00194 0.0
C70 C 0.072 0.8461 1.01165 0.0
H71 H 0.12517 0.85375 0.91485 0.0
Co72 Co 0.13363 0.85671 0.06055 0.0
C73 C 0.09448 0.80468 0.15039 0.0
O74 O 0.11514 0.79508 0.14446 0.0
N75 N 0.16638 0.86434 0.11998 0.0
C76 C 0.21498 0.8834 0.16225 0.0
C77 C 0.19812 0.87991 0.10812 0.0
C78 C 0.1651 0.8615 0.18321 0.0
N79 N 0.19409 0.87173 0.20957 0.0
O80 O 0.1365 0.89528 0.08968 0.0
H81 H 0.20868 0.88939 0.06314 0.0
H82 H 0.14378 0.85418 0.21005 0.0
O83 O 0.09935 0.82986 0.1219 0.0
C84 C 0.15683 0.91754 0.05489 0.0
O85 O 0.16901 0.90996 1.00766 0.0
N86 N 0.13299 0.81969 0.02604 0.0
C87 C 0.13258 0.76658 0.9736 0.0
C88 C 0.104 0.76628 0.98392 0.0
C89 C 0.10475 0.79291 1.01022 0.0
C90 C 0.16101 0.82098 1.0114 0.0
C91 C 0.16138 0.79441 0.98776 0.0
H92 H 0.08247 0.79189 0.01756 0.0
H93 H 0.18349 0.8426 0.0163 0.0
H94 H 0.06208 0.84487 0.05752 0.0
H95 H 0.06972 0.83959 0.86276 0.0
H96 H 0.24066 0.89471 0.16701 0.0
H97 H 0.08118 0.74536 0.97266 0.0
H98 H 0.18402 0.79582 0.97943 0.0
C99 C 0.87718 0.79662 0.05819 0.0
C100 C 0.87094 0.81804 0.08784 0.0
N101 N 0.84511 0.81615 0.06059 0.0
N102 N 0.85554 0.78141 1.01205 0.0
C103 C 0.83592 0.79349 0.01562 0.0
H104 H 0.89661 0.79276 0.06924 0.0
Co105 Co 0.85488 0.75107 0.95596 0.0
C106 C 0.80973 0.74368 0.85296 0.0
O107 O 0.79815 0.7129 0.85587 0.0
N108 N 0.85467 0.72068 0.89819 0.0
C109 C 0.84077 0.67667 0.84245 0.0
C110 C 0.83718 0.6885 0.89849 0.0
C111 C 0.86965 0.72747 0.84189 0.0
N112 N 0.86111 0.70118 0.80653 0.0
O113 O 0.89724 0.78291 0.92573 0.0
H114 H 0.82129 0.67416 0.93519 0.0
H115 H 0.88607 0.7514 0.82633 0.0
O116 O 0.832 0.76198 0.89167 0.0
C117 C 0.918 0.77865 0.95418 0.0
O118 O 0.90763 0.75532 0.99447 0.0
N119 N 0.81675 0.71966 0.99391 0.0
C120 C 0.76916 0.66776 0.05901 0.0
C121 C 0.76113 0.68457 0.017 0.0
C122 C 0.7855 0.71145 0.98676 0.0
C123 C 0.82484 0.70518 0.03845 0.0
C124 C 0.80151 0.67926 0.0715 0.0
H125 H 0.77896 0.72507 0.9574 0.0
H126 H 0.84975 0.71305 0.04637 0.0
H127 H 0.81515 0.78574 0.9863 0.0
H128 H 0.88459 0.83417 0.12567 0.0
H129 H 0.82906 0.65183 0.82872 0.0
H130 H 0.73635 0.67696 1.00768 0.0
H131 H 0.80866 0.66737 0.1046 0.0
C132 C 0.27064 0.1021 0.05484 0.0
C133 C 0.24589 0.0761 0.08394 0.0
N134 N 0.23798 0.0502 0.0486 0.0
N135 N 0.27809 0.09267 1.00109 0.0
C136 C 0.2576 0.06081 0.99875 0.0
H137 H 0.28178 0.12651 0.0709 0.0
Co138 Co 0.30765 0.12006 0.94138 0.0
C139 C 0.30229 0.07559 0.83358 0.0
O140 O 0.3291 0.09651 0.80723 0.0
N141 N 0.33712 0.14844 0.88212 0.0
C142 C 0.38226 0.18511 0.83702 0.0
C143 C 0.36861 0.16925 0.89167 0.0
C144 C 0.33198 0.15323 0.82193 0.0
N145 N 0.3592 0.17464 0.7932 0.0
O146 O 0.27565 0.12923 0.91129 0.0
H147 H 0.38116 0.17246 0.93528 0.0
H148 H 0.30899 0.14009 0.79866 0.0
O149 O 0.29267 0.08278 0.8835 0.0
C150 C 0.27979 0.15447 0.93866 0.0
O151 O 0.3047 0.17019 0.97569 0.0
N152 N 0.3398 0.11394 0.97724 0.0
C153 C 0.39117 0.11621 0.04102 0.0
C154 C 0.38062 0.10003 0.98371 0.0
C155 C 0.3552 0.09961 0.95201 0.0
C156 C 0.34977 0.12953 0.03333 0.0
C157 C 0.37538 0.13103 0.0659 0.0
H158 H 0.34899 0.08853 0.90681 0.0
H159 H 0.33849 0.14201 0.05188 0.0
H160 H 0.25604 0.0455 0.96051 0.0
H161 H 0.23425 0.07621 0.127 0.0
H162 H 0.40726 0.20231 0.82944 0.0
H163 H 0.39258 0.08866 0.96278 0.0
H164 H 0.38317 0.14413 0.10971 0.0
C165 C 0.96382 0.19815 0.07107 0.0
C166 C 0.98984 0.20064 0.10196 0.0
N167 N 1.01213 0.20554 0.05928 0.0
N168 N 0.96965 0.20206 1.00898 0.0
C169 C 0.99876 0.20483 1.00343 0.0
H170 H 0.94215 0.19409 0.09324 0.0
Co171 Co 0.94077 0.20164 0.94795 0.0
C172 C 1.00486 0.24816 0.88757 0.0
O173 O 1.01679 0.2618 0.94196 0.0
N174 N 0.91116 0.19985 0.88913 0.0
C175 C 0.86762 0.19728 0.84899 0.0
C176 C 0.88396 0.19958 0.90322 0.0
C177 C 0.91051 0.197 0.82596 0.0
N178 N 0.88433 0.19558 0.80063 0.0
O179 O 0.93162 0.15982 0.92057 0.0
H180 H 0.8762 0.20061 0.95006 0.0
H181 H 0.9287 0.19581 0.79899 0.0
O182 O 0.97603 0.22435 0.88426 0.0
C183 C 0.90818 0.13919 0.95327 0.0
O184 O 0.89579 0.14935 0.9955 0.0
N185 N 0.94569 0.24034 0.98093 0.0
C186 C 0.94644 0.29072 0.04624 0.0
C187 C 0.96402 0.2962 0.99109 0.0
C188 C 0.96224 0.27053 0.95777 0.0
C189 C 0.92678 0.23453 0.0321 0.0
C190 C 0.9265 0.2592 0.065 0.0
H191 H 0.97407 0.27541 0.9136 0.0
H192 H 0.91127 0.21033 0.04705 0.0
H193 H 1.01042 0.20696 0.95955 0.0
H194 H 0.99294 0.20071 0.15211 0.0
H195 H 0.84507 0.19656 0.84523 0.0
H196 H 0.9788 0.32012 0.9736 0.0
H197 H 0.91154 0.25378 0.10594 0.0
C198 C 0.89328 0.60402 0.28221 0.0
C199 C 0.89692 0.58033 0.25498 0.0
N200 N 0.90175 0.56445 0.30072 0.0
N201 N 0.89624 0.60338 0.34484 0.0
C202 C 0.90064 0.57849 0.35465 0.0
H203 H 0.89049 0.62174 0.25774 0.0
Co204 Co 0.89838 0.63382 0.40279 0.0
C205 C 0.94938 0.64376 0.49028 0.0
O206 O 0.96247 0.67434 0.48017 0.0
N207 N 0.90018 0.66406 0.46472 0.0
C208 C 0.91521 0.70654 0.52677 0.0
C209 C 0.91915 0.69614 0.46949 0.0
C210 C 0.88461 0.65603 0.5206 0.0
N211 N 0.89353 0.68133 0.55921 0.0
O212 O 0.85778 0.60203 0.43545 0.0
H213 H 0.93669 0.71155 0.43617 0.0
H214 H 0.86726 0.63191 0.53349 0.0
O215 O 0.9233 0.62374 0.46214 0.0
C216 C 0.8375 0.60566 0.40396 0.0
O217 O 0.8482 0.62837 0.36224 0.0
N218 N 0.93532 0.66512 0.36152 0.0
C219 C 0.98477 0.71184 0.2907 0.0
C220 C 0.98752 0.6871 0.31651 0.0
C221 C 0.96216 0.66353 0.35068 0.0
C222 C 0.93103 0.687 0.33067 0.0
C223 C 0.95592 0.71139 0.29701 0.0
H224 H 0.9641 0.64403 0.36806 0.0
H225 H 0.90845 0.68619 0.33432 0.0
H226 H 0.90435 0.57153 0.40026 0.0
H227 H 0.89794 0.57633 0.20539 0.0
H228 H 0.92765 0.73089 0.54378 0.0
H229 H 1.00902 0.686 0.31004 0.0
H230 H 0.95264 0.72956 0.27572 0.0
C231 C 0.47302 0.30245 0.29433 0.0
C232 C 0.49411 0.3322 0.27093 0.0
N233 N 0.49927 0.35398 0.31536 0.0
N234 N 0.4642 0.3054 0.35275 0.0
C235 C 0.48128 0.33723 0.36447 0.0
H236 H 0.46429 0.28007 0.26977 0.0
Co237 Co 0.43347 0.2718 0.40326 0.0
C238 C 0.43379 0.30894 0.52231 0.0
O239 O 0.40833 0.28629 0.54971 0.0
N240 N 0.40327 0.2382 0.45294 0.0
C241 C 0.35822 0.1959 0.48593 0.0
C242 C 0.37368 0.21496 0.43537 0.0
C243 C 0.40573 0.23184 0.51339 0.0
N244 N 0.3785 0.20687 0.53487 0.0
O245 O 0.46633 0.26314 0.43199 0.0
H246 H 0.36358 0.21257 0.38919 0.0
H247 H 0.42675 0.24605 0.54209 0.0
O248 O 0.44357 0.30388 0.4703 0.0
C249 C 0.46584 0.24078 0.3994 0.0
O250 O 0.4451 0.22817 0.35332 0.0
N251 N 0.40042 0.27762 0.37013 0.0
C252 C 0.34864 0.27737 0.31237 0.0
C253 C 0.35354 0.28231 0.37693 0.0
C254 C 0.37948 0.28221 0.40491 0.0
C255 C 0.3951 0.27161 0.30746 0.0
C256 C 0.36973 0.27191 0.27747 0.0
H257 H 0.38162 0.28455 0.45469 0.0
H258 H 0.40982 0.2653 0.28057 0.0
H259 H 0.48067 0.34838 0.40779 0.0
H260 H 0.5049 0.33747 0.22504 0.0
H261 H 0.3338 0.17626 0.48732 0.0
H262 H 0.33721 0.28584 0.40553 0.0
H263 H 0.36617 0.26722 0.22764 0.0
C264 C 0.74494 0.14814 0.29069 0.0
C265 C 0.71743 0.1458 0.2681 0.0
N266 N 0.71087 0.16518 0.30165 0.0
N267 N 0.756 0.16832 0.3403 0.0
C268 C 0.73536 0.17943 0.34391 0.0
H269 H 0.75512 0.13454 0.2729 0.0
Co270 Co 0.78961 0.17398 0.39678 0.0
C271 C 0.72915 0.13415 0.47145 0.0
O272 O 0.71102 0.12312 0.42137 0.0
N273 N 0.8225 0.17964 0.4531 0.0
C274 C 0.86733 0.18552 0.49497 0.0
C275 C 0.85083 0.18186 0.44019 0.0
C276 C 0.8227 0.18239 0.5164 0.0
N277 N 0.84953 0.18578 0.54264 0.0
O278 O 0.79837 0.21631 0.41986 0.0
H279 H 0.85976 0.18191 0.39404 0.0
H280 H 0.80364 0.18201 0.54313 0.0
O281 O 0.75907 0.15391 0.4661 0.0
C282 C 0.8205 0.23674 0.38455 0.0
O283 O 0.83075 0.22615 0.33886 0.0
N284 N 0.78526 0.13476 0.36931 0.0
C285 C 0.78948 0.08453 0.31529 0.0
C286 C 0.76463 0.0786 0.3565 0.0
C287 C 0.76333 0.10399 0.38411 0.0
C288 C 0.80859 0.14071 0.32692 0.0
C289 C 0.81204 0.11622 0.30167 0.0
H290 H 0.74438 0.09825 0.41626 0.0
H291 H 0.82485 0.1649 0.31272 0.0
H292 H 0.73738 0.19641 0.37907 0.0
H293 H 0.70261 0.13003 0.23079 0.0
H294 H 0.89066 0.188 0.49955 0.0
H295 H 0.74656 0.05443 0.36799 0.0
H296 H 0.83169 0.12198 0.27025 0.0
C297 C 0.52821 0.12124 0.39996 0.0
C298 C 0.52615 0.14492 0.43169 0.0
N299 N 0.51986 0.16151 0.38982 0.0
N300 N 0.52373 0.12323 0.33829 0.0
C301 C 0.5193 0.14837 0.33373 0.0
H302 H 0.53159 0.10305 0.42069 0.0
Co303 Co 0.51968 0.09488 0.27359 0.0
C304 C 0.49765 0.11947 0.17084 0.0
O305 O 0.52108 0.12162 0.13674 0.0
N306 N 0.51461 0.06644 0.2058 0.0
C307 C 0.48967 0.02816 0.13347 0.0
C308 C 0.48636 0.04065 0.18859 0.0
C309 C 0.53463 0.06928 0.15854 0.0
N310 N 0.51989 0.04636 0.11394 0.0
O311 O 0.56064 0.1282 0.24068 0.0
H312 H 0.46381 0.0324 0.2119 0.0
H313 H 0.55887 0.08885 0.1544 0.0
O314 O 0.49395 0.10783 0.22551 0.0
C315 C 0.58137 0.1246 0.27082 0.0
O316 O 0.57069 0.10002 0.30809 0.0
N317 N 0.48307 0.06212 0.31362 0.0
C318 C 0.43585 1.01375 0.38682 0.0
C319 C 0.43283 0.03948 0.36743 0.0
C320 C 0.45679 0.0635 0.33083 0.0
C321 C 0.48659 0.03753 0.33308 0.0
C322 C 0.46292 1.01271 0.36823 0.0
H323 H 0.45491 0.08381 0.31899 0.0
H324 H 0.50811 0.03731 0.32141 0.0
H325 H 0.51468 0.15648 0.29033 0.0
H326 H 0.52729 0.14849 0.48186 0.0
H327 H 0.47068 1.00866 0.10706 0.0
H328 H 0.41254 0.0414 0.38193 0.0
H329 H 0.46628 0.99343 0.38284 0.0
C330 C 0.94218 0.42126 0.41124 0.0
C331 C 0.91676 0.3941 0.43605 0.0
N332 N 0.90342 0.3722 0.39 0.0
N333 N 0.94526 0.41626 0.35012 0.0
C334 C 0.92083 0.38625 0.33855 0.0
H335 H 0.95809 0.44285 0.43681 0.0
Co336 Co 0.97763 0.44451 0.29534 0.0
C337 C 0.97612 0.40261 0.18938 0.0
O338 O 1.00685 0.42103 0.17973 0.0
N339 N 1.00973 0.47304 0.23936 0.0
C340 C 0.05641 0.50645 0.19477 0.0
C341 C 0.04178 0.48991 0.24807 0.0
C342 C 1.0056 0.48046 0.18034 0.0
N343 N 1.03365 0.50056 0.15227 0.0
O344 O 0.94885 0.45783 0.26392 0.0
H345 H 0.05424 0.49028 0.29003 0.0
H346 H 0.9825 0.47095 0.15793 0.0
O347 O 0.96252 0.40945 0.23289 0.0
C348 C 0.95357 0.48207 0.29628 0.0
O349 O 0.97544 0.49271 0.34053 0.0
N350 N 1.00725 0.43505 0.3339 0.0
C351 C 0.05926 0.43798 0.39652 0.0
C352 C 0.04378 0.41594 0.348 0.0
C353 C 1.01762 0.41468 0.31749 0.0
C354 C 1.02099 0.45514 0.38387 0.0
C355 C 0.04709 0.45715 0.41553 0.0
H356 H 1.00681 0.39781 0.28025 0.0
H357 H 1.01284 0.47124 0.39685 0.0
H358 H 0.91639 0.37405 0.29404 0.0
H359 H 0.90971 0.39013 0.48466 0.0
H360 H 0.08184 0.52188 0.18777 0.0
H361 H 0.05222 0.40027 0.33311 0.0
H362 H 0.05825 0.47419 0.45348 0.0
C363 C 0.65184 0.53063 0.38693 0.0
C364 C 0.67776 0.53222 0.41664 0.0
N365 N 0.70274 0.54591 0.37757 0.0
N366 N 0.66037 0.54327 0.32915 0.0
C367 C 0.69168 0.55229 0.32511 0.0
H368 H 0.62901 0.52281 0.40833 0.0
Co369 Co 0.63698 0.55248 0.26991 0.0
C370 C 0.67397 0.54563 0.16136 0.0
O371 O 0.66938 0.52284 0.12201 0.0
N372 N 0.61493 0.56187 0.20964 0.0
C373 C 0.6009 0.58944 0.14847 0.0
C374 C 0.61798 0.59063 0.20075 0.0
C375 C 0.59614 0.54363 0.16173 0.0
N376 N 0.58715 0.55986 0.12424 0.0
O377 O 0.60049 0.50822 0.27764 0.0
H378 H 0.63225 0.61139 0.22985 0.0
H379 H 0.58991 0.51925 0.15341 0.0
O380 O 0.65266 0.53767 0.20364 0.0
C381 C 0.57868 0.49096 0.31694 0.0
O382 O 0.575 0.50358 0.36831 0.0
N383 N 0.62301 0.56996 0.33389 0.0
C384 C 0.61349 0.61327 0.40328 0.0
C385 C 0.64289 0.6146 0.40471 0.0
C386 C 0.64735 0.59334 0.36863 0.0
C387 C 0.59342 0.5669 0.33512 0.0
C388 C 0.5882 0.58853 0.3693 0.0
H389 H 0.67126 0.59741 0.36468 0.0
H390 H 0.5745 0.54954 0.30521 0.0
H391 H 0.70678 0.56524 0.28613 0.0
H392 H 0.67882 0.52599 0.46467 0.0
H393 H 0.59922 0.60889 0.12887 0.0
H394 H 0.66315 0.63378 0.42924 0.0
H395 H 0.56537 0.58725 0.36585 0.0
C396 C 0.53368 0.91656 0.63628 0.0
C397 C 0.53642 0.89239 0.60907 0.0
N398 N 0.55525 0.88669 0.64583 0.0
N399 N 0.5513 0.92687 0.68949 0.0
C400 C 0.56366 0.90746 0.6943 0.0
H401 H 0.52014 0.92656 0.61738 0.0
Co402 Co 0.55297 0.96064 0.73967 0.0
C403 C 0.60134 0.9537 0.81447 0.0
O404 O 0.61955 0.96113 0.7648 0.0
N405 N 0.55301 0.99325 0.7887 0.0
C406 C 0.55599 0.03887 0.81546 0.0
C407 C 0.55747 1.02104 0.76671 0.0
C408 C 0.54809 0.99444 0.85092 0.0
N409 N 0.54954 1.02191 0.86831 0.0
O410 O 0.51007 0.93084 0.76937 0.0
H411 H 0.56172 0.02797 0.71815 0.0
H412 H 0.54297 0.97532 0.88275 0.0
O413 O 0.57392 0.95156 0.81105 0.0
C414 C 0.49 0.93438 0.7367 0.0
O415 O 0.50107 0.95645 0.69366 0.0
N416 N 0.59314 0.99151 0.70409 0.0
C417 C 0.64512 0.04256 0.64485 0.0
C418 C 0.64336 0.04124 0.71004 0.0
C419 C 0.61698 1.01574 0.73864 0.0
C420 C 0.59474 0.99283 0.64028 0.0
C421 C 0.62067 1.01788 0.60979 0.0
H422 H 0.61491 1.01637 0.78845 0.0
H423 H 0.5751 0.97553 0.61212 0.0
H424 H 0.57857 0.90802 0.73187 0.0
H425 H 0.52588 0.8803 0.56524 0.0
H426 H 0.55861 0.06218 0.8122 0.0
H427 H 0.66157 0.06037 0.73846 0.0
H428 H 0.62102 1.01863 0.55916 0.0
C429 C 0.15306 0.62656 0.65729 0.0
C430 C 0.17683 0.65332 0.62813 0.0
N431 N 0.177 0.67884 0.65241 0.0
N432 N 0.1383 0.63504 0.70014 0.0
C433 C 0.15364 0.66724 0.69581 0.0
H434 H 0.14776 0.60261 0.64901 0.0
Co435 Co 0.10613 0.60764 0.75719 0.0
C436 C 0.10659 0.65033 0.85584 0.0
O437 O 0.07544 0.63526 0.84853 0.0
N438 N 0.07445 0.58065 0.81761 0.0
C439 C 1.03097 0.55304 0.87646 0.0
C440 C 0.04237 0.56814 0.8203 0.0
C441 C 0.08152 0.57217 0.87302 0.0
N442 N 0.05564 0.55558 0.9095 0.0
O443 O 0.1335 0.59141 0.78282 0.0
H444 H 1.02779 0.57063 0.78555 0.0
H445 H 0.10541 0.5787 0.88727 0.0
O446 O 0.12301 0.64245 0.82095 0.0
C447 C 0.12094 0.56221 0.76497 0.0
O448 O 0.09103 0.54695 0.74599 0.0
N449 N 0.07834 0.61904 0.72144 0.0
C450 C 1.03444 0.6248 0.64789 0.0
C451 C 0.05778 0.65098 0.68234 0.0
C452 C 0.07969 0.64765 0.71898 0.0
C453 C 0.05731 0.5943 0.68444 0.0
C454 C 1.03423 0.59613 0.64957 0.0
H455 H 0.09771 0.66814 0.74434 0.0
H456 H 0.05797 0.57251 0.68359 0.0
H457 H 0.14854 0.68224 0.72477 0.0
H458 H 0.19314 0.65407 0.59283 0.0
H459 H 1.00638 0.54105 0.89197 0.0
H460 H 0.05907 0.67376 0.68069 0.0
H461 H 1.01689 0.5756 0.62276 0.0
C462 C 0.4388 0.51266 0.62459 0.0
C463 C 0.41325 0.51033 0.59155 0.0
N464 N 0.3899 0.50479 0.63241 0.0
N465 N 0.43187 0.50916 0.68615 0.0
C466 C 0.40271 0.50614 0.68933 0.0
H467 H 0.46057 0.51552 0.60483 0.0
Co468 Co 0.4569 0.50674 0.75117 0.0
C469 C 0.38883 0.45874 0.80615 0.0
O470 O 0.37149 0.44913 0.75496 0.0
N471 N 0.48151 0.50417 0.81761 0.0
C472 C 0.49389 0.48205 0.89524 0.0
C473 C 0.47422 0.47637 0.84486 0.0
C474 C 0.50602 0.52656 0.85287 0.0
N475 N 0.51385 0.51356 0.90024 0.0
O476 O 0.46252 0.54614 0.78583 0.0
H477 H 0.455 0.45326 0.83023 0.0
H478 H 0.51736 0.55183 0.84538 0.0
O479 O 0.41886 0.47947 0.80475 0.0
C480 C 0.48609 0.56847 0.75616 0.0
O481 O 0.50064 0.56053 0.71432 0.0
N482 N 0.45515 0.47102 0.71144 0.0
C483 C 0.45878 0.42288 0.64811 0.0
C484 C 0.42946 0.42129 0.65528 0.0
C485 C 0.42824 0.44588 0.68623 0.0
C486 C 0.48418 0.47366 0.70153 0.0
C487 C 0.48651 0.44956 0.67086 0.0
H488 H 0.40596 0.44522 0.68694 0.0
H489 H 0.50581 0.4947 0.71737 0.0
H490 H 0.3906 0.50436 0.73275 0.0
H491 H 0.41131 0.51087 0.5412 0.0
H492 H 0.4927 0.46456 0.92759 0.0
H493 H 0.40776 0.40149 0.63587 0.0
H494 H 0.50968 0.45189 0.66422 0.0
C495 C 0.22214 0.48524 0.68695 0.0
C496 C 0.21561 0.50607 0.71692 0.0
N497 N 0.1844 0.49075 0.73 0.0
N498 N 0.19543 0.45608 0.68186 0.0
C499 C 0.17272 0.46044 0.70943 0.0
H500 H 0.24446 0.49287 0.66375 0.0
Co501 Co 0.19104 0.42227 0.62777 0.0
C502 C 0.17188 0.45239 0.52511 0.0
O503 O 0.20065 0.46872 0.50138 0.0
N504 N 0.18736 0.39036 0.57232 0.0
C505 C 0.18244 0.34598 0.53128 0.0
C506 C 0.18143 0.36089 0.58575 0.0
C507 C 0.1923 0.39297 0.50975 0.0
N508 N 0.18944 0.36637 0.48378 0.0
O509 O 0.23325 0.45073 0.59343 0.0
H510 H 0.17692 0.35098 0.63222 0.0
H511 H 0.19849 0.41415 0.4836 0.0
O512 O 0.1675 0.43353 0.56978 0.0
C513 C 0.25348 0.44616 0.6232 0.0
O514 O 0.24273 0.42369 0.6654 0.0
N515 N 0.15183 0.39251 0.66558 0.0
C516 C 0.09912 0.34212 0.72494 0.0
C517 C 0.09785 0.34797 0.66115 0.0
C518 C 0.12444 0.3734 0.63234 0.0
C519 C 0.15347 0.38708 0.72754 0.0
C520 C 0.12726 0.36237 0.75833 0.0
H521 H 0.12354 0.37666 0.5826 0.0
H522 H 0.17561 0.4015 0.75292 0.0
H523 H 0.14757 0.4427 0.7096 0.0
H524 H 0.23163 0.53154 0.72124 0.0
H525 H 0.17874 0.32225 0.52689 0.0
H526 H 0.07676 0.33253 0.63355 0.0
H527 H 0.12931 0.35838 0.80742 0.0
C528 C 0.59443 0.75413 0.73592 0.0
C529 C 0.57022 0.7282 0.7665 0.0
N530 N 0.56487 0.70165 0.73627 0.0
N531 N 0.60394 0.74404 0.68594 0.0
C532 C 0.58557 0.71188 0.68798 0.0
H533 H 0.60382 0.77883 0.74838 0.0
Co534 Co 0.63405 0.77013 0.62511 0.0
C535 C 0.63558 0.72492 0.53457 0.0
O536 O 0.66653 0.74006 0.5448 0.0
N537 N 0.66389 0.79639 0.56058 0.0
C538 C 0.70593 0.82322 0.49734 0.0
C539 C 0.69592 0.80905 0.55463 0.0
C540 C 0.65537 0.80341 0.50485 0.0
N541 N 0.68045 0.81966 0.46599 0.0
O542 O 0.60359 0.78171 0.59495 0.0
H543 H 0.71155 0.80711 0.5875 0.0
H544 H 0.63108 0.79617 0.49203 0.0
O545 O 0.61845 0.73334 0.56565 0.0
C546 C 0.61079 0.80837 0.62078 0.0
O547 O 0.6364 0.82253 0.65651 0.0
N548 N 0.6646 0.76252 0.664 0.0
C549 C 0.71311 0.76016 0.7299 0.0
C550 C 0.68629 0.73214 0.70712 0.0
C551 C 0.6622 0.7338 0.67441 0.0
C552 C 0.68821 0.78912 0.6932 0.0
C553 C 0.71357 0.78888 0.72324 0.0
H554 H 0.642 0.71207 0.65679 0.0
H555 H 0.68837 0.81128 0.68971 0.0
H556 H 0.58692 0.69599 0.65458 0.0
H557 H 0.55715 0.72878 0.80696 0.0
H558 H 0.73011 0.83495 0.47957 0.0
H559 H 0.68448 0.70929 0.713 0.0
H560 H 0.73345 0.81102 0.74084 0.0
C561 C 0.30629 0.8733 0.74044 0.0
C562 C 0.33347 0.87678 0.76816 0.0
N563 N 0.3546 0.88153 0.72299 0.0
N564 N 0.31029 0.87669 0.67778 0.0
C565 C 0.33956 0.8801 0.66879 0.0
H566 H 0.28505 0.86848 0.76532 0.0
Co567 Co 0.28023 0.87441 0.61653 0.0
C568 C 0.3425 0.92604 0.56527 0.0
O569 O 0.34903 0.93895 0.62154 0.0
N570 N 0.25016 0.87086 0.55657 0.0
C571 C 0.20648 0.86762 0.5155 0.0
C572 C 0.22223 0.86916 0.57016 0.0
C573 C 0.25049 0.86948 0.49322 0.0
N574 N 0.22431 0.86785 0.46727 0.0
O575 O 0.27412 0.83392 0.58875 0.0
H576 H 0.214 0.86943 0.61699 0.0
H577 H 0.26965 0.87003 0.46651 0.0
O578 O 0.3161 0.8996 0.55595 0.0
C579 C 0.25169 0.81302 0.62292 0.0
O580 O 0.23909 0.82268 0.66572 0.0
N581 N 0.28176 0.91161 0.64935 0.0
C582 C 0.27825 0.96076 0.70987 0.0
C583 C 0.29177 0.96522 0.65019 0.0
C584 C 0.29194 0.93985 0.61954 0.0
C585 C 0.2656 0.9061 0.70432 0.0
C586 C 0.26368 0.93028 0.73556 0.0
H587 H 0.30036 0.94319 0.57212 0.0
H588 H 0.25317 0.88243 0.7233 0.0
H589 H 0.35001 0.88196 0.62335 0.0
H590 H 0.33791 0.87706 0.81784 0.0
H591 H 0.18391 0.86682 0.51132 0.0
H592 H 0.30188 0.98803 0.62736 0.0
H593 H 0.25146 0.92541 0.78002 0.0
C594 C 0.29466 0.30524 0.24412 0.0
C595 C 0.27358 0.2784 0.20758 0.0
C596 C 0.29578 0.24829 0.25533 0.0
C597 C 0.3211 0.27712 0.2812 0.0
N598 N 0.34573 0.33389 0.29731 0.0
N599 N 0.25111 0.22313 0.18217 0.0
C600 C 0.32061 0.3058 0.2757 0.0
C601 C 0.27303 0.24937 0.21492 0.0
N602 N 0.28943 0.33003 0.24891 0.0
N603 N 0.29329 0.21999 0.27037 0.0
H604 H 0.23228 0.22271 0.15798 0.0
H605 H 0.25177 0.20222 0.17837 0.0
H606 H 0.30929 0.21847 0.30059 0.0
H607 H 0.27407 0.19791 0.25725 0.0
H608 H 0.30256 0.34963 0.27822 0.0
H609 H 0.26912 0.32859 0.22935 0.0
H610 H 0.34818 0.35595 0.2884 0.0
H611 H 0.36555 0.33555 0.3198 0.0
C612 C 0.80033 0.03185 0.19664 0.0
C613 C 0.78943 1.00376 0.23106 0.0
C614 C 0.79089 0.0336 0.32522 0.0
C615 C 0.79176 0.05767 0.28668 0.0
N616 N 0.79264 0.0761 0.18105 0.0
N617 N 0.77832 0.97881 0.33179 0.0
C618 C 0.79551 0.05605 0.22098 0.0
C619 C 0.78616 1.00501 0.2968 0.0
N620 N 0.81666 0.03615 0.14262 0.0
N621 N 0.79566 0.03844 0.38826 0.0
H622 H 0.77768 0.95873 0.31283 0.0
H623 H 0.77159 0.97676 0.37856 0.0
H624 H 0.80108 0.05982 0.41002 0.0
H625 H 0.7977 1.02272 0.41778 0.0
H626 H 0.82637 0.05716 0.11712 0.0
H627 H 0.82489 1.02091 0.13043 0.0
H628 H 0.79321 0.0738 0.13258 0.0
H629 H 0.78601 0.09231 0.19561 0.0
C630 C 0.06843 0.77942 0.25314 0.0
C631 C 0.06527 0.78488 0.18885 0.0
C632 C 1.0093 0.74113 0.19103 0.0
C633 C 1.01194 0.73776 0.25605 0.0
N634 N 0.04163 0.7591 0.35197 0.0
N635 N 1.02967 0.77503 0.10138 0.0
C636 C 0.04078 0.75862 0.28805 0.0
C637 C 1.0347 0.76722 0.15948 0.0
N638 N 0.09785 0.79319 0.28088 0.0
N639 N 0.98328 0.71845 0.15844 0.0
H640 H 0.04742 0.79371 0.07663 0.0
H641 H 1.00713 0.76518 0.08077 0.0
H642 H 0.96448 0.69846 0.17934 0.0
H643 H 0.98183 0.71778 0.10978 0.0
H644 H 0.10171 0.78692 0.32508 0.0
H645 H 0.11881 0.80894 0.25813 0.0
H646 H 0.06111 0.77612 0.3779 0.0
H647 H 1.0217 0.74452 0.37919 0.0
C648 C 0.75455 0.77432 0.81622 0.0
C649 C 0.74116 0.75956 0.75762 0.0
C650 C 0.77755 0.73873 0.75505 0.0
C651 C 0.79201 0.75486 0.81257 0.0
N652 N 0.80342 0.8007 0.87627 0.0
N653 N 0.74964 0.73872 0.66139 0.0
C654 C 0.78353 0.77674 0.83657 0.0
C655 C 0.75566 0.74515 0.72387 0.0
N656 N 0.73923 0.7849 0.85402 0.0
N657 N 0.78415 0.71698 0.72981 0.0
H658 H 0.73531 0.74484 0.63591 0.0
H659 H 0.76193 0.73093 0.63353 0.0
H660 H 0.80129 0.7125 0.74764 0.0
H661 H 0.7711 0.70197 0.69266 0.0
H662 H 0.74721 0.79355 0.8992 0.0
H663 H 0.71686 0.78167 0.84317 0.0
H664 H 0.79843 0.81791 0.89241 0.0
H665 H 0.82687 0.80643 0.88435 0.0
C666 C 0.27273 0.03425 0.75028 0.0
C667 C 0.28722 0.04222 0.81037 0.0
C668 C 0.29526 0.99676 0.80506 0.0
C669 C 0.27972 0.98788 0.74582 0.0
N670 N 0.24593 0.99336 0.67047 0.0
N671 N 0.30173 1.02456 0.9029 0.0
C672 C 0.26599 1.00514 0.72096 0.0
C673 C 0.2948 1.0212 0.84052 0.0
N674 N 0.26606 0.05487 0.7207 0.0
N675 N 0.31242 0.98352 0.8259 0.0
H676 H 0.30041 0.04142 0.93067 0.0
H677 H 0.3049 1.00823 0.92819 0.0
H678 H 0.31519 0.96691 0.80007 0.0
H679 H 0.32682 0.99163 0.86577 0.0
H680 H 0.25911 0.05236 0.67393 0.0
H681 H 0.26899 0.0754 0.74251 0.0
H682 H 0.23305 1.00347 0.65367 0.0
H683 H 0.23972 0.97166 0.64917 0.0
C684 C 0.05431 0.26668 0.82224 0.0
C685 C 1.02426 0.26441 0.83071 0.0
C686 C 0.04186 0.31124 0.76417 0.0
C687 C 0.07209 0.31378 0.75635 0.0
N688 N 0.10318 0.28814 0.76197 0.0
N689 N 0.98604 0.27743 0.79104 0.0
C690 C 0.07707 0.28963 0.78043 0.0
C691 C 1.01689 0.2843 0.79531 0.0
N692 N 0.06132 0.24717 0.85507 0.0
N693 N 1.03745 0.33539 0.74533 0.0
H694 H 0.96722 0.25725 0.81116 0.0
H695 H 0.97881 0.28952 0.76171 0.0
H696 H 0.05522 0.35584 0.72369 0.0
H697 H 1.01713 0.33643 0.75615 0.0
H698 H 0.08418 0.25046 0.85816 0.0
H699 H 0.04415 0.22808 0.88071 0.0
H700 H 0.10671 0.26946 0.77324 0.0
H701 H 0.11981 0.30399 0.73009 0.0
C702 C 0.98313 0.61916 0.5083 0.0
C703 C 0.96659 0.63376 0.53296 0.0
C704 C 0.99039 0.63702 0.63573 0.0
C705 C 1.01076 0.62748 0.60851 0.0
N706 N 1.03147 0.61685 0.51444 0.0
N707 N 0.96076 0.66344 0.61807 0.0
C708 C 1.00844 0.62039 0.54354 0.0
C709 C 0.97198 0.64467 0.59614 0.0
N710 N 0.97531 0.60461 0.45104 0.0
N711 N 0.98791 0.63806 0.69924 0.0
H712 H 0.94739 0.67006 0.59087 0.0
H713 H 0.96708 0.67462 0.66179 0.0
H714 H 1.0001 0.63145 0.72999 0.0
H715 H 0.97113 0.64217 0.72092 0.0
H716 H 0.98482 0.59119 0.43373 0.0
H717 H 0.95692 0.60306 0.42391 0.0
H718 H 1.03246 0.61478 0.46606 0.0
H719 H 0.05163 0.61967 0.53758 0.0
C720 C 0.46101 0.37259 0.64691 0.0
C721 C 0.46011 0.3971 0.61372 0.0
C722 C 0.44769 0.36626 0.51644 0.0
C723 C 0.4484 0.34147 0.54955 0.0
N724 N 0.46416 0.32463 0.6414 0.0
N725 N 0.46218 0.42165 0.51539 0.0
C726 C 0.45793 0.34592 0.6133 0.0
C727 C 0.45679 0.39539 0.54784 0.0
N728 N 0.46324 0.37405 0.7107 0.0
N729 N 0.436 0.36136 0.45674 0.0
H730 H 0.46863 0.44328 0.53731 0.0
H731 H 0.46338 0.42288 0.46676 0.0
H732 H 0.42911 0.34066 0.43128 0.0
H733 H 0.43106 0.37707 0.4337 0.0
H734 H 0.46018 0.35519 0.7381 0.0
H735 H 0.46624 0.39355 0.73673 0.0
H736 H 0.47387 0.32791 0.68614 0.0
H737 H 0.46251 0.30513 0.61746 0.0
C738 C 0.66688 0.0963 0.59607 0.0
C739 C 0.6713 0.07071 0.61275 0.0
C740 C 0.72219 0.09546 0.55607 0.0
C741 C 0.71518 0.11822 0.53195 0.0
N742 N 0.68897 0.14794 0.54649 0.0
N743 N 0.70314 0.04585 0.6119 0.0
C744 C 0.68989 0.12094 0.55747 0.0
C745 C 0.69933 0.07062 0.5947 0.0
N746 N 0.63992 0.09616 0.61472 0.0
N747 N 0.75096 0.09811 0.54335 0.0
H748 H 0.68745 0.02799 0.64201 0.0
H749 H 0.72082 0.04198 0.59439 0.0
H750 H 0.76865 0.11678 0.51772 0.0
H751 H 0.75879 0.08389 0.56308 0.0
H752 H 0.63328 0.11197 0.59845 0.0
H753 H 0.62318 0.07912 0.64482 0.0
H754 H 0.6726 0.15301 0.56666 0.0
H755 H 0.70705 0.16692 0.52173 0.0
C756 C 0.44276 0.11395 0.17159 0.0
C757 C 0.47286 0.12571 0.14227 0.0
C758 C 0.45069 0.13782 0.04953 0.0
C759 C 0.41943 0.11889 0.07435 0.0
N760 N 0.3856 0.08528 0.15708 0.0
N761 N 0.50739 0.15689 0.05777 0.0
C762 C 0.41545 0.10576 0.13469 0.0
C763 C 0.4774 0.13992 0.0822 0.0
N764 N 0.4406 0.11389 0.23508 0.0
N765 N 0.45503 0.15523 0.99681 0.0
H766 H 0.52791 0.166 0.08543 0.0
H767 H 0.51194 0.16286 1.01077 0.0
H768 H 0.43626 0.15491 0.97264 0.0
H769 H 0.47729 0.17187 0.97926 0.0
H770 H 0.4193 0.10719 0.25843 0.0
H771 H 0.46082 0.12601 0.2633 0.0
H772 H 0.38191 0.0731 0.19895 0.0
H773 H 0.36483 0.07812 0.1311 0.0
C774 C 0.95182 0.36926 0.09249 0.0
C775 C 0.95946 0.37116 0.15692 0.0
C776 C 0.95822 0.32066 0.14906 0.0
C777 C 0.94935 0.31779 0.08492 0.0
N778 N 0.9287 0.33518 1.00114 0.0
N779 N 0.95688 0.34247 0.24996 0.0
C780 C 0.94337 0.34085 0.05817 0.0
C781 C 0.95824 0.34476 0.1864 0.0
N782 N 0.95295 0.39471 0.06403 0.0
N783 N 0.96881 0.30196 0.17373 0.0
H784 H 0.95511 0.35889 0.27838 0.0
H785 H 0.95347 0.32235 0.2734 0.0
H786 H 0.97169 0.28558 0.14731 0.0
H787 H 0.97827 0.30538 0.2188 0.0
H788 H 0.95146 0.39635 0.01574 0.0
H789 H 0.95684 0.41485 0.089 0.0
H790 H 0.92135 0.3499 0.98176 0.0
H791 H 0.92092 0.31406 0.97609 0.0
C792 C 0.72674 0.58146 0.11008 0.0
C793 C 0.70177 0.57897 0.14854 0.0
C794 C 0.72307 0.6365 0.13363 0.0
C795 C 0.74455 0.63717 0.08787 0.0
N796 N 0.76245 0.60825 0.0243 0.0
N797 N 0.68855 0.6087 0.22019 0.0
C798 C 0.74521 0.60909 0.074 0.0
C799 C 0.70286 0.60768 0.16645 0.0
N800 N 0.73467 0.55839 0.11215 0.0
N801 N 0.72199 0.66342 0.14608 0.0
H802 H 0.67952 0.5901 0.25105 0.0
H803 H 0.69062 0.62927 0.23959 0.0
H804 H 0.73824 0.68558 0.12771 0.0
H805 H 0.70381 0.66347 0.17167 0.0
H806 H 0.7545 0.56029 0.08935 0.0
H807 H 0.72427 0.53971 0.1439 0.0
H808 H 0.76107 0.58736 1.00841 0.0
H809 H 0.77533 0.62755 0.99478 0.0
C810 C 0.61112 0.92041 0.89045 0.0
C811 C 0.61486 0.95014 0.87431 0.0
C812 C 0.66431 0.97789 0.93573 0.0
C813 C 0.66113 0.94826 0.95153 0.0
N814 N 0.62694 0.89127 0.95873 0.0
N815 N 0.63689 1.00489 0.90232 0.0
C816 C 0.633 0.91941 0.93356 0.0
C817 C 0.63888 0.97815 0.90392 0.0
N818 N 0.58709 0.89331 0.86347 0.0
N819 N 0.69221 1.00575 0.94743 0.0
H820 H 0.61666 1.00402 0.88403 0.0
H821 H 0.65241 1.02577 0.9266 0.0
H822 H 0.71209 1.00678 0.96823 0.0
H823 H 0.69665 0.02765 0.931 0.0
H824 H 0.58533 0.87121 0.86659 0.0
H825 H 0.56923 0.89336 0.83657 0.0
H826 H 0.60568 0.86981 0.95151 0.0
H827 H 0.64202 0.8899 0.99163 0.0
C828 C 0.14639 0.70873 0.87513 0.0
C829 C 0.12127 0.67923 0.89753 0.0
C830 C 0.11392 0.70858 0.98356 0.0
C831 C 0.13181 0.73729 0.95027 0.0
N832 N 0.16262 0.76371 0.85811 0.0
N833 N 0.08044 0.65164 0.97628 0.0
C834 C 0.14774 0.73728 0.89457 0.0
C835 C 0.10507 0.67928 0.95318 0.0
N836 N 0.16931 0.70986 0.83678 0.0
N837 N 0.1057 0.70927 0.04442 0.0
H838 H 0.07353 0.62934 0.95761 0.0
H839 H 0.06552 0.65108 1.01184 0.0
H840 H 0.11278 0.73046 0.06876 0.0
H841 H 0.09511 0.68916 0.07256 0.0
H842 H 0.18891 0.73121 0.82204 0.0
H843 H 0.17144 0.69006 0.82793 0.0
H844 H 0.17193 0.76358 0.81426 0.0
H845 H 0.16275 0.78465 0.86845 0.0
C846 C 0.33261 0.42958 0.94386 0.0
C847 C 0.33019 0.39977 0.95444 0.0
C848 C 0.37152 0.41188 0.87608 0.0
C849 C 0.37354 0.44142 0.86446 0.0
N850 N 0.36196 0.48178 0.89585 0.0
N851 N 0.35282 0.36623 0.94397 0.0
C852 C 0.35613 0.45145 0.90164 0.0
C853 C 0.35165 0.39227 0.92506 0.0
N854 N 0.31133 0.43621 0.97159 0.0
N855 N 0.3871 0.40169 0.83788 0.0
H856 H 0.3384 0.35141 0.97964 0.0
H857 H 0.36996 0.361 0.92865 0.0
H858 H 0.40217 0.41553 0.80205 0.0
H859 H 0.38357 0.37882 0.83894 0.0
H860 H 0.30927 0.45577 0.96043 0.0
H861 H 0.2944 0.4211 1.00386 0.0
H862 H 0.35215 0.49169 0.92503 0.0
H863 H 0.37893 0.49802 0.8649 0.0
C864 C 0.11914 0.4636 0.40552 0.0
C865 C 0.08824 0.44143 0.42807 0.0
C866 C 0.11222 0.43382 0.52195 0.0
C867 C 0.14347 0.45293 0.49649 0.0
N868 N 0.17518 0.49819 0.43036 0.0
N869 N 0.05523 0.40183 0.50317 0.0
C870 C 0.14671 0.47118 0.44232 0.0
C871 C 0.0848 0.42541 0.48478 0.0
N872 N 0.12216 0.47716 0.34836 0.0
N873 N 0.10857 0.4273 0.58425 0.0
H874 H 1.03444 0.39539 0.47781 0.0
H875 H 0.05177 0.38675 0.54032 0.0
H876 H 0.12756 0.43871 0.61528 0.0
H877 H 0.08651 0.41552 0.60655 0.0
H878 H 0.14393 0.49042 0.3256 0.0
H879 H 0.10254 0.47288 0.32109 0.0
H880 H 0.17855 0.51366 0.3941 0.0
H881 H 0.1939 0.50823 0.46258 0.0
C882 C 0.64001 0.69933 0.43481 0.0
C883 C 0.62205 0.69734 0.48914 0.0
C884 C 0.59317 0.639 0.48032 0.0
C885 C 0.61196 0.64121 0.42778 0.0
N886 N 0.64337 0.67292 0.34121 0.0
N887 N 0.57163 0.66548 0.54189 0.0
C888 C 0.63206 0.67126 0.40042 0.0
C889 C 0.59537 0.66725 0.50518 0.0
N890 N 0.66538 0.72782 0.41674 0.0
N891 N 0.57418 0.61031 0.50797 0.0
H892 H 0.5702 0.68546 0.55319 0.0
H893 H 0.55095 0.64409 0.55235 0.0
H894 H 0.57187 0.58919 0.49083 0.0
H895 H 0.56265 0.60797 0.55038 0.0
H896 H 0.68178 0.72979 0.38311 0.0
H897 H 0.6711 0.7495 0.43715 0.0
H898 H 0.65566 0.69407 0.31643 0.0
H899 H 0.63737 0.65268 0.31432 0.0
C900 C 0.35605 0.9498 0.45516 0.0
C901 C 0.36588 0.94403 0.51404 0.0
C902 C 0.42124 0.98533 0.49041 0.0
C903 C 0.41185 0.98901 0.42972 0.0
N904 N 0.3714 0.96858 0.34906 0.0
N905 N 0.40987 0.95014 0.57759 0.0
C906 C 0.37959 0.96922 0.41038 0.0
C907 C 0.39913 0.95983 0.52834 0.0
N908 N 0.32458 0.93889 0.44302 0.0
N909 N 0.45076 1.00706 0.51348 0.0
H910 H 0.39478 0.93076 0.60509 0.0
H911 H 0.43405 0.95899 0.58646 0.0
H912 H 0.46731 0.02695 0.48859 0.0
H913 H 0.45745 1.00718 0.55983 0.0
H914 H 0.31675 0.94543 0.40362 0.0
H915 H 0.30654 0.92608 0.47489 0.0
H916 H 0.34888 0.95224 0.3312 0.0
H917 H 0.38801 0.98218 0.3149 0.0
C918 C 0.22261 0.36485 0.39734 0.0
C919 C 0.19328 0.36109 0.41849 0.0
C920 C 0.17178 0.34815 0.31118 0.0
C921 C 0.20092 0.35118 0.29023 0.0
N922 N 0.25627 0.3698 0.30897 0.0
N923 N 0.13914 0.34709 0.3988 0.0
C924 C 0.22692 0.36138 0.33233 0.0
C925 C 0.16767 0.35233 0.37607 0.0
N926 N 0.2461 0.37126 0.43996 0.0
N927 N 0.14858 0.34238 0.26836 0.0
H928 H 0.1358 0.35017 0.44596 0.0
H929 H 0.11831 0.33817 0.37242 0.0
H930 H 0.1514 0.33998 0.22078 0.0
H931 H 0.1275 0.34198 0.27857 0.0
H932 H 0.26698 0.37127 0.4294 0.0
H933 H 0.24381 0.3748 0.48739 0.0
H934 H 0.27716 0.38003 0.33553 0.0
H935 H 0.26018 0.36926 0.26115 0.0
C936 C 0.67238 0.81182 0.351 0.0
C937 C 0.68127 0.83207 0.40428 0.0
C938 C 0.69867 0.87763 0.33482 0.0
C939 C 0.69586 0.85834 0.28251 0.0
N940 N 0.68202 0.80696 0.2412 0.0
N941 N 0.70393 0.88484 0.44745 0.0
C942 C 0.68314 0.8253 0.29072 0.0
C943 C 0.6949 0.86525 0.39626 0.0
N944 N 0.6527 0.77987 0.35779 0.0
N945 N 0.70256 0.90692 0.32542 0.0
H946 H 0.69958 0.87617 0.493 0.0
H947 H 0.71712 0.90956 0.44452 0.0
H948 H 0.70099 0.9144 0.28087 0.0
H949 H 0.70275 0.92153 0.3614 0.0
H950 H 0.64355 0.76395 0.32021 0.0
H951 H 0.64242 0.76997 0.40062 0.0
H952 H 0.67585 0.78328 0.24553 0.0
H953 H 0.6899 0.81631 0.19674 0.0
C954 C 0.21926 0.89952 0.30973 0.0
C955 C 0.20158 0.87079 0.27485 0.0
C956 C 0.19832 0.84012 0.36805 0.0
C957 C 0.21753 0.86883 0.40174 0.0
N958 N 0.24843 0.92583 0.40525 0.0
N959 N 0.17905 0.81423 0.26687 0.0
C960 C 0.22869 0.89856 0.37254 0.0
C961 C 0.19231 0.84117 0.30309 0.0
N962 N 0.22604 0.92755 0.28311 0.0
N963 N 0.1853 0.8119 0.39887 0.0
H964 H 0.17494 0.81443 0.21905 0.0
H965 H 0.17443 0.79223 0.28285 0.0
H966 H 0.18985 0.81067 0.44609 0.0
H967 H 0.16837 0.79016 0.3792 0.0
H968 H 0.23615 0.94919 0.30703 0.0
H969 H 0.2196 0.92878 0.23727 0.0
H970 H 0.26021 0.94838 0.38564 0.0
H971 H 0.25454 0.92569 0.45195 0.0
C972 C 0.86532 0.71212 0.69131 0.0
C973 C 0.87131 0.6983 0.74409 0.0
C974 C 0.88753 0.6689 0.67353 0.0
C975 C 0.88198 0.68304 0.62096 0.0
N976 N 0.85754 0.71079 0.57881 0.0
N977 N 0.89624 0.67078 0.78563 0.0
C978 C 0.86877 0.70276 0.62982 0.0
C979 C 0.8845 0.67852 0.73504 0.0
N980 N 0.85769 0.73518 0.69939 0.0
N981 N 0.89431 0.64527 0.66511 0.0
H982 H 0.89614 0.67915 0.83063 0.0
H983 H 0.90929 0.65932 0.78234 0.0
H984 H 0.89583 0.63681 0.62134 0.0
H985 H 0.89526 0.63173 0.70144 0.0
H986 H 0.85694 0.74884 0.66309 0.0
H987 H 0.85453 0.74275 0.74281 0.0
H988 H 0.84439 0.72216 0.58148 0.0
H989 H 0.8583 0.70282 0.53376 0.0
C990 C 0.35801 0.20614 0.70478 0.0
C991 C 0.36349 0.18223 0.72755 0.0
C992 C 0.37709 0.17319 0.6216 0.0
C993 C 0.37149 0.19704 0.59908 0.0
N994 N 0.35079 0.23185 0.61477 0.0
N995 N 0.38165 0.14533 0.71116 0.0
C996 C 0.36025 0.21229 0.63952 0.0
C997 C 0.37382 0.16622 0.68674 0.0
N998 N 0.35238 0.22403 0.74641 0.0
N999 N 0.38475 0.15684 0.57985 0.0
H1000 H 0.38016 0.14049 0.75878 0.0
H1001 H 0.39132 0.13409 0.68561 0.0
H1002 H 0.38693 0.16163 0.53207 0.0
H1003 H 0.38728 0.13759 0.59115 0.0
H1004 H 0.35089 0.2438 0.73422 0.0
H1005 H 0.35199 0.22064 0.79454 0.0
H1006 H 0.3397 0.2417 0.64038 0.0
H1007 H 0.35166 0.23618 0.56693 0.0
C1008 C 0.87709 0.21867 0.63611 0.0
C1009 C 0.85748 0.1883 0.60829 0.0
C1010 C 0.8541 0.16286 0.70875 0.0
C1011 C 0.87567 0.19305 0.73536 0.0
N1012 N 0.90879 0.24965 0.72594 0.0
N1013 N 0.82964 0.13137 0.61457 0.0
C1014 C 0.88754 0.22099 0.69928 0.0
C1015 C 0.84656 0.16031 0.64378 0.0
N1016 N 0.88485 0.24516 0.60218 0.0
N1017 N 0.84027 0.13682 0.74636 0.0
H1018 H 0.82353 0.12902 0.56726 0.0
H1019 H 0.82337 0.10988 0.63577 0.0
H1020 H 0.8455 0.13826 0.79395 0.0
H1021 H 0.82212 0.11441 0.73184 0.0
H1022 H 0.89697 0.26824 0.62016 0.0
H1023 H 0.87712 0.24374 0.55621 0.0
H1024 H 0.92094 0.27085 0.70144 0.0
H1025 H 0.91544 0.25196 0.77294 0.0
C1026 C 0.51499 0.04783 0.99912 0.0
C1027 C 0.53093 0.04485 0.05181 0.0
C1028 C 0.56376 0.03359 0.98115 0.0
C1029 C 0.54396 0.03088 0.9299 0.0
N1030 N 0.49802 0.03231 0.89186 0.0
N1031 N 0.56897 0.03233 0.09388 0.0
C1032 C 0.51894 0.0374 0.93925 0.0
C1033 C 0.55507 0.03717 0.04309 0.0
N1034 N 0.49664 0.0614 1.00634 0.0
N1035 N 0.59173 0.03442 0.97001 0.0
H1036 H 0.56311 0.03491 0.1396 0.0
H1037 H 0.58446 1.02356 0.09053 0.0
H1038 H 0.59965 0.03482 0.92461 0.0
H1039 H 0.60853 0.03867 1.00469 0.0
H1040 H 0.48668 0.06694 0.96893 0.0
H1041 H 0.49433 0.0703 0.0493 0.0
H1042 H 0.47733 0.03335 0.89803 0.0
H1043 H 0.49973 1.02427 0.84766 0.0
C1044 C 1.03618 0.50806 0.97595 0.0
C1045 C 0.0536 0.54162 0.96996 0.0
C1046 C 0.05492 0.54749 0.08395 0.0
C1047 C 0.03902 0.51404 0.09039 0.0
N1048 N 1.0211 0.46286 0.04283 0.0
N1049 N 0.08844 0.59251 0.0189 0.0
C1050 C 1.0313 0.49434 0.03637 0.0
C1051 C 0.06574 0.56116 0.02414 0.0
N1052 N 1.02479 0.48935 0.92355 0.0
N1053 N 0.05872 0.56618 0.13484 0.0
H1054 H 0.09849 0.60284 0.97631 0.0
H1055 H 0.09999 0.60723 0.05732 0.0
H1056 H 0.05011 0.55677 0.17895 0.0
H1057 H 0.06735 0.59051 0.13187 0.0
H1058 H 1.00853 0.46498 0.92471 0.0
H1059 H 1.03083 0.49857 0.87854 0.0
H1060 H 1.01793 0.44766 1.00557 0.0
H1061 H 1.01869 0.45265 0.08632 0.0
C1062 C 0.56476 0.53219 0.9571 0.0
C1063 C 0.53428 0.52915 0.95348 0.0
C1064 C 0.53807 0.54533 0.06362 0.0
C1065 C 0.56887 0.54901 0.06693 0.0
N1066 N 0.61345 0.55048 0.01971 0.0
N1067 N 0.49289 0.53507 0.99613 0.0
C1068 C 0.5827 0.54358 1.01389 0.0
C1069 C 0.52142 0.53676 1.00519 0.0
N1070 N 0.5758 0.52345 0.90658 0.0
N1071 N 0.52456 0.54862 0.11701 0.0
H1072 H 0.48127 0.54123 0.02936 0.0
H1073 H 0.48127 0.54123 0.02936 0.0
H1074 H 0.53627 0.55404 0.16018 0.0
H1075 H 0.50129 0.5441 0.12006 0.0
H1076 H 0.59642 0.52206 0.90676 0.0
H1077 H 0.56323 0.51629 0.8643 0.0
H1078 H 0.62708 0.54917 0.9835 0.0
H1079 H 0.62708 0.54917 0.9835 0.0
C1080 C 0.25645 0.21638 0.91953 0.0
C1081 C 0.22827 0.20321 0.95579 0.0
C1082 C 0.22871 0.15329 0.96554 0.0
C1083 C 0.25777 0.16707 0.93152 0.0
N1084 N 0.29467 0.20769 0.8627 0.0
N1085 N 0.18425 0.1582 1.00441 0.0
C1086 C 0.27007 0.1974 0.90412 0.0
C1087 C 0.21325 0.17119 0.97566 0.0
N1088 N 0.27075 0.24749 0.90202 0.0
N1089 N 0.21679 0.1237 0.99029 0.0
H1090 H 0.17311 0.17126 1.0134 0.0
H1091 H 0.17038 0.13432 0.01613 0.0
H1092 H 0.22643 0.10944 0.97996 0.0
H1093 H 0.19787 0.1134 0.0216 0.0
H1094 H 0.29314 0.25986 0.88125 0.0
H1095 H 0.26082 0.2616 0.91157 0.0
H1096 H 0.30356 0.22847 0.83695 0.0
H1097 H 0.30413 0.19354 0.84987 0.0
C1098 C 0.87081 0.0855 0.90455 0.0
C1099 C 0.89513 0.10414 0.94894 0.0
C1100 C 0.88024 0.05613 1.01018 0.0
C1101 C 0.85496 0.03774 0.96749 0.0
N1102 N 0.82876 0.03281 0.86968 0.0
N1103 N 0.92783 0.10698 0.03565 0.0
C1104 C 0.85121 0.05185 0.91299 0.0
C1105 C 0.90135 0.08924 0.99916 0.0
N1106 N 0.86589 0.10033 0.85568 0.0
N1107 N 0.88341 0.04185 0.06211 0.0
H1108 H 0.94389 0.13101 0.0272 0.0
H1109 H 0.93547 0.09771 0.07064 0.0
H1110 H 0.86904 1.0175 0.06995 0.0
H1111 H 0.89903 0.05405 0.09889 0.0
H1112 H 0.84689 0.08913 0.82434 0.0
H1113 H 0.88103 0.1245 0.84702 0.0
H1114 H 0.82584 0.04053 0.82637 0.0
H1115 H 0.81373 1.00841 0.87618 0.0
C1116 C 1.00179 0.79329 0.93724 0.0
C1117 C 1.0209 0.82619 0.95127 0.0
C1118 C 0.97225 0.82994 0.9577 0.0
C1119 C 0.95324 0.79709 0.94163 0.0
N1120 N 0.95082 0.74975 0.90104 0.0
N1121 N 1.02554 0.8771 0.96486 0.0
C1122 C 0.96841 0.77957 0.92654 0.0
C1123 C 1.00643 0.84492 0.95827 0.0
N1124 N 1.01532 0.77473 0.93731 0.0
N1125 N 0.95772 0.84638 0.97544 0.0
H1126 H 0.05042 0.88827 0.96633 0.0
H1127 H 1.01703 0.89279 0.96434 0.0
H1128 H 0.93302 0.83651 0.97378 0.0
H1129 H 0.96992 0.86922 0.99467 0.0
H1130 H 1.00214 0.74998 0.93474 0.0
H1131 H 0.03955 0.78383 0.94583 0.0
H1132 H 0.96087 0.73697 0.88305 0.0
H1133 H 0.92641 0.73905 0.89213 0.0
C1134 C 0.7867 0.84115 0.11214 0.0
C1135 C 0.80353 0.87385 0.09539 0.0
C1136 C 0.84831 0.86844 0.05801 0.0
C1137 C 0.83146 0.83582 0.07424 0.0
N1138 N 0.78788 0.79239 0.12742 0.0
N1139 N 0.85382 0.92045 0.06956 0.0
C1140 C 0.80158 0.82257 0.10467 0.0
C1141 C 0.83554 0.88814 0.07415 0.0
N1142 N 0.75624 0.82785 0.13447 0.0
N1143 N 0.87574 0.88016 0.024 0.0
H1144 H 0.84562 0.93559 0.08269 0.0
H1145 H 0.87812 0.93244 0.05937 0.0
H1146 H 0.88529 0.86619 1.01036 0.0
H1147 H 0.88746 0.90278 1.0046 0.0
H1148 H 0.74102 0.80354 0.14063 0.0
H1149 H 0.74584 0.84139 0.14551 0.0
H1150 H 0.76746 0.78187 0.15495 0.0
H1151 H 0.79844 0.77853 0.12232 0.0
C1152 C 0.18659 1.00331 0.01626 0.0
C1153 C 0.2125 1.01791 0.05903 0.0
C1154 C 0.19021 0.96774 0.11619 0.0
C1155 C 0.16868 0.95184 0.06612 0.0
N1156 N 0.14391 0.95414 0.9706 0.0
N1157 N 0.24026 1.01397 0.14851 0.0
C1158 C 0.16585 0.96968 0.01715 0.0
C1159 C 0.21429 1.0003 0.10959 0.0
N1160 N 0.18183 1.02186 0.97546 0.0
N1161 N 0.18789 0.95172 0.16966 0.0
H1162 H 0.25878 0.03746 0.14396 0.0
H1163 H 0.2447 1.0013 0.18194 0.0
H1164 H 0.17071 0.92781 0.17556 0.0
H1165 H 0.2005 0.96311 0.2103 0.0
H1166 H 0.16205 1.01326 0.94598 0.0
H1167 H 0.19646 0.04658 0.97521 0.0
H1168 H 0.14298 0.96493 0.92954 0.0
H1169 H 0.12705 0.92985 0.97262 0.0
C1170 C 0.09358 0.21288 0.06074 0.0
C1171 C 0.11209 0.24291 0.09096 0.0
C1172 C 0.06456 0.24779 0.10018 0.0
C1173 C 0.04566 0.21746 0.07159 0.0
N1174 N 0.04049 0.16865 0.03412 0.0
N1175 N 0.1135 0.284 0.15529 0.0
C1176 C 0.05971 0.19916 0.05491 0.0
C1177 C 0.09686 0.25859 0.11606 0.0
N1178 N 0.10856 0.19817 0.03563 0.0
N1179 N 0.05235 0.2673 0.10815 0.0
H1180 H 0.13708 0.29187 0.16828 0.0
H1181 H 0.10287 0.29463 0.17997 0.0
H1182 H 1.02942 0.26109 0.09363 0.0
H1183 H 0.06605 0.29091 0.12295 0.0
H1184 H 0.09723 0.17814 1.00674 0.0
H1185 H 0.1329 0.2069 0.04229 0.0
H1186 H 0.04853 0.15287 0.02594 0.0
H1187 H 1.0158 0.15845 0.02939 0.0
C1188 C 0.89259 0.50954 0.30138 0.0
C1189 C 0.91342 0.54265 0.29295 0.0
C1190 C 0.9571 0.53316 0.26731 0.0
C1191 C 0.93753 0.50065 0.2835 0.0
N1192 N 0.88692 0.45772 0.31899 0.0
N1193 N 0.96632 0.58677 0.27494 0.0
C1194 C 0.90514 0.48863 0.30057 0.0
C1195 C 0.94586 0.55463 0.27727 0.0
N1196 N 0.86079 0.49827 0.30987 0.0
N1197 N 0.98645 0.54338 0.2416 0.0
H1198 H 0.95892 0.60314 0.28229 0.0
H1199 H 0.99099 0.5973 0.27087 0.0
H1200 H 0.99516 0.52813 0.23326 0.0
H1201 H 1.00074 0.56598 0.22311 0.0
H1202 H 0.84352 0.47418 0.31076 0.0
H1203 H 0.85144 0.51332 0.31173 0.0
H1204 H 0.86434 0.44827 0.33865 0.0
H1205 H 0.89513 0.44174 0.31729 0.0
C1206 C 0.57289 0.43642 0.31258 0.0
C1207 C 0.55872 0.45565 0.30804 0.0
C1208 C 0.50519 0.40736 0.3067 0.0
C1209 C 0.51936 0.38825 0.31113 0.0
N1210 N 0.56605 0.38347 0.31244 0.0
N1211 N 0.51215 0.45977 0.29024 0.0
C1212 C 0.55307 0.40254 0.31185 0.0
C1213 C 0.52501 0.44114 0.30228 0.0
N1214 N 0.6052 0.45057 0.32093 0.0
N1215 N 0.47263 0.39298 0.30712 0.0
H1216 H 0.52608 0.48441 0.28548 0.0
H1217 H 0.48814 0.45092 0.28012 0.0
H1218 H 0.45761 0.36833 0.30552 0.0
H1219 H 0.46037 0.40516 0.31167 0.0
H1220 H 0.61684 0.43841 0.33251 0.0
H1221 H 0.62068 0.47503 0.31897 0.0
H1222 H 0.59015 0.3916 0.30536 0.0
H1223 H 0.55231 0.35886 0.31733 0.0
C1224 C 0.63693 0.15464 0.22214 0.0
C1225 C 0.61653 0.14848 0.27386 0.0
C1226 C 0.66095 0.16178 0.34586 0.0
C1227 C 0.68147 0.16622 0.29446 0.0
N1228 N 0.69171 0.17879 0.18529 0.0
N1229 N 0.61333 0.1613 0.38087 0.0
C1230 C 0.67026 0.16665 0.23297 0.0
C1231 C 0.63023 0.15749 0.33423 0.0
N1232 N 0.62444 0.14801 0.16317 0.0
N1233 N 0.669 0.15873 0.40529 0.0
H1234 H 0.59133 0.15937 0.37197 0.0
H1235 H 0.62284 0.17019 0.42514 0.0
H1236 H 0.69036 0.16039 0.41713 0.0
H1237 H 0.65296 0.1516 0.44237 0.0
H1238 H 0.63722 0.14818 0.12396 0.0
H1239 H 0.60084 0.14164 0.15417 0.0
H1240 H 0.68567 0.18185 0.14022 0.0
H1241 H 0.71621 0.18888 0.19299 0.0
C1242 C 0.48307 0.17668 0.43917 0.0
C1243 C 0.51024 0.18472 0.40185 0.0
C1244 C 0.5132 0.23495 0.37375 0.0
C1245 C 0.48652 0.22704 0.41249 0.0
N1246 N 0.45379 0.19599 0.49785 0.0
N1247 N 0.55556 0.2246 0.3455 0.0
C1248 C 0.47417 0.19981 0.45063 0.0
C1249 C 0.52676 0.21497 0.37295 0.0
N1250 N 0.46405 0.14623 0.45943 0.0
N1251 N 0.5249 0.26104 0.3364 0.0
H1252 H 0.5661 0.21059 0.34563 0.0
H1253 H 0.57018 0.24734 0.32785 0.0
H1254 H 0.51653 0.27689 0.33877 0.0
H1255 H 0.54184 0.26619 0.3017 0.0
H1256 H 0.44227 0.13851 0.48167 0.0
H1257 H 0.46801 0.12779 0.44786 0.0
H1258 H 0.44635 0.17809 0.53098 0.0
H1259 H 0.44802 0.21328 0.50821 0.0
C1260 C 0.87234 0.2851 0.41528 0.0
C1261 C 0.83947 0.27159 0.39962 0.0
C1262 C 0.84813 0.32562 0.38914 0.0
C1263 C 0.88144 0.3385 0.39725 0.0
N1264 N 0.92601 0.33107 0.41374 0.0
N1265 N 0.79579 0.27863 0.37008 0.0
C1266 C 0.89369 0.31836 0.40958 0.0
C1267 C 0.82713 0.2918 0.38699 0.0
N1268 N 0.88297 0.26597 0.43706 0.0
N1269 N 0.83687 0.34597 0.38323 0.0
H1270 H 0.77989 0.25412 0.36983 0.0
H1271 H 0.78578 0.29166 0.35392 0.0
H1272 H 0.85207 0.37063 0.38322 0.0
H1273 H 0.81272 0.33873 0.38225 0.0
H1274 H 0.90584 0.27428 0.45478 0.0
H1275 H 0.86761 0.24181 0.4436 0.0
H1276 H 0.93695 0.3175 0.41436 0.0
H1277 H 0.94228 0.35547 0.41244 0.0
C1278 C 0.75352 0.58945 0.42078 0.0
C1279 C 0.73585 0.55859 0.39407 0.0
C1280 C 0.78449 0.55522 0.38825 0.0
C1281 C 0.80237 0.58654 0.41347 0.0
N1282 N 0.80346 0.6309 0.4658 0.0
N1283 N 0.73208 0.50963 0.36271 0.0
C1284 C 0.7866 0.60273 0.43383 0.0
C1285 C 0.75064 0.54061 0.38147 0.0
N1286 N 0.73878 0.60654 0.43104 0.0
N1287 N 0.80013 0.54028 0.36757 0.0
H1288 H 0.70743 0.49897 0.35623 0.0
H1289 H 0.7405 0.49398 0.35754 0.0
H1290 H 0.82465 0.54994 0.37371 0.0
H1291 H 0.78923 0.51899 0.34233 0.0
H1292 H 0.75079 0.63056 0.44322 0.0
H1293 H 0.71437 0.59704 0.42399 0.0
H1294 H 0.79314 0.64258 0.48754 0.0
H1295 H 0.8278 0.64144 0.47496 0.0
C1296 C 0.56175 0.81262 0.64097 0.0
C1297 C 0.59214 0.82477 0.61238 0.0
C1298 C 0.59682 0.8772 0.60226 0.0
C1299 C 0.56698 0.86536 0.63226 0.0
N1300 N 0.51839 0.82134 0.67087 0.0
N1301 N 0.63506 0.86597 0.553 0.0
C1302 C 0.54854 0.83278 0.64835 0.0
C1303 C 0.6085 0.8563 0.58896 0.0
N1304 N 0.54633 0.78239 0.66384 0.0
N1305 N 0.61433 0.90879 0.58809 0.0
H1306 H 0.64374 0.85096 0.54192 0.0
H1307 H 0.64682 0.88755 0.52966 0.0
H1308 H 0.60578 0.92429 0.5951 0.0
H1309 H 0.63786 0.92012 0.57265 0.0
H1310 H 0.52612 0.77312 0.69188 0.0
H1311 H 0.55442 0.7666 0.65616 0.0
H1312 H 0.50216 0.79735 0.67835 0.0
H1313 H 0.50887 0.83596 0.67872 0.0
C1314 C 0.2466 0.76338 0.66609 0.0
C1315 C 0.23899 0.77814 0.61773 0.0
C1316 C 0.19388 0.7259 0.58524 0.0
C1317 C 0.19912 0.71195 0.63836 0.0
N1318 N 0.23018 0.7162 0.72895 0.0
N1319 N 0.20659 0.77424 0.52956 0.0
C1320 C 0.22567 0.73036 0.67834 0.0
C1321 C 0.21327 0.75946 0.57602 0.0
N1322 N 0.27405 0.78122 0.69994 0.0
N1323 N 0.16998 0.70689 0.54429 0.0
H1324 H 0.22137 0.7984 0.52022 0.0
H1325 H 0.18632 0.76307 0.50127 0.0
H1326 H 0.15469 0.68262 0.55176 0.0
H1327 H 0.16614 0.7145 0.50166 0.0
H1328 H 0.28259 0.77204 0.7334 0.0
H1329 H 0.28983 0.80523 0.69072 0.0
H1330 H 0.24693 0.72846 0.76409 0.0
H1331 H 0.21597 0.69187 0.73724 0.0
C1332 C 0.30755 0.48882 0.66417 0.0
C1333 C 0.28885 0.46669 0.61621 0.0
C1334 C 0.33755 0.46952 0.57664 0.0
C1335 C 0.35656 0.49456 0.6201 0.0
N1336 N 0.35903 0.53457 0.69007 0.0
N1337 N 0.28782 0.44192 0.51779 0.0
C1338 C 0.34129 0.50653 0.6584 0.0
C1339 C 0.30458 0.45953 0.56874 0.0
N1340 N 0.29373 0.49135 0.71772 0.0
N1341 N 0.34954 0.45284 0.54777 0.0
H1342 H 0.26361 0.43395 0.51144 0.0
H1343 H 0.29876 0.43811 0.4795 0.0
H1344 H 0.37194 0.45612 0.55782 0.0
H1345 H 0.33557 0.43278 0.52 0.0
H1346 H 0.30707 0.50552 0.75558 0.0
H1347 H 0.2696 0.47646 0.72752 0.0
H1348 H 0.34868 0.54524 0.71567 0.0
H1349 H 0.38374 0.54863 0.68456 0.0
C1350 C 0.13933 0.53274 0.69588 0.0
C1351 C 0.13963 0.54591 0.75602 0.0
C1352 C 0.16575 0.51839 0.8 0.0
C1353 C 0.16701 0.50709 0.73955 0.0
N1354 N 0.16191 0.50946 0.62811 0.0
N1355 N 0.15628 0.55405 0.86423 0.0
C1356 C 0.1556 0.51582 0.68705 0.0
C1357 C 0.15397 0.5397 0.80779 0.0
N1358 N 0.12322 0.53595 0.64668 0.0
N1359 N 0.17541 0.50809 0.84992 0.0
H1360 H 0.14736 0.56911 0.87199 0.0
H1361 H 0.16892 0.55287 0.90233 0.0
H1362 H 0.18421 0.49268 0.84464 0.0
H1363 H 0.1727 0.51277 0.89634 0.0
H1364 H 0.11806 0.52266 0.60546 0.0
H1365 H 0.11322 0.55033 0.64744 0.0
H1366 H 0.15789 0.5187 0.58773 0.0
H1367 H 0.17388 0.49725 0.61937 0.0
C1368 C 0.49464 0.61894 0.70945 0.0
C1369 C 0.49692 0.60297 0.76261 0.0
C1370 C 0.54138 0.65342 0.80309 0.0
C1371 C 0.54011 0.66911 0.74855 0.0
N1372 N 0.51054 0.66925 0.65885 0.0
N1373 N 0.51455 0.60649 0.86863 0.0
C1374 C 0.51502 0.65255 0.70458 0.0
C1375 C 0.51765 0.62081 0.8125 0.0
N1376 N 0.47354 0.6016 0.66278 0.0
N1377 N 0.56634 0.66912 0.84389 0.0
H1378 H 0.49626 0.58318 0.87668 0.0
H1379 H 0.52747 0.61855 0.90853 0.0
H1380 H 0.58434 0.69271 0.83755 0.0
H1381 H 0.57052 0.65815 0.88121 0.0
H1382 H 0.47325 0.61074 0.61915 0.0
H1383 H 0.45668 0.57748 0.66763 0.0
H1384 H 0.49127 0.65927 0.62791 0.0
H1385 H 0.52478 0.69393 0.65543 0.0
C1386 C 0.40855 0.92399 0.75659 0.0
C1387 C 0.38831 0.89299 0.73191 0.0
C1388 C 0.43483 0.88598 0.72127 0.0
C1389 C 0.45478 0.91673 0.7478 0.0
N1390 N 0.45915 0.96107 0.80575 0.0
N1391 N 0.38061 0.84238 0.70005 0.0
C1392 C 0.44103 0.93437 0.7704 0.0
C1393 C 0.40103 0.87328 0.71718 0.0
N1394 N 0.39718 0.94427 0.76335 0.0
N1395 N 0.44836 0.86951 0.69793 0.0
H1396 H 0.35598 0.83293 0.69633 0.0
H1397 H 0.38763 0.82568 0.69381 0.0
H1398 H 0.47265 0.87756 0.70319 0.0
H1399 H 0.43592 0.84866 0.67159 0.0
H1400 H 0.41164 0.96828 0.77483 0.0
H1401 H 0.37387 0.93792 0.75144 0.0
H1402 H 0.44971 0.97322 0.82904 0.0
H1403 H 0.48286 0.96884 0.81726 0.0
loop_
_geom_bond_atom_site_label_1
_geom_bond_atom_site_label_2
_geom_bond_distance
_geom_bond_site_symmetry_2
_ccdc_geom_bond_type
C0 C1 1.351 1_554 S
C0 N3 1.368 . S
C0 H5 0.931 1_554 S
C1 C0 1.351 1_556 S
C1 N2 1.373 1_556 S
C1 H29 0.930 . S
N2 C1 1.373 1_554 S
N2 C4 1.340 . S
N3 C0 1.368 . S
N3 C4 1.321 . S
N3 Co6 2.135 . S
C4 N2 1.340 . S
C4 N3 1.321 . S
C4 H28 0.930 . S
H5 C0 0.931 1_556 S
Co6 N3 2.135 . S
Co6 N9 2.121 . S
Co6 O14 2.055 . S
Co6 O17 2.039 . S
Co6 N20 2.140 . S
C7 O8 1.227 . S
C7 O17 1.265 . S
O8 C7 1.227 . S
N9 Co6 2.121 . S
N9 C11 1.375 . S
N9 C12 1.313 . S
C10 C11 1.338 . S
C10 N13 1.377 . S
C10 H30 0.930 . S
C11 N9 1.375 . S
C11 C10 1.338 . S
C11 H15 0.931 . S
C12 N9 1.313 . S
C12 N13 1.344 . S
C12 H16 0.930 . S
N13 C10 1.377 . S
N13 C12 1.344 . S
O14 Co6 2.055 . S
O14 C18 1.253 . S
H15 C11 0.931 . S
H16 C12 0.930 . S
O17 Co6 2.039 . S
O17 C7 1.265 . S
C18 O14 1.253 . S
C18 O19 1.227 . S
O19 C18 1.227 . S
N20 Co6 2.140 . S
N20 C23 1.346 . S
N20 C24 1.345 . S
C21 C22 1.387 . S
C21 C25 1.391 1_556 S
C22 C21 1.387 . S
C22 C23 1.369 1_556 S
C22 H31 0.929 . S
C23 N20 1.346 . S
C23 C22 1.369 1_554 S
C23 H26 0.928 . S
C24 N20 1.345 . S
C24 C25 1.371 . S
C24 H27 0.931 . S
C25 C21 1.391 1_554 S
C25 C24 1.371 . S
C25 H32 0.930 1_554 S
H26 C23 0.928 . S
H27 C24 0.931 . S
H28 C4 0.930 . S
H29 C1 0.930 . S
H30 C10 0.930 . S
H31 C22 0.929 . S
H32 C25 0.930 1_556 S
C33 C34 1.377 1_554 S
C33 N36 1.368 . S
C33 H38 0.931 1_554 S
C34 C33 1.377 1_556 S
C34 N35 1.341 1_566 S
C34 H62 0.941 1_565 S
N35 C34 1.341 1_544 S
N35 C37 1.340 . S
N36 C33 1.368 . S
N36 C37 1.321 1_565 S
N36 Co39 2.135 . S
C37 N35 1.340 . S
C37 N36 1.321 1_545 S
C37 H61 0.930 . S
H38 C33 0.931 1_556 S
Co39 N36 2.135 . S
Co39 N42 2.121 . S
Co39 O47 2.055 . S
Co39 O50 2.039 . S
Co39 N53 2.140 . S
C40 O41 1.227 . S
C40 O50 1.265 . S
O41 C40 1.227 . S
N42 Co39 2.121 . S
N42 C44 1.375 . S
N42 C45 1.313 . S
C43 C44 1.338 . S
C43 N46 1.377 . S
C43 H63 0.930 . S
C44 N42 1.375 . S
C44 C43 1.338 . S
C44 H48 0.931 . S
C45 N42 1.313 . S
C45 N46 1.344 . S
C45 H49 0.930 . S
N46 C43 1.377 . S
N46 C45 1.344 . S
O47 Co39 2.055 . S
O47 C51 1.253 . S
H48 C44 0.931 . S
H49 C45 0.930 . S
O50 Co39 2.039 . S
O50 C40 1.265 . S
C51 O47 1.253 . S
C51 O52 1.227 . S
O52 C51 1.227 . S
N53 Co39 2.140 . S
N53 C56 1.346 . S
N53 C57 1.345 . S
C54 C55 1.387 . S
C54 C58 1.391 1_556 S
C55 C54 1.387 . S
C55 C56 1.369 1_556 S
C55 H64 0.929 . S
C56 N53 1.346 . S
C56 C55 1.369 1_554 S
C56 H59 0.928 . S
C57 N53 1.345 . S
C57 C58 1.371 . S
C57 H60 0.931 . S
C58 C54 1.391 1_554 S
C58 C57 1.371 . S
C58 H65 0.930 1_554 S
H59 C56 0.928 . S
H60 C57 0.931 . S
H61 C37 0.930 . S
H62 C34 0.941 1_545 S
H63 C43 0.930 . S
H64 C55 0.929 . S
H65 C58 0.930 1_556 S
C66 C67 1.383 1_554 S
C66 N69 1.368 . S
C66 H71 0.931 1_554 S
C67 C66 1.383 1_556 S
C67 N68 1.354 1_456 S
C67 H95 0.915 1_455 S
N68 C67 1.354 1_654 S
N68 C70 1.340 . S
N69 C66 1.368 . S
N69 C70 1.321 1_455 S
N69 Co72 2.135 . S
C70 N68 1.340 . S
C70 N69 1.321 1_655 S
C70 H94 0.930 . S
H71 C66 0.931 1_556 S
Co72 N69 2.135 . S
Co72 N75 2.121 . S
Co72 O80 2.055 . S
Co72 O83 2.039 . S
Co72 N86 2.140 . S
C73 O74 1.227 . S
C73 O83 1.265 . S
O74 C73 1.227 . S
N75 Co72 2.121 . S
N75 C77 1.375 . S
N75 C78 1.313 . S
C76 C77 1.338 . S
C76 N79 1.377 . S
C76 H96 0.930 . S
C77 N75 1.375 . S
C77 C76 1.338 . S
C77 H81 0.931 . S
C78 N75 1.313 . S
C78 N79 1.344 . S
C78 H82 0.930 . S
N79 C76 1.377 . S
N79 C78 1.344 . S
O80 Co72 2.055 . S
O80 C84 1.253 . S
H81 C77 0.931 . S
H82 C78 0.930 . S
O83 Co72 2.039 . S
O83 C73 1.265 . S
C84 O80 1.253 . S
C84 O85 1.227 . S
O85 C84 1.227 . S
N86 Co72 2.140 . S
N86 C89 1.346 . S
N86 C90 1.345 . S
C87 C88 1.387 . S
C87 C91 1.391 1_556 S
C88 C87 1.387 . S
C88 C89 1.369 1_556 S
C88 H97 0.929 . S
C89 N86 1.346 . S
C89 C88 1.369 1_554 S
C89 H92 0.928 . S
C90 N86 1.345 . S
C90 C91 1.371 . S
C90 H93 0.931 . S
C91 C87 1.391 1_554 S
C91 C90 1.371 . S
C91 H98 0.930 1_554 S
H92 C89 0.928 . S
H93 C90 0.931 . S
H94 C70 0.930 . S
H95 C67 0.915 1_655 S
H96 C76 0.930 . S
H97 C88 0.929 . S
H98 C91 0.930 1_556 S
C99 C100 1.351 1_556 S
C99 N102 1.368 . S
C99 H104 0.931 1_556 S
C100 C99 1.351 1_554 S
C100 N101 1.373 1_554 S
C100 H128 0.930 . S
N101 C100 1.373 1_556 S
N101 C103 1.340 . S
N102 C99 1.368 . S
N102 C103 1.321 . S
N102 Co105 2.135 . S
C103 N101 1.340 . S
C103 N102 1.321 . S
C103 H127 0.930 . S
H104 C99 0.931 1_554 S
Co105 N102 2.135 . S
Co105 N108 2.121 . S
Co105 O113 2.055 . S
Co105 O116 2.039 . S
Co105 N119 2.140 . S
C106 O107 1.227 . S
C106 O116 1.265 . S
O107 C106 1.227 . S
N108 Co105 2.121 . S
N108 C110 1.375 . S
N108 C111 1.313 . S
C109 C110 1.338 . S
C109 N112 1.377 . S
C109 H129 0.930 . S
C110 N108 1.375 . S
C110 C109 1.338 . S
C110 H114 0.931 . S
C111 N108 1.313 . S
C111 N112 1.344 . S
C111 H115 0.930 . S
N112 C109 1.377 . S
N112 C111 1.344 . S
O113 Co105 2.055 . S
O113 C117 1.253 . S
H114 C110 0.931 . S
H115 C111 0.930 . S
O116 Co105 2.039 . S
O116 C106 1.265 . S
C117 O113 1.253 . S
C117 O118 1.227 . S
O118 C117 1.227 . S
N119 Co105 2.140 . S
N119 C122 1.346 . S
N119 C123 1.345 . S
C120 C121 1.387 . S
C120 C124 1.391 1_554 S
C121 C120 1.387 . S
C121 C122 1.369 1_554 S
C121 H130 0.929 . S
C122 N119 1.346 . S
C122 C121 1.369 1_556 S
C122 H125 0.928 . S
C123 N119 1.345 . S
C123 C124 1.371 . S
C123 H126 0.931 . S
C124 C120 1.391 1_556 S
C124 C123 1.371 . S
C124 H131 0.930 1_556 S
H125 C122 0.928 . S
H126 C123 0.931 . S
H127 C103 0.930 . S
H128 C100 0.930 . S
H129 C109 0.930 . S
H130 C121 0.929 . S
H131 C124 0.930 1_554 S
C132 C133 1.377 1_556 S
C132 N135 1.368 . S
C132 H137 0.931 1_556 S
C133 C132 1.377 1_554 S
C133 N134 1.341 1_544 S
C133 H161 0.941 1_545 S
N134 C133 1.341 1_566 S
N134 C136 1.340 . S
N135 C132 1.368 . S
N135 C136 1.321 1_545 S
N135 Co138 2.135 . S
C136 N134 1.340 . S
C136 N135 1.321 1_565 S
C136 H160 0.930 . S
H137 C132 0.931 1_554 S
Co138 N135 2.135 . S
Co138 N141 2.121 . S
Co138 O146 2.055 . S
Co138 O149 2.039 . S
Co138 N152 2.140 . S
C139 O140 1.227 . S
C139 O149 1.265 . S
O140 C139 1.227 . S
N141 Co138 2.121 . S
N141 C143 1.375 . S
N141 C144 1.313 . S
C142 C143 1.338 . S
C142 N145 1.377 . S
C142 H162 0.930 . S
C143 N141 1.375 . S
C143 C142 1.338 . S
C143 H147 0.931 . S
C144 N141 1.313 . S
C144 N145 1.344 . S
C144 H148 0.930 . S
N145 C142 1.377 . S
N145 C144 1.344 . S
O146 Co138 2.055 . S
O146 C150 1.253 . S
H147 C143 0.931 . S
H148 C144 0.930 . S
O149 Co138 2.039 . S
O149 C139 1.265 . S
C150 O146 1.253 . S
C150 O151 1.227 . S
O151 C150 1.227 . S
N152 Co138 2.140 . S
N152 C155 1.346 . S
N152 C156 1.345 . S
C153 C154 1.387 . S
C153 C157 1.391 1_554 S
C154 C153 1.387 . S
C154 C155 1.369 1_554 S
C154 H163 0.929 . S
C155 N152 1.346 . S
C155 C154 1.369 1_556 S
C155 H158 0.928 . S
C156 N152 1.345 . S
C156 C157 1.371 . S
C156 H159 0.931 . S
C157 C153 1.391 1_556 S
C157 C156 1.371 . S
C157 H164 0.930 1_556 S
H158 C155 0.928 . S
H159 C156 0.931 . S
H160 C136 0.930 . S
H161 C133 0.941 1_565 S
H162 C142 0.930 . S
H163 C154 0.929 . S
H164 C157 0.930 1_554 S
C165 C166 1.383 1_556 S
C165 N168 1.368 . S
C165 H170 0.931 1_556 S
C166 C165 1.383 1_554 S
C166 N167 1.354 1_654 S
C166 H194 0.915 1_655 S
N167 C166 1.354 1_456 S
N167 C169 1.340 . S
N168 C165 1.368 . S
N168 C169 1.321 1_655 S
N168 Co171 2.135 . S
C169 N167 1.340 . S
C169 N168 1.321 1_455 S
C169 H193 0.930 . S
H170 C165 0.931 1_554 S
Co171 N168 2.135 . S
Co171 N174 2.121 . S
Co171 O179 2.055 . S
Co171 O182 2.039 . S
Co171 N185 2.140 . S
C172 O173 1.227 . S
C172 O182 1.265 . S
O173 C172 1.227 . S
N174 Co171 2.121 . S
N174 C176 1.375 . S
N174 C177 1.313 . S
C175 C176 1.338 . S
C175 N178 1.377 . S
C175 H195 0.930 . S
C176 N174 1.375 . S
C176 C175 1.338 . S
C176 H180 0.931 . S
C177 N174 1.313 . S
C177 N178 1.344 . S
C177 H181 0.930 . S
N178 C175 1.377 . S
N178 C177 1.344 . S
O179 Co171 2.055 . S
O179 C183 1.253 . S
H180 C176 0.931 . S
H181 C177 0.930 . S
O182 Co171 2.039 . S
O182 C172 1.265 . S
C183 O179 1.253 . S
C183 O184 1.227 . S
O184 C183 1.227 . S
N185 Co171 2.140 . S
N185 C188 1.346 . S
N185 C189 1.345 . S
C186 C187 1.387 . S
C186 C190 1.391 1_554 S
C187 C186 1.387 . S
C187 C188 1.369 1_554 S
C187 H196 0.929 . S
C188 N185 1.346 . S
C188 C187 1.369 1_556 S
C188 H191 0.928 . S
C189 N185 1.345 . S
C189 C190 1.371 . S
C189 H192 0.931 . S
C190 C186 1.391 1_556 S
C190 C189 1.371 . S
C190 H197 0.930 1_556 S
H191 C188 0.928 . S
H192 C189 0.931 . S
H193 C169 0.930 . S
H194 C166 0.915 1_455 S
H195 C175 0.930 . S
H196 C187 0.929 . S
H197 C190 0.930 1_554 S
C198 C199 1.351 . S
C198 N201 1.368 . S
C198 H203 0.931 . S
C199 C198 1.351 . S
C199 N200 1.373 . S
C199 H227 0.930 . S
N200 C199 1.373 . S
N200 C202 1.340 . S
N201 C198 1.368 . S
N201 C202 1.321 . S
N201 Co204 2.135 . S
C202 N200 1.340 . S
C202 N201 1.321 . S
C202 H226 0.930 . S
H203 C198 0.931 . S
Co204 N201 2.135 . S
Co204 N207 2.121 . S
Co204 O212 2.055 . S
Co204 O215 2.039 . S
Co204 N218 2.140 . S
C205 O206 1.227 . S
C205 O215 1.265 . S
O206 C205 1.227 . S
N207 Co204 2.121 . S
N207 C209 1.375 . S
N207 C210 1.313 . S
C208 C209 1.338 . S
C208 N211 1.377 . S
C208 H228 0.930 . S
C209 N207 1.375 . S
C209 C208 1.338 . S
C209 H213 0.931 . S
C210 N207 1.313 . S
C210 N211 1.344 . S
C210 H214 0.930 . S
N211 C208 1.377 . S
N211 C210 1.344 . S
O212 Co204 2.055 . S
O212 C216 1.253 . S
H213 C209 0.931 . S
H214 C210 0.930 . S
O215 Co204 2.039 . S
O215 C205 1.265 . S
C216 O212 1.253 . S
C216 O217 1.227 . S
O217 C216 1.227 . S
N218 Co204 2.140 . S
N218 C221 1.346 . S
N218 C222 1.345 . S
C219 C220 1.387 . S
C219 C223 1.391 . S
C220 C219 1.387 . S
C220 C221 1.369 . S
C220 H229 0.929 . S
C221 N218 1.346 . S
C221 C220 1.369 . S
C221 H224 0.928 . S
C222 N218 1.345 . S
C222 C223 1.371 . S
C222 H225 0.931 . S
C223 C219 1.391 . S
C223 C222 1.371 . S
C223 H230 0.930 . S
H224 C221 0.928 . S
H225 C222 0.931 . S
H226 C202 0.930 . S
H227 C199 0.930 . S
H228 C208 0.930 . S
H229 C220 0.929 . S
H230 C223 0.930 . S
C231 C232 1.351 . S
C231 N234 1.368 . S
C231 H236 0.931 . S
C232 C231 1.351 . S
C232 N233 1.373 . S
C232 H260 0.930 . S
N233 C232 1.373 . S
N233 C235 1.340 . S
N234 C231 1.368 . S
N234 C235 1.321 . S
N234 Co237 2.135 . S
C235 N233 1.340 . S
C235 N234 1.321 . S
C235 H259 0.930 . S
H236 C231 0.931 . S
Co237 N234 2.135 . S
Co237 N240 2.121 . S
Co237 O245 2.055 . S
Co237 O248 2.039 . S
Co237 N251 2.140 . S
C238 O239 1.227 . S
C238 O248 1.265 . S
O239 C238 1.227 . S
N240 Co237 2.121 . S
N240 C242 1.375 . S
N240 C243 1.313 . S
C241 C242 1.338 . S
C241 N244 1.377 . S
C241 H261 0.930 . S
C242 N240 1.375 . S
C242 C241 1.338 . S
C242 H246 0.931 . S
C243 N240 1.313 . S
C243 N244 1.344 . S
C243 H247 0.930 . S
N244 C241 1.377 . S
N244 C243 1.344 . S
O245 Co237 2.055 . S
O245 C249 1.253 . S
H246 C242 0.931 . S
H247 C243 0.930 . S
O248 Co237 2.039 . S
O248 C238 1.265 . S
C249 O245 1.253 . S
C249 O250 1.227 . S
O250 C249 1.227 . S
N251 Co237 2.140 . S
N251 C254 1.346 . S
N251 C255 1.345 . S
C252 C253 1.387 . S
C252 C256 1.391 . S
C253 C252 1.387 . S
C253 C254 1.369 . S
C253 H262 0.929 . S
C254 N251 1.346 . S
C254 C253 1.369 . S
C254 H257 0.928 . S
C255 N251 1.345 . S
C255 C256 1.371 . S
C255 H258 0.931 . S
C256 C252 1.391 . S
C256 C255 1.371 . S
C256 H263 0.930 . S
H257 C254 0.928 . S
H258 C255 0.931 . S
H259 C235 0.930 . S
H260 C232 0.930 . S
H261 C241 0.930 . S
H262 C253 0.929 . S
H263 C256 0.930 . S
C264 C265 1.351 . S
C264 N267 1.368 . S
C264 H269 0.931 . S
C265 C264 1.351 . S
C265 N266 1.373 . S
C265 H293 0.930 . S
N266 C265 1.373 . S
N266 C268 1.340 . S
N267 C264 1.368 . S
N267 C268 1.321 . S
N267 Co270 2.135 . S
C268 N266 1.340 . S
C268 N267 1.321 . S
C268 H292 0.930 . S
H269 C264 0.931 . S
Co270 N267 2.135 . S
Co270 N273 2.121 . S
Co270 O278 2.055 . S
Co270 O281 2.039 . S
Co270 N284 2.140 . S
C271 O272 1.227 . S
C271 O281 1.265 . S
O272 C271 1.227 . S
N273 Co270 2.121 . S
N273 C275 1.375 . S
N273 C276 1.313 . S
C274 C275 1.338 . S
C274 N277 1.377 . S
C274 H294 0.930 . S
C275 N273 1.375 . S
C275 C274 1.338 . S
C275 H279 0.931 . S
C276 N273 1.313 . S
C276 N277 1.344 . S
C276 H280 0.930 . S
N277 C274 1.377 . S
N277 C276 1.344 . S
O278 Co270 2.055 . S
O278 C282 1.253 . S
H279 C275 0.931 . S
H280 C276 0.930 . S
O281 Co270 2.039 . S
O281 C271 1.265 . S
C282 O278 1.253 . S
C282 O283 1.227 . S
O283 C282 1.227 . S
N284 Co270 2.140 . S
N284 C287 1.346 . S
N284 C288 1.345 . S
C285 C286 1.387 . S
C285 C289 1.391 . S
C286 C285 1.387 . S
C286 C287 1.369 . S
C286 H295 0.929 . S
C287 N284 1.346 . S
C287 C286 1.369 . S
C287 H290 0.928 . S
C288 N284 1.345 . S
C288 C289 1.371 . S
C288 H291 0.931 . S
C289 C285 1.391 . S
C289 C288 1.371 . S
C289 H296 0.930 . S
H290 C287 0.928 . S
H291 C288 0.931 . S
H292 C268 0.930 . S
H293 C265 0.930 . S
H294 C274 0.930 . S
H295 C286 0.929 . S
H296 C289 0.930 . S
C297 C298 1.351 . S
C297 N300 1.368 . S
C297 H302 0.931 . S
C298 C297 1.351 . S
C298 N299 1.373 . S
C298 H326 0.930 . S
N299 C298 1.373 . S
N299 C301 1.340 . S
N300 C297 1.368 . S
N300 C301 1.321 . S
N300 Co303 2.135 . S
C301 N299 1.340 . S
C301 N300 1.321 . S
C301 H325 0.930 . S
H302 C297 0.931 . S
Co303 N300 2.135 . S
Co303 N306 2.121 . S
Co303 O311 2.055 . S
Co303 O314 2.039 . S
Co303 N317 2.140 . S
C304 O305 1.227 . S
C304 O314 1.265 . S
O305 C304 1.227 . S
N306 Co303 2.121 . S
N306 C308 1.375 . S
N306 C309 1.313 . S
C307 C308 1.338 . S
C307 N310 1.377 . S
C307 H327 0.930 1_545 S
C308 N306 1.375 . S
C308 C307 1.338 . S
C308 H312 0.931 . S
C309 N306 1.313 . S
C309 N310 1.344 . S
C309 H313 0.930 . S
N310 C307 1.377 . S
N310 C309 1.344 . S
O311 Co303 2.055 . S
O311 C315 1.253 . S
H312 C308 0.931 . S
H313 C309 0.930 . S
O314 Co303 2.039 . S
O314 C304 1.265 . S
C315 O311 1.253 . S
C315 O316 1.227 . S
O316 C315 1.227 . S
N317 Co303 2.140 . S
N317 C320 1.346 . S
N317 C321 1.345 . S
C318 C319 1.387 . S
C318 C322 1.391 . S
C319 C318 1.387 . S
C319 C320 1.369 . S
C319 H328 0.929 . S
C320 N317 1.346 . S
C320 C319 1.369 . S
C320 H323 0.928 . S
C321 N317 1.345 . S
C321 C322 1.371 . S
C321 H324 0.931 . S
C322 C318 1.391 . S
C322 C321 1.371 . S
C322 H329 0.930 1_545 S
H323 C320 0.928 . S
H324 C321 0.931 . S
H325 C301 0.930 . S
H326 C298 0.930 . S
H327 C307 0.930 1_565 S
H328 C319 0.929 . S
H329 C322 0.930 1_565 S
C330 C331 1.351 . S
C330 N333 1.368 . S
C330 H335 0.931 . S
C331 C330 1.351 . S
C331 N332 1.373 . S
C331 H359 0.930 . S
N332 C331 1.373 . S
N332 C334 1.340 . S
N333 C330 1.368 . S
N333 C334 1.321 . S
N333 Co336 2.135 . S
C334 N332 1.340 . S
C334 N333 1.321 . S
C334 H358 0.930 . S
H335 C330 0.931 . S
Co336 N333 2.135 . S
Co336 N339 2.121 . S
Co336 O344 2.055 . S
Co336 O347 2.039 . S
Co336 N350 2.140 . S
C337 O338 1.227 . S
C337 O347 1.265 . S
O338 C337 1.227 . S
N339 Co336 2.121 . S
N339 C341 1.375 . S
N339 C342 1.313 . S
C340 C341 1.338 . S
C340 N343 1.377 . S
C340 H360 0.930 1_655 S
C341 N339 1.375 . S
C341 C340 1.338 . S
C341 H345 0.931 . S
C342 N339 1.313 . S
C342 N343 1.344 . S
C342 H346 0.930 . S
N343 C340 1.377 . S
N343 C342 1.344 . S
O344 Co336 2.055 . S
O344 C348 1.253 . S
H345 C341 0.931 . S
H346 C342 0.930 . S
O347 Co336 2.039 . S
O347 C337 1.265 . S
C348 O344 1.253 . S
C348 O349 1.227 . S
O349 C348 1.227 . S
N350 Co336 2.140 . S
N350 C353 1.346 . S
N350 C354 1.345 . S
C351 C352 1.387 . S
C351 C355 1.391 . S
C352 C351 1.387 . S
C352 C353 1.369 . S
C352 H361 0.929 . S
C353 N350 1.346 . S
C353 C352 1.369 . S
C353 H356 0.928 . S
C354 N350 1.345 . S
C354 C355 1.371 . S
C354 H357 0.931 . S
C355 C351 1.391 . S
C355 C354 1.371 . S
C355 H362 0.930 1_655 S
H356 C353 0.928 . S
H357 C354 0.931 . S
H358 C334 0.930 . S
H359 C331 0.930 . S
H360 C340 0.930 1_455 S
H361 C352 0.929 . S
H362 C355 0.930 1_455 S
C363 C364 1.351 . S
C363 N366 1.368 . S
C363 H368 0.931 . S
C364 C363 1.351 . S
C364 N365 1.373 . S
C364 H392 0.930 . S
N365 C364 1.373 . S
N365 C367 1.340 . S
N366 C363 1.368 . S
N366 C367 1.321 . S
N366 Co369 2.135 . S
C367 N365 1.340 . S
C367 N366 1.321 . S
C367 H391 0.930 . S
H368 C363 0.931 . S
Co369 N366 2.135 . S
Co369 N372 2.121 . S
Co369 O377 2.055 . S
Co369 O380 2.039 . S
Co369 N383 2.140 . S
C370 O371 1.227 . S
C370 O380 1.265 . S
O371 C370 1.227 . S
N372 Co369 2.121 . S
N372 C374 1.375 . S
N372 C375 1.313 . S
C373 C374 1.338 . S
C373 N376 1.377 . S
C373 H393 0.930 . S
C374 N372 1.375 . S
C374 C373 1.338 . S
C374 H378 0.931 . S
C375 N372 1.313 . S
C375 N376 1.344 . S
C375 H379 0.930 . S
N376 C373 1.377 . S
N376 C375 1.344 . S
O377 Co369 2.055 . S
O377 C381 1.253 . S
H378 C374 0.931 . S
H379 C375 0.930 . S
O380 Co369 2.039 . S
O380 C370 1.265 . S
C381 O377 1.253 . S
C381 O382 1.227 . S
O382 C381 1.227 . S
N383 Co369 2.140 . S
N383 C386 1.346 . S
N383 C387 1.345 . S
C384 C385 1.387 . S
C384 C388 1.391 . S
C385 C384 1.387 . S
C385 C386 1.369 . S
C385 H394 0.929 . S
C386 N383 1.346 . S
C386 C385 1.369 . S
C386 H389 0.928 . S
C387 N383 1.345 . S
C387 C388 1.371 . S
C387 H390 0.931 . S
C388 C384 1.391 . S
C388 C387 1.371 . S
C388 H395 0.930 . S
H389 C386 0.928 . S
H390 C387 0.931 . S
H391 C367 0.930 . S
H392 C364 0.930 . S
H393 C373 0.930 . S
H394 C385 0.929 . S
H395 C388 0.930 . S
C396 C397 1.351 . S
C396 N399 1.368 . S
C396 H401 0.931 . S
C397 C396 1.351 . S
C397 N398 1.373 . S
C397 H425 0.930 . S
N398 C397 1.373 . S
N398 C400 1.340 . S
N399 C396 1.368 . S
N399 C400 1.321 . S
N399 Co402 2.135 . S
C400 N398 1.340 . S
C400 N399 1.321 . S
C400 H424 0.930 . S
H401 C396 0.931 . S
Co402 N399 2.135 . S
Co402 N405 2.121 . S
Co402 O410 2.055 . S
Co402 O413 2.039 . S
Co402 N416 2.140 . S
C403 O404 1.227 . S
C403 O413 1.265 . S
O404 C403 1.227 . S
N405 Co402 2.121 . S
N405 C407 1.375 . S
N405 C408 1.313 . S
C406 C407 1.338 . S
C406 N409 1.377 . S
C406 H426 0.930 1_565 S
C407 N405 1.375 . S
C407 C406 1.338 . S
C407 H411 0.931 . S
C408 N405 1.313 . S
C408 N409 1.344 . S
C408 H412 0.930 . S
N409 C406 1.377 . S
N409 C408 1.344 . S
O410 Co402 2.055 . S
O410 C414 1.253 . S
H411 C407 0.931 . S
H412 C408 0.930 . S
O413 Co402 2.039 . S
O413 C403 1.265 . S
C414 O410 1.253 . S
C414 O415 1.227 . S
O415 C414 1.227 . S
N416 Co402 2.140 . S
N416 C419 1.346 . S
N416 C420 1.345 . S
C417 C418 1.387 . S
C417 C421 1.391 . S
C418 C417 1.387 . S
C418 C419 1.369 . S
C418 H427 0.929 . S
C419 N416 1.346 . S
C419 C418 1.369 . S
C419 H422 0.928 . S
C420 N416 1.345 . S
C420 C421 1.371 . S
C420 H423 0.931 . S
C421 C417 1.391 . S
C421 C420 1.371 . S
C421 H428 0.930 1_565 S
H422 C419 0.928 . S
H423 C420 0.931 . S
H424 C400 0.930 . S
H425 C397 0.930 . S
H426 C406 0.930 1_545 S
H427 C418 0.929 . S
H428 C421 0.930 1_545 S
C429 C430 1.351 . S
C429 N432 1.368 . S
C429 H434 0.931 . S
C430 C429 1.351 . S
C430 N431 1.373 . S
C430 H458 0.930 . S
N431 C430 1.373 . S
N431 C433 1.340 . S
N432 C429 1.368 . S
N432 C433 1.321 . S
N432 Co435 2.135 . S
C433 N431 1.340 . S
C433 N432 1.321 . S
C433 H457 0.930 . S
H434 C429 0.931 . S
Co435 N432 2.135 . S
Co435 N438 2.121 . S
Co435 O443 2.055 . S
Co435 O446 2.039 . S
Co435 N449 2.140 . S
C436 O437 1.227 . S
C436 O446 1.265 . S
O437 C436 1.227 . S
N438 Co435 2.121 . S
N438 C440 1.375 . S
N438 C441 1.313 . S
C439 C440 1.338 . S
C439 N442 1.377 . S
C439 H459 0.930 1_455 S
C440 N438 1.375 . S
C440 C439 1.338 . S
C440 H444 0.931 . S
C441 N438 1.313 . S
C441 N442 1.344 . S
C441 H445 0.930 . S
N442 C439 1.377 . S
N442 C441 1.344 . S
O443 Co435 2.055 . S
O443 C447 1.253 . S
H444 C440 0.931 . S
H445 C441 0.930 . S
O446 Co435 2.039 . S
O446 C436 1.265 . S
C447 O443 1.253 . S
C447 O448 1.227 . S
O448 C447 1.227 . S
N449 Co435 2.140 . S
N449 C452 1.346 . S
N449 C453 1.345 . S
C450 C451 1.387 . S
C450 C454 1.391 . S
C451 C450 1.387 . S
C451 C452 1.369 . S
C451 H460 0.929 . S
C452 N449 1.346 . S
C452 C451 1.369 . S
C452 H455 0.928 . S
C453 N449 1.345 . S
C453 C454 1.371 . S
C453 H456 0.931 . S
C454 C450 1.391 . S
C454 C453 1.371 . S
C454 H461 0.930 1_455 S
H455 C452 0.928 . S
H456 C453 0.931 . S
H457 C433 0.930 . S
H458 C430 0.930 . S
H459 C439 0.930 1_655 S
H460 C451 0.929 . S
H461 C454 0.930 1_655 S
C462 C463 1.351 . S
C462 N465 1.368 . S
C462 H467 0.931 . S
C463 C462 1.351 . S
C463 N464 1.373 . S
C463 H491 0.930 . S
N464 C463 1.373 . S
N464 C466 1.340 . S
N465 C462 1.368 . S
N465 C466 1.321 . S
N465 Co468 2.135 . S
C466 N464 1.340 . S
C466 N465 1.321 . S
C466 H490 0.930 . S
H467 C462 0.931 . S
Co468 N465 2.135 . S
Co468 N471 2.121 . S
Co468 O476 2.055 . S
Co468 O479 2.039 . S
Co468 N482 2.140 . S
C469 O470 1.227 . S
C469 O479 1.265 . S
O470 C469 1.227 . S
N471 Co468 2.121 . S
N471 C473 1.375 . S
N471 C474 1.313 . S
C472 C473 1.338 . S
C472 N475 1.377 . S
C472 H492 0.930 . S
C473 N471 1.375 . S
C473 C472 1.338 . S
C473 H477 0.931 . S
C474 N471 1.313 . S
C474 N475 1.344 . S
C474 H478 0.930 . S
N475 C472 1.377 . S
N475 C474 1.344 . S
O476 Co468 2.055 . S
O476 C480 1.253 . S
H477 C473 0.931 . S
H478 C474 0.930 . S
O479 Co468 2.039 . S
O479 C469 1.265 . S
C480 O476 1.253 . S
C480 O481 1.227 . S
O481 C480 1.227 . S
N482 Co468 2.140 . S
N482 C485 1.346 . S
N482 C486 1.345 . S
C483 C484 1.387 . S
C483 C487 1.391 . S
C484 C483 1.387 . S
C484 C485 1.369 . S
C484 H493 0.929 . S
C485 N482 1.346 . S
C485 C484 1.369 . S
C485 H488 0.928 . S
C486 N482 1.345 . S
C486 C487 1.371 . S
C486 H489 0.931 . S
C487 C483 1.391 . S
C487 C486 1.371 . S
C487 H494 0.930 . S
H488 C485 0.928 . S
H489 C486 0.931 . S
H490 C466 0.930 . S
H491 C463 0.930 . S
H492 C472 0.930 . S
H493 C484 0.929 . S
H494 C487 0.930 . S
C495 C496 1.351 . S
C495 N498 1.368 . S
C495 H500 0.931 . S
C496 C495 1.351 . S
C496 N497 1.373 . S
C496 H524 0.930 . S
N497 C496 1.373 . S
N497 C499 1.340 . S
N498 C495 1.368 . S
N498 C499 1.321 . S
N498 Co501 2.135 . S
C499 N497 1.340 . S
C499 N498 1.321 . S
C499 H523 0.930 . S
H500 C495 0.931 . S
Co501 N498 2.135 . S
Co501 N504 2.121 . S
Co501 O509 2.055 . S
Co501 O512 2.039 . S
Co501 N515 2.140 . S
C502 O503 1.227 . S
C502 O512 1.265 . S
O503 C502 1.227 . S
N504 Co501 2.121 . S
N504 C506 1.375 . S
N504 C507 1.313 . S
C505 C506 1.338 . S
C505 N508 1.377 . S
C505 H525 0.930 . S
C506 N504 1.375 . S
C506 C505 1.338 . S
C506 H510 0.931 . S
C507 N504 1.313 . S
C507 N508 1.344 . S
C507 H511 0.930 . S
N508 C505 1.377 . S
N508 C507 1.344 . S
O509 Co501 2.055 . S
O509 C513 1.253 . S
H510 C506 0.931 . S
H511 C507 0.930 . S
O512 Co501 2.039 . S
O512 C502 1.265 . S
C513 O509 1.253 . S
C513 O514 1.227 . S
O514 C513 1.227 . S
N515 Co501 2.140 . S
N515 C518 1.346 . S
N515 C519 1.345 . S
C516 C517 1.387 . S
C516 C520 1.391 . S
C517 C516 1.387 . S
C517 C518 1.369 . S
C517 H526 0.929 . S
C518 N515 1.346 . S
C518 C517 1.369 . S
C518 H521 0.928 . S
C519 N515 1.345 . S
C519 C520 1.371 . S
C519 H522 0.931 . S
C520 C516 1.391 . S
C520 C519 1.371 . S
C520 H527 0.930 . S
H521 C518 0.928 . S
H522 C519 0.931 . S
H523 C499 0.930 . S
H524 C496 0.930 . S
H525 C505 0.930 . S
H526 C517 0.929 . S
H527 C520 0.930 . S
C528 C529 1.351 . S
C528 N531 1.368 . S
C528 H533 0.931 . S
C529 C528 1.351 . S
C529 N530 1.373 . S
C529 H557 0.930 . S
N530 C529 1.373 . S
N530 C532 1.340 . S
N531 C528 1.368 . S
N531 C532 1.321 . S
N531 Co534 2.135 . S
C532 N530 1.340 . S
C532 N531 1.321 . S
C532 H556 0.930 . S
H533 C528 0.931 . S
Co534 N531 2.135 . S
Co534 N537 2.121 . S
Co534 O542 2.055 . S
Co534 O545 2.039 . S
Co534 N548 2.140 . S
C535 O536 1.227 . S
C535 O545 1.265 . S
O536 C535 1.227 . S
N537 Co534 2.121 . S
N537 C539 1.375 . S
N537 C540 1.313 . S
C538 C539 1.338 . S
C538 N541 1.377 . S
C538 H558 0.930 . S
C539 N537 1.375 . S
C539 C538 1.338 . S
C539 H543 0.931 . S
C540 N537 1.313 . S
C540 N541 1.344 . S
C540 H544 0.930 . S
N541 C538 1.377 . S
N541 C540 1.344 . S
O542 Co534 2.055 . S
O542 C546 1.253 . S
H543 C539 0.931 . S
H544 C540 0.930 . S
O545 Co534 2.039 . S
O545 C535 1.265 . S
C546 O542 1.253 . S
C546 O547 1.227 . S
O547 C546 1.227 . S
N548 Co534 2.140 . S
N548 C551 1.346 . S
N548 C552 1.345 . S
C549 C550 1.387 . S
C549 C553 1.391 . S
C550 C549 1.387 . S
C550 C551 1.369 . S
C550 H559 0.929 . S
C551 N548 1.346 . S
C551 C550 1.369 . S
C551 H554 0.928 . S
C552 N548 1.345 . S
C552 C553 1.371 . S
C552 H555 0.931 . S
C553 C549 1.391 . S
C553 C552 1.371 . S
C553 H560 0.930 . S
H554 C551 0.928 . S
H555 C552 0.931 . S
H556 C532 0.930 . S
H557 C529 0.930 . S
H558 C538 0.930 . S
H559 C550 0.929 . S
H560 C553 0.930 . S
C561 C562 1.351 . S
C561 N564 1.368 . S
C561 H566 0.931 . S
C562 C561 1.351 . S
C562 N563 1.373 . S
C562 H590 0.930 . S
N563 C562 1.373 . S
N563 C565 1.340 . S
N564 C561 1.368 . S
N564 C565 1.321 . S
N564 Co567 2.135 . S
C565 N563 1.340 . S
C565 N564 1.321 . S
C565 H589 0.930 . S
H566 C561 0.931 . S
Co567 N564 2.135 . S
Co567 N570 2.121 . S
Co567 O575 2.055 . S
Co567 O578 2.039 . S
Co567 N581 2.140 . S
C568 O569 1.227 . S
C568 O578 1.265 . S
O569 C568 1.227 . S
N570 Co567 2.121 . S
N570 C572 1.375 . S
N570 C573 1.313 . S
C571 C572 1.338 . S
C571 N574 1.377 . S
C571 H591 0.930 . S
C572 N570 1.375 . S
C572 C571 1.338 . S
C572 H576 0.931 . S
C573 N570 1.313 . S
C573 N574 1.344 . S
C573 H577 0.930 . S
N574 C571 1.377 . S
N574 C573 1.344 . S
O575 Co567 2.055 . S
O575 C579 1.253 . S
H576 C572 0.931 . S
H577 C573 0.930 . S
O578 Co567 2.039 . S
O578 C568 1.265 . S
C579 O575 1.253 . S
C579 O580 1.227 . S
O580 C579 1.227 . S
N581 Co567 2.140 . S
N581 C584 1.346 . S
N581 C585 1.345 . S
C582 C583 1.387 . S
C582 C586 1.391 . S
C583 C582 1.387 . S
C583 C584 1.369 . S
C583 H592 0.929 . S
C584 N581 1.346 . S
C584 C583 1.369 . S
C584 H587 0.928 . S
C585 N581 1.345 . S
C585 C586 1.371 . S
C585 H588 0.931 . S
C586 C582 1.391 . S
C586 C585 1.371 . S
C586 H593 0.930 . S
H587 C584 0.928 . S
H588 C585 0.931 . S
H589 C565 0.930 . S
H590 C562 0.930 . S
H591 C571 0.930 . S
H592 C583 0.929 . S
H593 C586 0.930 . S
C594 C595 1.363 . S
C594 C600 1.379 . S
C594 N602 1.356 . S
C595 C594 1.363 . S
C595 C601 1.363 . S
C596 C597 1.363 . S
C596 C601 1.379 . S
C596 N603 1.356 . S
C597 C596 1.363 . S
C597 C600 1.363 . S
N598 C600 1.356 . S
N598 H610 0.984 . S
N598 H611 0.985 . S
N599 C601 1.356 . S
N599 H604 0.984 . S
N599 H605 0.985 . S
C600 C594 1.379 . S
C600 C597 1.363 . S
C600 N598 1.356 . S
C601 C595 1.363 . S
C601 C596 1.379 . S
C601 N599 1.356 . S
N602 C594 1.356 . S
N602 H608 0.984 . S
N602 H609 0.984 . S
N603 C596 1.356 . S
N603 H606 0.984 . S
N603 H607 0.985 . S
H604 N599 0.984 . S
H605 N599 0.985 . S
H606 N603 0.984 . S
H607 N603 0.985 . S
H608 N602 0.984 . S
H609 N602 0.984 . S
H610 N598 0.984 . S
H611 N598 0.985 . S
C612 C613 1.363 . S
C612 C618 1.379 . S
C612 N620 1.356 . S
C613 C612 1.363 . S
C613 C619 1.363 . S
C614 C615 1.363 . S
C614 C619 1.379 . S
C614 N621 1.356 . S
C615 C614 1.363 . S
C615 C618 1.363 . S
N616 C618 1.356 . S
N616 H628 0.984 . S
N616 H629 0.985 . S
N617 C619 1.356 1_565 S
N617 H622 0.984 . S
N617 H623 0.985 . S
C618 C612 1.379 . S
C618 C615 1.363 . S
C618 N616 1.356 . S
C619 C613 1.363 . S
C619 C614 1.379 . S
C619 N617 1.356 1_545 S
N620 C612 1.356 . S
N620 H626 0.984 . S
N620 H627 0.984 . S
N621 C614 1.356 . S
N621 H624 0.984 . S
N621 H625 0.985 . S
H622 N617 0.984 . S
H623 N617 0.985 . S
H624 N621 0.984 . S
H625 N621 0.985 . S
H626 N620 0.984 . S
H627 N620 0.984 . S
H628 N616 0.984 . S
H629 N616 0.985 . S
C630 C631 1.363 . S
C630 C636 1.379 . S
C630 N638 1.356 1_655 S
C631 C630 1.363 . S
C631 C637 1.363 . S
C632 C633 1.363 . S
C632 C637 1.379 . S
C632 N639 1.356 . S
C633 C632 1.363 . S
C633 C636 1.363 . S
N634 C636 1.356 . S
N634 H646 0.984 . S
N634 H647 0.985 . S
N635 C637 1.356 . S
N635 H640 0.984 . S
N635 H641 0.985 . S
C636 C630 1.379 . S
C636 C633 1.363 . S
C636 N634 1.356 . S
C637 C631 1.363 . S
C637 C632 1.379 . S
C637 N635 1.356 . S
N638 C630 1.356 1_455 S
N638 H644 0.984 . S
N638 H645 0.984 . S
N639 C632 1.356 . S
N639 H642 0.984 . S
N639 H643 0.985 . S
H640 N635 0.984 . S
H641 N635 0.985 . S
H642 N639 0.984 . S
H643 N639 0.985 . S
H644 N638 0.984 . S
H645 N638 0.984 . S
H646 N634 0.984 . S
H647 N634 0.985 . S
C648 C649 1.363 . S
C648 C654 1.379 . S
C648 N656 1.356 . S
C649 C648 1.363 . S
C649 C655 1.363 . S
C650 C651 1.363 . S
C650 C655 1.379 . S
C650 N657 1.356 . S
C651 C650 1.363 . S
C651 C654 1.363 . S
N652 C654 1.356 . S
N652 H664 0.984 . S
N652 H665 0.985 . S
N653 C655 1.356 . S
N653 H658 0.984 . S
N653 H659 0.985 . S
C654 C648 1.379 . S
C654 C651 1.363 . S
C654 N652 1.356 . S
C655 C649 1.363 . S
C655 C650 1.379 . S
C655 N653 1.356 . S
N656 C648 1.356 . S
N656 H662 0.984 . S
N656 H663 0.984 . S
N657 C650 1.356 . S
N657 H660 0.984 . S
N657 H661 0.985 . S
H658 N653 0.984 . S
H659 N653 0.985 . S
H660 N657 0.984 . S
H661 N657 0.985 . S
H662 N656 0.984 . S
H663 N656 0.984 . S
H664 N652 0.984 . S
H665 N652 0.985 . S
C666 C667 1.363 . S
C666 C672 1.379 . S
C666 N674 1.356 1_565 S
C667 C666 1.363 . S
C667 C673 1.363 . S
C668 C669 1.363 . S
C668 C673 1.379 . S
C668 N675 1.356 . S
C669 C668 1.363 . S
C669 C672 1.363 . S
N670 C672 1.356 . S
N670 H682 0.984 . S
N670 H683 0.985 . S
N671 C673 1.356 . S
N671 H676 0.984 . S
N671 H677 0.985 . S
C672 C666 1.379 . S
C672 C669 1.363 . S
C672 N670 1.356 . S
C673 C667 1.363 . S
C673 C668 1.379 . S
C673 N671 1.356 . S
N674 C666 1.356 1_545 S
N674 H680 0.984 . S
N674 H681 0.984 . S
N675 C668 1.356 . S
N675 H678 0.984 . S
N675 H679 0.985 . S
H676 N671 0.984 . S
H677 N671 0.985 . S
H678 N675 0.984 . S
H679 N675 0.985 . S
H680 N674 0.984 . S
H681 N674 0.984 . S
H682 N670 0.984 . S
H683 N670 0.985 . S
C684 C685 1.363 . S
C684 C690 1.379 . S
C684 N692 1.356 . S
C685 C684 1.363 . S
C685 C691 1.363 . S
C686 C687 1.363 . S
C686 C691 1.379 . S
C686 N693 1.356 . S
C687 C686 1.363 . S
C687 C690 1.363 . S
N688 C690 1.356 . S
N688 H700 0.984 . S
N688 H701 0.985 . S
N689 C691 1.356 1_655 S
N689 H694 0.984 . S
N689 H695 0.985 . S
C690 C684 1.379 . S
C690 C687 1.363 . S
C690 N688 1.356 . S
C691 C685 1.363 . S
C691 C686 1.379 . S
C691 N689 1.356 1_455 S
N692 C684 1.356 . S
N692 H698 0.984 . S
N692 H699 0.984 . S
N693 C686 1.356 . S
N693 H696 0.984 . S
N693 H697 0.985 . S
H694 N689 0.984 . S
H695 N689 0.985 . S
H696 N693 0.984 . S
H697 N693 0.985 . S
H698 N692 0.984 . S
H699 N692 0.984 . S
H700 N688 0.984 . S
H701 N688 0.985 . S
C702 C703 1.363 . S
C702 C708 1.379 . S
C702 N710 1.356 . S
C703 C702 1.363 . S
C703 C709 1.363 . S
C704 C705 1.363 . S
C704 C709 1.379 . S
C704 N711 1.356 . S
C705 C704 1.363 . S
C705 C708 1.363 . S
N706 C708 1.356 1_455 S
N706 H718 0.984 . S
N706 H719 0.985 . S
N707 C709 1.356 . S
N707 H712 0.984 . S
N707 H713 0.985 . S
C708 C702 1.379 . S
C708 C705 1.363 . S
C708 N706 1.356 1_655 S
C709 C703 1.363 . S
C709 C704 1.379 . S
C709 N707 1.356 . S
N710 C702 1.356 . S
N710 H716 0.984 . S
N710 H717 0.984 . S
N711 C704 1.356 . S
N711 H714 0.984 . S
N711 H715 0.985 . S
H712 N707 0.984 . S
H713 N707 0.985 . S
H714 N711 0.984 . S
H715 N711 0.985 . S
H716 N710 0.984 . S
H717 N710 0.984 . S
H718 N706 0.984 . S
H719 N706 0.985 . S
C720 C721 1.363 . S
C720 C726 1.379 . S
C720 N728 1.356 . S
C721 C720 1.363 . S
C721 C727 1.363 . S
C722 C723 1.363 . S
C722 C727 1.379 . S
C722 N729 1.356 . S
C723 C722 1.363 . S
C723 C726 1.363 . S
N724 C726 1.356 . S
N724 H736 0.984 . S
N724 H737 0.985 . S
N725 C727 1.356 . S
N725 H730 0.984 . S
N725 H731 0.985 . S
C726 C720 1.379 . S
C726 C723 1.363 . S
C726 N724 1.356 . S
C727 C721 1.363 . S
C727 C722 1.379 . S
C727 N725 1.356 . S
N728 C720 1.356 . S
N728 H734 0.984 . S
N728 H735 0.984 . S
N729 C722 1.356 . S
N729 H732 0.984 . S
N729 H733 0.985 . S
H730 N725 0.984 . S
H731 N725 0.985 . S
H732 N729 0.984 . S
H733 N729 0.985 . S
H734 N728 0.984 . S
H735 N728 0.984 . S
H736 N724 0.984 . S
H737 N724 0.985 . S
C738 C739 1.363 . S
C738 C744 1.379 . S
C738 N746 1.356 . S
C739 C738 1.363 . S
C739 C745 1.363 . S
C740 C741 1.363 . S
C740 C745 1.379 . S
C740 N747 1.356 . S
C741 C740 1.363 . S
C741 C744 1.363 . S
N742 C744 1.356 . S
N742 H754 0.984 . S
N742 H755 0.985 . S
N743 C745 1.356 1_565 S
N743 H748 0.984 . S
N743 H749 0.985 . S
C744 C738 1.379 . S
C744 C741 1.363 . S
C744 N742 1.356 . S
C745 C739 1.363 . S
C745 C740 1.379 . S
C745 N743 1.356 1_545 S
N746 C738 1.356 . S
N746 H752 0.984 . S
N746 H753 0.984 . S
N747 C740 1.356 . S
N747 H750 0.984 . S
N747 H751 0.985 . S
H748 N743 0.984 . S
H749 N743 0.985 . S
H750 N747 0.984 . S
H751 N747 0.985 . S
H752 N746 0.984 . S
H753 N746 0.984 . S
H754 N742 0.984 . S
H755 N742 0.985 . S
C756 C757 1.363 . S
C756 C762 1.379 . S
C756 N764 1.356 . S
C757 C756 1.363 . S
C757 C763 1.363 . S
C758 C759 1.363 . S
C758 C763 1.379 . S
C758 N765 1.356 1_554 S
C759 C758 1.363 . S
C759 C762 1.363 . S
N760 C762 1.356 . S
N760 H772 0.984 . S
N760 H773 0.985 . S
N761 C763 1.356 . S
N761 H766 0.984 . S
N761 H767 0.985 1_554 S
C762 C756 1.379 . S
C762 C759 1.363 . S
C762 N760 1.356 . S
C763 C757 1.363 . S
C763 C758 1.379 . S
C763 N761 1.356 . S
N764 C756 1.356 . S
N764 H770 0.984 . S
N764 H771 0.984 . S
N765 C758 1.356 1_556 S
N765 H768 0.984 . S
N765 H769 0.985 . S
H766 N761 0.984 . S
H767 N761 0.985 1_556 S
H768 N765 0.984 . S
H769 N765 0.985 . S
H770 N764 0.984 . S
H771 N764 0.984 . S
H772 N760 0.984 . S
H773 N760 0.985 . S
C774 C775 1.363 . S
C774 C780 1.379 . S
C774 N782 1.356 . S
C775 C774 1.363 . S
C775 C781 1.363 . S
C776 C777 1.363 . S
C776 C781 1.379 . S
C776 N783 1.356 . S
C777 C776 1.363 . S
C777 C780 1.363 . S
N778 C780 1.356 1_556 S
N778 H790 0.984 . S
N778 H791 0.985 . S
N779 C781 1.356 . S
N779 H784 0.984 . S
N779 H785 0.985 . S
C780 C774 1.379 . S
C780 C777 1.363 . S
C780 N778 1.356 1_554 S
C781 C775 1.363 . S
C781 C776 1.379 . S
C781 N779 1.356 . S
N782 C774 1.356 . S
N782 H788 0.984 1_554 S
N782 H789 0.984 . S
N783 C776 1.356 . S
N783 H786 0.984 . S
N783 H787 0.985 . S
H784 N779 0.984 . S
H785 N779 0.985 . S
H786 N783 0.984 . S
H787 N783 0.985 . S
H788 N782 0.984 1_556 S
H789 N782 0.984 . S
H790 N778 0.984 . S
H791 N778 0.985 . S
C792 C793 1.363 . S
C792 C798 1.379 . S
C792 N800 1.356 . S
C793 C792 1.363 . S
C793 C799 1.363 . S
C794 C795 1.363 . S
C794 C799 1.379 . S
C794 N801 1.356 . S
C795 C794 1.363 . S
C795 C798 1.363 . S
N796 C798 1.356 1_556 S
N796 H808 0.984 . S
N796 H809 0.985 . S
N797 C799 1.356 . S
N797 H802 0.984 . S
N797 H803 0.985 . S
C798 C792 1.379 . S
C798 C795 1.363 . S
C798 N796 1.356 1_554 S
C799 C793 1.363 . S
C799 C794 1.379 . S
C799 N797 1.356 . S
N800 C792 1.356 . S
N800 H806 0.984 1_554 S
N800 H807 0.984 . S
N801 C794 1.356 . S
N801 H804 0.984 . S
N801 H805 0.985 . S
H802 N797 0.984 . S
H803 N797 0.985 . S
H804 N801 0.984 . S
H805 N801 0.985 . S
H806 N800 0.984 1_556 S
H807 N800 0.984 . S
H808 N796 0.984 . S
H809 N796 0.985 . S
C810 C811 1.363 . S
C810 C816 1.379 . S
C810 N818 1.356 . S
C811 C810 1.363 . S
C811 C817 1.363 . S
C812 C813 1.363 . S
C812 C817 1.379 . S
C812 N819 1.356 . S
C813 C812 1.363 . S
C813 C816 1.363 . S
N814 C816 1.356 1_554 S
N814 H826 0.984 . S
N814 H827 0.985 . S
N815 C817 1.356 . S
N815 H820 0.984 . S
N815 H821 0.985 . S
C816 C810 1.379 . S
C816 C813 1.363 . S
C816 N814 1.356 1_556 S
C817 C811 1.363 . S
C817 C812 1.379 . S
C817 N815 1.356 . S
N818 C810 1.356 . S
N818 H824 0.984 . S
N818 H825 0.984 . S
N819 C812 1.356 . S
N819 H822 0.984 . S
N819 H823 0.985 . S
H820 N815 0.984 . S
H821 N815 0.985 . S
H822 N819 0.984 . S
H823 N819 0.985 . S
H824 N818 0.984 . S
H825 N818 0.984 . S
H826 N814 0.984 . S
H827 N814 0.985 . S
C828 C829 1.363 . S
C828 C834 1.379 . S
C828 N836 1.356 . S
C829 C828 1.363 . S
C829 C835 1.363 . S
C830 C831 1.363 . S
C830 C835 1.379 . S
C830 N837 1.356 1_556 S
C831 C830 1.363 . S
C831 C834 1.363 . S
N832 C834 1.356 . S
N832 H844 0.984 . S
N832 H845 0.985 . S
N833 C835 1.356 . S
N833 H838 0.984 . S
N833 H839 0.985 . S
C834 C828 1.379 . S
C834 C831 1.363 . S
C834 N832 1.356 . S
C835 C829 1.363 . S
C835 C830 1.379 . S
C835 N833 1.356 . S
N836 C828 1.356 . S
N836 H842 0.984 . S
N836 H843 0.984 . S
N837 C830 1.356 1_554 S
N837 H840 0.984 . S
N837 H841 0.985 . S
H838 N833 0.984 . S
H839 N833 0.985 . S
H840 N837 0.984 . S
H841 N837 0.985 . S
H842 N836 0.984 . S
H843 N836 0.984 . S
H844 N832 0.984 . S
H845 N832 0.985 . S
C846 C847 1.363 . S
C846 C852 1.379 . S
C846 N854 1.356 1_556 S
C847 C846 1.363 . S
C847 C853 1.363 . S
C848 C849 1.363 . S
C848 C853 1.379 . S
C848 N855 1.356 . S
C849 C848 1.363 . S
C849 C852 1.363 . S
N850 C852 1.356 . S
N850 H862 0.984 . S
N850 H863 0.985 . S
N851 C853 1.356 . S
N851 H856 0.984 . S
N851 H857 0.985 . S
C852 C846 1.379 . S
C852 C849 1.363 . S
C852 N850 1.356 . S
C853 C847 1.363 . S
C853 C848 1.379 . S
C853 N851 1.356 . S
N854 C846 1.356 1_554 S
N854 H860 0.984 . S
N854 H861 0.984 . S
N855 C848 1.356 . S
N855 H858 0.984 . S
N855 H859 0.985 . S
H856 N851 0.984 . S
H857 N851 0.985 . S
H858 N855 0.984 . S
H859 N855 0.985 . S
H860 N854 0.984 . S
H861 N854 0.984 . S
H862 N850 0.984 . S
H863 N850 0.985 . S
C864 C865 1.363 . S
C864 C870 1.379 . S
C864 N872 1.356 . S
C865 C864 1.363 . S
C865 C871 1.363 . S
C866 C867 1.363 . S
C866 C871 1.379 . S
C866 N873 1.356 . S
C867 C866 1.363 . S
C867 C870 1.363 . S
N868 C870 1.356 . S
N868 H880 0.984 . S
N868 H881 0.985 . S
N869 C871 1.356 1_655 S
N869 H874 0.984 . S
N869 H875 0.985 . S
C870 C864 1.379 . S
C870 C867 1.363 . S
C870 N868 1.356 . S
C871 C865 1.363 . S
C871 C866 1.379 . S
C871 N869 1.356 1_455 S
N872 C864 1.356 . S
N872 H878 0.984 . S
N872 H879 0.984 . S
N873 C866 1.356 . S
N873 H876 0.984 . S
N873 H877 0.985 . S
H874 N869 0.984 . S
H875 N869 0.985 . S
H876 N873 0.984 . S
H877 N873 0.985 . S
H878 N872 0.984 . S
H879 N872 0.984 . S
H880 N868 0.984 . S
H881 N868 0.985 . S
C882 C883 1.363 . S
C882 C888 1.379 . S
C882 N890 1.356 . S
C883 C882 1.363 . S
C883 C889 1.363 . S
C884 C885 1.363 . S
C884 C889 1.379 . S
C884 N891 1.356 . S
C885 C884 1.363 . S
C885 C888 1.363 . S
N886 C888 1.356 . S
N886 H898 0.984 . S
N886 H899 0.985 . S
N887 C889 1.356 . S
N887 H892 0.984 . S
N887 H893 0.985 . S
C888 C882 1.379 . S
C888 C885 1.363 . S
C888 N886 1.356 . S
C889 C883 1.363 . S
C889 C884 1.379 . S
C889 N887 1.356 . S
N890 C882 1.356 . S
N890 H896 0.984 . S
N890 H897 0.984 . S
N891 C884 1.356 . S
N891 H894 0.984 . S
N891 H895 0.985 . S
H892 N887 0.984 . S
H893 N887 0.985 . S
H894 N891 0.984 . S
H895 N891 0.985 . S
H896 N890 0.984 . S
H897 N890 0.984 . S
H898 N886 0.984 . S
H899 N886 0.985 . S
C900 C901 1.363 . S
C900 C906 1.379 . S
C900 N908 1.356 . S
C901 C900 1.363 . S
C901 C907 1.363 . S
C902 C903 1.363 . S
C902 C907 1.379 . S
C902 N909 1.356 . S
C903 C902 1.363 . S
C903 C906 1.363 . S
N904 C906 1.358 1_545 S
N904 H916 0.984 . S
N904 H917 0.984 . S
N905 C907 1.356 . S
N905 H910 0.984 . S
N905 H911 0.985 . S
C906 C900 1.379 . S
C906 C903 1.363 . S
C906 N904 1.358 1_565 S
C907 C901 1.363 . S
C907 C902 1.379 . S
C907 N905 1.356 . S
N908 C900 1.356 . S
N908 H914 0.984 . S
N908 H915 0.984 . S
N909 C902 1.356 . S
N909 H912 0.984 . S
N909 H913 0.985 . S
H910 N905 0.984 . S
H911 N905 0.985 . S
H912 N909 0.984 . S
H913 N909 0.985 . S
H914 N908 0.984 . S
H915 N908 0.984 . S
H916 N904 0.984 . S
H917 N904 0.984 . S
C918 C919 1.363 . S
C918 C924 1.379 . S
C918 N926 1.356 . S
C919 C918 1.363 . S
C919 C925 1.363 . S
C920 C921 1.363 . S
C920 C925 1.379 . S
C920 N927 1.356 . S
C921 C920 1.363 . S
C921 C924 1.363 . S
N922 C924 1.356 . S
N922 H934 0.984 . S
N922 H935 0.985 . S
N923 C925 1.356 . S
N923 H928 0.984 . S
N923 H929 0.985 . S
C924 C918 1.379 . S
C924 C921 1.363 . S
C924 N922 1.356 . S
C925 C919 1.363 . S
C925 C920 1.379 . S
C925 N923 1.356 . S
N926 C918 1.356 . S
N926 H932 0.984 . S
N926 H933 0.984 . S
N927 C920 1.356 . S
N927 H930 0.984 . S
N927 H931 0.985 . S
H928 N923 0.984 . S
H929 N923 0.985 . S
H930 N927 0.984 . S
H931 N927 0.985 . S
H932 N926 0.984 . S
H933 N926 0.984 . S
H934 N922 0.984 . S
H935 N922 0.985 . S
C936 C937 1.363 . S
C936 C942 1.379 . S
C936 N944 1.356 . S
C937 C936 1.363 . S
C937 C943 1.363 . S
C938 C939 1.363 . S
C938 C943 1.379 . S
C938 N945 1.356 . S
C939 C938 1.363 . S
C939 C942 1.363 . S
N940 C942 1.356 . S
N940 H952 0.984 . S
N940 H953 0.985 . S
N941 C943 1.356 . S
N941 H946 0.984 . S
N941 H947 0.985 . S
C942 C936 1.379 . S
C942 C939 1.363 . S
C942 N940 1.356 . S
C943 C937 1.363 . S
C943 C938 1.379 . S
C943 N941 1.356 . S
N944 C936 1.356 . S
N944 H950 0.984 . S
N944 H951 0.984 . S
N945 C938 1.356 . S
N945 H948 0.984 . S
N945 H949 0.985 . S
H946 N941 0.984 . S
H947 N941 0.985 . S
H948 N945 0.984 . S
H949 N945 0.985 . S
H950 N944 0.984 . S
H951 N944 0.984 . S
H952 N940 0.984 . S
H953 N940 0.985 . S
C954 C955 1.363 . S
C954 C960 1.379 . S
C954 N962 1.356 . S
C955 C954 1.363 . S
C955 C961 1.363 . S
C956 C957 1.363 . S
C956 C961 1.379 . S
C956 N963 1.356 . S
C957 C956 1.363 . S
C957 C960 1.363 . S
N958 C960 1.356 . S
N958 H970 0.984 . S
N958 H971 0.985 . S
N959 C961 1.356 . S
N959 H964 0.984 . S
N959 H965 0.985 . S
C960 C954 1.379 . S
C960 C957 1.363 . S
C960 N958 1.356 . S
C961 C955 1.363 . S
C961 C956 1.379 . S
C961 N959 1.356 . S
N962 C954 1.356 . S
N962 H968 0.984 . S
N962 H969 0.984 . S
N963 C956 1.356 . S
N963 H966 0.984 . S
N963 H967 0.985 . S
H964 N959 0.984 . S
H965 N959 0.985 . S
H966 N963 0.984 . S
H967 N963 0.985 . S
H968 N962 0.984 . S
H969 N962 0.984 . S
H970 N958 0.984 . S
H971 N958 0.985 . S
C972 C973 1.363 . S
C972 C978 1.379 . S
C972 N980 1.356 . S
C973 C972 1.363 . S
C973 C979 1.363 . S
C974 C975 1.363 . S
C974 C979 1.379 . S
C974 N981 1.356 . S
C975 C974 1.363 . S
C975 C978 1.363 . S
N976 C978 1.356 . S
N976 H988 0.984 . S
N976 H989 0.985 . S
N977 C979 1.356 . S
N977 H982 0.984 . S
N977 H983 0.985 . S
C978 C972 1.379 . S
C978 C975 1.363 . S
C978 N976 1.356 . S
C979 C973 1.363 . S
C979 C974 1.379 . S
C979 N977 1.356 . S
N980 C972 1.356 . S
N980 H986 0.984 . S
N980 H987 0.984 . S
N981 C974 1.356 . S
N981 H984 0.984 . S
N981 H985 0.985 . S
H982 N977 0.984 . S
H983 N977 0.985 . S
H984 N981 0.984 . S
H985 N981 0.985 . S
H986 N980 0.984 . S
H987 N980 0.984 . S
H988 N976 0.984 . S
H989 N976 0.985 . S
C990 C991 1.363 . S
C990 C996 1.379 . S
C990 N998 1.356 . S
C991 C990 1.363 . S
C991 C997 1.363 . S
C992 C993 1.363 . S
C992 C997 1.379 . S
C992 N999 1.356 . S
C993 C992 1.363 . S
C993 C996 1.363 . S
N994 C996 1.356 . S
N994 H1006 0.984 . S
N994 H1007 0.985 . S
N995 C997 1.356 . S
N995 H1000 0.984 . S
N995 H1001 0.985 . S
C996 C990 1.379 . S
C996 C993 1.363 . S
C996 N994 1.356 . S
C997 C991 1.363 . S
C997 C992 1.379 . S
C997 N995 1.356 . S
N998 C990 1.356 . S
N998 H1004 0.984 . S
N998 H1005 0.984 . S
N999 C992 1.356 . S
N999 H1002 0.984 . S
N999 H1003 0.985 . S
H1000 N995 0.984 . S
H1001 N995 0.985 . S
H1002 N999 0.984 . S
H1003 N999 0.985 . S
H1004 N998 0.984 . S
H1005 N998 0.984 . S
H1006 N994 0.984 . S
H1007 N994 0.985 . S
C1008 C1009 1.363 . S
C1008 C1014 1.379 . S
C1008 N1016 1.356 . S
C1009 C1008 1.363 . S
C1009 C1015 1.363 . S
C1010 C1011 1.363 . S
C1010 C1015 1.379 . S
C1010 N1017 1.356 . S
C1011 C1010 1.363 . S
C1011 C1014 1.363 . S
N1012 C1014 1.356 . S
N1012 H1024 0.984 . S
N1012 H1025 0.985 . S
N1013 C1015 1.356 . S
N1013 H1018 0.984 . S
N1013 H1019 0.985 . S
C1014 C1008 1.379 . S
C1014 C1011 1.363 . S
C1014 N1012 1.356 . S
C1015 C1009 1.363 . S
C1015 C1010 1.379 . S
C1015 N1013 1.356 . S
N1016 C1008 1.356 . S
N1016 H1022 0.984 . S
N1016 H1023 0.984 . S
N1017 C1010 1.356 . S
N1017 H1020 0.984 . S
N1017 H1021 0.985 . S
H1018 N1013 0.984 . S
H1019 N1013 0.985 . S
H1020 N1017 0.984 . S
H1021 N1017 0.985 . S
H1022 N1016 0.984 . S
H1023 N1016 0.984 . S
H1024 N1012 0.984 . S
H1025 N1012 0.985 . S
C1026 C1027 1.363 . S
C1026 C1032 1.379 1_554 S
C1026 N1034 1.356 . S
C1027 C1026 1.363 . S
C1027 C1033 1.363 1_545 S
C1028 C1029 1.363 . S
C1028 C1033 1.379 1_556 S
C1028 N1035 1.356 . S
C1029 C1028 1.363 . S
C1029 C1032 1.363 1_565 S
N1030 C1032 1.360 1_565 S
N1030 H1042 0.967 1_565 S
N1030 H1043 0.999 . S
N1031 C1033 1.360 1_545 S
N1031 H1036 0.999 . S
N1031 H1037 0.967 1_545 S
C1032 C1026 1.379 1_556 S
C1032 C1029 1.363 1_545 S
C1032 N1030 1.360 1_545 S
C1033 C1027 1.363 1_565 S
C1033 C1028 1.379 1_554 S
C1033 N1031 1.360 1_565 S
N1034 C1026 1.356 . S
N1034 H1040 0.984 . S
N1034 H1041 0.984 . S
N1035 C1028 1.356 . S
N1035 H1038 0.984 . S
N1035 H1039 0.985 . S
H1036 N1031 0.999 . S
H1037 N1031 0.967 1_565 S
H1038 N1035 0.984 . S
H1039 N1035 0.985 . S
H1040 N1034 0.984 . S
H1041 N1034 0.984 . S
H1042 N1030 0.967 1_545 S
H1043 N1030 0.999 . S
C1044 C1045 1.363 1_655 S
C1044 C1050 1.379 1_556 S
C1044 N1052 1.356 . S
C1045 C1044 1.363 1_455 S
C1045 C1051 1.363 . S
C1046 C1047 1.363 1_455 S
C1046 C1051 1.379 1_554 S
C1046 N1053 1.356 . S
C1047 C1046 1.363 1_655 S
C1047 C1050 1.363 . S
N1048 C1050 1.356 . S
N1048 H1060 0.984 . S
N1048 H1061 0.985 . S
N1049 C1051 1.356 . S
N1049 H1054 0.984 . S
N1049 H1055 0.985 . S
C1050 C1044 1.379 1_554 S
C1050 C1047 1.363 . S
C1050 N1048 1.356 . S
C1051 C1045 1.363 . S
C1051 C1046 1.379 1_556 S
C1051 N1049 1.356 . S
N1052 C1044 1.356 . S
N1052 H1058 0.984 . S
N1052 H1059 0.984 . S
N1053 C1046 1.356 . S
N1053 H1056 0.984 . S
N1053 H1057 0.985 . S
H1054 N1049 0.984 . S
H1055 N1049 0.985 . S
H1056 N1053 0.984 . S
H1057 N1053 0.985 . S
H1058 N1052 0.984 . S
H1059 N1052 0.984 . S
H1060 N1048 0.984 . S
H1061 N1048 0.985 . S
C1062 C1063 1.363 . S
C1062 C1068 1.379 1_556 S
C1062 N1070 1.356 . S
C1063 C1062 1.363 . S
C1063 C1069 1.363 . S
C1064 C1065 1.363 . S
C1064 C1069 1.379 1_554 S
C1064 N1071 1.356 . S
C1065 C1064 1.363 . S
C1065 C1068 1.363 . S
N1066 C1068 1.356 . S
N1066 H1078 0.984 . S
N1066 H1079 0.985 . S
N1067 C1069 1.356 . S
N1067 H1072 0.984 . S
N1067 H1073 0.985 . S
C1068 C1062 1.379 1_554 S
C1068 C1065 1.363 . S
C1068 N1066 1.356 . S
C1069 C1063 1.363 . S
C1069 C1064 1.379 1_556 S
C1069 N1067 1.356 . S
N1070 C1062 1.356 . S
N1070 H1076 0.984 . S
N1070 H1077 0.984 . S
N1071 C1064 1.356 . S
N1071 H1074 0.984 . S
N1071 H1075 0.985 . S
H1072 N1067 0.984 . S
H1073 N1067 0.985 . S
H1074 N1071 0.984 . S
H1075 N1071 0.985 . S
H1076 N1070 0.984 . S
H1077 N1070 0.984 . S
H1078 N1066 0.984 . S
H1079 N1066 0.985 . S
C1080 C1081 1.363 . S
C1080 C1086 1.379 . S
C1080 N1088 1.356 . S
C1081 C1080 1.363 . S
C1081 C1087 1.363 1_556 S
C1082 C1083 1.363 . S
C1082 C1087 1.379 1_556 S
C1082 N1089 1.356 1_556 S
C1083 C1082 1.363 . S
C1083 C1086 1.363 . S
N1084 C1086 1.356 . S
N1084 H1096 0.984 . S
N1084 H1097 0.985 . S
N1085 C1087 1.356 . S
N1085 H1090 0.984 . S
N1085 H1091 0.985 . S
C1086 C1080 1.379 . S
C1086 C1083 1.363 . S
C1086 N1084 1.356 . S
C1087 C1081 1.363 1_554 S
C1087 C1082 1.379 1_554 S
C1087 N1085 1.356 . S
N1088 C1080 1.356 . S
N1088 H1094 0.984 . S
N1088 H1095 0.984 . S
N1089 C1082 1.356 1_554 S
N1089 H1092 0.984 1_554 S
N1089 H1093 0.985 . S
H1090 N1085 0.984 . S
H1091 N1085 0.985 . S
H1092 N1089 0.984 1_556 S
H1093 N1089 0.985 . S
H1094 N1088 0.984 . S
H1095 N1088 0.984 . S
H1096 N1084 0.984 . S
H1097 N1084 0.985 . S
C1098 C1099 1.363 . S
C1098 C1104 1.379 . S
C1098 N1106 1.356 . S
C1099 C1098 1.363 . S
C1099 C1105 1.363 . S
C1100 C1101 1.363 1_554 S
C1100 C1105 1.379 1_554 S
C1100 N1107 1.356 . S
C1101 C1100 1.363 1_556 S
C1101 C1104 1.363 . S
N1102 C1104 1.356 . S
N1102 H1114 0.984 . S
N1102 H1115 0.985 . S
N1103 C1105 1.356 1_554 S
N1103 H1108 0.984 1_554 S
N1103 H1109 0.985 . S
C1104 C1098 1.379 . S
C1104 C1101 1.363 . S
C1104 N1102 1.356 . S
C1105 C1099 1.363 . S
C1105 C1100 1.379 1_556 S
C1105 N1103 1.356 1_556 S
N1106 C1098 1.356 . S
N1106 H1112 0.984 . S
N1106 H1113 0.984 . S
N1107 C1100 1.356 . S
N1107 H1110 0.984 . S
N1107 H1111 0.985 . S
H1108 N1103 0.984 1_556 S
H1109 N1103 0.985 . S
H1110 N1107 0.984 . S
H1111 N1107 0.985 . S
H1112 N1106 0.984 . S
H1113 N1106 0.984 . S
H1114 N1102 0.984 . S
H1115 N1102 0.985 . S
C1116 C1117 1.363 . S
C1116 C1122 1.379 . S
C1116 N1124 1.356 . S
C1117 C1116 1.363 . S
C1117 C1123 1.363 . S
C1118 C1119 1.363 . S
C1118 C1123 1.379 . S
C1118 N1125 1.356 . S
C1119 C1118 1.363 . S
C1119 C1122 1.363 . S
N1120 C1122 1.356 . S
N1120 H1132 0.984 . S
N1120 H1133 0.985 . S
N1121 C1123 1.356 1_554 S
N1121 H1126 0.984 . S
N1121 H1127 0.985 . S
C1122 C1116 1.379 . S
C1122 C1119 1.363 . S
C1122 N1120 1.356 . S
C1123 C1117 1.363 . S
C1123 C1118 1.379 . S
C1123 N1121 1.356 1_556 S
N1124 C1116 1.356 . S
N1124 H1130 0.984 . S
N1124 H1131 0.984 . S
N1125 C1118 1.356 . S
N1125 H1128 0.984 . S
N1125 H1129 0.985 . S
H1126 N1121 0.984 . S
H1127 N1121 0.985 . S
H1128 N1125 0.984 . S
H1129 N1125 0.985 . S
H1130 N1124 0.984 . S
H1131 N1124 0.984 . S
H1132 N1120 0.984 . S
H1133 N1120 0.985 . S
C1134 C1135 1.363 . S
C1134 C1140 1.379 . S
C1134 N1142 1.356 . S
C1135 C1134 1.363 . S
C1135 C1141 1.363 . S
C1136 C1137 1.363 . S
C1136 C1141 1.379 . S
C1136 N1143 1.356 1_554 S
C1137 C1136 1.363 . S
C1137 C1140 1.363 . S
N1138 C1140 1.356 . S
N1138 H1150 0.984 . S
N1138 H1151 0.985 . S
N1139 C1141 1.356 . S
N1139 H1144 0.984 . S
N1139 H1145 0.985 . S
C1140 C1134 1.379 . S
C1140 C1137 1.363 . S
C1140 N1138 1.356 . S
C1141 C1135 1.363 . S
C1141 C1136 1.379 . S
C1141 N1139 1.356 . S
N1142 C1134 1.356 . S
N1142 H1148 0.984 . S
N1142 H1149 0.984 . S
N1143 C1136 1.356 1_556 S
N1143 H1146 0.984 . S
N1143 H1147 0.985 . S
H1144 N1139 0.984 . S
H1145 N1139 0.985 . S
H1146 N1143 0.984 . S
H1147 N1143 0.985 . S
H1148 N1142 0.984 . S
H1149 N1142 0.984 . S
H1150 N1138 0.984 . S
H1151 N1138 0.985 . S
C1152 C1153 1.363 1_556 S
C1152 C1158 1.379 1_556 S
C1152 N1160 1.356 . S
C1153 C1152 1.363 1_554 S
C1153 C1159 1.363 . S
C1154 C1155 1.363 . S
C1154 C1159 1.379 . S
C1154 N1161 1.356 . S
C1155 C1154 1.363 . S
C1155 C1158 1.363 . S
N1156 C1158 1.356 . S
N1156 H1168 0.984 1_554 S
N1156 H1169 0.985 . S
N1157 C1159 1.356 . S
N1157 H1162 0.984 . S
N1157 H1163 0.985 . S
C1158 C1152 1.379 1_554 S
C1158 C1155 1.363 . S
C1158 N1156 1.356 . S
C1159 C1153 1.363 . S
C1159 C1154 1.379 . S
C1159 N1157 1.356 . S
N1160 C1152 1.356 . S
N1160 H1166 0.984 . S
N1160 H1167 0.984 . S
N1161 C1154 1.356 . S
N1161 H1164 0.984 . S
N1161 H1165 0.985 . S
H1162 N1157 0.984 . S
H1163 N1157 0.985 . S
H1164 N1161 0.984 . S
H1165 N1161 0.985 . S
H1166 N1160 0.984 . S
H1167 N1160 0.984 . S
H1168 N1156 0.984 1_556 S
H1169 N1156 0.985 . S
C1170 C1171 1.363 . S
C1170 C1176 1.379 . S
C1170 N1178 1.356 . S
C1171 C1170 1.363 . S
C1171 C1177 1.363 . S
C1172 C1173 1.363 . S
C1172 C1177 1.379 . S
C1172 N1179 1.356 . S
C1173 C1172 1.363 . S
C1173 C1176 1.363 . S
N1174 C1176 1.356 1_556 S
N1174 H1186 0.984 . S
N1174 H1187 0.985 . S
N1175 C1177 1.356 . S
N1175 H1180 0.984 . S
N1175 H1181 0.985 . S
C1176 C1170 1.379 . S
C1176 C1173 1.363 . S
C1176 N1174 1.356 1_554 S
C1177 C1171 1.363 . S
C1177 C1172 1.379 . S
C1177 N1175 1.356 . S
N1178 C1170 1.356 . S
N1178 H1184 0.977 1_554 S
N1178 H1185 0.984 . S
N1179 C1172 1.356 . S
N1179 H1182 0.984 . S
N1179 H1183 0.985 . S
H1180 N1175 0.984 . S
H1181 N1175 0.985 . S
H1182 N1179 0.984 . S
H1183 N1179 0.985 . S
H1184 N1178 0.977 1_556 S
H1185 N1178 0.984 . S
H1186 N1174 0.984 . S
H1187 N1174 0.985 . S
C1188 C1189 1.363 . S
C1188 C1194 1.379 . S
C1188 N1196 1.356 . S
C1189 C1188 1.363 . S
C1189 C1195 1.363 . S
C1190 C1191 1.363 . S
C1190 C1195 1.379 . S
C1190 N1197 1.356 . S
C1191 C1190 1.363 . S
C1191 C1194 1.363 . S
N1192 C1194 1.356 . S
N1192 H1204 0.984 . S
N1192 H1205 0.985 . S
N1193 C1195 1.356 . S
N1193 H1198 0.984 . S
N1193 H1199 0.985 . S
C1194 C1188 1.379 . S
C1194 C1191 1.363 . S
C1194 N1192 1.356 . S
C1195 C1189 1.363 . S
C1195 C1190 1.379 . S
C1195 N1193 1.356 . S
N1196 C1188 1.356 . S
N1196 H1202 0.984 . S
N1196 H1203 0.984 . S
N1197 C1190 1.356 . S
N1197 H1200 0.984 . S
N1197 H1201 0.985 . S
H1198 N1193 0.984 . S
H1199 N1193 0.985 . S
H1200 N1197 0.984 . S
H1201 N1197 0.985 . S
H1202 N1196 0.984 . S
H1203 N1196 0.984 . S
H1204 N1192 0.984 . S
H1205 N1192 0.985 . S
C1206 C1207 1.363 . S
C1206 C1212 1.379 . S
C1206 N1214 1.356 . S
C1207 C1206 1.363 . S
C1207 C1213 1.363 . S
C1208 C1209 1.363 . S
C1208 C1213 1.379 . S
C1208 N1215 1.356 . S
C1209 C1208 1.363 . S
C1209 C1212 1.363 . S
N1210 C1212 1.356 . S
N1210 H1222 0.984 . S
N1210 H1223 0.985 . S
N1211 C1213 1.356 . S
N1211 H1216 0.984 . S
N1211 H1217 0.985 . S
C1212 C1206 1.379 . S
C1212 C1209 1.363 . S
C1212 N1210 1.356 . S
C1213 C1207 1.363 . S
C1213 C1208 1.379 . S
C1213 N1211 1.356 . S
N1214 C1206 1.356 . S
N1214 H1220 0.984 . S
N1214 H1221 0.984 . S
N1215 C1208 1.356 . S
N1215 H1218 0.984 . S
N1215 H1219 0.985 . S
H1216 N1211 0.984 . S
H1217 N1211 0.985 . S
H1218 N1215 0.984 . S
H1219 N1215 0.985 . S
H1220 N1214 0.984 . S
H1221 N1214 0.984 . S
H1222 N1210 0.984 . S
H1223 N1210 0.985 . S
C1224 C1225 1.363 . S
C1224 C1230 1.379 . S
C1224 N1232 1.356 . S
C1225 C1224 1.363 . S
C1225 C1231 1.363 . S
C1226 C1227 1.363 . S
C1226 C1231 1.379 . S
C1226 N1233 1.356 . S
C1227 C1226 1.363 . S
C1227 C1230 1.363 . S
N1228 C1230 1.356 . S
N1228 H1240 0.984 . S
N1228 H1241 0.985 . S
N1229 C1231 1.356 . S
N1229 H1234 0.984 . S
N1229 H1235 0.985 . S
C1230 C1224 1.379 . S
C1230 C1227 1.363 . S
C1230 N1228 1.356 . S
C1231 C1225 1.363 . S
C1231 C1226 1.379 . S
C1231 N1229 1.356 . S
N1232 C1224 1.356 . S
N1232 H1238 0.984 . S
N1232 H1239 0.984 . S
N1233 C1226 1.356 . S
N1233 H1236 0.984 . S
N1233 H1237 0.985 . S
H1234 N1229 0.984 . S
H1235 N1229 0.985 . S
H1236 N1233 0.984 . S
H1237 N1233 0.985 . S
H1238 N1232 0.984 . S
H1239 N1232 0.984 . S
H1240 N1228 0.984 . S
H1241 N1228 0.985 . S
C1242 C1243 1.363 . S
C1242 C1248 1.379 . S
C1242 N1250 1.356 . S
C1243 C1242 1.363 . S
C1243 C1249 1.363 . S
C1244 C1245 1.363 . S
C1244 C1249 1.379 . S
C1244 N1251 1.356 . S
C1245 C1244 1.363 . S
C1245 C1248 1.363 . S
N1246 C1248 1.356 . S
N1246 H1258 0.984 . S
N1246 H1259 0.985 . S
N1247 C1249 1.356 . S
N1247 H1252 0.984 . S
N1247 H1253 0.985 . S
C1248 C1242 1.379 . S
C1248 C1245 1.363 . S
C1248 N1246 1.356 . S
C1249 C1243 1.363 . S
C1249 C1244 1.379 . S
C1249 N1247 1.356 . S
N1250 C1242 1.356 . S
N1250 H1256 0.984 . S
N1250 H1257 0.984 . S
N1251 C1244 1.356 . S
N1251 H1254 0.984 . S
N1251 H1255 0.985 . S
H1252 N1247 0.984 . S
H1253 N1247 0.985 . S
H1254 N1251 0.984 . S
H1255 N1251 0.985 . S
H1256 N1250 0.984 . S
H1257 N1250 0.984 . S
H1258 N1246 0.984 . S
H1259 N1246 0.985 . S
C1260 C1261 1.363 . S
C1260 C1266 1.379 . S
C1260 N1268 1.356 . S
C1261 C1260 1.363 . S
C1261 C1267 1.363 . S
C1262 C1263 1.363 . S
C1262 C1267 1.379 . S
C1262 N1269 1.356 . S
C1263 C1262 1.363 . S
C1263 C1266 1.363 . S
N1264 C1266 1.356 . S
N1264 H1276 0.984 . S
N1264 H1277 0.985 . S
N1265 C1267 1.356 . S
N1265 H1270 0.984 . S
N1265 H1271 0.985 . S
C1266 C1260 1.379 . S
C1266 C1263 1.363 . S
C1266 N1264 1.356 . S
C1267 C1261 1.363 . S
C1267 C1262 1.379 . S
C1267 N1265 1.356 . S
N1268 C1260 1.356 . S
N1268 H1274 0.984 . S
N1268 H1275 0.984 . S
N1269 C1262 1.356 . S
N1269 H1272 0.984 . S
N1269 H1273 0.985 . S
H1270 N1265 0.984 . S
H1271 N1265 0.985 . S
H1272 N1269 0.984 . S
H1273 N1269 0.985 . S
H1274 N1268 0.984 . S
H1275 N1268 0.984 . S
H1276 N1264 0.984 . S
H1277 N1264 0.985 . S
C1278 C1279 1.363 . S
C1278 C1284 1.379 . S
C1278 N1286 1.356 . S
C1279 C1278 1.363 . S
C1279 C1285 1.363 . S
C1280 C1281 1.363 . S
C1280 C1285 1.379 . S
C1280 N1287 1.356 . S
C1281 C1280 1.363 . S
C1281 C1284 1.363 . S
N1282 C1284 1.356 . S
N1282 H1294 0.984 . S
N1282 H1295 0.985 . S
N1283 C1285 1.356 . S
N1283 H1288 0.984 . S
N1283 H1289 0.985 . S
C1284 C1278 1.379 . S
C1284 C1281 1.363 . S
C1284 N1282 1.356 . S
C1285 C1279 1.363 . S
C1285 C1280 1.379 . S
C1285 N1283 1.356 . S
N1286 C1278 1.356 . S
N1286 H1292 0.984 . S
N1286 H1293 0.984 . S
N1287 C1280 1.356 . S
N1287 H1290 0.984 . S
N1287 H1291 0.985 . S
H1288 N1283 0.984 . S
H1289 N1283 0.985 . S
H1290 N1287 0.984 . S
H1291 N1287 0.985 . S
H1292 N1286 0.984 . S
H1293 N1286 0.984 . S
H1294 N1282 0.984 . S
H1295 N1282 0.985 . S
C1296 C1297 1.363 . S
C1296 C1302 1.379 . S
C1296 N1304 1.356 . S
C1297 C1296 1.363 . S
C1297 C1303 1.363 . S
C1298 C1299 1.363 . S
C1298 C1303 1.379 . S
C1298 N1305 1.356 . S
C1299 C1298 1.363 . S
C1299 C1302 1.363 . S
N1300 C1302 1.356 . S
N1300 H1312 0.984 . S
N1300 H1313 0.985 . S
N1301 C1303 1.356 . S
N1301 H1306 0.984 . S
N1301 H1307 0.985 . S
C1302 C1296 1.379 . S
C1302 C1299 1.363 . S
C1302 N1300 1.356 . S
C1303 C1297 1.363 . S
C1303 C1298 1.379 . S
C1303 N1301 1.356 . S
N1304 C1296 1.356 . S
N1304 H1310 0.984 . S
N1304 H1311 0.984 . S
N1305 C1298 1.356 . S
N1305 H1308 0.984 . S
N1305 H1309 0.985 . S
H1306 N1301 0.984 . S
H1307 N1301 0.985 . S
H1308 N1305 0.984 . S
H1309 N1305 0.985 . S
H1310 N1304 0.984 . S
H1311 N1304 0.984 . S
H1312 N1300 0.984 . S
H1313 N1300 0.985 . S
C1314 C1315 1.363 . S
C1314 C1320 1.379 . S
C1314 N1322 1.356 . S
C1315 C1314 1.363 . S
C1315 C1321 1.363 . S
C1316 C1317 1.363 . S
C1316 C1321 1.379 . S
C1316 N1323 1.356 . S
C1317 C1316 1.363 . S
C1317 C1320 1.363 . S
N1318 C1320 1.356 . S
N1318 H1330 0.984 . S
N1318 H1331 0.985 . S
N1319 C1321 1.356 . S
N1319 H1324 0.984 . S
N1319 H1325 0.985 . S
C1320 C1314 1.379 . S
C1320 C1317 1.363 . S
C1320 N1318 1.356 . S
C1321 C1315 1.363 . S
C1321 C1316 1.379 . S
C1321 N1319 1.356 . S
N1322 C1314 1.356 . S
N1322 H1328 0.984 . S
N1322 H1329 0.984 . S
N1323 C1316 1.356 . S
N1323 H1326 0.984 . S
N1323 H1327 0.985 . S
H1324 N1319 0.984 . S
H1325 N1319 0.985 . S
H1326 N1323 0.984 . S
H1327 N1323 0.985 . S
H1328 N1322 0.984 . S
H1329 N1322 0.984 . S
H1330 N1318 0.984 . S
H1331 N1318 0.985 . S
C1332 C1333 1.363 . S
C1332 C1338 1.379 . S
C1332 N1340 1.356 . S
C1333 C1332 1.363 . S
C1333 C1339 1.363 . S
C1334 C1335 1.363 . S
C1334 C1339 1.379 . S
C1334 N1341 1.356 . S
C1335 C1334 1.363 . S
C1335 C1338 1.363 . S
N1336 C1338 1.356 . S
N1336 H1348 0.984 . S
N1336 H1349 0.985 . S
N1337 C1339 1.356 . S
N1337 H1342 0.984 . S
N1337 H1343 0.985 . S
C1338 C1332 1.379 . S
C1338 C1335 1.363 . S
C1338 N1336 1.356 . S
C1339 C1333 1.363 . S
C1339 C1334 1.379 . S
C1339 N1337 1.356 . S
N1340 C1332 1.356 . S
N1340 H1346 0.984 . S
N1340 H1347 0.984 . S
N1341 C1334 1.356 . S
N1341 H1344 0.984 . S
N1341 H1345 0.985 . S
H1342 N1337 0.984 . S
H1343 N1337 0.985 . S
H1344 N1341 0.984 . S
H1345 N1341 0.985 . S
H1346 N1340 0.984 . S
H1347 N1340 0.984 . S
H1348 N1336 0.984 . S
H1349 N1336 0.985 . S
C1350 C1351 1.363 . S
C1350 C1356 1.379 . S
C1350 N1358 1.356 . S
C1351 C1350 1.363 . S
C1351 C1357 1.363 . S
C1352 C1353 1.363 . S
C1352 C1357 1.379 . S
C1352 N1359 1.356 . S
C1353 C1352 1.363 . S
C1353 C1356 1.363 . S
N1354 C1356 1.356 . S
N1354 H1366 0.984 . S
N1354 H1367 0.985 . S
N1355 C1357 1.356 . S
N1355 H1360 0.984 . S
N1355 H1361 0.985 . S
C1356 C1350 1.379 . S
C1356 C1353 1.363 . S
C1356 N1354 1.356 . S
C1357 C1351 1.363 . S
C1357 C1352 1.379 . S
C1357 N1355 1.356 . S
N1358 C1350 1.356 . S
N1358 H1364 0.984 . S
N1358 H1365 0.984 . S
N1359 C1352 1.356 . S
N1359 H1362 0.984 . S
N1359 H1363 0.985 . S
H1360 N1355 0.984 . S
H1361 N1355 0.985 . S
H1362 N1359 0.984 . S
H1363 N1359 0.985 . S
H1364 N1358 0.984 . S
H1365 N1358 0.984 . S
H1366 N1354 0.984 . S
H1367 N1354 0.985 . S
C1368 C1369 1.363 . S
C1368 C1374 1.379 . S
C1368 N1376 1.356 . S
C1369 C1368 1.363 . S
C1369 C1375 1.363 . S
C1370 C1371 1.363 . S
C1370 C1375 1.379 . S
C1370 N1377 1.356 . S
C1371 C1370 1.363 . S
C1371 C1374 1.363 . S
N1372 C1374 1.356 . S
N1372 H1384 0.984 . S
N1372 H1385 0.985 . S
N1373 C1375 1.356 . S
N1373 H1378 0.984 . S
N1373 H1379 0.985 . S
C1374 C1368 1.379 . S
C1374 C1371 1.363 . S
C1374 N1372 1.356 . S
C1375 C1369 1.363 . S
C1375 C1370 1.379 . S
C1375 N1373 1.356 . S
N1376 C1368 1.356 . S
N1376 H1382 0.984 . S
N1376 H1383 0.984 . S
N1377 C1370 1.356 . S
N1377 H1380 0.984 . S
N1377 H1381 0.985 . S
H1378 N1373 0.984 . S
H1379 N1373 0.985 . S
H1380 N1377 0.984 . S
H1381 N1377 0.985 . S
H1382 N1376 0.984 . S
H1383 N1376 0.984 . S
H1384 N1372 0.984 . S
H1385 N1372 0.985 . S
C1386 C1387 1.363 . S
C1386 C1392 1.379 . S
C1386 N1394 1.356 . S
C1387 C1386 1.363 . S
C1387 C1393 1.363 . S
C1388 C1389 1.363 . S
C1388 C1393 1.379 . S
C1388 N1395 1.356 . S
C1389 C1388 1.363 . S
C1389 C1392 1.363 . S
N1390 C1392 1.356 . S
N1390 H1402 0.984 . S
N1390 H1403 0.985 . S
N1391 C1393 1.356 . S
N1391 H1396 0.984 . S
N1391 H1397 0.985 . S
C1392 C1386 1.379 . S
C1392 C1389 1.363 . S
C1392 N1390 1.356 . S
C1393 C1387 1.363 . S
C1393 C1388 1.379 . S
C1393 N1391 1.356 . S
N1394 C1386 1.356 . S
N1394 H1400 0.984 . S
N1394 H1401 0.984 . S
N1395 C1388 1.356 . S
N1395 H1398 0.984 . S
N1395 H1399 0.985 . S
H1396 N1391 0.984 . S
H1397 N1391 0.985 . S
H1398 N1395 0.984 . S
H1399 N1395 0.985 . S
H1400 N1394 0.984 . S
H1401 N1394 0.984 . S
H1402 N1390 0.984 . S
H1403 N1390 0.985 . S
C595 C7 1.230 . S
C597 C252 1.306 . S
C613 C40 1.230 1_545 S
C615 C285 1.306 . S
C631 C73 1.230 1_655 S
C633 C219 1.306 . S
C649 C549 1.306 . S
C651 C106 1.230 . S
C667 C139 1.230 1_565 S
C669 C582 1.306 . S
C685 C172 1.230 1_455 S
C687 C516 1.306 . S
C703 C205 1.230 . S
C705 C450 1.306 1_655 S
C721 C483 1.306 . S
C723 C238 1.230 . S
C739 C417 1.306 1_545 S
C741 C271 1.230 . S
C757 C304 1.230 . S
C759 C153 1.306 . S
C775 C337 1.230 . S
C777 C186 1.306 . S
C793 C370 1.230 . S
C795 C120 1.306 . S
C811 C403 1.230 . S
C813 C54 1.306 . S
C829 C436 1.230 . S
C831 C87 1.306 . S
C847 C21 1.306 . S
C849 C469 1.230 . S
C865 C351 1.306 1_455 S
C867 C502 1.230 . S
C883 C535 1.230 . S
C885 C384 1.306 . S
C901 C568 1.230 . S
C903 C318 1.306 1_565 S
C919 N508 1.582 . S
C921 N13 1.582 . S
C937 N541 1.582 . S
C939 N46 1.582 . S
C955 N79 1.582 . S
C957 N574 1.582 . S
C973 N112 1.581 . S
C975 N211 1.581 . S
C991 N145 1.582 . S
C993 N244 1.582 . S
C1009 N277 1.582 . S
C1011 N178 1.582 . S
C1027 N310 1.582 . S
C1029 N409 1.582 . S
C1045 N442 1.582 . S
C1047 N343 1.582 . S
C1063 N475 1.582 . S
C1065 N376 1.582 . S
C1081 N2 1.540 1_556 S
C1083 C150 1.539 . S
C1099 C183 1.539 . S
C1101 N35 1.540 1_556 S
C1117 N68 1.540 1_556 S
C1119 C117 1.539 . S
C1135 C51 1.539 . S
C1137 N101 1.540 1_554 S
C1153 N134 1.540 1_554 S
C1155 C84 1.539 . S
C1171 C18 1.539 . S
C1173 N167 1.540 1_554 S
C1189 N200 1.540 . S
C1191 C348 1.539 . S
C1207 C381 1.539 . S
C1209 N233 1.540 . S
C1225 C315 1.539 . S
C1227 N266 1.540 . S
C1243 N299 1.540 . S
C1245 C249 1.539 . S
C1261 C282 1.539 . S
C1263 N332 1.540 . S
C1279 N365 1.540 . S
C1281 C216 1.539 . S
C1297 C546 1.539 . S
C1299 N398 1.540 . S
C1315 C579 1.539 . S
C1317 N431 1.540 . S
C1333 C513 1.540 . S
C1335 N464 1.541 . S
C1351 C447 1.539 . S
C1353 N497 1.539 . S
C1369 C480 1.539 . S
C1371 N530 1.540 . S
C1387 N563 1.540 . S
C1389 C414 1.539 . S
