# Generated by pormake.
# Topology und, (4)-cn, num edge types: 1
# Building blocks:
#     Node 0, Type 0, BuildingBlock: GALJAG_clean_sbu_0, # of connection points: 4
#     Node 1, Type 0, BuildingBlock: GALJAG_clean_sbu_0, # of connection points: 4
#     Node 2, Type 0, BuildingBlock: GALJAG_clean_sbu_0, # of connection points: 4
#     Node 3, Type 0, BuildingBlock: GALJAG_clean_sbu_0, # of connection points: 4
#     Node 4, Type 0, BuildingBlock: GALJAG_clean_sbu_0, # of connection points: 4
#     Node 5, Type 0, BuildingBlock: GALJAG_clean_sbu_0, # of connection points: 4
#     Node 6, Type 0, BuildingBlock: GALJAG_clean_sbu_0, # of connection points: 4
#     Node 7, Type 0, BuildingBlock: GALJAG_clean_sbu_0, # of connection points: 4
#     Node 8, Type 0, BuildingBlock: GALJAG_clean_sbu_0, # of connection points: 4
#     Node 9, Type 0, BuildingBlock: GALJAG_clean_sbu_0, # of connection points: 4
#     Node 10, Type 0, BuildingBlock: GALJAG_clean_sbu_0, # of connection points: 4
#     Node 11, Type 0, BuildingBlock: GALJAG_clean_sbu_0, # of connection points: 4
#     Node 12, Type 0, BuildingBlock: GALJAG_clean_sbu_0, # of connection points: 4
#     Node 13, Type 0, BuildingBlock: GALJAG_clean_sbu_0, # of connection points: 4
#     Node 14, Type 0, BuildingBlock: GALJAG_clean_sbu_0, # of connection points: 4
#     Node 15, Type 0, BuildingBlock: GALJAG_clean_sbu_0, # of connection points: 4
#     Edge 16, Type (0, 0), BuildingBlock: XIVTED_clean_linker_0, # of connection points: 2
#     Edge 17, Type (0, 0), BuildingBlock: XIVTED_clean_linker_0, # of connection points: 2
#     Edge 18, Type (0, 0), BuildingBlock: XIVTED_clean_linker_0, # of connection points: 2
#     Edge 19, Type (0, 0), BuildingBlock: XIVTED_clean_linker_0, # of connection points: 2
#     Edge 20, Type (0, 0), BuildingBlock: XIVTED_clean_linker_0, # of connection points: 2
#     Edge 21, Type (0, 0), BuildingBlock: XIVTED_clean_linker_0, # of connection points: 2
#     Edge 22, Type (0, 0), BuildingBlock: XIVTED_clean_linker_0, # of connection points: 2
#     Edge 23, Type (0, 0), BuildingBlock: XIVTED_clean_linker_0, # of connection points: 2
#     Edge 24, Type (0, 0), BuildingBlock: XIVTED_clean_linker_0, # of connection points: 2
#     Edge 25, Type (0, 0), BuildingBlock: XIVTED_clean_linker_0, # of connection points: 2
#     Edge 26, Type (0, 0), BuildingBlock: XIVTED_clean_linker_0, # of connection points: 2
#     Edge 27, Type (0, 0), BuildingBlock: XIVTED_clean_linker_0, # of connection points: 2
#     Edge 28, Type (0, 0), BuildingBlock: XIVTED_clean_linker_0, # of connection points: 2
#     Edge 29, Type (0, 0), BuildingBlock: XIVTED_clean_linker_0, # of connection points: 2
#     Edge 30, Type (0, 0), BuildingBlock: XIVTED_clean_linker_0, # of connection points: 2
#     Edge 31, Type (0, 0), BuildingBlock: XIVTED_clean_linker_0, # of connection points: 2
#     Edge 32, Type (0, 0), BuildingBlock: XIVTED_clean_linker_0, # of connection points: 2
#     Edge 33, Type (0, 0), BuildingBlock: XIVTED_clean_linker_0, # of connection points: 2
#     Edge 34, Type (0, 0), BuildingBlock: XIVTED_clean_linker_0, # of connection points: 2
#     Edge 35, Type (0, 0), BuildingBlock: XIVTED_clean_linker_0, # of connection points: 2
#     Edge 36, Type (0, 0), BuildingBlock: XIVTED_clean_linker_0, # of connection points: 2
#     Edge 37, Type (0, 0), BuildingBlock: XIVTED_clean_linker_0, # of connection points: 2
#     Edge 38, Type (0, 0), BuildingBlock: XIVTED_clean_linker_0, # of connection points: 2
#     Edge 39, Type (0, 0), BuildingBlock: XIVTED_clean_linker_0, # of connection points: 2
#     Edge 40, Type (0, 0), BuildingBlock: XIVTED_clean_linker_0, # of connection points: 2
#     Edge 41, Type (0, 0), BuildingBlock: XIVTED_clean_linker_0, # of connection points: 2
#     Edge 42, Type (0, 0), BuildingBlock: XIVTED_clean_linker_0, # of connection points: 2
#     Edge 43, Type (0, 0), BuildingBlock: XIVTED_clean_linker_0, # of connection points: 2
#     Edge 44, Type (0, 0), BuildingBlock: XIVTED_clean_linker_0, # of connection points: 2
#     Edge 45, Type (0, 0), BuildingBlock: XIVTED_clean_linker_0, # of connection points: 2
#     Edge 46, Type (0, 0), BuildingBlock: XIVTED_clean_linker_0, # of connection points: 2
#     Edge 47, Type (0, 0), BuildingBlock: XIVTED_clean_linker_0, # of connection points: 2
# Relax obj value: 0.013
# Max RMSD: 0.034
# Mean RMSD: 0.034
data_MOF--net-und--node1-GALJAG_clean_sbu_0--edge1-XIVTED_clean_linker_0
_symmetry_space_group_name_H-M    P1
_symmetry_Int_Tables_number       1
_symmetry_cell_setting            triclinic
loop_
_symmetry_equiv_pos_as_xyz
'x, y, z'
_cell_length_a     63.868105
_cell_length_b     63.902312
_cell_length_c     20.48966
_cell_angle_alpha  90.000942
_cell_angle_beta   89.971716
_cell_angle_gamma 90.000696
loop_
_atom_site_label
_atom_site_type_symbol
_atom_site_fract_x
_atom_site_fract_y
_atom_site_fract_z
_atom_type_partial_charge
In0 In 0.24597 0.33494 -0.00444 0.0
O1 O 0.21562 0.35335 0.98 0.0
O2 O 0.23195 0.3572 0.06979 0.0
C3 C 0.24595 0.30568 0.90164 0.0
C4 C 0.27594 0.36138 0.9535 0.0
C5 C 0.24537 0.3062 0.09109 0.0
O6 O 0.23017 0.31719 0.91224 0.0
O7 O 0.26166 0.30945 0.93705 0.0
O8 O 0.2615 0.3171 0.07932 0.0
O9 O 0.22966 0.31035 0.05612 0.0
C10 C 0.21632 0.36206 0.03539 0.0
O11 O 0.27646 0.35331 0.00985 0.0
O12 O 0.26036 0.3562 0.91934 0.0
In13 In 0.90668 0.99419 0.23814 0.0
O14 O 0.89251 0.02712 0.24329 0.0
O15 O 0.87752 0.00431 0.18367 0.0
C16 C 0.93733 0.99483 0.32782 0.0
C17 C 0.88192 0.9639 0.28668 0.0
C18 C 0.93205 0.99465 0.13326 0.0
O19 O 0.92414 0.00954 0.32306 0.0
O20 O 0.93458 0.97981 0.28882 0.0
O21 O 0.92246 0.97827 0.15075 0.0
O22 O 0.92816 0.01064 0.1671 0.0
C23 C 0.87775 0.02288 0.2044 0.0
O24 O 0.88922 0.96324 0.22931 0.0
O25 O 0.8872 0.9798 0.31946 0.0
In26 In 0.24541 0.65707 0.49252 0.0
O27 O 0.27566 0.63838 0.47771 0.0
O28 O 0.2594 0.63519 0.56787 0.0
C29 C 0.24573 0.68587 0.3971 0.0
C30 C 0.21534 0.63052 0.45186 0.0
C31 C 0.24568 0.68603 0.58746 0.0
O32 O 0.26153 0.67453 0.40897 0.0
O33 O 0.2299 0.6822 0.4321 0.0
O34 O 0.22961 0.67507 0.57551 0.0
O35 O 0.26147 0.6819 0.55281 0.0
C36 C 0.27496 0.63001 0.5336 0.0
O37 O 0.21483 0.63896 0.50767 0.0
O38 O 0.23098 0.63538 0.41747 0.0
In39 In 0.58489 -0.00375 0.7403 0.0
O40 O 0.60369 0.02642 0.7239 0.0
O41 O 0.60708 0.01031 0.81425 0.0
C42 C 0.55495 -0.0039 0.64841 0.0
C43 C 0.61125 0.96621 0.6983 0.0
C44 C 0.55682 -0.0031 0.83781 0.0
O45 O 0.56617 0.01209 0.65897 0.0
O46 O 0.55942 0.98029 0.68252 0.0
O47 O 0.5679 0.98089 0.82613 0.0
O48 O 0.5604 0.01244 0.80152 0.0
C49 C 0.61221 0.02578 0.77959 0.0
O50 O 0.6029 0.96561 0.75425 0.0
O51 O 0.60636 0.98191 0.66425 0.0
In52 In 0.74728 0.65601 0.0013 0.0
O53 O 0.71684 0.63778 0.98566 0.0
O54 O 0.73307 0.63382 0.07553 0.0
C55 C 0.74708 0.68497 0.90637 0.0
C56 C 0.77719 0.62939 0.95964 0.0
C57 C 0.74697 0.68481 0.09685 0.0
O58 O 0.73131 0.67353 0.91776 0.0
O59 O 0.76285 0.68135 0.94169 0.0
O60 O 0.76307 0.67392 0.08461 0.0
O61 O 0.73118 0.68066 0.06223 0.0
C62 C 0.71743 0.62907 0.04103 0.0
O63 O 0.77769 0.63749 0.01594 0.0
O64 O 0.76166 0.63461 0.92535 0.0
In65 In 0.08487 -0.00415 0.73767 0.0
O66 O 0.09799 0.02914 0.74546 0.0
O67 O 0.1145 0.00698 0.68745 0.0
C68 C 0.05417 -0.00443 0.82733 0.0
C69 C 0.10988 0.96544 0.78415 0.0
C70 C 0.05986 -0.0037 0.63184 0.0
O71 O 0.06728 0.01038 0.82367 0.0
O72 O 0.057 0.9809 0.78713 0.0
O73 O 0.06961 0.98002 0.64928 0.0
O74 O 0.06346 0.01226 0.66611 0.0
C75 C 0.11345 0.02546 0.70872 0.0
O76 O 0.10306 0.9654 0.7262 0.0
O77 O 0.104 0.98076 0.81852 0.0
In78 In 0.74505 0.33432 0.49297 0.0
O79 O 0.71452 0.35263 0.50666 0.0
O80 O 0.73079 0.3556 0.41644 0.0
C81 C 0.74512 0.30594 0.58958 0.0
C82 C 0.77472 0.36144 0.53276 0.0
C83 C 0.74547 0.3048 0.39976 0.0
O84 O 0.72919 0.31707 0.57742 0.0
O85 O 0.76088 0.30963 0.55429 0.0
O86 O 0.7613 0.31614 0.41133 0.0
O87 O 0.72951 0.30888 0.43377 0.0
C88 C 0.71515 0.36074 0.45039 0.0
O89 O 0.77533 0.35289 0.47713 0.0
O90 O 0.75918 0.35643 0.56737 0.0
In91 In 0.40621 -0.00394 0.24249 0.0
O92 O 0.38851 0.96536 0.25505 0.0
O93 O 0.3868 0.98076 0.16285 0.0
C94 C 0.43173 -0.00282 0.34705 0.0
C95 C 0.37728 0.02511 0.2731 0.0
C96 C 0.43639 -0.00426 0.15106 0.0
O97 O 0.42238 0.98063 0.32992 0.0
O98 O 0.42751 0.01306 0.31309 0.0
O99 O 0.42312 0.01042 0.15467 0.0
O100 O 0.43402 0.98131 0.19238 0.0
C101 C 0.38135 0.96533 0.19748 0.0
O102 O 0.39255 0.02917 0.23593 0.0
O103 O 0.3766 0.00656 0.29389 0.0
In104 In 0.74701 0.83514 0.50159 0.0
O105 O 0.71663 0.85352 0.48498 0.0
O106 O 0.73212 0.85664 0.5764 0.0
C107 C 0.74754 0.80626 0.40624 0.0
C108 C 0.77695 0.86205 0.46225 0.0
C109 C 0.74711 0.8063 0.59686 0.0
O110 O 0.73141 0.81713 0.41823 0.0
O111 O 0.76327 0.81044 0.44109 0.0
O112 O 0.76287 0.81777 0.58563 0.0
O113 O 0.7314 0.80985 0.56127 0.0
C114 C 0.71678 0.86174 0.54113 0.0
O115 O 0.77733 0.85362 0.51805 0.0
O116 O 0.76148 0.85707 0.42732 0.0
In117 In 0.40578 0.49658 0.74595 0.0
O118 O 0.38722 0.52689 0.76081 0.0
O119 O 0.38344 0.51031 0.67147 0.0
C120 C 0.43498 0.49689 0.84018 0.0
C121 C 0.37949 0.46652 0.78835 0.0
C122 C 0.43434 0.49699 0.64974 0.0
O123 O 0.42351 0.51265 0.82899 0.0
O124 O 0.43126 0.48111 0.80507 0.0
O125 O 0.42345 0.4809 0.66203 0.0
O126 O 0.43034 0.51273 0.68474 0.0
C127 C 0.37852 0.52602 0.70544 0.0
O128 O 0.38777 0.46587 0.7323 0.0
O129 O 0.38434 0.4823 0.82205 0.0
In130 In 0.74613 0.15553 -0.00601 0.0
O131 O 0.77916 0.14152 0.99115 0.0
O132 O 0.75638 0.12735 0.05295 0.0
C133 C 0.74622 0.18501 0.90063 0.0
C134 C 0.71637 0.12999 0.94631 0.0
C135 C 0.74603 0.18219 0.09562 0.0
O136 O 0.76124 0.17223 0.90708 0.0
O137 O 0.73129 0.18249 0.94014 0.0
O138 O 0.72986 0.17202 0.07936 0.0
O139 O 0.76211 0.17828 0.06215 0.0
C140 C 0.77498 0.12735 0.03225 0.0
O141 O 0.71528 0.13781 0.00295 0.0
O142 O 0.73246 0.13504 0.91408 0.0
In143 In 0.08519 0.49621 0.24161 0.0
O144 O 0.10373 0.46595 0.25795 0.0
O145 O 0.10719 0.48182 0.16726 0.0
C146 C 0.05606 0.49633 0.33617 0.0
C147 C 0.11176 0.52628 0.28216 0.0
C148 C 0.05659 0.49595 0.14561 0.0
O149 O 0.06724 0.48039 0.32468 0.0
O150 O 0.06005 0.51208 0.30121 0.0
O151 O 0.06774 0.51189 0.15736 0.0
O152 O 0.06034 0.48025 0.18106 0.0
C153 C 0.11222 0.46638 0.2022 0.0
O154 O 0.10344 0.52668 0.22618 0.0
O155 O 0.10679 0.51074 0.31679 0.0
In156 In 0.24633 0.15618 0.49562 0.0
O157 O 0.27905 0.1418 0.49373 0.0
O158 O 0.25622 0.13031 0.42659 0.0
C159 C 0.24633 0.18386 0.5943 0.0
C160 C 0.21794 0.12906 0.54255 0.0
C161 C 0.24653 0.18424 0.39798 0.0
O162 O 0.26189 0.17208 0.58342 0.0
O163 O 0.23096 0.18113 0.55675 0.0
O164 O 0.23078 0.17273 0.40893 0.0
O165 O 0.26198 0.18106 0.43488 0.0
C166 C 0.27477 0.12929 0.44774 0.0
O167 O 0.21364 0.14167 0.49682 0.0
O168 O 0.23646 0.13012 0.56388 0.0
In169 In 0.58496 0.49599 0.24558 0.0
O170 O 0.60325 0.46549 0.23101 0.0
O171 O 0.60645 0.48164 0.32132 0.0
C172 C 0.55649 0.49617 0.14919 0.0
C173 C 0.61209 0.52575 0.20641 0.0
C174 C 0.55567 0.49583 0.33967 0.0
O175 O 0.56768 0.48026 0.16106 0.0
O176 O 0.56014 0.51188 0.18471 0.0
O177 O 0.56679 0.51182 0.32819 0.0
O178 O 0.55979 0.48006 0.30494 0.0
C179 C 0.61148 0.46602 0.28711 0.0
O180 O 0.60348 0.52626 0.26198 0.0
O181 O 0.6071 0.51029 0.1715 0.0
In182 In 0.24534 0.83616 0.99256 0.0
O183 O 0.21509 0.85465 0.01007 0.0
O184 O 0.23065 0.85813 0.91885 0.0
C185 C 0.24544 0.80733 0.08799 0.0
C186 C 0.27581 0.86265 0.03069 0.0
C187 C 0.2447 0.80736 0.89706 0.0
O188 O 0.22963 0.81875 0.0769 0.0
O189 O 0.2611 0.81093 0.05218 0.0
O190 O 0.26079 0.81831 0.90868 0.0
O191 O 0.22904 0.81141 0.93237 0.0
C192 C 0.2153 0.86312 0.95431 0.0
O193 O 0.27578 0.85429 0.97477 0.0
O194 O 0.26049 0.85777 0.06643 0.0
In195 In 0.90602 0.49488 0.74198 0.0
O196 O 0.88795 0.52554 0.72801 0.0
O197 O 0.88448 0.50916 0.81782 0.0
C198 C 0.93468 0.49457 0.64602 0.0
C199 C 0.87888 0.4653 0.70167 0.0
C200 C 0.93514 0.49469 0.83645 0.0
O201 O 0.92366 0.51059 0.65807 0.0
O202 O 0.93075 0.47883 0.68112 0.0
O203 O 0.92378 0.47887 0.82508 0.0
O204 O 0.93135 0.51047 0.80141 0.0
C205 C 0.87963 0.52491 0.78399 0.0
O206 O 0.88752 0.46456 0.75715 0.0
O207 O 0.88382 0.48094 0.66744 0.0
H208 H 0.21245 0.281 0.12257 0.0
H209 H 0.2793 0.2093 0.36516 0.0
H210 H 0.27767 0.29166 0.16649 0.0
H211 H 0.21418 0.19814 0.32115 0.0
H212 H 0.27903 0.2392 0.29136 0.0
H213 H 0.21266 0.25077 0.19536 0.0
C214 C 0.2268 0.27705 0.14791 0.0
C215 C 0.24509 0.28886 0.13856 0.0
C216 C 0.2648 0.2302 0.29756 0.0
C217 C 0.24546 0.25415 0.22154 0.0
C218 C 0.26495 0.21307 0.33956 0.0
C219 C 0.24671 0.20124 0.3493 0.0
C220 C 0.24625 0.23562 0.26505 0.0
C221 C 0.22858 0.20684 0.31491 0.0
C222 C 0.22691 0.25974 0.18928 0.0
C223 C 0.26322 0.283 0.17245 0.0
N224 N 0.22879 0.2237 0.27441 0.0
N225 N 0.26296 0.26601 0.21236 0.0
H226 H 0.94974 0.02688 0.40782 0.0
H227 H 0.04727 0.96367 0.5544 0.0
H228 H 0.96609 0.9641 0.34922 0.0
H229 H 0.03534 0.02894 0.59365 0.0
H230 H 0.01766 0.96342 0.47856 0.0
H231 H 0.98075 0.02772 0.47799 0.0
C232 C 0.95979 0.01325 0.41002 0.0
C233 C 0.95533 0.99538 0.37287 0.0
C234 C 0.02162 0.97784 0.50342 0.0
C235 C 0.99084 -0.00376 0.45251 0.0
C236 C 0.03857 0.97799 0.54648 0.0
C237 C 0.04371 -0.00367 0.58041 0.0
C238 C 0.00969 -0.00388 0.49469 0.0
C239 C 0.03188 0.01445 0.56854 0.0
C240 C 0.97754 0.01376 0.44976 0.0
C241 C 0.96894 0.97819 0.37718 0.0
N242 N 0.01534 0.01385 0.52702 0.0
N243 N 0.98606 0.97903 0.41633 0.0
H244 H 0.2785 0.71121 0.61965 0.0
H245 H 0.2118 0.78223 0.86504 0.0
H246 H 0.21326 0.70037 0.66302 0.0
H247 H 0.27693 0.7932 0.82054 0.0
H248 H 0.21193 0.75241 0.79063 0.0
H249 H 0.27826 0.74111 0.69365 0.0
C250 C 0.26413 0.71507 0.64508 0.0
C251 C 0.24585 0.7033 0.63525 0.0
C252 C 0.22619 0.76136 0.79692 0.0
C253 C 0.24544 0.73763 0.71973 0.0
C254 C 0.22611 0.77843 0.83927 0.0
C255 C 0.2444 0.79019 0.84894 0.0
C256 C 0.2447 0.75597 0.76403 0.0
C257 C 0.26249 0.78456 0.8144 0.0
C258 C 0.264 0.73219 0.68719 0.0
C259 C 0.22769 0.70901 0.66933 0.0
N260 N 0.2622 0.76779 0.77356 0.0
N261 N 0.22793 0.72582 0.71 0.0
H262 H 0.46535 0.96501 0.13291 0.0
H263 H 0.53051 0.02917 0.86636 0.0
H264 H 0.44753 0.02623 0.06351 0.0
H265 H 0.54459 0.96543 0.9205 0.0
H266 H 0.50119 0.02904 0.94264 0.0
H267 H 0.49524 0.96539 0.05873 0.0
C268 C 0.46769 0.97852 0.10181 0.0
C269 C 0.45393 -0.00438 0.10422 0.0
C270 C 0.51069 0.01509 0.93802 0.0
C271 C 0.48822 -0.0038 0.01949 0.0
C272 C 0.5275 0.01516 0.89464 0.0
C273 C 0.53998 -0.00275 0.88707 0.0
C274 C 0.50632 -0.00302 0.97425 0.0
C275 C 0.53535 0.97957 0.92488 0.0
C276 C 0.48479 0.97873 0.05953 0.0
C277 C 0.45773 0.01271 0.06301 0.0
N278 N 0.51885 0.97986 0.96682 0.0
N279 N 0.47457 0.01259 0.02238 0.0
H280 H 0.21323 0.7945 0.16678 0.0
H281 H 0.27821 0.69891 0.31953 0.0
H282 H 0.27755 0.78094 0.11789 0.0
H283 H 0.21364 0.71212 0.36615 0.0
H284 H 0.27833 0.72888 0.24501 0.0
H285 H 0.21321 0.76459 0.24138 0.0
C286 C 0.22737 0.7853 0.17208 0.0
C287 C 0.24541 0.79018 0.13619 0.0
C288 C 0.26412 0.72517 0.27143 0.0
C289 C 0.24549 0.75589 0.22087 0.0
C290 C 0.26404 0.70804 0.31376 0.0
C291 C 0.2459 0.70304 0.34897 0.0
C292 C 0.24593 0.73737 0.26444 0.0
C293 C 0.22798 0.71542 0.3399 0.0
C294 C 0.22735 0.76819 0.21445 0.0
C295 C 0.2633 0.77772 0.14468 0.0
N296 N 0.22846 0.73203 0.29865 0.0
N297 N 0.26288 0.76113 0.18604 0.0
H298 H 0.45406 0.03094 0.38898 0.0
H299 H 0.52962 0.96326 0.61774 0.0
H300 H 0.447 0.96447 0.41921 0.0
H301 H 0.53903 0.0289 0.57781 0.0
H302 H 0.49853 0.9637 0.54867 0.0
H303 H 0.48389 0.03093 0.46338 0.0
C304 C 0.45866 0.01636 0.41185 0.0
C305 C 0.4481 -0.00235 0.39778 0.0
C306 C 0.5074 0.97801 0.55481 0.0
C307 C 0.48239 -0.0025 0.48244 0.0
C308 C 0.5252 0.97776 0.59407 0.0
C309 C 0.53696 -0.00392 0.6033 0.0
C310 C 0.50123 -0.00327 0.52461 0.0
C311 C 0.53046 0.01442 0.57172 0.0
C312 C 0.47577 0.01636 0.45409 0.0
C313 C 0.45472 0.97924 0.42874 0.0
N314 N 0.51299 0.01429 0.53381 0.0
N315 N 0.47153 0.97961 0.4694 0.0
H316 H 0.27842 0.19606 0.67483 0.0
H317 H 0.21374 0.29255 0.82352 0.0
H318 H 0.21429 0.21012 0.62498 0.0
H319 H 0.27793 0.2789 0.87363 0.0
H320 H 0.21363 0.26223 0.75059 0.0
H321 H 0.27843 0.22591 0.74995 0.0
C322 C 0.26431 0.20532 0.68011 0.0
C323 C 0.24635 0.20065 0.64365 0.0
C324 C 0.22776 0.2659 0.77744 0.0
C325 C 0.24627 0.23484 0.72873 0.0
C326 C 0.22783 0.28324 0.81885 0.0
C327 C 0.24586 0.28824 0.85452 0.0
C328 C 0.24585 0.25347 0.77178 0.0
C329 C 0.26369 0.27561 0.84691 0.0
C330 C 0.26434 0.22239 0.72273 0.0
C331 C 0.22851 0.21319 0.65211 0.0
N332 N 0.26322 0.25879 0.80646 0.0
N333 N 0.22894 0.22973 0.69358 0.0
H334 H 0.04171 0.02693 0.90967 0.0
H335 H 0.94519 0.96214 0.05603 0.0
H336 H 0.02567 0.96446 0.84719 0.0
H337 H 0.95611 0.02761 0.09509 0.0
H338 H 0.97476 0.96238 0.97981 0.0
H339 H 0.01088 0.02706 0.98063 0.0
C340 C 0.03175 0.01322 0.91117 0.0
C341 C 0.03624 -0.00435 0.8727 0.0
C342 C 0.97058 0.97672 0.00474 0.0
C343 C 0.00094 -0.00431 0.95329 0.0
C344 C 0.95367 0.97659 0.04802 0.0
C345 C 0.94825 0.99485 0.08196 0.0
C346 C 0.98218 0.9952 -0.00415 0.0
C347 C 0.95978 0.01316 0.06998 0.0
C348 C 0.0141 0.01332 0.95137 0.0
C349 C 0.02277 0.97833 0.87617 0.0
N350 N 0.97628 0.01283 0.02827 0.0
N351 N 0.00574 0.97877 0.91583 0.0
H352 H 0.71477 0.6977 0.8279 0.0
H353 H 0.77938 0.79362 0.6756 0.0
H354 H 0.77906 0.71149 0.87633 0.0
H355 H 0.71514 0.77974 0.62673 0.0
H356 H 0.77951 0.76372 0.75029 0.0
H357 H 0.71462 0.7276 0.75319 0.0
C358 C 0.72887 0.70695 0.8225 0.0
C359 C 0.74694 0.70214 0.85827 0.0
C360 C 0.76537 0.76726 0.72335 0.0
C361 C 0.74688 0.7364 0.77348 0.0
C362 C 0.76528 0.78435 0.68091 0.0
C363 C 0.74723 0.78914 0.64502 0.0
C364 C 0.74728 0.75488 0.7298 0.0
C365 C 0.7294 0.77659 0.65353 0.0
C366 C 0.72878 0.72404 0.78005 0.0
C367 C 0.76478 0.71466 0.84964 0.0
N368 N 0.72989 0.76002 0.69493 0.0
N369 N 0.76429 0.73123 0.80824 0.0
H370 H 0.77847 0.29042 0.32702 0.0
H371 H 0.71294 0.19618 0.16887 0.0
H372 H 0.71321 0.27882 0.36801 0.0
H373 H 0.77883 0.20638 0.13454 0.0
H374 H 0.71275 0.22612 0.24345 0.0
H375 H 0.77886 0.25974 0.25555 0.0
C376 C 0.76421 0.28149 0.32063 0.0
C377 C 0.74579 0.28717 0.35333 0.0
C378 C 0.72728 0.22173 0.21985 0.0
C379 C 0.74611 0.25199 0.27225 0.0
C380 C 0.72739 0.2046 0.17754 0.0
C381 C 0.7459 0.19884 0.14548 0.0
C382 C 0.7458 0.23319 0.2299 0.0
C383 C 0.76419 0.21031 0.15822 0.0
C384 C 0.76444 0.26393 0.2801 0.0
C385 C 0.72775 0.275 0.34362 0.0
N386 N 0.76365 0.22699 0.19919 0.0
N387 N 0.72837 0.25798 0.30401 0.0
H388 H 0.77749 0.1964 0.81598 0.0
H389 H 0.71316 0.29351 0.67009 0.0
H390 H 0.715 0.21302 0.87724 0.0
H391 H 0.77719 0.27948 0.61887 0.0
H392 H 0.71333 0.26379 0.74552 0.0
H393 H 0.77739 0.22628 0.7411 0.0
C394 C 0.76373 0.20627 0.8134 0.0
C395 C 0.74624 0.20226 0.85279 0.0
C396 C 0.72737 0.26726 0.71793 0.0
C397 C 0.74602 0.23645 0.76775 0.0
C398 C 0.72728 0.28425 0.67505 0.0
C399 C 0.74518 0.28894 0.63828 0.0
C400 C 0.74547 0.25487 0.72381 0.0
C401 C 0.76304 0.27641 0.64635 0.0
C402 C 0.76369 0.22336 0.77088 0.0
C403 C 0.72883 0.21557 0.84773 0.0
N404 N 0.76271 0.25992 0.68808 0.0
N405 N 0.72917 0.23207 0.80605 0.0
H406 H 0.71398 0.70965 0.13001 0.0
H407 H 0.78058 0.78143 0.37334 0.0
H408 H 0.7794 0.69941 0.17183 0.0
H409 H 0.71521 0.7917 0.33084 0.0
H410 H 0.78054 0.75155 0.29915 0.0
H411 H 0.71409 0.73955 0.20402 0.0
C412 C 0.72836 0.71363 0.15511 0.0
C413 C 0.74673 0.70203 0.14481 0.0
C414 C 0.76621 0.76035 0.30584 0.0
C415 C 0.74699 0.73638 0.22933 0.0
C416 C 0.76623 0.77746 0.34806 0.0
C417 C 0.74785 0.78905 0.35823 0.0
C418 C 0.74766 0.75475 0.27355 0.0
C419 C 0.72972 0.7832 0.3243 0.0
C420 C 0.72842 0.73075 0.19723 0.0
C421 C 0.7649 0.70792 0.1785 0.0
N422 N 0.73007 0.7664 0.28356 0.0
N423 N 0.76459 0.72473 0.21918 0.0
H424 H 0.54351 0.46396 0.0707 0.0
H425 H 0.44819 0.5293 0.91762 0.0
H426 H 0.53049 0.52847 0.11807 0.0
H427 H 0.46135 0.46482 0.8702 0.0
H428 H 0.47826 0.52934 0.99174 0.0
H429 H 0.51368 0.46408 -0.00427 0.0
C430 C 0.53446 0.47818 0.06497 0.0
C431 C 0.53945 0.49622 0.10059 0.0
C432 C 0.47453 0.51517 0.96521 0.0
C433 C 0.50526 0.49646 0.0155 0.0
C434 C 0.45734 0.51513 0.92311 0.0
C435 C 0.45229 0.49703 0.88783 0.0
C436 C 0.48674 0.49697 0.97193 0.0
C437 C 0.46469 0.47912 0.89653 0.0
C438 C 0.51739 0.47823 0.02238 0.0
C439 C 0.52717 0.5142 0.09153 0.0
N440 N 0.48135 0.47955 0.9376 0.0
N441 N 0.51062 0.51386 0.05002 0.0
H442 H 0.03046 0.52891 0.3676 0.0
H443 H 0.95998 0.46185 0.61357 0.0
H444 H 0.04202 0.46393 0.41224 0.0
H445 H 0.94861 0.52691 0.56957 0.0
H446 H 0.98978 0.46219 0.53902 0.0
H447 H 0.00052 0.52849 0.44157 0.0
C448 C 0.02676 0.51456 0.39329 0.0
C449 C 0.03874 0.49641 0.38384 0.0
C450 C 0.98075 0.47639 0.54545 0.0
C451 C 0.00437 0.49579 0.46829 0.0
C452 C 0.96369 0.4762 0.58787 0.0
C453 C 0.95182 0.4944 0.59773 0.0
C454 C 0.98603 0.49493 0.51264 0.0
C455 C 0.95734 0.51253 0.56328 0.0
C456 C 0.00961 0.51433 0.43539 0.0
C457 C 0.03321 0.47827 0.41825 0.0
N458 N 0.9741 0.51236 0.52234 0.0
N459 N 0.01638 0.47841 0.4589 0.0
H460 H 0.0434 0.52814 0.0674 0.0
H461 H 0.94854 0.4623 0.91365 0.0
H462 H 0.03075 0.46353 0.11445 0.0
H463 H 0.96124 0.52693 0.86699 0.0
H464 H 0.97857 0.4624 0.9879 0.0
H465 H 0.01356 0.52789 0.99248 0.0
C466 C 0.03442 0.51388 0.06162 0.0
C467 C 0.03953 0.49584 0.09712 0.0
C468 C 0.97475 0.47658 0.96152 0.0
C469 C 0.00532 0.49545 0.01209 0.0
C470 C 0.95758 0.47653 0.91934 0.0
C471 C 0.95241 0.49463 0.88423 0.0
C472 C 0.98682 0.49485 0.96849 0.0
C473 C 0.96468 0.51262 0.89318 0.0
C474 C 0.01735 0.51374 0.01906 0.0
C475 C 0.02735 0.47779 0.088 0.0
N476 N 0.98132 0.51227 0.93433 0.0
N477 N 0.01078 0.47807 0.04651 0.0
H478 H 0.45928 0.5299 0.6165 0.0
H479 H 0.53026 0.46312 0.37124 0.0
H480 H 0.44851 0.46466 0.57363 0.0
H481 H 0.54133 0.52823 0.41523 0.0
H482 H 0.5003 0.46339 0.44511 0.0
H483 H 0.48902 0.52972 0.54172 0.0
C484 C 0.46311 0.51554 0.591 0.0
C485 C 0.45142 0.49724 0.60126 0.0
C486 C 0.50929 0.47762 0.4388 0.0
C487 C 0.48557 0.49691 0.5159 0.0
C488 C 0.52644 0.47746 0.39676 0.0
C489 C 0.5383 0.49569 0.38718 0.0
C490 C 0.5039 0.49615 0.47151 0.0
C491 C 0.53263 0.51383 0.42136 0.0
C492 C 0.48014 0.51545 0.54844 0.0
C493 C 0.45709 0.47911 0.56703 0.0
N494 N 0.51578 0.51361 0.46196 0.0
N495 N 0.47382 0.47938 0.52597 0.0
H496 H 0.13233 0.43624 0.27371 0.0
H497 H 0.18571 0.38168 0.96453 0.0
H498 H 0.12525 0.4596 0.07738 0.0
H499 H 0.21012 0.37566 0.15996 0.0
H500 H 0.1595 0.40652 0.0054 0.0
H501 H 0.15715 0.40997 0.23301 0.0
C502 C 0.13594 0.43577 0.22208 0.0
C503 C 0.12684 0.45013 0.17886 0.0
C504 C 0.17061 0.39973 0.03923 0.0
C505 C 0.15493 0.42014 0.13204 0.0
C506 C 0.18549 0.38553 0.01601 0.0
C507 C 0.20013 0.37671 0.05891 0.0
C508 C 0.1702 0.40484 0.10593 0.0
C509 C 0.19918 0.38222 0.12517 0.0
C510 C 0.15013 0.42086 0.19894 0.0
C511 C 0.13204 0.44888 0.1124 0.0
N512 N 0.18442 0.39588 0.14673 0.0
N513 N 0.14569 0.4341 0.09096 0.0
H514 H 0.80752 0.88193 0.53303 0.0
H515 H 0.86192 0.93286 0.2196 0.0
H516 H 0.78378 0.87464 0.33721 0.0
H517 H 0.86967 0.95818 0.41332 0.0
H518 H 0.83716 0.90719 0.26329 0.0
H519 H 0.83429 0.90607 0.4911 0.0
C520 C 0.80799 0.88537 0.48128 0.0
C521 C 0.79339 0.87639 0.43852 0.0
C522 C 0.84432 0.91834 0.29622 0.0
C523 C 0.82396 0.90364 0.39038 0.0
C524 C 0.8585 0.93292 0.27138 0.0
C525 C 0.86775 0.94771 0.31289 0.0
C526 C 0.83957 0.91838 0.36316 0.0
C527 C 0.86276 0.94711 0.37961 0.0
C528 C 0.8232 0.89914 0.45747 0.0
C529 C 0.79467 0.88133 0.37191 0.0
N530 N 0.84902 0.93265 0.40277 0.0
N531 N 0.80972 0.89456 0.34986 0.0
H532 H 0.30527 0.60961 0.46351 0.0
H533 H 0.35874 0.5568 0.77525 0.0
H534 H 0.28123 0.61722 0.65892 0.0
H535 H 0.36514 0.53187 0.58055 0.0
H536 H 0.33402 0.58293 0.73325 0.0
H537 H 0.33128 0.58477 0.50555 0.0
C538 C 0.30553 0.60611 0.51523 0.0
C539 C 0.29106 0.61537 0.55779 0.0
C540 C 0.34087 0.57173 0.69983 0.0
C541 C 0.32076 0.58725 0.60614 0.0
C542 C 0.35499 0.55688 0.7237 0.0
C543 C 0.36388 0.54213 0.68132 0.0
C544 C 0.33592 0.57198 0.63301 0.0
C545 C 0.35851 0.5429 0.61494 0.0
C546 C 0.3203 0.59191 0.53913 0.0
C547 C 0.29205 0.6103 0.62439 0.0
N548 N 0.34494 0.55763 0.59275 0.0
N549 N 0.30669 0.59664 0.64658 0.0
H550 H 0.7113 0.11726 0.81999 0.0
H551 H 0.62472 0.03218 0.90478 0.0
H552 H 0.68498 0.11021 0.01273 0.0
H553 H 0.63299 0.05594 0.70934 0.0
H554 H 0.64932 0.05844 0.94488 0.0
H555 H 0.68513 0.09268 0.77787 0.0
C556 C 0.69998 0.11056 0.85339 0.0
C557 C 0.7003 0.11572 0.91997 0.0
C558 C 0.6457 0.05798 0.89327 0.0
C559 C 0.67055 0.08753 0.87229 0.0
C560 C 0.63174 0.04294 0.87027 0.0
C561 C 0.62685 0.04189 0.80362 0.0
C562 C 0.65513 0.07188 0.84919 0.0
C563 C 0.63633 0.05627 0.76113 0.0
C564 C 0.68504 0.09662 0.82928 0.0
C565 C 0.68526 0.10666 0.96107 0.0
N566 N 0.65018 0.07061 0.78458 0.0
N567 N 0.6711 0.09287 0.93666 0.0
H568 H 0.13161 0.55681 0.21152 0.0
H569 H 0.18467 0.61078 0.52229 0.0
H570 H 0.12448 0.53299 0.40733 0.0
H571 H 0.20891 0.61754 0.32682 0.0
H572 H 0.15843 0.58609 0.48079 0.0
H573 H 0.15611 0.58323 0.253 0.0
C574 C 0.13515 0.5572 0.26321 0.0
C575 C 0.12613 0.54266 0.30604 0.0
C576 C 0.16949 0.59303 0.44708 0.0
C577 C 0.15387 0.57283 0.35374 0.0
C578 C 0.1844 0.60713 0.47067 0.0
C579 C 0.19902 0.61609 0.42794 0.0
C580 C 0.16905 0.58814 0.38022 0.0
C581 C 0.198 0.61086 0.36148 0.0
C582 C 0.14914 0.57221 0.28679 0.0
C583 C 0.13122 0.54384 0.37259 0.0
N584 N 0.18323 0.59727 0.3396 0.0
N585 N 0.1447 0.55871 0.39446 0.0
H586 H 0.62462 0.96014 0.5733 0.0
H587 H 0.70947 0.87415 0.66622 0.0
H588 H 0.63088 0.93541 0.76826 0.0
H589 H 0.68684 0.88217 0.46943 0.0
H590 H 0.68282 0.89869 0.70466 0.0
H591 H 0.64942 0.93378 0.53418 0.0
C592 C 0.6312 0.94913 0.60786 0.0
C593 C 0.62575 0.94997 0.67416 0.0
C594 C 0.68362 0.89501 0.65312 0.0
C595 C 0.65421 0.91992 0.62981 0.0
C596 C 0.69887 0.88108 0.63109 0.0
C597 C 0.70037 0.87618 0.56451 0.0
C598 C 0.66997 0.90438 0.60814 0.0
C599 C 0.68618 0.88553 0.52118 0.0
C600 C 0.64528 0.93406 0.58544 0.0
C601 C 0.63466 0.93529 0.71675 0.0
N602 N 0.67165 0.89934 0.54368 0.0
N603 N 0.64861 0.92096 0.69394 0.0
H604 H 0.36681 0.46052 0.91394 0.0
H605 H 0.2824 0.37347 0.82765 0.0
H606 H 0.3598 0.4354 0.71971 0.0
H607 H 0.30626 0.38209 0.02277 0.0
H608 H 0.3086 0.39814 0.78699 0.0
H609 H 0.34258 0.43393 0.95479 0.0
C610 C 0.36016 0.44938 0.87989 0.0
C611 C 0.36524 0.45017 0.8133 0.0
C612 C 0.30817 0.39455 0.83863 0.0
C613 C 0.33743 0.41984 0.85966 0.0
C614 C 0.29318 0.38055 0.86194 0.0
C615 C 0.29215 0.3758 0.92872 0.0
C616 C 0.32202 0.40414 0.88256 0.0
C617 C 0.30656 0.38533 0.97092 0.0
C618 C 0.34642 0.43417 0.90331 0.0
C619 C 0.35628 0.43532 0.77141 0.0
N620 N 0.32081 0.39921 0.9472 0.0
N621 N 0.34265 0.42084 0.79521 0.0
H622 H 0.81776 0.13076 0.0308 0.0
H623 H 0.83872 0.01544 0.15709 0.0
H624 H 0.76755 0.08956 0.08854 0.0
H625 H 0.88176 0.06555 0.20053 0.0
H626 H 0.8137 0.04113 0.11508 0.0
H627 H 0.8431 0.10558 0.0757 0.0
C628 C 0.81211 0.11636 0.05249 0.0
C629 C 0.79058 0.11216 0.05605 0.0
C630 C 0.82859 0.0465 0.13407 0.0
C631 C 0.81928 0.08345 0.10659 0.0
C632 C 0.84286 0.03188 0.15791 0.0
C633 C 0.86225 0.03845 0.18245 0.0
C634 C 0.83397 0.06778 0.13332 0.0
C635 C 0.86687 0.05992 0.18242 0.0
C636 C 0.82651 0.10214 0.07842 0.0
C637 C 0.78402 0.09339 0.085 0.0
N638 N 0.85289 0.07386 0.15751 0.0
N639 N 0.79832 0.07964 0.10872 0.0
H640 H 0.80749 0.60874 0.02914 0.0
H641 H 0.86018 0.55613 0.7152 0.0
H642 H 0.78369 0.61722 0.83388 0.0
H643 H 0.86686 0.53097 0.9095 0.0
H644 H 0.83599 0.58259 0.75825 0.0
H645 H 0.83346 0.58396 0.98627 0.0
C646 C 0.80781 0.60545 0.97729 0.0
C647 C 0.79339 0.61492 0.93501 0.0
C648 C 0.8428 0.57127 0.79137 0.0
C649 C 0.82304 0.58687 0.88573 0.0
C650 C 0.85661 0.55623 0.76689 0.0
C651 C 0.86541 0.5413 0.80883 0.0
C652 C 0.83804 0.57153 0.85835 0.0
C653 C 0.8603 0.54212 0.87542 0.0
C654 C 0.82255 0.5913 0.95291 0.0
C655 C 0.79445 0.61014 0.86821 0.0
N656 N 0.84699 0.55702 0.89819 0.0
N657 N 0.80905 0.59649 0.84559 0.0
H658 H 0.22604 0.09325 0.60975 0.0
H659 H 0.10813 0.06795 0.70416 0.0
H660 H 0.17513 0.131 0.53706 0.0
H661 H 0.15366 0.01932 0.66972 0.0
H662 H 0.13363 0.09398 0.66508 0.0
H663 H 0.20055 0.06841 0.65426 0.0
C664 C 0.20948 0.09633 0.60337 0.0
C665 C 0.20262 0.1141 0.56941 0.0
C666 C 0.13797 0.0776 0.66644 0.0
C667 C 0.17353 0.08602 0.6211 0.0
C668 C 0.12355 0.06281 0.68903 0.0
C669 C 0.12886 0.04152 0.68988 0.0
C670 C 0.15792 0.071 0.64626 0.0
C671 C 0.14896 0.0356 0.66944 0.0
C672 C 0.195 0.08215 0.6286 0.0
C673 C 0.18101 0.11737 0.5625 0.0
N674 N 0.16283 0.05029 0.64882 0.0
N675 N 0.16716 0.1035 0.58857 0.0
H676 H 0.70897 0.37322 0.3247 0.0
H677 H 0.6241 0.45973 0.41255 0.0
H678 H 0.68467 0.38121 0.51963 0.0
H679 H 0.63149 0.4353 0.21758 0.0
H680 H 0.64843 0.43315 0.45274 0.0
H681 H 0.68281 0.39799 0.28432 0.0
C682 C 0.6981 0.38019 0.35899 0.0
C683 C 0.69899 0.37522 0.42564 0.0
C684 C 0.64465 0.43354 0.40124 0.0
C685 C 0.66918 0.40367 0.37984 0.0
C686 C 0.63085 0.44875 0.3782 0.0
C687 C 0.62583 0.44972 0.3116 0.0
C688 C 0.65377 0.4194 0.35722 0.0
C689 C 0.63494 0.43506 0.2693 0.0
C690 C 0.68314 0.39424 0.33586 0.0
C691 C 0.68448 0.38461 0.46788 0.0
N692 N 0.64862 0.42059 0.29275 0.0
N693 N 0.67026 0.39854 0.44434 0.0
H694 H 0.36121 0.93503 0.2676 0.0
H695 H 0.30628 0.88204 0.95823 0.0
H696 H 0.36919 0.95834 0.07151 0.0
H697 H 0.28321 0.87555 0.15516 0.0
H698 H 0.33326 0.90623 -0.00174 0.0
H699 H 0.33639 0.909 0.22631 0.0
C700 C 0.35783 0.93458 0.21582 0.0
C701 C 0.36715 0.9489 0.17292 0.0
C702 C 0.32228 0.89946 0.03258 0.0
C703 C 0.33892 0.91917 0.1254 0.0
C704 C 0.30695 0.88565 0.00984 0.0
C705 C 0.29246 0.8769 0.05345 0.0
C706 C 0.32326 0.90425 0.09945 0.0
C707 C 0.294 0.88207 0.11983 0.0
C708 C 0.34362 0.91979 0.19234 0.0
C709 C 0.36223 0.94764 0.10627 0.0
N710 N 0.30915 0.89535 0.14084 0.0
N711 N 0.34845 0.93301 0.08448 0.0
H712 H 0.8051 0.38147 0.46185 0.0
H713 H 0.85904 0.43472 0.77209 0.0
H714 H 0.78117 0.37455 0.65763 0.0
H715 H 0.86555 0.45916 0.57682 0.0
H716 H 0.83422 0.4086 0.73071 0.0
H717 H 0.83132 0.40624 0.50308 0.0
C718 C 0.80543 0.38511 0.51348 0.0
C719 C 0.79092 0.37606 0.55639 0.0
C720 C 0.84112 0.41969 0.69702 0.0
C721 C 0.82086 0.40409 0.6038 0.0
C722 C 0.8553 0.43453 0.72054 0.0
C723 C 0.86424 0.44915 0.67784 0.0
C724 C 0.83615 0.41931 0.63022 0.0
C725 C 0.85888 0.44824 0.61146 0.0
C726 C 0.82031 0.39926 0.5369 0.0
C727 C 0.792 0.3813 0.62284 0.0
N728 N 0.84523 0.43352 0.58962 0.0
N729 N 0.80676 0.39491 0.64458 0.0
H730 H 0.31754 0.13153 0.45324 0.0
H731 H 0.33726 0.01819 0.31263 0.0
H732 H 0.26692 0.09357 0.37966 0.0
H733 H 0.38209 0.06762 0.2805 0.0
H734 H 0.3121 0.04413 0.35257 0.0
H735 H 0.34268 0.10668 0.4057 0.0
C736 C 0.31175 0.11794 0.42729 0.0
C737 C 0.29018 0.11452 0.42032 0.0
C738 C 0.3274 0.04929 0.33638 0.0
C739 C 0.31866 0.08614 0.36689 0.0
C740 C 0.34175 0.03454 0.31379 0.0
C741 C 0.3617 0.04085 0.29319 0.0
C742 C 0.33326 0.07042 0.33999 0.0
C743 C 0.36677 0.0622 0.2956 0.0
C744 C 0.32606 0.1039 0.39991 0.0
C745 C 0.28345 0.09677 0.38596 0.0
N746 N 0.3527 0.07625 0.31945 0.0
N747 N 0.29764 0.08311 0.36106 0.0
H748 H 0.63233 0.55574 0.27825 0.0
H749 H 0.6867 0.60978 0.96989 0.0
H750 H 0.62532 0.53248 0.08178 0.0
H751 H 0.71101 0.61545 0.16553 0.0
H752 H 0.66018 0.58523 0.01042 0.0
H753 H 0.65748 0.58176 0.23794 0.0
C754 C 0.63602 0.55618 0.22666 0.0
C755 C 0.62684 0.54191 0.18329 0.0
C756 C 0.67133 0.59188 0.04439 0.0
C757 C 0.65532 0.57162 0.13694 0.0
C758 C 0.6864 0.60591 0.02135 0.0
C759 C 0.70109 0.61455 0.06441 0.0
C760 C 0.67079 0.58675 0.11106 0.0
C761 C 0.70003 0.60902 0.13064 0.0
C762 C 0.6504 0.57095 0.20376 0.0
C763 C 0.63216 0.54312 0.11691 0.0
N764 N 0.68509 0.59553 0.15202 0.0
N765 N 0.64599 0.55777 0.0957 0.0
H766 H 0.1846 0.88249 0.02599 0.0
H767 H 0.13069 0.93541 0.71488 0.0
H768 H 0.20851 0.87638 0.82991 0.0
H769 H 0.12159 0.95856 0.91069 0.0
H770 H 0.15558 0.90964 0.75711 0.0
H771 H 0.15775 0.90672 0.98525 0.0
C772 C 0.18415 0.8862 0.97443 0.0
C773 C 0.19882 0.87752 0.93125 0.0
C774 C 0.1481 0.92034 0.79082 0.0
C775 C 0.16817 0.90491 0.88444 0.0
C776 C 0.13385 0.93498 0.7668 0.0
C777 C 0.12417 0.94918 0.80935 0.0
C778 C 0.15251 0.91973 0.85795 0.0
C779 C 0.12882 0.94795 0.8762 0.0
C780 C 0.16889 0.90003 0.95128 0.0
C781 C 0.19757 0.88283 0.86492 0.0
N782 N 0.14265 0.93345 0.89853 0.0
N783 N 0.18248 0.89611 0.84351 0.0
loop_
_geom_bond_atom_site_label_1
_geom_bond_atom_site_label_2
_geom_bond_distance
_geom_bond_site_symmetry_2
_ccdc_geom_bond_type
In0 O1 2.294 1_554 S
In0 O2 2.326 . S
In0 O6 2.266 1_554 S
In0 O7 2.326 1_554 S
In0 O8 2.266 . S
In0 O9 2.326 . S
In0 O11 2.294 . S
In0 O12 2.326 1_554 S
O1 In0 2.294 1_556 S
O1 C10 1.240 1_556 S
O2 In0 2.326 . S
O2 C10 1.252 . S
C3 O6 1.252 . S
C3 O7 1.260 . S
C4 O11 1.240 1_556 S
C4 O12 1.252 . S
C5 O8 1.252 . S
C5 O9 1.260 . S
O6 In0 2.266 1_556 S
O6 C3 1.252 . S
O7 In0 2.326 1_556 S
O7 C3 1.260 . S
O8 In0 2.266 . S
O8 C5 1.252 . S
O9 In0 2.326 . S
O9 C5 1.260 . S
C10 O1 1.240 1_554 S
C10 O2 1.252 . S
O11 In0 2.294 . S
O11 C4 1.240 1_554 S
O12 In0 2.326 1_556 S
O12 C4 1.252 . S
In13 O14 2.294 . S
In13 O15 2.326 . S
In13 O19 2.266 . S
In13 O20 2.326 1_545 S
In13 O21 2.266 1_545 S
In13 O22 2.326 . S
In13 O24 2.294 1_545 S
In13 O25 2.326 1_545 S
O14 In13 2.294 . S
O14 C23 1.240 . S
O15 In13 2.326 . S
O15 C23 1.252 . S
C16 O19 1.253 . S
C16 O20 1.259 1_545 S
C17 O24 1.240 . S
C17 O25 1.252 . S
C18 O21 1.253 1_545 S
C18 O22 1.259 . S
O19 In13 2.266 . S
O19 C16 1.253 . S
O20 In13 2.326 1_565 S
O20 C16 1.259 1_565 S
O21 In13 2.266 1_565 S
O21 C18 1.253 1_565 S
O22 In13 2.326 . S
O22 C18 1.259 . S
C23 O14 1.240 . S
C23 O15 1.252 . S
O24 In13 2.294 1_565 S
O24 C17 1.240 . S
O25 In13 2.326 1_565 S
O25 C17 1.252 . S
In26 O27 2.294 . S
In26 O28 2.326 . S
In26 O32 2.266 . S
In26 O33 2.326 . S
In26 O34 2.266 . S
In26 O35 2.326 . S
In26 O37 2.294 . S
In26 O38 2.326 . S
O27 In26 2.294 . S
O27 C36 1.240 . S
O28 In26 2.326 . S
O28 C36 1.252 . S
C29 O32 1.252 . S
C29 O33 1.260 . S
C30 O37 1.240 . S
C30 O38 1.252 . S
C31 O34 1.252 . S
C31 O35 1.260 . S
O32 In26 2.266 . S
O32 C29 1.252 . S
O33 In26 2.326 . S
O33 C29 1.260 . S
O34 In26 2.266 . S
O34 C31 1.252 . S
O35 In26 2.326 . S
O35 C31 1.260 . S
C36 O27 1.240 . S
C36 O28 1.252 . S
O37 In26 2.294 . S
O37 C30 1.240 . S
O38 In26 2.326 . S
O38 C30 1.252 . S
In39 O40 2.294 . S
In39 O41 2.326 . S
In39 O45 2.266 . S
In39 O46 2.326 1_545 S
In39 O47 2.266 1_545 S
In39 O48 2.326 . S
In39 O50 2.294 1_545 S
In39 O51 2.326 1_545 S
O40 In39 2.294 . S
O40 C49 1.240 . S
O41 In39 2.326 . S
O41 C49 1.252 . S
C42 O45 1.253 . S
C42 O46 1.259 1_545 S
C43 O50 1.240 . S
C43 O51 1.252 . S
C44 O47 1.253 1_545 S
C44 O48 1.259 . S
O45 In39 2.266 . S
O45 C42 1.253 . S
O46 In39 2.326 1_565 S
O46 C42 1.259 1_565 S
O47 In39 2.266 1_565 S
O47 C44 1.253 1_565 S
O48 In39 2.326 . S
O48 C44 1.259 . S
C49 O40 1.240 . S
C49 O41 1.252 . S
O50 In39 2.294 1_565 S
O50 C43 1.240 . S
O51 In39 2.326 1_565 S
O51 C43 1.252 . S
In52 O53 2.294 1_554 S
In52 O54 2.326 . S
In52 O58 2.266 1_554 S
In52 O59 2.326 1_554 S
In52 O60 2.266 . S
In52 O61 2.326 . S
In52 O63 2.294 . S
In52 O64 2.326 1_554 S
O53 In52 2.294 1_556 S
O53 C62 1.240 1_556 S
O54 In52 2.326 . S
O54 C62 1.252 . S
C55 O58 1.252 . S
C55 O59 1.260 . S
C56 O63 1.240 1_556 S
C56 O64 1.252 . S
C57 O60 1.252 . S
C57 O61 1.260 . S
O58 In52 2.266 1_556 S
O58 C55 1.252 . S
O59 In52 2.326 1_556 S
O59 C55 1.260 . S
O60 In52 2.266 . S
O60 C57 1.252 . S
O61 In52 2.326 . S
O61 C57 1.260 . S
C62 O53 1.240 1_554 S
C62 O54 1.252 . S
O63 In52 2.294 . S
O63 C56 1.240 1_554 S
O64 In52 2.326 1_556 S
O64 C56 1.252 . S
In65 O66 2.294 . S
In65 O67 2.326 . S
In65 O71 2.266 . S
In65 O72 2.326 1_545 S
In65 O73 2.266 1_545 S
In65 O74 2.326 . S
In65 O76 2.294 1_545 S
In65 O77 2.326 1_545 S
O66 In65 2.294 . S
O66 C75 1.240 . S
O67 In65 2.326 . S
O67 C75 1.252 . S
C68 O71 1.253 . S
C68 O72 1.259 1_545 S
C69 O76 1.240 . S
C69 O77 1.252 . S
C70 O73 1.253 1_545 S
C70 O74 1.259 . S
O71 In65 2.266 . S
O71 C68 1.253 . S
O72 In65 2.326 1_565 S
O72 C68 1.259 1_565 S
O73 In65 2.266 1_565 S
O73 C70 1.253 1_565 S
O74 In65 2.326 . S
O74 C70 1.259 . S
C75 O66 1.240 . S
C75 O67 1.252 . S
O76 In65 2.294 1_565 S
O76 C69 1.240 . S
O77 In65 2.326 1_565 S
O77 C69 1.252 . S
In78 O79 2.294 . S
In78 O80 2.326 . S
In78 O84 2.266 . S
In78 O85 2.326 . S
In78 O86 2.266 . S
In78 O87 2.326 . S
In78 O89 2.294 . S
In78 O90 2.326 . S
O79 In78 2.294 . S
O79 C88 1.240 . S
O80 In78 2.326 . S
O80 C88 1.252 . S
C81 O84 1.252 . S
C81 O85 1.260 . S
C82 O89 1.240 . S
C82 O90 1.252 . S
C83 O86 1.252 . S
C83 O87 1.260 . S
O84 In78 2.266 . S
O84 C81 1.252 . S
O85 In78 2.326 . S
O85 C81 1.260 . S
O86 In78 2.266 . S
O86 C83 1.252 . S
O87 In78 2.326 . S
O87 C83 1.260 . S
C88 O79 1.240 . S
C88 O80 1.252 . S
O89 In78 2.294 . S
O89 C82 1.240 . S
O90 In78 2.326 . S
O90 C82 1.252 . S
In91 O92 2.294 1_545 S
In91 O93 2.326 1_545 S
In91 O97 2.266 1_545 S
In91 O98 2.326 . S
In91 O99 2.266 . S
In91 O100 2.326 1_545 S
In91 O102 2.294 . S
In91 O103 2.326 . S
O92 In91 2.294 1_565 S
O92 C101 1.240 . S
O93 In91 2.326 1_565 S
O93 C101 1.252 . S
C94 O97 1.253 1_545 S
C94 O98 1.259 . S
C95 O102 1.240 . S
C95 O103 1.252 . S
C96 O99 1.253 . S
C96 O100 1.259 1_545 S
O97 In91 2.266 1_565 S
O97 C94 1.253 1_565 S
O98 In91 2.326 . S
O98 C94 1.259 . S
O99 In91 2.266 . S
O99 C96 1.253 . S
O100 In91 2.326 1_565 S
O100 C96 1.259 1_565 S
C101 O92 1.240 . S
C101 O93 1.252 . S
O102 In91 2.294 . S
O102 C95 1.240 . S
O103 In91 2.326 . S
O103 C95 1.252 . S
In104 O105 2.294 . S
In104 O106 2.326 . S
In104 O110 2.266 . S
In104 O111 2.326 . S
In104 O112 2.266 . S
In104 O113 2.326 . S
In104 O115 2.294 . S
In104 O116 2.326 . S
O105 In104 2.294 . S
O105 C114 1.240 . S
O106 In104 2.326 . S
O106 C114 1.252 . S
C107 O110 1.252 . S
C107 O111 1.260 . S
C108 O115 1.240 . S
C108 O116 1.252 . S
C109 O112 1.252 . S
C109 O113 1.260 . S
O110 In104 2.266 . S
O110 C107 1.252 . S
O111 In104 2.326 . S
O111 C107 1.260 . S
O112 In104 2.266 . S
O112 C109 1.252 . S
O113 In104 2.326 . S
O113 C109 1.260 . S
C114 O105 1.240 . S
C114 O106 1.252 . S
O115 In104 2.294 . S
O115 C108 1.240 . S
O116 In104 2.326 . S
O116 C108 1.252 . S
In117 O118 2.294 . S
In117 O119 2.326 . S
In117 O123 2.266 . S
In117 O124 2.326 . S
In117 O125 2.266 . S
In117 O126 2.326 . S
In117 O128 2.294 . S
In117 O129 2.326 . S
O118 In117 2.294 . S
O118 C127 1.240 . S
O119 In117 2.326 . S
O119 C127 1.252 . S
C120 O123 1.252 . S
C120 O124 1.260 . S
C121 O128 1.240 . S
C121 O129 1.252 . S
C122 O125 1.252 . S
C122 O126 1.260 . S
O123 In117 2.266 . S
O123 C120 1.252 . S
O124 In117 2.326 . S
O124 C120 1.260 . S
O125 In117 2.266 . S
O125 C122 1.252 . S
O126 In117 2.326 . S
O126 C122 1.260 . S
C127 O118 1.240 . S
C127 O119 1.252 . S
O128 In117 2.294 . S
O128 C121 1.240 . S
O129 In117 2.326 . S
O129 C121 1.252 . S
In130 O131 2.294 1_554 S
In130 O132 2.326 . S
In130 O136 2.266 1_554 S
In130 O137 2.326 1_554 S
In130 O138 2.266 . S
In130 O139 2.326 . S
In130 O141 2.294 . S
In130 O142 2.326 1_554 S
O131 In130 2.294 1_556 S
O131 C140 1.240 1_556 S
O132 In130 2.326 . S
O132 C140 1.252 . S
C133 O136 1.252 . S
C133 O137 1.260 . S
C134 O141 1.240 1_556 S
C134 O142 1.252 . S
C135 O138 1.252 . S
C135 O139 1.260 . S
O136 In130 2.266 1_556 S
O136 C133 1.252 . S
O137 In130 2.326 1_556 S
O137 C133 1.260 . S
O138 In130 2.266 . S
O138 C135 1.252 . S
O139 In130 2.326 . S
O139 C135 1.260 . S
C140 O131 1.240 1_554 S
C140 O132 1.252 . S
O141 In130 2.294 . S
O141 C134 1.240 1_554 S
O142 In130 2.326 1_556 S
O142 C134 1.252 . S
In143 O144 2.294 . S
In143 O145 2.326 . S
In143 O149 2.266 . S
In143 O150 2.326 . S
In143 O151 2.266 . S
In143 O152 2.326 . S
In143 O154 2.294 . S
In143 O155 2.326 . S
O144 In143 2.294 . S
O144 C153 1.240 . S
O145 In143 2.326 . S
O145 C153 1.252 . S
C146 O149 1.252 . S
C146 O150 1.260 . S
C147 O154 1.240 . S
C147 O155 1.252 . S
C148 O151 1.252 . S
C148 O152 1.260 . S
O149 In143 2.266 . S
O149 C146 1.252 . S
O150 In143 2.326 . S
O150 C146 1.260 . S
O151 In143 2.266 . S
O151 C148 1.252 . S
O152 In143 2.326 . S
O152 C148 1.260 . S
C153 O144 1.240 . S
C153 O145 1.252 . S
O154 In143 2.294 . S
O154 C147 1.240 . S
O155 In143 2.326 . S
O155 C147 1.252 . S
In156 O157 2.294 . S
In156 O158 2.326 . S
In156 O162 2.266 . S
In156 O163 2.326 . S
In156 O164 2.266 . S
In156 O165 2.326 . S
In156 O167 2.294 . S
In156 O168 2.326 . S
O157 In156 2.294 . S
O157 C166 1.240 . S
O158 In156 2.326 . S
O158 C166 1.252 . S
C159 O162 1.252 . S
C159 O163 1.260 . S
C160 O167 1.240 . S
C160 O168 1.252 . S
C161 O164 1.252 . S
C161 O165 1.260 . S
O162 In156 2.266 . S
O162 C159 1.252 . S
O163 In156 2.326 . S
O163 C159 1.260 . S
O164 In156 2.266 . S
O164 C161 1.252 . S
O165 In156 2.326 . S
O165 C161 1.260 . S
C166 O157 1.240 . S
C166 O158 1.252 . S
O167 In156 2.294 . S
O167 C160 1.240 . S
O168 In156 2.326 . S
O168 C160 1.252 . S
In169 O170 2.294 . S
In169 O171 2.326 . S
In169 O175 2.266 . S
In169 O176 2.326 . S
In169 O177 2.266 . S
In169 O178 2.326 . S
In169 O180 2.294 . S
In169 O181 2.326 . S
O170 In169 2.294 . S
O170 C179 1.240 . S
O171 In169 2.326 . S
O171 C179 1.252 . S
C172 O175 1.252 . S
C172 O176 1.260 . S
C173 O180 1.240 . S
C173 O181 1.252 . S
C174 O177 1.252 . S
C174 O178 1.260 . S
O175 In169 2.266 . S
O175 C172 1.252 . S
O176 In169 2.326 . S
O176 C172 1.260 . S
O177 In169 2.266 . S
O177 C174 1.252 . S
O178 In169 2.326 . S
O178 C174 1.260 . S
C179 O170 1.240 . S
C179 O171 1.252 . S
O180 In169 2.294 . S
O180 C173 1.240 . S
O181 In169 2.326 . S
O181 C173 1.252 . S
In182 O183 2.294 . S
In182 O184 2.326 1_554 S
In182 O188 2.266 . S
In182 O189 2.326 . S
In182 O190 2.266 1_554 S
In182 O191 2.326 1_554 S
In182 O193 2.294 1_554 S
In182 O194 2.326 . S
O183 In182 2.294 . S
O183 C192 1.240 1_554 S
O184 In182 2.326 1_556 S
O184 C192 1.252 . S
C185 O188 1.252 . S
C185 O189 1.260 . S
C186 O193 1.240 1_554 S
C186 O194 1.252 . S
C187 O190 1.252 . S
C187 O191 1.260 . S
O188 In182 2.266 . S
O188 C185 1.252 . S
O189 In182 2.326 . S
O189 C185 1.260 . S
O190 In182 2.266 1_556 S
O190 C187 1.252 . S
O191 In182 2.326 1_556 S
O191 C187 1.260 . S
C192 O183 1.240 1_556 S
C192 O184 1.252 . S
O193 In182 2.294 1_556 S
O193 C186 1.240 1_556 S
O194 In182 2.326 . S
O194 C186 1.252 . S
In195 O196 2.294 . S
In195 O197 2.326 . S
In195 O201 2.266 . S
In195 O202 2.326 . S
In195 O203 2.266 . S
In195 O204 2.326 . S
In195 O206 2.294 . S
In195 O207 2.326 . S
O196 In195 2.294 . S
O196 C205 1.240 . S
O197 In195 2.326 . S
O197 C205 1.252 . S
C198 O201 1.252 . S
C198 O202 1.260 . S
C199 O206 1.240 . S
C199 O207 1.252 . S
C200 O203 1.252 . S
C200 O204 1.260 . S
O201 In195 2.266 . S
O201 C198 1.252 . S
O202 In195 2.326 . S
O202 C198 1.260 . S
O203 In195 2.266 . S
O203 C200 1.252 . S
O204 In195 2.326 . S
O204 C200 1.260 . S
C205 O196 1.240 . S
C205 O197 1.252 . S
O206 In195 2.294 . S
O206 C199 1.240 . S
O207 In195 2.326 . S
O207 C199 1.252 . S
H208 C214 0.930 . S
H209 C218 0.930 . S
H210 C223 0.929 . S
H211 C221 0.929 . S
H212 C216 0.929 . S
H213 C222 0.929 . S
C214 H208 0.930 . S
C214 C215 1.367 . S
C214 C222 1.378 . S
C215 C214 1.367 . S
C215 C223 1.433 . S
C216 H212 0.929 . S
C216 C218 1.378 . S
C216 C220 1.350 . S
C217 C220 1.463 . S
C217 C222 1.350 . S
C217 N225 1.427 . S
C218 H209 0.930 . S
C218 C216 1.378 . S
C218 C219 1.367 . S
C219 C218 1.367 . S
C219 C221 1.433 . S
C220 C216 1.350 . S
C220 C217 1.463 . S
C220 N224 1.427 . S
C221 H211 0.929 . S
C221 C219 1.433 . S
C221 N224 1.384 . S
C222 H213 0.929 . S
C222 C214 1.378 . S
C222 C217 1.350 . S
C223 H210 0.929 . S
C223 C215 1.433 . S
C223 N225 1.384 . S
N224 C220 1.427 . S
N224 C221 1.384 . S
N225 C217 1.427 . S
N225 C223 1.384 . S
H226 C232 0.930 . S
H227 C236 0.930 . S
H228 C241 0.929 . S
H229 C239 0.929 . S
H230 C234 0.929 . S
H231 C240 0.929 . S
C232 H226 0.930 . S
C232 C233 1.412 . S
C232 C240 1.378 . S
C233 C232 1.412 . S
C233 C241 1.387 1_545 S
C234 H230 0.929 . S
C234 C236 1.378 . S
C234 C238 1.378 . S
C235 C238 1.460 1_645 S
C235 C240 1.389 . S
C235 N243 1.388 1_545 S
C236 H227 0.930 . S
C236 C234 1.378 . S
C236 C237 1.401 . S
C237 C236 1.401 . S
C237 C239 1.398 1_565 S
C238 C234 1.378 . S
C238 C235 1.460 1_465 S
C238 N242 1.399 1_565 S
C239 H229 0.929 . S
C239 C237 1.398 1_545 S
C239 N242 1.384 . S
C240 H231 0.929 . S
C240 C232 1.378 . S
C240 C235 1.389 . S
C241 H228 0.929 . S
C241 C233 1.387 1_565 S
C241 N243 1.384 . S
N242 C238 1.399 1_545 S
N242 C239 1.384 . S
N243 C235 1.388 1_565 S
N243 C241 1.384 . S
H244 C250 0.930 . S
H245 C254 0.930 . S
H246 C259 0.929 . S
H247 C257 0.929 . S
H248 C252 0.929 . S
H249 C258 0.929 . S
C250 H244 0.930 . S
C250 C251 1.367 . S
C250 C258 1.378 . S
C251 C250 1.367 . S
C251 C259 1.433 . S
C252 H248 0.929 . S
C252 C254 1.378 . S
C252 C256 1.350 . S
C253 C256 1.463 . S
C253 C258 1.350 . S
C253 N261 1.427 . S
C254 H245 0.930 . S
C254 C252 1.378 . S
C254 C255 1.367 . S
C255 C254 1.367 . S
C255 C257 1.433 . S
C256 C252 1.350 . S
C256 C253 1.463 . S
C256 N260 1.427 . S
C257 H247 0.929 . S
C257 C255 1.433 . S
C257 N260 1.384 . S
C258 H249 0.929 . S
C258 C250 1.378 . S
C258 C253 1.350 . S
C259 H246 0.929 . S
C259 C251 1.433 . S
C259 N261 1.384 . S
N260 C256 1.427 . S
N260 C257 1.384 . S
N261 C253 1.427 . S
N261 C259 1.384 . S
H262 C268 0.930 . S
H263 C272 0.930 . S
H264 C277 0.929 . S
H265 C275 0.929 . S
H266 C270 0.929 1_554 S
H267 C276 0.929 1_556 S
C268 H262 0.930 . S
C268 C269 1.362 1_565 S
C268 C276 1.378 . S
C269 C268 1.362 1_545 S
C269 C277 1.438 . S
C270 H266 0.929 1_556 S
C270 C272 1.378 . S
C270 C274 1.358 . S
C271 C274 1.462 1_564 S
C271 C276 1.352 . S
C271 N279 1.425 1_565 S
C272 H263 0.930 . S
C272 C270 1.378 . S
C272 C273 1.368 1_545 S
C273 C272 1.368 1_565 S
C273 C275 1.432 . S
C274 C270 1.358 . S
C274 C271 1.462 1_546 S
C274 N278 1.419 1_545 S
C275 H265 0.929 . S
C275 C273 1.432 . S
C275 N278 1.384 . S
C276 H267 0.929 1_554 S
C276 C268 1.378 . S
C276 C271 1.352 . S
C277 H264 0.929 . S
C277 C269 1.438 . S
C277 N279 1.384 . S
N278 C274 1.419 1_565 S
N278 C275 1.384 . S
N279 C271 1.425 1_545 S
N279 C277 1.384 . S
H280 C286 0.930 . S
H281 C290 0.930 . S
H282 C295 0.929 . S
H283 C293 0.929 . S
H284 C288 0.929 . S
H285 C294 0.929 . S
C286 H280 0.930 . S
C286 C287 1.367 . S
C286 C294 1.378 . S
C287 C286 1.367 . S
C287 C295 1.433 . S
C288 H284 0.929 . S
C288 C290 1.378 . S
C288 C292 1.350 . S
C289 C292 1.463 . S
C289 C294 1.350 . S
C289 N297 1.427 . S
C290 H281 0.930 . S
C290 C288 1.378 . S
C290 C291 1.367 . S
C291 C290 1.367 . S
C291 C293 1.433 . S
C292 C288 1.350 . S
C292 C289 1.463 . S
C292 N296 1.427 . S
C293 H283 0.929 . S
C293 C291 1.433 . S
C293 N296 1.384 . S
C294 H285 0.929 . S
C294 C286 1.378 . S
C294 C289 1.350 . S
C295 H282 0.929 . S
C295 C287 1.433 . S
C295 N297 1.384 . S
N296 C292 1.427 . S
N296 C293 1.384 . S
N297 C289 1.427 . S
N297 C295 1.384 . S
H298 C304 0.930 . S
H299 C308 0.930 . S
H300 C313 0.929 . S
H301 C311 0.929 . S
H302 C306 0.929 . S
H303 C312 0.929 . S
C304 H298 0.930 . S
C304 C305 1.363 . S
C304 C312 1.378 . S
C305 C304 1.363 . S
C305 C313 1.437 1_545 S
C306 H302 0.929 . S
C306 C308 1.378 . S
C306 C310 1.357 . S
C307 C310 1.462 1_545 S
C307 C312 1.365 . S
C307 N315 1.412 1_545 S
C308 H299 0.930 . S
C308 C306 1.378 . S
C308 C309 1.363 1_565 S
C309 C308 1.363 1_545 S
C309 C311 1.437 . S
C310 C306 1.357 . S
C310 C307 1.462 1_565 S
C310 N314 1.420 1_565 S
C311 H301 0.929 . S
C311 C309 1.437 . S
C311 N314 1.384 . S
C312 H303 0.929 . S
C312 C304 1.378 . S
C312 C307 1.365 . S
C313 H300 0.929 . S
C313 C305 1.437 1_565 S
C313 N315 1.384 . S
N314 C310 1.420 1_545 S
N314 C311 1.384 . S
N315 C307 1.412 1_565 S
N315 C313 1.384 . S
H316 C322 0.930 . S
H317 C326 0.930 . S
H318 C331 0.929 . S
H319 C329 0.929 . S
H320 C324 0.929 . S
H321 C330 0.929 . S
C322 H316 0.930 . S
C322 C323 1.367 . S
C322 C330 1.378 . S
C323 C322 1.367 . S
C323 C331 1.433 . S
C324 H320 0.929 . S
C324 C326 1.378 . S
C324 C328 1.350 . S
C325 C328 1.463 . S
C325 C330 1.350 . S
C325 N333 1.427 . S
C326 H317 0.930 . S
C326 C324 1.378 . S
C326 C327 1.367 . S
C327 C326 1.367 . S
C327 C329 1.433 . S
C328 C324 1.350 . S
C328 C325 1.463 . S
C328 N332 1.427 . S
C329 H319 0.929 . S
C329 C327 1.433 . S
C329 N332 1.384 . S
C330 H321 0.929 . S
C330 C322 1.378 . S
C330 C325 1.350 . S
C331 H318 0.929 . S
C331 C323 1.433 . S
C331 N333 1.384 . S
N332 C328 1.427 . S
N332 C329 1.384 . S
N333 C325 1.427 . S
N333 C331 1.384 . S
H334 C340 0.930 . S
H335 C344 0.930 . S
H336 C349 0.929 . S
H337 C347 0.929 . S
H338 C342 0.933 . S
H339 C348 0.933 . S
C340 H334 0.930 . S
C340 C341 1.364 1_565 S
C340 C348 1.375 1_556 S
C341 C340 1.364 1_545 S
C341 C349 1.436 . S
C342 H338 0.933 . S
C342 C344 1.375 1_556 S
C342 C346 1.349 1_556 S
C343 C346 1.463 1_456 S
C343 C348 1.349 1_546 S
C343 N351 1.427 . S
C344 H335 0.930 . S
C344 C342 1.375 1_554 S
C344 C345 1.366 1_545 S
C345 C344 1.366 1_565 S
C345 C347 1.435 . S
C346 C342 1.349 1_554 S
C346 C343 1.463 1_654 S
C346 N350 1.427 1_545 S
C347 H337 0.929 . S
C347 C345 1.435 . S
C347 N350 1.384 . S
C348 H339 0.933 . S
C348 C340 1.375 1_554 S
C348 C343 1.349 1_564 S
C349 H336 0.929 . S
C349 C341 1.436 . S
C349 N351 1.384 . S
N350 C346 1.427 1_565 S
N350 C347 1.384 . S
N351 C343 1.427 . S
N351 C349 1.384 . S
H352 C358 0.930 . S
H353 C362 0.930 . S
H354 C367 0.929 . S
H355 C365 0.929 . S
H356 C360 0.929 . S
H357 C366 0.929 . S
C358 H352 0.930 . S
C358 C359 1.367 . S
C358 C366 1.378 . S
C359 C358 1.367 . S
C359 C367 1.433 . S
C360 H356 0.929 . S
C360 C362 1.378 . S
C360 C364 1.350 . S
C361 C364 1.463 . S
C361 C366 1.350 . S
C361 N369 1.427 . S
C362 H353 0.930 . S
C362 C360 1.378 . S
C362 C363 1.367 . S
C363 C362 1.367 . S
C363 C365 1.433 . S
C364 C360 1.350 . S
C364 C361 1.463 . S
C364 N368 1.427 . S
C365 H355 0.929 . S
C365 C363 1.433 . S
C365 N368 1.384 . S
C366 H357 0.929 . S
C366 C358 1.378 . S
C366 C361 1.350 . S
C367 H354 0.929 . S
C367 C359 1.433 . S
C367 N369 1.384 . S
N368 C364 1.427 . S
N368 C365 1.384 . S
N369 C361 1.427 . S
N369 C367 1.384 . S
H370 C376 0.930 . S
H371 C380 0.930 . S
H372 C385 0.929 . S
H373 C383 0.929 . S
H374 C378 0.929 . S
H375 C384 0.929 . S
C376 H370 0.930 . S
C376 C377 1.367 . S
C376 C384 1.378 . S
C377 C376 1.367 . S
C377 C385 1.433 . S
C378 H374 0.929 . S
C378 C380 1.378 . S
C378 C382 1.350 . S
C379 C382 1.463 . S
C379 C384 1.350 . S
C379 N387 1.427 . S
C380 H371 0.930 . S
C380 C378 1.378 . S
C380 C381 1.367 . S
C381 C380 1.367 . S
C381 C383 1.433 . S
C382 C378 1.350 . S
C382 C379 1.463 . S
C382 N386 1.427 . S
C383 H373 0.929 . S
C383 C381 1.433 . S
C383 N386 1.384 . S
C384 H375 0.929 . S
C384 C376 1.378 . S
C384 C379 1.350 . S
C385 H372 0.929 . S
C385 C377 1.433 . S
C385 N387 1.384 . S
N386 C382 1.427 . S
N386 C383 1.384 . S
N387 C379 1.427 . S
N387 C385 1.384 . S
H388 C394 0.930 . S
H389 C398 0.930 . S
H390 C403 0.929 . S
H391 C401 0.929 . S
H392 C396 0.929 . S
H393 C402 0.929 . S
C394 H388 0.930 . S
C394 C395 1.367 . S
C394 C402 1.378 . S
C395 C394 1.367 . S
C395 C403 1.433 . S
C396 H392 0.929 . S
C396 C398 1.378 . S
C396 C400 1.350 . S
C397 C400 1.463 . S
C397 C402 1.350 . S
C397 N405 1.427 . S
C398 H389 0.930 . S
C398 C396 1.378 . S
C398 C399 1.367 . S
C399 C398 1.367 . S
C399 C401 1.433 . S
C400 C396 1.350 . S
C400 C397 1.463 . S
C400 N404 1.427 . S
C401 H391 0.929 . S
C401 C399 1.433 . S
C401 N404 1.384 . S
C402 H393 0.929 . S
C402 C394 1.378 . S
C402 C397 1.350 . S
C403 H390 0.929 . S
C403 C395 1.433 . S
C403 N405 1.384 . S
N404 C400 1.427 . S
N404 C401 1.384 . S
N405 C397 1.427 . S
N405 C403 1.384 . S
H406 C412 0.930 . S
H407 C416 0.930 . S
H408 C421 0.929 . S
H409 C419 0.929 . S
H410 C414 0.929 . S
H411 C420 0.929 . S
C412 H406 0.930 . S
C412 C413 1.367 . S
C412 C420 1.378 . S
C413 C412 1.367 . S
C413 C421 1.433 . S
C414 H410 0.929 . S
C414 C416 1.378 . S
C414 C418 1.350 . S
C415 C418 1.463 . S
C415 C420 1.350 . S
C415 N423 1.427 . S
C416 H407 0.930 . S
C416 C414 1.378 . S
C416 C417 1.367 . S
C417 C416 1.367 . S
C417 C419 1.433 . S
C418 C414 1.350 . S
C418 C415 1.463 . S
C418 N422 1.427 . S
C419 H409 0.929 . S
C419 C417 1.433 . S
C419 N422 1.384 . S
C420 H411 0.929 . S
C420 C412 1.378 . S
C420 C415 1.350 . S
C421 H408 0.929 . S
C421 C413 1.433 . S
C421 N423 1.384 . S
N422 C418 1.427 . S
N422 C419 1.384 . S
N423 C415 1.427 . S
N423 C421 1.384 . S
H424 C430 0.930 . S
H425 C434 0.930 . S
H426 C439 0.929 . S
H427 C437 0.929 . S
H428 C432 0.929 . S
H429 C438 0.929 . S
C430 H424 0.930 . S
C430 C431 1.367 . S
C430 C438 1.378 . S
C431 C430 1.367 . S
C431 C439 1.433 . S
C432 H428 0.929 . S
C432 C434 1.378 . S
C432 C436 1.350 . S
C433 C436 1.463 1_554 S
C433 C438 1.350 . S
C433 N441 1.427 . S
C434 H425 0.930 . S
C434 C432 1.378 . S
C434 C435 1.367 . S
C435 C434 1.367 . S
C435 C437 1.433 . S
C436 C432 1.350 . S
C436 C433 1.463 1_556 S
C436 N440 1.427 . S
C437 H427 0.929 . S
C437 C435 1.433 . S
C437 N440 1.384 . S
C438 H429 0.929 . S
C438 C430 1.378 . S
C438 C433 1.350 . S
C439 H426 0.929 . S
C439 C431 1.433 . S
C439 N441 1.384 . S
N440 C436 1.427 . S
N440 C437 1.384 . S
N441 C433 1.427 . S
N441 C439 1.384 . S
H442 C448 0.930 . S
H443 C452 0.930 . S
H444 C457 0.929 . S
H445 C455 0.929 . S
H446 C450 0.929 1_455 S
H447 C456 0.929 1_655 S
C448 H442 0.930 . S
C448 C449 1.367 . S
C448 C456 1.378 . S
C449 C448 1.367 . S
C449 C457 1.433 . S
C450 H446 0.929 1_655 S
C450 C452 1.378 . S
C450 C454 1.350 . S
C451 C454 1.463 1_455 S
C451 C456 1.350 . S
C451 N459 1.427 . S
C452 H443 0.930 . S
C452 C450 1.378 . S
C452 C453 1.367 . S
C453 C452 1.367 . S
C453 C455 1.433 . S
C454 C450 1.350 . S
C454 C451 1.463 1_655 S
C454 N458 1.427 . S
C455 H445 0.929 . S
C455 C453 1.433 . S
C455 N458 1.384 . S
C456 H447 0.929 1_455 S
C456 C448 1.378 . S
C456 C451 1.350 . S
C457 H444 0.929 . S
C457 C449 1.433 . S
C457 N459 1.384 . S
N458 C454 1.427 . S
N458 C455 1.384 . S
N459 C451 1.427 . S
N459 C457 1.384 . S
H460 C466 0.930 . S
H461 C470 0.930 . S
H462 C475 0.929 . S
H463 C473 0.929 . S
H464 C468 0.929 . S
H465 C474 0.929 . S
C466 H460 0.930 . S
C466 C467 1.367 . S
C466 C474 1.378 . S
C467 C466 1.367 . S
C467 C475 1.433 . S
C468 H464 0.929 . S
C468 C470 1.378 . S
C468 C472 1.350 . S
C469 C472 1.463 1_454 S
C469 C474 1.350 . S
C469 N477 1.427 . S
C470 H461 0.930 . S
C470 C468 1.378 . S
C470 C471 1.367 . S
C471 C470 1.367 . S
C471 C473 1.433 . S
C472 C468 1.350 . S
C472 C469 1.463 1_656 S
C472 N476 1.427 . S
C473 H463 0.929 . S
C473 C471 1.433 . S
C473 N476 1.384 . S
C474 H465 0.929 . S
C474 C466 1.378 . S
C474 C469 1.350 . S
C475 H462 0.929 . S
C475 C467 1.433 . S
C475 N477 1.384 . S
N476 C472 1.427 . S
N476 C473 1.384 . S
N477 C469 1.427 . S
N477 C475 1.384 . S
H478 C484 0.930 . S
H479 C488 0.930 . S
H480 C493 0.929 . S
H481 C491 0.929 . S
H482 C486 0.929 . S
H483 C492 0.929 . S
C484 H478 0.930 . S
C484 C485 1.367 . S
C484 C492 1.378 . S
C485 C484 1.367 . S
C485 C493 1.433 . S
C486 H482 0.929 . S
C486 C488 1.378 . S
C486 C490 1.350 . S
C487 C490 1.463 . S
C487 C492 1.350 . S
C487 N495 1.427 . S
C488 H479 0.930 . S
C488 C486 1.378 . S
C488 C489 1.367 . S
C489 C488 1.367 . S
C489 C491 1.433 . S
C490 C486 1.350 . S
C490 C487 1.463 . S
C490 N494 1.427 . S
C491 H481 0.929 . S
C491 C489 1.433 . S
C491 N494 1.384 . S
C492 H483 0.929 . S
C492 C484 1.378 . S
C492 C487 1.350 . S
C493 H480 0.929 . S
C493 C485 1.433 . S
C493 N495 1.384 . S
N494 C490 1.427 . S
N494 C491 1.384 . S
N495 C487 1.427 . S
N495 C493 1.384 . S
H496 C502 0.930 . S
H497 C506 0.930 1_556 S
H498 C511 0.929 . S
H499 C509 0.929 . S
H500 C504 0.929 . S
H501 C510 0.929 . S
C502 H496 0.930 . S
C502 C503 1.367 . S
C502 C510 1.378 . S
C503 C502 1.367 . S
C503 C511 1.433 . S
C504 H500 0.929 . S
C504 C506 1.378 . S
C504 C508 1.350 . S
C505 C508 1.463 . S
C505 C510 1.350 . S
C505 N513 1.427 . S
C506 H497 0.930 1_554 S
C506 C504 1.378 . S
C506 C507 1.367 . S
C507 C506 1.367 . S
C507 C509 1.433 . S
C508 C504 1.350 . S
C508 C505 1.463 . S
C508 N512 1.427 . S
C509 H499 0.929 . S
C509 C507 1.433 . S
C509 N512 1.384 . S
C510 H501 0.929 . S
C510 C502 1.378 . S
C510 C505 1.350 . S
C511 H498 0.929 . S
C511 C503 1.433 . S
C511 N513 1.384 . S
N512 C508 1.427 . S
N512 C509 1.384 . S
N513 C505 1.427 . S
N513 C511 1.384 . S
H514 C520 0.930 . S
H515 C524 0.930 . S
H516 C529 0.929 . S
H517 C527 0.929 . S
H518 C522 0.929 . S
H519 C528 0.929 . S
C520 H514 0.930 . S
C520 C521 1.367 . S
C520 C528 1.378 . S
C521 C520 1.367 . S
C521 C529 1.433 . S
C522 H518 0.929 . S
C522 C524 1.378 . S
C522 C526 1.350 . S
C523 C526 1.463 . S
C523 C528 1.350 . S
C523 N531 1.427 . S
C524 H515 0.930 . S
C524 C522 1.378 . S
C524 C525 1.367 . S
C525 C524 1.367 . S
C525 C527 1.433 . S
C526 C522 1.350 . S
C526 C523 1.463 . S
C526 N530 1.427 . S
C527 H517 0.929 . S
C527 C525 1.433 . S
C527 N530 1.384 . S
C528 H519 0.929 . S
C528 C520 1.378 . S
C528 C523 1.350 . S
C529 H516 0.929 . S
C529 C521 1.433 . S
C529 N531 1.384 . S
N530 C526 1.427 . S
N530 C527 1.384 . S
N531 C523 1.427 . S
N531 C529 1.384 . S
H532 C538 0.930 . S
H533 C542 0.930 . S
H534 C547 0.929 . S
H535 C545 0.929 . S
H536 C540 0.929 . S
H537 C546 0.929 . S
C538 H532 0.930 . S
C538 C539 1.367 . S
C538 C546 1.378 . S
C539 C538 1.367 . S
C539 C547 1.433 . S
C540 H536 0.929 . S
C540 C542 1.378 . S
C540 C544 1.350 . S
C541 C544 1.463 . S
C541 C546 1.350 . S
C541 N549 1.427 . S
C542 H533 0.930 . S
C542 C540 1.378 . S
C542 C543 1.367 . S
C543 C542 1.367 . S
C543 C545 1.433 . S
C544 C540 1.350 . S
C544 C541 1.463 . S
C544 N548 1.427 . S
C545 H535 0.929 . S
C545 C543 1.433 . S
C545 N548 1.384 . S
C546 H537 0.929 . S
C546 C538 1.378 . S
C546 C541 1.350 . S
C547 H534 0.929 . S
C547 C539 1.433 . S
C547 N549 1.384 . S
N548 C544 1.427 . S
N548 C545 1.384 . S
N549 C541 1.427 . S
N549 C547 1.384 . S
H550 C556 0.930 . S
H551 C560 0.930 . S
H552 C565 0.929 1_554 S
H553 C563 0.929 . S
H554 C558 0.929 . S
H555 C564 0.929 . S
C556 H550 0.930 . S
C556 C557 1.367 . S
C556 C564 1.378 . S
C557 C556 1.367 . S
C557 C565 1.433 . S
C558 H554 0.929 . S
C558 C560 1.378 . S
C558 C562 1.350 . S
C559 C562 1.463 . S
C559 C564 1.350 . S
C559 N567 1.427 . S
C560 H551 0.930 . S
C560 C558 1.378 . S
C560 C561 1.367 . S
C561 C560 1.367 . S
C561 C563 1.433 . S
C562 C558 1.350 . S
C562 C559 1.463 . S
C562 N566 1.427 . S
C563 H553 0.929 . S
C563 C561 1.433 . S
C563 N566 1.384 . S
C564 H555 0.929 . S
C564 C556 1.378 . S
C564 C559 1.350 . S
C565 H552 0.929 1_556 S
C565 C557 1.433 . S
C565 N567 1.384 . S
N566 C562 1.427 . S
N566 C563 1.384 . S
N567 C559 1.427 . S
N567 C565 1.384 . S
H568 C574 0.930 . S
H569 C578 0.930 . S
H570 C583 0.929 . S
H571 C581 0.929 . S
H572 C576 0.929 . S
H573 C582 0.929 . S
C574 H568 0.930 . S
C574 C575 1.367 . S
C574 C582 1.378 . S
C575 C574 1.367 . S
C575 C583 1.433 . S
C576 H572 0.929 . S
C576 C578 1.378 . S
C576 C580 1.350 . S
C577 C580 1.463 . S
C577 C582 1.350 . S
C577 N585 1.427 . S
C578 H569 0.930 . S
C578 C576 1.378 . S
C578 C579 1.367 . S
C579 C578 1.367 . S
C579 C581 1.433 . S
C580 C576 1.350 . S
C580 C577 1.463 . S
C580 N584 1.427 . S
C581 H571 0.929 . S
C581 C579 1.433 . S
C581 N584 1.384 . S
C582 H573 0.929 . S
C582 C574 1.378 . S
C582 C577 1.350 . S
C583 H570 0.929 . S
C583 C575 1.433 . S
C583 N585 1.384 . S
N584 C580 1.427 . S
N584 C581 1.384 . S
N585 C577 1.427 . S
N585 C583 1.384 . S
H586 C592 0.930 . S
H587 C596 0.930 . S
H588 C601 0.929 . S
H589 C599 0.929 . S
H590 C594 0.929 . S
H591 C600 0.929 . S
C592 H586 0.930 . S
C592 C593 1.367 . S
C592 C600 1.378 . S
C593 C592 1.367 . S
C593 C601 1.433 . S
C594 H590 0.929 . S
C594 C596 1.378 . S
C594 C598 1.350 . S
C595 C598 1.463 . S
C595 C600 1.350 . S
C595 N603 1.427 . S
C596 H587 0.930 . S
C596 C594 1.378 . S
C596 C597 1.367 . S
C597 C596 1.367 . S
C597 C599 1.433 . S
C598 C594 1.350 . S
C598 C595 1.463 . S
C598 N602 1.427 . S
C599 H589 0.929 . S
C599 C597 1.433 . S
C599 N602 1.384 . S
C600 H591 0.929 . S
C600 C592 1.378 . S
C600 C595 1.350 . S
C601 H588 0.929 . S
C601 C593 1.433 . S
C601 N603 1.384 . S
N602 C598 1.427 . S
N602 C599 1.384 . S
N603 C595 1.427 . S
N603 C601 1.384 . S
H604 C610 0.930 . S
H605 C614 0.930 . S
H606 C619 0.929 . S
H607 C617 0.929 1_554 S
H608 C612 0.929 . S
H609 C618 0.929 . S
C610 H604 0.930 . S
C610 C611 1.367 . S
C610 C618 1.378 . S
C611 C610 1.367 . S
C611 C619 1.433 . S
C612 H608 0.929 . S
C612 C614 1.378 . S
C612 C616 1.350 . S
C613 C616 1.463 . S
C613 C618 1.350 . S
C613 N621 1.427 . S
C614 H605 0.930 . S
C614 C612 1.378 . S
C614 C615 1.367 . S
C615 C614 1.367 . S
C615 C617 1.433 . S
C616 C612 1.350 . S
C616 C613 1.463 . S
C616 N620 1.427 . S
C617 H607 0.929 1_556 S
C617 C615 1.433 . S
C617 N620 1.384 . S
C618 H609 0.929 . S
C618 C610 1.378 . S
C618 C613 1.350 . S
C619 H606 0.929 . S
C619 C611 1.433 . S
C619 N621 1.384 . S
N620 C616 1.427 . S
N620 C617 1.384 . S
N621 C613 1.427 . S
N621 C619 1.384 . S
H622 C628 0.930 . S
H623 C632 0.930 . S
H624 C637 0.929 . S
H625 C635 0.929 . S
H626 C630 0.929 . S
H627 C636 0.929 . S
C628 H622 0.930 . S
C628 C629 1.367 . S
C628 C636 1.378 . S
C629 C628 1.367 . S
C629 C637 1.433 . S
C630 H626 0.929 . S
C630 C632 1.378 . S
C630 C634 1.350 . S
C631 C634 1.463 . S
C631 C636 1.350 . S
C631 N639 1.427 . S
C632 H623 0.930 . S
C632 C630 1.378 . S
C632 C633 1.367 . S
C633 C632 1.367 . S
C633 C635 1.433 . S
C634 C630 1.350 . S
C634 C631 1.463 . S
C634 N638 1.427 . S
C635 H625 0.929 . S
C635 C633 1.433 . S
C635 N638 1.384 . S
C636 H627 0.929 . S
C636 C628 1.378 . S
C636 C631 1.350 . S
C637 H624 0.929 . S
C637 C629 1.433 . S
C637 N639 1.384 . S
N638 C634 1.427 . S
N638 C635 1.384 . S
N639 C631 1.427 . S
N639 C637 1.384 . S
H640 C646 0.930 . S
H641 C650 0.930 . S
H642 C655 0.929 . S
H643 C653 0.929 . S
H644 C648 0.929 . S
H645 C654 0.929 . S
C646 H640 0.930 . S
C646 C647 1.367 . S
C646 C654 1.378 . S
C647 C646 1.367 . S
C647 C655 1.433 . S
C648 H644 0.929 . S
C648 C650 1.378 . S
C648 C652 1.350 . S
C649 C652 1.463 . S
C649 C654 1.350 . S
C649 N657 1.427 . S
C650 H641 0.930 . S
C650 C648 1.378 . S
C650 C651 1.367 . S
C651 C650 1.367 . S
C651 C653 1.433 . S
C652 C648 1.350 . S
C652 C649 1.463 . S
C652 N656 1.427 . S
C653 H643 0.929 . S
C653 C651 1.433 . S
C653 N656 1.384 . S
C654 H645 0.929 . S
C654 C646 1.378 . S
C654 C649 1.350 . S
C655 H642 0.929 . S
C655 C647 1.433 . S
C655 N657 1.384 . S
N656 C652 1.427 . S
N656 C653 1.384 . S
N657 C649 1.427 . S
N657 C655 1.384 . S
H658 C664 0.930 . S
H659 C668 0.930 . S
H660 C673 0.929 . S
H661 C671 0.929 . S
H662 C666 0.929 . S
H663 C672 0.929 . S
C664 H658 0.930 . S
C664 C665 1.367 . S
C664 C672 1.378 . S
C665 C664 1.367 . S
C665 C673 1.433 . S
C666 H662 0.929 . S
C666 C668 1.378 . S
C666 C670 1.350 . S
C667 C670 1.463 . S
C667 C672 1.350 . S
C667 N675 1.427 . S
C668 H659 0.930 . S
C668 C666 1.378 . S
C668 C669 1.367 . S
C669 C668 1.367 . S
C669 C671 1.433 . S
C670 C666 1.350 . S
C670 C667 1.463 . S
C670 N674 1.427 . S
C671 H661 0.929 . S
C671 C669 1.433 . S
C671 N674 1.384 . S
C672 H663 0.929 . S
C672 C664 1.378 . S
C672 C667 1.350 . S
C673 H660 0.929 . S
C673 C665 1.433 . S
C673 N675 1.384 . S
N674 C670 1.427 . S
N674 C671 1.384 . S
N675 C667 1.427 . S
N675 C673 1.384 . S
H676 C682 0.930 . S
H677 C686 0.930 . S
H678 C691 0.929 . S
H679 C689 0.929 . S
H680 C684 0.929 . S
H681 C690 0.929 . S
C682 H676 0.930 . S
C682 C683 1.367 . S
C682 C690 1.378 . S
C683 C682 1.367 . S
C683 C691 1.433 . S
C684 H680 0.929 . S
C684 C686 1.378 . S
C684 C688 1.350 . S
C685 C688 1.463 . S
C685 C690 1.350 . S
C685 N693 1.427 . S
C686 H677 0.930 . S
C686 C684 1.378 . S
C686 C687 1.367 . S
C687 C686 1.367 . S
C687 C689 1.433 . S
C688 C684 1.350 . S
C688 C685 1.463 . S
C688 N692 1.427 . S
C689 H679 0.929 . S
C689 C687 1.433 . S
C689 N692 1.384 . S
C690 H681 0.929 . S
C690 C682 1.378 . S
C690 C685 1.350 . S
C691 H678 0.929 . S
C691 C683 1.433 . S
C691 N693 1.384 . S
N692 C688 1.427 . S
N692 C689 1.384 . S
N693 C685 1.427 . S
N693 C691 1.384 . S
H694 C700 0.930 . S
H695 C704 0.923 1_556 S
H696 C709 0.929 . S
H697 C707 0.929 . S
H698 C702 0.929 . S
H699 C708 0.929 . S
C700 H694 0.930 . S
C700 C701 1.367 . S
C700 C708 1.378 . S
C701 C700 1.367 . S
C701 C709 1.433 . S
C702 H698 0.929 . S
C702 C704 1.378 . S
C702 C706 1.350 . S
C703 C706 1.463 . S
C703 C708 1.350 . S
C703 N711 1.427 . S
C704 H695 0.923 1_554 S
C704 C702 1.378 . S
C704 C705 1.367 . S
C705 C704 1.367 . S
C705 C707 1.433 . S
C706 C702 1.350 . S
C706 C703 1.463 . S
C706 N710 1.427 . S
C707 H697 0.929 . S
C707 C705 1.433 . S
C707 N710 1.384 . S
C708 H699 0.929 . S
C708 C700 1.378 . S
C708 C703 1.350 . S
C709 H696 0.929 . S
C709 C701 1.433 . S
C709 N711 1.384 . S
N710 C706 1.427 . S
N710 C707 1.384 . S
N711 C703 1.427 . S
N711 C709 1.384 . S
H712 C718 0.930 . S
H713 C722 0.930 . S
H714 C727 0.929 . S
H715 C725 0.929 . S
H716 C720 0.929 . S
H717 C726 0.929 . S
C718 H712 0.930 . S
C718 C719 1.367 . S
C718 C726 1.378 . S
C719 C718 1.367 . S
C719 C727 1.433 . S
C720 H716 0.929 . S
C720 C722 1.378 . S
C720 C724 1.350 . S
C721 C724 1.463 . S
C721 C726 1.350 . S
C721 N729 1.427 . S
C722 H713 0.930 . S
C722 C720 1.378 . S
C722 C723 1.367 . S
C723 C722 1.367 . S
C723 C725 1.433 . S
C724 C720 1.350 . S
C724 C721 1.463 . S
C724 N728 1.427 . S
C725 H715 0.929 . S
C725 C723 1.433 . S
C725 N728 1.384 . S
C726 H717 0.929 . S
C726 C718 1.378 . S
C726 C721 1.350 . S
C727 H714 0.929 . S
C727 C719 1.433 . S
C727 N729 1.384 . S
N728 C724 1.427 . S
N728 C725 1.384 . S
N729 C721 1.427 . S
N729 C727 1.384 . S
H730 C736 0.930 . S
H731 C740 0.930 . S
H732 C745 0.929 . S
H733 C743 0.929 . S
H734 C738 0.929 . S
H735 C744 0.929 . S
C736 H730 0.930 . S
C736 C737 1.367 . S
C736 C744 1.378 . S
C737 C736 1.367 . S
C737 C745 1.433 . S
C738 H734 0.929 . S
C738 C740 1.378 . S
C738 C742 1.350 . S
C739 C742 1.463 . S
C739 C744 1.350 . S
C739 N747 1.427 . S
C740 H731 0.930 . S
C740 C738 1.378 . S
C740 C741 1.367 . S
C741 C740 1.367 . S
C741 C743 1.433 . S
C742 C738 1.350 . S
C742 C739 1.463 . S
C742 N746 1.427 . S
C743 H733 0.929 . S
C743 C741 1.433 . S
C743 N746 1.384 . S
C744 H735 0.929 . S
C744 C736 1.378 . S
C744 C739 1.350 . S
C745 H732 0.929 . S
C745 C737 1.433 . S
C745 N747 1.384 . S
N746 C742 1.427 . S
N746 C743 1.384 . S
N747 C739 1.427 . S
N747 C745 1.384 . S
H748 C754 0.930 . S
H749 C758 0.930 1_556 S
H750 C763 0.929 . S
H751 C761 0.929 . S
H752 C756 0.929 . S
H753 C762 0.929 . S
C754 H748 0.930 . S
C754 C755 1.367 . S
C754 C762 1.378 . S
C755 C754 1.367 . S
C755 C763 1.433 . S
C756 H752 0.929 . S
C756 C758 1.378 . S
C756 C760 1.350 . S
C757 C760 1.463 . S
C757 C762 1.350 . S
C757 N765 1.427 . S
C758 H749 0.930 1_554 S
C758 C756 1.378 . S
C758 C759 1.367 . S
C759 C758 1.367 . S
C759 C761 1.433 . S
C760 C756 1.350 . S
C760 C757 1.463 . S
C760 N764 1.427 . S
C761 H751 0.929 . S
C761 C759 1.433 . S
C761 N764 1.384 . S
C762 H753 0.929 . S
C762 C754 1.378 . S
C762 C757 1.350 . S
C763 H750 0.929 . S
C763 C755 1.433 . S
C763 N765 1.384 . S
N764 C760 1.427 . S
N764 C761 1.384 . S
N765 C757 1.427 . S
N765 C763 1.384 . S
H766 C772 0.930 . S
H767 C776 0.930 . S
H768 C781 0.929 . S
H769 C779 0.929 . S
H770 C774 0.929 . S
H771 C780 0.929 . S
C772 H766 0.930 . S
C772 C773 1.367 . S
C772 C780 1.378 . S
C773 C772 1.367 . S
C773 C781 1.433 . S
C774 H770 0.929 . S
C774 C776 1.378 . S
C774 C778 1.350 . S
C775 C778 1.463 . S
C775 C780 1.350 . S
C775 N783 1.427 . S
C776 H767 0.930 . S
C776 C774 1.378 . S
C776 C777 1.367 . S
C777 C776 1.367 . S
C777 C779 1.433 . S
C778 C774 1.350 . S
C778 C775 1.463 . S
C778 N782 1.427 . S
C779 H769 0.929 . S
C779 C777 1.433 . S
C779 N782 1.384 . S
C780 H771 0.929 . S
C780 C772 1.378 . S
C780 C775 1.350 . S
C781 H768 0.929 . S
C781 C773 1.433 . S
C781 N783 1.384 . S
N782 C778 1.427 . S
N782 C779 1.384 . S
N783 C775 1.427 . S
N783 C781 1.384 . S
C215 C5 1.464 . S
C219 C161 1.462 . S
C233 C16 1.463 . S
C237 C70 1.463 1_565 S
C251 C31 1.464 . S
C255 C187 1.465 . S
C269 C96 1.464 . S
C273 C44 1.464 1_565 S
C287 C185 1.465 . S
C291 C29 1.464 . S
C305 C94 1.464 . S
C309 C42 1.464 . S
C323 C159 1.465 . S
C327 C3 1.466 . S
C341 C68 1.465 . S
C345 C18 1.465 1_565 S
C359 C55 1.465 . S
C363 C109 1.466 . S
C377 C83 1.465 . S
C381 C135 1.464 . S
C395 C133 1.463 . S
C399 C81 1.464 . S
C413 C57 1.463 . S
C417 C107 1.462 . S
C431 C172 1.464 . S
C435 C120 1.464 . S
C449 C146 1.462 . S
C453 C198 1.462 . S
C467 C148 1.464 . S
C471 C200 1.464 . S
C485 C122 1.462 . S
C489 C174 1.462 . S
C503 C153 1.555 . S
C507 C10 1.554 . S
C521 C108 1.555 . S
C525 C17 1.559 . S
C539 C36 1.555 . S
C543 C127 1.555 . S
C557 C134 1.554 . S
C561 C49 1.551 . S
C575 C147 1.555 . S
C579 C30 1.555 . S
C593 C43 1.554 . S
C597 C114 1.558 . S
C611 C121 1.554 . S
C615 C4 1.555 . S
C629 C140 1.554 . S
C633 C23 1.550 . S
C647 C56 1.555 . S
C651 C205 1.555 . S
C665 C160 1.555 . S
C669 C75 1.550 . S
C683 C88 1.554 . S
C687 C179 1.554 . S
C701 C101 1.555 . S
C705 C186 1.559 . S
C719 C82 1.555 . S
C723 C199 1.555 . S
C737 C166 1.555 . S
C741 C95 1.551 . S
C755 C173 1.555 . S
C759 C62 1.554 . S
C773 C192 1.555 . S
C777 C69 1.560 . S
