# Generated by pormake.
# Topology can, (4)-cn, num edge types: 1
# Building blocks:
#     Node 0, Type 0, BuildingBlock: GALJAG_clean_sbu_0, # of connection points: 4
#     Node 1, Type 0, BuildingBlock: GALJAG_clean_sbu_0, # of connection points: 4
#     Node 2, Type 0, BuildingBlock: GALJAG_clean_sbu_0, # of connection points: 4
#     Node 3, Type 0, BuildingBlock: GALJAG_clean_sbu_0, # of connection points: 4
#     Node 4, Type 0, BuildingBlock: GALJAG_clean_sbu_0, # of connection points: 4
#     Node 5, Type 0, BuildingBlock: GALJAG_clean_sbu_0, # of connection points: 4
#     Node 6, Type 0, BuildingBlock: GALJAG_clean_sbu_0, # of connection points: 4
#     Node 7, Type 0, BuildingBlock: GALJAG_clean_sbu_0, # of connection points: 4
#     Node 8, Type 0, BuildingBlock: GALJAG_clean_sbu_0, # of connection points: 4
#     Node 9, Type 0, BuildingBlock: GALJAG_clean_sbu_0, # of connection points: 4
#     Node 10, Type 0, BuildingBlock: GALJAG_clean_sbu_0, # of connection points: 4
#     Node 11, Type 0, BuildingBlock: GALJAG_clean_sbu_0, # of connection points: 4
#     Edge 12, Type (0, 0), BuildingBlock: OJICUG_clean_linker_0, # of connection points: 2
#     Edge 13, Type (0, 0), BuildingBlock: OJICUG_clean_linker_0, # of connection points: 2
#     Edge 14, Type (0, 0), BuildingBlock: OJICUG_clean_linker_0, # of connection points: 2
#     Edge 15, Type (0, 0), BuildingBlock: OJICUG_clean_linker_0, # of connection points: 2
#     Edge 16, Type (0, 0), BuildingBlock: OJICUG_clean_linker_0, # of connection points: 2
#     Edge 17, Type (0, 0), BuildingBlock: OJICUG_clean_linker_0, # of connection points: 2
#     Edge 18, Type (0, 0), BuildingBlock: OJICUG_clean_linker_0, # of connection points: 2
#     Edge 19, Type (0, 0), BuildingBlock: OJICUG_clean_linker_0, # of connection points: 2
#     Edge 20, Type (0, 0), BuildingBlock: OJICUG_clean_linker_0, # of connection points: 2
#     Edge 21, Type (0, 0), BuildingBlock: OJICUG_clean_linker_0, # of connection points: 2
#     Edge 22, Type (0, 0), BuildingBlock: OJICUG_clean_linker_0, # of connection points: 2
#     Edge 23, Type (0, 0), BuildingBlock: OJICUG_clean_linker_0, # of connection points: 2
#     Edge 24, Type (0, 0), BuildingBlock: OJICUG_clean_linker_0, # of connection points: 2
#     Edge 25, Type (0, 0), BuildingBlock: OJICUG_clean_linker_0, # of connection points: 2
#     Edge 26, Type (0, 0), BuildingBlock: OJICUG_clean_linker_0, # of connection points: 2
#     Edge 27, Type (0, 0), BuildingBlock: OJICUG_clean_linker_0, # of connection points: 2
#     Edge 28, Type (0, 0), BuildingBlock: OJICUG_clean_linker_0, # of connection points: 2
#     Edge 29, Type (0, 0), BuildingBlock: OJICUG_clean_linker_0, # of connection points: 2
#     Edge 30, Type (0, 0), BuildingBlock: OJICUG_clean_linker_0, # of connection points: 2
#     Edge 31, Type (0, 0), BuildingBlock: OJICUG_clean_linker_0, # of connection points: 2
#     Edge 32, Type (0, 0), BuildingBlock: OJICUG_clean_linker_0, # of connection points: 2
#     Edge 33, Type (0, 0), BuildingBlock: OJICUG_clean_linker_0, # of connection points: 2
#     Edge 34, Type (0, 0), BuildingBlock: OJICUG_clean_linker_0, # of connection points: 2
#     Edge 35, Type (0, 0), BuildingBlock: OJICUG_clean_linker_0, # of connection points: 2
# Relax obj value: 0.108
# Max RMSD: 0.101
# Mean RMSD: 0.101
data_MOF--net-can--node1-GALJAG_clean_sbu_0--edge1-OJICUG_clean_linker_0
_symmetry_space_group_name_H-M    P1
_symmetry_Int_Tables_number       1
_symmetry_cell_setting            triclinic
loop_
_symmetry_equiv_pos_as_xyz
'x, y, z'
_cell_length_a     39.601395
_cell_length_b     39.688721
_cell_length_c     20.785677
_cell_angle_alpha  89.651305
_cell_angle_beta   90.15703
_cell_angle_gamma 119.98494
loop_
_atom_site_label
_atom_site_type_symbol
_atom_site_fract_x
_atom_site_fract_y
_atom_site_fract_z
_atom_type_partial_charge
In0 In 0.03029 0.36818 0.26622 0.0
O1 O 0.09549 0.39676 0.26373 0.0
O2 O 0.06306 0.33462 0.26702 0.0
C3 C 0.02876 0.43532 0.26061 0.0
C4 C 0.00173 0.33864 0.14873 0.0
C5 C 0.00634 0.3415 0.38713 0.0
O6 O 0.0599 0.43405 0.26015 0.0
O7 O -0.0019 0.4026 0.26416 0.0
O8 O -0.01328 0.32319 0.33834 0.0
O9 O 0.03736 0.3726 0.37451 0.0
C10 C 0.09611 0.36526 0.26476 0.0
O11 O -0.01989 0.32897 0.19798 0.0
O12 O 0.03717 0.36215 0.15937 0.0
In13 In 0.64327 0.03768 0.76593 0.0
O14 O 0.6796 0.10311 0.7705 0.0
O15 O 0.70903 0.07066 0.77905 0.0
C16 C 0.5757 0.03678 0.7487 0.0
C17 C 0.64744 0.01016 0.64957 0.0
C18 C 0.63485 0.00961 0.88706 0.0
O19 O 0.60794 0.06793 0.75473 0.0
O20 O 0.57764 0.00594 0.75049 0.0
O21 O 0.65303 0.00199 0.84493 0.0
O22 O 0.62111 0.03035 0.86754 0.0
C23 C 0.71155 0.10365 0.77718 0.0
O24 O 0.63492 -0.01176 0.69863 0.0
O25 O 0.65852 0.04536 0.66015 0.0
In26 In 0.59168 0.65202 0.24902 0.0
O27 O 0.56195 0.68759 0.248 0.0
O28 O 0.62424 0.71816 0.25114 0.0
C29 C 0.52492 0.58305 0.24328 0.0
C30 C 0.62269 0.65446 0.13206 0.0
C31 C 0.61783 0.65425 0.37015 0.0
O32 O 0.52594 0.61522 0.23948 0.0
O33 O 0.55772 0.58549 0.24992 0.0
O34 O 0.63661 0.65361 0.32148 0.0
O35 O 0.58652 0.65378 0.35732 0.0
C36 C 0.59321 0.71995 0.24975 0.0
O37 O 0.6319 0.64214 0.1815 0.0
O38 O 0.59891 0.6661 0.14226 0.0
In39 In 0.92371 0.596 0.74366 0.0
O40 O 0.85859 0.56856 0.74569 0.0
O41 O 0.89207 0.63067 0.7451 0.0
C42 C 0.92564 0.52906 0.74312 0.0
C43 C 0.95009 0.62449 0.62449 0.0
C44 C 0.9497 0.62289 0.86319 0.0
O45 O 0.89444 0.53013 0.73961 0.0
O46 O 0.95615 0.56188 0.74663 0.0
O47 O 0.97051 0.63845 0.81383 0.0
O48 O 0.91635 0.59451 0.8518 0.0
C49 C 0.85869 0.60043 0.74613 0.0
O50 O 0.9712 0.6385 0.67389 0.0
O51 O 0.9162 0.59693 0.63569 0.0
In52 In 0.30854 0.93057 0.24883 0.0
O53 O 0.30936 0.97454 0.17492 0.0
O54 O 0.31051 0.92484 0.14058 0.0
C55 C 0.30396 0.95892 0.3645 0.0
C56 C 0.23992 0.8648 0.24358 0.0
C57 C 0.37675 0.93165 0.26423 0.0
O58 O 0.31736 0.9805 0.31529 0.0
O59 O 0.29203 0.92349 0.35454 0.0
O60 O 0.34423 0.90073 0.26396 0.0
O61 O 0.37507 0.96228 0.25603 0.0
C62 C 0.31024 0.95562 0.12681 0.0
O63 O 0.27211 0.8655 0.24671 0.0
O64 O 0.24218 0.89776 0.24303 0.0
In65 In 0.36495 0.31798 0.74589 0.0
O66 O 0.3236 0.32491 0.6761 0.0
O67 O 0.36318 0.30868 0.63823 0.0
C68 C 0.33738 0.31577 0.86548 0.0
C69 C 0.36077 0.24877 0.74738 0.0
C70 C 0.43196 0.38694 0.74394 0.0
O71 O 0.32106 0.31989 0.81604 0.0
O72 O 0.36691 0.31266 0.85414 0.0
O73 O 0.43098 0.35476 0.74166 0.0
O74 O 0.39902 0.38449 0.74714 0.0
C75 C 0.33668 0.3166 0.62691 0.0
O76 O 0.39265 0.28059 0.74772 0.0
O77 O 0.3304 0.25174 0.74634 0.0
In78 In 0.5878 0.9289 0.27143 0.0
O79 O 0.5589 0.8635 0.265 0.0
O80 O 0.62087 0.89633 0.25828 0.0
C81 C 0.52125 0.93049 0.28415 0.0
C82 C 0.61848 0.95533 0.38896 0.0
C83 C 0.60855 0.95775 0.15105 0.0
O84 O 0.5221 0.89913 0.28087 0.0
O85 O 0.55422 0.96117 0.28261 0.0
O86 O 0.634 0.96547 0.19414 0.0
O87 O 0.57389 0.93646 0.16921 0.0
C88 C 0.59046 0.86325 0.25868 0.0
O89 O 0.62927 0.9774 0.33999 0.0
O90 O 0.5932 0.92053 0.37789 0.0
In91 In 0.64584 0.59964 0.75029 0.0
O92 O 0.68229 0.57092 0.74978 0.0
O93 O 0.71224 0.63306 0.75217 0.0
C94 C 0.57704 0.53251 0.74601 0.0
C95 C 0.64817 0.62588 0.87085 0.0
C96 C 0.64726 0.62967 0.63242 0.0
O97 O 0.60945 0.53386 0.74308 0.0
O98 O 0.57916 0.56516 0.75099 0.0
O99 O 0.6353 0.63922 0.68158 0.0
O100 O 0.65902 0.60603 0.64332 0.0
C101 C 0.71451 0.60235 0.75116 0.0
O102 O 0.64701 0.64434 0.82183 0.0
O103 O 0.64817 0.59487 0.85862 0.0
In104 In 0.03095 0.64943 0.24427 0.0
O105 O 0.09607 0.68714 0.24309 0.0
O106 O 0.06244 0.71569 0.24248 0.0
C107 C 0.02915 0.58061 0.24769 0.0
C108 C 0.00506 0.65197 0.36327 0.0
C109 C 0.00438 0.64998 0.12463 0.0
O110 O 0.06039 0.61285 0.24602 0.0
O111 O -0.00145 0.58293 0.24735 0.0
O112 O -0.01651 0.64406 0.174 0.0
O113 O 0.03808 0.65574 0.13603 0.0
C114 C 0.09587 0.71885 0.24225 0.0
O115 O -0.01598 0.64556 0.31386 0.0
O116 O 0.03867 0.65744 0.35215 0.0
In117 In 0.36261 0.03768 0.74464 0.0
O118 O 0.39104 0.10268 0.74786 0.0
O119 O 0.32879 0.07023 0.74405 0.0
C120 C 0.43006 0.0364 0.74274 0.0
C121 C 0.33516 0.00939 0.86379 0.0
C122 C 0.33397 0.01355 0.62505 0.0
O123 O 0.42873 0.06741 0.74499 0.0
O124 O 0.39725 0.00574 0.74182 0.0
O125 O 0.31675 -0.00632 0.67454 0.0
O126 O 0.36486 0.04494 0.6364 0.0
C127 C 0.35944 0.10324 0.74631 0.0
O128 O 0.32415 -0.01215 0.81466 0.0
O129 O 0.35904 0.04463 0.85234 0.0
In130 In 0.31094 0.37067 0.24451 0.0
O131 O 0.2735 0.39831 0.24644 0.0
O132 O 0.24462 0.33621 0.24903 0.0
C133 C 0.37979 0.43767 0.24039 0.0
C134 C 0.31027 0.34444 0.36488 0.0
C135 C 0.30846 0.34142 0.12638 0.0
O136 O 0.34745 0.43644 0.23666 0.0
O137 O 0.37756 0.40497 0.24596 0.0
O138 O 0.31788 0.32929 0.17584 0.0
O139 O 0.29978 0.36735 0.13707 0.0
C140 C 0.24166 0.36652 0.24923 0.0
O141 O 0.31334 0.32736 0.31591 0.0
O142 O 0.30756 0.37409 0.35268 0.0
In143 In 0.92381 0.31541 0.76543 0.0
O144 O 0.96715 0.3141 0.83817 0.0
O145 O 0.91791 0.31615 0.87356 0.0
C146 C 0.95226 0.31198 0.64889 0.0
C147 C 0.8575 0.24743 0.77216 0.0
C148 C 0.92573 0.38406 0.75512 0.0
O149 O 0.97395 0.32546 0.69776 0.0
O150 O 0.91666 0.29941 0.65957 0.0
O151 O 0.89469 0.35176 0.75143 0.0
O152 O 0.95608 0.38189 0.76404 0.0
C153 C 0.94828 0.31484 0.88666 0.0
O154 O 0.85847 0.27965 0.76753 0.0
O155 O 0.8904 0.24938 0.77283 0.0
C156 C 0.01283 0.3332 0.03189 0.0
C157 C -0.01316 0.32699 0.08262 0.0
H158 H 0.02085 0.33358 0.92979 0.0
C159 C 0.94746 0.31335 0.06854 0.0
H160 H 0.04337 0.34362 0.04145 0.0
C161 C 0.93477 0.30822 0.00467 0.0
C162 C 0.96109 0.31602 0.9538 0.0
H163 H 0.92684 0.30842 0.10663 0.0
H164 H 0.9045 0.29908 0.99505 0.0
C165 C -1e-05 0.32744 0.96802 0.0
C166 C 0.61799 0.94264 0.50698 0.0
C167 C 0.63117 0.96925 0.45525 0.0
H168 H 0.6132 0.93468 0.60933 0.0
C169 C 0.65348 0.00915 0.46821 0.0
H170 H 0.60088 0.91164 0.49845 0.0
C171 C 0.66047 0.02229 0.53174 0.0
C172 C 0.6454 -0.00423 0.58346 0.0
H173 H 0.6641 0.0303 0.42939 0.0
H174 H 0.67642 0.05335 0.54026 0.0
C175 C 0.62511 0.95578 0.57052 0.0
C176 C 0.6284 0.67116 0.01497 0.0
C177 C 0.63502 0.65181 0.06617 0.0
H178 H 0.62801 0.67863 0.91272 0.0
C179 C 0.6497 0.62695 0.05275 0.0
H180 H 0.61721 0.69063 0.024 0.0
C181 C 0.65534 0.61971 0.98908 0.0
C182 C 0.64698 0.63764 0.93773 0.0
H183 H 0.65499 0.61161 0.09119 0.0
H184 H 0.66519 0.59915 0.98 0.0
C185 C 0.63462 0.66436 0.9513 0.0
C186 C 0.95092 0.63145 0.44294 0.0
C187 C -0.00902 0.64999 0.42968 0.0
H188 H 0.90658 0.60874 0.51548 0.0
C189 C 0.01761 0.66364 0.48114 0.0
H190 H 0.92977 0.62062 0.40426 0.0
C191 C 0.0044 0.6573 0.54479 0.0
C192 C 0.96431 0.63665 0.55806 0.0
H193 H 0.04872 0.67824 0.47225 0.0
H194 H 0.02554 0.66692 0.58347 0.0
C195 C 0.9377 0.62457 0.50659 0.0
C196 C 0.30971 0.95522 0.94468 0.0
C197 C 0.32403 -0.00535 0.93033 0.0
H198 H 0.29447 0.91209 0.01845 0.0
C199 C 0.33091 0.02068 0.98099 0.0
H200 H 0.30427 0.93456 0.90667 0.0
C201 C 0.32482 0.00777 0.04495 0.0
C202 C 0.31245 0.96873 0.05943 0.0
H203 H 0.34187 0.05127 0.97126 0.0
H204 H 0.33128 0.02862 0.08307 0.0
C205 C 0.30431 0.94245 0.00867 0.0
C206 C 0.30046 0.3477 0.48275 0.0
C207 C 0.31219 0.33273 0.43172 0.0
H208 H 0.29828 0.35362 0.58488 0.0
C209 C 0.32847 0.30923 0.44566 0.0
H210 H 0.28759 0.36574 0.47332 0.0
C211 C 0.33503 0.30274 0.5095 0.0
C212 C 0.3248 0.31909 0.56047 0.0
H213 H 0.33776 0.29736 0.40729 0.0
H214 H 0.34913 0.28582 0.51892 0.0
C215 C 0.30641 0.34066 0.54659 0.0
C216 C 0.00374 0.65596 0.94306 0.0
C217 C 0.96371 0.63452 0.92971 0.0
H218 H 0.04799 0.67748 0.01571 0.0
C219 C 0.93701 0.62135 0.98111 0.0
H220 H 0.02494 0.6664 0.90441 0.0
C221 C 0.95013 0.62814 0.04478 0.0
C222 C -0.0098 0.64762 0.05812 0.0
H223 H 0.90592 0.60488 0.97213 0.0
H224 H 0.92896 0.61661 0.08343 0.0
C225 C 0.01688 0.66216 0.00673 0.0
C226 C 0.33075 0.01361 0.4433 0.0
C227 C 0.30635 0.97396 0.43022 0.0
H228 H 0.35863 0.05715 0.5156 0.0
C229 C 0.28763 0.94804 0.4817 0.0
H230 H 0.34558 0.03423 0.40467 0.0
C231 C 0.29483 0.96119 0.54528 0.0
C232 C 0.32127 0.0004 0.55846 0.0
H233 H 0.26852 0.91729 0.47297 0.0
H234 H 0.28122 0.94035 0.58407 0.0
C235 C 0.33833 0.02665 0.50685 0.0
C236 C 0.34 0.30544 0.98359 0.0
C237 C 0.32519 0.31725 0.93199 0.0
H238 H 0.34563 0.30311 0.08588 0.0
C239 C 0.30146 0.33334 0.94509 0.0
H240 H 0.3582 0.29272 0.97483 0.0
C241 C 0.29466 0.33967 0.00867 0.0
C242 C 0.31096 0.32948 0.06022 0.0
H243 H 0.28968 0.34269 0.90628 0.0
H244 H 0.27762 0.35367 0.01741 0.0
C245 C 0.3327 0.31123 0.04715 0.0
C246 C 0.00678 0.33994 0.56903 0.0
C247 C 0.96726 0.31473 0.5829 0.0
H248 H 0.05005 0.36826 0.49585 0.0
C249 C 0.94134 0.29529 0.53199 0.0
H250 H 0.02739 0.35536 0.60721 0.0
C251 C 0.95435 0.30238 0.46818 0.0
C252 C -0.00661 0.32946 0.45417 0.0
H253 H 0.91069 0.27556 0.54133 0.0
H254 H 0.9335 0.28806 0.42982 0.0
C255 C 0.01967 0.34744 0.50524 0.0
C256 C 0.65632 -0.0111 0.98665 0.0
C257 C 0.62898 -0.00447 0.95413 0.0
H258 H 0.672 0.9728 0.07634 0.0
C259 C 0.596 -0.00941 0.98731 0.0
H260 H 0.68218 -0.00709 0.96209 0.0
C261 C 0.58999 0.9787 0.05137 0.0
C262 C 0.6173 0.97242 0.08439 0.0
H263 H 0.5745 -0.00443 0.96346 0.0
H264 H 0.56391 0.97463 0.0753 0.0
C265 C 0.65076 0.97789 0.05187 0.0
C266 C 0.61158 0.66134 0.48819 0.0
C267 C 0.62965 0.65313 0.43727 0.0
H268 H 0.60365 0.66116 0.59022 0.0
C269 C 0.65664 0.64107 0.45148 0.0
H270 H 0.59081 0.67095 0.47861 0.0
C271 C 0.66363 0.63506 0.51537 0.0
C272 C 0.64423 0.64161 0.56617 0.0
H273 H 0.67101 0.63457 0.41323 0.0
H274 H 0.68335 0.62413 0.52491 0.0
C275 C 0.61904 0.65593 0.55209 0.0
C276 C -0.00668 0.50789 0.25387 0.0
C277 C 0.0287 0.54328 0.25048 0.0
H278 H 0.96556 0.44575 0.25984 0.0
C279 C 0.06393 0.54284 0.25028 0.0
H280 H 0.96573 0.50741 0.25414 0.0
C281 C 0.06383 0.50769 0.25353 0.0
C282 C 0.02851 0.47229 0.2571 0.0
H283 H 0.09165 0.56968 0.24769 0.0
H284 H 0.09148 0.50829 0.25333 0.0
C285 C -0.00678 0.47265 0.25718 0.0
C286 C 0.50273 0.07152 0.74285 0.0
C287 C 0.46719 0.03624 0.74183 0.0
H288 H 0.56493 0.0993 0.74543 0.0
C289 C 0.46757 0.00105 0.74067 0.0
H290 H 0.50332 0.09911 0.74354 0.0
C291 C 0.50292 0.00117 0.74162 0.0
C292 C 0.53842 0.03648 0.74376 0.0
H293 H 0.44058 0.97344 0.7397 0.0
H294 H 0.5024 0.97363 0.7416 0.0
C295 C 0.538 0.07164 0.74381 0.0
C296 C 0.45256 0.54518 0.23402 0.0
C297 C 0.48806 0.54566 0.24106 0.0
H298 H 0.3905 0.51058 0.22818 0.0
C299 C 0.48787 0.51028 0.24674 0.0
H300 H 0.45183 0.57202 0.22946 0.0
C301 C 0.45265 0.47501 0.24597 0.0
C302 C 0.41714 0.47462 0.23953 0.0
H303 H 0.51486 0.50985 0.25219 0.0
H304 H 0.45322 0.44811 0.25088 0.0
C305 C 0.41744 0.51 0.23327 0.0
C306 C 0.89107 0.45667 0.73909 0.0
C307 C 0.92612 0.49219 0.74437 0.0
H308 H 0.86356 0.39464 0.73821 0.0
C309 C 0.96129 0.49201 0.75198 0.0
H310 H 0.86353 0.45593 0.73308 0.0
C311 C 0.9613 0.45683 0.75503 0.0
C312 C 0.92616 0.42132 0.7504 0.0
H313 H -0.01127 0.51901 0.75617 0.0
H314 H -0.01124 0.45744 0.76143 0.0
C315 C 0.89109 0.42158 0.74202 0.0
C316 C 0.44947 0.96682 0.27339 0.0
C317 C 0.41375 0.93172 0.27272 0.0
H318 H 0.51169 -0.00602 0.2782 0.0
C319 C 0.41361 0.89641 0.27937 0.0
H320 H 0.4504 -0.00554 0.26863 0.0
C321 C 0.44858 0.89613 0.28491 0.0
C322 C 0.48436 0.93115 0.28408 0.0
H323 H 0.38649 0.8689 0.2793 0.0
H324 H 0.44758 0.86841 0.28868 0.0
C325 C 0.4845 0.96654 0.2791 0.0
C326 C 0.5041 0.495 0.7485 0.0
C327 C 0.53975 0.4955 0.74449 0.0
H328 H 0.4418 0.46005 0.7514 0.0
C329 C 0.53961 0.46017 0.73961 0.0
H330 H 0.50339 0.52185 0.75229 0.0
C331 C 0.50452 0.42494 0.73914 0.0
C332 C 0.46886 0.42436 0.7435 0.0
H333 H 0.56666 0.45967 0.73641 0.0
H334 H 0.50537 0.39816 0.73558 0.0
C335 C 0.46891 0.45969 0.74798 0.0
C336 C 0.13341 0.32967 0.26098 0.0
C337 C 0.13297 0.36484 0.26174 0.0
H338 H 0.16853 0.30256 0.25626 0.0
C339 C 0.16831 0.40019 0.25844 0.0
H340 H 0.1065 0.30202 0.26338 0.0
C341 C 0.20349 0.40049 0.25425 0.0
C342 C 0.20409 0.36545 0.2533 0.0
H343 H 0.16887 0.42776 0.25888 0.0
H344 H 0.23025 0.42828 0.25173 0.0
C345 C 0.1688 0.32998 0.2568 0.0
C346 C 0.7851 0.21067 0.77458 0.0
C347 C 0.82044 0.21047 0.77586 0.0
H348 H 0.72295 0.17694 0.77438 0.0
C349 C 0.81985 0.17486 0.77999 0.0
H350 H 0.7847 0.23773 0.77164 0.0
C351 C 0.78434 0.13993 0.78171 0.0
C352 C 0.74904 0.14021 0.77928 0.0
H353 H 0.84673 0.17395 0.78124 0.0
H354 H 0.78456 0.11276 0.78401 0.0
C355 C 0.74974 0.17587 0.77626 0.0
C356 C 0.55735 0.75644 0.25113 0.0
C357 C 0.59301 0.75687 0.25044 0.0
H358 H 0.52868 0.78986 0.25414 0.0
C359 C 0.62802 0.79263 0.25093 0.0
H360 H 0.52988 0.72926 0.25067 0.0
C361 C 0.62731 0.82744 0.25271 0.0
C362 C 0.59157 0.82689 0.25421 0.0
H363 H 0.6559 0.79372 0.2503 0.0
H364 H 0.65467 0.8547 0.2536 0.0
C365 C 0.55664 0.79112 0.25308 0.0
C366 C 0.82258 0.63724 0.74871 0.0
C367 C 0.82223 0.60168 0.74786 0.0
H368 H 0.78839 0.66542 0.75056 0.0
C369 C 0.78644 0.56672 0.74869 0.0
H370 H 0.84985 0.6646 0.74817 0.0
C371 C 0.75159 0.56719 0.75006 0.0
C372 C 0.75176 0.60262 0.75066 0.0
H373 H 0.78527 0.53886 0.74814 0.0
H374 H 0.72446 0.53967 0.7505 0.0
C375 C 0.78751 0.63771 0.75013 0.0
C376 C 0.20295 0.79266 0.24184 0.0
C377 C 0.2027 0.82789 0.24189 0.0
H378 H 0.16936 0.73072 0.24185 0.0
C379 C 0.1669 0.82723 0.24122 0.0
H380 H 0.2301 0.79226 0.24226 0.0
C381 C 0.13187 0.79173 0.24105 0.0
C382 C 0.13229 0.75654 0.24148 0.0
H383 H 0.16597 0.85404 0.24125 0.0
H384 H 0.10456 0.79182 0.24086 0.0
C385 C 0.16813 0.75738 0.24162 0.0
C386 C 0.39473 0.21054 0.7497 0.0
C387 C 0.35965 0.21119 0.7477 0.0
H388 H 0.42202 0.17589 0.75086 0.0
C389 C 0.3241 0.17593 0.74561 0.0
H390 H 0.42258 0.23726 0.75137 0.0
C391 C 0.32377 0.14053 0.74528 0.0
C392 C 0.35899 0.14005 0.74707 0.0
H393 H 0.29664 0.17569 0.74403 0.0
H394 H 0.29607 0.11365 0.74348 0.0
C395 C 0.3944 0.17535 0.7494 0.0
loop_
_geom_bond_atom_site_label_1
_geom_bond_atom_site_label_2
_geom_bond_distance
_geom_bond_site_symmetry_2
_ccdc_geom_bond_type
In0 O1 2.294 . S
In0 O2 2.326 . S
In0 O6 2.266 . S
In0 O7 2.326 1_455 S
In0 O8 2.266 1_455 S
In0 O9 2.326 . S
In0 O11 2.294 1_455 S
In0 O12 2.326 . S
O1 In0 2.294 . S
O1 C10 1.240 . S
O2 In0 2.326 . S
O2 C10 1.252 . S
C3 O6 1.252 . S
C3 O7 1.260 1_455 S
C4 O11 1.240 1_455 S
C4 O12 1.252 . S
C5 O8 1.252 1_455 S
C5 O9 1.260 . S
O6 In0 2.266 . S
O6 C3 1.252 . S
O7 In0 2.326 1_655 S
O7 C3 1.260 1_655 S
O8 In0 2.266 1_655 S
O8 C5 1.252 1_655 S
O9 In0 2.326 . S
O9 C5 1.260 . S
C10 O1 1.240 . S
C10 O2 1.252 . S
O11 In0 2.294 1_655 S
O11 C4 1.240 1_655 S
O12 In0 2.326 . S
O12 C4 1.252 . S
In13 O14 2.294 . S
In13 O15 2.326 . S
In13 O19 2.266 . S
In13 O20 2.326 1_545 S
In13 O21 2.266 1_545 S
In13 O22 2.326 . S
In13 O24 2.294 1_545 S
In13 O25 2.326 . S
O14 In13 2.294 . S
O14 C23 1.240 . S
O15 In13 2.326 . S
O15 C23 1.252 . S
C16 O19 1.252 . S
C16 O20 1.260 1_545 S
C17 O24 1.240 1_545 S
C17 O25 1.252 . S
C18 O21 1.252 1_545 S
C18 O22 1.260 . S
O19 In13 2.266 . S
O19 C16 1.252 . S
O20 In13 2.326 1_565 S
O20 C16 1.260 1_565 S
O21 In13 2.266 1_565 S
O21 C18 1.252 1_565 S
O22 In13 2.326 . S
O22 C18 1.260 . S
C23 O14 1.240 . S
C23 O15 1.252 . S
O24 In13 2.294 1_565 S
O24 C17 1.240 1_565 S
O25 In13 2.326 . S
O25 C17 1.252 . S
In26 O27 2.294 . S
In26 O28 2.326 . S
In26 O32 2.266 . S
In26 O33 2.326 . S
In26 O34 2.266 . S
In26 O35 2.326 . S
In26 O37 2.294 . S
In26 O38 2.326 . S
O27 In26 2.294 . S
O27 C36 1.240 . S
O28 In26 2.326 . S
O28 C36 1.252 . S
C29 O32 1.252 . S
C29 O33 1.260 . S
C30 O37 1.240 . S
C30 O38 1.252 . S
C31 O34 1.252 . S
C31 O35 1.260 . S
O32 In26 2.266 . S
O32 C29 1.252 . S
O33 In26 2.326 . S
O33 C29 1.260 . S
O34 In26 2.266 . S
O34 C31 1.252 . S
O35 In26 2.326 . S
O35 C31 1.260 . S
C36 O27 1.240 . S
C36 O28 1.252 . S
O37 In26 2.294 . S
O37 C30 1.240 . S
O38 In26 2.326 . S
O38 C30 1.252 . S
In39 O40 2.294 . S
In39 O41 2.326 . S
In39 O45 2.266 . S
In39 O46 2.326 1_655 S
In39 O47 2.266 1_655 S
In39 O48 2.326 . S
In39 O50 2.294 1_655 S
In39 O51 2.326 . S
O40 In39 2.294 . S
O40 C49 1.240 . S
O41 In39 2.326 . S
O41 C49 1.252 . S
C42 O45 1.252 . S
C42 O46 1.260 1_655 S
C43 O50 1.240 1_655 S
C43 O51 1.252 . S
C44 O47 1.252 1_655 S
C44 O48 1.260 . S
O45 In39 2.266 . S
O45 C42 1.252 . S
O46 In39 2.326 1_455 S
O46 C42 1.260 1_455 S
O47 In39 2.266 1_455 S
O47 C44 1.252 1_455 S
O48 In39 2.326 . S
O48 C44 1.260 . S
C49 O40 1.240 . S
C49 O41 1.252 . S
O50 In39 2.294 1_455 S
O50 C43 1.240 1_455 S
O51 In39 2.326 . S
O51 C43 1.252 . S
In52 O53 2.294 1_565 S
In52 O54 2.326 . S
In52 O58 2.266 1_565 S
In52 O59 2.326 . S
In52 O60 2.266 . S
In52 O61 2.326 1_565 S
In52 O63 2.294 . S
In52 O64 2.326 . S
O53 In52 2.294 1_545 S
O53 C62 1.240 1_545 S
O54 In52 2.326 . S
O54 C62 1.252 . S
C55 O58 1.252 1_565 S
C55 O59 1.260 . S
C56 O63 1.240 . S
C56 O64 1.252 . S
C57 O60 1.252 . S
C57 O61 1.260 1_565 S
O58 In52 2.266 1_545 S
O58 C55 1.252 1_545 S
O59 In52 2.326 . S
O59 C55 1.260 . S
O60 In52 2.266 . S
O60 C57 1.252 . S
O61 In52 2.326 1_545 S
O61 C57 1.260 1_545 S
C62 O53 1.240 1_565 S
C62 O54 1.252 . S
O63 In52 2.294 . S
O63 C56 1.240 . S
O64 In52 2.326 . S
O64 C56 1.252 . S
In65 O66 2.294 . S
In65 O67 2.326 . S
In65 O71 2.266 . S
In65 O72 2.326 . S
In65 O73 2.266 . S
In65 O74 2.326 . S
In65 O76 2.294 . S
In65 O77 2.326 . S
O66 In65 2.294 . S
O66 C75 1.240 . S
O67 In65 2.326 . S
O67 C75 1.252 . S
C68 O71 1.252 . S
C68 O72 1.260 . S
C69 O76 1.240 . S
C69 O77 1.252 . S
C70 O73 1.252 . S
C70 O74 1.260 . S
O71 In65 2.266 . S
O71 C68 1.252 . S
O72 In65 2.326 . S
O72 C68 1.260 . S
O73 In65 2.266 . S
O73 C70 1.252 . S
O74 In65 2.326 . S
O74 C70 1.260 . S
C75 O66 1.240 . S
C75 O67 1.252 . S
O76 In65 2.294 . S
O76 C69 1.240 . S
O77 In65 2.326 . S
O77 C69 1.252 . S
In78 O79 2.294 . S
In78 O80 2.326 . S
In78 O84 2.266 . S
In78 O85 2.326 1_565 S
In78 O86 2.266 1_565 S
In78 O87 2.326 . S
In78 O89 2.294 1_565 S
In78 O90 2.326 . S
O79 In78 2.294 . S
O79 C88 1.240 . S
O80 In78 2.326 . S
O80 C88 1.252 . S
C81 O84 1.252 . S
C81 O85 1.260 1_565 S
C82 O89 1.240 1_565 S
C82 O90 1.252 . S
C83 O86 1.252 1_565 S
C83 O87 1.260 . S
O84 In78 2.266 . S
O84 C81 1.252 . S
O85 In78 2.326 1_545 S
O85 C81 1.260 1_545 S
O86 In78 2.266 1_545 S
O86 C83 1.252 1_545 S
O87 In78 2.326 . S
O87 C83 1.260 . S
C88 O79 1.240 . S
C88 O80 1.252 . S
O89 In78 2.294 1_545 S
O89 C82 1.240 1_545 S
O90 In78 2.326 . S
O90 C82 1.252 . S
In91 O92 2.294 . S
In91 O93 2.326 . S
In91 O97 2.266 . S
In91 O98 2.326 . S
In91 O99 2.266 . S
In91 O100 2.326 . S
In91 O102 2.294 . S
In91 O103 2.326 . S
O92 In91 2.294 . S
O92 C101 1.240 . S
O93 In91 2.326 . S
O93 C101 1.252 . S
C94 O97 1.252 . S
C94 O98 1.260 . S
C95 O102 1.240 . S
C95 O103 1.252 . S
C96 O99 1.252 . S
C96 O100 1.260 . S
O97 In91 2.266 . S
O97 C94 1.252 . S
O98 In91 2.326 . S
O98 C94 1.260 . S
O99 In91 2.266 . S
O99 C96 1.252 . S
O100 In91 2.326 . S
O100 C96 1.260 . S
C101 O92 1.240 . S
C101 O93 1.252 . S
O102 In91 2.294 . S
O102 C95 1.240 . S
O103 In91 2.326 . S
O103 C95 1.252 . S
In104 O105 2.294 . S
In104 O106 2.326 . S
In104 O110 2.266 . S
In104 O111 2.326 1_455 S
In104 O112 2.266 1_455 S
In104 O113 2.326 . S
In104 O115 2.294 1_455 S
In104 O116 2.326 . S
O105 In104 2.294 . S
O105 C114 1.240 . S
O106 In104 2.326 . S
O106 C114 1.252 . S
C107 O110 1.252 . S
C107 O111 1.260 1_455 S
C108 O115 1.240 1_455 S
C108 O116 1.252 . S
C109 O112 1.252 1_455 S
C109 O113 1.260 . S
O110 In104 2.266 . S
O110 C107 1.252 . S
O111 In104 2.326 1_655 S
O111 C107 1.260 1_655 S
O112 In104 2.266 1_655 S
O112 C109 1.252 1_655 S
O113 In104 2.326 . S
O113 C109 1.260 . S
C114 O105 1.240 . S
C114 O106 1.252 . S
O115 In104 2.294 1_655 S
O115 C108 1.240 1_655 S
O116 In104 2.326 . S
O116 C108 1.252 . S
In117 O118 2.294 . S
In117 O119 2.326 . S
In117 O123 2.266 . S
In117 O124 2.326 1_545 S
In117 O125 2.266 1_545 S
In117 O126 2.326 . S
In117 O128 2.294 1_545 S
In117 O129 2.326 . S
O118 In117 2.294 . S
O118 C127 1.240 . S
O119 In117 2.326 . S
O119 C127 1.252 . S
C120 O123 1.252 . S
C120 O124 1.260 1_545 S
C121 O128 1.240 1_545 S
C121 O129 1.252 . S
C122 O125 1.252 1_545 S
C122 O126 1.260 . S
O123 In117 2.266 . S
O123 C120 1.252 . S
O124 In117 2.326 1_565 S
O124 C120 1.260 1_565 S
O125 In117 2.266 1_565 S
O125 C122 1.252 1_565 S
O126 In117 2.326 . S
O126 C122 1.260 . S
C127 O118 1.240 . S
C127 O119 1.252 . S
O128 In117 2.294 1_565 S
O128 C121 1.240 1_565 S
O129 In117 2.326 . S
O129 C121 1.252 . S
In130 O131 2.294 . S
In130 O132 2.326 . S
In130 O136 2.266 . S
In130 O137 2.326 . S
In130 O138 2.266 . S
In130 O139 2.326 . S
In130 O141 2.294 . S
In130 O142 2.326 . S
O131 In130 2.294 . S
O131 C140 1.240 . S
O132 In130 2.326 . S
O132 C140 1.252 . S
C133 O136 1.252 . S
C133 O137 1.260 . S
C134 O141 1.240 . S
C134 O142 1.252 . S
C135 O138 1.252 . S
C135 O139 1.260 . S
O136 In130 2.266 . S
O136 C133 1.252 . S
O137 In130 2.326 . S
O137 C133 1.260 . S
O138 In130 2.266 . S
O138 C135 1.252 . S
O139 In130 2.326 . S
O139 C135 1.260 . S
C140 O131 1.240 . S
C140 O132 1.252 . S
O141 In130 2.294 . S
O141 C134 1.240 . S
O142 In130 2.326 . S
O142 C134 1.252 . S
In143 O144 2.294 1_655 S
In143 O145 2.326 . S
In143 O149 2.266 1_655 S
In143 O150 2.326 . S
In143 O151 2.266 . S
In143 O152 2.326 1_655 S
In143 O154 2.294 . S
In143 O155 2.326 . S
O144 In143 2.294 1_455 S
O144 C153 1.240 1_455 S
O145 In143 2.326 . S
O145 C153 1.252 . S
C146 O149 1.252 1_655 S
C146 O150 1.260 . S
C147 O154 1.240 . S
C147 O155 1.252 . S
C148 O151 1.252 . S
C148 O152 1.260 1_655 S
O149 In143 2.266 1_455 S
O149 C146 1.252 1_455 S
O150 In143 2.326 . S
O150 C146 1.260 . S
O151 In143 2.266 . S
O151 C148 1.252 . S
O152 In143 2.326 1_455 S
O152 C148 1.260 1_455 S
C153 O144 1.240 1_655 S
C153 O145 1.252 . S
O154 In143 2.294 . S
O154 C147 1.240 . S
O155 In143 2.326 . S
O155 C147 1.252 . S
C156 C157 1.387 . S
C156 H160 0.950 . S
C156 C165 1.394 1_554 S
C157 C156 1.387 . S
C157 C159 1.371 1_455 S
H158 C165 0.963 . S
C159 C157 1.371 1_655 S
C159 C161 1.394 1_554 S
C159 H163 0.963 . S
H160 C156 0.950 . S
C161 C159 1.394 1_556 S
C161 C162 1.387 . S
C161 H164 0.950 . S
C162 C161 1.387 . S
C162 C165 1.371 1_655 S
H163 C159 0.963 . S
H164 C161 0.950 . S
C165 C156 1.394 1_556 S
C165 H158 0.963 . S
C165 C162 1.371 1_455 S
C166 C167 1.387 . S
C166 H170 0.950 . S
C166 C175 1.390 1_565 S
C167 C166 1.387 . S
C167 C169 1.387 . S
H168 C175 0.950 . S
C169 C167 1.387 . S
C169 C171 1.390 1_565 S
C169 H173 0.950 . S
H170 C166 0.950 . S
C171 C169 1.390 1_545 S
C171 C172 1.387 . S
C171 H174 0.950 . S
C172 C171 1.387 . S
C172 C175 1.387 . S
H173 C169 0.950 . S
H174 C171 0.950 . S
C175 C166 1.390 1_545 S
C175 H168 0.950 . S
C175 C172 1.387 . S
C176 C177 1.387 . S
C176 H180 0.950 . S
C176 C185 1.390 1_554 S
C177 C176 1.387 . S
C177 C179 1.387 . S
H178 C185 0.950 . S
C179 C177 1.387 . S
C179 C181 1.390 1_554 S
C179 H183 0.950 . S
H180 C176 0.950 . S
C181 C179 1.390 1_556 S
C181 C182 1.387 . S
C181 H184 0.950 . S
C182 C181 1.387 . S
C182 C185 1.387 . S
H183 C179 0.950 . S
H184 C181 0.950 . S
C185 C176 1.390 1_556 S
C185 H178 0.950 . S
C185 C182 1.387 . S
C186 C187 1.387 1_655 S
C186 H190 0.950 . S
C186 C195 1.390 . S
C187 C186 1.387 1_455 S
C187 C189 1.387 . S
H188 C195 0.950 . S
C189 C187 1.387 . S
C189 C191 1.390 . S
C189 H193 0.950 . S
H190 C186 0.950 . S
C191 C189 1.390 . S
C191 C192 1.387 1_455 S
C191 H194 0.950 . S
C192 C191 1.387 1_655 S
C192 C195 1.387 . S
H193 C189 0.950 . S
H194 C191 0.950 . S
C195 C186 1.390 . S
C195 H188 0.950 . S
C195 C192 1.387 . S
C196 C197 1.387 . S
C196 H200 0.950 . S
C196 C205 1.390 1_546 S
C197 C196 1.387 . S
C197 C199 1.387 . S
H198 C205 0.950 . S
C199 C197 1.387 . S
C199 C201 1.390 1_546 S
C199 H203 0.950 . S
H200 C196 0.950 . S
C201 C199 1.390 1_564 S
C201 C202 1.387 . S
C201 H204 0.950 . S
C202 C201 1.387 . S
C202 C205 1.387 . S
H203 C199 0.950 . S
H204 C201 0.950 . S
C205 C196 1.390 1_564 S
C205 H198 0.950 . S
C205 C202 1.387 . S
C206 C207 1.387 . S
C206 H210 0.950 . S
C206 C215 1.390 . S
C207 C206 1.387 . S
C207 C209 1.387 . S
H208 C215 0.950 . S
C209 C207 1.387 . S
C209 C211 1.390 . S
C209 H213 0.950 . S
H210 C206 0.950 . S
C211 C209 1.390 . S
C211 C212 1.387 . S
C211 H214 0.950 . S
C212 C211 1.387 . S
C212 C215 1.387 . S
H213 C209 0.950 . S
H214 C211 0.950 . S
C215 C206 1.390 . S
C215 H208 0.950 . S
C215 C212 1.387 . S
C216 C217 1.389 . S
C216 H220 0.950 . S
C216 C225 1.390 1_556 S
C217 C216 1.389 . S
C217 C219 1.386 1_455 S
H218 C225 0.950 . S
C219 C217 1.386 1_655 S
C219 C221 1.390 1_556 S
C219 H223 0.950 . S
H220 C216 0.950 . S
C221 C219 1.390 1_554 S
C221 C222 1.389 . S
C221 H224 0.950 . S
C222 C221 1.389 . S
C222 C225 1.386 1_655 S
H223 C219 0.950 . S
H224 C221 0.950 . S
C225 C216 1.390 1_554 S
C225 H218 0.950 . S
C225 C222 1.386 1_455 S
C226 C227 1.381 . S
C226 H230 0.943 . S
C226 C235 1.390 . S
C227 C226 1.381 . S
C227 C229 1.385 1_565 S
H228 C235 0.949 . S
C229 C227 1.385 1_545 S
C229 C231 1.390 . S
C229 H233 0.949 . S
H230 C226 0.943 . S
C231 C229 1.390 . S
C231 C232 1.381 . S
C231 H234 0.943 . S
C232 C231 1.381 . S
C232 C235 1.385 1_545 S
H233 C229 0.949 . S
H234 C231 0.943 . S
C235 C226 1.390 . S
C235 H228 0.949 . S
C235 C232 1.385 1_565 S
C236 C237 1.387 . S
C236 H240 0.950 . S
C236 C245 1.390 1_556 S
C237 C236 1.387 . S
C237 C239 1.387 . S
H238 C245 0.950 . S
C239 C237 1.387 . S
C239 C241 1.390 1_556 S
C239 H243 0.950 . S
H240 C236 0.950 . S
C241 C239 1.390 1_554 S
C241 C242 1.387 . S
C241 H244 0.950 . S
C242 C241 1.387 . S
C242 C245 1.387 . S
H243 C239 0.950 . S
H244 C241 0.950 . S
C245 C236 1.390 1_554 S
C245 H238 0.950 . S
C245 C242 1.387 . S
C246 C247 1.387 1_455 S
C246 H250 0.950 . S
C246 C255 1.390 . S
C247 C246 1.387 1_655 S
C247 C249 1.388 . S
H248 C255 0.950 . S
C249 C247 1.388 . S
C249 C251 1.390 . S
C249 H253 0.950 . S
H250 C246 0.950 . S
C251 C249 1.390 . S
C251 C252 1.387 1_655 S
C251 H254 0.950 . S
C252 C251 1.387 1_455 S
C252 C255 1.388 . S
H253 C249 0.950 . S
H254 C251 0.950 . S
C255 C246 1.390 . S
C255 H248 0.950 . S
C255 C252 1.388 . S
C256 C257 1.387 . S
C256 H260 0.944 . S
C256 C265 1.390 1_566 S
C257 C256 1.387 . S
C257 C259 1.384 . S
H258 C265 0.953 . S
C259 C257 1.384 . S
C259 C261 1.390 1_566 S
C259 H263 0.953 . S
H260 C256 0.944 . S
C261 C259 1.390 1_544 S
C261 C262 1.387 . S
C261 H264 0.944 . S
C262 C261 1.387 . S
C262 C265 1.384 . S
H263 C259 0.953 . S
H264 C261 0.944 . S
C265 C256 1.390 1_544 S
C265 H258 0.953 . S
C265 C262 1.384 . S
C266 C267 1.387 . S
C266 H270 0.950 . S
C266 C275 1.390 . S
C267 C266 1.387 . S
C267 C269 1.387 . S
H268 C275 0.950 . S
C269 C267 1.387 . S
C269 C271 1.390 . S
C269 H273 0.950 . S
H270 C266 0.950 . S
C271 C269 1.390 . S
C271 C272 1.387 . S
C271 H274 0.950 . S
C272 C271 1.387 . S
C272 C275 1.387 . S
H273 C269 0.950 . S
H274 C271 0.950 . S
C275 C266 1.390 . S
C275 H268 0.950 . S
C275 C272 1.387 . S
C276 C277 1.387 . S
C276 H280 0.950 1_455 S
C276 C285 1.390 . S
C277 C276 1.387 . S
C277 C279 1.387 . S
H278 C285 0.950 1_655 S
C279 C277 1.387 . S
C279 C281 1.390 . S
C279 H283 0.950 . S
H280 C276 0.950 1_655 S
C281 C279 1.390 . S
C281 C282 1.387 . S
C281 H284 0.950 . S
C282 C281 1.387 . S
C282 C285 1.387 . S
H283 C279 0.950 . S
H284 C281 0.950 . S
C285 C276 1.390 . S
C285 H278 0.950 1_455 S
C285 C282 1.387 . S
C286 C287 1.387 . S
C286 H290 0.950 . S
C286 C295 1.390 . S
C287 C286 1.387 . S
C287 C289 1.387 1_545 S
H288 C295 0.950 . S
C289 C287 1.387 1_565 S
C289 C291 1.390 . S
C289 H293 0.950 . S
H290 C286 0.950 . S
C291 C289 1.390 . S
C291 C292 1.387 1_565 S
C291 H294 0.950 . S
C292 C291 1.387 1_545 S
C292 C295 1.387 . S
H293 C289 0.950 . S
H294 C291 0.950 . S
C295 C286 1.390 . S
C295 H288 0.950 . S
C295 C292 1.387 . S
C296 C297 1.387 . S
C296 H300 0.950 . S
C296 C305 1.390 . S
C297 C296 1.387 . S
C297 C299 1.387 . S
H298 C305 0.950 . S
C299 C297 1.387 . S
C299 C301 1.390 . S
C299 H303 0.950 . S
H300 C296 0.950 . S
C301 C299 1.390 . S
C301 C302 1.387 . S
C301 H304 0.950 . S
C302 C301 1.387 . S
C302 C305 1.387 . S
H303 C299 0.950 . S
H304 C301 0.950 . S
C305 C296 1.390 . S
C305 H298 0.950 . S
C305 C302 1.387 . S
C306 C307 1.387 . S
C306 H310 0.950 . S
C306 C315 1.390 . S
C307 C306 1.387 . S
C307 C309 1.387 . S
H308 C315 0.950 . S
C309 C307 1.387 . S
C309 C311 1.390 . S
C309 H313 0.950 . S
H310 C306 0.950 . S
C311 C309 1.390 . S
C311 C312 1.387 . S
C311 H314 0.950 . S
C312 C311 1.387 . S
C312 C315 1.387 . S
H313 C309 0.950 . S
H314 C311 0.950 . S
C315 C306 1.390 . S
C315 H308 0.950 . S
C315 C312 1.387 . S
C316 C317 1.387 1_545 S
C316 H320 0.950 . S
C316 C325 1.390 . S
C317 C316 1.387 1_565 S
C317 C319 1.387 . S
H318 C325 0.950 . S
C319 C317 1.387 . S
C319 C321 1.390 . S
C319 H323 0.950 . S
H320 C316 0.950 . S
C321 C319 1.390 . S
C321 C322 1.387 . S
C321 H324 0.950 . S
C322 C321 1.387 . S
C322 C325 1.387 1_565 S
H323 C319 0.950 . S
H324 C321 0.950 . S
C325 C316 1.390 . S
C325 H318 0.950 . S
C325 C322 1.387 1_545 S
C326 C327 1.387 . S
C326 H330 0.950 . S
C326 C335 1.390 . S
C327 C326 1.387 . S
C327 C329 1.387 . S
H328 C335 0.950 . S
C329 C327 1.387 . S
C329 C331 1.390 . S
C329 H333 0.950 . S
H330 C326 0.950 . S
C331 C329 1.390 . S
C331 C332 1.387 . S
C331 H334 0.950 . S
C332 C331 1.387 . S
C332 C335 1.387 . S
H333 C329 0.950 . S
H334 C331 0.950 . S
C335 C326 1.390 . S
C335 H328 0.950 . S
C335 C332 1.387 . S
C336 C337 1.387 . S
C336 H340 0.950 . S
C336 C345 1.390 . S
C337 C336 1.387 . S
C337 C339 1.387 . S
H338 C345 0.950 . S
C339 C337 1.387 . S
C339 C341 1.390 . S
C339 H343 0.950 . S
H340 C336 0.950 . S
C341 C339 1.390 . S
C341 C342 1.387 . S
C341 H344 0.950 . S
C342 C341 1.387 . S
C342 C345 1.387 . S
H343 C339 0.950 . S
H344 C341 0.950 . S
C345 C336 1.390 . S
C345 H338 0.950 . S
C345 C342 1.387 . S
C346 C347 1.387 . S
C346 H350 0.950 . S
C346 C355 1.390 . S
C347 C346 1.387 . S
C347 C349 1.387 . S
H348 C355 0.950 . S
C349 C347 1.387 . S
C349 C351 1.390 . S
C349 H353 0.950 . S
H350 C346 0.950 . S
C351 C349 1.390 . S
C351 C352 1.387 . S
C351 H354 0.950 . S
C352 C351 1.387 . S
C352 C355 1.387 . S
H353 C349 0.950 . S
H354 C351 0.950 . S
C355 C346 1.390 . S
C355 H348 0.950 . S
C355 C352 1.387 . S
C356 C357 1.387 . S
C356 H360 0.950 . S
C356 C365 1.390 . S
C357 C356 1.387 . S
C357 C359 1.387 . S
H358 C365 0.950 . S
C359 C357 1.387 . S
C359 C361 1.390 . S
C359 H363 0.950 . S
H360 C356 0.950 . S
C361 C359 1.390 . S
C361 C362 1.387 . S
C361 H364 0.950 . S
C362 C361 1.387 . S
C362 C365 1.387 . S
H363 C359 0.950 . S
H364 C361 0.950 . S
C365 C356 1.390 . S
C365 H358 0.950 . S
C365 C362 1.387 . S
C366 C367 1.387 . S
C366 H370 0.950 . S
C366 C375 1.390 . S
C367 C366 1.387 . S
C367 C369 1.387 . S
H368 C375 0.950 . S
C369 C367 1.387 . S
C369 C371 1.390 . S
C369 H373 0.950 . S
H370 C366 0.950 . S
C371 C369 1.390 . S
C371 C372 1.387 . S
C371 H374 0.950 . S
C372 C371 1.387 . S
C372 C375 1.387 . S
H373 C369 0.950 . S
H374 C371 0.950 . S
C375 C366 1.390 . S
C375 H368 0.950 . S
C375 C372 1.387 . S
C376 C377 1.387 . S
C376 H380 0.950 . S
C376 C385 1.390 . S
C377 C376 1.387 . S
C377 C379 1.387 . S
H378 C385 0.950 . S
C379 C377 1.387 . S
C379 C381 1.390 . S
C379 H383 0.950 . S
H380 C376 0.950 . S
C381 C379 1.390 . S
C381 C382 1.387 . S
C381 H384 0.950 . S
C382 C381 1.387 . S
C382 C385 1.387 . S
H383 C379 0.950 . S
H384 C381 0.950 . S
C385 C376 1.390 . S
C385 H378 0.950 . S
C385 C382 1.387 . S
C386 C387 1.387 . S
C386 H390 0.950 . S
C386 C395 1.390 . S
C387 C386 1.387 . S
C387 C389 1.387 . S
H388 C395 0.950 . S
C389 C387 1.387 . S
C389 C391 1.390 . S
C389 H393 0.950 . S
H390 C386 0.950 . S
C391 C389 1.390 . S
C391 C392 1.387 . S
C391 H394 0.950 . S
C392 C391 1.387 . S
C392 C395 1.387 . S
H393 C389 0.950 . S
H394 C391 0.950 . S
C395 C386 1.390 . S
C395 H388 0.950 . S
C395 C392 1.387 . S
C157 C4 1.442 . S
C162 C153 1.442 . S
C167 C82 1.443 . S
C172 C17 1.443 . S
C177 C30 1.442 . S
C182 C95 1.443 . S
C187 C108 1.443 . S
C192 C43 1.443 . S
C197 C121 1.443 . S
C202 C62 1.443 . S
C207 C134 1.443 . S
C212 C75 1.443 . S
C217 C44 1.422 1_455 S
C222 C109 1.423 1_655 S
C227 C55 1.421 . S
C232 C122 1.421 . S
C237 C68 1.424 . S
C242 C135 1.423 . S
C247 C146 1.421 . S
C252 C5 1.421 . S
C257 C18 1.422 1_565 S
C262 C83 1.423 1_545 S
C267 C31 1.422 . S
C272 C96 1.421 . S
C277 C107 1.683 . S
C282 C3 1.683 . S
C287 C120 1.684 . S
C292 C16 1.684 . S
C297 C29 1.684 . S
C302 C133 1.684 . S
C307 C42 1.683 . S
C312 C148 1.683 . S
C317 C57 1.683 . S
C322 C81 1.683 . S
C327 C94 1.683 . S
C332 C70 1.683 . S
C337 C10 1.681 . S
C342 C140 1.681 . S
C347 C147 1.682 . S
C352 C23 1.682 . S
C357 C36 1.682 . S
C362 C88 1.682 . S
C367 C49 1.681 . S
C372 C101 1.681 . S
C377 C56 1.682 . S
C382 C114 1.682 . S
C387 C69 1.682 . S
C392 C127 1.682 . S
