# Generated by pormake.
# Topology whc, (6)-cn, num edge types: 1
# Building blocks:
#     Node 0, Type 0, BuildingBlock: OJICUG_clean_sbu_0, # of connection points: 6
#     Node 1, Type 0, BuildingBlock: OJICUG_clean_sbu_0, # of connection points: 6
#     Node 2, Type 0, BuildingBlock: OJICUG_clean_sbu_0, # of connection points: 6
#     Node 3, Type 0, BuildingBlock: OJICUG_clean_sbu_0, # of connection points: 6
#     Node 4, Type 0, BuildingBlock: OJICUG_clean_sbu_0, # of connection points: 6
#     Node 5, Type 0, BuildingBlock: OJICUG_clean_sbu_0, # of connection points: 6
#     Node 6, Type 0, BuildingBlock: OJICUG_clean_sbu_0, # of connection points: 6
#     Node 7, Type 0, BuildingBlock: OJICUG_clean_sbu_0, # of connection points: 6
#     Edge 8, Type (0, 0), BuildingBlock: UVAHIK_clean_linker_0, # of connection points: 2
#     Edge 9, Type (0, 0), BuildingBlock: UVAHIK_clean_linker_0, # of connection points: 2
#     Edge 10, Type (0, 0), BuildingBlock: UVAHIK_clean_linker_0, # of connection points: 2
#     Edge 11, Type (0, 0), BuildingBlock: UVAHIK_clean_linker_0, # of connection points: 2
#     Edge 12, Type (0, 0), BuildingBlock: UVAHIK_clean_linker_0, # of connection points: 2
#     Edge 13, Type (0, 0), BuildingBlock: UVAHIK_clean_linker_0, # of connection points: 2
#     Edge 14, Type (0, 0), BuildingBlock: UVAHIK_clean_linker_0, # of connection points: 2
#     Edge 15, Type (0, 0), BuildingBlock: UVAHIK_clean_linker_0, # of connection points: 2
#     Edge 16, Type (0, 0), BuildingBlock: UVAHIK_clean_linker_0, # of connection points: 2
#     Edge 17, Type (0, 0), BuildingBlock: UVAHIK_clean_linker_0, # of connection points: 2
#     Edge 18, Type (0, 0), BuildingBlock: UVAHIK_clean_linker_0, # of connection points: 2
#     Edge 19, Type (0, 0), BuildingBlock: UVAHIK_clean_linker_0, # of connection points: 2
#     Edge 20, Type (0, 0), BuildingBlock: UVAHIK_clean_linker_0, # of connection points: 2
#     Edge 21, Type (0, 0), BuildingBlock: UVAHIK_clean_linker_0, # of connection points: 2
#     Edge 22, Type (0, 0), BuildingBlock: UVAHIK_clean_linker_0, # of connection points: 2
#     Edge 23, Type (0, 0), BuildingBlock: UVAHIK_clean_linker_0, # of connection points: 2
#     Edge 24, Type (0, 0), BuildingBlock: UVAHIK_clean_linker_0, # of connection points: 2
#     Edge 25, Type (0, 0), BuildingBlock: UVAHIK_clean_linker_0, # of connection points: 2
#     Edge 26, Type (0, 0), BuildingBlock: UVAHIK_clean_linker_0, # of connection points: 2
#     Edge 27, Type (0, 0), BuildingBlock: UVAHIK_clean_linker_0, # of connection points: 2
#     Edge 28, Type (0, 0), BuildingBlock: UVAHIK_clean_linker_0, # of connection points: 2
#     Edge 29, Type (0, 0), BuildingBlock: UVAHIK_clean_linker_0, # of connection points: 2
#     Edge 30, Type (0, 0), BuildingBlock: UVAHIK_clean_linker_0, # of connection points: 2
#     Edge 31, Type (0, 0), BuildingBlock: UVAHIK_clean_linker_0, # of connection points: 2
# Relax obj value: 0.339
# Max RMSD: 0.283
# Mean RMSD: 0.283
data_MOF--net-whc--node1-OJICUG_clean_sbu_0--edge1-UVAHIK_clean_linker_0
_symmetry_space_group_name_H-M    P1
_symmetry_Int_Tables_number       1
_symmetry_cell_setting            triclinic
loop_
_symmetry_equiv_pos_as_xyz
'x, y, z'
_cell_length_a     44.500351
_cell_length_b     44.497473
_cell_length_c     39.21916
_cell_angle_alpha  90.089132
_cell_angle_beta   90.116311
_cell_angle_gamma 90.007382
loop_
_atom_site_label
_atom_site_type_symbol
_atom_site_fract_x
_atom_site_fract_y
_atom_site_fract_z
_atom_type_partial_charge
Sc0 Sc 0.43947 0.23006 0.11127 0.0
Sc1 Sc 0.39722 0.17686 0.06522 0.0
Sc2 Sc 0.47509 0.16681 0.07659 0.0
O3 O 0.43731 0.19143 0.08416 0.0
C4 C 0.50095 0.23349 0.07061 0.0
C5 C 0.3957 0.24653 0.0487 0.0
C6 C 0.44303 0.15913 0.00536 0.0
C7 C 0.37652 0.20498 0.13602 0.0
C8 C 0.48235 0.18666 0.15417 0.0
C9 C 0.42561 0.11755 0.09444 0.0
O10 O 0.4788 0.24586 0.08536 0.0
O11 O 0.38916 0.21951 0.04069 0.0
O12 O 0.46678 0.16288 0.02287 0.0
O13 O 0.40095 0.2189 0.1413 0.0
O14 O 0.4869 0.16815 0.12997 0.0
O15 O 0.40263 0.13404 0.09015 0.0
O16 O 0.46661 0.21032 0.15073 0.0
O17 O 0.37124 0.19055 0.10877 0.0
O18 O 0.45216 0.1256 0.08704 0.0
O19 O 0.4123 0.2533 0.07411 0.0
O20 O 0.50279 0.2053 0.06592 0.0
O21 O 0.41686 0.16116 0.01811 0.0
Sc22 Sc 0.22766 0.5561 0.86667 0.0
Sc23 Sc 0.1736 0.59597 0.91446 0.0
Sc24 Sc 0.16555 0.51825 0.90066 0.0
O25 O 0.18909 0.55679 0.89402 0.0
C26 C 0.18458 0.51373 0.82264 0.0
C27 C 0.20122 0.61951 0.84452 0.0
C28 C 0.11466 0.56674 0.88484 0.0
C29 C 0.2436 0.59864 0.93034 0.0
C30 C 0.23267 0.49382 0.9063 0.0
C31 C 0.158 0.5485 0.97297 0.0
O32 O 0.20776 0.53019 0.8262 0.0
O33 O 0.18601 0.62294 0.87152 0.0
O34 O 0.12382 0.54024 0.89066 0.0
O35 O 0.25049 0.58236 0.90476 0.0
O36 O 0.20457 0.49157 0.911 0.0
O37 O 0.15909 0.57507 0.96124 0.0
O38 O 0.24454 0.51612 0.89126 0.0
O39 O 0.21653 0.60478 0.93847 0.0
O40 O 0.16195 0.52538 0.95452 0.0
O41 O 0.21616 0.59583 0.83829 0.0
O42 O 0.16694 0.50756 0.84712 0.0
O43 O 0.1303 0.59015 0.89028 0.0
Sc44 Sc 0.5557 0.75946 0.11392 0.0
Sc45 Sc 0.59594 0.82035 0.07889 0.0
Sc46 Sc 0.51702 0.82429 0.08936 0.0
O47 O 0.55627 0.80135 0.09394 0.0
C48 C 0.49399 0.75881 0.07197 0.0
C49 C 0.60122 0.75231 0.05236 0.0
C50 C 0.55055 0.84014 0.01971 0.0
C51 C 0.6175 0.78532 0.14449 0.0
C52 C 0.51168 0.79471 0.16341 0.0
C53 C 0.56267 0.87471 0.11502 0.0
O54 O 0.51503 0.74597 0.08827 0.0
O55 O 0.60972 0.77968 0.05288 0.0
O56 O 0.52689 0.8374 0.03761 0.0
O57 O 0.59603 0.76657 0.14285 0.0
O58 O 0.50327 0.81348 0.14085 0.0
O59 O 0.58673 0.86259 0.10435 0.0
O60 O 0.53098 0.77427 0.15761 0.0
O61 O 0.62018 0.80708 0.12387 0.0
O62 O 0.53677 0.86363 0.11044 0.0
O63 O 0.58086 0.74194 0.07181 0.0
O64 O 0.49245 0.7871 0.06861 0.0
O65 O 0.57673 0.83529 0.03151 0.0
Sc66 Sc 0.76923 0.44205 0.88997 0.0
Sc67 Sc 0.82358 0.39694 0.93047 0.0
Sc68 Sc 0.83662 0.47458 0.91753 0.0
O69 O 0.80974 0.43784 0.91282 0.0
C70 C 0.81101 0.48249 0.84229 0.0
C71 C 0.78959 0.37807 0.86207 0.0
C72 C 0.88249 0.42258 0.89666 0.0
C73 C 0.75496 0.39828 0.95263 0.0
C74 C 0.77222 0.50369 0.93075 0.0
C75 C 0.84679 0.44232 0.98874 0.0
O76 O 0.7872 0.46774 0.84853 0.0
O77 O 0.80667 0.37207 0.88713 0.0
O78 O 0.87551 0.44966 0.9029 0.0
O79 O 0.74752 0.41631 0.92894 0.0
O80 O 0.80073 0.50431 0.93196 0.0
O81 O 0.8419 0.41613 0.97683 0.0
O82 O 0.75764 0.48201 0.91769 0.0
O83 O 0.78194 0.38973 0.95763 0.0
O84 O 0.84433 0.46597 0.97078 0.0
O85 O 0.77577 0.40288 0.85922 0.0
O86 O 0.83154 0.48668 0.86443 0.0
O87 O 0.86571 0.40031 0.90347 0.0
Sc88 Sc 0.51872 0.1705 0.57681 0.0
Sc89 Sc 0.59634 0.18343 0.56725 0.0
Sc90 Sc 0.55134 0.23493 0.61264 0.0
O91 O 0.55545 0.19644 0.58541 0.0
C92 C 0.49051 0.2362 0.57013 0.0
C93 C 0.55204 0.1647 0.50607 0.0
C94 C 0.59563 0.25332 0.55164 0.0
C95 C 0.56976 0.12264 0.59463 0.0
C96 C 0.50957 0.18967 0.65424 0.0
C97 C 0.61456 0.21147 0.63921 0.0
O98 O 0.48989 0.20796 0.56541 0.0
O99 O 0.578 0.16804 0.51919 0.0
O100 O 0.57828 0.25952 0.57649 0.0
O101 O 0.54294 0.13023 0.58783 0.0
O102 O 0.52434 0.214 0.65135 0.0
O103 O 0.6209 0.19725 0.61209 0.0
O104 O 0.50608 0.17119 0.6298 0.0
O105 O 0.59232 0.13972 0.59054 0.0
O106 O 0.58972 0.22488 0.64364 0.0
O107 O 0.52802 0.16691 0.52332 0.0
O108 O 0.51184 0.24941 0.58563 0.0
O109 O 0.60331 0.22661 0.54385 0.0
Sc110 Sc 0.15819 0.47402 0.40107 0.0
Sc111 Sc 0.16754 0.39578 0.41479 0.0
Sc112 Sc 0.22341 0.4381 0.37272 0.0
O113 O 0.18309 0.43593 0.39638 0.0
C114 C 0.18422 0.48128 0.32589 0.0
C115 C 0.10979 0.42444 0.37998 0.0
C116 C 0.19827 0.37537 0.34544 0.0
C117 C 0.14647 0.44193 0.47248 0.0
C118 C 0.22385 0.4993 0.4154 0.0
C119 C 0.23697 0.39389 0.43509 0.0
O120 O 0.16523 0.48767 0.34892 0.0
O121 O 0.12414 0.4015 0.3904 0.0
O122 O 0.21437 0.3988 0.34286 0.0
O123 O 0.14777 0.46499 0.45349 0.0
O124 O 0.23699 0.47815 0.39951 0.0
O125 O 0.2098 0.38592 0.43996 0.0
O126 O 0.19547 0.50064 0.41864 0.0
O127 O 0.15252 0.41563 0.46189 0.0
O128 O 0.24468 0.41218 0.41183 0.0
O129 O 0.1191 0.45123 0.38327 0.0
O130 O 0.20623 0.46373 0.33095 0.0
O131 O 0.18093 0.37053 0.37048 0.0
Sc132 Sc 0.47864 0.81439 0.59118 0.0
Sc133 Sc 0.40031 0.81147 0.57878 0.0
Sc134 Sc 0.43726 0.75591 0.62811 0.0
O135 O 0.43867 0.79382 0.5993 0.0
C136 C 0.49786 0.74577 0.58633 0.0
C137 C 0.4476 0.82203 0.51877 0.0
C138 C 0.39252 0.74108 0.56615 0.0
C139 C 0.43431 0.86906 0.60612 0.0
C140 C 0.4833 0.79663 0.66987 0.0
C141 C 0.37627 0.78795 0.6504 0.0
O142 O 0.50146 0.77338 0.57957 0.0
O143 O 0.42103 0.82167 0.5305 0.0
O144 O 0.40941 0.73361 0.59101 0.0
O145 O 0.46003 0.85732 0.60227 0.0
O146 O 0.46457 0.77512 0.66789 0.0
O147 O 0.37376 0.80337 0.62339 0.0
O148 O 0.49081 0.8125 0.64435 0.0
O149 O 0.40978 0.85567 0.59931 0.0
O150 O 0.39843 0.77066 0.65609 0.0
O151 O 0.47066 0.81863 0.53746 0.0
O152 O 0.47609 0.7359 0.60399 0.0
O153 O 0.38754 0.76833 0.55783 0.0
Sc154 Sc 0.83093 0.52304 0.41656 0.0
Sc155 Sc 0.82055 0.59948 0.42829 0.0
Sc156 Sc 0.77168 0.55921 0.37629 0.0
O157 O 0.8072 0.56042 0.40733 0.0
C158 C 0.81926 0.51667 0.3381 0.0
C159 C 0.88017 0.57173 0.40388 0.0
C160 C 0.79802 0.62143 0.35568 0.0
C161 C 0.83141 0.55216 0.48793 0.0
C162 C 0.76369 0.49782 0.41383 0.0
C163 C 0.75134 0.60205 0.43842 0.0
O164 O 0.83784 0.51517 0.36281 0.0
O165 O 0.86265 0.59416 0.40206 0.0
O166 O 0.78872 0.59572 0.34649 0.0
O167 O 0.82448 0.52937 0.47003 0.0
O168 O 0.75199 0.52205 0.40303 0.0
O169 O 0.77729 0.60488 0.45197 0.0
O170 O 0.79195 0.49421 0.41653 0.0
O171 O 0.8367 0.57782 0.47477 0.0
O172 O 0.74692 0.58931 0.40959 0.0
O173 O 0.87283 0.54753 0.41883 0.0
O174 O 0.79355 0.52914 0.34074 0.0
O175 O 0.80605 0.62716 0.38609 0.0
C176 C 0.2009 0.32129 0.32833 0.0
C177 C 0.20227 0.35185 0.31944 0.0
C178 C 0.21206 0.29944 0.30601 0.0
C179 C 0.27329 0.2972 0.24732 0.0
H180 H 0.24898 0.21581 0.22475 0.0
C181 C 0.32195 0.20638 0.15143 0.0
C182 C 0.35229 0.20864 0.16128 0.0
C183 C 0.29928 0.21684 0.17305 0.0
C184 C 0.2559 0.23849 0.23106 0.0
H185 H 0.21237 0.38329 0.27888 0.0
H186 H 0.23137 0.34518 0.23985 0.0
H187 H 0.21352 0.24961 0.25425 0.0
H188 H 0.38242 0.21975 0.20299 0.0
H189 H 0.34291 0.23781 0.24062 0.0
H190 H 0.31545 0.28655 0.22476 0.0
C191 C 0.22245 0.33815 0.26426 0.0
C192 C 0.23574 0.25771 0.24778 0.0
C193 C 0.21167 0.35992 0.28659 0.0
C194 C 0.3593 0.21835 0.19443 0.0
C195 C 0.33671 0.22859 0.216 0.0
C196 C 0.29335 0.27807 0.23121 0.0
C197 C 0.22442 0.30801 0.27458 0.0
C198 C 0.24431 0.28732 0.25575 0.0
C199 C 0.30677 0.22949 0.20475 0.0
C200 C 0.28498 0.24854 0.22304 0.0
H201 H 0.19362 0.31452 0.35352 0.0
H202 H 0.21338 0.27633 0.31452 0.0
H203 H 0.28071 0.31971 0.25374 0.0
H204 H 0.31588 0.19878 0.12608 0.0
H205 H 0.27632 0.21735 0.16386 0.0
C206 C 0.2175 0.64163 0.78897 0.0
C207 C 0.20413 0.64532 0.8211 0.0
C208 C 0.225 0.66664 0.76936 0.0
C209 C 0.25171 0.7416 0.78368 0.0
H210 H 0.2547 0.74292 0.68493 0.0
C211 C 0.3541 0.77443 0.70681 0.0
C212 C 0.35072 0.78733 0.67438 0.0
C213 C 0.32895 0.76828 0.72676 0.0
C214 C 0.25349 0.74348 0.71251 0.0
H215 H 0.18596 0.67809 0.85665 0.0
H216 H 0.19957 0.72175 0.82248 0.0
H217 H 0.21994 0.709 0.71357 0.0
H218 H 0.31854 0.80637 0.63872 0.0
H219 H 0.27457 0.7951 0.67351 0.0
H220 H 0.28674 0.77459 0.78261 0.0
C221 C 0.20423 0.69949 0.8126 0.0
C222 C 0.23377 0.72388 0.72886 0.0
C223 C 0.19643 0.67445 0.83208 0.0
C224 C 0.3219 0.79623 0.66352 0.0
C225 C 0.2967 0.78976 0.68336 0.0
C226 C 0.27159 0.76105 0.76733 0.0
C227 C 0.21948 0.69582 0.7816 0.0
C228 C 0.23375 0.72175 0.76456 0.0
C229 C 0.29994 0.77469 0.71455 0.0
C230 C 0.27366 0.76109 0.73162 0.0
H231 H 0.22347 0.6195 0.77963 0.0
H232 H 0.237 0.66313 0.74567 0.0
H233 H 0.25226 0.74036 0.81126 0.0
H234 H 0.37602 0.76761 0.71604 0.0
H235 H 0.33215 0.75643 0.7506 0.0
C236 C 0.78781 0.67518 0.34192 0.0
C237 C 0.7957 0.64619 0.33096 0.0
C238 C 0.77843 0.69671 0.3183 0.0
C239 C 0.73853 0.69398 0.2378 0.0
H240 H 0.73628 0.78077 0.24729 0.0
C241 C 0.67071 0.79144 0.16488 0.0
C242 C 0.64173 0.77937 0.16936 0.0
C243 C 0.69487 0.78075 0.18433 0.0
C244 C 0.73707 0.75659 0.24419 0.0
H245 H 0.80408 0.61812 0.28681 0.0
H246 H 0.78878 0.65601 0.24546 0.0
H247 H 0.77409 0.75156 0.27892 0.0
H248 H 0.61481 0.74907 0.20009 0.0
H249 H 0.65684 0.73051 0.23366 0.0
H250 H 0.70105 0.69873 0.20423 0.0
C251 C 0.78866 0.66182 0.27229 0.0
C252 C 0.75853 0.7399 0.26226 0.0
C253 C 0.79745 0.64015 0.29591 0.0
C254 C 0.63692 0.75843 0.19555 0.0
C255 C 0.66093 0.7478 0.21479 0.0
C256 C 0.71718 0.71053 0.22008 0.0
C257 C 0.77722 0.68963 0.28336 0.0
C258 C 0.75894 0.70831 0.25988 0.0
C259 C 0.69021 0.75793 0.20836 0.0
C260 C 0.71564 0.7418 0.22394 0.0
H261 H 0.7864 0.68044 0.36886 0.0
H262 H 0.76971 0.71787 0.32772 0.0
H263 H 0.73774 0.66972 0.2357 0.0
H264 H 0.6751 0.8077 0.14496 0.0
H265 H 0.71734 0.78887 0.1791 0.0
C266 C 0.76898 0.36256 0.80569 0.0
C267 C 0.78283 0.35451 0.83658 0.0
C268 C 0.75656 0.34066 0.78461 0.0
C269 C 0.70759 0.29502 0.77304 0.0
H270 H 0.74022 0.22409 0.72904 0.0
C271 C 0.62892 0.21961 0.69986 0.0
C272 C 0.63766 0.21477 0.66594 0.0
C273 C 0.64996 0.22855 0.72418 0.0
C274 C 0.73086 0.24373 0.74143 0.0
H275 H 0.79715 0.31695 0.86792 0.0
H276 H 0.7751 0.27842 0.83064 0.0
H277 H 0.77351 0.25715 0.76261 0.0
H278 H 0.67559 0.21284 0.63141 0.0
H279 H 0.71235 0.22958 0.67379 0.0
H280 H 0.66537 0.28272 0.75169 0.0
C281 C 0.77396 0.3018 0.82307 0.0
C282 C 0.74983 0.26248 0.7606 0.0
C283 C 0.78648 0.32384 0.84434 0.0
C284 C 0.66826 0.21655 0.65741 0.0
C285 C 0.68933 0.22597 0.68171 0.0
C286 C 0.68874 0.27633 0.75436 0.0
C287 C 0.75777 0.31027 0.79389 0.0
C288 C 0.73833 0.28862 0.77583 0.0
C289 C 0.68007 0.23341 0.71492 0.0
C290 C 0.70015 0.2507 0.73791 0.0
H291 H 0.76629 0.38594 0.79864 0.0
H292 H 0.74448 0.34761 0.76193 0.0
H293 H 0.69819 0.31492 0.7849 0.0
H294 H 0.60554 0.2178 0.70727 0.0
H295 H 0.64232 0.23341 0.74982 0.0
C296 C 0.49001 0.15233 0.69662 0.0
C297 C 0.49683 0.18223 0.68796 0.0
C298 C 0.47995 0.14525 0.72941 0.0
C299 C 0.44571 0.17845 0.80613 0.0
H300 H 0.48804 0.11591 0.85551 0.0
C301 C 0.47431 0.15014 0.9532 0.0
C302 C 0.44587 0.15391 0.96818 0.0
C303 C 0.47722 0.14815 0.91782 0.0
C304 C 0.47592 0.13331 0.84196 0.0
H305 H 0.49768 0.22818 0.70654 0.0
H306 H 0.47995 0.21584 0.76348 0.0
H307 H 0.49846 0.12373 0.79494 0.0
H308 H 0.39802 0.15707 0.95765 0.0
H309 H 0.40323 0.15365 0.89592 0.0
H310 H 0.42401 0.18885 0.85326 0.0
C311 C 0.48231 0.19791 0.74496 0.0
C312 C 0.48169 0.13761 0.80728 0.0
C313 C 0.49267 0.20493 0.71242 0.0
C314 C 0.4203 0.15435 0.94701 0.0
C315 C 0.42325 0.1525 0.91162 0.0
C316 C 0.43979 0.17402 0.84068 0.0
C317 C 0.47615 0.16799 0.75391 0.0
C318 C 0.46717 0.16073 0.78928 0.0
C319 C 0.45178 0.14998 0.89664 0.0
C320 C 0.45535 0.15188 0.85914 0.0
H321 H 0.49319 0.1343 0.67838 0.0
H322 H 0.47528 0.12201 0.73566 0.0
H323 H 0.43401 0.19625 0.79276 0.0
H324 H 0.49446 0.14957 0.96869 0.0
H325 H 0.49954 0.1465 0.907 0.0
C326 C 0.14436 0.56817 0.03093 0.0
C327 C 0.15455 0.54445 0.01014 0.0
C328 C 0.14434 0.56521 0.06643 0.0
C329 C 0.18778 0.53438 0.13218 0.0
H330 H 0.11833 0.52574 0.19096 0.0
C331 C 0.19821 0.48315 0.2644 0.0
C332 C 0.18015 0.49368 0.29121 0.0
C333 C 0.19397 0.49359 0.23133 0.0
C334 C 0.13794 0.52878 0.17503 0.0
H335 H 0.17178 0.49877 0.01027 0.0
H336 H 0.17234 0.49408 0.07221 0.0
H337 H 0.11124 0.53618 0.13007 0.0
H338 H 0.14355 0.52379 0.30425 0.0
H339 H 0.13651 0.54258 0.24623 0.0
H340 H 0.21467 0.52719 0.1765 0.0
C341 C 0.16413 0.51471 0.06087 0.0
C342 C 0.13382 0.53458 0.14028 0.0
C343 C 0.1637 0.51742 0.02549 0.0
C344 C 0.15785 0.51522 0.28417 0.0
C345 C 0.15372 0.52587 0.25092 0.0
C346 C 0.19194 0.52905 0.16683 0.0
C347 C 0.15492 0.53872 0.0815 0.0
C348 C 0.15874 0.53656 0.11862 0.0
C349 C 0.17173 0.5151 0.22414 0.0
C350 C 0.16708 0.52519 0.18848 0.0
H351 H 0.13705 0.58922 0.01983 0.0
H352 H 0.13723 0.58397 0.08211 0.0
H353 H 0.20726 0.53617 0.11577 0.0
H354 H 0.2154 0.46632 0.26872 0.0
H355 H 0.20775 0.48422 0.21124 0.0
C356 C 0.57258 0.84355 0.96109 0.0
C357 C 0.54742 0.84593 0.98263 0.0
C358 C 0.56909 0.84379 0.92572 0.0
C359 C 0.54963 0.81731 0.8578 0.0
H360 H 0.49568 0.86893 0.80677 0.0
C361 C 0.49583 0.78319 0.73012 0.0
C362 C 0.4956 0.80451 0.70375 0.0
C363 C 0.50563 0.79111 0.76274 0.0
C364 C 0.51106 0.85456 0.82066 0.0
H365 H 0.49912 0.85273 0.98367 0.0
H366 H 0.49314 0.8533 0.92184 0.0
H367 H 0.50644 0.88013 0.86679 0.0
H368 H 0.50551 0.8509 0.69088 0.0
H369 H 0.52226 0.8648 0.74824 0.0
H370 H 0.55354 0.7912 0.81212 0.0
C371 C 0.51553 0.85114 0.93246 0.0
C372 C 0.51705 0.86085 0.85496 0.0
C373 C 0.51897 0.85067 0.9679 0.0
C374 C 0.50567 0.83389 0.71061 0.0
C375 C 0.51504 0.84193 0.74344 0.0
C376 C 0.54337 0.81083 0.82371 0.0
C377 C 0.54043 0.8467 0.91107 0.0
C378 C 0.53613 0.84206 0.87395 0.0
C379 C 0.515 0.82062 0.7698 0.0
C380 C 0.52371 0.82914 0.80495 0.0
H381 H 0.59489 0.84006 0.97145 0.0
H382 H 0.58871 0.84073 0.90978 0.0
H383 H 0.56417 0.80223 0.87189 0.0
H384 H 0.4882 0.7604 0.72563 0.0
H385 H 0.50512 0.77433 0.78271 0.0
C386 C 0.8052 0.499 0.27973 0.0
C387 C 0.82753 0.50369 0.30457 0.0
C388 C 0.81261 0.48788 0.2476 0.0
C389 C 0.87306 0.48487 0.18563 0.0
H390 H 0.82112 0.42622 0.14202 0.0
C391 C 0.85883 0.47412 0.03996 0.0
C392 C 0.85358 0.44558 0.02566 0.0
C393 C 0.86176 0.47767 0.07523 0.0
C394 C 0.8362 0.44224 0.1539 0.0
H395 H 0.87525 0.49993 0.31516 0.0
H396 H 0.88834 0.48093 0.25835 0.0
H397 H 0.81435 0.4379 0.20219 0.0
H398 H 0.84899 0.39812 0.03739 0.0
H399 H 0.85417 0.40437 0.09886 0.0
H400 H 0.89437 0.48978 0.13696 0.0
C401 C 0.86504 0.48585 0.26407 0.0
C402 C 0.83213 0.44912 0.18831 0.0
C403 C 0.85754 0.49664 0.29656 0.0
C404 C 0.8528 0.42047 0.04743 0.0
C405 C 0.85565 0.42405 0.08272 0.0
C406 C 0.87704 0.47811 0.15106 0.0
C407 C 0.84259 0.48137 0.23929 0.0
C408 C 0.84999 0.47104 0.20432 0.0
C409 C 0.85946 0.45277 0.09708 0.0
C410 C 0.85819 0.4572 0.13463 0.0
H411 H 0.78184 0.50406 0.28499 0.0
H412 H 0.79487 0.48507 0.22891 0.0
H413 H 0.88709 0.50194 0.1973 0.0
H414 H 0.85969 0.49398 0.02403 0.0
H415 H 0.86439 0.50014 0.08545 0.0
C416 C 0.49828 0.20359 0.21217 0.0
C417 C 0.49537 0.18032 0.18812 0.0
C418 C 0.50929 0.19771 0.24477 0.0
C419 C 0.51461 0.13845 0.30823 0.0
H420 H 0.56856 0.1946 0.35293 0.0
C421 C 0.57499 0.16192 0.44771 0.0
C422 C 0.5496 0.15942 0.46884 0.0
C423 C 0.57213 0.1596 0.41231 0.0
C424 C 0.55386 0.17842 0.34072 0.0
H425 H 0.50187 0.13258 0.17942 0.0
H426 H 0.52093 0.12227 0.23685 0.0
H427 H 0.55772 0.20022 0.29233 0.0
H428 H 0.50151 0.15112 0.46927 0.0
H429 H 0.4966 0.14725 0.40764 0.0
H430 H 0.5102 0.1171 0.35691 0.0
C431 C 0.51476 0.14508 0.2302 0.0
C432 C 0.54744 0.18182 0.3061 0.0
C433 C 0.50403 0.15103 0.19732 0.0
C434 C 0.52153 0.15331 0.45381 0.0
C435 C 0.51873 0.15083 0.41845 0.0
C436 C 0.5209 0.13515 0.34297 0.0
C437 C 0.51741 0.16839 0.25425 0.0
C438 C 0.52722 0.1623 0.2897 0.0
C439 C 0.54389 0.15453 0.39729 0.0
C440 C 0.54009 0.1555 0.35972 0.0
H441 H 0.49188 0.22641 0.20589 0.0
H442 H 0.51067 0.21605 0.26291 0.0
H443 H 0.49883 0.12316 0.29627 0.0
H444 H 0.59698 0.16652 0.45839 0.0
H445 H 0.59197 0.16225 0.39663 0.0
C446 C 0.14706 0.42384 0.53297 0.0
C447 C 0.14011 0.4464 0.50915 0.0
C448 C 0.14548 0.42975 0.56791 0.0
C449 C 0.15295 0.49401 0.62534 0.0
H450 H 0.13356 0.43603 0.69569 0.0
C451 C 0.14914 0.48912 0.78117 0.0
C452 C 0.17708 0.50273 0.78803 0.0
C453 C 0.1413 0.48106 0.74784 0.0
C454 C 0.13877 0.45253 0.67631 0.0
H455 H 0.12358 0.492 0.50337 0.0
H456 H 0.12036 0.5021 0.56425 0.0
H457 H 0.12259 0.42426 0.63592 0.0
H458 H 0.21907 0.51744 0.76536 0.0
H459 H 0.20547 0.50317 0.70759 0.0
H460 H 0.16923 0.52221 0.66542 0.0
C461 C 0.12779 0.4801 0.55592 0.0
C462 C 0.1327 0.44573 0.64213 0.0
C463 C 0.12955 0.47428 0.52102 0.0
C464 C 0.19727 0.50726 0.76103 0.0
C465 C 0.18943 0.49924 0.72784 0.0
C466 C 0.15903 0.50075 0.65933 0.0
C467 C 0.13676 0.45828 0.57971 0.0
C468 C 0.14012 0.46627 0.61626 0.0
C469 C 0.1612 0.48654 0.7208 0.0
C470 C 0.15255 0.47989 0.68511 0.0
H471 H 0.15523 0.40209 0.52469 0.0
H472 H 0.15274 0.41252 0.58557 0.0
H473 H 0.15934 0.51019 0.60606 0.0
H474 H 0.133 0.48542 0.80135 0.0
H475 H 0.11934 0.4714 0.74309 0.0
C476 C 0.47641 0.81756 0.20637 0.0
C477 C 0.49987 0.79753 0.19854 0.0
C478 C 0.46658 0.82095 0.24006 0.0
C479 C 0.47087 0.78392 0.32504 0.0
H480 H 0.45419 0.86371 0.36024 0.0
C481 C 0.47832 0.81282 0.46664 0.0
C482 C 0.45178 0.82386 0.48145 0.0
C483 C 0.48117 0.81118 0.43131 0.0
C484 C 0.45852 0.84132 0.35054 0.0
H485 H 0.53148 0.76553 0.22013 0.0
H486 H 0.51502 0.772 0.27833 0.0
H487 H 0.46404 0.85684 0.29927 0.0
H488 H 0.40798 0.84319 0.47076 0.0
H489 H 0.41349 0.84101 0.40856 0.0
H490 H 0.46687 0.76873 0.37658 0.0
C491 C 0.50351 0.78449 0.25856 0.0
C492 C 0.464 0.8373 0.31569 0.0
C493 C 0.51311 0.78091 0.22505 0.0
C494 C 0.42866 0.83448 0.46008 0.0
C495 C 0.43178 0.83333 0.4246 0.0
C496 C 0.46591 0.78803 0.35979 0.0
C497 C 0.48013 0.80452 0.26656 0.0
C498 C 0.4709 0.80861 0.30268 0.0
C499 C 0.45778 0.821 0.41006 0.0
C500 C 0.46026 0.81679 0.37288 0.0
H501 H 0.46573 0.8307 0.18656 0.0
H502 H 0.44834 0.83638 0.24529 0.0
H503 H 0.47526 0.7614 0.31581 0.0
H504 H 0.4965 0.80433 0.48232 0.0
H505 H 0.50151 0.80177 0.42052 0.0
C506 C 0.79493 0.48562 0.7814 0.0
C507 C 0.8149 0.49448 0.80734 0.0
C508 C 0.79826 0.4963 0.74829 0.0
C509 C 0.85302 0.52979 0.68899 0.0
H510 H 0.78085 0.54294 0.63537 0.0
C511 C 0.84828 0.56925 0.54607 0.0
C512 C 0.83235 0.54881 0.52541 0.0
C513 C 0.848 0.56628 0.58162 0.0
C514 C 0.80117 0.5395 0.65014 0.0
H515 H 0.85424 0.52157 0.8186 0.0
H516 H 0.85973 0.54082 0.76051 0.0
H517 H 0.77662 0.53241 0.69609 0.0
H518 H 0.80363 0.50937 0.52583 0.0
H519 H 0.80263 0.50475 0.58769 0.0
H520 H 0.87739 0.53709 0.64247 0.0
C521 C 0.84166 0.52526 0.76593 0.0
C522 C 0.7988 0.53328 0.68483 0.0
C523 C 0.83844 0.51434 0.79924 0.0
C524 C 0.81627 0.52538 0.54097 0.0
C525 C 0.81553 0.52281 0.57635 0.0
C526 C 0.85539 0.53649 0.65421 0.0
C527 C 0.82148 0.51643 0.74012 0.0
C528 C 0.82461 0.52731 0.70447 0.0
C529 C 0.83125 0.54327 0.59696 0.0
C530 C 0.8294 0.54049 0.6344 0.0
H531 H 0.77677 0.47004 0.78647 0.0
H532 H 0.78281 0.48831 0.72894 0.0
H533 H 0.87334 0.5252 0.7033 0.0
H534 H 0.86093 0.58748 0.53477 0.0
H535 H 0.86027 0.58229 0.59714 0.0
C536 C 0.28208 0.46645 0.9075 0.0
C537 C 0.25204 0.46888 0.91819 0.0
C538 C 0.29967 0.44195 0.9176 0.0
C539 C 0.29288 0.36456 0.95179 0.0
H540 H 0.37578 0.37625 0.97928 0.0
C541 C 0.38687 0.3014 0.03891 0.0
C542 C 0.38277 0.27144 0.02838 0.0
C543 C 0.37334 0.32494 0.02119 0.0
C544 C 0.35263 0.37262 0.97175 0.0
H545 H 0.21723 0.44789 0.94873 0.0
H546 H 0.24795 0.4058 0.96685 0.0
H547 H 0.34689 0.41873 0.95776 0.0
H548 H 0.36206 0.24293 0.99 0.0
H549 H 0.33876 0.28418 0.95872 0.0
H550 H 0.29809 0.31885 0.9673 0.0
C551 C 0.25775 0.4223 0.9499 0.0
C552 C 0.33618 0.39691 0.95905 0.0
C553 C 0.24018 0.4466 0.93969 0.0
C554 C 0.3655 0.2657 -0.00099 0.0
C555 C 0.35204 0.28933 0.98115 0.0
C556 C 0.30927 0.34034 0.96465 0.0
C557 C 0.28759 0.41948 0.93872 0.0
C558 C 0.30593 0.39327 0.94954 0.0
C559 C 0.35548 0.3192 0.99232 0.0
C560 C 0.33917 0.3442 0.97536 0.0
H561 H 0.29188 0.48315 0.89082 0.0
H562 H 0.32253 0.44034 0.90837 0.0
H563 H 0.2698 0.36085 0.94408 0.0
H564 H 0.39998 0.30675 0.06142 0.0
H565 H 0.37609 0.34758 0.03086 0.0
C566 C 0.29848 0.60641 0.94062 0.0
C567 C 0.26857 0.61187 0.95037 0.0
C568 C 0.32221 0.62035 0.95756 0.0
C569 C 0.36997 0.64202 0.00604 0.0
H570 H 0.36137 0.72664 0.02746 0.0
C571 C 0.46514 0.71055 0.06941 0.0
C572 C 0.46917 0.74028 0.05825 0.0
C573 C 0.44026 0.69388 0.05869 0.0
C574 C 0.36421 0.70306 0.0214 0.0
H575 H 0.24032 0.63556 0.98657 0.0
H576 H 0.28202 0.65965 0.01663 0.0
H577 H 0.31843 0.69877 0.00545 0.0
H578 H 0.45077 0.77547 0.02614 0.0
H579 H 0.40793 0.74609 0.00663 0.0
H580 H 0.41609 0.64662 0.02038 0.0
C581 C 0.28693 0.6449 0.99537 0.0
C582 C 0.33944 0.68696 0.0093 0.0
C583 C 0.26306 0.63097 0.97827 0.0
C584 C 0.44821 0.7527 0.03543 0.0
C585 C 0.42349 0.73594 0.02448 0.0
C586 C 0.39478 0.65816 0.01789 0.0
C587 C 0.31676 0.64 0.98489 0.0
C588 C 0.34217 0.65636 0.00099 0.0
C589 C 0.41901 0.70647 0.03632 0.0
C590 C 0.39229 0.68897 0.02526 0.0
H591 H 0.30369 0.59185 0.91926 0.0
H592 H 0.34483 0.61644 0.94843 0.0
H593 H 0.37272 0.61836 0.00035 0.0
H594 H 0.48073 0.70037 0.08721 0.0
H595 H 0.43734 0.67137 0.06859 0.0
C596 C 0.60482 0.70241 0.02345 0.0
C597 C 0.61742 0.73073 0.03044 0.0
C598 C 0.62176 0.6802 0.00737 0.0
C599 C 0.69912 0.65591 0.00105 0.0
H600 H 0.66833 0.60001 0.93357 0.0
C601 C 0.77017 0.55761 0.94892 0.0
C602 C 0.75531 0.53023 0.94285 0.0
C603 C 0.75391 0.58337 0.95734 0.0
C604 C 0.67713 0.61525 0.95269 0.0
H605 H 0.65709 0.75855 0.02427 0.0
H606 H 0.68681 0.71949 -0.00369 0.0
H607 H 0.63851 0.64386 0.94947 0.0
H608 H 0.71178 0.50822 0.94209 0.0
H609 H 0.68353 0.55295 0.95778 0.0
H610 H 0.73722 0.62692 0.0053 0.0
C611 C 0.66384 0.71457 0.00349 0.0
C612 C 0.66014 0.64043 0.96157 0.0
C613 C 0.64676 0.73694 0.01927 0.0
C614 C 0.72391 0.529 0.94635 0.0
C615 C 0.70768 0.55471 0.95505 0.0
C616 C 0.71601 0.63062 0.99239 0.0
C617 C 0.65171 0.68578 -0.0018 0.0
C618 C 0.67086 0.66082 0.98609 0.0
C619 C 0.72244 0.58229 0.96018 0.0
C620 C 0.70505 0.6098 0.9684 0.0
H621 H 0.58218 0.69701 0.03151 0.0
H622 H 0.6119 0.65816 0.00375 0.0
H623 H 0.70769 0.67102 0.02046 0.0
H624 H 0.79432 0.5594 0.9462 0.0
H625 H 0.76596 0.60431 0.96079 0.0
C626 C 0.73627 0.3632 -0.0018 0.0
C627 C 0.73049 0.38534 0.97351 0.0
C628 C 0.71249 0.3488 0.01482 0.0
C629 C 0.6589 0.30742 0.02435 0.0
H630 H 0.58339 0.34803 0.04178 0.0
C631 C 0.54828 0.24194 0.03763 0.0
C632 C 0.52678 0.25244 0.06093 0.0
C633 C 0.5738 0.25904 0.03046 0.0
C634 C 0.60438 0.3363 0.03759 0.0
H635 H 0.69515 0.41071 0.94822 0.0
H636 H 0.6542 0.38529 0.97623 0.0
H637 H 0.62752 0.37731 0.02721 0.0
H638 H 0.5152 0.28905 0.0951 0.0
H639 H 0.56 0.31841 0.08335 0.0
H640 H 0.63592 0.26646 0.03557 0.0
C641 C 0.67692 0.37924 0.98335 0.0
C642 C 0.62965 0.35311 0.02881 0.0
C643 C 0.70055 0.39368 0.96698 0.0
C644 C 0.53118 0.28049 0.07668 0.0
C645 C 0.55689 0.29737 0.0699 0.0
C646 C 0.63371 0.29062 0.03357 0.0
C647 C 0.68252 0.35624 0.00699 0.0
C648 C 0.65701 0.33882 0.0212 0.0
C649 C 0.5786 0.2868 0.04681 0.0
C650 C 0.60595 0.3048 0.03951 0.0
H651 H 0.75906 0.35637 0.00402 0.0
H652 H 0.71757 0.33148 0.03332 0.0
H653 H 0.67953 0.29562 0.01842 0.0
H654 H 0.54543 0.22048 0.02496 0.0
H655 H 0.58968 0.25051 0.01193 0.0
C656 C 0.62255 0.27324 0.50031 0.0
C657 C 0.60822 0.2785 0.53165 0.0
C658 C 0.6359 0.29689 0.48251 0.0
C659 C 0.64084 0.38044 0.47882 0.0
H660 H 0.71949 0.36407 0.44077 0.0
C661 C 0.75571 0.44766 0.44091 0.0
C662 C 0.74382 0.47263 0.42363 0.0
C663 C 0.73722 0.42377 0.4502 0.0
C664 C 0.6976 0.36906 0.4514 0.0
H665 H 0.59608 0.31286 0.56849 0.0
H666 H 0.62005 0.35378 0.53808 0.0
H667 H 0.69007 0.32308 0.46421 0.0
H668 H 0.70314 0.49195 0.40231 0.0
H669 H 0.6709 0.44987 0.41808 0.0
H670 H 0.64919 0.42673 0.4677 0.0
C671 C 0.62043 0.33157 0.52675 0.0
C672 C 0.6805 0.34545 0.46439 0.0
C673 C 0.60685 0.30801 0.54436 0.0
C674 C 0.71298 0.47311 0.41577 0.0
C675 C 0.69448 0.44905 0.42489 0.0
C676 C 0.65807 0.40411 0.46607 0.0
C677 C 0.63545 0.32625 0.49582 0.0
C678 C 0.65214 0.35092 0.47882 0.0
C679 C 0.70642 0.4241 0.44221 0.0
C680 C 0.6869 0.39875 0.45283 0.0
H681 H 0.62369 0.25081 0.48961 0.0
H682 H 0.64682 0.29209 0.45846 0.0
H683 H 0.61886 0.38537 0.48924 0.0
H684 H 0.77929 0.44663 0.44764 0.0
H685 H 0.74705 0.40524 0.4642 0.0
C686 C 0.44364 0.24223 0.53543 0.0
C687 C 0.46434 0.25413 0.55892 0.0
C688 C 0.41796 0.25842 0.52642 0.0
C689 C 0.38606 0.33523 0.52727 0.0
H690 H 0.31206 0.29249 0.50759 0.0
C691 C 0.25506 0.35929 0.48163 0.0
C692 C 0.26124 0.38052 0.45607 0.0
C693 C 0.27857 0.34535 0.49937 0.0
C694 C 0.33236 0.30487 0.51357 0.0
H695 H 0.47426 0.29233 0.59153 0.0
H696 H 0.42918 0.32024 0.57644 0.0
H697 H 0.35549 0.26495 0.52875 0.0
H698 H 0.2971 0.40429 0.42987 0.0
H699 H 0.33756 0.3797 0.45989 0.0
H700 H 0.36279 0.37522 0.51279 0.0
C701 C 0.43305 0.29869 0.56436 0.0
C702 C 0.35745 0.289 0.52515 0.0
C703 C 0.45892 0.28266 0.57305 0.0
C704 C 0.29135 0.38807 0.44936 0.0
C705 C 0.3147 0.37411 0.46687 0.0
C706 C 0.36091 0.35113 0.51605 0.0
C707 C 0.4122 0.28673 0.54101 0.0
C708 C 0.38482 0.30389 0.53137 0.0
C709 C 0.30868 0.35236 0.49184 0.0
C710 C 0.33399 0.33605 0.50822 0.0
H711 H 0.44726 0.22038 0.52394 0.0
H712 H 0.40278 0.2488 0.50776 0.0
H713 H 0.40675 0.34747 0.53161 0.0
H714 H 0.23214 0.35305 0.48757 0.0
H715 H 0.27318 0.32892 0.51876 0.0
C716 C 0.3595 0.72305 0.51817 0.0
C717 C 0.37732 0.71673 0.54693 0.0
C718 C 0.34425 0.69996 0.50117 0.0
C719 C 0.29943 0.65025 0.4852 0.0
H720 H 0.33559 0.57134 0.47628 0.0
C721 C 0.22948 0.54541 0.45167 0.0
C722 C 0.24231 0.52396 0.42973 0.0
C723 C 0.24666 0.56926 0.46421 0.0
C724 C 0.32524 0.5933 0.47819 0.0
H725 H 0.39328 0.681 0.58006 0.0
H726 H 0.36639 0.64116 0.55096 0.0
H727 H 0.36512 0.61271 0.49921 0.0
H728 H 0.28331 0.51086 0.40373 0.0
H729 H 0.31306 0.55271 0.42512 0.0
H730 H 0.25972 0.63096 0.46353 0.0
C731 C 0.36458 0.6638 0.54108 0.0
C732 C 0.34208 0.61695 0.49172 0.0
C733 C 0.37988 0.68677 0.55794 0.0
C734 C 0.27275 0.52684 0.42078 0.0
C735 C 0.28987 0.55081 0.43313 0.0
C736 C 0.28263 0.62662 0.47148 0.0
C737 C 0.34645 0.6701 0.51262 0.0
C738 C 0.32925 0.6456 0.49583 0.0
C739 C 0.27701 0.57234 0.45493 0.0
C740 C 0.29523 0.59778 0.4682 0.0
H741 H 0.35714 0.74584 0.50888 0.0
H742 H 0.33075 0.7055 0.47905 0.0
H743 H 0.28878 0.67196 0.48828 0.0
H744 H 0.20615 0.54378 0.45926 0.0
H745 H 0.23621 0.58512 0.48147 0.0
C746 C 0.72458 0.61609 0.49235 0.0
C747 C 0.72484 0.61383 0.45663 0.0
C748 C 0.69874 0.62588 0.50934 0.0
C749 C 0.61663 0.63876 0.49513 0.0
H750 H 0.62415 0.69087 0.57404 0.0
C751 C 0.53351 0.72998 0.54109 0.0
C752 C 0.52038 0.7246 0.57304 0.0
C753 C 0.5566 0.71162 0.52923 0.0
C754 C 0.62183 0.67593 0.55235 0.0
H755 H 0.69872 0.62091 0.41062 0.0
H756 H 0.65441 0.63926 0.43987 0.0
H757 H 0.66923 0.66902 0.54863 0.0
H758 H 0.52069 0.69578 0.61753 0.0
H759 H 0.56227 0.66405 0.59701 0.0
H760 H 0.5693 0.64767 0.49771 0.0
C761 C 0.67351 0.63234 0.45508 0.0
C762 C 0.64756 0.66333 0.5378 0.0
C763 C 0.69907 0.62208 0.43821 0.0
C764 C 0.53037 0.70019 0.59271 0.0
C765 C 0.55408 0.68221 0.58114 0.0
C766 C 0.59102 0.65182 0.50933 0.0
C767 C 0.67283 0.63407 0.49089 0.0
C768 C 0.64535 0.64508 0.50853 0.0
C769 C 0.56737 0.68801 0.54942 0.0
C770 C 0.59356 0.67077 0.53769 0.0
H771 H 0.74407 0.60961 0.5072 0.0
H772 H 0.69898 0.62661 0.53693 0.0
H773 H 0.61391 0.6242 0.4732 0.0
H774 H 0.52609 0.7486 0.5254 0.0
H775 H 0.56673 0.71642 0.50473 0.0
C776 C 0.4248 0.06234 0.09988 0.0
C777 C 0.42355 0.09063 0.11542 0.0
C778 C 0.43651 0.03792 0.11783 0.0
C779 C 0.46229 0.98972 0.16682 0.0
H780 H 0.54589 0.01478 0.17059 0.0
C781 C 0.55062 0.90122 0.16797 0.0
C782 C 0.56362 0.9022 0.1354 0.0
C783 C 0.53806 0.92702 0.18214 0.0
C784 C 0.52262 0.00762 0.17066 0.0
H785 H 0.43096 0.11558 0.16213 0.0
H786 H 0.45227 0.07301 0.1932 0.0
H787 H 0.50614 0.05258 0.1656 0.0
H788 H 0.5774 0.93099 0.09397 0.0
H789 H 0.55581 0.9765 0.11896 0.0
H790 H 0.47873 0.94472 0.16977 0.0
C791 C 0.44352 0.06946 0.1677 0.0
C792 C 0.49991 0.02913 0.16793 0.0
C793 C 0.43115 0.09365 0.15003 0.0
C794 C 0.56783 0.92994 0.11932 0.0
C795 C 0.55538 0.95589 0.13363 0.0
C796 C 0.48492 0.96827 0.17036 0.0
C797 C 0.44777 0.04192 0.15106 0.0
C798 C 0.46975 0.02018 0.16434 0.0
C799 C 0.53845 0.95403 0.16384 0.0
C800 C 0.51532 0.97699 0.17063 0.0
H801 H 0.41975 0.05985 0.07299 0.0
H802 H 0.43994 0.01689 0.10443 0.0
H803 H 0.43921 0.98242 0.16377 0.0
H804 H 0.54703 0.87986 0.1806 0.0
H805 H 0.52525 0.92514 0.20551 0.0
C806 C 0.90566 0.42565 0.8405 0.0
C807 C 0.90897 0.41871 0.87523 0.0
C808 C 0.92947 0.43844 0.82257 0.0
C809 C 0.00803 0.46276 0.82455 0.0
H810 H 0.97643 0.54415 0.82559 0.0
C811 C 0.05933 0.56729 0.88261 0.0
C812 C 0.08678 0.56856 0.86532 0.0
C813 C 0.03446 0.5539 0.86696 0.0
C814 C 0.98542 0.52157 0.82403 0.0
H815 H 0.94022 0.41564 0.91729 0.0
H816 H 0.98244 0.43656 0.88549 0.0
H817 H 0.94188 0.50142 0.82691 0.0
H818 H 0.1094 0.56007 0.81746 0.0
H819 H 0.06615 0.53597 0.79046 0.0
H820 H 0.05164 0.48296 0.82387 0.0
C821 C 0.96149 0.43242 0.87216 0.0
C822 C 0.96577 0.49713 0.82468 0.0
C823 C 0.93744 0.42027 0.89034 0.0
C824 C 0.08815 0.55981 0.83093 0.0
C825 C 0.06355 0.54583 0.81557 0.0
C826 C 0.02766 0.48718 0.82298 0.0
C827 C 0.95691 0.44373 0.8391 0.0
C828 C 0.97701 0.46764 0.82676 0.0
C829 C 0.03721 0.5411 0.8343 0.0
C830 C 0.01651 0.51673 0.82453 0.0
H831 H 0.88363 0.42512 0.82864 0.0
H832 H 0.92548 0.44714 0.79717 0.0
H833 H 0.01712 0.44023 0.82652 0.0
H834 H 0.05808 0.57328 0.90936 0.0
H835 H 0.01439 0.5502 0.88198 0.0
C836 C 0.44646 0.89925 0.65634 0.0
C837 C 0.43424 0.89816 0.62332 0.0
C838 C 0.45959 0.9256 0.66841 0.0
C839 C 0.47449 0.00511 0.65476 0.0
H840 H 0.55885 0.98259 0.65169 0.0
C841 C 0.57382 0.06743 0.59543 0.0
C842 C 0.57283 0.09459 0.61344 0.0
C843 C 0.56232 0.04134 0.61024 0.0
C844 C 0.53544 0.98909 0.65355 0.0
H845 H 0.42296 0.92396 0.57845 0.0
H846 H 0.44514 0.9707 0.60007 0.0
H847 H 0.52015 0.94352 0.65419 0.0
H848 H 0.56204 0.11577 0.6616 0.0
H849 H 0.54131 0.07027 0.6872 0.0
H850 H 0.48978 0.05067 0.6526 0.0
C851 C 0.44458 0.95118 0.61654 0.0
C852 C 0.51335 0.96689 0.65503 0.0
C853 C 0.43175 0.92459 0.60422 0.0
C854 C 0.56354 0.09478 0.64762 0.0
C855 C 0.55148 0.06891 0.66216 0.0
C856 C 0.49661 0.02733 0.65416 0.0
C857 C 0.46029 0.95119 0.64771 0.0
C858 C 0.48274 0.97476 0.65436 0.0
C859 C 0.54918 0.04255 0.64277 0.0
C860 C 0.52716 0.0194 0.65226 0.0
H861 H 0.44891 0.87886 0.6712 0.0
H862 H 0.47162 0.92519 0.69246 0.0
H863 H 0.45102 0.01156 0.65391 0.0
H864 H 0.58024 0.06708 0.56879 0.0
H865 H 0.56045 0.02122 0.59477 0.0
C866 C 0.90063 0.56344 0.34664 0.0
C867 C 0.90606 0.56978 0.38121 0.0
C868 C 0.92231 0.54849 0.3273 0.0
C869 C 0.95752 0.48726 0.32667 0.0
H870 H 0.04265 0.50264 0.31595 0.0
C871 C 0.05459 0.41968 0.37779 0.0
C872 C 0.08201 0.421 0.36046 0.0
C873 C 0.02867 0.43125 0.36249 0.0
C874 C 0.0188 0.49797 0.31771 0.0
H875 H 0.93882 0.56846 0.42192 0.0
H876 H 0.97751 0.54395 0.38754 0.0
H877 H 0.00797 0.54478 0.32177 0.0
H878 H 0.10364 0.43144 0.31256 0.0
H879 H 0.05845 0.45187 0.28594 0.0
H880 H 0.96888 0.44039 0.32716 0.0
C881 C 0.9565 0.55024 0.37549 0.0
C882 C -0.00093 0.52212 0.32108 0.0
C883 C 0.93453 0.56437 0.39511 0.0
C884 C 0.08251 0.42997 0.32616 0.0
C885 C 0.05674 0.44178 0.31099 0.0
C886 C 0.97738 0.46305 0.32415 0.0
C887 C 0.94982 0.54058 0.3422 0.0
C888 C 0.96855 0.51686 0.32712 0.0
C889 C 0.03025 0.4446 0.33002 0.0
C890 C 0.00834 0.46828 0.32124 0.0
H891 H 0.87846 0.5668 0.33578 0.0
H892 H 0.91672 0.54094 0.30178 0.0
H893 H 0.93401 0.4828 0.33175 0.0
H894 H 0.05391 0.41332 0.40444 0.0
H895 H 0.00852 0.43334 0.37779 0.0
loop_
_geom_bond_atom_site_label_1
_geom_bond_atom_site_label_2
_geom_bond_distance
_geom_bond_site_symmetry_2
_ccdc_geom_bond_type
Sc0 O3 2.025 . S
Sc0 O10 2.105 . S
Sc0 O13 2.105 . S
Sc0 O16 2.105 . S
Sc0 O19 2.105 . S
Sc1 O3 2.025 . S
Sc1 O11 2.105 . S
Sc1 O15 2.105 . S
Sc1 O17 2.105 . S
Sc1 O21 2.105 . S
Sc2 O3 2.025 . S
Sc2 O12 2.105 . S
Sc2 O14 2.105 . S
Sc2 O18 2.105 . S
Sc2 O20 2.105 . S
O3 Sc0 2.025 . S
O3 Sc1 2.025 . S
O3 Sc2 2.025 . S
C4 O10 1.268 . S
C4 O20 1.268 . S
C5 O11 1.268 . S
C5 O19 1.268 . S
C6 O12 1.268 . S
C6 O21 1.268 . S
C7 O13 1.268 . S
C7 O17 1.268 . S
C8 O14 1.268 . S
C8 O16 1.268 . S
C9 O15 1.268 . S
C9 O18 1.268 . S
O10 Sc0 2.105 . S
O10 C4 1.268 . S
O11 Sc1 2.105 . S
O11 C5 1.268 . S
O12 Sc2 2.105 . S
O12 C6 1.268 . S
O13 Sc0 2.105 . S
O13 C7 1.268 . S
O14 Sc2 2.105 . S
O14 C8 1.268 . S
O15 Sc1 2.105 . S
O15 C9 1.268 . S
O16 Sc0 2.105 . S
O16 C8 1.268 . S
O17 Sc1 2.105 . S
O17 C7 1.268 . S
O18 Sc2 2.105 . S
O18 C9 1.268 . S
O19 Sc0 2.105 . S
O19 C5 1.268 . S
O20 Sc2 2.105 . S
O20 C4 1.268 . S
O21 Sc1 2.105 . S
O21 C6 1.268 . S
Sc22 O25 2.025 . S
Sc22 O32 2.105 . S
Sc22 O35 2.105 . S
Sc22 O38 2.105 . S
Sc22 O41 2.105 . S
Sc23 O25 2.025 . S
Sc23 O33 2.105 . S
Sc23 O37 2.105 . S
Sc23 O39 2.105 . S
Sc23 O43 2.105 . S
Sc24 O25 2.025 . S
Sc24 O34 2.105 . S
Sc24 O36 2.105 . S
Sc24 O40 2.105 . S
Sc24 O42 2.105 . S
O25 Sc22 2.025 . S
O25 Sc23 2.025 . S
O25 Sc24 2.025 . S
C26 O32 1.268 . S
C26 O42 1.268 . S
C27 O33 1.268 . S
C27 O41 1.268 . S
C28 O34 1.268 . S
C28 O43 1.268 . S
C29 O35 1.268 . S
C29 O39 1.268 . S
C30 O36 1.268 . S
C30 O38 1.268 . S
C31 O37 1.268 . S
C31 O40 1.268 . S
O32 Sc22 2.105 . S
O32 C26 1.268 . S
O33 Sc23 2.105 . S
O33 C27 1.268 . S
O34 Sc24 2.105 . S
O34 C28 1.268 . S
O35 Sc22 2.105 . S
O35 C29 1.268 . S
O36 Sc24 2.105 . S
O36 C30 1.268 . S
O37 Sc23 2.105 . S
O37 C31 1.268 . S
O38 Sc22 2.105 . S
O38 C30 1.268 . S
O39 Sc23 2.105 . S
O39 C29 1.268 . S
O40 Sc24 2.105 . S
O40 C31 1.268 . S
O41 Sc22 2.105 . S
O41 C27 1.268 . S
O42 Sc24 2.105 . S
O42 C26 1.268 . S
O43 Sc23 2.105 . S
O43 C28 1.268 . S
Sc44 O47 2.025 . S
Sc44 O54 2.105 . S
Sc44 O57 2.105 . S
Sc44 O60 2.105 . S
Sc44 O63 2.105 . S
Sc45 O47 2.025 . S
Sc45 O55 2.105 . S
Sc45 O59 2.105 . S
Sc45 O61 2.105 . S
Sc45 O65 2.105 . S
Sc46 O47 2.025 . S
Sc46 O56 2.105 . S
Sc46 O58 2.105 . S
Sc46 O62 2.105 . S
Sc46 O64 2.105 . S
O47 Sc44 2.025 . S
O47 Sc45 2.025 . S
O47 Sc46 2.025 . S
C48 O54 1.268 . S
C48 O64 1.268 . S
C49 O55 1.268 . S
C49 O63 1.268 . S
C50 O56 1.268 . S
C50 O65 1.268 . S
C51 O57 1.268 . S
C51 O61 1.268 . S
C52 O58 1.268 . S
C52 O60 1.268 . S
C53 O59 1.268 . S
C53 O62 1.268 . S
O54 Sc44 2.105 . S
O54 C48 1.268 . S
O55 Sc45 2.105 . S
O55 C49 1.268 . S
O56 Sc46 2.105 . S
O56 C50 1.268 . S
O57 Sc44 2.105 . S
O57 C51 1.268 . S
O58 Sc46 2.105 . S
O58 C52 1.268 . S
O59 Sc45 2.105 . S
O59 C53 1.268 . S
O60 Sc44 2.105 . S
O60 C52 1.268 . S
O61 Sc45 2.105 . S
O61 C51 1.268 . S
O62 Sc46 2.105 . S
O62 C53 1.268 . S
O63 Sc44 2.105 . S
O63 C49 1.268 . S
O64 Sc46 2.105 . S
O64 C48 1.268 . S
O65 Sc45 2.105 . S
O65 C50 1.268 . S
Sc66 O69 2.025 . S
Sc66 O76 2.105 . S
Sc66 O79 2.105 . S
Sc66 O82 2.105 . S
Sc66 O85 2.105 . S
Sc67 O69 2.025 . S
Sc67 O77 2.105 . S
Sc67 O81 2.105 . S
Sc67 O83 2.105 . S
Sc67 O87 2.105 . S
Sc68 O69 2.025 . S
Sc68 O78 2.105 . S
Sc68 O80 2.105 . S
Sc68 O84 2.105 . S
Sc68 O86 2.105 . S
O69 Sc66 2.025 . S
O69 Sc67 2.025 . S
O69 Sc68 2.025 . S
C70 O76 1.268 . S
C70 O86 1.268 . S
C71 O77 1.268 . S
C71 O85 1.268 . S
C72 O78 1.268 . S
C72 O87 1.268 . S
C73 O79 1.268 . S
C73 O83 1.268 . S
C74 O80 1.268 . S
C74 O82 1.268 . S
C75 O81 1.268 . S
C75 O84 1.268 . S
O76 Sc66 2.105 . S
O76 C70 1.268 . S
O77 Sc67 2.105 . S
O77 C71 1.268 . S
O78 Sc68 2.105 . S
O78 C72 1.268 . S
O79 Sc66 2.105 . S
O79 C73 1.268 . S
O80 Sc68 2.105 . S
O80 C74 1.268 . S
O81 Sc67 2.105 . S
O81 C75 1.268 . S
O82 Sc66 2.105 . S
O82 C74 1.268 . S
O83 Sc67 2.105 . S
O83 C73 1.268 . S
O84 Sc68 2.105 . S
O84 C75 1.268 . S
O85 Sc66 2.105 . S
O85 C71 1.268 . S
O86 Sc68 2.105 . S
O86 C70 1.268 . S
O87 Sc67 2.105 . S
O87 C72 1.268 . S
Sc88 O91 2.025 . S
Sc88 O98 2.105 . S
Sc88 O101 2.105 . S
Sc88 O104 2.105 . S
Sc88 O107 2.105 . S
Sc89 O91 2.025 . S
Sc89 O99 2.105 . S
Sc89 O103 2.105 . S
Sc89 O105 2.105 . S
Sc89 O109 2.105 . S
Sc90 O91 2.025 . S
Sc90 O100 2.105 . S
Sc90 O102 2.105 . S
Sc90 O106 2.105 . S
Sc90 O108 2.105 . S
O91 Sc88 2.025 . S
O91 Sc89 2.025 . S
O91 Sc90 2.025 . S
C92 O98 1.268 . S
C92 O108 1.268 . S
C93 O99 1.268 . S
C93 O107 1.268 . S
C94 O100 1.268 . S
C94 O109 1.268 . S
C95 O101 1.268 . S
C95 O105 1.268 . S
C96 O102 1.268 . S
C96 O104 1.268 . S
C97 O103 1.268 . S
C97 O106 1.268 . S
O98 Sc88 2.105 . S
O98 C92 1.268 . S
O99 Sc89 2.105 . S
O99 C93 1.268 . S
O100 Sc90 2.105 . S
O100 C94 1.268 . S
O101 Sc88 2.105 . S
O101 C95 1.268 . S
O102 Sc90 2.105 . S
O102 C96 1.268 . S
O103 Sc89 2.105 . S
O103 C97 1.268 . S
O104 Sc88 2.105 . S
O104 C96 1.268 . S
O105 Sc89 2.105 . S
O105 C95 1.268 . S
O106 Sc90 2.105 . S
O106 C97 1.268 . S
O107 Sc88 2.105 . S
O107 C93 1.268 . S
O108 Sc90 2.105 . S
O108 C92 1.268 . S
O109 Sc89 2.105 . S
O109 C94 1.268 . S
Sc110 O113 2.025 . S
Sc110 O120 2.105 . S
Sc110 O123 2.105 . S
Sc110 O126 2.105 . S
Sc110 O129 2.105 . S
Sc111 O113 2.025 . S
Sc111 O121 2.105 . S
Sc111 O125 2.105 . S
Sc111 O127 2.105 . S
Sc111 O131 2.105 . S
Sc112 O113 2.025 . S
Sc112 O122 2.105 . S
Sc112 O124 2.105 . S
Sc112 O128 2.105 . S
Sc112 O130 2.105 . S
O113 Sc110 2.025 . S
O113 Sc111 2.025 . S
O113 Sc112 2.025 . S
C114 O120 1.268 . S
C114 O130 1.268 . S
C115 O121 1.268 . S
C115 O129 1.268 . S
C116 O122 1.268 . S
C116 O131 1.268 . S
C117 O123 1.268 . S
C117 O127 1.268 . S
C118 O124 1.268 . S
C118 O126 1.268 . S
C119 O125 1.268 . S
C119 O128 1.268 . S
O120 Sc110 2.105 . S
O120 C114 1.268 . S
O121 Sc111 2.105 . S
O121 C115 1.268 . S
O122 Sc112 2.105 . S
O122 C116 1.268 . S
O123 Sc110 2.105 . S
O123 C117 1.268 . S
O124 Sc112 2.105 . S
O124 C118 1.268 . S
O125 Sc111 2.105 . S
O125 C119 1.268 . S
O126 Sc110 2.105 . S
O126 C118 1.268 . S
O127 Sc111 2.105 . S
O127 C117 1.268 . S
O128 Sc112 2.105 . S
O128 C119 1.268 . S
O129 Sc110 2.105 . S
O129 C115 1.268 . S
O130 Sc112 2.105 . S
O130 C114 1.268 . S
O131 Sc111 2.105 . S
O131 C116 1.268 . S
Sc132 O135 2.025 . S
Sc132 O142 2.105 . S
Sc132 O145 2.105 . S
Sc132 O148 2.105 . S
Sc132 O151 2.105 . S
Sc133 O135 2.025 . S
Sc133 O143 2.105 . S
Sc133 O147 2.105 . S
Sc133 O149 2.105 . S
Sc133 O153 2.105 . S
Sc134 O135 2.025 . S
Sc134 O144 2.105 . S
Sc134 O146 2.105 . S
Sc134 O150 2.105 . S
Sc134 O152 2.105 . S
O135 Sc132 2.025 . S
O135 Sc133 2.025 . S
O135 Sc134 2.025 . S
C136 O142 1.268 . S
C136 O152 1.268 . S
C137 O143 1.268 . S
C137 O151 1.268 . S
C138 O144 1.268 . S
C138 O153 1.268 . S
C139 O145 1.268 . S
C139 O149 1.268 . S
C140 O146 1.268 . S
C140 O148 1.268 . S
C141 O147 1.268 . S
C141 O150 1.268 . S
O142 Sc132 2.105 . S
O142 C136 1.268 . S
O143 Sc133 2.105 . S
O143 C137 1.268 . S
O144 Sc134 2.105 . S
O144 C138 1.268 . S
O145 Sc132 2.105 . S
O145 C139 1.268 . S
O146 Sc134 2.105 . S
O146 C140 1.268 . S
O147 Sc133 2.105 . S
O147 C141 1.268 . S
O148 Sc132 2.105 . S
O148 C140 1.268 . S
O149 Sc133 2.105 . S
O149 C139 1.268 . S
O150 Sc134 2.105 . S
O150 C141 1.268 . S
O151 Sc132 2.105 . S
O151 C137 1.268 . S
O152 Sc134 2.105 . S
O152 C136 1.268 . S
O153 Sc133 2.105 . S
O153 C138 1.268 . S
Sc154 O157 2.025 . S
Sc154 O164 2.105 . S
Sc154 O167 2.105 . S
Sc154 O170 2.105 . S
Sc154 O173 2.105 . S
Sc155 O157 2.025 . S
Sc155 O165 2.105 . S
Sc155 O169 2.105 . S
Sc155 O171 2.105 . S
Sc155 O175 2.105 . S
Sc156 O157 2.025 . S
Sc156 O166 2.105 . S
Sc156 O168 2.105 . S
Sc156 O172 2.105 . S
Sc156 O174 2.105 . S
O157 Sc154 2.025 . S
O157 Sc155 2.025 . S
O157 Sc156 2.025 . S
C158 O164 1.268 . S
C158 O174 1.268 . S
C159 O165 1.268 . S
C159 O173 1.268 . S
C160 O166 1.268 . S
C160 O175 1.268 . S
C161 O167 1.268 . S
C161 O171 1.268 . S
C162 O168 1.268 . S
C162 O170 1.268 . S
C163 O169 1.268 . S
C163 O172 1.268 . S
O164 Sc154 2.105 . S
O164 C158 1.268 . S
O165 Sc155 2.105 . S
O165 C159 1.268 . S
O166 Sc156 2.105 . S
O166 C160 1.268 . S
O167 Sc154 2.105 . S
O167 C161 1.268 . S
O168 Sc156 2.105 . S
O168 C162 1.268 . S
O169 Sc155 2.105 . S
O169 C163 1.268 . S
O170 Sc154 2.105 . S
O170 C162 1.268 . S
O171 Sc155 2.105 . S
O171 C161 1.268 . S
O172 Sc156 2.105 . S
O172 C163 1.268 . S
O173 Sc154 2.105 . S
O173 C159 1.268 . S
O174 Sc156 2.105 . S
O174 C158 1.268 . S
O175 Sc155 2.105 . S
O175 C160 1.268 . S
C176 C177 1.349 . S
C176 C178 1.327 . S
C176 H201 0.950 . S
C177 C176 1.349 . S
C177 C193 1.349 . S
C178 C176 1.327 . S
C178 C197 1.429 . S
C178 H202 0.950 . S
C179 C196 1.574 . S
C179 C198 1.368 . S
C179 H203 0.949 . S
H180 C184 0.949 . S
C181 C182 1.349 . S
C181 C183 1.327 . S
C181 H204 0.950 . S
C182 C181 1.349 . S
C182 C194 1.349 . S
C183 C181 1.327 . S
C183 C199 1.429 . S
C183 H205 0.950 . S
C184 H180 0.949 . S
C184 C192 1.574 . S
C184 C200 1.368 . S
H185 C193 0.950 . S
H186 C191 0.950 . S
H187 C192 0.949 . S
H188 C194 0.950 . S
H189 C195 0.950 . S
H190 C196 0.949 . S
C191 H186 0.950 . S
C191 C193 1.327 . S
C191 C197 1.429 . S
C192 C184 1.574 . S
C192 H187 0.949 . S
C192 C198 1.368 . S
C193 C177 1.349 . S
C193 H185 0.950 . S
C193 C191 1.327 . S
C194 C182 1.349 . S
C194 H188 0.950 . S
C194 C195 1.327 . S
C195 H189 0.950 . S
C195 C194 1.327 . S
C195 C199 1.429 . S
C196 C179 1.574 . S
C196 H190 0.949 . S
C196 C200 1.368 . S
C197 C178 1.429 . S
C197 C191 1.429 . S
C197 C198 1.523 . S
C198 C179 1.368 . S
C198 C192 1.368 . S
C198 C197 1.523 . S
C199 C183 1.429 . S
C199 C195 1.429 . S
C199 C200 1.523 . S
C200 C184 1.368 . S
C200 C196 1.368 . S
C200 C199 1.523 . S
H201 C176 0.950 . S
H202 C178 0.950 . S
H203 C179 0.949 . S
H204 C181 0.950 . S
H205 C183 0.950 . S
C206 C207 1.349 . S
C206 C208 1.327 . S
C206 H231 0.950 . S
C207 C206 1.349 . S
C207 C223 1.349 . S
C208 C206 1.327 . S
C208 C227 1.429 . S
C208 H232 0.950 . S
C209 C226 1.574 . S
C209 C228 1.368 . S
C209 H233 0.949 . S
H210 C214 0.949 . S
C211 C212 1.349 . S
C211 C213 1.327 . S
C211 H234 0.950 . S
C212 C211 1.349 . S
C212 C224 1.349 . S
C213 C211 1.327 . S
C213 C229 1.429 . S
C213 H235 0.950 . S
C214 H210 0.949 . S
C214 C222 1.574 . S
C214 C230 1.368 . S
H215 C223 0.950 . S
H216 C221 0.950 . S
H217 C222 0.949 . S
H218 C224 0.950 . S
H219 C225 0.950 . S
H220 C226 0.949 . S
C221 H216 0.950 . S
C221 C223 1.327 . S
C221 C227 1.429 . S
C222 C214 1.574 . S
C222 H217 0.949 . S
C222 C228 1.368 . S
C223 C207 1.349 . S
C223 H215 0.950 . S
C223 C221 1.327 . S
C224 C212 1.349 . S
C224 H218 0.950 . S
C224 C225 1.327 . S
C225 H219 0.950 . S
C225 C224 1.327 . S
C225 C229 1.429 . S
C226 C209 1.574 . S
C226 H220 0.949 . S
C226 C230 1.368 . S
C227 C208 1.429 . S
C227 C221 1.429 . S
C227 C228 1.523 . S
C228 C209 1.368 . S
C228 C222 1.368 . S
C228 C227 1.523 . S
C229 C213 1.429 . S
C229 C225 1.429 . S
C229 C230 1.523 . S
C230 C214 1.368 . S
C230 C226 1.368 . S
C230 C229 1.523 . S
H231 C206 0.950 . S
H232 C208 0.950 . S
H233 C209 0.949 . S
H234 C211 0.950 . S
H235 C213 0.950 . S
C236 C237 1.349 . S
C236 C238 1.327 . S
C236 H261 0.950 . S
C237 C236 1.349 . S
C237 C253 1.349 . S
C238 C236 1.327 . S
C238 C257 1.429 . S
C238 H262 0.950 . S
C239 C256 1.574 . S
C239 C258 1.368 . S
C239 H263 0.949 . S
H240 C244 0.949 . S
C241 C242 1.349 . S
C241 C243 1.327 . S
C241 H264 0.950 . S
C242 C241 1.349 . S
C242 C254 1.349 . S
C243 C241 1.327 . S
C243 C259 1.429 . S
C243 H265 0.950 . S
C244 H240 0.949 . S
C244 C252 1.574 . S
C244 C260 1.368 . S
H245 C253 0.950 . S
H246 C251 0.950 . S
H247 C252 0.949 . S
H248 C254 0.950 . S
H249 C255 0.950 . S
H250 C256 0.949 . S
C251 H246 0.950 . S
C251 C253 1.327 . S
C251 C257 1.429 . S
C252 C244 1.574 . S
C252 H247 0.949 . S
C252 C258 1.368 . S
C253 C237 1.349 . S
C253 H245 0.950 . S
C253 C251 1.327 . S
C254 C242 1.349 . S
C254 H248 0.950 . S
C254 C255 1.327 . S
C255 H249 0.950 . S
C255 C254 1.327 . S
C255 C259 1.429 . S
C256 C239 1.574 . S
C256 H250 0.949 . S
C256 C260 1.368 . S
C257 C238 1.429 . S
C257 C251 1.429 . S
C257 C258 1.523 . S
C258 C239 1.368 . S
C258 C252 1.368 . S
C258 C257 1.523 . S
C259 C243 1.429 . S
C259 C255 1.429 . S
C259 C260 1.523 . S
C260 C244 1.368 . S
C260 C256 1.368 . S
C260 C259 1.523 . S
H261 C236 0.950 . S
H262 C238 0.950 . S
H263 C239 0.949 . S
H264 C241 0.950 . S
H265 C243 0.950 . S
C266 C267 1.349 . S
C266 C268 1.327 . S
C266 H291 0.950 . S
C267 C266 1.349 . S
C267 C283 1.349 . S
C268 C266 1.327 . S
C268 C287 1.429 . S
C268 H292 0.950 . S
C269 C286 1.574 . S
C269 C288 1.368 . S
C269 H293 0.949 . S
H270 C274 0.949 . S
C271 C272 1.349 . S
C271 C273 1.327 . S
C271 H294 0.950 . S
C272 C271 1.349 . S
C272 C284 1.349 . S
C273 C271 1.327 . S
C273 C289 1.429 . S
C273 H295 0.950 . S
C274 H270 0.949 . S
C274 C282 1.574 . S
C274 C290 1.368 . S
H275 C283 0.950 . S
H276 C281 0.950 . S
H277 C282 0.949 . S
H278 C284 0.950 . S
H279 C285 0.950 . S
H280 C286 0.949 . S
C281 H276 0.950 . S
C281 C283 1.327 . S
C281 C287 1.429 . S
C282 C274 1.574 . S
C282 H277 0.949 . S
C282 C288 1.368 . S
C283 C267 1.349 . S
C283 H275 0.950 . S
C283 C281 1.327 . S
C284 C272 1.349 . S
C284 H278 0.950 . S
C284 C285 1.327 . S
C285 H279 0.950 . S
C285 C284 1.327 . S
C285 C289 1.429 . S
C286 C269 1.574 . S
C286 H280 0.949 . S
C286 C290 1.368 . S
C287 C268 1.429 . S
C287 C281 1.429 . S
C287 C288 1.523 . S
C288 C269 1.368 . S
C288 C282 1.368 . S
C288 C287 1.523 . S
C289 C273 1.429 . S
C289 C285 1.429 . S
C289 C290 1.523 . S
C290 C274 1.368 . S
C290 C286 1.368 . S
C290 C289 1.523 . S
H291 C266 0.950 . S
H292 C268 0.950 . S
H293 C269 0.949 . S
H294 C271 0.950 . S
H295 C273 0.950 . S
C296 C297 1.349 . S
C296 C298 1.327 . S
C296 H321 0.950 . S
C297 C296 1.349 . S
C297 C313 1.349 . S
C298 C296 1.327 . S
C298 C317 1.429 . S
C298 H322 0.950 . S
C299 C316 1.574 . S
C299 C318 1.368 . S
C299 H323 0.949 . S
H300 C304 0.949 . S
C301 C302 1.349 . S
C301 C303 1.327 . S
C301 H324 0.950 . S
C302 C301 1.349 . S
C302 C314 1.349 . S
C303 C301 1.327 . S
C303 C319 1.429 . S
C303 H325 0.950 . S
C304 H300 0.949 . S
C304 C312 1.574 . S
C304 C320 1.368 . S
H305 C313 0.950 . S
H306 C311 0.950 . S
H307 C312 0.949 . S
H308 C314 0.950 . S
H309 C315 0.950 . S
H310 C316 0.949 . S
C311 H306 0.950 . S
C311 C313 1.327 . S
C311 C317 1.429 . S
C312 C304 1.574 . S
C312 H307 0.949 . S
C312 C318 1.368 . S
C313 C297 1.349 . S
C313 H305 0.950 . S
C313 C311 1.327 . S
C314 C302 1.349 . S
C314 H308 0.950 . S
C314 C315 1.327 . S
C315 H309 0.950 . S
C315 C314 1.327 . S
C315 C319 1.429 . S
C316 C299 1.574 . S
C316 H310 0.949 . S
C316 C320 1.368 . S
C317 C298 1.429 . S
C317 C311 1.429 . S
C317 C318 1.523 . S
C318 C299 1.368 . S
C318 C312 1.368 . S
C318 C317 1.523 . S
C319 C303 1.429 . S
C319 C315 1.429 . S
C319 C320 1.523 . S
C320 C304 1.368 . S
C320 C316 1.368 . S
C320 C319 1.523 . S
H321 C296 0.950 . S
H322 C298 0.950 . S
H323 C299 0.949 . S
H324 C301 0.950 . S
H325 C303 0.950 . S
C326 C327 1.349 . S
C326 C328 1.327 . S
C326 H351 0.950 . S
C327 C326 1.349 . S
C327 C343 1.349 . S
C328 C326 1.327 . S
C328 C347 1.429 . S
C328 H352 0.950 . S
C329 C346 1.574 . S
C329 C348 1.368 . S
C329 H353 0.949 . S
H330 C334 0.949 . S
C331 C332 1.349 . S
C331 C333 1.327 . S
C331 H354 0.950 . S
C332 C331 1.349 . S
C332 C344 1.349 . S
C333 C331 1.327 . S
C333 C349 1.429 . S
C333 H355 0.950 . S
C334 H330 0.949 . S
C334 C342 1.574 . S
C334 C350 1.368 . S
H335 C343 0.950 . S
H336 C341 0.950 . S
H337 C342 0.949 . S
H338 C344 0.950 . S
H339 C345 0.950 . S
H340 C346 0.949 . S
C341 H336 0.950 . S
C341 C343 1.327 . S
C341 C347 1.429 . S
C342 C334 1.574 . S
C342 H337 0.949 . S
C342 C348 1.368 . S
C343 C327 1.349 . S
C343 H335 0.950 . S
C343 C341 1.327 . S
C344 C332 1.349 . S
C344 H338 0.950 . S
C344 C345 1.327 . S
C345 H339 0.950 . S
C345 C344 1.327 . S
C345 C349 1.429 . S
C346 C329 1.574 . S
C346 H340 0.949 . S
C346 C350 1.368 . S
C347 C328 1.429 . S
C347 C341 1.429 . S
C347 C348 1.523 . S
C348 C329 1.368 . S
C348 C342 1.368 . S
C348 C347 1.523 . S
C349 C333 1.429 . S
C349 C345 1.429 . S
C349 C350 1.523 . S
C350 C334 1.368 . S
C350 C346 1.368 . S
C350 C349 1.523 . S
H351 C326 0.950 . S
H352 C328 0.950 . S
H353 C329 0.949 . S
H354 C331 0.950 . S
H355 C333 0.950 . S
C356 C357 1.349 . S
C356 C358 1.327 . S
C356 H381 0.950 . S
C357 C356 1.349 . S
C357 C373 1.349 . S
C358 C356 1.327 . S
C358 C377 1.429 . S
C358 H382 0.950 . S
C359 C376 1.574 . S
C359 C378 1.368 . S
C359 H383 0.949 . S
H360 C364 0.949 . S
C361 C362 1.349 . S
C361 C363 1.327 . S
C361 H384 0.950 . S
C362 C361 1.349 . S
C362 C374 1.349 . S
C363 C361 1.327 . S
C363 C379 1.429 . S
C363 H385 0.950 . S
C364 H360 0.949 . S
C364 C372 1.574 . S
C364 C380 1.368 . S
H365 C373 0.950 . S
H366 C371 0.950 . S
H367 C372 0.949 . S
H368 C374 0.950 . S
H369 C375 0.950 . S
H370 C376 0.949 . S
C371 H366 0.950 . S
C371 C373 1.327 . S
C371 C377 1.429 . S
C372 C364 1.574 . S
C372 H367 0.949 . S
C372 C378 1.368 . S
C373 C357 1.349 . S
C373 H365 0.950 . S
C373 C371 1.327 . S
C374 C362 1.349 . S
C374 H368 0.950 . S
C374 C375 1.327 . S
C375 H369 0.950 . S
C375 C374 1.327 . S
C375 C379 1.429 . S
C376 C359 1.574 . S
C376 H370 0.949 . S
C376 C380 1.368 . S
C377 C358 1.429 . S
C377 C371 1.429 . S
C377 C378 1.523 . S
C378 C359 1.368 . S
C378 C372 1.368 . S
C378 C377 1.523 . S
C379 C363 1.429 . S
C379 C375 1.429 . S
C379 C380 1.523 . S
C380 C364 1.368 . S
C380 C376 1.368 . S
C380 C379 1.523 . S
H381 C356 0.950 . S
H382 C358 0.950 . S
H383 C359 0.949 . S
H384 C361 0.950 . S
H385 C363 0.950 . S
C386 C387 1.349 . S
C386 C388 1.327 . S
C386 H411 0.950 . S
C387 C386 1.349 . S
C387 C403 1.349 . S
C388 C386 1.327 . S
C388 C407 1.429 . S
C388 H412 0.950 . S
C389 C406 1.574 . S
C389 C408 1.368 . S
C389 H413 0.949 . S
H390 C394 0.949 . S
C391 C392 1.349 . S
C391 C393 1.327 . S
C391 H414 0.950 . S
C392 C391 1.349 . S
C392 C404 1.349 . S
C393 C391 1.327 . S
C393 C409 1.429 . S
C393 H415 0.950 . S
C394 H390 0.949 . S
C394 C402 1.574 . S
C394 C410 1.368 . S
H395 C403 0.950 . S
H396 C401 0.950 . S
H397 C402 0.949 . S
H398 C404 0.950 . S
H399 C405 0.950 . S
H400 C406 0.949 . S
C401 H396 0.950 . S
C401 C403 1.327 . S
C401 C407 1.429 . S
C402 C394 1.574 . S
C402 H397 0.949 . S
C402 C408 1.368 . S
C403 C387 1.349 . S
C403 H395 0.950 . S
C403 C401 1.327 . S
C404 C392 1.349 . S
C404 H398 0.950 . S
C404 C405 1.327 . S
C405 H399 0.950 . S
C405 C404 1.327 . S
C405 C409 1.429 . S
C406 C389 1.574 . S
C406 H400 0.949 . S
C406 C410 1.368 . S
C407 C388 1.429 . S
C407 C401 1.429 . S
C407 C408 1.523 . S
C408 C389 1.368 . S
C408 C402 1.368 . S
C408 C407 1.523 . S
C409 C393 1.429 . S
C409 C405 1.429 . S
C409 C410 1.523 . S
C410 C394 1.368 . S
C410 C406 1.368 . S
C410 C409 1.523 . S
H411 C386 0.950 . S
H412 C388 0.950 . S
H413 C389 0.949 . S
H414 C391 0.950 . S
H415 C393 0.950 . S
C416 C417 1.349 . S
C416 C418 1.327 . S
C416 H441 0.950 . S
C417 C416 1.349 . S
C417 C433 1.349 . S
C418 C416 1.327 . S
C418 C437 1.429 . S
C418 H442 0.950 . S
C419 C436 1.574 . S
C419 C438 1.368 . S
C419 H443 0.949 . S
H420 C424 0.949 . S
C421 C422 1.349 . S
C421 C423 1.327 . S
C421 H444 0.950 . S
C422 C421 1.349 . S
C422 C434 1.349 . S
C423 C421 1.327 . S
C423 C439 1.429 . S
C423 H445 0.950 . S
C424 H420 0.949 . S
C424 C432 1.574 . S
C424 C440 1.368 . S
H425 C433 0.950 . S
H426 C431 0.950 . S
H427 C432 0.949 . S
H428 C434 0.950 . S
H429 C435 0.950 . S
H430 C436 0.949 . S
C431 H426 0.950 . S
C431 C433 1.327 . S
C431 C437 1.429 . S
C432 C424 1.574 . S
C432 H427 0.949 . S
C432 C438 1.368 . S
C433 C417 1.349 . S
C433 H425 0.950 . S
C433 C431 1.327 . S
C434 C422 1.349 . S
C434 H428 0.950 . S
C434 C435 1.327 . S
C435 H429 0.950 . S
C435 C434 1.327 . S
C435 C439 1.429 . S
C436 C419 1.574 . S
C436 H430 0.949 . S
C436 C440 1.368 . S
C437 C418 1.429 . S
C437 C431 1.429 . S
C437 C438 1.523 . S
C438 C419 1.368 . S
C438 C432 1.368 . S
C438 C437 1.523 . S
C439 C423 1.429 . S
C439 C435 1.429 . S
C439 C440 1.523 . S
C440 C424 1.368 . S
C440 C436 1.368 . S
C440 C439 1.523 . S
H441 C416 0.950 . S
H442 C418 0.950 . S
H443 C419 0.949 . S
H444 C421 0.950 . S
H445 C423 0.950 . S
C446 C447 1.349 . S
C446 C448 1.327 . S
C446 H471 0.950 . S
C447 C446 1.349 . S
C447 C463 1.349 . S
C448 C446 1.327 . S
C448 C467 1.429 . S
C448 H472 0.950 . S
C449 C466 1.574 . S
C449 C468 1.368 . S
C449 H473 0.949 . S
H450 C454 0.949 . S
C451 C452 1.349 . S
C451 C453 1.327 . S
C451 H474 0.950 . S
C452 C451 1.349 . S
C452 C464 1.349 . S
C453 C451 1.327 . S
C453 C469 1.429 . S
C453 H475 0.950 . S
C454 H450 0.949 . S
C454 C462 1.574 . S
C454 C470 1.368 . S
H455 C463 0.950 . S
H456 C461 0.950 . S
H457 C462 0.949 . S
H458 C464 0.950 . S
H459 C465 0.950 . S
H460 C466 0.949 . S
C461 H456 0.950 . S
C461 C463 1.327 . S
C461 C467 1.429 . S
C462 C454 1.574 . S
C462 H457 0.949 . S
C462 C468 1.368 . S
C463 C447 1.349 . S
C463 H455 0.950 . S
C463 C461 1.327 . S
C464 C452 1.349 . S
C464 H458 0.950 . S
C464 C465 1.327 . S
C465 H459 0.950 . S
C465 C464 1.327 . S
C465 C469 1.429 . S
C466 C449 1.574 . S
C466 H460 0.949 . S
C466 C470 1.368 . S
C467 C448 1.429 . S
C467 C461 1.429 . S
C467 C468 1.523 . S
C468 C449 1.368 . S
C468 C462 1.368 . S
C468 C467 1.523 . S
C469 C453 1.429 . S
C469 C465 1.429 . S
C469 C470 1.523 . S
C470 C454 1.368 . S
C470 C466 1.368 . S
C470 C469 1.523 . S
H471 C446 0.950 . S
H472 C448 0.950 . S
H473 C449 0.949 . S
H474 C451 0.950 . S
H475 C453 0.950 . S
C476 C477 1.349 . S
C476 C478 1.327 . S
C476 H501 0.950 . S
C477 C476 1.349 . S
C477 C493 1.349 . S
C478 C476 1.327 . S
C478 C497 1.429 . S
C478 H502 0.950 . S
C479 C496 1.574 . S
C479 C498 1.368 . S
C479 H503 0.949 . S
H480 C484 0.949 . S
C481 C482 1.349 . S
C481 C483 1.327 . S
C481 H504 0.950 . S
C482 C481 1.349 . S
C482 C494 1.349 . S
C483 C481 1.327 . S
C483 C499 1.429 . S
C483 H505 0.950 . S
C484 H480 0.949 . S
C484 C492 1.574 . S
C484 C500 1.368 . S
H485 C493 0.950 . S
H486 C491 0.950 . S
H487 C492 0.949 . S
H488 C494 0.950 . S
H489 C495 0.950 . S
H490 C496 0.949 . S
C491 H486 0.950 . S
C491 C493 1.327 . S
C491 C497 1.429 . S
C492 C484 1.574 . S
C492 H487 0.949 . S
C492 C498 1.368 . S
C493 C477 1.349 . S
C493 H485 0.950 . S
C493 C491 1.327 . S
C494 C482 1.349 . S
C494 H488 0.950 . S
C494 C495 1.327 . S
C495 H489 0.950 . S
C495 C494 1.327 . S
C495 C499 1.429 . S
C496 C479 1.574 . S
C496 H490 0.949 . S
C496 C500 1.368 . S
C497 C478 1.429 . S
C497 C491 1.429 . S
C497 C498 1.523 . S
C498 C479 1.368 . S
C498 C492 1.368 . S
C498 C497 1.523 . S
C499 C483 1.429 . S
C499 C495 1.429 . S
C499 C500 1.523 . S
C500 C484 1.368 . S
C500 C496 1.368 . S
C500 C499 1.523 . S
H501 C476 0.950 . S
H502 C478 0.950 . S
H503 C479 0.949 . S
H504 C481 0.950 . S
H505 C483 0.950 . S
C506 C507 1.349 . S
C506 C508 1.327 . S
C506 H531 0.950 . S
C507 C506 1.349 . S
C507 C523 1.349 . S
C508 C506 1.327 . S
C508 C527 1.429 . S
C508 H532 0.950 . S
C509 C526 1.574 . S
C509 C528 1.368 . S
C509 H533 0.949 . S
H510 C514 0.949 . S
C511 C512 1.349 . S
C511 C513 1.327 . S
C511 H534 0.950 . S
C512 C511 1.349 . S
C512 C524 1.349 . S
C513 C511 1.327 . S
C513 C529 1.429 . S
C513 H535 0.950 . S
C514 H510 0.949 . S
C514 C522 1.574 . S
C514 C530 1.368 . S
H515 C523 0.950 . S
H516 C521 0.950 . S
H517 C522 0.949 . S
H518 C524 0.950 . S
H519 C525 0.950 . S
H520 C526 0.949 . S
C521 H516 0.950 . S
C521 C523 1.327 . S
C521 C527 1.429 . S
C522 C514 1.574 . S
C522 H517 0.949 . S
C522 C528 1.368 . S
C523 C507 1.349 . S
C523 H515 0.950 . S
C523 C521 1.327 . S
C524 C512 1.349 . S
C524 H518 0.950 . S
C524 C525 1.327 . S
C525 H519 0.950 . S
C525 C524 1.327 . S
C525 C529 1.429 . S
C526 C509 1.574 . S
C526 H520 0.949 . S
C526 C530 1.368 . S
C527 C508 1.429 . S
C527 C521 1.429 . S
C527 C528 1.523 . S
C528 C509 1.368 . S
C528 C522 1.368 . S
C528 C527 1.523 . S
C529 C513 1.429 . S
C529 C525 1.429 . S
C529 C530 1.523 . S
C530 C514 1.368 . S
C530 C526 1.368 . S
C530 C529 1.523 . S
H531 C506 0.950 . S
H532 C508 0.950 . S
H533 C509 0.949 . S
H534 C511 0.950 . S
H535 C513 0.950 . S
C536 C537 1.349 . S
C536 C538 1.327 . S
C536 H561 0.950 . S
C537 C536 1.349 . S
C537 C553 1.349 . S
C538 C536 1.327 . S
C538 C557 1.429 . S
C538 H562 0.950 . S
C539 C556 1.574 . S
C539 C558 1.368 1_554 S
C539 H563 0.949 . S
H540 C544 0.949 . S
C541 C542 1.349 . S
C541 C543 1.327 . S
C541 H564 0.950 . S
C542 C541 1.349 . S
C542 C554 1.349 . S
C543 C541 1.327 . S
C543 C559 1.429 . S
C543 H565 0.950 . S
C544 H540 0.949 . S
C544 C552 1.574 . S
C544 C560 1.368 1_556 S
H545 C553 0.950 . S
H546 C551 0.950 1_554 S
H547 C552 0.949 . S
H548 C554 0.950 1_556 S
H549 C555 0.950 . S
H550 C556 0.949 . S
C551 H546 0.950 1_556 S
C551 C553 1.327 . S
C551 C557 1.429 . S
C552 C544 1.574 . S
C552 H547 0.949 . S
C552 C558 1.368 . S
C553 C537 1.349 . S
C553 H545 0.950 . S
C553 C551 1.327 . S
C554 C542 1.349 . S
C554 H548 0.950 1_554 S
C554 C555 1.327 1_554 S
C555 H549 0.950 . S
C555 C554 1.327 1_556 S
C555 C559 1.429 1_556 S
C556 C539 1.574 . S
C556 H550 0.949 . S
C556 C560 1.368 . S
C557 C538 1.429 . S
C557 C551 1.429 . S
C557 C558 1.523 . S
C558 C539 1.368 1_556 S
C558 C552 1.368 . S
C558 C557 1.523 . S
C559 C543 1.429 . S
C559 C555 1.429 1_554 S
C559 C560 1.523 . S
C560 C544 1.368 1_554 S
C560 C556 1.368 . S
C560 C559 1.523 . S
H561 C536 0.950 . S
H562 C538 0.950 . S
H563 C539 0.949 . S
H564 C541 0.950 . S
H565 C543 0.950 . S
C566 C567 1.349 . S
C566 C568 1.327 . S
C566 H591 0.950 . S
C567 C566 1.349 . S
C567 C583 1.349 . S
C568 C566 1.327 . S
C568 C587 1.429 . S
C568 H592 0.950 . S
C569 C586 1.574 . S
C569 C588 1.368 1_554 S
C569 H593 0.949 . S
H570 C574 0.949 1_556 S
C571 C572 1.349 . S
C571 C573 1.327 . S
C571 H594 0.950 . S
C572 C571 1.349 . S
C572 C584 1.349 . S
C573 C571 1.327 . S
C573 C589 1.429 . S
C573 H595 0.950 . S
C574 H570 0.949 1_554 S
C574 C582 1.574 1_554 S
C574 C590 1.368 . S
H575 C583 0.950 . S
H576 C581 0.950 1_554 S
H577 C582 0.949 . S
H578 C584 0.950 . S
H579 C585 0.950 . S
H580 C586 0.949 . S
C581 H576 0.950 1_556 S
C581 C583 1.327 . S
C581 C587 1.429 . S
C582 C574 1.574 1_556 S
C582 H577 0.949 . S
C582 C588 1.368 . S
C583 C567 1.349 . S
C583 H575 0.950 . S
C583 C581 1.327 . S
C584 C572 1.349 . S
C584 H578 0.950 . S
C584 C585 1.327 . S
C585 H579 0.950 . S
C585 C584 1.327 . S
C585 C589 1.429 . S
C586 C569 1.574 . S
C586 H580 0.949 . S
C586 C590 1.368 . S
C587 C568 1.429 . S
C587 C581 1.429 . S
C587 C588 1.523 . S
C588 C569 1.368 1_556 S
C588 C582 1.368 . S
C588 C587 1.523 . S
C589 C573 1.429 . S
C589 C585 1.429 . S
C589 C590 1.523 . S
C590 C574 1.368 . S
C590 C586 1.368 . S
C590 C589 1.523 . S
H591 C566 0.950 . S
H592 C568 0.950 . S
H593 C569 0.949 . S
H594 C571 0.950 . S
H595 C573 0.950 . S
C596 C597 1.349 . S
C596 C598 1.327 . S
C596 H621 0.950 . S
C597 C596 1.349 . S
C597 C613 1.349 . S
C598 C596 1.327 . S
C598 C617 1.429 . S
C598 H622 0.950 . S
C599 C616 1.574 . S
C599 C618 1.368 1_556 S
C599 H623 0.949 . S
H600 C604 0.949 . S
C601 C602 1.349 . S
C601 C603 1.327 . S
C601 H624 0.950 . S
C602 C601 1.349 . S
C602 C614 1.349 . S
C603 C601 1.327 . S
C603 C619 1.429 . S
C603 H625 0.950 . S
C604 H600 0.949 . S
C604 C612 1.574 1_556 S
C604 C620 1.368 . S
H605 C613 0.950 . S
H606 C611 0.950 1_556 S
H607 C612 0.949 . S
H608 C614 0.950 . S
H609 C615 0.950 . S
H610 C616 0.949 . S
C611 H606 0.950 1_554 S
C611 C613 1.327 . S
C611 C617 1.429 . S
C612 C604 1.574 1_554 S
C612 H607 0.949 . S
C612 C618 1.368 . S
C613 C597 1.349 . S
C613 H605 0.950 . S
C613 C611 1.327 . S
C614 C602 1.349 . S
C614 H608 0.950 . S
C614 C615 1.327 . S
C615 H609 0.950 . S
C615 C614 1.327 . S
C615 C619 1.429 . S
C616 C599 1.574 . S
C616 H610 0.949 . S
C616 C620 1.368 . S
C617 C598 1.429 . S
C617 C611 1.429 . S
C617 C618 1.523 . S
C618 C599 1.368 1_554 S
C618 C612 1.368 . S
C618 C617 1.523 . S
C619 C603 1.429 . S
C619 C615 1.429 . S
C619 C620 1.523 . S
C620 C604 1.368 . S
C620 C616 1.368 . S
C620 C619 1.523 . S
H621 C596 0.950 . S
H622 C598 0.950 . S
H623 C599 0.949 . S
H624 C601 0.950 . S
H625 C603 0.950 . S
C626 C627 1.349 . S
C626 C628 1.327 . S
C626 H651 0.950 . S
C627 C626 1.349 . S
C627 C643 1.349 . S
C628 C626 1.327 . S
C628 C647 1.429 . S
C628 H652 0.950 1_556 S
C629 C646 1.574 1_556 S
C629 C648 1.368 . S
C629 H653 0.949 . S
H630 C634 0.949 . S
C631 C632 1.349 . S
C631 C633 1.327 . S
C631 H654 0.950 . S
C632 C631 1.349 . S
C632 C644 1.349 . S
C633 C631 1.327 . S
C633 C649 1.429 . S
C633 H655 0.950 . S
C634 H630 0.949 . S
C634 C642 1.574 . S
C634 C650 1.368 . S
H635 C643 0.950 . S
H636 C641 0.950 . S
H637 C642 0.949 . S
H638 C644 0.950 . S
H639 C645 0.950 . S
H640 C646 0.949 1_556 S
C641 H636 0.950 . S
C641 C643 1.327 . S
C641 C647 1.429 . S
C642 C634 1.574 . S
C642 H637 0.949 . S
C642 C648 1.368 1_554 S
C643 C627 1.349 . S
C643 H635 0.950 . S
C643 C641 1.327 . S
C644 C632 1.349 . S
C644 H638 0.950 . S
C644 C645 1.327 . S
C645 H639 0.950 . S
C645 C644 1.327 . S
C645 C649 1.429 . S
C646 C629 1.574 1_554 S
C646 H640 0.949 1_554 S
C646 C650 1.368 . S
C647 C628 1.429 . S
C647 C641 1.429 . S
C647 C648 1.523 . S
C648 C629 1.368 . S
C648 C642 1.368 1_556 S
C648 C647 1.523 . S
C649 C633 1.429 . S
C649 C645 1.429 . S
C649 C650 1.523 . S
C650 C634 1.368 . S
C650 C646 1.368 . S
C650 C649 1.523 . S
H651 C626 0.950 . S
H652 C628 0.950 1_554 S
H653 C629 0.949 . S
H654 C631 0.950 . S
H655 C633 0.950 . S
C656 C657 1.349 . S
C656 C658 1.327 . S
C656 H681 0.950 . S
C657 C656 1.349 . S
C657 C673 1.349 . S
C658 C656 1.327 . S
C658 C677 1.429 . S
C658 H682 0.950 . S
C659 C676 1.574 . S
C659 C678 1.368 . S
C659 H683 0.949 . S
H660 C664 0.949 . S
C661 C662 1.349 . S
C661 C663 1.327 . S
C661 H684 0.950 . S
C662 C661 1.349 . S
C662 C674 1.349 . S
C663 C661 1.327 . S
C663 C679 1.429 . S
C663 H685 0.950 . S
C664 H660 0.949 . S
C664 C672 1.574 . S
C664 C680 1.368 . S
H665 C673 0.950 . S
H666 C671 0.950 . S
H667 C672 0.949 . S
H668 C674 0.950 . S
H669 C675 0.950 . S
H670 C676 0.949 . S
C671 H666 0.950 . S
C671 C673 1.327 . S
C671 C677 1.429 . S
C672 C664 1.574 . S
C672 H667 0.949 . S
C672 C678 1.368 . S
C673 C657 1.349 . S
C673 H665 0.950 . S
C673 C671 1.327 . S
C674 C662 1.349 . S
C674 H668 0.950 . S
C674 C675 1.327 . S
C675 H669 0.950 . S
C675 C674 1.327 . S
C675 C679 1.429 . S
C676 C659 1.574 . S
C676 H670 0.949 . S
C676 C680 1.368 . S
C677 C658 1.429 . S
C677 C671 1.429 . S
C677 C678 1.523 . S
C678 C659 1.368 . S
C678 C672 1.368 . S
C678 C677 1.523 . S
C679 C663 1.429 . S
C679 C675 1.429 . S
C679 C680 1.523 . S
C680 C664 1.368 . S
C680 C676 1.368 . S
C680 C679 1.523 . S
H681 C656 0.950 . S
H682 C658 0.950 . S
H683 C659 0.949 . S
H684 C661 0.950 . S
H685 C663 0.950 . S
C686 C687 1.349 . S
C686 C688 1.327 . S
C686 H711 0.950 . S
C687 C686 1.349 . S
C687 C703 1.349 . S
C688 C686 1.327 . S
C688 C707 1.429 . S
C688 H712 0.950 . S
C689 C706 1.574 . S
C689 C708 1.368 . S
C689 H713 0.949 . S
H690 C694 0.949 . S
C691 C692 1.349 . S
C691 C693 1.327 . S
C691 H714 0.950 . S
C692 C691 1.349 . S
C692 C704 1.349 . S
C693 C691 1.327 . S
C693 C709 1.429 . S
C693 H715 0.950 . S
C694 H690 0.949 . S
C694 C702 1.574 . S
C694 C710 1.368 . S
H695 C703 0.950 . S
H696 C701 0.950 . S
H697 C702 0.949 . S
H698 C704 0.950 . S
H699 C705 0.950 . S
H700 C706 0.949 . S
C701 H696 0.950 . S
C701 C703 1.327 . S
C701 C707 1.429 . S
C702 C694 1.574 . S
C702 H697 0.949 . S
C702 C708 1.368 . S
C703 C687 1.349 . S
C703 H695 0.950 . S
C703 C701 1.327 . S
C704 C692 1.349 . S
C704 H698 0.950 . S
C704 C705 1.327 . S
C705 H699 0.950 . S
C705 C704 1.327 . S
C705 C709 1.429 . S
C706 C689 1.574 . S
C706 H700 0.949 . S
C706 C710 1.368 . S
C707 C688 1.429 . S
C707 C701 1.429 . S
C707 C708 1.523 . S
C708 C689 1.368 . S
C708 C702 1.368 . S
C708 C707 1.523 . S
C709 C693 1.429 . S
C709 C705 1.429 . S
C709 C710 1.523 . S
C710 C694 1.368 . S
C710 C706 1.368 . S
C710 C709 1.523 . S
H711 C686 0.950 . S
H712 C688 0.950 . S
H713 C689 0.949 . S
H714 C691 0.950 . S
H715 C693 0.950 . S
C716 C717 1.349 . S
C716 C718 1.327 . S
C716 H741 0.950 . S
C717 C716 1.349 . S
C717 C733 1.349 . S
C718 C716 1.327 . S
C718 C737 1.429 . S
C718 H742 0.950 . S
C719 C736 1.574 . S
C719 C738 1.368 . S
C719 H743 0.949 . S
H720 C724 0.949 . S
C721 C722 1.349 . S
C721 C723 1.327 . S
C721 H744 0.950 . S
C722 C721 1.349 . S
C722 C734 1.349 . S
C723 C721 1.327 . S
C723 C739 1.429 . S
C723 H745 0.950 . S
C724 H720 0.949 . S
C724 C732 1.574 . S
C724 C740 1.368 . S
H725 C733 0.950 . S
H726 C731 0.950 . S
H727 C732 0.949 . S
H728 C734 0.950 . S
H729 C735 0.950 . S
H730 C736 0.949 . S
C731 H726 0.950 . S
C731 C733 1.327 . S
C731 C737 1.429 . S
C732 C724 1.574 . S
C732 H727 0.949 . S
C732 C738 1.368 . S
C733 C717 1.349 . S
C733 H725 0.950 . S
C733 C731 1.327 . S
C734 C722 1.349 . S
C734 H728 0.950 . S
C734 C735 1.327 . S
C735 H729 0.950 . S
C735 C734 1.327 . S
C735 C739 1.429 . S
C736 C719 1.574 . S
C736 H730 0.949 . S
C736 C740 1.368 . S
C737 C718 1.429 . S
C737 C731 1.429 . S
C737 C738 1.523 . S
C738 C719 1.368 . S
C738 C732 1.368 . S
C738 C737 1.523 . S
C739 C723 1.429 . S
C739 C735 1.429 . S
C739 C740 1.523 . S
C740 C724 1.368 . S
C740 C736 1.368 . S
C740 C739 1.523 . S
H741 C716 0.950 . S
H742 C718 0.950 . S
H743 C719 0.949 . S
H744 C721 0.950 . S
H745 C723 0.950 . S
C746 C747 1.349 . S
C746 C748 1.327 . S
C746 H771 0.950 . S
C747 C746 1.349 . S
C747 C763 1.349 . S
C748 C746 1.327 . S
C748 C767 1.429 . S
C748 H772 0.950 . S
C749 C766 1.574 . S
C749 C768 1.368 . S
C749 H773 0.949 . S
H750 C754 0.949 . S
C751 C752 1.349 . S
C751 C753 1.327 . S
C751 H774 0.950 . S
C752 C751 1.349 . S
C752 C764 1.349 . S
C753 C751 1.327 . S
C753 C769 1.429 . S
C753 H775 0.950 . S
C754 H750 0.949 . S
C754 C762 1.574 . S
C754 C770 1.368 . S
H755 C763 0.950 . S
H756 C761 0.950 . S
H757 C762 0.949 . S
H758 C764 0.950 . S
H759 C765 0.950 . S
H760 C766 0.949 . S
C761 H756 0.950 . S
C761 C763 1.327 . S
C761 C767 1.429 . S
C762 C754 1.574 . S
C762 H757 0.949 . S
C762 C768 1.368 . S
C763 C747 1.349 . S
C763 H755 0.950 . S
C763 C761 1.327 . S
C764 C752 1.349 . S
C764 H758 0.950 . S
C764 C765 1.327 . S
C765 H759 0.950 . S
C765 C764 1.327 . S
C765 C769 1.429 . S
C766 C749 1.574 . S
C766 H760 0.949 . S
C766 C770 1.368 . S
C767 C748 1.429 . S
C767 C761 1.429 . S
C767 C768 1.523 . S
C768 C749 1.368 . S
C768 C762 1.368 . S
C768 C767 1.523 . S
C769 C753 1.429 . S
C769 C765 1.429 . S
C769 C770 1.523 . S
C770 C754 1.368 . S
C770 C766 1.368 . S
C770 C769 1.523 . S
H771 C746 0.950 . S
H772 C748 0.950 . S
H773 C749 0.949 . S
H774 C751 0.950 . S
H775 C753 0.950 . S
C776 C777 1.349 . S
C776 C778 1.327 . S
C776 H801 0.950 . S
C777 C776 1.349 . S
C777 C793 1.349 . S
C778 C776 1.327 . S
C778 C797 1.429 . S
C778 H802 0.950 . S
C779 C796 1.574 1_545 S
C779 C798 1.368 . S
C779 H803 0.949 . S
H780 C784 0.949 . S
C781 C782 1.349 . S
C781 C783 1.327 . S
C781 H804 0.950 . S
C782 C781 1.349 . S
C782 C794 1.349 . S
C783 C781 1.327 . S
C783 C799 1.429 . S
C783 H805 0.950 . S
C784 H780 0.949 . S
C784 C792 1.574 1_565 S
C784 C800 1.368 . S
H785 C793 0.950 . S
H786 C791 0.950 . S
H787 C792 0.949 . S
H788 C794 0.950 . S
H789 C795 0.950 . S
H790 C796 0.949 . S
C791 H786 0.950 . S
C791 C793 1.327 . S
C791 C797 1.429 . S
C792 C784 1.574 1_545 S
C792 H787 0.949 . S
C792 C798 1.368 . S
C793 C777 1.349 . S
C793 H785 0.950 . S
C793 C791 1.327 . S
C794 C782 1.349 . S
C794 H788 0.950 . S
C794 C795 1.327 . S
C795 H789 0.950 . S
C795 C794 1.327 . S
C795 C799 1.429 . S
C796 C779 1.574 1_565 S
C796 H790 0.949 . S
C796 C800 1.368 . S
C797 C778 1.429 . S
C797 C791 1.429 . S
C797 C798 1.523 . S
C798 C779 1.368 . S
C798 C792 1.368 . S
C798 C797 1.523 . S
C799 C783 1.429 . S
C799 C795 1.429 . S
C799 C800 1.523 . S
C800 C784 1.368 . S
C800 C796 1.368 . S
C800 C799 1.523 . S
H801 C776 0.950 . S
H802 C778 0.950 . S
H803 C779 0.949 . S
H804 C781 0.950 . S
H805 C783 0.950 . S
C806 C807 1.349 . S
C806 C808 1.327 . S
C806 H831 0.950 . S
C807 C806 1.349 . S
C807 C823 1.349 . S
C808 C806 1.327 . S
C808 C827 1.429 . S
C808 H832 0.950 . S
C809 C826 1.574 1_655 S
C809 C828 1.368 . S
C809 H833 0.949 . S
H810 C814 0.949 . S
C811 C812 1.349 . S
C811 C813 1.327 . S
C811 H834 0.950 . S
C812 C811 1.349 . S
C812 C824 1.349 . S
C813 C811 1.327 . S
C813 C829 1.429 . S
C813 H835 0.950 . S
C814 H810 0.949 . S
C814 C822 1.574 1_455 S
C814 C830 1.368 . S
H815 C823 0.950 . S
H816 C821 0.950 . S
H817 C822 0.949 . S
H818 C824 0.950 . S
H819 C825 0.950 . S
H820 C826 0.949 . S
C821 H816 0.950 . S
C821 C823 1.327 . S
C821 C827 1.429 . S
C822 C814 1.574 1_655 S
C822 H817 0.949 . S
C822 C828 1.368 . S
C823 C807 1.349 . S
C823 H815 0.950 . S
C823 C821 1.327 . S
C824 C812 1.349 . S
C824 H818 0.950 . S
C824 C825 1.327 . S
C825 H819 0.950 . S
C825 C824 1.327 . S
C825 C829 1.429 . S
C826 C809 1.574 1_455 S
C826 H820 0.949 . S
C826 C830 1.368 . S
C827 C808 1.429 . S
C827 C821 1.429 . S
C827 C828 1.523 . S
C828 C809 1.368 . S
C828 C822 1.368 . S
C828 C827 1.523 . S
C829 C813 1.429 . S
C829 C825 1.429 . S
C829 C830 1.523 . S
C830 C814 1.368 . S
C830 C826 1.368 . S
C830 C829 1.523 . S
H831 C806 0.950 . S
H832 C808 0.950 . S
H833 C809 0.949 . S
H834 C811 0.950 . S
H835 C813 0.950 . S
C836 C837 1.349 . S
C836 C838 1.327 . S
C836 H861 0.950 . S
C837 C836 1.349 . S
C837 C853 1.349 . S
C838 C836 1.327 . S
C838 C857 1.429 . S
C838 H862 0.950 . S
C839 C856 1.574 1_565 S
C839 C858 1.368 . S
C839 H863 0.949 . S
H840 C844 0.949 . S
C841 C842 1.349 . S
C841 C843 1.327 . S
C841 H864 0.950 . S
C842 C841 1.349 . S
C842 C854 1.349 . S
C843 C841 1.327 . S
C843 C859 1.429 . S
C843 H865 0.950 . S
C844 H840 0.949 . S
C844 C852 1.574 1_545 S
C844 C860 1.368 . S
H845 C853 0.950 . S
H846 C851 0.950 . S
H847 C852 0.949 . S
H848 C854 0.950 . S
H849 C855 0.950 . S
H850 C856 0.949 . S
C851 H846 0.950 . S
C851 C853 1.327 . S
C851 C857 1.429 . S
C852 C844 1.574 1_565 S
C852 H847 0.949 . S
C852 C858 1.368 . S
C853 C837 1.349 . S
C853 H845 0.950 . S
C853 C851 1.327 . S
C854 C842 1.349 . S
C854 H848 0.950 . S
C854 C855 1.327 . S
C855 H849 0.950 . S
C855 C854 1.327 . S
C855 C859 1.429 . S
C856 C839 1.574 1_545 S
C856 H850 0.949 . S
C856 C860 1.368 . S
C857 C838 1.429 . S
C857 C851 1.429 . S
C857 C858 1.523 . S
C858 C839 1.368 . S
C858 C852 1.368 . S
C858 C857 1.523 . S
C859 C843 1.429 . S
C859 C855 1.429 . S
C859 C860 1.523 . S
C860 C844 1.368 . S
C860 C856 1.368 . S
C860 C859 1.523 . S
H861 C836 0.950 . S
H862 C838 0.950 . S
H863 C839 0.949 . S
H864 C841 0.950 . S
H865 C843 0.950 . S
C866 C867 1.349 . S
C866 C868 1.327 . S
C866 H891 0.950 . S
C867 C866 1.349 . S
C867 C883 1.349 . S
C868 C866 1.327 . S
C868 C887 1.429 . S
C868 H892 0.950 . S
C869 C886 1.574 1_655 S
C869 C888 1.368 . S
C869 H893 0.949 . S
H870 C874 0.949 . S
C871 C872 1.349 . S
C871 C873 1.327 . S
C871 H894 0.950 . S
C872 C871 1.349 . S
C872 C884 1.349 . S
C873 C871 1.327 . S
C873 C889 1.429 . S
C873 H895 0.950 . S
C874 H870 0.949 . S
C874 C882 1.574 1_455 S
C874 C890 1.368 . S
H875 C883 0.950 . S
H876 C881 0.950 . S
H877 C882 0.949 . S
H878 C884 0.950 . S
H879 C885 0.950 . S
H880 C886 0.949 . S
C881 H876 0.950 . S
C881 C883 1.327 . S
C881 C887 1.429 . S
C882 C874 1.574 1_655 S
C882 H877 0.949 . S
C882 C888 1.368 . S
C883 C867 1.349 . S
C883 H875 0.950 . S
C883 C881 1.327 . S
C884 C872 1.349 . S
C884 H878 0.950 . S
C884 C885 1.327 . S
C885 H879 0.950 . S
C885 C884 1.327 . S
C885 C889 1.429 . S
C886 C869 1.574 1_455 S
C886 H880 0.949 . S
C886 C890 1.368 . S
C887 C868 1.429 . S
C887 C881 1.429 . S
C887 C888 1.523 . S
C888 C869 1.368 . S
C888 C882 1.368 . S
C888 C887 1.523 . S
C889 C873 1.429 . S
C889 C885 1.429 . S
C889 C890 1.523 . S
C890 C874 1.368 . S
C890 C886 1.368 . S
C890 C889 1.523 . S
H891 C866 0.950 . S
H892 C868 0.950 . S
H893 C869 0.949 . S
H894 C871 0.950 . S
H895 C873 0.950 . S
C177 C116 1.025 . S
C182 C7 1.025 . S
C207 C27 1.025 . S
C212 C141 1.025 . S
C237 C160 1.025 . S
C242 C51 1.025 . S
C267 C71 1.024 . S
C272 C97 1.024 . S
C297 C96 1.371 . S
C302 C6 1.380 1_556 S
C327 C31 1.380 1_554 S
C332 C114 1.371 . S
C357 C50 1.380 1_556 S
C362 C140 1.371 . S
C387 C158 1.371 . S
C392 C75 1.380 1_554 S
C417 C8 1.371 . S
C422 C93 1.380 . S
C447 C117 1.380 . S
C452 C26 1.371 . S
C477 C52 1.371 . S
C482 C137 1.380 . S
C507 C70 1.371 . S
C512 C161 1.380 . S
C537 C30 0.894 . S
C542 C5 0.889 . S
C567 C29 0.889 . S
C572 C48 0.894 . S
C597 C49 0.889 . S
C602 C74 0.894 . S
C627 C73 0.889 . S
C632 C4 0.894 . S
C657 C94 0.889 . S
C662 C162 0.894 . S
C687 C92 0.894 . S
C692 C119 0.889 . S
C717 C138 0.889 . S
C722 C118 0.894 . S
C747 C163 0.889 . S
C752 C136 0.894 . S
C777 C9 1.415 . S
C782 C53 1.415 . S
C807 C72 1.415 . S
C812 C28 1.415 . S
C837 C139 1.415 . S
C842 C95 1.415 . S
C867 C159 1.415 . S
C872 C115 1.415 . S
