# Generated by pormake.
# Topology smd, (6)-cn, num edge types: 1
# Building blocks:
#     Node 0, Type 0, BuildingBlock: BETFEN_clean_sbu_0, # of connection points: 6
#     Node 1, Type 0, BuildingBlock: BETFEN_clean_sbu_0, # of connection points: 6
#     Node 2, Type 0, BuildingBlock: BETFEN_clean_sbu_0, # of connection points: 6
#     Node 3, Type 0, BuildingBlock: BETFEN_clean_sbu_0, # of connection points: 6
#     Node 4, Type 0, BuildingBlock: BETFEN_clean_sbu_0, # of connection points: 6
#     Node 5, Type 0, BuildingBlock: BETFEN_clean_sbu_0, # of connection points: 6
#     Node 6, Type 0, BuildingBlock: BETFEN_clean_sbu_0, # of connection points: 6
#     Node 7, Type 0, BuildingBlock: BETFEN_clean_sbu_0, # of connection points: 6
#     Node 8, Type 0, BuildingBlock: BETFEN_clean_sbu_0, # of connection points: 6
#     Node 9, Type 0, BuildingBlock: BETFEN_clean_sbu_0, # of connection points: 6
#     Node 10, Type 0, BuildingBlock: BETFEN_clean_sbu_0, # of connection points: 6
#     Node 11, Type 0, BuildingBlock: BETFEN_clean_sbu_0, # of connection points: 6
#     Node 12, Type 0, BuildingBlock: BETFEN_clean_sbu_0, # of connection points: 6
#     Node 13, Type 0, BuildingBlock: BETFEN_clean_sbu_0, # of connection points: 6
#     Node 14, Type 0, BuildingBlock: BETFEN_clean_sbu_0, # of connection points: 6
#     Node 15, Type 0, BuildingBlock: BETFEN_clean_sbu_0, # of connection points: 6
#     Node 16, Type 0, BuildingBlock: BETFEN_clean_sbu_0, # of connection points: 6
#     Node 17, Type 0, BuildingBlock: BETFEN_clean_sbu_0, # of connection points: 6
#     Edge 18, Type (0, 0), None
#     Edge 19, Type (0, 0), None
#     Edge 20, Type (0, 0), None
#     Edge 21, Type (0, 0), None
#     Edge 22, Type (0, 0), None
#     Edge 23, Type (0, 0), None
#     Edge 24, Type (0, 0), None
#     Edge 25, Type (0, 0), None
#     Edge 26, Type (0, 0), None
#     Edge 27, Type (0, 0), None
#     Edge 28, Type (0, 0), None
#     Edge 29, Type (0, 0), None
#     Edge 30, Type (0, 0), None
#     Edge 31, Type (0, 0), None
#     Edge 32, Type (0, 0), None
#     Edge 33, Type (0, 0), None
#     Edge 34, Type (0, 0), None
#     Edge 35, Type (0, 0), None
#     Edge 36, Type (0, 0), None
#     Edge 37, Type (0, 0), None
#     Edge 38, Type (0, 0), None
#     Edge 39, Type (0, 0), None
#     Edge 40, Type (0, 0), None
#     Edge 41, Type (0, 0), None
#     Edge 42, Type (0, 0), None
#     Edge 43, Type (0, 0), None
#     Edge 44, Type (0, 0), None
#     Edge 45, Type (0, 0), None
#     Edge 46, Type (0, 0), None
#     Edge 47, Type (0, 0), None
#     Edge 48, Type (0, 0), None
#     Edge 49, Type (0, 0), None
#     Edge 50, Type (0, 0), None
#     Edge 51, Type (0, 0), None
#     Edge 52, Type (0, 0), None
#     Edge 53, Type (0, 0), None
#     Edge 54, Type (0, 0), None
#     Edge 55, Type (0, 0), None
#     Edge 56, Type (0, 0), None
#     Edge 57, Type (0, 0), None
#     Edge 58, Type (0, 0), None
#     Edge 59, Type (0, 0), None
#     Edge 60, Type (0, 0), None
#     Edge 61, Type (0, 0), None
#     Edge 62, Type (0, 0), None
#     Edge 63, Type (0, 0), None
#     Edge 64, Type (0, 0), None
#     Edge 65, Type (0, 0), None
#     Edge 66, Type (0, 0), None
#     Edge 67, Type (0, 0), None
#     Edge 68, Type (0, 0), None
#     Edge 69, Type (0, 0), None
#     Edge 70, Type (0, 0), None
#     Edge 71, Type (0, 0), None
# Relax obj value: 0.402
# Max RMSD: 0.455
# Mean RMSD: 0.425
data_MOF--net-smd--node1-BETFEN_clean_sbu_0--edge1-none
_symmetry_space_group_name_H-M    P1
_symmetry_Int_Tables_number       1
_symmetry_cell_setting            triclinic
loop_
_symmetry_equiv_pos_as_xyz
'x, y, z'
_cell_length_a     29.378394
_cell_length_b     29.911832
_cell_length_c     15.439993
_cell_angle_alpha  92.997692
_cell_angle_beta   92.795033
_cell_angle_gamma 119.78618
loop_
_atom_site_label
_atom_site_type_symbol
_atom_site_fract_x
_atom_site_fract_y
_atom_site_fract_z
_atom_type_partial_charge
Pr0 Pr 0.0109 0.24288 0.61731 0.0
Pr1 Pr 0.96673 0.2198 0.50639 0.0
C2 C 0.05903 0.27064 0.78236 0.0
C3 C 0.03632 0.25098 0.86539 0.0
C4 C 0.06795 0.26246 0.94364 0.0
C5 C 0.04515 0.24361 1.02109 0.0
C6 C -0.00978 0.2109 1.02138 0.0
C7 C 0.95944 0.19656 0.94137 0.0
C8 C 0.98209 0.21693 0.8653 0.0
C9 C 0.05615 0.19142 0.52792 0.0
C10 C 0.91358 0.12444 0.60673 0.0
C11 C 0.90639 0.19127 0.35551 0.0
C12 C 0.92246 0.18502 0.26845 0.0
C13 C 0.89383 0.18449 0.19323 0.0
C14 C 0.91397 0.18844 0.11231 0.0
C15 C 0.96462 0.19538 0.10474 0.0
C16 C -0.00843 0.19162 0.17951 0.0
C17 C 0.9704 0.18596 0.26032 0.0
C18 C 0.93117 0.25524 0.69461 0.0
C19 C 0.05681 0.31616 0.44318 0.0
O20 O 0.04236 0.29756 0.7421 0.0
O21 O 0.06009 0.23667 0.72856 0.0
O22 O 0.05164 0.22876 0.50345 0.0
O23 O 0.02631 0.17322 0.59086 0.0
O24 O 0.93 0.13268 0.52998 0.0
O25 O 0.93265 0.1666 0.65888 0.0
O26 O 0.90311 0.15812 0.41038 0.0
O27 O 0.93096 0.23872 0.39127 0.0
O28 O 0.94433 0.2634 0.61606 0.0
O29 O 0.944 0.2658 0.61358 0.0
O30 O 0.06035 0.31955 0.53075 0.0
O31 O 0.02168 0.27172 0.40778 0.0
H32 H 0.11027 0.28581 0.94565 0.0
H33 H 0.07073 0.25583 1.08073 0.0
H34 H 0.91749 0.16976 0.93681 0.0
H35 H 0.9568 0.20555 0.80624 0.0
H36 H 0.8574 0.18442 0.19685 0.0
H37 H 0.89085 0.18958 1.05686 0.0
H38 H 0.02957 0.19432 0.17641 0.0
H39 H -0.00725 0.1848 0.31717 0.0
Pr40 Pr 0.76831 0.74563 0.55862 0.0
Pr41 Pr 0.74078 0.76929 0.66929 0.0
C42 C 0.77904 0.71046 0.40029 0.0
C43 C 0.77488 0.72978 0.31552 0.0
C44 C 0.78097 0.70808 0.23779 0.0
C45 C 0.77934 0.72799 0.15863 0.0
C46 C 0.77137 0.77047 0.15512 0.0
C47 C 0.76638 0.79312 0.23365 0.0
C48 C 0.76794 0.77283 0.31254 0.0
C49 C 0.86113 0.78933 0.66563 0.0
C50 C 0.79749 0.86859 0.57862 0.0
C51 C 0.70885 0.7969 0.81104 0.0
C52 C 0.73135 0.79959 0.90066 0.0
C53 C 0.70991 0.80858 0.97394 0.0
C54 C 0.72666 0.80405 1.05729 0.0
C55 C 0.76347 0.78752 1.06937 0.0
C56 C 0.78832 0.78262 0.99665 0.0
C57 C 0.77286 0.78931 0.91337 0.0
C58 C 0.67833 0.76124 0.47621 0.0
C59 C 0.73087 0.66948 0.73724 0.0
O60 O 0.7359 0.68668 0.43948 0.0
O61 O 0.81852 0.74352 0.45363 0.0
O62 O 0.81578 0.75905 0.68962 0.0
O63 O 0.85779 0.80564 0.59065 0.0
O64 O 0.79862 0.85639 0.65751 0.0
O65 O 0.78021 0.82927 0.51944 0.0
O66 O 0.74051 0.83101 0.76077 0.0
O67 O 0.68277 0.75022 0.77168 0.0
O68 O 0.68466 0.73613 0.53735 0.0
O69 O 0.68328 0.73402 0.53719 0.0
O70 O 0.74707 0.67292 0.65603 0.0
O71 O 0.72176 0.70548 0.76322 0.0
H72 H 0.78846 0.67663 0.23755 0.0
H73 H 0.78329 0.70919 0.10002 0.0
H74 H 0.76128 0.82657 0.23462 0.0
H75 H 0.76395 0.79107 0.37124 0.0
H76 H 0.68016 0.81924 0.96768 0.0
H77 H 0.70794 0.81035 0.11146 0.0
H78 H 0.81881 0.77242 1.00354 0.0
H79 H 0.79208 0.78448 0.85854 0.0
Pr80 Pr 0.21781 -0.00371 0.66987 0.0
Pr81 Pr 0.25512 0.03806 0.5826 0.0
C82 C 0.19242 0.94629 0.81614 0.0
C83 C 0.20583 0.96277 0.91015 0.0
C84 C 0.16584 0.95529 0.96391 0.0
C85 C 0.17803 0.97339 1.052 0.0
C86 C 0.23067 0.00062 0.0872 0.0
C87 C 0.27063 0.00779 1.03349 0.0
C88 C 0.25822 0.98808 0.94628 0.0
C89 C 0.12565 0.94642 0.56887 0.0
C90 C 0.18926 0.08454 0.6322 0.0
C91 C 0.29244 0.08963 0.44275 0.0
C92 C 0.27316 0.06837 0.35179 0.0
C93 C 0.29713 0.09768 0.28338 0.0
C94 C 0.28386 0.07513 0.19781 0.0
C95 C 0.24438 0.02339 0.17868 0.0
C96 C 0.21754 -0.00529 0.24689 0.0
C97 C 0.23185 0.01712 0.33285 0.0
C98 C 0.31936 0.0863 0.75372 0.0
C99 C 0.25578 0.9502 0.48697 0.0
O100 O 0.22942 0.94923 0.76944 0.0
O101 O 0.1636 0.96198 0.77685 0.0
O102 O 0.17058 0.95418 0.54662 0.0
O103 O 0.13287 0.97869 0.63452 0.0
O104 O 0.19197 0.06174 0.56108 0.0
O105 O 0.20751 0.07248 0.70102 0.0
O106 O 0.25953 0.09577 0.48901 0.0
O107 O 0.31575 0.06836 0.484 0.0
O108 O 0.30429 0.04203 0.71724 0.0
O109 O 0.30267 0.108 0.70005 0.0
O110 O 0.22128 0.93635 0.54857 0.0
O111 O 0.2899 -0.00144 0.49631 0.0
H112 H 0.12515 0.9362 0.93736 0.0
H113 H 0.14651 0.9677 0.09176 0.0
H114 H 0.31147 0.02802 1.0594 0.0
H115 H 0.28963 -0.00694 0.90695 0.0
H116 H 0.32463 0.13823 0.29595 0.0
H117 H 0.30199 0.09901 0.14563 0.0
H118 H 0.18634 0.95483 0.23401 0.0
H119 H 0.21102 -0.00575 0.38458 0.0
Pr120 Pr 0.02421 0.7958 0.66455 0.0
Pr121 Pr 0.97726 0.77534 0.55502 0.0
C122 C 0.08043 0.81627 0.81875 0.0
C123 C 0.06272 0.82372 0.90435 0.0
C124 C 0.09113 0.82846 0.9833 0.0
C125 C 0.06893 0.82443 1.06223 0.0
C126 C 0.01769 0.81637 1.06519 0.0
C127 C -0.00956 0.81544 0.98699 0.0
C128 C 0.01292 0.81945 0.90764 0.0
C129 C 0.06091 0.77044 0.46815 0.0
C130 C 0.93294 0.69226 0.7113 0.0
C131 C 0.9275 0.7657 0.39673 0.0
C132 C 0.94925 0.77943 0.31119 0.0
C133 C 0.91785 0.75622 0.23296 0.0
C134 C 0.93914 0.76975 0.15264 0.0
C135 C -0.0073 0.80663 0.14922 0.0
C136 C 0.02345 0.83128 0.22792 0.0
C137 C 0.00207 0.81769 0.30745 0.0
C138 C 0.90867 0.78688 0.69613 0.0
C139 C 0.0797 0.89375 0.57667 0.0
O140 O 0.09053 0.85163 0.76447 0.0
O141 O 0.05212 0.76957 0.78038 0.0
O142 O 0.0441 0.75643 0.54352 0.0
O143 O 0.04397 0.75404 0.5452 0.0
O144 O 0.92818 0.6926 0.62456 0.0
O145 O 0.96767 0.73556 0.75119 0.0
O146 O 0.92748 0.72667 0.43086 0.0
O147 O 0.94333 0.80496 0.45381 0.0
O148 O 0.95259 0.81271 0.66182 0.0
O149 O 0.95333 0.8145 0.66277 0.0
O150 O 0.06396 0.88305 0.6531 0.0
O151 O 0.05679 0.85394 0.51827 0.0
H152 H 0.12999 0.83393 0.98613 0.0
H153 H 0.09148 0.82537 0.1206 0.0
H154 H 0.95143 0.81074 0.98679 0.0
H155 H -0.00949 0.81743 0.84841 0.0
H156 H 0.8777 0.72593 0.23396 0.0
H157 H 0.91418 0.74966 0.09353 0.0
H158 H 0.0644 0.86097 0.22842 0.0
H159 H 0.02724 0.83729 0.366 0.0
Pr160 Pr 0.22005 0.20289 0.4869 0.0
Pr161 Pr 0.20551 0.24911 0.61324 0.0
C162 C 0.21967 0.15481 0.33472 0.0
C163 C 0.20075 0.16028 0.24712 0.0
C164 C 0.21976 0.14928 0.17245 0.0
C165 C 0.21063 0.16381 0.09171 0.0
C166 C 0.18274 0.19042 0.08449 0.0
C167 C 0.16004 0.19811 0.15756 0.0
C168 C 0.16854 0.18263 0.23818 0.0
C169 C 0.30411 0.24301 0.6332 0.0
C170 C 0.2375 0.30561 0.41365 0.0
C171 C 0.20495 0.29256 0.76836 0.0
C172 C 0.19627 0.26821 0.85203 0.0
C173 C 0.14824 0.22408 0.86614 0.0
C174 C 0.14273 0.19928 0.94293 0.0
C175 C 0.18561 0.21741 1.00562 0.0
C176 C 0.23347 0.26083 0.9912 0.0
C177 C 0.2389 0.28569 0.91511 0.0
C178 C 0.1061 0.18978 0.53208 0.0
C179 C 0.17698 0.12697 0.6232 0.0
O180 O 0.18365 0.13234 0.38892 0.0
O181 O 0.26173 0.19595 0.37155 0.0
O182 O 0.28637 0.26719 0.5929 0.0
O183 O 0.28285 0.19733 0.59125 0.0
O184 O 0.2308 0.31277 0.49868 0.0
O185 O 0.2349 0.26267 0.38868 0.0
O186 O 0.24843 0.30226 0.73504 0.0
O187 O 0.16537 0.27521 0.70946 0.0
O188 O 0.14685 0.2186 0.49306 0.0
O189 O 0.11991 0.1815 0.60767 0.0
O190 O 0.16101 0.12856 0.54434 0.0
O191 O 0.2026 0.17239 0.66947 0.0
H192 H 0.24503 0.1332 0.17728 0.0
H193 H 0.22888 0.15786 1.0363 0.0
H194 H 0.13843 0.21869 0.15346 0.0
H195 H 0.15238 0.19079 0.29443 0.0
H196 H 0.11522 0.20791 0.81735 0.0
H197 H 0.10558 0.16532 0.95231 0.0
H198 H 0.26681 0.27558 1.0393 0.0
H199 H 0.27689 0.31834 0.90506 0.0
Pr200 Pr 0.7442 0.97799 0.61046 0.0
Pr201 Pr 0.77806 0.01193 0.52836 0.0
C202 C 0.71941 0.93525 0.75986 0.0
C203 C 0.74682 0.95837 0.84636 0.0
C204 C 0.74211 0.9263 0.91093 0.0
C205 C 0.75781 0.94598 0.9974 0.0
C206 C 0.78142 -0.00075 1.01878 0.0
C207 C 0.79342 0.03273 0.95269 0.0
C208 C 0.77682 0.01214 0.86622 0.0
C209 C 0.67298 0.92626 0.44625 0.0
C210 C 0.73594 0.06044 0.70154 0.0
C211 C 0.80762 0.06095 0.38228 0.0
C212 C 0.80062 0.0476 0.28814 0.0
C213 C 0.84481 0.05756 0.24343 0.0
C214 C 0.83914 0.04363 0.1544 0.0
C215 C 0.78903 0.01868 0.10998 0.0
C216 C 0.74495 0.00916 0.15409 0.0
C217 C 0.75067 0.02389 0.24264 0.0
C218 C 0.8707 0.07169 0.62281 0.0
C219 C 0.80024 0.91959 0.56585 0.0
O220 O 0.74517 0.92337 0.70558 0.0
O221 O 0.69418 0.95638 0.72436 0.0
O222 O 0.69251 0.97238 0.47697 0.0
O223 O 0.68814 0.90448 0.50235 0.0
O224 O 0.77348 0.07334 0.64585 0.0
O225 O 0.70121 0.01225 0.68903 0.0
O226 O 0.76746 0.05594 0.42206 0.0
O227 O 0.83501 0.04514 0.42567 0.0
O228 O 0.8256 0.06374 0.64281 0.0
O229 O 0.86473 0.03472 0.56704 0.0
O230 O 0.8041 0.9484 0.63396 0.0
O231 O 0.78085 0.93127 0.49836 0.0
H232 H 0.72437 0.88599 0.89329 0.0
H233 H 0.74999 0.91972 1.04767 0.0
H234 H 0.81344 0.07425 0.96817 0.0
H235 H 0.78665 0.03806 0.81575 0.0
H236 H 0.88363 0.07541 0.27773 0.0
H237 H 0.87343 0.05096 0.12088 0.0
H238 H 0.70615 0.9905 0.11979 0.0
H239 H 0.71617 0.01653 0.27533 0.0
Pr240 Pr 0.62782 0.54168 0.86395 0.0
Pr241 Pr 0.67588 0.55593 0.97495 0.0
C242 C 0.57814 0.53261 0.70481 0.0
C243 C 0.60028 0.53543 0.61931 0.0
C244 C 0.57051 0.52637 0.53987 0.0
C245 C 0.59249 0.52703 0.46041 0.0
C246 C 0.64478 0.53684 0.4589 0.0
C247 C 0.67348 0.54436 0.53898 0.0
C248 C 0.65151 0.54363 0.6173 0.0
C249 C 0.57191 0.44706 0.94186 0.0
C250 C 0.72062 0.50942 0.85644 0.0
C251 C 0.73467 0.57976 0.12792 0.0
C252 C 0.71602 0.55982 0.2135 0.0
C253 C 0.74708 0.58449 0.29168 0.0
C254 C 0.72446 0.57585 0.37131 0.0
C255 C 0.6702 0.54116 0.37522 0.0
C256 C 0.64078 0.51161 0.29797 0.0
C257 C 0.66375 0.52023 0.21847 0.0
C258 C 0.72362 0.62766 0.79919 0.0
C259 C 0.59681 0.57764 1.05749 0.0
O260 O 0.59973 0.57491 0.75682 0.0
O261 O 0.57159 0.49356 0.74627 0.0
O262 O 0.58682 0.4921 0.97457 0.0
O263 O 0.59683 0.45212 0.87282 0.0
O264 O 0.69734 0.49437 0.92663 0.0
O265 O 0.70232 0.53477 0.81488 0.0
O266 O 0.73277 0.54652 1.0672 0.0
O267 O 0.71696 0.60883 0.09789 0.0
O268 O 0.70274 0.62197 0.87292 0.0
O269 O 0.70256 0.62415 0.8753 0.0
O270 O 0.6014 0.58844 0.97383 0.0
O271 O 0.61677 0.54952 1.076 0.0
H272 H 0.53027 0.51825 0.53912 0.0
H273 H 0.56872 0.52065 0.40032 0.0
H274 H 0.71298 0.55022 0.54176 0.0
H275 H 0.67472 0.54886 0.67661 0.0
H276 H 0.78852 0.61216 0.29164 0.0
H277 H 0.74936 0.59852 0.42905 0.0
H278 H 0.59977 0.48231 0.29849 0.0
H279 H 0.63993 0.49697 0.16038 0.0
Pr280 Pr 0.44244 0.08636 0.89159 0.0
Pr281 Pr 0.43923 0.13044 1.00914 0.0
C282 C 0.43655 0.04091 0.7329 0.0
C283 C 0.44217 0.06655 0.65083 0.0
C284 C 0.46222 0.05436 0.57891 0.0
C285 C 0.46844 0.07999 0.50279 0.0
C286 C 0.4566 0.12029 0.49776 0.0
C287 C 0.43847 0.13358 0.57223 0.0
C288 C 0.43032 0.10637 0.64604 0.0
C289 C 0.54761 0.14247 0.95734 0.0
C290 C 0.47591 0.2107 0.87786 0.0
C291 C 0.43001 0.17585 0.15674 0.0
C292 C 0.44991 0.17686 0.24721 0.0
C293 C 0.42726 0.18763 0.3166 0.0
C294 C 0.4308 0.17119 0.39858 0.0
C295 C 0.45978 0.14579 0.41449 0.0
C296 C 0.4893 0.14267 0.34725 0.0
C297 C 0.48408 0.15768 0.2645 0.0
C298 C 0.35458 0.11338 0.83969 0.0
C299 C 0.41394 0.02812 0.08684 0.0
O300 O 0.39502 0.03081 0.7731 0.0
O301 O 0.4785 0.06016 0.7868 0.0
O302 O 0.50961 0.11251 0.99969 0.0
O303 O 0.52911 0.153 0.88869 0.0
O304 O 0.48727 0.21189 0.96023 0.0
O305 O 0.45549 0.16512 0.83439 0.0
O306 O 0.46496 0.20173 0.10252 0.0
O307 O 0.39393 0.13002 0.12262 0.0
O308 O 0.36658 0.09101 0.89924 0.0
O309 O 0.3653 0.0891 0.89979 0.0
O310 O 0.40825 0.01897 0.99937 0.0
O311 O 0.43451 0.07593 0.11455 0.0
H312 H 0.47209 0.02427 0.58093 0.0
H313 H 0.48135 0.06684 0.44769 0.0
H314 H 0.43015 0.16494 0.57488 0.0
H315 H 0.41463 0.11679 0.69959 0.0
H316 H 0.40331 0.20519 0.3057 0.0
H317 H 0.40783 0.17597 0.44682 0.0
H318 H 0.51515 0.12698 0.35668 0.0
H319 H 0.50473 0.15177 0.21295 0.0
Pr320 Pr 0.90097 0.35724 0.86265 0.0
Pr321 Pr 0.88715 0.32517 0.94799 0.0
C322 C 0.91943 0.39885 0.70823 0.0
C323 C 0.90822 0.37667 0.61749 0.0
C324 C 0.93602 0.40778 0.55331 0.0
C325 C 0.92476 0.38835 0.46629 0.0
C326 C 0.88627 0.33669 0.44244 0.0
C327 C 0.85699 0.30551 0.50636 0.0
C328 C 0.86756 0.32561 0.59344 0.0
C329 C 0.87376 0.42432 0.95378 0.0
C330 C 0.7822 0.2644 0.86584 0.0
C331 C 0.86676 0.26646 1.08121 0.0
C332 C 0.86999 0.28023 0.17556 0.0
C333 C 0.82533 0.27292 0.21653 0.0
C334 C 0.82993 0.28964 0.3045 0.0
C335 C 0.87949 0.31526 0.35167 0.0
C336 C 0.92379 0.32187 0.31117 0.0
C337 C 0.91904 0.30387 0.22465 0.0
C338 C 0.91373 0.28689 0.75018 0.0
C339 C -0.01167 0.40129 1.04165 0.0
O340 O 0.95585 0.39655 0.75636 0.0
O341 O 0.87784 0.38735 0.74855 0.0
O342 O 0.9079 0.41232 0.97659 0.0
O343 O 0.84427 0.39151 0.88929 0.0
O344 O 0.79779 0.29909 0.92988 0.0
O345 O 0.82216 0.27193 0.82297 0.0
O346 O 0.8295 0.26703 1.0322 0.0
O347 O 0.91166 0.28663 1.04628 0.0
O348 O 0.91854 0.29157 0.83423 0.0
O349 O 0.92006 0.2903 0.83678 0.0
O350 O -0.01281 0.39992 0.95481 0.0
O351 O 0.94265 0.37506 1.06801 0.0
H352 H 0.96708 0.44689 0.57094 0.0
H353 H 0.94654 0.4135 0.41749 0.0
H354 H 0.82685 0.26557 0.48926 0.0
H355 H 0.8442 0.3012 0.64185 0.0
H356 H 0.78712 0.25535 0.18032 0.0
H357 H 0.79522 0.28418 0.33474 0.0
H358 H 0.96214 0.34026 0.34705 0.0
H359 H 0.95419 0.30931 0.19599 0.0
Pr360 Pr 0.69162 0.11662 0.96998 0.0
Pr361 Pr 0.64074 0.09201 0.85444 0.0
C362 C 0.75246 0.13715 0.11848 0.0
C363 C 0.73733 0.14424 0.20663 0.0
C364 C 0.76336 0.14076 0.28212 0.0
C365 C 0.74353 0.13914 0.36321 0.0
C366 C 0.69509 0.13732 0.37022 0.0
C367 C 0.67089 0.14455 0.29557 0.0
C368 C 0.69251 0.14922 0.21524 0.0
C369 C 0.73733 0.09444 0.78263 0.0
C370 C 0.6022 0.02262 1.03742 0.0
C371 C 0.59394 0.06384 0.68922 0.0
C372 C 0.61862 0.08466 0.60744 0.0
C373 C 0.58904 0.07086 0.52656 0.0
C374 C 0.61338 0.08958 0.45016 0.0
C375 C 0.66819 0.12311 0.45266 0.0
C376 C 0.69733 0.13905 0.53436 0.0
C377 C 0.67279 0.12017 0.61028 0.0
C378 C 0.59779 0.14212 0.95041 0.0
C379 C 0.73669 0.21269 0.87664 0.0
O380 O 0.7595 0.17249 1.06574 0.0
O381 O 0.72439 0.09039 1.07994 0.0
O382 O 0.70927 0.07569 0.84781 0.0
O383 O 0.70838 0.07341 0.84858 0.0
O384 O 0.59774 0.01701 0.9493 0.0
O385 O 0.63537 0.06835 1.06951 0.0
O386 O 0.61046 0.03698 0.7305 0.0
O387 O 0.58983 0.09628 0.74265 0.0
O388 O 0.60616 0.10713 0.97582 0.0
O389 O 0.62231 0.15904 0.88157 0.0
O390 O 0.72159 0.2027 0.9537 0.0
O391 O 0.71764 0.17187 0.82074 0.0
H392 H 0.79767 0.13687 0.27879 0.0
H393 H 0.76472 0.13623 0.4197 0.0
H394 H 0.63465 0.14553 0.29872 0.0
H395 H 0.67262 0.15423 0.15889 0.0
H396 H 0.5473 0.04471 0.5211 0.0
H397 H 0.58934 0.07594 0.38873 0.0
H398 H 0.73934 0.16585 0.53988 0.0
H399 H 0.69654 0.13322 0.67122 0.0
Pr400 Pr 0.8869 0.59007 0.95429 0.0
Pr401 Pr 0.90513 0.55891 0.85056 0.0
C402 C 0.89022 0.64399 0.09892 0.0
C403 C 0.8854 0.62549 0.18654 0.0
C404 C 0.92563 0.65419 0.253 0.0
C405 C 0.92443 0.63435 0.33322 0.0
C406 C 0.88363 0.58512 0.34757 0.0
C407 C 0.84468 0.55522 0.28041 0.0
C408 C 0.84577 0.57512 0.20021 0.0
C409 C 0.90327 0.64699 0.76639 0.0
C410 C 0.98027 0.59082 1.04098 0.0
C411 C 0.91574 0.53098 0.6857 0.0
C412 C 0.89976 0.53801 0.5976 0.0
C413 C 0.91232 0.51844 0.52383 0.0
C414 C 0.90474 0.53178 0.44124 0.0
C415 C 0.88377 0.56441 0.43156 0.0
C416 C 0.86635 0.57996 0.50382 0.0
C417 C 0.8733 0.56579 0.58613 0.0
C418 C 0.88999 0.4797 0.94909 0.0
C419 C 0.77861 0.53195 0.86838 0.0
O420 O 0.84795 0.62066 1.04379 0.0
O421 O 0.93318 0.65212 1.06444 0.0
O422 O 0.92426 0.64316 0.83916 0.0
O423 O 0.92665 0.64484 0.84047 0.0
O424 O 0.98522 0.59647 0.9558 0.0
O425 O 0.93321 0.57425 1.06156 0.0
O426 O 0.95177 0.57257 0.73193 0.0
O427 O 0.87774 0.50133 0.73127 0.0
O428 O 0.859 0.49849 0.94394 0.0
O429 O 0.93311 0.50754 0.91298 0.0
O430 O 0.80035 0.55859 0.94095 0.0
O431 O 0.81016 0.52721 0.81463 0.0
H432 H 0.95898 0.69116 0.24196 0.0
H433 H 0.95593 0.65694 0.38363 0.0
H434 H 0.81375 0.51648 0.28982 0.0
H435 H 0.81634 0.55048 0.14837 0.0
H436 H 0.92885 0.49371 0.52976 0.0
H437 H 0.91715 0.51833 0.38553 0.0
H438 H 0.84846 0.60385 0.4968 0.0
H439 H 0.85857 0.57701 0.64063 0.0
Pr440 Pr 0.3994 0.29307 0.89296 0.0
Pr441 Pr 0.43154 0.33996 0.83384 0.0
C442 C 0.36655 0.24008 1.03344 0.0
C443 C 0.38235 0.26115 0.12651 0.0
C444 C 0.34497 0.25915 0.1817 0.0
C445 C 0.35978 0.27921 0.26892 0.0
C446 C 0.41255 0.30238 0.30274 0.0
C447 C 0.45067 0.30789 0.24627 0.0
C448 C 0.4358 0.28778 0.15909 0.0
C449 C 0.33395 0.25913 0.72533 0.0
C450 C 0.39152 0.37875 1.00792 0.0
C451 C 0.4701 0.35637 0.67392 0.0
C452 C 0.45488 0.34281 0.57898 0.0
C453 C 0.48258 0.37879 0.51937 0.0
C454 C 0.46883 0.36615 0.42951 0.0
C455 C 0.4271 0.31707 0.39768 0.0
C456 C 0.40085 0.28046 0.45715 0.0
C457 C 0.41556 0.29282 0.54645 0.0
C458 C 0.51511 0.40928 0.93317 0.0
C459 C 0.45947 0.24727 0.84824 0.0
O460 O 0.40322 0.23983 0.98931 0.0
O461 O 0.3377 0.2545 0.98883 0.0
O462 O 0.34488 0.29822 0.77781 0.0
O463 O 0.35815 0.23712 0.75937 0.0
O464 O 0.41499 0.39692 0.936 0.0
O465 O 0.37193 0.32945 1.00591 0.0
O466 O 0.45741 0.38708 0.71557 0.0
O467 O 0.46479 0.31903 0.71948 0.0
O468 O 0.49475 0.35977 0.93326 0.0
O469 O 0.48561 0.42298 0.88921 0.0
O470 O 0.41078 0.22881 0.82342 0.0
O471 O 0.48017 0.29567 0.87924 0.0
H472 H 0.3045 0.24302 0.15705 0.0
H473 H 0.3301 0.277 0.31004 0.0
H474 H 0.49177 0.32611 0.27024 0.0
H475 H 0.46633 0.29278 0.11753 0.0
H476 H 0.51493 0.41671 0.54246 0.0
H477 H 0.49049 0.3948 0.38502 0.0
H478 H 0.37005 0.24163 0.43433 0.0
H479 H 0.39714 0.2628 0.58983 0.0
Pr480 Pr 0.34586 0.91409 0.32506 0.0
Pr481 Pr 0.29831 0.89081 0.2184 0.0
C482 C 0.39282 0.92715 0.48843 0.0
C483 C 0.36842 0.91221 0.57278 0.0
C484 C 0.39892 0.927 0.65289 0.0
C485 C 0.37562 0.91064 0.73103 0.0
C486 C 0.32077 0.87836 0.73135 0.0
C487 C 0.2904 0.86222 0.65066 0.0
C488 C 0.31387 0.87912 0.57316 0.0
C489 C 0.41024 0.89255 0.18701 0.0
C490 C 0.24723 0.79476 0.3076 0.0
C491 C 0.23969 0.87095 1.0672 0.0
C492 C 0.25373 0.86066 0.9798 0.0
C493 C 0.22713 0.86254 0.9037 0.0
C494 C 0.24626 0.8629 0.82249 0.0
C495 C 0.29507 0.86567 0.81535 0.0
C496 C 0.32043 0.86056 0.89096 0.0
C497 C 0.29933 0.85696 0.97183 0.0
C498 C 0.25412 0.91526 0.40706 0.0
C499 C 0.38974 0.98625 0.15163 0.0
O500 O 0.39082 0.96432 0.45091 0.0
O501 O 0.3811 0.88853 0.43228 0.0
O502 O 0.36793 0.86998 0.22664 0.0
O503 O 0.36726 0.86795 0.22607 0.0
O504 O 0.26211 0.80432 0.23071 0.0
O505 O 0.26758 0.83581 0.36319 0.0
O506 O 0.22857 0.83595 0.12276 0.0
O507 O 0.27118 0.91772 0.10317 0.0
O508 O 0.27975 0.93296 0.33893 0.0
O509 O 0.28044 0.93506 0.33791 0.0
O510 O 0.39208 -0.00776 0.23923 0.0
O511 O 0.35663 0.94025 0.1203 0.0
H512 H 0.4407 0.95219 0.65643 0.0
H513 H 0.40065 0.92493 0.79142 0.0
H514 H 0.24825 0.83641 0.64685 0.0
H515 H 0.28895 0.8658 0.51349 0.0
H516 H 0.19273 0.86616 0.90621 0.0
H517 H 0.22413 0.86449 0.766 0.0
H518 H 0.35712 0.86045 0.88818 0.0
H519 H 0.32031 0.85409 1.0289 0.0
Pr520 Pr 0.11924 0.43524 0.21342 0.0
Pr521 Pr 0.1042 0.45498 0.30803 0.0
C522 C 0.13509 0.4057 1.05434 0.0
C523 C 0.12549 0.41963 0.96813 0.0
C524 C 0.12729 0.39257 0.89364 0.0
C525 C 0.12126 0.40696 0.81149 0.0
C526 C 0.11077 0.44744 0.80234 0.0
C527 C 0.11081 0.4762 0.87699 0.0
C528 C 0.11905 0.46287 0.95945 0.0
C529 C 0.21998 0.47686 0.29492 0.0
C530 C 0.14332 0.55423 0.23655 0.0
C531 C 0.06446 0.47419 0.44836 0.0
C532 C 0.07395 0.46958 0.54166 0.0
C533 C 0.04793 0.42071 0.57412 0.0
C534 C 0.05888 0.41448 0.65951 0.0
C535 C 0.09677 0.45668 0.71474 0.0
C536 C 0.12217 0.506 0.68403 0.0
C537 C 0.11121 0.51231 0.59761 0.0
C538 C 0.03644 0.42802 0.10623 0.0
C539 C 0.08454 0.3601 0.38458 0.0
O540 O 0.09456 0.37557 0.09515 0.0
O541 O 0.17069 0.44434 0.10491 0.0
O542 O 0.17778 0.44084 0.3198 0.0
O543 O 0.20783 0.50097 0.23956 0.0
O544 O 0.15966 0.54323 0.30633 0.0
O545 O 0.11566 0.51342 0.1822 0.0
O546 O 0.10296 0.51119 0.41133 0.0
O547 O 0.04066 0.43055 0.39936 0.0
O548 O 0.03635 0.41984 0.18737 0.0
O549 O 0.03394 0.41821 0.18969 0.0
O550 O 0.07585 0.35674 0.29794 0.0
O551 O 0.11135 0.40703 0.41665 0.0
H552 H 0.13434 0.36092 0.8991 0.0
H553 H 0.12437 0.38617 0.75465 0.0
H554 H 0.10361 0.50816 0.8716 0.0
H555 H 0.12032 0.48633 1.01621 0.0
H556 H 0.01929 0.38668 0.53327 0.0
H557 H 0.03794 0.37627 0.68216 0.0
H558 H 0.15165 0.53914 0.72574 0.0
H559 H 0.13254 0.55031 0.57423 0.0
Pr560 Pr 0.53917 0.64618 0.30775 0.0
Pr561 Pr 0.5753 0.68802 0.22208 0.0
C562 C 0.50763 0.59368 0.45075 0.0
C563 C 0.51746 0.61192 0.54322 0.0
C564 C 0.48381 0.58179 0.60339 0.0
C565 C 0.4915 0.60031 0.6907 0.0
C566 C 0.53299 0.65019 0.71892 0.0
C567 C 0.56556 0.68111 0.65711 0.0
C568 C 0.5573 0.66221 0.57014 0.0
C569 C 0.45096 0.59148 0.19675 0.0
C570 C 0.51465 0.73873 0.27803 0.0
C571 C 0.60057 0.73373 1.07502 0.0
C572 C 0.57615 0.71069 0.98653 0.0
C573 C 0.58011 0.74249 0.92188 0.0
C574 C 0.56378 0.72296 0.83543 0.0
C575 C 0.54288 0.66999 0.81198 0.0
C576 C 0.53371 0.6368 0.87853 0.0
C577 C 0.54903 0.65708 0.96535 0.0
C578 C 0.64426 0.73622 0.38866 0.0
C579 C 0.58949 0.6086 0.13269 0.0
O580 O 0.54799 0.59914 0.41108 0.0
O581 O 0.47967 0.60832 0.40606 0.0
O582 O 0.49748 0.60161 0.18248 0.0
O583 O 0.45397 0.6243 0.25825 0.0
O584 O 0.51251 0.71359 0.20641 0.0
O585 O 0.53444 0.72551 0.34337 0.0
O586 O 0.57114 0.74138 0.1276 0.0
O587 O 0.62785 0.71507 0.11193 0.0
O588 O 0.62553 0.6907 0.35513 0.0
O589 O 0.62917 0.75921 0.33482 0.0
O590 O 0.55344 0.59091 0.19174 0.0
O591 O 0.61935 0.65775 0.14167 0.0
H592 H 0.45076 0.54477 0.58243 0.0
H593 H 0.46421 0.57596 0.73524 0.0
H594 H 0.59748 0.71999 0.67519 0.0
H595 H 0.58097 0.68717 0.5231 0.0
H596 H 0.59699 0.78257 0.93909 0.0
H597 H 0.56868 0.74964 0.78715 0.0
H598 H 0.51646 0.59549 0.86387 0.0
H599 H 0.54032 0.63089 1.01522 0.0
Pr600 Pr 0.35267 0.43609 0.28412 0.0
Pr601 Pr 0.30576 0.42142 0.17522 0.0
C602 C 0.40879 0.44399 0.43182 0.0
C603 C 0.39338 0.45085 0.51997 0.0
C604 C 0.41658 0.44366 0.59535 0.0
C605 C 0.39749 0.44474 0.67672 0.0
C606 C 0.35382 0.45163 0.68437 0.0
C607 C 0.33289 0.46238 0.60976 0.0
C608 C 0.35335 0.46332 0.52922 0.0
C609 C 0.38912 0.41196 0.08719 0.0
C610 C 0.25842 0.34769 0.34961 0.0
C611 C 0.25672 0.40187 1.01206 0.0
C612 C 0.2811 0.41818 0.92837 0.0
C613 C 0.25037 0.40347 0.84876 0.0
C614 C 0.27373 0.41681 0.76991 0.0
C615 C 0.32884 0.44469 0.76868 0.0
C616 C 0.35959 0.46222 0.84893 0.0
C617 C 0.33589 0.44975 0.9275 0.0
C618 C 0.26734 0.47254 0.28134 0.0
C619 C 0.40833 0.53737 0.20415 0.0
O620 O 0.42285 0.48279 0.38332 0.0
O621 O 0.37671 0.39932 0.38858 0.0
O622 O 0.36555 0.39409 0.15668 0.0
O623 O 0.36468 0.39149 0.15776 0.0
O624 O 0.25967 0.34256 0.26246 0.0
O625 O 0.2892 0.3942 0.38055 0.0
O626 O 0.26434 0.36837 1.05124 0.0
O627 O 0.26333 0.43918 1.06698 0.0
O628 O 0.27115 0.43382 0.29795 0.0
O629 O 0.29355 0.49193 0.21513 0.0
O630 O 0.39275 0.52439 0.28 0.0
O631 O 0.38655 0.49889 0.14332 0.0
H632 H 0.44987 0.4381 0.59155 0.0
H633 H 0.4158 0.43874 0.73378 0.0
H634 H 0.30069 0.4701 0.61358 0.0
H635 H 0.33753 0.47362 0.47397 0.0
H636 H 0.20838 0.37949 0.84656 0.0
H637 H 0.24856 0.40254 0.70963 0.0
H638 H 0.40208 0.4853 0.85113 0.0
H639 H 0.3607 0.46448 0.9875 0.0
Pr640 Pr 0.56361 0.88379 0.17554 0.0
Pr641 Pr 0.54669 0.91224 0.28494 0.0
C642 C 0.5955 0.85922 1.03097 0.0
C643 C 0.57536 0.85772 0.94032 0.0
C644 C 0.60592 0.86119 0.87194 0.0
C645 C 0.59048 0.86509 0.78755 0.0
C646 C 0.54591 0.86986 0.77019 0.0
C647 C 0.51346 0.86409 0.83778 0.0
C648 C 0.52739 0.85659 0.92174 0.0
C649 C 0.63729 0.89876 0.3611 0.0
C650 C 0.57896 0.98026 0.10051 0.0
C651 C 0.53901 0.95082 0.44211 0.0
C652 C 0.53899 0.92926 0.52571 0.0
C653 C 0.52411 0.94554 0.59991 0.0
C654 C 0.52327 0.9242 0.67877 0.0
C655 C 0.53724 0.88572 0.6842 0.0
C656 C 0.54944 0.86745 0.6081 0.0
C657 C 0.5504 0.88915 0.53001 0.0
C658 C 0.4503 0.87601 0.1915 0.0
C659 C 0.51324 0.78809 0.27073 0.0
O660 O 0.56292 0.82401 1.07879 0.0
O661 O 0.62133 0.90534 1.07228 0.0
O662 O 0.62906 0.92146 0.29812 0.0
O663 O 0.63046 0.9236 0.2974 0.0
O664 O 0.58633 0.98647 0.18829 0.0
O665 O 0.55623 0.93295 1.07065 0.0
O666 O 0.58274 0.97042 0.40445 0.0
O667 O 0.49866 0.92129 0.38781 0.0
O668 O 0.49486 0.90403 0.16407 0.0
O669 O 0.45553 0.85465 0.25935 0.0
O670 O 0.50443 0.79828 0.1936 0.0
O671 O 0.53696 0.82937 0.3263 0.0
H672 H 0.64125 0.85965 0.88348 0.0
H673 H 0.61495 0.86666 0.73655 0.0
H674 H 0.47784 0.86601 0.82605 0.0
H675 H 0.50163 0.85181 0.97257 0.0
H676 H 0.51409 0.97542 0.59712 0.0
H677 H 0.51406 0.93955 0.73613 0.0
H678 H 0.55924 0.83703 0.60909 0.0
H679 H 0.56039 0.87468 0.47314 0.0
Pr680 Pr 0.08236 0.64963 0.31958 0.0
Pr681 Pr 0.10568 0.68993 0.22156 0.0
C682 C 0.04637 0.58731 0.44822 0.0
C683 C 0.06921 0.60081 0.53932 0.0
C684 C 0.04347 0.56948 0.60511 0.0
C685 C 0.05982 0.58752 0.69272 0.0
C686 C 0.10165 0.63801 0.71579 0.0
C687 C 0.13051 0.66756 0.64957 0.0
C688 C 0.11451 0.64902 0.56221 0.0
C689 C 0.02446 0.60759 0.11224 0.0
C690 C 0.07077 0.73659 0.40271 0.0
C691 C 0.12424 0.73094 1.06554 0.0
C692 C 0.11853 0.7066 0.97663 0.0
C693 C 0.12494 0.73482 0.90455 0.0
C694 C 0.121 0.71303 0.82062 0.0
C695 C 0.11077 0.66199 0.8064 0.0
C696 C 0.10606 0.63384 0.87889 0.0
C697 C 0.11065 0.65626 0.96325 0.0
C698 C 0.20227 0.74266 0.31713 0.0
C699 C 0.13758 0.60066 0.24151 0.0
O700 O 0.07579 0.58296 0.39129 0.0
O701 O 0.02557 0.61478 0.4228 0.0
O702 O 0.02205 0.62122 0.19182 0.0
O703 O 0.01941 0.62079 0.1934 0.0
O704 O 0.08191 0.74456 0.31937 0.0
O705 O 0.06848 0.6956 0.42777 0.0
O706 O 0.08161 0.71976 0.10353 0.0
O707 O 0.15957 0.73023 0.11784 0.0
O708 O 0.15882 0.73524 0.34323 0.0
O709 O 0.19241 0.70973 0.2513 0.0
O710 O 0.14487 0.62443 0.31699 0.0
O711 O 0.11113 0.61187 0.18451 0.0
H712 H 0.01003 0.53176 0.58914 0.0
H713 H 0.03748 0.56314 0.74198 0.0
H714 H 0.16411 0.70597 0.66507 0.0
H715 H 0.13595 0.67358 0.51241 0.0
H716 H 0.13351 0.77392 0.9124 0.0
H717 H 0.12476 0.73602 0.76666 0.0
H718 H 0.09913 0.59471 0.87051 0.0
H719 H 0.10834 0.63428 1.01786 0.0
loop_
_geom_bond_atom_site_label_1
_geom_bond_atom_site_label_2
_geom_bond_distance
_geom_bond_site_symmetry_2
_ccdc_geom_bond_type
Pr0 C2 2.880 . S
Pr0 O20 2.562 . S
Pr0 O21 2.490 . S
Pr0 O22 2.695 . S
Pr0 O23 2.512 . S
Pr0 O25 2.437 1_455 S
Pr0 O28 2.436 1_455 S
Pr0 O30 2.438 . S
Pr1 C11 2.880 . S
Pr1 O22 2.436 1_655 S
Pr1 O24 2.438 . S
Pr1 O26 2.562 1_655 S
Pr1 O27 2.490 . S
Pr1 O28 2.695 . S
Pr1 O29 2.512 . S
Pr1 O31 2.437 1_655 S
C2 Pr0 2.880 . S
C2 C3 1.491 . S
C2 O20 1.254 . S
C2 O21 1.225 . S
C3 C2 1.491 . S
C3 C4 1.392 . S
C3 C8 1.355 1_455 S
C4 C3 1.392 . S
C4 C5 1.368 . S
C4 H32 0.929 . S
C5 C4 1.368 . S
C5 C6 1.386 . S
C5 H33 0.929 . S
C6 C5 1.386 . S
C6 C7 1.373 1_455 S
C7 C6 1.373 1_655 S
C7 C8 1.409 . S
C7 H34 0.931 . S
C8 C3 1.355 1_655 S
C8 C7 1.409 . S
C8 H35 0.931 . S
C9 O22 1.270 . S
C9 O23 1.248 . S
C10 O24 1.267 . S
C10 O25 1.278 . S
C11 Pr1 2.880 . S
C11 C12 1.491 . S
C11 O26 1.254 1_655 S
C11 O27 1.225 . S
C12 C11 1.491 . S
C12 C13 1.392 . S
C12 C17 1.356 1_655 S
C13 C12 1.392 . S
C13 C14 1.368 . S
C13 H36 0.929 . S
C14 C13 1.368 . S
C14 C15 1.386 . S
C14 H37 0.929 . S
C15 C14 1.386 . S
C15 C16 1.373 1_655 S
C16 C15 1.373 1_455 S
C16 C17 1.409 . S
C16 H38 0.931 . S
C17 C12 1.356 1_455 S
C17 C16 1.409 . S
C17 H39 0.930 . S
C18 O28 1.270 . S
C18 O29 1.248 . S
C19 O30 1.267 . S
C19 O31 1.278 . S
O20 Pr0 2.562 . S
O20 C2 1.254 . S
O21 Pr0 2.490 . S
O21 C2 1.225 . S
O22 Pr0 2.695 . S
O22 Pr1 2.436 1_455 S
O22 C9 1.270 . S
O23 Pr0 2.512 . S
O23 C9 1.248 . S
O24 Pr1 2.438 . S
O24 C10 1.267 . S
O25 Pr0 2.437 1_655 S
O25 C10 1.278 . S
O26 Pr1 2.562 1_455 S
O26 C11 1.254 1_455 S
O27 Pr1 2.490 . S
O27 C11 1.225 . S
O28 Pr0 2.436 1_655 S
O28 Pr1 2.695 . S
O28 C18 1.270 . S
O29 Pr1 2.512 . S
O29 C18 1.248 . S
O30 Pr0 2.438 . S
O30 C19 1.267 . S
O31 Pr1 2.437 1_455 S
O31 C19 1.278 . S
H32 C4 0.929 . S
H33 C5 0.929 . S
H34 C7 0.931 . S
H35 C8 0.931 . S
H36 C13 0.929 . S
H37 C14 0.929 . S
H38 C16 0.931 . S
H39 C17 0.930 . S
Pr40 C42 2.880 . S
Pr40 O60 2.562 . S
Pr40 O61 2.490 . S
Pr40 O62 2.695 . S
Pr40 O63 2.512 . S
Pr40 O65 2.437 . S
Pr40 O68 2.436 . S
Pr40 O70 2.438 . S
Pr41 C51 2.880 . S
Pr41 O62 2.436 . S
Pr41 O64 2.438 . S
Pr41 O66 2.562 . S
Pr41 O67 2.490 . S
Pr41 O68 2.695 . S
Pr41 O69 2.512 . S
Pr41 O71 2.437 . S
C42 Pr40 2.880 . S
C42 C43 1.491 . S
C42 O60 1.254 . S
C42 O61 1.225 . S
C43 C42 1.491 . S
C43 C44 1.392 . S
C43 C48 1.356 . S
C44 C43 1.392 . S
C44 C45 1.368 . S
C44 H72 0.929 . S
C45 C44 1.368 . S
C45 C46 1.386 . S
C45 H73 0.929 . S
C46 C45 1.386 . S
C46 C47 1.373 . S
C47 C46 1.373 . S
C47 C48 1.409 . S
C47 H74 0.931 . S
C48 C43 1.356 . S
C48 C47 1.409 . S
C48 H75 0.930 . S
C49 O62 1.270 . S
C49 O63 1.248 . S
C50 O64 1.267 . S
C50 O65 1.278 . S
C51 Pr41 2.880 . S
C51 C52 1.491 . S
C51 O66 1.254 . S
C51 O67 1.225 . S
C52 C51 1.491 . S
C52 C53 1.392 . S
C52 C57 1.356 . S
C53 C52 1.392 . S
C53 C54 1.368 . S
C53 H76 0.929 . S
C54 C53 1.368 . S
C54 C55 1.386 . S
C54 H77 0.929 . S
C55 C54 1.386 . S
C55 C56 1.373 . S
C56 C55 1.373 . S
C56 C57 1.409 . S
C56 H78 0.931 . S
C57 C52 1.356 . S
C57 C56 1.409 . S
C57 H79 0.930 . S
C58 O68 1.270 . S
C58 O69 1.248 . S
C59 O70 1.267 . S
C59 O71 1.278 . S
O60 Pr40 2.562 . S
O60 C42 1.254 . S
O61 Pr40 2.490 . S
O61 C42 1.225 . S
O62 Pr40 2.695 . S
O62 Pr41 2.436 . S
O62 C49 1.270 . S
O63 Pr40 2.512 . S
O63 C49 1.248 . S
O64 Pr41 2.438 . S
O64 C50 1.267 . S
O65 Pr40 2.437 . S
O65 C50 1.278 . S
O66 Pr41 2.562 . S
O66 C51 1.254 . S
O67 Pr41 2.490 . S
O67 C51 1.225 . S
O68 Pr40 2.436 . S
O68 Pr41 2.695 . S
O68 C58 1.270 . S
O69 Pr41 2.512 . S
O69 C58 1.248 . S
O70 Pr40 2.438 . S
O70 C59 1.267 . S
O71 Pr41 2.437 . S
O71 C59 1.278 . S
H72 C44 0.929 . S
H73 C45 0.929 . S
H74 C47 0.931 . S
H75 C48 0.930 . S
H76 C53 0.929 . S
H77 C54 0.929 . S
H78 C56 0.931 . S
H79 C57 0.930 . S
Pr80 C82 2.880 . S
Pr80 O100 2.562 1_565 S
Pr80 O101 2.490 . S
Pr80 O102 2.695 . S
Pr80 O103 2.512 . S
Pr80 O105 2.437 1_565 S
Pr80 O108 2.436 1_565 S
Pr80 O110 2.438 . S
Pr81 C91 2.880 . S
Pr81 O102 2.436 1_545 S
Pr81 O104 2.438 . S
Pr81 O106 2.562 1_545 S
Pr81 O107 2.490 . S
Pr81 O108 2.695 . S
Pr81 O109 2.512 . S
Pr81 O111 2.437 1_545 S
C82 Pr80 2.880 . S
C82 C83 1.491 . S
C82 O100 1.254 1_565 S
C82 O101 1.225 . S
C83 C82 1.491 . S
C83 C84 1.392 . S
C83 C88 1.356 1_565 S
C84 C83 1.392 . S
C84 C85 1.368 . S
C84 H112 0.929 . S
C85 C84 1.368 . S
C85 C86 1.386 1_565 S
C85 H113 0.929 . S
C86 C85 1.386 1_545 S
C86 C87 1.373 . S
C87 C86 1.373 . S
C87 C88 1.409 . S
C87 H114 0.931 . S
C88 C83 1.356 1_545 S
C88 C87 1.409 . S
C88 H115 0.930 . S
C89 O102 1.270 . S
C89 O103 1.248 . S
C90 O104 1.267 . S
C90 O105 1.278 . S
C91 Pr81 2.880 . S
C91 C92 1.491 . S
C91 O106 1.254 1_545 S
C91 O107 1.225 . S
C92 C91 1.491 . S
C92 C93 1.392 . S
C92 C97 1.356 1_545 S
C93 C92 1.392 . S
C93 C94 1.368 . S
C93 H116 0.929 . S
C94 C93 1.368 . S
C94 C95 1.386 . S
C94 H117 0.929 . S
C95 C94 1.386 . S
C95 C96 1.373 1_545 S
C96 C95 1.373 1_565 S
C96 C97 1.409 . S
C96 H118 0.931 . S
C97 C92 1.356 1_565 S
C97 C96 1.409 . S
C97 H119 0.930 . S
C98 O108 1.270 . S
C98 O109 1.248 . S
C99 O110 1.267 . S
C99 O111 1.278 . S
O100 Pr80 2.562 1_545 S
O100 C82 1.254 1_545 S
O101 Pr80 2.490 . S
O101 C82 1.225 . S
O102 Pr80 2.695 . S
O102 Pr81 2.436 1_565 S
O102 C89 1.270 . S
O103 Pr80 2.512 . S
O103 C89 1.248 . S
O104 Pr81 2.438 . S
O104 C90 1.267 . S
O105 Pr80 2.437 1_545 S
O105 C90 1.278 . S
O106 Pr81 2.562 1_565 S
O106 C91 1.254 1_565 S
O107 Pr81 2.490 . S
O107 C91 1.225 . S
O108 Pr80 2.436 1_545 S
O108 Pr81 2.695 . S
O108 C98 1.270 . S
O109 Pr81 2.512 . S
O109 C98 1.248 . S
O110 Pr80 2.438 . S
O110 C99 1.267 . S
O111 Pr81 2.437 1_565 S
O111 C99 1.278 . S
H112 C84 0.929 . S
H113 C85 0.929 . S
H114 C87 0.931 . S
H115 C88 0.930 . S
H116 C93 0.929 . S
H117 C94 0.929 . S
H118 C96 0.931 . S
H119 C97 0.930 . S
Pr120 C122 2.880 . S
Pr120 O140 2.562 . S
Pr120 O141 2.490 . S
Pr120 O142 2.695 . S
Pr120 O143 2.512 . S
Pr120 O145 2.437 1_455 S
Pr120 O148 2.436 1_455 S
Pr120 O150 2.438 . S
Pr121 C131 2.880 . S
Pr121 O142 2.436 1_655 S
Pr121 O144 2.438 . S
Pr121 O146 2.562 1_655 S
Pr121 O147 2.490 . S
Pr121 O148 2.695 . S
Pr121 O149 2.512 . S
Pr121 O151 2.437 1_655 S
C122 Pr120 2.880 . S
C122 C123 1.491 . S
C122 O140 1.254 . S
C122 O141 1.225 . S
C123 C122 1.491 . S
C123 C124 1.392 . S
C123 C128 1.356 1_455 S
C124 C123 1.392 . S
C124 C125 1.368 . S
C124 H152 0.929 . S
C125 C124 1.368 . S
C125 C126 1.386 1_556 S
C125 H153 0.929 . S
C126 C125 1.386 1_554 S
C126 C127 1.373 1_454 S
C127 C126 1.373 1_656 S
C127 C128 1.409 . S
C127 H154 0.931 . S
C128 C123 1.356 1_655 S
C128 C127 1.409 . S
C128 H155 0.930 . S
C129 O142 1.270 . S
C129 O143 1.248 . S
C130 O144 1.267 . S
C130 O145 1.278 . S
C131 Pr121 2.880 . S
C131 C132 1.491 . S
C131 O146 1.254 1_655 S
C131 O147 1.225 . S
C132 C131 1.491 . S
C132 C133 1.392 . S
C132 C137 1.356 1_655 S
C133 C132 1.392 . S
C133 C134 1.368 . S
C133 H156 0.929 . S
C134 C133 1.368 . S
C134 C135 1.386 . S
C134 H157 0.929 . S
C135 C134 1.386 . S
C135 C136 1.373 1_655 S
C136 C135 1.373 1_455 S
C136 C137 1.409 . S
C136 H158 0.931 . S
C137 C132 1.356 1_455 S
C137 C136 1.409 . S
C137 H159 0.930 . S
C138 O148 1.270 . S
C138 O149 1.248 . S
C139 O150 1.267 . S
C139 O151 1.278 . S
O140 Pr120 2.562 . S
O140 C122 1.254 . S
O141 Pr120 2.490 . S
O141 C122 1.225 . S
O142 Pr120 2.695 . S
O142 Pr121 2.436 1_455 S
O142 C129 1.270 . S
O143 Pr120 2.512 . S
O143 C129 1.248 . S
O144 Pr121 2.438 . S
O144 C130 1.267 . S
O145 Pr120 2.437 1_655 S
O145 C130 1.278 . S
O146 Pr121 2.562 1_455 S
O146 C131 1.254 1_455 S
O147 Pr121 2.490 . S
O147 C131 1.225 . S
O148 Pr120 2.436 1_655 S
O148 Pr121 2.695 . S
O148 C138 1.270 . S
O149 Pr121 2.512 . S
O149 C138 1.248 . S
O150 Pr120 2.438 . S
O150 C139 1.267 . S
O151 Pr121 2.437 1_455 S
O151 C139 1.278 . S
H152 C124 0.929 . S
H153 C125 0.929 . S
H154 C127 0.931 . S
H155 C128 0.930 . S
H156 C133 0.929 . S
H157 C134 0.929 . S
H158 C136 0.931 . S
H159 C137 0.930 . S
Pr160 C162 2.880 . S
Pr160 O180 2.562 . S
Pr160 O181 2.490 . S
Pr160 O182 2.695 . S
Pr160 O183 2.512 . S
Pr160 O185 2.437 . S
Pr160 O188 2.436 . S
Pr160 O190 2.438 . S
Pr161 C171 2.880 . S
Pr161 O182 2.436 . S
Pr161 O184 2.438 . S
Pr161 O186 2.562 . S
Pr161 O187 2.490 . S
Pr161 O188 2.695 . S
Pr161 O189 2.512 . S
Pr161 O191 2.437 . S
C162 Pr160 2.880 . S
C162 C163 1.491 . S
C162 O180 1.254 . S
C162 O181 1.225 . S
C163 C162 1.491 . S
C163 C164 1.392 . S
C163 C168 1.356 . S
C164 C163 1.392 . S
C164 C165 1.368 . S
C164 H192 0.929 . S
C165 C164 1.368 . S
C165 C166 1.386 . S
C165 H193 0.929 . S
C166 C165 1.386 . S
C166 C167 1.373 . S
C167 C166 1.373 . S
C167 C168 1.409 . S
C167 H194 0.931 . S
C168 C163 1.356 . S
C168 C167 1.409 . S
C168 H195 0.930 . S
C169 O182 1.270 . S
C169 O183 1.248 . S
C170 O184 1.267 . S
C170 O185 1.278 . S
C171 Pr161 2.880 . S
C171 C172 1.491 . S
C171 O186 1.254 . S
C171 O187 1.225 . S
C172 C171 1.491 . S
C172 C173 1.392 . S
C172 C177 1.356 . S
C173 C172 1.392 . S
C173 C174 1.368 . S
C173 H196 0.929 . S
C174 C173 1.368 . S
C174 C175 1.386 1_556 S
C174 H197 0.929 . S
C175 C174 1.386 1_554 S
C175 C176 1.373 1_554 S
C176 C175 1.373 1_556 S
C176 C177 1.409 . S
C176 H198 0.931 1_556 S
C177 C172 1.356 . S
C177 C176 1.409 . S
C177 H199 0.930 . S
C178 O188 1.270 . S
C178 O189 1.248 . S
C179 O190 1.267 . S
C179 O191 1.278 . S
O180 Pr160 2.562 . S
O180 C162 1.254 . S
O181 Pr160 2.490 . S
O181 C162 1.225 . S
O182 Pr160 2.695 . S
O182 Pr161 2.436 . S
O182 C169 1.270 . S
O183 Pr160 2.512 . S
O183 C169 1.248 . S
O184 Pr161 2.438 . S
O184 C170 1.267 . S
O185 Pr160 2.437 . S
O185 C170 1.278 . S
O186 Pr161 2.562 . S
O186 C171 1.254 . S
O187 Pr161 2.490 . S
O187 C171 1.225 . S
O188 Pr160 2.436 . S
O188 Pr161 2.695 . S
O188 C178 1.270 . S
O189 Pr161 2.512 . S
O189 C178 1.248 . S
O190 Pr160 2.438 . S
O190 C179 1.267 . S
O191 Pr161 2.437 . S
O191 C179 1.278 . S
H192 C164 0.929 . S
H193 C165 0.929 . S
H194 C167 0.931 . S
H195 C168 0.930 . S
H196 C173 0.929 . S
H197 C174 0.929 . S
H198 C176 0.931 1_554 S
H199 C177 0.930 . S
Pr200 C202 2.880 . S
Pr200 O220 2.562 1_565 S
Pr200 O221 2.490 . S
Pr200 O222 2.695 . S
Pr200 O223 2.512 . S
Pr200 O225 2.437 1_565 S
Pr200 O228 2.436 1_565 S
Pr200 O230 2.438 . S
Pr201 C211 2.880 . S
Pr201 O222 2.436 1_545 S
Pr201 O224 2.438 . S
Pr201 O226 2.562 . S
Pr201 O227 2.490 . S
Pr201 O228 2.695 . S
Pr201 O229 2.512 . S
Pr201 O231 2.437 1_545 S
C202 Pr200 2.880 . S
C202 C203 1.491 . S
C202 O220 1.254 1_565 S
C202 O221 1.225 . S
C203 C202 1.491 . S
C203 C204 1.392 . S
C203 C208 1.356 1_565 S
C204 C203 1.392 . S
C204 C205 1.368 . S
C204 H232 0.929 . S
C205 C204 1.368 . S
C205 C206 1.386 1_565 S
C205 H233 0.929 . S
C206 C205 1.386 1_545 S
C206 C207 1.373 . S
C207 C206 1.373 . S
C207 C208 1.409 . S
C207 H234 0.931 . S
C208 C203 1.356 1_545 S
C208 C207 1.409 . S
C208 H235 0.930 . S
C209 O222 1.270 . S
C209 O223 1.248 . S
C210 O224 1.267 . S
C210 O225 1.278 . S
C211 Pr201 2.880 . S
C211 C212 1.491 . S
C211 O226 1.254 . S
C211 O227 1.225 . S
C212 C211 1.491 . S
C212 C213 1.392 . S
C212 C217 1.356 1_545 S
C213 C212 1.392 . S
C213 C214 1.368 . S
C213 H236 0.929 . S
C214 C213 1.368 . S
C214 C215 1.386 . S
C214 H237 0.929 . S
C215 C214 1.386 . S
C215 C216 1.373 1_545 S
C216 C215 1.373 1_565 S
C216 C217 1.409 . S
C216 H238 0.931 . S
C217 C212 1.356 1_565 S
C217 C216 1.409 . S
C217 H239 0.930 . S
C218 O228 1.270 . S
C218 O229 1.248 . S
C219 O230 1.267 . S
C219 O231 1.278 . S
O220 Pr200 2.562 1_545 S
O220 C202 1.254 1_545 S
O221 Pr200 2.490 . S
O221 C202 1.225 . S
O222 Pr200 2.695 . S
O222 Pr201 2.436 1_565 S
O222 C209 1.270 . S
O223 Pr200 2.512 . S
O223 C209 1.248 . S
O224 Pr201 2.438 . S
O224 C210 1.267 . S
O225 Pr200 2.437 1_545 S
O225 C210 1.278 . S
O226 Pr201 2.562 . S
O226 C211 1.254 . S
O227 Pr201 2.490 . S
O227 C211 1.225 . S
O228 Pr200 2.436 1_545 S
O228 Pr201 2.695 . S
O228 C218 1.270 . S
O229 Pr201 2.512 . S
O229 C218 1.248 . S
O230 Pr200 2.438 . S
O230 C219 1.267 . S
O231 Pr201 2.437 1_565 S
O231 C219 1.278 . S
H232 C204 0.929 . S
H233 C205 0.929 . S
H234 C207 0.931 . S
H235 C208 0.930 . S
H236 C213 0.929 . S
H237 C214 0.929 . S
H238 C216 0.931 . S
H239 C217 0.930 . S
Pr240 C242 2.880 . S
Pr240 O260 2.562 . S
Pr240 O261 2.490 . S
Pr240 O262 2.695 . S
Pr240 O263 2.512 . S
Pr240 O265 2.437 . S
Pr240 O268 2.436 . S
Pr240 O270 2.438 . S
Pr241 C251 2.880 1_556 S
Pr241 O262 2.436 . S
Pr241 O264 2.438 . S
Pr241 O266 2.562 1_556 S
Pr241 O267 2.490 1_556 S
Pr241 O268 2.695 . S
Pr241 O269 2.512 . S
Pr241 O271 2.437 . S
C242 Pr240 2.880 . S
C242 C243 1.491 . S
C242 O260 1.254 . S
C242 O261 1.225 . S
C243 C242 1.491 . S
C243 C244 1.392 . S
C243 C248 1.356 . S
C244 C243 1.392 . S
C244 C245 1.368 . S
C244 H272 0.929 . S
C245 C244 1.368 . S
C245 C246 1.386 . S
C245 H273 0.929 . S
C246 C245 1.386 . S
C246 C247 1.373 . S
C247 C246 1.373 . S
C247 C248 1.409 . S
C247 H274 0.931 . S
C248 C243 1.356 . S
C248 C247 1.409 . S
C248 H275 0.930 . S
C249 O262 1.270 . S
C249 O263 1.248 . S
C250 O264 1.267 . S
C250 O265 1.278 . S
C251 Pr241 2.880 1_554 S
C251 C252 1.491 . S
C251 O266 1.254 . S
C251 O267 1.225 . S
C252 C251 1.491 . S
C252 C253 1.392 . S
C252 C257 1.356 . S
C253 C252 1.392 . S
C253 C254 1.368 . S
C253 H276 0.929 . S
C254 C253 1.368 . S
C254 C255 1.386 . S
C254 H277 0.929 . S
C255 C254 1.386 . S
C255 C256 1.373 . S
C256 C255 1.373 . S
C256 C257 1.409 . S
C256 H278 0.931 . S
C257 C252 1.356 . S
C257 C256 1.409 . S
C257 H279 0.930 . S
C258 O268 1.270 . S
C258 O269 1.248 . S
C259 O270 1.267 . S
C259 O271 1.278 . S
O260 Pr240 2.562 . S
O260 C242 1.254 . S
O261 Pr240 2.490 . S
O261 C242 1.225 . S
O262 Pr240 2.695 . S
O262 Pr241 2.436 . S
O262 C249 1.270 . S
O263 Pr240 2.512 . S
O263 C249 1.248 . S
O264 Pr241 2.438 . S
O264 C250 1.267 . S
O265 Pr240 2.437 . S
O265 C250 1.278 . S
O266 Pr241 2.562 1_554 S
O266 C251 1.254 . S
O267 Pr241 2.490 1_554 S
O267 C251 1.225 . S
O268 Pr240 2.436 . S
O268 Pr241 2.695 . S
O268 C258 1.270 . S
O269 Pr241 2.512 . S
O269 C258 1.248 . S
O270 Pr240 2.438 . S
O270 C259 1.267 . S
O271 Pr241 2.437 . S
O271 C259 1.278 . S
H272 C244 0.929 . S
H273 C245 0.929 . S
H274 C247 0.931 . S
H275 C248 0.930 . S
H276 C253 0.929 . S
H277 C254 0.929 . S
H278 C256 0.931 . S
H279 C257 0.930 . S
Pr280 C282 2.880 . S
Pr280 O300 2.562 . S
Pr280 O301 2.490 . S
Pr280 O302 2.695 . S
Pr280 O303 2.512 . S
Pr280 O305 2.437 . S
Pr280 O308 2.436 . S
Pr280 O310 2.438 . S
Pr281 C291 2.880 1_556 S
Pr281 O302 2.436 . S
Pr281 O304 2.438 . S
Pr281 O306 2.551 1_556 S
Pr281 O307 2.490 . S
Pr281 O308 2.695 . S
Pr281 O309 2.512 . S
Pr281 O311 2.437 . S
C282 Pr280 2.880 . S
C282 C283 1.491 . S
C282 O300 1.254 . S
C282 O301 1.225 . S
C283 C282 1.491 . S
C283 C284 1.392 . S
C283 C288 1.356 . S
C284 C283 1.392 . S
C284 C285 1.368 . S
C284 H312 0.929 . S
C285 C284 1.368 . S
C285 C286 1.386 . S
C285 H313 0.929 . S
C286 C285 1.386 . S
C286 C287 1.373 . S
C287 C286 1.373 . S
C287 C288 1.409 . S
C287 H314 0.931 . S
C288 C283 1.356 . S
C288 C287 1.409 . S
C288 H315 0.930 . S
C289 O302 1.270 . S
C289 O303 1.248 . S
C290 O304 1.267 . S
C290 O305 1.278 . S
C291 Pr281 2.880 1_554 S
C291 C292 1.491 . S
C291 O306 1.260 . S
C291 O307 1.225 1_554 S
C292 C291 1.491 . S
C292 C293 1.392 . S
C292 C297 1.356 . S
C293 C292 1.392 . S
C293 C294 1.368 . S
C293 H316 0.929 . S
C294 C293 1.368 . S
C294 C295 1.386 . S
C294 H317 0.929 . S
C295 C294 1.386 . S
C295 C296 1.373 . S
C296 C295 1.373 . S
C296 C297 1.409 . S
C296 H318 0.931 . S
C297 C292 1.356 . S
C297 C296 1.409 . S
C297 H319 0.930 . S
C298 O308 1.270 . S
C298 O309 1.248 . S
C299 O310 1.267 . S
C299 O311 1.278 . S
O300 Pr280 2.562 . S
O300 C282 1.254 . S
O301 Pr280 2.490 . S
O301 C282 1.225 . S
O302 Pr280 2.695 . S
O302 Pr281 2.436 . S
O302 C289 1.270 . S
O303 Pr280 2.512 . S
O303 C289 1.248 . S
O304 Pr281 2.438 . S
O304 C290 1.267 . S
O305 Pr280 2.437 . S
O305 C290 1.278 . S
O306 Pr281 2.551 1_554 S
O306 C291 1.260 . S
O307 Pr281 2.490 . S
O307 C291 1.225 1_556 S
O308 Pr280 2.436 . S
O308 Pr281 2.695 . S
O308 C298 1.270 . S
O309 Pr281 2.512 . S
O309 C298 1.248 . S
O310 Pr280 2.438 . S
O310 C299 1.267 . S
O311 Pr281 2.437 . S
O311 C299 1.278 . S
H312 C284 0.929 . S
H313 C285 0.929 . S
H314 C287 0.931 . S
H315 C288 0.930 . S
H316 C293 0.929 . S
H317 C294 0.929 . S
H318 C296 0.931 . S
H319 C297 0.930 . S
Pr320 C322 2.880 . S
Pr320 O340 2.562 . S
Pr320 O341 2.490 . S
Pr320 O342 2.695 . S
Pr320 O343 2.512 . S
Pr320 O345 2.437 . S
Pr320 O348 2.436 . S
Pr320 O350 2.438 1_655 S
Pr321 C331 2.880 1_556 S
Pr321 O342 2.436 . S
Pr321 O344 2.438 . S
Pr321 O346 2.562 1_556 S
Pr321 O347 2.490 1_556 S
Pr321 O348 2.695 . S
Pr321 O349 2.512 . S
Pr321 O351 2.437 . S
C322 Pr320 2.880 . S
C322 C323 1.491 . S
C322 O340 1.254 . S
C322 O341 1.225 . S
C323 C322 1.491 . S
C323 C324 1.392 . S
C323 C328 1.356 . S
C324 C323 1.392 . S
C324 C325 1.368 . S
C324 H352 0.929 . S
C325 C324 1.368 . S
C325 C326 1.386 . S
C325 H353 0.929 . S
C326 C325 1.386 . S
C326 C327 1.373 . S
C327 C326 1.373 . S
C327 C328 1.409 . S
C327 H354 0.931 . S
C328 C323 1.356 . S
C328 C327 1.409 . S
C328 H355 0.930 . S
C329 O342 1.270 . S
C329 O343 1.248 . S
C330 O344 1.267 . S
C330 O345 1.278 . S
C331 Pr321 2.880 1_554 S
C331 C332 1.491 . S
C331 O346 1.254 . S
C331 O347 1.225 . S
C332 C331 1.491 . S
C332 C333 1.392 . S
C332 C337 1.356 . S
C333 C332 1.392 . S
C333 C334 1.368 . S
C333 H356 0.929 . S
C334 C333 1.368 . S
C334 C335 1.386 . S
C334 H357 0.929 . S
C335 C334 1.386 . S
C335 C336 1.373 . S
C336 C335 1.373 . S
C336 C337 1.409 . S
C336 H358 0.931 . S
C337 C332 1.356 . S
C337 C336 1.409 . S
C337 H359 0.930 . S
C338 O348 1.270 . S
C338 O349 1.248 . S
C339 O350 1.267 . S
C339 O351 1.278 1_455 S
O340 Pr320 2.562 . S
O340 C322 1.254 . S
O341 Pr320 2.490 . S
O341 C322 1.225 . S
O342 Pr320 2.695 . S
O342 Pr321 2.436 . S
O342 C329 1.270 . S
O343 Pr320 2.512 . S
O343 C329 1.248 . S
O344 Pr321 2.438 . S
O344 C330 1.267 . S
O345 Pr320 2.437 . S
O345 C330 1.278 . S
O346 Pr321 2.562 1_554 S
O346 C331 1.254 . S
O347 Pr321 2.490 1_554 S
O347 C331 1.225 . S
O348 Pr320 2.436 . S
O348 Pr321 2.695 . S
O348 C338 1.270 . S
O349 Pr321 2.512 . S
O349 C338 1.248 . S
O350 Pr320 2.438 1_455 S
O350 C339 1.267 . S
O351 Pr321 2.437 . S
O351 C339 1.278 1_655 S
H352 C324 0.929 . S
H353 C325 0.929 . S
H354 C327 0.931 . S
H355 C328 0.930 . S
H356 C333 0.929 . S
H357 C334 0.929 . S
H358 C336 0.931 . S
H359 C337 0.930 . S
Pr360 C362 2.880 1_556 S
Pr360 O380 2.562 1_556 S
Pr360 O381 2.490 1_556 S
Pr360 O382 2.695 . S
Pr360 O383 2.512 . S
Pr360 O385 2.437 . S
Pr360 O388 2.436 . S
Pr360 O390 2.438 . S
Pr361 C371 2.880 . S
Pr361 O382 2.436 . S
Pr361 O384 2.438 . S
Pr361 O386 2.562 . S
Pr361 O387 2.490 . S
Pr361 O388 2.695 . S
Pr361 O389 2.512 . S
Pr361 O391 2.437 . S
C362 Pr360 2.880 1_554 S
C362 C363 1.491 . S
C362 O380 1.254 . S
C362 O381 1.225 . S
C363 C362 1.491 . S
C363 C364 1.392 . S
C363 C368 1.356 . S
C364 C363 1.392 . S
C364 C365 1.368 . S
C364 H392 0.929 . S
C365 C364 1.368 . S
C365 C366 1.386 . S
C365 H393 0.929 . S
C366 C365 1.386 . S
C366 C367 1.373 . S
C367 C366 1.373 . S
C367 C368 1.409 . S
C367 H394 0.931 . S
C368 C363 1.356 . S
C368 C367 1.409 . S
C368 H395 0.930 . S
C369 O382 1.270 . S
C369 O383 1.248 . S
C370 O384 1.267 . S
C370 O385 1.278 . S
C371 Pr361 2.880 . S
C371 C372 1.491 . S
C371 O386 1.254 . S
C371 O387 1.225 . S
C372 C371 1.491 . S
C372 C373 1.392 . S
C372 C377 1.356 . S
C373 C372 1.392 . S
C373 C374 1.368 . S
C373 H396 0.929 . S
C374 C373 1.368 . S
C374 C375 1.386 . S
C374 H397 0.929 . S
C375 C374 1.386 . S
C375 C376 1.373 . S
C376 C375 1.373 . S
C376 C377 1.409 . S
C376 H398 0.931 . S
C377 C372 1.356 . S
C377 C376 1.409 . S
C377 H399 0.930 . S
C378 O388 1.270 . S
C378 O389 1.248 . S
C379 O390 1.267 . S
C379 O391 1.278 . S
O380 Pr360 2.562 1_554 S
O380 C362 1.254 . S
O381 Pr360 2.490 1_554 S
O381 C362 1.225 . S
O382 Pr360 2.695 . S
O382 Pr361 2.436 . S
O382 C369 1.270 . S
O383 Pr360 2.512 . S
O383 C369 1.248 . S
O384 Pr361 2.438 . S
O384 C370 1.267 . S
O385 Pr360 2.437 . S
O385 C370 1.278 . S
O386 Pr361 2.562 . S
O386 C371 1.254 . S
O387 Pr361 2.490 . S
O387 C371 1.225 . S
O388 Pr360 2.436 . S
O388 Pr361 2.695 . S
O388 C378 1.270 . S
O389 Pr361 2.512 . S
O389 C378 1.248 . S
O390 Pr360 2.438 . S
O390 C379 1.267 . S
O391 Pr361 2.437 . S
O391 C379 1.278 . S
H392 C364 0.929 . S
H393 C365 0.929 . S
H394 C367 0.931 . S
H395 C368 0.930 . S
H396 C373 0.929 . S
H397 C374 0.929 . S
H398 C376 0.931 . S
H399 C377 0.930 . S
Pr400 C402 2.880 1_556 S
Pr400 O420 2.562 1_556 S
Pr400 O421 2.490 1_556 S
Pr400 O422 2.695 . S
Pr400 O423 2.512 . S
Pr400 O425 2.437 . S
Pr400 O428 2.436 . S
Pr400 O430 2.438 . S
Pr401 C411 2.880 . S
Pr401 O422 2.436 . S
Pr401 O424 2.438 1_655 S
Pr401 O426 2.562 . S
Pr401 O427 2.490 . S
Pr401 O428 2.695 . S
Pr401 O429 2.512 . S
Pr401 O431 2.437 . S
C402 Pr400 2.880 1_554 S
C402 C403 1.491 . S
C402 O420 1.254 . S
C402 O421 1.225 . S
C403 C402 1.491 . S
C403 C404 1.392 . S
C403 C408 1.356 . S
C404 C403 1.392 . S
C404 C405 1.368 . S
C404 H432 0.929 . S
C405 C404 1.368 . S
C405 C406 1.386 . S
C405 H433 0.929 . S
C406 C405 1.386 . S
C406 C407 1.373 . S
C407 C406 1.373 . S
C407 C408 1.409 . S
C407 H434 0.931 . S
C408 C403 1.356 . S
C408 C407 1.409 . S
C408 H435 0.930 . S
C409 O422 1.270 . S
C409 O423 1.248 . S
C410 O424 1.267 . S
C410 O425 1.278 1_455 S
C411 Pr401 2.880 . S
C411 C412 1.491 . S
C411 O426 1.254 . S
C411 O427 1.225 . S
C412 C411 1.491 . S
C412 C413 1.392 . S
C412 C417 1.356 . S
C413 C412 1.392 . S
C413 C414 1.368 . S
C413 H436 0.929 . S
C414 C413 1.368 . S
C414 C415 1.386 . S
C414 H437 0.929 . S
C415 C414 1.386 . S
C415 C416 1.373 . S
C416 C415 1.373 . S
C416 C417 1.409 . S
C416 H438 0.931 . S
C417 C412 1.356 . S
C417 C416 1.409 . S
C417 H439 0.930 . S
C418 O428 1.270 . S
C418 O429 1.248 . S
C419 O430 1.267 . S
C419 O431 1.278 . S
O420 Pr400 2.562 1_554 S
O420 C402 1.254 . S
O421 Pr400 2.490 1_554 S
O421 C402 1.225 . S
O422 Pr400 2.695 . S
O422 Pr401 2.436 . S
O422 C409 1.270 . S
O423 Pr400 2.512 . S
O423 C409 1.248 . S
O424 Pr401 2.438 1_455 S
O424 C410 1.267 . S
O425 Pr400 2.437 . S
O425 C410 1.278 1_655 S
O426 Pr401 2.562 . S
O426 C411 1.254 . S
O427 Pr401 2.490 . S
O427 C411 1.225 . S
O428 Pr400 2.436 . S
O428 Pr401 2.695 . S
O428 C418 1.270 . S
O429 Pr401 2.512 . S
O429 C418 1.248 . S
O430 Pr400 2.438 . S
O430 C419 1.267 . S
O431 Pr401 2.437 . S
O431 C419 1.278 . S
H432 C404 0.929 . S
H433 C405 0.929 . S
H434 C407 0.931 . S
H435 C408 0.930 . S
H436 C413 0.929 . S
H437 C414 0.929 . S
H438 C416 0.931 . S
H439 C417 0.930 . S
Pr440 C442 2.880 1_556 S
Pr440 O460 2.562 1_556 S
Pr440 O461 2.490 1_556 S
Pr440 O462 2.695 . S
Pr440 O463 2.512 . S
Pr440 O465 2.437 . S
Pr440 O468 2.436 . S
Pr440 O470 2.438 . S
Pr441 C451 2.880 . S
Pr441 O462 2.436 . S
Pr441 O464 2.438 . S
Pr441 O466 2.562 . S
Pr441 O467 2.490 . S
Pr441 O468 2.695 . S
Pr441 O469 2.512 . S
Pr441 O471 2.437 . S
C442 Pr440 2.880 1_554 S
C442 C443 1.491 . S
C442 O460 1.254 . S
C442 O461 1.225 . S
C443 C442 1.491 . S
C443 C444 1.392 . S
C443 C448 1.356 . S
C444 C443 1.392 . S
C444 C445 1.368 . S
C444 H472 0.929 . S
C445 C444 1.368 . S
C445 C446 1.386 . S
C445 H473 0.929 . S
C446 C445 1.386 . S
C446 C447 1.373 . S
C447 C446 1.373 . S
C447 C448 1.409 . S
C447 H474 0.931 . S
C448 C443 1.356 . S
C448 C447 1.409 . S
C448 H475 0.930 . S
C449 O462 1.270 . S
C449 O463 1.248 . S
C450 O464 1.267 . S
C450 O465 1.278 . S
C451 Pr441 2.880 . S
C451 C452 1.491 . S
C451 O466 1.254 . S
C451 O467 1.225 . S
C452 C451 1.491 . S
C452 C453 1.392 . S
C452 C457 1.356 . S
C453 C452 1.392 . S
C453 C454 1.368 . S
C453 H476 0.929 . S
C454 C453 1.368 . S
C454 C455 1.386 . S
C454 H477 0.929 . S
C455 C454 1.386 . S
C455 C456 1.373 . S
C456 C455 1.373 . S
C456 C457 1.409 . S
C456 H478 0.931 . S
C457 C452 1.356 . S
C457 C456 1.409 . S
C457 H479 0.930 . S
C458 O468 1.270 . S
C458 O469 1.248 . S
C459 O470 1.267 . S
C459 O471 1.278 . S
O460 Pr440 2.562 1_554 S
O460 C442 1.254 . S
O461 Pr440 2.490 1_554 S
O461 C442 1.225 . S
O462 Pr440 2.695 . S
O462 Pr441 2.436 . S
O462 C449 1.270 . S
O463 Pr440 2.512 . S
O463 C449 1.248 . S
O464 Pr441 2.438 . S
O464 C450 1.267 . S
O465 Pr440 2.437 . S
O465 C450 1.278 . S
O466 Pr441 2.562 . S
O466 C451 1.254 . S
O467 Pr441 2.490 . S
O467 C451 1.225 . S
O468 Pr440 2.436 . S
O468 Pr441 2.695 . S
O468 C458 1.270 . S
O469 Pr441 2.512 . S
O469 C458 1.248 . S
O470 Pr440 2.438 . S
O470 C459 1.267 . S
O471 Pr441 2.437 . S
O471 C459 1.278 . S
H472 C444 0.929 . S
H473 C445 0.929 . S
H474 C447 0.931 . S
H475 C448 0.930 . S
H476 C453 0.929 . S
H477 C454 0.929 . S
H478 C456 0.931 . S
H479 C457 0.930 . S
Pr480 C482 2.880 . S
Pr480 O500 2.562 . S
Pr480 O501 2.490 . S
Pr480 O502 2.695 . S
Pr480 O503 2.512 . S
Pr480 O505 2.437 . S
Pr480 O508 2.436 . S
Pr480 O510 2.438 1_565 S
Pr481 C491 2.880 1_554 S
Pr481 O502 2.436 . S
Pr481 O504 2.438 . S
Pr481 O506 2.562 1_554 S
Pr481 O507 2.490 1_554 S
Pr481 O508 2.695 . S
Pr481 O509 2.512 . S
Pr481 O511 2.437 . S
C482 Pr480 2.880 . S
C482 C483 1.491 . S
C482 O500 1.254 . S
C482 O501 1.225 . S
C483 C482 1.491 . S
C483 C484 1.392 . S
C483 C488 1.356 . S
C484 C483 1.392 . S
C484 C485 1.368 . S
C484 H512 0.929 . S
C485 C484 1.368 . S
C485 C486 1.386 . S
C485 H513 0.929 . S
C486 C485 1.386 . S
C486 C487 1.373 . S
C487 C486 1.373 . S
C487 C488 1.409 . S
C487 H514 0.931 . S
C488 C483 1.356 . S
C488 C487 1.409 . S
C488 H515 0.930 . S
C489 O502 1.270 . S
C489 O503 1.248 . S
C490 O504 1.267 . S
C490 O505 1.278 . S
C491 Pr481 2.880 1_556 S
C491 C492 1.491 . S
C491 O506 1.254 . S
C491 O507 1.225 . S
C492 C491 1.491 . S
C492 C493 1.392 . S
C492 C497 1.356 . S
C493 C492 1.392 . S
C493 C494 1.368 . S
C493 H516 0.929 . S
C494 C493 1.368 . S
C494 C495 1.386 . S
C494 H517 0.929 . S
C495 C494 1.386 . S
C495 C496 1.373 . S
C496 C495 1.373 . S
C496 C497 1.409 . S
C496 H518 0.931 . S
C497 C492 1.356 . S
C497 C496 1.409 . S
C497 H519 0.930 . S
C498 O508 1.270 . S
C498 O509 1.248 . S
C499 O510 1.267 . S
C499 O511 1.278 1_545 S
O500 Pr480 2.562 . S
O500 C482 1.254 . S
O501 Pr480 2.490 . S
O501 C482 1.225 . S
O502 Pr480 2.695 . S
O502 Pr481 2.436 . S
O502 C489 1.270 . S
O503 Pr480 2.512 . S
O503 C489 1.248 . S
O504 Pr481 2.438 . S
O504 C490 1.267 . S
O505 Pr480 2.437 . S
O505 C490 1.278 . S
O506 Pr481 2.562 1_556 S
O506 C491 1.254 . S
O507 Pr481 2.490 1_556 S
O507 C491 1.225 . S
O508 Pr480 2.436 . S
O508 Pr481 2.695 . S
O508 C498 1.270 . S
O509 Pr481 2.512 . S
O509 C498 1.248 . S
O510 Pr480 2.438 1_545 S
O510 C499 1.267 . S
O511 Pr481 2.437 . S
O511 C499 1.278 1_565 S
H512 C484 0.929 . S
H513 C485 0.929 . S
H514 C487 0.931 . S
H515 C488 0.930 . S
H516 C493 0.929 . S
H517 C494 0.929 . S
H518 C496 0.931 . S
H519 C497 0.930 . S
Pr520 C522 2.880 1_554 S
Pr520 O540 2.562 1_554 S
Pr520 O541 2.490 1_554 S
Pr520 O542 2.695 . S
Pr520 O543 2.512 . S
Pr520 O545 2.437 . S
Pr520 O548 2.436 . S
Pr520 O550 2.438 . S
Pr521 C531 2.880 . S
Pr521 O542 2.436 . S
Pr521 O544 2.438 . S
Pr521 O546 2.562 . S
Pr521 O547 2.490 . S
Pr521 O548 2.695 . S
Pr521 O549 2.512 . S
Pr521 O551 2.437 . S
C522 Pr520 2.880 1_556 S
C522 C523 1.491 . S
C522 O540 1.254 . S
C522 O541 1.225 . S
C523 C522 1.491 . S
C523 C524 1.392 . S
C523 C528 1.356 . S
C524 C523 1.392 . S
C524 C525 1.368 . S
C524 H552 0.929 . S
C525 C524 1.368 . S
C525 C526 1.386 . S
C525 H553 0.929 . S
C526 C525 1.386 . S
C526 C527 1.373 . S
C527 C526 1.373 . S
C527 C528 1.409 . S
C527 H554 0.931 . S
C528 C523 1.356 . S
C528 C527 1.409 . S
C528 H555 0.930 . S
C529 O542 1.270 . S
C529 O543 1.248 . S
C530 O544 1.267 . S
C530 O545 1.278 . S
C531 Pr521 2.880 . S
C531 C532 1.491 . S
C531 O546 1.254 . S
C531 O547 1.225 . S
C532 C531 1.491 . S
C532 C533 1.392 . S
C532 C537 1.356 . S
C533 C532 1.392 . S
C533 C534 1.368 . S
C533 H556 0.929 . S
C534 C533 1.368 . S
C534 C535 1.386 . S
C534 H557 0.909 1_455 S
C535 C534 1.386 . S
C535 C536 1.373 . S
C536 C535 1.373 . S
C536 C537 1.409 . S
C536 H558 0.931 . S
C537 C532 1.356 . S
C537 C536 1.409 . S
C537 H559 0.930 . S
C538 O548 1.270 . S
C538 O549 1.248 . S
C539 O550 1.267 . S
C539 O551 1.278 . S
O540 Pr520 2.562 1_556 S
O540 C522 1.254 . S
O541 Pr520 2.490 1_556 S
O541 C522 1.225 . S
O542 Pr520 2.695 . S
O542 Pr521 2.436 . S
O542 C529 1.270 . S
O543 Pr520 2.512 . S
O543 C529 1.248 . S
O544 Pr521 2.438 . S
O544 C530 1.267 . S
O545 Pr520 2.437 . S
O545 C530 1.278 . S
O546 Pr521 2.562 . S
O546 C531 1.254 . S
O547 Pr521 2.490 . S
O547 C531 1.225 . S
O548 Pr520 2.436 . S
O548 Pr521 2.695 . S
O548 C538 1.270 . S
O549 Pr521 2.512 . S
O549 C538 1.248 . S
O550 Pr520 2.438 . S
O550 C539 1.267 . S
O551 Pr521 2.437 . S
O551 C539 1.278 . S
H552 C524 0.929 . S
H553 C525 0.929 . S
H554 C527 0.931 . S
H555 C528 0.930 . S
H556 C533 0.929 . S
H557 C534 0.909 1_655 S
H558 C536 0.931 . S
H559 C537 0.930 . S
Pr560 C562 2.880 . S
Pr560 O580 2.562 . S
Pr560 O581 2.490 . S
Pr560 O582 2.695 . S
Pr560 O583 2.512 . S
Pr560 O585 2.437 . S
Pr560 O588 2.436 . S
Pr560 O590 2.438 . S
Pr561 C571 2.880 1_554 S
Pr561 O582 2.436 . S
Pr561 O584 2.438 . S
Pr561 O586 2.562 1_554 S
Pr561 O587 2.490 1_554 S
Pr561 O588 2.695 . S
Pr561 O589 2.512 . S
Pr561 O591 2.437 . S
C562 Pr560 2.880 . S
C562 C563 1.491 . S
C562 O580 1.254 . S
C562 O581 1.225 . S
C563 C562 1.491 . S
C563 C564 1.392 . S
C563 C568 1.356 . S
C564 C563 1.392 . S
C564 C565 1.368 . S
C564 H592 0.929 . S
C565 C564 1.368 . S
C565 C566 1.386 . S
C565 H593 0.929 . S
C566 C565 1.386 . S
C566 C567 1.373 . S
C567 C566 1.373 . S
C567 C568 1.409 . S
C567 H594 0.931 . S
C568 C563 1.356 . S
C568 C567 1.409 . S
C568 H595 0.930 . S
C569 O582 1.270 . S
C569 O583 1.248 . S
C570 O584 1.267 . S
C570 O585 1.278 . S
C571 Pr561 2.880 1_556 S
C571 C572 1.491 . S
C571 O586 1.254 . S
C571 O587 1.225 . S
C572 C571 1.491 . S
C572 C573 1.392 . S
C572 C577 1.356 . S
C573 C572 1.392 . S
C573 C574 1.368 . S
C573 H596 0.929 . S
C574 C573 1.368 . S
C574 C575 1.386 . S
C574 H597 0.929 . S
C575 C574 1.386 . S
C575 C576 1.373 . S
C576 C575 1.373 . S
C576 C577 1.409 . S
C576 H598 0.931 . S
C577 C572 1.356 . S
C577 C576 1.409 . S
C577 H599 0.930 . S
C578 O588 1.270 . S
C578 O589 1.248 . S
C579 O590 1.267 . S
C579 O591 1.278 . S
O580 Pr560 2.562 . S
O580 C562 1.254 . S
O581 Pr560 2.490 . S
O581 C562 1.225 . S
O582 Pr560 2.695 . S
O582 Pr561 2.436 . S
O582 C569 1.270 . S
O583 Pr560 2.512 . S
O583 C569 1.248 . S
O584 Pr561 2.438 . S
O584 C570 1.267 . S
O585 Pr560 2.437 . S
O585 C570 1.278 . S
O586 Pr561 2.562 1_556 S
O586 C571 1.254 . S
O587 Pr561 2.490 1_556 S
O587 C571 1.225 . S
O588 Pr560 2.436 . S
O588 Pr561 2.695 . S
O588 C578 1.270 . S
O589 Pr561 2.512 . S
O589 C578 1.248 . S
O590 Pr560 2.438 . S
O590 C579 1.267 . S
O591 Pr561 2.437 . S
O591 C579 1.278 . S
H592 C564 0.929 . S
H593 C565 0.929 . S
H594 C567 0.931 . S
H595 C568 0.930 . S
H596 C573 0.929 . S
H597 C574 0.929 . S
H598 C576 0.931 . S
H599 C577 0.930 . S
Pr600 C602 2.880 . S
Pr600 O620 2.562 . S
Pr600 O621 2.490 . S
Pr600 O622 2.695 . S
Pr600 O623 2.512 . S
Pr600 O625 2.437 . S
Pr600 O628 2.436 . S
Pr600 O630 2.438 . S
Pr601 C611 2.880 1_554 S
Pr601 O622 2.436 . S
Pr601 O624 2.438 . S
Pr601 O626 2.562 1_554 S
Pr601 O627 2.490 1_554 S
Pr601 O628 2.695 . S
Pr601 O629 2.512 . S
Pr601 O631 2.437 . S
C602 Pr600 2.880 . S
C602 C603 1.491 . S
C602 O620 1.254 . S
C602 O621 1.225 . S
C603 C602 1.491 . S
C603 C604 1.392 . S
C603 C608 1.356 . S
C604 C603 1.392 . S
C604 C605 1.368 . S
C604 H632 0.929 . S
C605 C604 1.368 . S
C605 C606 1.386 . S
C605 H633 0.929 . S
C606 C605 1.386 . S
C606 C607 1.373 . S
C607 C606 1.373 . S
C607 C608 1.409 . S
C607 H634 0.931 . S
C608 C603 1.356 . S
C608 C607 1.409 . S
C608 H635 0.930 . S
C609 O622 1.270 . S
C609 O623 1.248 . S
C610 O624 1.267 . S
C610 O625 1.278 . S
C611 Pr601 2.880 1_556 S
C611 C612 1.491 . S
C611 O626 1.254 . S
C611 O627 1.225 . S
C612 C611 1.491 . S
C612 C613 1.392 . S
C612 C617 1.356 . S
C613 C612 1.392 . S
C613 C614 1.368 . S
C613 H636 0.929 . S
C614 C613 1.368 . S
C614 C615 1.386 . S
C614 H637 0.929 . S
C615 C614 1.386 . S
C615 C616 1.373 . S
C616 C615 1.373 . S
C616 C617 1.409 . S
C616 H638 0.931 . S
C617 C612 1.356 . S
C617 C616 1.409 . S
C617 H639 0.930 . S
C618 O628 1.270 . S
C618 O629 1.248 . S
C619 O630 1.267 . S
C619 O631 1.278 . S
O620 Pr600 2.562 . S
O620 C602 1.254 . S
O621 Pr600 2.490 . S
O621 C602 1.225 . S
O622 Pr600 2.695 . S
O622 Pr601 2.436 . S
O622 C609 1.270 . S
O623 Pr600 2.512 . S
O623 C609 1.248 . S
O624 Pr601 2.438 . S
O624 C610 1.267 . S
O625 Pr600 2.437 . S
O625 C610 1.278 . S
O626 Pr601 2.562 1_556 S
O626 C611 1.254 . S
O627 Pr601 2.490 1_556 S
O627 C611 1.225 . S
O628 Pr600 2.436 . S
O628 Pr601 2.695 . S
O628 C618 1.270 . S
O629 Pr601 2.512 . S
O629 C618 1.248 . S
O630 Pr600 2.438 . S
O630 C619 1.267 . S
O631 Pr601 2.437 . S
O631 C619 1.278 . S
H632 C604 0.929 . S
H633 C605 0.929 . S
H634 C607 0.931 . S
H635 C608 0.930 . S
H636 C613 0.929 . S
H637 C614 0.929 . S
H638 C616 0.931 . S
H639 C617 0.930 . S
Pr640 C642 2.880 1_554 S
Pr640 O660 2.562 1_554 S
Pr640 O661 2.490 1_554 S
Pr640 O662 2.695 . S
Pr640 O663 2.512 . S
Pr640 O665 2.437 . S
Pr640 O668 2.436 . S
Pr640 O670 2.438 . S
Pr641 C651 2.880 . S
Pr641 O662 2.436 . S
Pr641 O664 2.438 1_565 S
Pr641 O666 2.562 . S
Pr641 O667 2.490 . S
Pr641 O668 2.695 . S
Pr641 O669 2.512 . S
Pr641 O671 2.437 . S
C642 Pr640 2.880 1_556 S
C642 C643 1.491 . S
C642 O660 1.254 . S
C642 O661 1.225 . S
C643 C642 1.491 . S
C643 C644 1.392 . S
C643 C648 1.356 . S
C644 C643 1.392 . S
C644 C645 1.368 . S
C644 H672 0.929 . S
C645 C644 1.368 . S
C645 C646 1.386 . S
C645 H673 0.929 . S
C646 C645 1.386 . S
C646 C647 1.373 . S
C647 C646 1.373 . S
C647 C648 1.409 . S
C647 H674 0.931 . S
C648 C643 1.356 . S
C648 C647 1.409 . S
C648 H675 0.930 . S
C649 O662 1.270 . S
C649 O663 1.248 . S
C650 O664 1.267 . S
C650 O665 1.278 1_545 S
C651 Pr641 2.880 . S
C651 C652 1.491 . S
C651 O666 1.254 . S
C651 O667 1.225 . S
C652 C651 1.491 . S
C652 C653 1.392 . S
C652 C657 1.356 . S
C653 C652 1.392 . S
C653 C654 1.368 . S
C653 H676 0.929 . S
C654 C653 1.368 . S
C654 C655 1.386 . S
C654 H677 0.929 . S
C655 C654 1.386 . S
C655 C656 1.373 . S
C656 C655 1.373 . S
C656 C657 1.409 . S
C656 H678 0.931 . S
C657 C652 1.356 . S
C657 C656 1.409 . S
C657 H679 0.930 . S
C658 O668 1.270 . S
C658 O669 1.248 . S
C659 O670 1.267 . S
C659 O671 1.278 . S
O660 Pr640 2.562 1_556 S
O660 C642 1.254 . S
O661 Pr640 2.490 1_556 S
O661 C642 1.225 . S
O662 Pr640 2.695 . S
O662 Pr641 2.436 . S
O662 C649 1.270 . S
O663 Pr640 2.512 . S
O663 C649 1.248 . S
O664 Pr641 2.438 1_545 S
O664 C650 1.267 . S
O665 Pr640 2.437 . S
O665 C650 1.278 1_565 S
O666 Pr641 2.562 . S
O666 C651 1.254 . S
O667 Pr641 2.490 . S
O667 C651 1.225 . S
O668 Pr640 2.436 . S
O668 Pr641 2.695 . S
O668 C658 1.270 . S
O669 Pr641 2.512 . S
O669 C658 1.248 . S
O670 Pr640 2.438 . S
O670 C659 1.267 . S
O671 Pr641 2.437 . S
O671 C659 1.278 . S
H672 C644 0.929 . S
H673 C645 0.929 . S
H674 C647 0.931 . S
H675 C648 0.930 . S
H676 C653 0.929 . S
H677 C654 0.929 . S
H678 C656 0.931 . S
H679 C657 0.930 . S
Pr680 C682 2.880 . S
Pr680 O700 2.562 . S
Pr680 O701 2.490 . S
Pr680 O702 2.695 . S
Pr680 O703 2.512 . S
Pr680 O705 2.437 . S
Pr680 O708 2.436 . S
Pr680 O710 2.438 . S
Pr681 C691 2.880 1_554 S
Pr681 O702 2.436 . S
Pr681 O704 2.438 . S
Pr681 O706 2.562 1_554 S
Pr681 O707 2.490 1_554 S
Pr681 O708 2.695 . S
Pr681 O709 2.512 . S
Pr681 O711 2.437 . S
C682 Pr680 2.880 . S
C682 C683 1.491 . S
C682 O700 1.254 . S
C682 O701 1.225 . S
C683 C682 1.491 . S
C683 C684 1.392 . S
C683 C688 1.356 . S
C684 C683 1.392 . S
C684 C685 1.368 . S
C684 H712 0.929 . S
C685 C684 1.368 . S
C685 C686 1.386 . S
C685 H713 0.929 . S
C686 C685 1.386 . S
C686 C687 1.373 . S
C687 C686 1.373 . S
C687 C688 1.409 . S
C687 H714 0.931 . S
C688 C683 1.356 . S
C688 C687 1.409 . S
C688 H715 0.930 . S
C689 O702 1.270 . S
C689 O703 1.248 . S
C690 O704 1.267 . S
C690 O705 1.278 . S
C691 Pr681 2.880 1_556 S
C691 C692 1.491 . S
C691 O706 1.254 . S
C691 O707 1.225 . S
C692 C691 1.491 . S
C692 C693 1.392 . S
C692 C697 1.356 . S
C693 C692 1.392 . S
C693 C694 1.368 . S
C693 H716 0.929 . S
C694 C693 1.368 . S
C694 C695 1.386 . S
C694 H717 0.929 . S
C695 C694 1.386 . S
C695 C696 1.373 . S
C696 C695 1.373 . S
C696 C697 1.409 . S
C696 H718 0.931 . S
C697 C692 1.356 . S
C697 C696 1.409 . S
C697 H719 0.930 . S
C698 O708 1.270 . S
C698 O709 1.248 . S
C699 O710 1.267 . S
C699 O711 1.278 . S
O700 Pr680 2.562 . S
O700 C682 1.254 . S
O701 Pr680 2.490 . S
O701 C682 1.225 . S
O702 Pr680 2.695 . S
O702 Pr681 2.436 . S
O702 C689 1.270 . S
O703 Pr680 2.512 . S
O703 C689 1.248 . S
O704 Pr681 2.438 . S
O704 C690 1.267 . S
O705 Pr680 2.437 . S
O705 C690 1.278 . S
O706 Pr681 2.562 1_556 S
O706 C691 1.254 . S
O707 Pr681 2.490 1_556 S
O707 C691 1.225 . S
O708 Pr680 2.436 . S
O708 Pr681 2.695 . S
O708 C698 1.270 . S
O709 Pr681 2.512 . S
O709 C698 1.248 . S
O710 Pr680 2.438 . S
O710 C699 1.267 . S
O711 Pr681 2.437 . S
O711 C699 1.278 . S
H712 C684 0.929 . S
H713 C685 0.929 . S
H714 C687 0.931 . S
H715 C688 0.930 . S
H716 C693 0.929 . S
H717 C694 0.929 . S
H718 C696 0.931 . S
H719 C697 0.930 . S
C539 C19 4.384 . S
C58 C578 4.359 . S
C99 C498 4.339 . S
C98 C298 4.134 . S
C338 C18 4.554 . S
C59 C258 4.494 . S
C130 C409 4.303 . S
C169 C449 3.888 . S
C369 C210 3.828 . S
C649 C209 4.380 . S
C129 C690 4.363 . S
C610 C170 4.400 . S
C339 C538 4.190 1_556 S
C259 C579 4.184 1_556 S
C299 C499 4.628 1_556 S
C370 C650 4.855 1_556 S
C689 C410 4.462 1_554 S
C609 C450 4.858 1_554 S
C9 C178 1.310 . S
C219 C50 2.417 . S
C139 C89 1.760 . S
C179 C90 2.483 . S
C218 C10 2.029 . S
C138 C49 1.532 . S
C419 C250 2.490 . S
C459 C290 2.637 . S
C379 C330 2.614 . S
C418 C329 1.447 . S
C458 C249 1.524 . S
C378 C289 1.330 . S
C658 C489 1.477 . S
C699 C530 2.441 . S
C569 C619 1.990 . S
C570 C659 2.672 . S
C490 C698 1.974 . S
C618 C529 1.454 . S
C15 C6 2.506 1_654 S
C46 C55 2.802 1_554 S
C95 C86 1.968 1_554 S
C126 C135 2.864 1_455 S
C166 C175 2.181 . S
C215 C206 2.737 1_554 S
C255 C246 3.664 . S
C286 C295 2.187 . S
C335 C326 3.287 . S
C366 C375 2.415 . S
C406 C415 3.294 . S
C446 C455 1.900 . S
C486 C495 2.528 . S
C526 C535 2.677 . S
C575 C566 2.196 . S
C615 C606 3.031 . S
C646 C655 2.348 . S
C686 C695 2.434 . S
