# Generated by pormake.
# Topology wkh, (6)-cn, num edge types: 1
# Building blocks:
#     Node 0, Type 0, BuildingBlock: IZENUY_clean_sbu_0, # of connection points: 6
#     Node 1, Type 0, BuildingBlock: IZENUY_clean_sbu_0, # of connection points: 6
#     Node 2, Type 0, BuildingBlock: IZENUY_clean_sbu_0, # of connection points: 6
#     Node 3, Type 0, BuildingBlock: IZENUY_clean_sbu_0, # of connection points: 6
#     Node 4, Type 0, BuildingBlock: IZENUY_clean_sbu_0, # of connection points: 6
#     Node 5, Type 0, BuildingBlock: IZENUY_clean_sbu_0, # of connection points: 6
#     Node 6, Type 0, BuildingBlock: IZENUY_clean_sbu_0, # of connection points: 6
#     Node 7, Type 0, BuildingBlock: IZENUY_clean_sbu_0, # of connection points: 6
#     Node 8, Type 0, BuildingBlock: IZENUY_clean_sbu_0, # of connection points: 6
#     Node 9, Type 0, BuildingBlock: IZENUY_clean_sbu_0, # of connection points: 6
#     Node 10, Type 0, BuildingBlock: IZENUY_clean_sbu_0, # of connection points: 6
#     Node 11, Type 0, BuildingBlock: IZENUY_clean_sbu_0, # of connection points: 6
#     Edge 12, Type (0, 0), BuildingBlock: XUDNAN_clean_linker_2, # of connection points: 2
#     Edge 13, Type (0, 0), BuildingBlock: XUDNAN_clean_linker_2, # of connection points: 2
#     Edge 14, Type (0, 0), BuildingBlock: XUDNAN_clean_linker_2, # of connection points: 2
#     Edge 15, Type (0, 0), BuildingBlock: XUDNAN_clean_linker_2, # of connection points: 2
#     Edge 16, Type (0, 0), BuildingBlock: XUDNAN_clean_linker_2, # of connection points: 2
#     Edge 17, Type (0, 0), BuildingBlock: XUDNAN_clean_linker_2, # of connection points: 2
#     Edge 18, Type (0, 0), BuildingBlock: XUDNAN_clean_linker_2, # of connection points: 2
#     Edge 19, Type (0, 0), BuildingBlock: XUDNAN_clean_linker_2, # of connection points: 2
#     Edge 20, Type (0, 0), BuildingBlock: XUDNAN_clean_linker_2, # of connection points: 2
#     Edge 21, Type (0, 0), BuildingBlock: XUDNAN_clean_linker_2, # of connection points: 2
#     Edge 22, Type (0, 0), BuildingBlock: XUDNAN_clean_linker_2, # of connection points: 2
#     Edge 23, Type (0, 0), BuildingBlock: XUDNAN_clean_linker_2, # of connection points: 2
#     Edge 24, Type (0, 0), BuildingBlock: XUDNAN_clean_linker_2, # of connection points: 2
#     Edge 25, Type (0, 0), BuildingBlock: XUDNAN_clean_linker_2, # of connection points: 2
#     Edge 26, Type (0, 0), BuildingBlock: XUDNAN_clean_linker_2, # of connection points: 2
#     Edge 27, Type (0, 0), BuildingBlock: XUDNAN_clean_linker_2, # of connection points: 2
#     Edge 28, Type (0, 0), BuildingBlock: XUDNAN_clean_linker_2, # of connection points: 2
#     Edge 29, Type (0, 0), BuildingBlock: XUDNAN_clean_linker_2, # of connection points: 2
#     Edge 30, Type (0, 0), BuildingBlock: XUDNAN_clean_linker_2, # of connection points: 2
#     Edge 31, Type (0, 0), BuildingBlock: XUDNAN_clean_linker_2, # of connection points: 2
#     Edge 32, Type (0, 0), BuildingBlock: XUDNAN_clean_linker_2, # of connection points: 2
#     Edge 33, Type (0, 0), BuildingBlock: XUDNAN_clean_linker_2, # of connection points: 2
#     Edge 34, Type (0, 0), BuildingBlock: XUDNAN_clean_linker_2, # of connection points: 2
#     Edge 35, Type (0, 0), BuildingBlock: XUDNAN_clean_linker_2, # of connection points: 2
#     Edge 36, Type (0, 0), BuildingBlock: XUDNAN_clean_linker_2, # of connection points: 2
#     Edge 37, Type (0, 0), BuildingBlock: XUDNAN_clean_linker_2, # of connection points: 2
#     Edge 38, Type (0, 0), BuildingBlock: XUDNAN_clean_linker_2, # of connection points: 2
#     Edge 39, Type (0, 0), BuildingBlock: XUDNAN_clean_linker_2, # of connection points: 2
#     Edge 40, Type (0, 0), BuildingBlock: XUDNAN_clean_linker_2, # of connection points: 2
#     Edge 41, Type (0, 0), BuildingBlock: XUDNAN_clean_linker_2, # of connection points: 2
#     Edge 42, Type (0, 0), BuildingBlock: XUDNAN_clean_linker_2, # of connection points: 2
#     Edge 43, Type (0, 0), BuildingBlock: XUDNAN_clean_linker_2, # of connection points: 2
#     Edge 44, Type (0, 0), BuildingBlock: XUDNAN_clean_linker_2, # of connection points: 2
#     Edge 45, Type (0, 0), BuildingBlock: XUDNAN_clean_linker_2, # of connection points: 2
#     Edge 46, Type (0, 0), BuildingBlock: XUDNAN_clean_linker_2, # of connection points: 2
#     Edge 47, Type (0, 0), BuildingBlock: XUDNAN_clean_linker_2, # of connection points: 2
# Relax obj value: 0.286
# Max RMSD: 0.257
# Mean RMSD: 0.257
data_MOF--net-wkh--node1-IZENUY_clean_sbu_0--edge1-XUDNAN_clean_linker_2
_symmetry_space_group_name_H-M    P1
_symmetry_Int_Tables_number       1
_symmetry_cell_setting            triclinic
loop_
_symmetry_equiv_pos_as_xyz
'x, y, z'
_cell_length_a     26.554383
_cell_length_b     26.555792
_cell_length_c     79.613238
_cell_angle_alpha  90.013967
_cell_angle_beta   90.11216
_cell_angle_gamma 120.07835
loop_
_atom_site_label
_atom_site_type_symbol
_atom_site_fract_x
_atom_site_fract_y
_atom_site_fract_z
_atom_type_partial_charge
Fe0 Fe 0.24013 0.3252 1.02202 0.0
Fe1 Fe 0.33397 0.29079 0.02387 0.0
O2 O 0.3044 0.33305 0.03141 0.0
Fe3 Fe 0.33905 0.38273 0.04832 0.0
O4 O 0.27413 0.3458 0.06139 0.0
O5 O 0.21116 0.33767 0.04195 0.0
O6 O 0.19882 0.24914 0.02716 0.0
C7 C 0.21285 0.21279 1.02247 0.0
C8 C 0.29358 0.44019 0.02748 0.0
O9 O 0.26426 0.22852 1.01809 0.0
C10 C 0.43447 0.39958 0.03021 0.0
O11 O 0.25634 0.30866 1.0004 0.0
O12 O 0.3441 0.32114 1.003 0.0
O13 O 0.31615 0.43494 0.04105 0.0
O14 O 0.27689 0.40122 1.0164 0.0
C15 C 0.3485 0.28369 0.05742 0.0
O16 O 0.40934 0.34511 0.02831 0.0
O17 O 0.4076 0.42344 0.03648 0.0
C18 C 0.3019 0.31249 0.99377 0.0
O19 O 0.32541 0.25698 0.04401 0.0
O20 O 0.36527 0.33758 0.05897 0.0
C21 C 0.22383 0.33577 0.05732 0.0
Fe22 Fe 0.94977 0.32391 0.21454 0.0
Fe23 Fe 0.92687 0.2283 0.1887 0.0
O24 O 0.97501 0.29529 0.19849 0.0
Fe25 Fe 0.04907 0.33345 0.19237 0.0
O26 O 0.07149 0.32653 0.21324 0.0
O27 O 0.01935 0.35729 0.22656 0.0
O28 O 0.92616 0.26025 0.22768 0.0
C29 C 0.89115 0.20839 0.22346 0.0
C30 C 0.02484 0.42454 0.1981 0.0
O31 O 0.88198 0.19434 0.20795 0.0
C32 C 1.00164 0.2983 0.16142 0.0
O33 O 0.87451 0.29279 0.2056 0.0
O34 O 0.88146 0.25624 0.1816 0.0
O35 O 0.05984 0.40563 0.19684 0.0
O36 O 0.97282 0.39136 0.20284 0.0
C37 C 0.02101 0.21601 0.19023 0.0
O38 O 0.96353 0.24969 0.1677 0.0
O39 O 0.03129 0.34151 0.1709 0.0
C40 C 0.85339 0.27043 0.19129 0.0
O41 O 0.96956 0.19599 0.19509 0.0
O42 O 0.05245 0.26903 0.18662 0.0
C43 C 0.0601 0.34514 0.22641 0.0
Fe44 Fe 0.69525 0.92231 0.35729 0.0
Fe45 Fe 0.71856 0.04686 0.36076 0.0
O46 O 0.67852 0.97261 0.36656 0.0
Fe47 Fe 0.62235 0.94855 0.38184 0.0
O48 O 0.65951 0.9234 0.39565 0.0
O49 O 0.67824 0.8757 0.37645 0.0
O50 O 0.76841 0.96044 0.36505 0.0
C51 C 0.80355 0.01279 0.36186 0.0
C52 C 0.5792 0.85367 0.35818 0.0
O53 O 0.78613 0.0468 0.35702 0.0
C54 C 0.60318 0.02633 0.36443 0.0
O55 O 0.71712 0.96013 0.33651 0.0
O56 O 0.69789 0.03127 0.3388 0.0
O57 O 0.57764 0.87388 0.37258 0.0
O58 O 0.62287 0.88139 0.34896 0.0
C59 C 0.7111 0.0572 0.39475 0.0
O60 O 0.65769 0.05987 0.36358 0.0
O61 O 0.58176 0.97403 0.36929 0.0
C62 C 0.7105 1.00004 0.32978 0.0
O63 O 0.74345 0.06827 0.38212 0.0
O64 O 0.65793 0.01729 0.3941 0.0
C65 C 0.67517 0.88721 0.39186 0.0
Fe66 Fe 0.69087 0.62206 0.54826 0.0
Fe67 Fe 0.78652 0.7232 0.52745 0.0
O68 O 0.71509 0.68547 0.53563 0.0
Fe69 Fe 0.66764 0.71303 0.53167 0.0
O70 O 0.62736 0.68769 0.5514 0.0
O71 O 0.6767 0.65732 0.56586 0.0
O72 O 0.76237 0.6461 0.55835 0.0
C73 C 0.80777 0.69602 0.55944 0.0
C74 C 0.59183 0.59843 0.52762 0.0
O75 O 0.8186 0.73433 0.54837 0.0
C76 C 0.72766 0.73491 0.50059 0.0
O77 O 0.70676 0.58334 0.53183 0.0
O78 O 0.79144 0.65826 0.52427 0.0
O79 O 0.61816 0.64758 0.52071 0.0
O80 O 0.61369 0.58735 0.54046 0.0
C81 C 0.76712 0.81229 0.5388 0.0
O82 O 0.76003 0.71552 0.50564 0.0
O83 O 0.69843 0.7453 0.51112 0.0
C84 C 0.75543 0.60435 0.52433 0.0
O85 O 0.79395 0.79489 0.52953 0.0
O86 O 0.71475 0.77938 0.54254 0.0
C87 C 0.64701 0.6823 0.56528 0.0
Fe88 Fe 0.07906 0.69055 0.71557 0.0
Fe89 Fe 0.10756 0.79215 0.69165 0.0
O90 O 0.056 0.72631 0.70125 0.0
Fe91 Fe 0.9814 0.69702 0.69664 0.0
O92 O 0.96575 0.7025 0.71833 0.0
O93 O 1.01218 0.66075 0.7289 0.0
O94 O 0.11136 0.75375 0.7296 0.0
C95 C 0.15034 0.80435 0.7253 0.0
C96 C 0.99343 0.59689 0.69808 0.0
O97 O 0.15898 0.81791 0.70981 0.0
C98 C 0.02328 0.73387 0.66524 0.0
O99 O 0.15158 0.71675 0.70499 0.0
O100 O 0.14178 0.75595 0.68192 0.0
O101 O 0.96281 0.62106 0.69886 0.0
O102 O 0.04668 0.62399 0.70255 0.0
C103 C 0.02323 0.81672 0.69964 0.0
O104 O 0.06538 0.77946 0.67178 0.0
O105 O 0.99188 0.69054 0.67438 0.0
C106 C 0.17024 0.73891 0.69046 0.0
O107 O 0.07597 0.83157 0.70103 0.0
O108 O 0.98662 0.76751 0.69377 0.0
C109 C 0.97581 0.67853 0.73044 0.0
Fe110 Fe 0.32933 0.08759 0.85623 0.0
Fe111 Fe 0.33001 0.97235 0.85695 0.0
O112 O 0.35304 0.04205 0.86583 0.0
Fe113 Fe 0.39783 0.06474 0.88418 0.0
O114 O 0.34822 0.08019 0.89584 0.0
O115 O 0.32555 0.1228 0.87599 0.0
O116 O 0.2527 0.03339 0.85921 0.0
C117 C 0.23046 0.98261 0.85326 0.0
C118 C 0.44138 0.16988 0.86423 0.0
O119 O 0.26196 0.96186 0.84919 0.0
C120 C 0.44285 1.00325 0.8682 0.0
O121 O 0.32769 0.06025 0.83443 0.0
O122 O 0.3657 1.00391 0.83705 0.0
O123 O 0.44045 0.14152 0.87728 0.0
O124 O 0.40367 0.14584 0.85271 0.0
C125 C 0.31222 0.94647 0.89068 0.0
O126 O 0.39272 0.96746 0.86312 0.0
O127 O 0.45335 0.05088 0.87489 0.0
C128 C 0.34868 0.03106 0.82774 0.0
O129 O 0.29209 0.93626 0.87593 0.0
O130 O 0.36005 0.99215 0.89423 0.0
C131 C 0.32852 0.11262 0.89144 0.0
Fe132 Fe 0.73131 0.67815 0.84918 0.0
Fe133 Fe 0.63411 0.69003 0.83254 0.0
O134 O 0.69899 0.72107 0.84461 0.0
Fe135 Fe 0.73399 0.79452 0.8514 0.0
O136 O 0.80697 0.80599 0.84849 0.0
O137 O 0.79396 0.72552 0.83668 0.0
O138 O 0.70233 0.63061 0.83089 0.0
C139 C 0.69587 0.64584 0.81653 0.0
C140 C 0.75467 0.74368 0.8789 0.0
O141 O 0.67106 0.6756 0.8151 0.0
C142 C 0.61363 0.7564 0.85542 0.0
O143 O 0.66909 0.62891 0.86159 0.0
O144 O 0.60503 0.61537 0.84187 0.0
O145 O 0.73163 0.77273 0.87368 0.0
O146 O 0.76767 0.71629 0.86849 0.0
C147 C 0.69908 0.80452 0.81901 0.0
O148 O 0.59455 0.70649 0.84867 0.0
O149 O 0.66683 0.79483 0.855 0.0
C150 C 0.61955 0.59759 0.855 0.0
O151 O 0.65176 0.75726 0.8213 0.0
O152 O 0.73963 0.82248 0.82982 0.0
C153 C 0.82371 0.77987 0.83866 0.0
Fe154 Fe 0.05037 0.72141 1.01804 0.0
Fe155 Fe 0.9584 0.61965 0.99729 0.0
O156 O 0.97643 0.67488 1.01263 0.0
Fe157 Fe 0.9209 0.68416 1.02205 0.0
O158 O 0.953 0.75804 1.01527 0.0
O159 O 0.04351 0.7853 1.02166 0.0
O160 O 0.06915 0.7463 0.99655 0.0
C161 C 0.06215 0.71351 0.9843 0.0
C162 C 1.00244 0.70673 0.04934 0.0
O163 O 0.02744 0.65917 0.98551 0.0
C164 C 0.85831 0.56835 1.01913 0.0
O165 O 0.07041 0.66525 1.01549 0.0
O166 O 0.98811 0.58363 1.01044 0.0
O167 O 0.95753 0.70588 0.04314 0.0
O168 O 0.03752 0.70119 0.03994 0.0
C169 C 0.8914 0.66693 0.98701 0.0
O170 O 0.88436 0.57043 1.00555 0.0
O171 O 0.88256 0.60975 0.02939 0.0
C172 C 0.04038 0.61021 1.01576 0.0
O173 O 0.92957 0.65349 0.98331 0.0
O174 O 0.8769 0.66685 1.00232 0.0
C175 C 1.00486 0.79687 1.01719 0.0
Fe176 Fe 0.33428 0.03954 0.18501 0.0
Fe177 Fe 0.33116 0.93786 0.16541 0.0
O178 O 0.29984 0.96431 0.18025 0.0
Fe179 Fe 0.23338 0.91528 0.1902 0.0
O180 O 0.19738 0.95107 0.18164 0.0
O181 O 0.26628 0.03991 0.18805 0.0
O182 O 0.33013 0.0573 0.16346 0.0
C183 C 0.35043 0.04434 0.15103 0.0
C184 C 0.29743 0.99811 0.21651 0.0
O185 O 0.36329 1.00428 0.15211 0.0
C186 C 0.28058 0.84683 0.19029 0.0
O187 O 0.40833 0.05238 0.18246 0.0
O188 O 0.39838 0.966 0.17768 0.0
O189 O 0.25034 0.95697 0.21035 0.0
O190 O 0.34042 0.02787 0.20712 0.0
C191 C 0.216 0.87398 0.15617 0.0
O192 O 0.30196 0.86508 0.17573 0.0
O193 O 0.2661 0.87651 0.1992 0.0
C194 C 0.42942 0.01893 0.18205 0.0
O195 O 0.26758 0.90961 0.15187 0.0
O196 O 0.20267 0.86524 0.17171 0.0
C197 C 0.21593 1.00453 0.18263 0.0
Fe198 Fe 0.40083 0.33593 0.33085 0.0
Fe199 Fe 0.32762 0.23723 0.35557 0.0
O200 O 0.34379 0.30363 0.34591 0.0
Fe201 Fe 0.30246 0.33676 0.35126 0.0
O202 O 0.27957 0.33382 0.32985 0.0
O203 O 0.36524 0.36768 0.31793 0.0
O204 O 0.36538 0.27251 0.31723 0.0
C205 C 0.35059 0.2212 0.32151 0.0
C206 C 0.41755 0.43305 0.34798 0.0
O207 O 0.34776 0.20819 0.33701 0.0
C208 C 0.30711 0.29793 0.3824 0.0
O209 O 0.44567 0.30757 0.34092 0.0
O210 O 0.39934 0.27118 0.3645 0.0
O211 O 0.36295 0.41117 0.34885 0.0
O212 O 0.43988 0.40296 0.34317 0.0
C213 C 0.21962 0.21739 0.34887 0.0
O214 O 0.30203 0.25186 0.37585 0.0
O215 O 0.32102 0.34186 0.37335 0.0
C216 C 0.44354 0.28674 0.35552 0.0
O217 O 0.25567 0.20053 0.34702 0.0
O218 O 0.23493 0.26791 0.35426 0.0
C219 C 0.31234 0.35509 0.31736 0.0
Fe220 Fe 0.0655 0.39352 0.49491 0.0
Fe221 Fe 0.09067 0.3227 0.52124 0.0
O222 O 0.04386 0.34646 0.51266 0.0
Fe223 Fe 0.97422 0.32045 0.52186 0.0
O224 O 0.93772 0.28628 0.50253 0.0
O225 O 0.99263 0.35645 0.48479 0.0
O226 O 0.08143 0.3461 0.48223 0.0
C227 C 0.11569 0.32801 0.48601 0.0
C228 C 1.00347 0.43468 0.51243 0.0
O229 O 0.12788 0.32539 0.50128 0.0
C230 C 0.03238 0.33274 0.55072 0.0
O231 O 0.1424 0.43571 0.50206 0.0
O232 O 0.14585 0.39669 0.52631 0.0
O233 O 0.96858 0.38397 0.51733 0.0
O234 O 0.05083 0.44664 0.50531 0.0
C235 C 0.98588 0.2233 0.52042 0.0
O236 O 0.06235 0.31422 0.54321 0.0
O237 O 1.00541 0.35178 0.54216 0.0
C238 C 0.17016 0.43575 0.51522 0.0
O239 O 0.03849 0.24741 0.51611 0.0
O240 O 0.96621 0.25153 0.52779 0.0
C241 C 0.94697 0.30828 0.48806 0.0
Fe242 Fe 0.69048 0.98294 0.68778 0.0
Fe243 Fe 0.69608 0.06926 0.66126 0.0
O244 O 0.7254 0.0533 0.67919 0.0
Fe245 Fe 0.78961 0.10838 0.68927 0.0
O246 O 0.82818 0.07083 0.68465 0.0
O247 O 0.75891 0.98706 0.69428 0.0
O248 O 0.69774 0.95141 0.66873 0.0
C249 C 0.6797 0.95516 0.65442 0.0
C250 C 0.72298 0.03567 0.7173 0.0
O251 O 0.66979 0.99648 0.65099 0.0
C252 C 0.74044 0.17274 0.68241 0.0
O253 O 0.61636 0.96467 0.68245 0.0
O254 O 0.62487 0.04403 0.67115 0.0
O255 O 0.77129 0.0746 0.71109 0.0
O256 O 0.68087 0.01166 0.70733 0.0
C257 C 0.81257 0.1363 0.65414 0.0
O258 O 0.72004 0.14528 0.66853 0.0
O259 O 0.75417 0.14957 0.69407 0.0
C260 C 0.59394 0.99451 0.67787 0.0
O261 O 0.76349 0.09507 0.6496 0.0
O262 O 0.8225 0.15074 0.6696 0.0
C263 C 0.81111 0.02007 0.68971 0.0
H264 H 0.7814 0.56478 0.04344 0.0
H265 H 0.78721 0.4905 0.99534 0.0
H266 H 0.6813 0.44754 0.99248 0.0
H267 H 0.64026 0.4396 0.05671 0.0
H268 H 0.61758 0.48533 0.06705 0.0
H269 H 0.6938 0.50816 0.06571 0.0
H270 H 0.71303 0.60421 0.05175 0.0
H271 H 0.63663 0.58099 0.05262 0.0
H272 H 0.67439 0.60142 0.0328 0.0
H273 H 0.57707 0.41938 0.99337 0.0
H274 H 0.47593 0.39008 1.00051 0.0
H275 H 0.5328 0.47767 0.04861 0.0
C276 C 0.76029 0.53827 0.03249 0.0
C277 C 0.79338 0.53135 1.01959 0.0
C278 C 0.76352 0.49656 1.00544 0.0
C279 C 0.70318 0.47235 1.00361 0.0
C280 C 0.67259 0.48239 1.01611 0.0
C281 C 0.6996 0.51305 0.03052 0.0
C282 C 0.65562 0.5161 0.04215 0.0
C283 C 0.65157 0.48546 0.0589 0.0
C284 C 0.67085 0.57946 0.04499 0.0
C285 C 0.59983 0.48275 0.03193 0.0
C286 C 0.61126 0.46459 1.01685 0.0
C287 C 0.56757 0.43307 1.00517 0.0
C288 C 0.51025 0.41714 1.00928 0.0
C289 C 0.49644 0.4323 0.02498 0.0
C290 C 0.54214 0.46682 0.03634 0.0
H291 H 0.24889 0.75117 0.16949 0.0
H292 H 0.24595 0.80007 0.22138 0.0
H293 H 0.17462 0.69847 0.22816 0.0
H294 H 0.10145 0.64864 0.16543 0.0
H295 H 0.11003 0.59605 0.15334 0.0
H296 H 0.16457 0.67202 0.15232 0.0
H297 H 0.24456 0.64877 0.16125 0.0
H298 H 0.19061 0.57253 0.16175 0.0
H299 H 0.23478 0.60693 0.18004 0.0
H300 H 0.09349 0.59495 0.22866 0.0
H301 H 0.02678 0.48933 0.22464 0.0
H302 H 0.08754 0.50322 0.17345 0.0
C303 C 0.235 0.74016 0.18241 0.0
C304 C 0.25309 0.78409 0.19487 0.0
C305 C 0.23282 0.76755 0.21157 0.0
C306 C 0.19175 0.70989 0.21555 0.0
C307 C 0.172 0.66847 0.2028 0.0
C308 C 0.1945 0.68215 0.18673 0.0
C309 C 0.16623 0.62847 0.17554 0.0
C310 C 0.13365 0.63683 0.16078 0.0
C311 C 0.21175 0.61327 0.16928 0.0
C312 C 0.12399 0.58304 0.18781 0.0
C313 C 0.12719 0.60752 0.20336 0.0
C314 C 0.09104 0.57507 0.21659 0.0
C315 C 0.05256 0.51533 0.21413 0.0
C316 C 0.05127 0.48848 0.19868 0.0
C317 C 0.08695 0.52301 0.18529 0.0
H318 H 0.5058 0.25343 0.33463 0.0
H319 H 0.45966 0.25663 0.38677 0.0
H320 H 0.48935 0.18523 0.39388 0.0
H321 H 0.45906 0.10624 0.33156 0.0
H322 H 0.51888 0.11251 0.31928 0.0
H323 H 0.49902 0.16805 0.31798 0.0
H324 H 0.60361 0.2473 0.32622 0.0
H325 H 0.62436 0.1923 0.32696 0.0
H326 H 0.63636 0.23818 0.34497 0.0
H327 H 0.50812 0.10223 0.39468 0.0
H328 H 0.54341 0.03269 0.39093 0.0
H329 H 0.58873 0.08919 0.33934 0.0
C330 C 0.50428 0.24102 0.34766 0.0
C331 C 0.47991 0.26061 0.36011 0.0
C332 C 0.47789 0.24228 0.37697 0.0
C333 C 0.49412 0.20118 0.38114 0.0
C334 C 0.51401 0.17969 0.36843 0.0
C335 C 0.52171 0.20066 0.35218 0.0
C336 C 0.54533 0.17058 0.34109 0.0
C337 C 0.50304 0.13739 0.32662 0.0
C338 C 0.60603 0.21471 0.33442 0.0
C339 C 0.54834 0.12881 0.35359 0.0
C340 C 0.5287 0.13401 0.36918 0.0
C341 C 0.52448 0.09834 0.3826 0.0
C342 C 0.54366 0.05827 0.38029 0.0
C343 C 0.56777 0.05495 0.36481 0.0
C344 C 0.56949 0.09023 0.35122 0.0
H345 H 0.24781 0.45343 0.5411 0.0
H346 H 0.24016 0.49073 0.48831 0.0
H347 H 0.3448 0.52586 0.48566 0.0
H348 H 0.39244 0.58215 0.54872 0.0
H349 H 0.41373 0.54415 0.56327 0.0
H350 H 0.33814 0.52309 0.56111 0.0
H351 H 0.31368 0.4176 0.55467 0.0
H352 H 0.38946 0.43876 0.55633 0.0
H353 H 0.34943 0.40424 0.53744 0.0
H354 H 0.44783 0.54978 0.48784 0.0
H355 H 0.54903 0.58271 0.49612 0.0
H356 H 0.49468 0.53614 0.54786 0.0
C357 C 0.26838 0.4702 0.52907 0.0
C358 C 0.23516 0.46919 0.51492 0.0
C359 C 0.26412 0.49136 0.49941 0.0
C360 C 0.32366 0.51079 0.4977 0.0
C361 C 0.35435 0.5088 0.51166 0.0
C362 C 0.32834 0.49082 0.52718 0.0
C363 C 0.37245 0.49545 0.54026 0.0
C364 C 0.37962 0.5388 0.55416 0.0
C365 C 0.3552 0.43543 0.54761 0.0
C366 C 0.42715 0.51857 0.5296 0.0
C367 C 0.41506 0.52475 0.51308 0.0
C368 C 0.45789 0.54549 0.50076 0.0
C369 C 0.51523 0.56352 0.50556 0.0
C370 C 0.52988 0.56149 0.52259 0.0
C371 C 0.48477 0.53688 0.53469 0.0
H372 H 0.8085 0.24942 0.70744 0.0
H373 H 0.73935 0.24479 0.65763 0.0
H374 H 0.80107 0.35169 0.65582 0.0
H375 H 0.82096 0.38756 0.72093 0.0
H376 H 0.88765 0.40984 0.7323 0.0
H377 H 0.83505 0.33363 0.73002 0.0
H378 H 0.91479 0.31674 0.71711 0.0
H379 H 0.96733 0.39313 0.71898 0.0
H380 H 0.95386 0.35762 0.69883 0.0
H381 H 0.87379 0.45922 0.65887 0.0
H382 H 0.94401 0.5598 0.66768 0.0
H383 H 0.9687 0.49595 0.71526 0.0
C384 C 0.80511 0.27078 0.69627 0.0
C385 C 0.76815 0.2379 0.6827 0.0
C386 C 0.76637 0.26833 0.66828 0.0
C387 C 0.80183 0.32924 0.66708 0.0
C388 C 0.8392 0.35971 0.68039 0.0
C389 C 0.84045 0.33161 0.69482 0.0
C390 C 0.88513 0.37455 0.70724 0.0
C391 C 0.85542 0.37651 0.72359 0.0
C392 C 0.93311 0.35959 0.71074 0.0
C393 C 0.90901 0.43131 0.69754 0.0
C394 C 0.88194 0.42154 0.68203 0.0
C395 C 0.89536 0.46713 0.67093 0.0
C396 C 0.93582 0.52414 0.67598 0.0
C397 C 0.96327 0.53569 0.69192 0.0
C398 C 0.95014 0.48836 0.70276 0.0
H399 H 0.54075 0.78053 0.83737 0.0
H400 H 0.60902 0.78877 0.88731 0.0
H401 H 0.57905 0.85953 0.89577 0.0
H402 H 0.58935 0.92746 0.83357 0.0
H403 H 0.52709 0.9206 0.82241 0.0
H404 H 0.54565 0.86421 0.82076 0.0
H405 H 0.44296 0.78674 0.83098 0.0
H406 H 0.42328 0.84246 0.83194 0.0
H407 H 0.41495 0.79893 0.85022 0.0
H408 H 0.55133 0.93889 0.89776 0.0
H409 H 0.5106 1.0046 0.89459 0.0
H410 H 0.46216 0.94542 0.84328 0.0
C411 C 0.54618 0.79463 0.85035 0.0
C412 C 0.57504 0.77722 0.8619 0.0
C413 C 0.58484 0.79967 0.87848 0.0
C414 C 0.56895 0.84079 0.8833 0.0
C415 C 0.54346 0.85952 0.87136 0.0
C416 C 0.53076 0.836 0.85533 0.0
C417 C 0.50521 0.86514 0.84467 0.0
C418 C 0.54416 0.89617 0.82946 0.0
C419 C 0.44289 0.82068 0.83913 0.0
C420 C 0.50576 0.90872 0.85714 0.0
C421 C 0.52857 0.90543 0.87242 0.0
C422 C 0.53321 0.94162 0.88584 0.0
C423 C 0.51101 0.97972 0.88386 0.0
C424 C 0.48427 0.98108 0.86861 0.0
C425 C 0.48344 0.94625 0.85499 0.0
H426 H 0.54369 0.49992 0.83611 0.0
H427 H 0.62653 0.55267 0.88502 0.0
H428 H 0.59355 0.45044 0.89189 0.0
H429 H 0.41614 0.36133 0.85075 0.0
H430 H 0.41348 0.32284 0.83181 0.0
H431 H 0.44021 0.4 0.83112 0.0
H432 H 0.53579 0.41584 0.8177 0.0
H433 H 0.50991 0.3389 0.8187 0.0
H434 H 0.57816 0.38979 0.82842 0.0
H435 H 0.56025 0.3442 0.89269 0.0
H436 H 0.51467 0.23817 0.8893 0.0
H437 H 0.44896 0.25025 0.84033 0.0
C438 C 0.55332 0.48978 0.84845 0.0
C439 C 0.58771 0.53485 0.86004 0.0
C440 C 0.60028 0.51935 0.87592 0.0
C441 C 0.582 0.46124 0.87992 0.0
C442 C 0.55054 0.41831 0.868 0.0
C443 C 0.53502 0.43144 0.85273 0.0
C444 C 0.50106 0.37639 0.84224 0.0
C445 C 0.43904 0.36443 0.83878 0.0
C446 C 0.53316 0.3805 0.82579 0.0
C447 C 0.5006 0.33069 0.85393 0.0
C448 C 0.52996 0.35619 0.86864 0.0
C449 C 0.53661 0.32365 0.88128 0.0
C450 C 0.51084 0.26319 0.87914 0.0
C451 C 0.478 0.23504 0.86453 0.0
C452 C 0.47393 0.26993 0.85163 0.0
H453 H 0.05913 0.53027 0.99853 0.0
H454 H 0.09637 0.62673 0.04517 0.0
H455 H 0.16828 0.5975 0.05271 0.0
H456 H 0.07767 0.40938 1.01532 0.0
H457 H 0.11126 0.40402 0.99627 0.0
H458 H 0.05861 0.42785 0.99543 0.0
H459 H 0.13399 0.52137 0.98001 0.0
H460 H 0.18735 0.49855 0.98123 0.0
H461 H 0.20369 0.56811 0.98969 0.0
H462 H 0.24167 0.56422 0.05434 0.0
H463 H 0.30263 0.5187 0.05156 0.0
H464 H 0.22025 0.4449 1.0036 0.0
C465 C 0.08083 0.54318 1.0106 0.0
C466 C 0.07111 0.57957 1.02149 0.0
C467 C 0.10227 0.59781 0.03684 0.0
C468 C 0.14364 0.58189 0.04116 0.0
C469 C 0.15395 0.54787 0.02993 0.0
C470 C 0.12286 0.52785 1.01508 0.0
C471 C 0.14405 0.49331 1.00507 0.0
C472 C 0.09498 0.42987 1.0029 0.0
C473 C 0.16873 0.52207 0.98799 0.0
C474 C 0.19193 0.49749 1.01654 0.0
C475 C 0.19702 0.52936 0.03078 0.0
C476 C 0.23789 0.53893 0.04326 0.0
C477 C 0.27286 0.51331 0.04149 0.0
C478 C 0.26693 0.47827 0.02734 0.0
C479 C 0.22671 0.47181 1.01453 0.0
H480 H 0.50817 0.0777 0.20756 0.0
H481 H 0.49489 0.02935 0.15506 0.0
H482 H 0.60037 0.09696 0.15159 0.0
H483 H 0.61433 0.22665 0.20391 0.0
H484 H 0.65551 0.2307 0.2224 0.0
H485 H 0.57898 0.17788 0.22125 0.0
H486 H 0.60029 0.09437 0.22698 0.0
H487 H 0.6767 0.14712 0.22863 0.0
H488 H 0.65212 0.08751 0.214 0.0
H489 H 0.70342 0.1768 0.15293 0.0
H490 H 0.80548 0.24459 0.16021 0.0
H491 H 0.7583 0.23524 0.21278 0.0
C492 C 0.52807 0.08021 0.19549 0.0
C493 C 0.49368 0.0476 0.18159 0.0
C494 C 0.52072 0.05283 0.16591 0.0
C495 C 0.58042 0.0918 0.16378 0.0
C496 C 0.61285 0.12454 0.17756 0.0
C497 C 0.58835 0.11766 0.19328 0.0
C498 C 0.63439 0.15626 0.20611 0.0
C499 C 0.61991 0.20049 0.21388 0.0
C500 C 0.64129 0.1191 0.21974 0.0
C501 C 0.6883 0.18645 0.19505 0.0
C502 C 0.67408 0.16829 0.17857 0.0
C503 C 0.71529 0.19052 0.16583 0.0
C504 C 0.77326 0.22956 0.17012 0.0
C505 C 0.79046 0.2453 0.18709 0.0
C506 C 0.7468 0.22485 0.19968 0.0
H507 H 0.43686 0.51031 0.37369 0.0
H508 H 0.47048 0.49951 0.32095 0.0
H509 H 0.50459 0.60431 0.31766 0.0
H510 H 0.38822 0.61154 0.37072 0.0
H511 H 0.42533 0.6533 0.38914 0.0
H512 H 0.40454 0.57756 0.38784 0.0
H513 H 0.51116 0.60325 0.393 0.0
H514 H 0.53189 0.67882 0.39486 0.0
H515 H 0.56811 0.65688 0.37991 0.0
H516 H 0.52412 0.70611 0.31929 0.0
H517 H 0.55606 0.80744 0.32691 0.0
H518 H 0.52126 0.75813 0.37942 0.0
C519 C 0.45327 0.53069 0.36161 0.0
C520 C 0.45212 0.49724 0.34759 0.0
C521 C 0.47251 0.52477 0.33189 0.0
C522 C 0.49101 0.58401 0.32986 0.0
C523 C 0.48991 0.61543 0.34376 0.0
C524 C 0.47385 0.59053 0.35949 0.0
C525 C 0.47999 0.63548 0.37246 0.0
C526 C 0.421 0.61842 0.38051 0.0
C527 C 0.5255 0.64413 0.38584 0.0
C528 C 0.50115 0.68924 0.36148 0.0
C529 C 0.505 0.67589 0.34491 0.0
C530 C 0.52224 0.71732 0.33225 0.0
C531 C 0.53975 0.77477 0.33672 0.0
C532 C 0.54144 0.79112 0.35378 0.0
C533 C 0.51971 0.74713 0.36626 0.0
H534 H 0.93768 0.44558 0.53666 0.0
H535 H 1.01188 0.51002 0.4875 0.0
H536 H 0.94771 0.55234 0.48415 0.0
H537 H 0.79396 0.40245 0.52672 0.0
H538 H 0.77685 0.42479 0.54626 0.0
H539 H 0.83228 0.40465 0.54568 0.0
H540 H 0.90812 0.50435 0.55825 0.0
H541 H 0.85233 0.52382 0.55953 0.0
H542 H 0.91902 0.57031 0.54849 0.0
H543 H 0.86889 0.57976 0.48533 0.0
H544 H 0.79688 0.6086 0.49317 0.0
H545 H 0.77364 0.52564 0.54159 0.0
C546 C 0.94186 0.47038 0.52542 0.0
C547 C 0.98038 0.47523 0.5124 0.0
C548 C 0.98381 0.507 0.49777 0.0
C549 C 0.94674 0.53023 0.49567 0.0
C550 C 0.90692 0.52166 0.50838 0.0
C551 C 0.90551 0.49397 0.52318 0.0
C552 C 0.85883 0.49039 0.53493 0.0
C553 C 0.81277 0.42678 0.53861 0.0
C554 C 0.8862 0.52425 0.55126 0.0
C555 C 0.83353 0.51993 0.52439 0.0
C556 C 0.86149 0.53705 0.50903 0.0
C557 C 0.84676 0.56643 0.49729 0.0
C558 C 0.80505 0.58176 0.50174 0.0
C559 C 0.77829 0.56772 0.51776 0.0
C560 C 0.79145 0.53475 0.529 0.0
H561 H 0.51729 0.93439 0.70343 0.0
H562 H 0.52474 0.98266 0.65111 0.0
H563 H 0.41878 0.91447 0.64842 0.0
H564 H 0.41169 0.78504 0.69996 0.0
H565 H 0.37292 0.78084 0.71896 0.0
H566 H 0.44916 0.83398 0.71716 0.0
H567 H 0.42814 0.91721 0.72375 0.0
H568 H 0.35222 0.86399 0.7261 0.0
H569 H 0.37423 0.92344 0.71157 0.0
H570 H 0.31469 0.83396 0.65064 0.0
H571 H 0.21374 0.76548 0.6589 0.0
H572 H 0.26881 0.77522 0.71075 0.0
C573 C 0.49617 0.9316 0.69153 0.0
C574 C 0.52921 0.9644 0.67748 0.0
C575 C 0.50025 0.95901 0.66208 0.0
C576 C 0.44019 0.9197 0.66041 0.0
C577 C 0.40924 0.8868 0.67434 0.0
C578 C 0.4357 0.89381 0.68978 0.0
C579 C 0.39145 0.85508 0.70293 0.0
C580 C 0.40728 0.81114 0.71018 0.0
C581 C 0.38619 0.89214 0.71691 0.0
C582 C 0.33608 0.82453 0.6924 0.0
C583 C 0.34798 0.84273 0.67587 0.0
C584 C 0.3048 0.82016 0.66359 0.0
C585 C 0.24746 0.78065 0.66842 0.0
C586 C 0.23272 0.76448 0.68549 0.0
C587 C 0.27832 0.78557 0.69756 0.0
H588 H 0.35365 0.25177 0.98273 0.0
H589 H 0.24274 0.31786 0.9656 0.0
H590 H 0.23661 0.2743 0.93745 0.0
H591 H 0.43282 0.26922 0.94466 0.0
H592 H 0.43302 0.20188 0.9472 0.0
H593 H 0.43034 0.24076 0.96539 0.0
H594 H 0.33618 0.14856 0.97528 0.0
H595 H 0.33873 0.10957 0.95708 0.0
H596 H 0.27455 0.11426 0.96127 0.0
H597 H 0.24611 0.22388 0.91037 0.0
H598 H 0.26467 0.16861 0.8885 0.0
H599 H 0.36263 0.1297 0.92469 0.0
C600 C 0.32877 0.25809 0.97301 0.0
C601 C 0.29981 0.28976 0.97635 0.0
C602 C 0.26605 0.29477 0.96335 0.0
C603 C 0.26228 0.26995 0.94731 0.0
C604 C 0.29135 0.23889 0.94451 0.0
C605 C 0.32336 0.23242 0.95716 0.0
C606 C 0.34816 0.19466 0.95145 0.0
C607 C 0.41505 0.22867 0.95222 0.0
C608 C 0.32291 0.13845 0.96189 0.0
C609 C 0.32643 0.18172 0.93344 0.0
C610 C 0.29393 0.20772 0.92957 0.0
C611 C 0.27108 0.20306 0.91343 0.0
C612 C 0.28186 0.17147 0.90103 0.0
C613 C 0.31462 0.14397 0.90478 0.0
C614 C 0.33668 0.14923 0.92133 0.0
H615 H 0.11458 0.3509 0.15055 0.0
H616 H 0.93707 0.24736 0.13277 0.0
H617 H 0.97386 0.2475 0.10407 0.0
H618 H 0.17889 0.43844 0.11355 0.0
H619 H 0.24512 0.43557 0.11519 0.0
H620 H 0.20438 0.43035 0.13382 0.0
H621 H 0.19879 0.33283 0.14142 0.0
H622 H 0.23931 0.33754 0.12279 0.0
H623 H 0.16915 0.27408 0.1264 0.0
H624 H 0.03223 0.26205 0.07673 0.0
H625 H 0.10462 0.281 0.05446 0.0
H626 H 0.24383 0.36705 0.09092 0.0
C627 C 0.08334 0.32914 0.14054 0.0
C628 C 0.02268 0.30038 0.14385 0.0
C629 C 0.98353 0.27044 0.13052 0.0
C630 C 1.00418 0.27031 0.11417 0.0
C631 C 0.0643 0.29904 0.11137 0.0
C632 C 0.10324 0.32714 0.12431 0.0
C633 C 0.1656 0.35131 0.11839 0.0
C634 C 0.20055 0.41787 0.12035 0.0
C635 C 0.19494 0.32221 0.12781 0.0
C636 C 0.15606 0.33362 0.09999 0.0
C637 C 0.09736 0.30396 0.09611 0.0
C638 C 0.07818 0.28484 0.07974 0.0
C639 C 0.11975 0.29598 0.06711 0.0
C640 C 0.18017 0.32525 0.07083 0.0
C641 C 0.19811 0.34407 0.08759 0.0
H642 H 0.87076 0.23099 0.25574 0.0
H643 H 0.83514 0.08794 0.2223 0.0
H644 H 0.78349 0.01816 0.24543 0.0
H645 H 0.89512 0.17197 0.29325 0.0
H646 H 0.85991 0.1994 0.30675 0.0
H647 H 0.89393 0.23711 0.2876 0.0
H648 H 0.79693 0.22933 0.27804 0.0
H649 H 0.76256 0.19147 0.29715 0.0
H650 H 0.73186 0.15889 0.2771 0.0
H651 H 0.74057 0.96397 0.27372 0.0
H652 H 0.70457 0.93184 0.30275 0.0
H653 H 0.76192 0.11043 0.31657 0.0
C654 C 0.85212 0.18497 0.2532 0.0
C655 C 0.85761 0.16523 0.23709 0.0
C656 C 0.83172 0.10442 0.23443 0.0
C657 C 0.80237 0.06441 0.24757 0.0
C658 C 0.7982 0.08552 0.26332 0.0
C659 C 0.82187 0.14453 0.26605 0.0
C660 C 0.81068 0.1565 0.28393 0.0
C661 C 0.86833 0.19343 0.29344 0.0
C662 C 0.77328 0.18577 0.28405 0.0
C663 C 0.77732 0.09516 0.29096 0.0
C664 C 0.77106 0.05466 0.279 0.0
C665 C 0.74459 0.99548 0.28303 0.0
C666 C 0.72419 0.97751 0.29958 0.0
C667 C 0.7291 0.01819 0.31195 0.0
C668 C 0.75592 0.07779 0.30738 0.0
H669 H 0.65579 0.8907 0.42568 0.0
H670 H 0.72133 0.81381 0.39008 0.0
H671 H 0.74341 0.76673 0.41368 0.0
H672 H 0.75998 0.9206 0.45827 0.0
H673 H 0.70817 0.90305 0.475 0.0
H674 H 0.69785 0.92998 0.45529 0.0
H675 H 0.59516 0.83909 0.45241 0.0
H676 H 0.60507 0.81199 0.47214 0.0
H677 H 0.58702 0.76757 0.45352 0.0
H678 H 0.76115 0.72986 0.44244 0.0
H679 H 0.76662 0.70387 0.47213 0.0
H680 H 0.6863 0.8035 0.48798 0.0
C681 C 0.67468 0.86389 0.42273 0.0
C682 C 0.68681 0.85629 0.40585 0.0
C683 C 0.71141 0.82046 0.40279 0.0
C684 C 0.72428 0.7936 0.41618 0.0
C685 C 0.71207 0.80249 0.43266 0.0
C686 C 0.68733 0.83656 0.43587 0.0
C687 C 0.67748 0.83913 0.45455 0.0
C688 C 0.71299 0.90191 0.46116 0.0
C689 C 0.61232 0.81287 0.45837 0.0
C690 C 0.70055 0.80132 0.46147 0.0
C691 C 0.72078 0.78071 0.44875 0.0
C692 C 0.74503 0.74569 0.4524 0.0
C693 C 0.74815 0.7312 0.46935 0.0
C694 C 0.72667 0.75114 0.48254 0.0
C695 C 0.70278 0.78684 0.47833 0.0
H696 H 0.79742 0.62923 0.5876 0.0
H697 H 0.91441 0.79434 0.56376 0.0
H698 H 0.98375 0.81915 0.5872 0.0
H699 H 0.82253 0.6838 0.62977 0.0
H700 H 0.81898 0.62001 0.63892 0.0
H701 H 0.77952 0.61377 0.61988 0.0
H702 H 0.83131 0.56545 0.60504 0.0
H703 H 0.87112 0.57177 0.62404 0.0
H704 H 0.90971 0.6025 0.60472 0.0
H705 H 0.04012 0.82799 0.61386 0.0
H706 H 0.07684 0.82101 0.6418 0.0
H707 H 0.92406 0.65061 0.64871 0.0
C708 C 0.83782 0.67041 0.58721 0.0
C709 C 0.85016 0.70958 0.57362 0.0
C710 C 0.90354 0.76328 0.57386 0.0
C711 C 0.94347 0.77784 0.58717 0.0
C712 C 0.92991 0.73847 0.60033 0.0
C713 C 0.87832 0.68585 0.60049 0.0
C714 C 0.87362 0.65224 0.61646 0.0
C715 C 0.82052 0.64186 0.62687 0.0
C716 C 0.87131 0.59457 0.61231 0.0
C717 C 0.9303 0.69433 0.6253 0.0
C718 C 0.96228 0.74369 0.61572 0.0
C719 C 0.01547 0.78935 0.62141 0.0
C720 C 0.03613 0.78493 0.63734 0.0
C721 C 1.00385 0.73522 0.64759 0.0
C722 C 0.9504 0.6891 0.64125 0.0
H723 H 0.24001 0.95262 0.81668 0.0
H724 H 0.41711 0.05693 0.79925 0.0
H725 H 0.38575 0.01334 0.77074 0.0
H726 H 0.21106 0.82298 0.79401 0.0
H727 H 0.13559 0.80084 0.79066 0.0
H728 H 0.1736 0.84391 0.80875 0.0
H729 H 0.14495 0.92136 0.79956 0.0
H730 H 0.10751 0.8766 0.78164 0.0
H731 H 0.16346 0.95139 0.77873 0.0
H732 H 0.3319 0.95665 0.7436 0.0
H733 H 0.26514 0.88909 0.72189 0.0
H734 H 0.12564 0.81498 0.75838 0.0
C735 C 0.27212 0.96678 0.80686 0.0
C736 C 0.33088 0.00909 0.81017 0.0
C737 C 0.37175 0.02542 0.79697 0.0
C738 C 0.35419 1.00067 0.78075 0.0
C739 C 0.29573 0.95857 0.77798 0.0
C740 C 0.25556 0.94136 0.79082 0.0
C741 C 0.19626 0.89268 0.78513 0.0
C742 C 0.17804 0.8368 0.79523 0.0
C743 C 0.15032 0.91161 0.78634 0.0
C744 C 0.2087 0.88527 0.76697 0.0
C745 C 0.26614 0.92408 0.76297 0.0
C746 C 0.28709 0.92603 0.74674 0.0
C747 C 0.24874 0.88746 0.73444 0.0
C748 C 0.19011 0.84622 0.73838 0.0
C749 C 0.17024 0.84542 0.75495 0.0
H750 H 0.82969 0.71016 0.89108 0.0
H751 H 0.71517 0.7723 0.90789 0.0
H752 H 0.73669 0.75969 0.93755 0.0
H753 H 0.79134 0.6006 0.92171 0.0
H754 H 0.86398 0.61213 0.92382 0.0
H755 H 0.84114 0.62859 0.90428 0.0
H756 H 0.92818 0.73413 0.90548 0.0
H757 H 0.95163 0.71788 0.92495 0.0
H758 H 0.9384 0.77806 0.92383 0.0
H759 H 0.76938 0.73452 0.96604 0.0
H760 H 0.81258 0.70623 0.98926 0.0
H761 H 0.90553 0.66203 0.95283 0.0
C762 C 0.80919 0.72168 0.90093 0.0
C763 C 0.77049 0.74233 0.89699 0.0
C764 C 0.74518 0.75684 0.91045 0.0
C765 C 0.75703 0.74947 0.92737 0.0
C766 C 0.79465 0.72791 0.93071 0.0
C767 C 0.82072 0.7149 0.91773 0.0
C768 C 0.85929 0.69218 0.92431 0.0
C769 C 0.83762 0.62967 0.91816 0.0
C770 C 0.92315 0.733 0.91935 0.0
C771 C 0.85084 0.69374 0.94309 0.0
C772 C 0.81337 0.71432 0.94665 0.0
C773 C 0.79887 0.71865 0.96326 0.0
C774 C 0.82354 0.7022 0.97643 0.0
C775 C 0.86261 0.6816 0.97305 0.0
C776 C 0.87592 0.67741 0.95603 0.0
H777 H 0.11237 0.75476 0.06256 0.0
H778 H 0.93477 0.69955 0.07696 0.0
H779 H 0.96825 0.73152 0.10627 0.0
H780 H 0.15865 0.7163 0.10079 0.0
H781 H 0.23036 0.77967 0.1002 0.0
H782 H 0.19116 0.74886 0.08093 0.0
H783 H 0.20275 0.84864 0.07285 0.0
H784 H 0.24192 0.87972 0.09209 0.0
H785 H 0.17801 0.88424 0.08718 0.0
H786 H 0.02441 0.77066 0.1348 0.0
H787 H 0.09583 0.81907 0.15789 0.0
H788 H 0.23615 0.85376 0.1236 0.0
C789 C 0.08003 0.74846 0.07187 0.0
C790 C 0.02043 0.72349 0.06736 0.0
C791 C 0.98041 0.71789 0.08001 0.0
C792 C 0.99919 0.73597 0.09673 0.0
C793 C 0.05841 0.76053 0.10067 0.0
C794 C 0.09815 0.76724 0.08844 0.0
C795 C 0.15977 0.79785 0.0954 0.0
C796 C 0.18655 0.7583 0.09426 0.0
C797 C 0.19784 0.85606 0.08634 0.0
C798 C 0.149 0.80744 0.11352 0.0
C799 C 0.09027 0.78504 0.11647 0.0
C800 C 0.07038 0.78842 0.13248 0.0
C801 C 0.11134 0.81585 0.14559 0.0
C802 C 0.17191 0.84061 0.14268 0.0
C803 C 0.19037 0.83573 0.12635 0.0
H804 H 0.35947 0.11007 0.2283 0.0
H805 H 0.23881 0.93416 0.24457 0.0
H806 H 0.24217 0.97077 0.27352 0.0
H807 H 0.44699 0.16189 0.26591 0.0
H808 H 0.45434 0.23306 0.26482 0.0
H809 H 0.4448 0.19219 0.24585 0.0
H810 H 0.35496 0.20138 0.23799 0.0
H811 H 0.36429 0.24232 0.25693 0.0
H812 H 0.2958 0.1774 0.25271 0.0
H813 H 0.26148 0.02877 0.30133 0.0
H814 H 0.28614 0.10171 0.32396 0.0
H815 H 0.38781 0.2399 0.28857 0.0
C816 C 0.33425 0.07898 0.23798 0.0
C817 C 0.29961 0.01885 0.23416 0.0
C818 C 0.26604 0.98019 0.24716 0.0
C819 C 0.26782 1.0007 0.26367 0.0
C820 C 0.30251 0.06031 0.26698 0.0
C821 C 0.33444 0.09889 0.25437 0.0
C822 C 0.36546 0.1612 0.26079 0.0
C823 C 0.43183 0.18869 0.25925 0.0
C824 C 0.34382 0.19771 0.25156 0.0
C825 C 0.34661 0.15197 0.27905 0.0
C826 C 0.31088 0.09346 0.28249 0.0
C827 C 0.28915 0.07461 0.29866 0.0
C828 C 0.30363 0.11642 0.3115 0.0
C829 C 0.33882 0.17676 0.30814 0.0
C830 C 0.36056 0.19428 0.29163 0.0
H831 H 0.25293 0.35612 0.3941 0.0
H832 H 0.30768 0.23464 0.40982 0.0
H833 H 0.26587 0.2294 0.43808 0.0
H834 H 0.27613 0.43322 0.43335 0.0
H835 H 0.21168 0.4391 0.43125 0.0
H836 H 0.2488 0.43546 0.41278 0.0
H837 H 0.15311 0.34668 0.40217 0.0
H838 H 0.11577 0.34987 0.42064 0.0
H839 H 0.11526 0.28358 0.41543 0.0
H840 H 0.21903 0.24007 0.46526 0.0
H841 H 0.16664 0.25982 0.48769 0.0
H842 H 0.13548 0.36784 0.45326 0.0
C843 C 0.257 0.32905 0.40355 0.0
C844 C 0.28484 0.29664 0.39978 0.0
C845 C 0.28732 0.26037 0.41242 0.0
C846 C 0.26357 0.25714 0.42852 0.0
C847 C 0.2362 0.28947 0.43177 0.0
C848 C 0.23227 0.32423 0.41953 0.0
C849 C 0.19799 0.35224 0.42583 0.0
C850 C 0.23592 0.41896 0.4258 0.0
C851 C 0.14224 0.33187 0.4154 0.0
C852 C 0.1838 0.32858 0.44363 0.0
C853 C 0.20663 0.29285 0.4469 0.0
C854 C 0.20065 0.2676 0.46271 0.0
C855 C 0.17078 0.27911 0.47542 0.0
C856 C 0.14618 0.31489 0.4723 0.0
C857 C 0.15284 0.33959 0.45608 0.0
H858 H 0.92036 0.27574 0.56231 0.0
H859 H 0.09804 0.34055 0.57864 0.0
H860 H 0.06231 0.30086 0.60721 0.0
H861 H 0.86119 0.29667 0.60104 0.0
H862 H 0.79318 0.22934 0.59893 0.0
H863 H 0.83351 0.26725 0.58047 0.0
H864 H 0.83396 0.17452 0.5706 0.0
H865 H 0.79382 0.13638 0.58905 0.0
H866 H 0.86227 0.1407 0.58438 0.0
H867 H 1.00457 0.25421 0.6347 0.0
H868 H 0.93229 0.19803 0.65685 0.0
H869 H 0.79258 0.15528 0.62134 0.0
C870 C 0.95192 0.28272 0.572 0.0
C871 C 1.01234 0.31296 0.56834 0.0
C872 C 0.0518 0.31872 0.58121 0.0
C873 C 0.03174 0.29615 0.59747 0.0
C874 C 0.9718 0.26639 0.60064 0.0
C875 C 0.93251 0.25897 0.58811 0.0
C876 C 0.87025 0.22159 0.59421 0.0
C877 C 0.83762 0.25576 0.59363 0.0
C878 C 0.8382 0.16495 0.58395 0.0
C879 C 0.88025 0.20949 0.61221 0.0
C880 C 0.93908 0.23634 0.61581 0.0
C881 C 0.95852 0.23272 0.63188 0.0
C882 C 0.91708 0.20076 0.64444 0.0
C883 C 0.85658 0.17153 0.6409 0.0
C884 C 0.8384 0.17628 0.62448 0.0
H885 H 0.75319 0.92498 0.81112 0.0
H886 H 0.66063 0.75197 0.78918 0.0
H887 H 0.66279 0.79419 0.76166 0.0
H888 H 0.67913 0.98343 0.78711 0.0
H889 H 0.74159 0.05463 0.78391 0.0
H890 H 0.73788 0.01274 0.80216 0.0
H891 H 0.83628 0.02149 0.79415 0.0
H892 H 0.84042 0.06362 0.7759 0.0
H893 H 0.8451 0.99857 0.77359 0.0
H894 H 0.66711 0.85039 0.73722 0.0
H895 H 0.67517 0.91935 0.71582 0.0
H896 H 0.76735 0.06253 0.75097 0.0
C897 C 0.73424 0.89629 0.80043 0.0
C898 C 0.7065 0.83468 0.80246 0.0
C899 C 0.68161 0.79889 0.78814 0.0
C900 C 0.68279 0.82256 0.77235 0.0
C901 C 0.70893 0.88269 0.77079 0.0
C902 C 0.73449 0.91955 0.78429 0.0
C903 C 0.7573 0.9827 0.77872 0.0
C904 C 0.72718 0.00999 0.78857 0.0
C905 C 0.82374 0.01874 0.78071 0.0
C906 C 0.73967 0.97494 0.76012 0.0
C907 C 0.71198 0.91646 0.75608 0.0
C908 C 0.68912 0.89634 0.74019 0.0
C909 C 0.69395 0.93643 0.72805 0.0
C910 C 0.72213 0.99717 0.73142 0.0
C911 C 0.74605 0.01677 0.74779 0.0
H912 H 0.33247 0.13633 0.14599 0.0
H913 H 0.39211 0.03094 0.12063 0.0
H914 H 0.40567 0.08706 0.09455 0.0
H915 H 0.25082 0.14441 0.11222 0.0
H916 H 0.26877 0.21829 0.11643 0.0
H917 H 0.26793 0.17283 0.13332 0.0
H918 H 0.37405 0.2494 0.14094 0.0
H919 H 0.37543 0.29524 0.12404 0.0
H920 H 0.42977 0.2736 0.12508 0.0
H921 H 0.4061 0.14978 0.0709 0.0
H922 H 0.39283 0.21368 0.05113 0.0
H923 H 0.33453 0.28008 0.09191 0.0
C924 C 0.34893 0.12516 0.13503 0.0
C925 C 0.36138 0.07906 0.13542 0.0
C926 C 0.38251 0.06605 0.1207 0.0
C927 C 0.3904 0.09778 0.10584 0.0
C928 C 0.37727 0.14258 0.10592 0.0
C929 C 0.35708 0.15634 0.12015 0.0
C930 C 0.34372 0.20475 0.11675 0.0
C931 C 0.27897 0.18379 0.11986 0.0
C932 C 0.38311 0.25896 0.12733 0.0
C933 C 0.35871 0.21564 0.09825 0.0
C934 C 0.37821 0.17939 0.09231 0.0
C935 C 0.39159 0.17878 0.07546 0.0
C936 C 0.38389 0.21523 0.06434 0.0
C937 C 0.36334 0.25226 0.07005 0.0
C938 C 0.3516 0.25323 0.0873 0.0
H939 H 0.12804 0.29742 0.2337 0.0
H940 H 0.08087 0.42183 0.2523 0.0
H941 H 0.15 0.44581 0.27596 0.0
H942 H 0.13737 0.24352 0.274 0.0
H943 H 0.19722 0.23315 0.2683 0.0
H944 H 0.14668 0.22876 0.25248 0.0
H945 H 0.23248 0.30797 0.23522 0.0
H946 H 0.28314 0.31312 0.25116 0.0
H947 H 0.28112 0.37726 0.24482 0.0
H948 H 0.22218 0.45426 0.2979 0.0
H949 H 0.28365 0.43893 0.31827 0.0
H950 H 0.28313 0.30801 0.28572 0.0
C951 C 0.13252 0.33006 0.24269 0.0
C952 C 0.09935 0.35817 0.24108 0.0
C953 C 0.10571 0.39974 0.25328 0.0
C954 C 0.14522 0.41393 0.26667 0.0
C955 C 0.17772 0.38588 0.26775 0.0
C956 C 0.17119 0.34421 0.2562 0.0
C957 C 0.20835 0.31758 0.26082 0.0
C958 C 0.17012 0.25188 0.2641 0.0
C959 C 0.25399 0.32974 0.24719 0.0
C960 C 0.23676 0.3506 0.27685 0.0
C961 C 0.21896 0.39029 0.28049 0.0
C962 C 0.23686 0.42385 0.29507 0.0
C963 C 0.27209 0.41521 0.30649 0.0
C964 C 0.28926 0.37355 0.30329 0.0
C965 C 0.2723 0.34162 0.28813 0.0
H966 H 0.82383 0.14513 0.40032 0.0
H967 H 0.65391 0.05256 0.42398 0.0
H968 H 0.69498 0.11258 0.44949 0.0
H969 H 0.90657 0.15605 0.43672 0.0
H970 H 0.96587 0.2277 0.43186 0.0
H971 H 0.92253 0.1796 0.41517 0.0
H972 H 0.90007 0.25805 0.40421 0.0
H973 H 0.94312 0.30631 0.42094 0.0
H974 H 0.86841 0.28797 0.4182 0.0
H975 H 0.75515 0.17846 0.47291 0.0
H976 H 0.83042 0.24422 0.49294 0.0
H977 H 0.96182 0.29651 0.45417 0.0
C978 C 0.79497 0.13772 0.41079 0.0
C979 C 0.73531 0.09406 0.41005 0.0
C980 C 0.69953 0.08565 0.42416 0.0
C981 C 0.72249 0.11969 0.43871 0.0
C982 C 0.78134 0.16219 0.43899 0.0
C983 C 0.81717 0.17134 0.42541 0.0
C984 C 0.87942 0.2184 0.42921 0.0
C985 C 0.92104 0.19396 0.42818 0.0
C986 C 0.89888 0.27079 0.41744 0.0
C987 C 0.87318 0.23389 0.44715 0.0
C988 C 0.8161 0.20097 0.45248 0.0
C989 C 0.79978 0.2049 0.46881 0.0
C990 C 0.8429 0.24247 0.4801 0.0
C991 C 0.90185 0.27615 0.47507 0.0
C992 C 0.91692 0.27249 0.45825 0.0
H993 H 0.64485 0.78463 0.5672 0.0
H994 H 0.63791 0.64622 0.59783 0.0
H995 H 0.63718 0.69854 0.62344 0.0
H996 H 0.74546 0.89884 0.59341 0.0
H997 H 0.71519 0.94561 0.5903 0.0
H998 H 0.70736 0.8945 0.57422 0.0
H999 H 0.59566 0.84964 0.5747 0.0
H1000 H 0.60288 0.90078 0.59075 0.0
H1001 H 0.55702 0.82376 0.59427 0.0
H1002 H 0.64192 0.76626 0.64542 0.0
H1003 H 0.65781 0.84772 0.66327 0.0
H1004 H 0.66846 0.94893 0.61911 0.0
C1005 C 0.64167 0.76467 0.5793 0.0
C1006 C 0.64011 0.71053 0.58054 0.0
C1007 C 0.63823 0.687 0.5966 0.0
C1008 C 0.6378 0.71648 0.61119 0.0
C1009 C 0.6403 0.77004 0.60955 0.0
C1010 C 0.64266 0.79433 0.59405 0.0
C1011 C 0.65052 0.85504 0.59598 0.0
C1012 C 0.70805 0.90122 0.58801 0.0
C1013 C 0.5984 0.85742 0.58848 0.0
C1014 C 0.65231 0.86109 0.61503 0.0
C1015 C 0.64568 0.811 0.62246 0.0
C1016 C 0.64711 0.80562 0.63975 0.0
C1017 C 0.65647 0.85268 0.64979 0.0
C1018 C 0.66489 0.90551 0.6427 0.0
C1019 C 0.66183 0.9093 0.62498 0.0
H1020 H 0.93084 0.74312 0.74301 0.0
H1021 H 0.93253 0.58256 0.75119 0.0
H1022 H 0.8563 0.55423 0.773 0.0
H1023 H 0.90999 0.76597 0.78719 0.0
H1024 H 0.86441 0.79668 0.7826 0.0
H1025 H 0.91991 0.80549 0.76796 0.0
H1026 H 0.84452 0.75951 0.74434 0.0
H1027 H 0.78786 0.75121 0.75843 0.0
H1028 H 0.78081 0.68894 0.7472 0.0
H1029 H 0.77569 0.54161 0.79281 0.0
H1030 H 0.70696 0.55072 0.81169 0.0
H1031 H 0.75826 0.72027 0.79069 0.0
C1032 C 0.91575 0.70229 0.74957 0.0
C1033 C 0.93763 0.66491 0.7454 0.0
C1034 C 0.91692 0.61207 0.75429 0.0
C1035 C 0.87322 0.59548 0.76657 0.0
C1036 C 0.85131 0.63259 0.76997 0.0
C1037 C 0.87288 0.68553 0.76197 0.0
C1038 C 0.84299 0.71814 0.76813 0.0
C1039 C 0.8869 0.77494 0.777 0.0
C1040 C 0.81209 0.73008 0.75366 0.0
C1041 C 0.79965 0.67453 0.78046 0.0
C1042 C 0.80531 0.62552 0.78136 0.0
C1043 C 0.77102 0.57977 0.79217 0.0
C1044 C 0.73164 0.5851 0.80273 0.0
C1045 C 0.72622 0.63559 0.80242 0.0
C1046 C 0.75997 0.68036 0.79085 0.0
H1047 H 0.14094 0.82867 0.97741 0.0
H1048 H 0.06542 0.65465 0.95639 0.0
H1049 H 0.12546 0.69532 0.93098 0.0
H1050 H 0.14692 0.90057 0.93816 0.0
H1051 H 0.21415 0.96526 0.94364 0.0
H1052 H 0.16455 0.92087 0.95987 0.0
H1053 H 0.24938 0.91325 0.97371 0.0
H1054 H 0.29774 0.95556 0.95699 0.0
H1055 H 0.28658 0.88426 0.96167 0.0
H1056 H 0.19 0.7547 0.90736 0.0
H1057 H 0.25484 0.82906 0.887 0.0
H1058 H 0.29208 0.96485 0.92344 0.0
C1059 C 0.13722 0.79898 0.96752 0.0
C1060 C 0.09851 0.73821 0.969 0.0
C1061 C 0.09473 0.70119 0.95564 0.0
C1062 C 0.12877 0.72391 0.94114 0.0
C1063 C 0.16655 0.78381 0.94014 0.0
C1064 C 0.17093 0.82093 0.95294 0.0
C1065 C 0.21385 0.88383 0.94845 0.0
C1066 C 0.18306 0.91977 0.94747 0.0
C1067 C 0.26493 0.91079 0.96095 0.0
C1068 C 0.23338 0.8762 0.9312 0.0
C1069 C 0.2051 0.8181 0.92663 0.0
C1070 C 0.2129 0.8002 0.91088 0.0
C1071 C 0.24982 0.84272 0.89941 0.0
C1072 C 0.2792 0.90251 0.90375 0.0
C1073 C 0.27143 0.91932 0.91996 0.0
H1074 H 0.23049 0.12705 1.01135 0.0
H1075 H 0.09495 0.16175 0.0279 0.0
H1076 H 0.02187 0.05766 0.02396 0.0
H1077 H 0.1437 0.01096 0.98047 0.0
H1078 H 0.1803 0.97199 0.98651 0.0
H1079 H 0.21817 0.05023 0.98763 0.0
H1080 H 0.24156 0.04388 1.01903 0.0
H1081 H 0.20266 0.96589 1.01786 0.0
H1082 H 0.18262 1.00212 0.03337 0.0
H1083 H 0.96681 0.94917 1.02127 0.0
H1084 H 0.93534 0.84428 1.02195 0.0
H1085 H 0.10935 0.8845 1.00787 0.0
C1086 C 0.18533 0.11328 1.01386 0.0
C1087 C 0.16813 0.15214 1.01988 0.0
C1088 C 0.10878 0.13229 1.02324 0.0
C1089 C 0.06706 0.0736 1.02089 0.0
C1090 C 0.08587 0.03629 1.01509 0.0
C1091 C 0.14369 0.05552 1.01165 0.0
C1092 C 0.15457 1.00645 1.00768 0.0
C1093 C 0.17535 0.01015 0.98947 0.0
C1094 C 0.19785 1.00449 1.02024 0.0
C1095 C 0.09405 0.95608 1.01005 0.0
C1096 C 0.05461 0.97391 1.01393 0.0
C1097 C 0.99695 0.93458 1.01797 0.0
C1098 C 0.9796 0.87543 1.01838 0.0
C1099 C 0.02045 0.85728 1.01513 0.0
C1100 C 0.07765 0.89778 1.0105 0.0
H1101 H 0.12177 0.98846 0.19973 0.0
H1102 H 0.22627 0.06904 0.15557 0.0
H1103 H 0.16674 0.11398 0.14895 0.0
H1104 H 0.97823 0.97445 0.18302 0.0
H1105 H 0.96319 0.99341 0.2034 0.0
H1106 H 1.00049 0.95254 0.20174 0.0
H1107 H 0.08492 0.03016 0.2199 0.0
H1108 H 0.04839 0.07131 0.2215 0.0
H1109 H 0.12144 0.10524 0.21334 0.0
H1110 H 0.116 0.16696 0.15081 0.0
H1111 H 0.07733 0.22779 0.16115 0.0
H1112 H 1.00449 0.11587 0.20461 0.0
C1113 C 0.13015 0.01391 0.18837 0.0
C1114 C 0.17747 0.02576 0.17802 0.0
C1115 C 0.18963 0.06016 0.16351 0.0
C1116 C 0.15567 0.08495 0.15957 0.0
C1117 C 0.11025 0.07459 0.17037 0.0
C1118 C 0.09716 0.03973 0.18448 0.0
C1119 C 0.05428 0.04503 0.19574 0.0
C1120 C 0.99555 0.98796 0.19598 0.0
C1121 C 0.07878 0.06411 0.21366 0.0
C1122 C 0.04958 0.09221 0.18655 0.0
C1123 C 0.08053 0.10691 0.17164 0.0
C1124 C 0.09016 0.15483 0.16216 0.0
C1125 C 0.06887 0.18956 0.16826 0.0
C1126 C 0.03857 0.17611 0.1837 0.0
C1127 C 0.02693 0.12595 0.19267 0.0
H1128 H 0.13242 0.24101 0.34608 0.0
H1129 H 0.1686 0.09879 0.34884 0.0
H1130 H 0.06344 0.02875 0.35112 0.0
H1131 H 0.02884 0.19209 0.37636 0.0
H1132 H 0.9823 0.21452 0.36639 0.0
H1133 H 0.05902 0.2528 0.36204 0.0
H1134 H 0.03877 0.23373 0.33008 0.0
H1135 H 0.96175 0.1967 0.33424 0.0
H1136 H 0.99259 0.16037 0.32265 0.0
H1137 H 0.95741 0.9771 0.35723 0.0
H1138 H 0.8545 0.94507 0.36321 0.0
H1139 H 0.8909 0.1228 0.35675 0.0
C1140 C 0.11811 0.19502 0.3468 0.0
C1141 C 0.15798 0.17503 0.34748 0.0
C1142 C 0.13819 0.11469 0.34832 0.0
C1143 C 0.0788 0.0747 0.34963 0.0
C1144 C 0.04067 0.09624 0.34979 0.0
C1145 C 0.05941 0.15483 0.34805 0.0
C1146 C 1.01041 0.16744 0.34976 0.0
C1147 C 0.0208 0.20915 0.36452 0.0
C1148 C 1.00028 0.19092 0.3332 0.0
C1149 C 0.96157 0.10702 0.3534 0.0
C1150 C 0.97959 0.06644 0.35326 0.0
C1151 C 0.94234 1.00815 0.35708 0.0
C1152 C 0.88436 0.99062 0.36063 0.0
C1153 C 0.86507 0.0316 0.3603 0.0
C1154 C 0.90442 0.09048 0.35692 0.0
H1155 H 0.01323 0.13735 0.52498 0.0
H1156 H 0.87162 0.17032 0.51464 0.0
H1157 H 0.80038 0.0695 0.52191 0.0
H1158 H 0.93632 0.98734 0.50755 0.0
H1159 H 0.96775 0.9616 0.52302 0.0
H1160 H 1.00732 0.03617 0.51617 0.0
H1161 H 0.01633 0.06882 0.5473 0.0
H1162 H 0.97428 0.99432 0.55414 0.0
H1163 H 0.9513 0.04565 0.55953 0.0
H1164 H 0.746 0.97262 0.53362 0.0
H1165 H 0.70614 0.86899 0.53987 0.0
H1166 H 0.88112 0.8946 0.5408 0.0
C1167 C 0.96725 0.12249 0.52372 0.0
C1168 C 0.94738 0.161 0.51962 0.0
C1169 C 0.88711 0.14091 0.51806 0.0
C1170 C 0.84645 0.0842 0.52231 0.0
C1171 C 0.86717 0.04837 0.52769 0.0
C1172 C 0.9257 0.06542 0.52769 0.0
C1173 C 0.93524 0.01655 0.53327 0.0
C1174 C 0.96328 0.99937 0.51916 0.0
C1175 C 0.97144 0.03232 0.54953 0.0
C1176 C 0.87291 0.96991 0.53638 0.0
C1177 C 0.83479 0.99009 0.5336 0.0
C1178 C 0.77501 0.95564 0.53564 0.0
C1179 C 0.75294 0.89716 0.53937 0.0
C1180 C 0.79091 0.87445 0.54056 0.0
C1181 C 0.8516 0.91151 0.53988 0.0
H1182 H 0.91298 0.793 0.70405 0.0
H1183 H 0.09142 0.93557 0.70148 0.0
H1184 H 0.05617 1.00587 0.7019 0.0
H1185 H 0.85928 0.84888 0.67555 0.0
H1186 H 0.78965 0.82286 0.68551 0.0
H1187 H 0.82884 0.78467 0.68852 0.0
H1188 H 0.8224 0.79413 0.72022 0.0
H1189 H 0.78632 0.83579 0.71819 0.0
H1190 H 0.85315 0.86486 0.73002 0.0
H1191 H 1.00103 0.0581 0.69736 0.0
H1192 H 0.92989 0.08944 0.69084 0.0
H1193 H 0.78887 0.91115 0.69628 0.0
C1194 C 0.94477 0.83907 0.70399 0.0
C1195 C 1.00466 0.85919 0.70258 0.0
C1196 C 0.04519 0.91959 0.70257 0.0
C1197 C 0.02563 0.95968 0.70283 0.0
C1198 C 0.96583 0.93816 0.70335 0.0
C1199 C 0.92606 0.87924 0.70419 0.0
C1200 C 0.86425 0.8666 0.70266 0.0
C1201 C 0.83378 0.82855 0.68714 0.0
C1202 C 0.82958 0.83881 0.71876 0.0
C1203 C 0.87544 0.9275 0.70038 0.0
C1204 C 0.93411 0.96831 0.70086 0.0
C1205 C 0.95489 0.02681 0.69738 0.0
C1206 C 0.91431 0.044 0.69352 0.0
C1207 C 0.85406 1.00252 0.6932 0.0
C1208 C 0.83465 0.94382 0.69672 0.0
H1209 H 0.14578 0.01461 0.85403 0.0
H1210 H 0.17774 0.87539 0.8393 0.0
H1211 H 0.08286 0.82371 0.82593 0.0
H1212 H 1.00835 0.92052 0.86785 0.0
H1213 H 0.97619 0.9635 0.86164 0.0
H1214 H 0.05275 0.99846 0.86592 0.0
H1215 H 0.07336 0.04509 0.83623 0.0
H1216 H 0.99638 1.00852 0.83177 0.0
H1217 H 0.04476 0.99908 0.81796 0.0
H1218 H 0.98478 0.78076 0.81683 0.0
H1219 H 0.87924 0.73505 0.82053 0.0
H1220 H 0.9027 0.89472 0.8429 0.0
C1221 C 0.13299 0.97384 0.84769 0.0
C1222 C 0.17021 0.95046 0.84715 0.0
C1223 C 0.15094 0.89551 0.83945 0.0
C1224 C 0.09728 0.86592 0.83154 0.0
C1225 C 0.0623 0.89077 0.83172 0.0
C1226 C 0.07819 0.94237 0.8401 0.0
C1227 C 0.02692 0.95187 0.84182 0.0
C1228 C 0.01536 0.95892 0.8604 0.0
C1229 C 0.03591 1.00426 0.83131 0.0
C1230 C 0.97943 0.89533 0.83435 0.0
C1231 C 1.00172 0.86262 0.82765 0.0
C1232 C 0.96648 0.80597 0.82186 0.0
C1233 C 0.90664 0.78022 0.82412 0.0
C1234 C 0.88342 0.81104 0.83241 0.0
C1235 C 0.91971 0.87027 0.83659 0.0
loop_
_geom_bond_atom_site_label_1
_geom_bond_atom_site_label_2
_geom_bond_distance
_geom_bond_site_symmetry_2
_ccdc_geom_bond_type
Fe0 O2 1.928 . S
Fe0 O5 2.017 . S
Fe0 O6 2.004 . S
Fe0 O11 1.954 1_554 S
Fe0 O14 1.992 1_554 S
Fe1 O2 1.918 . S
Fe1 O9 1.997 . S
Fe1 O12 1.996 1_554 S
Fe1 O16 1.976 . S
Fe1 O19 2.002 . S
O2 Fe0 1.928 . S
O2 Fe1 1.918 . S
O2 Fe3 1.918 . S
Fe3 O2 1.918 . S
Fe3 O4 2.002 . S
Fe3 O13 1.976 . S
Fe3 O17 1.996 . S
Fe3 O20 1.997 . S
O4 Fe3 2.002 . S
O4 C21 1.295 . S
O5 Fe0 2.017 . S
O5 C21 1.235 . S
O6 Fe0 2.004 . S
O6 C7 1.295 . S
C7 O6 1.295 . S
C7 O9 1.235 . S
C8 O13 1.287 . S
C8 O14 1.255 1_554 S
O9 Fe1 1.997 . S
O9 C7 1.235 . S
C10 O16 1.287 . S
C10 O17 1.255 . S
O11 Fe0 1.954 1_556 S
O11 C18 1.287 . S
O12 Fe1 1.996 1_556 S
O12 C18 1.255 . S
O13 Fe3 1.976 . S
O13 C8 1.287 . S
O14 Fe0 1.992 1_556 S
O14 C8 1.255 1_556 S
C15 O19 1.295 . S
C15 O20 1.235 . S
O16 Fe1 1.976 . S
O16 C10 1.287 . S
O17 Fe3 1.996 . S
O17 C10 1.255 . S
C18 O11 1.287 . S
C18 O12 1.255 . S
O19 Fe1 2.002 . S
O19 C15 1.295 . S
O20 Fe3 1.997 . S
O20 C15 1.235 . S
C21 O4 1.295 . S
C21 O5 1.235 . S
Fe22 O24 1.918 . S
Fe22 O27 1.990 1_655 S
Fe22 O28 2.002 . S
Fe22 O33 1.976 . S
Fe22 O36 1.996 . S
Fe23 O24 1.918 . S
Fe23 O31 1.997 . S
Fe23 O34 1.996 . S
Fe23 O38 1.976 . S
Fe23 O41 2.002 . S
O24 Fe22 1.918 . S
O24 Fe23 1.918 . S
O24 Fe25 1.918 1_655 S
Fe25 O24 1.918 1_455 S
Fe25 O26 2.002 . S
Fe25 O35 1.976 . S
Fe25 O39 1.996 . S
Fe25 O42 1.997 . S
O26 Fe25 2.002 . S
O26 C43 1.295 . S
O27 Fe22 1.990 1_455 S
O27 C43 1.243 . S
O28 Fe22 2.002 . S
O28 C29 1.295 . S
C29 O28 1.295 . S
C29 O31 1.235 . S
C30 O35 1.287 . S
C30 O36 1.255 1_455 S
O31 Fe23 1.997 . S
O31 C29 1.235 . S
C32 O38 1.287 . S
C32 O39 1.255 1_655 S
O33 Fe22 1.976 . S
O33 C40 1.287 . S
O34 Fe23 1.996 . S
O34 C40 1.255 . S
O35 Fe25 1.976 . S
O35 C30 1.287 . S
O36 Fe22 1.996 . S
O36 C30 1.255 1_655 S
C37 O41 1.295 1_455 S
C37 O42 1.235 . S
O38 Fe23 1.976 . S
O38 C32 1.287 . S
O39 Fe25 1.996 . S
O39 C32 1.255 1_455 S
C40 O33 1.287 . S
C40 O34 1.255 . S
O41 Fe23 2.002 . S
O41 C37 1.295 1_655 S
O42 Fe25 1.997 . S
O42 C37 1.235 . S
C43 O26 1.295 . S
C43 O27 1.243 . S
Fe44 O46 1.918 . S
Fe44 O49 1.997 . S
Fe44 O50 2.002 . S
Fe44 O55 1.976 . S
Fe44 O58 1.996 . S
Fe45 O46 1.918 1_545 S
Fe45 O53 1.997 . S
Fe45 O56 1.996 . S
Fe45 O60 1.976 . S
Fe45 O63 2.002 . S
O46 Fe44 1.918 . S
O46 Fe45 1.918 1_565 S
O46 Fe47 1.918 . S
Fe47 O46 1.918 . S
Fe47 O48 2.002 . S
Fe47 O57 1.976 . S
Fe47 O61 1.996 . S
Fe47 O64 1.990 1_565 S
O48 Fe47 2.002 . S
O48 C65 1.295 . S
O49 Fe44 1.997 . S
O49 C65 1.235 . S
O50 Fe44 2.002 . S
O50 C51 1.295 1_565 S
C51 O50 1.295 1_545 S
C51 O53 1.235 . S
C52 O57 1.287 . S
C52 O58 1.255 . S
O53 Fe45 1.997 . S
O53 C51 1.235 . S
C54 O60 1.287 . S
C54 O61 1.255 1_545 S
O55 Fe44 1.976 . S
O55 C62 1.287 . S
O56 Fe45 1.996 . S
O56 C62 1.255 1_545 S
O57 Fe47 1.976 . S
O57 C52 1.287 . S
O58 Fe44 1.996 . S
O58 C52 1.255 . S
C59 O63 1.295 . S
C59 O64 1.242 . S
O60 Fe45 1.976 . S
O60 C54 1.287 . S
O61 Fe47 1.996 . S
O61 C54 1.255 1_565 S
C62 O55 1.287 . S
C62 O56 1.255 1_565 S
O63 Fe45 2.002 . S
O63 C59 1.295 . S
O64 Fe47 1.990 1_545 S
O64 C59 1.242 . S
C65 O48 1.295 . S
C65 O49 1.235 . S
Fe66 O68 1.918 . S
Fe66 O71 1.997 . S
Fe66 O72 2.002 . S
Fe66 O77 1.976 . S
Fe66 O80 1.996 . S
Fe67 O68 1.918 . S
Fe67 O75 1.997 . S
Fe67 O78 1.996 . S
Fe67 O82 1.976 . S
Fe67 O85 2.002 . S
O68 Fe66 1.918 . S
O68 Fe67 1.918 . S
O68 Fe69 1.918 . S
Fe69 O68 1.918 . S
Fe69 O70 2.002 . S
Fe69 O79 1.976 . S
Fe69 O83 1.996 . S
Fe69 O86 1.997 . S
O70 Fe69 2.002 . S
O70 C87 1.295 . S
O71 Fe66 1.997 . S
O71 C87 1.235 . S
O72 Fe66 2.002 . S
O72 C73 1.295 . S
C73 O72 1.295 . S
C73 O75 1.235 . S
C74 O79 1.287 . S
C74 O80 1.255 . S
O75 Fe67 1.997 . S
O75 C73 1.235 . S
C76 O82 1.287 . S
C76 O83 1.255 . S
O77 Fe66 1.976 . S
O77 C84 1.287 . S
O78 Fe67 1.996 . S
O78 C84 1.255 . S
O79 Fe69 1.976 . S
O79 C74 1.287 . S
O80 Fe66 1.996 . S
O80 C74 1.255 . S
C81 O85 1.295 . S
C81 O86 1.235 . S
O82 Fe67 1.976 . S
O82 C76 1.287 . S
O83 Fe69 1.996 . S
O83 C76 1.255 . S
C84 O77 1.287 . S
C84 O78 1.255 . S
O85 Fe67 2.002 . S
O85 C81 1.295 . S
O86 Fe69 1.997 . S
O86 C81 1.235 . S
C87 O70 1.295 . S
C87 O71 1.235 . S
Fe88 O90 1.918 . S
Fe88 O93 1.987 1_455 S
Fe88 O94 2.002 . S
Fe88 O99 1.976 . S
Fe88 O102 1.996 . S
Fe89 O90 1.918 . S
Fe89 O97 1.997 . S
Fe89 O100 1.996 . S
Fe89 O104 1.976 . S
Fe89 O107 2.002 . S
O90 Fe88 1.918 . S
O90 Fe89 1.918 . S
O90 Fe91 1.918 1_455 S
Fe91 O90 1.918 1_655 S
Fe91 O92 2.002 . S
Fe91 O101 1.976 . S
Fe91 O105 1.996 . S
Fe91 O108 1.997 . S
O92 Fe91 2.002 . S
O92 C109 1.295 . S
O93 Fe88 1.987 1_655 S
O93 C109 1.247 . S
O94 Fe88 2.002 . S
O94 C95 1.295 . S
C95 O94 1.295 . S
C95 O97 1.235 . S
C96 O101 1.287 . S
C96 O102 1.255 1_655 S
O97 Fe89 1.997 . S
O97 C95 1.235 . S
C98 O104 1.287 . S
C98 O105 1.255 1_455 S
O99 Fe88 1.976 . S
O99 C106 1.287 . S
O100 Fe89 1.996 . S
O100 C106 1.255 . S
O101 Fe91 1.976 . S
O101 C96 1.287 . S
O102 Fe88 1.996 . S
O102 C96 1.255 1_455 S
C103 O107 1.295 1_655 S
C103 O108 1.235 . S
O104 Fe89 1.976 . S
O104 C98 1.287 . S
O105 Fe91 1.996 . S
O105 C98 1.255 1_655 S
C106 O99 1.287 . S
C106 O100 1.255 . S
O107 Fe89 2.002 . S
O107 C103 1.295 1_455 S
O108 Fe91 1.997 . S
O108 C103 1.235 . S
C109 O92 1.295 . S
C109 O93 1.247 . S
Fe110 O112 1.918 . S
Fe110 O115 1.997 . S
Fe110 O116 2.002 . S
Fe110 O121 1.976 . S
Fe110 O124 1.996 . S
Fe111 O112 1.918 1_565 S
Fe111 O119 1.997 . S
Fe111 O122 1.996 . S
Fe111 O126 1.976 . S
Fe111 O129 2.002 . S
O112 Fe110 1.918 . S
O112 Fe111 1.918 1_545 S
O112 Fe113 1.918 . S
Fe113 O112 1.918 . S
Fe113 O114 2.002 . S
Fe113 O123 1.976 . S
Fe113 O127 1.996 . S
Fe113 O130 1.990 1_545 S
O114 Fe113 2.002 . S
O114 C131 1.295 . S
O115 Fe110 1.997 . S
O115 C131 1.235 . S
O116 Fe110 2.002 . S
O116 C117 1.295 1_545 S
C117 O116 1.295 1_565 S
C117 O119 1.235 . S
C118 O123 1.287 . S
C118 O124 1.255 . S
O119 Fe111 1.997 . S
O119 C117 1.235 . S
C120 O126 1.287 . S
C120 O127 1.255 1_565 S
O121 Fe110 1.976 . S
O121 C128 1.287 . S
O122 Fe111 1.996 . S
O122 C128 1.255 1_565 S
O123 Fe113 1.976 . S
O123 C118 1.287 . S
O124 Fe110 1.996 . S
O124 C118 1.255 . S
C125 O129 1.295 . S
C125 O130 1.242 . S
O126 Fe111 1.976 . S
O126 C120 1.287 . S
O127 Fe113 1.996 . S
O127 C120 1.255 1_545 S
C128 O121 1.287 . S
C128 O122 1.255 1_545 S
O129 Fe111 2.002 . S
O129 C125 1.295 . S
O130 Fe113 1.990 1_565 S
O130 C125 1.242 . S
C131 O114 1.295 . S
C131 O115 1.235 . S
Fe132 O134 1.918 . S
Fe132 O137 1.997 . S
Fe132 O138 2.002 . S
Fe132 O143 1.976 . S
Fe132 O146 1.996 . S
Fe133 O134 1.918 . S
Fe133 O141 1.997 . S
Fe133 O144 1.996 . S
Fe133 O148 1.976 . S
Fe133 O151 2.002 . S
O134 Fe132 1.918 . S
O134 Fe133 1.918 . S
O134 Fe135 1.918 . S
Fe135 O134 1.918 . S
Fe135 O136 2.002 . S
Fe135 O145 1.976 . S
Fe135 O149 1.996 . S
Fe135 O152 1.997 . S
O136 Fe135 2.002 . S
O136 C153 1.295 . S
O137 Fe132 1.997 . S
O137 C153 1.235 . S
O138 Fe132 2.002 . S
O138 C139 1.295 . S
C139 O138 1.295 . S
C139 O141 1.235 . S
C140 O145 1.287 . S
C140 O146 1.255 . S
O141 Fe133 1.997 . S
O141 C139 1.235 . S
C142 O148 1.287 . S
C142 O149 1.255 . S
O143 Fe132 1.976 . S
O143 C150 1.287 . S
O144 Fe133 1.996 . S
O144 C150 1.255 . S
O145 Fe135 1.976 . S
O145 C140 1.287 . S
O146 Fe132 1.996 . S
O146 C140 1.255 . S
C147 O151 1.295 . S
C147 O152 1.235 . S
O148 Fe133 1.976 . S
O148 C142 1.287 . S
O149 Fe135 1.996 . S
O149 C142 1.255 . S
C150 O143 1.287 . S
C150 O144 1.255 . S
O151 Fe133 2.002 . S
O151 C147 1.295 . S
O152 Fe135 1.997 . S
O152 C147 1.235 . S
C153 O136 1.295 . S
C153 O137 1.235 . S
Fe154 O156 1.918 1_455 S
Fe154 O159 1.997 . S
Fe154 O160 2.002 . S
Fe154 O165 1.976 . S
Fe154 O168 1.996 1_556 S
Fe155 O156 1.918 . S
Fe155 O163 1.992 1_655 S
Fe155 O166 1.996 . S
Fe155 O170 1.976 . S
Fe155 O173 2.002 . S
O156 Fe154 1.918 1_655 S
O156 Fe155 1.918 . S
O156 Fe157 1.918 . S
Fe157 O156 1.918 . S
Fe157 O158 2.002 . S
Fe157 O167 1.976 1_556 S
Fe157 O171 1.996 . S
Fe157 O174 1.997 . S
O158 Fe157 2.002 . S
O158 C175 1.295 1_655 S
O159 Fe154 1.997 . S
O159 C175 1.235 . S
O160 Fe154 2.002 . S
O160 C161 1.295 . S
C161 O160 1.295 . S
C161 O163 1.240 . S
C162 O167 1.287 . S
C162 O168 1.255 1_655 S
O163 Fe155 1.992 1_455 S
O163 C161 1.240 . S
C164 O170 1.287 . S
C164 O171 1.254 . S
O165 Fe154 1.976 . S
O165 C172 1.287 . S
O166 Fe155 1.996 . S
O166 C172 1.255 1_655 S
O167 Fe157 1.976 1_554 S
O167 C162 1.287 . S
O168 Fe154 1.996 1_554 S
O168 C162 1.255 1_455 S
C169 O173 1.295 . S
C169 O174 1.235 . S
O170 Fe155 1.976 . S
O170 C164 1.287 . S
O171 Fe157 1.996 . S
O171 C164 1.254 . S
C172 O165 1.287 . S
C172 O166 1.255 1_455 S
O173 Fe155 2.002 . S
O173 C169 1.295 . S
O174 Fe157 1.997 . S
O174 C169 1.235 . S
C175 O158 1.295 1_455 S
C175 O159 1.235 . S
Fe176 O178 1.918 1_545 S
Fe176 O181 1.997 . S
Fe176 O182 2.002 . S
Fe176 O187 1.976 . S
Fe176 O190 1.996 . S
Fe177 O178 1.918 . S
Fe177 O185 1.989 1_565 S
Fe177 O188 1.996 . S
Fe177 O192 1.976 . S
Fe177 O195 2.002 . S
O178 Fe176 1.918 1_565 S
O178 Fe177 1.918 . S
O178 Fe179 1.918 . S
Fe179 O178 1.918 . S
Fe179 O180 2.002 . S
Fe179 O189 1.976 . S
Fe179 O193 1.996 . S
Fe179 O196 1.997 . S
O180 Fe179 2.002 . S
O180 C197 1.295 1_565 S
O181 Fe176 1.997 . S
O181 C197 1.235 . S
O182 Fe176 2.002 . S
O182 C183 1.295 . S
C183 O182 1.295 . S
C183 O185 1.246 . S
C184 O189 1.287 . S
C184 O190 1.255 1_565 S
O185 Fe177 1.989 1_545 S
O185 C183 1.246 . S
C186 O192 1.287 . S
C186 O193 1.255 . S
O187 Fe176 1.976 . S
O187 C194 1.287 . S
O188 Fe177 1.996 . S
O188 C194 1.255 1_565 S
O189 Fe179 1.976 . S
O189 C184 1.287 . S
O190 Fe176 1.996 . S
O190 C184 1.255 1_545 S
C191 O195 1.295 . S
C191 O196 1.235 . S
O192 Fe177 1.976 . S
O192 C186 1.287 . S
O193 Fe179 1.996 . S
O193 C186 1.255 . S
C194 O187 1.287 . S
C194 O188 1.255 1_545 S
O195 Fe177 2.002 . S
O195 C191 1.295 . S
O196 Fe179 1.997 . S
O196 C191 1.235 . S
C197 O180 1.295 1_545 S
C197 O181 1.235 . S
Fe198 O200 1.918 . S
Fe198 O203 1.997 . S
Fe198 O204 2.002 . S
Fe198 O209 1.976 . S
Fe198 O212 1.996 . S
Fe199 O200 1.918 . S
Fe199 O207 1.997 . S
Fe199 O210 1.996 . S
Fe199 O214 1.976 . S
Fe199 O217 2.002 . S
O200 Fe198 1.918 . S
O200 Fe199 1.918 . S
O200 Fe201 1.918 . S
Fe201 O200 1.918 . S
Fe201 O202 2.002 . S
Fe201 O211 1.976 . S
Fe201 O215 1.996 . S
Fe201 O218 1.997 . S
O202 Fe201 2.002 . S
O202 C219 1.295 . S
O203 Fe198 1.997 . S
O203 C219 1.235 . S
O204 Fe198 2.002 . S
O204 C205 1.295 . S
C205 O204 1.295 . S
C205 O207 1.235 . S
C206 O211 1.287 . S
C206 O212 1.255 . S
O207 Fe199 1.997 . S
O207 C205 1.235 . S
C208 O214 1.287 . S
C208 O215 1.255 . S
O209 Fe198 1.976 . S
O209 C216 1.287 . S
O210 Fe199 1.996 . S
O210 C216 1.255 . S
O211 Fe201 1.976 . S
O211 C206 1.287 . S
O212 Fe198 1.996 . S
O212 C206 1.255 . S
C213 O217 1.295 . S
C213 O218 1.235 . S
O214 Fe199 1.976 . S
O214 C208 1.287 . S
O215 Fe201 1.996 . S
O215 C208 1.255 . S
C216 O209 1.287 . S
C216 O210 1.255 . S
O217 Fe199 2.002 . S
O217 C213 1.295 . S
O218 Fe201 1.997 . S
O218 C213 1.235 . S
C219 O202 1.295 . S
C219 O203 1.235 . S
Fe220 O222 1.918 . S
Fe220 O225 1.989 1_455 S
Fe220 O226 2.002 . S
Fe220 O231 1.976 . S
Fe220 O234 1.996 . S
Fe221 O222 1.918 . S
Fe221 O229 1.997 . S
Fe221 O232 1.996 . S
Fe221 O236 1.976 . S
Fe221 O239 2.002 . S
O222 Fe220 1.918 . S
O222 Fe221 1.918 . S
O222 Fe223 1.918 1_455 S
Fe223 O222 1.918 1_655 S
Fe223 O224 2.002 . S
Fe223 O233 1.976 . S
Fe223 O237 1.996 . S
Fe223 O240 1.997 . S
O224 Fe223 2.002 . S
O224 C241 1.295 . S
O225 Fe220 1.989 1_655 S
O225 C241 1.243 . S
O226 Fe220 2.002 . S
O226 C227 1.295 . S
C227 O226 1.295 . S
C227 O229 1.235 . S
C228 O233 1.287 . S
C228 O234 1.255 1_655 S
O229 Fe221 1.997 . S
O229 C227 1.235 . S
C230 O236 1.287 . S
C230 O237 1.255 1_455 S
O231 Fe220 1.976 . S
O231 C238 1.287 . S
O232 Fe221 1.996 . S
O232 C238 1.255 . S
O233 Fe223 1.976 . S
O233 C228 1.287 . S
O234 Fe220 1.996 . S
O234 C228 1.255 1_455 S
C235 O239 1.295 1_655 S
C235 O240 1.235 . S
O236 Fe221 1.976 . S
O236 C230 1.287 . S
O237 Fe223 1.996 . S
O237 C230 1.255 1_655 S
C238 O231 1.287 . S
C238 O232 1.255 . S
O239 Fe221 2.002 . S
O239 C235 1.295 1_455 S
O240 Fe223 1.997 . S
O240 C235 1.235 . S
C241 O224 1.295 . S
C241 O225 1.243 . S
Fe242 O244 1.918 1_565 S
Fe242 O247 1.997 . S
Fe242 O248 2.002 . S
Fe242 O253 1.976 . S
Fe242 O256 1.996 . S
Fe243 O244 1.918 . S
Fe243 O251 1.989 1_545 S
Fe243 O254 1.996 . S
Fe243 O258 1.976 . S
Fe243 O261 2.002 . S
O244 Fe242 1.918 1_545 S
O244 Fe243 1.918 . S
O244 Fe245 1.918 . S
Fe245 O244 1.918 . S
Fe245 O246 2.002 . S
Fe245 O255 1.976 . S
Fe245 O259 1.996 . S
Fe245 O262 1.997 . S
O246 Fe245 2.002 . S
O246 C263 1.295 1_545 S
O247 Fe242 1.997 . S
O247 C263 1.235 . S
O248 Fe242 2.002 . S
O248 C249 1.295 . S
C249 O248 1.295 . S
C249 O251 1.245 . S
C250 O255 1.287 . S
C250 O256 1.255 1_545 S
O251 Fe243 1.989 1_565 S
O251 C249 1.245 . S
C252 O258 1.287 . S
C252 O259 1.255 . S
O253 Fe242 1.976 . S
O253 C260 1.287 . S
O254 Fe243 1.996 . S
O254 C260 1.255 1_545 S
O255 Fe245 1.976 . S
O255 C250 1.287 . S
O256 Fe242 1.996 . S
O256 C250 1.255 1_565 S
C257 O261 1.295 . S
C257 O262 1.235 . S
O258 Fe243 1.976 . S
O258 C252 1.287 . S
O259 Fe245 1.996 . S
O259 C252 1.255 . S
C260 O253 1.287 . S
C260 O254 1.255 1_565 S
O261 Fe243 2.002 . S
O261 C257 1.295 . S
O262 Fe245 1.997 . S
O262 C257 1.235 . S
C263 O246 1.295 1_565 S
C263 O247 1.235 . S
H264 C276 0.930 . S
H265 C278 0.930 . S
H266 C279 0.930 . S
H267 C283 0.959 . S
H268 C283 0.959 . S
H269 C283 0.961 . S
H270 C284 0.960 . S
H271 C284 0.961 . S
H272 C284 0.959 . S
H273 C287 0.929 . S
H274 C288 0.931 . S
H275 C290 0.930 . S
C276 H264 0.930 . S
C276 C277 1.399 1_554 S
C276 C281 1.399 . S
C277 C276 1.399 1_556 S
C277 C278 1.376 . S
C278 H265 0.930 . S
C278 C277 1.376 . S
C278 C279 1.388 . S
C279 H266 0.930 . S
C279 C278 1.388 . S
C279 C280 1.390 . S
C280 C279 1.390 . S
C280 C281 1.394 1_556 S
C280 C286 1.465 . S
C281 C276 1.399 . S
C281 C280 1.394 1_554 S
C281 C282 1.516 . S
C282 C281 1.516 . S
C282 C283 1.502 . S
C282 C284 1.561 . S
C282 C285 1.526 . S
C283 H267 0.959 . S
C283 H268 0.959 . S
C283 H269 0.961 . S
C283 C282 1.502 . S
C284 H270 0.960 . S
C284 H271 0.961 . S
C284 H272 0.959 . S
C284 C282 1.561 . S
C285 C282 1.526 . S
C285 C286 1.396 1_554 S
C285 C290 1.390 . S
C286 C280 1.465 . S
C286 C285 1.396 1_556 S
C286 C287 1.399 . S
C287 H273 0.929 . S
C287 C286 1.399 . S
C287 C288 1.385 . S
C288 H274 0.931 . S
C288 C287 1.385 . S
C288 C289 1.389 1_556 S
C289 C288 1.389 1_554 S
C289 C290 1.387 . S
C290 H275 0.930 . S
C290 C285 1.390 . S
C290 C289 1.387 . S
H291 C303 0.930 . S
H292 C305 0.930 . S
H293 C306 0.930 . S
H294 C310 0.959 . S
H295 C310 0.959 . S
H296 C310 0.961 . S
H297 C311 0.960 . S
H298 C311 0.961 . S
H299 C311 0.959 . S
H300 C314 0.929 . S
H301 C315 0.931 . S
H302 C317 0.930 . S
C303 H291 0.930 . S
C303 C304 1.399 . S
C303 C308 1.399 . S
C304 C303 1.399 . S
C304 C305 1.376 . S
C305 H292 0.930 . S
C305 C304 1.376 . S
C305 C306 1.388 . S
C306 H293 0.930 . S
C306 C305 1.388 . S
C306 C307 1.390 . S
C307 C306 1.390 . S
C307 C308 1.394 . S
C307 C313 1.465 . S
C308 C303 1.399 . S
C308 C307 1.394 . S
C308 C309 1.516 . S
C309 C308 1.516 . S
C309 C310 1.502 . S
C309 C311 1.561 . S
C309 C312 1.526 . S
C310 H294 0.959 . S
C310 H295 0.959 . S
C310 H296 0.961 . S
C310 C309 1.502 . S
C311 H297 0.960 . S
C311 H298 0.961 . S
C311 H299 0.959 . S
C311 C309 1.561 . S
C312 C309 1.526 . S
C312 C313 1.396 . S
C312 C317 1.390 . S
C313 C307 1.465 . S
C313 C312 1.396 . S
C313 C314 1.399 . S
C314 H300 0.929 . S
C314 C313 1.399 . S
C314 C315 1.385 . S
C315 H301 0.931 . S
C315 C314 1.385 . S
C315 C316 1.389 . S
C316 C315 1.389 . S
C316 C317 1.387 . S
C317 H302 0.930 . S
C317 C312 1.390 . S
C317 C316 1.387 . S
H318 C330 0.930 . S
H319 C332 0.930 . S
H320 C333 0.930 . S
H321 C337 0.959 . S
H322 C337 0.959 . S
H323 C337 0.961 . S
H324 C338 0.960 . S
H325 C338 0.961 . S
H326 C338 0.959 . S
H327 C341 0.929 . S
H328 C342 0.931 . S
H329 C344 0.930 . S
C330 H318 0.930 . S
C330 C331 1.399 . S
C330 C335 1.399 . S
C331 C330 1.399 . S
C331 C332 1.376 . S
C332 H319 0.930 . S
C332 C331 1.376 . S
C332 C333 1.388 . S
C333 H320 0.930 . S
C333 C332 1.388 . S
C333 C334 1.390 . S
C334 C333 1.390 . S
C334 C335 1.394 . S
C334 C340 1.465 . S
C335 C330 1.399 . S
C335 C334 1.394 . S
C335 C336 1.516 . S
C336 C335 1.516 . S
C336 C337 1.502 . S
C336 C338 1.561 . S
C336 C339 1.526 . S
C337 H321 0.959 . S
C337 H322 0.959 . S
C337 H323 0.961 . S
C337 C336 1.502 . S
C338 H324 0.960 . S
C338 H325 0.961 . S
C338 H326 0.959 . S
C338 C336 1.561 . S
C339 C336 1.526 . S
C339 C340 1.396 . S
C339 C344 1.390 . S
C340 C334 1.465 . S
C340 C339 1.396 . S
C340 C341 1.399 . S
C341 H327 0.929 . S
C341 C340 1.399 . S
C341 C342 1.385 . S
C342 H328 0.931 . S
C342 C341 1.385 . S
C342 C343 1.389 . S
C343 C342 1.389 . S
C343 C344 1.387 . S
C344 H329 0.930 . S
C344 C339 1.390 . S
C344 C343 1.387 . S
H345 C357 0.930 . S
H346 C359 0.930 . S
H347 C360 0.930 . S
H348 C364 0.959 . S
H349 C364 0.959 . S
H350 C364 0.961 . S
H351 C365 0.960 . S
H352 C365 0.961 . S
H353 C365 0.959 . S
H354 C368 0.929 . S
H355 C369 0.931 . S
H356 C371 0.930 . S
C357 H345 0.930 . S
C357 C358 1.399 . S
C357 C362 1.399 . S
C358 C357 1.399 . S
C358 C359 1.376 . S
C359 H346 0.930 . S
C359 C358 1.376 . S
C359 C360 1.388 . S
C360 H347 0.930 . S
C360 C359 1.388 . S
C360 C361 1.390 . S
C361 C360 1.390 . S
C361 C362 1.394 . S
C361 C367 1.465 . S
C362 C357 1.399 . S
C362 C361 1.394 . S
C362 C363 1.516 . S
C363 C362 1.516 . S
C363 C364 1.502 . S
C363 C365 1.561 . S
C363 C366 1.526 . S
C364 H348 0.959 . S
C364 H349 0.959 . S
C364 H350 0.961 . S
C364 C363 1.502 . S
C365 H351 0.960 . S
C365 H352 0.961 . S
C365 H353 0.959 . S
C365 C363 1.561 . S
C366 C363 1.526 . S
C366 C367 1.396 . S
C366 C371 1.390 . S
C367 C361 1.465 . S
C367 C366 1.396 . S
C367 C368 1.399 . S
C368 H354 0.929 . S
C368 C367 1.399 . S
C368 C369 1.385 . S
C369 H355 0.931 . S
C369 C368 1.385 . S
C369 C370 1.389 . S
C370 C369 1.389 . S
C370 C371 1.387 . S
C371 H356 0.930 . S
C371 C366 1.390 . S
C371 C370 1.387 . S
H372 C384 0.930 . S
H373 C386 0.930 . S
H374 C387 0.930 . S
H375 C391 0.959 . S
H376 C391 0.959 . S
H377 C391 0.961 . S
H378 C392 0.960 . S
H379 C392 0.961 . S
H380 C392 0.959 . S
H381 C395 0.929 . S
H382 C396 0.931 . S
H383 C398 0.930 . S
C384 H372 0.930 . S
C384 C385 1.399 . S
C384 C389 1.399 . S
C385 C384 1.399 . S
C385 C386 1.376 . S
C386 H373 0.930 . S
C386 C385 1.376 . S
C386 C387 1.388 . S
C387 H374 0.930 . S
C387 C386 1.388 . S
C387 C388 1.390 . S
C388 C387 1.390 . S
C388 C389 1.394 . S
C388 C394 1.465 . S
C389 C384 1.399 . S
C389 C388 1.394 . S
C389 C390 1.516 . S
C390 C389 1.516 . S
C390 C391 1.502 . S
C390 C392 1.561 . S
C390 C393 1.526 . S
C391 H375 0.959 . S
C391 H376 0.959 . S
C391 H377 0.961 . S
C391 C390 1.502 . S
C392 H378 0.960 . S
C392 H379 0.961 . S
C392 H380 0.959 . S
C392 C390 1.561 . S
C393 C390 1.526 . S
C393 C394 1.396 . S
C393 C398 1.390 . S
C394 C388 1.465 . S
C394 C393 1.396 . S
C394 C395 1.399 . S
C395 H381 0.929 . S
C395 C394 1.399 . S
C395 C396 1.385 . S
C396 H382 0.931 . S
C396 C395 1.385 . S
C396 C397 1.389 . S
C397 C396 1.389 . S
C397 C398 1.387 . S
C398 H383 0.930 . S
C398 C393 1.390 . S
C398 C397 1.387 . S
H399 C411 0.930 . S
H400 C413 0.930 . S
H401 C414 0.930 . S
H402 C418 0.959 . S
H403 C418 0.959 . S
H404 C418 0.961 . S
H405 C419 0.960 . S
H406 C419 0.961 . S
H407 C419 0.959 . S
H408 C422 0.929 . S
H409 C423 0.931 . S
H410 C425 0.930 . S
C411 H399 0.930 . S
C411 C412 1.399 . S
C411 C416 1.399 . S
C412 C411 1.399 . S
C412 C413 1.376 . S
C413 H400 0.930 . S
C413 C412 1.376 . S
C413 C414 1.388 . S
C414 H401 0.930 . S
C414 C413 1.388 . S
C414 C415 1.390 . S
C415 C414 1.390 . S
C415 C416 1.394 . S
C415 C421 1.465 . S
C416 C411 1.399 . S
C416 C415 1.394 . S
C416 C417 1.516 . S
C417 C416 1.516 . S
C417 C418 1.502 . S
C417 C419 1.561 . S
C417 C420 1.526 . S
C418 H402 0.959 . S
C418 H403 0.959 . S
C418 H404 0.961 . S
C418 C417 1.502 . S
C419 H405 0.960 . S
C419 H406 0.961 . S
C419 H407 0.959 . S
C419 C417 1.561 . S
C420 C417 1.526 . S
C420 C421 1.396 . S
C420 C425 1.390 . S
C421 C415 1.465 . S
C421 C420 1.396 . S
C421 C422 1.399 . S
C422 H408 0.929 . S
C422 C421 1.399 . S
C422 C423 1.385 . S
C423 H409 0.931 . S
C423 C422 1.385 . S
C423 C424 1.389 . S
C424 C423 1.389 . S
C424 C425 1.387 . S
C425 H410 0.930 . S
C425 C420 1.390 . S
C425 C424 1.387 . S
H426 C438 0.930 . S
H427 C440 0.930 . S
H428 C441 0.930 . S
H429 C445 0.959 . S
H430 C445 0.959 . S
H431 C445 0.961 . S
H432 C446 0.960 . S
H433 C446 0.961 . S
H434 C446 0.959 . S
H435 C449 0.929 . S
H436 C450 0.931 . S
H437 C452 0.930 . S
C438 H426 0.930 . S
C438 C439 1.399 . S
C438 C443 1.399 . S
C439 C438 1.399 . S
C439 C440 1.376 . S
C440 H427 0.930 . S
C440 C439 1.376 . S
C440 C441 1.388 . S
C441 H428 0.930 . S
C441 C440 1.388 . S
C441 C442 1.390 . S
C442 C441 1.390 . S
C442 C443 1.394 . S
C442 C448 1.465 . S
C443 C438 1.399 . S
C443 C442 1.394 . S
C443 C444 1.516 . S
C444 C443 1.516 . S
C444 C445 1.502 . S
C444 C446 1.561 . S
C444 C447 1.526 . S
C445 H429 0.959 . S
C445 H430 0.959 . S
C445 H431 0.961 . S
C445 C444 1.502 . S
C446 H432 0.960 . S
C446 H433 0.961 . S
C446 H434 0.959 . S
C446 C444 1.561 . S
C447 C444 1.526 . S
C447 C448 1.396 . S
C447 C452 1.390 . S
C448 C442 1.465 . S
C448 C447 1.396 . S
C448 C449 1.399 . S
C449 H435 0.929 . S
C449 C448 1.399 . S
C449 C450 1.385 . S
C450 H436 0.931 . S
C450 C449 1.385 . S
C450 C451 1.389 . S
C451 C450 1.389 . S
C451 C452 1.387 . S
C452 H437 0.930 . S
C452 C447 1.390 . S
C452 C451 1.387 . S
H453 C465 0.930 . S
H454 C467 0.930 . S
H455 C468 0.930 . S
H456 C472 0.959 . S
H457 C472 0.959 . S
H458 C472 0.961 . S
H459 C473 0.960 . S
H460 C473 0.961 . S
H461 C473 0.959 . S
H462 C476 0.929 . S
H463 C477 0.931 . S
H464 C479 0.930 . S
C465 H453 0.930 . S
C465 C466 1.399 . S
C465 C470 1.399 . S
C466 C465 1.399 . S
C466 C467 1.376 1_556 S
C467 H454 0.930 . S
C467 C466 1.376 1_554 S
C467 C468 1.388 . S
C468 H455 0.930 . S
C468 C467 1.388 . S
C468 C469 1.436 . S
C469 C468 1.436 . S
C469 C470 1.329 1_554 S
C469 C475 1.476 . S
C470 C465 1.399 . S
C470 C469 1.329 1_556 S
C470 C471 1.516 . S
C471 C470 1.516 . S
C471 C472 1.502 . S
C471 C473 1.561 . S
C471 C474 1.526 . S
C472 H456 0.959 . S
C472 H457 0.959 . S
C472 H458 0.961 . S
C472 C471 1.502 . S
C473 H459 0.960 . S
C473 H460 0.961 . S
C473 H461 0.959 . S
C473 C471 1.561 . S
C474 C471 1.526 . S
C474 C475 1.396 1_556 S
C474 C479 1.390 . S
C475 C469 1.476 . S
C475 C474 1.396 1_554 S
C475 C476 1.399 . S
C476 H462 0.929 . S
C476 C475 1.399 . S
C476 C477 1.385 . S
C477 H463 0.931 . S
C477 C476 1.385 . S
C477 C478 1.389 . S
C478 C477 1.389 . S
C478 C479 1.387 1_554 S
C479 H464 0.930 . S
C479 C474 1.390 . S
C479 C478 1.387 1_556 S
H480 C492 0.930 . S
H481 C494 0.930 . S
H482 C495 0.930 . S
H483 C499 0.959 . S
H484 C499 0.959 . S
H485 C499 0.961 . S
H486 C500 0.960 . S
H487 C500 0.961 . S
H488 C500 0.959 . S
H489 C503 0.929 . S
H490 C504 0.931 . S
H491 C506 0.930 . S
C492 H480 0.930 . S
C492 C493 1.399 . S
C492 C497 1.399 . S
C493 C492 1.399 . S
C493 C494 1.376 . S
C494 H481 0.930 . S
C494 C493 1.376 . S
C494 C495 1.388 . S
C495 H482 0.930 . S
C495 C494 1.388 . S
C495 C496 1.390 . S
C496 C495 1.390 . S
C496 C497 1.394 . S
C496 C502 1.465 . S
C497 C492 1.399 . S
C497 C496 1.394 . S
C497 C498 1.516 . S
C498 C497 1.516 . S
C498 C499 1.502 . S
C498 C500 1.561 . S
C498 C501 1.526 . S
C499 H483 0.959 . S
C499 H484 0.959 . S
C499 H485 0.961 . S
C499 C498 1.502 . S
C500 H486 0.960 . S
C500 H487 0.961 . S
C500 H488 0.959 . S
C500 C498 1.561 . S
C501 C498 1.526 . S
C501 C502 1.396 . S
C501 C506 1.390 . S
C502 C496 1.465 . S
C502 C501 1.396 . S
C502 C503 1.399 . S
C503 H489 0.929 . S
C503 C502 1.399 . S
C503 C504 1.385 . S
C504 H490 0.931 . S
C504 C503 1.385 . S
C504 C505 1.389 . S
C505 C504 1.389 . S
C505 C506 1.387 . S
C506 H491 0.930 . S
C506 C501 1.390 . S
C506 C505 1.387 . S
H507 C519 0.930 . S
H508 C521 0.930 . S
H509 C522 0.930 . S
H510 C526 0.959 . S
H511 C526 0.959 . S
H512 C526 0.961 . S
H513 C527 0.960 . S
H514 C527 0.961 . S
H515 C527 0.959 . S
H516 C530 0.929 . S
H517 C531 0.931 . S
H518 C533 0.930 . S
C519 H507 0.930 . S
C519 C520 1.399 . S
C519 C524 1.399 . S
C520 C519 1.399 . S
C520 C521 1.376 . S
C521 H508 0.930 . S
C521 C520 1.376 . S
C521 C522 1.388 . S
C522 H509 0.930 . S
C522 C521 1.388 . S
C522 C523 1.390 . S
C523 C522 1.390 . S
C523 C524 1.394 . S
C523 C529 1.465 . S
C524 C519 1.399 . S
C524 C523 1.394 . S
C524 C525 1.516 . S
C525 C524 1.516 . S
C525 C526 1.502 . S
C525 C527 1.561 . S
C525 C528 1.526 . S
C526 H510 0.959 . S
C526 H511 0.959 . S
C526 H512 0.961 . S
C526 C525 1.502 . S
C527 H513 0.960 . S
C527 H514 0.961 . S
C527 H515 0.959 . S
C527 C525 1.561 . S
C528 C525 1.526 . S
C528 C529 1.396 . S
C528 C533 1.390 . S
C529 C523 1.465 . S
C529 C528 1.396 . S
C529 C530 1.399 . S
C530 H516 0.929 . S
C530 C529 1.399 . S
C530 C531 1.385 . S
C531 H517 0.931 . S
C531 C530 1.385 . S
C531 C532 1.389 . S
C532 C531 1.389 . S
C532 C533 1.387 . S
C533 H518 0.930 . S
C533 C528 1.390 . S
C533 C532 1.387 . S
H534 C546 0.930 . S
H535 C548 0.930 . S
H536 C549 0.930 . S
H537 C553 0.959 . S
H538 C553 0.959 . S
H539 C553 0.961 . S
H540 C554 0.960 1_455 S
H541 C554 0.961 . S
H542 C554 0.959 . S
H543 C557 0.929 . S
H544 C558 0.931 . S
H545 C560 0.930 . S
C546 H534 0.930 . S
C546 C547 1.399 . S
C546 C551 1.399 . S
C547 C546 1.399 . S
C547 C548 1.376 . S
C548 H535 0.930 . S
C548 C547 1.376 . S
C548 C549 1.388 . S
C549 H536 0.930 . S
C549 C548 1.388 . S
C549 C550 1.390 . S
C550 C549 1.390 . S
C550 C551 1.394 . S
C550 C556 1.465 . S
C551 C546 1.399 . S
C551 C550 1.394 . S
C551 C552 1.516 . S
C552 C551 1.516 . S
C552 C553 1.502 . S
C552 C554 1.561 . S
C552 C555 1.526 . S
C553 H537 0.959 . S
C553 H538 0.959 . S
C553 H539 0.961 . S
C553 C552 1.502 . S
C554 H540 0.960 1_655 S
C554 H541 0.961 . S
C554 H542 0.959 . S
C554 C552 1.561 . S
C555 C552 1.526 . S
C555 C556 1.396 . S
C555 C560 1.390 . S
C556 C550 1.465 . S
C556 C555 1.396 . S
C556 C557 1.399 . S
C557 H543 0.929 . S
C557 C556 1.399 . S
C557 C558 1.385 . S
C558 H544 0.931 . S
C558 C557 1.385 . S
C558 C559 1.389 . S
C559 C558 1.389 . S
C559 C560 1.387 . S
C560 H545 0.930 . S
C560 C555 1.390 . S
C560 C559 1.387 . S
H561 C573 0.930 . S
H562 C575 0.930 . S
H563 C576 0.930 . S
H564 C580 0.959 . S
H565 C580 0.959 . S
H566 C580 0.961 . S
H567 C581 0.960 . S
H568 C581 0.961 . S
H569 C581 0.959 . S
H570 C584 0.929 . S
H571 C585 0.931 . S
H572 C587 0.930 . S
C573 H561 0.930 . S
C573 C574 1.399 . S
C573 C578 1.399 . S
C574 C573 1.399 . S
C574 C575 1.376 . S
C575 H562 0.930 . S
C575 C574 1.376 . S
C575 C576 1.388 . S
C576 H563 0.930 . S
C576 C575 1.388 . S
C576 C577 1.390 . S
C577 C576 1.390 . S
C577 C578 1.394 . S
C577 C583 1.465 . S
C578 C573 1.399 . S
C578 C577 1.394 . S
C578 C579 1.516 . S
C579 C578 1.516 . S
C579 C580 1.502 . S
C579 C581 1.561 . S
C579 C582 1.526 . S
C580 H564 0.959 . S
C580 H565 0.959 . S
C580 H566 0.961 . S
C580 C579 1.502 . S
C581 H567 0.960 . S
C581 H568 0.961 . S
C581 H569 0.959 . S
C581 C579 1.561 . S
C582 C579 1.526 . S
C582 C583 1.396 . S
C582 C587 1.390 . S
C583 C577 1.465 . S
C583 C582 1.396 . S
C583 C584 1.399 . S
C584 H570 0.929 . S
C584 C583 1.399 . S
C584 C585 1.385 . S
C585 H571 0.931 . S
C585 C584 1.385 . S
C585 C586 1.389 . S
C586 C585 1.389 . S
C586 C587 1.387 . S
C587 H572 0.930 . S
C587 C582 1.390 . S
C587 C586 1.387 . S
H588 C600 0.930 . S
H589 C602 0.930 . S
H590 C603 0.930 . S
H591 C607 0.959 . S
H592 C607 0.959 . S
H593 C607 0.961 . S
H594 C608 0.960 . S
H595 C608 0.961 . S
H596 C608 0.959 . S
H597 C611 0.929 . S
H598 C612 0.931 . S
H599 C614 0.930 . S
C600 H588 0.930 . S
C600 C601 1.399 . S
C600 C605 1.399 . S
C601 C600 1.399 . S
C601 C602 1.376 . S
C602 H589 0.930 . S
C602 C601 1.376 . S
C602 C603 1.388 . S
C603 H590 0.930 . S
C603 C602 1.388 . S
C603 C604 1.390 . S
C604 C603 1.390 . S
C604 C605 1.394 . S
C604 C610 1.465 . S
C605 C600 1.399 . S
C605 C604 1.394 . S
C605 C606 1.516 . S
C606 C605 1.516 . S
C606 C607 1.502 . S
C606 C608 1.561 . S
C606 C609 1.526 . S
C607 H591 0.959 . S
C607 H592 0.959 . S
C607 H593 0.961 . S
C607 C606 1.502 . S
C608 H594 0.960 . S
C608 H595 0.961 . S
C608 H596 0.959 . S
C608 C606 1.561 . S
C609 C606 1.526 . S
C609 C610 1.396 . S
C609 C614 1.390 . S
C610 C604 1.465 . S
C610 C609 1.396 . S
C610 C611 1.399 . S
C611 H597 0.929 . S
C611 C610 1.399 . S
C611 C612 1.385 . S
C612 H598 0.931 . S
C612 C611 1.385 . S
C612 C613 1.389 . S
C613 C612 1.389 . S
C613 C614 1.387 . S
C614 H599 0.930 . S
C614 C609 1.390 . S
C614 C613 1.387 . S
H615 C627 0.930 . S
H616 C629 0.930 . S
H617 C630 0.930 . S
H618 C634 0.959 . S
H619 C634 0.959 . S
H620 C634 0.961 . S
H621 C635 0.960 . S
H622 C635 0.961 . S
H623 C635 0.959 . S
H624 C638 0.929 . S
H625 C639 0.931 . S
H626 C641 0.930 . S
C627 H615 0.930 . S
C627 C628 1.396 1_455 S
C627 C632 1.399 . S
C628 C627 1.396 1_655 S
C628 C629 1.371 . S
C629 H616 0.930 . S
C629 C628 1.371 . S
C629 C630 1.388 1_655 S
C630 H617 0.930 . S
C630 C629 1.388 1_455 S
C630 C631 1.390 . S
C631 C630 1.390 . S
C631 C632 1.394 . S
C631 C637 1.465 . S
C632 C627 1.399 . S
C632 C631 1.394 . S
C632 C633 1.516 . S
C633 C632 1.516 . S
C633 C634 1.502 . S
C633 C635 1.561 . S
C633 C636 1.526 . S
C634 H618 0.959 . S
C634 H619 0.959 . S
C634 H620 0.961 . S
C634 C633 1.502 . S
C635 H621 0.960 . S
C635 H622 0.961 . S
C635 H623 0.959 . S
C635 C633 1.561 . S
C636 C633 1.526 . S
C636 C637 1.396 . S
C636 C641 1.390 . S
C637 C631 1.465 . S
C637 C636 1.396 . S
C637 C638 1.399 . S
C638 H624 0.929 . S
C638 C637 1.399 . S
C638 C639 1.385 . S
C639 H625 0.931 . S
C639 C638 1.385 . S
C639 C640 1.389 . S
C640 C639 1.389 . S
C640 C641 1.387 . S
C641 H626 0.930 . S
C641 C636 1.390 . S
C641 C640 1.387 . S
H642 C654 0.930 . S
H643 C656 0.930 . S
H644 C657 0.930 . S
H645 C661 0.959 . S
H646 C661 0.959 . S
H647 C661 0.961 . S
H648 C662 0.960 . S
H649 C662 0.961 . S
H650 C662 0.959 . S
H651 C665 0.929 . S
H652 C666 0.931 . S
H653 C668 0.930 . S
C654 H642 0.930 . S
C654 C655 1.399 . S
C654 C659 1.399 . S
C655 C654 1.399 . S
C655 C656 1.376 . S
C656 H643 0.930 . S
C656 C655 1.376 . S
C656 C657 1.388 . S
C657 H644 0.930 . S
C657 C656 1.388 . S
C657 C658 1.390 . S
C658 C657 1.390 . S
C658 C659 1.394 . S
C658 C664 1.465 . S
C659 C654 1.399 . S
C659 C658 1.394 . S
C659 C660 1.507 1_545 S
C660 C659 1.507 1_565 S
C660 C661 1.505 . S
C660 C662 1.571 . S
C660 C663 1.522 1_565 S
C661 H645 0.959 . S
C661 H646 0.959 . S
C661 H647 0.961 . S
C661 C660 1.505 . S
C662 H648 0.960 . S
C662 H649 0.961 . S
C662 H650 0.959 . S
C662 C660 1.571 . S
C663 C660 1.522 1_545 S
C663 C664 1.396 . S
C663 C668 1.390 1_545 S
C664 C658 1.465 . S
C664 C663 1.396 . S
C664 C665 1.399 . S
C665 H651 0.929 . S
C665 C664 1.399 . S
C665 C666 1.385 . S
C666 H652 0.931 . S
C666 C665 1.385 . S
C666 C667 1.389 . S
C667 C666 1.389 . S
C667 C668 1.387 1_545 S
C668 H653 0.930 . S
C668 C663 1.390 1_565 S
C668 C667 1.387 1_565 S
H669 C681 0.930 . S
H670 C683 0.930 . S
H671 C684 0.930 . S
H672 C688 0.959 . S
H673 C688 0.959 . S
H674 C688 0.961 . S
H675 C689 0.960 . S
H676 C689 0.961 . S
H677 C689 0.959 . S
H678 C692 0.929 . S
H679 C693 0.931 . S
H680 C695 0.930 . S
C681 H669 0.930 . S
C681 C682 1.399 . S
C681 C686 1.399 . S
C682 C681 1.399 . S
C682 C683 1.376 . S
C683 H670 0.930 . S
C683 C682 1.376 . S
C683 C684 1.388 . S
C684 H671 0.930 . S
C684 C683 1.388 . S
C684 C685 1.390 . S
C685 C684 1.390 . S
C685 C686 1.394 . S
C685 C691 1.465 . S
C686 C681 1.399 . S
C686 C685 1.394 . S
C686 C687 1.516 . S
C687 C686 1.516 . S
C687 C688 1.502 . S
C687 C689 1.561 . S
C687 C690 1.526 . S
C688 H672 0.959 . S
C688 H673 0.959 . S
C688 H674 0.961 . S
C688 C687 1.502 . S
C689 H675 0.960 . S
C689 H676 0.961 . S
C689 H677 0.959 . S
C689 C687 1.561 . S
C690 C687 1.526 . S
C690 C691 1.396 . S
C690 C695 1.390 . S
C691 C685 1.465 . S
C691 C690 1.396 . S
C691 C692 1.399 . S
C692 H678 0.929 . S
C692 C691 1.399 . S
C692 C693 1.385 . S
C693 H679 0.931 . S
C693 C692 1.385 . S
C693 C694 1.389 . S
C694 C693 1.389 . S
C694 C695 1.387 . S
C695 H680 0.930 . S
C695 C690 1.390 . S
C695 C694 1.387 . S
H696 C708 0.930 . S
H697 C710 0.930 . S
H698 C711 0.930 . S
H699 C715 0.959 . S
H700 C715 0.959 . S
H701 C715 0.961 . S
H702 C716 0.960 . S
H703 C716 0.961 . S
H704 C716 0.959 . S
H705 C719 0.929 . S
H706 C720 0.931 . S
H707 C722 0.930 . S
C708 H696 0.930 . S
C708 C709 1.399 . S
C708 C713 1.399 . S
C709 C708 1.399 . S
C709 C710 1.376 . S
C710 H697 0.930 . S
C710 C709 1.376 . S
C710 C711 1.388 . S
C711 H698 0.930 . S
C711 C710 1.388 . S
C711 C712 1.390 . S
C712 C711 1.390 . S
C712 C713 1.394 . S
C712 C718 1.465 . S
C713 C708 1.399 . S
C713 C712 1.394 . S
C713 C714 1.516 . S
C714 C713 1.516 . S
C714 C715 1.502 . S
C714 C716 1.561 . S
C714 C717 1.526 . S
C715 H699 0.959 . S
C715 H700 0.959 . S
C715 H701 0.961 . S
C715 C714 1.502 . S
C716 H702 0.960 . S
C716 H703 0.961 . S
C716 H704 0.959 . S
C716 C714 1.561 . S
C717 C714 1.526 . S
C717 C718 1.396 . S
C717 C722 1.390 . S
C718 C712 1.465 . S
C718 C717 1.396 . S
C718 C719 1.399 1_655 S
C719 H705 0.929 . S
C719 C718 1.399 1_455 S
C719 C720 1.385 . S
C720 H706 0.931 . S
C720 C719 1.385 . S
C720 C721 1.389 . S
C721 C720 1.389 . S
C721 C722 1.387 1_455 S
C722 H707 0.930 . S
C722 C717 1.390 . S
C722 C721 1.387 1_655 S
H723 C735 0.930 . S
H724 C737 0.930 . S
H725 C738 0.930 . S
H726 C742 0.959 1_565 S
H727 C742 0.959 . S
H728 C742 0.961 . S
H729 C743 0.960 . S
H730 C743 0.961 . S
H731 C743 0.959 . S
H732 C746 0.929 . S
H733 C747 0.931 . S
H734 C749 0.930 . S
C735 H723 0.930 . S
C735 C736 1.399 1_545 S
C735 C740 1.399 1_545 S
C736 C735 1.399 1_565 S
C736 C737 1.376 . S
C737 H724 0.930 . S
C737 C736 1.376 . S
C737 C738 1.388 . S
C738 H725 0.930 . S
C738 C737 1.388 . S
C738 C739 1.390 . S
C739 C738 1.390 . S
C739 C740 1.394 . S
C739 C745 1.465 . S
C740 C735 1.399 1_565 S
C740 C739 1.394 . S
C740 C741 1.516 . S
C741 C740 1.516 . S
C741 C742 1.502 1_565 S
C741 C743 1.561 1_565 S
C741 C744 1.526 . S
C742 H726 0.959 1_545 S
C742 H727 0.959 . S
C742 H728 0.961 . S
C742 C741 1.502 1_545 S
C743 H729 0.960 . S
C743 H730 0.961 . S
C743 H731 0.959 . S
C743 C741 1.561 1_545 S
C744 C741 1.526 . S
C744 C745 1.396 . S
C744 C749 1.390 . S
C745 C739 1.465 . S
C745 C744 1.396 . S
C745 C746 1.399 . S
C746 H732 0.929 . S
C746 C745 1.399 . S
C746 C747 1.385 . S
C747 H733 0.931 . S
C747 C746 1.385 . S
C747 C748 1.389 . S
C748 C747 1.389 . S
C748 C749 1.387 . S
C749 H734 0.930 . S
C749 C744 1.390 . S
C749 C748 1.387 . S
H750 C762 0.930 . S
H751 C764 0.930 . S
H752 C765 0.930 . S
H753 C769 0.959 . S
H754 C769 0.959 . S
H755 C769 0.961 . S
H756 C770 0.960 . S
H757 C770 0.961 . S
H758 C770 0.959 . S
H759 C773 0.929 . S
H760 C774 0.931 . S
H761 C776 0.930 . S
C762 H750 0.930 . S
C762 C763 1.399 . S
C762 C767 1.399 . S
C763 C762 1.399 . S
C763 C764 1.376 . S
C764 H751 0.930 . S
C764 C763 1.376 . S
C764 C765 1.388 . S
C765 H752 0.930 . S
C765 C764 1.388 . S
C765 C766 1.390 . S
C766 C765 1.390 . S
C766 C767 1.394 . S
C766 C772 1.465 . S
C767 C762 1.399 . S
C767 C766 1.394 . S
C767 C768 1.516 . S
C768 C767 1.516 . S
C768 C769 1.502 . S
C768 C770 1.561 . S
C768 C771 1.526 . S
C769 H753 0.959 . S
C769 H754 0.959 . S
C769 H755 0.961 . S
C769 C768 1.502 . S
C770 H756 0.960 . S
C770 H757 0.961 . S
C770 H758 0.959 . S
C770 C768 1.561 . S
C771 C768 1.526 . S
C771 C772 1.396 . S
C771 C776 1.390 . S
C772 C766 1.465 . S
C772 C771 1.396 . S
C772 C773 1.399 . S
C773 H759 0.929 . S
C773 C772 1.399 . S
C773 C774 1.385 . S
C774 H760 0.931 . S
C774 C773 1.385 . S
C774 C775 1.389 . S
C775 C774 1.389 . S
C775 C776 1.387 . S
C776 H761 0.930 . S
C776 C771 1.390 . S
C776 C775 1.387 . S
H777 C789 0.930 . S
H778 C791 0.930 . S
H779 C792 0.930 . S
H780 C796 0.959 . S
H781 C796 0.959 . S
H782 C796 0.961 . S
H783 C797 0.960 . S
H784 C797 0.961 . S
H785 C797 0.959 1_455 S
H786 C800 0.929 . S
H787 C801 0.931 . S
H788 C803 0.930 . S
C789 H777 0.930 . S
C789 C790 1.399 1_655 S
C789 C794 1.399 1_655 S
C790 C789 1.399 1_455 S
C790 C791 1.376 . S
C791 H778 0.930 . S
C791 C790 1.376 . S
C791 C792 1.388 . S
C792 H779 0.930 . S
C792 C791 1.388 . S
C792 C793 1.390 . S
C793 C792 1.390 . S
C793 C794 1.394 . S
C793 C799 1.465 . S
C794 C789 1.399 1_455 S
C794 C793 1.394 . S
C794 C795 1.516 . S
C795 C794 1.516 . S
C795 C796 1.502 1_455 S
C795 C797 1.561 1_455 S
C795 C798 1.526 . S
C796 H780 0.959 . S
C796 H781 0.959 . S
C796 H782 0.961 . S
C796 C795 1.502 1_655 S
C797 H783 0.960 . S
C797 H784 0.961 . S
C797 H785 0.959 1_655 S
C797 C795 1.561 1_655 S
C798 C795 1.526 . S
C798 C799 1.396 . S
C798 C803 1.390 . S
C799 C793 1.465 . S
C799 C798 1.396 . S
C799 C800 1.399 . S
C800 H786 0.929 . S
C800 C799 1.399 . S
C800 C801 1.385 . S
C801 H787 0.931 . S
C801 C800 1.385 . S
C801 C802 1.389 . S
C802 C801 1.389 . S
C802 C803 1.387 . S
C803 H788 0.930 . S
C803 C798 1.390 . S
C803 C802 1.387 . S
H804 C816 0.930 . S
H805 C818 0.930 . S
H806 C819 0.930 . S
H807 C823 0.959 . S
H808 C823 0.959 . S
H809 C823 0.961 . S
H810 C824 0.960 1_565 S
H811 C824 0.961 . S
H812 C824 0.959 . S
H813 C827 0.929 . S
H814 C828 0.931 . S
H815 C830 0.930 . S
C816 H804 0.930 . S
C816 C817 1.399 1_565 S
C816 C821 1.399 1_565 S
C817 C816 1.399 1_545 S
C817 C818 1.376 . S
C818 H805 0.930 . S
C818 C817 1.376 . S
C818 C819 1.388 . S
C819 H806 0.930 . S
C819 C818 1.388 . S
C819 C820 1.390 . S
C820 C819 1.390 . S
C820 C821 1.394 . S
C820 C826 1.465 . S
C821 C816 1.399 1_545 S
C821 C820 1.394 . S
C821 C822 1.516 . S
C822 C821 1.516 . S
C822 C823 1.502 1_545 S
C822 C824 1.561 . S
C822 C825 1.526 . S
C823 H807 0.959 . S
C823 H808 0.959 . S
C823 H809 0.961 . S
C823 C822 1.502 1_565 S
C824 H810 0.960 1_545 S
C824 H811 0.961 . S
C824 H812 0.959 . S
C824 C822 1.561 . S
C825 C822 1.526 . S
C825 C826 1.396 . S
C825 C830 1.390 . S
C826 C820 1.465 . S
C826 C825 1.396 . S
C826 C827 1.399 . S
C827 H813 0.929 . S
C827 C826 1.399 . S
C827 C828 1.385 . S
C828 H814 0.931 . S
C828 C827 1.385 . S
C828 C829 1.389 . S
C829 C828 1.389 . S
C829 C830 1.387 . S
C830 H815 0.930 . S
C830 C825 1.390 . S
C830 C829 1.387 . S
H831 C843 0.930 . S
H832 C845 0.930 . S
H833 C846 0.930 . S
H834 C850 0.959 . S
H835 C850 0.959 . S
H836 C850 0.961 . S
H837 C851 0.960 . S
H838 C851 0.961 . S
H839 C851 0.959 . S
H840 C854 0.929 . S
H841 C855 0.931 . S
H842 C857 0.930 . S
C843 H831 0.930 . S
C843 C844 1.399 . S
C843 C848 1.399 . S
C844 C843 1.399 . S
C844 C845 1.376 . S
C845 H832 0.930 . S
C845 C844 1.376 . S
C845 C846 1.388 . S
C846 H833 0.930 . S
C846 C845 1.388 . S
C846 C847 1.390 . S
C847 C846 1.390 . S
C847 C848 1.394 . S
C847 C853 1.465 . S
C848 C843 1.399 . S
C848 C847 1.394 . S
C848 C849 1.516 . S
C849 C848 1.516 . S
C849 C850 1.502 . S
C849 C851 1.561 . S
C849 C852 1.526 . S
C850 H834 0.959 . S
C850 H835 0.959 . S
C850 H836 0.961 . S
C850 C849 1.502 . S
C851 H837 0.960 . S
C851 H838 0.961 . S
C851 H839 0.959 . S
C851 C849 1.561 . S
C852 C849 1.526 . S
C852 C853 1.396 . S
C852 C857 1.390 . S
C853 C847 1.465 . S
C853 C852 1.396 . S
C853 C854 1.399 . S
C854 H840 0.929 . S
C854 C853 1.399 . S
C854 C855 1.385 . S
C855 H841 0.931 . S
C855 C854 1.385 . S
C855 C856 1.389 . S
C856 C855 1.389 . S
C856 C857 1.387 . S
C857 H842 0.930 . S
C857 C852 1.390 . S
C857 C856 1.387 . S
H858 C870 0.930 . S
H859 C872 0.930 1_455 S
H860 C873 0.930 . S
H861 C877 0.959 . S
H862 C877 0.959 . S
H863 C877 0.961 . S
H864 C878 0.960 . S
H865 C878 0.961 . S
H866 C878 0.959 . S
H867 C881 0.929 . S
H868 C882 0.931 . S
H869 C884 0.930 . S
C870 H858 0.930 . S
C870 C871 1.399 . S
C870 C875 1.399 . S
C871 C870 1.399 . S
C871 C872 1.376 . S
C872 H859 0.930 1_655 S
C872 C871 1.376 . S
C872 C873 1.388 . S
C873 H860 0.930 . S
C873 C872 1.388 . S
C873 C874 1.390 . S
C874 C873 1.390 . S
C874 C875 1.394 . S
C874 C880 1.465 . S
C875 C870 1.399 . S
C875 C874 1.394 . S
C875 C876 1.516 . S
C876 C875 1.516 . S
C876 C877 1.502 . S
C876 C878 1.561 . S
C876 C879 1.526 . S
C877 H861 0.959 . S
C877 H862 0.959 . S
C877 H863 0.961 . S
C877 C876 1.502 . S
C878 H864 0.960 . S
C878 H865 0.961 . S
C878 H866 0.959 . S
C878 C876 1.561 . S
C879 C876 1.526 . S
C879 C880 1.396 . S
C879 C884 1.390 . S
C880 C874 1.465 . S
C880 C879 1.396 . S
C880 C881 1.399 . S
C881 H867 0.929 . S
C881 C880 1.399 . S
C881 C882 1.385 . S
C882 H868 0.931 . S
C882 C881 1.385 . S
C882 C883 1.389 . S
C883 C882 1.389 . S
C883 C884 1.387 . S
C884 H869 0.930 . S
C884 C879 1.390 . S
C884 C883 1.387 . S
H885 C897 0.930 . S
H886 C899 0.930 . S
H887 C900 0.930 . S
H888 C904 0.959 . S
H889 C904 0.959 . S
H890 C904 0.961 . S
H891 C905 0.960 . S
H892 C905 0.961 . S
H893 C905 0.959 . S
H894 C908 0.929 . S
H895 C909 0.931 . S
H896 C911 0.930 . S
C897 H885 0.930 . S
C897 C898 1.399 . S
C897 C902 1.399 . S
C898 C897 1.399 . S
C898 C899 1.376 . S
C899 H886 0.930 . S
C899 C898 1.376 . S
C899 C900 1.388 . S
C900 H887 0.930 . S
C900 C899 1.388 . S
C900 C901 1.390 . S
C901 C900 1.390 . S
C901 C902 1.394 . S
C901 C907 1.465 . S
C902 C897 1.399 . S
C902 C901 1.394 . S
C902 C903 1.499 1_565 S
C903 C902 1.499 1_545 S
C903 C904 1.521 . S
C903 C905 1.560 . S
C903 C906 1.523 1_545 S
C904 H888 0.959 . S
C904 H889 0.959 . S
C904 H890 0.961 . S
C904 C903 1.521 . S
C905 H891 0.960 . S
C905 H892 0.961 . S
C905 H893 0.959 . S
C905 C903 1.560 . S
C906 C903 1.523 1_565 S
C906 C907 1.396 . S
C906 C911 1.390 1_565 S
C907 C901 1.465 . S
C907 C906 1.396 . S
C907 C908 1.399 . S
C908 H894 0.929 . S
C908 C907 1.399 . S
C908 C909 1.385 . S
C909 H895 0.931 . S
C909 C908 1.385 . S
C909 C910 1.389 . S
C910 C909 1.389 . S
C910 C911 1.387 1_565 S
C911 H896 0.930 . S
C911 C906 1.390 1_545 S
C911 C910 1.387 1_545 S
H912 C924 0.930 . S
H913 C926 0.930 . S
H914 C927 0.930 . S
H915 C931 0.959 . S
H916 C931 0.959 . S
H917 C931 0.961 . S
H918 C932 0.960 . S
H919 C932 0.961 . S
H920 C932 0.959 . S
H921 C935 0.929 . S
H922 C936 0.931 . S
H923 C938 0.930 . S
C924 H912 0.930 . S
C924 C925 1.399 . S
C924 C929 1.399 . S
C925 C924 1.399 . S
C925 C926 1.376 . S
C926 H913 0.930 . S
C926 C925 1.376 . S
C926 C927 1.388 . S
C927 H914 0.930 . S
C927 C926 1.388 . S
C927 C928 1.390 . S
C928 C927 1.390 . S
C928 C929 1.394 . S
C928 C934 1.465 . S
C929 C924 1.399 . S
C929 C928 1.394 . S
C929 C930 1.516 . S
C930 C929 1.516 . S
C930 C931 1.502 . S
C930 C932 1.561 . S
C930 C933 1.526 . S
C931 H915 0.959 . S
C931 H916 0.959 . S
C931 H917 0.961 . S
C931 C930 1.502 . S
C932 H918 0.960 . S
C932 H919 0.961 . S
C932 H920 0.959 . S
C932 C930 1.561 . S
C933 C930 1.526 . S
C933 C934 1.396 . S
C933 C938 1.390 . S
C934 C928 1.465 . S
C934 C933 1.396 . S
C934 C935 1.399 . S
C935 H921 0.929 . S
C935 C934 1.399 . S
C935 C936 1.385 . S
C936 H922 0.931 . S
C936 C935 1.385 . S
C936 C937 1.389 . S
C937 C936 1.389 . S
C937 C938 1.387 . S
C938 H923 0.930 . S
C938 C933 1.390 . S
C938 C937 1.387 . S
H939 C951 0.930 . S
H940 C953 0.930 . S
H941 C954 0.930 . S
H942 C958 0.959 . S
H943 C958 0.959 . S
H944 C958 0.961 . S
H945 C959 0.960 . S
H946 C959 0.961 . S
H947 C959 0.959 . S
H948 C962 0.929 . S
H949 C963 0.931 . S
H950 C965 0.930 . S
C951 H939 0.930 . S
C951 C952 1.399 . S
C951 C956 1.399 . S
C952 C951 1.399 . S
C952 C953 1.376 . S
C953 H940 0.930 . S
C953 C952 1.376 . S
C953 C954 1.388 . S
C954 H941 0.930 . S
C954 C953 1.388 . S
C954 C955 1.390 . S
C955 C954 1.390 . S
C955 C956 1.394 . S
C955 C961 1.465 . S
C956 C951 1.399 . S
C956 C955 1.394 . S
C956 C957 1.516 . S
C957 C956 1.516 . S
C957 C958 1.502 . S
C957 C959 1.561 . S
C957 C960 1.526 . S
C958 H942 0.959 . S
C958 H943 0.959 . S
C958 H944 0.961 . S
C958 C957 1.502 . S
C959 H945 0.960 . S
C959 H946 0.961 . S
C959 H947 0.959 . S
C959 C957 1.561 . S
C960 C957 1.526 . S
C960 C961 1.396 . S
C960 C965 1.390 . S
C961 C955 1.465 . S
C961 C960 1.396 . S
C961 C962 1.399 . S
C962 H948 0.929 . S
C962 C961 1.399 . S
C962 C963 1.385 . S
C963 H949 0.931 . S
C963 C962 1.385 . S
C963 C964 1.389 . S
C964 C963 1.389 . S
C964 C965 1.387 . S
C965 H950 0.930 . S
C965 C960 1.390 . S
C965 C964 1.387 . S
H966 C978 0.930 . S
H967 C980 0.930 1_565 S
H968 C981 0.930 . S
H969 C985 0.959 . S
H970 C985 0.959 . S
H971 C985 0.961 . S
H972 C986 0.960 . S
H973 C986 0.961 . S
H974 C986 0.959 . S
H975 C989 0.929 . S
H976 C990 0.931 . S
H977 C992 0.930 . S
C978 H966 0.930 . S
C978 C979 1.399 . S
C978 C983 1.399 . S
C979 C978 1.399 . S
C979 C980 1.376 . S
C980 H967 0.930 1_545 S
C980 C979 1.376 . S
C980 C981 1.388 . S
C981 H968 0.930 . S
C981 C980 1.388 . S
C981 C982 1.390 . S
C982 C981 1.390 . S
C982 C983 1.394 . S
C982 C988 1.465 . S
C983 C978 1.399 . S
C983 C982 1.394 . S
C983 C984 1.516 . S
C984 C983 1.516 . S
C984 C985 1.502 . S
C984 C986 1.561 . S
C984 C987 1.526 . S
C985 H969 0.959 . S
C985 H970 0.959 . S
C985 H971 0.961 . S
C985 C984 1.502 . S
C986 H972 0.960 . S
C986 H973 0.961 . S
C986 H974 0.959 . S
C986 C984 1.561 . S
C987 C984 1.526 . S
C987 C988 1.396 . S
C987 C992 1.390 . S
C988 C982 1.465 . S
C988 C987 1.396 . S
C988 C989 1.399 . S
C989 H975 0.929 . S
C989 C988 1.399 . S
C989 C990 1.385 . S
C990 H976 0.931 . S
C990 C989 1.385 . S
C990 C991 1.389 . S
C991 C990 1.389 . S
C991 C992 1.387 . S
C992 H977 0.930 . S
C992 C987 1.390 . S
C992 C991 1.387 . S
H993 C1005 0.930 . S
H994 C1007 0.930 . S
H995 C1008 0.930 . S
H996 C1012 0.959 . S
H997 C1012 0.959 . S
H998 C1012 0.961 . S
H999 C1013 0.960 . S
H1000 C1013 0.961 . S
H1001 C1013 0.959 . S
H1002 C1016 0.929 . S
H1003 C1017 0.931 . S
H1004 C1019 0.930 . S
C1005 H993 0.930 . S
C1005 C1006 1.399 . S
C1005 C1010 1.399 . S
C1006 C1005 1.399 . S
C1006 C1007 1.376 . S
C1007 H994 0.930 . S
C1007 C1006 1.376 . S
C1007 C1008 1.388 . S
C1008 H995 0.930 . S
C1008 C1007 1.388 . S
C1008 C1009 1.390 . S
C1009 C1008 1.390 . S
C1009 C1010 1.394 . S
C1009 C1015 1.465 . S
C1010 C1005 1.399 . S
C1010 C1009 1.394 . S
C1010 C1011 1.516 . S
C1011 C1010 1.516 . S
C1011 C1012 1.502 . S
C1011 C1013 1.561 . S
C1011 C1014 1.526 . S
C1012 H996 0.959 . S
C1012 H997 0.959 . S
C1012 H998 0.961 . S
C1012 C1011 1.502 . S
C1013 H999 0.960 . S
C1013 H1000 0.961 . S
C1013 H1001 0.959 . S
C1013 C1011 1.561 . S
C1014 C1011 1.526 . S
C1014 C1015 1.396 . S
C1014 C1019 1.390 . S
C1015 C1009 1.465 . S
C1015 C1014 1.396 . S
C1015 C1016 1.399 . S
C1016 H1002 0.929 . S
C1016 C1015 1.399 . S
C1016 C1017 1.385 . S
C1017 H1003 0.931 . S
C1017 C1016 1.385 . S
C1017 C1018 1.389 . S
C1018 C1017 1.389 . S
C1018 C1019 1.387 . S
C1019 H1004 0.930 . S
C1019 C1014 1.390 . S
C1019 C1018 1.387 . S
H1020 C1032 0.930 . S
H1021 C1034 0.930 . S
H1022 C1035 0.930 . S
H1023 C1039 0.959 . S
H1024 C1039 0.959 . S
H1025 C1039 0.961 . S
H1026 C1040 0.960 . S
H1027 C1040 0.961 . S
H1028 C1040 0.959 . S
H1029 C1043 0.929 . S
H1030 C1044 0.931 . S
H1031 C1046 0.930 . S
C1032 H1020 0.930 . S
C1032 C1033 1.399 . S
C1032 C1037 1.399 . S
C1033 C1032 1.399 . S
C1033 C1034 1.376 . S
C1034 H1021 0.930 . S
C1034 C1033 1.376 . S
C1034 C1035 1.388 . S
C1035 H1022 0.930 . S
C1035 C1034 1.388 . S
C1035 C1036 1.390 . S
C1036 C1035 1.390 . S
C1036 C1037 1.394 . S
C1036 C1042 1.465 . S
C1037 C1032 1.399 . S
C1037 C1036 1.394 . S
C1037 C1038 1.516 . S
C1038 C1037 1.516 . S
C1038 C1039 1.502 . S
C1038 C1040 1.561 . S
C1038 C1041 1.526 . S
C1039 H1023 0.959 . S
C1039 H1024 0.959 . S
C1039 H1025 0.961 . S
C1039 C1038 1.502 . S
C1040 H1026 0.960 . S
C1040 H1027 0.961 . S
C1040 H1028 0.959 . S
C1040 C1038 1.561 . S
C1041 C1038 1.526 . S
C1041 C1042 1.396 . S
C1041 C1046 1.390 . S
C1042 C1036 1.465 . S
C1042 C1041 1.396 . S
C1042 C1043 1.399 . S
C1043 H1029 0.929 . S
C1043 C1042 1.399 . S
C1043 C1044 1.385 . S
C1044 H1030 0.931 . S
C1044 C1043 1.385 . S
C1044 C1045 1.389 . S
C1045 C1044 1.389 . S
C1045 C1046 1.387 . S
C1046 H1031 0.930 . S
C1046 C1041 1.390 . S
C1046 C1045 1.387 . S
H1047 C1059 0.930 . S
H1048 C1061 0.930 1_655 S
H1049 C1062 0.930 . S
H1050 C1066 0.959 . S
H1051 C1066 0.959 . S
H1052 C1066 0.961 . S
H1053 C1067 0.960 . S
H1054 C1067 0.961 . S
H1055 C1067 0.959 . S
H1056 C1070 0.929 . S
H1057 C1071 0.931 . S
H1058 C1073 0.930 . S
C1059 H1047 0.930 . S
C1059 C1060 1.399 . S
C1059 C1064 1.399 . S
C1060 C1059 1.399 . S
C1060 C1061 1.376 . S
C1061 H1048 0.930 1_455 S
C1061 C1060 1.376 . S
C1061 C1062 1.388 . S
C1062 H1049 0.930 . S
C1062 C1061 1.388 . S
C1062 C1063 1.390 . S
C1063 C1062 1.390 . S
C1063 C1064 1.394 . S
C1063 C1069 1.465 . S
C1064 C1059 1.399 . S
C1064 C1063 1.394 . S
C1064 C1065 1.516 . S
C1065 C1064 1.516 . S
C1065 C1066 1.502 . S
C1065 C1067 1.561 . S
C1065 C1068 1.526 . S
C1066 H1050 0.959 . S
C1066 H1051 0.959 . S
C1066 H1052 0.961 . S
C1066 C1065 1.502 . S
C1067 H1053 0.960 . S
C1067 H1054 0.961 . S
C1067 H1055 0.959 . S
C1067 C1065 1.561 . S
C1068 C1065 1.526 . S
C1068 C1069 1.396 . S
C1068 C1073 1.390 . S
C1069 C1063 1.465 . S
C1069 C1068 1.396 . S
C1069 C1070 1.399 . S
C1070 H1056 0.929 . S
C1070 C1069 1.399 . S
C1070 C1071 1.385 . S
C1071 H1057 0.931 . S
C1071 C1070 1.385 . S
C1071 C1072 1.389 . S
C1072 C1071 1.389 . S
C1072 C1073 1.387 . S
C1073 H1058 0.930 . S
C1073 C1068 1.390 . S
C1073 C1072 1.387 . S
H1074 C1086 0.930 . S
H1075 C1088 0.930 . S
H1076 C1089 0.930 . S
H1077 C1093 0.959 . S
H1078 C1093 0.959 1_565 S
H1079 C1093 0.961 . S
H1080 C1094 0.960 . S
H1081 C1094 0.961 1_565 S
H1082 C1094 0.959 . S
H1083 C1097 0.929 . S
H1084 C1098 0.931 . S
H1085 C1100 0.930 . S
C1086 H1074 0.930 . S
C1086 C1087 1.399 1_556 S
C1086 C1091 1.399 . S
C1087 C1086 1.399 1_554 S
C1087 C1088 1.376 . S
C1088 H1075 0.930 . S
C1088 C1087 1.376 . S
C1088 C1089 1.388 . S
C1089 H1076 0.930 . S
C1089 C1088 1.388 . S
C1089 C1090 1.390 . S
C1090 C1089 1.390 . S
C1090 C1091 1.394 1_554 S
C1090 C1096 1.465 1_545 S
C1091 C1086 1.399 . S
C1091 C1090 1.394 1_556 S
C1091 C1092 1.516 . S
C1092 C1091 1.516 . S
C1092 C1093 1.502 . S
C1092 C1094 1.561 . S
C1092 C1095 1.526 1_545 S
C1093 H1077 0.959 . S
C1093 H1078 0.959 1_545 S
C1093 H1079 0.961 . S
C1093 C1092 1.502 . S
C1094 H1080 0.960 . S
C1094 H1081 0.961 1_545 S
C1094 H1082 0.959 . S
C1094 C1092 1.561 . S
C1095 C1092 1.526 1_565 S
C1095 C1096 1.396 1_556 S
C1095 C1100 1.390 . S
C1096 C1090 1.465 1_565 S
C1096 C1095 1.396 1_554 S
C1096 C1097 1.399 . S
C1097 H1083 0.929 . S
C1097 C1096 1.399 . S
C1097 C1098 1.385 . S
C1098 H1084 0.931 . S
C1098 C1097 1.385 . S
C1098 C1099 1.389 1_554 S
C1099 C1098 1.389 1_556 S
C1099 C1100 1.387 . S
C1100 H1085 0.930 . S
C1100 C1095 1.390 . S
C1100 C1099 1.387 . S
H1101 C1113 0.930 . S
H1102 C1115 0.930 . S
H1103 C1116 0.930 . S
H1104 C1120 0.959 . S
H1105 C1120 0.959 . S
H1106 C1120 0.961 . S
H1107 C1121 0.960 . S
H1108 C1121 0.961 . S
H1109 C1121 0.959 . S
H1110 C1124 0.929 . S
H1111 C1125 0.931 . S
H1112 C1127 0.930 . S
C1113 H1101 0.930 . S
C1113 C1114 1.399 . S
C1113 C1118 1.399 . S
C1114 C1113 1.399 . S
C1114 C1115 1.376 . S
C1115 H1102 0.930 . S
C1115 C1114 1.376 . S
C1115 C1116 1.388 . S
C1116 H1103 0.930 . S
C1116 C1115 1.388 . S
C1116 C1117 1.390 . S
C1117 C1116 1.390 . S
C1117 C1118 1.394 . S
C1117 C1123 1.465 . S
C1118 C1113 1.399 . S
C1118 C1117 1.394 . S
C1118 C1119 1.516 . S
C1119 C1118 1.516 . S
C1119 C1120 1.502 . S
C1119 C1121 1.561 . S
C1119 C1122 1.526 . S
C1120 H1104 0.959 . S
C1120 H1105 0.959 . S
C1120 H1106 0.961 . S
C1120 C1119 1.502 . S
C1121 H1107 0.960 . S
C1121 H1108 0.961 . S
C1121 H1109 0.959 . S
C1121 C1119 1.561 . S
C1122 C1119 1.526 . S
C1122 C1123 1.396 . S
C1122 C1127 1.390 . S
C1123 C1117 1.465 . S
C1123 C1122 1.396 . S
C1123 C1124 1.399 . S
C1124 H1110 0.929 . S
C1124 C1123 1.399 . S
C1124 C1125 1.385 . S
C1125 H1111 0.931 . S
C1125 C1124 1.385 . S
C1125 C1126 1.389 . S
C1126 C1125 1.389 . S
C1126 C1127 1.387 . S
C1127 H1112 0.930 . S
C1127 C1122 1.390 . S
C1127 C1126 1.387 . S
H1128 C1140 0.930 . S
H1129 C1142 0.930 . S
H1130 C1143 0.930 . S
H1131 C1147 0.959 . S
H1132 C1147 0.959 1_655 S
H1133 C1147 0.961 . S
H1134 C1148 0.960 . S
H1135 C1148 0.961 1_655 S
H1136 C1148 0.959 . S
H1137 C1151 0.929 . S
H1138 C1152 0.931 . S
H1139 C1154 0.930 . S
C1140 H1128 0.930 . S
C1140 C1141 1.399 . S
C1140 C1145 1.399 . S
C1141 C1140 1.399 . S
C1141 C1142 1.376 . S
C1142 H1129 0.930 . S
C1142 C1141 1.376 . S
C1142 C1143 1.388 . S
C1143 H1130 0.930 . S
C1143 C1142 1.388 . S
C1143 C1144 1.390 . S
C1144 C1143 1.390 . S
C1144 C1145 1.394 . S
C1144 C1150 1.465 1_455 S
C1145 C1140 1.399 . S
C1145 C1144 1.394 . S
C1145 C1146 1.516 . S
C1146 C1145 1.516 . S
C1146 C1147 1.502 . S
C1146 C1148 1.561 . S
C1146 C1149 1.526 1_455 S
C1147 H1131 0.959 . S
C1147 H1132 0.959 1_455 S
C1147 H1133 0.961 . S
C1147 C1146 1.502 . S
C1148 H1134 0.960 . S
C1148 H1135 0.961 1_455 S
C1148 H1136 0.959 . S
C1148 C1146 1.561 . S
C1149 C1146 1.526 1_655 S
C1149 C1150 1.396 . S
C1149 C1154 1.390 . S
C1150 C1144 1.465 1_655 S
C1150 C1149 1.396 . S
C1150 C1151 1.399 . S
C1151 H1137 0.929 . S
C1151 C1150 1.399 . S
C1151 C1152 1.385 . S
C1152 H1138 0.931 . S
C1152 C1151 1.385 . S
C1152 C1153 1.389 . S
C1153 C1152 1.389 . S
C1153 C1154 1.387 . S
C1154 H1139 0.930 . S
C1154 C1149 1.390 . S
C1154 C1153 1.387 . S
H1155 C1167 0.930 1_455 S
H1156 C1169 0.930 . S
H1157 C1170 0.930 . S
H1158 C1174 0.959 1_565 S
H1159 C1174 0.959 1_565 S
H1160 C1174 0.961 . S
H1161 C1175 0.960 . S
H1162 C1175 0.961 1_565 S
H1163 C1175 0.959 . S
H1164 C1178 0.929 . S
H1165 C1179 0.931 . S
H1166 C1181 0.930 . S
C1167 H1155 0.930 1_655 S
C1167 C1168 1.399 . S
C1167 C1172 1.399 . S
C1168 C1167 1.399 . S
C1168 C1169 1.376 . S
C1169 H1156 0.930 . S
C1169 C1168 1.376 . S
C1169 C1170 1.388 . S
C1170 H1157 0.930 . S
C1170 C1169 1.388 . S
C1170 C1171 1.390 . S
C1171 C1170 1.390 . S
C1171 C1172 1.394 . S
C1171 C1177 1.465 1_545 S
C1172 C1167 1.399 . S
C1172 C1171 1.394 . S
C1172 C1173 1.516 . S
C1173 C1172 1.516 . S
C1173 C1174 1.502 1_655 S
C1173 C1175 1.561 . S
C1173 C1176 1.526 1_545 S
C1174 H1158 0.959 1_545 S
C1174 H1159 0.959 1_545 S
C1174 H1160 0.961 . S
C1174 C1173 1.502 1_455 S
C1175 H1161 0.960 . S
C1175 H1162 0.961 1_545 S
C1175 H1163 0.959 . S
C1175 C1173 1.561 . S
C1176 C1173 1.526 1_565 S
C1176 C1177 1.396 . S
C1176 C1181 1.390 . S
C1177 C1171 1.465 1_565 S
C1177 C1176 1.396 . S
C1177 C1178 1.399 . S
C1178 H1164 0.929 . S
C1178 C1177 1.399 . S
C1178 C1179 1.385 . S
C1179 H1165 0.931 . S
C1179 C1178 1.385 . S
C1179 C1180 1.389 . S
C1180 C1179 1.389 . S
C1180 C1181 1.387 . S
C1181 H1166 0.930 . S
C1181 C1176 1.390 . S
C1181 C1180 1.387 . S
H1182 C1194 0.930 . S
H1183 C1196 0.930 . S
H1184 C1197 0.930 . S
H1185 C1201 0.959 . S
H1186 C1201 0.959 . S
H1187 C1201 0.961 . S
H1188 C1202 0.960 . S
H1189 C1202 0.961 . S
H1190 C1202 0.959 . S
H1191 C1205 0.929 . S
H1192 C1206 0.931 . S
H1193 C1208 0.930 . S
C1194 H1182 0.930 . S
C1194 C1195 1.399 . S
C1194 C1199 1.399 . S
C1195 C1194 1.399 . S
C1195 C1196 1.376 . S
C1196 H1183 0.930 . S
C1196 C1195 1.376 . S
C1196 C1197 1.388 . S
C1197 H1184 0.930 . S
C1197 C1196 1.388 . S
C1197 C1198 1.390 . S
C1198 C1197 1.390 . S
C1198 C1199 1.394 . S
C1198 C1204 1.465 . S
C1199 C1194 1.399 . S
C1199 C1198 1.394 . S
C1199 C1200 1.516 . S
C1200 C1199 1.516 . S
C1200 C1201 1.502 . S
C1200 C1202 1.561 . S
C1200 C1203 1.526 . S
C1201 H1185 0.959 . S
C1201 H1186 0.959 . S
C1201 H1187 0.961 . S
C1201 C1200 1.502 . S
C1202 H1188 0.960 . S
C1202 H1189 0.961 . S
C1202 H1190 0.959 . S
C1202 C1200 1.561 . S
C1203 C1200 1.526 . S
C1203 C1204 1.396 . S
C1203 C1208 1.390 . S
C1204 C1198 1.465 . S
C1204 C1203 1.396 . S
C1204 C1205 1.399 . S
C1205 H1191 0.929 . S
C1205 C1204 1.399 . S
C1205 C1206 1.385 . S
C1206 H1192 0.931 . S
C1206 C1205 1.385 . S
C1206 C1207 1.389 . S
C1207 C1206 1.389 . S
C1207 C1208 1.387 . S
C1208 H1193 0.930 . S
C1208 C1203 1.390 . S
C1208 C1207 1.387 . S
H1209 C1221 0.930 . S
H1210 C1223 0.930 . S
H1211 C1224 0.930 . S
H1212 C1228 0.959 . S
H1213 C1228 0.959 . S
H1214 C1228 0.961 1_455 S
H1215 C1229 0.960 1_455 S
H1216 C1229 0.961 . S
H1217 C1229 0.959 . S
H1218 C1232 0.929 . S
H1219 C1233 0.931 . S
H1220 C1235 0.930 . S
C1221 H1209 0.930 . S
C1221 C1222 1.399 . S
C1221 C1226 1.399 . S
C1222 C1221 1.399 . S
C1222 C1223 1.376 . S
C1223 H1210 0.930 . S
C1223 C1222 1.376 . S
C1223 C1224 1.388 . S
C1224 H1211 0.930 . S
C1224 C1223 1.388 . S
C1224 C1225 1.390 . S
C1225 C1224 1.390 . S
C1225 C1226 1.394 . S
C1225 C1231 1.465 1_455 S
C1226 C1221 1.399 . S
C1226 C1225 1.394 . S
C1226 C1227 1.516 1_455 S
C1227 C1226 1.516 1_655 S
C1227 C1228 1.502 . S
C1227 C1229 1.561 . S
C1227 C1230 1.526 . S
C1228 H1212 0.959 . S
C1228 H1213 0.959 . S
C1228 H1214 0.961 1_655 S
C1228 C1227 1.502 . S
C1229 H1215 0.960 1_655 S
C1229 H1216 0.961 . S
C1229 H1217 0.959 . S
C1229 C1227 1.561 . S
C1230 C1227 1.526 . S
C1230 C1231 1.396 . S
C1230 C1235 1.390 . S
C1231 C1225 1.465 1_655 S
C1231 C1230 1.396 . S
C1231 C1232 1.399 . S
C1232 H1218 0.929 . S
C1232 C1231 1.399 . S
C1232 C1233 1.385 . S
C1233 H1219 0.931 . S
C1233 C1232 1.385 . S
C1233 C1234 1.389 . S
C1234 C1233 1.389 . S
C1234 C1235 1.387 . S
C1235 H1220 0.930 . S
C1235 C1230 1.390 . S
C1235 C1234 1.387 . S
C277 C164 1.746 . S
C289 C10 1.832 . S
C304 C186 1.800 . S
C316 C30 1.812 . S
C331 C216 1.804 . S
C343 C54 1.809 . S
C358 C238 1.758 . S
C370 C74 1.825 . S
C385 C252 1.744 . S
C397 C96 1.833 . S
C412 C142 1.803 . S
C424 C120 1.809 . S
C439 C150 1.818 . S
C451 C118 1.771 . S
C466 C172 1.813 . S
C478 C8 1.781 . S
C493 C194 1.829 . S
C505 C40 1.769 . S
C520 C206 1.829 . S
C532 C52 1.766 . S
C547 C228 1.812 . S
C559 C84 1.799 . S
C574 C260 1.820 . S
C586 C106 1.786 . S
C601 C18 1.397 . S
C613 C131 1.413 . S
C628 C32 1.418 . S
C640 C21 1.447 . S
C655 C29 1.412 . S
C667 C62 1.399 1_545 S
C682 C65 1.431 . S
C694 C76 1.450 . S
C709 C73 1.461 . S
C721 C98 1.443 . S
C736 C128 1.420 1_565 S
C748 C95 1.409 . S
C763 C140 1.446 . S
C775 C169 1.426 . S
C790 C162 1.402 1_455 S
C802 C191 1.410 . S
C817 C184 1.399 1_545 S
C829 C205 1.412 . S
C844 C208 1.452 . S
C856 C227 1.433 . S
C871 C230 1.405 1_655 S
C883 C257 1.439 . S
C898 C147 1.413 . S
C910 C250 1.399 1_565 S
C925 C183 1.167 . S
C937 C15 1.136 . S
C952 C43 1.152 . S
C964 C219 1.166 . S
C979 C59 1.158 . S
C991 C241 1.126 . S
C1006 C87 1.168 . S
C1018 C249 1.140 . S
C1033 C109 1.165 . S
C1045 C139 1.154 . S
C1060 C161 1.153 . S
C1072 C125 1.124 . S
C1087 C7 0.415 . S
C1099 C175 0.267 . S
C1114 C197 0.437 . S
C1126 C37 0.262 . S
C1141 C213 0.424 . S
C1153 C51 0.263 . S
C1168 C235 0.363 . S
C1180 C81 0.306 . S
C1195 C103 0.423 . S
C1207 C263 0.263 . S
C1222 C117 0.291 . S
C1234 C153 0.453 . S
