# Generated by pormake.
# Topology uoz, (4)-cn, num edge types: 1
# Building blocks:
#     Node 0, Type 0, BuildingBlock: NAHDIM_clean_sbu_0, # of connection points: 4
#     Node 1, Type 0, BuildingBlock: NAHDIM_clean_sbu_0, # of connection points: 4
#     Node 2, Type 0, BuildingBlock: NAHDIM_clean_sbu_0, # of connection points: 4
#     Node 3, Type 0, BuildingBlock: NAHDIM_clean_sbu_0, # of connection points: 4
#     Node 4, Type 0, BuildingBlock: NAHDIM_clean_sbu_0, # of connection points: 4
#     Node 5, Type 0, BuildingBlock: NAHDIM_clean_sbu_0, # of connection points: 4
#     Node 6, Type 0, BuildingBlock: NAHDIM_clean_sbu_0, # of connection points: 4
#     Node 7, Type 0, BuildingBlock: NAHDIM_clean_sbu_0, # of connection points: 4
#     Node 8, Type 0, BuildingBlock: NAHDIM_clean_sbu_0, # of connection points: 4
#     Node 9, Type 0, BuildingBlock: NAHDIM_clean_sbu_0, # of connection points: 4
#     Node 10, Type 0, BuildingBlock: NAHDIM_clean_sbu_0, # of connection points: 4
#     Node 11, Type 0, BuildingBlock: NAHDIM_clean_sbu_0, # of connection points: 4
#     Node 12, Type 0, BuildingBlock: NAHDIM_clean_sbu_0, # of connection points: 4
#     Node 13, Type 0, BuildingBlock: NAHDIM_clean_sbu_0, # of connection points: 4
#     Node 14, Type 0, BuildingBlock: NAHDIM_clean_sbu_0, # of connection points: 4
#     Node 15, Type 0, BuildingBlock: NAHDIM_clean_sbu_0, # of connection points: 4
#     Edge 16, Type (0, 0), BuildingBlock: CIFDUS_clean_linker_0, # of connection points: 2
#     Edge 17, Type (0, 0), BuildingBlock: CIFDUS_clean_linker_0, # of connection points: 2
#     Edge 18, Type (0, 0), BuildingBlock: CIFDUS_clean_linker_0, # of connection points: 2
#     Edge 19, Type (0, 0), BuildingBlock: CIFDUS_clean_linker_0, # of connection points: 2
#     Edge 20, Type (0, 0), BuildingBlock: CIFDUS_clean_linker_0, # of connection points: 2
#     Edge 21, Type (0, 0), BuildingBlock: CIFDUS_clean_linker_0, # of connection points: 2
#     Edge 22, Type (0, 0), BuildingBlock: CIFDUS_clean_linker_0, # of connection points: 2
#     Edge 23, Type (0, 0), BuildingBlock: CIFDUS_clean_linker_0, # of connection points: 2
#     Edge 24, Type (0, 0), BuildingBlock: CIFDUS_clean_linker_0, # of connection points: 2
#     Edge 25, Type (0, 0), BuildingBlock: CIFDUS_clean_linker_0, # of connection points: 2
#     Edge 26, Type (0, 0), BuildingBlock: CIFDUS_clean_linker_0, # of connection points: 2
#     Edge 27, Type (0, 0), BuildingBlock: CIFDUS_clean_linker_0, # of connection points: 2
#     Edge 28, Type (0, 0), BuildingBlock: CIFDUS_clean_linker_0, # of connection points: 2
#     Edge 29, Type (0, 0), BuildingBlock: CIFDUS_clean_linker_0, # of connection points: 2
#     Edge 30, Type (0, 0), BuildingBlock: CIFDUS_clean_linker_0, # of connection points: 2
#     Edge 31, Type (0, 0), BuildingBlock: CIFDUS_clean_linker_0, # of connection points: 2
#     Edge 32, Type (0, 0), BuildingBlock: CIFDUS_clean_linker_0, # of connection points: 2
#     Edge 33, Type (0, 0), BuildingBlock: CIFDUS_clean_linker_0, # of connection points: 2
#     Edge 34, Type (0, 0), BuildingBlock: CIFDUS_clean_linker_0, # of connection points: 2
#     Edge 35, Type (0, 0), BuildingBlock: CIFDUS_clean_linker_0, # of connection points: 2
#     Edge 36, Type (0, 0), BuildingBlock: CIFDUS_clean_linker_0, # of connection points: 2
#     Edge 37, Type (0, 0), BuildingBlock: CIFDUS_clean_linker_0, # of connection points: 2
#     Edge 38, Type (0, 0), BuildingBlock: CIFDUS_clean_linker_0, # of connection points: 2
#     Edge 39, Type (0, 0), BuildingBlock: CIFDUS_clean_linker_0, # of connection points: 2
#     Edge 40, Type (0, 0), BuildingBlock: CIFDUS_clean_linker_0, # of connection points: 2
#     Edge 41, Type (0, 0), BuildingBlock: CIFDUS_clean_linker_0, # of connection points: 2
#     Edge 42, Type (0, 0), BuildingBlock: CIFDUS_clean_linker_0, # of connection points: 2
#     Edge 43, Type (0, 0), BuildingBlock: CIFDUS_clean_linker_0, # of connection points: 2
#     Edge 44, Type (0, 0), BuildingBlock: CIFDUS_clean_linker_0, # of connection points: 2
#     Edge 45, Type (0, 0), BuildingBlock: CIFDUS_clean_linker_0, # of connection points: 2
#     Edge 46, Type (0, 0), BuildingBlock: CIFDUS_clean_linker_0, # of connection points: 2
#     Edge 47, Type (0, 0), BuildingBlock: CIFDUS_clean_linker_0, # of connection points: 2
# Relax obj value: 0.104
# Max RMSD: 0.095
# Mean RMSD: 0.095
data_MOF--net-uoz--node1-NAHDIM_clean_sbu_0--edge1-CIFDUS_clean_linker_0
_symmetry_space_group_name_H-M    P1
_symmetry_Int_Tables_number       1
_symmetry_cell_setting            triclinic
loop_
_symmetry_equiv_pos_as_xyz
'x, y, z'
_cell_length_a     52.135254
_cell_length_b     52.131619
_cell_length_c     19.956126
_cell_angle_alpha  89.886455
_cell_angle_beta   90.12473
_cell_angle_gamma 90.149442
loop_
_atom_site_label
_atom_site_type_symbol
_atom_site_fract_x
_atom_site_fract_y
_atom_site_fract_z
_atom_type_partial_charge
C0 C 0.01025 0.5505 0.42508 0.0
O1 O 0.99093 0.54911 0.38284 0.0
O2 O 0.06372 0.59819 0.3003 0.0
Zn3 Zn 0.02855 0.58316 0.32171 0.0
O4 O 0.02046 0.55457 0.25828 0.0
C5 C 0.00532 0.6278 0.26497 0.0
O6 O 0.02822 0.62924 0.23789 0.0
O7 O 0.02847 0.56609 0.4127 0.0
C8 C 0.01619 0.5577 0.19622 0.0
O9 O 0.01767 0.58077 0.16998 0.0
C10 C 0.07838 0.58882 0.25569 0.0
O11 O 0.07174 0.56748 0.22539 0.0
O12 O 0.00084 0.61009 0.30748 0.0
C13 C 0.73397 0.72389 0.66913 0.0
O14 O 0.73909 0.70754 0.62098 0.0
O15 O 0.67364 0.76921 0.55935 0.0
Zn16 Zn 0.69584 0.73805 0.57387 0.0
O17 O 0.72246 0.73852 0.50223 0.0
C18 C 0.67917 0.68843 0.52206 0.0
O19 O 0.7029 0.68688 0.50048 0.0
O20 O 0.7147 0.73865 0.66263 0.0
C21 C 0.71629 0.74039 0.44087 0.0
O22 O 0.69193 0.74185 0.42426 0.0
C23 C 0.682 0.78996 0.53368 0.0
O24 O 0.70672 0.79256 0.52294 0.0
O25 O 0.67279 0.70725 0.55895 0.0
C26 C 0.51827 0.4669 0.87348 0.0
O27 O 0.50618 0.47337 0.81817 0.0
O28 O 0.5015 0.401 0.77665 0.0
Zn29 Zn 0.53177 0.4247 0.79033 0.0
O30 O 0.53582 0.44953 0.71391 0.0
C31 C 0.56889 0.39314 0.73154 0.0
O32 O 0.55448 0.39899 0.67968 0.0
O33 O 0.53008 0.44557 0.87556 0.0
C34 C 0.5236 0.44927 0.65882 0.0
O35 O 0.50612 0.43161 0.64776 0.0
C36 C 0.47833 0.40644 0.76272 0.0
O37 O 0.47122 0.43057 0.75951 0.0
O38 O 0.56313 0.40225 0.78867 0.0
C39 C 0.84306 0.22932 0.19161 0.0
O40 O 0.84164 0.20966 0.15065 0.0
O41 O 0.89844 0.21557 0.07292 0.0
Zn42 Zn 0.87452 0.24563 0.08566 0.0
O43 O 0.84514 0.24125 0.02234 0.0
C44 C 0.90388 0.27581 -0.0004 0.0
O45 O 0.8998 0.25484 0.96467 0.0
O46 O 0.85826 0.24767 0.17726 0.0
C47 C 0.83445 0.25963 0.99146 0.0
O48 O 0.84294 0.28316 -0.00021 0.0
C49 C 0.89162 0.19612 0.03873 0.0
O50 O 0.86758 0.19395 0.01972 0.0
O51 O 0.89434 0.27736 0.05814 0.0
C52 C 0.04652 0.44877 0.71015 0.0
O53 O 0.06524 0.45098 0.754 0.0
O54 O 0.06341 0.39539 0.82819 0.0
Zn55 Zn 0.03067 0.41517 0.81161 0.0
O56 O 0.02948 0.44465 0.87504 0.0
C57 C 0.99895 0.36983 0.80373 0.0
O58 O 0.01575 0.36326 0.75793 0.0
O59 O 0.02909 0.43211 0.72062 0.0
C60 C 0.01603 0.44543 0.92786 0.0
O61 O 0.00237 0.42533 0.94559 0.0
C62 C 0.06664 0.387 0.88756 0.0
O63 O 0.04908 0.39192 0.9328 0.0
O64 O 0.00078 0.39176 0.83093 0.0
C65 C 0.82264 0.76133 0.98223 0.0
O66 O 0.81713 0.77757 0.0303 0.0
O67 O 0.87923 0.7834 0.09316 0.0
Zn68 Zn 0.86096 0.74966 0.0779 0.0
O69 O 0.83431 0.74611 0.14845 0.0
C70 C 0.91022 0.72505 0.07941 0.0
O71 O 0.91667 0.74591 0.04643 0.0
O72 O 0.84237 0.74717 0.98871 0.0
C73 C 0.84052 0.74437 0.20978 0.0
O74 O 0.8649 0.74466 0.2266 0.0
C75 C 0.86952 0.80238 0.12396 0.0
O76 O 0.84524 0.80165 0.14127 0.0
O77 O 0.88679 0.72147 0.09442 0.0
C78 C 0.51182 0.57965 0.14354 0.0
O79 O 0.49211 0.5948 0.15356 0.0
O80 O 0.49639 0.62113 0.28065 0.0
Zn81 Zn 0.52464 0.59456 0.27896 0.0
O82 O 0.51586 0.56574 0.34113 0.0
C83 C 0.55334 0.62178 0.37325 0.0
O84 O 0.53049 0.62045 0.40072 0.0
O85 O 0.52912 0.57802 0.18833 0.0
C86 C 0.53394 0.55301 0.36764 0.0
O87 O 0.55782 0.55897 0.35344 0.0
C88 C 0.47717 0.61879 0.31939 0.0
O89 O 0.47449 0.59764 0.35457 0.0
O90 O 0.55668 0.61165 0.31591 0.0
C91 C 0.74178 0.26534 0.47644 0.0
O92 O 0.74185 0.28562 0.51546 0.0
O93 O 0.68058 0.22287 0.5933 0.0
Zn94 Zn 0.70465 0.25218 0.57201 0.0
O95 O 0.73 0.25767 0.64643 0.0
C96 C 0.67326 0.28971 0.62595 0.0
O97 O 0.67884 0.27532 0.67804 0.0
O98 O 0.72568 0.24749 0.48808 0.0
C99 C 0.73 0.24633 0.70276 0.0
O100 O 0.71242 0.22899 0.71599 0.0
C101 C 0.68559 0.19955 0.60652 0.0
O102 O 0.70939 0.19144 0.60287 0.0
O103 O 0.68262 0.28385 0.56918 0.0
C104 C 0.32236 0.23694 0.51972 0.0
O105 O 0.31865 0.22035 0.56843 0.0
O106 O 0.38321 0.28588 0.61756 0.0
Zn107 Zn 0.36184 0.25362 0.61022 0.0
O108 O 0.33736 0.25208 0.6879 0.0
C109 C 0.40048 0.22597 0.67323 0.0
O110 O 0.39883 0.24701 0.7091 0.0
O111 O 0.34087 0.25282 0.52455 0.0
C112 C 0.33651 0.26873 0.73425 0.0
O113 O 0.35197 0.28862 0.73234 0.0
C114 C 0.37601 0.30881 0.60693 0.0
O115 O 0.35277 0.31308 0.58393 0.0
O116 O 0.38581 0.22345 0.62254 0.0
C117 C 0.23762 0.724 0.96895 0.0
O118 O 0.25116 0.72004 0.02354 0.0
O119 O 0.18382 0.69733 0.10193 0.0
Zn120 Zn 0.19854 0.73096 0.06728 0.0
O121 O 0.22741 0.74317 0.12667 0.0
C122 C 0.15571 0.75859 0.11951 0.0
O123 O 0.15802 0.74105 0.16638 0.0
O124 O 0.21358 0.72781 0.97398 0.0
C125 C 0.22638 0.76081 0.17039 0.0
O126 O 0.20462 0.77246 0.18249 0.0
C127 C 0.18607 0.69137 0.16359 0.0
O128 O 0.19993 0.7061 0.20295 0.0
O129 O 0.17059 0.7579 0.06908 0.0
C130 C 0.23206 0.26547 0.20301 0.0
O131 O 0.23571 0.28269 0.15579 0.0
O132 O 0.17348 0.28102 0.09267 0.0
Zn133 Zn 0.19605 0.24966 0.10533 0.0
O134 O 0.22386 0.2504 0.03626 0.0
C135 C 0.16735 0.21333 0.02948 0.0
O136 O 0.17628 0.22789 0.98103 0.0
O137 O 0.21428 0.24895 0.1952 0.0
C138 C 0.23534 0.23051 0.01554 0.0
O139 O 0.229 0.20791 0.03971 0.0
C140 C 0.1724 0.29177 0.03533 0.0
O141 O 0.18729 0.28339 0.98718 0.0
O142 O 0.17357 0.21844 0.08975 0.0
C143 C 0.32756 0.74849 0.65186 0.0
O144 O 0.31641 0.74094 0.59618 0.0
O145 O 0.37776 0.73163 0.52085 0.0
Zn146 Zn 0.36299 0.76501 0.55475 0.0
O147 O 0.33337 0.77471 0.49615 0.0
C148 C 0.41265 0.78837 0.56843 0.0
O149 O 0.41724 0.76732 0.60269 0.0
O150 O 0.3492 0.75981 0.64842 0.0
C151 C 0.33607 0.78372 0.43751 0.0
O152 O 0.35918 0.78787 0.41378 0.0
C153 C 0.39265 0.73164 0.47044 0.0
O154 O 0.39835 0.75353 0.44134 0.0
O155 O 0.3901 0.7924 0.54673 0.0
C156 C 0.54464 0.04706 0.90581 0.0
O157 O 0.55507 0.03551 0.85422 0.0
O158 O 0.56959 0.10804 0.79231 0.0
Zn159 Zn 0.53763 0.08689 0.80683 0.0
O160 O 0.53826 0.05969 0.73652 0.0
C161 C 0.48789 0.10389 0.75493 0.0
O162 O 0.48617 0.08035 0.73199 0.0
O163 O 0.5362 0.06982 0.89855 0.0
C164 C 0.54056 0.0655 0.67501 0.0
O165 O 0.54133 0.08977 0.65724 0.0
C166 C 0.5911 0.09793 0.77827 0.0
O167 O 0.59342 0.07286 0.7805 0.0
O168 O 0.50728 0.11027 0.79009 0.0
C169 C 0.02404 0.94726 0.40148 0.0
O170 O 0.01491 0.95835 0.34731 0.0
O171 O 0.00272 0.88738 0.27995 0.0
Zn172 Zn 0.03415 0.90753 0.30648 0.0
O173 O 0.0422 0.93486 0.23849 0.0
C174 C 0.06676 0.87314 0.24299 0.0
O175 O 0.05352 0.88253 0.19258 0.0
O176 O 0.03233 0.92436 0.39752 0.0
C177 C 0.02901 0.93836 0.18576 0.0
O178 O 0.00896 0.92373 0.1742 0.0
C179 C 0.97895 0.89256 0.27708 0.0
O180 O 0.97073 0.91506 0.29718 0.0
O181 O 0.06258 0.88165 0.30167 0.0
C182 C 0.5385 0.95352 0.22426 0.0
O183 O 0.52781 0.96497 0.27565 0.0
O184 O 0.57804 0.8921 0.34101 0.0
Zn185 Zn 0.54766 0.91527 0.32545 0.0
O186 O 0.54952 0.94373 0.39288 0.0
C187 C 0.51717 0.87792 0.39209 0.0
O188 O 0.53974 0.87367 0.41908 0.0
O189 O 0.54783 0.93115 0.23231 0.0
C190 C 0.5566 0.93986 0.45298 0.0
O191 O 0.56375 0.91677 0.47145 0.0
C192 C 0.601 0.89953 0.3505 0.0
O193 O 0.60681 0.92388 0.34263 0.0
O194 O 0.51523 0.89491 0.34636 0.0
C195 C 0.03874 0.04736 0.70222 0.0
O196 O 0.05207 0.03724 0.75148 0.0
O197 O 0.00188 0.10778 0.82608 0.0
Zn198 Zn 0.03118 0.08445 0.80404 0.0
O199 O 0.02779 0.05538 0.86913 0.0
C200 C 0.06607 0.11389 0.8795 0.0
O201 O 0.04801 0.1093 0.9238 0.0
O202 O 0.02849 0.06925 0.71076 0.0
C203 C 0.04549 0.04573 0.90485 0.0
O204 O 0.06892 0.05492 0.90087 0.0
C205 C 0.97921 0.09915 0.8327 0.0
O206 O 0.97432 0.07517 0.817 0.0
O207 O 0.06377 0.10448 0.82096 0.0
H208 H 0.16353 0.65088 0.10037 0.0
H209 H 0.17068 0.68741 0.29337 0.0
H210 H 0.13868 0.65826 0.34003 0.0
H211 H 0.10625 0.62442 0.32395 0.0
H212 H 0.10058 0.58641 0.13266 0.0
H213 H 0.13443 0.6139 0.08768 0.0
C214 C 0.15827 0.65223 0.1528 0.0
C215 C 0.1693 0.67142 0.1931 0.0
C216 C 0.13999 0.63523 0.17961 0.0
C217 C 0.16252 0.67279 0.26119 0.0
C218 C 0.1441 0.65621 0.28791 0.0
C219 C 0.11262 0.62203 0.27264 0.0
C220 C 0.10078 0.6036 0.23156 0.0
C221 C 0.13234 0.63769 0.24727 0.0
C222 C 0.10941 0.60046 0.16539 0.0
C223 C 0.1287 0.61624 0.13948 0.0
H224 H 0.59086 0.85486 0.4146 0.0
H225 H 0.65332 0.90421 0.35469 0.0
H226 H 0.68399 0.87513 0.40837 0.0
H227 H 0.69291 0.83544 0.47173 0.0
H228 H 0.62974 0.78732 0.53436 0.0
H229 H 0.59948 0.81645 0.48097 0.0
C230 C 0.61119 0.85921 0.41276 0.0
C231 C 0.61982 0.88153 0.38 0.0
C232 C 0.62857 0.84276 0.44487 0.0
C233 C 0.64621 0.88707 0.37924 0.0
C234 C 0.66373 0.87049 0.4101 0.0
C235 C 0.67252 0.83142 0.47418 0.0
C236 C 0.66368 0.80914 0.50695 0.0
C237 C 0.65511 0.84829 0.44319 0.0
C238 C 0.63715 0.8043 0.50965 0.0
C239 C 0.61979 0.82089 0.47881 0.0
H240 H 0.43248 0.41077 0.69696 0.0
H241 H 0.48506 0.35512 0.77955 0.0
H242 H 0.45845 0.3203 0.73696 0.0
H243 H 0.42094 0.30551 0.67495 0.0
H244 H 0.36786 0.3605 0.59171 0.0
H245 H 0.39416 0.3957 0.63533 0.0
C246 C 0.43796 0.39103 0.7062 0.0
C247 C 0.46074 0.38561 0.74151 0.0
C248 C 0.42268 0.37097 0.68081 0.0
C249 C 0.46767 0.35989 0.75251 0.0
C250 C 0.4525 0.33992 0.728 0.0
C251 C 0.41512 0.32518 0.66587 0.0
C252 C 0.3925 0.33032 0.62973 0.0
C253 C 0.43013 0.34524 0.69159 0.0
C254 C 0.38523 0.35597 0.6191 0.0
C255 C 0.40022 0.37611 0.64426 0.0
H256 H 0.88358 0.1536 0.96269 0.0
H257 H 0.94376 0.19992 0.04986 0.0
H258 H 0.97601 0.17448 0.99187 0.0
H259 H 0.9871 0.1401 0.91359 0.0
H260 H 0.92723 0.09293 0.82862 0.0
H261 H 0.89481 0.11796 0.88802 0.0
C262 C 0.90375 0.158 0.96955 0.0
C263 C 0.91119 0.17871 0.01047 0.0
C264 C 0.92223 0.1434 0.93572 0.0
C265 C 0.93745 0.18407 0.01887 0.0
C266 C 0.95593 0.16963 0.98536 0.0
C267 C 0.96694 0.13542 0.90762 0.0
C268 C 0.95952 0.11492 0.86609 0.0
C269 C 0.94851 0.14951 0.94294 0.0
C270 C 0.93338 0.10874 0.85998 0.0
C271 C 0.91487 0.12298 0.89408 0.0
H272 H 0.07874 0.36763 0.01009 0.0
H273 H 0.10522 0.37053 0.80535 0.0
H274 H 0.1411 0.34251 0.83426 0.0
H275 H 0.16375 0.3157 0.9163 0.0
H276 H 0.13687 0.31229 0.12065 0.0
H277 H 0.10243 0.34224 0.0932 0.0
C278 C 0.09239 0.36225 0.97173 0.0
C279 C 0.08916 0.37107 0.90549 0.0
C280 C 0.1129 0.34604 0.98863 0.0
C281 C 0.10717 0.36398 0.85664 0.0
C282 C 0.12769 0.34793 0.87314 0.0
C283 C 0.1505 0.32163 0.95508 0.0
C284 C 0.15286 0.31162 0.02044 0.0
C285 C 0.13058 0.33864 0.93879 0.0
C286 C 0.13551 0.31961 0.06995 0.0
C287 C 0.11575 0.3367 0.05424 0.0
H288 H 0.92665 0.89528 0.26348 0.0
H289 H 0.99193 0.84758 0.21751 0.0
H290 H 0.9641 0.81674 0.16224 0.0
H291 H 0.92142 0.80249 0.12902 0.0
H292 H 0.85543 0.84857 0.17763 0.0
H293 H 0.88336 0.8809 0.22887 0.0
C294 C 0.93476 0.87813 0.24142 0.0
C295 C 0.96137 0.87381 0.24504 0.0
C296 C 0.91856 0.86019 0.20971 0.0
C297 C 0.97153 0.85145 0.21601 0.0
C298 C 0.95564 0.83376 0.18404 0.0
C299 C 0.91311 0.81973 0.15009 0.0
C300 C 0.88638 0.82314 0.14923 0.0
C301 C 0.92916 0.83788 0.18074 0.0
C302 C 0.87597 0.84548 0.17753 0.0
C303 C 0.89192 0.86394 0.20706 0.0
H304 H 0.42404 0.72571 0.36326 0.0
H305 H 0.38754 0.68339 0.52315 0.0
H306 H 0.4089 0.64419 0.48668 0.0
H307 H 0.43989 0.62261 0.41382 0.0
H308 H 0.47713 0.66526 0.25569 0.0
H309 H 0.45321 0.70362 0.28669 0.0
C310 C 0.42062 0.70791 0.39002 0.0
C311 C 0.40437 0.70756 0.44623 0.0
C312 C 0.43308 0.68549 0.36908 0.0
C313 C 0.40005 0.68425 0.47994 0.0
C314 C 0.41226 0.66181 0.45912 0.0
C315 C 0.44258 0.6402 0.38555 0.0
C316 C 0.46041 0.64107 0.33274 0.0
C317 C 0.42908 0.6623 0.40434 0.0
C318 C 0.46361 0.66405 0.29671 0.0
C319 C 0.44999 0.68603 0.31454 0.0
H320 H 0.68974 0.15047 0.65426 0.0
H321 H 0.63518 0.21157 0.62284 0.0
H322 H 0.60175 0.18606 0.67589 0.0
H323 H 0.58781 0.14672 0.73176 0.0
H324 H 0.64147 0.08483 0.76125 0.0
H325 H 0.67542 0.11044 0.70911 0.0
C326 C 0.67051 0.15813 0.65861 0.0
C327 C 0.66508 0.18294 0.63449 0.0
C328 C 0.65122 0.14334 0.68948 0.0
C329 C 0.64 0.19255 0.6408 0.0
C330 C 0.62082 0.17802 0.67141 0.0
C331 C 0.60698 0.13888 0.7274 0.0
C332 C 0.61212 0.11397 0.75088 0.0
C333 C 0.62623 0.15348 0.6963 0.0
C334 C 0.63701 0.104 0.74384 0.0
C335 C 0.65642 0.1186 0.71382 0.0
H336 H 0.97032 0.3725 0.9176 0.0
H337 H 0.98523 0.32444 0.74614 0.0
H338 H 0.95647 0.29164 0.79085 0.0
H339 H 0.92862 0.27585 0.88035 0.0
H340 H 0.91453 0.32298 0.05396 0.0
H341 H 0.9415 0.35694 0.00656 0.0
C342 C 0.96707 0.35496 0.88965 0.0
C343 C 0.97992 0.35094 0.82852 0.0
C344 C 0.95083 0.33595 0.91624 0.0
C345 C 0.97565 0.32801 0.7933 0.0
C346 C 0.95923 0.30922 0.81889 0.0
C347 C 0.93132 0.29357 0.90788 0.0
C348 C 0.91961 0.29681 0.97078 0.0
C349 C 0.94698 0.31286 0.88065 0.0
C350 C 0.92338 0.31993 0.00558 0.0
C351 C 0.93878 0.33936 0.97846 0.0
H352 H 0.48571 0.15373 0.79424 0.0
H353 H 0.447 0.09806 0.66991 0.0
H354 H 0.4169 0.1309 0.632 0.0
H355 H 0.40177 0.17578 0.63322 0.0
H356 H 0.44044 0.23083 0.75961 0.0
H357 H 0.47034 0.19796 0.79703 0.0
C358 C 0.47064 0.1487 0.75907 0.0
C359 C 0.46868 0.12344 0.73503 0.0
C360 C 0.45341 0.16766 0.73738 0.0
C361 C 0.44896 0.11733 0.68947 0.0
C362 C 0.43176 0.13613 0.66751 0.0
C363 C 0.41682 0.18057 0.66868 0.0
C364 C 0.41887 0.20576 0.69337 0.0
C365 C 0.43388 0.16143 0.69082 0.0
C366 C 0.43835 0.2116 0.73982 0.0
C367 C 0.4555 0.19281 0.76136 0.0
H368 H 0.60493 0.61863 0.34999 0.0
H369 H 0.54899 0.65426 0.47872 0.0
H370 H 0.583 0.67653 0.53913 0.0
H371 H 0.62839 0.68731 0.55298 0.0
H372 H 0.68476 0.65155 0.42582 0.0
H373 H 0.65094 0.62767 0.3683 0.0
C374 C 0.60022 0.63129 0.39121 0.0
C375 C 0.57443 0.63493 0.40936 0.0
C376 C 0.61997 0.64392 0.42645 0.0
C377 C 0.56866 0.65113 0.46351 0.0
C378 C 0.58811 0.66389 0.49822 0.0
C379 C 0.63335 0.67409 0.51319 0.0
C380 C 0.6591 0.67138 0.49365 0.0
C381 C 0.6138 0.66057 0.47989 0.0
C382 C 0.66512 0.65405 0.44207 0.0
C383 C 0.64575 0.64047 0.40877 0.0
H384 H 0.13762 0.77548 0.23817 0.0
H385 H 0.13636 0.79177 0.02611 0.0
H386 H 0.10898 0.82909 0.04604 0.0
H387 H 0.08532 0.85673 0.12381 0.0
H388 H 0.08825 0.84131 0.33633 0.0
H389 H 0.11542 0.80401 0.31612 0.0
C390 C 0.13121 0.78708 0.19621 0.0
C391 C 0.13872 0.78075 0.13065 0.0
C392 C 0.116 0.80871 0.20822 0.0
C393 C 0.13071 0.79624 0.07696 0.0
C394 C 0.11511 0.81756 0.08837 0.0
C395 C 0.09196 0.84526 0.16576 0.0
C396 C 0.08468 0.8517 0.23147 0.0
C397 C 0.10766 0.82395 0.1538 0.0
C398 C 0.09363 0.8368 0.28532 0.0
C399 C 0.10906 0.8154 0.27377 0.0
H400 H 0.00901 0.66443 0.16891 0.0
H401 H 0.95476 0.62885 0.30342 0.0
H402 H 0.92027 0.65504 0.25596 0.0
H403 H 0.90557 0.68798 0.17564 0.0
H404 H 0.96039 0.7234 0.04229 0.0
H405 H 0.99454 0.69704 0.0895 0.0
C406 C 0.98969 0.66243 0.18825 0.0
C407 C 0.98454 0.6447 0.23985 0.0
C408 C 0.96998 0.67735 0.16043 0.0
C409 C 0.95932 0.6424 0.26395 0.0
C410 C 0.93956 0.65729 0.23661 0.0
C411 C 0.92494 0.68976 0.15648 0.0
C412 C 0.93036 0.70758 0.10519 0.0
C413 C 0.94464 0.67474 0.18454 0.0
C414 C 0.95564 0.70984 0.08157 0.0
C415 C 0.97523 0.69482 0.10869 0.0
H416 H 0.08019 0.12979 0.00367 0.0
H417 H 0.10108 0.13587 0.79504 0.0
H418 H 0.13504 0.16637 0.82374 0.0
H419 H 0.15719 0.19298 0.90724 0.0
H420 H 0.13671 0.18647 0.11607 0.0
H421 H 0.10425 0.15428 0.08808 0.0
C422 C 0.09224 0.13768 0.96446 0.0
C423 C 0.08794 0.13074 0.89721 0.0
C424 C 0.11174 0.15516 0.98133 0.0
C425 C 0.10394 0.14092 0.84716 0.0
C426 C 0.12331 0.15842 0.86352 0.0
C427 C 0.14572 0.18444 0.94674 0.0
C428 C 0.14921 0.1923 0.0136 0.0
C429 C 0.12713 0.16594 0.9303 0.0
C430 C 0.1344 0.1808 0.06421 0.0
C431 C 0.11578 0.16245 0.04821 0.0
H432 H 0.65666 0.31047 0.74214 0.0
H433 H 0.64949 0.31753 0.52733 0.0
H434 H 0.6172 0.35103 0.54149 0.0
H435 H 0.58954 0.37657 0.61489 0.0
H436 H 0.597 0.3696 0.82968 0.0
H437 H 0.63086 0.33777 0.81539 0.0
C438 C 0.64812 0.31939 0.69832 0.0
C439 C 0.65528 0.31136 0.63375 0.0
C440 C 0.62961 0.33856 0.70685 0.0
C441 C 0.64428 0.32334 0.57756 0.0
C442 C 0.62577 0.34243 0.58564 0.0
C443 C 0.59863 0.36817 0.65864 0.0
C444 C 0.59059 0.37526 0.72329 0.0
C445 C 0.61805 0.34991 0.65005 0.0
C446 C 0.60278 0.36443 0.7794 0.0
C447 C 0.62209 0.34619 0.77126 0.0
H448 H 0.41194 0.82565 0.47231 0.0
H449 H 0.46181 0.78809 0.6148 0.0
H450 H 0.49829 0.81257 0.57255 0.0
H451 H 0.51628 0.84335 0.4933 0.0
H452 H 0.4671 0.88085 0.34919 0.0
H453 H 0.43003 0.85749 0.39385 0.0
C454 C 0.43074 0.82303 0.49466 0.0
C455 C 0.43412 0.80507 0.54681 0.0
C456 C 0.45176 0.83693 0.46942 0.0
C457 C 0.45865 0.80176 0.5747 0.0
C458 C 0.47955 0.8157 0.55043 0.0
C459 C 0.49749 0.84648 0.47142 0.0
C460 C 0.49452 0.86377 0.41769 0.0
C461 C 0.47637 0.83308 0.49735 0.0
C462 C 0.46995 0.86759 0.39037 0.0
C463 C 0.44875 0.85428 0.41601 0.0
H464 H 0.02559 0.5539 0.06345 0.0
H465 H 0.99837 0.51079 0.23391 0.0
H466 H 0.99458 0.47231 0.16481 0.0
H467 H 0.00095 0.45052 0.05719 0.0
H468 H 0.03074 0.49324 0.88882 0.0
H469 H 0.03159 0.53228 0.95586 0.0
C470 C 0.01856 0.53615 0.08519 0.0
C471 C 0.01222 0.53511 0.1534 0.0
C472 C 0.01708 0.514 0.04572 0.0
C473 C 0.00344 0.51195 0.18136 0.0
C474 C 0.00128 0.48997 0.14198 0.0
C475 C 0.00747 0.46841 0.03516 0.0
C476 C 0.01581 0.46901 0.96836 0.0
C477 C 0.00837 0.4907 0.0743 0.0
C478 C 0.02438 0.49227 0.94042 0.0
C479 C 0.02482 0.51462 0.97859 0.0
H480 H 0.7891 0.74548 0.19005 0.0
H481 H 0.84669 0.73979 0.34527 0.0
H482 H 0.81315 0.73783 0.43039 0.0
H483 H 0.76769 0.73813 0.46047 0.0
H484 H 0.71012 0.74409 0.30525 0.0
H485 H 0.74365 0.74553 0.22006 0.0
C486 C 0.79436 0.74375 0.24248 0.0
C487 C 0.82035 0.74278 0.26133 0.0
C488 C 0.77504 0.74272 0.29102 0.0
C489 C 0.82682 0.74059 0.32945 0.0
C490 C 0.80767 0.73947 0.37813 0.0
C491 C 0.76243 0.73972 0.40801 0.0
C492 C 0.73645 0.74102 0.3892 0.0
C493 C 0.78175 0.74059 0.35943 0.0
C494 C 0.72998 0.74307 0.32104 0.0
C495 C 0.74913 0.74389 0.27232 0.0
H496 H 0.56553 0.5341 0.46288 0.0
H497 H 0.48932 0.52609 0.3807 0.0
H498 H 0.47966 0.49233 0.46218 0.0
H499 H 0.49272 0.46573 0.55824 0.0
H500 H 0.56805 0.47596 0.64435 0.0
H501 H 0.57826 0.50824 0.55973 0.0
C502 C 0.54687 0.52484 0.46257 0.0
C503 C 0.52821 0.5324 0.41584 0.0
C504 C 0.54129 0.50594 0.51032 0.0
C505 C 0.50398 0.52055 0.41645 0.0
C506 C 0.49846 0.50127 0.46289 0.0
C507 C 0.51139 0.47497 0.55814 0.0
C508 C 0.52962 0.4685 0.60714 0.0
C509 C 0.51694 0.49389 0.51025 0.0
C510 C 0.55366 0.48076 0.60717 0.0
C511 C 0.55954 0.49915 0.55879 0.0
H512 H 0.81768 0.28938 0.889 0.0
H513 H 0.80371 0.21743 0.99005 0.0
H514 H 0.76934 0.2074 0.91104 0.0
H515 H 0.74413 0.2185 0.81138 0.0
H516 H 0.75969 0.28935 0.70663 0.0
H517 H 0.79257 0.30039 0.78898 0.0
C518 C 0.80697 0.27161 0.89394 0.0
C519 C 0.81313 0.2542 0.94516 0.0
C520 C 0.78762 0.26571 0.84757 0.0
C521 C 0.79933 0.2311 0.95072 0.0
C522 C 0.77968 0.22535 0.90566 0.0
C523 C 0.75464 0.2364 0.80684 0.0
C524 C 0.74953 0.25307 0.75319 0.0
C525 C 0.7738 0.24243 0.8536 0.0
C526 C 0.76341 0.27612 0.74744 0.0
C527 C 0.78216 0.28249 0.79453 0.0
H528 H 0.26053 0.27358 0.97842 0.0
H529 H 0.25374 0.19287 0.93378 0.0
H530 H 0.28442 0.19766 0.84203 0.0
H531 H 0.31242 0.22503 0.7733 0.0
H532 H 0.32026 0.3054 0.82116 0.0
H533 H 0.28979 0.30048 0.91307 0.0
C534 C 0.26578 0.25702 0.94865 0.0
C535 C 0.2548 0.23295 0.96247 0.0
C536 C 0.28352 0.25987 0.89657 0.0
C537 C 0.26199 0.2116 0.9241 0.0
C538 C 0.27945 0.21434 0.87154 0.0
C539 C 0.30741 0.24147 0.8038 0.0
C540 C 0.31839 0.26558 0.79024 0.0
C541 C 0.29018 0.23843 0.85708 0.0
C542 C 0.31203 0.28664 0.83064 0.0
C543 C 0.29461 0.28386 0.88312 0.0
H544 H 0.3346 0.775 0.30452 0.0
H545 H 0.28714 0.79514 0.47299 0.0
H546 H 0.24875 0.79226 0.40259 0.0
H547 H 0.22858 0.78026 0.29581 0.0
H548 H 0.27594 0.75577 0.131 0.0
H549 H 0.31456 0.76411 0.1971 0.0
C550 C 0.31588 0.77924 0.32534 0.0
C551 C 0.31356 0.7854 0.39342 0.0
C552 C 0.29392 0.77644 0.28543 0.0
C553 C 0.28924 0.79038 0.42046 0.0
C554 C 0.26734 0.78865 0.38038 0.0
C555 C 0.24738 0.77705 0.27426 0.0
C556 C 0.24952 0.76738 0.20895 0.0
C557 C 0.26942 0.7811 0.31322 0.0
C558 C 0.27391 0.76303 0.18154 0.0
C559 C 0.29596 0.76784 0.21918 0.0
H560 H 0.54768 0.99036 0.42883 0.0
H561 H 0.56287 0.93631 0.58829 0.0
H562 H 0.559 0.97049 0.67087 0.0
H563 H 0.55065 0.01539 0.69794 0.0
H564 H 0.53643 0.06984 0.53897 0.0
H565 H 0.54056 0.0357 0.45585 0.0
C566 C 0.5502 0.98606 0.48164 0.0
C567 C 0.55546 0.96082 0.50241 0.0
C568 C 0.54804 0.00581 0.52887 0.0
C569 C 0.55884 0.95559 0.57095 0.0
C570 C 0.55657 0.9751 0.61825 0.0
C571 C 0.54837 0.0198 0.64511 0.0
C572 C 0.54306 0.04504 0.62459 0.0
C573 C 0.55102 0.00021 0.59778 0.0
C574 C 0.54049 0.05052 0.55597 0.0
C575 C 0.54283 0.03103 0.50847 0.0
H576 H 0.07445 0.02757 0.00782 0.0
H577 H 0.00252 0.01606 0.90435 0.0
H578 H 0.9914 0.98147 0.9813 0.0
H579 H 0.0016 0.95507 0.07898 0.0
H580 H 0.07283 0.9672 0.18517 0.0
H581 H 0.08469 0.00098 0.10609 0.0
C582 C 0.05642 0.01738 0.00196 0.0
C583 C 0.03936 0.02436 0.95056 0.0
C584 C 0.04996 0.9977 0.04693 0.0
C585 C 0.01596 0.01113 0.94377 0.0
C586 C 0.00957 0.99132 0.98767 0.0
C587 C 0.01976 0.96504 0.08475 0.0
C588 C 0.03628 0.95864 0.13778 0.0
C589 C 0.02635 0.98456 0.03962 0.0
C590 C 0.0597 0.97183 0.14479 0.0
C591 C 0.06653 0.99112 0.09957 0.0
H592 H 0.00433 0.45941 0.63399 0.0
H593 H 0.08327 0.48165 0.66476 0.0
H594 H 0.07872 0.51587 0.58204 0.0
H595 H 0.0523 0.53979 0.50149 0.0
H596 H 0.97331 0.51771 0.4707 0.0
H597 H 0.97783 0.48346 0.55346 0.0
C598 C 0.02061 0.47156 0.62207 0.0
C599 C 0.04414 0.46785 0.65534 0.0
C600 C 0.01777 0.49151 0.57507 0.0
C601 C 0.06495 0.48401 0.63984 0.0
C602 C 0.06235 0.50369 0.5927 0.0
C603 C 0.03599 0.52767 0.51334 0.0
C604 C 0.01248 0.53143 0.48002 0.0
C605 C 0.0388 0.50776 0.56039 0.0
C606 C 0.99163 0.51532 0.49564 0.0
C607 C 0.99422 0.49563 0.54278 0.0
H608 H 0.8223 0.72369 0.887 0.0
H609 H 0.78224 0.79192 0.94951 0.0
H610 H 0.75085 0.78592 0.8602 0.0
H611 H 0.73446 0.76127 0.76453 0.0
H612 H 0.7744 0.69306 0.70154 0.0
H613 H 0.80584 0.69898 0.79099 0.0
C614 C 0.80681 0.73735 0.88079 0.0
C615 C 0.80472 0.75825 0.92493 0.0
C616 C 0.78859 0.73367 0.82951 0.0
C617 C 0.78438 0.77564 0.91635 0.0
C618 C 0.76633 0.77221 0.86533 0.0
C619 C 0.74992 0.74759 0.77062 0.0
C620 C 0.75196 0.72672 0.72638 0.0
C621 C 0.76814 0.75122 0.82184 0.0
C622 C 0.77229 0.7093 0.73484 0.0
C623 C 0.79037 0.71269 0.78593 0.0
H624 H 0.53815 0.53495 0.13045 0.0
H625 H 0.48506 0.58459 0.02682 0.0
H626 H 0.48229 0.55399 0.93448 0.0
H627 H 0.49408 0.51278 0.88451 0.0
H628 H 0.54601 0.46233 0.98961 0.0
H629 H 0.54986 0.49351 0.0804 0.0
C630 C 0.52621 0.53921 0.08729 0.0
C631 C 0.51196 0.56211 0.0853 0.0
C632 C 0.52424 0.52125 0.03505 0.0
C633 C 0.49626 0.56714 0.02951 0.0
C634 C 0.4946 0.54962 0.97679 0.0
C635 C 0.50621 0.50853 0.9273 0.0
C636 C 0.51971 0.4852 0.93017 0.0
C637 C 0.50831 0.52651 0.97934 0.0
C638 C 0.53532 0.48007 0.98614 0.0
C639 C 0.53762 0.49795 0.03799 0.0
H640 H 0.8326 0.2714 0.26776 0.0
H641 H 0.81143 0.19201 0.24023 0.0
H642 H 0.77788 0.1962 0.32447 0.0
H643 H 0.75372 0.22265 0.40416 0.0
H644 H 0.77485 0.30206 0.43145 0.0
H645 H 0.80897 0.29763 0.34888 0.0
C646 C 0.82085 0.25493 0.2807 0.0
C647 C 0.82459 0.23143 0.24768 0.0
C648 C 0.80131 0.25754 0.32867 0.0
C649 C 0.809 0.21035 0.26479 0.0
C650 C 0.78971 0.21273 0.31284 0.0
C651 C 0.76569 0.23902 0.39176 0.0
C652 C 0.7616 0.26267 0.42377 0.0
C653 C 0.78548 0.23631 0.34456 0.0
C654 C 0.77749 0.28362 0.40753 0.0
C655 C 0.79709 0.28111 0.36039 0.0
H656 H 0.31911 0.27383 0.42296 0.0
H657 H 0.28399 0.20315 0.48913 0.0
H658 H 0.25251 0.20602 0.39873 0.0
H659 H 0.23481 0.22861 0.30052 0.0
H660 H 0.26994 0.29942 0.23515 0.0
H661 H 0.30126 0.29654 0.32567 0.0
C662 C 0.30467 0.25896 0.41743 0.0
C663 C 0.30404 0.23826 0.46275 0.0
C664 C 0.28642 0.26084 0.36563 0.0
C665 C 0.28501 0.2193 0.45501 0.0
C666 C 0.26692 0.22094 0.40334 0.0
C667 C 0.2492 0.2435 0.30633 0.0
C668 C 0.24993 0.2642 0.26097 0.0
C669 C 0.26737 0.24167 0.35845 0.0
C670 C 0.26885 0.28325 0.2692 0.0
C671 C 0.28687 0.28161 0.32094 0.0
H672 H 0.27764 0.73611 0.67229 0.0
H673 H 0.3485 0.75123 0.77747 0.0
H674 H 0.32702 0.74373 0.88461 0.0
H675 H 0.28806 0.73353 0.94816 0.0
H676 H 0.21667 0.72072 0.84343 0.0
H677 H 0.2385 0.72655 0.73598 0.0
C678 C 0.28843 0.73769 0.71863 0.0
C679 C 0.31467 0.74414 0.71691 0.0
C680 C 0.27588 0.73373 0.77996 0.0
C681 C 0.32829 0.74635 0.77743 0.0
C682 C 0.31603 0.74201 0.83866 0.0
C683 C 0.27729 0.7318 0.90181 0.0
C684 C 0.2508 0.72652 0.90369 0.0
C685 C 0.28984 0.73574 0.84048 0.0
C686 C 0.23707 0.72474 0.84327 0.0
C687 C 0.24954 0.72809 0.78189 0.0
H688 H 0.52404 0.00246 0.19569 0.0
H689 H 0.55851 0.93551 0.1066 0.0
H690 H 0.56361 0.95865 0.00082 0.0
H691 H 0.55859 0.99792 0.93393 0.0
H692 H 0.52427 0.06491 0.02318 0.0
H693 H 0.51893 0.04168 0.12873 0.0
C694 C 0.53259 0.99284 0.15313 0.0
C695 C 0.54084 0.96722 0.15924 0.0
C696 C 0.53561 0.00631 0.09255 0.0
C697 C 0.55196 0.95518 0.10345 0.0
C698 C 0.55492 0.96842 0.04292 0.0
C699 C 0.54998 0.00751 0.97644 0.0
C700 C 0.54188 0.03319 0.97048 0.0
C701 C 0.5469 0.99401 0.03697 0.0
C702 C 0.53071 0.04521 0.02623 0.0
C703 C 0.52762 0.03191 0.08664 0.0
H704 H 0.05031 0.99739 0.68086 0.0
H705 H 0.01653 0.06345 0.58476 0.0
H706 H 0.00821 0.03802 0.48405 0.0
H707 H 0.01091 0.9971 0.42321 0.0
H708 H 0.04433 0.93108 0.52066 0.0
H709 H 0.05215 0.95645 0.62133 0.0
C710 C 0.04122 0.00632 0.63784 0.0
C711 C 0.03421 0.03237 0.64025 0.0
C712 C 0.03627 0.99154 0.58054 0.0
C713 C 0.0222 0.04348 0.58421 0.0
C714 C 0.0174 0.02893 0.52666 0.0
C715 C 0.01977 0.98818 0.46657 0.0
C716 C 0.02705 0.96218 0.4642 0.0
C717 C 0.02434 0.00293 0.5243 0.0
C718 C 0.03851 0.95101 0.52097 0.0
C719 C 0.04307 0.96553 0.57855 0.0
loop_
_geom_bond_atom_site_label_1
_geom_bond_atom_site_label_2
_geom_bond_distance
_geom_bond_site_symmetry_2
_ccdc_geom_bond_type
C0 O1 1.160 . S
C0 O7 1.185 . S
O1 C0 1.160 . S
O2 Zn3 1.899 . S
O2 C10 1.284 . S
Zn3 O2 1.899 . S
Zn3 O4 2.032 . S
Zn3 O7 2.086 . S
Zn3 O12 2.017 . S
O4 Zn3 2.032 . S
O4 C8 1.278 . S
C5 O6 1.203 1_655 S
C5 O12 1.262 1_655 S
O6 C5 1.203 1_455 S
O7 C0 1.185 . S
O7 Zn3 2.086 . S
C8 O4 1.278 . S
C8 O9 1.211 . S
O9 C8 1.211 . S
C10 O2 1.284 . S
C10 O11 1.273 . S
O11 C10 1.273 . S
O12 Zn3 2.017 . S
O12 C5 1.262 1_455 S
C13 O14 1.160 . S
C13 O20 1.185 . S
O14 C13 1.160 . S
O15 Zn16 1.899 . S
O15 C23 1.284 . S
Zn16 O15 1.899 . S
Zn16 O17 2.032 . S
Zn16 O20 2.086 . S
Zn16 O25 1.977 . S
O17 Zn16 2.032 . S
O17 C21 1.278 . S
C18 O19 1.203 . S
C18 O25 1.267 . S
O19 C18 1.203 . S
O20 C13 1.185 . S
O20 Zn16 2.086 . S
C21 O17 1.278 . S
C21 O22 1.211 . S
O22 C21 1.211 . S
C23 O15 1.284 . S
C23 O24 1.273 . S
O24 C23 1.273 . S
O25 Zn16 1.977 . S
O25 C18 1.267 . S
C26 O27 1.160 . S
C26 O33 1.185 . S
O27 C26 1.160 . S
O28 Zn29 1.899 . S
O28 C36 1.284 . S
Zn29 O28 1.899 . S
Zn29 O30 2.032 . S
Zn29 O33 2.086 . S
Zn29 O38 1.977 . S
O30 Zn29 2.032 . S
O30 C34 1.278 . S
C31 O32 1.203 . S
C31 O38 1.267 . S
O32 C31 1.203 . S
O33 C26 1.185 . S
O33 Zn29 2.086 . S
C34 O30 1.278 . S
C34 O35 1.211 . S
O35 C34 1.211 . S
C36 O28 1.284 . S
C36 O37 1.273 . S
O37 C36 1.273 . S
O38 Zn29 1.977 . S
O38 C31 1.267 . S
C39 O40 1.160 . S
C39 O46 1.185 . S
O40 C39 1.160 . S
O41 Zn42 1.899 . S
O41 C49 1.284 1_554 S
Zn42 O41 1.899 . S
Zn42 O43 2.032 1_554 S
Zn42 O46 2.086 . S
Zn42 O51 1.977 . S
O43 Zn42 2.032 1_556 S
O43 C47 1.278 . S
C44 O45 1.203 . S
C44 O51 1.267 1_556 S
O45 C44 1.203 . S
O46 C39 1.185 . S
O46 Zn42 2.086 . S
C47 O43 1.278 . S
C47 O48 1.211 . S
O48 C47 1.211 . S
C49 O41 1.284 1_556 S
C49 O50 1.273 . S
O50 C49 1.273 . S
O51 Zn42 1.977 . S
O51 C44 1.267 1_554 S
C52 O53 1.160 . S
C52 O59 1.185 . S
O53 C52 1.160 . S
O54 Zn55 1.899 . S
O54 C62 1.284 . S
Zn55 O54 1.899 . S
Zn55 O56 2.032 . S
Zn55 O59 2.086 . S
Zn55 O64 2.018 . S
O56 Zn55 2.032 . S
O56 C60 1.278 . S
C57 O58 1.203 1_655 S
C57 O64 1.262 1_655 S
O58 C57 1.203 1_455 S
O59 C52 1.185 . S
O59 Zn55 2.086 . S
C60 O56 1.278 . S
C60 O61 1.211 . S
O61 C60 1.211 . S
C62 O54 1.284 . S
C62 O63 1.273 . S
O63 C62 1.273 . S
O64 Zn55 2.018 . S
O64 C57 1.262 1_455 S
C65 O66 1.160 . S
C65 O72 1.185 1_556 S
O66 C65 1.160 . S
O67 Zn68 1.899 . S
O67 C75 1.284 . S
Zn68 O67 1.899 . S
Zn68 O69 2.032 . S
Zn68 O72 2.086 . S
Zn68 O77 1.977 . S
O69 Zn68 2.032 . S
O69 C73 1.278 . S
C70 O71 1.203 . S
C70 O77 1.267 . S
O71 C70 1.203 . S
O72 C65 1.185 1_554 S
O72 Zn68 2.086 . S
C73 O69 1.278 . S
C73 O74 1.211 . S
O74 C73 1.211 . S
C75 O67 1.284 . S
C75 O76 1.273 . S
O76 C75 1.273 . S
O77 Zn68 1.977 . S
O77 C70 1.267 . S
C78 O79 1.160 . S
C78 O85 1.185 . S
O79 C78 1.160 . S
O80 Zn81 1.899 . S
O80 C88 1.284 . S
Zn81 O80 1.899 . S
Zn81 O82 2.032 . S
Zn81 O85 2.086 . S
Zn81 O90 1.977 . S
O82 Zn81 2.032 . S
O82 C86 1.278 . S
C83 O84 1.203 . S
C83 O90 1.267 . S
O84 C83 1.203 . S
O85 C78 1.185 . S
O85 Zn81 2.086 . S
C86 O82 1.278 . S
C86 O87 1.211 . S
O87 C86 1.211 . S
C88 O80 1.284 . S
C88 O89 1.273 . S
O89 C88 1.273 . S
O90 Zn81 1.977 . S
O90 C83 1.267 . S
C91 O92 1.160 . S
C91 O98 1.185 . S
O92 C91 1.160 . S
O93 Zn94 1.899 . S
O93 C101 1.284 . S
Zn94 O93 1.899 . S
Zn94 O95 2.032 . S
Zn94 O98 2.086 . S
Zn94 O103 1.977 . S
O95 Zn94 2.032 . S
O95 C99 1.278 . S
C96 O97 1.203 . S
C96 O103 1.267 . S
O97 C96 1.203 . S
O98 C91 1.185 . S
O98 Zn94 2.086 . S
C99 O95 1.278 . S
C99 O100 1.211 . S
O100 C99 1.211 . S
C101 O93 1.284 . S
C101 O102 1.273 . S
O102 C101 1.273 . S
O103 Zn94 1.977 . S
O103 C96 1.267 . S
C104 O105 1.160 . S
C104 O111 1.185 . S
O105 C104 1.160 . S
O106 Zn107 1.899 . S
O106 C114 1.284 . S
Zn107 O106 1.899 . S
Zn107 O108 2.032 . S
Zn107 O111 2.086 . S
Zn107 O116 1.977 . S
O108 Zn107 2.032 . S
O108 C112 1.278 . S
C109 O110 1.203 . S
C109 O116 1.267 . S
O110 C109 1.203 . S
O111 C104 1.185 . S
O111 Zn107 2.086 . S
C112 O108 1.278 . S
C112 O113 1.211 . S
O113 C112 1.211 . S
C114 O106 1.284 . S
C114 O115 1.273 . S
O115 C114 1.273 . S
O116 Zn107 1.977 . S
O116 C109 1.267 . S
C117 O118 1.160 . S
C117 O124 1.185 1_556 S
O118 C117 1.160 . S
O119 Zn120 1.899 . S
O119 C127 1.284 . S
Zn120 O119 1.899 . S
Zn120 O121 2.032 . S
Zn120 O124 2.086 . S
Zn120 O129 1.977 . S
O121 Zn120 2.032 . S
O121 C125 1.278 . S
C122 O123 1.203 . S
C122 O129 1.267 . S
O123 C122 1.203 . S
O124 C117 1.185 1_554 S
O124 Zn120 2.086 . S
C125 O121 1.278 . S
C125 O126 1.211 . S
O126 C125 1.211 . S
C127 O119 1.284 . S
C127 O128 1.273 . S
O128 C127 1.273 . S
O129 Zn120 1.977 . S
O129 C122 1.267 . S
C130 O131 1.160 . S
C130 O137 1.185 . S
O131 C130 1.160 . S
O132 Zn133 1.899 . S
O132 C140 1.284 1_554 S
Zn133 O132 1.899 . S
Zn133 O134 2.032 1_554 S
Zn133 O137 2.086 . S
Zn133 O142 1.977 . S
O134 Zn133 2.032 1_556 S
O134 C138 1.278 . S
C135 O136 1.203 . S
C135 O142 1.267 1_556 S
O136 C135 1.203 . S
O137 C130 1.185 . S
O137 Zn133 2.086 . S
C138 O134 1.278 . S
C138 O139 1.211 . S
O139 C138 1.211 . S
C140 O132 1.284 1_556 S
C140 O141 1.273 . S
O141 C140 1.273 . S
O142 Zn133 1.977 . S
O142 C135 1.267 1_554 S
C143 O144 1.160 . S
C143 O150 1.185 . S
O144 C143 1.160 . S
O145 Zn146 1.899 . S
O145 C153 1.284 . S
Zn146 O145 1.899 . S
Zn146 O147 2.032 . S
Zn146 O150 2.086 . S
Zn146 O155 1.977 . S
O147 Zn146 2.032 . S
O147 C151 1.278 . S
C148 O149 1.203 . S
C148 O155 1.267 . S
O149 C148 1.203 . S
O150 C143 1.185 . S
O150 Zn146 2.086 . S
C151 O147 1.278 . S
C151 O152 1.211 . S
O152 C151 1.211 . S
C153 O145 1.284 . S
C153 O154 1.273 . S
O154 C153 1.273 . S
O155 Zn146 1.977 . S
O155 C148 1.267 . S
C156 O157 1.160 . S
C156 O163 1.185 . S
O157 C156 1.160 . S
O158 Zn159 1.899 . S
O158 C166 1.284 . S
Zn159 O158 1.899 . S
Zn159 O160 2.032 . S
Zn159 O163 2.086 . S
Zn159 O168 1.977 . S
O160 Zn159 2.032 . S
O160 C164 1.278 . S
C161 O162 1.203 . S
C161 O168 1.267 . S
O162 C161 1.203 . S
O163 C156 1.185 . S
O163 Zn159 2.086 . S
C164 O160 1.278 . S
C164 O165 1.211 . S
O165 C164 1.211 . S
C166 O158 1.284 . S
C166 O167 1.273 . S
O167 C166 1.273 . S
O168 Zn159 1.977 . S
O168 C161 1.267 . S
C169 O170 1.173 . S
C169 O176 1.185 . S
O170 C169 1.173 . S
O171 Zn172 1.899 . S
O171 C179 1.284 1_455 S
Zn172 O171 1.899 . S
Zn172 O173 2.032 . S
Zn172 O176 2.086 . S
Zn172 O181 1.977 . S
O173 Zn172 2.032 . S
O173 C177 1.278 . S
C174 O175 1.203 . S
C174 O181 1.267 . S
O175 C174 1.203 . S
O176 C169 1.185 . S
O176 Zn172 2.086 . S
C177 O173 1.278 . S
C177 O178 1.211 . S
O178 C177 1.211 . S
C179 O171 1.284 1_655 S
C179 O180 1.273 . S
O180 C179 1.273 . S
O181 Zn172 1.977 . S
O181 C174 1.267 . S
C182 O183 1.160 . S
C182 O189 1.185 . S
O183 C182 1.160 . S
O184 Zn185 1.899 . S
O184 C192 1.284 . S
Zn185 O184 1.899 . S
Zn185 O186 2.032 . S
Zn185 O189 2.086 . S
Zn185 O194 1.977 . S
O186 Zn185 2.032 . S
O186 C190 1.278 . S
C187 O188 1.203 . S
C187 O194 1.267 . S
O188 C187 1.203 . S
O189 C182 1.185 . S
O189 Zn185 2.086 . S
C190 O186 1.278 . S
C190 O191 1.211 . S
O191 C190 1.211 . S
C192 O184 1.284 . S
C192 O193 1.273 . S
O193 C192 1.273 . S
O194 Zn185 1.977 . S
O194 C187 1.267 . S
C195 O196 1.173 . S
C195 O202 1.185 . S
O196 C195 1.173 . S
O197 Zn198 1.899 . S
O197 C205 1.284 1_455 S
Zn198 O197 1.899 . S
Zn198 O199 2.032 . S
Zn198 O202 2.086 . S
Zn198 O207 1.977 . S
O199 Zn198 2.032 . S
O199 C203 1.278 . S
C200 O201 1.203 . S
C200 O207 1.267 . S
O201 C200 1.203 . S
O202 C195 1.185 . S
O202 Zn198 2.086 . S
C203 O199 1.278 . S
C203 O204 1.211 . S
O204 C203 1.211 . S
C205 O197 1.284 1_655 S
C205 O206 1.273 . S
O206 C205 1.273 . S
O207 Zn198 1.977 . S
O207 C200 1.267 . S
H208 C214 0.930 . S
H209 C217 0.930 . S
H210 C218 0.930 . S
H211 C219 0.930 . S
H212 C222 0.930 . S
H213 C223 0.930 . S
C214 H208 0.930 . S
C214 C215 1.355 . S
C214 C216 1.415 . S
C215 C214 1.355 . S
C215 C217 1.419 . S
C216 C214 1.415 . S
C216 C221 1.425 . S
C216 C223 1.409 . S
C217 H209 0.930 . S
C217 C215 1.419 . S
C217 C218 1.362 . S
C218 H210 0.930 . S
C218 C217 1.362 . S
C218 C221 1.409 . S
C219 H211 0.930 . S
C219 C220 1.355 . S
C219 C221 1.415 . S
C220 C219 1.355 . S
C220 C222 1.419 . S
C221 C216 1.425 . S
C221 C218 1.409 . S
C221 C219 1.415 . S
C222 H212 0.930 . S
C222 C220 1.419 . S
C222 C223 1.362 . S
C223 H213 0.930 . S
C223 C216 1.409 . S
C223 C222 1.362 . S
H224 C230 0.930 . S
H225 C233 0.930 . S
H226 C234 0.930 . S
H227 C235 0.930 . S
H228 C238 0.930 . S
H229 C239 0.930 . S
C230 H224 0.930 . S
C230 C231 1.355 . S
C230 C232 1.415 . S
C231 C230 1.355 . S
C231 C233 1.419 . S
C232 C230 1.415 . S
C232 C237 1.425 . S
C232 C239 1.409 . S
C233 H225 0.930 . S
C233 C231 1.419 . S
C233 C234 1.362 . S
C234 H226 0.930 . S
C234 C233 1.362 . S
C234 C237 1.409 . S
C235 H227 0.930 . S
C235 C236 1.355 . S
C235 C237 1.415 . S
C236 C235 1.355 . S
C236 C238 1.419 . S
C237 C232 1.425 . S
C237 C234 1.409 . S
C237 C235 1.415 . S
C238 H228 0.930 . S
C238 C236 1.419 . S
C238 C239 1.362 . S
C239 H229 0.930 . S
C239 C232 1.409 . S
C239 C238 1.362 . S
H240 C246 0.930 . S
H241 C249 0.930 . S
H242 C250 0.930 . S
H243 C251 0.930 . S
H244 C254 0.930 . S
H245 C255 0.930 . S
C246 H240 0.930 . S
C246 C247 1.355 . S
C246 C248 1.415 . S
C247 C246 1.355 . S
C247 C249 1.419 . S
C248 C246 1.415 . S
C248 C253 1.425 . S
C248 C255 1.409 . S
C249 H241 0.930 . S
C249 C247 1.419 . S
C249 C250 1.362 . S
C250 H242 0.930 . S
C250 C249 1.362 . S
C250 C253 1.409 . S
C251 H243 0.930 . S
C251 C252 1.355 . S
C251 C253 1.415 . S
C252 C251 1.355 . S
C252 C254 1.419 . S
C253 C248 1.425 . S
C253 C250 1.409 . S
C253 C251 1.415 . S
C254 H244 0.930 . S
C254 C252 1.419 . S
C254 C255 1.362 . S
C255 H245 0.930 . S
C255 C248 1.409 . S
C255 C254 1.362 . S
H256 C262 0.930 1_554 S
H257 C265 0.930 . S
H258 C266 0.930 . S
H259 C267 0.930 . S
H260 C270 0.930 . S
H261 C271 0.930 . S
C262 H256 0.930 1_556 S
C262 C263 1.355 . S
C262 C264 1.415 . S
C263 C262 1.355 . S
C263 C265 1.419 . S
C264 C262 1.415 . S
C264 C269 1.425 . S
C264 C271 1.409 . S
C265 H257 0.930 . S
C265 C263 1.419 . S
C265 C266 1.362 . S
C266 H258 0.930 . S
C266 C265 1.362 . S
C266 C269 1.409 . S
C267 H259 0.930 . S
C267 C268 1.355 . S
C267 C269 1.415 . S
C268 C267 1.355 . S
C268 C270 1.419 . S
C269 C264 1.425 . S
C269 C266 1.409 . S
C269 C267 1.415 . S
C270 H260 0.930 . S
C270 C268 1.419 . S
C270 C271 1.362 . S
C271 H261 0.930 . S
C271 C264 1.409 . S
C271 C270 1.362 . S
H272 C278 0.930 . S
H273 C281 0.930 . S
H274 C282 0.930 . S
H275 C283 0.930 . S
H276 C286 0.930 . S
H277 C287 0.930 . S
C278 H272 0.930 . S
C278 C279 1.355 . S
C278 C280 1.415 . S
C279 C278 1.355 . S
C279 C281 1.419 . S
C280 C278 1.415 . S
C280 C285 1.425 . S
C280 C287 1.409 1_556 S
C281 H273 0.930 . S
C281 C279 1.419 . S
C281 C282 1.362 . S
C282 H274 0.930 . S
C282 C281 1.362 . S
C282 C285 1.409 . S
C283 H275 0.930 . S
C283 C284 1.355 . S
C283 C285 1.415 . S
C284 C283 1.355 . S
C284 C286 1.419 1_556 S
C285 C280 1.425 . S
C285 C282 1.409 . S
C285 C283 1.415 . S
C286 H276 0.930 . S
C286 C284 1.419 1_554 S
C286 C287 1.362 . S
C287 H277 0.930 . S
C287 C280 1.409 1_554 S
C287 C286 1.362 . S
H288 C294 0.930 . S
H289 C297 0.930 1_455 S
H290 C298 0.930 . S
H291 C299 0.930 . S
H292 C302 0.930 . S
H293 C303 0.930 . S
C294 H288 0.930 . S
C294 C295 1.355 . S
C294 C296 1.415 . S
C295 C294 1.355 . S
C295 C297 1.419 . S
C296 C294 1.415 . S
C296 C301 1.425 . S
C296 C303 1.409 . S
C297 H289 0.930 1_655 S
C297 C295 1.419 . S
C297 C298 1.362 . S
C298 H290 0.930 . S
C298 C297 1.362 . S
C298 C301 1.409 . S
C299 H291 0.930 . S
C299 C300 1.355 . S
C299 C301 1.415 . S
C300 C299 1.355 . S
C300 C302 1.419 . S
C301 C296 1.425 . S
C301 C298 1.409 . S
C301 C299 1.415 . S
C302 H292 0.930 . S
C302 C300 1.419 . S
C302 C303 1.362 . S
C303 H293 0.930 . S
C303 C296 1.409 . S
C303 C302 1.362 . S
H304 C310 0.930 . S
H305 C313 0.930 . S
H306 C314 0.930 . S
H307 C315 0.930 . S
H308 C318 0.930 . S
H309 C319 0.930 . S
C310 H304 0.930 . S
C310 C311 1.355 . S
C310 C312 1.415 . S
C311 C310 1.355 . S
C311 C313 1.419 . S
C312 C310 1.415 . S
C312 C317 1.425 . S
C312 C319 1.409 . S
C313 H305 0.930 . S
C313 C311 1.419 . S
C313 C314 1.362 . S
C314 H306 0.930 . S
C314 C313 1.362 . S
C314 C317 1.409 . S
C315 H307 0.930 . S
C315 C316 1.355 . S
C315 C317 1.415 . S
C316 C315 1.355 . S
C316 C318 1.419 . S
C317 C312 1.425 . S
C317 C314 1.409 . S
C317 C315 1.415 . S
C318 H308 0.930 . S
C318 C316 1.419 . S
C318 C319 1.362 . S
C319 H309 0.930 . S
C319 C312 1.409 . S
C319 C318 1.362 . S
H320 C326 0.930 . S
H321 C329 0.930 . S
H322 C330 0.930 . S
H323 C331 0.930 . S
H324 C334 0.930 . S
H325 C335 0.930 . S
C326 H320 0.930 . S
C326 C327 1.355 . S
C326 C328 1.415 . S
C327 C326 1.355 . S
C327 C329 1.419 . S
C328 C326 1.415 . S
C328 C333 1.425 . S
C328 C335 1.409 . S
C329 H321 0.930 . S
C329 C327 1.419 . S
C329 C330 1.362 . S
C330 H322 0.930 . S
C330 C329 1.362 . S
C330 C333 1.409 . S
C331 H323 0.930 . S
C331 C332 1.355 . S
C331 C333 1.415 . S
C332 C331 1.355 . S
C332 C334 1.419 . S
C333 C328 1.425 . S
C333 C330 1.409 . S
C333 C331 1.415 . S
C334 H324 0.930 . S
C334 C332 1.419 . S
C334 C335 1.362 . S
C335 H325 0.930 . S
C335 C328 1.409 . S
C335 C334 1.362 . S
H336 C342 0.930 . S
H337 C345 0.930 1_455 S
H338 C346 0.930 . S
H339 C347 0.930 . S
H340 C350 0.930 . S
H341 C351 0.930 . S
C342 H336 0.930 . S
C342 C343 1.355 . S
C342 C344 1.415 . S
C343 C342 1.355 . S
C343 C345 1.419 . S
C344 C342 1.415 . S
C344 C349 1.425 . S
C344 C351 1.409 . S
C345 H337 0.930 1_655 S
C345 C343 1.419 . S
C345 C346 1.362 . S
C346 H338 0.930 . S
C346 C345 1.362 . S
C346 C349 1.409 . S
C347 H339 0.930 . S
C347 C348 1.355 . S
C347 C349 1.415 . S
C348 C347 1.355 . S
C348 C350 1.419 . S
C349 C344 1.425 . S
C349 C346 1.409 . S
C349 C347 1.415 . S
C350 H340 0.930 . S
C350 C348 1.419 . S
C350 C351 1.362 . S
C351 H341 0.930 . S
C351 C344 1.409 . S
C351 C350 1.362 . S
H352 C358 0.930 . S
H353 C361 0.930 . S
H354 C362 0.930 . S
H355 C363 0.930 . S
H356 C366 0.930 . S
H357 C367 0.930 . S
C358 H352 0.930 . S
C358 C359 1.355 . S
C358 C360 1.415 . S
C359 C358 1.355 . S
C359 C361 1.419 . S
C360 C358 1.415 . S
C360 C365 1.425 . S
C360 C367 1.409 . S
C361 H353 0.930 . S
C361 C359 1.419 . S
C361 C362 1.362 . S
C362 H354 0.930 . S
C362 C361 1.362 . S
C362 C365 1.409 . S
C363 H355 0.930 . S
C363 C364 1.355 . S
C363 C365 1.415 . S
C364 C363 1.355 . S
C364 C366 1.419 . S
C365 C360 1.425 . S
C365 C362 1.409 . S
C365 C363 1.415 . S
C366 H356 0.930 . S
C366 C364 1.419 . S
C366 C367 1.362 . S
C367 H357 0.930 . S
C367 C360 1.409 . S
C367 C366 1.362 . S
H368 C374 0.930 . S
H369 C377 0.930 . S
H370 C378 0.930 . S
H371 C379 0.930 . S
H372 C382 0.930 . S
H373 C383 0.930 . S
C374 H368 0.930 . S
C374 C375 1.355 . S
C374 C376 1.415 . S
C375 C374 1.355 . S
C375 C377 1.419 . S
C376 C374 1.415 . S
C376 C381 1.425 . S
C376 C383 1.409 . S
C377 H369 0.930 . S
C377 C375 1.419 . S
C377 C378 1.362 . S
C378 H370 0.930 . S
C378 C377 1.362 . S
C378 C381 1.409 . S
C379 H371 0.930 . S
C379 C380 1.355 . S
C379 C381 1.415 . S
C380 C379 1.355 . S
C380 C382 1.419 . S
C381 C376 1.425 . S
C381 C378 1.409 . S
C381 C379 1.415 . S
C382 H372 0.930 . S
C382 C380 1.419 . S
C382 C383 1.362 . S
C383 H373 0.930 . S
C383 C376 1.409 . S
C383 C382 1.362 . S
H384 C390 0.930 . S
H385 C393 0.930 . S
H386 C394 0.930 . S
H387 C395 0.930 . S
H388 C398 0.930 . S
H389 C399 0.930 . S
C390 H384 0.930 . S
C390 C391 1.355 . S
C390 C392 1.415 . S
C391 C390 1.355 . S
C391 C393 1.419 . S
C392 C390 1.415 . S
C392 C397 1.425 . S
C392 C399 1.409 . S
C393 H385 0.930 . S
C393 C391 1.419 . S
C393 C394 1.362 . S
C394 H386 0.930 . S
C394 C393 1.362 . S
C394 C397 1.409 . S
C395 H387 0.930 . S
C395 C396 1.355 . S
C395 C397 1.415 . S
C396 C395 1.355 . S
C396 C398 1.419 . S
C397 C392 1.425 . S
C397 C394 1.409 . S
C397 C395 1.415 . S
C398 H388 0.930 . S
C398 C396 1.419 . S
C398 C399 1.362 . S
C399 H389 0.930 . S
C399 C392 1.409 . S
C399 C398 1.362 . S
H400 C406 0.930 . S
H401 C409 0.930 . S
H402 C410 0.930 . S
H403 C411 0.930 . S
H404 C414 0.930 . S
H405 C415 0.930 . S
C406 H400 0.930 . S
C406 C407 1.355 . S
C406 C408 1.415 . S
C407 C406 1.355 . S
C407 C409 1.419 . S
C408 C406 1.415 . S
C408 C413 1.425 . S
C408 C415 1.409 . S
C409 H401 0.930 . S
C409 C407 1.419 . S
C409 C410 1.362 . S
C410 H402 0.930 . S
C410 C409 1.362 . S
C410 C413 1.409 . S
C411 H403 0.930 . S
C411 C412 1.355 . S
C411 C413 1.415 . S
C412 C411 1.355 . S
C412 C414 1.419 . S
C413 C408 1.425 . S
C413 C410 1.409 . S
C413 C411 1.415 . S
C414 H404 0.930 . S
C414 C412 1.419 . S
C414 C415 1.362 . S
C415 H405 0.930 . S
C415 C408 1.409 . S
C415 C414 1.362 . S
H416 C422 0.930 . S
H417 C425 0.930 . S
H418 C426 0.930 . S
H419 C427 0.930 . S
H420 C430 0.930 . S
H421 C431 0.930 . S
C422 H416 0.930 . S
C422 C423 1.355 . S
C422 C424 1.415 . S
C423 C422 1.355 . S
C423 C425 1.419 . S
C424 C422 1.415 . S
C424 C429 1.425 . S
C424 C431 1.409 1_556 S
C425 H417 0.930 . S
C425 C423 1.419 . S
C425 C426 1.362 . S
C426 H418 0.930 . S
C426 C425 1.362 . S
C426 C429 1.409 . S
C427 H419 0.930 . S
C427 C428 1.355 . S
C427 C429 1.415 . S
C428 C427 1.355 . S
C428 C430 1.419 1_556 S
C429 C424 1.425 . S
C429 C426 1.409 . S
C429 C427 1.415 . S
C430 H420 0.930 . S
C430 C428 1.419 1_554 S
C430 C431 1.362 . S
C431 H421 0.930 . S
C431 C424 1.409 1_554 S
C431 C430 1.362 . S
H432 C438 0.930 . S
H433 C441 0.930 . S
H434 C442 0.930 . S
H435 C443 0.930 . S
H436 C446 0.930 . S
H437 C447 0.930 . S
C438 H432 0.930 . S
C438 C439 1.355 . S
C438 C440 1.415 . S
C439 C438 1.355 . S
C439 C441 1.419 . S
C440 C438 1.415 . S
C440 C445 1.425 . S
C440 C447 1.409 . S
C441 H433 0.930 . S
C441 C439 1.419 . S
C441 C442 1.362 . S
C442 H434 0.930 . S
C442 C441 1.362 . S
C442 C445 1.409 . S
C443 H435 0.930 . S
C443 C444 1.355 . S
C443 C445 1.415 . S
C444 C443 1.355 . S
C444 C446 1.419 . S
C445 C440 1.425 . S
C445 C442 1.409 . S
C445 C443 1.415 . S
C446 H436 0.930 . S
C446 C444 1.419 . S
C446 C447 1.362 . S
C447 H437 0.930 . S
C447 C440 1.409 . S
C447 C446 1.362 . S
H448 C454 0.930 . S
H449 C457 0.930 . S
H450 C458 0.930 . S
H451 C459 0.930 . S
H452 C462 0.930 . S
H453 C463 0.930 . S
C454 H448 0.930 . S
C454 C455 1.355 . S
C454 C456 1.415 . S
C455 C454 1.355 . S
C455 C457 1.419 . S
C456 C454 1.415 . S
C456 C461 1.425 . S
C456 C463 1.409 . S
C457 H449 0.930 . S
C457 C455 1.419 . S
C457 C458 1.362 . S
C458 H450 0.930 . S
C458 C457 1.362 . S
C458 C461 1.409 . S
C459 H451 0.930 . S
C459 C460 1.355 . S
C459 C461 1.415 . S
C460 C459 1.355 . S
C460 C462 1.419 . S
C461 C456 1.425 . S
C461 C458 1.409 . S
C461 C459 1.415 . S
C462 H452 0.930 . S
C462 C460 1.419 . S
C462 C463 1.362 . S
C463 H453 0.930 . S
C463 C456 1.409 . S
C463 C462 1.362 . S
H464 C470 0.930 . S
H465 C473 0.922 1_655 S
H466 C474 0.930 1_655 S
H467 C475 0.930 . S
H468 C478 0.930 . S
H469 C479 0.930 . S
C470 H464 0.930 . S
C470 C471 1.355 . S
C470 C472 1.415 . S
C471 C470 1.355 . S
C471 C473 1.419 . S
C472 C470 1.415 . S
C472 C477 1.425 . S
C472 C479 1.409 . S
C473 H465 0.922 1_455 S
C473 C471 1.419 . S
C473 C474 1.362 . S
C474 H466 0.930 1_455 S
C474 C473 1.362 . S
C474 C477 1.409 . S
C475 H467 0.930 . S
C475 C476 1.355 1_554 S
C475 C477 1.415 . S
C476 C475 1.355 1_556 S
C476 C478 1.419 . S
C477 C472 1.425 . S
C477 C474 1.409 . S
C477 C475 1.415 . S
C478 H468 0.930 . S
C478 C476 1.419 . S
C478 C479 1.362 1_556 S
C479 H469 0.930 . S
C479 C472 1.409 . S
C479 C478 1.362 1_554 S
H480 C486 0.930 . S
H481 C489 0.930 . S
H482 C490 0.930 . S
H483 C491 0.930 . S
H484 C494 0.930 . S
H485 C495 0.930 . S
C486 H480 0.930 . S
C486 C487 1.355 . S
C486 C488 1.415 . S
C487 C486 1.355 . S
C487 C489 1.419 . S
C488 C486 1.415 . S
C488 C493 1.425 . S
C488 C495 1.409 . S
C489 H481 0.930 . S
C489 C487 1.419 . S
C489 C490 1.362 . S
C490 H482 0.930 . S
C490 C489 1.362 . S
C490 C493 1.409 . S
C491 H483 0.930 . S
C491 C492 1.355 . S
C491 C493 1.415 . S
C492 C491 1.355 . S
C492 C494 1.419 . S
C493 C488 1.425 . S
C493 C490 1.409 . S
C493 C491 1.415 . S
C494 H484 0.930 . S
C494 C492 1.419 . S
C494 C495 1.362 . S
C495 H485 0.930 . S
C495 C488 1.409 . S
C495 C494 1.362 . S
H496 C502 0.930 . S
H497 C505 0.930 . S
H498 C506 0.930 . S
H499 C507 0.930 . S
H500 C510 0.930 . S
H501 C511 0.930 . S
C502 H496 0.930 . S
C502 C503 1.355 . S
C502 C504 1.415 . S
C503 C502 1.355 . S
C503 C505 1.419 . S
C504 C502 1.415 . S
C504 C509 1.425 . S
C504 C511 1.409 . S
C505 H497 0.930 . S
C505 C503 1.419 . S
C505 C506 1.362 . S
C506 H498 0.930 . S
C506 C505 1.362 . S
C506 C509 1.409 . S
C507 H499 0.930 . S
C507 C508 1.355 . S
C507 C509 1.415 . S
C508 C507 1.355 . S
C508 C510 1.419 . S
C509 C504 1.425 . S
C509 C506 1.409 . S
C509 C507 1.415 . S
C510 H500 0.930 . S
C510 C508 1.419 . S
C510 C511 1.362 . S
C511 H501 0.930 . S
C511 C504 1.409 . S
C511 C510 1.362 . S
H512 C518 0.930 . S
H513 C521 0.930 . S
H514 C522 0.930 . S
H515 C523 0.930 . S
H516 C526 0.930 . S
H517 C527 0.930 . S
C518 H512 0.930 . S
C518 C519 1.355 . S
C518 C520 1.415 . S
C519 C518 1.355 . S
C519 C521 1.419 . S
C520 C518 1.415 . S
C520 C525 1.425 . S
C520 C527 1.409 . S
C521 H513 0.930 . S
C521 C519 1.419 . S
C521 C522 1.362 . S
C522 H514 0.930 . S
C522 C521 1.362 . S
C522 C525 1.409 . S
C523 H515 0.930 . S
C523 C524 1.355 . S
C523 C525 1.415 . S
C524 C523 1.355 . S
C524 C526 1.419 . S
C525 C520 1.425 . S
C525 C522 1.409 . S
C525 C523 1.415 . S
C526 H516 0.930 . S
C526 C524 1.419 . S
C526 C527 1.362 . S
C527 H517 0.930 . S
C527 C520 1.409 . S
C527 C526 1.362 . S
H528 C534 0.930 . S
H529 C537 0.930 . S
H530 C538 0.930 . S
H531 C539 0.930 . S
H532 C542 0.930 . S
H533 C543 0.930 . S
C534 H528 0.930 . S
C534 C535 1.355 . S
C534 C536 1.415 . S
C535 C534 1.355 . S
C535 C537 1.419 . S
C536 C534 1.415 . S
C536 C541 1.425 . S
C536 C543 1.409 . S
C537 H529 0.930 . S
C537 C535 1.419 . S
C537 C538 1.362 . S
C538 H530 0.930 . S
C538 C537 1.362 . S
C538 C541 1.409 . S
C539 H531 0.930 . S
C539 C540 1.355 . S
C539 C541 1.415 . S
C540 C539 1.355 . S
C540 C542 1.419 . S
C541 C536 1.425 . S
C541 C538 1.409 . S
C541 C539 1.415 . S
C542 H532 0.930 . S
C542 C540 1.419 . S
C542 C543 1.362 . S
C543 H533 0.930 . S
C543 C536 1.409 . S
C543 C542 1.362 . S
H544 C550 0.930 . S
H545 C553 0.930 . S
H546 C554 0.930 . S
H547 C555 0.930 . S
H548 C558 0.930 . S
H549 C559 0.930 . S
C550 H544 0.930 . S
C550 C551 1.355 . S
C550 C552 1.415 . S
C551 C550 1.355 . S
C551 C553 1.419 . S
C552 C550 1.415 . S
C552 C557 1.425 . S
C552 C559 1.409 . S
C553 H545 0.930 . S
C553 C551 1.419 . S
C553 C554 1.362 . S
C554 H546 0.930 . S
C554 C553 1.362 . S
C554 C557 1.409 . S
C555 H547 0.930 . S
C555 C556 1.355 . S
C555 C557 1.415 . S
C556 C555 1.355 . S
C556 C558 1.419 . S
C557 C552 1.425 . S
C557 C554 1.409 . S
C557 C555 1.415 . S
C558 H548 0.930 . S
C558 C556 1.419 . S
C558 C559 1.362 . S
C559 H549 0.930 . S
C559 C552 1.409 . S
C559 C558 1.362 . S
H560 C566 0.930 . S
H561 C569 0.930 . S
H562 C570 0.930 . S
H563 C571 0.930 . S
H564 C574 0.930 . S
H565 C575 0.930 . S
C566 H560 0.930 . S
C566 C567 1.355 . S
C566 C568 1.415 1_565 S
C567 C566 1.355 . S
C567 C569 1.419 . S
C568 C566 1.415 1_545 S
C568 C573 1.425 1_545 S
C568 C575 1.409 . S
C569 H561 0.930 . S
C569 C567 1.419 . S
C569 C570 1.362 . S
C570 H562 0.930 . S
C570 C569 1.362 . S
C570 C573 1.409 . S
C571 H563 0.930 . S
C571 C572 1.355 . S
C571 C573 1.415 1_545 S
C572 C571 1.355 . S
C572 C574 1.419 . S
C573 C568 1.425 1_565 S
C573 C570 1.409 . S
C573 C571 1.415 1_565 S
C574 H564 0.930 . S
C574 C572 1.419 . S
C574 C575 1.362 . S
C575 H565 0.930 . S
C575 C568 1.409 . S
C575 C574 1.362 . S
H576 C582 0.930 . S
H577 C585 0.930 1_655 S
H578 C586 0.958 1_565 S
H579 C587 0.930 1_655 S
H580 C590 0.930 . S
H581 C591 0.920 1_545 S
C582 H576 0.930 . S
C582 C583 1.355 1_554 S
C582 C584 1.415 . S
C583 C582 1.355 1_556 S
C583 C585 1.419 . S
C584 C582 1.415 . S
C584 C589 1.425 1_545 S
C584 C591 1.403 1_545 S
C585 H577 0.930 1_455 S
C585 C583 1.419 . S
C585 C586 1.372 1_456 S
C586 H578 0.958 1_545 S
C586 C585 1.372 1_654 S
C586 C589 1.375 1_645 S
C587 H579 0.930 1_455 S
C587 C588 1.355 . S
C587 C589 1.415 . S
C588 C587 1.355 . S
C588 C590 1.419 . S
C589 C584 1.425 1_565 S
C589 C586 1.375 1_465 S
C589 C587 1.415 . S
C590 H580 0.930 . S
C590 C588 1.419 . S
C590 C591 1.379 . S
C591 H581 0.920 1_565 S
C591 C584 1.403 1_565 S
C591 C590 1.379 . S
H592 C598 0.930 . S
H593 C601 0.930 . S
H594 C602 0.930 . S
H595 C603 0.930 . S
H596 C606 0.930 . S
H597 C607 0.930 . S
C598 H592 0.930 . S
C598 C599 1.355 . S
C598 C600 1.415 . S
C599 C598 1.355 . S
C599 C601 1.419 . S
C600 C598 1.415 . S
C600 C605 1.425 . S
C600 C607 1.409 . S
C601 H593 0.930 . S
C601 C599 1.419 . S
C601 C602 1.362 . S
C602 H594 0.930 . S
C602 C601 1.362 . S
C602 C605 1.409 . S
C603 H595 0.930 . S
C603 C604 1.355 . S
C603 C605 1.415 . S
C604 C603 1.355 . S
C604 C606 1.419 . S
C605 C600 1.425 . S
C605 C602 1.409 . S
C605 C603 1.415 . S
C606 H596 0.930 . S
C606 C604 1.419 . S
C606 C607 1.362 . S
C607 H597 0.930 . S
C607 C600 1.409 . S
C607 C606 1.362 . S
H608 C614 0.930 . S
H609 C617 0.930 . S
H610 C618 0.930 . S
H611 C619 0.930 . S
H612 C622 0.930 . S
H613 C623 0.930 . S
C614 H608 0.930 . S
C614 C615 1.355 . S
C614 C616 1.415 . S
C615 C614 1.355 . S
C615 C617 1.419 . S
C616 C614 1.415 . S
C616 C621 1.425 . S
C616 C623 1.409 . S
C617 H609 0.930 . S
C617 C615 1.419 . S
C617 C618 1.362 . S
C618 H610 0.930 . S
C618 C617 1.362 . S
C618 C621 1.409 . S
C619 H611 0.930 . S
C619 C620 1.355 . S
C619 C621 1.415 . S
C620 C619 1.355 . S
C620 C622 1.419 . S
C621 C616 1.425 . S
C621 C618 1.409 . S
C621 C619 1.415 . S
C622 H612 0.930 . S
C622 C620 1.419 . S
C622 C623 1.362 . S
C623 H613 0.930 . S
C623 C616 1.409 . S
C623 C622 1.362 . S
H624 C630 0.930 . S
H625 C633 0.930 . S
H626 C634 0.930 . S
H627 C635 0.930 . S
H628 C638 0.930 . S
H629 C639 0.930 . S
C630 H624 0.930 . S
C630 C631 1.355 . S
C630 C632 1.415 . S
C631 C630 1.355 . S
C631 C633 1.419 . S
C632 C630 1.415 . S
C632 C637 1.425 . S
C632 C639 1.409 . S
C633 H625 0.930 . S
C633 C631 1.419 . S
C633 C634 1.362 . S
C634 H626 0.930 . S
C634 C633 1.362 . S
C634 C637 1.409 . S
C635 H627 0.930 . S
C635 C636 1.355 1_554 S
C635 C637 1.415 . S
C636 C635 1.355 1_556 S
C636 C638 1.419 . S
C637 C632 1.425 . S
C637 C634 1.409 . S
C637 C635 1.415 . S
C638 H628 0.930 . S
C638 C636 1.419 . S
C638 C639 1.362 1_556 S
C639 H629 0.930 . S
C639 C632 1.409 . S
C639 C638 1.362 1_554 S
H640 C646 0.930 . S
H641 C649 0.930 . S
H642 C650 0.930 . S
H643 C651 0.930 . S
H644 C654 0.930 . S
H645 C655 0.930 . S
C646 H640 0.930 . S
C646 C647 1.355 . S
C646 C648 1.415 . S
C647 C646 1.355 . S
C647 C649 1.419 . S
C648 C646 1.415 . S
C648 C653 1.425 . S
C648 C655 1.409 . S
C649 H641 0.930 . S
C649 C647 1.419 . S
C649 C650 1.362 . S
C650 H642 0.930 . S
C650 C649 1.362 . S
C650 C653 1.409 . S
C651 H643 0.930 . S
C651 C652 1.355 . S
C651 C653 1.415 . S
C652 C651 1.355 . S
C652 C654 1.419 . S
C653 C648 1.425 . S
C653 C650 1.409 . S
C653 C651 1.415 . S
C654 H644 0.930 . S
C654 C652 1.419 . S
C654 C655 1.362 . S
C655 H645 0.930 . S
C655 C648 1.409 . S
C655 C654 1.362 . S
H656 C662 0.930 . S
H657 C665 0.930 . S
H658 C666 0.930 . S
H659 C667 0.930 . S
H660 C670 0.930 . S
H661 C671 0.930 . S
C662 H656 0.930 . S
C662 C663 1.355 . S
C662 C664 1.415 . S
C663 C662 1.355 . S
C663 C665 1.419 . S
C664 C662 1.415 . S
C664 C669 1.425 . S
C664 C671 1.409 . S
C665 H657 0.930 . S
C665 C663 1.419 . S
C665 C666 1.362 . S
C666 H658 0.930 . S
C666 C665 1.362 . S
C666 C669 1.409 . S
C667 H659 0.930 . S
C667 C668 1.355 . S
C667 C669 1.415 . S
C668 C667 1.355 . S
C668 C670 1.419 . S
C669 C664 1.425 . S
C669 C666 1.409 . S
C669 C667 1.415 . S
C670 H660 0.930 . S
C670 C668 1.419 . S
C670 C671 1.362 . S
C671 H661 0.930 . S
C671 C664 1.409 . S
C671 C670 1.362 . S
H672 C678 0.930 . S
H673 C681 0.930 . S
H674 C682 0.930 . S
H675 C683 0.930 . S
H676 C686 0.930 . S
H677 C687 0.930 . S
C678 H672 0.930 . S
C678 C679 1.355 . S
C678 C680 1.415 . S
C679 C678 1.355 . S
C679 C681 1.419 . S
C680 C678 1.415 . S
C680 C685 1.425 . S
C680 C687 1.409 . S
C681 H673 0.930 . S
C681 C679 1.419 . S
C681 C682 1.362 . S
C682 H674 0.930 . S
C682 C681 1.362 . S
C682 C685 1.409 . S
C683 H675 0.930 . S
C683 C684 1.355 . S
C683 C685 1.415 . S
C684 C683 1.355 . S
C684 C686 1.419 . S
C685 C680 1.425 . S
C685 C682 1.409 . S
C685 C683 1.415 . S
C686 H676 0.930 . S
C686 C684 1.419 . S
C686 C687 1.362 . S
C687 H677 0.930 . S
C687 C680 1.409 . S
C687 C686 1.362 . S
H688 C694 0.930 1_545 S
H689 C697 0.930 . S
H690 C698 0.930 . S
H691 C699 0.930 1_565 S
H692 C702 0.930 . S
H693 C703 0.930 . S
C694 H688 0.930 1_565 S
C694 C695 1.355 . S
C694 C696 1.415 1_565 S
C695 C694 1.355 . S
C695 C697 1.419 . S
C696 C694 1.415 1_545 S
C696 C701 1.425 1_545 S
C696 C703 1.409 . S
C697 H689 0.930 . S
C697 C695 1.419 . S
C697 C698 1.362 . S
C698 H690 0.930 . S
C698 C697 1.362 . S
C698 C701 1.409 . S
C699 H691 0.930 1_545 S
C699 C700 1.355 . S
C699 C701 1.415 1_546 S
C700 C699 1.355 . S
C700 C702 1.419 1_556 S
C701 C696 1.425 1_565 S
C701 C698 1.409 . S
C701 C699 1.415 1_564 S
C702 H692 0.930 . S
C702 C700 1.419 1_554 S
C702 C703 1.362 . S
C703 H693 0.930 . S
C703 C696 1.409 . S
C703 C702 1.362 . S
H704 C710 0.942 . S
H705 C713 0.930 . S
H706 C714 0.952 . S
H707 C715 0.942 . S
H708 C718 0.930 . S
H709 C719 0.930 . S
C710 H704 0.942 . S
C710 C711 1.355 . S
C710 C712 1.415 1_545 S
C711 C710 1.355 . S
C711 C713 1.419 . S
C712 C710 1.415 1_565 S
C712 C717 1.425 1_565 S
C712 C719 1.409 . S
C713 H705 0.930 . S
C713 C711 1.419 . S
C713 C714 1.362 . S
C714 H706 0.952 . S
C714 C713 1.362 . S
C714 C717 1.409 . S
C715 H707 0.942 . S
C715 C716 1.355 . S
C715 C717 1.415 1_565 S
C716 C715 1.355 . S
C716 C718 1.419 . S
C717 C712 1.425 1_545 S
C717 C714 1.409 . S
C717 C715 1.415 1_545 S
C718 H708 0.930 . S
C718 C716 1.419 . S
C718 C719 1.362 . S
C719 H709 0.930 . S
C719 C712 1.409 . S
C719 C718 1.362 . S
C215 C127 1.407 . S
C220 C10 1.406 . S
C231 C192 1.399 . S
C236 C23 1.400 . S
C247 C36 1.429 . S
C252 C114 1.428 . S
C263 C49 1.426 . S
C268 C205 1.426 . S
C279 C62 1.453 . S
C284 C140 1.452 . S
C295 C179 1.429 . S
C300 C75 1.428 . S
C311 C153 1.453 . S
C316 C88 1.452 . S
C327 C101 1.450 . S
C332 C166 1.450 . S
C343 C57 1.395 . S
C348 C44 1.451 . S
C359 C161 1.426 . S
C364 C109 1.393 . S
C375 C83 1.429 . S
C380 C18 1.392 . S
C391 C122 1.434 . S
C396 C174 1.459 . S
C407 C5 1.460 . S
C412 C70 1.407 . S
C423 C200 1.458 . S
C428 C135 1.437 . S
C439 C96 1.450 . S
C444 C31 1.448 . S
C455 C148 1.391 . S
C460 C187 1.437 . S
C471 C8 0.582 . S
C476 C60 0.664 . S
C487 C73 0.621 . S
C492 C21 0.547 . S
C503 C86 0.632 . S
C508 C34 0.677 . S
C519 C47 0.659 . S
C524 C99 0.668 . S
C535 C138 0.569 . S
C540 C112 0.555 . S
C551 C151 0.664 . S
C556 C125 0.663 . S
C567 C190 0.546 . S
C572 C164 0.588 . S
C583 C203 0.677 . S
C588 C177 0.614 . S
C599 C52 1.652 . S
C604 C0 1.668 . S
C615 C65 1.649 . S
C620 C13 1.671 . S
C631 C78 1.642 . S
C636 C26 1.675 . S
C647 C39 1.653 . S
C652 C91 1.667 . S
C663 C104 1.660 . S
C668 C130 1.661 . S
C679 C143 1.670 . S
C684 C117 1.642 . S
C695 C182 1.658 . S
C700 C156 1.652 . S
C711 C195 1.651 . S
C716 C169 1.659 . S
