# Generated by pormake.
# Topology usf, (4)-cn, num edge types: 1
# Building blocks:
#     Node 0, Type 0, BuildingBlock: ESEHIV_clean_sbu_0, # of connection points: 4
#     Node 1, Type 0, BuildingBlock: ESEHIV_clean_sbu_0, # of connection points: 4
#     Node 2, Type 0, BuildingBlock: ESEHIV_clean_sbu_0, # of connection points: 4
#     Node 3, Type 0, BuildingBlock: ESEHIV_clean_sbu_0, # of connection points: 4
#     Node 4, Type 0, BuildingBlock: ESEHIV_clean_sbu_0, # of connection points: 4
#     Node 5, Type 0, BuildingBlock: ESEHIV_clean_sbu_0, # of connection points: 4
#     Node 6, Type 0, BuildingBlock: ESEHIV_clean_sbu_0, # of connection points: 4
#     Node 7, Type 0, BuildingBlock: ESEHIV_clean_sbu_0, # of connection points: 4
#     Node 8, Type 0, BuildingBlock: ESEHIV_clean_sbu_0, # of connection points: 4
#     Node 9, Type 0, BuildingBlock: ESEHIV_clean_sbu_0, # of connection points: 4
#     Node 10, Type 0, BuildingBlock: ESEHIV_clean_sbu_0, # of connection points: 4
#     Node 11, Type 0, BuildingBlock: ESEHIV_clean_sbu_0, # of connection points: 4
#     Node 12, Type 0, BuildingBlock: ESEHIV_clean_sbu_0, # of connection points: 4
#     Node 13, Type 0, BuildingBlock: ESEHIV_clean_sbu_0, # of connection points: 4
#     Node 14, Type 0, BuildingBlock: ESEHIV_clean_sbu_0, # of connection points: 4
#     Node 15, Type 0, BuildingBlock: ESEHIV_clean_sbu_0, # of connection points: 4
#     Node 16, Type 0, BuildingBlock: ESEHIV_clean_sbu_0, # of connection points: 4
#     Node 17, Type 0, BuildingBlock: ESEHIV_clean_sbu_0, # of connection points: 4
#     Edge 18, Type (0, 0), BuildingBlock: CIFDUS_clean_linker_0, # of connection points: 2
#     Edge 19, Type (0, 0), BuildingBlock: CIFDUS_clean_linker_0, # of connection points: 2
#     Edge 20, Type (0, 0), BuildingBlock: CIFDUS_clean_linker_0, # of connection points: 2
#     Edge 21, Type (0, 0), BuildingBlock: CIFDUS_clean_linker_0, # of connection points: 2
#     Edge 22, Type (0, 0), BuildingBlock: CIFDUS_clean_linker_0, # of connection points: 2
#     Edge 23, Type (0, 0), BuildingBlock: CIFDUS_clean_linker_0, # of connection points: 2
#     Edge 24, Type (0, 0), BuildingBlock: CIFDUS_clean_linker_0, # of connection points: 2
#     Edge 25, Type (0, 0), BuildingBlock: CIFDUS_clean_linker_0, # of connection points: 2
#     Edge 26, Type (0, 0), BuildingBlock: CIFDUS_clean_linker_0, # of connection points: 2
#     Edge 27, Type (0, 0), BuildingBlock: CIFDUS_clean_linker_0, # of connection points: 2
#     Edge 28, Type (0, 0), BuildingBlock: CIFDUS_clean_linker_0, # of connection points: 2
#     Edge 29, Type (0, 0), BuildingBlock: CIFDUS_clean_linker_0, # of connection points: 2
#     Edge 30, Type (0, 0), BuildingBlock: CIFDUS_clean_linker_0, # of connection points: 2
#     Edge 31, Type (0, 0), BuildingBlock: CIFDUS_clean_linker_0, # of connection points: 2
#     Edge 32, Type (0, 0), BuildingBlock: CIFDUS_clean_linker_0, # of connection points: 2
#     Edge 33, Type (0, 0), BuildingBlock: CIFDUS_clean_linker_0, # of connection points: 2
#     Edge 34, Type (0, 0), BuildingBlock: CIFDUS_clean_linker_0, # of connection points: 2
#     Edge 35, Type (0, 0), BuildingBlock: CIFDUS_clean_linker_0, # of connection points: 2
#     Edge 36, Type (0, 0), BuildingBlock: CIFDUS_clean_linker_0, # of connection points: 2
#     Edge 37, Type (0, 0), BuildingBlock: CIFDUS_clean_linker_0, # of connection points: 2
#     Edge 38, Type (0, 0), BuildingBlock: CIFDUS_clean_linker_0, # of connection points: 2
#     Edge 39, Type (0, 0), BuildingBlock: CIFDUS_clean_linker_0, # of connection points: 2
#     Edge 40, Type (0, 0), BuildingBlock: CIFDUS_clean_linker_0, # of connection points: 2
#     Edge 41, Type (0, 0), BuildingBlock: CIFDUS_clean_linker_0, # of connection points: 2
#     Edge 42, Type (0, 0), BuildingBlock: CIFDUS_clean_linker_0, # of connection points: 2
#     Edge 43, Type (0, 0), BuildingBlock: CIFDUS_clean_linker_0, # of connection points: 2
#     Edge 44, Type (0, 0), BuildingBlock: CIFDUS_clean_linker_0, # of connection points: 2
#     Edge 45, Type (0, 0), BuildingBlock: CIFDUS_clean_linker_0, # of connection points: 2
#     Edge 46, Type (0, 0), BuildingBlock: CIFDUS_clean_linker_0, # of connection points: 2
#     Edge 47, Type (0, 0), BuildingBlock: CIFDUS_clean_linker_0, # of connection points: 2
#     Edge 48, Type (0, 0), BuildingBlock: CIFDUS_clean_linker_0, # of connection points: 2
#     Edge 49, Type (0, 0), BuildingBlock: CIFDUS_clean_linker_0, # of connection points: 2
#     Edge 50, Type (0, 0), BuildingBlock: CIFDUS_clean_linker_0, # of connection points: 2
#     Edge 51, Type (0, 0), BuildingBlock: CIFDUS_clean_linker_0, # of connection points: 2
#     Edge 52, Type (0, 0), BuildingBlock: CIFDUS_clean_linker_0, # of connection points: 2
#     Edge 53, Type (0, 0), BuildingBlock: CIFDUS_clean_linker_0, # of connection points: 2
# Relax obj value: 0.027
# Max RMSD: 0.179
# Mean RMSD: 0.120
data_MOF--net-usf--node1-ESEHIV_clean_sbu_0--edge1-CIFDUS_clean_linker_0
_symmetry_space_group_name_H-M    P1
_symmetry_Int_Tables_number       1
_symmetry_cell_setting            triclinic
loop_
_symmetry_equiv_pos_as_xyz
'x, y, z'
_cell_length_a     40.467406
_cell_length_b     43.264024
_cell_length_c     29.547506
_cell_angle_alpha  90.168783
_cell_angle_beta   90.412693
_cell_angle_gamma 117.15361
loop_
_atom_site_label
_atom_site_type_symbol
_atom_site_fract_x
_atom_site_fract_y
_atom_site_fract_z
_atom_type_partial_charge
Cu0 Cu 0.0796 0.58334 0.03341 0.0
N1 N 0.10154 0.61171 0.98357 0.0
N2 N 0.12026 0.62581 0.91219 0.0
C3 C 0.10458 0.59993 0.94242 0.0
C4 C 0.12774 0.65524 0.93538 0.0
C5 C 0.11607 0.64643 0.97944 0.0
O6 O 0.07335 0.53702 1.01652 0.0
C7 C 0.03726 0.61496 0.06754 0.0
O8 O 0.07068 0.6405 0.07461 0.0
H9 H 0.09564 0.57282 0.93482 0.0
H10 H 0.11782 0.66411 1.00634 0.0
N11 N 0.11178 0.59746 0.08322 0.0
N12 N 0.13392 0.59674 0.15258 0.0
C13 C 0.10529 0.5809 0.12312 0.0
C14 C 0.1457 0.62471 0.08725 0.0
C15 C 0.15943 0.62437 0.13003 0.0
C16 C 0.04963 0.51671 0.98794 0.0
O17 O 0.0243 0.52484 0.97174 0.0
H18 H 0.08018 0.55735 0.12996 0.0
H19 H 0.15947 0.64346 0.06096 0.0
O20 O 0.03417 0.5867 0.04981 0.0
H21 H 0.13994 0.68113 0.92134 0.0
H22 H 0.18592 0.64331 0.14356 0.0
Cu23 Cu 0.54215 0.51597 1.01394 0.0
N24 N 0.49796 0.47432 1.02068 0.0
N25 N 0.45859 0.42385 0.05212 0.0
C26 C 0.4945 0.44654 0.04498 0.0
C27 C 0.43875 0.43756 0.03076 0.0
C28 C 0.46301 0.46857 1.01146 0.0
O29 O 0.5685 0.52057 0.07426 0.0
C30 C 0.54079 0.50675 0.91821 0.0
O31 O 0.50607 0.49921 0.92618 0.0
H32 H 0.51774 0.44472 0.06084 0.0
H33 H 0.45565 0.48677 0.99466 0.0
N34 N 0.5329 0.55482 1.01009 0.0
N35 N 0.54205 0.60914 0.99638 0.0
C36 C 0.55426 0.5852 0.98912 0.0
C37 C 0.50615 0.55972 0.03082 0.0
C38 C 0.51182 0.59314 0.02264 0.0
C39 C 0.54847 0.51545 0.11007 0.0
O40 O 0.51376 0.50921 0.10456 0.0
H41 H 0.5792 0.59017 0.9707 0.0
H42 H 0.4846 0.54069 0.05154 0.0
O43 O 0.56318 0.51423 0.9525 0.0
H44 H 0.40881 0.42696 0.03144 0.0
H45 H 0.49536 0.60503 0.0357 0.0
Cu46 Cu 0.5281 0.95587 0.04589 0.0
N47 N 0.54284 0.97837 0.99015 0.0
N48 N 0.54364 0.9865 0.91533 0.0
C49 C 0.53258 0.96309 0.94916 0.0
C50 C 0.56248 0.01772 0.93596 0.0
C51 C 0.56193 0.01261 0.98209 0.0
O52 O 0.48336 0.91144 0.03456 0.0
C53 C 0.60332 0.96637 0.06022 0.0
O54 O 0.60675 0.97078 1.01623 0.0
H55 H 0.51614 0.93535 0.9445 0.0
H56 H 0.57327 0.03251 1.00802 0.0
N57 N 0.51213 0.98052 0.0843 0.0
N58 N 0.49124 0.99374 0.14764 0.0
C59 C 0.50407 0.97305 0.12825 0.0
C60 C 0.50414 1.00683 0.07526 0.0
C61 C 0.49125 0.01507 0.11432 0.0
C62 C 0.45767 0.91461 1.01262 0.0
O63 O 0.46336 0.9458 1.00041 0.0
H64 H 0.50668 0.95213 0.14521 0.0
H65 H 0.5069 0.01881 0.04251 0.0
O66 O 0.57123 0.95606 0.07777 0.0
H67 H 0.57408 0.04263 0.91922 0.0
H68 H 0.4827 0.03528 0.11784 0.0
Cu69 Cu 0.50098 0.02682 0.53086 0.0
N70 N 0.46885 1.00149 0.4836 0.0
N71 N 0.45548 0.98356 0.41157 0.0
C72 C 0.48085 0.99303 0.44538 0.0
C73 C 0.42591 0.98555 0.42945 0.0
C74 C 0.43424 0.99666 0.47385 0.0
O75 O 0.55049 0.04162 0.50414 0.0
C76 C 0.4574 0.05387 0.57088 0.0
O77 O 0.4371 0.02056 0.57845 0.0
H78 H 0.50902 0.99698 0.44112 0.0
H79 H 0.41731 1.00339 0.49591 0.0
N80 N 0.49579 0.99926 0.58147 0.0
N81 N 0.5044 0.98571 0.65206 0.0
C82 C 0.51208 1.01144 0.62193 0.0
C83 C 0.47681 0.96459 0.58597 0.0
C84 C 0.48202 0.95613 0.62961 0.0
C85 C 0.57018 0.0261 0.51292 0.0
O86 O 0.56196 1.00575 0.54831 0.0
H87 H 0.52921 0.03878 0.62897 0.0
H88 H 0.46071 0.94677 0.55931 0.0
O89 O 0.48823 0.0637 0.5502 0.0
H90 H 0.40092 0.98128 0.41108 0.0
H91 H 0.4708 0.93019 0.64336 0.0
Cu92 Cu 0.07936 0.54948 0.53131 0.0
N93 N 0.11018 0.56268 0.58253 0.0
N94 N 0.12513 0.57537 0.65551 0.0
C95 C 0.0974 0.55999 0.62496 0.0
C96 C 0.15675 0.58828 0.6314 0.0
C97 C 0.14744 0.5803 0.58628 0.0
O98 O 0.03418 0.50693 0.54784 0.0
C99 C 0.10455 0.61615 0.4979 0.0
O100 O 0.13471 0.61198 0.49708 0.0
H101 H 0.06814 0.54841 0.63296 0.0
H102 H 0.16644 0.5879 0.55819 0.0
N103 N 0.10054 0.53875 0.48163 0.0
N104 N 0.11237 0.5371 0.40818 0.0
C105 C 0.08916 0.53938 0.43896 0.0
C106 C 0.13196 0.53552 0.47799 0.0
C107 C 0.13944 0.53464 0.43251 0.0
C108 C 0.03992 0.48177 0.56186 0.0
O109 O 0.07432 0.48632 0.56295 0.0
H110 H 0.06575 0.54412 0.43077 0.0
H111 H 0.14921 0.53566 0.50619 0.0
O112 O 0.07457 0.59109 0.51261 0.0
H113 H 0.18449 0.60285 0.64528 0.0
H114 H 0.1635 0.53349 0.41851 0.0
Cu115 Cu 0.55031 0.4773 0.51513 0.0
N116 N 0.56266 0.50151 0.45768 0.0
N117 N 0.5674 0.51068 0.38155 0.0
C118 C 0.5525 0.48715 0.41552 0.0
C119 C 0.58791 0.54105 0.40334 0.0
C120 C 0.5849 0.53543 0.44968 0.0
O121 O 0.50007 0.43741 0.50892 0.0
C122 C 0.62191 0.47938 0.5171 0.0
O123 O 0.62795 0.49685 0.47924 0.0
H124 H 0.53466 0.45974 0.40987 0.0
H125 H 0.59852 0.55487 0.47562 0.0
N126 N 0.55226 0.50311 0.56902 0.0
N127 N 0.55456 0.51131 0.64542 0.0
C128 C 0.53843 0.48893 0.61006 0.0
C129 C 0.57819 0.53564 0.57925 0.0
C130 C 0.57946 0.54078 0.62569 0.0
C131 C 0.47509 0.44074 0.48564 0.0
O132 O 0.48312 0.47104 0.46766 0.0
H133 H 0.51909 0.46176 0.6142 0.0
H134 H 0.5972 0.55358 0.55519 0.0
O135 O 0.58886 0.46384 0.53218 0.0
H136 H 0.60348 0.56586 0.38703 0.0
H137 H 0.59828 0.56416 0.6436 0.0
Cu138 Cu 0.6684 0.88297 0.32649 0.0
N139 N 0.63606 0.87769 0.27827 0.0
N140 N 0.61609 0.87789 0.20741 0.0
C141 C 0.64583 0.88556 0.23475 0.0
C142 C 0.58648 0.86476 0.23521 0.0
C143 C 0.5989 0.86465 0.27882 0.0
O144 O 0.70958 0.87663 0.30001 0.0
C145 C 0.66658 0.94701 0.34894 0.0
O146 O 0.65056 0.94376 0.3092 0.0
H147 H 0.67432 0.89661 0.22359 0.0
H148 H 0.58202 0.85526 0.30874 0.0
N149 N 0.6435 0.8484 0.36911 0.0
N150 N 0.61829 0.82414 0.43523 0.0
C151 C 0.63616 0.85402 0.4119 0.0
C152 C 0.62968 0.81378 0.36484 0.0
C153 C 0.61415 0.79873 0.40555 0.0
C154 C 0.72551 0.85981 0.31743 0.0
O155 O 0.71872 0.84974 0.35972 0.0
H156 H 0.6436 0.87964 0.42539 0.0
H157 H 0.63118 0.8005 0.33445 0.0
O158 O 0.68052 0.92666 0.3591 0.0
H159 H 0.55774 0.85483 0.22477 0.0
H160 H 0.60148 0.77124 0.4128 0.0
Cu161 Cu 0.18264 0.87513 0.3768 0.0
N162 N 0.14586 0.86439 0.33246 0.0
N163 N 0.12201 0.85285 0.2624 0.0
C164 C 0.15211 0.86049 0.28871 0.0
C165 C 0.09557 0.85193 0.29071 0.0
C166 C 0.11029 0.85877 0.33414 0.0
O167 O 0.22684 0.91373 0.34984 0.0
C168 C 0.15431 0.807 0.40538 0.0
O169 O 0.12562 0.81318 0.41029 0.0
H170 H 0.17864 0.8638 0.27635 0.0
H171 H 0.09586 0.85919 0.36456 0.0
N172 N 0.17114 0.88879 0.4322 0.0
N173 N 0.17104 0.89394 0.50741 0.0
C174 C 0.18682 0.88671 0.47164 0.0
C175 C 0.14461 0.898 0.44343 0.0
C176 C 0.14429 0.90092 0.49006 0.0
C177 C 0.24677 0.94309 0.36892 0.0
O178 O 0.24242 0.94684 0.41224 0.0
H179 H 0.20852 0.87871 0.47415 0.0
H180 H 0.12631 0.90169 0.41971 0.0
O181 O 0.1844 0.83128 0.38972 0.0
H182 H 0.06755 0.84627 0.28083 0.0
H183 H 0.12586 0.90749 0.50967 0.0
Cu184 Cu 0.19207 0.30204 0.36998 0.0
N185 N 0.19128 0.32828 0.32033 0.0
N186 N 0.17534 0.33447 0.24957 0.0
C187 C 0.16369 0.31774 0.28921 0.0
C188 C 0.21141 0.35716 0.25644 0.0
C189 C 0.22114 0.35333 0.30012 0.0
O190 O 0.1623 0.25476 0.34603 0.0
C191 C 0.26194 0.31804 0.41926 0.0
O192 O 0.24229 0.30506 0.45584 0.0
H193 H 0.13681 0.29569 0.29384 0.0
H194 H 0.24889 0.36532 0.31445 0.0
N195 N 0.16985 0.31279 0.41912 0.0
N196 N 0.14446 0.31311 0.48624 0.0
C197 C 0.16011 0.29763 0.46009 0.0
C198 C 0.15997 0.33854 0.41942 0.0
C199 C 0.14438 0.33883 0.46054 0.0
C200 C 0.12732 0.23792 0.35234 0.0
O201 O 0.11264 0.24714 0.38599 0.0
H202 H 0.16461 0.27588 0.47051 0.0
H203 H 0.16369 0.35584 0.39142 0.0
O204 O 0.24529 0.31651 0.38174 0.0
H205 H 0.23012 0.37335 0.23065 0.0
H206 H 0.1333 0.35635 0.47039 0.0
Cu207 Cu 0.12235 0.32007 0.86968 0.0
N208 N 0.09251 0.30432 0.81752 0.0
N209 N 0.08323 0.29957 0.74257 0.0
C210 C 0.1041 0.31954 0.7771 0.0
C211 C 0.05711 0.2706 0.76198 0.0
C212 C 0.06275 0.27368 0.8084 0.0
O213 O 0.16726 0.31496 0.8563 0.0
C214 C 0.09808 0.36882 0.88934 0.0
O215 O 0.06672 0.3412 0.87981 0.0
H216 H 0.12942 0.34348 0.77284 0.0
H217 H 0.04814 0.25386 0.83322 0.0
N218 N 0.10291 0.29434 0.92202 0.0
N219 N 0.10575 0.285 0.99616 0.0
C220 C 0.12504 0.29858 0.95804 0.0
C221 C 0.06798 0.27722 0.93752 0.0
C222 C 0.06966 0.27133 0.98338 0.0
C223 C 0.16106 0.28519 0.84047 0.0
O224 O 0.12655 0.26127 0.83522 0.0
H225 H 0.15486 0.3143 0.95692 0.0
H226 H 0.04323 0.27172 0.91786 0.0
O227 O 0.12841 0.36667 0.88507 0.0
H228 H 0.03659 0.24821 0.74382 0.0
H229 H 0.04619 0.25946 1.00581 0.0
Cu230 Cu 0.61582 0.84746 0.82907 0.0
N231 N 0.59027 0.83578 0.77366 0.0
N232 N 0.58278 0.83147 0.69829 0.0
C233 C 0.60576 0.8483 0.73327 0.0
C234 C 0.55147 0.80741 0.71763 0.0
C235 C 0.55625 0.81003 0.76407 0.0
O236 O 0.66126 0.89055 0.81664 0.0
C237 C 0.62389 0.79835 0.88847 0.0
O238 O 0.62993 0.82165 0.92018 0.0
H239 H 0.63425 0.86794 0.72964 0.0
H240 H 0.53699 0.79319 0.78889 0.0
N241 N 0.58832 0.85581 0.87422 0.0
N242 N 0.5751 0.8677 0.94376 0.0
C243 C 0.60213 0.87169 0.91422 0.0
C244 C 0.55123 0.84227 0.87785 0.0
C245 C 0.543 0.84958 0.92057 0.0
C246 C 0.65933 0.91927 0.81701 0.0
O247 O 0.62852 0.91936 0.83042 0.0
H248 H 0.63151 0.88411 0.92216 0.0
H249 H 0.53144 0.82626 0.85244 0.0
O250 O 0.6214 0.8061 0.84731 0.0
H251 H 0.5272 0.7886 0.69961 0.0
H252 H 0.51541 0.8399 0.93444 0.0
Cu253 Cu 0.18411 0.8084 0.88372 0.0
N254 N 0.19264 0.83842 0.83465 0.0
N255 N 0.19157 0.86051 0.76662 0.0
C256 C 0.17587 0.83239 0.79363 0.0
C257 C 0.21934 0.88498 0.79141 0.0
C258 C 0.21992 0.87129 0.83324 0.0
O259 O 0.1429 0.76279 0.86806 0.0
C260 C 0.24763 0.80798 0.93322 0.0
O261 O 0.22678 0.79694 0.96925 0.0
H262 H 0.15341 0.80769 0.7832 0.0
H263 H 0.23915 0.88425 0.86074 0.0
N264 N 0.16963 0.82661 0.93293 0.0
N265 N 0.15279 0.83433 1.00232 0.0
C266 C 0.1614 0.81388 0.97519 0.0
C267 C 0.16541 0.85572 0.93315 0.0
C268 C 0.15509 0.86058 0.97587 0.0
C269 C 0.11242 0.76293 0.85684 0.0
O270 O 0.11071 0.79253 0.85733 0.0
H271 H 0.16167 0.79011 0.98586 0.0
H272 H 0.17001 0.87254 0.90439 0.0
O273 O 0.23319 0.81071 0.89578 0.0
H274 H 0.23782 0.91096 0.78013 0.0
H275 H 0.15096 0.88242 0.987 0.0
Cu276 Cu 0.35903 0.22048 0.70914 0.0
N277 N 0.37361 0.25148 0.66085 0.0
N278 N 0.37567 0.26477 0.58744 0.0
C279 C 0.37824 0.24299 0.61828 0.0
C280 C 0.36945 0.28809 0.61156 0.0
C281 C 0.36827 0.27987 0.65686 0.0
O282 O 0.36917 0.18214 0.69035 0.0
C283 C 0.28963 0.20093 0.75699 0.0
O284 O 0.30253 0.18869 0.7895 0.0
H285 H 0.37926 0.21912 0.6096 0.0
H286 H 0.36033 0.29158 0.68437 0.0
N287 N 0.38725 0.23964 0.76203 0.0
N288 N 0.39362 0.2451 0.83758 0.0
C289 C 0.37493 0.2474 0.80066 0.0
C290 C 0.41638 0.23455 0.77468 0.0
C291 C 0.42041 0.23792 0.82105 0.0
C292 C 0.34888 0.15617 0.66552 0.0
O293 O 0.31552 0.15133 0.65357 0.0
H294 H 0.35003 0.25056 0.80232 0.0
H295 H 0.43077 0.22488 0.7525 0.0
O296 O 0.30728 0.21061 0.71993 0.0
H297 H 0.3636 0.30809 0.59734 0.0
H298 H 0.43936 0.23223 0.84124 0.0
Cu299 Cu 0.8713 0.18708 0.67455 0.0
N300 N 0.82111 0.154 0.67975 0.0
N301 N 0.77512 0.10407 0.70468 0.0
C302 C 0.80686 0.13263 0.71551 0.0
C303 C 0.76879 0.10748 0.66063 0.0
C304 C 0.79707 0.13829 0.64538 0.0
O305 O 0.89228 0.18111 0.73575 0.0
C306 C 0.87551 0.18893 0.57635 0.0
O307 O 0.85778 0.20735 0.58399 0.0
H308 H 0.82123 0.13611 0.74758 0.0
H309 H 0.80143 0.14684 0.61064 0.0
N310 N 0.8786 0.23354 0.67104 0.0
N311 N 0.90679 0.29056 0.65392 0.0
C312 C 0.91031 0.26094 0.65773 0.0
C313 C 0.85398 0.24618 0.67594 0.0
C314 C 0.87123 0.28122 0.66552 0.0
C315 C 0.89113 0.19817 0.7714 0.0
O316 O 0.88171 0.22321 0.76583 0.0
H317 H 0.93508 0.25867 0.64926 0.0
H318 H 0.82528 0.23085 0.68542 0.0
O319 O 0.88576 0.1772 0.61134 0.0
H320 H 0.74649 0.08815 0.64038 0.0
H321 H 0.85841 0.29835 0.66635 0.0
Cu322 Cu 0.84628 0.62671 0.70754 0.0
N323 N 0.82812 0.64779 0.74912 0.0
N324 N 0.81207 0.66493 0.81292 0.0
C325 C 0.82303 0.64271 0.79405 0.0
C326 C 0.81003 0.68459 0.77883 0.0
C327 C 0.81967 0.67379 0.7395 0.0
O328 O 0.89716 0.63622 0.724 0.0
C329 C 0.77636 0.56534 0.70671 0.0
O330 O 0.76874 0.57981 0.74153 0.0
H331 H 0.8281 0.62382 0.81273 0.0
H332 H 0.8211 0.68466 0.70626 0.0
N333 N 0.85255 0.65057 0.65369 0.0
N334 N 0.84839 0.66104 0.5806 0.0
C335 C 0.83598 0.63718 0.61378 0.0
C336 C 0.87623 0.68401 0.64574 0.0
C337 C 0.87367 0.69061 0.60062 0.0
C338 C 0.91138 0.63516 0.76229 0.0
O339 O 0.88964 0.62034 0.79674 0.0
H340 H 0.81625 0.61018 0.6089 0.0
H341 H 0.8944 0.70211 0.67091 0.0
O342 O 0.80949 0.57902 0.69171 0.0
H343 H 0.80245 0.70546 0.78226 0.0
H344 H 0.88936 0.71521 0.5839 0.0
Cu345 Cu 0.8373 0.69575 0.19053 0.0
N346 N 0.80145 0.67507 0.1453 0.0
N347 N 0.77869 0.65776 0.07578 0.0
C348 C 0.80848 0.67895 0.10077 0.0
C349 C 0.75169 0.63985 0.10564 0.0
C350 C 0.76578 0.65084 0.1487 0.0
O351 O 0.88399 0.69748 0.16821 0.0
C352 C 0.81746 0.75218 0.19633 0.0
O353 O 0.79844 0.73919 0.15884 0.0
H354 H 0.83556 0.69567 0.08706 0.0
H355 H 0.75141 0.64106 0.1802 0.0
N356 N 0.8249 0.66796 0.24164 0.0
N357 N 0.82625 0.655 0.31435 0.0
C358 C 0.83852 0.68023 0.283 0.0
C359 C 0.80318 0.63362 0.24671 0.0
C360 C 0.80379 0.62555 0.29181 0.0
C361 C 0.88216 0.6686 0.15451 0.0
O362 O 0.84985 0.64074 0.15568 0.0
H363 H 0.85704 0.70733 0.28989 0.0
H364 H 0.78844 0.61566 0.21957 0.0
O365 O 0.83831 0.73955 0.21183 0.0
H366 H 0.72409 0.61993 0.09697 0.0
H367 H 0.78958 0.59999 0.30662 0.0
Cu368 Cu 0.34239 0.18324 0.21662 0.0
N369 N 0.31857 0.19304 0.26488 0.0
N370 N 0.31243 0.21236 0.33314 0.0
C371 C 0.33626 0.21161 0.30195 0.0
C372 C 0.27829 0.19372 0.31475 0.0
C373 C 0.28216 0.18165 0.27273 0.0
O374 O 0.3447 0.14003 0.23337 0.0
C375 C 0.38042 0.25174 0.19762 0.0
O376 O 0.34652 0.24675 0.20602 0.0
H377 H 0.36614 0.22384 0.30622 0.0
H378 H 0.25997 0.16478 0.2503 0.0
N379 N 0.31745 0.17624 0.16099 0.0
N380 N 0.31868 0.18334 0.08572 0.0
C381 C 0.33468 0.1765 0.12203 0.0
C382 C 0.28917 0.18289 0.14894 0.0
C383 C 0.28978 0.18714 0.10249 0.0
C384 C 0.35605 0.13645 0.2725 0.0
O385 O 0.37328 0.16422 0.29812 0.0
H386 H 0.36097 0.17562 0.12111 0.0
H387 H 0.27171 0.1878 0.17239 0.0
O388 O 0.38783 0.22623 0.2036 0.0
H389 H 0.25235 0.18786 0.33133 0.0
H390 H 0.27175 0.1945 0.08305 0.0
Cu391 Cu 0.87752 0.14189 0.17283 0.0
N392 N 0.8669 0.16034 0.22794 0.0
N393 N 0.86462 0.175 0.30196 0.0
C394 C 0.87798 0.15947 0.27182 0.0
C395 C 0.84418 0.18555 0.27563 0.0
C396 C 0.84558 0.17663 0.23097 0.0
O397 O 0.92082 0.13582 0.19152 0.0
C398 C 0.80234 0.08378 0.17272 0.0
O399 O 0.79735 0.09653 0.21098 0.0
H400 H 0.89604 0.14829 0.28136 0.0
H401 H 0.8318 0.18164 0.20252 0.0
N402 N 0.88783 0.17061 0.11891 0.0
N403 N 0.89624 0.19057 0.04591 0.0
C404 C 0.89045 0.16342 0.07403 0.0
C405 C 0.89162 0.20309 0.11861 0.0
C406 C 0.89663 0.21517 0.07475 0.0
C407 C 0.95411 0.15961 0.18688 0.0
O408 O 0.96033 0.18609 0.16057 0.0
H409 H 0.88831 0.13885 0.06229 0.0
H410 H 0.89035 0.21706 0.14842 0.0
O411 O 0.83442 0.09782 0.15447 0.0
H412 H 0.829 0.19898 0.28777 0.0
H413 H 0.89967 0.24041 0.06503 0.0
H414 H 0.17014 0.56958 0.35167 0.0
H415 H 0.05059 0.51556 0.35663 0.0
H416 H 0.04664 0.52868 0.27706 0.0
H417 H 0.07696 0.55825 0.20759 0.0
H418 H 0.19661 0.6122 0.20176 0.0
H419 H 0.20072 0.59665 0.28019 0.0
C420 C 0.1433 0.56017 0.33506 0.0
C421 C 0.11068 0.54169 0.36006 0.0
C422 C 0.14123 0.56821 0.28933 0.0
C423 C 0.07605 0.53011 0.33822 0.0
C424 C 0.07379 0.5376 0.29274 0.0
C425 C 0.10399 0.56622 0.22307 0.0
C426 C 0.13639 0.58654 0.19855 0.0
C427 C 0.10617 0.55709 0.26816 0.0
C428 C 0.17114 0.59704 0.21982 0.0
C429 C 0.17355 0.58795 0.26468 0.0
H430 H 0.6145 0.54576 0.31222 0.0
H431 H 0.50493 0.46365 0.33925 0.0
H432 H 0.49102 0.45664 0.25821 0.0
H433 H 0.508 0.47571 0.17962 0.0
H434 H 0.61773 0.55611 0.15002 0.0
H435 H 0.63359 0.56158 0.23133 0.0
C436 C 0.5876 0.52624 0.30042 0.0
C437 C 0.56072 0.50535 0.33264 0.0
C438 C 0.57979 0.52199 0.25298 0.0
C439 C 0.52629 0.47993 0.31599 0.0
C440 C 0.51823 0.47602 0.26936 0.0
C441 C 0.53566 0.49423 0.19072 0.0
C442 C 0.56158 0.51554 0.15816 0.0
C443 C 0.54451 0.49711 0.23756 0.0
C444 C 0.59726 0.53911 0.17372 0.0
C445 C 0.60618 0.54243 0.22049 0.0
H446 H 0.5138 0.97034 0.22026 0.0
H447 H 0.44205 0.01479 0.17976 0.0
H448 H 0.42283 0.01373 0.2581 0.0
H449 H 0.42788 1.00184 0.33857 0.0
H450 H 0.49958 0.95733 0.37873 0.0
H451 H 0.5169 0.95625 0.29994 0.0
C452 C 0.49359 0.97939 0.22835 0.0
C453 C 0.47951 0.99268 0.19394 0.0
C454 C 0.48256 0.97861 0.27348 0.0
C455 C 0.45381 1.00488 0.20547 0.0
C456 C 0.44258 1.00405 0.25029 0.0
C457 C 0.44672 0.99128 0.33001 0.0
C458 C 0.46235 0.97961 0.36457 0.0
C459 C 0.45691 0.99113 0.28463 0.0
C460 C 0.48734 0.96666 0.35285 0.0
C461 C 0.49725 0.96604 0.3078 0.0
H462 H 0.16703 0.63057 0.70862 0.0
H463 H 0.07332 0.52858 0.70952 0.0
H464 H 0.06343 0.53534 0.78963 0.0
H465 H 0.08045 0.57057 0.85866 0.0
H466 H 0.1737 0.67291 0.8588 0.0
H467 H 0.18451 0.66599 0.77883 0.0
C468 C 0.14477 0.60974 0.72659 0.0
C469 C 0.12096 0.57908 0.70328 0.0
C470 C 0.13896 0.61403 0.7726 0.0
C471 C 0.09179 0.55249 0.72671 0.0
C472 C 0.08617 0.55633 0.77248 0.0
C473 C 0.10344 0.59123 0.84145 0.0
C474 C 0.12641 0.62212 0.86487 0.0
C475 C 0.10944 0.58704 0.79566 0.0
C476 C 0.15546 0.64897 0.84155 0.0
C477 C 0.16178 0.64493 0.79589 0.0
H478 H 0.60397 0.54016 0.71618 0.0
H479 H 0.49011 0.46782 0.68556 0.0
H480 H 0.47694 0.45882 0.76639 0.0
H481 H 0.49636 0.4733 0.84602 0.0
H482 H 0.61016 0.54414 0.87872 0.0
H483 H 0.6247 0.5516 0.79748 0.0
C484 C 0.57623 0.52243 0.7271 0.0
C485 C 0.54793 0.50491 0.69401 0.0
C486 C 0.56883 0.51703 0.77433 0.0
C487 C 0.51247 0.48157 0.70953 0.0
C488 C 0.50488 0.47652 0.75603 0.0
C489 C 0.52456 0.4902 0.83564 0.0
C490 C 0.55207 0.50819 0.86917 0.0
C491 C 0.53265 0.49431 0.78877 0.0
C492 C 0.58839 0.5297 0.85432 0.0
C493 C 0.59661 0.53417 0.80759 0.0
H494 H 0.58017 0.02609 0.84421 0.0
H495 H 0.48267 0.93218 0.87965 0.0
H496 H 0.46276 0.92277 0.8007 0.0
H497 H 0.47112 0.94277 0.72189 0.0
H498 H 0.5682 0.03699 0.6865 0.0
H499 H 0.58965 0.045 0.76496 0.0
C500 C 0.55454 1.00362 0.83471 0.0
C501 C 0.53307 0.97998 0.86809 0.0
C502 C 0.54288 0.99855 0.78915 0.0
C503 C 0.50015 0.95065 0.85488 0.0
C504 C 0.48851 0.94535 0.80963 0.0
C505 C 0.49717 0.96483 0.7312 0.0
C506 C 0.51775 0.98938 0.69823 0.0
C507 C 0.50944 0.9693 0.77653 0.0
C508 C 0.55134 0.01802 0.71117 0.0
C509 C 0.5638 0.02253 0.75608 0.0
H510 H 0.55372 0.78323 0.63146 0.0
H511 H 0.6323 0.89017 0.65735 0.0
H512 H 0.65025 0.89741 0.57794 0.0
H513 H 0.64498 0.87304 0.50171 0.0
H514 H 0.56519 0.76649 0.47518 0.0
H515 H 0.5466 0.75952 0.55426 0.0
C516 C 0.57439 0.80827 0.61972 0.0
C517 C 0.59168 0.83606 0.65066 0.0
C518 C 0.58465 0.81229 0.57386 0.0
C519 C 0.61886 0.86816 0.63463 0.0
C520 C 0.62907 0.87238 0.58909 0.0
C521 C 0.62319 0.84837 0.51284 0.0
C522 C 0.60671 0.82033 0.48205 0.0
C523 C 0.61236 0.84455 0.55846 0.0
C524 C 0.57889 0.78845 0.49787 0.0
C525 C 0.56801 0.78446 0.5432 0.0
H526 H 0.23799 0.89579 0.69984 0.0
H527 H 0.12246 0.83224 0.73006 0.0
H528 H 0.10524 0.83866 0.65222 0.0
H529 H 0.12349 0.86204 0.57487 0.0
H530 H 0.23938 0.9222 0.54415 0.0
H531 H 0.25624 0.91799 0.62286 0.0
C532 C 0.20905 0.88358 0.6894 0.0
C533 C 0.18151 0.86374 0.72063 0.0
C534 C 0.19952 0.88696 0.64454 0.0
C535 C 0.14414 0.84745 0.70649 0.0
C536 C 0.1343 0.85128 0.66209 0.0
C537 C 0.15232 0.87445 0.5858 0.0
C538 C 0.18024 0.89268 0.55421 0.0
C539 C 0.16177 0.87097 0.63079 0.0
C540 C 0.21759 0.90812 0.56815 0.0
C541 C 0.22717 0.90567 0.61302 0.0
H542 H 0.1396 0.35641 0.54876 0.0
H543 H 0.11819 0.25023 0.52716 0.0
H544 H 0.09484 0.23582 0.60436 0.0
H545 H 0.08186 0.25394 0.6791 0.0
H546 H 0.10484 0.36044 0.7002 0.0
H547 H 0.12533 0.37406 0.62182 0.0
C548 C 0.12942 0.32999 0.5606 0.0
C549 C 0.13068 0.30447 0.53192 0.0
C550 C 0.11606 0.32192 0.605 0.0
C551 C 0.11802 0.27053 0.54849 0.0
C552 C 0.10439 0.2622 0.5926 0.0
C553 C 0.09079 0.27993 0.66616 0.0
C554 C 0.09168 0.30618 0.6952 0.0
C555 C 0.10338 0.28772 0.62126 0.0
C556 C 0.10401 0.33994 0.67839 0.0
C557 C 0.11578 0.3477 0.63368 0.0
H558 H 0.56192 0.87963 0.15426 0.0
H559 H 0.66969 0.88192 0.14937 0.0
H560 H 0.66781 0.88237 0.06729 0.0
H561 H 0.63373 0.87688 0.99706 0.0
H562 H 0.52544 0.87341 1.00038 0.0
H563 H 0.529 0.87744 0.08289 0.0
C564 C 0.58495 0.88005 0.13538 0.0
C565 C 0.61576 0.88043 0.15855 0.0
C566 C 0.58343 0.87954 0.08774 0.0
C567 C 0.64569 0.88189 0.13304 0.0
C568 C 0.64456 0.88189 0.08582 0.0
C569 C 0.61113 0.87777 1.01539 0.0
C570 C 0.57916 0.87448 0.99204 0.0
C571 C 0.61335 0.88014 0.06283 0.0
C572 C 0.5501 0.8752 1.0172 0.0
C573 C 0.55215 0.8776 0.06449 0.0
H574 H 0.11026 0.85528 0.0507 0.0
H575 H 0.18216 0.80661 0.06255 0.0
H576 H 0.1769 0.80605 0.14476 0.0
H577 H 0.15532 0.82292 0.21349 0.0
H578 H 0.08363 0.87171 0.20262 0.0
H579 H 0.08503 0.86852 0.11986 0.0
C580 C 0.12467 0.84449 0.07134 0.0
C581 C 0.14677 0.83123 0.05049 0.0
C582 C 0.12163 0.84439 0.11873 0.0
C583 C 0.16474 0.81673 0.07762 0.0
C584 C 0.16196 0.81662 0.12469 0.0
C585 C 0.13999 0.8328 0.19294 0.0
C586 C 0.11979 0.84792 0.21403 0.0
C587 C 0.14104 0.83093 0.1456 0.0
C588 C 0.0993 0.85989 0.18712 0.0
C589 C 0.1003 0.85826 0.13985 0.0
H590 H 0.07324 0.28735 0.07563 0.0
H591 H 0.17421 0.29375 1.01901 0.0
H592 H 0.2049 0.31059 0.09248 0.0
H593 H 0.20434 0.32611 0.17208 0.0
H594 H 0.10331 0.31657 0.23128 0.0
H595 H 0.07113 0.29788 0.15786 0.0
C596 C 0.10172 0.29184 0.07946 0.0
C597 C 0.12153 0.28996 0.04131 0.0
C598 C 0.11932 0.3013 0.12225 0.0
C599 C 0.15851 0.29588 0.04728 0.0
C600 C 0.17613 0.30542 0.08941 0.0
C601 C 0.17539 0.32028 0.16871 0.0
C602 C 0.15641 0.3236 0.20656 0.0
C603 C 0.15709 0.30895 0.12685 0.0
C604 C 0.11852 0.31468 0.20229 0.0
C605 C 0.10019 0.30395 0.16041 0.0
H606 H 0.31443 0.22869 0.02531 0.0
H607 H 0.35755 0.15497 0.04426 0.0
H608 H 0.38663 0.16928 0.97011 0.0
H609 H 0.39903 0.20178 0.89952 0.0
H610 H 0.35566 0.27507 0.87874 0.0
H611 H 0.32724 0.26174 0.95376 0.0
C612 C 0.3298 0.21546 1.013 0.0
C613 C 0.33372 0.19069 0.0405 0.0
C614 C 0.34663 0.22392 0.9701 0.0
C615 C 0.35432 0.17429 0.02411 0.0
C616 C 0.37095 0.18245 0.98163 0.0
C617 C 0.38406 0.21545 0.91159 0.0
C618 C 0.37996 0.23979 0.88352 0.0
C619 C 0.36745 0.20732 0.95444 0.0
C620 C 0.35937 0.25634 0.89959 0.0
C621 C 0.34304 0.24864 0.94247 0.0
H622 H 0.92338 0.24267 0.84232 0.0
H623 H 0.8674 0.13325 0.81208 0.0
H624 H 0.86435 0.12032 0.89363 0.0
H625 H 0.87367 0.14085 0.97594 0.0
H626 H 0.93369 0.25132 1.00146 0.0
H627 H 0.93878 0.26248 0.92112 0.0
C628 C 0.91114 0.21585 0.85326 0.0
C629 C 0.89599 0.18911 0.8201 0.0
C630 C 0.90954 0.20863 0.90043 0.0
C631 C 0.88003 0.1546 0.83595 0.0
C632 C 0.8779 0.1472 0.88305 0.0
C633 C 0.8882 0.16734 0.96407 0.0
C634 C 0.90214 0.19516 0.99643 0.0
C635 C 0.89196 0.17404 0.91608 0.0
C636 C 0.92122 0.22915 0.97891 0.0
C637 C 0.92457 0.23574 0.93228 0.0
H638 H 0.80914 0.708 1.01464 0.0
H639 H 0.74687 0.59717 0.02925 0.0
H640 H 0.75155 0.58918 0.94773 0.0
H641 H 0.77632 0.61412 0.87275 0.0
H642 H 0.83615 0.72522 0.85849 0.0
H643 H 0.82973 0.73301 0.9394 0.0
C644 C 0.79648 0.68218 0.99974 0.0
C645 C 0.77795 0.6532 0.02758 0.0
C646 C 0.79912 0.67794 0.9531 0.0
C647 C 0.76108 0.61981 1.00818 0.0
C648 C 0.764 0.61527 0.96175 0.0
C649 C 0.78784 0.63992 0.88762 0.0
C650 C 0.8069 0.66908 0.86013 0.0
C651 C 0.78343 0.64415 0.93399 0.0
C652 C 0.82128 0.7025 0.87921 0.0
C653 C 0.8177 0.70693 0.92537 0.0
H654 H 0.36929 0.21735 0.38581 0.0
H655 H 0.27537 0.23902 0.38287 0.0
H656 H 0.28846 0.26008 0.46116 0.0
H657 H 0.32532 0.27004 0.53176 0.0
H658 H 0.41683 0.24501 0.53529 0.0
H659 H 0.40681 0.22855 0.45512 0.0
C660 C 0.3521 0.22731 0.40196 0.0
C661 C 0.32142 0.22667 0.37841 0.0
C662 C 0.35962 0.23905 0.44707 0.0
C663 C 0.29895 0.23896 0.40033 0.0
C664 C 0.30661 0.25124 0.44501 0.0
C665 C 0.34342 0.26158 0.51465 0.0
C666 C 0.37197 0.25891 0.53921 0.0
C667 C 0.33669 0.25113 0.46889 0.0
C668 C 0.39476 0.24724 0.51695 0.0
C669 C 0.38896 0.23778 0.47123 0.0
H670 H 0.87452 0.13555 0.3709 0.0
H671 H 0.87174 0.23253 0.34526 0.0
H672 H 0.87705 0.24535 0.42567 0.0
H673 H 0.87889 0.2289 0.50414 0.0
H674 H 0.88239 0.13325 0.53497 0.0
H675 H 0.88113 0.12066 0.45316 0.0
C676 C 0.87551 0.15965 0.38284 0.0
C677 C 0.87199 0.18271 0.3508 0.0
C678 C 0.87868 0.16727 0.4307 0.0
C679 C 0.87345 0.21376 0.36805 0.0
C680 C 0.87671 0.22131 0.41451 0.0
C681 C 0.87978 0.2053 0.49337 0.0
C682 C 0.88075 0.18218 0.52674 0.0
C683 C 0.8787 0.19816 0.44626 0.0
C684 C 0.88204 0.15194 0.51093 0.0
C685 C 0.88098 0.14459 0.46374 0.0
H686 H 0.89113 0.69574 0.5106 0.0
H687 H 0.78346 0.61302 0.5439 0.0
H688 H 0.76733 0.60267 0.46355 0.0
H689 H 0.78354 0.61821 0.3836 0.0
H690 H 0.89126 0.7013 0.35145 0.0
H691 H 0.90743 0.71081 0.4316 0.0
C692 C 0.86397 0.67574 0.5004 0.0
C693 C 0.83853 0.65535 0.53329 0.0
C694 C 0.85485 0.67004 0.45428 0.0
C695 C 0.80371 0.62895 0.5193 0.0
C696 C 0.7944 0.62309 0.47335 0.0
C697 C 0.81063 0.63813 0.39423 0.0
C698 C 0.83603 0.65917 0.36167 0.0
C699 C 0.81977 0.64352 0.44052 0.0
C700 C 0.87096 0.68515 0.37588 0.0
C701 C 0.88032 0.69051 0.42169 0.0
H702 H 0.11109 0.50527 0.98708 0.0
H703 H 0.99614 0.46017 0.94478 0.0
H704 H 1.00156 0.41151 0.90987 0.0
H705 H 0.0385 0.38169 0.89105 0.0
H706 H 0.154 0.42657 0.93061 0.0
H707 H 0.14895 0.47555 0.96628 0.0
C708 C 0.08714 0.48462 0.97058 0.0
C709 C 0.05306 0.4863 0.96903 0.0
C710 C 0.09066 0.45685 0.94962 0.0
C711 C 0.02259 0.45959 0.94672 0.0
C712 C 0.0257 0.43174 0.92661 0.0
C713 C 0.06273 0.40219 0.9073 0.0
C714 C 0.09663 0.40028 0.90809 0.0
C715 C 0.05958 0.43015 0.9277 0.0
C716 C 0.12763 0.42734 0.9292 0.0
C717 C 0.12466 0.45528 0.94985 0.0
H718 H 0.60436 0.77 0.97181 0.0
H719 H 0.61938 0.74411 0.83498 0.0
H720 H 0.59761 0.68326 0.85687 0.0
H721 H 0.57092 0.63647 0.9148 0.0
H722 H 0.55218 0.66328 0.04941 0.0
H723 H 0.57872 0.72447 0.02865 0.0
C724 C 0.60338 0.75123 0.94672 0.0
C725 C 0.61382 0.76186 0.90178 0.0
C726 C 0.58978 0.71621 0.95923 0.0
C727 C 0.61168 0.73682 0.86981 0.0
C728 C 0.59911 0.70194 0.88234 0.0
C729 C 0.57303 0.65587 0.93951 0.0
C730 C 0.5595 0.64534 0.98362 0.0
C731 C 0.5876 0.69118 0.92688 0.0
C732 C 0.56203 0.67067 1.01523 0.0
C733 C 0.57731 0.70568 1.00338 0.0
H734 H 0.28903 0.80424 1.00552 0.0
H735 H 0.29963 0.84726 0.87153 0.0
H736 H 0.3664 0.88084 0.88279 0.0
H737 H 0.42066 0.90354 0.93362 0.0
H738 H 0.41197 0.86066 0.06689 0.0
H739 H 0.34592 0.82114 0.05281 0.0
C740 C 0.30601 0.8205 0.97848 0.0
C741 C 0.28893 0.82341 0.93787 0.0
C742 C 0.34482 0.83994 0.98514 0.0
C743 C 0.31165 0.84444 0.90316 0.0
C744 C 0.34999 0.86386 0.90962 0.0
C745 C 0.40448 0.88492 0.95919 0.0
C746 C 0.42108 0.88504 1.00128 0.0
C747 C 0.36668 0.86258 0.95087 0.0
C748 C 0.39991 0.86081 0.03409 0.0
C749 C 0.36204 0.8385 0.02615 0.0
H750 H 0.3861 0.03943 0.58726 0.0
H751 H 0.49735 0.1238 0.58996 0.0
H752 H 0.47382 0.16263 0.621 0.0
H753 H 0.42133 0.17215 0.64875 0.0
H754 H 0.30997 0.08809 0.64099 0.0
H755 H 0.33383 0.04955 0.61085 0.0
C756 C 0.40529 0.06635 0.59456 0.0
C757 C 0.44355 0.0786 0.58658 0.0
C758 C 0.39148 0.08851 0.61179 0.0
C759 C 0.46783 0.11369 0.59565 0.0
C760 C 0.45435 0.13584 0.61362 0.0
C761 C 0.40234 0.14533 0.64069 0.0
C762 C 0.36387 0.13289 0.64771 0.0
C763 C 0.41623 0.12347 0.62217 0.0
C764 C 0.33961 0.09829 0.63615 0.0
C765 C 0.35326 0.07624 0.61887 0.0
H766 H 0.8964 0.34401 0.61881 0.0
H767 H 0.98155 0.31474 0.65661 0.0
H768 H 0.02922 0.3706 0.63117 0.0
H769 H 0.04742 0.42773 0.59827 0.0
H770 H 0.96385 0.45905 0.56123 0.0
H771 H 0.91514 0.40275 0.58677 0.0
C772 C 0.92534 0.34985 0.62189 0.0
C773 C 0.93495 0.32454 0.63952 0.0
C774 C 0.95308 0.38257 0.60732 0.0
C775 C 0.97287 0.33297 0.64261 0.0
C776 C 1.00036 0.3652 0.62827 0.0
C777 C 0.01857 0.42245 0.59564 0.0
C778 C 1.00951 0.44786 0.57757 0.0
C779 C 0.99083 0.39012 0.61044 0.0
C780 C 0.97182 0.44018 0.57486 0.0
C781 C 0.94392 0.4079 0.58949 0.0
H782 H 0.7765 0.54675 0.61791 0.0
H783 H 0.70492 0.52569 0.7334 0.0
H784 H 0.65063 0.49245 0.68555 0.0
H785 H 0.62277 0.47625 0.60945 0.0
H786 H 0.69403 0.50085 0.49321 0.0
H787 H 0.74882 0.52536 0.54261 0.0
C788 C 0.74915 0.53425 0.63285 0.0
C789 C 0.74496 0.53906 0.67929 0.0
C790 C 0.71775 0.51597 0.60477 0.0
C791 C 0.70911 0.52265 0.69781 0.0
C792 C 0.67792 0.50369 0.67039 0.0
C793 C 0.65023 0.486 0.59495 0.0
C794 C 0.65416 0.4866 0.54754 0.0
C795 C 0.68177 0.50113 0.62356 0.0
C796 C 0.69011 0.49998 0.5295 0.0
C797 C 0.72153 0.51419 0.55777 0.0
H798 H 0.88344 0.61106 0.11876 0.0
H799 H 0.9556 0.71809 0.15383 0.0
H800 H 1.00951 0.71086 0.12966 0.0
H801 H 0.03621 0.67378 0.09993 0.0
H802 H 0.96363 0.56686 0.06463 0.0
H803 H 0.90984 0.57451 0.0876 0.0
C804 C 0.91091 0.63295 0.12114 0.0
C805 C 0.91528 0.66516 0.13836 0.0
C806 C 0.94176 0.62856 0.1072 0.0
C807 C 0.95124 0.69308 0.1408 0.0
C808 C 0.98212 0.6889 0.12703 0.0
C809 C 1.00865 0.65206 0.09717 0.0
C810 C 1.00417 0.61964 0.08061 0.0
C811 C 0.97774 0.6567 0.1104 0.0
C812 C 0.96809 0.59202 0.0772 0.0
C813 C 0.93726 0.59641 0.09039 0.0
H814 H 0.37371 0.31057 0.19665 0.0
H815 H 0.44292 0.26675 0.14578 0.0
H816 H 0.47548 0.31798 0.09748 0.0
H817 H 0.47983 0.37319 0.06454 0.0
H818 H 0.40596 0.4124 0.11357 0.0
H819 H 0.37933 0.36486 0.16724 0.0
C820 C 0.3962 0.3122 0.17539 0.0
C821 C 0.40571 0.28469 0.17479 0.0
C822 C 0.41352 0.34079 0.1467 0.0
C823 C 0.43518 0.28761 0.14725 0.0
C824 C 0.4535 0.31676 0.11925 0.0
C825 C 0.45806 0.37124 0.08725 0.0
C826 C 0.44444 0.396 0.08462 0.0
C827 C 0.44223 0.34316 0.11781 0.0
C828 C 0.41631 0.39332 0.11426 0.0
C829 C 0.40126 0.36627 0.14518 0.0
H830 H 0.73169 0.04414 0.20401 0.0
H831 H 0.79868 0.06259 0.08453 0.0
H832 H 0.7436 0.02485 0.04039 0.0
H833 H 0.67557 0.99143 0.03369 0.0
H834 H 0.60829 0.97263 0.15292 0.0
H835 H 0.66417 1.00486 0.199 0.0
C836 C 0.73439 0.03958 0.16844 0.0
C837 C 0.76952 0.05668 0.14771 0.0
C838 C 0.70237 0.01777 0.143 0.0
C839 C 0.77224 0.05002 0.10159 0.0
C840 C 0.74061 0.02845 0.07616 0.0
C841 C 0.67305 0.99389 0.06987 0.0
C842 C 0.63746 0.97998 0.08948 0.0
C843 C 0.70539 0.0129 0.09621 0.0
C844 C 0.63509 0.98319 0.13662 0.0
C845 C 0.66713 1.00185 0.16306 0.0
H846 H 0.6197 1.00018 0.52378 0.0
H847 H 0.57613 0.04432 0.42318 0.0
H848 H 0.60595 0.02699 0.36351 0.0
H849 H 0.6375 0.99265 0.33922 0.0
H850 H 0.68033 0.94797 0.44011 0.0
H851 H 0.6582 0.97257 0.50007 0.0
C852 C 0.61733 1.0067 0.4889 0.0
C853 C 0.59523 0.02323 0.47814 0.0
C854 C 0.6342 0.99624 0.45461 0.0
C855 C 0.59285 0.03166 0.43268 0.0
C856 C 0.60972 0.02149 0.3984 0.0
C857 C 0.64268 0.98882 0.37431 0.0
C858 C 0.66026 0.96802 0.38489 0.0
C859 C 0.62943 1.00276 0.40884 0.0
C860 C 0.66686 0.96368 0.4307 0.0
C861 C 0.654 0.97763 0.46515 0.0
H862 H 0.16454 0.67038 0.46177 0.0
H863 H 0.05008 0.63784 0.49687 0.0
H864 H 0.05557 0.69373 0.4707 0.0
H865 H 0.09313 0.75197 0.43884 0.0
H866 H 0.2076 0.78419 0.40402 0.0
H867 H 0.20171 0.72803 0.42914 0.0
C868 C 0.14063 0.67533 0.4638 0.0
C869 C 0.10685 0.64971 0.48153 0.0
C870 C 0.14405 0.70749 0.44871 0.0
C871 C 0.07635 0.65688 0.48352 0.0
C872 C 0.07953 0.6889 0.46855 0.0
C873 C 0.11689 0.74681 0.43659 0.0
C874 C 0.15091 0.77255 0.41948 0.0
C875 C 0.11328 0.71443 0.45122 0.0
C876 C 0.18118 0.76509 0.41693 0.0
C877 C 0.17779 0.73293 0.43136 0.0
H878 H 0.30854 0.3218 0.49003 0.0
H879 H 0.30882 0.36202 0.35636 0.0
H880 H 0.3747 0.40193 0.3645 0.0
H881 H 0.43131 0.42882 0.41143 0.0
H882 H 0.43332 0.38722 0.54317 0.0
H883 H 0.36784 0.34433 0.53361 0.0
C884 C 0.32309 0.33894 0.4624 0.0
C885 C 0.30329 0.33892 0.42272 0.0
C886 C 0.36149 0.36179 0.46702 0.0
C887 C 0.32296 0.36129 0.3873 0.0
C888 C 0.36077 0.38433 0.39197 0.0
C889 C 0.41754 0.41014 0.43796 0.0
C890 C 0.43711 0.41157 0.47824 0.0
C891 C 0.38013 0.38533 0.43198 0.0
C892 C 0.41899 0.38677 0.51188 0.0
C893 C 0.38147 0.36232 0.50648 0.0
H894 H 0.78513 0.79241 0.16873 0.0
H895 H 0.83027 0.76661 0.28709 0.0
H896 H 0.80792 0.79933 0.33475 0.0
H897 H 0.77064 0.8311 0.34375 0.0
H898 H 0.72716 0.8582 0.22488 0.0
H899 H 0.75393 0.82956 0.17686 0.0
C900 C 0.79059 0.79434 0.20488 0.0
C901 C 0.80925 0.77676 0.22415 0.0
C902 C 0.77764 0.81332 0.23222 0.0
C903 C 0.81618 0.77986 0.27111 0.0
C904 C 0.80314 0.79844 0.29852 0.0
C905 C 0.76742 0.83117 0.30729 0.0
C906 C 0.74654 0.84669 0.2882 0.0
C907 C 0.7831 0.81465 0.27961 0.0
C908 C 0.74302 0.84662 0.24076 0.0
C909 C 0.75821 0.83003 0.21315 0.0
H910 H 0.31208 0.07138 0.23518 0.0
H911 H 0.37297 0.12204 0.35664 0.0
H912 H 0.34703 0.0667 0.39575 0.0
H913 H 0.30255 1.00475 0.39848 0.0
H914 H 0.24227 0.95279 0.27759 0.0
H915 H 0.27267 1.00726 0.23559 0.0
C916 C 0.32018 0.07026 0.26995 0.0
C917 C 0.3443 0.10128 0.29282 0.0
C918 C 0.30499 0.03794 0.29272 0.0
C919 C 0.35439 0.09895 0.33795 0.0
C920 C 0.33944 0.06717 0.36059 0.0
C921 C 0.29642 1.00515 0.36275 0.0
C922 C 0.26985 0.97458 0.34149 0.0
C923 C 0.314 0.03664 0.33876 0.0
C924 C 0.26262 0.97575 0.29499 0.0
C925 C 0.27986 1.00705 0.27095 0.0
H926 H 0.05638 0.18619 0.35832 0.0
H927 H 0.14146 0.24353 0.26139 0.0
H928 H 0.09549 0.22243 0.20014 0.0
H929 H 0.0294 0.19399 0.17579 0.0
H930 H 0.94547 0.13202 0.27158 0.0
H931 H 0.9926 0.14797 0.33114 0.0
C932 C 0.06506 0.19322 0.32363 0.0
C933 C 0.10224 0.21701 0.31475 0.0
C934 C 0.03851 0.18039 0.28827 0.0
C935 C 0.11306 0.22548 0.26945 0.0
C936 C 0.08666 0.21358 0.23429 0.0
C937 C 0.02156 0.1833 0.20944 0.0
C938 C 0.98374 0.16238 0.2193 0.0
C939 C 0.04905 0.19201 0.24353 0.0
C940 C 0.9742 0.14841 0.26298 0.0
C941 C 1.00119 0.15764 0.29723 0.0
H942 H 0.2894 0.24056 0.8282 0.0
H943 H 0.22789 0.18935 0.7077 0.0
H944 H 0.18331 0.21197 0.72237 0.0
H945 H 0.16179 0.24604 0.76978 0.0
H946 H 0.22669 0.3024 0.88579 0.0
H947 H 0.27076 0.27888 0.87207 0.0
C948 C 0.26608 0.23419 0.80535 0.0
C949 C 0.26135 0.21264 0.76741 0.0
C950 C 0.24168 0.24873 0.81286 0.0
C951 C 0.23164 0.20536 0.73744 0.0
C952 C 0.20636 0.21848 0.7457 0.0
C953 C 0.18586 0.25349 0.79175 0.0
C954 C 0.19103 0.27591 0.8288 0.0
C955 C 0.21116 0.24025 0.78322 0.0
C956 C 0.22238 0.28553 0.85683 0.0
C957 C 0.24731 0.27178 0.84921 0.0
H958 H 0.76538 0.03932 0.68773 0.0
H959 H 0.74177 0.10132 0.78378 0.0
H960 H 0.70545 0.0495 0.82934 0.0
H961 H 0.67755 0.98599 0.83914 0.0
H962 H 0.70443 0.9242 0.74586 0.0
H963 H 0.74292 0.97634 0.70228 0.0
C964 C 0.75232 0.04127 0.71877 0.0
C965 C 0.75556 0.07379 0.73227 0.0
C966 C 0.73237 1.01148 0.74527 0.0
C967 C 0.73927 0.07642 0.77285 0.0
C968 C 0.71859 0.04685 0.79877 0.0
C969 C 0.69238 0.98405 0.8097 0.0
C970 C 0.68811 0.95123 0.79575 0.0
C971 C 0.7146 0.01418 0.78503 0.0
C972 C 0.70756 0.94914 0.75762 0.0
C973 C 0.72927 0.97893 0.73243 0.0
H974 H 0.07528 0.75514 0.77868 0.0
H975 H 0.07465 0.70094 0.90085 0.0
H976 H 1.01246 0.65459 0.88128 0.0
H977 H 0.95542 0.63317 0.83284 0.0
H978 H 0.95919 0.68704 0.70862 0.0
H979 H 0.02289 0.72939 0.72523 0.0
C980 C 0.06181 0.73272 0.80046 0.0
C981 C 0.0793 0.73139 0.84115 0.0
C982 C 0.02639 0.70626 0.78879 0.0
C983 C 0.06176 0.70232 0.86917 0.0
C984 C 0.02608 0.67602 0.85812 0.0
C985 C 0.97041 0.65383 0.80907 0.0
C986 C 0.95211 0.65697 0.76973 0.0
C987 C 1.00763 0.67821 0.81857 0.0
C988 C 0.97224 0.6838 0.73914 0.0
C989 C 1.00878 0.70826 0.74869 0.0
loop_
_geom_bond_atom_site_label_1
_geom_bond_atom_site_label_2
_geom_bond_distance
_geom_bond_site_symmetry_2
_ccdc_geom_bond_type
Cu0 N1 1.999 1_554 S
Cu0 O6 1.974 1_554 S
Cu0 N11 1.985 . S
Cu0 O20 1.959 . S
N1 Cu0 1.999 1_556 S
N1 C3 1.263 . S
N1 C5 1.389 . S
N2 C3 1.358 . S
N2 C4 1.400 . S
C3 N1 1.263 . S
C3 N2 1.358 . S
C3 H9 0.930 . S
C4 N2 1.400 . S
C4 C5 1.351 . S
C4 H21 0.930 . S
C5 N1 1.389 . S
C5 C4 1.351 . S
C5 H10 0.930 . S
O6 Cu0 1.974 1_556 S
O6 C16 1.282 . S
C7 O8 1.261 . S
C7 O20 1.251 1_655 S
O8 C7 1.261 . S
H9 C3 0.930 . S
H10 C5 0.930 . S
N11 Cu0 1.985 . S
N11 C13 1.335 . S
N11 C14 1.390 . S
N12 C13 1.345 . S
N12 C15 1.336 . S
C13 N11 1.335 . S
C13 N12 1.345 . S
C13 H18 0.930 . S
C14 N11 1.390 . S
C14 C15 1.346 . S
C14 H19 0.930 . S
C15 N12 1.336 . S
C15 C14 1.346 . S
C15 H22 0.929 . S
C16 O6 1.282 . S
C16 O17 1.216 . S
O17 C16 1.216 . S
H18 C13 0.930 . S
H19 C14 0.930 . S
O20 Cu0 1.959 . S
O20 C7 1.251 1_455 S
H21 C4 0.930 . S
H22 C15 0.929 . S
Cu23 N24 1.999 . S
Cu23 O29 1.974 . S
Cu23 N34 1.985 . S
Cu23 O43 1.959 1_554 S
N24 Cu23 1.999 . S
N24 C26 1.263 . S
N24 C28 1.389 1_554 S
N25 C26 1.358 . S
N25 C27 1.400 . S
C26 N24 1.263 . S
C26 N25 1.358 . S
C26 H32 0.930 . S
C27 N25 1.400 . S
C27 C28 1.351 1_554 S
C27 H44 0.930 1_554 S
C28 N24 1.389 1_556 S
C28 C27 1.351 1_556 S
C28 H33 0.930 . S
O29 Cu23 1.974 . S
O29 C39 1.282 . S
C30 O31 1.261 . S
C30 O43 1.251 . S
O31 C30 1.261 . S
H32 C26 0.930 . S
H33 C28 0.930 . S
N34 Cu23 1.985 . S
N34 C36 1.335 1_554 S
N34 C37 1.390 . S
N35 C36 1.345 . S
N35 C38 1.336 1_556 S
C36 N34 1.335 1_556 S
C36 N35 1.345 . S
C36 H41 0.930 . S
C37 N34 1.390 . S
C37 C38 1.346 . S
C37 H42 0.930 . S
C38 N35 1.336 1_554 S
C38 C37 1.346 . S
C38 H45 0.929 . S
C39 O29 1.282 . S
C39 O40 1.216 . S
O40 C39 1.216 . S
H41 C36 0.930 . S
H42 C37 0.930 . S
O43 Cu23 1.959 1_556 S
O43 C30 1.251 . S
H44 C27 0.930 1_556 S
H45 C38 0.929 . S
Cu46 N47 2.000 1_564 S
Cu46 O52 1.975 1_554 S
Cu46 N57 1.981 . S
Cu46 O66 1.957 1_565 S
N47 Cu46 2.000 1_546 S
N47 C49 1.263 . S
N47 C51 1.389 . S
N48 C49 1.358 . S
N48 C50 1.400 . S
C49 N47 1.263 . S
C49 N48 1.358 . S
C49 H55 0.930 . S
C50 N48 1.400 . S
C50 C51 1.351 . S
C50 H67 0.930 . S
C51 N47 1.389 . S
C51 C50 1.351 . S
C51 H56 0.930 . S
O52 Cu46 1.975 1_556 S
O52 C62 1.282 . S
C53 O54 1.261 . S
C53 O66 1.251 . S
O54 C53 1.261 . S
H55 C49 0.930 . S
H56 C51 0.930 . S
N57 Cu46 1.981 . S
N57 C59 1.335 1_565 S
N57 C60 1.390 . S
N58 C59 1.344 . S
N58 C61 1.337 1_545 S
C59 N57 1.335 1_545 S
C59 N58 1.344 . S
C59 H64 0.930 . S
C60 N57 1.390 . S
C60 C61 1.346 . S
C60 H65 0.930 . S
C61 N58 1.337 1_565 S
C61 C60 1.346 . S
C61 H68 0.929 . S
C62 O52 1.282 . S
C62 O63 1.216 1_565 S
O63 C62 1.216 1_545 S
H64 C59 0.930 . S
H65 C60 0.930 . S
O66 Cu46 1.957 1_545 S
O66 C53 1.251 . S
H67 C50 0.930 . S
H68 C61 0.929 . S
Cu69 N70 1.999 . S
Cu69 O75 1.981 . S
Cu69 N80 1.985 . S
Cu69 O89 1.959 . S
N70 Cu69 1.999 . S
N70 C72 1.263 . S
N70 C74 1.389 . S
N71 C72 1.358 . S
N71 C73 1.400 . S
C72 N70 1.263 . S
C72 N71 1.358 . S
C72 H78 0.930 1_545 S
C73 N71 1.400 . S
C73 C74 1.351 . S
C73 H90 0.930 . S
C74 N70 1.389 . S
C74 C73 1.351 . S
C74 H79 0.930 . S
O75 Cu69 1.981 . S
O75 C85 1.274 1_545 S
C76 O77 1.261 . S
C76 O89 1.251 . S
O77 C76 1.261 . S
H78 C72 0.930 1_565 S
H79 C74 0.930 . S
N80 Cu69 1.985 . S
N80 C82 1.335 . S
N80 C83 1.390 1_545 S
N81 C82 1.345 . S
N81 C84 1.336 1_545 S
C82 N80 1.335 . S
C82 N81 1.345 . S
C82 H87 0.930 . S
C83 N80 1.390 1_565 S
C83 C84 1.346 . S
C83 H88 0.930 . S
C84 N81 1.336 1_565 S
C84 C83 1.346 . S
C84 H91 0.929 . S
C85 O75 1.274 1_565 S
C85 O86 1.216 . S
O86 C85 1.216 . S
H87 C82 0.930 . S
H88 C83 0.930 . S
O89 Cu69 1.959 . S
O89 C76 1.251 . S
H90 C73 0.930 . S
H91 C84 0.929 . S
Cu92 N93 1.998 . S
Cu92 O98 1.974 . S
Cu92 N103 1.985 . S
Cu92 O112 1.959 1_655 S
N93 Cu92 1.998 . S
N93 C95 1.256 1_655 S
N93 C97 1.398 . S
N94 C95 1.358 . S
N94 C96 1.391 1_455 S
C95 N93 1.256 1_455 S
C95 N94 1.358 . S
C95 H101 0.930 . S
C96 N94 1.391 1_655 S
C96 C97 1.352 . S
C96 H113 0.938 . S
C97 N93 1.398 . S
C97 C96 1.352 . S
C97 H102 0.930 . S
O98 Cu92 1.974 . S
O98 C108 1.282 . S
C99 O100 1.261 . S
C99 O112 1.251 . S
O100 C99 1.261 . S
H101 C95 0.930 . S
H102 C97 0.930 . S
N103 Cu92 1.985 . S
N103 C105 1.335 . S
N103 C106 1.390 . S
N104 C105 1.345 . S
N104 C107 1.336 . S
C105 N103 1.335 . S
C105 N104 1.345 . S
C105 H110 0.930 . S
C106 N103 1.390 . S
C106 C107 1.346 . S
C106 H111 0.930 . S
C107 N104 1.336 . S
C107 C106 1.346 . S
C107 H114 0.929 . S
C108 O98 1.282 . S
C108 O109 1.216 1_655 S
O109 C108 1.216 1_455 S
H110 C105 0.930 . S
H111 C106 0.930 . S
O112 Cu92 1.959 1_455 S
O112 C99 1.251 . S
H113 C96 0.938 . S
H114 C107 0.929 . S
Cu115 N116 1.999 . S
Cu115 O121 1.974 . S
Cu115 N126 1.985 . S
Cu115 O135 1.959 . S
N116 Cu115 1.999 . S
N116 C118 1.263 . S
N116 C120 1.389 . S
N117 C118 1.358 . S
N117 C119 1.400 . S
C118 N116 1.263 . S
C118 N117 1.358 . S
C118 H124 0.930 . S
C119 N117 1.400 . S
C119 C120 1.351 . S
C119 H136 0.930 . S
C120 N116 1.389 . S
C120 C119 1.351 . S
C120 H125 0.930 . S
O121 Cu115 1.974 . S
O121 C131 1.282 . S
C122 O123 1.261 . S
C122 O135 1.251 . S
O123 C122 1.261 . S
H124 C118 0.930 . S
H125 C120 0.930 . S
N126 Cu115 1.985 . S
N126 C128 1.335 . S
N126 C129 1.390 . S
N127 C128 1.345 . S
N127 C130 1.336 . S
C128 N126 1.335 . S
C128 N127 1.345 . S
C128 H133 0.930 . S
C129 N126 1.390 . S
C129 C130 1.346 . S
C129 H134 0.930 . S
C130 N127 1.336 . S
C130 C129 1.346 . S
C130 H137 0.929 . S
C131 O121 1.282 . S
C131 O132 1.216 . S
O132 C131 1.216 . S
H133 C128 0.930 . S
H134 C129 0.930 . S
O135 Cu115 1.959 . S
O135 C122 1.251 . S
H136 C119 0.930 . S
H137 C130 0.929 . S
Cu138 N139 1.999 . S
Cu138 O144 1.974 . S
Cu138 N149 1.985 . S
Cu138 O158 1.959 . S
N139 Cu138 1.999 . S
N139 C141 1.263 . S
N139 C143 1.389 . S
N140 C141 1.358 . S
N140 C142 1.400 . S
C141 N139 1.263 . S
C141 N140 1.358 . S
C141 H147 0.930 . S
C142 N140 1.400 . S
C142 C143 1.351 . S
C142 H159 0.930 . S
C143 N139 1.389 . S
C143 C142 1.351 . S
C143 H148 0.930 . S
O144 Cu138 1.974 . S
O144 C154 1.282 . S
C145 O146 1.261 . S
C145 O158 1.251 . S
O146 C145 1.261 . S
H147 C141 0.930 . S
H148 C143 0.930 . S
N149 Cu138 1.985 . S
N149 C151 1.335 . S
N149 C152 1.390 . S
N150 C151 1.345 . S
N150 C153 1.336 . S
C151 N149 1.335 . S
C151 N150 1.345 . S
C151 H156 0.930 . S
C152 N149 1.390 . S
C152 C153 1.346 . S
C152 H157 0.930 . S
C153 N150 1.336 . S
C153 C152 1.346 . S
C153 H160 0.929 . S
C154 O144 1.282 . S
C154 O155 1.216 . S
O155 C154 1.216 . S
H156 C151 0.930 . S
H157 C152 0.930 . S
O158 Cu138 1.959 . S
O158 C145 1.251 . S
H159 C142 0.930 . S
H160 C153 0.929 . S
Cu161 N162 1.999 . S
Cu161 O167 1.974 . S
Cu161 N172 1.985 . S
Cu161 O181 1.959 . S
N162 Cu161 1.999 . S
N162 C164 1.263 . S
N162 C166 1.389 . S
N163 C164 1.358 . S
N163 C165 1.400 . S
C164 N162 1.263 . S
C164 N163 1.358 . S
C164 H170 0.930 . S
C165 N163 1.400 . S
C165 C166 1.351 . S
C165 H182 0.930 . S
C166 N162 1.389 . S
C166 C165 1.351 . S
C166 H171 0.930 . S
O167 Cu161 1.974 . S
O167 C177 1.282 . S
C168 O169 1.261 . S
C168 O181 1.251 . S
O169 C168 1.261 . S
H170 C164 0.930 . S
H171 C166 0.930 . S
N172 Cu161 1.985 . S
N172 C174 1.335 . S
N172 C175 1.390 . S
N173 C174 1.345 . S
N173 C176 1.336 . S
C174 N172 1.335 . S
C174 N173 1.345 . S
C174 H179 0.930 . S
C175 N172 1.390 . S
C175 C176 1.346 . S
C175 H180 0.930 . S
C176 N173 1.336 . S
C176 C175 1.346 . S
C176 H183 0.929 . S
C177 O167 1.282 . S
C177 O178 1.216 . S
O178 C177 1.216 . S
H179 C174 0.930 . S
H180 C175 0.930 . S
O181 Cu161 1.959 . S
O181 C168 1.251 . S
H182 C165 0.930 . S
H183 C176 0.929 . S
Cu184 N185 1.999 . S
Cu184 O190 1.974 . S
Cu184 N195 1.985 . S
Cu184 O204 1.959 . S
N185 Cu184 1.999 . S
N185 C187 1.263 . S
N185 C189 1.389 . S
N186 C187 1.358 . S
N186 C188 1.400 . S
C187 N185 1.263 . S
C187 N186 1.358 . S
C187 H193 0.930 . S
C188 N186 1.400 . S
C188 C189 1.351 . S
C188 H205 0.930 . S
C189 N185 1.389 . S
C189 C188 1.351 . S
C189 H194 0.930 . S
O190 Cu184 1.974 . S
O190 C200 1.282 . S
C191 O192 1.261 . S
C191 O204 1.251 . S
O192 C191 1.261 . S
H193 C187 0.930 . S
H194 C189 0.930 . S
N195 Cu184 1.985 . S
N195 C197 1.335 . S
N195 C198 1.390 . S
N196 C197 1.345 . S
N196 C199 1.336 . S
C197 N195 1.335 . S
C197 N196 1.345 . S
C197 H202 0.930 . S
C198 N195 1.390 . S
C198 C199 1.346 . S
C198 H203 0.930 . S
C199 N196 1.336 . S
C199 C198 1.346 . S
C199 H206 0.929 . S
C200 O190 1.282 . S
C200 O201 1.216 . S
O201 C200 1.216 . S
H202 C197 0.930 . S
H203 C198 0.930 . S
O204 Cu184 1.959 . S
O204 C191 1.251 . S
H205 C188 0.930 . S
H206 C199 0.929 . S
Cu207 N208 1.999 . S
Cu207 O213 1.974 . S
Cu207 N218 1.985 . S
Cu207 O227 1.959 . S
N208 Cu207 1.999 . S
N208 C210 1.263 . S
N208 C212 1.389 . S
N209 C210 1.358 . S
N209 C211 1.400 . S
C210 N208 1.263 . S
C210 N209 1.358 . S
C210 H216 0.930 . S
C211 N209 1.400 . S
C211 C212 1.351 . S
C211 H228 0.930 . S
C212 N208 1.389 . S
C212 C211 1.351 . S
C212 H217 0.930 . S
O213 Cu207 1.974 . S
O213 C223 1.282 . S
C214 O215 1.261 . S
C214 O227 1.251 . S
O215 C214 1.261 . S
H216 C210 0.930 . S
H217 C212 0.930 . S
N218 Cu207 1.985 . S
N218 C220 1.335 . S
N218 C221 1.390 . S
N219 C220 1.345 . S
N219 C222 1.336 . S
C220 N218 1.335 . S
C220 N219 1.345 . S
C220 H225 0.930 . S
C221 N218 1.390 . S
C221 C222 1.346 . S
C221 H226 0.930 . S
C222 N219 1.336 . S
C222 C221 1.346 . S
C222 H229 0.929 . S
C223 O213 1.282 . S
C223 O224 1.216 . S
O224 C223 1.216 . S
H225 C220 0.930 . S
H226 C221 0.930 . S
O227 Cu207 1.959 . S
O227 C214 1.251 . S
H228 C211 0.930 . S
H229 C222 0.929 . S
Cu230 N231 1.999 . S
Cu230 O236 1.974 . S
Cu230 N241 1.985 . S
Cu230 O250 1.959 . S
N231 Cu230 1.999 . S
N231 C233 1.263 . S
N231 C235 1.389 . S
N232 C233 1.358 . S
N232 C234 1.400 . S
C233 N231 1.263 . S
C233 N232 1.358 . S
C233 H239 0.930 . S
C234 N232 1.400 . S
C234 C235 1.351 . S
C234 H251 0.930 . S
C235 N231 1.389 . S
C235 C234 1.351 . S
C235 H240 0.930 . S
O236 Cu230 1.974 . S
O236 C246 1.282 . S
C237 O238 1.261 . S
C237 O250 1.251 . S
O238 C237 1.261 . S
H239 C233 0.930 . S
H240 C235 0.930 . S
N241 Cu230 1.985 . S
N241 C243 1.335 . S
N241 C244 1.390 . S
N242 C243 1.345 . S
N242 C245 1.336 . S
C243 N241 1.335 . S
C243 N242 1.345 . S
C243 H248 0.930 . S
C244 N241 1.390 . S
C244 C245 1.346 . S
C244 H249 0.930 . S
C245 N242 1.336 . S
C245 C244 1.346 . S
C245 H252 0.929 . S
C246 O236 1.282 . S
C246 O247 1.216 . S
O247 C246 1.216 . S
H248 C243 0.930 . S
H249 C244 0.930 . S
O250 Cu230 1.959 . S
O250 C237 1.251 . S
H251 C234 0.930 . S
H252 C245 0.929 . S
Cu253 N254 1.999 . S
Cu253 O259 1.974 . S
Cu253 N264 1.985 . S
Cu253 O273 1.959 . S
N254 Cu253 1.999 . S
N254 C256 1.263 . S
N254 C258 1.389 . S
N255 C256 1.358 . S
N255 C257 1.400 . S
C256 N254 1.263 . S
C256 N255 1.358 . S
C256 H262 0.930 . S
C257 N255 1.400 . S
C257 C258 1.351 . S
C257 H274 0.930 . S
C258 N254 1.389 . S
C258 C257 1.351 . S
C258 H263 0.930 . S
O259 Cu253 1.974 . S
O259 C269 1.282 . S
C260 O261 1.261 . S
C260 O273 1.251 . S
O261 C260 1.261 . S
H262 C256 0.930 . S
H263 C258 0.930 . S
N264 Cu253 1.985 . S
N264 C266 1.335 . S
N264 C267 1.390 . S
N265 C266 1.345 . S
N265 C268 1.336 . S
C266 N264 1.335 . S
C266 N265 1.345 . S
C266 H271 0.930 . S
C267 N264 1.390 . S
C267 C268 1.346 . S
C267 H272 0.930 . S
C268 N265 1.336 . S
C268 C267 1.346 . S
C268 H275 0.929 . S
C269 O259 1.282 . S
C269 O270 1.216 . S
O270 C269 1.216 . S
H271 C266 0.930 . S
H272 C267 0.930 . S
O273 Cu253 1.959 . S
O273 C260 1.251 . S
H274 C257 0.930 . S
H275 C268 0.929 . S
Cu276 N277 1.999 . S
Cu276 O282 1.974 . S
Cu276 N287 1.985 . S
Cu276 O296 1.959 . S
N277 Cu276 1.999 . S
N277 C279 1.263 . S
N277 C281 1.389 . S
N278 C279 1.358 . S
N278 C280 1.400 . S
C279 N277 1.263 . S
C279 N278 1.358 . S
C279 H285 0.930 . S
C280 N278 1.400 . S
C280 C281 1.351 . S
C280 H297 0.930 . S
C281 N277 1.389 . S
C281 C280 1.351 . S
C281 H286 0.930 . S
O282 Cu276 1.974 . S
O282 C292 1.282 . S
C283 O284 1.261 . S
C283 O296 1.251 . S
O284 C283 1.261 . S
H285 C279 0.930 . S
H286 C281 0.930 . S
N287 Cu276 1.985 . S
N287 C289 1.335 . S
N287 C290 1.390 . S
N288 C289 1.345 . S
N288 C291 1.336 . S
C289 N287 1.335 . S
C289 N288 1.345 . S
C289 H294 0.930 . S
C290 N287 1.390 . S
C290 C291 1.346 . S
C290 H295 0.930 . S
C291 N288 1.336 . S
C291 C290 1.346 . S
C291 H298 0.929 . S
C292 O282 1.282 . S
C292 O293 1.216 . S
O293 C292 1.216 . S
H294 C289 0.930 . S
H295 C290 0.930 . S
O296 Cu276 1.959 . S
O296 C283 1.251 . S
H297 C280 0.930 . S
H298 C291 0.929 . S
Cu299 N300 1.999 . S
Cu299 O305 1.974 . S
Cu299 N310 1.985 . S
Cu299 O319 1.959 . S
N300 Cu299 1.999 . S
N300 C302 1.263 . S
N300 C304 1.389 . S
N301 C302 1.358 . S
N301 C303 1.400 . S
C302 N300 1.263 . S
C302 N301 1.358 . S
C302 H308 0.930 . S
C303 N301 1.400 . S
C303 C304 1.351 . S
C303 H320 0.930 . S
C304 N300 1.389 . S
C304 C303 1.351 . S
C304 H309 0.930 . S
O305 Cu299 1.974 . S
O305 C315 1.282 . S
C306 O307 1.261 . S
C306 O319 1.251 . S
O307 C306 1.261 . S
H308 C302 0.930 . S
H309 C304 0.930 . S
N310 Cu299 1.985 . S
N310 C312 1.335 . S
N310 C313 1.390 . S
N311 C312 1.345 . S
N311 C314 1.336 . S
C312 N310 1.335 . S
C312 N311 1.345 . S
C312 H317 0.930 . S
C313 N310 1.390 . S
C313 C314 1.346 . S
C313 H318 0.930 . S
C314 N311 1.336 . S
C314 C313 1.346 . S
C314 H321 0.929 . S
C315 O305 1.282 . S
C315 O316 1.216 . S
O316 C315 1.216 . S
H317 C312 0.930 . S
H318 C313 0.930 . S
O319 Cu299 1.959 . S
O319 C306 1.251 . S
H320 C303 0.930 . S
H321 C314 0.929 . S
Cu322 N323 1.999 . S
Cu322 O328 1.974 . S
Cu322 N333 1.985 . S
Cu322 O342 1.959 . S
N323 Cu322 1.999 . S
N323 C325 1.263 . S
N323 C327 1.389 . S
N324 C325 1.358 . S
N324 C326 1.400 . S
C325 N323 1.263 . S
C325 N324 1.358 . S
C325 H331 0.930 . S
C326 N324 1.400 . S
C326 C327 1.351 . S
C326 H343 0.930 . S
C327 N323 1.389 . S
C327 C326 1.351 . S
C327 H332 0.930 . S
O328 Cu322 1.974 . S
O328 C338 1.282 . S
C329 O330 1.261 . S
C329 O342 1.251 . S
O330 C329 1.261 . S
H331 C325 0.930 . S
H332 C327 0.930 . S
N333 Cu322 1.985 . S
N333 C335 1.335 . S
N333 C336 1.390 . S
N334 C335 1.345 . S
N334 C337 1.336 . S
C335 N333 1.335 . S
C335 N334 1.345 . S
C335 H340 0.930 . S
C336 N333 1.390 . S
C336 C337 1.346 . S
C336 H341 0.930 . S
C337 N334 1.336 . S
C337 C336 1.346 . S
C337 H344 0.929 . S
C338 O328 1.282 . S
C338 O339 1.216 . S
O339 C338 1.216 . S
H340 C335 0.930 . S
H341 C336 0.930 . S
O342 Cu322 1.959 . S
O342 C329 1.251 . S
H343 C326 0.930 . S
H344 C337 0.929 . S
Cu345 N346 1.999 . S
Cu345 O351 1.974 . S
Cu345 N356 1.985 . S
Cu345 O365 1.959 . S
N346 Cu345 1.999 . S
N346 C348 1.263 . S
N346 C350 1.389 . S
N347 C348 1.358 . S
N347 C349 1.400 . S
C348 N346 1.263 . S
C348 N347 1.358 . S
C348 H354 0.930 . S
C349 N347 1.400 . S
C349 C350 1.351 . S
C349 H366 0.930 . S
C350 N346 1.389 . S
C350 C349 1.351 . S
C350 H355 0.930 . S
O351 Cu345 1.974 . S
O351 C361 1.282 . S
C352 O353 1.261 . S
C352 O365 1.251 . S
O353 C352 1.261 . S
H354 C348 0.930 . S
H355 C350 0.930 . S
N356 Cu345 1.985 . S
N356 C358 1.335 . S
N356 C359 1.390 . S
N357 C358 1.345 . S
N357 C360 1.336 . S
C358 N356 1.335 . S
C358 N357 1.345 . S
C358 H363 0.930 . S
C359 N356 1.390 . S
C359 C360 1.346 . S
C359 H364 0.930 . S
C360 N357 1.336 . S
C360 C359 1.346 . S
C360 H367 0.929 . S
C361 O351 1.282 . S
C361 O362 1.216 . S
O362 C361 1.216 . S
H363 C358 0.930 . S
H364 C359 0.930 . S
O365 Cu345 1.959 . S
O365 C352 1.251 . S
H366 C349 0.930 . S
H367 C360 0.929 . S
Cu368 N369 1.999 . S
Cu368 O374 1.974 . S
Cu368 N379 1.985 . S
Cu368 O388 1.959 . S
N369 Cu368 1.999 . S
N369 C371 1.263 . S
N369 C373 1.389 . S
N370 C371 1.358 . S
N370 C372 1.400 . S
C371 N369 1.263 . S
C371 N370 1.358 . S
C371 H377 0.930 . S
C372 N370 1.400 . S
C372 C373 1.351 . S
C372 H389 0.930 . S
C373 N369 1.389 . S
C373 C372 1.351 . S
C373 H378 0.930 . S
O374 Cu368 1.974 . S
O374 C384 1.282 . S
C375 O376 1.261 . S
C375 O388 1.251 . S
O376 C375 1.261 . S
H377 C371 0.930 . S
H378 C373 0.930 . S
N379 Cu368 1.985 . S
N379 C381 1.335 . S
N379 C382 1.390 . S
N380 C381 1.345 . S
N380 C383 1.336 . S
C381 N379 1.335 . S
C381 N380 1.345 . S
C381 H386 0.930 . S
C382 N379 1.390 . S
C382 C383 1.346 . S
C382 H387 0.930 . S
C383 N380 1.336 . S
C383 C382 1.346 . S
C383 H390 0.929 . S
C384 O374 1.282 . S
C384 O385 1.216 . S
O385 C384 1.216 . S
H386 C381 0.930 . S
H387 C382 0.930 . S
O388 Cu368 1.959 . S
O388 C375 1.251 . S
H389 C372 0.930 . S
H390 C383 0.929 . S
Cu391 N392 1.999 . S
Cu391 O397 1.974 . S
Cu391 N402 1.985 . S
Cu391 O411 1.959 . S
N392 Cu391 1.999 . S
N392 C394 1.263 . S
N392 C396 1.389 . S
N393 C394 1.358 . S
N393 C395 1.400 . S
C394 N392 1.263 . S
C394 N393 1.358 . S
C394 H400 0.930 . S
C395 N393 1.400 . S
C395 C396 1.351 . S
C395 H412 0.930 . S
C396 N392 1.389 . S
C396 C395 1.351 . S
C396 H401 0.930 . S
O397 Cu391 1.974 . S
O397 C407 1.282 . S
C398 O399 1.261 . S
C398 O411 1.251 . S
O399 C398 1.261 . S
H400 C394 0.930 . S
H401 C396 0.930 . S
N402 Cu391 1.985 . S
N402 C404 1.335 . S
N402 C405 1.390 . S
N403 C404 1.345 . S
N403 C406 1.336 . S
C404 N402 1.335 . S
C404 N403 1.345 . S
C404 H409 0.930 . S
C405 N402 1.390 . S
C405 C406 1.346 . S
C405 H410 0.930 . S
C406 N403 1.336 . S
C406 C405 1.346 . S
C406 H413 0.929 . S
C407 O397 1.282 . S
C407 O408 1.216 . S
O408 C407 1.216 . S
H409 C404 0.930 . S
H410 C405 0.930 . S
O411 Cu391 1.959 . S
O411 C398 1.251 . S
H412 C395 0.930 . S
H413 C406 0.929 . S
H414 C420 0.930 . S
H415 C423 0.930 . S
H416 C424 0.930 . S
H417 C425 0.930 . S
H418 C428 0.929 . S
H419 C429 0.930 . S
C420 H414 0.930 . S
C420 C421 1.355 1_655 S
C420 C422 1.415 1_655 S
C421 C420 1.355 1_455 S
C421 C423 1.419 . S
C422 C420 1.415 1_455 S
C422 C427 1.425 . S
C422 C429 1.409 1_455 S
C423 H415 0.930 . S
C423 C421 1.419 . S
C423 C424 1.362 . S
C424 H416 0.930 . S
C424 C423 1.362 . S
C424 C427 1.409 . S
C425 H417 0.930 . S
C425 C426 1.355 . S
C425 C427 1.415 . S
C426 C425 1.355 . S
C426 C428 1.419 . S
C427 C422 1.425 . S
C427 C424 1.409 . S
C427 C425 1.415 . S
C428 H418 0.929 . S
C428 C426 1.419 . S
C428 C429 1.362 1_455 S
C429 H419 0.930 . S
C429 C422 1.409 1_655 S
C429 C428 1.362 1_655 S
H430 C436 0.930 . S
H431 C439 0.930 . S
H432 C440 0.930 . S
H433 C441 0.930 . S
H434 C444 0.930 . S
H435 C445 0.930 . S
C436 H430 0.930 . S
C436 C437 1.355 . S
C436 C438 1.415 . S
C437 C436 1.355 . S
C437 C439 1.419 . S
C438 C436 1.415 . S
C438 C443 1.425 . S
C438 C445 1.409 . S
C439 H431 0.930 . S
C439 C437 1.419 . S
C439 C440 1.362 . S
C440 H432 0.930 . S
C440 C439 1.362 . S
C440 C443 1.409 . S
C441 H433 0.930 . S
C441 C442 1.355 . S
C441 C443 1.415 . S
C442 C441 1.355 . S
C442 C444 1.419 . S
C443 C438 1.425 . S
C443 C440 1.409 . S
C443 C441 1.415 . S
C444 H434 0.930 . S
C444 C442 1.419 . S
C444 C445 1.362 . S
C445 H435 0.930 . S
C445 C438 1.409 . S
C445 C444 1.362 . S
H446 C452 0.930 . S
H447 C455 0.930 . S
H448 C456 0.930 . S
H449 C457 0.930 1_565 S
H450 C460 0.930 . S
H451 C461 0.930 . S
C452 H446 0.930 . S
C452 C453 1.355 . S
C452 C454 1.415 . S
C453 C452 1.355 . S
C453 C455 1.419 1_545 S
C454 C452 1.415 . S
C454 C459 1.426 1_545 S
C454 C461 1.409 . S
C455 H447 0.930 . S
C455 C453 1.419 1_565 S
C455 C456 1.362 . S
C456 H448 0.930 . S
C456 C455 1.362 . S
C456 C459 1.408 . S
C457 H449 0.930 1_545 S
C457 C458 1.355 . S
C457 C459 1.415 1_545 S
C458 C457 1.355 . S
C458 C460 1.419 . S
C459 C454 1.426 1_565 S
C459 C456 1.408 . S
C459 C457 1.415 1_565 S
C460 H450 0.930 . S
C460 C458 1.419 . S
C460 C461 1.362 . S
C461 H451 0.930 . S
C461 C454 1.409 . S
C461 C460 1.362 . S
H462 C468 0.927 . S
H463 C471 0.930 . S
H464 C472 0.930 . S
H465 C473 0.930 . S
H466 C476 0.930 . S
H467 C477 0.930 1_655 S
C468 H462 0.927 . S
C468 C469 1.355 . S
C468 C470 1.415 . S
C469 C468 1.355 . S
C469 C471 1.419 . S
C470 C468 1.415 . S
C470 C475 1.425 . S
C470 C477 1.409 . S
C471 H463 0.930 . S
C471 C469 1.419 . S
C471 C472 1.362 . S
C472 H464 0.930 . S
C472 C471 1.362 . S
C472 C475 1.409 . S
C473 H465 0.930 . S
C473 C474 1.355 . S
C473 C475 1.415 . S
C474 C473 1.355 . S
C474 C476 1.419 . S
C475 C470 1.425 . S
C475 C472 1.409 . S
C475 C473 1.415 . S
C476 H466 0.930 . S
C476 C474 1.419 . S
C476 C477 1.362 . S
C477 H467 0.930 1_455 S
C477 C470 1.409 . S
C477 C476 1.362 . S
H478 C484 0.930 . S
H479 C487 0.930 . S
H480 C488 0.930 . S
H481 C489 0.930 . S
H482 C492 0.930 . S
H483 C493 0.930 . S
C484 H478 0.930 . S
C484 C485 1.355 . S
C484 C486 1.415 . S
C485 C484 1.355 . S
C485 C487 1.419 . S
C486 C484 1.415 . S
C486 C491 1.425 . S
C486 C493 1.409 . S
C487 H479 0.930 . S
C487 C485 1.419 . S
C487 C488 1.362 . S
C488 H480 0.930 . S
C488 C487 1.362 . S
C488 C491 1.409 . S
C489 H481 0.930 . S
C489 C490 1.355 . S
C489 C491 1.415 . S
C490 C489 1.355 . S
C490 C492 1.419 . S
C491 C486 1.425 . S
C491 C488 1.409 . S
C491 C489 1.415 . S
C492 H482 0.930 . S
C492 C490 1.419 . S
C492 C493 1.362 . S
C493 H483 0.930 . S
C493 C486 1.409 . S
C493 C492 1.362 . S
H494 C500 0.930 . S
H495 C503 0.930 . S
H496 C504 0.930 . S
H497 C505 0.930 1_565 S
H498 C508 0.930 . S
H499 C509 0.930 . S
C500 H494 0.930 . S
C500 C501 1.355 . S
C500 C502 1.415 . S
C501 C500 1.355 . S
C501 C503 1.419 1_545 S
C502 C500 1.415 . S
C502 C507 1.425 . S
C502 C509 1.409 . S
C503 H495 0.930 . S
C503 C501 1.419 1_565 S
C503 C504 1.362 . S
C504 H496 0.930 . S
C504 C503 1.362 . S
C504 C507 1.409 1_565 S
C505 H497 0.930 1_545 S
C505 C506 1.355 . S
C505 C507 1.415 . S
C506 C505 1.355 . S
C506 C508 1.419 . S
C507 C502 1.425 . S
C507 C504 1.409 1_545 S
C507 C505 1.415 . S
C508 H498 0.930 . S
C508 C506 1.419 . S
C508 C509 1.362 . S
C509 H499 0.930 . S
C509 C502 1.409 . S
C509 C508 1.362 . S
H510 C516 0.930 . S
H511 C519 0.930 . S
H512 C520 0.930 . S
H513 C521 0.930 . S
H514 C524 0.930 . S
H515 C525 0.930 . S
C516 H510 0.930 . S
C516 C517 1.355 . S
C516 C518 1.415 . S
C517 C516 1.355 . S
C517 C519 1.419 . S
C518 C516 1.415 . S
C518 C523 1.425 . S
C518 C525 1.409 . S
C519 H511 0.930 . S
C519 C517 1.419 . S
C519 C520 1.362 . S
C520 H512 0.930 . S
C520 C519 1.362 . S
C520 C523 1.409 . S
C521 H513 0.930 . S
C521 C522 1.355 . S
C521 C523 1.415 . S
C522 C521 1.355 . S
C522 C524 1.419 . S
C523 C518 1.425 . S
C523 C520 1.409 . S
C523 C521 1.415 . S
C524 H514 0.930 . S
C524 C522 1.419 . S
C524 C525 1.362 . S
C525 H515 0.930 . S
C525 C518 1.409 . S
C525 C524 1.362 . S
H526 C532 0.930 . S
H527 C535 0.930 . S
H528 C536 0.930 . S
H529 C537 0.930 . S
H530 C540 0.930 . S
H531 C541 0.930 . S
C532 H526 0.930 . S
C532 C533 1.355 . S
C532 C534 1.415 . S
C533 C532 1.355 . S
C533 C535 1.419 . S
C534 C532 1.415 . S
C534 C539 1.425 . S
C534 C541 1.409 . S
C535 H527 0.930 . S
C535 C533 1.419 . S
C535 C536 1.362 . S
C536 H528 0.930 . S
C536 C535 1.362 . S
C536 C539 1.409 . S
C537 H529 0.930 . S
C537 C538 1.355 . S
C537 C539 1.415 . S
C538 C537 1.355 . S
C538 C540 1.419 . S
C539 C534 1.425 . S
C539 C536 1.409 . S
C539 C537 1.415 . S
C540 H530 0.930 . S
C540 C538 1.419 . S
C540 C541 1.362 . S
C541 H531 0.930 . S
C541 C534 1.409 . S
C541 C540 1.362 . S
H542 C548 0.930 . S
H543 C551 0.930 . S
H544 C552 0.930 . S
H545 C553 0.930 . S
H546 C556 0.930 . S
H547 C557 0.930 . S
C548 H542 0.930 . S
C548 C549 1.355 . S
C548 C550 1.415 . S
C549 C548 1.355 . S
C549 C551 1.419 . S
C550 C548 1.415 . S
C550 C555 1.425 . S
C550 C557 1.409 . S
C551 H543 0.930 . S
C551 C549 1.419 . S
C551 C552 1.362 . S
C552 H544 0.930 . S
C552 C551 1.362 . S
C552 C555 1.409 . S
C553 H545 0.930 . S
C553 C554 1.355 . S
C553 C555 1.415 . S
C554 C553 1.355 . S
C554 C556 1.419 . S
C555 C550 1.425 . S
C555 C552 1.409 . S
C555 C553 1.415 . S
C556 H546 0.930 . S
C556 C554 1.419 . S
C556 C557 1.362 . S
C557 H547 0.930 . S
C557 C550 1.409 . S
C557 C556 1.362 . S
H558 C564 0.930 . S
H559 C567 0.930 . S
H560 C568 0.930 . S
H561 C569 0.930 . S
H562 C572 0.930 . S
H563 C573 0.930 . S
C564 H558 0.930 . S
C564 C565 1.355 . S
C564 C566 1.415 . S
C565 C564 1.355 . S
C565 C567 1.419 . S
C566 C564 1.415 . S
C566 C571 1.425 . S
C566 C573 1.409 . S
C567 H559 0.930 . S
C567 C565 1.419 . S
C567 C568 1.362 . S
C568 H560 0.930 . S
C568 C567 1.362 . S
C568 C571 1.409 . S
C569 H561 0.930 . S
C569 C570 1.355 . S
C569 C571 1.415 . S
C570 C569 1.355 . S
C570 C572 1.419 . S
C571 C566 1.425 . S
C571 C568 1.409 . S
C571 C569 1.415 . S
C572 H562 0.930 . S
C572 C570 1.419 . S
C572 C573 1.362 . S
C573 H563 0.930 . S
C573 C566 1.409 . S
C573 C572 1.362 . S
H574 C580 0.930 . S
H575 C583 0.930 . S
H576 C584 0.930 . S
H577 C585 0.930 . S
H578 C588 0.930 . S
H579 C589 0.930 . S
C580 H574 0.930 . S
C580 C581 1.355 . S
C580 C582 1.415 . S
C581 C580 1.355 . S
C581 C583 1.419 . S
C582 C580 1.415 . S
C582 C587 1.425 . S
C582 C589 1.409 . S
C583 H575 0.930 . S
C583 C581 1.419 . S
C583 C584 1.362 . S
C584 H576 0.930 . S
C584 C583 1.362 . S
C584 C587 1.409 . S
C585 H577 0.930 . S
C585 C586 1.355 . S
C585 C587 1.415 . S
C586 C585 1.355 . S
C586 C588 1.419 . S
C587 C582 1.425 . S
C587 C584 1.409 . S
C587 C585 1.415 . S
C588 H578 0.930 . S
C588 C586 1.419 . S
C588 C589 1.362 . S
C589 H579 0.930 . S
C589 C582 1.409 . S
C589 C588 1.362 . S
H590 C596 0.930 . S
H591 C599 0.930 . S
H592 C600 0.930 . S
H593 C601 0.930 . S
H594 C604 0.930 . S
H595 C605 0.930 . S
C596 H590 0.930 . S
C596 C597 1.355 . S
C596 C598 1.415 . S
C597 C596 1.355 . S
C597 C599 1.419 . S
C598 C596 1.415 . S
C598 C603 1.425 . S
C598 C605 1.409 . S
C599 H591 0.930 . S
C599 C597 1.419 . S
C599 C600 1.362 . S
C600 H592 0.930 . S
C600 C599 1.362 . S
C600 C603 1.409 . S
C601 H593 0.930 . S
C601 C602 1.355 . S
C601 C603 1.415 . S
C602 C601 1.355 . S
C602 C604 1.419 . S
C603 C598 1.425 . S
C603 C600 1.409 . S
C603 C601 1.415 . S
C604 H594 0.930 . S
C604 C602 1.419 . S
C604 C605 1.362 . S
C605 H595 0.930 . S
C605 C598 1.409 . S
C605 C604 1.362 . S
H606 C612 0.930 . S
H607 C615 0.930 1_554 S
H608 C616 0.930 . S
H609 C617 0.930 . S
H610 C620 0.930 . S
H611 C621 0.930 . S
C612 H606 0.930 . S
C612 C613 1.355 1_556 S
C612 C614 1.415 . S
C613 C612 1.355 1_554 S
C613 C615 1.419 1_554 S
C614 C612 1.415 . S
C614 C619 1.425 . S
C614 C621 1.409 . S
C615 H607 0.930 1_556 S
C615 C613 1.419 1_556 S
C615 C616 1.362 . S
C616 H608 0.930 . S
C616 C615 1.362 . S
C616 C619 1.409 . S
C617 H609 0.930 . S
C617 C618 1.355 . S
C617 C619 1.415 . S
C618 C617 1.355 . S
C618 C620 1.419 . S
C619 C614 1.425 . S
C619 C616 1.409 . S
C619 C617 1.415 . S
C620 H610 0.930 . S
C620 C618 1.419 . S
C620 C621 1.362 . S
C621 H611 0.930 . S
C621 C614 1.409 . S
C621 C620 1.362 . S
H622 C628 0.930 . S
H623 C631 0.930 . S
H624 C632 0.930 . S
H625 C633 0.930 . S
H626 C636 0.930 . S
H627 C637 0.930 . S
C628 H622 0.930 . S
C628 C629 1.355 . S
C628 C630 1.415 . S
C629 C628 1.355 . S
C629 C631 1.419 . S
C630 C628 1.415 . S
C630 C635 1.425 . S
C630 C637 1.409 . S
C631 H623 0.930 . S
C631 C629 1.419 . S
C631 C632 1.362 . S
C632 H624 0.930 . S
C632 C631 1.362 . S
C632 C635 1.409 . S
C633 H625 0.930 . S
C633 C634 1.355 . S
C633 C635 1.415 . S
C634 C633 1.355 . S
C634 C636 1.419 . S
C635 C630 1.425 . S
C635 C632 1.409 . S
C635 C633 1.415 . S
C636 H626 0.930 . S
C636 C634 1.419 . S
C636 C637 1.362 . S
C637 H627 0.930 . S
C637 C630 1.409 . S
C637 C636 1.362 . S
H638 C644 0.930 . S
H639 C647 0.930 1_554 S
H640 C648 0.930 . S
H641 C649 0.930 . S
H642 C652 0.930 . S
H643 C653 0.930 . S
C644 H638 0.930 . S
C644 C645 1.355 1_556 S
C644 C646 1.415 . S
C645 C644 1.355 1_554 S
C645 C647 1.419 1_554 S
C646 C644 1.415 . S
C646 C651 1.425 . S
C646 C653 1.409 . S
C647 H639 0.930 1_556 S
C647 C645 1.419 1_556 S
C647 C648 1.362 . S
C648 H640 0.930 . S
C648 C647 1.362 . S
C648 C651 1.409 . S
C649 H641 0.930 . S
C649 C650 1.355 . S
C649 C651 1.415 . S
C650 C649 1.355 . S
C650 C652 1.419 . S
C651 C646 1.425 . S
C651 C648 1.409 . S
C651 C649 1.415 . S
C652 H642 0.930 . S
C652 C650 1.419 . S
C652 C653 1.362 . S
C653 H643 0.930 . S
C653 C646 1.409 . S
C653 C652 1.362 . S
H654 C660 0.930 . S
H655 C663 0.930 . S
H656 C664 0.930 . S
H657 C665 0.930 . S
H658 C668 0.930 . S
H659 C669 0.930 . S
C660 H654 0.930 . S
C660 C661 1.355 . S
C660 C662 1.415 . S
C661 C660 1.355 . S
C661 C663 1.419 . S
C662 C660 1.415 . S
C662 C667 1.425 . S
C662 C669 1.409 . S
C663 H655 0.930 . S
C663 C661 1.419 . S
C663 C664 1.362 . S
C664 H656 0.930 . S
C664 C663 1.362 . S
C664 C667 1.409 . S
C665 H657 0.930 . S
C665 C666 1.355 . S
C665 C667 1.415 . S
C666 C665 1.355 . S
C666 C668 1.419 . S
C667 C662 1.425 . S
C667 C664 1.409 . S
C667 C665 1.415 . S
C668 H658 0.930 . S
C668 C666 1.419 . S
C668 C669 1.362 . S
C669 H659 0.930 . S
C669 C662 1.409 . S
C669 C668 1.362 . S
H670 C676 0.930 . S
H671 C679 0.930 . S
H672 C680 0.930 . S
H673 C681 0.930 . S
H674 C684 0.930 . S
H675 C685 0.930 . S
C676 H670 0.930 . S
C676 C677 1.355 . S
C676 C678 1.415 . S
C677 C676 1.355 . S
C677 C679 1.419 . S
C678 C676 1.415 . S
C678 C683 1.425 . S
C678 C685 1.409 . S
C679 H671 0.930 . S
C679 C677 1.419 . S
C679 C680 1.362 . S
C680 H672 0.930 . S
C680 C679 1.362 . S
C680 C683 1.409 . S
C681 H673 0.930 . S
C681 C682 1.355 . S
C681 C683 1.415 . S
C682 C681 1.355 . S
C682 C684 1.419 . S
C683 C678 1.425 . S
C683 C680 1.409 . S
C683 C681 1.415 . S
C684 H674 0.930 . S
C684 C682 1.419 . S
C684 C685 1.362 . S
C685 H675 0.930 . S
C685 C678 1.409 . S
C685 C684 1.362 . S
H686 C692 0.930 . S
H687 C695 0.930 . S
H688 C696 0.930 . S
H689 C697 0.930 . S
H690 C700 0.930 . S
H691 C701 0.930 . S
C692 H686 0.930 . S
C692 C693 1.355 . S
C692 C694 1.415 . S
C693 C692 1.355 . S
C693 C695 1.419 . S
C694 C692 1.415 . S
C694 C699 1.425 . S
C694 C701 1.409 . S
C695 H687 0.930 . S
C695 C693 1.419 . S
C695 C696 1.362 . S
C696 H688 0.930 . S
C696 C695 1.362 . S
C696 C699 1.409 . S
C697 H689 0.930 . S
C697 C698 1.355 . S
C697 C699 1.415 . S
C698 C697 1.355 . S
C698 C700 1.419 . S
C699 C694 1.425 . S
C699 C696 1.409 . S
C699 C697 1.415 . S
C700 H690 0.930 . S
C700 C698 1.419 . S
C700 C701 1.362 . S
C701 H691 0.930 . S
C701 C694 1.409 . S
C701 C700 1.362 . S
H702 C708 0.930 . S
H703 C711 0.930 . S
H704 C712 0.930 . S
H705 C713 0.930 . S
H706 C716 0.930 . S
H707 C717 0.930 . S
C708 H702 0.930 . S
C708 C709 1.355 . S
C708 C710 1.415 . S
C709 C708 1.355 . S
C709 C711 1.419 . S
C710 C708 1.415 . S
C710 C715 1.425 . S
C710 C717 1.409 . S
C711 H703 0.930 . S
C711 C709 1.419 . S
C711 C712 1.362 . S
C712 H704 0.930 . S
C712 C711 1.362 . S
C712 C715 1.409 . S
C713 H705 0.930 . S
C713 C714 1.355 . S
C713 C715 1.415 . S
C714 C713 1.355 . S
C714 C716 1.419 . S
C715 C710 1.425 . S
C715 C712 1.409 . S
C715 C713 1.415 . S
C716 H706 0.930 . S
C716 C714 1.419 . S
C716 C717 1.362 . S
C717 H707 0.930 . S
C717 C710 1.409 . S
C717 C716 1.362 . S
H718 C724 0.930 . S
H719 C727 0.930 . S
H720 C728 0.930 . S
H721 C729 0.930 . S
H722 C732 0.930 1_554 S
H723 C733 0.930 . S
C724 H718 0.930 . S
C724 C725 1.355 . S
C724 C726 1.415 . S
C725 C724 1.355 . S
C725 C727 1.419 . S
C726 C724 1.415 . S
C726 C731 1.425 . S
C726 C733 1.409 . S
C727 H719 0.930 . S
C727 C725 1.419 . S
C727 C728 1.362 . S
C728 H720 0.930 . S
C728 C727 1.362 . S
C728 C731 1.409 . S
C729 H721 0.930 . S
C729 C730 1.355 . S
C729 C731 1.415 . S
C730 C729 1.355 . S
C730 C732 1.419 . S
C731 C726 1.425 . S
C731 C728 1.409 . S
C731 C729 1.415 . S
C732 H722 0.930 1_556 S
C732 C730 1.419 . S
C732 C733 1.362 . S
C733 H723 0.930 . S
C733 C726 1.409 . S
C733 C732 1.362 . S
H734 C740 0.930 . S
H735 C743 0.930 . S
H736 C744 0.930 . S
H737 C745 0.930 . S
H738 C748 0.930 1_554 S
H739 C749 0.930 . S
C740 H734 0.930 . S
C740 C741 1.355 . S
C740 C742 1.415 . S
C741 C740 1.355 . S
C741 C743 1.419 . S
C742 C740 1.415 . S
C742 C747 1.425 . S
C742 C749 1.409 . S
C743 H735 0.930 . S
C743 C741 1.419 . S
C743 C744 1.362 . S
C744 H736 0.930 . S
C744 C743 1.362 . S
C744 C747 1.409 . S
C745 H737 0.930 . S
C745 C746 1.355 . S
C745 C747 1.415 . S
C746 C745 1.355 . S
C746 C748 1.419 . S
C747 C742 1.425 . S
C747 C744 1.409 . S
C747 C745 1.415 . S
C748 H738 0.930 1_556 S
C748 C746 1.419 . S
C748 C749 1.362 . S
C749 H739 0.930 . S
C749 C742 1.409 . S
C749 C748 1.362 . S
H750 C756 0.930 . S
H751 C759 0.930 . S
H752 C760 0.930 . S
H753 C761 0.930 . S
H754 C764 0.930 . S
H755 C765 0.930 . S
C756 H750 0.930 . S
C756 C757 1.355 . S
C756 C758 1.415 . S
C757 C756 1.355 . S
C757 C759 1.419 . S
C758 C756 1.415 . S
C758 C763 1.425 . S
C758 C765 1.409 . S
C759 H751 0.930 . S
C759 C757 1.419 . S
C759 C760 1.362 . S
C760 H752 0.930 . S
C760 C759 1.362 . S
C760 C763 1.409 . S
C761 H753 0.930 . S
C761 C762 1.355 . S
C761 C763 1.415 . S
C762 C761 1.355 . S
C762 C764 1.419 . S
C763 C758 1.425 . S
C763 C760 1.409 . S
C763 C761 1.415 . S
C764 H754 0.930 . S
C764 C762 1.419 . S
C764 C765 1.362 . S
C765 H755 0.930 . S
C765 C758 1.409 . S
C765 C764 1.362 . S
H766 C772 0.930 . S
H767 C775 0.930 . S
H768 C776 0.930 . S
H769 C777 0.930 1_455 S
H770 C780 0.930 . S
H771 C781 0.930 . S
C772 H766 0.930 . S
C772 C773 1.355 . S
C772 C774 1.415 . S
C773 C772 1.355 . S
C773 C775 1.419 . S
C774 C772 1.415 . S
C774 C779 1.425 . S
C774 C781 1.409 . S
C775 H767 0.930 . S
C775 C773 1.419 . S
C775 C776 1.362 . S
C776 H768 0.930 . S
C776 C775 1.362 . S
C776 C779 1.409 . S
C777 H769 0.930 1_655 S
C777 C778 1.355 . S
C777 C779 1.415 . S
C778 C777 1.355 . S
C778 C780 1.419 . S
C779 C774 1.425 . S
C779 C776 1.409 . S
C779 C777 1.415 . S
C780 H770 0.930 . S
C780 C778 1.419 . S
C780 C781 1.362 . S
C781 H771 0.930 . S
C781 C774 1.409 . S
C781 C780 1.362 . S
H782 C788 0.930 . S
H783 C791 0.930 . S
H784 C792 0.930 . S
H785 C793 0.930 . S
H786 C796 0.930 . S
H787 C797 0.930 . S
C788 H782 0.930 . S
C788 C789 1.355 . S
C788 C790 1.415 . S
C789 C788 1.355 . S
C789 C791 1.419 . S
C790 C788 1.415 . S
C790 C795 1.425 . S
C790 C797 1.409 . S
C791 H783 0.930 . S
C791 C789 1.419 . S
C791 C792 1.362 . S
C792 H784 0.930 . S
C792 C791 1.362 . S
C792 C795 1.409 . S
C793 H785 0.930 . S
C793 C794 1.355 . S
C793 C795 1.415 . S
C794 C793 1.355 . S
C794 C796 1.419 . S
C795 C790 1.425 . S
C795 C792 1.409 . S
C795 C793 1.415 . S
C796 H786 0.930 . S
C796 C794 1.419 . S
C796 C797 1.362 . S
C797 H787 0.930 . S
C797 C790 1.409 . S
C797 C796 1.362 . S
H798 C804 0.930 . S
H799 C807 0.930 . S
H800 C808 0.930 . S
H801 C809 0.930 . S
H802 C812 0.930 . S
H803 C813 0.930 . S
C804 H798 0.930 . S
C804 C805 1.355 . S
C804 C806 1.415 . S
C805 C804 1.355 . S
C805 C807 1.419 . S
C806 C804 1.415 . S
C806 C811 1.425 . S
C806 C813 1.409 . S
C807 H799 0.930 . S
C807 C805 1.419 . S
C807 C808 1.362 . S
C808 H800 0.930 . S
C808 C807 1.362 . S
C808 C811 1.409 . S
C809 H801 0.930 . S
C809 C810 1.355 . S
C809 C811 1.415 . S
C810 C809 1.355 . S
C810 C812 1.419 . S
C811 C806 1.425 . S
C811 C808 1.409 . S
C811 C809 1.415 . S
C812 H802 0.930 . S
C812 C810 1.419 . S
C812 C813 1.362 . S
C813 H803 0.930 . S
C813 C806 1.409 . S
C813 C812 1.362 . S
H814 C820 0.930 . S
H815 C823 0.930 . S
H816 C824 0.930 . S
H817 C825 0.930 . S
H818 C828 0.930 . S
H819 C829 0.930 . S
C820 H814 0.930 . S
C820 C821 1.355 . S
C820 C822 1.415 . S
C821 C820 1.355 . S
C821 C823 1.419 . S
C822 C820 1.415 . S
C822 C827 1.425 . S
C822 C829 1.409 . S
C823 H815 0.930 . S
C823 C821 1.419 . S
C823 C824 1.362 . S
C824 H816 0.930 . S
C824 C823 1.362 . S
C824 C827 1.409 . S
C825 H817 0.930 . S
C825 C826 1.355 . S
C825 C827 1.415 . S
C826 C825 1.355 . S
C826 C828 1.419 . S
C827 C822 1.425 . S
C827 C824 1.409 . S
C827 C825 1.415 . S
C828 H818 0.930 . S
C828 C826 1.419 . S
C828 C829 1.362 . S
C829 H819 0.930 . S
C829 C822 1.409 . S
C829 C828 1.362 . S
H830 C836 0.930 . S
H831 C839 0.930 . S
H832 C840 0.930 . S
H833 C841 0.930 . S
H834 C844 0.930 . S
H835 C845 0.930 . S
C836 H830 0.930 . S
C836 C837 1.355 . S
C836 C838 1.415 . S
C837 C836 1.355 . S
C837 C839 1.419 . S
C838 C836 1.415 . S
C838 C843 1.425 . S
C838 C845 1.409 . S
C839 H831 0.930 . S
C839 C837 1.419 . S
C839 C840 1.362 . S
C840 H832 0.930 . S
C840 C839 1.362 . S
C840 C843 1.409 . S
C841 H833 0.930 . S
C841 C842 1.355 . S
C841 C843 1.415 . S
C842 C841 1.355 . S
C842 C844 1.419 . S
C843 C838 1.425 . S
C843 C840 1.409 . S
C843 C841 1.415 . S
C844 H834 0.930 . S
C844 C842 1.419 . S
C844 C845 1.362 . S
C845 H835 0.930 . S
C845 C838 1.409 . S
C845 C844 1.362 . S
H846 C852 0.930 . S
H847 C855 0.930 . S
H848 C856 0.930 . S
H849 C857 0.930 . S
H850 C860 0.930 . S
H851 C861 0.930 . S
C852 H846 0.930 . S
C852 C853 1.355 . S
C852 C854 1.415 . S
C853 C852 1.355 . S
C853 C855 1.419 . S
C854 C852 1.415 . S
C854 C859 1.425 . S
C854 C861 1.409 . S
C855 H847 0.930 . S
C855 C853 1.419 . S
C855 C856 1.362 . S
C856 H848 0.930 . S
C856 C855 1.362 . S
C856 C859 1.409 . S
C857 H849 0.930 . S
C857 C858 1.355 . S
C857 C859 1.415 . S
C858 C857 1.355 . S
C858 C860 1.419 . S
C859 C854 1.425 . S
C859 C856 1.409 . S
C859 C857 1.415 . S
C860 H850 0.930 . S
C860 C858 1.419 . S
C860 C861 1.362 . S
C861 H851 0.930 . S
C861 C854 1.409 . S
C861 C860 1.362 . S
H862 C868 0.930 . S
H863 C871 0.930 . S
H864 C872 0.930 . S
H865 C873 0.930 . S
H866 C876 0.930 . S
H867 C877 0.930 . S
C868 H862 0.930 . S
C868 C869 1.355 . S
C868 C870 1.415 . S
C869 C868 1.355 . S
C869 C871 1.419 . S
C870 C868 1.415 . S
C870 C875 1.425 . S
C870 C877 1.409 . S
C871 H863 0.930 . S
C871 C869 1.419 . S
C871 C872 1.362 . S
C872 H864 0.930 . S
C872 C871 1.362 . S
C872 C875 1.409 . S
C873 H865 0.930 . S
C873 C874 1.355 . S
C873 C875 1.415 . S
C874 C873 1.355 . S
C874 C876 1.419 . S
C875 C870 1.425 . S
C875 C872 1.409 . S
C875 C873 1.415 . S
C876 H866 0.930 . S
C876 C874 1.419 . S
C876 C877 1.362 . S
C877 H867 0.930 . S
C877 C870 1.409 . S
C877 C876 1.362 . S
H878 C884 0.930 . S
H879 C887 0.930 . S
H880 C888 0.930 . S
H881 C889 0.930 . S
H882 C892 0.930 . S
H883 C893 0.930 . S
C884 H878 0.930 . S
C884 C885 1.355 . S
C884 C886 1.415 . S
C885 C884 1.355 . S
C885 C887 1.419 . S
C886 C884 1.415 . S
C886 C891 1.425 . S
C886 C893 1.409 . S
C887 H879 0.930 . S
C887 C885 1.419 . S
C887 C888 1.362 . S
C888 H880 0.930 . S
C888 C887 1.362 . S
C888 C891 1.409 . S
C889 H881 0.930 . S
C889 C890 1.355 . S
C889 C891 1.415 . S
C890 C889 1.355 . S
C890 C892 1.419 . S
C891 C886 1.425 . S
C891 C888 1.409 . S
C891 C889 1.415 . S
C892 H882 0.930 . S
C892 C890 1.419 . S
C892 C893 1.362 . S
C893 H883 0.930 . S
C893 C886 1.409 . S
C893 C892 1.362 . S
H894 C900 0.930 . S
H895 C903 0.930 . S
H896 C904 0.930 . S
H897 C905 0.930 . S
H898 C908 0.930 . S
H899 C909 0.930 . S
C900 H894 0.930 . S
C900 C901 1.355 . S
C900 C902 1.415 . S
C901 C900 1.355 . S
C901 C903 1.419 . S
C902 C900 1.415 . S
C902 C907 1.425 . S
C902 C909 1.409 . S
C903 H895 0.930 . S
C903 C901 1.419 . S
C903 C904 1.362 . S
C904 H896 0.930 . S
C904 C903 1.362 . S
C904 C907 1.409 . S
C905 H897 0.930 . S
C905 C906 1.355 . S
C905 C907 1.415 . S
C906 C905 1.355 . S
C906 C908 1.419 . S
C907 C902 1.425 . S
C907 C904 1.409 . S
C907 C905 1.415 . S
C908 H898 0.930 . S
C908 C906 1.419 . S
C908 C909 1.362 . S
C909 H899 0.930 . S
C909 C902 1.409 . S
C909 C908 1.362 . S
H910 C916 0.930 . S
H911 C919 0.930 . S
H912 C920 0.930 . S
H913 C921 0.930 . S
H914 C924 0.930 . S
H915 C925 0.930 . S
C916 H910 0.930 . S
C916 C917 1.355 . S
C916 C918 1.415 1_545 S
C917 C916 1.355 . S
C917 C919 1.419 . S
C918 C916 1.415 1_565 S
C918 C923 1.425 . S
C918 C925 1.409 . S
C919 H911 0.930 . S
C919 C917 1.419 . S
C919 C920 1.362 . S
C920 H912 0.930 . S
C920 C919 1.362 . S
C920 C923 1.409 1_545 S
C921 H913 0.930 . S
C921 C922 1.355 . S
C921 C923 1.415 . S
C922 C921 1.355 . S
C922 C924 1.419 . S
C923 C918 1.425 . S
C923 C920 1.409 1_565 S
C923 C921 1.415 . S
C924 H914 0.930 . S
C924 C922 1.419 . S
C924 C925 1.362 . S
C925 H915 0.930 . S
C925 C918 1.409 . S
C925 C924 1.362 . S
H926 C932 0.930 . S
H927 C935 0.930 . S
H928 C936 0.930 . S
H929 C937 0.930 . S
H930 C940 0.930 . S
H931 C941 0.930 . S
C932 H926 0.930 . S
C932 C933 1.355 . S
C932 C934 1.415 . S
C933 C932 1.355 . S
C933 C935 1.419 . S
C934 C932 1.415 . S
C934 C939 1.425 . S
C934 C941 1.409 1_455 S
C935 H927 0.930 . S
C935 C933 1.419 . S
C935 C936 1.362 . S
C936 H928 0.930 . S
C936 C935 1.362 . S
C936 C939 1.409 . S
C937 H929 0.930 . S
C937 C938 1.355 . S
C937 C939 1.415 1_655 S
C938 C937 1.355 . S
C938 C940 1.419 . S
C939 C934 1.425 . S
C939 C936 1.409 . S
C939 C937 1.415 1_455 S
C940 H930 0.930 . S
C940 C938 1.419 . S
C940 C941 1.362 . S
C941 H931 0.930 . S
C941 C934 1.409 1_655 S
C941 C940 1.362 . S
H942 C948 0.930 . S
H943 C951 0.930 . S
H944 C952 0.930 . S
H945 C953 0.930 . S
H946 C956 0.930 . S
H947 C957 0.930 . S
C948 H942 0.930 . S
C948 C949 1.355 . S
C948 C950 1.415 . S
C949 C948 1.355 . S
C949 C951 1.419 . S
C950 C948 1.415 . S
C950 C955 1.425 . S
C950 C957 1.409 . S
C951 H943 0.930 . S
C951 C949 1.419 . S
C951 C952 1.362 . S
C952 H944 0.930 . S
C952 C951 1.362 . S
C952 C955 1.409 . S
C953 H945 0.930 . S
C953 C954 1.355 . S
C953 C955 1.415 . S
C954 C953 1.355 . S
C954 C956 1.419 . S
C955 C950 1.425 . S
C955 C952 1.409 . S
C955 C953 1.415 . S
C956 H946 0.930 . S
C956 C954 1.419 . S
C956 C957 1.362 . S
C957 H947 0.930 . S
C957 C950 1.409 . S
C957 C956 1.362 . S
H958 C964 0.930 . S
H959 C967 0.930 . S
H960 C968 0.948 . S
H961 C969 0.930 . S
H962 C972 0.930 . S
H963 C973 0.930 . S
C964 H958 0.930 . S
C964 C965 1.355 . S
C964 C966 1.415 1_545 S
C965 C964 1.355 . S
C965 C967 1.419 . S
C966 C964 1.415 1_565 S
C966 C971 1.425 . S
C966 C973 1.409 . S
C967 H959 0.930 . S
C967 C965 1.419 . S
C967 C968 1.362 . S
C968 H960 0.948 . S
C968 C967 1.362 . S
C968 C971 1.409 1_545 S
C969 H961 0.930 . S
C969 C970 1.355 . S
C969 C971 1.415 . S
C970 C969 1.355 . S
C970 C972 1.419 . S
C971 C966 1.425 . S
C971 C968 1.409 1_565 S
C971 C969 1.415 . S
C972 H962 0.930 . S
C972 C970 1.419 . S
C972 C973 1.362 . S
C973 H963 0.930 . S
C973 C966 1.409 . S
C973 C972 1.362 . S
H974 C980 0.930 . S
H975 C983 0.930 . S
H976 C984 0.930 1_655 S
H977 C985 0.930 . S
H978 C988 0.930 . S
H979 C989 0.930 . S
C980 H974 0.930 . S
C980 C981 1.355 . S
C980 C982 1.415 . S
C981 C980 1.355 . S
C981 C983 1.419 . S
C982 C980 1.415 . S
C982 C987 1.425 1_455 S
C982 C989 1.409 . S
C983 H975 0.930 . S
C983 C981 1.419 . S
C983 C984 1.362 . S
C984 H976 0.930 1_455 S
C984 C983 1.362 . S
C984 C987 1.409 1_455 S
C985 H977 0.930 . S
C985 C986 1.355 . S
C985 C987 1.415 . S
C986 C985 1.355 . S
C986 C988 1.419 . S
C987 C982 1.425 1_655 S
C987 C984 1.409 1_655 S
C987 C985 1.415 . S
C988 H978 0.930 . S
C988 C986 1.419 . S
C988 C989 1.362 1_655 S
C989 H979 0.930 . S
C989 C982 1.409 . S
C989 C988 1.362 1_455 S
C421 N104 1.208 1_455 S
C426 N12 1.175 . S
C437 N117 1.875 . S
C442 C39 1.896 . S
C453 N58 1.180 . S
C458 N71 1.167 . S
C469 N94 1.228 . S
C474 N2 1.177 . S
C485 N127 1.875 . S
C490 C30 1.893 . S
C501 N48 1.205 . S
C506 N81 1.159 . S
C517 N232 1.214 . S
C522 N150 1.168 . S
C533 N255 1.224 . S
C538 N173 1.184 . S
C549 N196 1.191 . S
C554 N209 1.169 . S
C565 N140 1.158 . S
C570 N242 1.124 1_554 S
C581 N265 1.192 1_554 S
C586 N163 1.145 . S
C597 N219 1.202 1_554 S
C602 N186 1.165 . S
C613 N380 1.179 . S
C618 N288 1.239 . S
C629 C315 1.896 . S
C634 N403 1.847 1_556 S
C645 N347 1.210 . S
C650 N324 1.214 . S
C661 N370 1.154 . S
C666 N278 1.198 . S
C677 N393 1.872 . S
C682 C306 1.900 . S
C693 N334 1.162 . S
C698 N357 1.125 . S
C709 C16 1.483 . S
C714 C214 1.488 . S
C725 C237 1.567 . S
C730 N35 1.512 . S
C741 C260 1.517 . S
C746 C62 1.529 . S
C757 C76 1.575 . S
C762 C292 1.581 . S
C773 N311 1.489 . S
C778 C108 1.509 . S
C789 C329 1.577 . S
C794 C122 1.576 . S
C805 C361 1.502 . S
C810 C7 1.502 . S
C821 C375 1.597 . S
C826 N25 1.596 . S
C837 C398 1.522 . S
C842 C53 1.524 . S
C853 C85 1.526 . S
C858 C145 1.538 . S
C869 C99 1.526 . S
C874 C168 1.525 . S
C885 C191 1.542 . S
C890 C131 1.512 . S
C901 C352 1.533 . S
C906 C154 1.526 . S
C917 C384 1.525 . S
C922 C177 1.563 . S
C933 C200 1.522 . S
C938 C407 1.495 . S
C949 C283 1.551 . S
C954 C223 1.537 . S
C965 N301 1.480 . S
C970 C246 1.502 . S
C981 C269 1.544 . S
C986 C338 1.560 . S
