# Generated by pormake.
# Topology rkf, (6)-cn, num edge types: 1
# Building blocks:
#     Node 0, Type 0, BuildingBlock: HISSIN_clean_sbu_0, # of connection points: 6
#     Node 1, Type 0, BuildingBlock: HISSIN_clean_sbu_0, # of connection points: 6
#     Node 2, Type 0, BuildingBlock: HISSIN_clean_sbu_0, # of connection points: 6
#     Node 3, Type 0, BuildingBlock: HISSIN_clean_sbu_0, # of connection points: 6
#     Node 4, Type 0, BuildingBlock: HISSIN_clean_sbu_0, # of connection points: 6
#     Node 5, Type 0, BuildingBlock: HISSIN_clean_sbu_0, # of connection points: 6
#     Edge 6, Type (0, 0), BuildingBlock: KIFKEQ_clean_linker_1, # of connection points: 2
#     Edge 7, Type (0, 0), BuildingBlock: KIFKEQ_clean_linker_1, # of connection points: 2
#     Edge 8, Type (0, 0), BuildingBlock: KIFKEQ_clean_linker_1, # of connection points: 2
#     Edge 9, Type (0, 0), BuildingBlock: KIFKEQ_clean_linker_1, # of connection points: 2
#     Edge 10, Type (0, 0), BuildingBlock: KIFKEQ_clean_linker_1, # of connection points: 2
#     Edge 11, Type (0, 0), BuildingBlock: KIFKEQ_clean_linker_1, # of connection points: 2
#     Edge 12, Type (0, 0), BuildingBlock: KIFKEQ_clean_linker_1, # of connection points: 2
#     Edge 13, Type (0, 0), BuildingBlock: KIFKEQ_clean_linker_1, # of connection points: 2
#     Edge 14, Type (0, 0), BuildingBlock: KIFKEQ_clean_linker_1, # of connection points: 2
#     Edge 15, Type (0, 0), BuildingBlock: KIFKEQ_clean_linker_1, # of connection points: 2
#     Edge 16, Type (0, 0), BuildingBlock: KIFKEQ_clean_linker_1, # of connection points: 2
#     Edge 17, Type (0, 0), BuildingBlock: KIFKEQ_clean_linker_1, # of connection points: 2
#     Edge 18, Type (0, 0), BuildingBlock: KIFKEQ_clean_linker_1, # of connection points: 2
#     Edge 19, Type (0, 0), BuildingBlock: KIFKEQ_clean_linker_1, # of connection points: 2
#     Edge 20, Type (0, 0), BuildingBlock: KIFKEQ_clean_linker_1, # of connection points: 2
#     Edge 21, Type (0, 0), BuildingBlock: KIFKEQ_clean_linker_1, # of connection points: 2
#     Edge 22, Type (0, 0), BuildingBlock: KIFKEQ_clean_linker_1, # of connection points: 2
#     Edge 23, Type (0, 0), BuildingBlock: KIFKEQ_clean_linker_1, # of connection points: 2
# Relax obj value: 0.694
# Max RMSD: 0.256
# Mean RMSD: 0.256
data_MOF--net-rkf--node1-HISSIN_clean_sbu_0--edge1-KIFKEQ_clean_linker_1
_symmetry_space_group_name_H-M    P1
_symmetry_Int_Tables_number       1
_symmetry_cell_setting            triclinic
loop_
_symmetry_equiv_pos_as_xyz
'x, y, z'
_cell_length_a     25.423271
_cell_length_b     25.414779
_cell_length_c     45.124459
_cell_angle_alpha  90.443632
_cell_angle_beta   89.995625
_cell_angle_gamma 119.54
loop_
_atom_site_label
_atom_site_type_symbol
_atom_site_fract_x
_atom_site_fract_y
_atom_site_fract_z
_atom_type_partial_charge
Eu0 Eu 0.27475 0.14255 0.17151 0.0
Eu1 Eu 0.41277 0.24793 0.16044 0.0
C2 C 0.38684 0.11949 0.18289 0.0
C3 C 0.13338 -0.0027 0.19427 0.0
C4 C 0.16701 0.97823 0.21122 0.0
C5 C 0.04197 0.90357 0.20522 0.0
C6 C 0.13813 0.92233 0.22542 0.0
C7 C 0.07091 0.95951 0.19108 0.0
C8 C 0.07515 0.8846 0.22283 0.0
C9 C 0.16321 0.05578 0.17926 0.0
O10 O 0.38407 0.19065 1.11655 0.0
O11 O 0.28142 0.14674 1.12126 0.0
C12 C 0.32891 0.15927 1.1048 0.0
O13 O 0.27523 0.23055 0.16381 0.0
O14 O 0.50358 0.28217 1.14209 0.0
O15 O 0.4831 0.34077 0.16883 0.0
O16 O 0.35664 0.27499 1.13341 0.0
C17 C 0.30592 0.26944 1.14296 0.0
O18 O 0.30758 0.17757 0.21837 0.0
O19 O 0.38454 0.2709 0.20562 0.0
O20 O 0.4215 0.17788 0.1865 0.0
O21 O 0.18988 0.10374 0.19614 0.0
O22 O 0.19622 0.05895 0.15661 0.0
O23 O 0.33147 0.09655 0.17266 0.0
C24 C 0.54182 0.38253 1.1263 0.0
C25 C 0.50295 0.40229 1.11537 0.0
C26 C 0.61184 0.43553 1.08631 0.0
C27 C 0.51724 0.43647 1.08973 0.0
C28 C 0.59725 0.40086 1.11216 0.0
C29 C 0.57084 0.45184 1.07417 0.0
C30 C 0.52088 0.33778 0.15025 0.0
C31 C 0.3461 0.23411 0.22571 0.0
H32 H 0.21547 0.00688 0.21371 0.0
H33 H -0.00647 0.87532 0.20254 0.0
H34 H 0.16487 0.90954 0.23915 0.0
H35 H 0.04448 0.9734 0.17776 0.0
H36 H 0.45966 0.38855 1.12568 0.0
H37 H 0.65379 0.44706 1.07513 0.0
H38 H 0.48356 0.44658 1.08103 0.0
H39 H 0.6279 0.3861 1.12031 0.0
Eu40 Eu 0.3599 0.39605 0.5101 0.0
Eu41 Eu 0.24061 0.39995 0.49073 0.0
C42 C 0.37038 0.51822 0.4919 0.0
C43 C 0.48164 0.36804 0.54507 0.0
C44 C 0.54187 0.38093 0.54343 0.0
C45 C 0.45961 0.2863 0.5788 0.0
C46 C 0.56088 0.34612 0.55917 0.0
C47 C 0.44073 0.32109 0.56309 0.0
C48 C 0.51959 0.29771 0.57656 0.0
C49 C 0.46042 0.39862 0.52509 0.0
O50 O 0.28362 0.40223 0.44547 0.0
O51 O 0.34662 0.36691 0.46082 0.0
C52 C 0.3186 0.37848 0.43919 0.0
O53 O 0.28649 0.30262 0.51749 0.0
O54 O 0.18067 0.4359 0.50141 0.0
O55 O 0.16098 0.3765 0.46352 0.0
O56 O 0.22148 0.30398 0.48311 0.0
C57 C 0.2443 0.27511 0.49759 0.0
O58 O 0.31589 0.40542 0.55404 0.0
O59 O 0.21865 0.36283 0.53747 0.0
O60 O 0.31511 0.4961 0.50176 0.0
O61 O 0.42407 0.36416 0.50423 0.0
O62 O 0.4427 0.43439 0.53688 0.0
O63 O 0.39052 0.48166 0.48535 0.0
C64 C 0.13256 0.45124 0.46063 0.0
C65 C 0.07221 0.43522 0.4557 0.0
C66 C 0.16439 0.53501 0.42669 0.0
C67 C 0.05775 0.46735 0.43546 0.0
C68 C 0.17878 0.50254 0.4469 0.0
C69 C 0.10359 0.51608 0.41974 0.0
C70 C 0.14618 0.41142 0.47834 0.0
C71 C 0.25706 0.38104 0.55979 0.0
H72 H 0.57371 0.41666 0.52923 0.0
H73 H 0.42709 0.25011 0.59256 0.0
H74 H 0.60724 0.35584 0.55701 0.0
H75 H 0.3939 0.31034 0.56433 0.0
H76 H 0.0361 0.39583 0.46629 0.0
H77 H 0.20074 0.57265 0.41522 0.0
H78 H 0.01046 0.4507 0.43046 0.0
H79 H 0.22577 0.51572 0.45076 0.0
Eu80 Eu 0.08507 0.2814 0.8404 0.0
Eu81 Eu 0.96872 0.29369 0.82432 0.0
C82 C 0.07925 0.40005 0.85547 0.0
C83 C 0.23878 0.30691 0.86861 0.0
C84 C 0.24915 0.35421 0.88818 0.0
C85 C 0.34089 0.32611 0.87721 0.0
C86 C 0.30497 0.38672 0.90261 0.0
C87 C 0.28509 0.29359 0.8629 0.0
C88 C 0.35123 0.37251 0.89754 0.0
C89 C 0.18093 0.27242 0.85304 0.0
O90 O 0.03359 0.33255 0.78314 0.0
O91 O 0.09185 0.28827 0.79057 0.0
C92 C 0.07414 0.31772 0.77317 0.0
O93 O 0.00965 0.18939 0.82504 0.0
O94 O 0.93869 0.3595 0.8186 0.0
O95 O 0.87345 0.2638 0.8155 0.0
O96 O 0.95762 0.21888 0.79459 0.0
C97 C 0.97427 0.17973 0.80188 0.0
O98 O 0.03557 0.26613 0.88447 0.0
O99 O 0.94032 0.23278 0.86609 0.0
O100 O 0.02261 0.36087 0.85966 0.0
O101 O 0.13202 0.24868 0.86906 0.0
O102 O 0.17498 0.29723 0.82915 0.0
O103 O 0.11395 0.38153 0.8431 0.0
C104 C 0.86514 0.33036 0.78129 0.0
C105 C 0.83412 0.28283 0.76092 0.0
C106 C 0.88884 0.40258 0.74151 0.0
C107 C 0.83428 0.2951 0.73086 0.0
C108 C 0.88823 0.39028 0.77166 0.0
C109 C 0.86564 0.35507 0.72068 0.0
C110 C 0.88418 0.3189 0.81037 0.0
C111 C -0.02355 0.23709 0.88842 0.0
H112 H 0.21393 0.36548 0.89252 0.0
H113 H 0.37578 0.31454 0.87257 0.0
H114 H 0.31119 0.42162 0.91842 0.0
H115 H 0.27799 0.25778 0.84746 0.0
H116 H 0.8147 0.23612 0.76767 0.0
H117 H 0.9123 0.44919 0.73432 0.0
H118 H 0.81575 0.25725 0.71546 0.0
H119 H 0.91115 0.42786 0.78704 0.0
Eu120 Eu 0.82927 0.09202 0.17073 0.0
Eu121 Eu 0.78638 0.95476 0.15103 0.0
C122 C 0.6949 0.00034 0.1611 0.0
C123 C 0.87843 0.2524 0.20551 0.0
C124 C 0.89759 0.31076 0.19488 0.0
C125 C 0.89867 0.29203 0.25571 0.0
C126 C 0.91699 0.35959 0.21452 0.0
C127 C 0.87926 0.24318 0.23601 0.0
C128 C 0.91737 0.35072 0.24518 0.0
C129 C 0.85436 0.20194 0.18428 0.0
O130 O 0.79759 0.00288 1.10576 0.0
O131 O 0.85278 0.10186 1.1215 0.0
C132 C 0.83116 0.06157 1.09972 0.0
O133 O 0.90712 0.0755 0.17618 0.0
O134 O 0.71301 0.87139 1.13231 0.0
O135 O 0.79216 0.87211 0.15126 0.0
O136 O 0.88389 0.01005 1.13748 0.0
C137 C 0.92424 0.05427 0.15396 0.0
O138 O 0.81474 0.04282 0.2156 0.0
O139 O 0.81743 0.95864 0.19894 0.0
O140 O 0.70941 0.96201 0.17217 0.0
O141 O 0.89245 0.18939 0.17088 0.0
O142 O 0.80333 0.15378 0.19086 0.0
O143 O 0.73753 0.04965 0.14963 0.0
C144 C 0.73442 0.79551 1.11579 0.0
C145 C 0.78324 0.80533 1.0978 0.0
C146 C 0.67178 0.69898 1.09109 0.0
C147 C 0.77623 0.76236 1.07643 0.0
C148 C 0.67897 0.74185 1.1126 0.0
C149 C 0.72023 0.70908 1.07263 0.0
C150 C 0.7398 0.84003 1.13815 0.0
C151 C 0.81881 -0.0064 0.22107 0.0
H152 H 0.89672 0.31842 0.17134 0.0
H153 H 0.89972 0.28393 0.27917 0.0
H154 H 0.93087 0.40408 0.20575 0.0
H155 H 0.86456 0.19834 0.24456 0.0
H156 H 0.82635 0.84655 1.09989 0.0
H157 H 0.62821 0.65847 1.08856 0.0
H158 H 0.81401 0.77207 1.06205 0.0
H159 H 0.64092 0.73352 1.12651 0.0
Eu160 Eu 0.92353 0.94126 0.50209 0.0
Eu161 Eu 0.89469 0.80459 0.49061 0.0
C162 C 0.79063 0.82854 0.5091 0.0
C163 C 0.9707 0.10871 0.52396 0.0
C164 C 0.96211 0.15552 0.51336 0.0
C165 C 0.01421 0.16593 0.5691 0.0
C166 C -0.0236 0.20588 0.53114 0.0
C167 C -0.00082 0.11506 0.55135 0.0
C168 C -0.00034 0.21015 0.55986 0.0
C169 C 0.94261 0.05151 0.50752 0.0
O170 O 0.86806 0.83303 0.44625 0.0
O171 O 0.92185 0.93564 0.45211 0.0
C172 C 0.88975 0.88824 0.43513 0.0
O173 O 0.01129 0.93937 0.50112 0.0
O174 O 0.83633 0.71373 0.47251 0.0
O175 O 0.91806 0.73349 0.49623 0.0
O176 O -0.01828 0.86256 0.46761 0.0
C177 C 0.02428 0.90908 0.48152 0.0
O178 O 0.93665 0.91507 0.54867 0.0
O179 O 0.94527 0.83186 0.53613 0.0
O180 O 0.81719 0.79812 0.51715 0.0
O181 O -0.02254 0.03751 0.49214 0.0
O182 O 0.89826 0.00494 0.52046 0.0
O183 O 0.82226 0.88072 0.49594 0.0
C184 C 0.89526 0.67402 0.45272 0.0
C185 C 0.95421 0.70895 0.44182 0.0
C186 C 0.86923 0.60994 0.40875 0.0
C187 C 0.96981 0.69602 0.41424 0.0
C188 C 0.85355 0.623 0.43654 0.0
C189 C 0.92677 0.64803 0.39669 0.0
C190 C 0.87537 0.69594 0.4784 0.0
C191 C 0.95222 0.87421 0.55578 0.0
H192 H 0.94036 0.15119 0.49212 0.0
H193 H 0.03345 0.16863 0.59085 0.0
H194 H 0.96415 0.23855 0.52328 0.0
H195 H 0.00659 0.07933 0.55965 0.0
H196 H -0.01262 0.74886 0.45366 0.0
H197 H 0.83522 0.57216 0.39601 0.0
H198 H 0.01423 0.72716 0.40574 0.0
H199 H 0.80785 0.59539 0.44456 0.0
Eu200 Eu 0.11677 0.928 0.83689 0.0
Eu201 Eu 0.25302 0.96375 0.8176 0.0
C202 C 0.16143 0.8291 0.83889 0.0
C203 C 0.95239 0.8387 0.86144 0.0
C204 C 0.96388 0.80798 0.88393 0.0
C205 C 0.8449 0.76906 0.86582 0.0
C206 C 0.91595 0.759 0.89787 0.0
C207 C 0.8929 0.81831 0.85204 0.0
C208 C 0.8558 0.73964 0.88933 0.0
C209 C 0.00208 0.88964 0.84632 0.0
O210 O 0.20502 0.93948 0.77134 0.0
O211 O 0.1102 0.91698 0.78674 0.0
C212 C 0.14758 0.92281 0.76523 0.0
O213 O 0.16232 0.02618 0.82314 0.0
O214 O 0.31951 0.93582 0.80765 0.0
O215 O 0.34895 0.03068 0.81507 0.0
O216 O 0.23926 0.03267 0.79399 0.0
C217 C 0.20324 0.05281 0.80237 0.0
O218 O 0.16368 0.97229 0.87993 0.0
O219 O 0.25928 -0.00797 0.86766 0.0
O220 O 0.20491 0.86316 0.82086 0.0
O221 O 0.04532 0.93062 0.86276 0.0
O222 O 0.02271 0.87465 0.82333 0.0
O223 O 0.12797 0.84881 0.85167 0.0
C224 C 0.40647 0.00702 0.78247 0.0
C225 C 0.46883 0.0422 0.78748 0.0
C226 C 0.42416 0.01167 0.7296 0.0
C227 C 0.50867 0.06366 0.76358 0.0
C228 C 0.38439 -0.00939 0.75347 0.0
C229 C 0.48651 0.04994 0.73438 0.0
C230 C 0.36491 -0.00909 0.80751 0.0
C231 C 0.22075 -0.00645 0.88718 0.0
H232 H 0.0098 0.82249 0.89101 0.0
H233 H 0.7992 0.75493 0.85856 0.0
H234 H 0.92601 0.73814 0.91622 0.0
H235 H 0.88354 0.84084 0.83419 0.0
H236 H 0.48646 0.05501 0.80982 0.0
H237 H 0.40554 0.0013 0.70737 0.0
H238 H 0.55644 0.0931 0.76785 0.0
H239 H 0.33627 0.96362 0.74924 0.0
H240 H 0.95891 0.07899 1.09606 0.0
H241 H 0.02432 0.12187 0.18622 0.0
H242 H 0.05322 0.16521 1.07845 0.0
H243 H 0.11785 0.20591 0.16899 0.0
H244 H 0.26992 0.23414 1.08673 0.0
H245 H 0.16293 0.19281 1.07743 0.0
H246 H 0.15583 0.3081 1.14616 0.0
H247 H 0.26163 0.34428 0.15759 0.0
C248 C -0.00599 0.10605 1.11198 0.0
C249 C -0.01516 0.09408 1.1425 0.0
C250 C 0.04719 0.15594 1.10197 0.0
C251 C 0.09157 0.1941 1.1224 0.0
C252 C 0.08326 0.17948 0.15271 0.0
C253 C 0.03045 0.1303 0.16262 0.0
C254 C 0.24646 0.25367 1.09855 0.0
C255 C 0.27191 0.28868 1.12423 0.0
C256 C 0.18483 0.22993 1.09312 0.0
C257 C 0.1507 0.2439 1.11284 0.0
C258 C 0.18116 0.29437 1.13179 0.0
C259 C 0.24196 0.31566 1.13823 0.0
H260 H 0.12089 0.94092 0.51687 0.0
H261 H 0.06831 0.93647 0.42568 0.0
H262 H 0.21547 0.03155 0.50771 0.0
H263 H 0.16341 0.02852 0.41632 0.0
H264 H 0.15612 0.19834 0.45958 0.0
H265 H 0.1392 0.10129 0.44151 0.0
H266 H 0.29714 0.1255 0.48945 0.0
H267 H 0.31305 0.22221 0.50824 0.0
C268 C 0.13159 0.95736 0.49435 0.0
C269 C 0.08694 0.93464 0.47234 0.0
C270 C 0.18618 0.00933 0.48888 0.0
C271 C 0.19397 0.03966 0.46191 0.0
C272 C 0.15668 0.00728 0.43777 0.0
C273 C 0.1021 0.95469 0.44313 0.0
C274 C 0.18734 0.18306 0.46613 0.0
C275 C 0.23405 0.21643 0.48634 0.0
C276 C 0.17881 0.1281 0.45513 0.0
C277 C 0.21704 0.1055 0.46407 0.0
C278 C 0.26689 0.14156 0.48229 0.0
C279 C 0.27501 0.19624 0.49355 0.0
H280 H 0.18528 0.03893 0.74322 0.0
H281 H 0.19794 0.15427 0.81661 0.0
H282 H 0.11027 0.0584 0.71945 0.0
H283 H 0.13101 0.18156 0.79063 0.0
H284 H 7e-05 0.20664 0.74388 0.0
H285 H 0.07248 0.18266 0.72105 0.0
H286 H 0.01748 0.0334 0.78092 0.0
H287 H 0.95317 0.06393 0.80704 0.0
C288 C 0.17528 0.07175 0.75323 0.0
C289 C 0.19425 0.09266 0.78235 0.0
C290 C 0.13313 0.08346 0.73933 0.0
C291 C 0.11428 0.12016 0.75369 0.0
C292 C 0.14495 0.15259 0.77938 0.0
C293 C 0.18329 0.13722 0.79429 0.0
C294 C 0.00139 0.16694 0.75135 0.0
C295 C 0.97505 0.13979 0.77849 0.0
C296 C 0.04224 0.15276 0.73782 0.0
C297 C 0.05202 0.10808 0.75024 0.0
C298 C 0.01119 0.06906 0.7715 0.0
C299 C 0.9743 0.08642 0.78656 0.0
H300 H 0.61849 0.42325 1.02601 0.0
H301 H 0.5366 0.53074 1.05152 0.0
H302 H 0.59109 0.42566 0.97481 0.0
H303 H 0.50373 0.52769 1.00089 0.0
H304 H 0.42033 0.49273 0.91287 0.0
H305 H 0.50353 0.53672 0.94875 0.0
H306 H 0.49073 0.36165 0.95868 0.0
H307 H 0.40934 0.31872 0.92298 0.0
C308 C 0.59641 0.44914 1.02073 0.0
C309 C 0.57686 0.47405 1.04323 0.0
C310 C 0.57984 0.44971 0.99128 0.0
C311 C 0.54228 0.47386 0.98396 0.0
C312 C 0.53143 0.50731 1.00566 0.0
C313 C 0.5496 0.50832 1.03493 0.0
C314 C 0.43625 0.46413 0.92242 0.0
C315 C 0.40777 0.40208 0.91537 0.0
C316 C 0.48401 0.48934 0.94288 0.0
C317 C 0.5038 0.45282 0.95684 0.0
C318 C 0.47789 0.39175 0.94809 0.0
C319 C 0.43061 0.36678 0.92763 0.0
H320 H 0.00842 0.53733 0.41024 0.0
H321 H 0.16122 0.54051 0.36655 0.0
H322 H 0.96013 0.52683 0.36214 0.0
H323 H 0.11382 0.53044 0.31921 0.0
H324 H 0.01516 0.46427 0.23918 0.0
H325 H 0.06204 0.54151 0.27777 0.0
H326 H 0.91684 0.42997 0.33738 0.0
H327 H 0.86897 0.35468 0.29854 0.0
C328 C 0.03275 0.53815 0.39038 0.0
C329 C 0.08739 0.53695 0.39231 0.0
C330 C 0.00512 0.53222 0.36283 0.0
C331 C 0.03188 0.52508 0.33694 0.0
C332 C 0.09135 0.5351 0.33862 0.0
C333 C 0.11883 0.54089 0.36606 0.0
C334 C -0.00781 0.45733 0.2602 0.0
C335 C 0.93938 0.40253 0.2662 0.0
C336 C 0.01915 0.50158 0.28234 0.0
C337 C -0.00594 0.49151 0.31091 0.0
C338 C 0.93766 0.43964 0.31571 0.0
C339 C 0.91066 0.39567 0.29359 0.0
H340 H 0.80059 0.30093 0.67024 0.0
H341 H -0.02042 0.4314 0.70106 0.0
H342 H 0.84466 0.28494 0.62534 0.0
H343 H 0.0227 0.41659 0.65572 0.0
H344 H 0.02512 0.32811 0.55137 0.0
H345 H -0.00481 0.38654 0.58417 0.0
H346 H 0.93698 0.24654 0.64975 0.0
H347 H 0.9644 0.18754 0.61738 0.0
C348 C 0.84883 0.32849 0.66676 0.0
C349 C 0.88669 0.366 0.68955 0.0
C350 C 0.87394 0.31961 0.64102 0.0
C351 C 0.93694 0.34885 0.63766 0.0
C352 C 0.97402 0.39348 0.6581 0.0
C353 C 0.94903 0.40209 0.68398 0.0
C354 C 0.00663 0.31023 0.57296 0.0
C355 C -0.00336 0.25276 0.58159 0.0
C356 C -0.01028 0.3437 0.59159 0.0
C357 C 0.96282 0.31994 0.61893 0.0
C358 C 0.95702 0.26502 0.62845 0.0
C359 C 0.97363 0.23171 0.61001 0.0
H360 H 0.62621 0.66114 1.03325 0.0
H361 H 0.79437 0.66631 1.0541 0.0
H362 H 0.62938 0.62612 0.9833 0.0
H363 H 0.79922 0.63406 1.00407 0.0
H364 H 0.84143 0.63505 0.91455 0.0
H365 H 0.77825 0.58491 0.95741 0.0
H366 H 0.69435 0.69644 0.94885 0.0
H367 H 0.75615 0.74518 0.9066 0.0
C368 C 0.66272 0.65261 1.02752 0.0
C369 C 0.71137 0.66869 1.04708 0.0
C370 C 0.66469 0.63277 0.99882 0.0
C371 C 0.71576 0.62975 0.98919 0.0
C372 C 0.75933 0.63638 1.01038 0.0
C373 C 0.75715 0.65579 1.03908 0.0
C374 C 0.80798 0.64726 0.92138 0.0
C375 C 0.80534 0.69561 0.90791 0.0
C376 C 0.77164 0.61839 0.94585 0.0
C377 C 0.7328 0.6381 0.95735 0.0
C378 C 0.72375 0.67987 0.94093 0.0
C379 C 0.75975 0.7084 0.91651 0.0
H380 H 0.03304 0.67105 0.36961 0.0
H381 H 0.84799 0.62263 0.35034 0.0
H382 H 0.06182 0.70969 0.31976 0.0
H383 H 0.87589 0.65683 0.29987 0.0
H384 H 0.97005 0.8432 0.25342 0.0
H385 H 0.92605 0.76055 0.28796 0.0
H386 H 0.06491 0.71492 0.26717 0.0
H387 H 0.10973 0.79918 0.23246 0.0
C388 C -0.00197 0.66653 0.35442 0.0
C389 C 0.93882 0.64649 0.36449 0.0
C390 C 0.01443 0.6881 0.32559 0.0
C391 C 0.97156 0.68892 0.30617 0.0
C392 C 0.91048 0.65915 0.3147 0.0
C393 C 0.89429 0.63858 0.34366 0.0
C394 C -0.00969 0.81459 0.25548 0.0
C395 C 0.04375 0.82822 0.24038 0.0
C396 C 0.9648 0.76665 0.27528 0.0
C397 C -0.00814 0.73077 0.28049 0.0
C398 C 0.04331 0.74206 0.264 0.0
C399 C 0.06907 0.79041 0.24419 0.0
H400 H 0.56498 0.17046 0.73178 0.0
H401 H 0.49394 0.00607 0.67974 0.0
H402 H 0.59819 0.22971 0.68719 0.0
H403 H 0.52898 0.0658 0.63459 0.0
H404 H 0.45783 0.17511 0.58055 0.0
H405 H 0.47717 0.11321 0.61437 0.0
H406 H 0.6454 0.2696 0.64118 0.0
H407 H 0.62399 0.33243 0.60812 0.0
C408 C 0.5592 0.14699 0.71086 0.0
C409 C 0.52525 0.08365 0.70911 0.0
C410 C 0.5785 0.18114 0.6851 0.0
C411 C 0.56437 0.15246 0.65715 0.0
C412 C 0.53874 0.08917 0.65576 0.0
C413 C 0.51881 0.05495 0.68157 0.0
C414 C 0.49927 0.19617 0.59344 0.0
C415 C 0.5383 0.25887 0.5925 0.0
C416 C 0.51112 0.16041 0.61247 0.0
C417 C 0.56255 0.18653 0.63094 0.0
C418 C 0.60483 0.24829 0.62767 0.0
C419 C 0.5927 0.28424 0.60866 0.0
H420 H 0.36145 0.01821 0.15091 0.0
H421 H 0.47704 0.13531 0.22071 0.0
H422 H 0.42425 0.96996 1.14746 0.0
H423 H 0.53854 0.0858 0.2178 0.0
H424 H 0.62416 0.96391 0.21055 0.0
H425 H 0.53502 0.97546 0.22001 0.0
H426 H 0.54239 0.03562 1.13017 0.0
H427 H 0.63228 0.02637 1.12115 0.0
C428 C 0.39881 0.03202 0.16628 0.0
C429 C 0.41475 0.08079 0.18594 0.0
C430 C 0.43472 0.00451 0.16423 0.0
C431 C 0.48606 0.02428 0.18236 0.0
C432 C 0.49883 0.0694 0.20378 0.0
C433 C 0.46386 0.09788 0.20534 0.0
C434 C 0.60551 0.97793 0.19268 0.0
C435 C 0.63474 -0.0057 0.16514 0.0
C436 C 0.55485 -0.0153 0.1981 0.0
C437 C 0.53188 0.00609 0.17575 0.0
C438 C 0.55878 0.0183 1.14763 0.0
C439 C 0.61023 0.01325 1.14251 0.0
H440 H 0.40546 0.58906 0.54142 0.0
H441 H 0.44209 0.58912 0.44819 0.0
H442 H 0.50486 0.67924 0.54862 0.0
H443 H 0.5405 0.67954 0.45507 0.0
H444 H 0.71469 0.85065 0.47488 0.0
H445 H 0.60422 0.7902 0.47197 0.0
H446 H 0.60525 0.67883 0.54345 0.0
H447 H 0.71528 0.73842 0.54607 0.0
C448 C 0.43337 0.61036 0.52224 0.0
C449 C 0.41598 0.58278 0.49419 0.0
C450 C 0.49056 0.66142 0.5264 0.0
C451 C 0.53072 0.68617 0.50245 0.0
C452 C 0.51052 0.66198 0.47392 0.0
C453 C 0.45401 0.61037 0.46991 0.0
C454 C 0.69118 0.81413 0.49041 0.0
C455 C 0.72373 0.799 0.51057 0.0
C456 C 0.62797 0.77946 0.48868 0.0
C457 C 0.596 0.72982 0.5075 0.0
C458 C 0.62841 0.71722 0.52889 0.0
C459 C 0.69153 0.75108 0.53024 0.0
H460 H 0.18935 0.49966 0.84271 0.0
H461 H 0.01223 0.44804 0.87746 0.0
H462 H 0.21343 0.60544 0.84283 0.0
H463 H 0.03473 0.55211 0.87615 0.0
H464 H 0.09819 0.75172 0.88433 0.0
H465 H 0.08589 0.65159 0.89362 0.0
H466 H 0.18814 0.66646 0.81449 0.0
H467 H 0.20246 0.76661 0.80613 0.0
C468 C 0.15586 0.51087 0.85068 0.0
C469 C 0.09876 0.46517 0.85981 0.0
C470 C 0.16928 0.57148 0.85044 0.0
C471 C 0.12568 0.58767 0.85903 0.0
C472 C 0.06983 0.54206 0.86962 0.0
C473 C 0.05674 0.48189 0.87017 0.0
C474 C 0.11804 0.73347 0.86902 0.0
C475 C 0.15128 0.76726 0.84453 0.0
C476 C 0.11099 0.67595 0.87427 0.0
C477 C 0.13632 0.65057 0.85492 0.0
C478 C 0.16926 0.68464 0.83039 0.0
C479 C 0.17691 0.74213 0.82538 0.0
H480 H 0.25077 0.18905 0.26527 0.0
H481 H 0.43555 0.33174 0.25787 0.0
H482 H 0.24494 0.22563 0.31493 0.0
H483 H 0.43032 0.36715 0.30817 0.0
H484 H 0.41062 0.36462 0.41376 0.0
H485 H 0.41851 0.33284 0.36318 0.0
H486 H 0.2465 0.31717 0.34119 0.0
H487 H 0.23959 0.35101 0.39149 0.0
C488 C 0.29053 0.22809 0.27418 0.0
C489 C 0.34375 0.25697 0.25695 0.0
C490 C 0.28701 0.24944 0.30288 0.0
C491 C 0.33705 0.29978 0.31618 0.0
C492 C 0.39064 0.32821 0.29915 0.0
C493 C 0.39364 0.30785 0.27003 0.0
C494 C 0.37458 0.35508 0.39816 0.0
C495 C 0.32459 0.36123 0.40726 0.0
C496 C 0.37922 0.33679 0.36887 0.0
C497 C 0.33321 0.32194 0.34749 0.0
C498 C 0.283 0.32768 0.35666 0.0
C499 C 0.27917 0.34764 0.38571 0.0
H500 H 0.1396 0.34369 0.57737 0.0
H501 H 0.31585 0.40273 0.61501 0.0
H502 H 0.09708 0.33194 0.62691 0.0
H503 H 0.2732 0.39108 0.6649 0.0
H504 H 0.17129 0.30952 0.75203 0.0
H505 H 0.21423 0.32549 0.70274 0.0
H506 H 0.08246 0.37229 0.67165 0.0
H507 H 0.03868 0.35587 0.7217 0.0
C508 C 0.16975 0.35435 0.59616 0.0
C509 C 0.23189 0.37421 0.59141 0.0
C510 C 0.14496 0.34782 0.625 0.0
C511 C 0.18066 0.3601 0.65087 0.0
C512 C 0.24298 0.38004 0.64612 0.0
C513 C 0.26799 0.38717 0.61716 0.0
C514 C 0.1512 0.32376 0.73496 0.0
C515 C 0.10105 0.33165 0.74177 0.0
C516 C 0.17657 0.3334 0.70621 0.0
C517 C 0.1531 0.35102 0.68227 0.0
C518 C 0.10255 0.35869 0.68893 0.0
C519 C 0.07735 0.34963 0.71801 0.0
H520 H 0.0393 0.25407 0.94068 0.0
H521 H 0.8575 0.15649 0.90627 0.0
H522 H 0.00329 0.21066 0.98936 0.0
H523 H 0.82098 0.11244 0.95553 0.0
H524 H 0.78627 0.00198 1.04497 0.0
H525 H 0.81787 0.04204 0.99459 0.0
H526 H 0.94929 0.21402 1.03184 0.0
H527 H 0.91804 0.17453 1.08148 0.0
C528 C -0.00865 0.2234 0.94334 0.0
C529 C 0.95178 0.20964 0.91887 0.0
C530 C 0.97037 0.19838 0.9717 0.0
C531 C 0.90863 0.15759 0.97721 0.0
C532 C 0.86885 0.1431 0.95267 0.0
C533 C 0.88989 0.16891 0.9242 0.0
C534 C 0.82185 0.04839 1.04246 0.0
C535 C 0.84903 0.08449 1.06796 0.0
C536 C 0.83997 0.07173 1.01332 0.0
C537 C 0.88682 0.13184 1.0084 0.0
C538 C 0.9138 0.16749 1.034 0.0
C539 C 0.89525 0.1446 1.0629 0.0
H540 H 0.82965 0.05422 0.27464 0.0
H541 H 0.82634 0.89408 0.2401 0.0
H542 H 0.84381 0.02691 0.32473 0.0
H543 H 0.84155 0.86725 0.28993 0.0
H544 H 0.82426 0.8071 0.38865 0.0
H545 H 0.80524 0.83068 0.33832 0.0
H546 H 0.9103 0.02124 0.35858 0.0
H547 H 0.92824 -0.00208 0.40823 0.0
C548 C 0.83195 0.01315 0.27755 0.0
C549 C 0.82667 0.97681 0.25266 0.0
C550 C 0.8406 -0.00261 0.30658 0.0
C551 C 0.84431 0.94442 0.31223 0.0
C552 C 0.83838 0.90788 0.28728 0.0
C553 C 0.82993 0.92373 0.25829 0.0
C554 C 0.84338 0.85404 0.3824 0.0
C555 C 0.87792 0.90016 0.40324 0.0
C556 C 0.83262 0.86786 0.35321 0.0
C557 C 0.85557 0.92841 0.3436 0.0
C558 C 0.89032 0.9741 0.36454 0.0
C559 C 0.90119 0.96039 0.39343 0.0
H560 H 0.01458 0.81669 0.57703 0.0
H561 H 0.95864 0.94434 0.60437 0.0
H562 H 0.06408 0.82856 0.62545 0.0
H563 H 0.00747 0.956 0.65234 0.0
H564 H 0.04256 0.91872 0.74716 0.0
H565 H -0.00142 0.90631 0.69825 0.0
H566 H 0.14864 0.89566 0.66031 0.0
H567 H 0.19376 0.90868 0.71022 0.0
C568 C 0.01227 0.84705 0.59328 0.0
C569 C -0.01863 0.87893 0.58622 0.0
C570 C 0.04143 0.85435 0.62124 0.0
C571 C 0.04031 0.89321 0.64363 0.0
C572 C 0.00931 0.92489 0.63641 0.0
C573 C -0.01897 0.91824 0.60848 0.0
C574 C 0.0668 0.91355 0.72866 0.0
C575 C 0.12235 0.91451 0.7335 0.0
C576 C 0.04131 0.90687 0.70009 0.0
C577 C 0.06928 0.89996 0.67448 0.0
C578 C 0.12477 0.90032 0.67911 0.0
C579 C 0.15108 0.90809 0.70796 0.0
H580 H 0.15678 0.01785 0.92928 0.0
H581 H 0.331 0.03115 0.91734 0.0
H582 H 0.18515 0.05919 0.97889 0.0
H583 H 0.3593 0.07093 0.96817 0.0
H584 H 0.41065 0.18119 1.05782 0.0
H585 H 0.3882 0.14421 1.00626 0.0
H586 H 0.19801 0.04625 1.02708 0.0
H587 H 0.22024 0.08462 1.07733 0.0
C588 C 0.2013 0.02897 0.93723 0.0
C589 C 0.24096 0.02009 0.91854 0.0
C590 C 0.21777 0.05266 0.96636 0.0
C591 C 0.2748 0.06838 0.97892 0.0
C592 C 0.31506 0.06025 0.96006 0.0
C593 C 0.29859 0.03682 0.93058 0.0
C594 C 0.36399 0.15195 1.05136 0.0
C595 C 0.31761 0.13679 1.07247 0.0
C596 C 0.35084 0.13012 1.02148 0.0
C597 C 0.29067 0.09194 1.01128 0.0
C598 C 0.24485 0.07648 1.03276 0.0
C599 C 0.25788 0.09847 1.06228 0.0
loop_
_geom_bond_atom_site_label_1
_geom_bond_atom_site_label_2
_geom_bond_distance
_geom_bond_site_symmetry_2
_ccdc_geom_bond_type
Eu0 C9 2.828 . S
Eu0 O11 2.392 1_554 S
Eu0 O13 2.418 . S
Eu0 O18 2.373 . S
Eu0 O21 2.488 . S
Eu0 O22 2.471 . S
Eu0 O23 2.349 . S
Eu1 O10 2.373 . S
Eu1 O14 2.488 . S
Eu1 O15 2.471 . S
Eu1 O16 2.345 1_556 S
Eu1 O19 2.392 1_556 S
Eu1 O20 2.418 . S
Eu1 C30 2.828 . S
C2 O20 1.244 1_554 S
C2 O23 1.265 . S
C3 C4 1.379 . S
C3 C7 1.373 . S
C3 C9 1.505 . S
C4 C3 1.379 . S
C4 C6 1.369 . S
C4 H32 0.930 . S
C5 C7 1.383 . S
C5 C8 1.382 . S
C5 H33 0.930 . S
C6 C4 1.369 . S
C6 C8 1.392 . S
C6 H34 0.930 . S
C7 C3 1.373 . S
C7 C5 1.383 . S
C7 H35 0.931 . S
C8 C5 1.382 . S
C8 C6 1.392 . S
C9 Eu0 2.828 . S
C9 C3 1.505 . S
C9 O21 1.249 . S
C9 O22 1.244 . S
O10 Eu1 2.373 . S
O10 C12 1.258 . S
O11 Eu0 2.392 1_556 S
O11 C12 1.242 . S
C12 O10 1.258 . S
C12 O11 1.242 . S
O13 Eu0 2.418 . S
O13 C17 1.244 . S
O14 Eu1 2.488 . S
O14 C30 1.249 . S
O15 Eu1 2.471 . S
O15 C30 1.244 . S
O16 Eu1 2.345 1_554 S
O16 C17 1.270 . S
C17 O13 1.244 . S
C17 O16 1.270 . S
O18 Eu0 2.373 . S
O18 C31 1.258 . S
O19 Eu1 2.392 1_554 S
O19 C31 1.242 . S
O20 Eu1 2.418 . S
O20 C2 1.244 1_556 S
O21 Eu0 2.488 . S
O21 C9 1.249 . S
O22 Eu0 2.471 . S
O22 C9 1.244 . S
O23 Eu0 2.349 . S
O23 C2 1.265 . S
C24 C25 1.379 . S
C24 C28 1.373 . S
C24 C30 1.505 . S
C25 C24 1.379 . S
C25 C27 1.369 . S
C25 H36 0.930 . S
C26 C28 1.383 . S
C26 C29 1.382 . S
C26 H37 0.930 . S
C27 C25 1.369 . S
C27 C29 1.392 . S
C27 H38 0.930 . S
C28 C24 1.373 . S
C28 C26 1.383 . S
C28 H39 0.931 . S
C29 C26 1.382 . S
C29 C27 1.392 . S
C30 Eu1 2.828 . S
C30 O14 1.249 . S
C30 O15 1.244 . S
C30 C24 1.505 . S
C31 O18 1.258 . S
C31 O19 1.242 . S
H32 C4 0.930 . S
H33 C5 0.930 . S
H34 C6 0.930 . S
H35 C7 0.931 . S
H36 C25 0.930 . S
H37 C26 0.930 . S
H38 C27 0.930 . S
H39 C28 0.931 . S
Eu40 C49 2.828 . S
Eu40 O51 2.392 . S
Eu40 O53 2.418 . S
Eu40 O58 2.373 . S
Eu40 O61 2.488 . S
Eu40 O62 2.471 . S
Eu40 O63 2.349 . S
Eu41 O50 2.373 . S
Eu41 O54 2.488 . S
Eu41 O55 2.471 . S
Eu41 O56 2.349 . S
Eu41 O59 2.392 . S
Eu41 O60 2.418 . S
Eu41 C70 2.828 . S
C42 O60 1.244 . S
C42 O63 1.265 . S
C43 C44 1.379 . S
C43 C47 1.373 . S
C43 C49 1.505 . S
C44 C43 1.379 . S
C44 C46 1.369 . S
C44 H72 0.930 . S
C45 C47 1.383 . S
C45 C48 1.382 . S
C45 H73 0.930 . S
C46 C44 1.369 . S
C46 C48 1.392 . S
C46 H74 0.930 . S
C47 C43 1.373 . S
C47 C45 1.383 . S
C47 H75 0.931 . S
C48 C45 1.382 . S
C48 C46 1.392 . S
C49 Eu40 2.828 . S
C49 C43 1.505 . S
C49 O61 1.249 . S
C49 O62 1.244 . S
O50 Eu41 2.373 . S
O50 C52 1.258 . S
O51 Eu40 2.392 . S
O51 C52 1.242 . S
C52 O50 1.258 . S
C52 O51 1.242 . S
O53 Eu40 2.418 . S
O53 C57 1.244 . S
O54 Eu41 2.488 . S
O54 C70 1.249 . S
O55 Eu41 2.471 . S
O55 C70 1.244 . S
O56 Eu41 2.349 . S
O56 C57 1.265 . S
C57 O53 1.244 . S
C57 O56 1.265 . S
O58 Eu40 2.373 . S
O58 C71 1.258 . S
O59 Eu41 2.392 . S
O59 C71 1.242 . S
O60 Eu41 2.418 . S
O60 C42 1.244 . S
O61 Eu40 2.488 . S
O61 C49 1.249 . S
O62 Eu40 2.471 . S
O62 C49 1.244 . S
O63 Eu40 2.349 . S
O63 C42 1.265 . S
C64 C65 1.379 . S
C64 C68 1.373 . S
C64 C70 1.505 . S
C65 C64 1.379 . S
C65 C67 1.369 . S
C65 H76 0.930 . S
C66 C68 1.383 . S
C66 C69 1.382 . S
C66 H77 0.930 . S
C67 C65 1.369 . S
C67 C69 1.392 . S
C67 H78 0.930 . S
C68 C64 1.373 . S
C68 C66 1.383 . S
C68 H79 0.931 . S
C69 C66 1.382 . S
C69 C67 1.392 . S
C70 Eu41 2.828 . S
C70 O54 1.249 . S
C70 O55 1.244 . S
C70 C64 1.505 . S
C71 O58 1.258 . S
C71 O59 1.242 . S
H72 C44 0.930 . S
H73 C45 0.930 . S
H74 C46 0.930 . S
H75 C47 0.931 . S
H76 C65 0.930 . S
H77 C66 0.930 . S
H78 C67 0.930 . S
H79 C68 0.931 . S
Eu80 C89 2.828 . S
Eu80 O91 2.392 . S
Eu80 O93 2.418 . S
Eu80 O98 2.373 . S
Eu80 O101 2.488 . S
Eu80 O102 2.471 . S
Eu80 O103 2.349 . S
Eu81 O90 2.373 1_655 S
Eu81 O94 2.488 . S
Eu81 O95 2.471 . S
Eu81 O96 2.349 . S
Eu81 O99 2.392 . S
Eu81 O100 2.418 . S
Eu81 C110 2.828 . S
C82 O100 1.244 . S
C82 O103 1.265 1_655 S
C83 C84 1.379 . S
C83 C87 1.373 . S
C83 C89 1.505 . S
C84 C83 1.379 . S
C84 C86 1.369 . S
C84 H112 0.930 . S
C85 C87 1.383 . S
C85 C88 1.382 . S
C85 H113 0.930 . S
C86 C84 1.369 . S
C86 C88 1.392 . S
C86 H114 0.930 . S
C87 C83 1.373 . S
C87 C85 1.383 . S
C87 H115 0.931 . S
C88 C85 1.382 . S
C88 C86 1.392 . S
C89 Eu80 2.828 . S
C89 C83 1.505 . S
C89 O101 1.249 . S
C89 O102 1.244 . S
O90 Eu81 2.373 1_455 S
O90 C92 1.258 . S
O91 Eu80 2.392 . S
O91 C92 1.242 . S
C92 O90 1.258 . S
C92 O91 1.242 . S
O93 Eu80 2.418 . S
O93 C97 1.244 . S
O94 Eu81 2.488 . S
O94 C110 1.249 . S
O95 Eu81 2.471 . S
O95 C110 1.244 . S
O96 Eu81 2.349 . S
O96 C97 1.265 1_655 S
C97 O93 1.244 . S
C97 O96 1.265 1_455 S
O98 Eu80 2.373 . S
O98 C111 1.258 1_455 S
O99 Eu81 2.392 . S
O99 C111 1.242 . S
O100 Eu81 2.418 . S
O100 C82 1.244 . S
O101 Eu80 2.488 . S
O101 C89 1.249 . S
O102 Eu80 2.471 . S
O102 C89 1.244 . S
O103 Eu80 2.349 . S
O103 C82 1.265 1_455 S
C104 C105 1.379 . S
C104 C108 1.373 . S
C104 C110 1.505 . S
C105 C104 1.379 . S
C105 C107 1.369 . S
C105 H116 0.930 . S
C106 C108 1.383 . S
C106 C109 1.382 . S
C106 H117 0.930 . S
C107 C105 1.369 . S
C107 C109 1.392 . S
C107 H118 0.930 . S
C108 C104 1.373 . S
C108 C106 1.383 . S
C108 H119 0.931 . S
C109 C106 1.382 . S
C109 C107 1.392 . S
C110 Eu81 2.828 . S
C110 O94 1.249 . S
C110 O95 1.244 . S
C110 C104 1.505 . S
C111 O98 1.258 1_655 S
C111 O99 1.242 . S
H112 C84 0.930 . S
H113 C85 0.930 . S
H114 C86 0.930 . S
H115 C87 0.931 . S
H116 C105 0.930 . S
H117 C106 0.930 . S
H118 C107 0.930 . S
H119 C108 0.931 . S
Eu120 C129 2.828 . S
Eu120 O131 2.392 1_554 S
Eu120 O133 2.418 . S
Eu120 O138 2.373 . S
Eu120 O141 2.488 . S
Eu120 O142 2.471 . S
Eu120 O143 2.349 . S
Eu121 O130 2.373 1_565 S
Eu121 O134 2.488 . S
Eu121 O135 2.471 . S
Eu121 O136 2.345 1_566 S
Eu121 O139 2.392 1_556 S
Eu121 O140 2.418 . S
Eu121 C150 2.828 . S
C122 O140 1.244 1_554 S
C122 O143 1.265 1_565 S
C123 C124 1.379 . S
C123 C127 1.373 . S
C123 C129 1.505 . S
C124 C123 1.379 . S
C124 C126 1.369 . S
C124 H152 0.930 . S
C125 C127 1.383 . S
C125 C128 1.382 . S
C125 H153 0.930 . S
C126 C124 1.369 . S
C126 C128 1.392 . S
C126 H154 0.930 . S
C127 C123 1.373 . S
C127 C125 1.383 . S
C127 H155 0.931 . S
C128 C125 1.382 . S
C128 C126 1.392 . S
C129 Eu120 2.828 . S
C129 C123 1.505 . S
C129 O141 1.249 . S
C129 O142 1.244 . S
O130 Eu121 2.373 1_545 S
O130 C132 1.258 . S
O131 Eu120 2.392 1_556 S
O131 C132 1.242 . S
C132 O130 1.258 . S
C132 O131 1.242 . S
O133 Eu120 2.418 . S
O133 C137 1.244 . S
O134 Eu121 2.488 . S
O134 C150 1.249 . S
O135 Eu121 2.471 . S
O135 C150 1.244 . S
O136 Eu121 2.345 1_544 S
O136 C137 1.270 . S
C137 O133 1.244 . S
C137 O136 1.270 . S
O138 Eu120 2.373 . S
O138 C151 1.258 1_545 S
O139 Eu121 2.392 1_554 S
O139 C151 1.242 . S
O140 Eu121 2.418 . S
O140 C122 1.244 1_556 S
O141 Eu120 2.488 . S
O141 C129 1.249 . S
O142 Eu120 2.471 . S
O142 C129 1.244 . S
O143 Eu120 2.349 . S
O143 C122 1.265 1_545 S
C144 C145 1.379 . S
C144 C148 1.373 . S
C144 C150 1.505 . S
C145 C144 1.379 . S
C145 C147 1.369 . S
C145 H156 0.930 . S
C146 C148 1.383 . S
C146 C149 1.382 . S
C146 H157 0.930 . S
C147 C145 1.369 . S
C147 C149 1.392 . S
C147 H158 0.930 . S
C148 C144 1.373 . S
C148 C146 1.383 . S
C148 H159 0.931 . S
C149 C146 1.382 . S
C149 C147 1.392 . S
C150 Eu121 2.828 . S
C150 O134 1.249 . S
C150 O135 1.244 . S
C150 C144 1.505 . S
C151 O138 1.258 1_565 S
C151 O139 1.242 . S
H152 C124 0.930 . S
H153 C125 0.930 . S
H154 C126 0.930 . S
H155 C127 0.931 . S
H156 C145 0.930 . S
H157 C146 0.930 . S
H158 C147 0.930 . S
H159 C148 0.931 . S
Eu160 C169 2.828 . S
Eu160 O171 2.392 . S
Eu160 O173 2.418 1_655 S
Eu160 O178 2.373 . S
Eu160 O181 2.488 . S
Eu160 O182 2.471 . S
Eu160 O183 2.349 . S
Eu161 O170 2.373 1_455 S
Eu161 O174 2.488 . S
Eu161 O175 2.471 . S
Eu161 O176 2.349 . S
Eu161 O179 2.392 . S
Eu161 O180 2.418 1_455 S
Eu161 C190 2.828 . S
C162 O180 1.244 . S
C162 O183 1.265 . S
C163 C164 1.379 . S
C163 C167 1.373 . S
C163 C169 1.505 . S
C164 C163 1.379 . S
C164 C166 1.369 . S
C164 H192 0.930 . S
C165 C167 1.383 . S
C165 C168 1.382 . S
C165 H193 0.930 . S
C166 C164 1.369 . S
C166 C168 1.392 . S
C166 H194 0.930 . S
C167 C163 1.373 . S
C167 C165 1.383 . S
C167 H195 0.931 . S
C168 C165 1.382 . S
C168 C166 1.392 . S
C169 Eu160 2.828 . S
C169 C163 1.505 . S
C169 O181 1.249 . S
C169 O182 1.244 . S
O170 Eu161 2.373 1_655 S
O170 C172 1.258 . S
O171 Eu160 2.392 . S
O171 C172 1.242 . S
C172 O170 1.258 . S
C172 O171 1.242 . S
O173 Eu160 2.418 1_455 S
O173 C177 1.244 . S
O174 Eu161 2.488 . S
O174 C190 1.249 . S
O175 Eu161 2.471 . S
O175 C190 1.244 . S
O176 Eu161 2.349 . S
O176 C177 1.265 . S
C177 O173 1.244 . S
C177 O176 1.265 . S
O178 Eu160 2.373 . S
O178 C191 1.258 1_655 S
O179 Eu161 2.392 . S
O179 C191 1.242 . S
O180 Eu161 2.418 1_655 S
O180 C162 1.244 . S
O181 Eu160 2.488 . S
O181 C169 1.249 . S
O182 Eu160 2.471 . S
O182 C169 1.244 . S
O183 Eu160 2.349 . S
O183 C162 1.265 . S
C184 C185 1.379 . S
C184 C188 1.373 . S
C184 C190 1.505 . S
C185 C184 1.379 . S
C185 C187 1.369 . S
C185 H196 0.930 . S
C186 C188 1.383 . S
C186 C189 1.382 . S
C186 H197 0.930 . S
C187 C185 1.369 . S
C187 C189 1.392 . S
C187 H198 0.930 . S
C188 C184 1.373 . S
C188 C186 1.383 . S
C188 H199 0.931 . S
C189 C186 1.382 . S
C189 C187 1.392 . S
C190 Eu161 2.828 . S
C190 O174 1.249 . S
C190 O175 1.244 . S
C190 C184 1.505 . S
C191 O178 1.258 1_455 S
C191 O179 1.242 . S
H192 C164 0.930 . S
H193 C165 0.930 . S
H194 C166 0.930 . S
H195 C167 0.931 . S
H196 C185 0.930 . S
H197 C186 0.930 . S
H198 C187 0.930 . S
H199 C188 0.931 . S
Eu200 C209 2.828 . S
Eu200 O211 2.392 . S
Eu200 O213 2.418 1_565 S
Eu200 O218 2.373 . S
Eu200 O221 2.488 . S
Eu200 O222 2.471 . S
Eu200 O223 2.349 . S
Eu201 O210 2.373 1_545 S
Eu201 O214 2.488 . S
Eu201 O215 2.471 . S
Eu201 O216 2.349 . S
Eu201 O219 2.392 . S
Eu201 O220 2.418 1_545 S
Eu201 C230 2.828 . S
C202 O220 1.244 . S
C202 O223 1.265 . S
C203 C204 1.379 . S
C203 C207 1.373 . S
C203 C209 1.505 . S
C204 C203 1.379 . S
C204 C206 1.369 . S
C204 H232 0.930 . S
C205 C207 1.383 . S
C205 C208 1.382 . S
C205 H233 0.930 . S
C206 C204 1.369 . S
C206 C208 1.392 . S
C206 H234 0.930 . S
C207 C203 1.373 . S
C207 C205 1.383 . S
C207 H235 0.931 . S
C208 C205 1.382 . S
C208 C206 1.392 . S
C209 Eu200 2.828 . S
C209 C203 1.505 . S
C209 O221 1.249 . S
C209 O222 1.244 . S
O210 Eu201 2.373 1_565 S
O210 C212 1.258 . S
O211 Eu200 2.392 . S
O211 C212 1.242 . S
C212 O210 1.258 . S
C212 O211 1.242 . S
O213 Eu200 2.418 1_545 S
O213 C217 1.244 . S
O214 Eu201 2.488 . S
O214 C230 1.249 . S
O215 Eu201 2.471 . S
O215 C230 1.244 . S
O216 Eu201 2.349 . S
O216 C217 1.265 . S
C217 O213 1.244 . S
C217 O216 1.265 . S
O218 Eu200 2.373 . S
O218 C231 1.258 1_565 S
O219 Eu201 2.392 . S
O219 C231 1.242 . S
O220 Eu201 2.418 1_565 S
O220 C202 1.244 . S
O221 Eu200 2.488 . S
O221 C209 1.249 . S
O222 Eu200 2.471 . S
O222 C209 1.244 . S
O223 Eu200 2.349 . S
O223 C202 1.265 . S
C224 C225 1.379 . S
C224 C228 1.373 . S
C224 C230 1.505 . S
C225 C224 1.379 . S
C225 C227 1.369 . S
C225 H236 0.930 . S
C226 C228 1.383 . S
C226 C229 1.382 . S
C226 H237 0.930 . S
C227 C225 1.369 . S
C227 C229 1.392 . S
C227 H238 0.930 . S
C228 C224 1.373 . S
C228 C226 1.383 . S
C228 H239 0.931 . S
C229 C226 1.382 . S
C229 C227 1.392 . S
C230 Eu201 2.828 . S
C230 O214 1.249 . S
C230 O215 1.244 . S
C230 C224 1.505 . S
C231 O218 1.258 1_545 S
C231 O219 1.242 . S
H232 C204 0.930 . S
H233 C205 0.930 . S
H234 C206 0.930 . S
H235 C207 0.931 . S
H236 C225 0.930 . S
H237 C226 0.930 . S
H238 C227 0.930 . S
H239 C228 0.931 . S
H240 C248 0.950 . S
H241 C253 0.950 1_665 S
H242 C250 0.950 . S
H243 C252 0.950 . S
H244 C254 0.950 . S
H245 C256 0.950 . S
H246 C258 0.950 . S
H247 C259 0.950 . S
C248 H240 0.950 . S
C248 C249 1.386 . S
C248 C250 1.391 1_655 S
C249 C248 1.386 . S
C249 C253 1.393 1_654 S
C250 H242 0.950 . S
C250 C248 1.391 1_455 S
C250 C251 1.400 . S
C251 C250 1.400 . S
C251 C252 1.398 1_554 S
C251 C257 1.491 . S
C252 H243 0.950 . S
C252 C251 1.398 1_556 S
C252 C253 1.391 . S
C253 H241 0.950 1_445 S
C253 C249 1.393 1_456 S
C253 C252 1.391 . S
C254 H244 0.950 . S
C254 C255 1.386 1_556 S
C254 C256 1.391 . S
C255 C254 1.386 1_554 S
C255 C259 1.393 . S
C256 H245 0.950 . S
C256 C254 1.391 . S
C256 C257 1.400 1_556 S
C257 C251 1.491 . S
C257 C256 1.400 1_554 S
C257 C258 1.398 . S
C258 H246 0.950 . S
C258 C257 1.398 . S
C258 C259 1.391 . S
C259 H247 0.950 . S
C259 C255 1.393 . S
C259 C258 1.391 . S
H260 C268 0.950 . S
H261 C273 0.950 . S
H262 C270 0.950 . S
H263 C272 0.950 . S
H264 C274 0.950 . S
H265 C276 0.950 . S
H266 C278 0.950 . S
H267 C279 0.950 . S
C268 H260 0.950 . S
C268 C269 1.386 . S
C268 C270 1.391 1_565 S
C269 C268 1.386 . S
C269 C273 1.393 1_565 S
C270 H262 0.950 . S
C270 C268 1.391 1_545 S
C270 C271 1.400 . S
C271 C270 1.400 . S
C271 C272 1.398 . S
C271 C277 1.491 . S
C272 H263 0.950 . S
C272 C271 1.398 . S
C272 C273 1.391 . S
C273 H261 0.950 . S
C273 C269 1.393 1_545 S
C273 C272 1.391 . S
C274 H264 0.950 . S
C274 C275 1.386 . S
C274 C276 1.391 . S
C275 C274 1.386 . S
C275 C279 1.393 . S
C276 H265 0.950 . S
C276 C274 1.391 . S
C276 C277 1.400 . S
C277 C271 1.491 . S
C277 C276 1.400 . S
C277 C278 1.398 . S
C278 H266 0.950 . S
C278 C277 1.398 . S
C278 C279 1.391 . S
C279 H267 0.950 . S
C279 C275 1.393 . S
C279 C278 1.391 . S
H280 C288 0.950 . S
H281 C293 0.950 . S
H282 C290 0.950 . S
H283 C292 0.950 . S
H284 C294 0.950 . S
H285 C296 0.950 . S
H286 C298 0.950 . S
H287 C299 0.950 . S
C288 H280 0.950 . S
C288 C289 1.386 . S
C288 C290 1.391 . S
C289 C288 1.386 . S
C289 C293 1.393 . S
C290 H282 0.950 . S
C290 C288 1.391 . S
C290 C291 1.400 . S
C291 C290 1.400 . S
C291 C292 1.398 . S
C291 C297 1.491 . S
C292 H283 0.950 . S
C292 C291 1.398 . S
C292 C293 1.391 . S
C293 H281 0.950 . S
C293 C289 1.393 . S
C293 C292 1.391 . S
C294 H284 0.950 . S
C294 C295 1.386 . S
C294 C296 1.391 . S
C295 C294 1.386 . S
C295 C299 1.393 1_455 S
C296 H285 0.950 . S
C296 C294 1.391 . S
C296 C297 1.400 . S
C297 C291 1.491 . S
C297 C296 1.400 . S
C297 C298 1.398 . S
C298 H286 0.950 . S
C298 C297 1.398 . S
C298 C299 1.391 1_455 S
C299 H287 0.950 . S
C299 C295 1.393 1_655 S
C299 C298 1.391 1_655 S
H300 C308 0.950 . S
H301 C313 0.950 . S
H302 C310 0.950 . S
H303 C312 0.950 . S
H304 C314 0.950 . S
H305 C316 0.950 . S
H306 C318 0.950 . S
H307 C319 0.950 . S
C308 H300 0.950 . S
C308 C309 1.386 . S
C308 C310 1.391 . S
C309 C308 1.386 . S
C309 C313 1.393 . S
C310 H302 0.950 . S
C310 C308 1.391 . S
C310 C311 1.400 . S
C311 C310 1.400 . S
C311 C312 1.398 . S
C311 C317 1.491 . S
C312 H303 0.950 . S
C312 C311 1.398 . S
C312 C313 1.391 . S
C313 H301 0.950 . S
C313 C309 1.393 . S
C313 C312 1.391 . S
C314 H304 0.950 . S
C314 C315 1.386 . S
C314 C316 1.391 . S
C315 C314 1.386 . S
C315 C319 1.393 . S
C316 H305 0.950 . S
C316 C314 1.391 . S
C316 C317 1.400 . S
C317 C311 1.491 . S
C317 C316 1.400 . S
C317 C318 1.398 . S
C318 H306 0.950 . S
C318 C317 1.398 . S
C318 C319 1.391 . S
C319 H307 0.950 . S
C319 C315 1.393 . S
C319 C318 1.391 . S
H320 C328 0.950 . S
H321 C333 0.950 . S
H322 C330 0.950 . S
H323 C332 0.950 . S
H324 C334 0.950 . S
H325 C336 0.950 1_455 S
H326 C338 0.950 . S
H327 C339 0.950 . S
C328 H320 0.950 . S
C328 C329 1.386 . S
C328 C330 1.391 . S
C329 C328 1.386 . S
C329 C333 1.393 . S
C330 H322 0.950 . S
C330 C328 1.391 . S
C330 C331 1.400 . S
C331 C330 1.400 . S
C331 C332 1.398 . S
C331 C337 1.491 1_455 S
C332 H323 0.950 . S
C332 C331 1.398 . S
C332 C333 1.391 . S
C333 H321 0.950 . S
C333 C329 1.393 . S
C333 C332 1.391 . S
C334 H324 0.950 . S
C334 C335 1.386 . S
C334 C336 1.391 . S
C335 C334 1.386 . S
C335 C339 1.393 . S
C336 H325 0.950 1_655 S
C336 C334 1.391 . S
C336 C337 1.400 . S
C337 C331 1.491 1_655 S
C337 C336 1.400 . S
C337 C338 1.398 . S
C338 H326 0.950 . S
C338 C337 1.398 . S
C338 C339 1.391 . S
C339 H327 0.950 . S
C339 C335 1.393 . S
C339 C338 1.391 . S
H340 C348 0.950 . S
H341 C353 0.950 . S
H342 C350 0.950 . S
H343 C352 0.950 . S
H344 C354 0.950 . S
H345 C356 0.943 1_545 S
H346 C358 0.950 . S
H347 C359 0.950 . S
C348 H340 0.950 . S
C348 C349 1.386 . S
C348 C350 1.391 . S
C349 C348 1.386 . S
C349 C353 1.393 . S
C350 H342 0.950 . S
C350 C348 1.391 . S
C350 C351 1.400 . S
C351 C350 1.400 . S
C351 C352 1.398 . S
C351 C357 1.491 1_545 S
C352 H343 0.950 . S
C352 C351 1.398 . S
C352 C353 1.391 . S
C353 H341 0.950 . S
C353 C349 1.393 . S
C353 C352 1.391 . S
C354 H344 0.950 . S
C354 C355 1.386 . S
C354 C356 1.399 . S
C355 C354 1.386 . S
C355 C359 1.393 . S
C356 H345 0.943 1_565 S
C356 C354 1.399 . S
C356 C357 1.399 . S
C357 C351 1.491 1_565 S
C357 C356 1.399 . S
C357 C358 1.398 . S
C358 H346 0.950 . S
C358 C357 1.398 . S
C358 C359 1.391 . S
C359 H347 0.950 . S
C359 C355 1.393 . S
C359 C358 1.391 . S
H360 C368 0.950 . S
H361 C373 0.950 . S
H362 C370 0.950 . S
H363 C372 0.950 . S
H364 C374 0.950 . S
H365 C376 0.950 . S
H366 C378 0.950 . S
H367 C379 0.950 . S
C368 H360 0.950 . S
C368 C369 1.386 . S
C368 C370 1.391 . S
C369 C368 1.386 . S
C369 C373 1.393 . S
C370 H362 0.950 . S
C370 C368 1.391 . S
C370 C371 1.400 . S
C371 C370 1.400 . S
C371 C372 1.398 . S
C371 C377 1.491 . S
C372 H363 0.950 . S
C372 C371 1.398 . S
C372 C373 1.391 . S
C373 H361 0.950 . S
C373 C369 1.393 . S
C373 C372 1.391 . S
C374 H364 0.950 . S
C374 C375 1.386 . S
C374 C376 1.391 1_455 S
C375 C374 1.386 . S
C375 C379 1.393 . S
C376 H365 0.950 . S
C376 C374 1.391 1_655 S
C376 C377 1.400 . S
C377 C371 1.491 . S
C377 C376 1.400 . S
C377 C378 1.398 . S
C378 H366 0.950 . S
C378 C377 1.398 . S
C378 C379 1.391 1_655 S
C379 H367 0.950 . S
C379 C375 1.393 . S
C379 C378 1.391 1_455 S
H380 C388 0.950 . S
H381 C393 0.950 . S
H382 C390 0.950 . S
H383 C392 0.950 . S
H384 C394 0.950 . S
H385 C396 0.950 . S
H386 C398 0.950 . S
H387 C399 0.950 . S
C388 H380 0.950 . S
C388 C389 1.386 . S
C388 C390 1.391 . S
C389 C388 1.386 . S
C389 C393 1.393 . S
C390 H382 0.950 . S
C390 C388 1.391 . S
C390 C391 1.400 . S
C391 C390 1.400 . S
C391 C392 1.398 . S
C391 C397 1.491 . S
C392 H383 0.950 . S
C392 C391 1.398 . S
C392 C393 1.391 . S
C393 H381 0.950 . S
C393 C389 1.393 . S
C393 C392 1.391 . S
C394 H384 0.950 . S
C394 C395 1.386 . S
C394 C396 1.391 . S
C395 C394 1.386 . S
C395 C399 1.393 . S
C396 H385 0.950 . S
C396 C394 1.391 . S
C396 C397 1.400 1_545 S
C397 C391 1.491 . S
C397 C396 1.400 1_565 S
C397 C398 1.398 . S
C398 H386 0.950 . S
C398 C397 1.398 . S
C398 C399 1.391 1_565 S
C399 H387 0.950 . S
C399 C395 1.393 . S
C399 C398 1.391 1_545 S
H400 C408 0.950 . S
H401 C413 0.950 . S
H402 C410 0.950 . S
H403 C412 0.950 . S
H404 C414 0.950 . S
H405 C416 0.950 . S
H406 C418 0.950 . S
H407 C419 0.950 . S
C408 H400 0.950 . S
C408 C409 1.386 . S
C408 C410 1.391 . S
C409 C408 1.386 . S
C409 C413 1.393 . S
C410 H402 0.950 . S
C410 C408 1.391 . S
C410 C411 1.400 . S
C411 C410 1.400 . S
C411 C412 1.398 . S
C411 C417 1.491 . S
C412 H403 0.950 . S
C412 C411 1.398 . S
C412 C413 1.391 . S
C413 H401 0.950 . S
C413 C409 1.393 . S
C413 C412 1.391 . S
C414 H404 0.950 . S
C414 C415 1.386 . S
C414 C416 1.391 . S
C415 C414 1.386 . S
C415 C419 1.393 . S
C416 H405 0.950 . S
C416 C414 1.391 . S
C416 C417 1.400 . S
C417 C411 1.491 . S
C417 C416 1.400 . S
C417 C418 1.398 . S
C418 H406 0.950 . S
C418 C417 1.398 . S
C418 C419 1.391 . S
C419 H407 0.950 . S
C419 C415 1.393 . S
C419 C418 1.391 . S
H420 C428 0.950 . S
H421 C433 0.950 . S
H422 C430 0.950 . S
H423 C432 0.950 . S
H424 C434 0.950 1_565 S
H425 C436 0.950 . S
H426 C438 0.950 . S
H427 C439 0.950 . S
C428 H420 0.950 . S
C428 C429 1.386 1_556 S
C428 C430 1.391 . S
C429 C428 1.386 1_554 S
C429 C433 1.393 . S
C430 H422 0.950 . S
C430 C428 1.391 . S
C430 C431 1.400 1_556 S
C431 C430 1.400 1_554 S
C431 C432 1.398 . S
C431 C437 1.491 . S
C432 H423 0.950 . S
C432 C431 1.398 . S
C432 C433 1.391 . S
C433 H421 0.950 . S
C433 C429 1.393 . S
C433 C432 1.391 . S
C434 H424 0.950 1_545 S
C434 C435 1.386 . S
C434 C436 1.391 . S
C435 C434 1.386 . S
C435 C439 1.393 1_554 S
C436 H425 0.950 . S
C436 C434 1.391 . S
C436 C437 1.400 . S
C437 C431 1.491 . S
C437 C436 1.400 . S
C437 C438 1.398 1_554 S
C438 H426 0.950 . S
C438 C437 1.398 1_556 S
C438 C439 1.391 . S
C439 H427 0.950 . S
C439 C435 1.393 1_556 S
C439 C438 1.391 . S
H440 C448 0.950 . S
H441 C453 0.950 . S
H442 C450 0.950 . S
H443 C452 0.950 . S
H444 C454 0.950 . S
H445 C456 0.950 . S
H446 C458 0.950 . S
H447 C459 0.950 . S
C448 H440 0.950 . S
C448 C449 1.386 . S
C448 C450 1.391 . S
C449 C448 1.386 . S
C449 C453 1.393 . S
C450 H442 0.950 . S
C450 C448 1.391 . S
C450 C451 1.400 . S
C451 C450 1.400 . S
C451 C452 1.398 . S
C451 C457 1.491 . S
C452 H443 0.950 . S
C452 C451 1.398 . S
C452 C453 1.391 . S
C453 H441 0.950 . S
C453 C449 1.393 . S
C453 C452 1.391 . S
C454 H444 0.950 . S
C454 C455 1.386 . S
C454 C456 1.391 . S
C455 C454 1.386 . S
C455 C459 1.393 . S
C456 H445 0.950 . S
C456 C454 1.391 . S
C456 C457 1.400 . S
C457 C451 1.491 . S
C457 C456 1.400 . S
C457 C458 1.398 . S
C458 H446 0.950 . S
C458 C457 1.398 . S
C458 C459 1.391 . S
C459 H447 0.950 . S
C459 C455 1.393 . S
C459 C458 1.391 . S
H460 C468 0.950 . S
H461 C473 0.950 1_655 S
H462 C470 0.950 . S
H463 C472 0.950 . S
H464 C474 0.950 . S
H465 C476 0.950 . S
H466 C478 0.950 . S
H467 C479 0.950 . S
C468 H460 0.950 . S
C468 C469 1.386 . S
C468 C470 1.391 . S
C469 C468 1.386 . S
C469 C473 1.393 . S
C470 H462 0.950 . S
C470 C468 1.391 . S
C470 C471 1.400 . S
C471 C470 1.400 . S
C471 C472 1.398 . S
C471 C477 1.491 . S
C472 H463 0.950 . S
C472 C471 1.398 . S
C472 C473 1.391 . S
C473 H461 0.950 1_455 S
C473 C469 1.393 . S
C473 C472 1.391 . S
C474 H464 0.950 . S
C474 C475 1.386 . S
C474 C476 1.391 . S
C475 C474 1.386 . S
C475 C479 1.393 . S
C476 H465 0.950 . S
C476 C474 1.391 . S
C476 C477 1.400 . S
C477 C471 1.491 . S
C477 C476 1.400 . S
C477 C478 1.398 . S
C478 H466 0.950 . S
C478 C477 1.398 . S
C478 C479 1.391 . S
C479 H467 0.950 . S
C479 C475 1.393 . S
C479 C478 1.391 . S
H480 C488 0.950 . S
H481 C493 0.950 . S
H482 C490 0.950 . S
H483 C492 0.950 . S
H484 C494 0.950 . S
H485 C496 0.950 . S
H486 C498 0.950 . S
H487 C499 0.950 . S
C488 H480 0.950 . S
C488 C489 1.386 . S
C488 C490 1.391 . S
C489 C488 1.386 . S
C489 C493 1.393 . S
C490 H482 0.950 . S
C490 C488 1.391 . S
C490 C491 1.400 . S
C491 C490 1.400 . S
C491 C492 1.398 . S
C491 C497 1.491 . S
C492 H483 0.950 . S
C492 C491 1.398 . S
C492 C493 1.391 . S
C493 H481 0.950 . S
C493 C489 1.393 . S
C493 C492 1.391 . S
C494 H484 0.950 . S
C494 C495 1.386 . S
C494 C496 1.391 . S
C495 C494 1.386 . S
C495 C499 1.393 . S
C496 H485 0.950 . S
C496 C494 1.391 . S
C496 C497 1.400 . S
C497 C491 1.491 . S
C497 C496 1.400 . S
C497 C498 1.398 . S
C498 H486 0.950 . S
C498 C497 1.398 . S
C498 C499 1.391 . S
C499 H487 0.950 . S
C499 C495 1.393 . S
C499 C498 1.391 . S
H500 C508 0.950 . S
H501 C513 0.950 . S
H502 C510 0.950 . S
H503 C512 0.950 . S
H504 C514 0.950 . S
H505 C516 0.950 . S
H506 C518 0.950 . S
H507 C519 0.950 . S
C508 H500 0.950 . S
C508 C509 1.386 . S
C508 C510 1.391 . S
C509 C508 1.386 . S
C509 C513 1.393 . S
C510 H502 0.950 . S
C510 C508 1.391 . S
C510 C511 1.400 . S
C511 C510 1.400 . S
C511 C512 1.398 . S
C511 C517 1.491 . S
C512 H503 0.950 . S
C512 C511 1.398 . S
C512 C513 1.391 . S
C513 H501 0.950 . S
C513 C509 1.393 . S
C513 C512 1.391 . S
C514 H504 0.950 . S
C514 C515 1.386 . S
C514 C516 1.391 . S
C515 C514 1.386 . S
C515 C519 1.393 . S
C516 H505 0.950 . S
C516 C514 1.391 . S
C516 C517 1.400 . S
C517 C511 1.491 . S
C517 C516 1.400 . S
C517 C518 1.398 . S
C518 H506 0.950 . S
C518 C517 1.398 . S
C518 C519 1.391 . S
C519 H507 0.950 . S
C519 C515 1.393 . S
C519 C518 1.391 . S
H520 C528 0.950 1_455 S
H521 C533 0.950 . S
H522 C530 0.950 . S
H523 C532 0.950 . S
H524 C534 0.950 . S
H525 C536 0.950 . S
H526 C538 0.950 . S
H527 C539 0.950 . S
C528 H520 0.950 1_655 S
C528 C529 1.386 . S
C528 C530 1.391 . S
C529 C528 1.386 . S
C529 C533 1.393 . S
C530 H522 0.950 . S
C530 C528 1.391 . S
C530 C531 1.400 . S
C531 C530 1.400 . S
C531 C532 1.398 . S
C531 C537 1.491 . S
C532 H523 0.950 . S
C532 C531 1.398 . S
C532 C533 1.391 . S
C533 H521 0.950 . S
C533 C529 1.393 . S
C533 C532 1.391 . S
C534 H524 0.950 . S
C534 C535 1.386 . S
C534 C536 1.391 . S
C535 C534 1.386 . S
C535 C539 1.393 . S
C536 H525 0.950 . S
C536 C534 1.391 . S
C536 C537 1.400 . S
C537 C531 1.491 . S
C537 C536 1.400 . S
C537 C538 1.398 . S
C538 H526 0.950 . S
C538 C537 1.398 . S
C538 C539 1.391 . S
C539 H527 0.950 . S
C539 C535 1.393 . S
C539 C538 1.391 . S
H540 C548 0.950 1_545 S
H541 C553 0.950 . S
H542 C550 0.950 . S
H543 C552 0.950 . S
H544 C554 0.950 . S
H545 C556 0.950 . S
H546 C558 0.950 . S
H547 C559 0.950 . S
C548 H540 0.950 1_565 S
C548 C549 1.386 . S
C548 C550 1.391 . S
C549 C548 1.386 . S
C549 C553 1.393 . S
C550 H542 0.950 . S
C550 C548 1.391 . S
C550 C551 1.400 . S
C551 C550 1.400 . S
C551 C552 1.398 . S
C551 C557 1.491 . S
C552 H543 0.950 . S
C552 C551 1.398 . S
C552 C553 1.391 . S
C553 H541 0.950 . S
C553 C549 1.393 . S
C553 C552 1.391 . S
C554 H544 0.950 . S
C554 C555 1.386 . S
C554 C556 1.391 . S
C555 C554 1.386 . S
C555 C559 1.393 . S
C556 H545 0.950 . S
C556 C554 1.391 . S
C556 C557 1.400 . S
C557 C551 1.491 . S
C557 C556 1.400 . S
C557 C558 1.398 . S
C558 H546 0.950 . S
C558 C557 1.398 . S
C558 C559 1.391 . S
C559 H547 0.950 . S
C559 C555 1.393 . S
C559 C558 1.391 . S
H560 C568 0.950 . S
H561 C573 0.950 1_655 S
H562 C570 0.950 . S
H563 C572 0.950 1_655 S
H564 C574 0.950 . S
H565 C576 0.950 . S
H566 C578 0.950 . S
H567 C579 0.950 . S
C568 H560 0.950 . S
C568 C569 1.386 . S
C568 C570 1.391 . S
C569 C568 1.386 . S
C569 C573 1.393 . S
C570 H562 0.950 . S
C570 C568 1.391 . S
C570 C571 1.400 . S
C571 C570 1.400 . S
C571 C572 1.398 . S
C571 C577 1.491 . S
C572 H563 0.950 1_455 S
C572 C571 1.398 . S
C572 C573 1.391 . S
C573 H561 0.950 1_455 S
C573 C569 1.393 . S
C573 C572 1.391 . S
C574 H564 0.950 . S
C574 C575 1.386 . S
C574 C576 1.391 . S
C575 C574 1.386 . S
C575 C579 1.393 . S
C576 H565 0.950 . S
C576 C574 1.391 . S
C576 C577 1.400 . S
C577 C571 1.491 . S
C577 C576 1.400 . S
C577 C578 1.398 . S
C578 H566 0.950 . S
C578 C577 1.398 . S
C578 C579 1.391 . S
C579 H567 0.950 . S
C579 C575 1.393 . S
C579 C578 1.391 . S
H580 C588 0.950 . S
H581 C593 0.950 . S
H582 C590 0.950 . S
H583 C592 0.950 . S
H584 C594 0.950 . S
H585 C596 0.950 . S
H586 C598 0.950 . S
H587 C599 0.950 . S
C588 H580 0.950 . S
C588 C589 1.386 . S
C588 C590 1.391 . S
C589 C588 1.386 . S
C589 C593 1.393 . S
C590 H582 0.950 . S
C590 C588 1.391 . S
C590 C591 1.400 . S
C591 C590 1.400 . S
C591 C592 1.398 . S
C591 C597 1.491 . S
C592 H583 0.950 . S
C592 C591 1.398 . S
C592 C593 1.391 . S
C593 H581 0.950 . S
C593 C589 1.393 . S
C593 C592 1.391 . S
C594 H584 0.950 . S
C594 C595 1.386 . S
C594 C596 1.391 . S
C595 C594 1.386 . S
C595 C599 1.393 . S
C596 H585 0.950 . S
C596 C594 1.391 . S
C596 C597 1.400 . S
C597 C591 1.491 . S
C597 C596 1.400 . S
C597 C598 1.398 . S
C598 H586 0.950 . S
C598 C597 1.398 . S
C598 C599 1.391 . S
C599 H587 0.950 . S
C599 C595 1.393 . S
C599 C598 1.391 . S
C249 C137 0.700 . S
C255 C17 0.723 . S
C269 C177 0.709 . S
C275 C57 0.728 . S
C289 C217 0.680 . S
C295 C97 0.707 . S
C309 C29 0.768 . S
C315 C88 0.744 . S
C329 C69 0.804 . S
C335 C128 0.779 . S
C349 C109 0.809 . S
C355 C168 0.787 . S
C369 C149 0.743 . S
C375 C208 0.762 . S
C389 C189 0.791 . S
C395 C8 0.810 . S
C409 C229 0.763 . S
C415 C48 0.741 . S
C429 C2 1.641 . S
C435 C122 1.633 1_545 S
C449 C42 1.620 . S
C455 C162 1.627 . S
C469 C82 1.637 1_455 S
C475 C202 1.643 . S
C489 C31 4.022 . S
C495 C52 4.048 . S
C509 C71 4.020 . S
C515 C92 4.049 . S
C529 C111 4.024 . S
C535 C132 4.047 . S
C549 C151 4.026 . S
C555 C172 4.048 . S
C569 C191 4.020 . S
C575 C212 4.049 . S
C589 C231 4.023 . S
C595 C12 4.047 . S
