# Generated by pormake.
# Topology sxb, (6)-cn, num edge types: 1
# Building blocks:
#     Node 0, Type 0, BuildingBlock: MIDCAF_clean_sbu_0, # of connection points: 6
#     Node 1, Type 0, BuildingBlock: MIDCAF_clean_sbu_0, # of connection points: 6
#     Node 2, Type 0, BuildingBlock: MIDCAF_clean_sbu_0, # of connection points: 6
#     Node 3, Type 0, BuildingBlock: MIDCAF_clean_sbu_0, # of connection points: 6
#     Edge 4, Type (0, 0), BuildingBlock: XUDNAN_clean_linker_2, # of connection points: 2
#     Edge 5, Type (0, 0), BuildingBlock: XUDNAN_clean_linker_2, # of connection points: 2
#     Edge 6, Type (0, 0), BuildingBlock: XUDNAN_clean_linker_2, # of connection points: 2
#     Edge 7, Type (0, 0), BuildingBlock: XUDNAN_clean_linker_2, # of connection points: 2
#     Edge 8, Type (0, 0), BuildingBlock: XUDNAN_clean_linker_2, # of connection points: 2
#     Edge 9, Type (0, 0), BuildingBlock: XUDNAN_clean_linker_2, # of connection points: 2
#     Edge 10, Type (0, 0), BuildingBlock: XUDNAN_clean_linker_2, # of connection points: 2
#     Edge 11, Type (0, 0), BuildingBlock: XUDNAN_clean_linker_2, # of connection points: 2
#     Edge 12, Type (0, 0), BuildingBlock: XUDNAN_clean_linker_2, # of connection points: 2
#     Edge 13, Type (0, 0), BuildingBlock: XUDNAN_clean_linker_2, # of connection points: 2
#     Edge 14, Type (0, 0), BuildingBlock: XUDNAN_clean_linker_2, # of connection points: 2
#     Edge 15, Type (0, 0), BuildingBlock: XUDNAN_clean_linker_2, # of connection points: 2
# Relax obj value: 0.308
# Max RMSD: 0.251
# Mean RMSD: 0.251
data_MOF--net-sxb--node1-MIDCAF_clean_sbu_0--edge1-XUDNAN_clean_linker_2
_symmetry_space_group_name_H-M    P1
_symmetry_Int_Tables_number       1
_symmetry_cell_setting            triclinic
loop_
_symmetry_equiv_pos_as_xyz
'x, y, z'
_cell_length_a     13.987036
_cell_length_b     26.967973
_cell_length_c     29.876689
_cell_angle_alpha  92.974939
_cell_angle_beta   89.599218
_cell_angle_gamma 89.644905
loop_
_atom_site_label
_atom_site_type_symbol
_atom_site_fract_x
_atom_site_fract_y
_atom_site_fract_z
_atom_type_partial_charge
Zn0 Zn 0.02591 0.27416 0.07425 0.0
Zn1 Zn 0.87419 0.11822 1.00586 0.0
Zn2 Zn 0.95448 0.20184 0.03135 0.0
C3 C -0.00474 0.0894 0.06657 0.0
C4 C 0.00744 0.14794 0.938 0.0
O5 O 0.84046 0.25933 0.04537 0.0
O6 O 0.91307 0.31288 0.09213 0.0
C7 C 0.06753 0.20213 0.12815 0.0
O8 O 0.00802 0.13671 0.0659 0.0
O9 O 0.92007 0.07078 0.04991 0.0
O10 O 0.95088 0.11404 0.94868 0.0
O11 O 0.01876 0.1867 0.9644 0.0
O12 O 0.09405 0.24625 0.12443 0.0
O13 O 0.01587 0.18045 0.09738 0.0
O14 O 0.05858 0.2305 0.98435 0.0
O15 O 0.09937 0.29839 0.02349 0.0
C16 C 0.10658 0.27097 0.98804 0.0
O17 O 0.79884 0.2139 0.02282 0.0
O18 O 0.73941 0.14056 1.00137 0.0
C19 C 0.83943 0.29948 0.07099 0.0
C20 C 0.72761 0.18654 1.00995 0.0
Zn21 Zn 0.0977 0.01511 0.47936 0.0
Zn22 Zn 0.943 0.13964 0.56958 0.0
Zn23 Zn 0.01867 0.07726 0.52741 0.0
C24 C 0.9684 0.19164 0.50226 0.0
C25 C 0.09114 0.12538 0.62166 0.0
O26 O 0.91421 0.01456 0.51001 0.0
O27 O -0.00648 0.97333 0.45586 0.0
C28 C 0.12292 0.09893 0.43411 0.0
O29 O 0.0249 0.15359 0.49657 0.0
O30 O 0.89735 0.18815 0.528 0.0
O31 O 0.0427 0.16297 0.61222 0.0
O32 O 0.09075 0.08681 0.59415 0.0
O33 O 0.16127 0.05669 0.43614 0.0
O34 O 0.06219 0.114 0.46467 0.0
O35 O 0.13986 0.0492 0.56574 0.0
O36 O 0.17851 0.98294 0.52314 0.0
C37 C 0.1896 1.00914 0.55884 0.0
O38 O 0.87661 0.04706 0.54408 0.0
O39 O 0.84501 0.10213 0.59918 0.0
C40 C 0.91928 0.97847 0.47977 0.0
C41 C 0.82477 0.06209 0.57803 0.0
Zn42 Zn 0.65328 0.78999 0.05506 0.0
Zn43 Zn 0.56969 0.58329 0.911 0.0
Zn44 Zn 0.57074 0.72084 0.99602 0.0
C45 C 0.57601 0.6123 1.01171 0.0
C46 C 0.68556 0.67201 0.91607 0.0
O47 O 0.47055 0.78279 1.00203 0.0
O48 O 0.54482 0.83719 0.04733 0.0
C49 C 0.60307 0.70937 0.10426 0.0
O50 O 0.55994 0.65259 0.03529 0.0
O51 O 0.60848 0.61743 0.97258 0.0
O52 O 0.66388 0.63488 0.93842 0.0
O53 O 0.66781 0.71476 0.93538 0.0
O54 O 0.64754 0.74987 0.10857 0.0
O55 O 0.57202 0.69328 0.06556 0.0
O56 O 0.71286 0.74445 0.97347 0.0
O57 O 0.77724 0.79706 0.02348 0.0
C58 C 0.78296 0.77182 0.98677 0.0
O59 O 0.48959 0.67905 0.94498 0.0
O60 O 0.44468 0.62072 0.89468 0.0
C61 C 0.47316 0.8249 0.02383 0.0
C62 C 0.42797 0.66182 0.91689 0.0
Zn63 Zn 0.52415 0.52939 0.45955 0.0
Zn64 Zn 0.36943 0.72539 0.57328 0.0
Zn65 Zn 0.45608 0.59632 0.51074 0.0
C66 C 0.44295 0.7208 0.48649 0.0
C67 C 0.54126 0.64941 0.60121 0.0
O68 O 0.3526 0.53353 0.50554 0.0
O69 O 0.41717 0.48295 0.45352 0.0
C70 C 0.52095 0.61356 0.41095 0.0
O71 O 0.44763 0.6747 0.49554 0.0
O72 O 0.38819 0.7493 0.51018 0.0
O73 O 0.48401 0.68651 0.60028 0.0
O74 O 0.54004 0.61261 0.57139 0.0
O75 O 0.55674 0.57045 0.4085 0.0
O76 O 0.47667 0.62929 0.44655 0.0
O77 O 0.59171 0.57462 0.54075 0.0
O78 O 0.62937 0.50876 0.4971 0.0
C79 C 0.6476 0.5377 0.53034 0.0
O80 O 0.36012 0.64216 0.54497 0.0
O81 O 0.25112 0.68539 0.58213 0.0
C82 C 0.35003 0.4929 0.48094 0.0
C83 C 0.2783 0.64434 0.56376 0.0
H84 H 0.32997 0.84838 0.0843 0.0
H85 H 0.45242 0.88808 0.95756 0.0
H86 H 0.35121 0.96379 0.95946 0.0
H87 H 0.08311 0.89049 0.05943 0.0
H88 H 0.05945 0.91277 0.1163 0.0
H89 H 0.14017 0.86135 0.10557 0.0
H90 H 0.27166 0.90792 0.15017 0.0
H91 H 0.19214 0.96006 0.16096 0.0
H92 H 0.30673 0.96897 0.13471 0.0
H93 H 0.25445 0.03924 0.97985 0.0
H94 H 0.13198 0.10021 1.00534 0.0
H95 H 0.05064 1.00711 0.11327 0.0
C96 C 0.33275 0.87233 0.05632 0.0
C97 C 0.39708 0.86222 0.02017 0.0
C98 C 0.4016 0.89479 0.98477 0.0
C99 C 0.34533 0.93802 0.98591 0.0
C100 C 0.28388 0.94751 0.02236 0.0
C101 C 0.2741 0.91473 0.05608 0.0
C102 C 0.19981 0.93344 0.09054 0.0
C103 C 0.11567 0.89731 0.09301 0.0
C104 C 0.24534 0.94317 0.13683 0.0
C105 C 0.16927 0.98167 0.07069 0.0
C106 C 0.22167 0.98969 0.03231 0.0
C107 C 0.2116 0.03285 1.00929 0.0
C108 C 0.14251 0.06753 0.02439 0.0
C109 C 0.08203 0.0583 0.06128 0.0
C110 C 0.09635 0.01509 0.08519 0.0
H111 H 0.60522 0.52551 0.96412 0.0
H112 H 0.54192 0.58552 0.09857 0.0
H113 H 0.57234 0.50245 0.12764 0.0
H114 H 0.52003 0.397 0.97549 0.0
H115 H 0.61906 0.37043 0.94343 0.0
H116 H 0.57168 0.43051 0.93091 0.0
H117 H 0.73634 0.47129 0.94128 0.0
H118 H 0.78734 0.41196 0.95206 0.0
H119 H 0.80143 0.46348 0.99233 0.0
H120 H 0.64341 0.41865 0.14289 0.0
H121 H 0.74695 0.34378 0.14304 0.0
H122 H 0.76566 0.34071 0.99836 0.0
C123 C 0.59354 0.52108 0.99947 0.0
C124 C 0.57015 0.562 0.02901 0.0
C125 C 0.55841 0.55454 0.07523 0.0
C126 C 0.57565 0.50744 0.09196 0.0
C127 C 0.60379 0.46845 0.06191 0.0
C128 C 0.61189 0.47497 0.01649 0.0
C129 C 0.65803 0.43062 0.99172 0.0
C130 C 0.58806 0.4056 0.95838 0.0
C131 C 0.75125 0.44524 0.96801 0.0
C132 C 0.67799 0.39839 0.03042 0.0
C133 C 0.64494 0.42032 0.07062 0.0
C134 C 0.66672 0.40044 0.11154 0.0
C135 C 0.72551 0.35804 0.11136 0.0
C136 C 0.7612 0.33599 0.07058 0.0
C137 C 0.73567 0.35587 0.02972 0.0
H138 H 0.11928 0.22253 0.44808 0.0
H139 H 0.88655 0.27804 0.53435 0.0
H140 H 0.95493 0.36118 0.53607 0.0
H141 H 0.30299 0.29128 0.49275 0.0
H142 H 0.35957 0.30737 0.44113 0.0
H143 H 0.2892 0.25185 0.4426 0.0
H144 H 0.18301 0.28134 0.37848 0.0
H145 H 0.25411 0.33673 0.37609 0.0
H146 H 0.12647 0.34161 0.38397 0.0
H147 H 0.06833 0.43271 0.544 0.0
H148 H 0.19672 0.49488 0.53881 0.0
H149 H 0.33697 0.40179 0.43563 0.0
C150 C 0.08091 0.25244 0.46596 0.0
C151 C -0.00208 0.24287 0.49149 0.0
C152 C 0.95043 0.28356 0.51458 0.0
C153 C -0.01108 0.33133 0.51609 0.0
C154 C 0.07304 0.33899 0.49268 0.0
C155 C 0.11616 0.30142 0.46625 0.0
C156 C 0.20494 0.32075 0.44354 0.0
C157 C 0.29443 0.29103 0.45576 0.0
C158 C 0.19132 0.32007 0.39249 0.0
C159 C 0.20775 0.3737 0.46381 0.0
C160 C 0.1315 0.38321 0.4925 0.0
C161 C 0.12558 0.42686 0.51971 0.0
C162 C 0.19789 0.46246 0.51627 0.0
C163 C 0.27316 0.45529 0.4849 0.0
C164 C 0.27815 0.40979 0.45867 0.0
H165 H 0.72394 0.97025 0.46062 0.0
H166 H 0.97459 0.88738 0.49875 0.0
H167 H 0.88437 0.80938 0.49122 0.0
H168 H 0.54638 0.89537 0.51778 0.0
H169 H 0.4614 0.90229 0.47376 0.0
H170 H 0.55016 0.94938 0.4846 0.0
H171 H 0.59607 0.93576 0.39912 0.0
H172 H 0.51328 0.88501 0.39199 0.0
H173 H 0.638 0.8754 0.3785 0.0
H174 H 0.76919 0.74053 0.48154 0.0
H175 H 0.62743 0.6873 0.48366 0.0
H176 H 0.44847 0.812 0.45058 0.0
C177 C 0.75892 0.93566 0.4678 0.0
C178 C 0.85618 0.9347 0.48038 0.0
C179 C 0.90009 0.88876 0.4891 0.0
C180 C 0.84977 0.8442 0.48453 0.0
C181 C 0.75516 0.84584 0.4708 0.0
C182 C 0.70926 0.89027 0.46326 0.0
C183 C 0.60566 0.88098 0.45051 0.0
C184 C 0.53692 0.90876 0.48362 0.0
C185 C 0.5872 0.89515 0.40215 0.0
C186 C 0.60001 0.82503 0.45437 0.0
C187 C 0.68796 0.80542 0.46478 0.0
C188 C 0.69998 0.75528 0.47289 0.0
C189 C 0.61888 0.725 0.47337 0.0
C190 C 0.52668 0.74523 0.46673 0.0
C191 C 0.5182 0.79526 0.45479 0.0
H192 H 0.20131 0.20336 0.93199 0.0
H193 H 0.20393 0.35696 0.98155 0.0
H194 H 0.37797 0.35493 0.98211 0.0
H195 H 0.34621 0.15493 0.98518 0.0
H196 H 0.42017 0.11696 0.9473 0.0
H197 H 0.30169 0.13359 0.93102 0.0
H198 H 0.36156 0.17437 0.86015 0.0
H199 H 0.48103 0.15449 0.87344 0.0
H200 H 0.45713 0.21887 0.8641 0.0
H201 H 0.51455 0.31903 0.02036 0.0
H202 H 0.64597 0.26915 0.04946 0.0
H203 H 0.58639 0.15 0.95304 0.0
C204 C 0.23809 0.23797 0.93838 0.0
C205 C 0.18966 0.27942 0.95883 0.0
C206 C 0.24017 0.32417 0.9672 0.0
C207 C 0.33969 0.32344 0.96761 0.0
C208 C 0.38635 0.27919 0.95487 0.0
C209 C 0.33824 0.23864 0.93605 0.0
C210 C 0.40552 0.19439 0.92884 0.0
C211 C 0.36597 0.14728 0.94936 0.0
C212 C 0.42768 0.18499 0.87865 0.0
C213 C 0.49268 0.21394 0.95376 0.0
C214 C 0.47912 0.26281 0.96901 0.0
C215 C 0.53365 0.28365 1.00388 0.0
C216 C 0.60944 0.25587 0.0199 0.0
C217 C 0.63494 0.20964 0.99937 0.0
C218 C 0.57315 0.18727 0.96704 0.0
H219 H 0.28778 0.07325 0.61363 0.0
H220 H 0.28058 0.91986 0.5639 0.0
H221 H 0.44836 0.90927 0.58541 0.0
H222 H 0.47106 0.10609 0.57071 0.0
H223 H 0.52673 0.1444 0.61428 0.0
H224 H 0.40068 0.135 0.61589 0.0
H225 H 0.41011 0.10057 0.6948 0.0
H226 H 0.5372 0.11172 0.69464 0.0
H227 H 0.49245 0.05088 0.70524 0.0
H228 H 0.6228 0.92484 0.58252 0.0
H229 H 0.77876 0.96274 0.56552 0.0
H230 H 0.67393 0.10436 0.62123 0.0
C231 C 0.31941 0.03656 0.6105 0.0
C232 C 0.27173 0.99762 0.58716 0.0
C233 C 0.3163 0.95038 0.58171 0.0
C234 C 0.41174 0.94395 0.59396 0.0
C235 C 0.46063 0.98479 0.61255 0.0
C236 C 0.41451 0.02973 0.62286 0.0
C237 C 0.48526 0.07029 0.63486 0.0
C238 C 0.47001 0.11653 0.60721 0.0
C239 C 0.48103 0.08416 0.68539 0.0
C240 C 0.57735 0.04332 0.62241 0.0
C241 C 0.56275 0.99352 0.61151 0.0
C242 C 0.63507 0.96354 0.59171 0.0
C243 C 0.72297 0.98537 0.58151 0.0
C244 C 0.73728 0.0365 0.59133 0.0
C245 C 0.66494 0.06497 0.61369 0.0
H246 H 0.95591 0.77352 0.02581 0.0
H247 H 0.8195 0.75586 0.89623 0.0
H248 H 0.97564 0.73233 0.86124 0.0
H249 H 0.18828 0.81953 0.9907 0.0
H250 H 0.25013 0.78219 0.03003 0.0
H251 H 0.13071 0.80417 0.04239 0.0
H252 H 0.07834 0.71451 0.05428 0.0
H253 H 0.19728 0.69236 0.04118 0.0
H254 H 0.09718 0.66756 1.00986 0.0
H255 H 0.14538 0.70028 0.84318 0.0
H256 H 0.31102 0.66641 0.84373 0.0
H257 H 0.33096 0.70758 0.98543 0.0
C258 C 0.9593 0.76647 0.9898 0.0
C259 C 0.87607 0.76672 0.96362 0.0
C260 C 0.88269 0.7555 0.91686 0.0
C261 C 0.97107 0.74239 0.89673 0.0
C262 C 0.05151 0.74066 0.924 0.0
C263 C 0.04597 0.75263 0.96952 0.0
C264 C 0.13903 0.74265 0.99261 0.0
C265 C 0.17951 0.79016 0.01518 0.0
C266 C 0.1272 0.70185 0.02645 0.0
C267 C 0.19924 0.72469 0.95307 0.0
C268 C 0.14778 0.72299 0.91368 0.0
C269 C 0.18681 0.70261 0.87366 0.0
C270 C 0.28052 0.68344 0.87425 0.0
C271 C 0.33378 0.68569 0.91441 0.0
C272 C 0.29285 0.70711 0.95396 0.0
H273 H 0.17676 0.61319 0.49302 0.0
H274 H 0.22486 0.59031 0.63316 0.0
H275 H 0.07175 0.54526 0.63747 0.0
H276 H 0.95593 0.6502 0.50567 0.0
H277 H 0.90686 0.62286 0.45458 0.0
H278 H 0.03183 0.63686 0.45742 0.0
H279 H 0.07804 0.54478 0.43567 0.0
H280 H 0.95208 0.53223 0.42986 0.0
H281 H 0.02396 0.49582 0.46572 0.0
H282 H 0.90055 0.51819 0.6299 0.0
H283 H 0.72848 0.51135 0.61055 0.0
H284 H 0.79081 0.56238 0.47854 0.0
C285 C 0.15734 0.59575 0.52363 0.0
C286 C 0.21248 0.60312 0.56231 0.0
C287 C 0.18386 0.58297 0.60293 0.0
C288 C 0.09701 0.55775 0.60567 0.0
C289 C 0.04033 0.55373 0.5675 0.0
C290 C 0.07005 0.57171 0.52702 0.0
C291 C -0.00947 0.57104 0.49328 0.0
C292 C 0.97014 0.62333 0.47685 0.0
C293 C 0.01252 0.53374 0.45382 0.0
C294 C 0.91006 0.55324 0.52196 0.0
C295 C 0.9402 0.54166 0.56411 0.0
C296 C 0.87614 0.52707 0.59696 0.0
C297 C 0.77855 0.52465 0.5863 0.0
C298 C 0.74726 0.53892 0.54404 0.0
C299 C 0.81384 0.55217 0.51142 0.0
H300 H -0.00424 0.15478 0.38734 0.0
H301 H 0.2874 0.09926 0.38588 0.0
H302 H 0.30443 0.11893 0.30665 0.0
H303 H 0.93035 0.10672 0.2844 0.0
H304 H 0.86099 0.15879 0.26697 0.0
H305 H 0.87452 0.14885 0.3257 0.0
H306 H 0.94369 0.2371 0.33987 0.0
H307 H 0.92705 0.24818 0.28143 0.0
H308 H 0.04315 0.25641 0.30645 0.0
H309 H 0.28322 0.13319 0.2251 0.0
H310 H 0.23281 0.15542 0.14918 0.0
H311 H 0.95556 0.20121 0.20247 0.0
C312 C 0.06438 0.14889 0.37085 0.0
C313 C 0.14038 0.12564 0.39279 0.0
C314 C 0.22842 0.11726 0.36973 0.0
C315 C 0.23862 0.12798 0.3246 0.0
C316 C 0.16042 0.14763 0.30294 0.0
C317 C 0.07588 0.15948 0.32551 0.0
C318 C 0.00187 0.17863 0.29365 0.0
C319 C 0.91163 0.14629 0.29264 0.0
C320 C 0.9775 0.23333 0.30608 0.0
C321 C 0.05643 0.17329 0.24953 0.0
C322 C 0.14804 0.15565 0.2557 0.0
C323 C 0.21184 0.14736 0.21988 0.0
C324 C 0.18243 0.15935 0.17687 0.0
C325 C 0.08983 0.17859 0.17012 0.0
C326 C 0.02584 0.18511 0.20677 0.0
H327 H 0.03894 0.21561 0.87366 0.0
H328 H 0.09014 0.06279 0.90517 0.0
H329 H 0.15201 0.04413 0.82864 0.0
H330 H 0.94635 0.19124 0.77118 0.0
H331 H -0.00169 0.24254 0.7435 0.0
H332 H 0.97968 0.247 0.80308 0.0
H333 H 0.15917 0.26635 0.81507 0.0
H334 H 0.17852 0.2621 0.75522 0.0
H335 H 0.2486 0.2244 0.79098 0.0
H336 H 0.17185 0.03715 0.74608 0.0
H337 H 0.15188 0.04338 0.6648 0.0
H338 H 0.10021 0.2017 0.68529 0.0
C339 C 0.06688 0.17885 0.86477 0.0
C340 C 0.06052 0.14068 0.8952 0.0
C341 C 0.09476 0.09253 0.88222 0.0
C342 C 0.13059 0.08166 0.83892 0.0
C343 C 0.13246 0.11944 0.80889 0.0
C344 C 0.1028 0.16732 0.82136 0.0
C345 C 0.10097 0.19938 0.78117 0.0
C346 C 0.00038 0.22127 0.77434 0.0
C347 C 0.17632 0.2405 0.78589 0.0
C348 C 0.12785 0.16127 0.74391 0.0
C349 C 0.14755 0.1156 0.7607 0.0
C350 C 0.16046 0.07312 0.7325 0.0
C351 C 0.14992 0.07706 0.6861 0.0
C352 C 0.12772 0.12325 0.66815 0.0
C353 C 0.12016 0.16606 0.69762 0.0
H354 H 0.66946 0.62931 0.35437 0.0
H355 H 0.36526 0.65447 0.37301 0.0
H356 H 0.35176 0.67566 0.29355 0.0
H357 H 0.7059 0.73214 0.27746 0.0
H358 H 0.79579 0.69724 0.24557 0.0
H359 H 0.78003 0.68776 0.30438 0.0
H360 H 0.75752 0.59375 0.28504 0.0
H361 H 0.76901 0.60328 0.22603 0.0
H362 H 0.66389 0.57376 0.24717 0.0
H363 H 0.36886 0.68145 0.20948 0.0
H364 H 0.42135 0.69611 0.13194 0.0
H365 H 0.71641 0.67525 0.1702 0.0
C366 C 0.60073 0.64103 0.34201 0.0
C367 C 0.51836 0.64066 0.36955 0.0
C368 C 0.42925 0.65545 0.35244 0.0
C369 C 0.4208 0.66674 0.30726 0.0
C370 C 0.50264 0.66409 0.28023 0.0
C371 C 0.59158 0.65362 0.29742 0.0
C372 C 0.66868 0.65432 0.26159 0.0
C373 C 0.7419 0.69532 0.27292 0.0
C374 C 0.71763 0.60323 0.25457 0.0
C375 C 0.60915 0.66622 0.22138 0.0
C376 C 0.5132 0.67037 0.23256 0.0
C377 C 0.44392 0.67908 0.20053 0.0
C378 C 0.47412 0.68659 0.15651 0.0
C379 C 0.57256 0.68637 0.14541 0.0
C380 C 0.64065 0.67505 0.17797 0.0
H381 H 0.58156 0.72495 0.66272 0.0
H382 H 0.61925 0.56688 0.63562 0.0
H383 H 0.69316 0.55993 0.70979 0.0
H384 H 0.78862 0.74889 0.74048 0.0
H385 H 0.71734 0.79008 0.77676 0.0
H386 H 0.69428 0.78534 0.71738 0.0
H387 H 0.51747 0.76378 0.73379 0.0
H388 H 0.54021 0.768 0.79298 0.0
H389 H 0.49113 0.71185 0.76739 0.0
H390 H 0.73956 0.56788 0.78988 0.0
H391 H 0.7427 0.5873 0.87121 0.0
H392 H 0.65489 0.73887 0.85022 0.0
C393 C 0.60888 0.68915 0.67165 0.0
C394 C 0.59976 0.64657 0.64218 0.0
C395 C 0.63222 0.60023 0.65613 0.0
C396 C 0.67264 0.59599 0.69863 0.0
C397 C 0.67809 0.63845 0.72725 0.0
C398 C 0.64633 0.68415 0.71447 0.0
C399 C 0.64407 0.72206 0.75386 0.0
C400 C 0.71534 0.76408 0.74668 0.0
C401 C 0.54219 0.74259 0.76249 0.0
C402 C 0.67625 0.69011 0.79121 0.0
C403 C 0.69799 0.6424 0.77479 0.0
C404 C 0.72375 0.60522 0.80299 0.0
C405 C 0.72495 0.61663 0.84918 0.0
C406 C 0.69874 0.66457 0.86701 0.0
C407 C 0.67648 0.70214 0.83751 0.0
loop_
_geom_bond_atom_site_label_1
_geom_bond_atom_site_label_2
_geom_bond_distance
_geom_bond_site_symmetry_2
_ccdc_geom_bond_type
Zn0 O6 1.920 . S
Zn0 O12 1.898 . S
Zn0 O15 1.905 . S
Zn1 O9 1.905 . S
Zn1 O10 1.898 1_655 S
Zn1 O18 1.920 . S
Zn2 O5 2.080 . S
Zn2 O8 2.114 . S
Zn2 O11 2.120 1_554 S
Zn2 O13 2.120 . S
Zn2 O14 2.114 . S
Zn2 O17 2.080 1_455 S
C3 O8 1.166 . S
C3 O9 1.182 1_454 S
C4 O10 1.167 . S
C4 O11 1.299 . S
O5 Zn2 2.080 . S
O5 C19 1.305 1_455 S
O6 Zn0 1.920 . S
O6 C19 1.234 1_455 S
C7 O12 1.167 . S
C7 O13 1.299 . S
O8 Zn2 2.114 . S
O8 C3 1.166 . S
O9 Zn1 1.905 . S
O9 C3 1.182 1_656 S
O10 Zn1 1.898 1_455 S
O10 C4 1.167 . S
O11 Zn2 2.120 1_556 S
O11 C4 1.299 . S
O12 Zn0 1.898 . S
O12 C7 1.167 . S
O13 Zn2 2.120 . S
O13 C7 1.299 . S
O14 Zn2 2.114 . S
O14 C16 1.166 . S
O15 Zn0 1.905 . S
O15 C16 1.182 . S
C16 O14 1.166 . S
C16 O15 1.182 . S
O17 Zn2 2.080 1_655 S
O17 C20 1.305 1_554 S
O18 Zn1 1.920 . S
O18 C20 1.234 . S
C19 O5 1.305 1_655 S
C19 O6 1.234 1_655 S
C20 O17 1.305 1_556 S
C20 O18 1.234 . S
Zn21 O27 1.920 . S
Zn21 O33 1.898 1_565 S
Zn21 O36 1.905 1_565 S
Zn22 O30 1.905 . S
Zn22 O31 1.898 1_655 S
Zn22 O39 1.920 . S
Zn23 O26 2.080 . S
Zn23 O29 2.114 . S
Zn23 O32 2.120 . S
Zn23 O34 2.120 . S
Zn23 O35 2.114 . S
Zn23 O38 2.080 1_455 S
C24 O29 1.166 . S
C24 O30 1.182 1_455 S
C25 O31 1.167 . S
C25 O32 1.299 . S
O26 Zn23 2.080 . S
O26 C40 1.305 1_445 S
O27 Zn21 1.920 . S
O27 C40 1.234 1_455 S
C28 O33 1.167 . S
C28 O34 1.299 . S
O29 Zn23 2.114 . S
O29 C24 1.166 . S
O30 Zn22 1.905 . S
O30 C24 1.182 1_655 S
O31 Zn22 1.898 1_455 S
O31 C25 1.167 . S
O32 Zn23 2.120 . S
O32 C25 1.299 . S
O33 Zn21 1.898 1_545 S
O33 C28 1.167 . S
O34 Zn23 2.120 . S
O34 C28 1.299 . S
O35 Zn23 2.114 . S
O35 C37 1.166 . S
O36 Zn21 1.905 1_545 S
O36 C37 1.182 . S
C37 O35 1.166 . S
C37 O36 1.182 . S
O38 Zn23 2.080 1_655 S
O38 C41 1.305 . S
O39 Zn22 1.920 . S
O39 C41 1.234 . S
C40 O26 1.305 1_665 S
C40 O27 1.234 1_655 S
C41 O38 1.305 . S
C41 O39 1.234 . S
Zn42 O48 1.920 . S
Zn42 O54 1.898 . S
Zn42 O57 1.905 . S
Zn43 O51 1.905 . S
Zn43 O52 1.898 . S
Zn43 O60 1.920 . S
Zn44 O47 2.080 . S
Zn44 O50 2.114 . S
Zn44 O53 2.120 1_554 S
Zn44 O55 2.120 . S
Zn44 O56 2.114 . S
Zn44 O59 2.080 . S
C45 O50 1.166 . S
C45 O51 1.182 1_554 S
C46 O52 1.167 . S
C46 O53 1.299 . S
O47 Zn44 2.080 . S
O47 C61 1.305 . S
O48 Zn42 1.920 . S
O48 C61 1.234 . S
C49 O54 1.167 . S
C49 O55 1.299 . S
O50 Zn44 2.114 . S
O50 C45 1.166 . S
O51 Zn43 1.905 . S
O51 C45 1.182 1_556 S
O52 Zn43 1.898 . S
O52 C46 1.167 . S
O53 Zn44 2.120 1_556 S
O53 C46 1.299 . S
O54 Zn42 1.898 . S
O54 C49 1.167 . S
O55 Zn44 2.120 . S
O55 C49 1.299 . S
O56 Zn44 2.114 . S
O56 C58 1.166 . S
O57 Zn42 1.905 . S
O57 C58 1.182 . S
C58 O56 1.166 . S
C58 O57 1.182 . S
O59 Zn44 2.080 . S
O59 C62 1.305 1_554 S
O60 Zn43 1.920 . S
O60 C62 1.234 . S
C61 O47 1.305 . S
C61 O48 1.234 . S
C62 O59 1.305 1_556 S
C62 O60 1.234 . S
Zn63 O69 1.920 . S
Zn63 O75 1.898 . S
Zn63 O78 1.905 . S
Zn64 O72 1.905 . S
Zn64 O73 1.898 . S
Zn64 O81 1.920 . S
Zn65 O68 2.080 . S
Zn65 O71 2.114 . S
Zn65 O74 2.120 . S
Zn65 O76 2.120 . S
Zn65 O77 2.114 . S
Zn65 O80 2.080 . S
C66 O71 1.166 . S
C66 O72 1.182 . S
C67 O73 1.167 . S
C67 O74 1.299 . S
O68 Zn65 2.080 . S
O68 C82 1.305 . S
O69 Zn63 1.920 . S
O69 C82 1.234 . S
C70 O75 1.167 . S
C70 O76 1.299 . S
O71 Zn65 2.114 . S
O71 C66 1.166 . S
O72 Zn64 1.905 . S
O72 C66 1.182 . S
O73 Zn64 1.898 . S
O73 C67 1.167 . S
O74 Zn65 2.120 . S
O74 C67 1.299 . S
O75 Zn63 1.898 . S
O75 C70 1.167 . S
O76 Zn65 2.120 . S
O76 C70 1.299 . S
O77 Zn65 2.114 . S
O77 C79 1.166 . S
O78 Zn63 1.905 . S
O78 C79 1.182 . S
C79 O77 1.166 . S
C79 O78 1.182 . S
O80 Zn65 2.080 . S
O80 C83 1.305 . S
O81 Zn64 1.920 . S
O81 C83 1.234 . S
C82 O68 1.305 . S
C82 O69 1.234 . S
C83 O80 1.305 . S
C83 O81 1.234 . S
H84 C96 0.930 . S
H85 C98 0.930 . S
H86 C99 0.930 . S
H87 C103 0.959 . S
H88 C103 0.959 . S
H89 C103 0.961 . S
H90 C104 0.960 . S
H91 C104 0.961 . S
H92 C104 0.959 . S
H93 C107 0.929 . S
H94 C108 0.931 . S
H95 C110 0.930 . S
C96 H84 0.930 . S
C96 C97 1.399 . S
C96 C101 1.399 . S
C97 C96 1.399 . S
C97 C98 1.376 1_554 S
C98 H85 0.930 . S
C98 C97 1.376 1_556 S
C98 C99 1.388 . S
C99 H86 0.930 . S
C99 C98 1.388 . S
C99 C100 1.390 1_556 S
C100 C99 1.390 1_554 S
C100 C101 1.394 . S
C100 C106 1.466 . S
C101 C96 1.399 . S
C101 C100 1.394 . S
C101 C102 1.516 . S
C102 C101 1.516 . S
C102 C103 1.502 . S
C102 C104 1.561 . S
C102 C105 1.526 . S
C103 H87 0.959 . S
C103 H88 0.959 . S
C103 H89 0.961 . S
C103 C102 1.502 . S
C104 H90 0.960 . S
C104 H91 0.961 . S
C104 H92 0.959 . S
C104 C102 1.561 . S
C105 C102 1.526 . S
C105 C106 1.413 . S
C105 C110 1.390 1_565 S
C106 C100 1.466 . S
C106 C105 1.413 . S
C106 C107 1.384 1_554 S
C107 H93 0.929 . S
C107 C106 1.384 1_556 S
C107 C108 1.385 1_565 S
C108 H94 0.931 . S
C108 C107 1.385 1_545 S
C108 C109 1.389 1_556 S
C109 C108 1.389 1_554 S
C109 C110 1.387 . S
C110 H95 0.930 . S
C110 C105 1.390 1_545 S
C110 C109 1.387 . S
H111 C123 0.930 . S
H112 C125 0.930 . S
H113 C126 0.930 . S
H114 C130 0.959 . S
H115 C130 0.959 . S
H116 C130 0.961 . S
H117 C131 0.960 . S
H118 C131 0.961 . S
H119 C131 0.959 . S
H120 C134 0.929 . S
H121 C135 0.931 . S
H122 C137 0.930 . S
C123 H111 0.930 . S
C123 C124 1.399 1_556 S
C123 C128 1.399 . S
C124 C123 1.399 1_554 S
C124 C125 1.376 . S
C125 H112 0.930 . S
C125 C124 1.376 . S
C125 C126 1.388 . S
C126 H113 0.930 . S
C126 C125 1.388 . S
C126 C127 1.390 . S
C127 C126 1.390 . S
C127 C128 1.394 1_554 S
C127 C133 1.465 . S
C128 C123 1.399 . S
C128 C127 1.394 1_556 S
C128 C129 1.516 . S
C129 C128 1.516 . S
C129 C130 1.502 . S
C129 C131 1.561 . S
C129 C132 1.542 . S
C130 H114 0.959 . S
C130 H115 0.959 . S
C130 H116 0.961 . S
C130 C129 1.502 . S
C131 H117 0.960 . S
C131 H118 0.961 . S
C131 H119 0.959 . S
C131 C129 1.561 . S
C132 C129 1.542 . S
C132 C133 1.374 1_556 S
C132 C137 1.394 . S
C133 C127 1.465 . S
C133 C132 1.374 1_554 S
C133 C134 1.399 . S
C134 H120 0.929 . S
C134 C133 1.399 . S
C134 C135 1.385 . S
C135 H121 0.931 . S
C135 C134 1.385 . S
C135 C136 1.389 . S
C136 C135 1.389 . S
C136 C137 1.387 1_554 S
C137 H122 0.930 . S
C137 C132 1.394 . S
C137 C136 1.387 1_556 S
H138 C150 0.930 . S
H139 C152 0.930 1_655 S
H140 C153 0.930 . S
H141 C157 0.959 . S
H142 C157 0.959 . S
H143 C157 0.961 . S
H144 C158 0.960 . S
H145 C158 0.961 . S
H146 C158 0.959 . S
H147 C161 0.929 . S
H148 C162 0.931 . S
H149 C164 0.930 . S
C150 H138 0.930 . S
C150 C151 1.399 . S
C150 C155 1.399 . S
C151 C150 1.399 . S
C151 C152 1.376 . S
C152 H139 0.930 1_455 S
C152 C151 1.376 . S
C152 C153 1.388 . S
C153 H140 0.930 . S
C153 C152 1.388 . S
C153 C154 1.390 . S
C154 C153 1.390 . S
C154 C155 1.394 . S
C154 C160 1.465 . S
C155 C150 1.399 . S
C155 C154 1.394 . S
C155 C156 1.516 . S
C156 C155 1.516 . S
C156 C157 1.502 . S
C156 C158 1.561 . S
C156 C159 1.526 . S
C157 H141 0.959 . S
C157 H142 0.959 . S
C157 H143 0.961 . S
C157 C156 1.502 . S
C158 H144 0.960 . S
C158 H145 0.961 . S
C158 H146 0.959 . S
C158 C156 1.561 . S
C159 C156 1.526 . S
C159 C160 1.396 . S
C159 C164 1.390 . S
C160 C154 1.465 . S
C160 C159 1.396 . S
C160 C161 1.399 . S
C161 H147 0.929 . S
C161 C160 1.399 . S
C161 C162 1.385 . S
C162 H148 0.931 . S
C162 C161 1.385 . S
C162 C163 1.389 . S
C163 C162 1.389 . S
C163 C164 1.387 . S
C164 H149 0.930 . S
C164 C159 1.390 . S
C164 C163 1.387 . S
H165 C177 0.930 . S
H166 C179 0.930 . S
H167 C180 0.930 . S
H168 C184 0.959 . S
H169 C184 0.959 . S
H170 C184 0.961 . S
H171 C185 0.960 . S
H172 C185 0.961 . S
H173 C185 0.959 . S
H174 C188 0.929 . S
H175 C189 0.931 . S
H176 C191 0.930 . S
C177 H165 0.930 . S
C177 C178 1.399 . S
C177 C182 1.399 . S
C178 C177 1.399 . S
C178 C179 1.376 . S
C179 H166 0.930 . S
C179 C178 1.376 . S
C179 C180 1.388 . S
C180 H167 0.930 . S
C180 C179 1.388 . S
C180 C181 1.390 . S
C181 C180 1.390 . S
C181 C182 1.394 . S
C181 C187 1.465 . S
C182 C177 1.399 . S
C182 C181 1.394 . S
C182 C183 1.516 . S
C183 C182 1.516 . S
C183 C184 1.502 . S
C183 C185 1.561 . S
C183 C186 1.526 . S
C184 H168 0.959 . S
C184 H169 0.959 . S
C184 H170 0.961 . S
C184 C183 1.502 . S
C185 H171 0.960 . S
C185 H172 0.961 . S
C185 H173 0.959 . S
C185 C183 1.561 . S
C186 C183 1.526 . S
C186 C187 1.396 . S
C186 C191 1.390 . S
C187 C181 1.465 . S
C187 C186 1.396 . S
C187 C188 1.399 . S
C188 H174 0.929 . S
C188 C187 1.399 . S
C188 C189 1.385 . S
C189 H175 0.931 . S
C189 C188 1.385 . S
C189 C190 1.389 . S
C190 C189 1.389 . S
C190 C191 1.387 . S
C191 H176 0.930 . S
C191 C186 1.390 . S
C191 C190 1.387 . S
H192 C204 0.930 . S
H193 C206 0.930 . S
H194 C207 0.930 . S
H195 C211 0.956 1_554 S
H196 C211 0.959 . S
H197 C211 0.961 . S
H198 C212 0.960 . S
H199 C212 0.961 . S
H200 C212 0.959 . S
H201 C215 0.929 . S
H202 C216 0.931 . S
H203 C218 0.930 . S
C204 H192 0.930 . S
C204 C205 1.399 . S
C204 C209 1.399 . S
C205 C204 1.399 . S
C205 C206 1.376 1_556 S
C206 H193 0.930 . S
C206 C205 1.376 1_554 S
C206 C207 1.388 . S
C207 H194 0.930 . S
C207 C206 1.388 . S
C207 C208 1.390 1_554 S
C208 C207 1.390 1_556 S
C208 C209 1.394 . S
C208 C214 1.465 . S
C209 C204 1.399 . S
C209 C208 1.394 . S
C209 C210 1.516 . S
C210 C209 1.516 . S
C210 C211 1.502 . S
C210 C212 1.561 . S
C210 C213 1.526 . S
C211 H195 0.956 1_556 S
C211 H196 0.959 . S
C211 H197 0.961 . S
C211 C210 1.502 . S
C212 H198 0.960 . S
C212 H199 0.961 . S
C212 H200 0.959 . S
C212 C210 1.561 . S
C213 C210 1.526 . S
C213 C214 1.396 . S
C213 C218 1.390 . S
C214 C208 1.465 . S
C214 C213 1.396 . S
C214 C215 1.399 1_556 S
C215 H201 0.929 . S
C215 C214 1.399 1_554 S
C215 C216 1.385 . S
C216 H202 0.931 . S
C216 C215 1.385 . S
C216 C217 1.389 1_554 S
C217 C216 1.389 1_556 S
C217 C218 1.387 . S
C218 H203 0.930 . S
C218 C213 1.390 . S
C218 C217 1.387 . S
H219 C231 0.930 . S
H220 C233 0.930 1_565 S
H221 C234 0.930 1_565 S
H222 C238 0.959 . S
H223 C238 0.959 . S
H224 C238 0.961 . S
H225 C239 0.960 . S
H226 C239 0.961 . S
H227 C239 0.959 . S
H228 C242 0.929 . S
H229 C243 0.931 . S
H230 C245 0.930 . S
C231 H219 0.930 . S
C231 C232 1.399 . S
C231 C236 1.399 . S
C232 C231 1.399 . S
C232 C233 1.376 . S
C233 H220 0.930 1_545 S
C233 C232 1.376 . S
C233 C234 1.388 . S
C234 H221 0.930 1_545 S
C234 C233 1.388 . S
C234 C235 1.390 . S
C235 C234 1.390 . S
C235 C236 1.394 . S
C235 C241 1.465 . S
C236 C231 1.399 . S
C236 C235 1.394 . S
C236 C237 1.516 . S
C237 C236 1.516 . S
C237 C238 1.502 . S
C237 C239 1.561 . S
C237 C240 1.526 . S
C238 H222 0.959 . S
C238 H223 0.959 . S
C238 H224 0.961 . S
C238 C237 1.502 . S
C239 H225 0.960 . S
C239 H226 0.961 . S
C239 H227 0.959 . S
C239 C237 1.561 . S
C240 C237 1.526 . S
C240 C241 1.396 . S
C240 C245 1.390 . S
C241 C235 1.465 . S
C241 C240 1.396 . S
C241 C242 1.399 . S
C242 H228 0.929 . S
C242 C241 1.399 . S
C242 C243 1.385 . S
C243 H229 0.931 . S
C243 C242 1.385 . S
C243 C244 1.389 . S
C244 C243 1.389 . S
C244 C245 1.387 . S
C245 H230 0.930 . S
C245 C240 1.390 . S
C245 C244 1.387 . S
H246 C258 0.930 . S
H247 C260 0.930 . S
H248 C261 0.930 . S
H249 C265 0.959 . S
H250 C265 0.959 . S
H251 C265 0.961 1_655 S
H252 C266 0.960 1_655 S
H253 C266 0.961 . S
H254 C266 0.959 . S
H255 C269 0.929 . S
H256 C270 0.931 . S
H257 C272 0.930 . S
C258 H246 0.930 . S
C258 C259 1.399 1_554 S
C258 C263 1.399 . S
C259 C258 1.399 1_556 S
C259 C260 1.376 . S
C260 H247 0.930 . S
C260 C259 1.376 . S
C260 C261 1.388 . S
C261 H248 0.930 . S
C261 C260 1.388 . S
C261 C262 1.390 . S
C262 C261 1.390 . S
C262 C263 1.394 1_556 S
C262 C268 1.465 1_655 S
C263 C258 1.399 . S
C263 C262 1.394 1_554 S
C263 C264 1.516 1_655 S
C264 C263 1.516 1_455 S
C264 C265 1.502 . S
C264 C266 1.561 . S
C264 C267 1.526 . S
C265 H249 0.959 . S
C265 H250 0.959 . S
C265 H251 0.961 1_455 S
C265 C264 1.502 . S
C266 H252 0.960 1_455 S
C266 H253 0.961 . S
C266 H254 0.959 . S
C266 C264 1.561 . S
C267 C264 1.526 . S
C267 C268 1.396 1_554 S
C267 C272 1.390 . S
C268 C262 1.465 1_455 S
C268 C267 1.396 1_556 S
C268 C269 1.399 . S
C269 H255 0.929 . S
C269 C268 1.399 . S
C269 C270 1.385 . S
C270 H256 0.931 . S
C270 C269 1.385 . S
C270 C271 1.389 . S
C271 C270 1.389 . S
C271 C272 1.387 1_556 S
C272 H257 0.930 . S
C272 C267 1.390 . S
C272 C271 1.387 1_554 S
H273 C285 0.930 . S
H274 C287 0.930 . S
H275 C288 0.930 . S
H276 C292 0.961 . S
H277 C292 0.959 1_655 S
H278 C292 0.961 . S
H279 C293 0.960 . S
H280 C293 0.961 . S
H281 C293 0.959 . S
H282 C296 0.929 . S
H283 C297 0.931 . S
H284 C299 0.930 . S
C285 H273 0.930 . S
C285 C286 1.399 . S
C285 C290 1.399 . S
C286 C285 1.399 . S
C286 C287 1.376 . S
C287 H274 0.930 . S
C287 C286 1.376 . S
C287 C288 1.388 . S
C288 H275 0.930 . S
C288 C287 1.388 . S
C288 C289 1.390 . S
C289 C288 1.390 . S
C289 C290 1.394 . S
C289 C295 1.465 1_455 S
C290 C285 1.399 . S
C290 C289 1.394 . S
C290 C291 1.516 . S
C291 C290 1.516 . S
C291 C292 1.502 . S
C291 C293 1.561 . S
C291 C294 1.526 1_455 S
C292 H276 0.961 . S
C292 H277 0.959 1_455 S
C292 H278 0.961 . S
C292 C291 1.502 . S
C293 H279 0.960 . S
C293 H280 0.961 . S
C293 H281 0.959 . S
C293 C291 1.561 . S
C294 C291 1.526 1_655 S
C294 C295 1.396 . S
C294 C299 1.390 . S
C295 C289 1.465 1_655 S
C295 C294 1.396 . S
C295 C296 1.399 . S
C296 H282 0.929 . S
C296 C295 1.399 . S
C296 C297 1.385 . S
C297 H283 0.931 . S
C297 C296 1.385 . S
C297 C298 1.389 . S
C298 C297 1.389 . S
C298 C299 1.387 . S
C299 H284 0.930 . S
C299 C294 1.390 . S
C299 C298 1.387 . S
H300 C312 0.930 . S
H301 C314 0.930 . S
H302 C315 0.930 . S
H303 C319 0.959 . S
H304 C319 0.959 . S
H305 C319 0.961 . S
H306 C320 0.960 . S
H307 C320 0.961 . S
H308 C320 0.959 . S
H309 C323 0.929 . S
H310 C324 0.931 . S
H311 C326 0.930 . S
C312 H300 0.930 . S
C312 C313 1.399 . S
C312 C317 1.399 . S
C313 C312 1.399 . S
C313 C314 1.376 . S
C314 H301 0.930 . S
C314 C313 1.376 . S
C314 C315 1.388 . S
C315 H302 0.930 . S
C315 C314 1.388 . S
C315 C316 1.390 . S
C316 C315 1.390 . S
C316 C317 1.394 . S
C316 C322 1.465 . S
C317 C312 1.399 . S
C317 C316 1.394 . S
C317 C318 1.516 . S
C318 C317 1.516 . S
C318 C319 1.502 1_455 S
C318 C320 1.561 . S
C318 C321 1.526 . S
C319 H303 0.959 . S
C319 H304 0.959 . S
C319 H305 0.961 . S
C319 C318 1.502 1_655 S
C320 H306 0.960 . S
C320 H307 0.961 . S
C320 H308 0.959 . S
C320 C318 1.561 . S
C321 C318 1.526 . S
C321 C322 1.396 . S
C321 C326 1.390 . S
C322 C316 1.465 . S
C322 C321 1.396 . S
C322 C323 1.399 . S
C323 H309 0.929 . S
C323 C322 1.399 . S
C323 C324 1.385 . S
C324 H310 0.931 . S
C324 C323 1.385 . S
C324 C325 1.389 . S
C325 C324 1.389 . S
C325 C326 1.387 . S
C326 H311 0.930 . S
C326 C321 1.390 . S
C326 C325 1.387 . S
H327 C339 0.930 . S
H328 C341 0.930 . S
H329 C342 0.930 . S
H330 C346 0.959 . S
H331 C346 0.959 . S
H332 C346 0.961 . S
H333 C347 0.960 . S
H334 C347 0.961 . S
H335 C347 0.959 . S
H336 C350 0.929 . S
H337 C351 0.931 . S
H338 C353 0.930 . S
C339 H327 0.930 . S
C339 C340 1.399 . S
C339 C344 1.399 . S
C340 C339 1.399 . S
C340 C341 1.376 . S
C341 H328 0.930 . S
C341 C340 1.376 . S
C341 C342 1.388 . S
C342 H329 0.930 . S
C342 C341 1.388 . S
C342 C343 1.390 . S
C343 C342 1.390 . S
C343 C344 1.394 . S
C343 C349 1.465 . S
C344 C339 1.399 . S
C344 C343 1.394 . S
C344 C345 1.516 . S
C345 C344 1.516 . S
C345 C346 1.502 1_455 S
C345 C347 1.561 . S
C345 C348 1.526 . S
C346 H330 0.959 . S
C346 H331 0.959 . S
C346 H332 0.961 . S
C346 C345 1.502 1_655 S
C347 H333 0.960 . S
C347 H334 0.961 . S
C347 H335 0.959 . S
C347 C345 1.561 . S
C348 C345 1.526 . S
C348 C349 1.396 . S
C348 C353 1.390 . S
C349 C343 1.465 . S
C349 C348 1.396 . S
C349 C350 1.399 . S
C350 H336 0.929 . S
C350 C349 1.399 . S
C350 C351 1.385 . S
C351 H337 0.931 . S
C351 C350 1.385 . S
C351 C352 1.389 . S
C352 C351 1.389 . S
C352 C353 1.387 . S
C353 H338 0.930 . S
C353 C348 1.390 . S
C353 C352 1.387 . S
H354 C366 0.930 . S
H355 C368 0.930 . S
H356 C369 0.930 . S
H357 C373 0.959 . S
H358 C373 0.959 . S
H359 C373 0.961 . S
H360 C374 0.960 . S
H361 C374 0.961 . S
H362 C374 0.959 . S
H363 C377 0.929 . S
H364 C378 0.931 . S
H365 C380 0.930 . S
C366 H354 0.930 . S
C366 C367 1.399 . S
C366 C371 1.399 . S
C367 C366 1.399 . S
C367 C368 1.376 . S
C368 H355 0.930 . S
C368 C367 1.376 . S
C368 C369 1.388 . S
C369 H356 0.930 . S
C369 C368 1.388 . S
C369 C370 1.390 . S
C370 C369 1.390 . S
C370 C371 1.394 . S
C370 C376 1.465 . S
C371 C366 1.399 . S
C371 C370 1.394 . S
C371 C372 1.516 . S
C372 C371 1.516 . S
C372 C373 1.502 . S
C372 C374 1.561 . S
C372 C375 1.526 . S
C373 H357 0.959 . S
C373 H358 0.959 . S
C373 H359 0.961 . S
C373 C372 1.502 . S
C374 H360 0.960 . S
C374 H361 0.961 . S
C374 H362 0.959 . S
C374 C372 1.561 . S
C375 C372 1.526 . S
C375 C376 1.396 . S
C375 C380 1.390 . S
C376 C370 1.465 . S
C376 C375 1.396 . S
C376 C377 1.399 . S
C377 H363 0.929 . S
C377 C376 1.399 . S
C377 C378 1.385 . S
C378 H364 0.931 . S
C378 C377 1.385 . S
C378 C379 1.389 . S
C379 C378 1.389 . S
C379 C380 1.387 . S
C380 H365 0.930 . S
C380 C375 1.390 . S
C380 C379 1.387 . S
H381 C393 0.930 . S
H382 C395 0.930 . S
H383 C396 0.930 . S
H384 C400 0.959 . S
H385 C400 0.959 . S
H386 C400 0.961 . S
H387 C401 0.960 . S
H388 C401 0.961 . S
H389 C401 0.959 . S
H390 C404 0.929 . S
H391 C405 0.931 . S
H392 C407 0.930 . S
C393 H381 0.930 . S
C393 C394 1.399 . S
C393 C398 1.399 . S
C394 C393 1.399 . S
C394 C395 1.376 . S
C395 H382 0.930 . S
C395 C394 1.376 . S
C395 C396 1.388 . S
C396 H383 0.930 . S
C396 C395 1.388 . S
C396 C397 1.390 . S
C397 C396 1.390 . S
C397 C398 1.394 . S
C397 C403 1.465 . S
C398 C393 1.399 . S
C398 C397 1.394 . S
C398 C399 1.516 . S
C399 C398 1.516 . S
C399 C400 1.502 . S
C399 C401 1.561 . S
C399 C402 1.526 . S
C400 H384 0.959 . S
C400 H385 0.959 . S
C400 H386 0.961 . S
C400 C399 1.502 . S
C401 H387 0.960 . S
C401 H388 0.961 . S
C401 H389 0.959 . S
C401 C399 1.561 . S
C402 C399 1.526 . S
C402 C403 1.396 . S
C402 C407 1.390 . S
C403 C397 1.465 . S
C403 C402 1.396 . S
C403 C404 1.399 . S
C404 H390 0.929 . S
C404 C403 1.399 . S
C404 C405 1.385 . S
C405 H391 0.931 . S
C405 C404 1.385 . S
C405 C406 1.389 . S
C406 C405 1.389 . S
C406 C407 1.387 . S
C407 H392 0.930 . S
C407 C402 1.390 . S
C407 C406 1.387 . S
C97 C61 1.551 . S
C109 C3 1.453 . S
C124 C45 1.539 . S
C136 C19 1.528 . S
C151 C24 1.471 . S
C163 C82 1.592 . S
C178 C40 1.550 . S
C190 C66 1.454 . S
C205 C16 0.678 1_556 S
C217 C20 0.749 . S
C232 C37 0.645 . S
C244 C41 0.753 . S
C259 C58 0.768 1_556 S
C271 C62 0.588 . S
C286 C83 0.611 . S
C298 C79 0.792 . S
C313 C28 1.380 . S
C325 C7 1.461 . S
C340 C4 1.328 . S
C352 C25 1.387 . S
C367 C70 1.454 . S
C379 C49 1.402 . S
C394 C67 1.313 . S
C406 C46 1.250 . S
