# Generated by pormake.
# Topology wmt, (6)-cn, num edge types: 1
# Building blocks:
#     Node 0, Type 0, BuildingBlock: LEVNOQ01_clean_sbu_1, # of connection points: 6
#     Node 1, Type 0, BuildingBlock: LEVNOQ01_clean_sbu_1, # of connection points: 6
#     Node 2, Type 0, BuildingBlock: LEVNOQ01_clean_sbu_1, # of connection points: 6
#     Node 3, Type 0, BuildingBlock: LEVNOQ01_clean_sbu_1, # of connection points: 6
#     Node 4, Type 0, BuildingBlock: LEVNOQ01_clean_sbu_1, # of connection points: 6
#     Node 5, Type 0, BuildingBlock: LEVNOQ01_clean_sbu_1, # of connection points: 6
#     Node 6, Type 0, BuildingBlock: LEVNOQ01_clean_sbu_1, # of connection points: 6
#     Node 7, Type 0, BuildingBlock: LEVNOQ01_clean_sbu_1, # of connection points: 6
#     Node 8, Type 0, BuildingBlock: LEVNOQ01_clean_sbu_1, # of connection points: 6
#     Node 9, Type 0, BuildingBlock: LEVNOQ01_clean_sbu_1, # of connection points: 6
#     Node 10, Type 0, BuildingBlock: LEVNOQ01_clean_sbu_1, # of connection points: 6
#     Node 11, Type 0, BuildingBlock: LEVNOQ01_clean_sbu_1, # of connection points: 6
#     Node 12, Type 0, BuildingBlock: LEVNOQ01_clean_sbu_1, # of connection points: 6
#     Node 13, Type 0, BuildingBlock: LEVNOQ01_clean_sbu_1, # of connection points: 6
#     Node 14, Type 0, BuildingBlock: LEVNOQ01_clean_sbu_1, # of connection points: 6
#     Node 15, Type 0, BuildingBlock: LEVNOQ01_clean_sbu_1, # of connection points: 6
#     Node 16, Type 0, BuildingBlock: LEVNOQ01_clean_sbu_1, # of connection points: 6
#     Node 17, Type 0, BuildingBlock: LEVNOQ01_clean_sbu_1, # of connection points: 6
#     Node 18, Type 0, BuildingBlock: LEVNOQ01_clean_sbu_1, # of connection points: 6
#     Node 19, Type 0, BuildingBlock: LEVNOQ01_clean_sbu_1, # of connection points: 6
#     Node 20, Type 0, BuildingBlock: LEVNOQ01_clean_sbu_1, # of connection points: 6
#     Node 21, Type 0, BuildingBlock: LEVNOQ01_clean_sbu_1, # of connection points: 6
#     Node 22, Type 0, BuildingBlock: LEVNOQ01_clean_sbu_1, # of connection points: 6
#     Node 23, Type 0, BuildingBlock: LEVNOQ01_clean_sbu_1, # of connection points: 6
#     Node 24, Type 0, BuildingBlock: LEVNOQ01_clean_sbu_1, # of connection points: 6
#     Node 25, Type 0, BuildingBlock: LEVNOQ01_clean_sbu_1, # of connection points: 6
#     Node 26, Type 0, BuildingBlock: LEVNOQ01_clean_sbu_1, # of connection points: 6
#     Node 27, Type 0, BuildingBlock: LEVNOQ01_clean_sbu_1, # of connection points: 6
#     Node 28, Type 0, BuildingBlock: LEVNOQ01_clean_sbu_1, # of connection points: 6
#     Node 29, Type 0, BuildingBlock: LEVNOQ01_clean_sbu_1, # of connection points: 6
#     Node 30, Type 0, BuildingBlock: LEVNOQ01_clean_sbu_1, # of connection points: 6
#     Node 31, Type 0, BuildingBlock: LEVNOQ01_clean_sbu_1, # of connection points: 6
#     Node 32, Type 0, BuildingBlock: LEVNOQ01_clean_sbu_1, # of connection points: 6
#     Node 33, Type 0, BuildingBlock: LEVNOQ01_clean_sbu_1, # of connection points: 6
#     Node 34, Type 0, BuildingBlock: LEVNOQ01_clean_sbu_1, # of connection points: 6
#     Node 35, Type 0, BuildingBlock: LEVNOQ01_clean_sbu_1, # of connection points: 6
#     Edge 36, Type (0, 0), None
#     Edge 37, Type (0, 0), None
#     Edge 38, Type (0, 0), None
#     Edge 39, Type (0, 0), None
#     Edge 40, Type (0, 0), None
#     Edge 41, Type (0, 0), None
#     Edge 42, Type (0, 0), None
#     Edge 43, Type (0, 0), None
#     Edge 44, Type (0, 0), None
#     Edge 45, Type (0, 0), None
#     Edge 46, Type (0, 0), None
#     Edge 47, Type (0, 0), None
#     Edge 48, Type (0, 0), None
#     Edge 49, Type (0, 0), None
#     Edge 50, Type (0, 0), None
#     Edge 51, Type (0, 0), None
#     Edge 52, Type (0, 0), None
#     Edge 53, Type (0, 0), None
#     Edge 54, Type (0, 0), None
#     Edge 55, Type (0, 0), None
#     Edge 56, Type (0, 0), None
#     Edge 57, Type (0, 0), None
#     Edge 58, Type (0, 0), None
#     Edge 59, Type (0, 0), None
#     Edge 60, Type (0, 0), None
#     Edge 61, Type (0, 0), None
#     Edge 62, Type (0, 0), None
#     Edge 63, Type (0, 0), None
#     Edge 64, Type (0, 0), None
#     Edge 65, Type (0, 0), None
#     Edge 66, Type (0, 0), None
#     Edge 67, Type (0, 0), None
#     Edge 68, Type (0, 0), None
#     Edge 69, Type (0, 0), None
#     Edge 70, Type (0, 0), None
#     Edge 71, Type (0, 0), None
#     Edge 72, Type (0, 0), None
#     Edge 73, Type (0, 0), None
#     Edge 74, Type (0, 0), None
#     Edge 75, Type (0, 0), None
#     Edge 76, Type (0, 0), None
#     Edge 77, Type (0, 0), None
#     Edge 78, Type (0, 0), None
#     Edge 79, Type (0, 0), None
#     Edge 80, Type (0, 0), None
#     Edge 81, Type (0, 0), None
#     Edge 82, Type (0, 0), None
#     Edge 83, Type (0, 0), None
#     Edge 84, Type (0, 0), None
#     Edge 85, Type (0, 0), None
#     Edge 86, Type (0, 0), None
#     Edge 87, Type (0, 0), None
#     Edge 88, Type (0, 0), None
#     Edge 89, Type (0, 0), None
#     Edge 90, Type (0, 0), None
#     Edge 91, Type (0, 0), None
#     Edge 92, Type (0, 0), None
#     Edge 93, Type (0, 0), None
#     Edge 94, Type (0, 0), None
#     Edge 95, Type (0, 0), None
#     Edge 96, Type (0, 0), None
#     Edge 97, Type (0, 0), None
#     Edge 98, Type (0, 0), None
#     Edge 99, Type (0, 0), None
#     Edge 100, Type (0, 0), None
#     Edge 101, Type (0, 0), None
#     Edge 102, Type (0, 0), None
#     Edge 103, Type (0, 0), None
#     Edge 104, Type (0, 0), None
#     Edge 105, Type (0, 0), None
#     Edge 106, Type (0, 0), None
#     Edge 107, Type (0, 0), None
#     Edge 108, Type (0, 0), None
#     Edge 109, Type (0, 0), None
#     Edge 110, Type (0, 0), None
#     Edge 111, Type (0, 0), None
#     Edge 112, Type (0, 0), None
#     Edge 113, Type (0, 0), None
#     Edge 114, Type (0, 0), None
#     Edge 115, Type (0, 0), None
#     Edge 116, Type (0, 0), None
#     Edge 117, Type (0, 0), None
#     Edge 118, Type (0, 0), None
#     Edge 119, Type (0, 0), None
#     Edge 120, Type (0, 0), None
#     Edge 121, Type (0, 0), None
#     Edge 122, Type (0, 0), None
#     Edge 123, Type (0, 0), None
#     Edge 124, Type (0, 0), None
#     Edge 125, Type (0, 0), None
#     Edge 126, Type (0, 0), None
#     Edge 127, Type (0, 0), None
#     Edge 128, Type (0, 0), None
#     Edge 129, Type (0, 0), None
#     Edge 130, Type (0, 0), None
#     Edge 131, Type (0, 0), None
#     Edge 132, Type (0, 0), None
#     Edge 133, Type (0, 0), None
#     Edge 134, Type (0, 0), None
#     Edge 135, Type (0, 0), None
#     Edge 136, Type (0, 0), None
#     Edge 137, Type (0, 0), None
#     Edge 138, Type (0, 0), None
#     Edge 139, Type (0, 0), None
#     Edge 140, Type (0, 0), None
#     Edge 141, Type (0, 0), None
#     Edge 142, Type (0, 0), None
#     Edge 143, Type (0, 0), None
# Relax obj value: 0.501
# Max RMSD: 0.246
# Mean RMSD: 0.246
data_MOF--net-wmt--node1-LEVNOQ01_clean_sbu_1--edge1-none
_symmetry_space_group_name_H-M    P1
_symmetry_Int_Tables_number       1
_symmetry_cell_setting            triclinic
loop_
_symmetry_equiv_pos_as_xyz
'x, y, z'
_cell_length_a     41.979777
_cell_length_b     41.976362
_cell_length_c     11.525843
_cell_angle_alpha  89.991516
_cell_angle_beta   90.013734
_cell_angle_gamma 119.98685
loop_
_atom_site_label
_atom_site_type_symbol
_atom_site_fract_x
_atom_site_fract_y
_atom_site_fract_z
_atom_type_partial_charge
O0 O 0.01074 0.40869 0.30962 0.0
Mg1 Mg 0.06929 0.4427 0.2438 0.0
O2 O -0.01911 0.41588 0.16042 0.0
Mg3 Mg 0.02762 0.45866 0.0207 0.0
O4 O 0.06027 0.44051 0.06933 0.0
O5 O 0.10107 0.42787 0.11039 0.0
O6 O 0.07072 0.50442 0.90074 0.0
O7 O 0.00522 0.41237 0.86681 0.0
Mg8 Mg -0.01607 0.45447 0.86294 0.0
O9 O 0.00262 0.49038 0.97923 0.0
O10 O 0.03289 0.47748 0.75618 0.0
O11 O 0.95272 0.39844 0.93024 0.0
O12 O 0.94904 0.4748 0.90522 0.0
C13 C 0.06928 0.51585 0.24314 0.0
C14 C -0.0196 0.40275 0.26274 0.0
C15 C 0.08338 0.43315 0.02929 0.0
C16 C 0.06154 0.50546 0.79622 0.0
C17 C -0.02949 0.39143 0.85791 0.0
C18 C -0.02984 0.48284 0.99411 0.0
O19 O 0.08482 0.50045 0.29617 0.0
O20 O 0.04994 0.50055 0.15514 0.0
O21 O 0.52874 0.58953 0.30955 0.0
Mg22 Mg 0.49471 0.61407 0.2437 0.0
O23 O 0.52156 0.5525 0.16037 0.0
Mg24 Mg 0.47879 0.55647 0.0206 0.0
O25 O 0.49689 0.60726 0.06923 0.0
O26 O 0.50953 0.66069 0.11032 0.0
O27 O 0.43302 0.5538 0.90059 0.0
O28 O 0.52506 0.58035 0.86671 0.0
Mg29 Mg 0.48303 0.51692 0.8626 0.0
O30 O 0.44717 0.49979 0.97896 0.0
O31 O 0.45996 0.5429 0.75605 0.0
O32 O 0.53903 0.5418 0.93019 0.0
O33 O 0.46272 0.46173 0.90526 0.0
C34 C 0.42157 0.54092 0.243 0.0
C35 C 0.53468 0.56512 0.26269 0.0
C36 C 0.50426 0.63773 0.02921 0.0
C37 C 0.43197 0.54357 0.79609 0.0
C38 C 0.54601 0.56658 0.85782 0.0
C39 C 0.45468 0.47485 0.99403 0.0
O40 O 0.43697 0.57185 0.296 0.0
O41 O 0.43687 0.53687 0.15502 0.0
O42 O 0.34799 0.92671 0.30943 0.0
Mg43 Mg 0.32347 0.86814 0.24375 0.0
O44 O 0.38498 0.95657 0.16018 0.0
Mg45 Mg 0.381 0.90981 0.02051 0.0
O46 O 0.33027 0.87708 0.06931 0.0
O47 O 0.27684 0.83633 0.11045 0.0
O48 O 0.38375 0.86678 0.90061 0.0
O49 O 0.35708 0.93213 0.86648 0.0
Mg50 Mg 0.42068 0.95392 0.86134 0.0
O51 O 0.43752 0.93507 0.97808 0.0
O52 O 0.39465 0.9046 0.7559 0.0
O53 O 0.39553 -0.01532 0.92989 0.0
O54 O 0.47579 -0.01126 0.90535 0.0
C55 C 0.39665 0.86817 0.24296 0.0
C56 C 0.37236 0.95706 0.26252 0.0
C57 C 0.29979 0.85399 0.02932 0.0
C58 C 0.39401 0.87597 0.79614 0.0
C59 C 0.37081 0.96684 0.85743 0.0
C60 C 0.46252 0.96744 0.99373 0.0
O61 O 0.36572 0.85264 0.29594 0.0
O62 O 0.40072 0.88754 0.15494 0.0
O63 O 0.39621 0.02325 0.28714 0.0
Mg64 Mg 0.43021 0.08182 0.35295 0.0
O65 O 0.4034 -0.0066 0.43635 0.0
Mg66 Mg 0.44616 0.04015 0.57609 0.0
O67 O 0.42805 0.07282 0.52741 0.0
O68 O 0.41536 0.11358 0.48634 0.0
O69 O 0.49192 0.08323 0.69609 0.0
O70 O 0.39989 0.01776 0.72997 0.0
Mg71 Mg 0.44191 -0.00367 0.73418 0.0
O72 O 0.47778 0.01508 0.61784 0.0
O73 O 0.46498 0.04538 0.84064 0.0
O74 O 0.38591 0.96521 0.6665 0.0
O75 O 0.46225 0.96147 0.6915 0.0
C76 C 0.50337 0.08182 0.35368 0.0
C77 C 0.39028 -0.00709 0.33403 0.0
C78 C 0.42066 0.09591 0.56745 0.0
C79 C 0.49297 0.07404 0.80058 0.0
C80 C 0.37896 -0.01696 0.73878 0.0
C81 C 0.47029 -0.01735 0.60275 0.0
O82 O 0.48796 0.09734 0.30066 0.0
O83 O 0.48808 0.06246 0.44168 0.0
O84 O 0.91421 0.36046 0.28729 0.0
Mg85 Mg 0.85564 0.33592 0.35293 0.0
O86 O 0.94406 0.39745 0.43658 0.0
Mg87 Mg 0.8973 0.39346 0.57623 0.0
O88 O 0.86455 0.34274 0.52736 0.0
O89 O 0.82388 0.28928 0.48621 0.0
O90 O 0.85429 0.39623 0.6961 0.0
O91 O 0.9196 0.36954 0.73026 0.0
Mg92 Mg 0.94152 0.43318 0.73575 0.0
O93 O 0.92262 0.44994 0.61894 0.0
O94 O 0.89212 0.40714 0.84085 0.0
O95 O -0.0278 0.40799 0.66686 0.0
O96 O -0.02369 0.48829 0.69138 0.0
C97 C 0.85566 0.40912 0.35377 0.0
C98 C 0.94455 0.38483 0.33423 0.0
C99 C 0.8415 0.31225 0.56734 0.0
C100 C 0.86349 0.4065 0.80056 0.0
C101 C 0.95431 0.38327 0.73926 0.0
C102 C 0.95496 0.47496 0.60312 0.0
O103 O 0.84014 0.37818 0.30078 0.0
O104 O 0.87503 0.4132 0.4418 0.0
O105 O 0.57699 0.54122 0.28732 0.0
Mg106 Mg 0.60154 0.50719 0.35305 0.0
O107 O 0.54 0.53409 0.43656 0.0
Mg108 Mg 0.544 0.49132 0.57629 0.0
O109 O 0.59474 0.50931 0.52749 0.0
O110 O 0.64819 0.52205 0.48635 0.0
O111 O 0.54127 0.44555 0.69625 0.0
O112 O 0.5679 0.53755 0.73027 0.0
Mg113 Mg 0.5043 0.49577 0.73548 0.0
O114 O 0.48749 0.46009 0.61878 0.0
O115 O 0.53034 0.47247 0.84092 0.0
O116 O 0.52942 0.55167 0.6668 0.0
O117 O 0.44918 0.47547 0.6914 0.0
C118 C 0.52837 0.43403 0.35389 0.0
C119 C 0.55261 0.54719 0.33422 0.0
C120 C 0.62523 0.51673 0.56748 0.0
C121 C 0.53099 0.44448 0.8007 0.0
C122 C 0.55415 0.55852 0.73919 0.0
C123 C 0.46247 0.46744 0.60306 0.0
O124 O 0.5593 0.44944 0.3009 0.0
O125 O 0.52429 0.44932 0.44189 0.0
O126 O 0.91424 0.54124 0.78716 0.0
Mg127 Mg 0.85569 0.50725 0.85297 0.0
O128 O 0.94408 0.534 0.93633 0.0
Mg129 Mg 0.89733 0.49125 0.07609 0.0
O130 O 0.86468 0.50941 0.02747 0.0
O131 O 0.82396 0.52214 0.98632 0.0
O132 O 0.85423 0.4455 0.1961 0.0
O133 O 0.91975 0.53753 0.22996 0.0
Mg134 Mg 0.94103 0.49542 0.23386 0.0
O135 O 0.92229 0.45949 0.11761 0.0
O136 O 0.89209 0.47245 0.34067 0.0
O137 O -0.02776 0.55144 0.16652 0.0
O138 O -0.0241 0.47507 0.19159 0.0
C139 C 0.85567 0.43407 0.85362 0.0
C140 C 0.94458 0.54715 0.83403 0.0
C141 C 0.84161 0.51683 0.06746 0.0
C142 C 0.86342 0.44448 0.30062 0.0
C143 C 0.95446 0.55846 0.23885 0.0
C144 C 0.95474 0.46698 0.10277 0.0
O145 O 0.84016 0.4495 0.80058 0.0
O146 O 0.87501 0.44935 0.94166 0.0
O147 O 0.39627 0.36052 0.78724 0.0
Mg148 Mg 0.43028 0.33596 0.85309 0.0
O149 O 0.40347 0.39757 0.9364 0.0
Mg150 Mg 0.44623 0.39356 0.07621 0.0
O151 O 0.4281 0.34276 0.02758 0.0
O152 O 0.41542 0.28932 0.98641 0.0
O153 O 0.49198 0.39621 0.19627 0.0
O154 O 0.39996 0.3697 0.23007 0.0
Mg155 Mg 0.442 0.43313 0.23421 0.0
O156 O 0.47788 0.45024 0.11788 0.0
O157 O 0.46503 0.40714 0.34082 0.0
O158 O 0.38601 0.40827 0.16659 0.0
O159 O 0.46234 0.48833 0.19155 0.0
C160 C 0.50343 0.4091 0.85379 0.0
C161 C 0.39034 0.38494 0.83409 0.0
C162 C 0.4207 0.31228 0.06756 0.0
C163 C 0.493 0.40644 0.30076 0.0
C164 C 0.37902 0.38349 0.23896 0.0
C165 C 0.47042 0.47521 0.10285 0.0
O166 O 0.48802 0.37817 0.80076 0.0
O167 O 0.48815 0.41317 0.9418 0.0
O168 O 0.57696 0.02328 0.78734 0.0
Mg169 Mg 0.6015 0.08185 0.85303 0.0
O170 O 0.53995 -0.00657 0.93657 0.0
Mg171 Mg 0.54396 0.0402 0.07628 0.0
O172 O 0.5947 0.07293 0.02748 0.0
O173 O 0.64816 0.11361 0.98628 0.0
O174 O 0.54123 0.08324 0.19623 0.0
O175 O 0.56786 0.01786 0.23028 0.0
Mg176 Mg 0.50427 -0.00392 0.23545 0.0
O177 O 0.48744 0.01497 0.11874 0.0
O178 O 0.53031 0.04539 0.34096 0.0
O179 O 0.5294 0.96532 0.16687 0.0
O180 O 0.44915 0.96128 0.19144 0.0
C181 C 0.52833 0.08184 0.85382 0.0
C182 C 0.55257 -0.00707 0.83424 0.0
C183 C 0.6252 0.09599 0.06744 0.0
C184 C 0.53098 0.07403 0.30069 0.0
C185 C 0.55412 -0.01685 0.23933 0.0
C186 C 0.46241 -0.01739 0.10312 0.0
O187 O 0.55926 0.09735 0.80082 0.0
O188 O 0.52424 0.06248 0.94186 0.0
O189 O 0.52875 0.92675 0.80961 0.0
Mg190 Mg 0.49477 0.86819 0.74379 0.0
O191 O 0.52152 0.95658 0.66041 0.0
Mg192 Mg 0.47877 0.90982 0.52063 0.0
O193 O 0.49691 0.87716 0.56931 0.0
O194 O 0.50968 0.83646 0.61044 0.0
O195 O 0.43305 0.86674 0.40059 0.0
O196 O 0.52505 0.93223 0.36678 0.0
Mg197 Mg 0.48302 0.95365 0.36255 0.0
O198 O 0.44713 0.93486 0.47886 0.0
O199 O 0.45998 0.90461 0.25602 0.0
O200 O 0.53901 -0.01522 0.43025 0.0
O201 O 0.46265 -0.01151 0.40522 0.0
C202 C 0.42159 0.86816 0.74306 0.0
C203 C 0.53466 0.95708 0.76273 0.0
C204 C 0.50435 0.85411 0.52931 0.0
C205 C 0.43202 0.87595 0.2961 0.0
C206 C 0.54597 0.96695 0.35798 0.0
C207 C 0.45457 0.96728 0.4939 0.0
O208 O 0.43701 0.85265 0.7961 0.0
O209 O 0.43685 0.88751 0.65503 0.0
O210 O 0.01076 0.58945 0.80946 0.0
Mg211 Mg 0.06933 0.61401 0.7438 0.0
O212 O -0.01908 0.55245 0.66019 0.0
Mg213 Mg 0.02769 0.55646 0.5205 0.0
O214 O 0.06044 0.6072 0.56935 0.0
O215 O 0.10107 0.66068 0.61056 0.0
O216 O 0.0707 0.55372 0.40057 0.0
O217 O 0.00537 0.58037 0.36648 0.0
Mg218 Mg -0.01654 0.51672 0.36099 0.0
O219 O 0.0024 0.49999 0.47777 0.0
O220 O 0.03284 0.54278 0.25581 0.0
O221 O 0.95278 0.54191 0.4299 0.0
O222 O 0.94869 0.46162 0.40536 0.0
C223 C 0.06933 0.54082 0.74296 0.0
C224 C -0.01957 0.56506 0.76253 0.0
C225 C 0.08347 0.63771 0.5294 0.0
C226 C 0.06149 0.54345 0.29612 0.0
C227 C -0.02934 0.56663 0.3575 0.0
C228 C -0.02993 0.47493 0.49356 0.0
O229 O 0.08484 0.57176 0.79597 0.0
O230 O 0.04997 0.53672 0.65491 0.0
O231 O 0.34802 0.40882 0.80944 0.0
Mg232 Mg 0.32345 0.44283 0.7437 0.0
O233 O 0.38503 0.41598 0.66022 0.0
Mg234 Mg 0.381 0.45874 0.52046 0.0
O235 O 0.33025 0.44073 0.56925 0.0
O236 O 0.27678 0.42791 0.61045 0.0
O237 O 0.38371 0.50448 0.40045 0.0
O238 O 0.35711 0.4125 0.3665 0.0
Mg239 Mg 0.42072 0.45429 0.36126 0.0
O240 O 0.43751 0.49 0.47794 0.0
O241 O 0.39466 0.47756 0.25577 0.0
O242 O 0.39561 0.3984 0.42998 0.0
O243 O 0.47584 0.47462 0.40535 0.0
C244 C 0.39661 0.516 0.74287 0.0
C245 C 0.37242 0.40287 0.76256 0.0
C246 C 0.29975 0.43326 0.52929 0.0
C247 C 0.39398 0.50554 0.296 0.0
C248 C 0.37087 0.39154 0.35759 0.0
C249 C 0.46255 0.48269 0.49362 0.0
O250 O 0.36568 0.50058 0.79587 0.0
O251 O 0.40071 0.50074 0.65484 0.0
O252 O 0.67742 0.74204 0.64295 0.0
Mg253 Mg 0.73597 0.77605 0.57714 0.0
O254 O 0.64757 0.74924 0.49374 0.0
Mg255 Mg 0.69431 0.79202 0.35402 0.0
O256 O 0.72697 0.77388 0.40266 0.0
O257 O 0.76774 0.76121 0.44376 0.0
O258 O 0.7374 0.83778 0.23406 0.0
O259 O 0.67191 0.74573 0.20013 0.0
Mg260 Mg 0.65059 0.78782 0.19616 0.0
O261 O 0.66929 0.82372 0.31248 0.0
O262 O 0.69957 0.81084 0.0895 0.0
O263 O 0.61941 0.7318 0.26355 0.0
O264 O 0.6157 0.80814 0.23855 0.0
C265 C 0.73597 0.84921 0.57647 0.0
C266 C 0.64708 0.73611 0.59606 0.0
C267 C 0.75006 0.7665 0.36265 0.0
C268 C 0.72822 0.83883 0.12955 0.0
C269 C 0.6372 0.72479 0.19122 0.0
C270 C 0.63684 0.81619 0.32741 0.0
O271 O 0.7515 0.83381 0.6295 0.0
O272 O 0.71662 0.83392 0.48846 0.0
O273 O 0.19543 0.92283 0.64288 0.0
Mg274 Mg 0.1614 0.94738 0.57704 0.0
O275 O 0.18826 0.8858 0.49369 0.0
Mg276 Mg 0.14549 0.88978 0.35393 0.0
O277 O 0.16359 0.94057 0.40257 0.0
O278 O 0.17621 -0.00601 0.44366 0.0
O279 O 0.09972 0.88711 0.23391 0.0
O280 O 0.19176 0.91366 0.20004 0.0
Mg281 Mg 0.14973 0.85023 0.19591 0.0
O282 O 0.11387 0.8331 0.31227 0.0
O283 O 0.12666 0.87621 0.08937 0.0
O284 O 0.20573 0.87511 0.26351 0.0
O285 O 0.12942 0.79504 0.23859 0.0
C286 C 0.08827 0.87422 0.57633 0.0
C287 C 0.20138 0.89843 0.59601 0.0
C288 C 0.17095 0.97103 0.36255 0.0
C289 C 0.09867 0.87688 0.12942 0.0
C290 C 0.21271 0.89989 0.19114 0.0
C291 C 0.12138 0.80816 0.32735 0.0
O292 O 0.10366 0.90516 0.62933 0.0
O293 O 0.10357 0.87017 0.48834 0.0
O294 O 0.01463 0.26004 0.64275 0.0
Mg295 Mg -0.00989 0.20147 0.57706 0.0
O296 O 0.05162 0.2899 0.49351 0.0
Mg297 Mg 0.04765 0.24314 0.35384 0.0
O298 O -0.00309 0.21041 0.40262 0.0
O299 O 0.94347 0.16968 0.44376 0.0
O300 O 0.0504 0.2001 0.23394 0.0
O301 O 0.02373 0.26547 0.19982 0.0
Mg302 Mg 0.08731 0.28721 0.19478 0.0
O303 O 0.10419 0.26838 0.31149 0.0
O304 O 0.06129 0.23792 0.08923 0.0
O305 O 0.06219 0.31801 0.26323 0.0
O306 O 0.14243 0.32204 0.23865 0.0
C307 C 0.06329 0.2015 0.57629 0.0
C308 C 0.03901 0.29039 0.59584 0.0
C309 C -0.03357 0.18733 0.36263 0.0
C310 C 0.06065 0.20929 0.12946 0.0
C311 C 0.03746 0.30018 0.19078 0.0
C312 C 0.12917 0.30075 0.32708 0.0
O313 O 0.03236 0.18597 0.62927 0.0
O314 O 0.06736 0.22086 0.48827 0.0
O315 O 0.06286 0.35658 0.62045 0.0
Mg316 Mg 0.09686 0.41515 0.68627 0.0
O317 O 0.07004 0.32673 0.76968 0.0
Mg318 Mg 0.11281 0.37348 0.90942 0.0
O319 O 0.09471 0.40616 0.86073 0.0
O320 O 0.082 0.4469 0.81965 0.0
O321 O 0.15856 0.41655 0.02941 0.0
O322 O 0.06654 0.3511 0.06331 0.0
Mg323 Mg 0.10853 0.32962 0.06762 0.0
O324 O 0.14438 0.34838 0.95124 0.0
O325 O 0.13163 0.3787 0.17398 0.0
O326 O 0.05254 0.29854 0.99984 0.0
O327 O 0.12887 0.29477 0.02481 0.0
C328 C 0.17002 0.41514 0.68702 0.0
C329 C 0.05692 0.32624 0.66735 0.0
C330 C 0.0873 0.42923 0.90075 0.0
C331 C 0.15961 0.40736 0.1339 0.0
C332 C 0.0456 0.31638 0.07213 0.0
C333 C 0.1369 0.31596 0.9361 0.0
O334 O 0.15461 0.43067 0.634 0.0
O335 O 0.15473 0.39579 0.77501 0.0
O336 O 0.58089 0.69382 0.62061 0.0
Mg337 Mg 0.52232 0.66928 0.68627 0.0
O338 O 0.61074 0.7308 0.7699 0.0
Mg339 Mg 0.56398 0.72682 0.90956 0.0
O340 O 0.53123 0.67609 0.86071 0.0
O341 O 0.49056 0.62263 0.81954 0.0
O342 O 0.52096 0.72958 0.02944 0.0
O343 O 0.58629 0.7029 0.06359 0.0
Mg344 Mg 0.60818 0.76653 0.06899 0.0
O345 O 0.58929 0.78331 0.9522 0.0
O346 O 0.5588 0.74049 0.17418 0.0
O347 O 0.63888 0.74136 1.00018 0.0
O348 O 0.64297 0.82164 0.02471 0.0
C349 C 0.52234 0.74247 0.6871 0.0
C350 C 0.61123 0.71819 0.66755 0.0
C351 C 0.50819 0.64559 0.90068 0.0
C352 C 0.53016 0.73985 0.1339 0.0
C353 C 0.621 0.71663 0.07257 0.0
C354 C 0.62163 0.80833 0.93642 0.0
O355 O 0.50682 0.71153 0.63411 0.0
O356 O 0.5417 0.74655 0.77513 0.0
O357 O 0.24369 0.87453 0.62064 0.0
Mg358 Mg 0.26823 0.84049 0.68637 0.0
O359 O 0.2067 0.8674 0.76989 0.0
Mg360 Mg 0.21069 0.82463 0.90961 0.0
O361 O 0.26143 0.84262 0.8608 0.0
O362 O 0.31488 0.85536 0.81967 0.0
O363 O 0.20796 0.77886 0.02957 0.0
O364 O 0.2346 0.87086 0.06359 0.0
Mg365 Mg 0.171 0.82908 0.06879 0.0
O366 O 0.15418 0.79339 0.95209 0.0
O367 O 0.19704 0.80578 0.17424 0.0
O368 O 0.19611 0.88498 1.00012 0.0
O369 O 0.11588 0.80877 0.02473 0.0
C370 C 0.19506 0.76734 0.68721 0.0
C371 C 0.21931 0.8805 0.66755 0.0
C372 C 0.29192 0.85005 0.90079 0.0
C373 C 0.19769 0.77779 0.13403 0.0
C374 C 0.22085 0.89183 0.07251 0.0
C375 C 0.12917 0.80074 0.93639 0.0
O376 O 0.22599 0.78275 0.63423 0.0
O377 O 0.19098 0.78263 0.77521 0.0
O378 O 0.58091 0.87459 0.12048 0.0
Mg379 Mg 0.52236 0.84059 0.1863 0.0
O380 O 0.61075 0.86736 0.26967 0.0
Mg381 Mg 0.564 0.8246 0.40943 0.0
O382 O 0.53135 0.84276 0.36079 0.0
O383 O 0.49062 0.85548 0.31964 0.0
O384 O 0.52091 0.77886 0.52943 0.0
O385 O 0.58642 0.87089 0.5633 0.0
Mg386 Mg 0.60773 0.82879 0.56727 0.0
O387 O 0.58899 0.79287 0.45099 0.0
O388 O 0.55877 0.8058 0.67401 0.0
O389 O 0.63891 0.88481 0.49987 0.0
O390 O 0.6426 0.80845 0.5249 0.0
C391 C 0.52235 0.76742 0.18697 0.0
C392 C 0.61125 0.8805 0.16736 0.0
C393 C 0.50829 0.85019 0.40078 0.0
C394 C 0.5301 0.77784 0.63395 0.0
C395 C 0.62113 0.89182 0.5722 0.0
C396 C 0.62143 0.80036 0.43611 0.0
O397 O 0.50683 0.78284 0.13392 0.0
O398 O 0.54169 0.7827 0.275 0.0
O399 O 0.06297 0.69383 0.12056 0.0
Mg400 Mg 0.09697 0.66927 0.18641 0.0
O401 O 0.07017 0.73088 0.26973 0.0
Mg402 Mg 0.11293 0.72687 0.40953 0.0
O403 O 0.0948 0.67608 0.36089 0.0
O404 O 0.08211 0.62263 0.31974 0.0
O405 O 0.15867 0.72952 0.5296 0.0
O406 O 0.06666 0.70301 0.5634 0.0
Mg407 Mg 0.1087 0.76644 0.56756 0.0
O408 O 0.14458 0.78355 0.45122 0.0
O409 O 0.13173 0.74044 0.67415 0.0
O410 O 0.05271 0.74157 0.49992 0.0
O411 O 0.12903 0.82164 0.52488 0.0
C412 C 0.17013 0.74241 0.18712 0.0
C413 C 0.05704 0.71825 0.16742 0.0
C414 C 0.08739 0.64559 0.40087 0.0
C415 C 0.1597 0.73975 0.63409 0.0
C416 C 0.04572 0.71679 0.57228 0.0
C417 C 0.13711 0.80852 0.43619 0.0
O418 O 0.15472 0.71148 0.13409 0.0
O419 O 0.15485 0.74648 0.27513 0.0
O420 O 0.2436 0.3566 0.12065 0.0
Mg421 Mg 0.26815 0.41517 0.18636 0.0
O422 O 0.2066 0.32676 0.26987 0.0
Mg423 Mg 0.2106 0.37352 0.40959 0.0
O424 O 0.26136 0.40625 0.36082 0.0
O425 O 0.3148 0.44694 0.31961 0.0
O426 O 0.20788 0.41657 0.52955 0.0
O427 O 0.2345 0.35118 0.56359 0.0
Mg428 Mg 0.17092 0.32944 0.56865 0.0
O429 O 0.15406 0.34831 0.45196 0.0
O430 O 0.19696 0.37871 0.67426 0.0
O431 O 0.19602 0.29864 0.50017 0.0
O432 O 0.11579 0.29463 0.52476 0.0
C433 C 0.19498 0.41517 0.18713 0.0
C434 C 0.21921 0.32626 0.16754 0.0
C435 C 0.29186 0.4293 0.40077 0.0
C436 C 0.19763 0.40736 0.63402 0.0
C437 C 0.22076 0.31646 0.57262 0.0
C438 C 0.12904 0.31595 0.43641 0.0
O439 O 0.22591 0.43068 0.13413 0.0
O440 O 0.19089 0.39581 0.27517 0.0
O441 O 0.19539 0.26007 0.14292 0.0
Mg442 Mg 0.16141 0.20151 0.07711 0.0
O443 O 0.18816 0.2899 0.99372 0.0
Mg444 Mg 0.14542 0.24314 0.85394 0.0
O445 O 0.16354 0.21047 0.90262 0.0
O446 O 0.17634 0.16979 0.9438 0.0
O447 O 0.09969 0.20006 0.7339 0.0
O448 O 0.19169 0.26554 0.70007 0.0
Mg449 Mg 0.14968 0.287 0.69573 0.0
O450 O 0.11381 0.2682 0.81207 0.0
O451 O 0.12663 0.23794 0.58932 0.0
O452 O 0.20566 0.3181 0.76355 0.0
O453 O 0.12931 0.32183 0.73854 0.0
C454 C 0.08823 0.20148 0.07637 0.0
C455 C 0.2013 0.29041 0.09604 0.0
C456 C 0.171 0.18742 0.86265 0.0
C457 C 0.09866 0.20927 0.62941 0.0
C458 C 0.21261 0.30026 0.69126 0.0
C459 C 0.12124 0.30061 0.82718 0.0
O460 O 0.10366 0.18597 0.12941 0.0
O461 O 0.10349 0.22083 0.98834 0.0
O462 O 0.67743 0.92281 0.14279 0.0
Mg463 Mg 0.736 0.94737 0.07713 0.0
O464 O 0.6476 0.8858 0.99353 0.0
Mg465 Mg 0.69437 0.88982 0.85383 0.0
O466 O 0.72711 0.94055 0.90268 0.0
O467 O 0.76772 -0.00596 0.94388 0.0
O468 O 0.73739 0.88708 0.73391 0.0
O469 O 0.67204 0.91372 0.69982 0.0
Mg470 Mg 0.65016 0.85009 0.6944 0.0
O471 O 0.66909 0.83333 0.81116 0.0
O472 O 0.69953 0.87614 0.58916 0.0
O473 O 0.61945 0.87525 0.76324 0.0
O474 O 0.61539 0.79497 0.73867 0.0
C475 C 0.73601 0.87418 0.0763 0.0
C476 C 0.6471 0.89842 0.09586 0.0
C477 C 0.75012 0.97107 0.86272 0.0
C478 C 0.72817 0.87681 0.62945 0.0
C479 C 0.63733 0.89998 0.69085 0.0
C480 C 0.63676 0.80828 0.8269 0.0
O481 O 0.75151 0.90512 0.12931 0.0
O482 O 0.71665 0.87008 0.98825 0.0
O483 O 0.01472 0.74213 0.14277 0.0
Mg484 Mg -0.00985 0.77615 0.07704 0.0
O485 O 0.05173 0.74929 0.99355 0.0
Mg486 Mg 0.0477 0.79204 0.85379 0.0
O487 O -0.00305 0.77403 0.90258 0.0
O488 O 0.94349 0.76124 0.94378 0.0
O489 O 0.05041 0.83779 0.73378 0.0
O490 O 0.02381 0.74581 0.69983 0.0
Mg491 Mg 0.08741 0.7876 0.69461 0.0
O492 O 0.10421 0.82331 0.81128 0.0
O493 O 0.06136 0.81087 0.5891 0.0
O494 O 0.06231 0.73171 0.76331 0.0
O495 O 0.14254 0.80793 0.73868 0.0
C496 C 0.06331 0.84931 0.0762 0.0
C497 C 0.03911 0.73618 0.09588 0.0
C498 C -0.03356 0.76658 0.86263 0.0
C499 C 0.06067 0.83884 0.62933 0.0
C500 C 0.03757 0.72485 0.69092 0.0
C501 C 0.12925 0.816 0.82695 0.0
O502 O 0.03238 0.83389 0.12921 0.0
O503 O 0.06741 0.83404 0.98817 0.0
O504 O 0.3441 0.07536 0.9763 0.0
Mg505 Mg 0.40265 0.10938 0.91049 0.0
O506 O 0.31425 0.08255 0.8271 0.0
Mg507 Mg 0.36098 0.12533 0.68738 0.0
O508 O 0.39364 0.1072 0.73601 0.0
O509 O 0.43442 0.09454 0.77709 0.0
O510 O 0.40407 0.1711 0.56741 0.0
O511 O 0.33859 0.07905 0.53348 0.0
Mg512 Mg 0.31726 0.12113 0.52955 0.0
O513 O 0.33596 0.15703 0.64586 0.0
O514 O 0.36624 0.14416 0.42285 0.0
O515 O 0.28608 0.0651 0.59691 0.0
O516 O 0.28237 0.14144 0.5719 0.0
C517 C 0.40263 0.18253 0.90982 0.0
C518 C 0.31376 0.06942 0.92941 0.0
C519 C 0.41673 0.09982 0.69598 0.0
C520 C 0.39489 0.17214 0.4629 0.0
C521 C 0.30387 0.0581 0.52457 0.0
C522 C 0.3035 0.14949 0.66077 0.0
O523 O 0.41817 0.16713 0.96284 0.0
O524 O 0.38328 0.16723 0.82182 0.0
O525 O 0.86207 0.25618 0.9762 0.0
Mg526 Mg 0.82804 0.28073 0.91036 0.0
O527 O 0.8549 0.21916 0.82701 0.0
Mg528 Mg 0.81213 0.22313 0.68725 0.0
O529 O 0.83024 0.27392 0.73589 0.0
O530 O 0.84284 0.32734 0.77698 0.0
O531 O 0.76636 0.22046 0.56723 0.0
O532 O 0.8584 0.24701 0.53337 0.0
Mg533 Mg 0.81636 0.18359 0.52928 0.0
O534 O 0.78049 0.16645 0.64563 0.0
O535 O 0.7933 0.20956 0.4227 0.0
O536 O 0.87236 0.20846 0.59684 0.0
O537 O 0.79605 0.1284 0.5719 0.0
C538 C 0.75491 0.20758 0.90965 0.0
C539 C 0.86802 0.23178 0.92934 0.0
C540 C 0.83759 0.30439 0.69587 0.0
C541 C 0.76531 0.21023 0.46273 0.0
C542 C 0.87935 0.23324 0.52448 0.0
C543 C 0.788 0.14151 0.66068 0.0
O544 O 0.7703 0.23851 0.96266 0.0
O545 O 0.77021 0.20353 0.82167 0.0
O546 O 0.68132 0.59339 0.97611 0.0
Mg547 Mg 0.65679 0.53481 0.91042 0.0
O548 O 0.71831 0.62324 0.82685 0.0
Mg549 Mg 0.71432 0.57648 0.68718 0.0
O550 O 0.66359 0.54374 0.73598 0.0
O551 O 0.61015 0.50303 0.77714 0.0
O552 O 0.71707 0.53344 0.56728 0.0
O553 O 0.69041 0.5988 0.53315 0.0
Mg554 Mg 0.75401 0.6206 0.52796 0.0
O555 O 0.77084 0.60174 0.64472 0.0
O556 O 0.72798 0.57127 0.42256 0.0
O557 O 0.72887 0.65135 0.59656 0.0
O558 O 0.80912 0.65542 0.57204 0.0
C559 C 0.72997 0.53483 0.90963 0.0
C560 C 0.7057 0.62373 0.92919 0.0
C561 C 0.6331 0.52068 0.696 0.0
C562 C 0.72734 0.54263 0.46282 0.0
C563 C 0.70414 0.63351 0.52409 0.0
C564 C 0.79584 0.6341 0.6604 0.0
O565 O 0.69904 0.51931 0.96261 0.0
O566 O 0.73404 0.5542 0.82161 0.0
O567 O 0.72955 0.68993 0.95381 0.0
Mg568 Mg 0.76356 0.74849 0.01963 0.0
O569 O 0.73674 0.66008 0.10302 0.0
Mg570 Mg 0.77951 0.70682 0.24277 0.0
O571 O 0.7614 0.7395 0.1941 0.0
O572 O 0.74869 0.78024 0.15299 0.0
O573 O 0.82526 0.7499 0.36277 0.0
O574 O 0.73324 0.68443 0.39665 0.0
Mg575 Mg 0.77526 0.66301 0.40081 0.0
O576 O 0.81113 0.68176 0.28448 0.0
O577 O 0.79832 0.71206 0.50732 0.0
O578 O 0.71926 0.63188 0.33317 0.0
O579 O 0.79559 0.62815 0.35819 0.0
C580 C 0.83672 0.74848 0.02036 0.0
C581 C 0.72361 0.65958 1.0007 0.0
C582 C 0.75398 0.76257 0.23411 0.0
C583 C 0.82631 0.74071 0.46727 0.0
C584 C 0.7123 0.64972 0.40545 0.0
C585 C 0.80364 0.64932 0.26942 0.0
O586 O 0.82131 0.76401 0.96733 0.0
O587 O 0.82142 0.72913 0.10836 0.0
O588 O 0.24757 0.02712 0.95396 0.0
Mg589 Mg 0.189 0.00258 0.01961 0.0
O590 O 0.27742 0.06411 0.10325 0.0
Mg591 Mg 0.23065 0.06012 0.2429 0.0
O592 O 0.19791 0.0094 0.19405 0.0
O593 O 0.15725 0.95593 0.15288 0.0
O594 O 0.18763 0.06288 0.36278 0.0
O595 O 0.25296 0.0362 0.39694 0.0
Mg596 Mg 0.27485 0.09984 0.40236 0.0
O597 O 0.25596 0.11661 0.28556 0.0
O598 O 0.22547 0.0738 0.50752 0.0
O599 O 0.30556 0.07466 0.33353 0.0
O600 O 0.30964 0.15495 0.35806 0.0
C601 C 0.189 0.07577 0.02045 0.0
C602 C 0.27791 0.0515 1.00091 0.0
C603 C 0.17487 -0.0211 0.23402 0.0
C604 C 0.19683 0.07316 0.46724 0.0
C605 C 0.28767 0.04994 0.40592 0.0
C606 C 0.2883 0.14163 0.26978 0.0
O607 O 0.17349 0.04483 0.96746 0.0
O608 O 0.20837 0.07986 0.10848 0.0
O609 O 0.91032 0.20788 0.95396 0.0
Mg610 Mg 0.93487 0.17384 0.01969 0.0
O611 O 0.87334 0.20075 0.10321 0.0
Mg612 Mg 0.87734 0.15798 0.24293 0.0
O613 O 0.92807 0.17597 0.19412 0.0
O614 O -0.01848 0.18871 0.15298 0.0
O615 O 0.8746 0.11222 0.36289 0.0
O616 O 0.90124 0.20421 0.39691 0.0
Mg617 Mg 0.83764 0.16245 0.40217 0.0
O618 O 0.82083 0.12676 0.28545 0.0
O619 O 0.86368 0.13913 0.50756 0.0
O620 O 0.86276 0.21833 0.33345 0.0
O621 O 0.78252 0.14214 0.35804 0.0
C622 C 0.8617 0.10069 0.02053 0.0
C623 C 0.88595 0.21385 1.00087 0.0
C624 C 0.95856 0.1834 0.2341 0.0
C625 C 0.86433 0.11114 0.46735 0.0
C626 C 0.8875 0.22518 0.40584 0.0
C627 C 0.79582 0.13411 0.26971 0.0
O628 O 0.89263 0.1161 0.96755 0.0
O629 O 0.85762 0.11598 0.10854 0.0
O630 O 0.24757 0.20789 0.45383 0.0
Mg631 Mg 0.18902 0.1739 0.51965 0.0
O632 O 0.27741 0.20066 0.60301 0.0
Mg633 Mg 0.23066 0.1579 0.74278 0.0
O634 O 0.19801 0.17606 0.69415 0.0
O635 O 0.15729 0.1888 0.65297 0.0
O636 O 0.18757 0.11216 0.86279 0.0
O637 O 0.25307 0.20419 0.89665 0.0
Mg638 Mg 0.27439 0.16209 0.90061 0.0
O639 O 0.25564 0.12616 0.78434 0.0
O640 O 0.22542 0.13911 1.00736 0.0
O641 O 0.30557 0.2181 0.83322 0.0
O642 O 0.30925 0.14174 0.85826 0.0
C643 C 0.18901 0.10072 0.52031 0.0
C644 C 0.27791 0.2138 0.50071 0.0
C645 C 0.17495 0.1835 0.73412 0.0
C646 C 0.19676 0.11113 0.9673 0.0
C647 C 0.28779 0.22512 0.90554 0.0
C648 C 0.28809 0.13365 0.76946 0.0
O649 O 0.17349 0.11614 0.46727 0.0
O650 O 0.20835 0.116 0.60835 0.0
O651 O 0.72961 0.02719 0.45388 0.0
Mg652 Mg 0.76362 0.00262 0.51973 0.0
O653 O 0.73681 0.06423 0.60304 0.0
Mg654 Mg 0.77957 0.06023 0.74285 0.0
O655 O 0.76144 0.00943 0.69422 0.0
O656 O 0.74877 0.95599 0.65306 0.0
O657 O 0.82531 0.06288 0.86291 0.0
O658 O 0.7333 0.03637 0.89671 0.0
Mg659 Mg 0.77535 0.09979 0.90081 0.0
O660 O 0.81124 0.11691 0.78449 0.0
O661 O 0.79837 0.0738 1.00746 0.0
O662 O 0.71935 0.07493 0.83323 0.0
O663 O 0.79568 0.15499 0.8582 0.0
C664 C 0.83677 0.07576 0.52043 0.0
C665 C 0.72368 0.0516 0.50073 0.0
C666 C 0.75404 -0.02106 0.7342 0.0
C667 C 0.82634 0.0731 0.96741 0.0
C668 C 0.71236 0.05015 0.90559 0.0
C669 C 0.80376 0.14188 0.76949 0.0
O670 O 0.82136 0.04484 0.46741 0.0
O671 O 0.82149 0.07983 0.60844 0.0
O672 O 0.91029 0.68992 0.45402 0.0
Mg673 Mg 0.93484 0.7485 0.51971 0.0
O674 O 0.87328 0.66009 0.60325 0.0
Mg675 Mg 0.8773 0.70686 0.74297 0.0
O676 O 0.92805 0.73959 0.69417 0.0
O677 O -0.01849 0.78025 0.65294 0.0
O678 O 0.87457 0.7499 0.86291 0.0
O679 O 0.90119 0.68452 0.89697 0.0
Mg680 Mg 0.83759 0.66273 0.9022 0.0
O681 O 0.82078 0.68162 0.78546 0.0
O682 O 0.86365 0.71205 1.00765 0.0
O683 O 0.86273 0.63197 0.83356 0.0
O684 O 0.78248 0.62793 0.85812 0.0
C685 C 0.86167 0.7485 0.5205 0.0
C686 C 0.8859 0.65959 0.50092 0.0
C687 C 0.95855 0.76263 0.73411 0.0
C688 C 0.86432 0.74069 0.96737 0.0
C689 C 0.88745 0.64981 0.90603 0.0
C690 C 0.79575 0.64927 0.76982 0.0
O691 O 0.8926 0.76401 0.4675 0.0
O692 O 0.85758 0.72914 0.60855 0.0
O693 O 0.86207 0.5934 0.47629 0.0
Mg694 Mg 0.82808 0.53484 0.41046 0.0
O695 O 0.85485 0.62323 0.3271 0.0
Mg696 Mg 0.81209 0.57648 0.18731 0.0
O697 O 0.83023 0.54381 0.23597 0.0
O698 O 0.843 0.50312 0.27713 0.0
O699 O 0.76636 0.5334 0.06727 0.0
O700 O 0.85837 0.59888 0.03346 0.0
Mg701 Mg 0.81634 0.62029 0.02929 0.0
O702 O 0.78044 0.60151 0.14559 0.0
O703 O 0.7933 0.57127 0.92271 0.0
O704 O 0.87233 0.65143 0.09694 0.0
O705 O 0.79598 0.65514 0.0719 0.0
C706 C 0.75491 0.53482 0.40974 0.0
C707 C 0.86798 0.62373 0.42942 0.0
C708 C 0.83768 0.52077 0.19599 0.0
C709 C 0.76534 0.5426 0.96277 0.0
C710 C 0.8793 0.6336 0.02467 0.0
C711 C 0.7879 0.63394 0.1606 0.0
O712 O 0.77033 0.51931 0.46278 0.0
O713 O 0.77018 0.55417 0.32172 0.0
O714 O 0.34409 0.25612 0.47614 0.0
Mg715 Mg 0.40266 0.28068 0.41047 0.0
O716 O 0.31426 0.21911 0.32688 0.0
Mg717 Mg 0.36103 0.22313 0.18718 0.0
O718 O 0.39377 0.27387 0.23602 0.0
O719 O 0.43437 0.32736 0.27725 0.0
O720 O 0.40405 0.2204 0.06724 0.0
O721 O 0.3387 0.24703 0.03317 0.0
Mg722 Mg 0.31682 0.18339 0.02773 0.0
O723 O 0.33575 0.16664 0.14449 0.0
O724 O 0.36619 0.20946 0.92249 0.0
O725 O 0.28611 0.20856 0.09659 0.0
O726 O 0.28205 0.12828 0.07203 0.0
C727 C 0.40268 0.2075 0.40965 0.0
C728 C 0.31376 0.23172 0.42922 0.0
C729 C 0.41677 0.30439 0.19608 0.0
C730 C 0.39484 0.21013 0.96279 0.0
C731 C 0.30399 0.23328 0.02419 0.0
C732 C 0.30343 0.14159 0.16025 0.0
O733 O 0.41818 0.23844 0.46265 0.0
O734 O 0.38331 0.2034 0.32159 0.0
O735 O 0.68136 0.07548 0.47609 0.0
Mg736 Mg 0.6568 0.1095 0.41036 0.0
O737 O 0.71837 0.08264 0.32686 0.0
Mg738 Mg 0.71434 0.1254 0.1871 0.0
O739 O 0.66359 0.10739 0.23591 0.0
O740 O 0.61013 0.0946 0.27711 0.0
O741 O 0.71705 0.17114 0.06709 0.0
O742 O 0.69045 0.07916 0.03314 0.0
Mg743 Mg 0.75406 0.12094 0.02787 0.0
O744 O 0.77084 0.15664 0.14455 0.0
O745 O 0.728 0.14422 0.92241 0.0
O746 O 0.72894 0.06506 0.09662 0.0
O747 O 0.80918 0.14127 0.072 0.0
C748 C 0.72996 0.18267 0.40951 0.0
C749 C 0.70576 0.06953 0.4292 0.0
C750 C 0.63309 0.09993 0.19596 0.0
C751 C 0.72732 0.17219 0.96264 0.0
C752 C 0.7042 0.0582 0.02422 0.0
C753 C 0.79589 0.14934 0.16025 0.0
O754 O 0.69903 0.16725 0.46252 0.0
O755 O 0.73405 0.1674 0.32149 0.0
loop_
_geom_bond_atom_site_label_1
_geom_bond_atom_site_label_2
_geom_bond_distance
_geom_bond_site_symmetry_2
_ccdc_geom_bond_type
O0 Mg1 1.990 . S
O0 C14 1.253 . S
Mg1 O0 1.990 . S
Mg1 O4 2.180 . S
Mg1 O5 2.117 . S
Mg1 O19 2.030 . S
O2 Mg3 2.072 . S
O2 C14 1.260 . S
Mg3 O2 2.072 . S
Mg3 O4 2.099 . S
Mg3 O6 2.079 1_554 S
Mg3 O7 2.072 1_554 S
Mg3 O9 2.099 1_554 S
Mg3 O20 2.079 . S
O4 Mg1 2.180 . S
O4 Mg3 2.099 . S
O4 C15 1.279 . S
O5 Mg1 2.117 . S
O5 C15 1.250 . S
O6 Mg3 2.079 1_556 S
O6 C16 1.264 . S
O7 Mg3 2.072 1_556 S
O7 C17 1.260 . S
Mg8 O9 2.180 . S
Mg8 O10 2.030 . S
Mg8 O11 1.990 1_455 S
Mg8 O12 2.117 1_455 S
O9 Mg3 2.099 1_556 S
O9 Mg8 2.180 . S
O9 C18 1.279 1_456 S
O10 Mg8 2.030 . S
O10 C16 1.248 . S
O11 Mg8 1.990 1_655 S
O11 C17 1.253 1_655 S
O12 Mg8 2.117 1_655 S
O12 C18 1.250 1_556 S
C13 O19 1.248 . S
C13 O20 1.264 . S
C14 O0 1.253 . S
C14 O2 1.260 . S
C15 O4 1.279 . S
C15 O5 1.250 . S
C16 O6 1.264 . S
C16 O10 1.248 . S
C17 O7 1.260 . S
C17 O11 1.253 1_455 S
C18 O9 1.279 1_654 S
C18 O12 1.250 1_554 S
O19 Mg1 2.030 . S
O19 C13 1.248 . S
O20 Mg3 2.079 . S
O20 C13 1.264 . S
O21 Mg22 1.990 . S
O21 C35 1.253 . S
Mg22 O21 1.990 . S
Mg22 O25 2.180 . S
Mg22 O26 2.117 . S
Mg22 O40 2.030 . S
O23 Mg24 2.072 . S
O23 C35 1.260 . S
Mg24 O23 2.072 . S
Mg24 O25 2.099 . S
Mg24 O27 2.079 1_554 S
Mg24 O28 2.072 1_554 S
Mg24 O30 2.099 1_554 S
Mg24 O41 2.079 . S
O25 Mg22 2.180 . S
O25 Mg24 2.099 . S
O25 C36 1.279 . S
O26 Mg22 2.117 . S
O26 C36 1.250 . S
O27 Mg24 2.079 1_556 S
O27 C37 1.264 . S
O28 Mg24 2.072 1_556 S
O28 C38 1.260 . S
Mg29 O30 2.180 . S
Mg29 O31 2.030 . S
Mg29 O32 1.990 . S
Mg29 O33 2.117 . S
O30 Mg24 2.099 1_556 S
O30 Mg29 2.180 . S
O30 C39 1.279 1_556 S
O31 Mg29 2.030 . S
O31 C37 1.248 . S
O32 Mg29 1.990 . S
O32 C38 1.253 . S
O33 Mg29 2.117 . S
O33 C39 1.250 1_556 S
C34 O40 1.248 . S
C34 O41 1.264 . S
C35 O21 1.253 . S
C35 O23 1.260 . S
C36 O25 1.279 . S
C36 O26 1.250 . S
C37 O27 1.264 . S
C37 O31 1.248 . S
C38 O28 1.260 . S
C38 O32 1.253 . S
C39 O30 1.279 1_554 S
C39 O33 1.250 1_554 S
O40 Mg22 2.030 . S
O40 C34 1.248 . S
O41 Mg24 2.079 . S
O41 C34 1.264 . S
O42 Mg43 1.990 . S
O42 C56 1.253 . S
Mg43 O42 1.990 . S
Mg43 O46 2.180 . S
Mg43 O47 2.117 . S
Mg43 O61 2.030 . S
O44 Mg45 2.072 . S
O44 C56 1.260 . S
Mg45 O44 2.072 . S
Mg45 O46 2.099 . S
Mg45 O48 2.079 1_554 S
Mg45 O49 2.072 1_554 S
Mg45 O51 2.099 1_554 S
Mg45 O62 2.079 . S
O46 Mg43 2.180 . S
O46 Mg45 2.099 . S
O46 C57 1.279 . S
O47 Mg43 2.117 . S
O47 C57 1.250 . S
O48 Mg45 2.079 1_556 S
O48 C58 1.264 . S
O49 Mg45 2.072 1_556 S
O49 C59 1.260 . S
Mg50 O51 2.180 . S
Mg50 O52 2.030 . S
Mg50 O53 1.990 1_565 S
Mg50 O54 2.117 1_565 S
O51 Mg45 2.099 1_556 S
O51 Mg50 2.180 . S
O51 C60 1.279 1_566 S
O52 Mg50 2.030 . S
O52 C58 1.248 . S
O53 Mg50 1.990 1_545 S
O53 C59 1.253 1_545 S
O54 Mg50 2.117 1_545 S
O54 C60 1.250 1_556 S
C55 O61 1.248 . S
C55 O62 1.264 . S
C56 O42 1.253 . S
C56 O44 1.260 . S
C57 O46 1.279 . S
C57 O47 1.250 . S
C58 O48 1.264 . S
C58 O52 1.248 . S
C59 O49 1.260 . S
C59 O53 1.253 1_565 S
C60 O51 1.279 1_544 S
C60 O54 1.250 1_554 S
O61 Mg43 2.030 . S
O61 C55 1.248 . S
O62 Mg45 2.079 . S
O62 C55 1.264 . S
O63 Mg64 1.990 . S
O63 C77 1.253 . S
Mg64 O63 1.990 . S
Mg64 O67 2.180 . S
Mg64 O68 2.117 . S
Mg64 O82 2.030 . S
O65 Mg66 2.072 . S
O65 C77 1.260 . S
Mg66 O65 2.072 . S
Mg66 O67 2.099 . S
Mg66 O69 2.079 . S
Mg66 O70 2.072 . S
Mg66 O72 2.099 . S
Mg66 O83 2.079 . S
O67 Mg64 2.180 . S
O67 Mg66 2.099 . S
O67 C78 1.279 . S
O68 Mg64 2.117 . S
O68 C78 1.250 . S
O69 Mg66 2.079 . S
O69 C79 1.264 . S
O70 Mg66 2.072 . S
O70 C80 1.260 . S
Mg71 O72 2.180 . S
Mg71 O73 2.030 . S
Mg71 O74 1.990 1_545 S
Mg71 O75 2.117 1_545 S
O72 Mg66 2.099 . S
O72 Mg71 2.180 . S
O72 C81 1.279 1_545 S
O73 Mg71 2.030 . S
O73 C79 1.248 . S
O74 Mg71 1.990 1_565 S
O74 C80 1.253 1_565 S
O75 Mg71 2.117 1_565 S
O75 C81 1.250 . S
C76 O82 1.248 . S
C76 O83 1.264 . S
C77 O63 1.253 . S
C77 O65 1.260 . S
C78 O67 1.279 . S
C78 O68 1.250 . S
C79 O69 1.264 . S
C79 O73 1.248 . S
C80 O70 1.260 . S
C80 O74 1.253 1_545 S
C81 O72 1.279 1_565 S
C81 O75 1.250 . S
O82 Mg64 2.030 . S
O82 C76 1.248 . S
O83 Mg66 2.079 . S
O83 C76 1.264 . S
O84 Mg85 1.990 . S
O84 C98 1.253 . S
Mg85 O84 1.990 . S
Mg85 O88 2.180 . S
Mg85 O89 2.117 . S
Mg85 O103 2.030 . S
O86 Mg87 2.072 . S
O86 C98 1.260 . S
Mg87 O86 2.072 . S
Mg87 O88 2.099 . S
Mg87 O90 2.079 . S
Mg87 O91 2.072 . S
Mg87 O93 2.099 . S
Mg87 O104 2.079 . S
O88 Mg85 2.180 . S
O88 Mg87 2.099 . S
O88 C99 1.279 . S
O89 Mg85 2.117 . S
O89 C99 1.250 . S
O90 Mg87 2.079 . S
O90 C100 1.264 . S
O91 Mg87 2.072 . S
O91 C101 1.260 . S
Mg92 O93 2.180 . S
Mg92 O94 2.030 . S
Mg92 O95 1.990 1_655 S
Mg92 O96 2.117 1_655 S
O93 Mg87 2.099 . S
O93 Mg92 2.180 . S
O93 C102 1.279 1_655 S
O94 Mg92 2.030 . S
O94 C100 1.248 . S
O95 Mg92 1.990 1_455 S
O95 C101 1.253 1_455 S
O96 Mg92 2.117 1_455 S
O96 C102 1.250 . S
C97 O103 1.248 . S
C97 O104 1.264 . S
C98 O84 1.253 . S
C98 O86 1.260 . S
C99 O88 1.279 . S
C99 O89 1.250 . S
C100 O90 1.264 . S
C100 O94 1.248 . S
C101 O91 1.260 . S
C101 O95 1.253 1_655 S
C102 O93 1.279 1_455 S
C102 O96 1.250 . S
O103 Mg85 2.030 . S
O103 C97 1.248 . S
O104 Mg87 2.079 . S
O104 C97 1.264 . S
O105 Mg106 1.990 . S
O105 C119 1.253 . S
Mg106 O105 1.990 . S
Mg106 O109 2.180 . S
Mg106 O110 2.117 . S
Mg106 O124 2.030 . S
O107 Mg108 2.072 . S
O107 C119 1.260 . S
Mg108 O107 2.072 . S
Mg108 O109 2.099 . S
Mg108 O111 2.079 . S
Mg108 O112 2.072 . S
Mg108 O114 2.099 . S
Mg108 O125 2.079 . S
O109 Mg106 2.180 . S
O109 Mg108 2.099 . S
O109 C120 1.279 . S
O110 Mg106 2.117 . S
O110 C120 1.250 . S
O111 Mg108 2.079 . S
O111 C121 1.264 . S
O112 Mg108 2.072 . S
O112 C122 1.260 . S
Mg113 O114 2.180 . S
Mg113 O115 2.030 . S
Mg113 O116 1.990 . S
Mg113 O117 2.117 . S
O114 Mg108 2.099 . S
O114 Mg113 2.180 . S
O114 C123 1.279 . S
O115 Mg113 2.030 . S
O115 C121 1.248 . S
O116 Mg113 1.990 . S
O116 C122 1.253 . S
O117 Mg113 2.117 . S
O117 C123 1.250 . S
C118 O124 1.248 . S
C118 O125 1.264 . S
C119 O105 1.253 . S
C119 O107 1.260 . S
C120 O109 1.279 . S
C120 O110 1.250 . S
C121 O111 1.264 . S
C121 O115 1.248 . S
C122 O112 1.260 . S
C122 O116 1.253 . S
C123 O114 1.279 . S
C123 O117 1.250 . S
O124 Mg106 2.030 . S
O124 C118 1.248 . S
O125 Mg108 2.079 . S
O125 C118 1.264 . S
O126 Mg127 1.990 . S
O126 C140 1.253 . S
Mg127 O126 1.990 . S
Mg127 O130 2.180 1_556 S
Mg127 O131 2.117 . S
Mg127 O145 2.030 . S
O128 Mg129 2.072 1_556 S
O128 C140 1.260 . S
Mg129 O128 2.072 1_554 S
Mg129 O130 2.099 . S
Mg129 O132 2.079 . S
Mg129 O133 2.072 . S
Mg129 O135 2.099 . S
Mg129 O146 2.079 1_554 S
O130 Mg127 2.180 1_554 S
O130 Mg129 2.099 . S
O130 C141 1.279 . S
O131 Mg127 2.117 . S
O131 C141 1.250 1_556 S
O132 Mg129 2.079 . S
O132 C142 1.264 . S
O133 Mg129 2.072 . S
O133 C143 1.260 . S
Mg134 O135 2.180 . S
Mg134 O136 2.030 . S
Mg134 O137 1.990 1_655 S
Mg134 O138 2.117 1_655 S
O135 Mg129 2.099 . S
O135 Mg134 2.180 . S
O135 C144 1.279 1_655 S
O136 Mg134 2.030 . S
O136 C142 1.248 . S
O137 Mg134 1.990 1_455 S
O137 C143 1.253 1_455 S
O138 Mg134 2.117 1_455 S
O138 C144 1.250 . S
C139 O145 1.248 . S
C139 O146 1.264 . S
C140 O126 1.253 . S
C140 O128 1.260 . S
C141 O130 1.279 . S
C141 O131 1.250 1_554 S
C142 O132 1.264 . S
C142 O136 1.248 . S
C143 O133 1.260 . S
C143 O137 1.253 1_655 S
C144 O135 1.279 1_455 S
C144 O138 1.250 . S
O145 Mg127 2.030 . S
O145 C139 1.248 . S
O146 Mg129 2.079 1_556 S
O146 C139 1.264 . S
O147 Mg148 1.990 . S
O147 C161 1.253 . S
Mg148 O147 1.990 . S
Mg148 O151 2.180 1_556 S
Mg148 O152 2.117 . S
Mg148 O166 2.030 . S
O149 Mg150 2.072 1_556 S
O149 C161 1.260 . S
Mg150 O149 2.072 1_554 S
Mg150 O151 2.099 . S
Mg150 O153 2.079 . S
Mg150 O154 2.072 . S
Mg150 O156 2.099 . S
Mg150 O167 2.079 1_554 S
O151 Mg148 2.180 1_554 S
O151 Mg150 2.099 . S
O151 C162 1.279 . S
O152 Mg148 2.117 . S
O152 C162 1.250 1_556 S
O153 Mg150 2.079 . S
O153 C163 1.264 . S
O154 Mg150 2.072 . S
O154 C164 1.260 . S
Mg155 O156 2.180 . S
Mg155 O157 2.030 . S
Mg155 O158 1.990 . S
Mg155 O159 2.117 . S
O156 Mg150 2.099 . S
O156 Mg155 2.180 . S
O156 C165 1.279 . S
O157 Mg155 2.030 . S
O157 C163 1.248 . S
O158 Mg155 1.990 . S
O158 C164 1.253 . S
O159 Mg155 2.117 . S
O159 C165 1.250 . S
C160 O166 1.248 . S
C160 O167 1.264 . S
C161 O147 1.253 . S
C161 O149 1.260 . S
C162 O151 1.279 . S
C162 O152 1.250 1_554 S
C163 O153 1.264 . S
C163 O157 1.248 . S
C164 O154 1.260 . S
C164 O158 1.253 . S
C165 O156 1.279 . S
C165 O159 1.250 . S
O166 Mg148 2.030 . S
O166 C160 1.248 . S
O167 Mg150 2.079 1_556 S
O167 C160 1.264 . S
O168 Mg169 1.990 . S
O168 C182 1.253 . S
Mg169 O168 1.990 . S
Mg169 O172 2.180 1_556 S
Mg169 O173 2.117 . S
Mg169 O187 2.030 . S
O170 Mg171 2.072 1_556 S
O170 C182 1.260 . S
Mg171 O170 2.072 1_554 S
Mg171 O172 2.099 . S
Mg171 O174 2.079 . S
Mg171 O175 2.072 . S
Mg171 O177 2.099 . S
Mg171 O188 2.079 1_554 S
O172 Mg169 2.180 1_554 S
O172 Mg171 2.099 . S
O172 C183 1.279 . S
O173 Mg169 2.117 . S
O173 C183 1.250 1_556 S
O174 Mg171 2.079 . S
O174 C184 1.264 . S
O175 Mg171 2.072 . S
O175 C185 1.260 . S
Mg176 O177 2.180 . S
Mg176 O178 2.030 . S
Mg176 O179 1.990 1_545 S
Mg176 O180 2.117 1_545 S
O177 Mg171 2.099 . S
O177 Mg176 2.180 . S
O177 C186 1.279 1_545 S
O178 Mg176 2.030 . S
O178 C184 1.248 . S
O179 Mg176 1.990 1_565 S
O179 C185 1.253 1_565 S
O180 Mg176 2.117 1_565 S
O180 C186 1.250 . S
C181 O187 1.248 . S
C181 O188 1.264 . S
C182 O168 1.253 . S
C182 O170 1.260 . S
C183 O172 1.279 . S
C183 O173 1.250 1_554 S
C184 O174 1.264 . S
C184 O178 1.248 . S
C185 O175 1.260 . S
C185 O179 1.253 1_545 S
C186 O177 1.279 1_565 S
C186 O180 1.250 . S
O187 Mg169 2.030 . S
O187 C181 1.248 . S
O188 Mg171 2.079 1_556 S
O188 C181 1.264 . S
O189 Mg190 1.990 . S
O189 C203 1.253 . S
Mg190 O189 1.990 . S
Mg190 O193 2.180 . S
Mg190 O194 2.117 . S
Mg190 O208 2.030 . S
O191 Mg192 2.072 . S
O191 C203 1.260 . S
Mg192 O191 2.072 . S
Mg192 O193 2.099 . S
Mg192 O195 2.079 . S
Mg192 O196 2.072 . S
Mg192 O198 2.099 . S
Mg192 O209 2.079 . S
O193 Mg190 2.180 . S
O193 Mg192 2.099 . S
O193 C204 1.279 . S
O194 Mg190 2.117 . S
O194 C204 1.250 . S
O195 Mg192 2.079 . S
O195 C205 1.264 . S
O196 Mg192 2.072 . S
O196 C206 1.260 . S
Mg197 O198 2.180 . S
Mg197 O199 2.030 . S
Mg197 O200 1.990 1_565 S
Mg197 O201 2.117 1_565 S
O198 Mg192 2.099 . S
O198 Mg197 2.180 . S
O198 C207 1.279 1_565 S
O199 Mg197 2.030 . S
O199 C205 1.248 . S
O200 Mg197 1.990 1_545 S
O200 C206 1.253 1_545 S
O201 Mg197 2.117 1_545 S
O201 C207 1.250 . S
C202 O208 1.248 . S
C202 O209 1.264 . S
C203 O189 1.253 . S
C203 O191 1.260 . S
C204 O193 1.279 . S
C204 O194 1.250 . S
C205 O195 1.264 . S
C205 O199 1.248 . S
C206 O196 1.260 . S
C206 O200 1.253 1_565 S
C207 O198 1.279 1_545 S
C207 O201 1.250 . S
O208 Mg190 2.030 . S
O208 C202 1.248 . S
O209 Mg192 2.079 . S
O209 C202 1.264 . S
O210 Mg211 1.990 . S
O210 C224 1.253 . S
Mg211 O210 1.990 . S
Mg211 O214 2.180 . S
Mg211 O215 2.117 . S
Mg211 O229 2.030 . S
O212 Mg213 2.072 . S
O212 C224 1.260 . S
Mg213 O212 2.072 . S
Mg213 O214 2.099 . S
Mg213 O216 2.079 . S
Mg213 O217 2.072 . S
Mg213 O219 2.099 . S
Mg213 O230 2.079 . S
O214 Mg211 2.180 . S
O214 Mg213 2.099 . S
O214 C225 1.279 . S
O215 Mg211 2.117 . S
O215 C225 1.250 . S
O216 Mg213 2.079 . S
O216 C226 1.264 . S
O217 Mg213 2.072 . S
O217 C227 1.260 . S
Mg218 O219 2.180 . S
Mg218 O220 2.030 . S
Mg218 O221 1.990 1_455 S
Mg218 O222 2.117 1_455 S
O219 Mg213 2.099 . S
O219 Mg218 2.180 . S
O219 C228 1.279 1_455 S
O220 Mg218 2.030 . S
O220 C226 1.248 . S
O221 Mg218 1.990 1_655 S
O221 C227 1.253 1_655 S
O222 Mg218 2.117 1_655 S
O222 C228 1.250 . S
C223 O229 1.248 . S
C223 O230 1.264 . S
C224 O210 1.253 . S
C224 O212 1.260 . S
C225 O214 1.279 . S
C225 O215 1.250 . S
C226 O216 1.264 . S
C226 O220 1.248 . S
C227 O217 1.260 . S
C227 O221 1.253 1_455 S
C228 O219 1.279 1_655 S
C228 O222 1.250 . S
O229 Mg211 2.030 . S
O229 C223 1.248 . S
O230 Mg213 2.079 . S
O230 C223 1.264 . S
O231 Mg232 1.990 . S
O231 C245 1.253 . S
Mg232 O231 1.990 . S
Mg232 O235 2.180 . S
Mg232 O236 2.117 . S
Mg232 O250 2.030 . S
O233 Mg234 2.072 . S
O233 C245 1.260 . S
Mg234 O233 2.072 . S
Mg234 O235 2.099 . S
Mg234 O237 2.079 . S
Mg234 O238 2.072 . S
Mg234 O240 2.099 . S
Mg234 O251 2.079 . S
O235 Mg232 2.180 . S
O235 Mg234 2.099 . S
O235 C246 1.279 . S
O236 Mg232 2.117 . S
O236 C246 1.250 . S
O237 Mg234 2.079 . S
O237 C247 1.264 . S
O238 Mg234 2.072 . S
O238 C248 1.260 . S
Mg239 O240 2.180 . S
Mg239 O241 2.030 . S
Mg239 O242 1.990 . S
Mg239 O243 2.117 . S
O240 Mg234 2.099 . S
O240 Mg239 2.180 . S
O240 C249 1.279 . S
O241 Mg239 2.030 . S
O241 C247 1.248 . S
O242 Mg239 1.990 . S
O242 C248 1.253 . S
O243 Mg239 2.117 . S
O243 C249 1.250 . S
C244 O250 1.248 . S
C244 O251 1.264 . S
C245 O231 1.253 . S
C245 O233 1.260 . S
C246 O235 1.279 . S
C246 O236 1.250 . S
C247 O237 1.264 . S
C247 O241 1.248 . S
C248 O238 1.260 . S
C248 O242 1.253 . S
C249 O240 1.279 . S
C249 O243 1.250 . S
O250 Mg232 2.030 . S
O250 C244 1.248 . S
O251 Mg234 2.079 . S
O251 C244 1.264 . S
O252 Mg253 1.990 . S
O252 C266 1.253 . S
Mg253 O252 1.990 . S
Mg253 O256 2.180 . S
Mg253 O257 2.117 . S
Mg253 O271 2.030 . S
O254 Mg255 2.072 . S
O254 C266 1.260 . S
Mg255 O254 2.072 . S
Mg255 O256 2.099 . S
Mg255 O258 2.079 . S
Mg255 O259 2.072 . S
Mg255 O261 2.099 . S
Mg255 O272 2.079 . S
O256 Mg253 2.180 . S
O256 Mg255 2.099 . S
O256 C267 1.279 . S
O257 Mg253 2.117 . S
O257 C267 1.250 . S
O258 Mg255 2.079 . S
O258 C268 1.264 . S
O259 Mg255 2.072 . S
O259 C269 1.260 . S
Mg260 O261 2.180 . S
Mg260 O262 2.030 . S
Mg260 O263 1.990 . S
Mg260 O264 2.117 . S
O261 Mg255 2.099 . S
O261 Mg260 2.180 . S
O261 C270 1.279 . S
O262 Mg260 2.030 . S
O262 C268 1.248 . S
O263 Mg260 1.990 . S
O263 C269 1.253 . S
O264 Mg260 2.117 . S
O264 C270 1.250 . S
C265 O271 1.248 . S
C265 O272 1.264 . S
C266 O252 1.253 . S
C266 O254 1.260 . S
C267 O256 1.279 . S
C267 O257 1.250 . S
C268 O258 1.264 . S
C268 O262 1.248 . S
C269 O259 1.260 . S
C269 O263 1.253 . S
C270 O261 1.279 . S
C270 O264 1.250 . S
O271 Mg253 2.030 . S
O271 C265 1.248 . S
O272 Mg255 2.079 . S
O272 C265 1.264 . S
O273 Mg274 1.990 . S
O273 C287 1.253 . S
Mg274 O273 1.990 . S
Mg274 O277 2.180 . S
Mg274 O278 2.117 1_565 S
Mg274 O292 2.030 . S
O275 Mg276 2.072 . S
O275 C287 1.260 . S
Mg276 O275 2.072 . S
Mg276 O277 2.099 . S
Mg276 O279 2.079 . S
Mg276 O280 2.072 . S
Mg276 O282 2.099 . S
Mg276 O293 2.079 . S
O277 Mg274 2.180 . S
O277 Mg276 2.099 . S
O277 C288 1.279 1_565 S
O278 Mg274 2.117 1_545 S
O278 C288 1.250 . S
O279 Mg276 2.079 . S
O279 C289 1.264 . S
O280 Mg276 2.072 . S
O280 C290 1.260 . S
Mg281 O282 2.180 . S
Mg281 O283 2.030 . S
Mg281 O284 1.990 . S
Mg281 O285 2.117 . S
O282 Mg276 2.099 . S
O282 Mg281 2.180 . S
O282 C291 1.279 . S
O283 Mg281 2.030 . S
O283 C289 1.248 . S
O284 Mg281 1.990 . S
O284 C290 1.253 . S
O285 Mg281 2.117 . S
O285 C291 1.250 . S
C286 O292 1.248 . S
C286 O293 1.264 . S
C287 O273 1.253 . S
C287 O275 1.260 . S
C288 O277 1.279 1_545 S
C288 O278 1.250 . S
C289 O279 1.264 . S
C289 O283 1.248 . S
C290 O280 1.260 . S
C290 O284 1.253 . S
C291 O282 1.279 . S
C291 O285 1.250 . S
O292 Mg274 2.030 . S
O292 C286 1.248 . S
O293 Mg276 2.079 . S
O293 C286 1.264 . S
O294 Mg295 1.990 . S
O294 C308 1.253 . S
Mg295 O294 1.990 . S
Mg295 O298 2.180 . S
Mg295 O299 2.117 1_455 S
Mg295 O313 2.030 . S
O296 Mg297 2.072 . S
O296 C308 1.260 . S
Mg297 O296 2.072 . S
Mg297 O298 2.099 . S
Mg297 O300 2.079 . S
Mg297 O301 2.072 . S
Mg297 O303 2.099 . S
Mg297 O314 2.079 . S
O298 Mg295 2.180 . S
O298 Mg297 2.099 . S
O298 C309 1.279 1_455 S
O299 Mg295 2.117 1_655 S
O299 C309 1.250 . S
O300 Mg297 2.079 . S
O300 C310 1.264 . S
O301 Mg297 2.072 . S
O301 C311 1.260 . S
Mg302 O303 2.180 . S
Mg302 O304 2.030 . S
Mg302 O305 1.990 . S
Mg302 O306 2.117 . S
O303 Mg297 2.099 . S
O303 Mg302 2.180 . S
O303 C312 1.279 . S
O304 Mg302 2.030 . S
O304 C310 1.248 . S
O305 Mg302 1.990 . S
O305 C311 1.253 . S
O306 Mg302 2.117 . S
O306 C312 1.250 . S
C307 O313 1.248 . S
C307 O314 1.264 . S
C308 O294 1.253 . S
C308 O296 1.260 . S
C309 O298 1.279 1_655 S
C309 O299 1.250 . S
C310 O300 1.264 . S
C310 O304 1.248 . S
C311 O301 1.260 . S
C311 O305 1.253 . S
C312 O303 1.279 . S
C312 O306 1.250 . S
O313 Mg295 2.030 . S
O313 C307 1.248 . S
O314 Mg297 2.079 . S
O314 C307 1.264 . S
O315 Mg316 1.990 . S
O315 C329 1.253 . S
Mg316 O315 1.990 . S
Mg316 O319 2.180 . S
Mg316 O320 2.117 . S
Mg316 O334 2.030 . S
O317 Mg318 2.072 . S
O317 C329 1.260 . S
Mg318 O317 2.072 . S
Mg318 O319 2.099 . S
Mg318 O321 2.079 1_556 S
Mg318 O322 2.065 1_556 S
Mg318 O324 2.099 . S
Mg318 O335 2.079 . S
O319 Mg316 2.180 . S
O319 Mg318 2.099 . S
O319 C330 1.279 . S
O320 Mg316 2.117 . S
O320 C330 1.250 . S
O321 Mg318 2.079 1_554 S
O321 C331 1.264 . S
O322 Mg318 2.065 1_554 S
O322 C332 1.268 . S
Mg323 O324 2.180 1_554 S
Mg323 O325 2.030 . S
Mg323 O326 1.990 . S
Mg323 O327 2.117 1_554 S
O324 Mg318 2.099 . S
O324 Mg323 2.180 1_556 S
O324 C333 1.279 . S
O325 Mg323 2.030 . S
O325 C331 1.248 . S
O326 Mg323 1.990 . S
O326 C332 1.253 . S
O327 Mg323 2.117 1_556 S
O327 C333 1.250 . S
C328 O334 1.248 . S
C328 O335 1.264 . S
C329 O315 1.253 . S
C329 O317 1.260 . S
C330 O319 1.279 . S
C330 O320 1.250 . S
C331 O321 1.264 . S
C331 O325 1.248 . S
C332 O322 1.268 . S
C332 O326 1.253 . S
C333 O324 1.279 . S
C333 O327 1.250 . S
O334 Mg316 2.030 . S
O334 C328 1.248 . S
O335 Mg318 2.079 . S
O335 C328 1.264 . S
O336 Mg337 1.990 . S
O336 C350 1.253 . S
Mg337 O336 1.990 . S
Mg337 O340 2.180 . S
Mg337 O341 2.117 . S
Mg337 O355 2.030 . S
O338 Mg339 2.072 . S
O338 C350 1.260 . S
Mg339 O338 2.072 . S
Mg339 O340 2.099 . S
Mg339 O342 2.079 1_556 S
Mg339 O343 2.065 1_556 S
Mg339 O345 2.099 . S
Mg339 O356 2.079 . S
O340 Mg337 2.180 . S
O340 Mg339 2.099 . S
O340 C351 1.279 . S
O341 Mg337 2.117 . S
O341 C351 1.250 . S
O342 Mg339 2.079 1_554 S
O342 C352 1.264 . S
O343 Mg339 2.065 1_554 S
O343 C353 1.268 . S
Mg344 O345 2.180 1_554 S
Mg344 O346 2.030 . S
Mg344 O347 1.990 . S
Mg344 O348 2.117 1_554 S
O345 Mg339 2.099 . S
O345 Mg344 2.180 1_556 S
O345 C354 1.279 . S
O346 Mg344 2.030 . S
O346 C352 1.248 . S
O347 Mg344 1.990 . S
O347 C353 1.253 . S
O348 Mg344 2.117 1_556 S
O348 C354 1.250 . S
C349 O355 1.248 . S
C349 O356 1.264 . S
C350 O336 1.253 . S
C350 O338 1.260 . S
C351 O340 1.279 . S
C351 O341 1.250 . S
C352 O342 1.264 . S
C352 O346 1.248 . S
C353 O343 1.268 . S
C353 O347 1.253 . S
C354 O345 1.279 . S
C354 O348 1.250 . S
O355 Mg337 2.030 . S
O355 C349 1.248 . S
O356 Mg339 2.079 . S
O356 C349 1.264 . S
O357 Mg358 1.990 . S
O357 C371 1.253 . S
Mg358 O357 1.990 . S
Mg358 O361 2.180 . S
Mg358 O362 2.117 . S
Mg358 O376 2.030 . S
O359 Mg360 2.072 . S
O359 C371 1.260 . S
Mg360 O359 2.072 . S
Mg360 O361 2.099 . S
Mg360 O363 2.079 1_556 S
Mg360 O364 2.065 1_556 S
Mg360 O366 2.099 . S
Mg360 O377 2.079 . S
O361 Mg358 2.180 . S
O361 Mg360 2.099 . S
O361 C372 1.279 . S
O362 Mg358 2.117 . S
O362 C372 1.250 . S
O363 Mg360 2.079 1_554 S
O363 C373 1.264 . S
O364 Mg360 2.065 1_554 S
O364 C374 1.268 . S
Mg365 O366 2.180 1_554 S
Mg365 O367 2.030 . S
Mg365 O368 1.990 . S
Mg365 O369 2.117 1_554 S
O366 Mg360 2.099 . S
O366 Mg365 2.180 1_556 S
O366 C375 1.279 . S
O367 Mg365 2.030 . S
O367 C373 1.248 . S
O368 Mg365 1.990 . S
O368 C374 1.253 . S
O369 Mg365 2.117 1_556 S
O369 C375 1.250 . S
C370 O376 1.248 . S
C370 O377 1.264 . S
C371 O357 1.253 . S
C371 O359 1.260 . S
C372 O361 1.279 . S
C372 O362 1.250 . S
C373 O363 1.264 . S
C373 O367 1.248 . S
C374 O364 1.268 . S
C374 O368 1.253 . S
C375 O366 1.279 . S
C375 O369 1.250 . S
O376 Mg358 2.030 . S
O376 C370 1.248 . S
O377 Mg360 2.079 . S
O377 C370 1.264 . S
O378 Mg379 1.990 . S
O378 C392 1.253 . S
Mg379 O378 1.990 . S
Mg379 O382 2.180 . S
Mg379 O383 2.117 . S
Mg379 O397 2.030 . S
O380 Mg381 2.072 . S
O380 C392 1.260 . S
Mg381 O380 2.072 . S
Mg381 O382 2.099 . S
Mg381 O384 2.079 . S
Mg381 O385 2.072 . S
Mg381 O387 2.099 . S
Mg381 O398 2.079 . S
O382 Mg379 2.180 . S
O382 Mg381 2.099 . S
O382 C393 1.279 . S
O383 Mg379 2.117 . S
O383 C393 1.250 . S
O384 Mg381 2.079 . S
O384 C394 1.264 . S
O385 Mg381 2.072 . S
O385 C395 1.260 . S
Mg386 O387 2.180 . S
Mg386 O388 2.030 . S
Mg386 O389 1.990 . S
Mg386 O390 2.117 . S
O387 Mg381 2.099 . S
O387 Mg386 2.180 . S
O387 C396 1.279 . S
O388 Mg386 2.030 . S
O388 C394 1.248 . S
O389 Mg386 1.990 . S
O389 C395 1.253 . S
O390 Mg386 2.117 . S
O390 C396 1.250 . S
C391 O397 1.248 . S
C391 O398 1.264 . S
C392 O378 1.253 . S
C392 O380 1.260 . S
C393 O382 1.279 . S
C393 O383 1.250 . S
C394 O384 1.264 . S
C394 O388 1.248 . S
C395 O385 1.260 . S
C395 O389 1.253 . S
C396 O387 1.279 . S
C396 O390 1.250 . S
O397 Mg379 2.030 . S
O397 C391 1.248 . S
O398 Mg381 2.079 . S
O398 C391 1.264 . S
O399 Mg400 1.990 . S
O399 C413 1.253 . S
Mg400 O399 1.990 . S
Mg400 O403 2.180 . S
Mg400 O404 2.117 . S
Mg400 O418 2.030 . S
O401 Mg402 2.072 . S
O401 C413 1.260 . S
Mg402 O401 2.072 . S
Mg402 O403 2.099 . S
Mg402 O405 2.079 . S
Mg402 O406 2.072 . S
Mg402 O408 2.099 . S
Mg402 O419 2.079 . S
O403 Mg400 2.180 . S
O403 Mg402 2.099 . S
O403 C414 1.279 . S
O404 Mg400 2.117 . S
O404 C414 1.250 . S
O405 Mg402 2.079 . S
O405 C415 1.264 . S
O406 Mg402 2.072 . S
O406 C416 1.260 . S
Mg407 O408 2.180 . S
Mg407 O409 2.030 . S
Mg407 O410 1.990 . S
Mg407 O411 2.117 . S
O408 Mg402 2.099 . S
O408 Mg407 2.180 . S
O408 C417 1.279 . S
O409 Mg407 2.030 . S
O409 C415 1.248 . S
O410 Mg407 1.990 . S
O410 C416 1.253 . S
O411 Mg407 2.117 . S
O411 C417 1.250 . S
C412 O418 1.248 . S
C412 O419 1.264 . S
C413 O399 1.253 . S
C413 O401 1.260 . S
C414 O403 1.279 . S
C414 O404 1.250 . S
C415 O405 1.264 . S
C415 O409 1.248 . S
C416 O406 1.260 . S
C416 O410 1.253 . S
C417 O408 1.279 . S
C417 O411 1.250 . S
O418 Mg400 2.030 . S
O418 C412 1.248 . S
O419 Mg402 2.079 . S
O419 C412 1.264 . S
O420 Mg421 1.990 . S
O420 C434 1.253 . S
Mg421 O420 1.990 . S
Mg421 O424 2.180 . S
Mg421 O425 2.117 . S
Mg421 O439 2.030 . S
O422 Mg423 2.072 . S
O422 C434 1.260 . S
Mg423 O422 2.072 . S
Mg423 O424 2.099 . S
Mg423 O426 2.079 . S
Mg423 O427 2.072 . S
Mg423 O429 2.099 . S
Mg423 O440 2.079 . S
O424 Mg421 2.180 . S
O424 Mg423 2.099 . S
O424 C435 1.279 . S
O425 Mg421 2.117 . S
O425 C435 1.250 . S
O426 Mg423 2.079 . S
O426 C436 1.264 . S
O427 Mg423 2.072 . S
O427 C437 1.260 . S
Mg428 O429 2.180 . S
Mg428 O430 2.030 . S
Mg428 O431 1.990 . S
Mg428 O432 2.117 . S
O429 Mg423 2.099 . S
O429 Mg428 2.180 . S
O429 C438 1.279 . S
O430 Mg428 2.030 . S
O430 C436 1.248 . S
O431 Mg428 1.990 . S
O431 C437 1.253 . S
O432 Mg428 2.117 . S
O432 C438 1.250 . S
C433 O439 1.248 . S
C433 O440 1.264 . S
C434 O420 1.253 . S
C434 O422 1.260 . S
C435 O424 1.279 . S
C435 O425 1.250 . S
C436 O426 1.264 . S
C436 O430 1.248 . S
C437 O427 1.260 . S
C437 O431 1.253 . S
C438 O429 1.279 . S
C438 O432 1.250 . S
O439 Mg421 2.030 . S
O439 C433 1.248 . S
O440 Mg423 2.079 . S
O440 C433 1.264 . S
O441 Mg442 1.990 . S
O441 C455 1.253 . S
Mg442 O441 1.990 . S
Mg442 O445 2.180 1_554 S
Mg442 O446 2.117 1_554 S
Mg442 O460 2.030 . S
O443 Mg444 2.072 . S
O443 C455 1.260 1_556 S
Mg444 O443 2.072 . S
Mg444 O445 2.099 . S
Mg444 O447 2.079 . S
Mg444 O448 2.072 . S
Mg444 O450 2.099 . S
Mg444 O461 2.079 . S
O445 Mg442 2.180 1_556 S
O445 Mg444 2.099 . S
O445 C456 1.279 . S
O446 Mg442 2.117 1_556 S
O446 C456 1.250 . S
O447 Mg444 2.079 . S
O447 C457 1.264 . S
O448 Mg444 2.072 . S
O448 C458 1.260 . S
Mg449 O450 2.180 . S
Mg449 O451 2.030 . S
Mg449 O452 1.990 . S
Mg449 O453 2.117 . S
O450 Mg444 2.099 . S
O450 Mg449 2.180 . S
O450 C459 1.279 . S
O451 Mg449 2.030 . S
O451 C457 1.248 . S
O452 Mg449 1.990 . S
O452 C458 1.253 . S
O453 Mg449 2.117 . S
O453 C459 1.250 . S
C454 O460 1.248 . S
C454 O461 1.264 1_554 S
C455 O441 1.253 . S
C455 O443 1.260 1_554 S
C456 O445 1.279 . S
C456 O446 1.250 . S
C457 O447 1.264 . S
C457 O451 1.248 . S
C458 O448 1.260 . S
C458 O452 1.253 . S
C459 O450 1.279 . S
C459 O453 1.250 . S
O460 Mg442 2.030 . S
O460 C454 1.248 . S
O461 Mg444 2.079 . S
O461 C454 1.264 1_556 S
O462 Mg463 1.990 . S
O462 C476 1.253 . S
Mg463 O462 1.990 . S
Mg463 O466 2.180 1_554 S
Mg463 O467 2.117 1_564 S
Mg463 O481 2.030 . S
O464 Mg465 2.072 . S
O464 C476 1.260 1_556 S
Mg465 O464 2.072 . S
Mg465 O466 2.099 . S
Mg465 O468 2.079 . S
Mg465 O469 2.072 . S
Mg465 O471 2.099 . S
Mg465 O482 2.079 . S
O466 Mg463 2.180 1_556 S
O466 Mg465 2.099 . S
O466 C477 1.279 1_565 S
O467 Mg463 2.117 1_546 S
O467 C477 1.250 . S
O468 Mg465 2.079 . S
O468 C478 1.264 . S
O469 Mg465 2.072 . S
O469 C479 1.260 . S
Mg470 O471 2.180 . S
Mg470 O472 2.030 . S
Mg470 O473 1.990 . S
Mg470 O474 2.117 . S
O471 Mg465 2.099 . S
O471 Mg470 2.180 . S
O471 C480 1.279 . S
O472 Mg470 2.030 . S
O472 C478 1.248 . S
O473 Mg470 1.990 . S
O473 C479 1.253 . S
O474 Mg470 2.117 . S
O474 C480 1.250 . S
C475 O481 1.248 . S
C475 O482 1.264 1_554 S
C476 O462 1.253 . S
C476 O464 1.260 1_554 S
C477 O466 1.279 1_545 S
C477 O467 1.250 . S
C478 O468 1.264 . S
C478 O472 1.248 . S
C479 O469 1.260 . S
C479 O473 1.253 . S
C480 O471 1.279 . S
C480 O474 1.250 . S
O481 Mg463 2.030 . S
O481 C475 1.248 . S
O482 Mg465 2.079 . S
O482 C475 1.264 1_556 S
O483 Mg484 1.990 . S
O483 C497 1.253 . S
Mg484 O483 1.990 . S
Mg484 O487 2.180 1_554 S
Mg484 O488 2.117 1_454 S
Mg484 O502 2.030 . S
O485 Mg486 2.072 . S
O485 C497 1.260 1_556 S
Mg486 O485 2.072 . S
Mg486 O487 2.099 . S
Mg486 O489 2.079 . S
Mg486 O490 2.072 . S
Mg486 O492 2.099 . S
Mg486 O503 2.079 . S
O487 Mg484 2.180 1_556 S
O487 Mg486 2.099 . S
O487 C498 1.279 1_455 S
O488 Mg484 2.117 1_656 S
O488 C498 1.250 . S
O489 Mg486 2.079 . S
O489 C499 1.264 . S
O490 Mg486 2.072 . S
O490 C500 1.260 . S
Mg491 O492 2.180 . S
Mg491 O493 2.030 . S
Mg491 O494 1.990 . S
Mg491 O495 2.117 . S
O492 Mg486 2.099 . S
O492 Mg491 2.180 . S
O492 C501 1.279 . S
O493 Mg491 2.030 . S
O493 C499 1.248 . S
O494 Mg491 1.990 . S
O494 C500 1.253 . S
O495 Mg491 2.117 . S
O495 C501 1.250 . S
C496 O502 1.248 . S
C496 O503 1.264 1_554 S
C497 O483 1.253 . S
C497 O485 1.260 1_554 S
C498 O487 1.279 1_655 S
C498 O488 1.250 . S
C499 O489 1.264 . S
C499 O493 1.248 . S
C500 O490 1.260 . S
C500 O494 1.253 . S
C501 O492 1.279 . S
C501 O495 1.250 . S
O502 Mg484 2.030 . S
O502 C496 1.248 . S
O503 Mg486 2.079 . S
O503 C496 1.264 1_556 S
O504 Mg505 1.990 . S
O504 C518 1.253 . S
Mg505 O504 1.990 . S
Mg505 O508 2.180 . S
Mg505 O509 2.117 . S
Mg505 O523 2.030 . S
O506 Mg507 2.072 . S
O506 C518 1.260 . S
Mg507 O506 2.072 . S
Mg507 O508 2.099 . S
Mg507 O510 2.079 . S
Mg507 O511 2.072 . S
Mg507 O513 2.099 . S
Mg507 O524 2.079 . S
O508 Mg505 2.180 . S
O508 Mg507 2.099 . S
O508 C519 1.279 . S
O509 Mg505 2.117 . S
O509 C519 1.250 . S
O510 Mg507 2.079 . S
O510 C520 1.264 . S
O511 Mg507 2.072 . S
O511 C521 1.260 . S
Mg512 O513 2.180 . S
Mg512 O514 2.030 . S
Mg512 O515 1.990 . S
Mg512 O516 2.117 . S
O513 Mg507 2.099 . S
O513 Mg512 2.180 . S
O513 C522 1.279 . S
O514 Mg512 2.030 . S
O514 C520 1.248 . S
O515 Mg512 1.990 . S
O515 C521 1.253 . S
O516 Mg512 2.117 . S
O516 C522 1.250 . S
C517 O523 1.248 . S
C517 O524 1.264 . S
C518 O504 1.253 . S
C518 O506 1.260 . S
C519 O508 1.279 . S
C519 O509 1.250 . S
C520 O510 1.264 . S
C520 O514 1.248 . S
C521 O511 1.260 . S
C521 O515 1.253 . S
C522 O513 1.279 . S
C522 O516 1.250 . S
O523 Mg505 2.030 . S
O523 C517 1.248 . S
O524 Mg507 2.079 . S
O524 C517 1.264 . S
O525 Mg526 1.990 . S
O525 C539 1.253 . S
Mg526 O525 1.990 . S
Mg526 O529 2.180 . S
Mg526 O530 2.117 . S
Mg526 O544 2.030 . S
O527 Mg528 2.072 . S
O527 C539 1.260 . S
Mg528 O527 2.072 . S
Mg528 O529 2.099 . S
Mg528 O531 2.079 . S
Mg528 O532 2.072 . S
Mg528 O534 2.099 . S
Mg528 O545 2.079 . S
O529 Mg526 2.180 . S
O529 Mg528 2.099 . S
O529 C540 1.279 . S
O530 Mg526 2.117 . S
O530 C540 1.250 . S
O531 Mg528 2.079 . S
O531 C541 1.264 . S
O532 Mg528 2.072 . S
O532 C542 1.260 . S
Mg533 O534 2.180 . S
Mg533 O535 2.030 . S
Mg533 O536 1.990 . S
Mg533 O537 2.117 . S
O534 Mg528 2.099 . S
O534 Mg533 2.180 . S
O534 C543 1.279 . S
O535 Mg533 2.030 . S
O535 C541 1.248 . S
O536 Mg533 1.990 . S
O536 C542 1.253 . S
O537 Mg533 2.117 . S
O537 C543 1.250 . S
C538 O544 1.248 . S
C538 O545 1.264 . S
C539 O525 1.253 . S
C539 O527 1.260 . S
C540 O529 1.279 . S
C540 O530 1.250 . S
C541 O531 1.264 . S
C541 O535 1.248 . S
C542 O532 1.260 . S
C542 O536 1.253 . S
C543 O534 1.279 . S
C543 O537 1.250 . S
O544 Mg526 2.030 . S
O544 C538 1.248 . S
O545 Mg528 2.079 . S
O545 C538 1.264 . S
O546 Mg547 1.990 . S
O546 C560 1.253 . S
Mg547 O546 1.990 . S
Mg547 O550 2.180 . S
Mg547 O551 2.117 . S
Mg547 O565 2.030 . S
O548 Mg549 2.072 . S
O548 C560 1.260 . S
Mg549 O548 2.072 . S
Mg549 O550 2.099 . S
Mg549 O552 2.079 . S
Mg549 O553 2.072 . S
Mg549 O555 2.099 . S
Mg549 O566 2.079 . S
O550 Mg547 2.180 . S
O550 Mg549 2.099 . S
O550 C561 1.279 . S
O551 Mg547 2.117 . S
O551 C561 1.250 . S
O552 Mg549 2.079 . S
O552 C562 1.264 . S
O553 Mg549 2.072 . S
O553 C563 1.260 . S
Mg554 O555 2.180 . S
Mg554 O556 2.030 . S
Mg554 O557 1.990 . S
Mg554 O558 2.117 . S
O555 Mg549 2.099 . S
O555 Mg554 2.180 . S
O555 C564 1.279 . S
O556 Mg554 2.030 . S
O556 C562 1.248 . S
O557 Mg554 1.990 . S
O557 C563 1.253 . S
O558 Mg554 2.117 . S
O558 C564 1.250 . S
C559 O565 1.248 . S
C559 O566 1.264 . S
C560 O546 1.253 . S
C560 O548 1.260 . S
C561 O550 1.279 . S
C561 O551 1.250 . S
C562 O552 1.264 . S
C562 O556 1.248 . S
C563 O553 1.260 . S
C563 O557 1.253 . S
C564 O555 1.279 . S
C564 O558 1.250 . S
O565 Mg547 2.030 . S
O565 C559 1.248 . S
O566 Mg549 2.079 . S
O566 C559 1.264 . S
O567 Mg568 1.990 1_556 S
O567 C581 1.253 1_556 S
Mg568 O567 1.990 1_554 S
Mg568 O571 2.180 . S
Mg568 O572 2.117 . S
Mg568 O586 2.030 1_554 S
O569 Mg570 2.072 . S
O569 C581 1.260 . S
Mg570 O569 2.072 . S
Mg570 O571 2.099 . S
Mg570 O573 2.079 . S
Mg570 O574 2.072 . S
Mg570 O576 2.099 . S
Mg570 O587 2.079 . S
O571 Mg568 2.180 . S
O571 Mg570 2.099 . S
O571 C582 1.279 . S
O572 Mg568 2.117 . S
O572 C582 1.250 . S
O573 Mg570 2.079 . S
O573 C583 1.264 . S
O574 Mg570 2.072 . S
O574 C584 1.260 . S
Mg575 O576 2.180 . S
Mg575 O577 2.030 . S
Mg575 O578 1.990 . S
Mg575 O579 2.117 . S
O576 Mg570 2.099 . S
O576 Mg575 2.180 . S
O576 C585 1.279 . S
O577 Mg575 2.030 . S
O577 C583 1.248 . S
O578 Mg575 1.990 . S
O578 C584 1.253 . S
O579 Mg575 2.117 . S
O579 C585 1.250 . S
C580 O586 1.248 . S
C580 O587 1.264 1_556 S
C581 O567 1.253 1_554 S
C581 O569 1.260 . S
C582 O571 1.279 . S
C582 O572 1.250 . S
C583 O573 1.264 . S
C583 O577 1.248 . S
C584 O574 1.260 . S
C584 O578 1.253 . S
C585 O576 1.279 . S
C585 O579 1.250 . S
O586 Mg568 2.030 1_556 S
O586 C580 1.248 . S
O587 Mg570 2.079 . S
O587 C580 1.264 1_554 S
O588 Mg589 1.990 1_556 S
O588 C602 1.253 1_556 S
Mg589 O588 1.990 1_554 S
Mg589 O592 2.180 . S
Mg589 O593 2.117 1_545 S
Mg589 O607 2.030 1_554 S
O590 Mg591 2.072 . S
O590 C602 1.260 . S
Mg591 O590 2.072 . S
Mg591 O592 2.099 . S
Mg591 O594 2.079 . S
Mg591 O595 2.072 . S
Mg591 O597 2.099 . S
Mg591 O608 2.079 . S
O592 Mg589 2.180 . S
O592 Mg591 2.099 . S
O592 C603 1.279 1_545 S
O593 Mg589 2.117 1_565 S
O593 C603 1.250 . S
O594 Mg591 2.079 . S
O594 C604 1.264 . S
O595 Mg591 2.072 . S
O595 C605 1.260 . S
Mg596 O597 2.180 . S
Mg596 O598 2.030 . S
Mg596 O599 1.990 . S
Mg596 O600 2.117 . S
O597 Mg591 2.099 . S
O597 Mg596 2.180 . S
O597 C606 1.279 . S
O598 Mg596 2.030 . S
O598 C604 1.248 . S
O599 Mg596 1.990 . S
O599 C605 1.253 . S
O600 Mg596 2.117 . S
O600 C606 1.250 . S
C601 O607 1.248 . S
C601 O608 1.264 1_556 S
C602 O588 1.253 1_554 S
C602 O590 1.260 . S
C603 O592 1.279 1_565 S
C603 O593 1.250 . S
C604 O594 1.264 . S
C604 O598 1.248 . S
C605 O595 1.260 . S
C605 O599 1.253 . S
C606 O597 1.279 . S
C606 O600 1.250 . S
O607 Mg589 2.030 1_556 S
O607 C601 1.248 . S
O608 Mg591 2.079 . S
O608 C601 1.264 1_554 S
O609 Mg610 1.990 1_556 S
O609 C623 1.253 1_556 S
Mg610 O609 1.990 1_554 S
Mg610 O613 2.180 . S
Mg610 O614 2.117 1_655 S
Mg610 O628 2.030 1_554 S
O611 Mg612 2.072 . S
O611 C623 1.260 . S
Mg612 O611 2.072 . S
Mg612 O613 2.099 . S
Mg612 O615 2.079 . S
Mg612 O616 2.072 . S
Mg612 O618 2.099 . S
Mg612 O629 2.079 . S
O613 Mg610 2.180 . S
O613 Mg612 2.099 . S
O613 C624 1.279 1_655 S
O614 Mg610 2.117 1_455 S
O614 C624 1.250 . S
O615 Mg612 2.079 . S
O615 C625 1.264 . S
O616 Mg612 2.072 . S
O616 C626 1.260 . S
Mg617 O618 2.180 . S
Mg617 O619 2.030 . S
Mg617 O620 1.990 . S
Mg617 O621 2.117 . S
O618 Mg612 2.099 . S
O618 Mg617 2.180 . S
O618 C627 1.279 . S
O619 Mg617 2.030 . S
O619 C625 1.248 . S
O620 Mg617 1.990 . S
O620 C626 1.253 . S
O621 Mg617 2.117 . S
O621 C627 1.250 . S
C622 O628 1.248 . S
C622 O629 1.264 1_556 S
C623 O609 1.253 1_554 S
C623 O611 1.260 . S
C624 O613 1.279 1_455 S
C624 O614 1.250 . S
C625 O615 1.264 . S
C625 O619 1.248 . S
C626 O616 1.260 . S
C626 O620 1.253 . S
C627 O618 1.279 . S
C627 O621 1.250 . S
O628 Mg610 2.030 1_556 S
O628 C622 1.248 . S
O629 Mg612 2.079 . S
O629 C622 1.264 1_554 S
O630 Mg631 1.990 . S
O630 C644 1.253 . S
Mg631 O630 1.990 . S
Mg631 O634 2.180 . S
Mg631 O635 2.117 . S
Mg631 O649 2.030 . S
O632 Mg633 2.072 . S
O632 C644 1.260 . S
Mg633 O632 2.072 . S
Mg633 O634 2.099 . S
Mg633 O636 2.079 . S
Mg633 O637 2.072 . S
Mg633 O639 2.099 . S
Mg633 O650 2.079 . S
O634 Mg631 2.180 . S
O634 Mg633 2.099 . S
O634 C645 1.279 . S
O635 Mg631 2.117 . S
O635 C645 1.250 . S
O636 Mg633 2.079 . S
O636 C646 1.264 . S
O637 Mg633 2.072 . S
O637 C647 1.260 . S
Mg638 O639 2.180 . S
Mg638 O640 2.030 . S
Mg638 O641 1.990 . S
Mg638 O642 2.117 . S
O639 Mg633 2.099 . S
O639 Mg638 2.180 . S
O639 C648 1.279 . S
O640 Mg638 2.030 . S
O640 C646 1.248 . S
O641 Mg638 1.990 . S
O641 C647 1.253 . S
O642 Mg638 2.117 . S
O642 C648 1.250 . S
C643 O649 1.248 . S
C643 O650 1.264 . S
C644 O630 1.253 . S
C644 O632 1.260 . S
C645 O634 1.279 . S
C645 O635 1.250 . S
C646 O636 1.264 . S
C646 O640 1.248 . S
C647 O637 1.260 . S
C647 O641 1.253 . S
C648 O639 1.279 . S
C648 O642 1.250 . S
O649 Mg631 2.030 . S
O649 C643 1.248 . S
O650 Mg633 2.079 . S
O650 C643 1.264 . S
O651 Mg652 1.990 . S
O651 C665 1.253 . S
Mg652 O651 1.990 . S
Mg652 O655 2.180 . S
Mg652 O656 2.117 1_545 S
Mg652 O670 2.030 . S
O653 Mg654 2.072 . S
O653 C665 1.260 . S
Mg654 O653 2.072 . S
Mg654 O655 2.099 . S
Mg654 O657 2.079 . S
Mg654 O658 2.072 . S
Mg654 O660 2.099 . S
Mg654 O671 2.079 . S
O655 Mg652 2.180 . S
O655 Mg654 2.099 . S
O655 C666 1.279 1_545 S
O656 Mg652 2.117 1_565 S
O656 C666 1.250 . S
O657 Mg654 2.079 . S
O657 C667 1.264 . S
O658 Mg654 2.072 . S
O658 C668 1.260 . S
Mg659 O660 2.180 . S
Mg659 O661 2.030 . S
Mg659 O662 1.990 . S
Mg659 O663 2.117 . S
O660 Mg654 2.099 . S
O660 Mg659 2.180 . S
O660 C669 1.279 . S
O661 Mg659 2.030 . S
O661 C667 1.248 . S
O662 Mg659 1.990 . S
O662 C668 1.253 . S
O663 Mg659 2.117 . S
O663 C669 1.250 . S
C664 O670 1.248 . S
C664 O671 1.264 . S
C665 O651 1.253 . S
C665 O653 1.260 . S
C666 O655 1.279 1_565 S
C666 O656 1.250 . S
C667 O657 1.264 . S
C667 O661 1.248 . S
C668 O658 1.260 . S
C668 O662 1.253 . S
C669 O660 1.279 . S
C669 O663 1.250 . S
O670 Mg652 2.030 . S
O670 C664 1.248 . S
O671 Mg654 2.079 . S
O671 C664 1.264 . S
O672 Mg673 1.990 . S
O672 C686 1.253 . S
Mg673 O672 1.990 . S
Mg673 O676 2.180 . S
Mg673 O677 2.117 1_655 S
Mg673 O691 2.030 . S
O674 Mg675 2.072 . S
O674 C686 1.260 . S
Mg675 O674 2.072 . S
Mg675 O676 2.099 . S
Mg675 O678 2.079 . S
Mg675 O679 2.072 . S
Mg675 O681 2.099 . S
Mg675 O692 2.079 . S
O676 Mg673 2.180 . S
O676 Mg675 2.099 . S
O676 C687 1.279 1_655 S
O677 Mg673 2.117 1_455 S
O677 C687 1.250 . S
O678 Mg675 2.079 . S
O678 C688 1.264 . S
O679 Mg675 2.072 . S
O679 C689 1.260 . S
Mg680 O681 2.180 . S
Mg680 O682 2.030 . S
Mg680 O683 1.990 . S
Mg680 O684 2.117 . S
O681 Mg675 2.099 . S
O681 Mg680 2.180 . S
O681 C690 1.279 . S
O682 Mg680 2.030 . S
O682 C688 1.248 . S
O683 Mg680 1.990 . S
O683 C689 1.253 . S
O684 Mg680 2.117 . S
O684 C690 1.250 . S
C685 O691 1.248 . S
C685 O692 1.264 . S
C686 O672 1.253 . S
C686 O674 1.260 . S
C687 O676 1.279 1_455 S
C687 O677 1.250 . S
C688 O678 1.264 . S
C688 O682 1.248 . S
C689 O679 1.260 . S
C689 O683 1.253 . S
C690 O681 1.279 . S
C690 O684 1.250 . S
O691 Mg673 2.030 . S
O691 C685 1.248 . S
O692 Mg675 2.079 . S
O692 C685 1.264 . S
O693 Mg694 1.990 . S
O693 C707 1.253 . S
Mg694 O693 1.990 . S
Mg694 O697 2.180 . S
Mg694 O698 2.117 . S
Mg694 O712 2.030 . S
O695 Mg696 2.072 . S
O695 C707 1.260 . S
Mg696 O695 2.072 . S
Mg696 O697 2.099 . S
Mg696 O699 2.079 . S
Mg696 O700 2.072 . S
Mg696 O702 2.099 . S
Mg696 O713 2.079 . S
O697 Mg694 2.180 . S
O697 Mg696 2.099 . S
O697 C708 1.279 . S
O698 Mg694 2.117 . S
O698 C708 1.250 . S
O699 Mg696 2.079 . S
O699 C709 1.264 1_554 S
O700 Mg696 2.072 . S
O700 C710 1.260 1_554 S
Mg701 O702 2.180 1_556 S
Mg701 O703 2.030 . S
Mg701 O704 1.990 . S
Mg701 O705 2.117 1_556 S
O702 Mg696 2.099 . S
O702 Mg701 2.180 1_554 S
O702 C711 1.279 . S
O703 Mg701 2.030 . S
O703 C709 1.248 . S
O704 Mg701 1.990 . S
O704 C710 1.253 . S
O705 Mg701 2.117 1_554 S
O705 C711 1.250 . S
C706 O712 1.248 . S
C706 O713 1.264 . S
C707 O693 1.253 . S
C707 O695 1.260 . S
C708 O697 1.279 . S
C708 O698 1.250 . S
C709 O699 1.264 1_556 S
C709 O703 1.248 . S
C710 O700 1.260 1_556 S
C710 O704 1.253 . S
C711 O702 1.279 . S
C711 O705 1.250 . S
O712 Mg694 2.030 . S
O712 C706 1.248 . S
O713 Mg696 2.079 . S
O713 C706 1.264 . S
O714 Mg715 1.990 . S
O714 C728 1.253 . S
Mg715 O714 1.990 . S
Mg715 O718 2.180 . S
Mg715 O719 2.117 . S
Mg715 O733 2.030 . S
O716 Mg717 2.072 . S
O716 C728 1.260 . S
Mg717 O716 2.072 . S
Mg717 O718 2.099 . S
Mg717 O720 2.079 . S
Mg717 O721 2.072 . S
Mg717 O723 2.099 . S
Mg717 O734 2.079 . S
O718 Mg715 2.180 . S
O718 Mg717 2.099 . S
O718 C729 1.279 . S
O719 Mg715 2.117 . S
O719 C729 1.250 . S
O720 Mg717 2.079 . S
O720 C730 1.264 1_554 S
O721 Mg717 2.072 . S
O721 C731 1.260 1_554 S
Mg722 O723 2.180 1_556 S
Mg722 O724 2.030 . S
Mg722 O725 1.990 . S
Mg722 O726 2.117 1_556 S
O723 Mg717 2.099 . S
O723 Mg722 2.180 1_554 S
O723 C732 1.279 . S
O724 Mg722 2.030 . S
O724 C730 1.248 . S
O725 Mg722 1.990 . S
O725 C731 1.253 . S
O726 Mg722 2.117 1_554 S
O726 C732 1.250 . S
C727 O733 1.248 . S
C727 O734 1.264 . S
C728 O714 1.253 . S
C728 O716 1.260 . S
C729 O718 1.279 . S
C729 O719 1.250 . S
C730 O720 1.264 1_556 S
C730 O724 1.248 . S
C731 O721 1.260 1_556 S
C731 O725 1.253 . S
C732 O723 1.279 . S
C732 O726 1.250 . S
O733 Mg715 2.030 . S
O733 C727 1.248 . S
O734 Mg717 2.079 . S
O734 C727 1.264 . S
O735 Mg736 1.990 . S
O735 C749 1.253 . S
Mg736 O735 1.990 . S
Mg736 O739 2.180 . S
Mg736 O740 2.117 . S
Mg736 O754 2.030 . S
O737 Mg738 2.072 . S
O737 C749 1.260 . S
Mg738 O737 2.072 . S
Mg738 O739 2.099 . S
Mg738 O741 2.079 . S
Mg738 O742 2.072 . S
Mg738 O744 2.099 . S
Mg738 O755 2.079 . S
O739 Mg736 2.180 . S
O739 Mg738 2.099 . S
O739 C750 1.279 . S
O740 Mg736 2.117 . S
O740 C750 1.250 . S
O741 Mg738 2.079 . S
O741 C751 1.264 1_554 S
O742 Mg738 2.072 . S
O742 C752 1.260 1_554 S
Mg743 O744 2.180 1_556 S
Mg743 O745 2.030 . S
Mg743 O746 1.990 . S
Mg743 O747 2.117 1_556 S
O744 Mg738 2.099 . S
O744 Mg743 2.180 1_554 S
O744 C753 1.279 . S
O745 Mg743 2.030 . S
O745 C751 1.248 . S
O746 Mg743 1.990 . S
O746 C752 1.253 . S
O747 Mg743 2.117 1_554 S
O747 C753 1.250 . S
C748 O754 1.248 . S
C748 O755 1.264 . S
C749 O735 1.253 . S
C749 O737 1.260 . S
C750 O739 1.279 . S
C750 O740 1.250 . S
C751 O741 1.264 1_556 S
C751 O745 1.248 . S
C752 O742 1.260 1_556 S
C752 O746 1.253 . S
C753 O744 1.279 . S
C753 O747 1.250 . S
O754 Mg736 2.030 . S
O754 C748 1.248 . S
O755 Mg738 2.079 . S
O755 C748 1.264 . S
C330 C15 1.729 1_556 S
C351 C36 1.729 1_556 S
C57 C372 1.729 1_554 S
C78 C519 1.728 . S
C99 C540 1.728 . S
C120 C561 1.728 . S
C708 C141 1.728 . S
C729 C162 1.728 . S
C183 C750 1.728 . S
C393 C204 1.729 . S
C225 C414 1.729 . S
C246 C435 1.729 . S
C582 C267 1.728 . S
C288 C603 1.728 1_545 S
C624 C309 1.729 1_455 S
C645 C456 1.728 . S
C666 C477 1.729 1_565 S
C498 C687 1.728 1_655 S
C17 C101 1.157 1_455 S
C38 C122 1.157 . S
C59 C80 1.157 1_565 S
C143 C227 1.157 1_655 S
C164 C248 1.157 . S
C185 C206 1.157 1_545 S
C269 C353 1.157 . S
C374 C290 1.157 . S
C311 C332 1.157 . S
C395 C479 1.157 . S
C416 C500 1.157 . S
C458 C437 1.157 . S
C521 C605 1.157 . S
C626 C542 1.157 . S
C563 C584 1.157 . S
C647 C731 1.157 . S
C668 C752 1.157 . S
C689 C710 1.157 . S
C223 C16 1.604 . S
C37 C244 1.605 . S
C58 C202 1.604 . S
C79 C181 1.605 . S
C100 C139 1.604 . S
C160 C121 1.605 . S
C142 C97 1.604 . S
C118 C163 1.605 . S
C184 C76 1.605 . S
C205 C55 1.604 . S
C13 C226 1.604 . S
C34 C247 1.605 . S
C475 C268 1.604 . S
C496 C289 1.604 . S
C454 C310 1.604 . S
C433 C331 1.604 . S
C352 C391 1.605 . S
C412 C373 1.605 . S
C349 C394 1.604 . S
C415 C370 1.604 . S
C436 C328 1.604 . S
C307 C457 1.604 . S
C478 C265 1.604 . S
C499 C286 1.604 . S
C520 C727 1.604 . S
C541 C748 1.604 . S
C706 C562 1.605 . S
C685 C583 1.605 . S
C604 C643 1.605 . S
C664 C625 1.604 . S
C646 C601 1.604 . S
C622 C667 1.604 . S
C688 C580 1.605 . S
C709 C559 1.605 . S
C517 C730 1.604 . S
C538 C751 1.604 . S
C14 C98 2.156 1_455 S
C119 C35 2.156 . S
C56 C77 2.156 1_565 S
C140 C224 2.156 1_655 S
C245 C161 2.156 . S
C182 C203 2.156 1_545 S
C350 C266 2.156 . S
C371 C287 2.156 . S
C329 C308 2.156 . S
C476 C392 2.156 . S
C413 C497 2.156 . S
C455 C434 2.156 . S
C602 C518 2.155 1_554 S
C539 C623 2.156 1_556 S
C560 C581 2.156 1_556 S
C728 C644 2.156 . S
C665 C749 2.156 . S
C686 C707 2.156 . S
C18 C144 1.025 1_655 S
C39 C165 1.025 . S
C186 C60 1.025 1_565 S
C207 C81 1.025 1_545 S
C102 C228 1.025 1_455 S
C123 C249 1.025 . S
C396 C270 1.025 . S
C291 C417 1.025 . S
C438 C312 1.025 . S
C459 C333 1.025 . S
C480 C354 1.025 . S
C501 C375 1.025 . S
C648 C522 1.026 . S
C543 C669 1.025 . S
C690 C564 1.025 . S
C711 C585 1.025 . S
C732 C606 1.025 . S
C627 C753 1.025 . S
