# Generated by pormake.
# Topology ume, (4)-cn, num edge types: 1
# Building blocks:
#     Node 0, Type 0, BuildingBlock: MUDLON_clean_sbu_0, # of connection points: 4
#     Node 1, Type 0, BuildingBlock: MUDLON_clean_sbu_0, # of connection points: 4
#     Node 2, Type 0, BuildingBlock: MUDLON_clean_sbu_0, # of connection points: 4
#     Node 3, Type 0, BuildingBlock: MUDLON_clean_sbu_0, # of connection points: 4
#     Node 4, Type 0, BuildingBlock: MUDLON_clean_sbu_0, # of connection points: 4
#     Node 5, Type 0, BuildingBlock: MUDLON_clean_sbu_0, # of connection points: 4
#     Node 6, Type 0, BuildingBlock: MUDLON_clean_sbu_0, # of connection points: 4
#     Node 7, Type 0, BuildingBlock: MUDLON_clean_sbu_0, # of connection points: 4
#     Node 8, Type 0, BuildingBlock: MUDLON_clean_sbu_0, # of connection points: 4
#     Node 9, Type 0, BuildingBlock: MUDLON_clean_sbu_0, # of connection points: 4
#     Node 10, Type 0, BuildingBlock: MUDLON_clean_sbu_0, # of connection points: 4
#     Node 11, Type 0, BuildingBlock: MUDLON_clean_sbu_0, # of connection points: 4
#     Node 12, Type 0, BuildingBlock: MUDLON_clean_sbu_0, # of connection points: 4
#     Node 13, Type 0, BuildingBlock: MUDLON_clean_sbu_0, # of connection points: 4
#     Node 14, Type 0, BuildingBlock: MUDLON_clean_sbu_0, # of connection points: 4
#     Node 15, Type 0, BuildingBlock: MUDLON_clean_sbu_0, # of connection points: 4
#     Edge 16, Type (0, 0), BuildingBlock: TEMPAE_clean_linker_10, # of connection points: 2
#     Edge 17, Type (0, 0), BuildingBlock: TEMPAE_clean_linker_10, # of connection points: 2
#     Edge 18, Type (0, 0), BuildingBlock: TEMPAE_clean_linker_10, # of connection points: 2
#     Edge 19, Type (0, 0), BuildingBlock: TEMPAE_clean_linker_10, # of connection points: 2
#     Edge 20, Type (0, 0), BuildingBlock: TEMPAE_clean_linker_10, # of connection points: 2
#     Edge 21, Type (0, 0), BuildingBlock: TEMPAE_clean_linker_10, # of connection points: 2
#     Edge 22, Type (0, 0), BuildingBlock: TEMPAE_clean_linker_10, # of connection points: 2
#     Edge 23, Type (0, 0), BuildingBlock: TEMPAE_clean_linker_10, # of connection points: 2
#     Edge 24, Type (0, 0), BuildingBlock: TEMPAE_clean_linker_10, # of connection points: 2
#     Edge 25, Type (0, 0), BuildingBlock: TEMPAE_clean_linker_10, # of connection points: 2
#     Edge 26, Type (0, 0), BuildingBlock: TEMPAE_clean_linker_10, # of connection points: 2
#     Edge 27, Type (0, 0), BuildingBlock: TEMPAE_clean_linker_10, # of connection points: 2
#     Edge 28, Type (0, 0), BuildingBlock: TEMPAE_clean_linker_10, # of connection points: 2
#     Edge 29, Type (0, 0), BuildingBlock: TEMPAE_clean_linker_10, # of connection points: 2
#     Edge 30, Type (0, 0), BuildingBlock: TEMPAE_clean_linker_10, # of connection points: 2
#     Edge 31, Type (0, 0), BuildingBlock: TEMPAE_clean_linker_10, # of connection points: 2
#     Edge 32, Type (0, 0), BuildingBlock: TEMPAE_clean_linker_10, # of connection points: 2
#     Edge 33, Type (0, 0), BuildingBlock: TEMPAE_clean_linker_10, # of connection points: 2
#     Edge 34, Type (0, 0), BuildingBlock: TEMPAE_clean_linker_10, # of connection points: 2
#     Edge 35, Type (0, 0), BuildingBlock: TEMPAE_clean_linker_10, # of connection points: 2
#     Edge 36, Type (0, 0), BuildingBlock: TEMPAE_clean_linker_10, # of connection points: 2
#     Edge 37, Type (0, 0), BuildingBlock: TEMPAE_clean_linker_10, # of connection points: 2
#     Edge 38, Type (0, 0), BuildingBlock: TEMPAE_clean_linker_10, # of connection points: 2
#     Edge 39, Type (0, 0), BuildingBlock: TEMPAE_clean_linker_10, # of connection points: 2
#     Edge 40, Type (0, 0), BuildingBlock: TEMPAE_clean_linker_10, # of connection points: 2
#     Edge 41, Type (0, 0), BuildingBlock: TEMPAE_clean_linker_10, # of connection points: 2
#     Edge 42, Type (0, 0), BuildingBlock: TEMPAE_clean_linker_10, # of connection points: 2
#     Edge 43, Type (0, 0), BuildingBlock: TEMPAE_clean_linker_10, # of connection points: 2
#     Edge 44, Type (0, 0), BuildingBlock: TEMPAE_clean_linker_10, # of connection points: 2
#     Edge 45, Type (0, 0), BuildingBlock: TEMPAE_clean_linker_10, # of connection points: 2
#     Edge 46, Type (0, 0), BuildingBlock: TEMPAE_clean_linker_10, # of connection points: 2
#     Edge 47, Type (0, 0), BuildingBlock: TEMPAE_clean_linker_10, # of connection points: 2
# Relax obj value: 0.086
# Max RMSD: 0.263
# Mean RMSD: 0.263
data_MOF--net-ume--node1-MUDLON_clean_sbu_0--edge1-TEMPAE_clean_linker_10
_symmetry_space_group_name_H-M    P1
_symmetry_Int_Tables_number       1
_symmetry_cell_setting            triclinic
loop_
_symmetry_equiv_pos_as_xyz
'x, y, z'
_cell_length_a     29.230647
_cell_length_b     29.377378
_cell_length_c     118.06862
_cell_angle_alpha  90.080652
_cell_angle_beta   90.003657
_cell_angle_gamma 90.077921
loop_
_atom_site_label
_atom_site_type_symbol
_atom_site_fract_x
_atom_site_fract_y
_atom_site_fract_z
_atom_type_partial_charge
Mg0 Mg 0.26249 0.11151 0.3324 0.0
C1 C 0.35858 0.08497 0.3352 0.0
O2 O 0.35645 0.12687 0.33907 0.0
C3 C 0.18073 0.05125 0.32413 0.0
O4 O 0.20938 0.0361 0.31643 0.0
C5 C 0.24054 0.16785 0.31127 0.0
O6 O 0.19892 0.15264 0.3131 0.0
O7 O 0.27204 0.1583 0.31831 0.0
O8 O 0.32194 0.06641 0.33157 0.0
O9 O 0.26624 0.14286 0.34913 0.0
C10 C 0.26629 0.1137 0.3571 0.0
O11 O 0.26339 0.07037 0.35439 0.0
O12 O 0.19466 0.08003 0.33142 0.0
Mg13 Mg 0.88959 0.76048 0.58281 0.0
C14 C 0.84714 0.7307 0.60526 0.0
O15 O 0.85521 0.69011 0.60104 0.0
C16 C 0.85787 0.7469 0.55889 0.0
O17 O 0.89744 0.7258 0.55866 0.0
C18 C 0.90651 0.66028 0.57909 0.0
O19 O 0.86314 0.66307 0.57624 0.0
O20 O 0.92736 0.69623 0.58225 0.0
O21 O 0.85541 0.76554 0.5992 0.0
O22 O 0.93422 0.82026 0.58212 0.0
C23 C 0.92621 0.85171 0.57497 0.0
O24 O 0.893 0.84607 0.56761 0.0
O25 O 0.84406 0.76419 0.56817 0.0
Mg26 Mg 0.28284 0.40248 0.83143 0.0
C27 C 0.19424 0.44869 0.83761 0.0
O28 O 0.19871 0.42034 0.84613 0.0
C29 C 0.36283 0.47295 0.83051 0.0
O30 O 0.3309 0.50366 0.83219 0.0
C31 C 0.23482 0.35066 0.81283 0.0
O32 O 0.19916 0.3673 0.81819 0.0
O33 O 0.27443 0.35707 0.817 0.0
O34 O 0.22612 0.45102 0.83027 0.0
O35 O 0.27863 0.36961 0.848 0.0
C36 C 0.30296 0.38706 0.85583 0.0
O37 O 0.33098 0.42042 0.85322 0.0
O38 O 0.35155 0.43123 0.82975 0.0
Mg39 Mg 0.61255 0.76469 0.08398 0.0
C40 C 0.62495 0.78167 0.10838 0.0
O41 O 0.58383 0.7975 0.10624 0.0
C42 C 0.63278 0.75947 0.05983 0.0
O43 O 0.58847 0.76669 0.0604 0.0
C44 C 0.59744 0.8648 0.08493 0.0
O45 O 0.64073 0.86116 0.0878 0.0
O46 O 0.57517 0.82872 0.0826 0.0
O47 O 0.64818 0.76526 0.10022 0.0
O48 O 0.56876 0.70447 0.0839 0.0
C49 C 0.58461 0.66919 0.08876 0.0
O50 O 0.62463 0.6719 0.09379 0.0
O51 O 0.65543 0.75798 0.06902 0.0
Mg52 Mg 0.25463 0.40818 0.96247 0.0
C53 C 0.34914 0.43767 0.9558 0.0
O54 O 0.34539 0.39937 0.95012 0.0
C55 C 0.16233 0.43983 0.97149 0.0
O56 O 0.17096 0.40839 0.97909 0.0
C57 C 0.28904 0.38068 0.98513 0.0
O58 O 0.31247 0.41787 0.98301 0.0
O59 O 0.26136 0.36597 0.97764 0.0
O60 O 0.31517 0.45154 0.96159 0.0
O61 O 0.25225 0.37252 0.94624 0.0
C62 C 0.23384 0.39538 0.9383 0.0
O63 O 0.2154 0.43487 0.94082 0.0
O64 O 0.19194 0.44796 0.96385 0.0
Mg65 Mg 0.61448 0.7441 0.21413 0.0
C66 C 0.6726 0.75752 0.192 0.0
O67 O 0.70161 0.7809 0.19821 0.0
C68 C 0.67376 0.72577 0.23481 0.0
O69 O 0.65133 0.687 0.2346 0.0
C70 C 0.59631 0.64471 0.21346 0.0
O71 O 0.63619 0.64837 0.2084 0.0
O72 O 0.5774 0.6807 0.21723 0.0
O73 O 0.63765 0.73961 0.19662 0.0
O74 O 0.57162 0.80484 0.2152 0.0
C75 C 0.59026 0.84138 0.21168 0.0
O76 O 0.63222 0.83946 0.20773 0.0
O77 O 0.66747 0.75427 0.22686 0.0
Mg78 Mg 0.26157 0.1173 0.46321 0.0
C79 C 0.16576 0.09099 0.45889 0.0
O80 O 0.16904 0.13188 0.45447 0.0
C81 C 0.34476 0.05661 0.45808 0.0
O82 O 0.32151 0.04724 0.44884 0.0
C83 C 0.25058 0.13921 0.48704 0.0
O84 O 0.25662 0.09491 0.48661 0.0
O85 O 0.25203 0.16152 0.47782 0.0
O86 O 0.20125 0.07333 0.46334 0.0
O87 O 0.26063 0.15012 0.44665 0.0
C88 C 0.29642 0.15799 0.44084 0.0
O89 O 0.3367 0.15156 0.4455 0.0
O90 O 0.32702 0.08265 0.46548 0.0
Mg91 Mg 0.91775 0.74984 0.71138 0.0
C92 C 0.85324 0.7538 0.69003 0.0
O93 O 0.81832 0.75487 0.69703 0.0
C94 C 0.85701 0.772 0.73155 0.0
O95 O 0.87561 0.81237 0.7302 0.0
C96 C 0.97148 0.83577 0.70649 0.0
O97 O 0.96783 0.81947 0.69616 0.0
O98 O 0.95533 0.81274 0.71469 0.0
O99 O 0.8937 0.7522 0.69395 0.0
O100 O 0.95927 0.68835 0.71222 0.0
C101 C 0.93923 0.65288 0.70848 0.0
O102 O 0.89734 0.65689 0.70456 0.0
O103 O 0.86583 0.74081 0.72439 0.0
Mg104 Mg 0.78446 0.61346 0.82966 0.0
C105 C 0.88381 0.59684 0.82922 0.0
O106 O 0.88006 0.64126 0.83018 0.0
C107 C 0.69547 0.56638 0.83589 0.0
O108 O 0.71069 0.57631 0.84607 0.0
C109 C 0.7586 0.66879 0.80875 0.0
O110 O 0.71862 0.64953 0.81047 0.0
O111 O 0.79067 0.66208 0.81585 0.0
O112 O 0.84729 0.57322 0.82858 0.0
O113 O 0.78257 0.64434 0.84655 0.0
C114 C 0.80536 0.62442 0.85428 0.0
O115 O 0.82983 0.58859 0.85156 0.0
O116 O 0.72049 0.5756 0.82737 0.0
Mg117 Mg 0.40521 0.26419 0.08378 0.0
C118 C 0.39576 0.27446 0.10835 0.0
O119 O 0.43863 0.28492 0.10621 0.0
C120 C 0.3346 0.29321 0.06601 0.0
O121 O 0.32711 0.32642 0.07323 0.0
C122 C 0.43882 0.17004 0.08931 0.0
O123 O 0.40404 0.17348 0.0963 0.0
O124 O 0.44877 0.20384 0.08303 0.0
O125 O 0.36997 0.26346 0.1001 0.0
O126 O 0.44367 0.3281 0.08298 0.0
C127 C 0.42524 0.3633 0.08733 0.0
O128 O 0.38483 0.35932 0.0921 0.0
O129 O 0.36251 0.26186 0.06868 0.0
Mg130 Mg 0.76281 0.90087 0.331 0.0
C131 C 0.66743 0.92931 0.33483 0.0
O132 O 0.66969 0.88834 0.33924 0.0
C133 C 0.84626 0.95875 0.32263 0.0
O134 O 0.81955 0.97098 0.31422 0.0
C135 C 0.78442 0.84363 0.30986 0.0
O136 O 0.82655 0.85718 0.31179 0.0
O137 O 0.75296 0.85483 0.31676 0.0
O138 O 0.70354 0.94636 0.3305 0.0
O139 O 0.75842 0.8678 0.34748 0.0
C140 C 0.79372 0.86008 0.35347 0.0
O141 O 0.83434 0.86736 0.34906 0.0
O142 O 0.8306 0.93259 0.33029 0.0
Mg143 Mg 0.09311 0.25988 0.5838 0.0
C144 C 0.16071 0.24927 0.60446 0.0
O145 O 0.19207 0.23536 0.59728 0.0
C146 C 0.11856 0.25398 0.5601 0.0
O147 O 0.07361 0.25487 0.56031 0.0
C148 C 0.0661 0.35519 0.57702 0.0
O149 O 0.10587 0.35211 0.57189 0.0
O150 O 0.05097 0.32092 0.58245 0.0
O151 O 0.12157 0.26107 0.60081 0.0
O152 O 0.05389 0.1968 0.5827 0.0
C153 C 0.07665 0.16137 0.58008 0.0
O154 O 0.12079 0.16546 0.57824 0.0
O155 O 0.13996 0.2573 0.56945 0.0
Mg156 Mg 0.76211 0.90625 0.46186 0.0
C157 C 0.85696 0.93505 0.45844 0.0
O158 O 0.8553 0.893 0.45465 0.0
C159 C 0.68034 0.97296 0.46025 0.0
O160 O 0.70923 0.9984 0.45455 0.0
C161 C 0.74613 0.84369 0.48229 0.0
O162 O 0.70272 0.85053 0.47997 0.0
O163 O 0.77653 0.8601 0.47576 0.0
O164 O 0.82032 0.95297 0.46222 0.0
O165 O 0.76308 0.87518 0.44506 0.0
C166 C 0.76722 0.90401 0.43708 0.0
O167 O 0.77012 0.94735 0.43975 0.0
O168 O 0.69413 0.9355 0.46442 0.0
Mg169 Mg 0.12317 0.2499 0.71114 0.0
C170 C 0.16221 0.21621 0.68873 0.0
O171 O 0.14431 0.17789 0.69235 0.0
C172 C 0.17702 0.29097 0.73047 0.0
O173 O 0.16832 0.32808 0.72467 0.0
C174 C 0.10482 0.15163 0.71558 0.0
O175 O 0.14743 0.15616 0.71896 0.0
O176 O 0.08388 0.18664 0.71192 0.0
O177 O 0.16117 0.25094 0.69518 0.0
O178 O 0.08044 0.31099 0.71142 0.0
C179 C 0.09246 0.34449 0.70526 0.0
O180 O 0.12832 0.33997 0.69865 0.0
O181 O 0.16487 0.25274 0.7264 0.0
Mg182 Mg 0.75606 0.61233 0.96201 0.0
C183 C 0.65769 0.59289 0.95867 0.0
O184 O 0.66161 0.63534 0.95531 0.0
C185 C 0.85285 0.59258 0.96799 0.0
O186 O 0.84946 0.63609 0.97044 0.0
C187 C 0.74593 0.63521 0.98573 0.0
O188 O 0.74785 0.59054 0.98525 0.0
O189 O 0.74979 0.65747 0.97654 0.0
O190 O 0.6933 0.57225 0.96213 0.0
O191 O 0.76089 0.64342 0.94527 0.0
C192 C 0.74949 0.61621 0.93735 0.0
O193 O 0.73621 0.57492 0.94009 0.0
O194 O 0.81764 0.57179 0.9643 0.0
Mg195 Mg 0.40555 0.2432 0.21396 0.0
C196 C 0.34637 0.25881 0.19198 0.0
O197 O 0.31885 0.28388 0.19818 0.0
C198 C 0.34726 0.26789 0.23441 0.0
O199 O 0.36872 0.30693 0.23325 0.0
C200 C 0.43479 0.34058 0.21024 0.0
O201 O 0.40234 0.33642 0.20262 0.0
O202 O 0.44463 0.30631 0.21637 0.0
O203 O 0.3809 0.23995 0.19653 0.0
O204 O 0.44722 0.18203 0.21571 0.0
C205 C 0.43053 0.14648 0.2111 0.0
O206 O 0.3912 0.14972 0.20577 0.0
O207 O 0.35366 0.23678 0.22707 0.0
C208 C 0.91193 1.00576 0.31533 0.0
C209 C 0.89512 0.97307 0.32294 0.0
C210 C 0.9583 0.01878 0.31544 0.0
C211 C 0.98881 0.99831 0.32324 0.0
C212 C 0.97206 0.96523 0.33091 0.0
C213 C 0.9255 0.95322 0.33071 0.0
C214 C 0.97464 0.05455 0.3072 0.0
C215 C 1.00342 0.94227 0.33931 0.0
C216 C 0.11676 1.0018 0.31687 0.0
C217 C 0.13183 0.037 0.32401 0.0
C218 C 0.07042 0.98875 0.31656 0.0
C219 C 0.03817 0.01172 0.32346 0.0
C220 C 0.05315 0.04734 0.33066 0.0
C221 C 0.09972 0.05935 0.33089 0.0
C222 C 0.05596 0.95027 0.30886 0.0
C223 C 0.01991 0.07298 0.33809 0.0
H224 H 0.8888 0.02135 0.30931 0.0
H225 H 0.91301 0.92776 0.33659 0.0
H226 H 0.98984 0.08362 0.31189 0.0
H227 H 1.00182 0.04028 0.30169 0.0
H228 H 0.94658 0.06754 0.30175 0.0
H229 H 0.98521 0.91683 0.34461 0.0
H230 H 0.03167 0.9249 0.33476 0.0
H231 H 0.01919 0.96808 0.34496 0.0
H232 H 0.14124 0.98426 0.31153 0.0
H233 H 0.11085 0.08676 0.3364 0.0
H234 H 0.03014 0.96255 0.30269 0.0
H235 H 0.03962 0.92285 0.3139 0.0
H236 H 0.08523 0.93556 0.3041 0.0
H237 H 0.99281 0.08864 0.3328 0.0
H238 H 0.03689 0.1002 0.3431 0.0
H239 H 1.00282 0.04914 0.34402 0.0
C240 C 0.91094 0.57949 0.57252 0.0
C241 C 0.93022 0.61573 0.57864 0.0
C242 C 0.93241 0.53681 0.57205 0.0
C243 C 0.97384 0.52987 0.57801 0.0
C244 C 0.99341 0.56626 0.58425 0.0
C245 C 0.97157 0.60888 0.58441 0.0
C246 C 0.91084 0.49918 0.56514 0.0
C247 C 0.03724 0.56004 0.59083 0.0
C248 C 1.00714 0.40794 0.58513 0.0
C249 C 0.04096 0.39901 0.57701 0.0
C250 C 0.98521 0.45047 0.58561 0.0
C251 C 0.99681 0.48459 0.57763 0.0
C252 C 0.03025 0.47541 0.56927 0.0
C253 C 0.05218 0.43291 0.56912 0.0
C254 C 0.95014 0.45913 0.59474 0.0
C255 C 0.04298 0.51054 0.56048 0.0
H256 H 0.87913 0.58458 0.56797 0.0
H257 H 0.98652 0.63665 0.58921 0.0
H258 H 0.93531 0.48703 0.55862 0.0
H259 H 0.90266 0.46977 0.57066 0.0
H260 H 0.87895 0.51032 0.56084 0.0
H261 H 0.04759 0.59145 0.59541 0.0
H262 H 0.03311 0.53211 0.59706 0.0
H263 H 0.06531 0.55009 0.58501 0.0
H264 H 0.99853 0.38203 0.59131 0.0
H265 H 0.07813 0.42619 0.56277 0.0
H266 H 0.91674 0.46793 0.59087 0.0
H267 H 0.96086 0.48863 0.6 0.0
H268 H 0.94526 0.42921 0.60036 0.0
H269 H 0.01208 0.52117 0.55572 0.0
H270 H 0.06878 0.49764 0.55437 0.0
H271 H 0.05697 0.54134 0.56469 0.0
C272 C 0.62791 0.54626 0.82364 0.0
C273 C 0.64802 0.54901 0.83442 0.0
C274 C 0.58182 0.53331 0.82232 0.0
C275 C 0.55523 0.52266 0.832 0.0
C276 C 0.57565 0.5244 0.84287 0.0
C277 C 0.62166 0.53759 0.84395 0.0
C278 C 0.56132 0.53189 0.81059 0.0
C279 C 0.54868 0.51301 0.85341 0.0
C280 C 0.42523 0.53187 0.83122 0.0
C281 C 0.412 0.48611 0.83022 0.0
C282 C 0.47171 0.54434 0.83153 0.0
C283 C 0.50587 0.51026 0.83085 0.0
C284 C 0.49275 0.46413 0.8296 0.0
C285 C 0.44608 0.45263 0.82928 0.0
C286 C 0.48425 0.59395 0.83283 0.0
C287 C 0.52803 0.42673 0.82886 0.0
H288 H 0.64788 0.55518 0.81624 0.0
H289 H 0.63681 0.53949 0.85231 0.0
H290 H 0.54672 0.49769 0.80888 0.0
H291 H 0.53286 0.55673 0.81001 0.0
H292 H 0.58684 0.5399 0.80391 0.0
H293 H 0.56988 0.51485 0.8612 0.0
H294 H 0.51957 0.53694 0.85431 0.0
H295 H 0.53411 0.47822 0.8527 0.0
H296 H 0.39926 0.55802 0.83192 0.0
H297 H 0.43634 0.41716 0.82849 0.0
H298 H 0.50783 0.60442 0.82594 0.0
H299 H 0.50252 0.59921 0.84096 0.0
H300 H 0.45377 0.61649 0.83267 0.0
H301 H 0.55254 0.43391 0.82192 0.0
H302 H 0.51232 0.3928 0.82737 0.0
H303 H 0.54796 0.42538 0.83685 0.0
C304 C 0.49238 0.11713 0.07912 0.0
C305 C 0.46418 0.12645 0.08846 0.0
C306 C 0.51444 0.07481 0.07802 0.0
C307 C 0.50871 0.04132 0.08653 0.0
C308 C 0.48089 0.05087 0.09605 0.0
C309 C 0.45876 0.09313 0.09686 0.0
C310 C 0.54348 0.06574 0.06768 0.0
C311 C 0.47445 0.01642 0.1054 0.0
C312 C 0.53115 0.91598 0.08035 0.0
C313 C 0.57501 0.91011 0.08494 0.0
C314 C 0.50959 0.95876 0.08055 0.0
C315 C 0.53217 0.9964 0.0856 0.0
C316 C 0.57655 0.9907 0.09017 0.0
C317 C 0.5975 0.94776 0.08972 0.0
C318 C 0.46244 0.96359 0.07548 0.0
C319 C 0.60158 0.02976 0.09575 0.0
H320 H 0.4965 0.14257 0.07256 0.0
H321 H 0.43721 0.1001 0.10412 0.0
H322 H 0.57908 0.05789 0.07027 0.0
H323 H 0.53019 0.03552 0.06309 0.0
H324 H 0.54413 0.09513 0.06178 0.0
H325 H 0.45227 0.02939 0.11233 0.0
H326 H 0.4589 0.98488 0.10193 0.0
H327 H 0.50813 1.007 0.10904 0.0
H328 H 0.51364 0.88714 0.07659 0.0
H329 H 0.63134 0.94357 0.09332 0.0
H330 H 0.46233 0.99125 0.06909 0.0
H331 H 0.43762 0.97315 0.08218 0.0
H332 H 0.45049 0.93166 0.07138 0.0
H333 H 0.6048 0.05866 0.08976 0.0
H334 H 0.63633 0.01998 0.09866 0.0
H335 H 0.58175 0.0421 0.10315 0.0
C336 C 0.10439 0.48995 0.96207 0.0
C337 C 0.11741 0.4633 0.97138 0.0
C338 C 0.06108 0.51055 0.96161 0.0
C339 C 0.03016 0.50474 0.97073 0.0
C340 C 0.04332 0.4784 0.98022 0.0
C341 C 0.08668 0.45785 0.98041 0.0
C342 C 0.04826 0.5382 0.95132 0.0
C343 C 0.01152 0.47182 0.99017 0.0
C344 C 0.93513 0.59206 0.97383 0.0
C345 C 0.89758 0.56912 0.96908 0.0
C346 C 0.97826 0.5713 0.97455 0.0
C347 C 0.98416 0.52653 0.97037 0.0
C348 C 0.94632 0.50294 0.96567 0.0
C349 C 0.90344 0.52447 0.96511 0.0
C350 C 0.01764 0.5975 0.97969 0.0
C351 C 0.9513 0.4552 0.96109 0.0
H352 H 0.12778 0.49418 0.95502 0.0
H353 H 0.09647 0.43742 0.98765 0.0
H354 H 0.01718 0.52365 0.9473 0.0
H355 H 0.03996 0.5736 0.95387 0.0
H356 H 0.07609 0.53924 0.94492 0.0
H357 H 0.02711 0.45079 0.99696 0.0
H358 H 1.00196 0.50534 0.99379 0.0
H359 H 0.97947 0.45509 0.98731 0.0
H360 H 0.93096 0.62651 0.97696 0.0
H361 H 0.87467 0.50651 0.96141 0.0
H362 H 0.04504 0.60215 0.97329 0.0
H363 H 0.0326 0.57803 0.98683 0.0
H364 H 1.00709 0.63154 0.98285 0.0
H365 H 0.97661 0.4549 0.95409 0.0
H366 H 0.91842 0.44124 0.95788 0.0
H367 H 0.96446 0.43228 0.9678 0.0
C368 C 0.48873 0.39277 0.22068 0.0
C369 C 0.45885 0.38484 0.21158 0.0
C370 C 0.51113 0.43495 0.22194 0.0
C371 C 0.50382 0.4698 0.21385 0.0
C372 C 0.47359 0.46196 0.20468 0.0
C373 C 0.45141 0.41976 0.20369 0.0
C374 C 0.54285 0.44214 0.23187 0.0
C375 C 0.46514 0.49796 0.1958 0.0
C376 C 0.5317 0.59427 0.21992 0.0
C377 C 0.57358 0.59955 0.21426 0.0
C378 C 0.50928 0.55184 0.2202 0.0
C379 C 0.52903 0.51391 0.21462 0.0
C380 C 0.57175 0.51886 0.20911 0.0
C381 C 0.59351 0.56147 0.20903 0.0
C382 C 0.46394 0.54786 0.22624 0.0
C383 C 0.59388 0.47943 0.20299 0.0
H384 H 0.49447 0.36611 0.22685 0.0
H385 H 0.42847 0.41403 0.19662 0.0
H386 H 0.57813 0.44849 0.22878 0.0
H387 H 0.53221 0.47266 0.23674 0.0
H388 H 0.54346 0.41239 0.23766 0.0
H389 H 0.43998 0.4868 0.18931 0.0
H390 H 0.45231 0.52956 0.19985 0.0
H391 H 0.49772 0.50661 0.19148 0.0
H392 H 0.51614 0.62341 0.22403 0.0
H393 H 0.62588 0.56506 0.20465 0.0
H394 H 0.46482 0.51921 0.23235 0.0
H395 H 0.43653 0.54029 0.22001 0.0
H396 H 0.4548 0.57953 0.23086 0.0
H397 H 0.59745 0.44992 0.20877 0.0
H398 H 0.6282 0.48828 0.1996 0.0
H399 H 0.57182 0.46846 0.19584 0.0
C400 C 0.41949 0.05531 0.46858 0.0
C401 C 0.39295 0.04116 0.4593 0.0
C402 C 0.46607 0.04388 0.4694 0.0
C403 C 0.48672 0.01753 0.46075 0.0
C404 C 0.45987 1.00217 0.45151 0.0
C405 C 0.41339 0.01418 0.45089 0.0
C406 C 0.49346 0.06092 0.47939 0.0
C407 C 0.48048 0.97379 0.44214 0.0
C408 C 0.61531 0.02595 0.45596 0.0
C409 C 0.63121 0.98578 0.46102 0.0
C410 C 0.56852 0.037 0.45597 0.0
C411 C 0.5367 1.00718 0.46116 0.0
C412 C 0.5526 0.96705 0.46649 0.0
C413 C 0.59959 0.95686 0.46637 0.0
C414 C 0.55303 0.08023 0.45023 0.0
C415 C 0.51984 0.9344 0.47213 0.0
H416 H 0.40411 0.07616 0.47513 0.0
H417 H 0.39326 1.003 0.4437 0.0
H418 H 0.51034 0.03201 0.48374 0.0
H419 H 0.52089 0.08413 0.4764 0.0
H420 H 0.47196 0.07945 0.48563 0.0
H421 H 0.45463 0.96302 0.43578 0.0
H422 H 0.50758 0.99354 0.43776 0.0
H423 H 0.49685 0.94296 0.44573 0.0
H424 H 0.63936 0.04856 0.45181 0.0
H425 H 0.61143 0.92574 0.47031 0.0
H426 H 0.53343 0.10161 0.45627 0.0
H427 H 0.5298 0.07183 0.44309 0.0
H428 H 0.58216 0.10052 0.4469 0.0
H429 H 0.49928 0.9525 0.47862 0.0
H430 H 0.53777 0.9055 0.47625 0.0
H431 H 0.49558 0.92057 0.46576 0.0
C432 C 0.03774 0.10001 0.71183 0.0
C433 C 0.08344 0.10574 0.71518 0.0
C434 C 0.01827 0.05633 0.7109 0.0
C435 C 0.04524 0.01745 0.71328 0.0
C436 C 0.09112 0.02309 0.71685 0.0
C437 C 0.10956 0.06707 0.7178 0.0
C438 C 0.96909 0.05174 0.70716 0.0
C439 C 0.12115 0.98257 0.7194 0.0
C440 C 0.98788 0.90317 0.71898 0.0
C441 C 0.99143 0.88169 0.70839 0.0
C442 C 1.00483 0.9475 0.72068 0.0
C443 C 0.02621 0.97077 0.71161 0.0
C444 C 0.03025 0.94909 0.70094 0.0
C445 C 0.0127 0.90496 0.69945 0.0
C446 C 0.99965 0.96954 0.73217 0.0
C447 C 0.05321 0.97251 0.69107 0.0
H448 H 0.01725 0.12965 0.70982 0.0
H449 H 0.14491 0.07103 0.72039 0.0
H450 H 0.9675 0.03356 0.69893 0.0
H451 H 0.94959 0.03114 0.71339 0.0
H452 H 0.95202 0.08528 0.70621 0.0
H453 H 0.15566 0.99277 0.72243 0.0
H454 H 0.1049 0.96082 0.72593 0.0
H455 H 0.12519 0.96147 0.71166 0.0
H456 H 0.97126 0.8856 0.72593 0.0
H457 H 0.01566 0.88868 0.69124 0.0
H458 H 0.98026 1.00181 0.73136 0.0
H459 H 0.0338 0.97824 0.73566 0.0
H460 H 0.98165 0.94716 0.7383 0.0
H461 H 0.03521 1.00475 0.68909 0.0
H462 H 0.05368 0.95097 0.68333 0.0
H463 H 0.08897 0.98142 0.69332 0.0
C464 C 0.61442 0.98945 0.3272 0.0
C465 C 0.62293 0.95364 0.33475 0.0
C466 C 0.57119 0.01055 0.32678 0.0
C467 C 0.53598 0.99603 0.33422 0.0
C468 C 0.54472 0.96034 0.34195 0.0
C469 C 0.58785 0.93941 0.34206 0.0
C470 C 0.56306 0.04817 0.31833 0.0
C471 C 0.50857 0.9444 0.3502 0.0
C472 C 0.4399 0.07822 0.34143 0.0
C473 C 0.40337 0.06116 0.33497 0.0
C474 C 0.48312 0.0575 0.34122 0.0
C475 C 0.49043 0.01902 0.33423 0.0
C476 C 0.45378 1.00168 0.32762 0.0
C477 C 0.41055 0.02273 0.32814 0.0
C478 C 0.52088 0.07658 0.34857 0.0
C479 C 0.46033 0.96099 0.31998 0.0
H480 H 0.64123 1.00037 0.32147 0.0
H481 H 0.59417 0.91192 0.34797 0.0
H482 H 0.53363 0.03933 0.3128 0.0
H483 H 0.55416 0.08013 0.32282 0.0
H484 H 0.59345 0.05461 0.31291 0.0
H485 H 0.52088 0.91634 0.3557 0.0
H486 H 0.49765 0.97316 0.35566 0.0
H487 H 0.47791 0.93243 0.34552 0.0
H488 H 0.43466 0.10778 0.34678 0.0
H489 H 0.3826 0.00956 0.32307 0.0
H490 H 0.55056 0.08644 0.34325 0.0
H491 H 0.5329 0.05014 0.35457 0.0
H492 H 0.50968 0.1068 0.3535 0.0
H493 H 0.48873 0.96754 0.31396 0.0
H494 H 0.42897 0.95267 0.31508 0.0
H495 H 0.47001 0.93084 0.32509 0.0
C496 C 0.9781 0.9072 0.58487 0.0
C497 C 0.95102 0.8958 0.57547 0.0
C498 C 0.99884 0.95029 0.58575 0.0
C499 C 0.99277 0.98256 0.57697 0.0
C500 C 0.96632 0.97085 0.56735 0.0
C501 C 0.94563 0.92776 0.56675 0.0
C502 C 0.02663 0.96157 0.59617 0.0
C503 C 0.95955 1.004 0.55773 0.0
C504 C 1.01006 0.1087 0.58325 0.0
C505 C 0.05456 0.11598 0.5792 0.0
C506 C 0.98966 0.06535 0.58268 0.0
C507 C 0.01414 0.02858 0.57781 0.0
C508 C 0.05888 0.03588 0.57361 0.0
C509 C 0.0786 0.07937 0.57441 0.0
C510 C 0.94198 0.05883 0.58732 0.0
C511 C 0.08591 0.99778 0.56823 0.0
H512 H 0.98227 0.88283 0.59168 0.0
H513 H 0.92492 0.91922 0.55943 0.0
H514 H 0.06201 0.97101 0.5937 0.0
H515 H 0.01155 0.9914 0.60056 0.0
H516 H 0.02824 0.93269 0.60222 0.0
H517 H 0.93892 0.98926 0.55073 0.0
H518 H 0.9421 0.03505 0.56088 0.0
H519 H 0.9932 0.01475 0.5543 0.0
H520 H 0.99133 0.13674 0.587 0.0
H521 H 0.11293 0.08469 0.5712 0.0
H522 H 0.94223 0.0322 0.59398 0.0
H523 H 0.91876 0.04691 0.5805 0.0
H524 H 0.92781 0.09067 0.59099 0.0
H525 H 0.09046 0.9696 0.57437 0.0
H526 H 0.1202 0.00914 0.5653 0.0
H527 H 0.0669 0.9838 0.56087 0.0
C528 C 0.11891 0.47577 0.84502 0.0
C529 C 0.15042 0.47345 0.83607 0.0
C530 C 0.07578 0.49592 0.84359 0.0
C531 C 0.06346 0.51386 0.83289 0.0
C532 C 0.09521 0.512 0.82383 0.0
C533 C 0.13843 0.49206 0.82554 0.0
C534 C 0.04327 0.4978 0.85352 0.0
C535 C 0.08326 0.53047 0.81228 0.0
C536 C 0.93566 0.52877 0.82749 0.0
C537 C 0.92978 0.57535 0.82965 0.0
C538 C 0.97919 0.50847 0.82821 0.0
C539 C 0.0176 0.53527 0.83131 0.0
C540 C 0.01186 0.58236 0.8334 0.0
C541 C 0.96818 0.60181 0.83248 0.0
C542 C 0.98399 0.45823 0.82581 0.0
C543 C 0.05171 0.61207 0.83686 0.0
H544 H 0.12788 0.46157 0.8532 0.0
H545 H 0.16238 0.49003 0.81855 0.0
H546 H 0.03363 0.53361 0.8553 0.0
H547 H 0.01136 0.47907 0.85146 0.0
H548 H 0.05829 0.48288 0.86132 0.0
H549 H 0.11162 0.52625 0.8061 0.0
H550 H 0.05249 0.5128 0.80895 0.0
H551 H 0.07477 0.56718 0.81291 0.0
H552 H 0.90625 0.50812 0.82526 0.0
H553 H 0.96408 0.63782 0.83421 0.0
H554 H 0.99547 0.44032 0.83357 0.0
H555 H 1.01046 0.45257 0.81922 0.0
H556 H 0.95137 0.44265 0.82291 0.0
H557 H 0.06605 0.59982 0.845 0.0
H558 H 0.04178 0.64834 0.83788 0.0
H559 H 0.07937 0.6099 0.83045 0.0
C560 C 0.52352 0.6178 0.08089 0.0
C561 C 0.55988 0.62506 0.08844 0.0
C562 C 0.50144 0.57528 0.08025 0.0
C563 C 0.51566 0.53938 0.08744 0.0
C564 C 0.55201 0.54671 0.09516 0.0
C565 C 0.5738 0.5893 0.09551 0.0
C566 C 0.46309 0.56865 0.07185 0.0
C567 C 0.56778 0.50961 0.10309 0.0
C568 C 0.43209 0.44376 0.09403 0.0
C569 C 0.44857 0.40821 0.08721 0.0
C570 C 0.45343 0.48659 0.09413 0.0
C571 C 0.49193 0.4944 0.08713 0.0
C572 C 0.50849 0.45883 0.08012 0.0
C573 C 0.48681 0.41604 0.0803 0.0
C574 C 0.43507 0.52332 0.10185 0.0
C575 C 0.5492 0.46598 0.07245 0.0
H576 H 0.51277 0.64515 0.07535 0.0
H577 H 0.60175 0.5946 0.1014 0.0
H578 H 0.47128 0.53998 0.06607 0.0
H579 H 0.43108 0.55959 0.07636 0.0
H580 H 0.45676 0.59961 0.06669 0.0
H581 H 0.59641 0.52084 0.10862 0.0
H582 H 0.53894 0.49847 0.10853 0.0
H583 H 0.57913 0.47951 0.09815 0.0
H584 H 0.40268 0.43801 0.09944 0.0
H585 H 0.49958 0.38884 0.07496 0.0
H586 H 0.42563 0.55379 0.09683 0.0
H587 H 0.46196 0.53395 0.10794 0.0
H588 H 0.40458 0.51192 0.10669 0.0
H589 H 0.54289 0.49524 0.06673 0.0
H590 H 0.55683 0.43545 0.06722 0.0
H591 H 0.57986 0.47435 0.07759 0.0
C592 C 0.4027 0.49472 0.96445 0.0
C593 C 0.39345 0.46222 0.95604 0.0
C594 C 0.4457 0.51604 0.96512 0.0
C595 C 0.48001 0.50505 0.9571 0.0
C596 C 0.47057 0.47284 0.94848 0.0
C597 C 0.42754 0.45162 0.9481 0.0
C598 C 0.45462 0.54992 0.97449 0.0
C599 C 0.50596 0.46071 0.93966 0.0
C600 C 0.57625 0.5899 0.9523 0.0
C601 C 0.61251 0.56997 0.95829 0.0
C602 C 0.53305 0.56911 0.95183 0.0
C603 C 0.52565 0.5276 0.95762 0.0
C604 C 0.56202 0.50738 0.96374 0.0
C605 C 0.60513 0.52865 0.96394 0.0
C606 C 0.49539 0.59144 0.94508 0.0
C607 C 0.55531 0.46334 0.97011 0.0
H608 H 0.37665 0.50282 0.97066 0.0
H609 H 0.4206 0.42666 0.94155 0.0
H610 H 0.48409 0.53853 0.97969 0.0
H611 H 0.46382 0.58347 0.97084 0.0
H612 H 0.42451 0.55439 0.98013 0.0
H613 H 0.49296 0.43554 0.93341 0.0
H614 H 0.51691 0.49177 0.93506 0.0
H615 H 0.53676 0.44638 0.94382 0.0
H616 H 0.5817 0.62172 0.94786 0.0
H617 H 0.63292 0.51318 0.96864 0.0
H618 H 0.46582 0.59901 0.95066 0.0
H619 H 0.48313 0.56787 0.93838 0.0
H620 H 0.50677 0.62361 0.94102 0.0
H621 H 0.52715 0.46712 0.97634 0.0
H622 H 0.58672 0.45257 0.97467 0.0
H623 H 0.54522 0.4359 0.96415 0.0
C624 C 0.58294 0.92246 0.20566 0.0
C625 C 0.56601 0.8857 0.21198 0.0
C626 C 0.56119 0.96499 0.20583 0.0
C627 C 0.52181 0.97129 0.21262 0.0
C628 C 0.50473 0.93447 0.21912 0.0
C629 C 0.52682 0.89195 0.21866 0.0
C630 C 0.58005 1.00305 0.1986 0.0
C631 C 0.46314 0.94002 0.22657 0.0
C632 C 0.48941 0.09397 0.21945 0.0
C633 C 0.45423 0.10191 0.21162 0.0
C634 C 0.51105 0.05126 0.22006 0.0
C635 C 0.4977 0.016 0.21254 0.0
C636 C 0.46235 0.02398 0.2046 0.0
C637 C 0.44087 0.06664 0.2043 0.0
C638 C 0.54825 0.04388 0.22873 0.0
C639 C 0.44763 0.98764 0.19629 0.0
H640 H 0.61309 0.91791 0.20044 0.0
H641 H 0.51374 0.86379 0.22362 0.0
H642 H 0.55372 0.01437 0.19245 0.0
H643 H 0.58877 0.0328 0.20398 0.0
H644 H 0.61111 0.99268 0.19384 0.0
H645 H 0.45522 0.90865 0.23144 0.0
H646 H 0.46856 0.96848 0.23261 0.0
H647 H 0.43297 0.94883 0.22131 0.0
H648 H 0.49969 0.12095 0.22518 0.0
H649 H 0.41385 0.07251 0.19819 0.0
H650 H 0.58104 0.03623 0.22441 0.0
H651 H 0.53975 0.01409 0.2341 0.0
H652 H 0.55328 0.07405 0.23428 0.0
H653 H 0.47705 0.97763 0.1909 0.0
H654 H 0.41932 0.99916 0.19072 0.0
H655 H 0.43628 0.95677 0.20091 0.0
C656 C 0.90852 0.99765 0.46547 0.0
C657 C 0.90132 0.95965 0.4585 0.0
C658 C 0.9516 0.01911 0.46595 0.0
C659 C 0.98799 1.00262 0.45915 0.0
C660 C 0.98057 0.96473 0.45197 0.0
C661 C 0.93753 0.94357 0.4518 0.0
C662 C 0.95832 0.05915 0.47381 0.0
C663 C 0.01809 0.94659 0.44442 0.0
C664 C 0.08581 0.08258 0.45174 0.0
C665 C 0.12086 0.06735 0.45891 0.0
C666 C 0.04248 0.06195 0.45177 0.0
C667 C 0.03359 0.02553 0.45929 0.0
C668 C 0.06873 0.01009 0.46661 0.0
C669 C 0.1121 0.03094 0.46627 0.0
C670 C 1.00633 0.0789 0.44367 0.0
C671 C 0.06042 0.97164 0.47483 0.0
H672 H 0.8808 0.01003 0.47073 0.0
H673 H 0.93219 0.91436 0.44633 0.0
H674 H 0.98655 0.05193 0.47982 0.0
H675 H 0.96833 0.08967 0.46887 0.0
H676 H 0.92694 0.06721 0.47872 0.0
H677 H 1.00664 0.91709 0.43924 0.0
H678 H 0.03019 0.97379 0.43863 0.0
H679 H 0.04778 0.9359 0.44962 0.0
H680 H 0.09232 0.11058 0.44598 0.0
H681 H 0.13889 0.01925 0.47191 0.0
H682 H 0.97572 0.09028 0.44844 0.0
H683 H 0.9953 0.05083 0.43799 0.0
H684 H 0.01868 0.10764 0.43838 0.0
H685 H 0.03095 0.97991 0.48039 0.0
H686 H 0.09074 0.96468 0.48023 0.0
H687 H 0.05152 0.94013 0.47013 0.0
C688 C 0.07831 0.42304 0.69795 0.0
C689 C 0.06866 0.38902 0.70593 0.0
C690 C 0.05762 0.46605 0.6986 0.0
C691 C 0.02677 0.4756 0.70753 0.0
C692 C 0.01688 0.44147 0.71564 0.0
C693 C 0.03775 0.39848 0.71472 0.0
C694 C 0.06866 0.50124 0.68969 0.0
C695 C 0.98438 0.45044 0.72533 0.0
C696 C 1.00374 0.60072 0.71398 0.0
C697 C 0.9619 0.60767 0.70843 0.0
C698 C 0.02488 0.55769 0.71395 0.0
C699 C 1.00391 0.52091 0.70813 0.0
C700 C 0.96168 0.52778 0.70254 0.0
C701 C 0.94115 0.57092 0.7028 0.0
C702 C 0.06976 0.55161 0.72008 0.0
C703 C 0.9384 0.48967 0.69614 0.0
H704 H 0.10206 0.41605 0.69111 0.0
H705 H 0.03036 0.37252 0.72097 0.0
H706 H 0.03691 0.5116 0.68524 0.0
H707 H 0.08312 0.53218 0.69374 0.0
H708 H 0.0935 0.4885 0.68331 0.0
H709 H 0.98108 0.42071 0.73107 0.0
H710 H 0.99641 0.48015 0.73033 0.0
H711 H 0.95 0.45905 0.72198 0.0
H712 H 0.01989 0.62884 0.71839 0.0
H713 H 0.90887 0.57589 0.69846 0.0
H714 H 0.09683 0.54176 0.71397 0.0
H715 H 0.06682 0.52367 0.72636 0.0
H716 H 0.08077 0.58308 0.72455 0.0
H717 H 0.96102 0.47741 0.68924 0.0
H718 H 0.90529 0.5004 0.69239 0.0
H719 H 0.93206 0.46045 0.70187 0.0
C720 C 0.27155 0.09345 0.37757 0.0
C721 C 0.27048 0.12723 0.36918 0.0
C722 C 0.27598 0.10467 0.38905 0.0
C723 C 0.27937 0.15093 0.39232 0.0
C724 C 0.2782 0.18535 0.38393 0.0
C725 C 0.2738 0.17309 0.37244 0.0
C726 C 0.27712 0.06681 0.39771 0.0
C727 C 0.28163 0.23501 0.3871 0.0
C728 C 0.24928 0.16809 0.42328 0.0
C729 C 0.29249 0.1654 0.42843 0.0
C730 C 0.24465 0.16672 0.41144 0.0
C731 C 0.28413 0.16248 0.40457 0.0
C732 C 0.32797 0.16308 0.40968 0.0
C733 C 0.33163 0.1646 0.42155 0.0
C734 C 0.19728 0.16653 0.40634 0.0
C735 C 0.37096 0.15876 0.40268 0.0
H736 H 0.26905 0.05791 0.37517 0.0
H737 H 0.27303 0.1994 0.36601 0.0
H738 H 0.30957 0.0683 0.40257 0.0
H739 H 0.24868 0.07107 0.40384 0.0
H740 H 0.27417 0.03257 0.39377 0.0
H741 H 0.27994 0.25767 0.37959 0.0
H742 H 0.25351 0.24419 0.39298 0.0
H743 H 0.31428 0.24148 0.39162 0.0
H744 H 0.2188 0.16911 0.4285 0.0
H745 H 0.36519 0.16279 0.42542 0.0
H746 H 0.18918 0.13187 0.40317 0.0
H747 H 0.1955 0.19008 0.39902 0.0
H748 H 0.17069 0.17642 0.4126 0.0
H749 H 0.37348 0.12362 0.39928 0.0
H750 H 0.40224 0.16602 0.40772 0.0
H751 H 0.36993 0.18227 0.39534 0.0
C752 C 0.83508 0.77913 0.62254 0.0
C753 C 0.83594 0.73588 0.61746 0.0
C754 C 0.83179 0.784 0.63435 0.0
C755 C 0.82927 0.74472 0.64127 0.0
C756 C 0.82713 0.70115 0.63615 0.0
C757 C 0.83047 0.69726 0.62432 0.0
C758 C 0.83392 0.83109 0.63947 0.0
C759 C 0.82426 0.65839 0.64319 0.0
C760 C 0.88433 0.74984 0.67034 0.0
C761 C 0.84632 0.75296 0.67756 0.0
C762 C 0.87908 0.74762 0.65855 0.0
C763 C 0.83466 0.74871 0.65379 0.0
C764 C 0.79607 0.75252 0.66098 0.0
C765 C 0.80233 0.75452 0.6728 0.0
C766 C 0.92121 0.74352 0.6512 0.0
C767 C 0.74822 0.754 0.6562 0.0
H768 H 0.83901 0.80923 0.61732 0.0
H769 H 0.83071 0.6637 0.62049 0.0
H770 H 0.807 0.83532 0.646 0.0
H771 H 0.86746 0.83593 0.64371 0.0
H772 H 0.8298 0.85815 0.63298 0.0
H773 H 0.81755 0.62769 0.63794 0.0
H774 H 0.85699 0.6534 0.64779 0.0
H775 H 0.79683 0.66146 0.64964 0.0
H776 H 0.9185 0.74867 0.67389 0.0
H777 H 0.77276 0.75703 0.6783 0.0
H778 H 0.92244 0.77197 0.64504 0.0
H779 H 0.91981 0.71137 0.64627 0.0
H780 H 0.95334 0.74384 0.65623 0.0
H781 H 0.7452 0.78224 0.65002 0.0
H782 H 0.72191 0.75863 0.66289 0.0
H783 H 0.74084 0.72194 0.65157 0.0
C784 C 0.25991 0.34607 0.87124 0.0
C785 C 0.29557 0.3752 0.86791 0.0
C786 C 0.24891 0.34029 0.88276 0.0
C787 C 0.2739 0.36451 0.89111 0.0
C788 C 0.31162 0.39173 0.88782 0.0
C789 C 0.32206 0.39656 0.87629 0.0
C790 C 0.20899 0.3103 0.88593 0.0
C791 C 0.33922 0.41823 0.89641 0.0
C792 C 0.21763 0.4084 0.91783 0.0
C793 C 0.23851 0.38185 0.92624 0.0
C794 C 0.22692 0.40128 0.90632 0.0
C795 C 0.25765 0.36644 0.90307 0.0
C796 C 0.27644 0.33742 0.91144 0.0
C797 C 0.26679 0.34557 0.92295 0.0
C798 C 0.20607 0.43308 0.89771 0.0
C799 C 0.30868 0.29939 0.90829 0.0
H800 H 0.23941 0.32919 0.86483 0.0
H801 H 0.35 0.41876 0.87384 0.0
H802 H 0.21773 0.28862 0.89331 0.0
H803 H 0.17953 0.33187 0.88842 0.0
H804 H 0.19816 0.28809 0.87879 0.0
H805 H 0.36971 0.43477 0.89259 0.0
H806 H 0.31747 0.44505 0.90026 0.0
H807 H 0.35077 0.39556 0.90335 0.0
H808 H 0.19531 0.43619 0.92026 0.0
H809 H 0.2829 0.32472 0.92938 0.0
H810 H 0.18965 0.41342 0.89078 0.0
H811 H 0.23336 0.45429 0.89384 0.0
H812 H 0.18012 0.45607 0.90151 0.0
H813 H 0.29537 0.28005 0.90092 0.0
H814 H 0.3142 0.27547 0.91544 0.0
H815 H 0.34226 0.31394 0.90582 0.0
C816 C 0.67819 0.75225 0.12343 0.0
C817 C 0.64166 0.78038 0.12023 0.0
C818 C 0.69048 0.74746 0.1349 0.0
C819 C 0.66581 0.77159 0.14331 0.0
C820 C 0.6304 0.80165 0.14004 0.0
C821 C 0.61871 0.80555 0.12857 0.0
C822 C 0.72846 0.71512 0.13805 0.0
C823 C 0.60344 0.82836 0.14871 0.0
C824 C 0.64885 0.72712 0.17312 0.0
C825 C 0.6767 0.75654 0.17947 0.0
C826 C 0.64722 0.72983 0.16127 0.0
C827 C 0.6739 0.76296 0.15559 0.0
C828 C 0.7041 0.791 0.16189 0.0
C829 C 0.70525 0.78737 0.17377 0.0
C830 C 0.61484 0.69896 0.15488 0.0
C831 C 0.73317 0.82666 0.15616 0.0
H832 H 0.69608 0.73268 0.11702 0.0
H833 H 0.59077 0.82776 0.12617 0.0
H834 H 0.7528 0.73178 0.14396 0.0
H835 H 0.71384 0.68521 0.1425 0.0
H836 H 0.74759 0.7029 0.13051 0.0
H837 H 0.57926 0.8527 0.14473 0.0
H838 H 0.58358 0.80461 0.15412 0.0
H839 H 0.62692 0.84763 0.15434 0.0
H840 H 0.62708 0.70279 0.17744 0.0
H841 H 0.72694 0.81018 0.17861 0.0
H842 H 0.63267 0.68253 0.14767 0.0
H843 H 0.58631 0.71937 0.15134 0.0
H844 H 0.60014 0.67198 0.16038 0.0
H845 H 0.75081 0.8121 0.14867 0.0
H846 H 0.7592 0.84129 0.16198 0.0
H847 H 0.71095 0.85466 0.1531 0.0
C848 C 0.82964 0.61737 0.87443 0.0
C849 C 0.80027 0.63686 0.8664 0.0
C850 C 0.82157 0.62231 0.88607 0.0
C851 C 0.7831 0.64739 0.88981 0.0
C852 C 0.75511 0.66985 0.88177 0.0
C853 C 0.76402 0.66432 0.87013 0.0
C854 C 0.85249 0.59795 0.89432 0.0
C855 C 0.71404 0.69725 0.88542 0.0
C856 C 0.73409 0.59999 0.91701 0.0
C857 C 0.75352 0.62863 0.92522 0.0
C858 C 0.74147 0.60737 0.90544 0.0
C859 C 0.76908 0.64436 0.90192 0.0
C860 C 0.78679 0.67495 0.91013 0.0
C861 C 0.77877 0.66674 0.92171 0.0
C862 C 0.72163 0.57401 0.897 0.0
C863 C 0.81605 0.71497 0.90671 0.0
H864 H 0.85811 0.5966 0.87163 0.0
H865 H 0.74125 0.67964 0.86398 0.0
H866 H 0.86332 0.6213 0.90121 0.0
H867 H 0.83352 0.56936 0.89829 0.0
H868 H 0.88353 0.584 0.89015 0.0
H869 H 0.70057 0.71867 0.87843 0.0
H870 H 0.68647 0.67382 0.88821 0.0
H871 H 0.72272 0.7195 0.89271 0.0
H872 H 0.71398 0.57082 0.91963 0.0
H873 H 0.79373 0.68913 0.92801 0.0
H874 H 0.74973 0.5548 0.89287 0.0
H875 H 0.7028 0.59236 0.89025 0.0
H876 H 0.69797 0.54924 0.90103 0.0
H877 H 0.84989 0.70258 0.90378 0.0
H878 H 0.82156 0.73908 0.91384 0.0
H879 H 0.80016 0.73358 0.89955 0.0
C880 C 0.3656 0.22417 0.17326 0.0
C881 C 0.34156 0.25709 0.17948 0.0
C882 C 0.36726 0.2257 0.16139 0.0
C883 C 0.34468 0.26128 0.15557 0.0
C884 C 0.31805 0.29303 0.16175 0.0
C885 C 0.31663 0.29044 0.17365 0.0
C886 C 0.3956 0.1908 0.15515 0.0
C887 C 0.29352 0.33149 0.15587 0.0
C888 C 0.40522 0.2964 0.12859 0.0
C889 C 0.37931 0.27432 0.12022 0.0
C890 C 0.39303 0.29395 0.14004 0.0
C891 C 0.3541 0.2684 0.14329 0.0
C892 C 0.32677 0.2473 0.13486 0.0
C893 C 0.3396 0.25068 0.12339 0.0
C894 C 0.42292 0.31741 0.14872 0.0
C895 C 0.28512 0.21967 0.138 0.0
H896 H 0.38448 0.19792 0.17769 0.0
H897 H 0.29794 0.31598 0.17839 0.0
H898 H 0.37609 0.17648 0.14791 0.0
H899 H 0.42668 0.20736 0.15165 0.0
H900 H 0.40648 0.16241 0.16073 0.0
H901 H 0.26924 0.34924 0.16161 0.0
H902 H 0.31897 0.35664 0.15279 0.0
H903 H 0.27448 0.31872 0.14838 0.0
H904 H 0.43566 0.3152 0.1262 0.0
H905 H 0.31945 0.23352 0.11697 0.0
H906 H 0.43949 0.2916 0.1542 0.0
H907 H 0.40188 0.33956 0.15427 0.0
H908 H 0.45008 0.33851 0.14475 0.0
H909 H 0.29591 0.18851 0.14257 0.0
H910 H 0.26494 0.20936 0.13044 0.0
H911 H 0.2627 0.23929 0.1438 0.0
C912 C 0.74547 0.85146 0.3709 0.0
C913 C 0.7889 0.85176 0.36582 0.0
C914 C 0.74065 0.85238 0.38273 0.0
C915 C 0.78018 0.85359 0.38966 0.0
C916 C 0.82399 0.8502 0.38461 0.0
C917 C 0.82782 0.84932 0.37275 0.0
C918 C 0.69329 0.85566 0.38777 0.0
C919 C 0.86702 0.85107 0.39168 0.0
C920 C 0.77324 0.92353 0.41661 0.0
C921 C 0.7697 0.89003 0.42502 0.0
C922 C 0.77641 0.91192 0.40513 0.0
C923 C 0.77608 0.8655 0.40189 0.0
C924 C 0.77224 0.83135 0.4103 0.0
C925 C 0.76908 0.84402 0.42179 0.0
C926 C 0.78037 0.94951 0.39645 0.0
C927 C 0.77176 0.78154 0.40716 0.0
H928 H 0.71512 0.85293 0.36563 0.0
H929 H 0.86153 0.84909 0.36892 0.0
H930 H 0.68975 0.83241 0.39511 0.0
H931 H 0.68748 0.89083 0.39089 0.0
H932 H 0.66625 0.84739 0.38148 0.0
H933 H 0.89773 0.84148 0.38667 0.0
H934 H 0.8723 0.88587 0.39511 0.0
H935 H 0.86393 0.82761 0.39899 0.0
H936 H 0.77367 0.95918 0.41898 0.0
H937 H 0.76638 0.81791 0.42824 0.0
H938 H 0.75182 0.94711 0.39028 0.0
H939 H 0.81274 0.94579 0.39163 0.0
H940 H 0.77977 0.98391 0.40036 0.0
H941 H 0.74336 0.77452 0.40117 0.0
H942 H 0.76776 0.75918 0.41468 0.0
H943 H 0.80406 0.7725 0.40278 0.0
C944 C 0.18838 0.26319 0.67217 0.0
C945 C 0.17571 0.22076 0.67665 0.0
C946 C 0.19359 0.26931 0.66043 0.0
C947 C 0.18566 0.23222 0.653 0.0
C948 C 0.17598 0.18867 0.65754 0.0
C949 C 0.1713 0.18345 0.6693 0.0
C950 C 0.20463 0.31614 0.65595 0.0
C951 C 0.1672 0.14819 0.64994 0.0
C952 C 0.13221 0.25565 0.62434 0.0
C953 C 0.1688 0.24793 0.61688 0.0
C954 C 0.13769 0.25157 0.63608 0.0
C955 C 0.18103 0.23997 0.64057 0.0
C956 C 0.21858 0.23362 0.63315 0.0
C957 C 0.21197 0.23737 0.62137 0.0
C958 C 0.09659 0.25833 0.64366 0.0
C959 C 0.26544 0.22194 0.63764 0.0
H960 H 0.19223 0.29219 0.67778 0.0
H961 H 0.16193 0.15042 0.67266 0.0
H962 H 0.23108 0.31419 0.64923 0.0
H963 H 0.17349 0.33117 0.6521 0.0
H964 H 0.21689 0.33936 0.66274 0.0
H965 H 0.16522 0.11581 0.65477 0.0
H966 H 0.13438 0.15306 0.64538 0.0
H967 H 0.19453 0.14507 0.64347 0.0
H968 H 0.09869 0.26385 0.621 0.0
H969 H 0.24049 0.23159 0.61569 0.0
H970 H 0.10387 0.285 0.65008 0.0
H971 H 0.08907 0.22634 0.6483 0.0
H972 H 0.06555 0.26836 0.63885 0.0
H973 H 0.27569 0.24655 0.64432 0.0
H974 H 0.29185 0.22198 0.63088 0.0
H975 H 0.26465 0.18772 0.6416 0.0
C976 C 0.21762 0.20209 0.29264 0.0
C977 C 0.25211 0.1902 0.30036 0.0
C978 C 0.22848 0.21865 0.2818 0.0
C979 C 0.27492 0.22289 0.27855 0.0
C980 C 0.30984 0.21241 0.28644 0.0
C981 C 0.29802 0.1965 0.29726 0.0
C982 C 0.19029 0.23018 0.27369 0.0
C983 C 0.3598 0.21621 0.28331 0.0
C984 C 0.31045 0.21253 0.24772 0.0
C985 C 0.32244 0.25756 0.24508 0.0
C986 C 0.29329 0.20109 0.25845 0.0
C987 C 0.28739 0.23555 0.26672 0.0
C988 C 0.29689 0.28143 0.2639 0.0
C989 C 0.31456 0.29186 0.25313 0.0
C990 C 0.28379 0.15171 0.26112 0.0
C991 C 0.2903 0.31925 0.27241 0.0
H992 H 0.18204 0.19756 0.29498 0.0
H993 H 0.32496 0.18741 0.30314 0.0
H994 H 0.1957 0.26455 0.27004 0.0
H995 H 0.19019 0.20558 0.26656 0.0
H996 H 0.1562 0.22924 0.27785 0.0
H997 H 0.38276 0.20857 0.29056 0.0
H998 H 0.36767 0.19215 0.27632 0.0
H999 H 0.36756 0.25098 0.2802 0.0
H1000 H 0.31637 0.18576 0.24156 0.0
H1001 H 0.32342 0.32679 0.25115 0.0
H1002 H 0.24875 0.14772 0.26459 0.0
H1003 H 0.30804 0.13975 0.26771 0.0
H1004 H 0.28728 0.12944 0.25356 0.0
H1005 H 0.25592 0.31687 0.27635 0.0
H1006 H 0.29416 0.35345 0.26851 0.0
H1007 H 0.3159 0.3159 0.27929 0.0
C1008 C 0.80396 0.83053 0.49751 0.0
C1009 C 0.75981 0.82302 0.49323 0.0
C1010 C 0.81639 0.81539 0.50834 0.0
C1011 C 0.78424 0.79121 0.51499 0.0
C1012 C 0.74012 0.78206 0.51058 0.0
C1013 C 0.72823 0.79853 0.49979 0.0
C1014 C 0.86361 0.82644 0.51278 0.0
C1015 C 0.70533 0.75542 0.51731 0.0
C1016 C 0.83916 0.72517 0.53899 0.0
C1017 C 0.83309 0.75494 0.54816 0.0
C1018 C 0.82087 0.73515 0.52829 0.0
C1019 C 0.797 0.77651 0.52665 0.0
C1020 C 0.78923 0.80585 0.53599 0.0
C1021 C 0.80693 0.79442 0.54668 0.0
C1022 C 0.82889 0.70239 0.51863 0.0
C1023 C 0.76466 0.85065 0.53456 0.0
H1024 H 0.8285 0.8497 0.49255 0.0
H1025 H 0.69411 0.79247 0.49652 0.0
H1026 H 0.86084 0.84688 0.52066 0.0
H1027 H 0.88202 0.79463 0.51494 0.0
H1028 H 0.88448 0.84577 0.50656 0.0
H1029 H 0.6736 0.74871 0.5124 0.0
H1030 H 0.7201 0.72241 0.52002 0.0
H1031 H 0.69612 0.77448 0.5251 0.0
H1032 H 0.85908 0.6944 0.54014 0.0
H1033 H 0.80244 0.81767 0.55373 0.0
H1034 H 0.85361 0.71744 0.51256 0.0
H1035 H 0.79658 0.69608 0.51395 0.0
H1036 H 0.84272 0.66928 0.52159 0.0
H1037 H 0.78543 0.87354 0.52913 0.0
H1038 H 0.75845 0.86797 0.54279 0.0
H1039 H 0.73137 0.84542 0.53025 0.0
C1040 C 0.2045 0.33709 0.74695 0.0
C1041 C 0.19408 0.29438 0.74229 0.0
C1042 C 0.21471 0.34193 0.75851 0.0
C1043 C 0.2146 0.30309 0.7656 0.0
C1044 C 0.20637 0.25956 0.76085 0.0
C1045 C 0.19619 0.2557 0.74925 0.0
C1046 C 0.22355 0.38896 0.76321 0.0
C1047 C 0.20625 0.21732 0.76812 0.0
C1048 C 0.26798 0.32068 0.79467 0.0
C1049 C 0.22949 0.3318 0.80123 0.0
C1050 C 0.26357 0.30918 0.78315 0.0
C1051 C 0.21968 0.30886 0.77808 0.0
C1052 C 0.18056 0.3177 0.78481 0.0
C1053 C 0.18593 0.32898 0.79628 0.0
C1054 C 0.30607 0.29958 0.77629 0.0
C1055 C 0.13309 0.31749 0.77975 0.0
H1056 H 0.20322 0.36715 0.74165 0.0
H1057 H 0.18832 0.22251 0.74573 0.0
H1058 H 0.1957 0.3984 0.76915 0.0
H1059 H 0.25603 0.38944 0.76807 0.0
H1060 H 0.22549 0.4152 0.75646 0.0
H1061 H 0.20412 0.18569 0.76298 0.0
H1062 H 0.23758 0.21595 0.77341 0.0
H1063 H 0.17653 0.21827 0.77396 0.0
H1064 H 0.30179 0.32259 0.79841 0.0
H1065 H 0.15595 0.33724 0.80128 0.0
H1066 H 0.31193 0.32779 0.77022 0.0
H1067 H 0.30174 0.26794 0.77127 0.0
H1068 H 0.33693 0.2961 0.78171 0.0
H1069 H 0.12996 0.34564 0.77354 0.0
H1070 H 0.10603 0.32168 0.78627 0.0
H1071 H 0.12686 0.28519 0.77512 0.0
C1072 C 0.7243 0.63145 1.00613 0.0
C1073 C 0.73612 0.65794 0.99669 0.0
C1074 C 0.71155 0.65164 1.01642 0.0
C1075 C 0.71113 0.69966 1.01738 0.0
C1076 C 0.72482 0.7267 1.00804 0.0
C1077 C 0.73684 0.70551 0.99776 0.0
C1078 C 0.69669 0.62149 0.02611 0.0
C1079 C 0.72551 0.77797 1.00882 0.0
C1080 C 0.6266 0.74364 0.03911 0.0
C1081 C 0.65428 0.74908 0.04873 0.0
C1082 C 0.64508 0.72946 0.02874 0.0
C1083 C 0.69261 0.721 0.02788 0.0
C1084 C 0.72117 0.72864 0.03739 0.0
C1085 C 0.70162 0.7423 0.04775 0.0
C1086 C 0.61327 0.72125 1.01885 0.0
C1087 C 0.7721 0.7207 0.03676 0.0
H1088 H 0.72368 0.59467 1.00542 0.0
H1089 H 0.74626 0.72621 0.99053 0.0
H1090 H 0.71671 0.62958 0.03383 0.0
H1091 H 0.66015 0.62787 0.02809 0.0
H1092 H 0.70095 0.58473 0.02415 0.0
H1093 H 0.74158 0.79386 1.00127 0.0
H1094 H 0.69002 0.79092 1.0096 0.0
H1095 H 0.7444 0.78903 1.0165 0.0
H1096 H 0.59001 0.74892 0.03975 0.0
H1097 H 0.7233 0.74677 0.05511 0.0
H1098 H 0.61275 0.68442 1.01675 0.0
H1099 H 0.62563 0.73963 1.01124 0.0
H1100 H 0.57769 0.73231 1.02068 0.0
H1101 H 0.77894 0.6837 0.03595 0.0
H1102 H 0.7902 0.7336 0.04439 0.0
H1103 H 0.78663 0.73751 0.02915 0.0
C1104 C 0.33287 0.26593 0.04587 0.0
C1105 C 0.31753 0.29656 0.05419 0.0
C1106 C 0.32377 0.27341 0.03434 0.0
C1107 C 0.29857 0.31231 0.03104 0.0
C1108 C 0.28004 0.34136 0.03945 0.0
C1109 C 0.2898 0.33319 0.05092 0.0
C1110 C 0.34401 0.24148 0.02566 0.0
C1111 C 0.25257 0.38296 0.03631 0.0
C1112 C 0.32938 0.37132 1.00355 0.0
C1113 C 0.29291 0.35915 0.99644 0.0
C1114 C 0.33207 0.35522 1.01469 0.0
C1115 C 0.29726 0.32633 1.01891 0.0
C1116 C 0.26098 0.31271 1.0117 0.0
C1117 C 0.25929 0.32919 1.0005 0.0
C1118 C 0.37167 0.37024 0.02204 0.0
C1119 C 0.22324 0.28199 1.01591 0.0
H1120 H 0.35403 0.23729 0.0483 0.0
H1121 H 0.27738 0.35679 0.05727 0.0
H1122 H 0.31841 0.2328 1.01906 0.0
H1123 H 0.37313 0.25851 1.02137 0.0
H1124 H 0.35666 0.20949 0.02956 0.0
H1125 H 0.23554 0.39852 0.04378 0.0
H1126 H 0.27554 0.40876 0.03246 0.0
H1127 H 0.22613 0.37421 0.02992 0.0
H1128 H 0.35571 0.39415 1.00045 0.0
H1129 H 0.23091 0.3198 0.99507 0.0
H1130 H 0.38954 0.34013 0.02556 0.0
H1131 H 0.35875 0.39053 0.02929 0.0
H1132 H 0.39691 0.39119 1.01731 0.0
H1133 H 0.23786 0.25102 1.01986 0.0
H1134 H 0.1996 0.27152 1.00901 0.0
H1135 H 0.20321 0.29992 0.02253 0.0
C1136 C 0.72653 0.81419 0.29604 0.0
C1137 C 0.77254 0.82027 0.29909 0.0
C1138 C 0.71444 0.79627 0.28544 0.0
C1139 C 0.74916 0.78354 0.27769 0.0
C1140 C 0.79568 0.788 0.28086 0.0
C1141 C 0.80684 0.80655 0.2915 0.0
C1142 C 0.66439 0.79231 0.28238 0.0
C1143 C 0.83364 0.7742 0.2729 0.0
C1144 C 0.70788 0.70737 0.25373 0.0
C1145 C 0.69964 0.73918 0.24511 0.0
C1146 C 0.72635 0.72091 0.2642 0.0
C1147 C 0.73634 0.76744 0.26614 0.0
C1148 C 0.73022 0.79932 0.25728 0.0
C1149 C 0.71222 0.78477 0.24686 0.0
C1150 C 0.73308 0.68575 0.27336 0.0
C1151 C 0.74025 0.84929 0.25901 0.0
H1152 H 0.69975 0.82471 0.30183 0.0
H1153 H 0.84248 0.81095 0.29379 0.0
H1154 H 0.65684 0.81418 0.27496 0.0
H1155 H 0.6561 0.75677 0.27995 0.0
H1156 H 0.64159 0.80257 0.28946 0.0
H1157 H 0.86788 0.77661 0.27694 0.0
H1158 H 0.82827 0.73876 0.26992 0.0
H1159 H 0.83329 0.79645 0.26532 0.0
H1160 H 0.69859 0.67201 0.25244 0.0
H1161 H 0.70602 0.80962 0.24026 0.0
H1162 H 0.70777 0.69135 0.28022 0.0
H1163 H 0.76762 0.6891 0.27717 0.0
H1164 H 0.72887 0.65048 0.27011 0.0
H1165 H 0.71605 0.86355 0.26533 0.0
H1166 H 0.73704 0.8691 0.25104 0.0
H1167 H 0.77529 0.85403 0.26242 0.0
C1168 C 0.23415 0.20857 0.49893 0.0
C1169 C 0.23858 0.16117 0.49797 0.0
C1170 C 0.21955 0.22872 0.50913 0.0
C1171 C 0.20848 0.20072 0.51851 0.0
C1172 C 0.21435 0.15303 0.51768 0.0
C1173 C 0.22959 0.13394 0.50747 0.0
C1174 C 0.21444 0.27977 0.50976 0.0
C1175 C 0.20244 0.12181 0.52741 0.0
C1176 C 0.19052 0.24383 0.54863 0.0
C1177 C 0.14261 0.2452 0.54924 0.0
C1178 C 0.21277 0.23176 0.53848 0.0
C1179 C 0.18643 0.22024 0.52881 0.0
C1180 C 0.13816 0.22319 0.5293 0.0
C1181 C 0.11694 0.23587 0.53946 0.0
C1182 C 0.26434 0.22971 0.53823 0.0
C1183 C 0.10868 0.21076 0.51924 0.0
H1184 H 0.24138 0.22989 0.49166 0.0
H1185 H 0.23299 0.09729 0.50686 0.0
H1186 H 0.17763 0.28873 0.5102 0.0
H1187 H 0.23094 0.29315 0.51755 0.0
H1188 H 0.22965 0.29705 0.50228 0.0
H1189 H 0.21144 0.08578 0.52563 0.0
H1190 H 0.22049 0.13273 0.53522 0.0
H1191 H 0.16518 0.12372 0.52915 0.0
H1192 H 0.21063 0.25129 0.55612 0.0
H1193 H 0.07991 0.23699 0.53981 0.0
H1194 H 0.27771 0.24763 0.53065 0.0
H1195 H 0.27552 0.19372 0.53763 0.0
H1196 H 0.2799 0.24506 0.54592 0.0
H1197 H 0.11952 0.23022 0.51166 0.0
H1198 H 0.07182 0.21746 0.52079 0.0
H1199 H 0.11293 0.17407 0.51725 0.0
C1200 C 0.82444 0.71521 0.74515 0.0
C1201 C 0.83298 0.76076 0.74227 0.0
C1202 C 0.80828 0.70342 0.75595 0.0
C1203 C 0.79984 0.73803 0.76405 0.0
C1204 C 0.80578 0.78423 0.76098 0.0
C1205 C 0.82255 0.79504 0.75015 0.0
C1206 C 0.80258 0.65371 0.75889 0.0
C1207 C 0.79634 0.82216 0.76929 0.0
C1208 C 0.73297 0.7009 0.79012 0.0
C1209 C 0.76832 0.69202 0.79785 0.0
C1210 C 0.74246 0.71779 0.77923 0.0
C1211 C 0.78842 0.72543 0.77595 0.0
C1212 C 0.82407 0.71819 0.78387 0.0
C1213 C 0.81358 0.70189 0.79473 0.0
C1214 C 0.70344 0.72588 0.7711 0.0
C1215 C 0.87358 0.72567 0.7807 0.0
H1216 H 0.83234 0.68845 0.73913 0.0
H1217 H 0.82873 0.83036 0.74798 0.0
H1218 H 0.82764 0.6442 0.76554 0.0
H1219 H 0.76792 0.64737 0.76237 0.0
H1220 H 0.80782 0.63113 0.75145 0.0
H1221 H 0.79748 0.8562 0.76522 0.0
H1222 H 0.7623 0.81747 0.77328 0.0
H1223 H 0.82221 0.82139 0.77617 0.0
H1224 H 0.69787 0.69364 0.79247 0.0
H1225 H 0.84116 0.69514 0.80063 0.0
H1226 H 0.705 0.70066 0.76411 0.0
H1227 H 0.70635 0.76018 0.76724 0.0
H1228 H 0.66956 0.72293 0.7753 0.0
H1229 H 0.88337 0.70171 0.77385 0.0
H1230 H 0.89706 0.72052 0.78799 0.0
H1231 H 0.87854 0.76067 0.77741 0.0
loop_
_geom_bond_atom_site_label_1
_geom_bond_atom_site_label_2
_geom_bond_distance
_geom_bond_site_symmetry_2
_ccdc_geom_bond_type
Mg0 O7 2.141 . S
Mg0 O8 2.048 . S
Mg0 O9 2.048 . S
Mg0 O12 2.141 . S
C1 O2 1.313 . S
C1 O8 1.195 . S
O2 C1 1.313 . S
C3 O4 1.245 . S
C3 O12 1.289 . S
O4 C3 1.245 . S
C5 O6 1.245 . S
C5 O7 1.289 . S
O6 C5 1.245 . S
O7 Mg0 2.141 . S
O7 C5 1.289 . S
O8 Mg0 2.048 . S
O8 C1 1.195 . S
O9 Mg0 2.048 . S
O9 C10 1.195 . S
C10 O9 1.195 . S
C10 O11 1.313 . S
O11 C10 1.313 . S
O12 Mg0 2.141 . S
O12 C3 1.289 . S
Mg13 O20 2.141 . S
Mg13 O21 2.048 . S
Mg13 O22 2.048 . S
Mg13 O25 2.141 . S
C14 O15 1.313 . S
C14 O21 1.195 . S
O15 C14 1.313 . S
C16 O17 1.245 . S
C16 O25 1.289 . S
O17 C16 1.245 . S
C18 O19 1.245 . S
C18 O20 1.289 . S
O19 C18 1.245 . S
O20 Mg13 2.141 . S
O20 C18 1.289 . S
O21 Mg13 2.048 . S
O21 C14 1.195 . S
O22 Mg13 2.048 . S
O22 C23 1.195 . S
C23 O22 1.195 . S
C23 O24 1.313 . S
O24 C23 1.313 . S
O25 Mg13 2.141 . S
O25 C16 1.289 . S
Mg26 O33 2.141 . S
Mg26 O34 2.048 . S
Mg26 O35 2.048 . S
Mg26 O38 2.141 . S
C27 O28 1.313 . S
C27 O34 1.195 . S
O28 C27 1.313 . S
C29 O30 1.245 . S
C29 O38 1.289 . S
O30 C29 1.245 . S
C31 O32 1.245 . S
C31 O33 1.289 . S
O32 C31 1.245 . S
O33 Mg26 2.141 . S
O33 C31 1.289 . S
O34 Mg26 2.048 . S
O34 C27 1.195 . S
O35 Mg26 2.048 . S
O35 C36 1.195 . S
C36 O35 1.195 . S
C36 O37 1.313 . S
O37 C36 1.313 . S
O38 Mg26 2.141 . S
O38 C29 1.289 . S
Mg39 O46 2.141 . S
Mg39 O47 2.048 . S
Mg39 O48 2.048 . S
Mg39 O51 2.141 . S
C40 O41 1.313 . S
C40 O47 1.195 . S
O41 C40 1.313 . S
C42 O43 1.245 . S
C42 O51 1.289 . S
O43 C42 1.245 . S
C44 O45 1.245 . S
C44 O46 1.289 . S
O45 C44 1.245 . S
O46 Mg39 2.141 . S
O46 C44 1.289 . S
O47 Mg39 2.048 . S
O47 C40 1.195 . S
O48 Mg39 2.048 . S
O48 C49 1.195 . S
C49 O48 1.195 . S
C49 O50 1.313 . S
O50 C49 1.313 . S
O51 Mg39 2.141 . S
O51 C42 1.289 . S
Mg52 O59 2.141 . S
Mg52 O60 2.048 . S
Mg52 O61 2.048 . S
Mg52 O64 2.141 . S
C53 O54 1.313 . S
C53 O60 1.195 . S
O54 C53 1.313 . S
C55 O56 1.245 . S
C55 O64 1.289 . S
O56 C55 1.245 . S
C57 O58 1.245 . S
C57 O59 1.289 . S
O58 C57 1.245 . S
O59 Mg52 2.141 . S
O59 C57 1.289 . S
O60 Mg52 2.048 . S
O60 C53 1.195 . S
O61 Mg52 2.048 . S
O61 C62 1.195 . S
C62 O61 1.195 . S
C62 O63 1.313 . S
O63 C62 1.313 . S
O64 Mg52 2.141 . S
O64 C55 1.289 . S
Mg65 O72 2.141 . S
Mg65 O73 2.048 . S
Mg65 O74 2.048 . S
Mg65 O77 2.141 . S
C66 O67 1.313 . S
C66 O73 1.195 . S
O67 C66 1.313 . S
C68 O69 1.245 . S
C68 O77 1.289 . S
O69 C68 1.245 . S
C70 O71 1.245 . S
C70 O72 1.289 . S
O71 C70 1.245 . S
O72 Mg65 2.141 . S
O72 C70 1.289 . S
O73 Mg65 2.048 . S
O73 C66 1.195 . S
O74 Mg65 2.048 . S
O74 C75 1.195 . S
C75 O74 1.195 . S
C75 O76 1.313 . S
O76 C75 1.313 . S
O77 Mg65 2.141 . S
O77 C68 1.289 . S
Mg78 O85 2.141 . S
Mg78 O86 2.048 . S
Mg78 O87 2.048 . S
Mg78 O90 2.141 . S
C79 O80 1.313 . S
C79 O86 1.195 . S
O80 C79 1.313 . S
C81 O82 1.245 . S
C81 O90 1.289 . S
O82 C81 1.245 . S
C83 O84 1.245 . S
C83 O85 1.289 . S
O84 C83 1.245 . S
O85 Mg78 2.141 . S
O85 C83 1.289 . S
O86 Mg78 2.048 . S
O86 C79 1.195 . S
O87 Mg78 2.048 . S
O87 C88 1.195 . S
C88 O87 1.195 . S
C88 O89 1.313 . S
O89 C88 1.313 . S
O90 Mg78 2.141 . S
O90 C81 1.289 . S
Mg91 O98 2.141 . S
Mg91 O99 2.048 . S
Mg91 O100 2.048 . S
Mg91 O103 2.141 . S
C92 O93 1.313 . S
C92 O99 1.195 . S
O93 C92 1.313 . S
C94 O95 1.245 . S
C94 O103 1.289 . S
O95 C94 1.245 . S
C96 O97 1.245 . S
C96 O98 1.289 . S
O97 C96 1.245 . S
O98 Mg91 2.141 . S
O98 C96 1.289 . S
O99 Mg91 2.048 . S
O99 C92 1.195 . S
O100 Mg91 2.048 . S
O100 C101 1.195 . S
C101 O100 1.195 . S
C101 O102 1.313 . S
O102 C101 1.313 . S
O103 Mg91 2.141 . S
O103 C94 1.289 . S
Mg104 O111 2.141 . S
Mg104 O112 2.048 . S
Mg104 O113 2.048 . S
Mg104 O116 2.141 . S
C105 O106 1.313 . S
C105 O112 1.195 . S
O106 C105 1.313 . S
C107 O108 1.245 . S
C107 O116 1.289 . S
O108 C107 1.245 . S
C109 O110 1.245 . S
C109 O111 1.289 . S
O110 C109 1.245 . S
O111 Mg104 2.141 . S
O111 C109 1.289 . S
O112 Mg104 2.048 . S
O112 C105 1.195 . S
O113 Mg104 2.048 . S
O113 C114 1.195 . S
C114 O113 1.195 . S
C114 O115 1.313 . S
O115 C114 1.313 . S
O116 Mg104 2.141 . S
O116 C107 1.289 . S
Mg117 O124 2.141 . S
Mg117 O125 2.048 . S
Mg117 O126 2.048 . S
Mg117 O129 2.141 . S
C118 O119 1.313 . S
C118 O125 1.195 . S
O119 C118 1.313 . S
C120 O121 1.245 . S
C120 O129 1.289 . S
O121 C120 1.245 . S
C122 O123 1.245 . S
C122 O124 1.289 . S
O123 C122 1.245 . S
O124 Mg117 2.141 . S
O124 C122 1.289 . S
O125 Mg117 2.048 . S
O125 C118 1.195 . S
O126 Mg117 2.048 . S
O126 C127 1.195 . S
C127 O126 1.195 . S
C127 O128 1.313 . S
O128 C127 1.313 . S
O129 Mg117 2.141 . S
O129 C120 1.289 . S
Mg130 O137 2.141 . S
Mg130 O138 2.048 . S
Mg130 O139 2.048 . S
Mg130 O142 2.141 . S
C131 O132 1.313 . S
C131 O138 1.195 . S
O132 C131 1.313 . S
C133 O134 1.245 . S
C133 O142 1.289 . S
O134 C133 1.245 . S
C135 O136 1.245 . S
C135 O137 1.289 . S
O136 C135 1.245 . S
O137 Mg130 2.141 . S
O137 C135 1.289 . S
O138 Mg130 2.048 . S
O138 C131 1.195 . S
O139 Mg130 2.048 . S
O139 C140 1.195 . S
C140 O139 1.195 . S
C140 O141 1.313 . S
O141 C140 1.313 . S
O142 Mg130 2.141 . S
O142 C133 1.289 . S
Mg143 O150 2.141 . S
Mg143 O151 2.048 . S
Mg143 O152 2.048 . S
Mg143 O155 2.141 . S
C144 O145 1.313 . S
C144 O151 1.195 . S
O145 C144 1.313 . S
C146 O147 1.245 . S
C146 O155 1.289 . S
O147 C146 1.245 . S
C148 O149 1.245 . S
C148 O150 1.289 . S
O149 C148 1.245 . S
O150 Mg143 2.141 . S
O150 C148 1.289 . S
O151 Mg143 2.048 . S
O151 C144 1.195 . S
O152 Mg143 2.048 . S
O152 C153 1.195 . S
C153 O152 1.195 . S
C153 O154 1.313 . S
O154 C153 1.313 . S
O155 Mg143 2.141 . S
O155 C146 1.289 . S
Mg156 O163 2.141 . S
Mg156 O164 2.048 . S
Mg156 O165 2.048 . S
Mg156 O168 2.141 . S
C157 O158 1.313 . S
C157 O164 1.195 . S
O158 C157 1.313 . S
C159 O160 1.245 . S
C159 O168 1.289 . S
O160 C159 1.245 . S
C161 O162 1.245 . S
C161 O163 1.289 . S
O162 C161 1.245 . S
O163 Mg156 2.141 . S
O163 C161 1.289 . S
O164 Mg156 2.048 . S
O164 C157 1.195 . S
O165 Mg156 2.048 . S
O165 C166 1.195 . S
C166 O165 1.195 . S
C166 O167 1.313 . S
O167 C166 1.313 . S
O168 Mg156 2.141 . S
O168 C159 1.289 . S
Mg169 O176 2.141 . S
Mg169 O177 2.048 . S
Mg169 O178 2.048 . S
Mg169 O181 2.141 . S
C170 O171 1.313 . S
C170 O177 1.195 . S
O171 C170 1.313 . S
C172 O173 1.245 . S
C172 O181 1.289 . S
O173 C172 1.245 . S
C174 O175 1.245 . S
C174 O176 1.289 . S
O175 C174 1.245 . S
O176 Mg169 2.141 . S
O176 C174 1.289 . S
O177 Mg169 2.048 . S
O177 C170 1.195 . S
O178 Mg169 2.048 . S
O178 C179 1.195 . S
C179 O178 1.195 . S
C179 O180 1.313 . S
O180 C179 1.313 . S
O181 Mg169 2.141 . S
O181 C172 1.289 . S
Mg182 O189 2.141 . S
Mg182 O190 2.048 . S
Mg182 O191 2.048 . S
Mg182 O194 2.141 . S
C183 O184 1.313 . S
C183 O190 1.195 . S
O184 C183 1.313 . S
C185 O186 1.245 . S
C185 O194 1.289 . S
O186 C185 1.245 . S
C187 O188 1.245 . S
C187 O189 1.289 . S
O188 C187 1.245 . S
O189 Mg182 2.141 . S
O189 C187 1.289 . S
O190 Mg182 2.048 . S
O190 C183 1.195 . S
O191 Mg182 2.048 . S
O191 C192 1.195 . S
C192 O191 1.195 . S
C192 O193 1.313 . S
O193 C192 1.313 . S
O194 Mg182 2.141 . S
O194 C185 1.289 . S
Mg195 O202 2.141 . S
Mg195 O203 2.048 . S
Mg195 O204 2.048 . S
Mg195 O207 2.141 . S
C196 O197 1.313 . S
C196 O203 1.195 . S
O197 C196 1.313 . S
C198 O199 1.245 . S
C198 O207 1.289 . S
O199 C198 1.245 . S
C200 O201 1.245 . S
C200 O202 1.289 . S
O201 C200 1.245 . S
O202 Mg195 2.141 . S
O202 C200 1.289 . S
O203 Mg195 2.048 . S
O203 C196 1.195 . S
O204 Mg195 2.048 . S
O204 C205 1.195 . S
C205 O204 1.195 . S
C205 O206 1.313 . S
O206 C205 1.313 . S
O207 Mg195 2.141 . S
O207 C198 1.289 . S
C208 C209 1.391 . S
C208 C210 1.394 . S
C208 H224 0.931 . S
C209 C208 1.391 . S
C209 C213 1.376 . S
C210 C208 1.394 . S
C210 C211 1.369 . S
C210 C214 1.531 1_565 S
C211 C210 1.369 . S
C211 C212 1.410 . S
C211 C219 1.503 1_665 S
C212 C211 1.410 . S
C212 C213 1.392 . S
C212 C215 1.511 . S
C213 C209 1.376 . S
C213 C212 1.392 . S
C213 H225 0.929 . S
C214 C210 1.531 1_545 S
C214 H226 0.960 . S
C214 H227 0.962 . S
C214 H228 0.960 . S
C215 C212 1.511 . S
C215 H229 0.961 . S
C215 H230 0.961 1_655 S
C215 H231 0.961 . S
C216 C217 1.370 . S
C216 C218 1.363 . S
C216 H232 0.931 . S
C217 C216 1.370 . S
C217 C221 1.408 . S
C218 C216 1.363 . S
C218 C219 1.370 . S
C218 C222 1.524 1_545 S
C219 C211 1.503 1_445 S
C219 C218 1.370 . S
C219 C220 1.403 . S
C220 C219 1.403 . S
C220 C221 1.404 . S
C220 C223 1.539 1_455 S
C221 C217 1.408 . S
C221 C220 1.404 . S
C221 H233 0.930 . S
C222 C218 1.524 1_565 S
C222 H234 0.956 . S
C222 H235 0.961 . S
C222 H236 0.961 . S
C223 C220 1.539 1_655 S
C223 H237 0.958 . S
C223 H238 0.961 . S
C223 H239 0.960 . S
H224 C208 0.931 . S
H225 C213 0.929 . S
H226 C214 0.960 . S
H227 C214 0.962 . S
H228 C214 0.960 . S
H229 C215 0.961 . S
H230 C215 0.961 1_455 S
H231 C215 0.961 . S
H232 C216 0.931 . S
H233 C221 0.930 . S
H234 C222 0.956 . S
H235 C222 0.961 . S
H236 C222 0.961 . S
H237 C223 0.958 . S
H238 C223 0.961 . S
H239 C223 0.960 . S
C240 C241 1.391 . S
C240 C242 1.394 . S
C240 H256 0.931 . S
C241 C240 1.391 . S
C241 C245 1.376 . S
C242 C240 1.394 . S
C242 C243 1.369 . S
C242 C246 1.531 . S
C243 C242 1.369 . S
C243 C244 1.410 1_655 S
C243 C251 1.503 1_655 S
C244 C243 1.410 1_455 S
C244 C245 1.392 1_455 S
C244 C247 1.511 . S
C245 C241 1.376 . S
C245 C244 1.392 1_655 S
C245 H257 0.929 . S
C246 C242 1.531 . S
C246 H258 0.960 . S
C246 H259 0.962 . S
C246 H260 0.960 . S
C247 C244 1.511 . S
C247 H261 0.961 . S
C247 H262 0.961 . S
C247 H263 0.961 . S
C248 C249 1.370 . S
C248 C250 1.363 . S
C248 H264 0.931 . S
C249 C248 1.370 . S
C249 C253 1.408 . S
C250 C248 1.363 . S
C250 C251 1.370 . S
C250 C254 1.524 1_455 S
C251 C243 1.503 1_455 S
C251 C250 1.370 . S
C251 C252 1.403 . S
C252 C251 1.403 . S
C252 C253 1.404 . S
C252 C255 1.539 . S
C253 C249 1.408 . S
C253 C252 1.404 . S
C253 H265 0.930 . S
C254 C250 1.524 1_655 S
C254 H266 0.956 . S
C254 H267 0.961 . S
C254 H268 0.961 . S
C255 C252 1.539 . S
C255 H269 0.958 . S
C255 H270 0.961 . S
C255 H271 0.960 . S
H256 C240 0.931 . S
H257 C245 0.929 . S
H258 C246 0.960 . S
H259 C246 0.962 . S
H260 C246 0.960 . S
H261 C247 0.961 . S
H262 C247 0.961 . S
H263 C247 0.961 . S
H264 C248 0.931 . S
H265 C253 0.930 . S
H266 C254 0.956 . S
H267 C254 0.961 . S
H268 C254 0.961 . S
H269 C255 0.958 . S
H270 C255 0.961 . S
H271 C255 0.960 . S
C272 C273 1.391 . S
C272 C274 1.394 . S
C272 H288 0.931 . S
C273 C272 1.391 . S
C273 C277 1.376 . S
C274 C272 1.394 . S
C274 C275 1.369 . S
C274 C278 1.531 . S
C275 C274 1.369 . S
C275 C276 1.410 . S
C275 C283 1.503 . S
C276 C275 1.410 . S
C276 C277 1.392 . S
C276 C279 1.511 . S
C277 C273 1.376 . S
C277 C276 1.392 . S
C277 H289 0.929 . S
C278 C274 1.531 . S
C278 H290 0.960 . S
C278 H291 0.962 . S
C278 H292 0.960 . S
C279 C276 1.511 . S
C279 H293 0.961 . S
C279 H294 0.961 . S
C279 H295 0.961 . S
C280 C281 1.370 . S
C280 C282 1.363 . S
C280 H296 0.931 . S
C281 C280 1.370 . S
C281 C285 1.408 . S
C282 C280 1.363 . S
C282 C283 1.370 . S
C282 C286 1.524 . S
C283 C275 1.503 . S
C283 C282 1.370 . S
C283 C284 1.403 . S
C284 C283 1.403 . S
C284 C285 1.404 . S
C284 C287 1.539 . S
C285 C281 1.408 . S
C285 C284 1.404 . S
C285 H297 0.930 . S
C286 C282 1.524 . S
C286 H298 0.956 . S
C286 H299 0.961 . S
C286 H300 0.961 . S
C287 C284 1.539 . S
C287 H301 0.958 . S
C287 H302 0.961 . S
C287 H303 0.960 . S
H288 C272 0.931 . S
H289 C277 0.929 . S
H290 C278 0.960 . S
H291 C278 0.962 . S
H292 C278 0.960 . S
H293 C279 0.961 . S
H294 C279 0.961 . S
H295 C279 0.961 . S
H296 C280 0.931 . S
H297 C285 0.930 . S
H298 C286 0.956 . S
H299 C286 0.961 . S
H300 C286 0.961 . S
H301 C287 0.958 . S
H302 C287 0.961 . S
H303 C287 0.960 . S
C304 C305 1.391 . S
C304 C306 1.394 . S
C304 H320 0.931 . S
C305 C304 1.391 . S
C305 C309 1.376 . S
C306 C304 1.394 . S
C306 C307 1.369 . S
C306 C310 1.531 . S
C307 C306 1.369 . S
C307 C308 1.410 . S
C307 C315 1.503 1_545 S
C308 C307 1.410 . S
C308 C309 1.392 . S
C308 C311 1.511 . S
C309 C305 1.376 . S
C309 C308 1.392 . S
C309 H321 0.929 . S
C310 C306 1.531 . S
C310 H322 0.960 . S
C310 H323 0.962 . S
C310 H324 0.960 . S
C311 C308 1.511 . S
C311 H325 0.961 . S
C311 H326 0.961 1_545 S
C311 H327 0.961 . S
C312 C313 1.370 . S
C312 C314 1.363 . S
C312 H328 0.931 . S
C313 C312 1.370 . S
C313 C317 1.408 . S
C314 C312 1.363 . S
C314 C315 1.370 . S
C314 C318 1.524 . S
C315 C307 1.503 1_565 S
C315 C314 1.370 . S
C315 C316 1.403 . S
C316 C315 1.403 . S
C316 C317 1.404 . S
C316 C319 1.539 1_565 S
C317 C313 1.408 . S
C317 C316 1.404 . S
C317 H329 0.930 . S
C318 C314 1.524 . S
C318 H330 0.956 . S
C318 H331 0.961 . S
C318 H332 0.961 . S
C319 C316 1.539 1_545 S
C319 H333 0.958 . S
C319 H334 0.961 . S
C319 H335 0.960 . S
H320 C304 0.931 . S
H321 C309 0.929 . S
H322 C310 0.960 . S
H323 C310 0.962 . S
H324 C310 0.960 . S
H325 C311 0.961 . S
H326 C311 0.961 1_565 S
H327 C311 0.961 . S
H328 C312 0.931 . S
H329 C317 0.930 . S
H330 C318 0.956 . S
H331 C318 0.961 . S
H332 C318 0.961 . S
H333 C319 0.958 . S
H334 C319 0.961 . S
H335 C319 0.960 . S
C336 C337 1.391 . S
C336 C338 1.394 . S
C336 H352 0.931 . S
C337 C336 1.391 . S
C337 C341 1.376 . S
C338 C336 1.394 . S
C338 C339 1.369 . S
C338 C342 1.531 1_455 S
C339 C338 1.369 . S
C339 C340 1.410 . S
C339 C347 1.503 1_455 S
C340 C339 1.410 . S
C340 C341 1.392 . S
C340 C343 1.511 . S
C341 C337 1.376 . S
C341 C340 1.392 . S
C341 H353 0.929 . S
C342 C338 1.531 1_655 S
C342 H354 0.960 . S
C342 H355 0.962 . S
C342 H356 0.960 . S
C343 C340 1.511 . S
C343 H357 0.961 . S
C343 H358 0.961 . S
C343 H359 0.961 . S
C344 C345 1.370 . S
C344 C346 1.363 . S
C344 H360 0.931 . S
C345 C344 1.370 . S
C345 C349 1.408 . S
C346 C344 1.363 . S
C346 C347 1.370 . S
C346 C350 1.524 . S
C347 C339 1.503 1_655 S
C347 C346 1.370 . S
C347 C348 1.403 . S
C348 C347 1.403 . S
C348 C349 1.404 . S
C348 C351 1.539 . S
C349 C345 1.408 . S
C349 C348 1.404 . S
C349 H361 0.930 . S
C350 C346 1.524 . S
C350 H362 0.956 . S
C350 H363 0.961 1_655 S
C350 H364 0.961 . S
C351 C348 1.539 . S
C351 H365 0.958 . S
C351 H366 0.961 . S
C351 H367 0.960 . S
H352 C336 0.931 . S
H353 C341 0.929 . S
H354 C342 0.960 . S
H355 C342 0.962 . S
H356 C342 0.960 . S
H357 C343 0.961 . S
H358 C343 0.961 . S
H359 C343 0.961 . S
H360 C344 0.931 . S
H361 C349 0.930 . S
H362 C350 0.956 . S
H363 C350 0.961 1_455 S
H364 C350 0.961 . S
H365 C351 0.958 . S
H366 C351 0.961 . S
H367 C351 0.960 . S
C368 C369 1.391 . S
C368 C370 1.394 . S
C368 H384 0.931 . S
C369 C368 1.391 . S
C369 C373 1.376 . S
C370 C368 1.394 . S
C370 C371 1.369 . S
C370 C374 1.531 . S
C371 C370 1.369 . S
C371 C372 1.410 . S
C371 C379 1.503 . S
C372 C371 1.410 . S
C372 C373 1.392 . S
C372 C375 1.511 . S
C373 C369 1.376 . S
C373 C372 1.392 . S
C373 H385 0.929 . S
C374 C370 1.531 . S
C374 H386 0.960 . S
C374 H387 0.962 . S
C374 H388 0.960 . S
C375 C372 1.511 . S
C375 H389 0.961 . S
C375 H390 0.961 . S
C375 H391 0.961 . S
C376 C377 1.370 . S
C376 C378 1.363 . S
C376 H392 0.931 . S
C377 C376 1.370 . S
C377 C381 1.408 . S
C378 C376 1.363 . S
C378 C379 1.370 . S
C378 C382 1.524 . S
C379 C371 1.503 . S
C379 C378 1.370 . S
C379 C380 1.403 . S
C380 C379 1.403 . S
C380 C381 1.404 . S
C380 C383 1.539 . S
C381 C377 1.408 . S
C381 C380 1.404 . S
C381 H393 0.930 . S
C382 C378 1.524 . S
C382 H394 0.956 . S
C382 H395 0.961 . S
C382 H396 0.961 . S
C383 C380 1.539 . S
C383 H397 0.958 . S
C383 H398 0.961 . S
C383 H399 0.960 . S
H384 C368 0.931 . S
H385 C373 0.929 . S
H386 C374 0.960 . S
H387 C374 0.962 . S
H388 C374 0.960 . S
H389 C375 0.961 . S
H390 C375 0.961 . S
H391 C375 0.961 . S
H392 C376 0.931 . S
H393 C381 0.930 . S
H394 C382 0.956 . S
H395 C382 0.961 . S
H396 C382 0.961 . S
H397 C383 0.958 . S
H398 C383 0.961 . S
H399 C383 0.960 . S
C400 C401 1.391 . S
C400 C402 1.394 . S
C400 H416 0.931 . S
C401 C400 1.391 . S
C401 C405 1.376 . S
C402 C400 1.394 . S
C402 C403 1.369 . S
C402 C406 1.531 . S
C403 C402 1.369 . S
C403 C404 1.410 1_545 S
C403 C411 1.503 1_545 S
C404 C403 1.410 1_565 S
C404 C405 1.392 1_565 S
C404 C407 1.511 . S
C405 C401 1.376 . S
C405 C404 1.392 1_545 S
C405 H417 0.929 . S
C406 C402 1.531 . S
C406 H418 0.960 . S
C406 H419 0.962 . S
C406 H420 0.960 . S
C407 C404 1.511 . S
C407 H421 0.961 . S
C407 H422 0.961 . S
C407 H423 0.961 . S
C408 C409 1.370 . S
C408 C410 1.363 . S
C408 H424 0.931 . S
C409 C408 1.370 . S
C409 C413 1.408 . S
C410 C408 1.363 . S
C410 C411 1.370 . S
C410 C414 1.524 1_565 S
C411 C403 1.503 1_565 S
C411 C410 1.370 . S
C411 C412 1.403 . S
C412 C411 1.403 . S
C412 C413 1.404 . S
C412 C415 1.539 . S
C413 C409 1.408 . S
C413 C412 1.404 . S
C413 H425 0.930 . S
C414 C410 1.524 1_545 S
C414 H426 0.956 . S
C414 H427 0.961 . S
C414 H428 0.961 . S
C415 C412 1.539 . S
C415 H429 0.958 . S
C415 H430 0.961 . S
C415 H431 0.960 . S
H416 C400 0.931 . S
H417 C405 0.929 . S
H418 C406 0.960 . S
H419 C406 0.962 . S
H420 C406 0.960 . S
H421 C407 0.961 . S
H422 C407 0.961 . S
H423 C407 0.961 . S
H424 C408 0.931 . S
H425 C413 0.930 . S
H426 C414 0.956 . S
H427 C414 0.961 . S
H428 C414 0.961 . S
H429 C415 0.958 . S
H430 C415 0.961 . S
H431 C415 0.960 . S
C432 C433 1.391 . S
C432 C434 1.394 1_455 S
C432 H448 0.931 . S
C433 C432 1.391 . S
C433 C437 1.376 . S
C434 C432 1.394 1_655 S
C434 C435 1.369 1_655 S
C434 C438 1.531 . S
C435 C434 1.369 1_455 S
C435 C436 1.410 . S
C435 C443 1.503 1_445 S
C436 C435 1.410 . S
C436 C437 1.392 . S
C436 C439 1.511 1_545 S
C437 C433 1.376 . S
C437 C436 1.392 . S
C437 H449 0.929 . S
C438 C434 1.531 . S
C438 H450 0.960 . S
C438 H451 0.962 . S
C438 H452 0.960 . S
C439 C436 1.511 1_565 S
C439 H453 0.961 . S
C439 H454 0.961 . S
C439 H455 0.961 . S
C440 C441 1.370 . S
C440 C442 1.363 . S
C440 H456 0.931 . S
C441 C440 1.370 . S
C441 C445 1.408 . S
C442 C440 1.363 . S
C442 C443 1.370 . S
C442 C446 1.524 . S
C443 C435 1.503 1_665 S
C443 C442 1.370 . S
C443 C444 1.403 . S
C444 C443 1.403 . S
C444 C445 1.404 . S
C444 C447 1.539 . S
C445 C441 1.408 . S
C445 C444 1.404 . S
C445 H457 0.930 . S
C446 C442 1.524 . S
C446 H458 0.956 1_565 S
C446 H459 0.961 1_655 S
C446 H460 0.961 . S
C447 C444 1.539 . S
C447 H461 0.958 . S
C447 H462 0.961 . S
C447 H463 0.960 1_655 S
H448 C432 0.931 . S
H449 C437 0.929 . S
H450 C438 0.960 . S
H451 C438 0.962 . S
H452 C438 0.960 . S
H453 C439 0.961 . S
H454 C439 0.961 . S
H455 C439 0.961 . S
H456 C440 0.931 . S
H457 C445 0.930 . S
H458 C446 0.956 1_545 S
H459 C446 0.961 1_455 S
H460 C446 0.961 . S
H461 C447 0.958 . S
H462 C447 0.961 . S
H463 C447 0.960 1_455 S
C464 C465 1.391 . S
C464 C466 1.394 . S
C464 H480 0.931 . S
C465 C464 1.391 . S
C465 C469 1.376 . S
C466 C464 1.394 . S
C466 C467 1.369 . S
C466 C470 1.531 . S
C467 C466 1.369 . S
C467 C468 1.410 . S
C467 C475 1.503 1_565 S
C468 C467 1.410 . S
C468 C469 1.392 . S
C468 C471 1.511 1_565 S
C469 C465 1.376 . S
C469 C468 1.392 . S
C469 H481 0.929 . S
C470 C466 1.531 . S
C470 H482 0.960 . S
C470 H483 0.962 . S
C470 H484 0.960 . S
C471 C468 1.511 1_545 S
C471 H485 0.961 . S
C471 H486 0.961 . S
C471 H487 0.961 . S
C472 C473 1.370 . S
C472 C474 1.363 . S
C472 H488 0.931 . S
C473 C472 1.370 . S
C473 C477 1.408 . S
C474 C472 1.363 . S
C474 C475 1.370 . S
C474 C478 1.524 . S
C475 C467 1.503 1_545 S
C475 C474 1.370 . S
C475 C476 1.403 1_545 S
C476 C475 1.403 1_565 S
C476 C477 1.405 1_565 S
C476 C479 1.538 . S
C477 C473 1.408 . S
C477 C476 1.405 1_545 S
C477 H489 0.930 . S
C478 C474 1.524 . S
C478 H490 0.956 . S
C478 H491 0.961 . S
C478 H492 0.961 . S
C479 C476 1.538 . S
C479 H493 0.958 . S
C479 H494 0.961 . S
C479 H495 0.960 . S
H480 C464 0.931 . S
H481 C469 0.929 . S
H482 C470 0.960 . S
H483 C470 0.962 . S
H484 C470 0.960 . S
H485 C471 0.961 . S
H486 C471 0.961 . S
H487 C471 0.961 . S
H488 C472 0.931 . S
H489 C477 0.930 . S
H490 C478 0.956 . S
H491 C478 0.961 . S
H492 C478 0.961 . S
H493 C479 0.958 . S
H494 C479 0.961 . S
H495 C479 0.960 . S
C496 C497 1.391 . S
C496 C498 1.394 . S
C496 H512 0.931 . S
C497 C496 1.391 . S
C497 C501 1.376 . S
C498 C496 1.394 . S
C498 C499 1.369 . S
C498 C502 1.531 1_655 S
C499 C498 1.369 . S
C499 C500 1.410 . S
C499 C507 1.503 1_665 S
C500 C499 1.410 . S
C500 C501 1.392 . S
C500 C503 1.511 . S
C501 C497 1.376 . S
C501 C500 1.392 . S
C501 H513 0.929 . S
C502 C498 1.531 1_455 S
C502 H514 0.960 . S
C502 H515 0.962 . S
C502 H516 0.960 . S
C503 C500 1.511 . S
C503 H517 0.961 . S
C503 H518 0.961 1_565 S
C503 H519 0.961 . S
C504 C505 1.370 . S
C504 C506 1.363 . S
C504 H520 0.931 . S
C505 C504 1.370 . S
C505 C509 1.408 . S
C506 C504 1.363 . S
C506 C507 1.370 . S
C506 C510 1.524 1_455 S
C507 C499 1.503 1_445 S
C507 C506 1.370 . S
C507 C508 1.403 . S
C508 C507 1.403 . S
C508 C509 1.404 . S
C508 C511 1.539 1_545 S
C509 C505 1.408 . S
C509 C508 1.404 . S
C509 H521 0.930 . S
C510 C506 1.524 1_655 S
C510 H522 0.956 . S
C510 H523 0.961 . S
C510 H524 0.961 . S
C511 C508 1.539 1_565 S
C511 H525 0.958 . S
C511 H526 0.961 . S
C511 H527 0.960 . S
H512 C496 0.931 . S
H513 C501 0.929 . S
H514 C502 0.960 . S
H515 C502 0.962 . S
H516 C502 0.960 . S
H517 C503 0.961 . S
H518 C503 0.961 1_545 S
H519 C503 0.961 . S
H520 C504 0.931 . S
H521 C509 0.930 . S
H522 C510 0.956 . S
H523 C510 0.961 . S
H524 C510 0.961 . S
H525 C511 0.958 . S
H526 C511 0.961 . S
H527 C511 0.960 . S
C528 C529 1.391 . S
C528 C530 1.394 . S
C528 H544 0.931 . S
C529 C528 1.391 . S
C529 C533 1.376 . S
C530 C528 1.394 . S
C530 C531 1.369 . S
C530 C534 1.531 1_455 S
C531 C530 1.369 . S
C531 C532 1.410 . S
C531 C539 1.503 1_455 S
C532 C531 1.410 . S
C532 C533 1.392 . S
C532 C535 1.511 . S
C533 C529 1.376 . S
C533 C532 1.392 . S
C533 H545 0.929 . S
C534 C530 1.531 1_655 S
C534 H546 0.960 . S
C534 H547 0.962 . S
C534 H548 0.960 . S
C535 C532 1.511 . S
C535 H549 0.961 . S
C535 H550 0.961 . S
C535 H551 0.961 . S
C536 C537 1.370 . S
C536 C538 1.363 . S
C536 H552 0.931 . S
C537 C536 1.370 . S
C537 C541 1.408 . S
C538 C536 1.363 . S
C538 C539 1.370 . S
C538 C542 1.524 . S
C539 C531 1.503 1_655 S
C539 C538 1.370 . S
C539 C540 1.403 . S
C540 C539 1.403 . S
C540 C541 1.404 . S
C540 C543 1.539 . S
C541 C537 1.408 . S
C541 C540 1.404 . S
C541 H553 0.930 . S
C542 C538 1.524 . S
C542 H554 0.956 . S
C542 H555 0.961 1_655 S
C542 H556 0.961 . S
C543 C540 1.539 . S
C543 H557 0.958 . S
C543 H558 0.961 . S
C543 H559 0.960 1_655 S
H544 C528 0.931 . S
H545 C533 0.929 . S
H546 C534 0.960 . S
H547 C534 0.962 . S
H548 C534 0.960 . S
H549 C535 0.961 . S
H550 C535 0.961 . S
H551 C535 0.961 . S
H552 C536 0.931 . S
H553 C541 0.930 . S
H554 C542 0.956 . S
H555 C542 0.961 1_455 S
H556 C542 0.961 . S
H557 C543 0.958 . S
H558 C543 0.961 . S
H559 C543 0.960 1_455 S
C560 C561 1.391 . S
C560 C562 1.394 . S
C560 H576 0.931 . S
C561 C560 1.391 . S
C561 C565 1.376 . S
C562 C560 1.394 . S
C562 C563 1.369 . S
C562 C566 1.531 . S
C563 C562 1.369 . S
C563 C564 1.410 . S
C563 C571 1.503 . S
C564 C563 1.410 . S
C564 C565 1.392 . S
C564 C567 1.511 . S
C565 C561 1.376 . S
C565 C564 1.392 . S
C565 H577 0.929 . S
C566 C562 1.531 . S
C566 H578 0.960 . S
C566 H579 0.962 . S
C566 H580 0.960 . S
C567 C564 1.511 . S
C567 H581 0.961 . S
C567 H582 0.961 . S
C567 H583 0.961 . S
C568 C569 1.370 . S
C568 C570 1.363 . S
C568 H584 0.931 . S
C569 C568 1.370 . S
C569 C573 1.408 . S
C570 C568 1.363 . S
C570 C571 1.370 . S
C570 C574 1.524 . S
C571 C563 1.503 . S
C571 C570 1.370 . S
C571 C572 1.403 . S
C572 C571 1.403 . S
C572 C573 1.404 . S
C572 C575 1.539 . S
C573 C569 1.408 . S
C573 C572 1.404 . S
C573 H585 0.930 . S
C574 C570 1.524 . S
C574 H586 0.956 . S
C574 H587 0.961 . S
C574 H588 0.961 . S
C575 C572 1.539 . S
C575 H589 0.958 . S
C575 H590 0.961 . S
C575 H591 0.960 . S
H576 C560 0.931 . S
H577 C565 0.929 . S
H578 C566 0.960 . S
H579 C566 0.962 . S
H580 C566 0.960 . S
H581 C567 0.961 . S
H582 C567 0.961 . S
H583 C567 0.961 . S
H584 C568 0.931 . S
H585 C573 0.930 . S
H586 C574 0.956 . S
H587 C574 0.961 . S
H588 C574 0.961 . S
H589 C575 0.958 . S
H590 C575 0.961 . S
H591 C575 0.960 . S
C592 C593 1.391 . S
C592 C594 1.394 . S
C592 H608 0.931 . S
C593 C592 1.391 . S
C593 C597 1.376 . S
C594 C592 1.394 . S
C594 C595 1.369 . S
C594 C598 1.531 . S
C595 C594 1.369 . S
C595 C596 1.410 . S
C595 C603 1.503 . S
C596 C595 1.410 . S
C596 C597 1.392 . S
C596 C599 1.511 . S
C597 C593 1.376 . S
C597 C596 1.392 . S
C597 H609 0.929 . S
C598 C594 1.531 . S
C598 H610 0.960 . S
C598 H611 0.962 . S
C598 H612 0.960 . S
C599 C596 1.511 . S
C599 H613 0.961 . S
C599 H614 0.961 . S
C599 H615 0.961 . S
C600 C601 1.370 . S
C600 C602 1.363 . S
C600 H616 0.931 . S
C601 C600 1.370 . S
C601 C605 1.408 . S
C602 C600 1.363 . S
C602 C603 1.370 . S
C602 C606 1.524 . S
C603 C595 1.503 . S
C603 C602 1.370 . S
C603 C604 1.403 . S
C604 C603 1.403 . S
C604 C605 1.404 . S
C604 C607 1.539 . S
C605 C601 1.408 . S
C605 C604 1.404 . S
C605 H617 0.930 . S
C606 C602 1.524 . S
C606 H618 0.956 . S
C606 H619 0.961 . S
C606 H620 0.961 . S
C607 C604 1.539 . S
C607 H621 0.958 . S
C607 H622 0.961 . S
C607 H623 0.960 . S
H608 C592 0.931 . S
H609 C597 0.929 . S
H610 C598 0.960 . S
H611 C598 0.962 . S
H612 C598 0.960 . S
H613 C599 0.961 . S
H614 C599 0.961 . S
H615 C599 0.961 . S
H616 C600 0.931 . S
H617 C605 0.930 . S
H618 C606 0.956 . S
H619 C606 0.961 . S
H620 C606 0.961 . S
H621 C607 0.958 . S
H622 C607 0.961 . S
H623 C607 0.960 . S
C624 C625 1.391 . S
C624 C626 1.394 . S
C624 H640 0.931 . S
C625 C624 1.391 . S
C625 C629 1.376 . S
C626 C624 1.394 . S
C626 C627 1.369 . S
C626 C630 1.531 1_565 S
C627 C626 1.369 . S
C627 C628 1.410 . S
C627 C635 1.503 1_565 S
C628 C627 1.410 . S
C628 C629 1.392 . S
C628 C631 1.511 . S
C629 C625 1.376 . S
C629 C628 1.392 . S
C629 H641 0.929 . S
C630 C626 1.531 1_545 S
C630 H642 0.960 . S
C630 H643 0.962 . S
C630 H644 0.960 . S
C631 C628 1.511 . S
C631 H645 0.961 . S
C631 H646 0.961 . S
C631 H647 0.961 . S
C632 C633 1.370 . S
C632 C634 1.363 . S
C632 H648 0.931 . S
C633 C632 1.370 . S
C633 C637 1.408 . S
C634 C632 1.363 . S
C634 C635 1.370 . S
C634 C638 1.524 . S
C635 C627 1.503 1_545 S
C635 C634 1.370 . S
C635 C636 1.403 . S
C636 C635 1.403 . S
C636 C637 1.404 . S
C636 C639 1.539 . S
C637 C633 1.408 . S
C637 C636 1.404 . S
C637 H649 0.930 . S
C638 C634 1.524 . S
C638 H650 0.956 . S
C638 H651 0.961 1_545 S
C638 H652 0.961 . S
C639 C636 1.539 . S
C639 H653 0.958 . S
C639 H654 0.961 . S
C639 H655 0.960 1_545 S
H640 C624 0.931 . S
H641 C629 0.929 . S
H642 C630 0.960 . S
H643 C630 0.962 . S
H644 C630 0.960 . S
H645 C631 0.961 . S
H646 C631 0.961 . S
H647 C631 0.961 . S
H648 C632 0.931 . S
H649 C637 0.930 . S
H650 C638 0.956 . S
H651 C638 0.961 1_565 S
H652 C638 0.961 . S
H653 C639 0.958 . S
H654 C639 0.961 . S
H655 C639 0.960 1_565 S
C656 C657 1.391 . S
C656 C658 1.394 . S
C656 H672 0.931 . S
C657 C656 1.391 . S
C657 C661 1.376 . S
C658 C656 1.394 . S
C658 C659 1.369 . S
C658 C662 1.531 . S
C659 C658 1.369 . S
C659 C660 1.410 . S
C659 C667 1.503 1_665 S
C660 C659 1.410 . S
C660 C661 1.392 . S
C660 C663 1.511 . S
C661 C657 1.376 . S
C661 C660 1.392 . S
C661 H673 0.929 . S
C662 C658 1.531 . S
C662 H674 0.960 1_655 S
C662 H675 0.962 1_565 S
C662 H676 0.960 . S
C663 C660 1.511 . S
C663 H677 0.961 . S
C663 H678 0.961 1_655 S
C663 H679 0.961 1_655 S
C664 C665 1.370 . S
C664 C666 1.363 . S
C664 H680 0.931 . S
C665 C664 1.370 . S
C665 C669 1.408 . S
C666 C664 1.363 . S
C666 C667 1.370 . S
C666 C670 1.524 1_455 S
C667 C659 1.503 1_445 S
C667 C666 1.370 . S
C667 C668 1.403 1_545 S
C668 C667 1.403 1_565 S
C668 C669 1.404 1_565 S
C668 C671 1.539 . S
C669 C665 1.408 . S
C669 C668 1.404 1_545 S
C669 H681 0.930 . S
C670 C666 1.524 1_655 S
C670 H682 0.956 . S
C670 H683 0.961 . S
C670 H684 0.961 . S
C671 C668 1.539 . S
C671 H685 0.958 . S
C671 H686 0.961 . S
C671 H687 0.960 . S
H672 C656 0.931 . S
H673 C661 0.929 . S
H674 C662 0.960 1_455 S
H675 C662 0.962 1_545 S
H676 C662 0.960 . S
H677 C663 0.961 . S
H678 C663 0.961 1_455 S
H679 C663 0.961 1_455 S
H680 C664 0.931 . S
H681 C669 0.930 . S
H682 C670 0.956 . S
H683 C670 0.961 . S
H684 C670 0.961 . S
H685 C671 0.958 . S
H686 C671 0.961 . S
H687 C671 0.960 . S
C688 C689 1.391 . S
C688 C690 1.394 . S
C688 H704 0.931 . S
C689 C688 1.391 . S
C689 C693 1.376 . S
C690 C688 1.394 . S
C690 C691 1.369 . S
C690 C694 1.531 . S
C691 C690 1.369 . S
C691 C692 1.410 1_455 S
C691 C699 1.503 1_455 S
C692 C691 1.410 1_655 S
C692 C693 1.392 1_655 S
C692 C695 1.511 . S
C693 C689 1.376 . S
C693 C692 1.392 1_455 S
C693 H705 0.929 . S
C694 C690 1.531 . S
C694 H706 0.960 . S
C694 H707 0.962 . S
C694 H708 0.960 . S
C695 C692 1.511 . S
C695 H709 0.961 . S
C695 H710 0.961 . S
C695 H711 0.961 . S
C696 C697 1.370 . S
C696 C698 1.363 . S
C696 H712 0.931 . S
C697 C696 1.370 . S
C697 C701 1.408 . S
C698 C696 1.363 . S
C698 C699 1.370 . S
C698 C702 1.524 1_655 S
C699 C691 1.503 1_655 S
C699 C698 1.370 . S
C699 C700 1.403 . S
C700 C699 1.403 . S
C700 C701 1.404 . S
C700 C703 1.539 . S
C701 C697 1.408 . S
C701 C700 1.404 . S
C701 H713 0.930 . S
C702 C698 1.524 1_455 S
C702 H714 0.956 . S
C702 H715 0.961 . S
C702 H716 0.961 1_455 S
C703 C700 1.539 . S
C703 H717 0.958 . S
C703 H718 0.961 . S
C703 H719 0.960 . S
H704 C688 0.931 . S
H705 C693 0.929 . S
H706 C694 0.960 . S
H707 C694 0.962 . S
H708 C694 0.960 . S
H709 C695 0.961 . S
H710 C695 0.961 . S
H711 C695 0.961 . S
H712 C696 0.931 . S
H713 C701 0.930 . S
H714 C702 0.956 . S
H715 C702 0.961 . S
H716 C702 0.961 1_655 S
H717 C703 0.958 . S
H718 C703 0.961 . S
H719 C703 0.960 . S
C720 C721 1.391 . S
C720 C722 1.394 . S
C720 H736 0.931 . S
C721 C720 1.391 . S
C721 C725 1.376 . S
C722 C720 1.394 . S
C722 C723 1.369 . S
C722 C726 1.531 1_545 S
C723 C722 1.369 . S
C723 C724 1.410 . S
C723 C731 1.503 . S
C724 C723 1.410 . S
C724 C725 1.392 . S
C724 C727 1.511 . S
C725 C721 1.376 . S
C725 C724 1.392 . S
C725 H737 0.929 . S
C726 C722 1.531 1_565 S
C726 H738 0.960 . S
C726 H739 0.962 . S
C726 H740 0.960 . S
C727 C724 1.511 . S
C727 H741 0.961 . S
C727 H742 0.961 . S
C727 H743 0.961 . S
C728 C729 1.370 . S
C728 C730 1.363 . S
C728 H744 0.931 . S
C729 C728 1.370 . S
C729 C733 1.408 . S
C730 C728 1.363 . S
C730 C731 1.370 . S
C730 C734 1.524 . S
C731 C723 1.503 . S
C731 C730 1.370 . S
C731 C732 1.403 . S
C732 C731 1.403 . S
C732 C733 1.404 . S
C732 C735 1.539 . S
C733 C729 1.408 . S
C733 C732 1.404 . S
C733 H745 0.930 . S
C734 C730 1.524 . S
C734 H746 0.956 . S
C734 H747 0.961 . S
C734 H748 0.961 . S
C735 C732 1.539 . S
C735 H749 0.958 . S
C735 H750 0.961 . S
C735 H751 0.960 . S
H736 C720 0.931 . S
H737 C725 0.929 . S
H738 C726 0.960 . S
H739 C726 0.962 . S
H740 C726 0.960 . S
H741 C727 0.961 . S
H742 C727 0.961 . S
H743 C727 0.961 . S
H744 C728 0.931 . S
H745 C733 0.930 . S
H746 C734 0.956 . S
H747 C734 0.961 . S
H748 C734 0.961 . S
H749 C735 0.958 . S
H750 C735 0.961 . S
H751 C735 0.960 . S
C752 C753 1.391 . S
C752 C754 1.394 . S
C752 H768 0.931 . S
C753 C752 1.391 . S
C753 C757 1.376 . S
C754 C752 1.394 . S
C754 C755 1.369 . S
C754 C758 1.531 . S
C755 C754 1.369 . S
C755 C756 1.410 . S
C755 C763 1.503 . S
C756 C755 1.410 . S
C756 C757 1.392 . S
C756 C759 1.511 . S
C757 C753 1.376 . S
C757 C756 1.392 . S
C757 H769 0.929 . S
C758 C754 1.531 . S
C758 H770 0.960 . S
C758 H771 0.962 1_655 S
C758 H772 0.960 1_655 S
C759 C756 1.511 . S
C759 H773 0.961 . S
C759 H774 0.961 . S
C759 H775 0.961 . S
C760 C761 1.370 . S
C760 C762 1.363 . S
C760 H776 0.931 . S
C761 C760 1.370 . S
C761 C765 1.408 . S
C762 C760 1.363 . S
C762 C763 1.370 . S
C762 C766 1.524 . S
C763 C755 1.503 . S
C763 C762 1.370 . S
C763 C764 1.403 . S
C764 C763 1.403 . S
C764 C765 1.404 . S
C764 C767 1.539 . S
C765 C761 1.408 . S
C765 C764 1.404 . S
C765 H777 0.930 . S
C766 C762 1.524 . S
C766 H778 0.956 . S
C766 H779 0.961 . S
C766 H780 0.961 . S
C767 C764 1.539 . S
C767 H781 0.958 . S
C767 H782 0.961 . S
C767 H783 0.960 . S
H768 C752 0.931 . S
H769 C757 0.929 . S
H770 C758 0.960 . S
H771 C758 0.962 1_455 S
H772 C758 0.960 1_455 S
H773 C759 0.961 . S
H774 C759 0.961 . S
H775 C759 0.961 . S
H776 C760 0.931 . S
H777 C765 0.930 . S
H778 C766 0.956 . S
H779 C766 0.961 . S
H780 C766 0.961 . S
H781 C767 0.958 . S
H782 C767 0.961 . S
H783 C767 0.960 . S
C784 C785 1.391 . S
C784 C786 1.394 . S
C784 H800 0.931 . S
C785 C784 1.391 . S
C785 C789 1.376 . S
C786 C784 1.394 . S
C786 C787 1.369 . S
C786 C790 1.531 . S
C787 C786 1.369 . S
C787 C788 1.410 . S
C787 C795 1.503 . S
C788 C787 1.410 . S
C788 C789 1.392 . S
C788 C791 1.511 . S
C789 C785 1.376 . S
C789 C788 1.392 . S
C789 H801 0.929 . S
C790 C786 1.531 . S
C790 H802 0.960 . S
C790 H803 0.962 . S
C790 H804 0.960 . S
C791 C788 1.511 . S
C791 H805 0.961 . S
C791 H806 0.961 . S
C791 H807 0.961 . S
C792 C793 1.370 . S
C792 C794 1.363 . S
C792 H808 0.931 . S
C793 C792 1.370 . S
C793 C797 1.408 . S
C794 C792 1.363 . S
C794 C795 1.370 . S
C794 C798 1.524 . S
C795 C787 1.503 . S
C795 C794 1.370 . S
C795 C796 1.403 . S
C796 C795 1.403 . S
C796 C797 1.404 . S
C796 C799 1.539 . S
C797 C793 1.408 . S
C797 C796 1.404 . S
C797 H809 0.930 . S
C798 C794 1.524 . S
C798 H810 0.956 . S
C798 H811 0.961 . S
C798 H812 0.961 . S
C799 C796 1.539 . S
C799 H813 0.958 . S
C799 H814 0.961 . S
C799 H815 0.960 . S
H800 C784 0.931 . S
H801 C789 0.929 . S
H802 C790 0.960 . S
H803 C790 0.962 . S
H804 C790 0.960 . S
H805 C791 0.961 . S
H806 C791 0.961 . S
H807 C791 0.961 . S
H808 C792 0.931 . S
H809 C797 0.930 . S
H810 C798 0.956 . S
H811 C798 0.961 . S
H812 C798 0.961 . S
H813 C799 0.958 . S
H814 C799 0.961 . S
H815 C799 0.960 . S
C816 C817 1.391 . S
C816 C818 1.394 . S
C816 H832 0.931 . S
C817 C816 1.391 . S
C817 C821 1.376 . S
C818 C816 1.394 . S
C818 C819 1.369 . S
C818 C822 1.531 . S
C819 C818 1.369 . S
C819 C820 1.410 . S
C819 C827 1.503 . S
C820 C819 1.410 . S
C820 C821 1.392 . S
C820 C823 1.511 . S
C821 C817 1.376 . S
C821 C820 1.392 . S
C821 H833 0.929 . S
C822 C818 1.531 . S
C822 H834 0.960 . S
C822 H835 0.962 . S
C822 H836 0.960 . S
C823 C820 1.511 . S
C823 H837 0.961 . S
C823 H838 0.961 . S
C823 H839 0.961 . S
C824 C825 1.370 . S
C824 C826 1.363 . S
C824 H840 0.931 . S
C825 C824 1.370 . S
C825 C829 1.408 . S
C826 C824 1.363 . S
C826 C827 1.370 . S
C826 C830 1.524 . S
C827 C819 1.503 . S
C827 C826 1.370 . S
C827 C828 1.403 . S
C828 C827 1.403 . S
C828 C829 1.404 . S
C828 C831 1.539 . S
C829 C825 1.408 . S
C829 C828 1.404 . S
C829 H841 0.930 . S
C830 C826 1.524 . S
C830 H842 0.956 . S
C830 H843 0.961 . S
C830 H844 0.961 . S
C831 C828 1.539 . S
C831 H845 0.958 . S
C831 H846 0.961 . S
C831 H847 0.960 . S
H832 C816 0.931 . S
H833 C821 0.929 . S
H834 C822 0.960 . S
H835 C822 0.962 . S
H836 C822 0.960 . S
H837 C823 0.961 . S
H838 C823 0.961 . S
H839 C823 0.961 . S
H840 C824 0.931 . S
H841 C829 0.930 . S
H842 C830 0.956 . S
H843 C830 0.961 . S
H844 C830 0.961 . S
H845 C831 0.958 . S
H846 C831 0.961 . S
H847 C831 0.960 . S
C848 C849 1.391 . S
C848 C850 1.394 . S
C848 H864 0.931 . S
C849 C848 1.391 . S
C849 C853 1.376 . S
C850 C848 1.394 . S
C850 C851 1.369 . S
C850 C854 1.531 . S
C851 C850 1.369 . S
C851 C852 1.410 . S
C851 C859 1.503 . S
C852 C851 1.410 . S
C852 C853 1.392 . S
C852 C855 1.511 . S
C853 C849 1.376 . S
C853 C852 1.392 . S
C853 H865 0.929 . S
C854 C850 1.531 . S
C854 H866 0.960 . S
C854 H867 0.962 . S
C854 H868 0.960 . S
C855 C852 1.511 . S
C855 H869 0.961 . S
C855 H870 0.961 . S
C855 H871 0.961 . S
C856 C857 1.370 . S
C856 C858 1.363 . S
C856 H872 0.931 . S
C857 C856 1.370 . S
C857 C861 1.408 . S
C858 C856 1.363 . S
C858 C859 1.370 . S
C858 C862 1.524 . S
C859 C851 1.503 . S
C859 C858 1.370 . S
C859 C860 1.403 . S
C860 C859 1.403 . S
C860 C861 1.404 . S
C860 C863 1.539 . S
C861 C857 1.408 . S
C861 C860 1.404 . S
C861 H873 0.930 . S
C862 C858 1.524 . S
C862 H874 0.956 . S
C862 H875 0.961 . S
C862 H876 0.961 . S
C863 C860 1.539 . S
C863 H877 0.958 . S
C863 H878 0.961 . S
C863 H879 0.960 . S
H864 C848 0.931 . S
H865 C853 0.929 . S
H866 C854 0.960 . S
H867 C854 0.962 . S
H868 C854 0.960 . S
H869 C855 0.961 . S
H870 C855 0.961 . S
H871 C855 0.961 . S
H872 C856 0.931 . S
H873 C861 0.930 . S
H874 C862 0.956 . S
H875 C862 0.961 . S
H876 C862 0.961 . S
H877 C863 0.958 . S
H878 C863 0.961 . S
H879 C863 0.960 . S
C880 C881 1.391 . S
C880 C882 1.394 . S
C880 H896 0.931 . S
C881 C880 1.391 . S
C881 C885 1.376 . S
C882 C880 1.394 . S
C882 C883 1.369 . S
C882 C886 1.531 . S
C883 C882 1.369 . S
C883 C884 1.410 . S
C883 C891 1.503 . S
C884 C883 1.410 . S
C884 C885 1.392 . S
C884 C887 1.511 . S
C885 C881 1.376 . S
C885 C884 1.392 . S
C885 H897 0.929 . S
C886 C882 1.531 . S
C886 H898 0.960 . S
C886 H899 0.962 . S
C886 H900 0.960 . S
C887 C884 1.511 . S
C887 H901 0.961 . S
C887 H902 0.961 . S
C887 H903 0.961 . S
C888 C889 1.370 . S
C888 C890 1.363 . S
C888 H904 0.931 . S
C889 C888 1.370 . S
C889 C893 1.408 . S
C890 C888 1.363 . S
C890 C891 1.370 . S
C890 C894 1.524 . S
C891 C883 1.503 . S
C891 C890 1.370 . S
C891 C892 1.403 . S
C892 C891 1.403 . S
C892 C893 1.404 . S
C892 C895 1.539 . S
C893 C889 1.408 . S
C893 C892 1.404 . S
C893 H905 0.930 . S
C894 C890 1.524 . S
C894 H906 0.956 . S
C894 H907 0.961 . S
C894 H908 0.961 . S
C895 C892 1.539 . S
C895 H909 0.958 . S
C895 H910 0.961 . S
C895 H911 0.960 . S
H896 C880 0.931 . S
H897 C885 0.929 . S
H898 C886 0.960 . S
H899 C886 0.962 . S
H900 C886 0.960 . S
H901 C887 0.961 . S
H902 C887 0.961 . S
H903 C887 0.961 . S
H904 C888 0.931 . S
H905 C893 0.930 . S
H906 C894 0.956 . S
H907 C894 0.961 . S
H908 C894 0.961 . S
H909 C895 0.958 . S
H910 C895 0.961 . S
H911 C895 0.960 . S
C912 C913 1.391 . S
C912 C914 1.394 . S
C912 H928 0.931 . S
C913 C912 1.391 . S
C913 C917 1.376 . S
C914 C912 1.394 . S
C914 C915 1.369 . S
C914 C918 1.531 . S
C915 C914 1.369 . S
C915 C916 1.410 . S
C915 C923 1.503 . S
C916 C915 1.410 . S
C916 C917 1.392 . S
C916 C919 1.511 . S
C917 C913 1.376 . S
C917 C916 1.392 . S
C917 H929 0.929 . S
C918 C914 1.531 . S
C918 H930 0.960 . S
C918 H931 0.962 . S
C918 H932 0.960 . S
C919 C916 1.511 . S
C919 H933 0.961 . S
C919 H934 0.961 . S
C919 H935 0.961 . S
C920 C921 1.370 . S
C920 C922 1.363 . S
C920 H936 0.931 . S
C921 C920 1.370 . S
C921 C925 1.408 . S
C922 C920 1.363 . S
C922 C923 1.370 . S
C922 C926 1.524 . S
C923 C915 1.503 . S
C923 C922 1.370 . S
C923 C924 1.403 . S
C924 C923 1.403 . S
C924 C925 1.404 . S
C924 C927 1.539 . S
C925 C921 1.408 . S
C925 C924 1.404 . S
C925 H937 0.930 . S
C926 C922 1.524 . S
C926 H938 0.956 . S
C926 H939 0.964 . S
C926 H940 0.961 1_565 S
C927 C924 1.539 . S
C927 H941 0.958 . S
C927 H942 0.961 . S
C927 H943 0.960 . S
H928 C912 0.931 . S
H929 C917 0.929 . S
H930 C918 0.960 . S
H931 C918 0.962 . S
H932 C918 0.960 . S
H933 C919 0.961 . S
H934 C919 0.961 . S
H935 C919 0.961 . S
H936 C920 0.931 . S
H937 C925 0.930 . S
H938 C926 0.956 . S
H939 C926 0.964 . S
H940 C926 0.961 1_545 S
H941 C927 0.958 . S
H942 C927 0.961 . S
H943 C927 0.960 . S
C944 C945 1.391 . S
C944 C946 1.394 . S
C944 H960 0.931 . S
C945 C944 1.391 . S
C945 C949 1.376 . S
C946 C944 1.394 . S
C946 C947 1.369 . S
C946 C950 1.531 . S
C947 C946 1.369 . S
C947 C948 1.410 . S
C947 C955 1.503 . S
C948 C947 1.410 . S
C948 C949 1.392 . S
C948 C951 1.511 . S
C949 C945 1.376 . S
C949 C948 1.392 . S
C949 H961 0.929 . S
C950 C946 1.531 . S
C950 H962 0.960 . S
C950 H963 0.962 . S
C950 H964 0.960 . S
C951 C948 1.511 . S
C951 H965 0.961 . S
C951 H966 0.961 . S
C951 H967 0.961 . S
C952 C953 1.370 . S
C952 C954 1.363 . S
C952 H968 0.931 . S
C953 C952 1.370 . S
C953 C957 1.408 . S
C954 C952 1.363 . S
C954 C955 1.370 . S
C954 C958 1.524 . S
C955 C947 1.503 . S
C955 C954 1.370 . S
C955 C956 1.403 . S
C956 C955 1.403 . S
C956 C957 1.404 . S
C956 C959 1.539 . S
C957 C953 1.408 . S
C957 C956 1.404 . S
C957 H969 0.930 . S
C958 C954 1.524 . S
C958 H970 0.954 1_455 S
C958 H971 0.961 . S
C958 H972 0.962 1_455 S
C959 C956 1.539 . S
C959 H973 0.958 . S
C959 H974 0.961 . S
C959 H975 0.960 . S
H960 C944 0.931 . S
H961 C949 0.929 . S
H962 C950 0.960 . S
H963 C950 0.962 . S
H964 C950 0.960 . S
H965 C951 0.961 . S
H966 C951 0.961 . S
H967 C951 0.961 . S
H968 C952 0.931 . S
H969 C957 0.930 . S
H970 C958 0.954 1_655 S
H971 C958 0.961 . S
H972 C958 0.962 1_655 S
H973 C959 0.958 . S
H974 C959 0.961 . S
H975 C959 0.960 . S
C976 C977 1.391 . S
C976 C978 1.394 . S
C976 H992 0.931 . S
C977 C976 1.391 . S
C977 C981 1.376 . S
C978 C976 1.394 . S
C978 C979 1.369 . S
C978 C982 1.531 . S
C979 C978 1.369 . S
C979 C980 1.410 . S
C979 C987 1.503 . S
C980 C979 1.410 . S
C980 C981 1.392 . S
C980 C983 1.511 . S
C981 C977 1.376 . S
C981 C980 1.392 . S
C981 H993 0.929 . S
C982 C978 1.531 . S
C982 H994 0.960 . S
C982 H995 0.962 . S
C982 H996 0.960 . S
C983 C980 1.511 . S
C983 H997 0.961 . S
C983 H998 0.961 . S
C983 H999 0.961 . S
C984 C985 1.370 . S
C984 C986 1.363 . S
C984 H1000 0.931 . S
C985 C984 1.370 . S
C985 C989 1.408 . S
C986 C984 1.363 . S
C986 C987 1.370 . S
C986 C990 1.524 . S
C987 C979 1.503 . S
C987 C986 1.370 . S
C987 C988 1.403 . S
C988 C987 1.403 . S
C988 C989 1.404 . S
C988 C991 1.539 . S
C989 C985 1.408 . S
C989 C988 1.404 . S
C989 H1001 0.930 . S
C990 C986 1.524 . S
C990 H1002 0.956 . S
C990 H1003 0.961 . S
C990 H1004 0.961 . S
C991 C988 1.539 . S
C991 H1005 0.958 . S
C991 H1006 0.961 . S
C991 H1007 0.960 . S
H992 C976 0.931 . S
H993 C981 0.929 . S
H994 C982 0.960 . S
H995 C982 0.962 . S
H996 C982 0.960 . S
H997 C983 0.961 . S
H998 C983 0.961 . S
H999 C983 0.961 . S
H1000 C984 0.931 . S
H1001 C989 0.930 . S
H1002 C990 0.956 . S
H1003 C990 0.961 . S
H1004 C990 0.961 . S
H1005 C991 0.958 . S
H1006 C991 0.961 . S
H1007 C991 0.960 . S
C1008 C1009 1.391 . S
C1008 C1010 1.394 . S
C1008 H1024 0.931 . S
C1009 C1008 1.391 . S
C1009 C1013 1.376 . S
C1010 C1008 1.394 . S
C1010 C1011 1.369 . S
C1010 C1014 1.531 . S
C1011 C1010 1.369 . S
C1011 C1012 1.410 . S
C1011 C1019 1.503 . S
C1012 C1011 1.410 . S
C1012 C1013 1.392 . S
C1012 C1015 1.511 . S
C1013 C1009 1.376 . S
C1013 C1012 1.392 . S
C1013 H1025 0.929 . S
C1014 C1010 1.531 . S
C1014 H1026 0.960 . S
C1014 H1027 0.962 . S
C1014 H1028 0.960 . S
C1015 C1012 1.511 . S
C1015 H1029 0.961 . S
C1015 H1030 0.961 . S
C1015 H1031 0.961 . S
C1016 C1017 1.370 . S
C1016 C1018 1.363 . S
C1016 H1032 0.931 . S
C1017 C1016 1.370 . S
C1017 C1021 1.408 . S
C1018 C1016 1.363 . S
C1018 C1019 1.370 . S
C1018 C1022 1.524 . S
C1019 C1011 1.503 . S
C1019 C1018 1.370 . S
C1019 C1020 1.403 . S
C1020 C1019 1.403 . S
C1020 C1021 1.404 . S
C1020 C1023 1.539 . S
C1021 C1017 1.408 . S
C1021 C1020 1.404 . S
C1021 H1033 0.930 . S
C1022 C1018 1.524 . S
C1022 H1034 0.956 . S
C1022 H1035 0.961 . S
C1022 H1036 0.961 . S
C1023 C1020 1.539 . S
C1023 H1037 0.958 . S
C1023 H1038 0.961 . S
C1023 H1039 0.960 . S
H1024 C1008 0.931 . S
H1025 C1013 0.929 . S
H1026 C1014 0.960 . S
H1027 C1014 0.962 . S
H1028 C1014 0.960 . S
H1029 C1015 0.961 . S
H1030 C1015 0.961 . S
H1031 C1015 0.961 . S
H1032 C1016 0.931 . S
H1033 C1021 0.930 . S
H1034 C1022 0.956 . S
H1035 C1022 0.961 . S
H1036 C1022 0.961 . S
H1037 C1023 0.958 . S
H1038 C1023 0.961 . S
H1039 C1023 0.960 . S
C1040 C1041 1.391 . S
C1040 C1042 1.394 . S
C1040 H1056 0.931 . S
C1041 C1040 1.391 . S
C1041 C1045 1.376 . S
C1042 C1040 1.394 . S
C1042 C1043 1.369 . S
C1042 C1046 1.531 . S
C1043 C1042 1.369 . S
C1043 C1044 1.410 . S
C1043 C1051 1.503 . S
C1044 C1043 1.410 . S
C1044 C1045 1.392 . S
C1044 C1047 1.511 . S
C1045 C1041 1.376 . S
C1045 C1044 1.392 . S
C1045 H1057 0.929 . S
C1046 C1042 1.531 . S
C1046 H1058 0.960 . S
C1046 H1059 0.962 . S
C1046 H1060 0.960 . S
C1047 C1044 1.511 . S
C1047 H1061 0.961 . S
C1047 H1062 0.961 . S
C1047 H1063 0.961 . S
C1048 C1049 1.370 . S
C1048 C1050 1.363 . S
C1048 H1064 0.931 . S
C1049 C1048 1.370 . S
C1049 C1053 1.408 . S
C1050 C1048 1.363 . S
C1050 C1051 1.370 . S
C1050 C1054 1.524 . S
C1051 C1043 1.503 . S
C1051 C1050 1.370 . S
C1051 C1052 1.403 . S
C1052 C1051 1.403 . S
C1052 C1053 1.404 . S
C1052 C1055 1.539 . S
C1053 C1049 1.408 . S
C1053 C1052 1.404 . S
C1053 H1065 0.930 . S
C1054 C1050 1.524 . S
C1054 H1066 0.956 . S
C1054 H1067 0.961 . S
C1054 H1068 0.961 . S
C1055 C1052 1.539 . S
C1055 H1069 0.958 . S
C1055 H1070 0.961 . S
C1055 H1071 0.960 . S
H1056 C1040 0.931 . S
H1057 C1045 0.929 . S
H1058 C1046 0.960 . S
H1059 C1046 0.962 . S
H1060 C1046 0.960 . S
H1061 C1047 0.961 . S
H1062 C1047 0.961 . S
H1063 C1047 0.961 . S
H1064 C1048 0.931 . S
H1065 C1053 0.930 . S
H1066 C1054 0.956 . S
H1067 C1054 0.961 . S
H1068 C1054 0.961 . S
H1069 C1055 0.958 . S
H1070 C1055 0.961 . S
H1071 C1055 0.960 . S
C1072 C1073 1.391 . S
C1072 C1074 1.394 . S
C1072 H1088 0.931 . S
C1073 C1072 1.391 . S
C1073 C1077 1.376 . S
C1074 C1072 1.394 . S
C1074 C1075 1.369 . S
C1074 C1078 1.531 . S
C1075 C1074 1.369 . S
C1075 C1076 1.410 . S
C1075 C1083 1.503 1_556 S
C1076 C1075 1.410 . S
C1076 C1077 1.392 . S
C1076 C1079 1.522 . S
C1077 C1073 1.376 . S
C1077 C1076 1.392 . S
C1077 H1089 0.929 . S
C1078 C1074 1.531 . S
C1078 H1090 0.960 1_556 S
C1078 H1091 0.962 . S
C1078 H1092 0.960 . S
C1079 C1076 1.522 . S
C1079 H1093 0.972 . S
C1079 H1094 0.952 1_556 S
C1079 H1095 0.948 1_556 S
C1080 C1081 1.370 . S
C1080 C1082 1.363 . S
C1080 H1096 0.931 . S
C1081 C1080 1.370 . S
C1081 C1085 1.408 . S
C1082 C1080 1.363 . S
C1082 C1083 1.370 . S
C1082 C1086 1.524 1_554 S
C1083 C1075 1.503 1_554 S
C1083 C1082 1.370 . S
C1083 C1084 1.403 . S
C1084 C1083 1.403 . S
C1084 C1085 1.404 . S
C1084 C1087 1.539 . S
C1085 C1081 1.408 . S
C1085 C1084 1.404 . S
C1085 H1097 0.930 . S
C1086 C1082 1.524 1_556 S
C1086 H1098 0.956 . S
C1086 H1099 0.961 . S
C1086 H1100 0.961 . S
C1087 C1084 1.539 . S
C1087 H1101 0.958 . S
C1087 H1102 0.961 . S
C1087 H1103 0.960 . S
H1088 C1072 0.931 . S
H1089 C1077 0.929 . S
H1090 C1078 0.960 1_554 S
H1091 C1078 0.962 . S
H1092 C1078 0.960 . S
H1093 C1079 0.972 . S
H1094 C1079 0.952 1_554 S
H1095 C1079 0.948 1_554 S
H1096 C1080 0.931 . S
H1097 C1085 0.930 . S
H1098 C1086 0.956 . S
H1099 C1086 0.961 . S
H1100 C1086 0.961 . S
H1101 C1087 0.958 . S
H1102 C1087 0.961 . S
H1103 C1087 0.960 . S
C1104 C1105 1.391 . S
C1104 C1106 1.394 . S
C1104 H1120 0.931 . S
C1105 C1104 1.391 . S
C1105 C1109 1.376 . S
C1106 C1104 1.394 . S
C1106 C1107 1.369 . S
C1106 C1110 1.531 1_554 S
C1107 C1106 1.369 . S
C1107 C1108 1.410 . S
C1107 C1115 1.503 1_554 S
C1108 C1107 1.410 . S
C1108 C1109 1.392 . S
C1108 C1111 1.511 . S
C1109 C1105 1.376 . S
C1109 C1108 1.392 . S
C1109 H1121 0.929 . S
C1110 C1106 1.531 1_556 S
C1110 H1122 0.960 . S
C1110 H1123 0.962 . S
C1110 H1124 0.960 . S
C1111 C1108 1.511 . S
C1111 H1125 0.961 . S
C1111 H1126 0.961 . S
C1111 H1127 0.961 . S
C1112 C1113 1.370 . S
C1112 C1114 1.363 . S
C1112 H1128 0.931 . S
C1113 C1112 1.370 . S
C1113 C1117 1.408 . S
C1114 C1112 1.363 . S
C1114 C1115 1.370 . S
C1114 C1118 1.524 1_556 S
C1115 C1107 1.503 1_556 S
C1115 C1114 1.370 . S
C1115 C1116 1.403 . S
C1116 C1115 1.403 . S
C1116 C1117 1.404 . S
C1116 C1119 1.539 . S
C1117 C1113 1.408 . S
C1117 C1116 1.404 . S
C1117 H1129 0.930 . S
C1118 C1114 1.524 1_554 S
C1118 H1130 0.956 . S
C1118 H1131 0.961 . S
C1118 H1132 0.962 1_554 S
C1119 C1116 1.539 . S
C1119 H1133 0.958 . S
C1119 H1134 0.961 . S
C1119 H1135 0.960 . S
H1120 C1104 0.931 . S
H1121 C1109 0.929 . S
H1122 C1110 0.960 . S
H1123 C1110 0.962 . S
H1124 C1110 0.960 . S
H1125 C1111 0.961 . S
H1126 C1111 0.961 . S
H1127 C1111 0.961 . S
H1128 C1112 0.931 . S
H1129 C1117 0.930 . S
H1130 C1118 0.956 . S
H1131 C1118 0.961 . S
H1132 C1118 0.962 1_556 S
H1133 C1119 0.958 . S
H1134 C1119 0.961 . S
H1135 C1119 0.960 . S
C1136 C1137 1.391 . S
C1136 C1138 1.394 . S
C1136 H1152 0.931 . S
C1137 C1136 1.391 . S
C1137 C1141 1.376 . S
C1138 C1136 1.394 . S
C1138 C1139 1.369 . S
C1138 C1142 1.531 . S
C1139 C1138 1.369 . S
C1139 C1140 1.410 . S
C1139 C1147 1.503 . S
C1140 C1139 1.410 . S
C1140 C1141 1.392 . S
C1140 C1143 1.511 . S
C1141 C1137 1.376 . S
C1141 C1140 1.392 . S
C1141 H1153 0.929 . S
C1142 C1138 1.531 . S
C1142 H1154 0.960 . S
C1142 H1155 0.962 . S
C1142 H1156 0.960 . S
C1143 C1140 1.511 . S
C1143 H1157 0.961 . S
C1143 H1158 0.961 . S
C1143 H1159 0.961 . S
C1144 C1145 1.370 . S
C1144 C1146 1.363 . S
C1144 H1160 0.931 . S
C1145 C1144 1.370 . S
C1145 C1149 1.408 . S
C1146 C1144 1.363 . S
C1146 C1147 1.370 . S
C1146 C1150 1.524 . S
C1147 C1139 1.503 . S
C1147 C1146 1.370 . S
C1147 C1148 1.403 . S
C1148 C1147 1.403 . S
C1148 C1149 1.404 . S
C1148 C1151 1.539 . S
C1149 C1145 1.408 . S
C1149 C1148 1.404 . S
C1149 H1161 0.930 . S
C1150 C1146 1.524 . S
C1150 H1162 0.956 . S
C1150 H1163 0.961 . S
C1150 H1164 0.961 . S
C1151 C1148 1.539 . S
C1151 H1165 0.958 . S
C1151 H1166 0.961 . S
C1151 H1167 0.960 . S
H1152 C1136 0.931 . S
H1153 C1141 0.929 . S
H1154 C1142 0.960 . S
H1155 C1142 0.962 . S
H1156 C1142 0.960 . S
H1157 C1143 0.961 . S
H1158 C1143 0.961 . S
H1159 C1143 0.961 . S
H1160 C1144 0.931 . S
H1161 C1149 0.930 . S
H1162 C1150 0.956 . S
H1163 C1150 0.961 . S
H1164 C1150 0.961 . S
H1165 C1151 0.958 . S
H1166 C1151 0.961 . S
H1167 C1151 0.960 . S
C1168 C1169 1.391 . S
C1168 C1170 1.394 . S
C1168 H1184 0.931 . S
C1169 C1168 1.391 . S
C1169 C1173 1.376 . S
C1170 C1168 1.394 . S
C1170 C1171 1.369 . S
C1170 C1174 1.531 . S
C1171 C1170 1.369 . S
C1171 C1172 1.410 . S
C1171 C1179 1.503 . S
C1172 C1171 1.410 . S
C1172 C1173 1.392 . S
C1172 C1175 1.511 . S
C1173 C1169 1.376 . S
C1173 C1172 1.392 . S
C1173 H1185 0.929 . S
C1174 C1170 1.531 . S
C1174 H1186 0.960 . S
C1174 H1187 0.962 . S
C1174 H1188 0.960 . S
C1175 C1172 1.511 . S
C1175 H1189 0.961 . S
C1175 H1190 0.961 . S
C1175 H1191 0.961 . S
C1176 C1177 1.370 . S
C1176 C1178 1.363 . S
C1176 H1192 0.931 . S
C1177 C1176 1.370 . S
C1177 C1181 1.408 . S
C1178 C1176 1.363 . S
C1178 C1179 1.370 . S
C1178 C1182 1.524 . S
C1179 C1171 1.503 . S
C1179 C1178 1.370 . S
C1179 C1180 1.403 . S
C1180 C1179 1.403 . S
C1180 C1181 1.404 . S
C1180 C1183 1.539 . S
C1181 C1177 1.408 . S
C1181 C1180 1.404 . S
C1181 H1193 0.930 . S
C1182 C1178 1.524 . S
C1182 H1194 0.956 . S
C1182 H1195 0.961 . S
C1182 H1196 0.961 . S
C1183 C1180 1.539 . S
C1183 H1197 0.958 . S
C1183 H1198 0.961 . S
C1183 H1199 0.960 . S
H1184 C1168 0.931 . S
H1185 C1173 0.929 . S
H1186 C1174 0.960 . S
H1187 C1174 0.962 . S
H1188 C1174 0.960 . S
H1189 C1175 0.961 . S
H1190 C1175 0.961 . S
H1191 C1175 0.961 . S
H1192 C1176 0.931 . S
H1193 C1181 0.930 . S
H1194 C1182 0.956 . S
H1195 C1182 0.961 . S
H1196 C1182 0.961 . S
H1197 C1183 0.958 . S
H1198 C1183 0.961 . S
H1199 C1183 0.960 . S
C1200 C1201 1.391 . S
C1200 C1202 1.394 . S
C1200 H1216 0.931 . S
C1201 C1200 1.391 . S
C1201 C1205 1.376 . S
C1202 C1200 1.394 . S
C1202 C1203 1.369 . S
C1202 C1206 1.531 . S
C1203 C1202 1.369 . S
C1203 C1204 1.410 . S
C1203 C1211 1.503 . S
C1204 C1203 1.410 . S
C1204 C1205 1.392 . S
C1204 C1207 1.511 . S
C1205 C1201 1.376 . S
C1205 C1204 1.392 . S
C1205 H1217 0.929 . S
C1206 C1202 1.531 . S
C1206 H1218 0.960 . S
C1206 H1219 0.962 . S
C1206 H1220 0.960 . S
C1207 C1204 1.511 . S
C1207 H1221 0.961 . S
C1207 H1222 0.961 . S
C1207 H1223 0.961 . S
C1208 C1209 1.370 . S
C1208 C1210 1.363 . S
C1208 H1224 0.931 . S
C1209 C1208 1.370 . S
C1209 C1213 1.408 . S
C1210 C1208 1.363 . S
C1210 C1211 1.370 . S
C1210 C1214 1.524 . S
C1211 C1203 1.503 . S
C1211 C1210 1.370 . S
C1211 C1212 1.403 . S
C1212 C1211 1.403 . S
C1212 C1213 1.404 . S
C1212 C1215 1.539 . S
C1213 C1209 1.408 . S
C1213 C1212 1.404 . S
C1213 H1225 0.930 . S
C1214 C1210 1.524 . S
C1214 H1226 0.956 . S
C1214 H1227 0.961 . S
C1214 H1228 0.961 . S
C1215 C1212 1.539 . S
C1215 H1229 0.958 . S
C1215 H1230 0.961 . S
C1215 H1231 0.960 . S
H1216 C1200 0.931 . S
H1217 C1205 0.929 . S
H1218 C1206 0.960 . S
H1219 C1206 0.962 . S
H1220 C1206 0.960 . S
H1221 C1207 0.961 . S
H1222 C1207 0.961 . S
H1223 C1207 0.961 . S
H1224 C1208 0.931 . S
H1225 C1213 0.930 . S
H1226 C1214 0.956 . S
H1227 C1214 0.961 . S
H1228 C1214 0.961 . S
H1229 C1215 0.958 . S
H1230 C1215 0.961 . S
H1231 C1215 0.960 . S
C209 C133 1.973 . S
C217 C3 2.019 . S
C241 C18 2.142 . S
C249 C148 2.162 . S
C273 C107 1.968 . S
C281 C29 2.022 . S
C305 C122 2.134 . S
C313 C44 2.163 . S
C337 C55 2.009 . S
C345 C185 2.007 . S
C369 C200 2.136 . S
C377 C70 2.160 . S
C401 C81 1.985 . S
C409 C159 2.017 . S
C433 C174 2.150 . S
C441 C96 2.154 . S
C465 C131 1.701 . S
C473 C1 1.662 . S
C497 C23 1.745 . S
C505 C153 1.777 . S
C529 C27 1.660 . S
C537 C105 1.680 . S
C561 C49 1.771 . S
C569 C127 1.766 . S
C593 C53 1.676 . S
C601 C183 1.666 . S
C625 C75 1.762 . S
C633 C205 1.771 . S
C657 C157 1.707 . S
C665 C79 1.657 . S
C689 C179 1.757 . S
C697 C101 1.773 . S
C721 C10 1.607 . S
C729 C88 1.623 . S
C753 C14 1.580 . S
C761 C92 1.598 . S
C785 C36 1.621 . S
C793 C62 1.618 . S
C817 C40 1.578 . S
C825 C66 1.596 . S
C849 C114 1.613 . S
C857 C192 1.622 . S
C881 C196 1.582 . S
C889 C118 1.599 . S
C913 C140 1.621 . S
C921 C166 1.619 . S
C945 C170 1.577 . S
C953 C144 1.595 . S
C977 C5 1.736 . S
C985 C198 1.695 . S
C1009 C161 1.739 . S
C1017 C16 1.681 . S
C1041 C172 1.677 . S
C1049 C31 1.741 . S
C1073 C187 1.746 . S
C1081 C42 1.676 . S
C1105 C120 1.691 . S
C1113 C57 1.744 . S
C1137 C135 1.738 . S
C1145 C68 1.681 . S
C1169 C83 1.734 . S
C1177 C146 1.684 . S
C1201 C94 1.711 . S
C1209 C109 1.738 . S
