# Generated by pormake.
# Topology ukj, (4)-cn, num edge types: 1
# Building blocks:
#     Node 0, Type 0, BuildingBlock: ICAMEG_clean_sbu_1, # of connection points: 4
#     Node 1, Type 0, BuildingBlock: ICAMEG_clean_sbu_1, # of connection points: 4
#     Node 2, Type 0, BuildingBlock: ICAMEG_clean_sbu_1, # of connection points: 4
#     Node 3, Type 0, BuildingBlock: ICAMEG_clean_sbu_1, # of connection points: 4
#     Node 4, Type 0, BuildingBlock: ICAMEG_clean_sbu_1, # of connection points: 4
#     Node 5, Type 0, BuildingBlock: ICAMEG_clean_sbu_1, # of connection points: 4
#     Node 6, Type 0, BuildingBlock: ICAMEG_clean_sbu_1, # of connection points: 4
#     Node 7, Type 0, BuildingBlock: ICAMEG_clean_sbu_1, # of connection points: 4
#     Node 8, Type 0, BuildingBlock: ICAMEG_clean_sbu_1, # of connection points: 4
#     Node 9, Type 0, BuildingBlock: ICAMEG_clean_sbu_1, # of connection points: 4
#     Node 10, Type 0, BuildingBlock: ICAMEG_clean_sbu_1, # of connection points: 4
#     Node 11, Type 0, BuildingBlock: ICAMEG_clean_sbu_1, # of connection points: 4
#     Node 12, Type 0, BuildingBlock: ICAMEG_clean_sbu_1, # of connection points: 4
#     Node 13, Type 0, BuildingBlock: ICAMEG_clean_sbu_1, # of connection points: 4
#     Node 14, Type 0, BuildingBlock: ICAMEG_clean_sbu_1, # of connection points: 4
#     Node 15, Type 0, BuildingBlock: ICAMEG_clean_sbu_1, # of connection points: 4
#     Node 16, Type 0, BuildingBlock: ICAMEG_clean_sbu_1, # of connection points: 4
#     Node 17, Type 0, BuildingBlock: ICAMEG_clean_sbu_1, # of connection points: 4
#     Node 18, Type 0, BuildingBlock: ICAMEG_clean_sbu_1, # of connection points: 4
#     Node 19, Type 0, BuildingBlock: ICAMEG_clean_sbu_1, # of connection points: 4
#     Node 20, Type 0, BuildingBlock: ICAMEG_clean_sbu_1, # of connection points: 4
#     Node 21, Type 0, BuildingBlock: ICAMEG_clean_sbu_1, # of connection points: 4
#     Node 22, Type 0, BuildingBlock: ICAMEG_clean_sbu_1, # of connection points: 4
#     Node 23, Type 0, BuildingBlock: ICAMEG_clean_sbu_1, # of connection points: 4
#     Node 24, Type 0, BuildingBlock: ICAMEG_clean_sbu_1, # of connection points: 4
#     Node 25, Type 0, BuildingBlock: ICAMEG_clean_sbu_1, # of connection points: 4
#     Node 26, Type 0, BuildingBlock: ICAMEG_clean_sbu_1, # of connection points: 4
#     Node 27, Type 0, BuildingBlock: ICAMEG_clean_sbu_1, # of connection points: 4
#     Node 28, Type 0, BuildingBlock: ICAMEG_clean_sbu_1, # of connection points: 4
#     Node 29, Type 0, BuildingBlock: ICAMEG_clean_sbu_1, # of connection points: 4
#     Node 30, Type 0, BuildingBlock: ICAMEG_clean_sbu_1, # of connection points: 4
#     Node 31, Type 0, BuildingBlock: ICAMEG_clean_sbu_1, # of connection points: 4
#     Edge 32, Type (0, 0), BuildingBlock: OJICUG_clean_linker_0, # of connection points: 2
#     Edge 33, Type (0, 0), BuildingBlock: OJICUG_clean_linker_0, # of connection points: 2
#     Edge 34, Type (0, 0), BuildingBlock: OJICUG_clean_linker_0, # of connection points: 2
#     Edge 35, Type (0, 0), BuildingBlock: OJICUG_clean_linker_0, # of connection points: 2
#     Edge 36, Type (0, 0), BuildingBlock: OJICUG_clean_linker_0, # of connection points: 2
#     Edge 37, Type (0, 0), BuildingBlock: OJICUG_clean_linker_0, # of connection points: 2
#     Edge 38, Type (0, 0), BuildingBlock: OJICUG_clean_linker_0, # of connection points: 2
#     Edge 39, Type (0, 0), BuildingBlock: OJICUG_clean_linker_0, # of connection points: 2
#     Edge 40, Type (0, 0), BuildingBlock: OJICUG_clean_linker_0, # of connection points: 2
#     Edge 41, Type (0, 0), BuildingBlock: OJICUG_clean_linker_0, # of connection points: 2
#     Edge 42, Type (0, 0), BuildingBlock: OJICUG_clean_linker_0, # of connection points: 2
#     Edge 43, Type (0, 0), BuildingBlock: OJICUG_clean_linker_0, # of connection points: 2
#     Edge 44, Type (0, 0), BuildingBlock: OJICUG_clean_linker_0, # of connection points: 2
#     Edge 45, Type (0, 0), BuildingBlock: OJICUG_clean_linker_0, # of connection points: 2
#     Edge 46, Type (0, 0), BuildingBlock: OJICUG_clean_linker_0, # of connection points: 2
#     Edge 47, Type (0, 0), BuildingBlock: OJICUG_clean_linker_0, # of connection points: 2
#     Edge 48, Type (0, 0), BuildingBlock: OJICUG_clean_linker_0, # of connection points: 2
#     Edge 49, Type (0, 0), BuildingBlock: OJICUG_clean_linker_0, # of connection points: 2
#     Edge 50, Type (0, 0), BuildingBlock: OJICUG_clean_linker_0, # of connection points: 2
#     Edge 51, Type (0, 0), BuildingBlock: OJICUG_clean_linker_0, # of connection points: 2
#     Edge 52, Type (0, 0), BuildingBlock: OJICUG_clean_linker_0, # of connection points: 2
#     Edge 53, Type (0, 0), BuildingBlock: OJICUG_clean_linker_0, # of connection points: 2
#     Edge 54, Type (0, 0), BuildingBlock: OJICUG_clean_linker_0, # of connection points: 2
#     Edge 55, Type (0, 0), BuildingBlock: OJICUG_clean_linker_0, # of connection points: 2
#     Edge 56, Type (0, 0), BuildingBlock: OJICUG_clean_linker_0, # of connection points: 2
#     Edge 57, Type (0, 0), BuildingBlock: OJICUG_clean_linker_0, # of connection points: 2
#     Edge 58, Type (0, 0), BuildingBlock: OJICUG_clean_linker_0, # of connection points: 2
#     Edge 59, Type (0, 0), BuildingBlock: OJICUG_clean_linker_0, # of connection points: 2
#     Edge 60, Type (0, 0), BuildingBlock: OJICUG_clean_linker_0, # of connection points: 2
#     Edge 61, Type (0, 0), BuildingBlock: OJICUG_clean_linker_0, # of connection points: 2
#     Edge 62, Type (0, 0), BuildingBlock: OJICUG_clean_linker_0, # of connection points: 2
#     Edge 63, Type (0, 0), BuildingBlock: OJICUG_clean_linker_0, # of connection points: 2
#     Edge 64, Type (0, 0), BuildingBlock: OJICUG_clean_linker_0, # of connection points: 2
#     Edge 65, Type (0, 0), BuildingBlock: OJICUG_clean_linker_0, # of connection points: 2
#     Edge 66, Type (0, 0), BuildingBlock: OJICUG_clean_linker_0, # of connection points: 2
#     Edge 67, Type (0, 0), BuildingBlock: OJICUG_clean_linker_0, # of connection points: 2
#     Edge 68, Type (0, 0), BuildingBlock: OJICUG_clean_linker_0, # of connection points: 2
#     Edge 69, Type (0, 0), BuildingBlock: OJICUG_clean_linker_0, # of connection points: 2
#     Edge 70, Type (0, 0), BuildingBlock: OJICUG_clean_linker_0, # of connection points: 2
#     Edge 71, Type (0, 0), BuildingBlock: OJICUG_clean_linker_0, # of connection points: 2
#     Edge 72, Type (0, 0), BuildingBlock: OJICUG_clean_linker_0, # of connection points: 2
#     Edge 73, Type (0, 0), BuildingBlock: OJICUG_clean_linker_0, # of connection points: 2
#     Edge 74, Type (0, 0), BuildingBlock: OJICUG_clean_linker_0, # of connection points: 2
#     Edge 75, Type (0, 0), BuildingBlock: OJICUG_clean_linker_0, # of connection points: 2
#     Edge 76, Type (0, 0), BuildingBlock: OJICUG_clean_linker_0, # of connection points: 2
#     Edge 77, Type (0, 0), BuildingBlock: OJICUG_clean_linker_0, # of connection points: 2
#     Edge 78, Type (0, 0), BuildingBlock: OJICUG_clean_linker_0, # of connection points: 2
#     Edge 79, Type (0, 0), BuildingBlock: OJICUG_clean_linker_0, # of connection points: 2
#     Edge 80, Type (0, 0), BuildingBlock: OJICUG_clean_linker_0, # of connection points: 2
#     Edge 81, Type (0, 0), BuildingBlock: OJICUG_clean_linker_0, # of connection points: 2
#     Edge 82, Type (0, 0), BuildingBlock: OJICUG_clean_linker_0, # of connection points: 2
#     Edge 83, Type (0, 0), BuildingBlock: OJICUG_clean_linker_0, # of connection points: 2
#     Edge 84, Type (0, 0), BuildingBlock: OJICUG_clean_linker_0, # of connection points: 2
#     Edge 85, Type (0, 0), BuildingBlock: OJICUG_clean_linker_0, # of connection points: 2
#     Edge 86, Type (0, 0), BuildingBlock: OJICUG_clean_linker_0, # of connection points: 2
#     Edge 87, Type (0, 0), BuildingBlock: OJICUG_clean_linker_0, # of connection points: 2
#     Edge 88, Type (0, 0), BuildingBlock: OJICUG_clean_linker_0, # of connection points: 2
#     Edge 89, Type (0, 0), BuildingBlock: OJICUG_clean_linker_0, # of connection points: 2
#     Edge 90, Type (0, 0), BuildingBlock: OJICUG_clean_linker_0, # of connection points: 2
#     Edge 91, Type (0, 0), BuildingBlock: OJICUG_clean_linker_0, # of connection points: 2
#     Edge 92, Type (0, 0), BuildingBlock: OJICUG_clean_linker_0, # of connection points: 2
#     Edge 93, Type (0, 0), BuildingBlock: OJICUG_clean_linker_0, # of connection points: 2
#     Edge 94, Type (0, 0), BuildingBlock: OJICUG_clean_linker_0, # of connection points: 2
#     Edge 95, Type (0, 0), BuildingBlock: OJICUG_clean_linker_0, # of connection points: 2
# Relax obj value: 0.075
# Max RMSD: 0.111
# Mean RMSD: 0.111
data_MOF--net-ukj--node1-ICAMEG_clean_sbu_1--edge1-OJICUG_clean_linker_0
_symmetry_space_group_name_H-M    P1
_symmetry_Int_Tables_number       1
_symmetry_cell_setting            triclinic
loop_
_symmetry_equiv_pos_as_xyz
'x, y, z'
_cell_length_a     23.815228
_cell_length_b     52.640019
_cell_length_c     45.067438
_cell_angle_alpha  89.998935
_cell_angle_beta   89.998765
_cell_angle_gamma 89.993369
loop_
_atom_site_label
_atom_site_type_symbol
_atom_site_fract_x
_atom_site_fract_y
_atom_site_fract_z
_atom_type_partial_charge
Co0 Co 0.14191 0.37936 0.2547 0.0
Co1 Co 0.17869 0.32051 0.28001 0.0
O2 O 0.13581 0.34228 0.25281 0.0
C3 C 0.15816 0.36607 0.19202 0.0
O4 O 0.19355 0.34878 0.20143 0.0
C5 C 0.06513 0.29692 0.27456 0.0
O6 O 0.04259 0.31964 0.2763 0.0
O7 O 0.14136 0.3375 0.31406 0.0
O8 O 0.14889 0.37821 0.29939 0.0
H9 H 0.29471 0.30239 0.37078 0.0
H10 H 0.04348 0.35765 0.22276 0.0
O11 O 0.13427 0.38095 0.21037 0.0
H12 H 0.96544 0.41596 0.29791 0.0
H13 H 0.09611 0.46913 0.22423 0.0
H14 H 0.21386 0.41511 0.28847 0.0
H15 H 0.06698 0.40773 0.29561 0.0
H16 H 0.08674 0.42247 0.22292 0.0
O17 O 0.1179 0.29417 0.27763 0.0
H18 H 0.24242 0.32941 0.33565 0.0
H19 H 0.20138 0.26476 0.28355 0.0
H20 H 0.22434 0.46171 0.29064 0.0
H21 H 0.94122 0.36567 0.22402 0.0
H22 H 0.16508 0.48905 0.2584 0.0
H23 H 0.90234 0.39605 0.2611 0.0
O24 O 0.22421 0.3767 0.25021 0.0
H25 H 0.18451 0.27771 0.18026 0.0
H26 H 0.29768 0.30806 0.26473 0.0
H27 H 0.3448 0.28773 0.22224 0.0
H28 H 0.28811 0.27229 0.17964 0.0
H29 H 0.13913 0.2985 0.22297 0.0
H30 H 0.25305 0.23705 0.3182 0.0
H31 H 0.30043 0.25587 0.36211 0.0
O32 O 0.24229 0.34563 0.28271 0.0
C33 C 0.14094 0.36135 0.3195 0.0
C34 C 0.27437 0.29398 0.35168 0.0
C35 C 0.25092 0.2573 0.3222 0.0
N36 N 0.21914 0.29873 0.30745 0.0
C37 C 0.24475 0.30919 0.33168 0.0
C38 C 0.22158 0.27309 0.3027 0.0
C39 C 0.27752 0.26787 0.34682 0.0
C40 C 0.02642 0.37033 0.23934 0.0
N41 N 0.06118 0.38234 0.25892 0.0
C42 C 0.96858 0.3748 0.23995 0.0
C43 C 0.94662 0.3916 0.26089 0.0
C44 C 0.9821 0.40298 0.28149 0.0
C45 C 0.03956 0.39804 0.28023 0.0
C46 C 0.12209 0.45742 0.23843 0.0
C47 C 0.18776 0.42689 0.27447 0.0
C48 C 0.11709 0.43098 0.23772 0.0
N49 N 0.1494 0.41608 0.25579 0.0
C50 C 0.19398 0.45326 0.27574 0.0
C51 C 0.16078 0.46859 0.25762 0.0
C52 C 0.25783 0.36405 0.2663 0.0
C53 C 0.20965 0.28428 0.19873 0.0
C54 C 0.27269 0.30161 0.24619 0.0
C55 C 0.29962 0.29 0.22223 0.0
C56 C 0.26779 0.2813 0.19836 0.0
N57 N 0.2156 0.30445 0.24642 0.0
C58 C 0.18414 0.29594 0.22309 0.0
Co59 Co 0.1053 0.87763 0.25392 0.0
Co60 Co 0.06915 0.93644 0.27962 0.0
O61 O 0.11161 0.91471 0.25218 0.0
C62 C 0.08872 0.89115 0.1913 0.0
O63 O 0.05356 0.90849 0.20083 0.0
C64 C 0.18272 0.96 0.27393 0.0
O65 O 0.20525 0.93727 0.27541 0.0
O66 O 0.10684 0.9193 0.31345 0.0
O67 O 0.09876 0.87865 0.29865 0.0
H68 H 0.9545 0.95433 0.37094 0.0
H69 H 0.20351 0.89932 0.2218 0.0
O70 O 0.11253 0.87616 0.20956 0.0
H71 H 0.28194 0.84043 0.2962 0.0
H72 H 0.15017 0.78789 0.22296 0.0
H73 H 0.03344 0.84188 0.28775 0.0
H74 H 0.18049 0.84903 0.29449 0.0
H75 H 0.15986 0.83454 0.22182 0.0
O76 O 0.12999 0.96275 0.27717 0.0
H77 H 0.00613 0.92739 0.33545 0.0
H78 H 0.04667 0.99219 0.2835 0.0
H79 H 0.02263 0.79529 0.28974 0.0
H80 H 0.30566 0.89096 0.22249 0.0
H81 H 0.08137 0.76797 0.25723 0.0
H82 H 0.34465 0.86023 0.25911 0.0
O83 O 0.02297 0.88043 0.24968 0.0
H84 H 0.06223 0.9796 0.1801 0.0
H85 H 0.95002 0.94902 0.26483 0.0
H86 H 0.90244 0.96955 0.22261 0.0
H87 H 0.95864 0.9851 0.17989 0.0
H88 H 0.10807 0.95861 0.22255 0.0
H89 H 0.99562 0.01982 0.31848 0.0
H90 H 0.94885 1.00089 0.36251 0.0
O91 O 0.00552 0.91136 0.28245 0.0
C92 C 0.10702 0.89544 0.31881 0.0
C93 C 0.97458 0.96279 0.35179 0.0
C94 C 0.99773 0.99955 0.32238 0.0
N95 N 0.02913 0.95815 0.30731 0.0
C96 C 0.00383 0.94763 0.33159 0.0
C97 C 0.02671 0.98381 0.30268 0.0
C98 C 0.97147 0.98892 0.34707 0.0
C99 C 0.22066 0.88653 0.23823 0.0
N100 N 0.18605 0.87453 0.2579 0.0
C101 C 0.27843 0.88185 0.23851 0.0
C102 C 0.30048 0.86487 0.25921 0.0
C103 C 0.26519 0.85354 0.27996 0.0
C104 C 0.2078 0.85869 0.27903 0.0
C105 C 0.12441 0.7996 0.23727 0.0
C106 C 0.05931 0.83011 0.27362 0.0
C107 C 0.12958 0.82603 0.23666 0.0
N108 N 0.09756 0.84092 0.25489 0.0
C109 C 0.0529 0.80375 0.27479 0.0
C110 C 0.08582 0.78843 0.25652 0.0
C111 C 0.98965 0.89303 0.266 0.0
C112 C 0.0373 0.97298 0.19863 0.0
C113 C 0.9748 0.95552 0.24623 0.0
C114 C 0.9476 0.96724 0.22243 0.0
C115 C 0.97917 0.97601 0.19849 0.0
N116 N 0.03187 0.95264 0.24624 0.0
C117 C 0.06307 0.96121 0.22284 0.0
Co118 Co 0.14185 0.87809 0.00618 0.0
Co119 Co 0.1793 0.93684 0.98084 0.0
O120 O 0.13614 0.91518 0.00804 0.0
C121 C 0.15773 0.89136 0.06892 0.0
O122 O 0.19329 0.90862 0.05959 0.0
C123 C 0.06595 0.96063 0.98613 0.0
O124 O 0.0433 0.93794 0.9843 0.0
O125 O 0.14187 0.9199 0.94678 0.0
O126 O 0.1491 0.8792 0.9615 0.0
H127 H 0.29578 0.95459 0.89014 0.0
H128 H 0.04344 0.90005 0.03793 0.0
O129 O 0.1339 0.87652 0.05051 0.0
H130 H 0.96521 0.84214 0.96242 0.0
H131 H 0.09476 0.78845 0.03657 0.0
H132 H 0.21362 0.84215 0.97256 0.0
H133 H 0.06689 0.84989 0.96515 0.0
H134 H 0.08595 0.83513 0.03786 0.0
O135 O 0.11876 0.96331 0.98316 0.0
H136 H 0.24317 0.92773 0.92529 0.0
H137 H 0.20247 0.99254 0.9772 0.0
H138 H 0.22355 0.79553 0.97041 0.0
H139 H 0.94103 0.8925 0.03625 0.0
H140 H 0.16372 0.76835 1.00253 0.0
H141 H 0.902 0.86238 0.99892 0.0
O142 O 0.22416 0.88058 0.01078 0.0
H143 H 0.18539 0.97972 0.08055 0.0
H144 H 0.29838 0.94905 0.99615 0.0
H145 H 0.34563 0.96934 0.03862 0.0
H146 H 0.28904 0.98493 0.08119 0.0
H147 H 0.13987 0.95897 0.03784 0.0
H148 H 0.25441 0.0201 0.94252 0.0
H149 H 0.3018 1.00113 0.8987 0.0
O150 O 0.24261 0.91156 0.97822 0.0
C151 C 0.14132 0.89606 0.94136 0.0
C152 C 0.27544 0.96308 0.9092 0.0
C153 C 0.25217 0.99985 0.93858 0.0
N154 N 0.22003 0.9585 0.9534 0.0
C155 C 0.24564 0.94795 0.92922 0.0
C156 C 0.22266 0.98414 0.95809 0.0
C157 C 0.27876 0.98919 0.914 0.0
C158 C 0.02634 0.88745 0.02128 0.0
N159 N 0.06111 0.8753 1.00181 0.0
C160 C 0.96842 0.88324 0.02043 0.0
C161 C 0.94638 0.86658 0.99936 0.0
C162 C 0.98192 0.85503 0.97892 0.0
C163 C 0.03946 0.85969 0.98043 0.0
C164 C 0.12099 0.80009 0.02242 0.0
C165 C 0.18729 0.83045 0.98651 0.0
C166 C 0.11631 0.82654 0.02312 0.0
N167 N 0.14894 0.84135 1.00511 0.0
C168 C 0.19319 0.80406 0.98525 0.0
C169 C 0.15967 0.78882 1.00331 0.0
C170 C 0.25795 0.89312 0.99466 0.0
C171 C 0.21049 0.97308 0.06209 0.0
C172 C 0.27342 0.95557 0.01468 0.0
C173 C 0.30044 0.96715 0.03862 0.0
C174 C 0.26866 0.97594 0.06247 0.0
N175 N 0.21631 0.95284 0.01443 0.0
C176 C 0.1849 0.96144 0.03774 0.0
Co177 Co 0.10605 0.37984 0.00699 0.0
Co178 Co 0.07044 0.321 0.98125 0.0
O179 O 0.11277 0.34277 0.00869 0.0
C180 C 0.0897 0.36624 0.06958 0.0
O181 O 0.05467 0.34886 0.06003 0.0
C182 C 0.18417 0.29752 0.98708 0.0
O183 O 0.20668 0.32026 0.98579 0.0
O184 O 0.10795 0.33824 0.94743 0.0
O185 O 0.09936 0.37886 0.96227 0.0
H186 H 0.95592 0.30302 0.88992 0.0
H187 H 0.20463 0.35834 0.03899 0.0
O188 O 0.1134 0.38128 0.05134 0.0
H189 H 0.28216 0.41733 0.96443 0.0
H190 H 0.14994 0.46965 0.0381 0.0
H191 H 0.03364 0.41548 0.97331 0.0
H192 H 0.18077 0.40865 0.96638 0.0
H193 H 0.16026 0.42302 0.0391 0.0
O194 O 0.13147 0.29477 0.98365 0.0
H195 H 0.00735 0.33 0.92543 0.0
H196 H 0.04832 0.26522 0.97733 0.0
H197 H 0.02219 0.46204 0.97146 0.0
H198 H 0.30673 0.3668 0.03806 0.0
H199 H 0.08071 0.48945 1.00397 0.0
H200 H 0.34531 0.39753 1.00133 0.0
O201 O 0.02377 0.37687 0.01133 0.0
H202 H 0.06405 0.27775 0.08072 0.0
H203 H 0.95143 0.3082 0.99607 0.0
H204 H 0.9041 0.28755 0.03829 0.0
H205 H 0.96051 0.27206 0.08097 0.0
H206 H 0.10963 0.29886 0.03828 0.0
H207 H 0.99743 0.23755 0.94233 0.0
H208 H 0.95057 0.25644 0.89831 0.0
O209 O 0.00658 0.34597 0.97848 0.0
C210 C 0.10782 0.3621 0.94209 0.0
C211 C 0.97605 0.29457 0.90906 0.0
C212 C -0.00057 0.25782 0.93845 0.0
N213 N 0.03056 0.29925 0.95355 0.0
C214 C 0.00519 0.30976 0.92927 0.0
C215 C 0.02832 0.27359 0.95815 0.0
C216 C 0.97311 0.26843 0.91376 0.0
C217 C 0.22158 0.37116 0.02253 0.0
N218 N 0.18675 0.38313 1.00293 0.0
C219 C 0.27932 0.37589 0.02211 0.0
C220 C 0.30113 0.39289 1.00136 0.0
C221 C 0.26561 0.40421 0.98072 0.0
C222 C 0.20825 0.39901 0.98177 0.0
C223 C 0.12428 0.4579 0.02378 0.0
C224 C 0.05942 0.42729 0.98743 0.0
C225 C 0.12981 0.43148 0.02431 0.0
N226 N 0.0979 0.41655 0.00609 0.0
C227 C 0.05266 0.45363 0.98634 0.0
C228 C 0.08545 0.46901 1.00462 0.0
C229 C 0.99055 0.36422 0.99502 0.0
C230 C 0.03902 0.28434 0.06221 0.0
C231 C 0.9763 0.30173 0.01466 0.0
C232 C 0.94925 0.28994 0.03846 0.0
C233 C 0.98092 0.28121 0.06237 0.0
N234 N 0.03335 0.30471 0.01462 0.0
C235 C 0.06466 0.29618 0.03801 0.0
Co236 Co 0.85594 0.62775 0.75665 0.0
Co237 Co 0.81926 0.68649 0.73097 0.0
O238 O 0.86204 0.66484 0.75836 0.0
C239 C 0.83979 0.64124 0.81931 0.0
O240 O 0.8045 0.65856 0.80986 0.0
C241 C 0.93269 0.71024 0.73655 0.0
O242 O 0.95538 0.68754 0.73511 0.0
O243 O 0.85686 0.66938 0.69709 0.0
O244 O 0.84899 0.62874 0.71194 0.0
H245 H 0.70388 0.70412 0.63985 0.0
H246 H 0.95434 0.64957 0.78849 0.0
O247 O 0.86357 0.62629 0.801 0.0
H248 H 0.03247 0.59105 0.7136 0.0
H249 H 0.90157 0.53808 0.78758 0.0
H250 H 0.78396 0.5919 0.72304 0.0
H251 H 0.93089 0.59923 0.7159 0.0
H252 H 0.91107 0.58474 0.78863 0.0
O253 O 0.87993 0.7129 0.7333 0.0
H254 H 0.75592 0.6773 0.67528 0.0
H255 H 0.79638 0.74221 0.72705 0.0
H256 H 0.77336 0.5453 0.72114 0.0
H257 H 0.05663 0.64162 0.78723 0.0
H258 H 0.83255 0.51806 0.75352 0.0
H259 H 0.09556 0.61116 0.75027 0.0
O260 O 0.77362 0.63046 0.7611 0.0
H261 H 0.81263 0.72969 0.83048 0.0
H262 H 0.70014 0.69894 0.74594 0.0
H263 H 0.65267 0.71944 0.78822 0.0
H264 H 0.70901 0.73508 0.83085 0.0
H265 H 0.85836 0.70874 0.78797 0.0
H266 H 0.74494 0.76973 0.69211 0.0
H267 H 0.698 0.75069 0.6482 0.0
O268 O 0.75577 0.66132 0.7283 0.0
C269 C 0.85709 0.64552 0.69175 0.0
C270 C 0.72404 0.71263 0.65894 0.0
C271 C 0.74715 0.74946 0.68825 0.0
N272 N 0.77891 0.70812 0.70333 0.0
C273 C 0.75352 0.69753 0.67912 0.0
C274 C 0.77636 0.73378 0.70792 0.0
C275 C 0.7208 0.73876 0.66362 0.0
C276 C 0.97142 0.63685 0.77197 0.0
N277 N 0.93667 0.62475 0.75245 0.0
C278 C 0.02927 0.63241 0.77136 0.0
C279 C 0.05127 0.61556 0.75048 0.0
C280 C 0.01578 0.60408 0.72996 0.0
C281 C 0.95831 0.60898 0.73122 0.0
C282 C 0.87563 0.54975 0.77332 0.0
C283 C 0.81003 0.58017 0.73711 0.0
C284 C 0.8807 0.57618 0.77387 0.0
N285 N 0.84842 0.59103 0.75572 0.0
C286 C 0.80375 0.5538 0.73599 0.0
C287 C 0.83691 0.53852 0.75419 0.0
C288 C 0.74011 0.64299 0.74483 0.0
C289 C 0.78763 0.72303 0.81199 0.0
C290 C 0.72498 0.70548 0.7645 0.0
C291 C 0.69785 0.71718 0.78833 0.0
C292 C 0.72949 0.72599 0.81222 0.0
N293 N 0.78207 0.70266 0.7644 0.0
C294 C 0.81335 0.71128 0.78775 0.0
Co295 Co 0.89129 0.12972 0.75648 0.0
Co296 Co 0.92798 0.07086 0.73117 0.0
O297 O 0.88523 0.09265 0.7584 0.0
C298 C 0.90775 0.11645 0.81915 0.0
O299 O 0.94317 0.09918 0.80971 0.0
C300 C 0.81442 0.04729 0.73677 0.0
O301 O 0.79188 0.07001 0.735 0.0
O302 O 0.89052 0.08784 0.69715 0.0
O303 O 0.89812 0.12855 0.71178 0.0
H304 H 0.04358 0.05269 0.64026 0.0
H305 H 0.79301 0.108 0.78854 0.0
O306 O 0.88379 0.13133 0.80082 0.0
H307 H 0.71456 0.16618 0.71337 0.0
H308 H 0.84535 0.21949 0.78689 0.0
H309 H 0.96307 0.16549 0.72261 0.0
H310 H 0.81616 0.15804 0.71562 0.0
H311 H 0.83614 0.17282 0.78828 0.0
O312 O 0.86718 0.04453 0.73365 0.0
H313 H 0.99148 0.07973 0.67545 0.0
H314 H 0.95064 0.01511 0.72765 0.0
H315 H 0.97339 0.21209 0.72038 0.0
H316 H 0.69071 0.11592 0.78733 0.0
H317 H 0.91414 0.23942 0.75263 0.0
H318 H 0.65162 0.14622 0.75023 0.0
O319 O 0.97362 0.12707 0.76087 0.0
H320 H 0.93421 0.02811 0.83095 0.0
H321 H 0.04703 0.05843 0.74631 0.0
H322 H 0.09433 0.03813 0.78877 0.0
H323 H 0.03782 0.0227 0.83145 0.0
H324 H 0.88866 0.04888 0.78827 0.0
H325 H 0.00217 0.98738 0.69297 0.0
H326 H 0.04933 0.00616 0.64897 0.0
O327 O 0.99156 0.09598 0.72837 0.0
C328 C 0.89013 0.11168 0.69168 0.0
C329 C 0.02333 0.04428 0.6594 0.0
C330 C 2e-05 0.00763 0.68895 0.0
N331 N 0.9683 0.04906 0.7037 0.0
C332 C 0.99381 0.05951 0.67943 0.0
C333 C 0.97076 0.02343 0.70847 0.0
C334 C 0.02649 0.01818 0.66428 0.0
C335 C 0.77587 0.12065 0.77195 0.0
N336 N 0.81053 0.13268 0.75233 0.0
C337 C 0.71801 0.12507 0.77137 0.0
C338 C 0.69592 0.14183 0.75042 0.0
C339 C 0.73132 0.15323 0.7298 0.0
C340 C 0.7888 0.14835 0.73103 0.0
C341 C 0.87132 0.20778 0.77269 0.0
C342 C 0.93699 0.17726 0.73663 0.0
C343 C 0.86642 0.18134 0.77344 0.0
N344 N 0.89872 0.16645 0.75535 0.0
C345 C 0.94311 0.20363 0.73532 0.0
C346 C 0.90991 0.21896 0.75345 0.0
C347 C 0.00717 0.11442 0.74474 0.0
C348 C 0.95928 0.03467 0.81244 0.0
C349 C 0.02211 0.05199 0.76489 0.0
C350 C 0.04915 0.04039 0.78883 0.0
C351 C 0.01742 0.0317 0.81274 0.0
N352 N 0.96503 0.05482 0.76473 0.0
C353 C 0.93366 0.04632 0.7881 0.0
Co354 Co 0.8556 0.12984 1.00421 0.0
Co355 Co 0.82004 0.07093 0.02979 0.0
O356 O 0.86231 0.09278 1.00241 0.0
C357 C 0.8392 0.11638 0.94158 0.0
O358 O 0.80417 0.09897 0.95109 0.0
C359 C 0.93384 0.04757 0.02395 0.0
O360 O 0.95622 0.07033 0.02543 0.0
O361 O 0.85749 0.08811 0.06366 0.0
O362 O 0.84897 0.12876 0.04893 0.0
H363 H 0.70548 0.05268 0.12104 0.0
H364 H 0.95412 0.1084 0.97212 0.0
O365 O 0.8629 0.13138 0.95986 0.0
H366 H 0.03179 0.16723 0.0468 0.0
H367 H 0.89956 0.2197 0.97339 0.0
H368 H 0.78323 0.16541 0.03802 0.0
H369 H 0.93039 0.15855 0.04488 0.0
H370 H 0.9098 0.17308 0.97222 0.0
O371 O 0.88115 0.04475 0.0273 0.0
H372 H 0.75685 0.07977 0.08562 0.0
H373 H 0.79812 0.01513 0.03355 0.0
H374 H 0.77186 0.21196 0.04003 0.0
H375 H 0.05622 0.11685 0.97301 0.0
H376 H 0.83039 0.23944 0.0076 0.0
H377 H 0.09487 0.14751 0.00981 0.0
O378 O 0.77331 0.12687 0.9999 0.0
H379 H 0.81373 0.02789 0.93018 0.0
H380 H 0.70106 0.0581 0.01493 0.0
H381 H 0.65377 0.03753 0.97265 0.0
H382 H 0.71021 0.02216 0.92992 0.0
H383 H 0.85927 0.04893 0.97269 0.0
H384 H 0.74729 0.98735 0.06846 0.0
H385 H 0.7003 0.00612 0.11252 0.0
O386 O 0.75612 0.09587 0.03262 0.0
C387 C 0.85739 0.11196 0.06907 0.0
C388 C 0.72566 0.04429 0.10188 0.0
C389 C 0.74921 0.00761 0.0724 0.0
N390 N 0.78021 0.04909 0.05742 0.0
C391 C 0.75477 0.05954 0.08171 0.0
C392 C 0.77806 0.02345 0.05275 0.0
C393 C 0.72282 0.01816 0.09711 0.0
C394 C 0.9711 0.12118 0.9886 0.0
N395 N 0.93631 0.13311 0.00825 0.0
C396 C 0.02885 0.12591 0.989 0.0
C397 C 0.05069 0.14286 0.00979 0.0
C398 C 0.01521 0.15414 0.03048 0.0
C399 C 0.95784 0.14894 0.02944 0.0
C400 C 0.87389 0.20793 0.98767 0.0
C401 C 0.80902 0.17724 0.02393 0.0
C402 C 0.87938 0.18151 0.98705 0.0
N403 N 0.84747 0.16654 1.00523 0.0
C404 C 0.80229 0.20359 0.02511 0.0
C405 C 0.83509 0.219 0.00688 0.0
C406 C 0.74009 0.11417 0.01616 0.0
C407 C 0.7887 0.03443 0.94872 0.0
C408 C 0.72594 0.05169 0.99632 0.0
C409 C 0.69891 0.03994 0.97249 0.0
C410 C 0.7306 0.03128 0.94855 0.0
N411 N 0.78298 0.0547 0.99636 0.0
C412 C 0.81431 0.04623 0.97295 0.0
Co413 Co 0.89225 0.62764 1.00439 0.0
Co414 Co 0.92881 0.6864 0.03004 0.0
O415 O 0.88605 0.66473 1.00267 0.0
C416 C 0.90845 0.64114 0.94175 0.0
O417 O 0.94373 0.65845 0.95122 0.0
C418 C 0.81535 0.71014 0.02445 0.0
O419 O 0.79267 0.68743 0.02587 0.0
O420 O 0.89122 0.66929 0.06393 0.0
O421 O 0.89913 0.62865 0.0491 0.0
H422 H 0.0441 0.70411 0.12117 0.0
H423 H 0.7938 0.64939 0.97249 0.0
O424 O 0.88467 0.62618 0.96004 0.0
H425 H 0.71586 0.59068 0.04724 0.0
H426 H 0.84695 0.53794 0.97347 0.0
H427 H 0.96424 0.59183 0.03806 0.0
H428 H 0.81735 0.59909 0.04513 0.0
H429 H 0.83732 0.58459 0.97238 0.0
O430 O 0.8681 0.7128 0.0277 0.0
H431 H 0.99211 0.67725 0.08576 0.0
H432 H 0.95164 0.74212 0.0339 0.0
H433 H 0.97496 0.54524 0.04 0.0
H434 H 0.69159 0.64121 0.97357 0.0
H435 H 0.91594 0.51796 0.00758 0.0
H436 H 0.6528 0.61061 0.01041 0.0
O437 O 0.97455 0.63037 0.99996 0.0
H438 H 0.93538 0.72955 0.93051 0.0
H439 H 0.04792 0.69884 0.01506 0.0
H440 H 0.09536 0.71931 0.97275 0.0
H441 H 0.039 0.73493 0.93012 0.0
H442 H 0.88968 0.70862 0.97304 0.0
H443 H 0.00305 0.76967 0.06881 0.0
H444 H 0.04996 0.75067 0.11276 0.0
O445 O 0.99233 0.66123 0.03275 0.0
C446 C 0.891 0.64544 0.06928 0.0
C447 C 0.02395 0.71261 0.10207 0.0
C448 C 0.00085 0.74941 0.07271 0.0
N449 N 0.96912 0.70805 0.05767 0.0
C450 C 0.9945 0.69749 0.0819 0.0
C451 C 0.97166 0.7337 0.05305 0.0
C452 C 0.02718 0.73873 0.09735 0.0
C453 C 0.77676 0.63663 0.98899 0.0
N454 N 0.81152 0.62459 0.00856 0.0
C455 C 0.71895 0.63206 0.9895 0.0
C456 C 0.69703 0.61514 0.01031 0.0
C457 C 0.73249 0.60375 0.03091 0.0
C458 C 0.78992 0.60879 0.02977 0.0
C459 C 0.87282 0.54962 0.98774 0.0
C460 C 0.93824 0.58008 0.02398 0.0
C461 C 0.86769 0.57605 0.98717 0.0
N462 N 0.89987 0.59092 1.00533 0.0
C463 C 0.9446 0.55371 0.02512 0.0
C464 C 0.91153 0.53842 0.0069 0.0
C465 C 0.00803 0.6429 0.01624 0.0
C466 C 0.96038 0.7229 0.949 0.0
C467 C 0.02307 0.70537 0.99649 0.0
C468 C 0.05019 0.71706 0.97265 0.0
C469 C 0.01853 0.72586 0.94876 0.0
N470 N 0.96597 0.70255 0.9966 0.0
C471 C 0.93469 0.71116 0.97325 0.0
Co472 Co 0.14242 0.87996 0.75393 0.0
Co473 Co 0.17793 0.82108 0.77964 0.0
O474 O 0.13568 0.84289 0.75219 0.0
C475 C 0.15894 0.86642 0.69133 0.0
O476 O 0.19393 0.84901 0.70087 0.0
C477 C 0.06419 0.7976 0.7737 0.0
O478 O 0.04167 0.82035 0.77491 0.0
O479 O 0.14038 0.8383 0.81346 0.0
O480 O 0.14894 0.87892 0.79865 0.0
H481 H 0.29225 0.80297 0.87101 0.0
H482 H 0.04396 0.85851 0.72179 0.0
O483 O 0.13522 0.88144 0.70957 0.0
H484 H 0.96619 0.91759 0.79619 0.0
H485 H 0.09868 0.9698 0.72291 0.0
H486 H 0.2147 0.91554 0.78774 0.0
H487 H 0.06754 0.90874 0.79449 0.0
H488 H 0.08836 0.92318 0.72181 0.0
O489 O 0.11688 0.79485 0.77718 0.0
H490 H 0.24095 0.83 0.8355 0.0
H491 H 0.19998 0.76529 0.7835 0.0
H492 H 0.22613 0.96209 0.78969 0.0
H493 H 0.94192 0.86713 0.72246 0.0
H494 H 0.16776 0.98956 0.75715 0.0
H495 H 0.90326 0.89794 0.75908 0.0
O496 O 0.22471 0.87697 0.74967 0.0
H497 H 0.1845 0.77793 0.6801 0.0
H498 H 0.29695 0.80826 0.76486 0.0
H499 H 0.34436 0.78766 0.72264 0.0
H500 H 0.28803 0.77223 0.6799 0.0
H501 H 0.13884 0.799 0.72255 0.0
H502 H 0.25073 0.73756 0.8185 0.0
H503 H 0.29754 0.7564 0.86257 0.0
O504 O 0.24181 0.84603 0.78248 0.0
C505 C 0.14051 0.86215 0.81882 0.0
C506 C 0.27215 0.79454 0.85185 0.0
C507 C 0.24877 0.75783 0.82241 0.0
N508 N 0.21774 0.79929 0.80733 0.0
C509 C 0.24308 0.80976 0.83163 0.0
C510 C 0.21996 0.77363 0.8027 0.0
C511 C 0.27505 0.76841 0.84712 0.0
C512 C 0.02696 0.87134 0.73822 0.0
N513 N 0.0617 0.88326 0.7579 0.0
C514 C 0.96925 0.87617 0.73849 0.0
C515 C 0.94738 0.89321 0.75919 0.0
C516 C 0.98279 0.90444 0.77994 0.0
C517 C 0.04012 0.89915 0.77903 0.0
C518 C 0.12428 0.95804 0.73723 0.0
C519 C 0.18898 0.92737 0.77361 0.0
C520 C 0.11875 0.93162 0.73665 0.0
N521 N 0.15058 0.91666 0.75489 0.0
C522 C 0.19573 0.95372 0.77476 0.0
C523 C 0.16303 0.96911 0.75646 0.0
C524 C 0.25788 0.86431 0.766 0.0
C525 C 0.20948 0.7845 0.69864 0.0
C526 C 0.27212 0.80182 0.74626 0.0
C527 C 0.29922 0.79005 0.72245 0.0
C528 C 0.26758 0.78136 0.69851 0.0
N529 N 0.21507 0.80481 0.74626 0.0
C530 C 0.18381 0.79631 0.72285 0.0
Co531 Co 0.10678 0.37779 0.75477 0.0
Co532 Co 0.0692 0.43661 0.77989 0.0
O533 O 0.11239 0.41488 0.75279 0.0
C534 C 0.09042 0.39091 0.69205 0.0
O535 O 0.05482 0.40813 0.7014 0.0
C536 C 0.18256 0.46041 0.77456 0.0
O537 O 0.20527 0.43774 0.7764 0.0
O538 O 0.10653 0.41976 0.81405 0.0
O539 O 0.09971 0.37901 0.79944 0.0
H540 H 0.95244 0.45466 0.87042 0.0
H541 H 0.20496 0.39973 0.72281 0.0
O542 O 0.1145 0.37613 0.71044 0.0
H543 H 0.28374 0.34193 0.79828 0.0
H544 H 0.15404 0.2881 0.72463 0.0
H545 H 0.03532 0.34189 0.78862 0.0
H546 H 0.18205 0.34974 0.79579 0.0
H547 H 0.16264 0.33478 0.72314 0.0
O548 O 0.12974 0.46308 0.77752 0.0
H549 H 0.00523 0.42769 0.83545 0.0
H550 H 0.04596 0.49231 0.78326 0.0
H551 H 0.02562 0.29527 0.79097 0.0
H552 H 0.30737 0.39213 0.72425 0.0
H553 H 0.08539 0.26804 0.75886 0.0
H554 H 0.34664 0.36202 0.76152 0.0
O555 O 0.02444 0.3802 0.75027 0.0
H556 H 0.06342 0.47917 0.67999 0.0
H557 H 0.95015 0.44875 0.76441 0.0
H558 H 0.90302 0.46886 0.72177 0.0
H559 H 0.95975 0.48433 0.6792 0.0
H560 H 0.10881 0.45859 0.72285 0.0
H561 H 0.99383 0.51999 0.81774 0.0
H562 H 0.94634 0.50116 0.86162 0.0
O563 O 0.00587 0.41135 0.78258 0.0
C564 C 0.10727 0.39592 0.81953 0.0
C565 C 0.97283 0.46308 0.85134 0.0
C566 C 0.99612 0.49975 0.8218 0.0
N567 N 0.02839 0.45836 0.80721 0.0
C568 C 0.00273 0.44789 0.83142 0.0
C569 C 0.02573 0.48398 0.80239 0.0
C570 C 0.96947 0.48918 0.8464 0.0
C571 C 0.22217 0.38716 0.73945 0.0
N572 N 0.18755 0.37506 0.75903 0.0
C573 C 0.2801 0.38292 0.74017 0.0
C574 C 0.30228 0.36628 0.76121 0.0
C575 C 0.26691 0.35479 0.78178 0.0
C576 C 0.20936 0.35949 0.78042 0.0
C577 C 0.12785 0.29976 0.73877 0.0
C578 C 0.06162 0.33017 0.77467 0.0
C579 C 0.1324 0.32621 0.73796 0.0
N580 N 0.09983 0.34105 0.75597 0.0
C581 C 0.05585 0.30378 0.77604 0.0
C582 C 0.08934 0.28851 0.75799 0.0
C583 C 0.99062 0.39279 0.76631 0.0
C584 C 0.03825 0.47259 0.69846 0.0
C585 C 0.97517 0.45522 0.74588 0.0
C586 C 0.94822 0.4667 0.72184 0.0
C587 C 0.98008 0.47542 0.69799 0.0
N588 N 0.03228 0.45252 0.74621 0.0
C589 C 0.06377 0.46105 0.72289 0.0
Co590 Co 0.1416 0.37723 0.50695 0.0
Co591 Co 0.17817 0.43602 0.48136 0.0
O592 O 0.13558 0.41432 0.50876 0.0
C593 C 0.15854 0.39064 0.56955 0.0
O594 O 0.19385 0.40791 0.56 0.0
C595 C 0.06468 0.45969 0.48706 0.0
O596 O 0.04207 0.43697 0.48551 0.0
O597 O 0.14049 0.41896 0.44748 0.0
O598 O 0.14813 0.37828 0.46224 0.0
H599 H 0.29312 0.45389 0.39015 0.0
H600 H 0.04364 0.39908 0.53914 0.0
O601 O 0.13444 0.37573 0.55131 0.0
H602 H 0.9645 0.34061 0.46451 0.0
H603 H 0.0959 0.28756 0.53781 0.0
H604 H 0.21312 0.34136 0.47307 0.0
H605 H 0.06609 0.34884 0.46636 0.0
H606 H 0.08666 0.33422 0.53901 0.0
O607 O 0.11743 0.46239 0.48383 0.0
H608 H 0.2413 0.42697 0.42557 0.0
H609 H 0.20089 0.49176 0.47758 0.0
H610 H 0.22346 0.29476 0.47101 0.0
H611 H 0.94135 0.39109 0.53831 0.0
H612 H 0.16447 0.26752 0.50349 0.0
H613 H 0.90196 0.36061 0.50154 0.0
O614 O 0.22396 0.37986 0.51117 0.0
H615 H 0.18508 0.47903 0.58098 0.0
H616 H 0.29733 0.44847 0.49624 0.0
H617 H 0.34491 0.46888 0.53854 0.0
H618 H 0.2887 0.48442 0.58126 0.0
H619 H 0.13924 0.45816 0.53845 0.0
H620 H 0.25216 0.51937 0.44267 0.0
H621 H 0.29895 0.50044 0.39864 0.0
O622 O 0.2417 0.41088 0.47855 0.0
C623 C 0.14014 0.39511 0.44209 0.0
C624 C 0.27303 0.46236 0.40929 0.0
C625 C 0.24997 0.49911 0.43874 0.0
N626 N 0.21835 0.45773 0.45373 0.0
C627 C 0.24367 0.4472 0.42946 0.0
C628 C 0.22086 0.48337 0.45839 0.0
C629 C 0.27624 0.48848 0.41405 0.0
C630 C 0.02634 0.38637 0.52267 0.0
N631 N 0.06081 0.3743 0.50299 0.0
C632 C 0.96849 0.38191 0.52231 0.0
C633 C 0.94623 0.36506 0.50153 0.0
C634 C 0.98141 0.35362 0.48081 0.0
C635 C 0.03889 0.35856 0.48181 0.0
C636 C 0.12176 0.29922 0.5235 0.0
C637 C 0.18714 0.32964 0.48718 0.0
C638 C 0.11684 0.32566 0.52414 0.0
N639 N 0.149 0.3405 0.50594 0.0
C640 C 0.19328 0.30326 0.48597 0.0
C641 C 0.16022 0.28799 0.50423 0.0
C642 C 0.25741 0.39247 0.49493 0.0
C643 C 0.21003 0.47242 0.56244 0.0
C644 C 0.27254 0.45497 0.51484 0.0
C645 C 0.29974 0.46662 0.53869 0.0
C646 C 0.26817 0.47538 0.56262 0.0
N647 N 0.21545 0.45215 0.51479 0.0
C648 C 0.18424 0.46071 0.5382 0.0
Co649 Co 0.10644 0.87964 0.50619 0.0
Co650 Co 0.06946 0.82082 0.48091 0.0
O651 O 0.11243 0.84256 0.50808 0.0
C652 C 0.09035 0.86637 0.56889 0.0
O653 O 0.05486 0.84911 0.55951 0.0
C654 C 0.18296 0.79713 0.48636 0.0
O655 O 0.20557 0.81983 0.48462 0.0
O656 O 0.10679 0.83779 0.44683 0.0
O657 O 0.0993 0.87849 0.46151 0.0
H658 H 0.95328 0.80279 0.39017 0.0
H659 H 0.20492 0.85787 0.53804 0.0
O660 O 0.11424 0.88123 0.55052 0.0
H661 H 0.28292 0.9159 0.4626 0.0
H662 H 0.15268 0.96938 0.53658 0.0
H663 H 0.03449 0.91545 0.47249 0.0
H664 H 0.1813 0.90794 0.46519 0.0
H665 H 0.16189 0.92271 0.5379 0.0
O666 O 0.13018 0.79442 0.48327 0.0
H667 H 0.00567 0.82977 0.4253 0.0
H668 H 0.04659 0.76509 0.47737 0.0
H669 H 0.02417 0.96206 0.47032 0.0
H670 H 0.30726 0.86564 0.53651 0.0
H671 H 0.08366 0.98935 0.50248 0.0
H672 H 0.34616 0.89582 0.49922 0.0
O673 O 0.02413 0.87703 0.51074 0.0
H674 H 0.0636 0.77806 0.58069 0.0
H675 H 0.95045 0.80846 0.49622 0.0
H676 H 0.9033 0.7882 0.53874 0.0
H677 H 0.95998 0.77273 0.58134 0.0
H678 H 0.10901 0.7988 0.53794 0.0
H679 H 0.99481 0.73741 0.44274 0.0
H680 H 0.94745 0.75627 0.39884 0.0
O681 O 0.00595 0.84599 0.47822 0.0
C682 C 0.10717 0.86163 0.44139 0.0
C683 C 0.97362 0.79436 0.40926 0.0
C684 C 0.99699 0.75767 0.43874 0.0
N685 N 0.02891 0.79907 0.45348 0.0
C686 C 0.00329 0.80955 0.42927 0.0
C687 C 0.02639 0.77344 0.45824 0.0
C688 C 0.97041 0.76826 0.41412 0.0
C689 C 0.22196 0.87049 0.52141 0.0
N690 N 0.18716 0.88256 0.50188 0.0
C691 C 0.27985 0.87482 0.52063 0.0
C692 C 0.30182 0.89152 0.49959 0.0
C693 C 0.26626 0.90299 0.47909 0.0
C694 C 0.20876 0.8982 0.48051 0.0
C695 C 0.12661 0.95769 0.52242 0.0
C696 C 0.06068 0.92721 0.48646 0.0
C697 C 0.1315 0.93124 0.52313 0.0
N698 N 0.09907 0.91637 0.50509 0.0
C699 C 0.05455 0.95358 0.48519 0.0
C700 C 0.08789 0.96888 0.50327 0.0
C701 C 0.99046 0.86442 0.49463 0.0
C702 C 0.03846 0.78464 0.56221 0.0
C703 C 0.97544 0.802 0.51476 0.0
C704 C 0.94849 0.79043 0.53873 0.0
C705 C 0.98031 0.78171 0.5626 0.0
N706 N 0.03254 0.80479 0.51451 0.0
C707 C 0.06399 0.79627 0.53784 0.0
Co708 Co 0.85619 0.12755 0.25646 0.0
Co709 Co 0.81931 0.18643 0.23127 0.0
O710 O 0.86222 0.16462 0.25841 0.0
C711 C 0.8399 0.14075 0.31916 0.0
O712 O 0.80446 0.15803 0.30977 0.0
C713 C 0.93287 0.21003 0.23673 0.0
O714 O 0.95542 0.18732 0.23495 0.0
O715 O 0.85659 0.16949 0.19716 0.0
O716 O 0.84921 0.12876 0.21177 0.0
H717 H 0.70311 0.20468 0.1406 0.0
H718 H 0.95455 0.14926 0.28845 0.0
O719 O 0.86382 0.1259 0.30079 0.0
H720 H 0.03279 0.09117 0.21313 0.0
H721 H 0.90228 0.03776 0.28672 0.0
H722 H 0.78434 0.0918 0.22261 0.0
H723 H 0.9312 0.09928 0.2155 0.0
H724 H 0.91147 0.08442 0.28815 0.0
O725 O 0.88009 0.21278 0.23368 0.0
H726 H 0.75548 0.17762 0.17565 0.0
H727 H 0.7966 0.24218 0.22786 0.0
H728 H 0.77404 0.04521 0.22032 0.0
H729 H 0.05686 0.14136 0.28713 0.0
H730 H 0.8334 0.01785 0.25249 0.0
H731 H 0.09584 0.1111 0.24995 0.0
O732 O 0.77386 0.13017 0.26093 0.0
H733 H 0.81361 0.22907 0.33113 0.0
H734 H 0.70033 0.19884 0.24662 0.0
H735 H 0.65326 0.21908 0.28919 0.0
H736 H 0.71 0.23446 0.3318 0.0
H737 H 0.85894 0.20836 0.28834 0.0
H738 H 0.74486 0.26995 0.1933 0.0
H739 H 0.6974 0.2512 0.14938 0.0
O740 O 0.75575 0.16131 0.22853 0.0
C741 C 0.85704 0.14565 0.19168 0.0
C742 C 0.72349 0.21307 0.1597 0.0
C743 C 0.74699 0.2497 0.18926 0.0
N744 N 0.77881 0.20826 0.20389 0.0
C745 C 0.75315 0.19783 0.17966 0.0
C746 C 0.77637 0.23388 0.20871 0.0
C747 C 0.72035 0.23917 0.16462 0.0
C748 C 0.97165 0.13663 0.27183 0.0
N749 N 0.93693 0.12462 0.25223 0.0
C750 C 0.02952 0.13222 0.27119 0.0
C751 C 0.05154 0.11549 0.2502 0.0
C752 C 0.01608 0.1041 0.22959 0.0
C753 C 0.9586 0.10897 0.23089 0.0
C754 C 0.87625 0.04948 0.27255 0.0
C755 C 0.81047 0.08002 0.23658 0.0
C756 C 0.88115 0.07592 0.27333 0.0
N757 N 0.84879 0.09082 0.25529 0.0
C758 C 0.80436 0.05365 0.23525 0.0
C759 C 0.83762 0.03832 0.25333 0.0
C760 C 0.74023 0.14283 0.24486 0.0
C761 C 0.78844 0.22252 0.31265 0.0
C762 C 0.72535 0.20526 0.26517 0.0
C763 C 0.69844 0.21682 0.28917 0.0
C764 C 0.7303 0.22549 0.31304 0.0
N765 N 0.78244 0.20243 0.26491 0.0
C766 C 0.81393 0.21091 0.28825 0.0
Co767 Co 0.89225 0.62931 0.25665 0.0
Co768 Co 0.92916 0.57056 0.23109 0.0
O769 O 0.88634 0.59223 0.25843 0.0
C770 C 0.90864 0.61591 0.31931 0.0
O771 O 0.94404 0.59863 0.30986 0.0
C772 C 0.81571 0.5469 0.23651 0.0
O773 O 0.79315 0.56961 0.23476 0.0
O774 O 0.89158 0.58761 0.19716 0.0
O775 O 0.89911 0.62828 0.21195 0.0
H776 H 0.04475 0.5528 0.14007 0.0
H777 H 0.79405 0.6074 0.28859 0.0
O778 O 0.88472 0.63081 0.301 0.0
H779 H 0.7154 0.66573 0.21365 0.0
H780 H 0.84607 0.71896 0.28742 0.0
H781 H 0.96394 0.66522 0.22294 0.0
H782 H 0.81703 0.6577 0.2159 0.0
H783 H 0.83693 0.67229 0.28859 0.0
O784 O 0.86849 0.54416 0.23348 0.0
H785 H 0.99258 0.57967 0.1754 0.0
H786 H 0.95206 0.51484 0.2273 0.0
H787 H 0.97419 0.71183 0.22091 0.0
H788 H 0.69171 0.61521 0.28737 0.0
H789 H 0.91487 0.73903 0.25327 0.0
H790 H 0.65251 0.64558 0.25039 0.0
O791 O 0.97459 0.62671 0.26104 0.0
H792 H 0.93577 0.52751 0.33069 0.0
H793 H 0.04829 0.55819 0.24613 0.0
H794 H 0.09576 0.5378 0.28847 0.0
H795 H 0.03941 0.52219 0.33111 0.0
H796 H 0.89004 0.54837 0.28812 0.0
H797 H 0.00363 0.48727 0.19247 0.0
H798 H 0.05067 0.50625 0.14855 0.0
O799 O 0.9926 0.59575 0.22838 0.0
C800 C 0.89115 0.61146 0.19179 0.0
C801 C 0.02455 0.54432 0.15917 0.0
C802 C 0.0014 0.50753 0.18855 0.0
N803 N 0.96956 0.54889 0.20351 0.0
C804 C 0.995 0.55944 0.17929 0.0
C805 C 0.97212 0.52325 0.20816 0.0
C806 C 0.02781 0.5182 0.16392 0.0
C807 C 0.77686 0.62009 0.27206 0.0
N808 N 0.81149 0.63221 0.25251 0.0
C809 C 0.71898 0.62444 0.27147 0.0
C810 C 0.69683 0.64124 0.25058 0.0
C811 C 0.7322 0.65275 0.23002 0.0
C812 C 0.78971 0.64793 0.23126 0.0
C813 C 0.87208 0.70731 0.27317 0.0
C814 C 0.93782 0.67693 0.23699 0.0
C815 C 0.86721 0.68087 0.2738 0.0
N816 N 0.89955 0.66605 0.25566 0.0
C817 C 0.94391 0.70331 0.2358 0.0
C818 C 0.91067 0.71856 0.25399 0.0
C819 C 0.00816 0.61415 0.24482 0.0
C820 C 0.96077 0.53415 0.3122 0.0
C821 C 0.02344 0.55167 0.26469 0.0
C822 C 0.05058 0.54002 0.28856 0.0
C823 C 0.01893 0.53123 0.31245 0.0
N824 N 0.96634 0.55445 0.26456 0.0
C825 C 0.93506 0.54585 0.28792 0.0
Co826 Co 0.85592 0.62933 0.50439 0.0
Co827 Co 0.8193 0.57053 0.52992 0.0
O828 O 0.86213 0.59225 0.50263 0.0
C829 C 0.83984 0.61589 0.44172 0.0
O830 O 0.80454 0.59857 0.45115 0.0
C831 C 0.93284 0.54687 0.52444 0.0
O832 O 0.95545 0.56958 0.52598 0.0
O833 O 0.85667 0.58761 0.5639 0.0
O834 O 0.84894 0.62828 0.54909 0.0
H835 H 0.70347 0.55263 0.62081 0.0
H836 H 0.95442 0.6076 0.47252 0.0
O837 O 0.86359 0.63084 0.46005 0.0
H838 H 0.03225 0.6662 0.54742 0.0
H839 H 0.9014 0.71906 0.47364 0.0
H840 H 0.78387 0.66512 0.53806 0.0
H841 H 0.93075 0.65783 0.54521 0.0
H842 H 0.91096 0.67241 0.47248 0.0
O843 O 0.88008 0.54417 0.5276 0.0
H844 H 0.75568 0.57956 0.58557 0.0
H845 H 0.79657 0.5148 0.53363 0.0
H846 H 0.7732 0.71171 0.54007 0.0
H847 H 0.05664 0.61574 0.47369 0.0
H848 H 0.83234 0.73901 0.50775 0.0
H849 H 0.09538 0.64628 0.51061 0.0
O850 O 0.77362 0.62662 0.49992 0.0
H851 H 0.81334 0.5275 0.4303 0.0
H852 H 0.70028 0.55808 0.51472 0.0
H853 H 0.6531 0.53766 0.47231 0.0
H854 H 0.70973 0.52211 0.42974 0.0
H855 H 0.85877 0.54838 0.47294 0.0
H856 H 0.74495 0.48717 0.56837 0.0
H857 H 0.69771 0.50608 0.61227 0.0
O858 O 0.75571 0.59567 0.53259 0.0
C859 C 0.85695 0.61147 0.56926 0.0
C860 C 0.72376 0.54417 0.60173 0.0
C861 C 0.74711 0.50743 0.57232 0.0
N862 N 0.77889 0.54882 0.55744 0.0
C863 C 0.75334 0.55933 0.58166 0.0
C864 C 0.77642 0.52318 0.55276 0.0
C865 C 0.72059 0.51805 0.59694 0.0
C866 C 0.97144 0.62033 0.48905 0.0
N867 N 0.93664 0.63237 0.50861 0.0
C868 C 0.02925 0.62488 0.48961 0.0
C869 C 0.05115 0.64177 0.51047 0.0
C870 C 0.01564 0.65315 0.53106 0.0
C871 C 0.95821 0.64814 0.52986 0.0
C872 C 0.87547 0.70737 0.48788 0.0
C873 C 0.80991 0.67687 0.52402 0.0
C874 C 0.88056 0.68093 0.48726 0.0
N875 N 0.84831 0.66605 0.50538 0.0
C876 C 0.80359 0.70324 0.5252 0.0
C877 C 0.83673 0.71855 0.50703 0.0
C878 C 0.74008 0.61404 0.51613 0.0
C879 C 0.78822 0.53412 0.44877 0.0
C880 C 0.72525 0.55158 0.49619 0.0
C881 C 0.69828 0.53992 0.47228 0.0
C882 C 0.73008 0.53116 0.44843 0.0
N883 N 0.78234 0.55441 0.4964 0.0
C884 C 0.81376 0.54583 0.47308 0.0
Co885 Co 0.89162 0.12733 0.50423 0.0
Co886 Co 0.92797 0.18618 0.5297 0.0
O887 O 0.88545 0.16441 0.50235 0.0
C888 C 0.90844 0.14065 0.44159 0.0
O889 O 0.9437 0.15795 0.4511 0.0
C890 C 0.81447 0.20982 0.5238 0.0
O891 O 0.79185 0.18711 0.52529 0.0
O892 O 0.89026 0.16916 0.56361 0.0
O893 O 0.89814 0.12846 0.54895 0.0
H894 H 0.04272 0.20425 0.62093 0.0
H895 H 0.79352 0.14901 0.47199 0.0
O896 O 0.88443 0.12575 0.45988 0.0
H897 H 0.71475 0.09053 0.54673 0.0
H898 H 0.8463 0.03755 0.47361 0.0
H899 H 0.96329 0.09159 0.5382 0.0
H900 H 0.81627 0.09893 0.54491 0.0
H901 H 0.83687 0.08421 0.47227 0.0
O902 O 0.8672 0.21253 0.52715 0.0
H903 H 0.99102 0.17725 0.58555 0.0
H904 H 0.95058 0.24193 0.53337 0.0
H905 H 0.97383 0.045 0.54039 0.0
H906 H 0.6913 0.14084 0.47279 0.0
H907 H 0.91494 0.01765 0.50798 0.0
H908 H 0.6521 0.11035 0.50962 0.0
O909 O 0.97396 0.13003 0.49999 0.0
H910 H 0.93497 0.22902 0.42999 0.0
H911 H 0.04712 0.19867 0.51486 0.0
H912 H 0.09474 0.21903 0.47254 0.0
H913 H 0.03857 0.23447 0.42975 0.0
H914 H 0.88909 0.2082 0.47254 0.0
H915 H 0.0017 0.26963 0.56825 0.0
H916 H 0.04846 0.25079 0.61234 0.0
O917 O 0.99155 0.16107 0.5326 0.0
C918 C 0.88998 0.14532 0.56905 0.0
C919 C 0.02264 0.21267 0.60176 0.0
C920 C -0.00045 0.24937 0.57222 0.0
N921 N 0.96806 0.20795 0.5573 0.0
C922 C 0.99335 0.19747 0.58161 0.0
C923 C 0.97052 0.23359 0.55258 0.0
C924 C 0.0258 0.23879 0.59694 0.0
C925 C 0.7763 0.13631 0.48849 0.0
N926 N 0.81085 0.12432 0.50821 0.0
C927 C 0.71849 0.13174 0.48884 0.0
C928 C 0.69633 0.11488 0.50965 0.0
C929 C 0.73157 0.10355 0.53041 0.0
C930 C 0.78901 0.10858 0.52942 0.0
C931 C 0.87212 0.04927 0.48788 0.0
C932 C 0.93737 0.07981 0.52412 0.0
C933 C 0.86709 0.07571 0.48716 0.0
N934 N 0.89918 0.09061 0.50533 0.0
C935 C 0.94361 0.05344 0.5254 0.0
C936 C 0.91062 0.03811 0.50718 0.0
C937 C 0.00735 0.14268 0.51622 0.0
C938 C 0.95989 0.22245 0.44855 0.0
C939 C 0.02235 0.20512 0.49623 0.0
C940 C 0.04957 0.21674 0.47237 0.0
C941 C 0.01802 0.22545 0.4484 0.0
N942 N 0.96527 0.20226 0.49626 0.0
C943 C 0.93409 0.21077 0.47281 0.0
Co944 Co 0.64282 0.37947 0.75412 0.0
Co945 Co 0.67842 0.32068 0.78001 0.0
O946 O 0.63608 0.3424 0.75251 0.0
C947 C 0.65886 0.36577 0.69152 0.0
O948 O 0.69385 0.34835 0.70104 0.0
C949 C 0.56469 0.29722 0.7743 0.0
O950 O 0.54224 0.31998 0.77559 0.0
O951 O 0.64089 0.33797 0.81377 0.0
O952 O 0.64961 0.37856 0.79886 0.0
H953 H 0.79288 0.30288 0.87142 0.0
H954 H 0.54411 0.35797 0.72225 0.0
O955 O 0.63533 0.38085 0.70977 0.0
H956 H 0.46695 0.41722 0.79665 0.0
H957 H 0.59897 0.46924 0.72286 0.0
H958 H 0.71536 0.41513 0.78768 0.0
H959 H 0.56828 0.40837 0.79473 0.0
H960 H 0.58859 0.42262 0.72196 0.0
O961 O 0.61739 0.29444 0.77767 0.0
H962 H 0.74153 0.32979 0.83579 0.0
H963 H 0.7005 0.2649 0.78411 0.0
H964 H 0.72688 0.46169 0.78942 0.0
H965 H 0.44207 0.36659 0.72314 0.0
H966 H 0.66832 0.48908 0.75689 0.0
H967 H 0.4037 0.39747 0.75977 0.0
O968 O 0.72508 0.37646 0.74973 0.0
H969 H 0.68492 0.27718 0.68068 0.0
H970 H 0.79744 0.30782 0.76526 0.0
H971 H 0.84481 0.28703 0.72315 0.0
H972 H 0.78845 0.27144 0.6805 0.0
H973 H 0.6393 0.29842 0.72302 0.0
H974 H 0.75129 0.23729 0.81923 0.0
H975 H 0.79814 0.25628 0.8632 0.0
O976 O 0.74229 0.34566 0.78271 0.0
C977 C 0.64108 0.36184 0.81907 0.0
C978 C 0.77275 0.29439 0.8523 0.0
C979 C 0.74934 0.25758 0.82304 0.0
N980 N 0.7183 0.29898 0.80778 0.0
C981 C 0.74366 0.30954 0.83202 0.0
C982 C 0.72051 0.27331 0.80327 0.0
C983 C 0.77565 0.26824 0.84769 0.0
C984 C 0.52723 0.37084 0.73868 0.0
N985 N 0.56213 0.3828 0.75824 0.0
C986 C 0.46952 0.37566 0.73907 0.0
C987 C 0.44783 0.39274 0.75977 0.0
C988 C 0.48341 0.40403 0.7804 0.0
C989 C 0.54074 0.39874 0.77936 0.0
C990 C 0.62466 0.45751 0.73718 0.0
C991 C 0.68956 0.42693 0.77355 0.0
C992 C 0.61909 0.43109 0.73671 0.0
N993 N 0.65102 0.41617 0.75494 0.0
C994 C 0.69636 0.45327 0.77458 0.0
C995 C 0.66355 0.46863 0.75629 0.0
C996 C 0.75831 0.36387 0.7661 0.0
C997 C 0.70992 0.28381 0.69918 0.0
C998 C 0.7726 0.30131 0.74669 0.0
C999 C 0.79967 0.28944 0.72295 0.0
C1000 C 0.76802 0.28066 0.69906 0.0
N1001 N 0.71555 0.30432 0.74669 0.0
C1002 C 0.68427 0.29573 0.72332 0.0
Co1003 Co 0.60651 0.87794 0.755 0.0
Co1004 Co 0.56898 0.9367 0.78027 0.0
O1005 O 0.61211 0.91502 0.75309 0.0
C1006 C 0.59033 0.89116 0.69229 0.0
O1007 O 0.55471 0.90838 0.70165 0.0
C1008 C 0.68232 0.96047 0.77494 0.0
O1009 O 0.70497 0.93778 0.77686 0.0
O1010 O 0.60644 0.9198 0.81435 0.0
O1011 O 0.59939 0.87908 0.79968 0.0
H1012 H 0.45251 0.95455 0.87096 0.0
H1013 H 0.70473 0.89994 0.72315 0.0
O1014 O 0.61431 0.87634 0.71067 0.0
H1015 H 0.78344 0.84213 0.79862 0.0
H1016 H 0.65379 0.7883 0.72466 0.0
H1017 H 0.53496 0.84198 0.78873 0.0
H1018 H 0.68172 0.8498 0.79599 0.0
H1019 H 0.66243 0.83498 0.72331 0.0
O1020 O 0.62951 0.96316 0.7779 0.0
H1021 H 0.50519 0.92765 0.83586 0.0
H1022 H 0.54574 0.9924 0.78382 0.0
H1023 H 0.5252 0.79535 0.79093 0.0
H1024 H 0.80717 0.89247 0.72473 0.0
H1025 H 0.58501 0.76818 0.75879 0.0
H1026 H 0.84645 0.8624 0.76204 0.0
O1027 O 0.52417 0.88038 0.75047 0.0
H1028 H 0.56278 0.97947 0.6805 0.0
H1029 H 0.44987 0.94887 0.76496 0.0
H1030 H 0.40257 0.96908 0.72245 0.0
H1031 H 0.45911 0.98465 0.67986 0.0
H1032 H 0.60835 0.95879 0.72324 0.0
H1033 H 0.49369 0.01999 0.81843 0.0
H1034 H 0.44636 1.00107 0.8623 0.0
O1035 O 0.50568 0.91143 0.78295 0.0
C1036 C 0.6071 0.89595 0.8198 0.0
C1037 C 0.47283 0.96301 0.85188 0.0
C1038 C 0.49601 0.99974 0.82243 0.0
N1039 N 0.52825 0.95839 0.80769 0.0
C1040 C 0.50267 0.94787 0.8319 0.0
C1041 C 0.52556 0.98402 0.80295 0.0
C1042 C 0.46944 0.98911 0.84703 0.0
C1043 C 0.72193 0.88736 0.73978 0.0
N1044 N 0.68727 0.8752 0.7593 0.0
C1045 C 0.77987 0.8832 0.74059 0.0
C1046 C 0.80205 0.86657 0.76164 0.0
C1047 C 0.76663 0.85499 0.78212 0.0
C1048 C 0.70906 0.85961 0.78067 0.0
C1049 C 0.62757 0.79993 0.73882 0.0
C1050 C 0.56128 0.83028 0.77476 0.0
C1051 C 0.63215 0.82638 0.73809 0.0
N1052 N 0.59954 0.84119 0.75611 0.0
C1053 C 0.55548 0.80389 0.77605 0.0
C1054 C 0.58899 0.78866 0.75798 0.0
C1055 C 0.49037 0.89294 0.76657 0.0
C1056 C 0.53769 0.97284 0.69898 0.0
C1057 C 0.47481 0.95537 0.74642 0.0
C1058 C 0.44776 0.96692 0.72246 0.0
C1059 C 0.47952 0.97569 0.6986 0.0
N1060 N 0.53193 0.95267 0.74667 0.0
C1061 C 0.56331 0.96124 0.72334 0.0
Co1062 Co 0.64234 0.8776 0.50726 0.0
Co1063 Co 0.67833 0.93643 0.48158 0.0
O1064 O 0.63597 0.91468 0.50902 0.0
C1065 C 0.65904 0.89109 0.56987 0.0
O1066 O 0.69414 0.90845 0.56033 0.0
C1067 C 0.5647 0.95995 0.48735 0.0
O1068 O 0.54221 0.93721 0.48587 0.0
O1069 O 0.64067 0.91929 0.44774 0.0
O1070 O 0.64878 0.87864 0.46253 0.0
H1071 H 0.79286 0.95441 0.39024 0.0
H1072 H 0.54418 0.89928 0.53944 0.0
O1073 O 0.6352 0.87611 0.55162 0.0
H1074 H 0.46561 0.84043 0.46504 0.0
H1075 H 0.59769 0.78784 0.53821 0.0
H1076 H 0.71418 0.84188 0.47338 0.0
H1077 H 0.56707 0.849 0.46673 0.0
H1078 H 0.5879 0.83448 0.53938 0.0
O1079 O 0.61742 0.96271 0.48407 0.0
H1080 H 0.74134 0.92744 0.42572 0.0
H1081 H 0.70065 0.99219 0.47772 0.0
H1082 H 0.72507 0.7953 0.47136 0.0
H1083 H 0.44202 0.89095 0.53877 0.0
H1084 H 0.66644 0.76795 0.50389 0.0
H1085 H 0.40295 0.86026 0.50215 0.0
O1086 O 0.72467 0.88041 0.51146 0.0
H1087 H 0.68523 0.97956 0.58111 0.0
H1088 H 0.79745 0.94907 0.49634 0.0
H1089 H 0.84501 0.96961 0.53855 0.0
H1090 H 0.7888 0.98512 0.5813 0.0
H1091 H 0.63941 0.95856 0.53867 0.0
H1092 H 0.75159 0.01987 0.44274 0.0
H1093 H 0.79838 1.00098 0.39869 0.0
O1094 O 0.74205 0.91138 0.47872 0.0
C1095 C 0.6405 0.89543 0.44238 0.0
C1096 C 0.77277 0.96286 0.40939 0.0
C1097 C 0.74953 0.9996 0.43883 0.0
N1098 N 0.71827 0.95818 0.45389 0.0
C1099 C 0.74358 0.94767 0.4296 0.0
C1100 C 0.72061 0.98383 0.45852 0.0
C1101 C 0.7758 0.98899 0.41413 0.0
C1102 C 0.527 0.88649 0.52302 0.0
N1103 N 0.56158 0.87449 0.50333 0.0
C1104 C 0.46923 0.88184 0.52275 0.0
C1105 C 0.44713 0.86487 0.50204 0.0
C1106 C 0.48239 0.85353 0.48129 0.0
C1107 C 0.53979 0.85866 0.4822 0.0
C1108 C 0.62339 0.79956 0.52389 0.0
C1109 C 0.68836 0.8301 0.48751 0.0
C1110 C 0.61816 0.82599 0.52451 0.0
N1111 N 0.65012 0.84089 0.50627 0.0
C1112 C 0.69481 0.80374 0.48632 0.0
C1113 C 0.66196 0.7884 0.50461 0.0
C1114 C 0.75795 0.89304 0.49515 0.0
C1115 C 0.71017 0.97296 0.56257 0.0
C1116 C 0.77267 0.95555 0.51495 0.0
C1117 C 0.79985 0.96728 0.53875 0.0
C1118 C 0.76829 0.97602 0.5627 0.0
N1119 N 0.7156 0.95264 0.51495 0.0
C1120 C 0.6844 0.96118 0.53837 0.0
Co1121 Co 0.60565 0.37938 0.50645 0.0
Co1122 Co 0.56947 0.32067 0.48058 0.0
O1123 O 0.61209 0.3423 0.50805 0.0
C1124 C 0.59001 0.3657 0.5691 0.0
O1125 O 0.55484 0.34833 0.55965 0.0
C1126 C 0.68301 0.29703 0.48616 0.0
O1127 O 0.7056 0.31976 0.48477 0.0
O1128 O 0.60704 0.33791 0.44681 0.0
O1129 O 0.59849 0.3785 0.46173 0.0
H1130 H 0.45448 0.30318 0.38929 0.0
H1131 H 0.70447 0.35767 0.53806 0.0
O1132 O 0.61352 0.38074 0.55079 0.0
H1133 H 0.78158 0.41641 0.4631 0.0
H1134 H 0.65054 0.46905 0.53765 0.0
H1135 H 0.53309 0.41519 0.47311 0.0
H1136 H 0.68007 0.40815 0.46567 0.0
H1137 H 0.66059 0.42241 0.53847 0.0
O1138 O 0.63028 0.29433 0.48286 0.0
H1139 H 0.50621 0.32996 0.42489 0.0
H1140 H 0.54692 0.26494 0.47643 0.0
H1141 H 0.52191 0.46176 0.47145 0.0
H1142 H 0.80671 0.36572 0.53654 0.0
H1143 H 0.58101 0.48903 0.50384 0.0
H1144 H 0.84516 0.39625 0.49951 0.0
O1145 O 0.5234 0.37649 0.51101 0.0
H1146 H 0.5629 0.27713 0.57989 0.0
H1147 H 0.45039 0.30802 0.49542 0.0
H1148 H 0.40298 0.28729 0.53755 0.0
H1149 H 0.45933 0.27157 0.58014 0.0
H1150 H 0.60858 0.29832 0.53753 0.0
H1151 H 0.49575 0.23746 0.44133 0.0
H1152 H 0.44886 0.25658 0.39745 0.0
O1153 O 0.50583 0.34579 0.47798 0.0
C1154 C 0.60692 0.36178 0.44151 0.0
C1155 C 0.47462 0.29463 0.40837 0.0
C1156 C 0.49785 0.25774 0.43755 0.0
N1157 N 0.5293 0.29907 0.45283 0.0
C1158 C 0.50392 0.30971 0.42864 0.0
C1159 C 0.5269 0.2734 0.45731 0.0
C1160 C 0.47153 0.26848 0.41294 0.0
C1161 C 0.72133 0.37045 0.52153 0.0
N1162 N 0.68633 0.38255 0.50213 0.0
C1163 C 0.77915 0.37494 0.52077 0.0
C1164 C 0.80087 0.39184 0.49986 0.0
C1165 C 0.76512 0.40335 0.47948 0.0
C1166 C 0.70768 0.3984 0.48089 0.0
C1167 C 0.62463 0.45738 0.52339 0.0
C1168 C 0.55912 0.42693 0.48717 0.0
C1169 C 0.63001 0.43095 0.52381 0.0
N1170 N 0.59776 0.41609 0.50566 0.0
C1171 C 0.55251 0.45329 0.48619 0.0
C1172 C 0.58563 0.46857 0.5044 0.0
C1173 C 0.48999 0.36397 0.49467 0.0
C1174 C 0.5379 0.28382 0.56141 0.0
C1175 C 0.47524 0.30146 0.51397 0.0
C1176 C 0.44813 0.28962 0.53771 0.0
C1177 C 0.47978 0.28076 0.56157 0.0
N1178 N 0.53231 0.30436 0.51393 0.0
C1179 C 0.56358 0.29571 0.53726 0.0
Co1180 Co 0.35633 0.62723 0.25683 0.0
Co1181 Co 0.32023 0.68608 0.23125 0.0
O1182 O 0.36273 0.66431 0.25863 0.0
C1183 C 0.33975 0.64067 0.31945 0.0
O1184 O 0.30454 0.658 0.30992 0.0
C1185 C 0.4338 0.70967 0.23713 0.0
O1186 O 0.45641 0.68695 0.23573 0.0
O1187 O 0.35783 0.66897 0.19737 0.0
O1188 O 0.34968 0.62831 0.21211 0.0
H1189 H 0.20542 0.70411 0.14003 0.0
H1190 H 0.45469 0.64882 0.28892 0.0
O1191 O 0.36364 0.62572 0.30118 0.0
H1192 H 0.53279 0.59012 0.21423 0.0
H1193 H 0.40089 0.53744 0.28772 0.0
H1194 H 0.28431 0.59155 0.223 0.0
H1195 H 0.43133 0.59864 0.21617 0.0
H1196 H 0.41082 0.58408 0.28886 0.0
O1197 O 0.38109 0.71239 0.23373 0.0
H1198 H 0.25711 0.67712 0.17544 0.0
H1199 H 0.29775 0.74184 0.2275 0.0
H1200 H 0.27329 0.54498 0.22099 0.0
H1201 H 0.55685 0.64053 0.28801 0.0
H1202 H 0.33196 0.51759 0.25347 0.0
H1203 H 0.59573 0.60993 0.2512 0.0
O1204 O 0.27402 0.63006 0.26114 0.0
H1205 H 0.31355 0.72907 0.33088 0.0
H1206 H 0.20114 0.69868 0.24614 0.0
H1207 H 0.15367 0.71912 0.28844 0.0
H1208 H 0.20997 0.73458 0.33118 0.0
H1209 H 0.35928 0.70815 0.28835 0.0
H1210 H 0.24661 0.76952 0.19261 0.0
H1211 H 0.19978 0.75066 0.14856 0.0
O1212 O 0.25654 0.66102 0.22842 0.0
C1213 C 0.35793 0.64512 0.19197 0.0
C1214 C 0.22554 0.71255 0.15918 0.0
C1215 C 0.24873 0.74926 0.18866 0.0
N1216 N 0.28017 0.70784 0.20363 0.0
C1217 C 0.25482 0.69735 0.17934 0.0
C1218 C 0.27776 0.73348 0.20831 0.0
C1219 C 0.22243 0.73867 0.16396 0.0
C1220 C 0.47176 0.63607 0.27243 0.0
N1221 N 0.43706 0.62409 0.25279 0.0
C1222 C 0.52955 0.63143 0.27203 0.0
C1223 C 0.55152 0.61451 0.25123 0.0
C1224 C 0.51612 0.60318 0.23054 0.0
C1225 C 0.45871 0.60829 0.2316 0.0
C1226 C 0.37518 0.54917 0.27341 0.0
C1227 C 0.31016 0.57976 0.2371 0.0
C1228 C 0.38049 0.5756 0.27402 0.0
N1229 N 0.3485 0.59052 0.25582 0.0
C1230 C 0.30364 0.5534 0.23592 0.0
C1231 C 0.33651 0.53804 0.25418 0.0
C1232 C 0.24068 0.6427 0.24488 0.0
C1233 C 0.28858 0.72249 0.31235 0.0
C1234 C 0.22597 0.70513 0.26474 0.0
C1235 C 0.19883 0.71681 0.28859 0.0
C1236 C 0.23045 0.72552 0.31253 0.0
N1237 N 0.28304 0.70224 0.26469 0.0
C1238 C 0.31429 0.71076 0.2881 0.0
Co1239 Co 0.39205 0.12956 0.25695 0.0
Co1240 Co 0.42836 0.07077 0.2313 0.0
O1241 O 0.38575 0.09248 0.25869 0.0
C1242 C 0.40833 0.11607 0.31959 0.0
O1243 O 0.44353 0.09872 0.31011 0.0
C1244 C 0.31479 0.04718 0.23686 0.0
O1245 O 0.29224 0.06991 0.23534 0.0
O1246 O 0.39081 0.0879 0.19743 0.0
O1247 O 0.39883 0.12854 0.21223 0.0
H1248 H 0.54341 0.0529 0.14012 0.0
H1249 H 0.29365 0.10786 0.28891 0.0
O1250 O 0.38458 0.13104 0.3013 0.0
H1251 H 0.21561 0.16661 0.21424 0.0
H1252 H 0.34697 0.2193 0.28783 0.0
H1253 H 0.46408 0.16532 0.22323 0.0
H1254 H 0.31709 0.15815 0.21625 0.0
H1255 H 0.33728 0.17265 0.28896 0.0
O1256 O 0.36754 0.04445 0.23368 0.0
H1257 H 0.49162 0.07982 0.17555 0.0
H1258 H 0.45091 0.01502 0.22746 0.0
H1259 H 0.47488 0.21191 0.22125 0.0
H1260 H 0.19146 0.1161 0.28792 0.0
H1261 H 0.41594 0.23923 0.25367 0.0
H1262 H 0.15262 0.14672 0.25113 0.0
O1263 O 0.47436 0.12678 0.26132 0.0
H1264 H 0.43485 0.0276 0.33083 0.0
H1265 H 0.54744 0.05819 0.24625 0.0
H1266 H 0.59483 0.03767 0.28853 0.0
H1267 H 0.53844 0.02211 0.33118 0.0
H1268 H 0.3892 0.04859 0.28832 0.0
H1269 H 0.50212 0.98739 0.19253 0.0
H1270 H 0.54905 0.00633 0.14855 0.0
O1271 O 0.49199 0.09586 0.22856 0.0
C1272 C 0.39063 0.11175 0.19207 0.0
C1273 C 0.52326 0.04443 0.15924 0.0
C1274 C 0.50001 0.00766 0.18863 0.0
N1275 N 0.46853 0.04906 0.20367 0.0
C1276 C 0.49392 0.05959 0.17942 0.0
C1277 C 0.47094 0.02341 0.20829 0.0
C1278 C 0.52636 0.0183 0.16397 0.0
C1279 C 0.27659 0.12063 0.27243 0.0
N1280 N 0.31132 0.13266 0.25284 0.0
C1281 C 0.21879 0.12523 0.27197 0.0
C1282 C 0.19684 0.14216 0.25118 0.0
C1283 C 0.23227 0.15353 0.23055 0.0
C1284 C 0.28969 0.14847 0.23164 0.0
C1285 C 0.37281 0.2076 0.27356 0.0
C1286 C 0.43812 0.17709 0.23731 0.0
C1287 C 0.36763 0.18117 0.27416 0.0
N1288 N 0.39977 0.16628 0.25599 0.0
C1289 C 0.44452 0.20345 0.23615 0.0
C1290 C 0.41149 0.21877 0.25437 0.0
C1291 C 0.50777 0.11418 0.24505 0.0
C1292 C 0.45987 0.03422 0.31233 0.0
C1293 C 0.52257 0.0517 0.26482 0.0
C1294 C 0.54967 0.03997 0.28865 0.0
C1295 C 0.518 0.0312 0.31255 0.0
N1296 N 0.4655 0.05457 0.26473 0.0
C1297 C 0.4342 0.046 0.28809 0.0
Co1298 Co 0.35577 0.12947 0.50468 0.0
Co1299 Co 0.31912 0.0707 0.53024 0.0
O1300 O 0.36188 0.09239 0.50291 0.0
C1301 C 0.33961 0.11604 0.44202 0.0
O1302 O 0.30428 0.09874 0.45145 0.0
C1303 C 0.43263 0.04704 0.52475 0.0
O1304 O 0.4552 0.06976 0.52636 0.0
O1305 O 0.35663 0.08777 0.56417 0.0
O1306 O 0.34882 0.12843 0.54939 0.0
H1307 H 0.20362 0.05289 0.62128 0.0
H1308 H 0.45419 0.10769 0.4728 0.0
O1309 O 0.36341 0.13097 0.46034 0.0
H1310 H 0.53229 0.16607 0.54784 0.0
H1311 H 0.40161 0.21917 0.47396 0.0
H1312 H 0.2838 0.16531 0.53834 0.0
H1313 H 0.43071 0.15793 0.5455 0.0
H1314 H 0.41096 0.1725 0.47278 0.0
O1315 O 0.37986 0.04432 0.52788 0.0
H1316 H 0.25567 0.07978 0.58593 0.0
H1317 H 0.29638 0.01496 0.53404 0.0
H1318 H 0.27332 0.21191 0.54036 0.0
H1319 H 0.55648 0.11562 0.4741 0.0
H1320 H 0.33261 0.23917 0.50805 0.0
H1321 H 0.5954 0.14601 0.51115 0.0
O1322 O 0.27346 0.12678 0.50023 0.0
H1323 H 0.31272 0.02761 0.43066 0.0
H1324 H 0.20004 0.05823 0.5152 0.0
H1325 H 0.15268 0.03777 0.47287 0.0
H1326 H 0.20912 0.0222 0.43024 0.0
H1327 H 0.35835 0.04853 0.47322 0.0
H1328 H 0.24493 0.98737 0.5689 0.0
H1329 H 0.19786 0.00633 0.61282 0.0
O1330 O 0.25558 0.09585 0.53293 0.0
C1331 C 0.35689 0.11162 0.56955 0.0
C1332 C 0.22383 0.04441 0.60218 0.0
C1333 C 0.24708 0.00763 0.57281 0.0
N1334 N 0.27878 0.04901 0.55783 0.0
C1335 C 0.25332 0.05955 0.58205 0.0
C1336 C 0.2763 0.02336 0.55318 0.0
C1337 C 0.22066 0.01828 0.59744 0.0
C1338 C 0.47126 0.12038 0.48935 0.0
N1339 N 0.43651 0.13246 0.50889 0.0
C1340 C 0.52912 0.12481 0.48999 0.0
C1341 C 0.5511 0.14162 0.51091 0.0
C1342 C 0.51561 0.15308 0.53144 0.0
C1343 C 0.45813 0.14819 0.53016 0.0
C1344 C 0.37561 0.20749 0.48818 0.0
C1345 C 0.3099 0.17705 0.5243 0.0
C1346 C 0.38059 0.18105 0.48755 0.0
N1347 N 0.34827 0.1662 0.50567 0.0
C1348 C 0.30368 0.20342 0.52549 0.0
C1349 C 0.33691 0.21871 0.50733 0.0
C1350 C 0.23993 0.1142 0.51645 0.0
C1351 C 0.28769 0.03424 0.44915 0.0
C1352 C 0.22492 0.05172 0.49664 0.0
C1353 C 0.19785 0.04004 0.47278 0.0
C1354 C 0.22955 0.03127 0.4489 0.0
N1355 N 0.28201 0.05456 0.49677 0.0
C1356 C 0.31334 0.04598 0.47342 0.0
Co1357 Co 0.3919 0.62765 0.50457 0.0
Co1358 Co 0.42855 0.68654 0.5298 0.0
O1359 O 0.38573 0.66472 0.50263 0.0
C1360 C 0.40823 0.64086 0.44188 0.0
O1361 O 0.44359 0.65817 0.45128 0.0
C1362 C 0.31496 0.71015 0.52421 0.0
O1363 O 0.2924 0.68743 0.5259 0.0
O1364 O 0.39124 0.66958 0.56388 0.0
O1365 O 0.39881 0.62886 0.54927 0.0
H1366 H 0.54452 0.70483 0.62054 0.0
H1367 H 0.29349 0.64928 0.47255 0.0
O1368 O 0.38433 0.626 0.46024 0.0
H1369 H 0.21545 0.59099 0.5477 0.0
H1370 H 0.34633 0.53783 0.47425 0.0
H1371 H 0.46385 0.59196 0.53845 0.0
H1372 H 0.31696 0.59931 0.5455 0.0
H1373 H 0.33687 0.58448 0.47285 0.0
O1374 O 0.36773 0.71288 0.52736 0.0
H1375 H 0.49227 0.67775 0.58547 0.0
H1376 H 0.45119 0.7423 0.53321 0.0
H1377 H 0.47442 0.54537 0.5407 0.0
H1378 H 0.19125 0.64118 0.47371 0.0
H1379 H 0.41528 0.51797 0.50848 0.0
H1380 H 0.1524 0.61079 0.51078 0.0
O1381 O 0.47421 0.63032 0.50012 0.0
H1382 H 0.43435 0.72917 0.42994 0.0
H1383 H 0.54754 0.69897 0.5145 0.0
H1384 H 0.59465 0.71921 0.47194 0.0
H1385 H 0.53795 0.73458 0.4293 0.0
H1386 H 0.38899 0.70846 0.47271 0.0
H1387 H 0.50282 0.77008 0.56778 0.0
H1388 H 0.5502 0.75134 0.61175 0.0
O1389 O 0.49218 0.66144 0.53257 0.0
C1390 C 0.39087 0.64574 0.56936 0.0
C1391 C 0.52418 0.71321 0.60142 0.0
C1392 C 0.50071 0.74983 0.57184 0.0
N1393 N 0.46896 0.70838 0.55719 0.0
C1394 C 0.49457 0.69796 0.58145 0.0
C1395 C 0.47139 0.734 0.55237 0.0
C1396 C 0.5273 0.73931 0.59649 0.0
C1397 C 0.27642 0.63661 0.48913 0.0
N1398 N 0.31117 0.62465 0.50877 0.0
C1399 C 0.21861 0.63209 0.48969 0.0
C1400 C 0.19665 0.61529 0.51063 0.0
C1401 C 0.23211 0.60397 0.53129 0.0
C1402 C 0.28955 0.60896 0.53008 0.0
C1403 C 0.37226 0.54956 0.48843 0.0
C1404 C 0.43781 0.58016 0.52446 0.0
C1405 C 0.36722 0.576 0.48768 0.0
N1406 N 0.39946 0.59093 0.50574 0.0
C1407 C 0.44408 0.55379 0.52577 0.0
C1408 C 0.41094 0.53843 0.50766 0.0
C1409 C 0.50777 0.64298 0.51623 0.0
C1410 C 0.4595 0.72264 0.44843 0.0
C1411 C 0.52254 0.70539 0.49594 0.0
C1412 C 0.54947 0.71695 0.47195 0.0
C1413 C 0.51763 0.72561 0.44806 0.0
N1414 N 0.46546 0.70255 0.49618 0.0
C1415 C 0.43399 0.71102 0.47282 0.0
Co1416 Co 0.64123 0.8795 0.25501 0.0
Co1417 Co 0.67837 0.82073 0.2804 0.0
O1418 O 0.63533 0.84241 0.25317 0.0
C1419 C 0.65734 0.8662 0.19233 0.0
O1420 O 0.69282 0.84893 0.20172 0.0
C1421 C 0.56502 0.79691 0.27489 0.0
O1422 O 0.54226 0.81959 0.27648 0.0
O1423 O 0.6409 0.8377 0.31442 0.0
O1424 O 0.64836 0.87839 0.2997 0.0
H1425 H 0.79444 0.80291 0.37123 0.0
H1426 H 0.54278 0.85768 0.22318 0.0
O1427 O 0.63343 0.88106 0.21069 0.0
H1428 H 0.4647 0.9158 0.29852 0.0
H1429 H 0.59476 0.96919 0.22452 0.0
H1430 H 0.71309 0.91537 0.28868 0.0
H1431 H 0.56631 0.9078 0.29599 0.0
H1432 H 0.58568 0.92252 0.22326 0.0
O1433 O 0.6178 0.79427 0.27806 0.0
H1434 H 0.74201 0.8298 0.33603 0.0
H1435 H 0.70151 0.76502 0.28404 0.0
H1436 H 0.72329 0.96198 0.29079 0.0
H1437 H 0.44045 0.86548 0.22466 0.0
H1438 H 0.66373 0.98922 0.2586 0.0
H1439 H 0.40152 0.89572 0.26188 0.0
O1440 O 0.72353 0.87692 0.25046 0.0
H1441 H 0.68457 0.77786 0.18069 0.0
H1442 H 0.79746 0.80844 0.26517 0.0
H1443 H 0.84475 0.78815 0.2227 0.0
H1444 H 0.78822 0.77259 0.1801 0.0
H1445 H 0.63901 0.79861 0.22338 0.0
H1446 H 0.75334 0.73743 0.31875 0.0
H1447 H 0.8005 0.75638 0.36265 0.0
O1448 O 0.74176 0.84595 0.28307 0.0
C1449 C 0.64048 0.86155 0.31984 0.0
C1450 C 0.77419 0.79444 0.35214 0.0
C1451 C 0.75106 0.75768 0.32271 0.0
N1452 N 0.71898 0.79904 0.30788 0.0
C1453 C 0.74449 0.80957 0.33209 0.0
C1454 C 0.72163 0.77341 0.30317 0.0
C1455 C 0.77753 0.76833 0.34733 0.0
C1456 C 0.52572 0.87032 0.2398 0.0
N1457 N 0.56049 0.88239 0.25932 0.0
C1458 C 0.46783 0.87467 0.24054 0.0
C1459 C 0.44585 0.8914 0.26155 0.0
C1460 C 0.48138 0.90286 0.28206 0.0
C1461 C 0.53888 0.89806 0.28067 0.0
C1462 C 0.62087 0.95752 0.23869 0.0
C1463 C 0.68687 0.9271 0.2747 0.0
C1464 C 0.61604 0.93108 0.23802 0.0
N1465 N 0.64851 0.91623 0.25607 0.0
C1466 C 0.69293 0.95348 0.27593 0.0
C1467 C 0.65956 0.96875 0.25783 0.0
C1468 C 0.75722 0.86435 0.2666 0.0
C1469 C 0.70965 0.78448 0.19917 0.0
C1470 C 0.77252 0.80194 0.24662 0.0
C1471 C 0.79956 0.79035 0.22269 0.0
C1472 C 0.76781 0.78159 0.19882 0.0
N1473 N 0.71542 0.80469 0.24684 0.0
C1474 C 0.68404 0.79612 0.22351 0.0
Co1475 Co 0.60605 0.37748 0.2542 0.0
Co1476 Co 0.56945 0.43647 0.27924 0.0
O1477 O 0.61233 0.41454 0.25221 0.0
C1478 C 0.58964 0.39064 0.1915 0.0
O1479 O 0.55426 0.40794 0.20091 0.0
C1480 C 0.68322 0.45994 0.27387 0.0
O1481 O 0.70569 0.43721 0.27558 0.0
O1482 O 0.60635 0.41952 0.31347 0.0
O1483 O 0.59918 0.37877 0.29887 0.0
H1484 H 0.45267 0.45515 0.36959 0.0
H1485 H 0.70445 0.39904 0.22209 0.0
O1486 O 0.61358 0.37578 0.20986 0.0
H1487 H 0.78252 0.34078 0.29727 0.0
H1488 H 0.6515 0.2876 0.22405 0.0
H1489 H 0.53414 0.34187 0.28819 0.0
H1490 H 0.68102 0.34918 0.29515 0.0
H1491 H 0.66096 0.33425 0.22252 0.0
O1492 O 0.63044 0.46272 0.27689 0.0
H1493 H 0.5052 0.42791 0.3348 0.0
H1494 H 0.54712 0.49226 0.28239 0.0
H1495 H 0.52359 0.29529 0.29058 0.0
H1496 H 0.80665 0.39086 0.22318 0.0
H1497 H 0.58266 0.26782 0.2584 0.0
H1498 H 0.84551 0.36047 0.26024 0.0
O1499 O 0.52372 0.38016 0.24977 0.0
H1500 H 0.56488 0.47889 0.17925 0.0
H1501 H 0.45067 0.44899 0.26356 0.0
H1502 H 0.40409 0.46916 0.2208 0.0
H1503 H 0.4613 0.48438 0.17828 0.0
H1504 H 0.6097 0.45824 0.22221 0.0
H1505 H 0.49527 0.52019 0.3167 0.0
H1506 H 0.4473 0.50165 0.36059 0.0
O1507 O 0.50569 0.41147 0.28196 0.0
C1508 C 0.60682 0.39568 0.31896 0.0
C1509 C 0.47327 0.46345 0.3505 0.0
C1510 C 0.49724 0.49996 0.32084 0.0
N1511 N 0.52894 0.45843 0.30647 0.0
C1512 C 0.50303 0.44811 0.33069 0.0
C1513 C 0.52669 0.48404 0.30153 0.0
C1514 C 0.47032 0.48954 0.34545 0.0
C1515 C 0.72152 0.38638 0.23868 0.0
N1516 N 0.68679 0.37446 0.25836 0.0
C1517 C 0.77932 0.38181 0.2392 0.0
C1518 C 0.80128 0.36501 0.26013 0.0
C1519 C 0.76585 0.35375 0.28085 0.0
C1520 C 0.70843 0.35878 0.27969 0.0
C1521 C 0.62561 0.29936 0.23822 0.0
C1522 C 0.56015 0.33004 0.27421 0.0
C1523 C 0.63064 0.3258 0.23739 0.0
N1524 N 0.59844 0.34077 0.25544 0.0
C1525 C 0.55389 0.30368 0.27561 0.0
C1526 C 0.58699 0.28828 0.25751 0.0
C1527 C 0.49015 0.3929 0.2658 0.0
C1528 C 0.53951 0.47242 0.19768 0.0
C1529 C 0.47589 0.45534 0.24506 0.0
C1530 C 0.44926 0.46687 0.22095 0.0
C1531 C 0.48139 0.47544 0.19712 0.0
N1532 N 0.53296 0.45246 0.24548 0.0
C1533 C 0.5647 0.46085 0.22219 0.0
Co1534 Co 0.64187 0.37756 0.0064 0.0
Co1535 Co 0.67916 0.43643 0.9813 0.0
O1536 O 0.63609 0.41464 0.00838 0.0
C1537 C 0.65838 0.39066 0.0691 0.0
O1538 O 0.69396 0.40788 0.05972 0.0
C1539 C 0.56564 0.46009 0.98661 0.0
O1540 O 0.54307 0.43739 0.98471 0.0
O1541 O 0.64197 0.41955 0.94711 0.0
O1542 O 0.64884 0.3788 0.96172 0.0
H1543 H 0.79594 0.45468 0.89084 0.0
H1544 H 0.54373 0.39945 0.03842 0.0
O1545 O 0.63425 0.37589 0.05073 0.0
H1546 H 0.46485 0.34168 0.96296 0.0
H1547 H 0.59508 0.28783 0.03657 0.0
H1548 H 0.7134 0.34172 0.97249 0.0
H1549 H 0.56656 0.34946 0.96543 0.0
H1550 H 0.58624 0.33451 0.03804 0.0
O1551 O 0.61845 0.46282 0.98368 0.0
H1552 H 0.74324 0.42762 0.92575 0.0
H1553 H 0.70205 0.49216 0.97799 0.0
H1554 H 0.72334 0.2951 0.97017 0.0
H1555 H 0.44131 0.39189 0.03699 0.0
H1556 H 0.66379 0.26783 1.00232 0.0
H1557 H 0.40197 0.36181 0.99972 0.0
O1558 O 0.72423 0.38003 0.01084 0.0
H1559 H 0.6846 0.47891 0.08125 0.0
H1560 H 0.79812 0.4487 0.99682 0.0
H1561 H 0.84509 0.46881 0.0395 0.0
H1562 H 0.78823 0.48418 0.08207 0.0
H1563 H 0.63936 0.45833 0.03835 0.0
H1564 H 0.75409 0.51992 0.94356 0.0
H1565 H 0.80177 0.50118 0.8997 0.0
O1566 O 0.74262 0.41126 0.9786 0.0
C1567 C 0.6413 0.39572 0.94162 0.0
C1568 C 0.77547 0.46307 0.90992 0.0
C1569 C 0.75192 0.49968 0.93949 0.0
N1570 N 0.71985 0.45825 0.954 0.0
C1571 C 0.74561 0.44783 0.9298 0.0
C1572 C 0.72236 0.48387 0.95886 0.0
C1573 C 0.77868 0.48916 0.91488 0.0
C1574 C 0.52649 0.38688 0.02178 0.0
N1575 N 0.5611 0.37478 1.00218 0.0
C1576 C 0.46857 0.38267 0.02107 0.0
C1577 C 0.44635 0.36604 1.00003 0.0
C1578 C 0.48171 0.35454 0.97946 0.0
C1579 C 0.53926 0.35922 0.98081 0.0
C1580 C 0.62118 0.29951 0.02241 0.0
C1581 C 0.68719 0.32997 0.98646 0.0
C1582 C 0.61649 0.32596 0.02321 0.0
N1583 N 0.64896 0.34082 1.00518 0.0
C1584 C 0.69309 0.30359 0.9851 0.0
C1585 C 0.65972 0.2883 1.00318 0.0
C1586 C 0.75797 0.39269 0.99483 0.0
C1587 C 0.70982 0.47237 0.06278 0.0
C1588 C 0.77305 0.45512 0.01535 0.0
C1589 C 0.7999 0.46661 0.03941 0.0
C1590 C 0.76797 0.47527 0.06327 0.0
N1591 N 0.71595 0.45236 0.015 0.0
C1592 C 0.68439 0.46083 0.03832 0.0
Co1593 Co 0.6059 0.87992 0.00726 0.0
Co1594 Co 0.57017 0.82107 0.98153 0.0
O1595 O 0.61247 0.84285 0.00899 0.0
C1596 C 0.58915 0.86638 0.06984 0.0
O1597 O 0.5541 0.84901 0.06025 0.0
C1598 C 0.68383 0.79753 0.98743 0.0
O1599 O 0.70638 0.82027 0.98617 0.0
O1600 O 0.60779 0.83827 0.94772 0.0
O1601 O 0.59945 0.8789 0.96253 0.0
H1602 H 0.45585 0.80307 0.89013 0.0
H1603 H 0.70418 0.85839 0.03946 0.0
O1604 O 0.613 0.88139 0.05162 0.0
H1605 H 0.78234 0.91745 0.96518 0.0
H1606 H 0.65006 0.96971 0.03829 0.0
H1607 H 0.53387 0.91559 0.9734 0.0
H1608 H 0.68098 0.90862 0.96673 0.0
H1609 H 0.66007 0.92308 0.03942 0.0
O1610 O 0.63113 0.79481 0.98399 0.0
H1611 H 0.50723 0.83006 0.92566 0.0
H1612 H 0.54793 0.76531 0.97766 0.0
H1613 H 0.52273 0.96216 0.97143 0.0
H1614 H 0.80623 0.86698 0.03892 0.0
H1615 H 0.58121 0.98955 1.00399 0.0
H1616 H 0.84507 0.89781 1.00239 0.0
O1617 O 0.52359 0.87702 0.01146 0.0
H1618 H 0.56339 0.77792 0.08106 0.0
H1619 H 0.45109 0.80835 0.99629 0.0
H1620 H 0.40359 0.78779 0.03851 0.0
H1621 H 0.45984 0.77231 0.08125 0.0
H1622 H 0.60915 0.79895 0.03861 0.0
H1623 H 0.4971 0.73762 0.94264 0.0
H1624 H 0.45039 0.75651 0.89856 0.0
O1625 O 0.50637 0.84608 0.97868 0.0
C1626 C 0.60781 0.86212 0.94236 0.0
C1627 C 0.47591 0.79463 0.9093 0.0
C1628 C 0.49913 0.75789 0.93874 0.0
N1629 N 0.5303 0.79932 0.95383 0.0
C1630 C 0.50502 0.80982 0.92952 0.0
C1631 C 0.52799 0.77367 0.95845 0.0
C1632 C 0.47291 0.7685 0.91402 0.0
C1633 C 0.72128 0.87121 0.02305 0.0
N1634 N 0.68664 0.88314 1.00333 0.0
C1635 C 0.77899 0.87602 0.02286 0.0
C1636 C 0.80095 0.89307 1.0022 0.0
C1637 C 0.76566 0.9043 0.9814 0.0
C1638 C 0.70832 0.89902 0.98223 0.0
C1639 C 0.62441 0.95798 0.02396 0.0
C1640 C 0.55962 0.92739 0.98755 0.0
C1641 C 0.62978 0.93155 0.02456 0.0
N1642 N 0.59791 0.91663 0.0063 0.0
C1643 C 0.55303 0.95374 0.98639 0.0
C1644 C 0.5858 0.9691 1.00469 0.0
C1645 C 0.49037 0.86438 0.99514 0.0
C1646 C 0.53844 0.78451 0.06252 0.0
C1647 C 0.47589 0.80189 0.0149 0.0
C1648 C 0.44874 0.79015 0.0387 0.0
C1649 C 0.48033 0.78142 0.06265 0.0
N1650 N 0.53295 0.80483 0.0149 0.0
C1651 C 0.56417 0.7963 0.03831 0.0
Co1652 Co 0.35545 0.12757 0.75694 0.0
Co1653 Co 0.31914 0.18642 0.73142 0.0
O1654 O 0.36171 0.16465 0.75877 0.0
C1655 C 0.33897 0.14094 0.81959 0.0
O1656 O 0.30376 0.15829 0.81013 0.0
C1657 C 0.43271 0.21002 0.73714 0.0
O1658 O 0.45528 0.18729 0.73567 0.0
O1659 O 0.3567 0.16935 0.6975 0.0
O1660 O 0.34877 0.12868 0.71223 0.0
H1661 H 0.20409 0.20447 0.64029 0.0
H1662 H 0.45373 0.14923 0.78903 0.0
O1663 O 0.3628 0.12601 0.80129 0.0
H1664 H 0.53208 0.09068 0.71424 0.0
H1665 H 0.40057 0.03778 0.78761 0.0
H1666 H 0.28355 0.09186 0.72307 0.0
H1667 H 0.43057 0.09908 0.71622 0.0
H1668 H 0.41019 0.08443 0.78887 0.0
O1669 O 0.37998 0.21275 0.73388 0.0
H1670 H 0.25587 0.17748 0.67565 0.0
H1671 H 0.29664 0.24218 0.72771 0.0
H1672 H 0.27283 0.04528 0.72096 0.0
H1673 H 0.55594 0.14105 0.78808 0.0
H1674 H 0.33172 0.01791 0.75334 0.0
H1675 H 0.59494 0.11054 0.75121 0.0
O1676 O 0.27312 0.13033 0.76126 0.0
H1677 H 0.31258 0.22936 0.83109 0.0
H1678 H 0.20006 0.19898 0.74638 0.0
H1679 H 0.15264 0.2194 0.78871 0.0
H1680 H 0.20899 0.23485 0.83143 0.0
H1681 H 0.35827 0.20847 0.78852 0.0
H1682 H 0.24547 0.26988 0.69284 0.0
H1683 H 0.1985 0.25102 0.64883 0.0
O1684 O 0.2555 0.16134 0.72861 0.0
C1685 C 0.35692 0.1455 0.69209 0.0
C1686 C 0.22426 0.21291 0.65943 0.0
C1687 C 0.24755 0.24961 0.6889 0.0
N1688 N 0.279 0.20819 0.70384 0.0
C1689 C 0.25359 0.19771 0.67956 0.0
C1690 C 0.2766 0.23383 0.70853 0.0
C1691 C 0.22118 0.23903 0.66422 0.0
C1692 C 0.47086 0.13651 0.77252 0.0
N1693 N 0.4362 0.12451 0.75288 0.0
C1694 C 0.52866 0.13194 0.77209 0.0
C1695 C 0.55071 0.11506 0.75126 0.0
C1696 C 0.51535 0.10371 0.73058 0.0
C1697 C 0.45791 0.10875 0.73165 0.0
C1698 C 0.37475 0.04951 0.77335 0.0
C1699 C 0.30949 0.08007 0.73714 0.0
C1700 C 0.37988 0.07594 0.77403 0.0
N1701 N 0.34778 0.09085 0.75587 0.0
C1702 C 0.30313 0.05371 0.7359 0.0
C1703 C 0.33613 0.03836 0.75411 0.0
C1704 C 0.23972 0.14296 0.74501 0.0
C1705 C 0.28758 0.22278 0.81256 0.0
C1706 C 0.22491 0.20543 0.76497 0.0
C1707 C 0.1978 0.2171 0.78884 0.0
C1708 C 0.22945 0.2258 0.81277 0.0
N1709 N 0.28199 0.20255 0.76489 0.0
C1710 C 0.31327 0.21107 0.78829 0.0
Co1711 Co 0.39185 0.62982 0.75683 0.0
Co1712 Co 0.42811 0.57101 0.73122 0.0
O1713 O 0.38555 0.59275 0.75859 0.0
C1714 C 0.4083 0.61633 0.81945 0.0
O1715 O 0.44355 0.59902 0.80993 0.0
C1716 C 0.31449 0.54746 0.73689 0.0
O1717 O 0.29196 0.57019 0.73533 0.0
O1718 O 0.39058 0.58814 0.69734 0.0
O1719 O 0.3986 0.62879 0.71211 0.0
H1720 H 0.54315 0.55307 0.64006 0.0
H1721 H 0.29349 0.60813 0.78884 0.0
O1722 O 0.38444 0.6313 0.80118 0.0
H1723 H 0.21532 0.66676 0.71407 0.0
H1724 H 0.34672 0.71955 0.78772 0.0
H1725 H 0.46385 0.66559 0.7231 0.0
H1726 H 0.31684 0.65839 0.71614 0.0
H1727 H 0.33707 0.6729 0.78885 0.0
O1728 O 0.36723 0.54471 0.73364 0.0
H1729 H 0.49137 0.58002 0.67546 0.0
H1730 H 0.45058 0.51526 0.72741 0.0
H1731 H 0.47462 0.71218 0.72113 0.0
H1732 H 0.19127 0.61628 0.7878 0.0
H1733 H 0.41568 0.73949 0.75355 0.0
H1734 H 0.15235 0.64682 0.75094 0.0
O1735 O 0.47417 0.62704 0.76118 0.0
H1736 H 0.43458 0.52791 0.83079 0.0
H1737 H 0.54717 0.55842 0.74617 0.0
H1738 H 0.59456 0.53793 0.78847 0.0
H1739 H 0.53817 0.52241 0.83114 0.0
H1740 H 0.38894 0.54887 0.78827 0.0
H1741 H 0.50182 0.4876 0.69252 0.0
H1742 H 0.54877 0.50651 0.64853 0.0
O1743 O 0.49178 0.59608 0.72847 0.0
C1744 C 0.39043 0.61199 0.69196 0.0
C1745 C 0.52298 0.54461 0.65919 0.0
C1746 C 0.49971 0.50787 0.6886 0.0
N1747 N 0.46823 0.54928 0.7036 0.0
C1748 C 0.49365 0.55979 0.67934 0.0
C1749 C 0.47062 0.52363 0.70825 0.0
C1750 C 0.52607 0.51849 0.66394 0.0
C1751 C 0.27641 0.62088 0.77234 0.0
N1752 N 0.31111 0.63291 0.75274 0.0
C1753 C 0.21859 0.62543 0.77185 0.0
C1754 C 0.19659 0.64232 0.75103 0.0
C1755 C 0.23201 0.65371 0.73041 0.0
C1756 C 0.28945 0.6487 0.73153 0.0
C1757 C 0.37257 0.70786 0.77344 0.0
C1758 C 0.43789 0.67735 0.73719 0.0
C1759 C 0.36741 0.68142 0.77404 0.0
N1760 N 0.39955 0.66654 0.75586 0.0
C1761 C 0.44427 0.70372 0.73603 0.0
C1762 C 0.41124 0.71903 0.75426 0.0
C1763 C 0.50758 0.61443 0.74493 0.0
C1764 C 0.4596 0.53452 0.81229 0.0
C1765 C 0.52231 0.55194 0.76475 0.0
C1766 C 0.5494 0.54024 0.78859 0.0
C1767 C 0.51773 0.53149 0.8125 0.0
N1768 N 0.46523 0.55483 0.76466 0.0
C1769 C 0.43393 0.54627 0.78804 0.0
Co1770 Co 0.35623 0.62935 1.00458 0.0
Co1771 Co 0.3196 0.5705 0.02994 0.0
O1772 O 0.36236 0.59227 1.00269 0.0
C1773 C 0.33985 0.61607 0.9419 0.0
O1774 O 0.30453 0.59875 0.95132 0.0
C1775 C 0.43319 0.54693 0.02443 0.0
O1776 O 0.45569 0.56965 0.0262 0.0
O1777 O 0.35703 0.5875 0.06395 0.0
O1778 O 0.3494 0.6282 0.04928 0.0
H1779 H 0.20394 0.55236 0.12083 0.0
H1780 H 0.45456 0.60764 0.97255 0.0
O1781 O 0.36374 0.63095 0.96024 0.0
H1782 H 0.53282 0.666 0.04757 0.0
H1783 H 0.40189 0.71912 0.9741 0.0
H1784 H 0.28437 0.6651 0.03843 0.0
H1785 H 0.43128 0.65772 0.04542 0.0
H1786 H 0.41127 0.67246 0.97276 0.0
O1787 O 0.38042 0.54417 0.0275 0.0
H1788 H 0.25606 0.57938 0.08564 0.0
H1789 H 0.29699 0.51475 0.0335 0.0
H1790 H 0.27386 0.71169 0.04061 0.0
H1791 H 0.55681 0.61569 0.97368 0.0
H1792 H 0.33301 0.73903 0.00833 0.0
H1793 H 0.59578 0.64611 0.01067 0.0
O1794 O 0.27392 0.62668 1.00018 0.0
H1795 H 0.31345 0.52768 0.9302 0.0
H1796 H 0.20057 0.55804 0.01479 0.0
H1797 H 0.15331 0.53771 0.97235 0.0
H1798 H 0.20985 0.52226 0.92969 0.0
H1799 H 0.35897 0.54849 0.97287 0.0
H1800 H 0.24547 0.48702 0.06819 0.0
H1801 H 0.19825 0.50583 0.11216 0.0
O1802 O 0.256 0.59561 0.03271 0.0
C1803 C 0.35741 0.61134 0.06939 0.0
C1804 C 0.22422 0.54395 0.10171 0.0
C1805 C 0.2476 0.50728 0.0722 0.0
N1806 N 0.27928 0.54871 0.05742 0.0
C1807 C 0.25374 0.55916 0.08168 0.0
C1808 C 0.27685 0.52307 0.05267 0.0
C1809 C 0.22109 0.51784 0.09685 0.0
C1810 C 0.47167 0.62032 0.98911 0.0
N1811 N 0.43698 0.63233 0.00873 0.0
C1812 C 0.5295 0.62482 0.98964 0.0
C1813 C 0.55152 0.64164 0.01054 0.0
C1814 C 0.51611 0.65301 0.03118 0.0
C1815 C 0.45866 0.64804 0.03001 0.0
C1816 C 0.37596 0.70741 0.98831 0.0
C1817 C 0.31041 0.67687 0.02441 0.0
C1818 C 0.38096 0.68097 0.98759 0.0
N1819 N 0.34871 0.66607 0.00569 0.0
C1820 C 0.30418 0.70324 0.02568 0.0
C1821 C 0.33732 0.71857 0.00754 0.0
C1822 C 0.24038 0.61404 0.01634 0.0
C1823 C 0.28837 0.53426 0.9487 0.0
C1824 C 0.2255 0.5516 0.99622 0.0
C1825 C 0.19848 0.53998 0.97229 0.0
C1826 C 0.23024 0.53128 0.94839 0.0
N1827 N 0.28258 0.55444 0.99639 0.0
C1828 C 0.31397 0.54592 0.97303 0.0
Co1829 Co 0.39144 0.12762 1.00469 0.0
Co1830 Co 0.42884 0.18636 0.03007 0.0
O1831 O 0.38578 0.16471 1.00282 0.0
C1832 C 0.40776 0.14088 0.942 0.0
O1833 O 0.44333 0.15811 0.95139 0.0
C1834 C 0.31558 0.21025 0.02458 0.0
O1835 O 0.2928 0.18758 0.02625 0.0
O1836 O 0.39123 0.16944 0.06408 0.0
O1837 O 0.39844 0.12873 0.04938 0.0
H1838 H 0.54483 0.20409 0.12095 0.0
H1839 H 0.29329 0.14961 0.97277 0.0
O1840 O 0.38376 0.12605 0.96036 0.0
H1841 H 0.21446 0.09162 0.04802 0.0
H1842 H 0.34449 0.03798 0.97423 0.0
H1843 H 0.46295 0.09167 0.03846 0.0
H1844 H 0.31615 0.09944 0.04559 0.0
H1845 H 0.33572 0.08466 0.97291 0.0
O1846 O 0.36838 0.21287 0.02768 0.0
H1847 H 0.49236 0.17724 0.08573 0.0
H1848 H 0.45218 0.24205 0.03371 0.0
H1849 H 0.47281 0.04504 0.04063 0.0
H1850 H 0.19088 0.14201 0.97416 0.0
H1851 H 0.41318 0.01787 0.00841 0.0
H1852 H 0.15157 0.11183 0.01132 0.0
O1853 O 0.47379 0.13008 1.00023 0.0
H1854 H 0.43547 0.22918 0.93034 0.0
H1855 H 0.54801 0.19852 0.01491 0.0
H1856 H 0.59551 0.21874 0.97246 0.0
H1857 H 0.53914 0.23434 0.92982 0.0
H1858 H 0.38971 0.2085 0.97302 0.0
H1859 H 0.50404 0.2696 0.06844 0.0
H1860 H 0.55107 0.25062 0.11236 0.0
O1861 O 0.49209 0.16107 0.03279 0.0
C1862 C 0.39065 0.1456 0.06951 0.0
C1863 C 0.52464 0.21258 0.10185 0.0
C1864 C 0.50168 0.24934 0.0724 0.0
N1865 N 0.46948 0.20801 0.05757 0.0
C1866 C 0.49492 0.19746 0.08179 0.0
C1867 C 0.47223 0.23365 0.05285 0.0
C1868 C 0.52808 0.23868 0.09704 0.0
C1869 C 0.27606 0.137 0.98937 0.0
N1870 N 0.31067 0.12485 0.00892 0.0
C1871 C 0.21814 0.13276 0.99006 0.0
C1872 C 0.19594 0.11607 0.01104 0.0
C1873 C 0.2313 0.10453 0.03158 0.0
C1874 C 0.28885 0.10923 0.03024 0.0
C1875 C 0.37062 0.04961 0.98842 0.0
C1876 C 0.4367 0.07997 0.02446 0.0
C1877 C 0.36597 0.07607 0.98772 0.0
N1878 N 0.39848 0.09087 0.00578 0.0
C1879 C 0.44257 0.05358 0.02573 0.0
C1880 C 0.40916 0.03834 0.00762 0.0
C1881 C 0.5075 0.14262 0.01639 0.0
C1882 C 0.46048 0.22255 0.94884 0.0
C1883 C 0.52316 0.20504 0.99635 0.0
C1884 C 0.55031 0.21659 0.97242 0.0
C1885 C 0.51865 0.22537 0.94852 0.0
N1886 N 0.46604 0.20235 0.99653 0.0
C1887 C 0.43475 0.21094 0.97317 0.0
C1888 C 0.13179 0.38949 0.14581 0.0
C1889 C 0.14139 0.36643 0.16062 0.0
H1890 H 0.10919 0.4075 0.10471 0.0
C1891 C 0.13328 0.34344 0.14544 0.0
H1892 H 0.13772 0.40743 0.15718 0.0
C1893 C 0.11499 0.34348 0.11601 0.0
C1894 C 0.10639 0.36651 0.10099 0.0
H1895 H 0.13998 0.32543 0.15653 0.0
H1896 H 0.10869 0.3255 0.10479 0.0
C1897 C 0.1155 0.38954 0.11596 0.0
C1898 C 0.13116 0.86792 0.11509 0.0
C1899 C 0.14076 0.89099 0.1003 0.0
H1900 H 0.10845 0.8499 0.15617 0.0
C1901 C 0.13249 0.91397 0.11547 0.0
H1902 H 0.13722 0.84999 0.10373 0.0
C1903 C 0.11406 0.91392 0.14488 0.0
C1904 C 0.10548 0.89089 0.15989 0.0
H1905 H 0.13919 0.93199 0.10439 0.0
H1906 H 0.10765 0.9319 0.15609 0.0
C1907 C 0.11473 0.86787 0.14493 0.0
C1908 C 0.8649 0.6639 0.86585 0.0
C1909 C 0.85656 0.64091 0.85072 0.0
H1910 H 0.88973 0.68187 0.90645 0.0
C1911 C 0.86597 0.61785 0.86558 0.0
H1912 H 0.85835 0.68191 0.85472 0.0
C1913 C 0.8823 0.61782 0.89542 0.0
C1914 C 0.89165 0.64086 0.91034 0.0
H1915 H 0.85986 0.59991 0.85425 0.0
H1916 H 0.88846 0.59986 0.90671 0.0
C1917 C 0.88324 0.66388 0.89527 0.0
C1918 C 0.86503 0.13977 0.89526 0.0
C1919 C 0.8559 0.11671 0.91017 0.0
H1920 H 0.8873 0.15774 0.8541 0.0
C1921 C 0.8645 0.09371 0.89509 0.0
H1922 H 0.85872 0.15771 0.90656 0.0
C1923 C 0.88282 0.09373 0.86566 0.0
C1924 C 0.89096 0.11675 0.85055 0.0
H1925 H 0.85818 0.0757 0.90626 0.0
H1926 H 0.88952 0.07574 0.85452 0.0
C1927 C 0.88135 0.13978 0.86542 0.0
C1928 C 0.13317 0.88976 0.64496 0.0
C1929 C 0.14229 0.86672 0.6599 0.0
H1930 H 0.11089 0.9077 0.60377 0.0
C1931 C 0.13368 0.84371 0.64486 0.0
H1932 H 0.13947 0.90772 0.65624 0.0
C1933 C 0.11536 0.8437 0.61543 0.0
C1934 C 0.10722 0.8667 0.60028 0.0
H1935 H 0.13999 0.82571 0.65605 0.0
H1936 H 0.10864 0.8257 0.60432 0.0
C1937 C 0.11685 0.88975 0.61512 0.0
C1938 C 0.13361 0.41343 0.61601 0.0
C1939 C 0.14198 0.39039 0.60099 0.0
H1940 H 0.10886 0.43152 0.65656 0.0
C1941 C 0.13275 0.36738 0.61596 0.0
H1942 H 0.14 0.43141 0.60479 0.0
C1943 C 0.11657 0.36744 0.64583 0.0
C1944 C 0.10717 0.39052 0.66064 0.0
H1945 H 0.13888 0.3494 0.60471 0.0
H1946 H 0.11053 0.34952 0.65721 0.0
C1947 C 0.11541 0.4135 0.64546 0.0
C1948 C 0.8661 0.11734 0.36541 0.0
C1949 C 0.85673 0.1404 0.35055 0.0
H1950 H 0.8885 0.09936 0.40656 0.0
C1951 C 0.86512 0.1634 0.36567 0.0
H1952 H 0.85995 0.0994 0.35409 0.0
C1953 C 0.88344 0.16337 0.3951 0.0
C1954 C 0.89178 0.14036 0.41017 0.0
H1955 H 0.85861 0.18141 0.35454 0.0
H1956 H 0.88994 0.18137 0.40627 0.0
C1957 C 0.8824 0.11732 0.39526 0.0
C1958 C 0.88234 0.63926 0.36559 0.0
C1959 C 0.89187 0.61622 0.35072 0.0
H1960 H 0.85971 0.65721 0.40672 0.0
C1961 C 0.88362 0.59321 0.36583 0.0
H1962 H 0.88837 0.65721 0.35427 0.0
C1963 C 0.86525 0.5932 0.39525 0.0
C1964 C 0.8567 0.61621 0.41033 0.0
H1965 H 0.89026 0.57521 0.3547 0.0
H1966 H 0.85882 0.5752 0.40642 0.0
C1967 C 0.86597 0.63926 0.39543 0.0
C1968 C 0.61524 0.34302 0.61561 0.0
C1969 C 0.60689 0.36602 0.60049 0.0
H1970 H 0.64009 0.32504 0.65621 0.0
C1971 C 0.61636 0.38907 0.61535 0.0
H1972 H 0.60864 0.32502 0.60449 0.0
C1973 C 0.63274 0.38909 0.64519 0.0
C1974 C 0.64208 0.36605 0.6601 0.0
H1975 H 0.61024 0.40702 0.60403 0.0
H1976 H 0.63894 0.40705 0.65647 0.0
C1977 C 0.63362 0.34304 0.64503 0.0
C1978 C 0.61686 0.86778 0.64607 0.0
C1979 C 0.60722 0.89083 0.6609 0.0
H1980 H 0.63952 0.8498 0.60496 0.0
C1981 C 0.6154 0.91383 0.64575 0.0
H1982 H 0.61088 0.84983 0.65742 0.0
C1983 C 0.63377 0.91382 0.61633 0.0
C1984 C 0.64238 0.8908 0.60129 0.0
H1985 H 0.60868 0.93183 0.65686 0.0
H1986 H 0.6401 0.93181 0.60514 0.0
C1987 C 0.63322 0.86776 0.61623 0.0
C1988 C 0.36576 0.61738 0.3658 0.0
C1989 C 0.35644 0.64041 0.35086 0.0
H1990 H 0.38816 0.59949 0.40701 0.0
C1991 C 0.36482 0.66344 0.3659 0.0
H1992 H 0.35963 0.59941 0.35453 0.0
C1993 C 0.38311 0.66348 0.39533 0.0
C1994 C 0.39145 0.6405 0.41048 0.0
H1995 H 0.35834 0.68142 0.35471 0.0
H1996 H 0.38964 0.6815 0.40644 0.0
C1997 C 0.38205 0.61743 0.39565 0.0
C1998 C 0.36475 0.09335 0.3955 0.0
C1999 C 0.35642 0.11636 0.41061 0.0
H2000 H 0.38957 0.07536 0.35491 0.0
C2001 C 0.36588 0.13941 0.39574 0.0
H2002 H 0.35816 0.07535 0.40664 0.0
C2003 C 0.38223 0.13941 0.3659 0.0
C2004 C 0.39156 0.11637 0.351 0.0
H2005 H 0.35978 0.15736 0.40706 0.0
H2006 H 0.38842 0.15737 0.35461 0.0
C2007 C 0.3831 0.09336 0.36608 0.0
C2008 C 0.63245 0.84357 0.14574 0.0
C2009 C 0.64057 0.86656 0.16092 0.0
H2010 H 0.60792 0.82563 0.10508 0.0
C2011 C 0.63104 0.88962 0.14611 0.0
H2012 H 0.6391 0.82556 0.15684 0.0
C2013 C 0.61482 0.88967 0.11625 0.0
C2014 C 0.60571 0.86664 0.10127 0.0
H2015 H 0.63699 0.90756 0.15748 0.0
H2016 H 0.60859 0.90764 0.10499 0.0
C2017 C 0.61422 0.84361 0.1163 0.0
C2018 C 0.63197 0.36728 0.11534 0.0
C2019 C 0.64159 0.39033 0.1005 0.0
H2020 H 0.60931 0.34932 0.15646 0.0
C2021 C 0.63345 0.41333 0.11564 0.0
H2022 H 0.63793 0.34933 0.10399 0.0
C2023 C 0.6151 0.41333 0.14506 0.0
C2024 C 0.60648 0.39032 0.16011 0.0
H2025 H 0.64016 0.43133 0.10453 0.0
H2026 H 0.60877 0.43132 0.15625 0.0
C2027 C 0.61564 0.36727 0.14519 0.0
C2028 C 0.36431 0.16361 0.86608 0.0
C2029 C 0.35572 0.14061 0.851 0.0
H2030 H 0.38938 0.18159 0.90663 0.0
C2031 C 0.36493 0.11756 0.8659 0.0
H2032 H 0.35793 0.18162 0.85492 0.0
C2033 C 0.3813 0.11754 0.89574 0.0
C2034 C 0.3909 0.14058 0.91061 0.0
H2035 H 0.35864 0.09961 0.85461 0.0
H2036 H 0.38731 0.09959 0.90706 0.0
C2037 C 0.38269 0.1636 0.8955 0.0
C2038 C 0.38313 0.59354 0.86588 0.0
C2039 C 0.39156 0.61658 0.85086 0.0
H2040 H 0.35828 0.57545 0.9064 0.0
C2041 C 0.38228 0.63959 0.86583 0.0
H2042 H 0.38957 0.57556 0.85466 0.0
C2043 C 0.36599 0.63953 0.89568 0.0
C2044 C 0.35656 0.61645 0.91049 0.0
H2045 H 0.38845 0.65757 0.85457 0.0
H2046 H 0.35994 0.65745 0.90705 0.0
C2047 C 0.36484 0.59347 0.89531 0.0
C2048 C 0.94196 0.25636 0.24942 0.0
C2049 C 0.96721 0.23236 0.24563 0.0
H2050 H 0.95258 0.29539 0.26175 0.0
C2051 C 0.02465 0.22975 0.25201 0.0
H2052 H 0.8977 0.25909 0.24491 0.0
C2053 C 0.05604 0.25059 0.26189 0.0
C2054 C 0.03078 0.27459 0.26568 0.0
H2055 H 0.04542 0.21156 0.24956 0.0
H2056 H 0.1003 0.24786 0.2664 0.0
C2057 C 0.97334 0.2772 0.2593 0.0
C2058 C 0.19176 0.00643 0.26175 0.0
C2059 C 0.21702 0.98239 0.26521 0.0
H2060 H 0.20232 0.04556 0.24987 0.0
C2061 C 0.27441 0.97983 0.2587 0.0
H2062 H 0.14753 0.00912 0.26638 0.0
C2063 C 0.30575 1.00075 0.24901 0.0
C2064 C 0.28049 0.02479 0.24556 0.0
H2065 H 0.29518 0.96161 0.26089 0.0
H2066 H 0.34997 0.99805 0.24439 0.0
C2067 C 0.22309 0.02735 0.25206 0.0
C2068 C 0.05692 0.00699 0.99866 0.0
C2069 C 0.03167 0.98298 0.995 0.0
H2070 H 0.04632 0.04606 0.01088 0.0
C2071 C 0.97428 0.98037 1.00151 0.0
H2072 H 0.10114 0.00972 0.99405 0.0
C2073 C 0.94295 1.00123 0.0114 0.0
C2074 C 0.96819 0.02524 0.01505 0.0
H2075 H 0.95353 0.96217 0.99917 0.0
H2076 H 0.89873 0.99849 0.01601 0.0
C2077 C 0.02557 0.02786 0.00854 0.0
C2078 C 0.30687 0.25668 0.01232 0.0
C2079 C 0.28148 0.23268 0.01577 0.0
H2080 H 0.29655 0.29582 1.00034 0.0
C2081 C 0.22413 0.23016 0.00913 0.0
H2082 H 0.35107 0.25934 0.01704 0.0
C2083 C 0.19297 0.2511 0.99932 0.0
C2084 C 0.21835 0.27511 0.99588 0.0
H2085 H 0.20326 0.21197 0.0113 0.0
H2086 H 0.14877 0.24843 0.9946 0.0
C2087 C 0.2757 0.27763 1.00252 0.0
C2088 C 0.02416 0.73017 0.75198 0.0
C2089 C 0.96684 0.73269 0.74526 0.0
H2090 H 0.09951 0.74846 0.76649 0.0
C2091 C 0.9415 0.75673 0.74853 0.0
H2092 H 0.04498 0.71196 0.74994 0.0
C2093 C 0.97269 0.7777 0.75823 0.0
C2094 C 0.03001 0.77517 0.76496 0.0
H2095 H 0.89733 0.75939 0.74374 0.0
H2096 H 0.95187 0.79591 0.76028 0.0
C2097 C 0.05533 0.75113 0.76169 0.0
C2098 C 0.6913 0.00676 0.76208 0.0
C2099 C 0.71661 0.98279 0.76598 0.0
H2100 H 0.70185 0.04576 0.74958 0.0
C2101 C 0.77406 0.98018 0.75963 0.0
H2102 H 0.64703 0.00948 0.76657 0.0
C2103 C 0.8054 1.00101 0.74966 0.0
C2104 C 0.7801 0.02498 0.74575 0.0
H2105 H 0.79486 0.96201 0.76216 0.0
H2106 H 0.84967 0.99828 0.74517 0.0
C2107 C 0.72265 0.02759 0.75211 0.0
C2108 C 0.77535 0.7776 1.00282 0.0
C2109 C 0.71801 0.7751 0.99614 0.0
H2110 H 0.85073 0.75928 0.01725 0.0
C2111 C 0.69267 0.75106 0.99942 0.0
H2112 H 0.79617 0.79581 1.00076 0.0
C2113 C 0.72385 0.73009 0.0091 0.0
C2114 C 0.78119 0.73259 0.01577 0.0
H2115 H 0.64848 0.7484 0.99466 0.0
H2116 H 0.70302 0.71188 0.01115 0.0
C2117 C 0.80654 0.75662 0.0125 0.0
C2118 C 0.30554 0.5011 0.74944 0.0
C2119 C 0.28021 0.5251 0.74574 0.0
H2120 H 0.29506 0.46204 0.76167 0.0
C2121 C 0.22278 0.52767 0.75217 0.0
H2122 H 0.34979 0.49841 0.7449 0.0
C2123 C 0.19147 0.50678 0.76201 0.0
C2124 C 0.2168 0.48279 0.76571 0.0
H2125 H 0.20196 0.54585 0.74979 0.0
H2126 H 0.14721 0.50947 0.76655 0.0
C2127 C 0.27424 0.48023 0.75929 0.0
C2128 C 0.0245 0.52701 0.50918 0.0
C2129 C 0.96709 0.52447 0.51568 0.0
H2130 H 0.10001 0.50877 0.49479 0.0
C2131 C 0.94177 0.50046 0.51214 0.0
H2132 H 0.04531 0.5452 0.51143 0.0
C2133 C 0.97304 0.47954 0.50237 0.0
C2134 C 0.03045 0.48208 0.49586 0.0
H2135 H 0.89753 0.49778 0.51675 0.0
H2136 H 0.95223 0.46135 0.50011 0.0
C2137 C 0.05577 0.50609 0.49941 0.0
C2138 C 0.22325 0.72992 0.50887 0.0
C2139 C 0.28068 0.7325 0.51531 0.0
H2140 H 0.14768 0.74808 0.49443 0.0
C2141 C 0.30598 0.75649 0.51157 0.0
H2142 H 0.20246 0.71173 0.51128 0.0
C2143 C 0.27466 0.77736 0.50168 0.0
C2144 C 0.21724 0.77478 0.49525 0.0
H2145 H 0.35023 0.7592 0.51613 0.0
H2146 H 0.29546 0.79554 0.49928 0.0
C2147 C 0.19193 0.75078 0.49898 0.0
C2148 C 0.72388 0.52716 0.25163 0.0
C2149 C 0.78134 0.52455 0.24529 0.0
H2150 H 0.64817 0.50903 0.26588 0.0
C2151 C 0.80655 0.50053 0.249 0.0
H2152 H 0.70315 0.54536 0.24924 0.0
C2153 C 0.77511 0.47967 0.25877 0.0
C2154 C 0.71765 0.48228 0.2651 0.0
H2155 H 0.85083 0.49781 0.24452 0.0
H2156 H 0.79583 0.46146 0.26116 0.0
C2157 C 0.69244 0.5063 0.2614 0.0
C2158 C 0.69185 0.2506 0.49836 0.0
C2159 C 0.71719 0.27462 0.49497 0.0
H2160 H 0.7022 0.21147 0.51035 0.0
C2161 C 0.7745 0.27717 0.50168 0.0
H2162 H 0.64768 0.24792 0.49358 0.0
C2163 C 0.80568 0.25624 0.51152 0.0
C2164 C 0.78033 0.23222 0.51493 0.0
H2165 H 0.79532 0.29537 0.49954 0.0
H2166 H 0.84984 0.25893 0.5163 0.0
C2167 C 0.72302 0.22967 0.5082 0.0
C2168 C 0.52431 0.22983 0.75256 0.0
C2169 C 0.46698 0.23241 0.74589 0.0
H2170 H 0.59979 0.24805 0.76701 0.0
C2171 C 0.44175 0.25647 0.74922 0.0
H2172 H 0.54505 0.21161 0.75046 0.0
C2173 C 0.47305 0.2774 0.75893 0.0
C2174 C 0.53039 0.27482 0.76559 0.0
H2175 H 0.39757 0.25918 0.74448 0.0
H2176 H 0.45232 0.29563 0.76102 0.0
C2177 C 0.55561 0.25076 0.76227 0.0
C2178 C 0.44167 1.00063 0.51245 0.0
C2179 C 0.46692 0.02466 0.51598 0.0
H2180 H 0.45225 0.96153 0.50043 0.0
C2181 C 0.52431 0.02724 0.50945 0.0
H2182 H 0.39745 0.99793 0.51708 0.0
C2183 C 0.55564 0.00634 0.49968 0.0
C2184 C 0.53039 0.98232 0.49615 0.0
H2185 H 0.54507 0.04545 0.5117 0.0
H2186 H 0.59986 0.00905 0.49505 0.0
C2187 C 0.47301 0.97973 0.50268 0.0
C2188 C 0.47359 0.77701 0.25937 0.0
C2189 C 0.53094 0.77449 0.26603 0.0
H2190 H 0.39829 0.75874 0.24475 0.0
C2191 C 0.55637 0.75049 0.26255 0.0
H2192 H 0.4527 0.79519 0.26157 0.0
C2193 C 0.52525 0.72956 0.25269 0.0
C2194 C 0.46791 0.73208 0.24601 0.0
H2195 H 0.60056 0.74784 0.26729 0.0
H2196 H 0.54613 0.71138 0.25048 0.0
C2197 C 0.44248 0.75608 0.24949 0.0
C2198 C 0.47378 0.47979 1.00178 0.0
C2199 C 0.53126 0.48241 0.9955 0.0
H2200 H 0.39806 0.49789 0.01609 0.0
C2201 C 0.5565 0.5064 0.99938 0.0
H2202 H 0.45303 0.46161 0.99926 0.0
C2203 C 0.52506 0.52723 0.00925 0.0
C2204 C 0.46758 0.52462 0.01553 0.0
H2205 H 0.60078 0.50913 0.99494 0.0
H2206 H 0.54581 0.54541 0.01177 0.0
C2207 C 0.44235 0.50062 0.01166 0.0
C2208 C 0.13444 0.40417 0.38734 0.0
C2209 C 0.13526 0.3865 0.41075 0.0
H2210 H 0.13553 0.41022 0.34043 0.0
C2211 C 0.13463 0.36042 0.40379 0.0
H2212 H 0.13497 0.4244 0.39177 0.0
C2213 C 0.13475 0.35225 0.37424 0.0
C2214 C 0.13576 0.36993 0.35084 0.0
H2215 H 0.13523 0.34621 0.42117 0.0
H2216 H 0.13551 0.33203 0.36981 0.0
C2217 C 0.13481 0.39601 0.35779 0.0
C2218 C 0.11325 0.90447 0.37355 0.0
C2219 C 0.11208 0.8868 0.35013 0.0
H2220 H 0.11268 0.9105 0.42047 0.0
C2221 C 0.11261 0.86072 0.35708 0.0
H2222 H 0.1128 0.92469 0.36914 0.0
C2223 C 0.11276 0.85254 0.38663 0.0
C2224 C 0.11211 0.87021 0.41004 0.0
H2225 H 0.11175 0.84652 0.33969 0.0
H2226 H 0.11192 0.83232 0.39105 0.0
C2227 C 0.11313 0.89629 0.40309 0.0
C2228 C 0.13447 0.85318 0.87358 0.0
C2229 C 0.13568 0.87082 0.85014 0.0
H2230 H 0.13528 0.84718 0.9205 0.0
C2231 C 0.13546 0.89691 0.85706 0.0
H2232 H 0.1347 0.83295 0.86918 0.0
C2233 C 0.13557 0.90511 0.8866 0.0
C2234 C 0.13618 0.88745 0.91003 0.0
H2235 H 0.13637 0.91109 0.83966 0.0
H2236 H 0.13663 0.92533 0.891 0.0
C2237 C 0.13486 0.86138 0.90311 0.0
C2238 C 0.11265 0.40504 0.87429 0.0
C2239 C 0.11237 0.38737 0.85088 0.0
H2240 H 0.11152 0.41105 0.92123 0.0
C2241 C 0.11393 0.3613 0.85783 0.0
H2242 H 0.11139 0.42526 0.86987 0.0
C2243 C 0.11422 0.35312 0.88736 0.0
C2244 C 0.11269 0.37077 0.91078 0.0
H2245 H 0.11376 0.34709 0.84045 0.0
H2246 H 0.11419 0.33289 0.89177 0.0
C2247 C 0.11268 0.39686 0.90384 0.0
C2248 C 0.86299 0.65446 0.63698 0.0
C2249 C 0.86203 0.63684 0.66044 0.0
H2250 H 0.86219 0.66039 0.59004 0.0
C2251 C 0.86271 0.61074 0.65357 0.0
H2252 H 0.86242 0.67469 0.64135 0.0
C2253 C 0.8628 0.6025 0.62404 0.0
C2254 C 0.86194 0.62013 0.60058 0.0
H2255 H 0.86201 0.59657 0.67099 0.0
H2256 H 0.86208 0.58227 0.61967 0.0
C2257 C 0.86281 0.64622 0.60746 0.0
C2258 C 0.88419 0.10253 0.63696 0.0
C2259 C 0.88506 0.12024 0.66034 0.0
H2260 H 0.88497 0.09645 0.59004 0.0
C2261 C 0.88415 0.1463 0.65334 0.0
H2262 H 0.88493 0.08232 0.64142 0.0
C2263 C 0.88396 0.15444 0.62378 0.0
C2264 C 0.88494 0.13674 0.6004 0.0
H2265 H 0.88476 0.16054 0.67069 0.0
H2266 H 0.88452 0.17466 0.61932 0.0
C2267 C 0.88426 0.11067 0.60739 0.0
C2268 C 0.86261 0.1548 0.13694 0.0
C2269 C 0.86208 0.13711 0.16033 0.0
H2270 H 0.86162 0.16086 0.09001 0.0
C2271 C 0.86333 0.11104 0.15335 0.0
H2272 H 0.86159 0.17502 0.14139 0.0
C2273 C 0.86358 0.10289 0.12379 0.0
C2274 C 0.8623 0.12057 0.1004 0.0
H2275 H 0.86297 0.09682 0.1707 0.0
H2276 H 0.86332 0.08267 0.11935 0.0
C2277 C 0.86258 0.14665 0.10738 0.0
C2278 C 0.8854 0.61068 0.10749 0.0
C2279 C 0.88602 0.63677 0.10059 0.0
H2280 H 0.88609 0.58223 0.14141 0.0
C2281 C 0.88498 0.65441 0.12404 0.0
H2282 H 0.88617 0.5965 0.09008 0.0
C2283 C 0.88515 0.64619 0.15357 0.0
C2284 C 0.8861 0.6201 0.16047 0.0
H2285 H 0.88549 0.67464 0.11966 0.0
H2286 H 0.88571 0.66037 0.17098 0.0
C2287 C 0.88531 0.60246 0.13702 0.0
C2288 C 0.63467 0.36109 0.90333 0.0
C2289 C 0.63629 0.38716 0.91027 0.0
H2290 H 0.63443 0.33267 0.86941 0.0
C2291 C 0.63619 0.40483 0.88684 0.0
H2292 H 0.6347 0.34689 0.92071 0.0
C2293 C 0.63626 0.39663 0.85729 0.0
C2294 C 0.63617 0.37054 0.85037 0.0
H2295 H 0.63752 0.42504 0.89126 0.0
H2296 H 0.63755 0.41081 0.83989 0.0
C2297 C 0.63447 0.3529 0.8738 0.0
C2298 C 0.61292 0.89686 0.9041 0.0
C2299 C 0.6127 0.87078 0.91104 0.0
H2300 H 0.61175 0.92527 0.87013 0.0
C2301 C 0.61396 0.85312 0.88762 0.0
H2302 H 0.61198 0.91106 0.92149 0.0
C2303 C 0.61361 0.86131 0.85808 0.0
C2304 C 0.61226 0.88738 0.85114 0.0
H2305 H 0.61375 0.83289 0.89203 0.0
H2306 H 0.61323 0.8471 0.8407 0.0
C2307 C 0.61283 0.90505 0.87455 0.0
C2308 C 0.63431 0.90443 0.38764 0.0
C2309 C 0.63544 0.88678 0.41106 0.0
H2310 H 0.63497 0.91043 0.34071 0.0
C2311 C 0.63488 0.8607 0.40414 0.0
H2312 H 0.63478 0.92466 0.39203 0.0
C2313 C 0.63477 0.8525 0.3746 0.0
C2314 C 0.63548 0.87016 0.35117 0.0
H2315 H 0.63571 0.84651 0.42154 0.0
H2316 H 0.63559 0.83227 0.3702 0.0
C2317 C 0.63447 0.89624 0.3581 0.0
C2318 C 0.61178 0.39658 0.4033 0.0
C2319 C 0.6118 0.37049 0.41021 0.0
H2320 H 0.61063 0.425 0.36934 0.0
C2321 C 0.61343 0.35285 0.38678 0.0
H2322 H 0.61054 0.41075 0.4207 0.0
C2323 C 0.61327 0.36105 0.35725 0.0
C2324 C 0.61175 0.38712 0.35032 0.0
H2325 H 0.61342 0.33262 0.39117 0.0
H2326 H 0.6132 0.34685 0.33987 0.0
C2327 C 0.61189 0.40478 0.37375 0.0
C2328 C 0.36337 0.61042 0.15369 0.0
C2329 C 0.36285 0.6365 0.16064 0.0
H2330 H 0.36251 0.58202 0.11971 0.0
C2331 C 0.36387 0.65417 0.13723 0.0
H2332 H 0.36262 0.59621 0.17107 0.0
C2333 C 0.36358 0.646 0.10769 0.0
C2334 C 0.36254 0.61992 0.10073 0.0
H2335 H 0.36342 0.67439 0.14165 0.0
H2336 H 0.363 0.66021 0.09031 0.0
C2337 C 0.36335 0.60225 0.12414 0.0
C2338 C 0.38438 0.10274 0.13733 0.0
C2339 C 0.38562 0.1204 0.16075 0.0
H2340 H 0.38491 0.09673 0.09041 0.0
C2341 C 0.38517 0.14648 0.15382 0.0
H2342 H 0.38475 0.08251 0.14174 0.0
C2343 C 0.38505 0.15467 0.12427 0.0
C2344 C 0.38563 0.13701 0.10085 0.0
H2345 H 0.38608 0.16068 0.1712 0.0
H2346 H 0.38596 0.17489 0.11985 0.0
C2347 C 0.38451 0.11093 0.10779 0.0
C2348 C 0.36274 0.1108 0.65384 0.0
C2349 C 0.36194 0.13688 0.66076 0.0
H2350 H 0.36223 0.08238 0.6199 0.0
C2351 C 0.36282 0.15454 0.63733 0.0
H2352 H 0.36211 0.0966 0.67123 0.0
C2353 C 0.36266 0.14634 0.60779 0.0
C2354 C 0.3619 0.12026 0.60087 0.0
H2355 H 0.36216 0.17476 0.64174 0.0
H2356 H 0.36197 0.16053 0.5904 0.0
C2357 C 0.36286 0.1026 0.6243 0.0
C2358 C 0.38445 0.60294 0.63722 0.0
C2359 C 0.38553 0.62062 0.66063 0.0
H2360 H 0.38523 0.59689 0.59031 0.0
C2361 C 0.38507 0.6467 0.65366 0.0
H2362 H 0.38485 0.58272 0.64165 0.0
C2363 C 0.38507 0.65487 0.62411 0.0
C2364 C 0.3858 0.63718 0.60071 0.0
H2365 H 0.38588 0.6609 0.67104 0.0
H2366 H 0.38596 0.67508 0.61967 0.0
C2367 C 0.38472 0.61111 0.60767 0.0
C2368 C 0.34613 0.37461 0.29322 0.0
C2369 C 0.31722 0.37136 0.26636 0.0
H2370 H 0.42406 0.38486 0.31401 0.0
C2371 C 0.3454 0.37519 0.2394 0.0
H2372 H 0.3249 0.37178 0.31423 0.0
C2373 C 0.40215 0.38181 0.23927 0.0
C2374 C 0.43082 0.38552 0.2661 0.0
H2375 H 0.32372 0.37266 0.21847 0.0
H2376 H 0.42344 0.38445 0.21824 0.0
C2377 C 0.40242 0.38213 0.2931 0.0
C2378 C 0.84452 0.87592 0.23968 0.0
C2379 C 0.8166 0.8717 0.26664 0.0
H2380 H 0.92239 0.88542 0.21849 0.0
C2381 C 0.84582 0.87452 0.29348 0.0
H2382 H 0.82263 0.87371 0.21876 0.0
C2383 C 0.90214 0.88198 0.29334 0.0
C2384 C 0.93027 0.88574 0.26634 0.0
H2385 H 0.82481 0.87138 0.31449 0.0
H2386 H 0.92401 0.88437 0.31424 0.0
C2387 C 0.9013 0.88248 0.23952 0.0
C2388 C 0.34502 0.88104 0.02152 0.0
C2389 C 0.31729 0.88568 0.99459 0.0
H2390 H 0.42275 0.87123 0.04266 0.0
C2391 C 0.3467 0.88322 0.96775 0.0
H2392 H 0.32301 0.88297 0.04244 0.0
C2393 C 0.40301 0.87574 0.96785 0.0
C2394 C 0.43095 0.87159 0.99483 0.0
H2395 H 0.32585 0.88667 0.94676 0.0
H2396 H 0.42504 0.87366 0.94695 0.0
C2397 C 0.4018 0.87447 0.02165 0.0
C2398 C 0.90191 0.37397 0.02163 0.0
C2399 C 0.93109 0.37136 0.99478 0.0
H2400 H 0.82306 0.3822 0.04251 0.0
C2401 C 0.90314 0.37568 0.96785 0.0
H2402 H 0.92289 0.37059 0.0426 0.0
C2403 C 0.84677 0.38309 0.96783 0.0
C2404 C 0.81734 0.38529 0.99469 0.0
H2405 H 0.92519 0.3738 0.94693 0.0
H2406 H 0.82591 0.38669 0.94688 0.0
C2407 C 0.84509 0.38047 0.02157 0.0
C2408 C 0.6519 0.63253 0.71776 0.0
C2409 C 0.68071 0.63567 0.74467 0.0
H2410 H 0.57401 0.62246 0.69682 0.0
C2411 C 0.65238 0.63179 0.77157 0.0
H2412 H 0.67325 0.6354 0.69679 0.0
C2413 C 0.59558 0.62526 0.7716 0.0
C2414 C 0.567 0.62168 0.74471 0.0
H2415 H 0.67396 0.63425 0.79255 0.0
H2416 H 0.57417 0.62259 0.79259 0.0
C2417 C 0.59556 0.62509 0.71777 0.0
C2418 C 0.09491 0.12546 0.77154 0.0
C2419 C 0.06658 0.1217 0.74461 0.0
H2420 H 0.1731 0.13457 0.79262 0.0
C2421 C 0.0954 0.12494 0.71772 0.0
H2422 H 0.0733 0.12292 0.7925 0.0
C2423 C 0.15176 0.13237 0.71779 0.0
C2424 C 0.1803 0.13568 0.74475 0.0
H2425 H 0.07406 0.12217 0.69673 0.0
H2426 H 0.17331 0.1351 0.69685 0.0
C2427 C 0.15171 0.13198 0.77161 0.0
C2428 C 0.59476 0.13068 0.98962 0.0
C2429 C 0.56686 0.13521 0.01652 0.0
H2430 H 0.67268 0.12103 0.96857 0.0
C2431 C 0.59613 0.13273 0.04339 0.0
H2432 H 0.57284 0.13263 0.96867 0.0
C2433 C 0.6525 0.12533 0.04336 0.0
C2434 C 0.68061 0.12129 0.01641 0.0
H2435 H 0.57515 0.13611 0.06436 0.0
H2436 H 0.67443 0.12323 0.06428 0.0
C2437 C 0.65158 0.12418 0.98955 0.0
C2438 C 0.15263 0.62518 0.9896 0.0
C2439 C 0.181 0.62137 0.01651 0.0
H2440 H 0.07445 0.63443 0.96859 0.0
C2441 C 0.15228 0.62466 0.04342 0.0
H2442 H 0.17416 0.62262 0.96863 0.0
C2443 C 0.09599 0.63218 0.0434 0.0
C2444 C 0.0674 0.63555 0.01646 0.0
H2445 H 0.17366 0.62185 0.06439 0.0
H2446 H 0.07451 0.63494 0.06435 0.0
C2447 C 0.09588 0.6318 0.98958 0.0
C2448 C 0.40335 0.88082 0.73969 0.0
C2449 C 0.43101 0.88552 0.76662 0.0
H2450 H 0.32565 0.871 0.71852 0.0
C2451 C 0.40153 0.88314 0.79344 0.0
H2452 H 0.42542 0.88269 0.71877 0.0
C2453 C 0.34519 0.87569 0.79333 0.0
C2454 C 0.31733 0.87148 0.76634 0.0
H2455 H 0.42232 0.88664 0.81443 0.0
H2456 H 0.3231 0.87367 0.81421 0.0
C2457 C 0.34656 0.87427 0.73953 0.0
C2458 C 0.84687 0.3738 0.7395 0.0
C2459 C 0.81774 0.37107 0.76636 0.0
H2460 H 0.9256 0.38226 0.71863 0.0
C2461 C 0.84565 0.37543 0.79329 0.0
H2462 H 0.82592 0.37041 0.71853 0.0
C2463 C 0.90193 0.38298 0.79331 0.0
C2464 C 0.93131 0.38529 0.76645 0.0
H2465 H 0.82363 0.37347 0.81421 0.0
H2466 H 0.92276 0.38659 0.81427 0.0
C2467 C 0.9036 0.38044 0.73957 0.0
C2468 C 0.34558 0.38219 0.46772 0.0
C2469 C 0.31681 0.38516 0.49467 0.0
H2470 H 0.42345 0.37227 0.44666 0.0
C2471 C 0.3452 0.38112 0.52153 0.0
H2472 H 0.32419 0.38518 0.44678 0.0
C2473 C 0.40201 0.37461 0.52147 0.0
C2474 C 0.43055 0.3712 0.49455 0.0
H2475 H 0.32365 0.38345 0.54254 0.0
H2476 H 0.42346 0.37182 0.54243 0.0
C2477 C 0.40194 0.37477 0.46765 0.0
C2478 C 0.90314 0.87604 0.52152 0.0
C2479 C 0.93106 0.87176 0.49457 0.0
H2480 H 0.82525 0.88556 0.54268 0.0
C2481 C 0.90184 0.87452 0.46772 0.0
H2482 H 0.92503 0.87388 0.54245 0.0
C2483 C 0.8455 0.88198 0.46784 0.0
C2484 C 0.81737 0.88579 0.49483 0.0
H2485 H 0.92286 0.87135 0.44672 0.0
H2486 H 0.82362 0.88431 0.44693 0.0
C2487 C 0.84634 0.88259 0.52166 0.0
C2488 C 0.59538 0.12534 0.21787 0.0
C2489 C 0.56716 0.12146 0.24482 0.0
H2490 H 0.6728 0.13602 0.19686 0.0
C2491 C 0.59603 0.1246 0.27169 0.0
H2492 H 0.57359 0.12305 0.19693 0.0
C2493 C 0.65282 0.13115 0.27163 0.0
C2494 C 0.68084 0.13549 0.24472 0.0
H2495 H 0.57486 0.12157 0.29268 0.0
H2496 H 0.67464 0.13326 0.29258 0.0
C2497 C 0.65172 0.1328 0.21784 0.0
C2498 C 0.09641 0.62451 0.21773 0.0
C2499 C 0.06753 0.62151 0.24465 0.0
H2500 H 0.17437 0.63446 0.19678 0.0
C2501 C 0.09579 0.62553 0.27154 0.0
H2502 H 0.07513 0.62153 0.19676 0.0
C2503 C 0.15259 0.63205 0.27156 0.0
C2504 C 0.18124 0.63549 0.24467 0.0
H2505 H 0.07415 0.62318 0.29252 0.0
H2506 H 0.17394 0.63483 0.29255 0.0
C2507 C 0.15276 0.63194 0.21774 0.0
C2508 C 0.65203 0.62464 0.54329 0.0
C2509 C 0.68072 0.62142 0.51635 0.0
H2510 H 0.5743 0.63488 0.56428 0.0
C2511 C 0.65233 0.62534 0.48947 0.0
H2512 H 0.67343 0.62175 0.56424 0.0
C2513 C 0.59559 0.63198 0.48949 0.0
C2514 C 0.56714 0.63564 0.5164 0.0
H2515 H 0.67383 0.62283 0.46847 0.0
H2516 H 0.57414 0.63468 0.46852 0.0
C2517 C 0.59576 0.63219 0.54331 0.0
C2518 C 0.09533 0.13211 0.54343 0.0
C2519 C 0.06677 0.13542 0.51647 0.0
H2520 H 0.17305 0.12192 0.56447 0.0
C2521 C 0.09536 0.13176 0.48961 0.0
H2522 H 0.07378 0.13481 0.56437 0.0
C2523 C 0.15218 0.12526 0.48966 0.0
C2524 C 0.18052 0.12149 0.51658 0.0
H2525 H 0.07395 0.13436 0.4686 0.0
H2526 H 0.17378 0.12275 0.4687 0.0
C2527 C 0.1517 0.1247 0.54348 0.0
loop_
_geom_bond_atom_site_label_1
_geom_bond_atom_site_label_2
_geom_bond_distance
_geom_bond_site_symmetry_2
_ccdc_geom_bond_type
Co0 O2 2.143 . S
Co0 O8 2.074 . S
Co0 O11 2.093 . S
Co0 O24 2.097 . S
Co0 N41 2.151 . S
Co0 N49 2.214 . S
Co1 O2 2.160 . S
Co1 O7 2.058 . S
Co1 O17 2.057 . S
Co1 O32 2.037 . S
Co1 N36 2.145 . S
Co1 N57 2.257 . S
O2 Co0 2.143 . S
O2 Co1 2.160 . S
C3 O4 1.278 . S
C3 O11 1.224 . S
O4 C3 1.278 . S
C5 O6 1.245 . S
C5 O17 1.232 . S
O6 C5 1.245 . S
O7 Co1 2.058 . S
O7 C33 1.269 . S
O8 Co0 2.074 . S
O8 C33 1.257 . S
H9 C34 0.930 . S
H10 C40 0.930 . S
O11 Co0 2.093 . S
O11 C3 1.224 . S
H12 C44 0.929 . S
H13 C46 0.930 . S
H14 C47 0.930 . S
H15 C45 0.929 . S
H16 C48 0.928 . S
O17 Co1 2.057 . S
O17 C5 1.232 . S
H18 C37 0.929 . S
H19 C38 0.929 . S
H20 C50 0.931 . S
H21 C42 0.929 . S
H22 C51 0.930 . S
H23 C43 0.931 . S
O24 Co0 2.097 . S
O24 C52 1.214 . S
H25 C53 0.929 . S
H26 C54 0.929 . S
H27 C55 0.930 . S
H28 C56 0.929 . S
H29 C58 0.930 . S
H30 C35 0.930 . S
H31 C39 0.930 . S
O32 Co1 2.037 . S
O32 C52 1.234 . S
C33 O7 1.269 . S
C33 O8 1.257 . S
C34 H9 0.930 . S
C34 C37 1.388 . S
C34 C39 1.418 . S
C35 H30 0.930 . S
C35 C38 1.404 . S
C35 C39 1.353 . S
N36 Co1 2.145 . S
N36 C37 1.397 . S
N36 C38 1.334 . S
C37 H18 0.929 . S
C37 C34 1.388 . S
C37 N36 1.397 . S
C38 H19 0.929 . S
C38 C35 1.404 . S
C38 N36 1.334 . S
C39 H31 0.930 . S
C39 C34 1.418 . S
C39 C35 1.353 . S
C40 H10 0.930 . S
C40 N41 1.330 . S
C40 C42 1.446 1_455 S
N41 Co0 2.151 . S
N41 C40 1.330 . S
N41 C45 1.418 . S
C42 H21 0.929 . S
C42 C40 1.446 1_655 S
C42 C43 1.332 . S
C43 H23 0.931 . S
C43 C42 1.332 . S
C43 C44 1.267 . S
C44 H12 0.929 . S
C44 C43 1.267 . S
C44 C45 1.251 1_655 S
C45 H15 0.929 . S
C45 N41 1.418 . S
C45 C44 1.251 1_455 S
C46 H13 0.930 . S
C46 C48 1.406 . S
C46 C51 1.261 . S
C47 H14 0.930 . S
C47 N49 1.325 . S
C47 C50 1.357 . S
C48 H16 0.928 . S
C48 C46 1.406 . S
C48 N49 1.261 . S
N49 Co0 2.214 . S
N49 C47 1.325 . S
N49 C48 1.261 . S
C50 H20 0.931 . S
C50 C47 1.357 . S
C50 C51 1.312 . S
C51 H22 0.930 . S
C51 C46 1.261 . S
C51 C50 1.312 . S
C52 O24 1.214 . S
C52 O32 1.234 . S
C53 H25 0.929 . S
C53 C56 1.391 . S
C53 C58 1.391 . S
C54 H26 0.929 . S
C54 C55 1.390 . S
C54 N57 1.391 . S
C55 H27 0.930 . S
C55 C54 1.390 . S
C55 C56 1.392 . S
C56 H28 0.929 . S
C56 C53 1.391 . S
C56 C55 1.392 . S
N57 Co1 2.257 . S
N57 C54 1.391 . S
N57 C58 1.388 . S
C58 H29 0.930 . S
C58 C53 1.391 . S
C58 N57 1.388 . S
Co59 O61 2.143 . S
Co59 O67 2.074 . S
Co59 O70 2.093 . S
Co59 O83 2.097 . S
Co59 N100 2.151 . S
Co59 N108 2.214 . S
Co60 O61 2.160 . S
Co60 O66 2.058 . S
Co60 O76 2.057 . S
Co60 O91 2.037 . S
Co60 N95 2.145 . S
Co60 N116 2.257 . S
O61 Co59 2.143 . S
O61 Co60 2.160 . S
C62 O63 1.278 . S
C62 O70 1.224 . S
O63 C62 1.278 . S
C64 O65 1.245 . S
C64 O76 1.232 . S
O65 C64 1.245 . S
O66 Co60 2.058 . S
O66 C92 1.269 . S
O67 Co59 2.074 . S
O67 C92 1.257 . S
H68 C93 0.930 . S
H69 C99 0.930 . S
O70 Co59 2.093 . S
O70 C62 1.224 . S
H71 C103 0.929 . S
H72 C105 0.930 . S
H73 C106 0.930 . S
H74 C104 0.929 . S
H75 C107 0.928 . S
O76 Co60 2.057 . S
O76 C64 1.232 . S
H77 C96 0.929 . S
H78 C97 0.929 . S
H79 C109 0.931 . S
H80 C101 0.929 . S
H81 C110 0.930 . S
H82 C102 0.931 . S
O83 Co59 2.097 . S
O83 C111 1.214 . S
H84 C112 0.929 . S
H85 C113 0.929 . S
H86 C114 0.930 . S
H87 C115 0.929 . S
H88 C117 0.930 . S
H89 C94 0.930 1_545 S
H90 C98 0.930 . S
O91 Co60 2.037 . S
O91 C111 1.234 . S
C92 O66 1.269 . S
C92 O67 1.257 . S
C93 H68 0.930 . S
C93 C96 1.388 . S
C93 C98 1.418 . S
C94 H89 0.930 1_565 S
C94 C97 1.404 . S
C94 C98 1.353 1_455 S
N95 Co60 2.145 . S
N95 C96 1.397 1_455 S
N95 C97 1.334 . S
C96 H77 0.929 . S
C96 C93 1.388 . S
C96 N95 1.397 1_655 S
C97 H78 0.929 . S
C97 C94 1.404 . S
C97 N95 1.334 . S
C98 H90 0.930 . S
C98 C93 1.418 . S
C98 C94 1.353 1_655 S
C99 H69 0.930 . S
C99 N100 1.330 . S
C99 C101 1.446 . S
N100 Co59 2.151 . S
N100 C99 1.330 . S
N100 C104 1.418 . S
C101 H80 0.929 . S
C101 C99 1.446 . S
C101 C102 1.332 . S
C102 H82 0.931 . S
C102 C101 1.332 . S
C102 C103 1.267 . S
C103 H71 0.929 . S
C103 C102 1.267 . S
C103 C104 1.251 . S
C104 H74 0.929 . S
C104 N100 1.418 . S
C104 C103 1.251 . S
C105 H72 0.930 . S
C105 C107 1.406 . S
C105 C110 1.261 . S
C106 H73 0.930 . S
C106 N108 1.325 . S
C106 C109 1.357 . S
C107 H75 0.928 . S
C107 C105 1.406 . S
C107 N108 1.261 . S
N108 Co59 2.214 . S
N108 C106 1.325 . S
N108 C107 1.261 . S
C109 H79 0.931 . S
C109 C106 1.357 . S
C109 C110 1.312 . S
C110 H81 0.930 . S
C110 C105 1.261 . S
C110 C109 1.312 . S
C111 O83 1.214 . S
C111 O91 1.234 . S
C112 H84 0.929 . S
C112 C115 1.391 1_455 S
C112 C117 1.391 . S
C113 H85 0.929 . S
C113 C114 1.390 . S
C113 N116 1.391 1_655 S
C114 H86 0.930 . S
C114 C113 1.390 . S
C114 C115 1.392 . S
C115 H87 0.929 . S
C115 C112 1.391 1_655 S
C115 C114 1.392 . S
N116 Co60 2.257 . S
N116 C113 1.391 1_455 S
N116 C117 1.388 . S
C117 H88 0.930 . S
C117 C112 1.391 . S
C117 N116 1.388 . S
Co118 O120 2.143 . S
Co118 O126 2.074 1_554 S
Co118 O129 2.093 . S
Co118 O142 2.097 . S
Co118 N159 2.151 . S
Co118 N167 2.214 . S
Co119 O120 2.160 1_556 S
Co119 O125 2.058 . S
Co119 O135 2.057 . S
Co119 O150 2.037 . S
Co119 N154 2.145 . S
Co119 N175 2.257 1_556 S
O120 Co118 2.143 . S
O120 Co119 2.160 1_554 S
C121 O122 1.278 . S
C121 O129 1.224 . S
O122 C121 1.278 . S
C123 O124 1.245 . S
C123 O135 1.232 . S
O124 C123 1.245 . S
O125 Co119 2.058 . S
O125 C151 1.269 . S
O126 Co118 2.074 1_556 S
O126 C151 1.257 . S
H127 C152 0.930 . S
H128 C158 0.930 . S
O129 Co118 2.093 . S
O129 C121 1.224 . S
H130 C162 0.929 . S
H131 C164 0.930 . S
H132 C165 0.930 . S
H133 C163 0.929 . S
H134 C166 0.928 . S
O135 Co119 2.057 . S
O135 C123 1.232 . S
H136 C155 0.929 . S
H137 C156 0.929 . S
H138 C168 0.931 . S
H139 C160 0.929 . S
H140 C169 0.930 . S
H141 C161 0.931 . S
O142 Co118 2.097 . S
O142 C170 1.214 1_554 S
H143 C171 0.929 . S
H144 C172 0.929 1_556 S
H145 C173 0.930 . S
H146 C174 0.929 . S
H147 C176 0.930 . S
H148 C153 0.930 1_545 S
H149 C157 0.930 . S
O150 Co119 2.037 . S
O150 C170 1.234 . S
C151 O125 1.269 . S
C151 O126 1.257 . S
C152 H127 0.930 . S
C152 C155 1.388 . S
C152 C157 1.418 . S
C153 H148 0.930 1_565 S
C153 C156 1.404 . S
C153 C157 1.353 . S
N154 Co119 2.145 . S
N154 C155 1.397 . S
N154 C156 1.334 . S
C155 H136 0.929 . S
C155 C152 1.388 . S
C155 N154 1.397 . S
C156 H137 0.929 . S
C156 C153 1.404 . S
C156 N154 1.334 . S
C157 H149 0.930 . S
C157 C152 1.418 . S
C157 C153 1.353 . S
C158 H128 0.930 . S
C158 N159 1.330 . S
C158 C160 1.446 1_455 S
N159 Co118 2.151 . S
N159 C158 1.330 . S
N159 C163 1.418 1_554 S
C160 H139 0.929 . S
C160 C158 1.446 1_655 S
C160 C161 1.332 . S
C161 H141 0.931 . S
C161 C160 1.332 . S
C161 C162 1.267 1_554 S
C162 H130 0.929 . S
C162 C161 1.267 1_556 S
C162 C163 1.251 1_655 S
C163 H133 0.929 . S
C163 N159 1.418 1_556 S
C163 C162 1.251 1_455 S
C164 H131 0.930 . S
C164 C166 1.406 . S
C164 C169 1.261 1_554 S
C165 H132 0.930 . S
C165 N167 1.325 1_556 S
C165 C168 1.357 . S
C166 H134 0.928 . S
C166 C164 1.406 . S
C166 N167 1.261 . S
N167 Co118 2.214 . S
N167 C165 1.325 1_554 S
N167 C166 1.261 . S
C168 H138 0.931 . S
C168 C165 1.357 . S
C168 C169 1.312 . S
C169 H140 0.930 . S
C169 C164 1.261 1_556 S
C169 C168 1.312 . S
C170 O142 1.214 1_556 S
C170 O150 1.234 . S
C171 H143 0.929 . S
C171 C174 1.391 . S
C171 C176 1.391 . S
C172 H144 0.929 1_554 S
C172 C173 1.390 . S
C172 N175 1.391 . S
C173 H145 0.930 . S
C173 C172 1.390 . S
C173 C174 1.392 . S
C174 H146 0.929 . S
C174 C171 1.391 . S
C174 C173 1.392 . S
N175 Co119 2.257 1_554 S
N175 C172 1.391 . S
N175 C176 1.388 . S
C176 H147 0.930 . S
C176 C171 1.391 . S
C176 N175 1.388 . S
Co177 O179 2.143 . S
Co177 O185 2.074 1_554 S
Co177 O188 2.093 . S
Co177 O201 2.097 . S
Co177 N218 2.151 . S
Co177 N226 2.214 . S
Co178 O179 2.160 1_556 S
Co178 O184 2.058 . S
Co178 O194 2.057 . S
Co178 O209 2.037 . S
Co178 N213 2.145 . S
Co178 N234 2.257 1_556 S
O179 Co177 2.143 . S
O179 Co178 2.160 1_554 S
C180 O181 1.278 . S
C180 O188 1.224 . S
O181 C180 1.278 . S
C182 O183 1.245 . S
C182 O194 1.232 . S
O183 C182 1.245 . S
O184 Co178 2.058 . S
O184 C210 1.269 . S
O185 Co177 2.074 1_556 S
O185 C210 1.257 . S
H186 C211 0.930 . S
H187 C217 0.930 . S
O188 Co177 2.093 . S
O188 C180 1.224 . S
H189 C221 0.929 . S
H190 C223 0.930 . S
H191 C224 0.930 . S
H192 C222 0.929 . S
H193 C225 0.928 . S
O194 Co178 2.057 . S
O194 C182 1.232 . S
H195 C214 0.929 . S
H196 C215 0.929 . S
H197 C227 0.931 . S
H198 C219 0.929 . S
H199 C228 0.930 . S
H200 C220 0.931 . S
O201 Co177 2.097 . S
O201 C229 1.214 1_554 S
H202 C230 0.929 . S
H203 C231 0.929 1_556 S
H204 C232 0.930 . S
H205 C233 0.929 . S
H206 C235 0.930 . S
H207 C212 0.930 . S
H208 C216 0.930 . S
O209 Co178 2.037 . S
O209 C229 1.234 . S
C210 O184 1.269 . S
C210 O185 1.257 . S
C211 H186 0.930 . S
C211 C214 1.388 . S
C211 C216 1.418 . S
C212 H207 0.930 . S
C212 C215 1.404 . S
C212 C216 1.353 1_455 S
N213 Co178 2.145 . S
N213 C214 1.397 1_455 S
N213 C215 1.334 . S
C214 H195 0.929 . S
C214 C211 1.388 . S
C214 N213 1.397 1_655 S
C215 H196 0.929 . S
C215 C212 1.404 . S
C215 N213 1.334 . S
C216 H208 0.930 . S
C216 C211 1.418 . S
C216 C212 1.353 1_655 S
C217 H187 0.930 . S
C217 N218 1.330 . S
C217 C219 1.446 . S
N218 Co177 2.151 . S
N218 C217 1.330 . S
N218 C222 1.418 1_554 S
C219 H198 0.929 . S
C219 C217 1.446 . S
C219 C220 1.332 . S
C220 H200 0.931 . S
C220 C219 1.332 . S
C220 C221 1.267 1_554 S
C221 H189 0.929 . S
C221 C220 1.267 1_556 S
C221 C222 1.251 . S
C222 H192 0.929 . S
C222 N218 1.418 1_556 S
C222 C221 1.251 . S
C223 H190 0.930 . S
C223 C225 1.406 . S
C223 C228 1.261 1_554 S
C224 H191 0.930 . S
C224 N226 1.325 1_556 S
C224 C227 1.357 . S
C225 H193 0.928 . S
C225 C223 1.406 . S
C225 N226 1.261 . S
N226 Co177 2.214 . S
N226 C224 1.325 1_554 S
N226 C225 1.261 . S
C227 H197 0.931 . S
C227 C224 1.357 . S
C227 C228 1.312 . S
C228 H199 0.930 . S
C228 C223 1.261 1_556 S
C228 C227 1.312 . S
C229 O201 1.214 1_556 S
C229 O209 1.234 . S
C230 H202 0.929 . S
C230 C233 1.391 1_455 S
C230 C235 1.391 . S
C231 H203 0.929 1_554 S
C231 C232 1.390 . S
C231 N234 1.391 1_655 S
C232 H204 0.930 . S
C232 C231 1.390 . S
C232 C233 1.392 . S
C233 H205 0.929 . S
C233 C230 1.391 1_655 S
C233 C232 1.392 . S
N234 Co178 2.257 1_554 S
N234 C231 1.391 1_455 S
N234 C235 1.388 . S
C235 H206 0.930 . S
C235 C230 1.391 . S
C235 N234 1.388 . S
Co236 O238 2.143 . S
Co236 O244 2.074 . S
Co236 O247 2.093 . S
Co236 O260 2.097 . S
Co236 N277 2.151 . S
Co236 N285 2.214 . S
Co237 O238 2.160 . S
Co237 O243 2.058 . S
Co237 O253 2.057 . S
Co237 O268 2.037 . S
Co237 N272 2.145 . S
Co237 N293 2.257 . S
O238 Co236 2.143 . S
O238 Co237 2.160 . S
C239 O240 1.278 . S
C239 O247 1.224 . S
O240 C239 1.278 . S
C241 O242 1.245 . S
C241 O253 1.232 . S
O242 C241 1.245 . S
O243 Co237 2.058 . S
O243 C269 1.269 . S
O244 Co236 2.074 . S
O244 C269 1.257 . S
H245 C270 0.930 . S
H246 C276 0.930 . S
O247 Co236 2.093 . S
O247 C239 1.224 . S
H248 C280 0.929 . S
H249 C282 0.930 . S
H250 C283 0.930 . S
H251 C281 0.929 . S
H252 C284 0.928 . S
O253 Co237 2.057 . S
O253 C241 1.232 . S
H254 C273 0.929 . S
H255 C274 0.929 . S
H256 C286 0.931 . S
H257 C278 0.929 . S
H258 C287 0.930 . S
H259 C279 0.931 . S
O260 Co236 2.097 . S
O260 C288 1.214 . S
H261 C289 0.929 . S
H262 C290 0.929 . S
H263 C291 0.930 . S
H264 C292 0.929 . S
H265 C294 0.930 . S
H266 C271 0.930 . S
H267 C275 0.930 . S
O268 Co237 2.037 . S
O268 C288 1.234 . S
C269 O243 1.269 . S
C269 O244 1.257 . S
C270 H245 0.930 . S
C270 C273 1.388 . S
C270 C275 1.418 . S
C271 H266 0.930 . S
C271 C274 1.404 . S
C271 C275 1.353 . S
N272 Co237 2.145 . S
N272 C273 1.397 . S
N272 C274 1.334 . S
C273 H254 0.929 . S
C273 C270 1.388 . S
C273 N272 1.397 . S
C274 H255 0.929 . S
C274 C271 1.404 . S
C274 N272 1.334 . S
C275 H267 0.930 . S
C275 C270 1.418 . S
C275 C271 1.353 . S
C276 H246 0.930 . S
C276 N277 1.330 . S
C276 C278 1.446 1_655 S
N277 Co236 2.151 . S
N277 C276 1.330 . S
N277 C281 1.418 . S
C278 H257 0.929 . S
C278 C276 1.446 1_455 S
C278 C279 1.332 . S
C279 H259 0.931 . S
C279 C278 1.332 . S
C279 C280 1.267 . S
C280 H248 0.929 . S
C280 C279 1.267 . S
C280 C281 1.251 1_455 S
C281 H251 0.929 . S
C281 N277 1.418 . S
C281 C280 1.251 1_655 S
C282 H249 0.930 . S
C282 C284 1.406 . S
C282 C287 1.261 . S
C283 H250 0.930 . S
C283 N285 1.325 . S
C283 C286 1.357 . S
C284 H252 0.928 . S
C284 C282 1.406 . S
C284 N285 1.261 . S
N285 Co236 2.214 . S
N285 C283 1.325 . S
N285 C284 1.261 . S
C286 H256 0.931 . S
C286 C283 1.357 . S
C286 C287 1.312 . S
C287 H258 0.930 . S
C287 C282 1.261 . S
C287 C286 1.312 . S
C288 O260 1.214 . S
C288 O268 1.234 . S
C289 H261 0.929 . S
C289 C292 1.391 . S
C289 C294 1.391 . S
C290 H262 0.929 . S
C290 C291 1.390 . S
C290 N293 1.391 . S
C291 H263 0.930 . S
C291 C290 1.390 . S
C291 C292 1.392 . S
C292 H264 0.929 . S
C292 C289 1.391 . S
C292 C291 1.392 . S
N293 Co237 2.257 . S
N293 C290 1.391 . S
N293 C294 1.388 . S
C294 H265 0.930 . S
C294 C289 1.391 . S
C294 N293 1.388 . S
Co295 O297 2.143 . S
Co295 O303 2.074 . S
Co295 O306 2.093 . S
Co295 O319 2.097 . S
Co295 N336 2.151 . S
Co295 N344 2.214 . S
Co296 O297 2.160 . S
Co296 O302 2.058 . S
Co296 O312 2.057 . S
Co296 O327 2.037 . S
Co296 N331 2.145 . S
Co296 N352 2.257 . S
O297 Co295 2.143 . S
O297 Co296 2.160 . S
C298 O299 1.278 . S
C298 O306 1.224 . S
O299 C298 1.278 . S
C300 O301 1.245 . S
C300 O312 1.232 . S
O301 C300 1.245 . S
O302 Co296 2.058 . S
O302 C328 1.269 . S
O303 Co295 2.074 . S
O303 C328 1.257 . S
H304 C329 0.930 . S
H305 C335 0.930 . S
O306 Co295 2.093 . S
O306 C298 1.224 . S
H307 C339 0.929 . S
H308 C341 0.930 . S
H309 C342 0.930 . S
H310 C340 0.929 . S
H311 C343 0.928 . S
O312 Co296 2.057 . S
O312 C300 1.232 . S
H313 C332 0.929 . S
H314 C333 0.929 . S
H315 C345 0.931 . S
H316 C337 0.929 . S
H317 C346 0.930 . S
H318 C338 0.931 . S
O319 Co295 2.097 . S
O319 C347 1.214 . S
H320 C348 0.929 . S
H321 C349 0.929 . S
H322 C350 0.930 . S
H323 C351 0.929 . S
H324 C353 0.930 . S
H325 C330 0.930 1_565 S
H326 C334 0.930 . S
O327 Co296 2.037 . S
O327 C347 1.234 . S
C328 O302 1.269 . S
C328 O303 1.257 . S
C329 H304 0.930 . S
C329 C332 1.388 . S
C329 C334 1.418 . S
C330 H325 0.930 1_545 S
C330 C333 1.404 . S
C330 C334 1.353 1_655 S
N331 Co296 2.145 . S
N331 C332 1.397 1_655 S
N331 C333 1.334 . S
C332 H313 0.929 . S
C332 C329 1.388 . S
C332 N331 1.397 1_455 S
C333 H314 0.929 . S
C333 C330 1.404 . S
C333 N331 1.334 . S
C334 H326 0.930 . S
C334 C329 1.418 . S
C334 C330 1.353 1_455 S
C335 H305 0.930 . S
C335 N336 1.330 . S
C335 C337 1.446 . S
N336 Co295 2.151 . S
N336 C335 1.330 . S
N336 C340 1.418 . S
C337 H316 0.929 . S
C337 C335 1.446 . S
C337 C338 1.332 . S
C338 H318 0.931 . S
C338 C337 1.332 . S
C338 C339 1.267 . S
C339 H307 0.929 . S
C339 C338 1.267 . S
C339 C340 1.251 . S
C340 H310 0.929 . S
C340 N336 1.418 . S
C340 C339 1.251 . S
C341 H308 0.930 . S
C341 C343 1.406 . S
C341 C346 1.261 . S
C342 H309 0.930 . S
C342 N344 1.325 . S
C342 C345 1.357 . S
C343 H311 0.928 . S
C343 C341 1.406 . S
C343 N344 1.261 . S
N344 Co295 2.214 . S
N344 C342 1.325 . S
N344 C343 1.261 . S
C345 H315 0.931 . S
C345 C342 1.357 . S
C345 C346 1.312 . S
C346 H317 0.930 . S
C346 C341 1.261 . S
C346 C345 1.312 . S
C347 O319 1.214 . S
C347 O327 1.234 . S
C348 H320 0.929 . S
C348 C351 1.391 1_655 S
C348 C353 1.391 . S
C349 H321 0.929 . S
C349 C350 1.390 . S
C349 N352 1.391 1_455 S
C350 H322 0.930 . S
C350 C349 1.390 . S
C350 C351 1.392 . S
C351 H323 0.929 . S
C351 C348 1.391 1_455 S
C351 C350 1.392 . S
N352 Co296 2.257 . S
N352 C349 1.391 1_655 S
N352 C353 1.388 . S
C353 H324 0.930 . S
C353 C348 1.391 . S
C353 N352 1.388 . S
Co354 O356 2.143 . S
Co354 O362 2.074 1_556 S
Co354 O365 2.093 . S
Co354 O378 2.097 . S
Co354 N395 2.151 . S
Co354 N403 2.214 . S
Co355 O356 2.160 1_554 S
Co355 O361 2.058 . S
Co355 O371 2.057 . S
Co355 O386 2.037 . S
Co355 N390 2.145 . S
Co355 N411 2.257 1_554 S
O356 Co354 2.143 . S
O356 Co355 2.160 1_556 S
C357 O358 1.278 . S
C357 O365 1.224 . S
O358 C357 1.278 . S
C359 O360 1.245 . S
C359 O371 1.232 . S
O360 C359 1.245 . S
O361 Co355 2.058 . S
O361 C387 1.269 . S
O362 Co354 2.074 1_554 S
O362 C387 1.257 . S
H363 C388 0.930 . S
H364 C394 0.930 . S
O365 Co354 2.093 . S
O365 C357 1.224 . S
H366 C398 0.929 . S
H367 C400 0.930 . S
H368 C401 0.930 . S
H369 C399 0.929 . S
H370 C402 0.928 . S
O371 Co355 2.057 . S
O371 C359 1.232 . S
H372 C391 0.929 . S
H373 C392 0.929 . S
H374 C404 0.931 . S
H375 C396 0.929 . S
H376 C405 0.930 . S
H377 C397 0.931 . S
O378 Co354 2.097 . S
O378 C406 1.214 1_556 S
H379 C407 0.929 . S
H380 C408 0.929 1_554 S
H381 C409 0.930 . S
H382 C410 0.929 . S
H383 C412 0.930 . S
H384 C389 0.930 1_565 S
H385 C393 0.930 . S
O386 Co355 2.037 . S
O386 C406 1.234 . S
C387 O361 1.269 . S
C387 O362 1.257 . S
C388 H363 0.930 . S
C388 C391 1.388 . S
C388 C393 1.418 . S
C389 H384 0.930 1_545 S
C389 C392 1.404 . S
C389 C393 1.353 . S
N390 Co355 2.145 . S
N390 C391 1.397 . S
N390 C392 1.334 . S
C391 H372 0.929 . S
C391 C388 1.388 . S
C391 N390 1.397 . S
C392 H373 0.929 . S
C392 C389 1.404 . S
C392 N390 1.334 . S
C393 H385 0.930 . S
C393 C388 1.418 . S
C393 C389 1.353 . S
C394 H364 0.930 . S
C394 N395 1.330 . S
C394 C396 1.446 1_655 S
N395 Co354 2.151 . S
N395 C394 1.330 . S
N395 C399 1.418 1_556 S
C396 H375 0.929 . S
C396 C394 1.446 1_455 S
C396 C397 1.332 . S
C397 H377 0.931 . S
C397 C396 1.332 . S
C397 C398 1.267 1_556 S
C398 H366 0.929 . S
C398 C397 1.267 1_554 S
C398 C399 1.251 1_455 S
C399 H369 0.929 . S
C399 N395 1.418 1_554 S
C399 C398 1.251 1_655 S
C400 H367 0.930 . S
C400 C402 1.406 . S
C400 C405 1.261 1_556 S
C401 H368 0.930 . S
C401 N403 1.325 1_554 S
C401 C404 1.357 . S
C402 H370 0.928 . S
C402 C400 1.406 . S
C402 N403 1.261 . S
N403 Co354 2.214 . S
N403 C401 1.325 1_556 S
N403 C402 1.261 . S
C404 H374 0.931 . S
C404 C401 1.357 . S
C404 C405 1.312 . S
C405 H376 0.930 . S
C405 C400 1.261 1_554 S
C405 C404 1.312 . S
C406 O378 1.214 1_554 S
C406 O386 1.234 . S
C407 H379 0.929 . S
C407 C410 1.391 . S
C407 C412 1.391 . S
C408 H380 0.929 1_556 S
C408 C409 1.390 . S
C408 N411 1.391 . S
C409 H381 0.930 . S
C409 C408 1.390 . S
C409 C410 1.392 . S
C410 H382 0.929 . S
C410 C407 1.391 . S
C410 C409 1.392 . S
N411 Co355 2.257 1_556 S
N411 C408 1.391 . S
N411 C412 1.388 . S
C412 H383 0.930 . S
C412 C407 1.391 . S
C412 N411 1.388 . S
Co413 O415 2.143 . S
Co413 O421 2.074 1_556 S
Co413 O424 2.093 . S
Co413 O437 2.097 . S
Co413 N454 2.151 . S
Co413 N462 2.214 . S
Co414 O415 2.160 1_554 S
Co414 O420 2.058 . S
Co414 O430 2.057 . S
Co414 O445 2.037 . S
Co414 N449 2.145 . S
Co414 N470 2.257 1_554 S
O415 Co413 2.143 . S
O415 Co414 2.160 1_556 S
C416 O417 1.278 . S
C416 O424 1.224 . S
O417 C416 1.278 . S
C418 O419 1.245 . S
C418 O430 1.232 . S
O419 C418 1.245 . S
O420 Co414 2.058 . S
O420 C446 1.269 . S
O421 Co413 2.074 1_554 S
O421 C446 1.257 . S
H422 C447 0.930 . S
H423 C453 0.930 . S
O424 Co413 2.093 . S
O424 C416 1.224 . S
H425 C457 0.929 . S
H426 C459 0.930 . S
H427 C460 0.930 . S
H428 C458 0.929 . S
H429 C461 0.928 . S
O430 Co414 2.057 . S
O430 C418 1.232 . S
H431 C450 0.929 . S
H432 C451 0.929 . S
H433 C463 0.931 . S
H434 C455 0.929 . S
H435 C464 0.930 . S
H436 C456 0.931 . S
O437 Co413 2.097 . S
O437 C465 1.214 1_556 S
H438 C466 0.929 . S
H439 C467 0.929 1_554 S
H440 C468 0.930 . S
H441 C469 0.929 . S
H442 C471 0.930 . S
H443 C448 0.930 . S
H444 C452 0.930 . S
O445 Co414 2.037 . S
O445 C465 1.234 . S
C446 O420 1.269 . S
C446 O421 1.257 . S
C447 H422 0.930 . S
C447 C450 1.388 . S
C447 C452 1.418 . S
C448 H443 0.930 . S
C448 C451 1.404 . S
C448 C452 1.353 1_655 S
N449 Co414 2.145 . S
N449 C450 1.397 1_655 S
N449 C451 1.334 . S
C450 H431 0.929 . S
C450 C447 1.388 . S
C450 N449 1.397 1_455 S
C451 H432 0.929 . S
C451 C448 1.404 . S
C451 N449 1.334 . S
C452 H444 0.930 . S
C452 C447 1.418 . S
C452 C448 1.353 1_455 S
C453 H423 0.930 . S
C453 N454 1.330 . S
C453 C455 1.446 . S
N454 Co413 2.151 . S
N454 C453 1.330 . S
N454 C458 1.418 1_556 S
C455 H434 0.929 . S
C455 C453 1.446 . S
C455 C456 1.332 . S
C456 H436 0.931 . S
C456 C455 1.332 . S
C456 C457 1.267 1_556 S
C457 H425 0.929 . S
C457 C456 1.267 1_554 S
C457 C458 1.251 . S
C458 H428 0.929 . S
C458 N454 1.418 1_554 S
C458 C457 1.251 . S
C459 H426 0.930 . S
C459 C461 1.406 . S
C459 C464 1.261 1_556 S
C460 H427 0.930 . S
C460 N462 1.325 1_554 S
C460 C463 1.357 . S
C461 H429 0.928 . S
C461 C459 1.406 . S
C461 N462 1.261 . S
N462 Co413 2.214 . S
N462 C460 1.325 1_556 S
N462 C461 1.261 . S
C463 H433 0.931 . S
C463 C460 1.357 . S
C463 C464 1.312 . S
C464 H435 0.930 . S
C464 C459 1.261 1_554 S
C464 C463 1.312 . S
C465 O437 1.214 1_554 S
C465 O445 1.234 . S
C466 H438 0.929 . S
C466 C469 1.391 1_655 S
C466 C471 1.391 . S
C467 H439 0.929 1_556 S
C467 C468 1.390 . S
C467 N470 1.391 1_455 S
C468 H440 0.930 . S
C468 C467 1.390 . S
C468 C469 1.392 . S
C469 H441 0.929 . S
C469 C466 1.391 1_455 S
C469 C468 1.392 . S
N470 Co414 2.257 1_556 S
N470 C467 1.391 1_655 S
N470 C471 1.388 . S
C471 H442 0.930 . S
C471 C466 1.391 . S
C471 N470 1.388 . S
Co472 O474 2.143 . S
Co472 O480 2.074 . S
Co472 O483 2.093 . S
Co472 O496 2.097 . S
Co472 N513 2.151 . S
Co472 N521 2.214 . S
Co473 O474 2.160 . S
Co473 O479 2.058 . S
Co473 O489 2.057 . S
Co473 O504 2.037 . S
Co473 N508 2.145 . S
Co473 N529 2.257 . S
O474 Co472 2.143 . S
O474 Co473 2.160 . S
C475 O476 1.278 . S
C475 O483 1.224 . S
O476 C475 1.278 . S
C477 O478 1.245 . S
C477 O489 1.232 . S
O478 C477 1.245 . S
O479 Co473 2.058 . S
O479 C505 1.269 . S
O480 Co472 2.074 . S
O480 C505 1.257 . S
H481 C506 0.930 . S
H482 C512 0.930 . S
O483 Co472 2.093 . S
O483 C475 1.224 . S
H484 C516 0.929 . S
H485 C518 0.930 . S
H486 C519 0.930 . S
H487 C517 0.929 . S
H488 C520 0.928 . S
O489 Co473 2.057 . S
O489 C477 1.232 . S
H490 C509 0.929 . S
H491 C510 0.929 . S
H492 C522 0.931 . S
H493 C514 0.929 . S
H494 C523 0.930 . S
H495 C515 0.931 . S
O496 Co472 2.097 . S
O496 C524 1.214 . S
H497 C525 0.929 . S
H498 C526 0.929 . S
H499 C527 0.930 . S
H500 C528 0.929 . S
H501 C530 0.930 . S
H502 C507 0.930 . S
H503 C511 0.930 . S
O504 Co473 2.037 . S
O504 C524 1.234 . S
C505 O479 1.269 . S
C505 O480 1.257 . S
C506 H481 0.930 . S
C506 C509 1.388 . S
C506 C511 1.418 . S
C507 H502 0.930 . S
C507 C510 1.404 . S
C507 C511 1.353 . S
N508 Co473 2.145 . S
N508 C509 1.397 . S
N508 C510 1.334 . S
C509 H490 0.929 . S
C509 C506 1.388 . S
C509 N508 1.397 . S
C510 H491 0.929 . S
C510 C507 1.404 . S
C510 N508 1.334 . S
C511 H503 0.930 . S
C511 C506 1.418 . S
C511 C507 1.353 . S
C512 H482 0.930 . S
C512 N513 1.330 . S
C512 C514 1.446 1_455 S
N513 Co472 2.151 . S
N513 C512 1.330 . S
N513 C517 1.418 . S
C514 H493 0.929 . S
C514 C512 1.446 1_655 S
C514 C515 1.332 . S
C515 H495 0.931 . S
C515 C514 1.332 . S
C515 C516 1.267 . S
C516 H484 0.929 . S
C516 C515 1.267 . S
C516 C517 1.251 1_655 S
C517 H487 0.929 . S
C517 N513 1.418 . S
C517 C516 1.251 1_455 S
C518 H485 0.930 . S
C518 C520 1.406 . S
C518 C523 1.261 . S
C519 H486 0.930 . S
C519 N521 1.325 . S
C519 C522 1.357 . S
C520 H488 0.928 . S
C520 C518 1.406 . S
C520 N521 1.261 . S
N521 Co472 2.214 . S
N521 C519 1.325 . S
N521 C520 1.261 . S
C522 H492 0.931 . S
C522 C519 1.357 . S
C522 C523 1.312 . S
C523 H494 0.930 . S
C523 C518 1.261 . S
C523 C522 1.312 . S
C524 O496 1.214 . S
C524 O504 1.234 . S
C525 H497 0.929 . S
C525 C528 1.391 . S
C525 C530 1.391 . S
C526 H498 0.929 . S
C526 C527 1.390 . S
C526 N529 1.391 . S
C527 H499 0.930 . S
C527 C526 1.390 . S
C527 C528 1.392 . S
C528 H500 0.929 . S
C528 C525 1.391 . S
C528 C527 1.392 . S
N529 Co473 2.257 . S
N529 C526 1.391 . S
N529 C530 1.388 . S
C530 H501 0.930 . S
C530 C525 1.391 . S
C530 N529 1.388 . S
Co531 O533 2.143 . S
Co531 O539 2.074 . S
Co531 O542 2.093 . S
Co531 O555 2.097 . S
Co531 N572 2.151 . S
Co531 N580 2.214 . S
Co532 O533 2.160 . S
Co532 O538 2.058 . S
Co532 O548 2.057 . S
Co532 O563 2.037 . S
Co532 N567 2.145 . S
Co532 N588 2.257 . S
O533 Co531 2.143 . S
O533 Co532 2.160 . S
C534 O535 1.278 . S
C534 O542 1.224 . S
O535 C534 1.278 . S
C536 O537 1.245 . S
C536 O548 1.232 . S
O537 C536 1.245 . S
O538 Co532 2.058 . S
O538 C564 1.269 . S
O539 Co531 2.074 . S
O539 C564 1.257 . S
H540 C565 0.930 . S
H541 C571 0.930 . S
O542 Co531 2.093 . S
O542 C534 1.224 . S
H543 C575 0.929 . S
H544 C577 0.930 . S
H545 C578 0.930 . S
H546 C576 0.929 . S
H547 C579 0.928 . S
O548 Co532 2.057 . S
O548 C536 1.232 . S
H549 C568 0.929 . S
H550 C569 0.929 . S
H551 C581 0.931 . S
H552 C573 0.929 . S
H553 C582 0.930 . S
H554 C574 0.931 . S
O555 Co531 2.097 . S
O555 C583 1.214 . S
H556 C584 0.929 . S
H557 C585 0.929 . S
H558 C586 0.930 . S
H559 C587 0.929 . S
H560 C589 0.930 . S
H561 C566 0.930 . S
H562 C570 0.930 . S
O563 Co532 2.037 . S
O563 C583 1.234 . S
C564 O538 1.269 . S
C564 O539 1.257 . S
C565 H540 0.930 . S
C565 C568 1.388 . S
C565 C570 1.418 . S
C566 H561 0.930 . S
C566 C569 1.404 . S
C566 C570 1.353 1_455 S
N567 Co532 2.145 . S
N567 C568 1.397 1_455 S
N567 C569 1.334 . S
C568 H549 0.929 . S
C568 C565 1.388 . S
C568 N567 1.397 1_655 S
C569 H550 0.929 . S
C569 C566 1.404 . S
C569 N567 1.334 . S
C570 H562 0.930 . S
C570 C565 1.418 . S
C570 C566 1.353 1_655 S
C571 H541 0.930 . S
C571 N572 1.330 . S
C571 C573 1.446 . S
N572 Co531 2.151 . S
N572 C571 1.330 . S
N572 C576 1.418 . S
C573 H552 0.929 . S
C573 C571 1.446 . S
C573 C574 1.332 . S
C574 H554 0.931 . S
C574 C573 1.332 . S
C574 C575 1.267 . S
C575 H543 0.929 . S
C575 C574 1.267 . S
C575 C576 1.251 . S
C576 H546 0.929 . S
C576 N572 1.418 . S
C576 C575 1.251 . S
C577 H544 0.930 . S
C577 C579 1.406 . S
C577 C582 1.261 . S
C578 H545 0.930 . S
C578 N580 1.325 . S
C578 C581 1.357 . S
C579 H547 0.928 . S
C579 C577 1.406 . S
C579 N580 1.261 . S
N580 Co531 2.214 . S
N580 C578 1.325 . S
N580 C579 1.261 . S
C581 H551 0.931 . S
C581 C578 1.357 . S
C581 C582 1.312 . S
C582 H553 0.930 . S
C582 C577 1.261 . S
C582 C581 1.312 . S
C583 O555 1.214 . S
C583 O563 1.234 . S
C584 H556 0.929 . S
C584 C587 1.391 1_455 S
C584 C589 1.391 . S
C585 H557 0.929 . S
C585 C586 1.390 . S
C585 N588 1.391 1_655 S
C586 H558 0.930 . S
C586 C585 1.390 . S
C586 C587 1.392 . S
C587 H559 0.929 . S
C587 C584 1.391 1_655 S
C587 C586 1.392 . S
N588 Co532 2.257 . S
N588 C585 1.391 1_455 S
N588 C589 1.388 . S
C589 H560 0.930 . S
C589 C584 1.391 . S
C589 N588 1.388 . S
Co590 O592 2.143 . S
Co590 O598 2.074 . S
Co590 O601 2.093 . S
Co590 O614 2.097 . S
Co590 N631 2.151 . S
Co590 N639 2.214 . S
Co591 O592 2.160 . S
Co591 O597 2.058 . S
Co591 O607 2.057 . S
Co591 O622 2.037 . S
Co591 N626 2.145 . S
Co591 N647 2.257 . S
O592 Co590 2.143 . S
O592 Co591 2.160 . S
C593 O594 1.278 . S
C593 O601 1.224 . S
O594 C593 1.278 . S
C595 O596 1.245 . S
C595 O607 1.232 . S
O596 C595 1.245 . S
O597 Co591 2.058 . S
O597 C623 1.269 . S
O598 Co590 2.074 . S
O598 C623 1.257 . S
H599 C624 0.930 . S
H600 C630 0.930 . S
O601 Co590 2.093 . S
O601 C593 1.224 . S
H602 C634 0.929 . S
H603 C636 0.930 . S
H604 C637 0.930 . S
H605 C635 0.929 . S
H606 C638 0.928 . S
O607 Co591 2.057 . S
O607 C595 1.232 . S
H608 C627 0.929 . S
H609 C628 0.929 . S
H610 C640 0.931 . S
H611 C632 0.929 . S
H612 C641 0.930 . S
H613 C633 0.931 . S
O614 Co590 2.097 . S
O614 C642 1.214 . S
H615 C643 0.929 . S
H616 C644 0.929 . S
H617 C645 0.930 . S
H618 C646 0.929 . S
H619 C648 0.930 . S
H620 C625 0.930 . S
H621 C629 0.930 . S
O622 Co591 2.037 . S
O622 C642 1.234 . S
C623 O597 1.269 . S
C623 O598 1.257 . S
C624 H599 0.930 . S
C624 C627 1.388 . S
C624 C629 1.418 . S
C625 H620 0.930 . S
C625 C628 1.404 . S
C625 C629 1.353 . S
N626 Co591 2.145 . S
N626 C627 1.397 . S
N626 C628 1.334 . S
C627 H608 0.929 . S
C627 C624 1.388 . S
C627 N626 1.397 . S
C628 H609 0.929 . S
C628 C625 1.404 . S
C628 N626 1.334 . S
C629 H621 0.930 . S
C629 C624 1.418 . S
C629 C625 1.353 . S
C630 H600 0.930 . S
C630 N631 1.330 . S
C630 C632 1.446 1_455 S
N631 Co590 2.151 . S
N631 C630 1.330 . S
N631 C635 1.418 . S
C632 H611 0.929 . S
C632 C630 1.446 1_655 S
C632 C633 1.332 . S
C633 H613 0.931 . S
C633 C632 1.332 . S
C633 C634 1.267 . S
C634 H602 0.929 . S
C634 C633 1.267 . S
C634 C635 1.251 1_655 S
C635 H605 0.929 . S
C635 N631 1.418 . S
C635 C634 1.251 1_455 S
C636 H603 0.930 . S
C636 C638 1.406 . S
C636 C641 1.261 . S
C637 H604 0.930 . S
C637 N639 1.325 . S
C637 C640 1.357 . S
C638 H606 0.928 . S
C638 C636 1.406 . S
C638 N639 1.261 . S
N639 Co590 2.214 . S
N639 C637 1.325 . S
N639 C638 1.261 . S
C640 H610 0.931 . S
C640 C637 1.357 . S
C640 C641 1.312 . S
C641 H612 0.930 . S
C641 C636 1.261 . S
C641 C640 1.312 . S
C642 O614 1.214 . S
C642 O622 1.234 . S
C643 H615 0.929 . S
C643 C646 1.391 . S
C643 C648 1.391 . S
C644 H616 0.929 . S
C644 C645 1.390 . S
C644 N647 1.391 . S
C645 H617 0.930 . S
C645 C644 1.390 . S
C645 C646 1.392 . S
C646 H618 0.929 . S
C646 C643 1.391 . S
C646 C645 1.392 . S
N647 Co591 2.257 . S
N647 C644 1.391 . S
N647 C648 1.388 . S
C648 H619 0.930 . S
C648 C643 1.391 . S
C648 N647 1.388 . S
Co649 O651 2.143 . S
Co649 O657 2.074 . S
Co649 O660 2.093 . S
Co649 O673 2.097 . S
Co649 N690 2.151 . S
Co649 N698 2.214 . S
Co650 O651 2.160 . S
Co650 O656 2.058 . S
Co650 O666 2.057 . S
Co650 O681 2.037 . S
Co650 N685 2.145 . S
Co650 N706 2.257 . S
O651 Co649 2.143 . S
O651 Co650 2.160 . S
C652 O653 1.278 . S
C652 O660 1.224 . S
O653 C652 1.278 . S
C654 O655 1.245 . S
C654 O666 1.232 . S
O655 C654 1.245 . S
O656 Co650 2.058 . S
O656 C682 1.269 . S
O657 Co649 2.074 . S
O657 C682 1.257 . S
H658 C683 0.930 . S
H659 C689 0.930 . S
O660 Co649 2.093 . S
O660 C652 1.224 . S
H661 C693 0.929 . S
H662 C695 0.930 . S
H663 C696 0.930 . S
H664 C694 0.929 . S
H665 C697 0.928 . S
O666 Co650 2.057 . S
O666 C654 1.232 . S
H667 C686 0.929 . S
H668 C687 0.929 . S
H669 C699 0.931 . S
H670 C691 0.929 . S
H671 C700 0.930 . S
H672 C692 0.931 . S
O673 Co649 2.097 . S
O673 C701 1.214 . S
H674 C702 0.929 . S
H675 C703 0.929 . S
H676 C704 0.930 . S
H677 C705 0.929 . S
H678 C707 0.930 . S
H679 C684 0.930 . S
H680 C688 0.930 . S
O681 Co650 2.037 . S
O681 C701 1.234 . S
C682 O656 1.269 . S
C682 O657 1.257 . S
C683 H658 0.930 . S
C683 C686 1.388 . S
C683 C688 1.418 . S
C684 H679 0.930 . S
C684 C687 1.404 . S
C684 C688 1.353 1_455 S
N685 Co650 2.145 . S
N685 C686 1.397 1_455 S
N685 C687 1.334 . S
C686 H667 0.929 . S
C686 C683 1.388 . S
C686 N685 1.397 1_655 S
C687 H668 0.929 . S
C687 C684 1.404 . S
C687 N685 1.334 . S
C688 H680 0.930 . S
C688 C683 1.418 . S
C688 C684 1.353 1_655 S
C689 H659 0.930 . S
C689 N690 1.330 . S
C689 C691 1.446 . S
N690 Co649 2.151 . S
N690 C689 1.330 . S
N690 C694 1.418 . S
C691 H670 0.929 . S
C691 C689 1.446 . S
C691 C692 1.332 . S
C692 H672 0.931 . S
C692 C691 1.332 . S
C692 C693 1.267 . S
C693 H661 0.929 . S
C693 C692 1.267 . S
C693 C694 1.251 . S
C694 H664 0.929 . S
C694 N690 1.418 . S
C694 C693 1.251 . S
C695 H662 0.930 . S
C695 C697 1.406 . S
C695 C700 1.261 . S
C696 H663 0.930 . S
C696 N698 1.325 . S
C696 C699 1.357 . S
C697 H665 0.928 . S
C697 C695 1.406 . S
C697 N698 1.261 . S
N698 Co649 2.214 . S
N698 C696 1.325 . S
N698 C697 1.261 . S
C699 H669 0.931 . S
C699 C696 1.357 . S
C699 C700 1.312 . S
C700 H671 0.930 . S
C700 C695 1.261 . S
C700 C699 1.312 . S
C701 O673 1.214 . S
C701 O681 1.234 . S
C702 H674 0.929 . S
C702 C705 1.391 1_455 S
C702 C707 1.391 . S
C703 H675 0.929 . S
C703 C704 1.390 . S
C703 N706 1.391 1_655 S
C704 H676 0.930 . S
C704 C703 1.390 . S
C704 C705 1.392 . S
C705 H677 0.929 . S
C705 C702 1.391 1_655 S
C705 C704 1.392 . S
N706 Co650 2.257 . S
N706 C703 1.391 1_455 S
N706 C707 1.388 . S
C707 H678 0.930 . S
C707 C702 1.391 . S
C707 N706 1.388 . S
Co708 O710 2.143 . S
Co708 O716 2.074 . S
Co708 O719 2.093 . S
Co708 O732 2.097 . S
Co708 N749 2.151 . S
Co708 N757 2.214 . S
Co709 O710 2.160 . S
Co709 O715 2.058 . S
Co709 O725 2.057 . S
Co709 O740 2.037 . S
Co709 N744 2.145 . S
Co709 N765 2.257 . S
O710 Co708 2.143 . S
O710 Co709 2.160 . S
C711 O712 1.278 . S
C711 O719 1.224 . S
O712 C711 1.278 . S
C713 O714 1.245 . S
C713 O725 1.232 . S
O714 C713 1.245 . S
O715 Co709 2.058 . S
O715 C741 1.269 . S
O716 Co708 2.074 . S
O716 C741 1.257 . S
H717 C742 0.930 . S
H718 C748 0.930 . S
O719 Co708 2.093 . S
O719 C711 1.224 . S
H720 C752 0.929 . S
H721 C754 0.930 . S
H722 C755 0.930 . S
H723 C753 0.929 . S
H724 C756 0.928 . S
O725 Co709 2.057 . S
O725 C713 1.232 . S
H726 C745 0.929 . S
H727 C746 0.929 . S
H728 C758 0.931 . S
H729 C750 0.929 . S
H730 C759 0.930 . S
H731 C751 0.931 . S
O732 Co708 2.097 . S
O732 C760 1.214 . S
H733 C761 0.929 . S
H734 C762 0.929 . S
H735 C763 0.930 . S
H736 C764 0.929 . S
H737 C766 0.930 . S
H738 C743 0.930 . S
H739 C747 0.930 . S
O740 Co709 2.037 . S
O740 C760 1.234 . S
C741 O715 1.269 . S
C741 O716 1.257 . S
C742 H717 0.930 . S
C742 C745 1.388 . S
C742 C747 1.418 . S
C743 H738 0.930 . S
C743 C746 1.404 . S
C743 C747 1.353 . S
N744 Co709 2.145 . S
N744 C745 1.397 . S
N744 C746 1.334 . S
C745 H726 0.929 . S
C745 C742 1.388 . S
C745 N744 1.397 . S
C746 H727 0.929 . S
C746 C743 1.404 . S
C746 N744 1.334 . S
C747 H739 0.930 . S
C747 C742 1.418 . S
C747 C743 1.353 . S
C748 H718 0.930 . S
C748 N749 1.330 . S
C748 C750 1.446 1_655 S
N749 Co708 2.151 . S
N749 C748 1.330 . S
N749 C753 1.418 . S
C750 H729 0.929 . S
C750 C748 1.446 1_455 S
C750 C751 1.332 . S
C751 H731 0.931 . S
C751 C750 1.332 . S
C751 C752 1.267 . S
C752 H720 0.929 . S
C752 C751 1.267 . S
C752 C753 1.251 1_455 S
C753 H723 0.929 . S
C753 N749 1.418 . S
C753 C752 1.251 1_655 S
C754 H721 0.930 . S
C754 C756 1.406 . S
C754 C759 1.261 . S
C755 H722 0.930 . S
C755 N757 1.325 . S
C755 C758 1.357 . S
C756 H724 0.928 . S
C756 C754 1.406 . S
C756 N757 1.261 . S
N757 Co708 2.214 . S
N757 C755 1.325 . S
N757 C756 1.261 . S
C758 H728 0.931 . S
C758 C755 1.357 . S
C758 C759 1.312 . S
C759 H730 0.930 . S
C759 C754 1.261 . S
C759 C758 1.312 . S
C760 O732 1.214 . S
C760 O740 1.234 . S
C761 H733 0.929 . S
C761 C764 1.391 . S
C761 C766 1.391 . S
C762 H734 0.929 . S
C762 C763 1.390 . S
C762 N765 1.391 . S
C763 H735 0.930 . S
C763 C762 1.390 . S
C763 C764 1.392 . S
C764 H736 0.929 . S
C764 C761 1.391 . S
C764 C763 1.392 . S
N765 Co709 2.257 . S
N765 C762 1.391 . S
N765 C766 1.388 . S
C766 H737 0.930 . S
C766 C761 1.391 . S
C766 N765 1.388 . S
Co767 O769 2.143 . S
Co767 O775 2.074 . S
Co767 O778 2.093 . S
Co767 O791 2.097 . S
Co767 N808 2.151 . S
Co767 N816 2.214 . S
Co768 O769 2.160 . S
Co768 O774 2.058 . S
Co768 O784 2.057 . S
Co768 O799 2.037 . S
Co768 N803 2.145 . S
Co768 N824 2.257 . S
O769 Co767 2.143 . S
O769 Co768 2.160 . S
C770 O771 1.278 . S
C770 O778 1.224 . S
O771 C770 1.278 . S
C772 O773 1.245 . S
C772 O784 1.232 . S
O773 C772 1.245 . S
O774 Co768 2.058 . S
O774 C800 1.269 . S
O775 Co767 2.074 . S
O775 C800 1.257 . S
H776 C801 0.930 . S
H777 C807 0.930 . S
O778 Co767 2.093 . S
O778 C770 1.224 . S
H779 C811 0.929 . S
H780 C813 0.930 . S
H781 C814 0.930 . S
H782 C812 0.929 . S
H783 C815 0.928 . S
O784 Co768 2.057 . S
O784 C772 1.232 . S
H785 C804 0.929 . S
H786 C805 0.929 . S
H787 C817 0.931 . S
H788 C809 0.929 . S
H789 C818 0.930 . S
H790 C810 0.931 . S
O791 Co767 2.097 . S
O791 C819 1.214 . S
H792 C820 0.929 . S
H793 C821 0.929 . S
H794 C822 0.930 . S
H795 C823 0.929 . S
H796 C825 0.930 . S
H797 C802 0.930 . S
H798 C806 0.930 . S
O799 Co768 2.037 . S
O799 C819 1.234 . S
C800 O774 1.269 . S
C800 O775 1.257 . S
C801 H776 0.930 . S
C801 C804 1.388 . S
C801 C806 1.418 . S
C802 H797 0.930 . S
C802 C805 1.404 . S
C802 C806 1.353 1_655 S
N803 Co768 2.145 . S
N803 C804 1.397 1_655 S
N803 C805 1.334 . S
C804 H785 0.929 . S
C804 C801 1.388 . S
C804 N803 1.397 1_455 S
C805 H786 0.929 . S
C805 C802 1.404 . S
C805 N803 1.334 . S
C806 H798 0.930 . S
C806 C801 1.418 . S
C806 C802 1.353 1_455 S
C807 H777 0.930 . S
C807 N808 1.330 . S
C807 C809 1.446 . S
N808 Co767 2.151 . S
N808 C807 1.330 . S
N808 C812 1.418 . S
C809 H788 0.929 . S
C809 C807 1.446 . S
C809 C810 1.332 . S
C810 H790 0.931 . S
C810 C809 1.332 . S
C810 C811 1.267 . S
C811 H779 0.929 . S
C811 C810 1.267 . S
C811 C812 1.251 . S
C812 H782 0.929 . S
C812 N808 1.418 . S
C812 C811 1.251 . S
C813 H780 0.930 . S
C813 C815 1.406 . S
C813 C818 1.261 . S
C814 H781 0.930 . S
C814 N816 1.325 . S
C814 C817 1.357 . S
C815 H783 0.928 . S
C815 C813 1.406 . S
C815 N816 1.261 . S
N816 Co767 2.214 . S
N816 C814 1.325 . S
N816 C815 1.261 . S
C817 H787 0.931 . S
C817 C814 1.357 . S
C817 C818 1.312 . S
C818 H789 0.930 . S
C818 C813 1.261 . S
C818 C817 1.312 . S
C819 O791 1.214 . S
C819 O799 1.234 . S
C820 H792 0.929 . S
C820 C823 1.391 1_655 S
C820 C825 1.391 . S
C821 H793 0.929 . S
C821 C822 1.390 . S
C821 N824 1.391 1_455 S
C822 H794 0.930 . S
C822 C821 1.390 . S
C822 C823 1.392 . S
C823 H795 0.929 . S
C823 C820 1.391 1_455 S
C823 C822 1.392 . S
N824 Co768 2.257 . S
N824 C821 1.391 1_655 S
N824 C825 1.388 . S
C825 H796 0.930 . S
C825 C820 1.391 . S
C825 N824 1.388 . S
Co826 O828 2.143 . S
Co826 O834 2.074 . S
Co826 O837 2.093 . S
Co826 O850 2.097 . S
Co826 N867 2.151 . S
Co826 N875 2.214 . S
Co827 O828 2.160 . S
Co827 O833 2.058 . S
Co827 O843 2.057 . S
Co827 O858 2.037 . S
Co827 N862 2.145 . S
Co827 N883 2.257 . S
O828 Co826 2.143 . S
O828 Co827 2.160 . S
C829 O830 1.278 . S
C829 O837 1.224 . S
O830 C829 1.278 . S
C831 O832 1.245 . S
C831 O843 1.232 . S
O832 C831 1.245 . S
O833 Co827 2.058 . S
O833 C859 1.269 . S
O834 Co826 2.074 . S
O834 C859 1.257 . S
H835 C860 0.930 . S
H836 C866 0.930 . S
O837 Co826 2.093 . S
O837 C829 1.224 . S
H838 C870 0.929 . S
H839 C872 0.930 . S
H840 C873 0.930 . S
H841 C871 0.929 . S
H842 C874 0.928 . S
O843 Co827 2.057 . S
O843 C831 1.232 . S
H844 C863 0.929 . S
H845 C864 0.929 . S
H846 C876 0.931 . S
H847 C868 0.929 . S
H848 C877 0.930 . S
H849 C869 0.931 . S
O850 Co826 2.097 . S
O850 C878 1.214 . S
H851 C879 0.929 . S
H852 C880 0.929 . S
H853 C881 0.930 . S
H854 C882 0.929 . S
H855 C884 0.930 . S
H856 C861 0.930 . S
H857 C865 0.930 . S
O858 Co827 2.037 . S
O858 C878 1.234 . S
C859 O833 1.269 . S
C859 O834 1.257 . S
C860 H835 0.930 . S
C860 C863 1.388 . S
C860 C865 1.418 . S
C861 H856 0.930 . S
C861 C864 1.404 . S
C861 C865 1.353 . S
N862 Co827 2.145 . S
N862 C863 1.397 . S
N862 C864 1.334 . S
C863 H844 0.929 . S
C863 C860 1.388 . S
C863 N862 1.397 . S
C864 H845 0.929 . S
C864 C861 1.404 . S
C864 N862 1.334 . S
C865 H857 0.930 . S
C865 C860 1.418 . S
C865 C861 1.353 . S
C866 H836 0.930 . S
C866 N867 1.330 . S
C866 C868 1.446 1_655 S
N867 Co826 2.151 . S
N867 C866 1.330 . S
N867 C871 1.418 . S
C868 H847 0.929 . S
C868 C866 1.446 1_455 S
C868 C869 1.332 . S
C869 H849 0.931 . S
C869 C868 1.332 . S
C869 C870 1.267 . S
C870 H838 0.929 . S
C870 C869 1.267 . S
C870 C871 1.251 1_455 S
C871 H841 0.929 . S
C871 N867 1.418 . S
C871 C870 1.251 1_655 S
C872 H839 0.930 . S
C872 C874 1.406 . S
C872 C877 1.261 . S
C873 H840 0.930 . S
C873 N875 1.325 . S
C873 C876 1.357 . S
C874 H842 0.928 . S
C874 C872 1.406 . S
C874 N875 1.261 . S
N875 Co826 2.214 . S
N875 C873 1.325 . S
N875 C874 1.261 . S
C876 H846 0.931 . S
C876 C873 1.357 . S
C876 C877 1.312 . S
C877 H848 0.930 . S
C877 C872 1.261 . S
C877 C876 1.312 . S
C878 O850 1.214 . S
C878 O858 1.234 . S
C879 H851 0.929 . S
C879 C882 1.391 . S
C879 C884 1.391 . S
C880 H852 0.929 . S
C880 C881 1.390 . S
C880 N883 1.391 . S
C881 H853 0.930 . S
C881 C880 1.390 . S
C881 C882 1.392 . S
C882 H854 0.929 . S
C882 C879 1.391 . S
C882 C881 1.392 . S
N883 Co827 2.257 . S
N883 C880 1.391 . S
N883 C884 1.388 . S
C884 H855 0.930 . S
C884 C879 1.391 . S
C884 N883 1.388 . S
Co885 O887 2.143 . S
Co885 O893 2.074 . S
Co885 O896 2.093 . S
Co885 O909 2.097 . S
Co885 N926 2.151 . S
Co885 N934 2.214 . S
Co886 O887 2.160 . S
Co886 O892 2.058 . S
Co886 O902 2.057 . S
Co886 O917 2.037 . S
Co886 N921 2.145 . S
Co886 N942 2.257 . S
O887 Co885 2.143 . S
O887 Co886 2.160 . S
C888 O889 1.278 . S
C888 O896 1.224 . S
O889 C888 1.278 . S
C890 O891 1.245 . S
C890 O902 1.232 . S
O891 C890 1.245 . S
O892 Co886 2.058 . S
O892 C918 1.269 . S
O893 Co885 2.074 . S
O893 C918 1.257 . S
H894 C919 0.930 . S
H895 C925 0.930 . S
O896 Co885 2.093 . S
O896 C888 1.224 . S
H897 C929 0.929 . S
H898 C931 0.930 . S
H899 C932 0.930 . S
H900 C930 0.929 . S
H901 C933 0.928 . S
O902 Co886 2.057 . S
O902 C890 1.232 . S
H903 C922 0.929 . S
H904 C923 0.929 . S
H905 C935 0.931 . S
H906 C927 0.929 . S
H907 C936 0.930 . S
H908 C928 0.931 . S
O909 Co885 2.097 . S
O909 C937 1.214 . S
H910 C938 0.929 . S
H911 C939 0.929 . S
H912 C940 0.930 . S
H913 C941 0.929 . S
H914 C943 0.930 . S
H915 C920 0.930 . S
H916 C924 0.930 . S
O917 Co886 2.037 . S
O917 C937 1.234 . S
C918 O892 1.269 . S
C918 O893 1.257 . S
C919 H894 0.930 . S
C919 C922 1.388 . S
C919 C924 1.418 . S
C920 H915 0.930 . S
C920 C923 1.404 . S
C920 C924 1.353 1_655 S
N921 Co886 2.145 . S
N921 C922 1.397 1_655 S
N921 C923 1.334 . S
C922 H903 0.929 . S
C922 C919 1.388 . S
C922 N921 1.397 1_455 S
C923 H904 0.929 . S
C923 C920 1.404 . S
C923 N921 1.334 . S
C924 H916 0.930 . S
C924 C919 1.418 . S
C924 C920 1.353 1_455 S
C925 H895 0.930 . S
C925 N926 1.330 . S
C925 C927 1.446 . S
N926 Co885 2.151 . S
N926 C925 1.330 . S
N926 C930 1.418 . S
C927 H906 0.929 . S
C927 C925 1.446 . S
C927 C928 1.332 . S
C928 H908 0.931 . S
C928 C927 1.332 . S
C928 C929 1.267 . S
C929 H897 0.929 . S
C929 C928 1.267 . S
C929 C930 1.251 . S
C930 H900 0.929 . S
C930 N926 1.418 . S
C930 C929 1.251 . S
C931 H898 0.930 . S
C931 C933 1.406 . S
C931 C936 1.261 . S
C932 H899 0.930 . S
C932 N934 1.325 . S
C932 C935 1.357 . S
C933 H901 0.928 . S
C933 C931 1.406 . S
C933 N934 1.261 . S
N934 Co885 2.214 . S
N934 C932 1.325 . S
N934 C933 1.261 . S
C935 H905 0.931 . S
C935 C932 1.357 . S
C935 C936 1.312 . S
C936 H907 0.930 . S
C936 C931 1.261 . S
C936 C935 1.312 . S
C937 O909 1.214 . S
C937 O917 1.234 . S
C938 H910 0.929 . S
C938 C941 1.391 1_655 S
C938 C943 1.391 . S
C939 H911 0.929 . S
C939 C940 1.390 . S
C939 N942 1.391 1_455 S
C940 H912 0.930 . S
C940 C939 1.390 . S
C940 C941 1.392 . S
C941 H913 0.929 . S
C941 C938 1.391 1_455 S
C941 C940 1.392 . S
N942 Co886 2.257 . S
N942 C939 1.391 1_655 S
N942 C943 1.388 . S
C943 H914 0.930 . S
C943 C938 1.391 . S
C943 N942 1.388 . S
Co944 O946 2.143 . S
Co944 O952 2.074 . S
Co944 O955 2.093 . S
Co944 O968 2.097 . S
Co944 N985 2.151 . S
Co944 N993 2.214 . S
Co945 O946 2.160 . S
Co945 O951 2.058 . S
Co945 O961 2.057 . S
Co945 O976 2.037 . S
Co945 N980 2.145 . S
Co945 N1001 2.257 . S
O946 Co944 2.143 . S
O946 Co945 2.160 . S
C947 O948 1.278 . S
C947 O955 1.224 . S
O948 C947 1.278 . S
C949 O950 1.245 . S
C949 O961 1.232 . S
O950 C949 1.245 . S
O951 Co945 2.058 . S
O951 C977 1.269 . S
O952 Co944 2.074 . S
O952 C977 1.257 . S
H953 C978 0.930 . S
H954 C984 0.930 . S
O955 Co944 2.093 . S
O955 C947 1.224 . S
H956 C988 0.929 . S
H957 C990 0.930 . S
H958 C991 0.930 . S
H959 C989 0.929 . S
H960 C992 0.928 . S
O961 Co945 2.057 . S
O961 C949 1.232 . S
H962 C981 0.929 . S
H963 C982 0.929 . S
H964 C994 0.931 . S
H965 C986 0.929 . S
H966 C995 0.930 . S
H967 C987 0.931 . S
O968 Co944 2.097 . S
O968 C996 1.214 . S
H969 C997 0.929 . S
H970 C998 0.929 . S
H971 C999 0.930 . S
H972 C1000 0.929 . S
H973 C1002 0.930 . S
H974 C979 0.930 . S
H975 C983 0.930 . S
O976 Co945 2.037 . S
O976 C996 1.234 . S
C977 O951 1.269 . S
C977 O952 1.257 . S
C978 H953 0.930 . S
C978 C981 1.388 . S
C978 C983 1.418 . S
C979 H974 0.930 . S
C979 C982 1.404 . S
C979 C983 1.353 . S
N980 Co945 2.145 . S
N980 C981 1.397 . S
N980 C982 1.334 . S
C981 H962 0.929 . S
C981 C978 1.388 . S
C981 N980 1.397 . S
C982 H963 0.929 . S
C982 C979 1.404 . S
C982 N980 1.334 . S
C983 H975 0.930 . S
C983 C978 1.418 . S
C983 C979 1.353 . S
C984 H954 0.930 . S
C984 N985 1.330 . S
C984 C986 1.446 . S
N985 Co944 2.151 . S
N985 C984 1.330 . S
N985 C989 1.418 . S
C986 H965 0.929 . S
C986 C984 1.446 . S
C986 C987 1.332 . S
C987 H967 0.931 . S
C987 C986 1.332 . S
C987 C988 1.267 . S
C988 H956 0.929 . S
C988 C987 1.267 . S
C988 C989 1.251 . S
C989 H959 0.929 . S
C989 N985 1.418 . S
C989 C988 1.251 . S
C990 H957 0.930 . S
C990 C992 1.406 . S
C990 C995 1.261 . S
C991 H958 0.930 . S
C991 N993 1.325 . S
C991 C994 1.357 . S
C992 H960 0.928 . S
C992 C990 1.406 . S
C992 N993 1.261 . S
N993 Co944 2.214 . S
N993 C991 1.325 . S
N993 C992 1.261 . S
C994 H964 0.931 . S
C994 C991 1.357 . S
C994 C995 1.312 . S
C995 H966 0.930 . S
C995 C990 1.261 . S
C995 C994 1.312 . S
C996 O968 1.214 . S
C996 O976 1.234 . S
C997 H969 0.929 . S
C997 C1000 1.391 . S
C997 C1002 1.391 . S
C998 H970 0.929 . S
C998 C999 1.390 . S
C998 N1001 1.391 . S
C999 H971 0.930 . S
C999 C998 1.390 . S
C999 C1000 1.392 . S
C1000 H972 0.929 . S
C1000 C997 1.391 . S
C1000 C999 1.392 . S
N1001 Co945 2.257 . S
N1001 C998 1.391 . S
N1001 C1002 1.388 . S
C1002 H973 0.930 . S
C1002 C997 1.391 . S
C1002 N1001 1.388 . S
Co1003 O1005 2.143 . S
Co1003 O1011 2.074 . S
Co1003 O1014 2.093 . S
Co1003 O1027 2.097 . S
Co1003 N1044 2.151 . S
Co1003 N1052 2.214 . S
Co1004 O1005 2.160 . S
Co1004 O1010 2.058 . S
Co1004 O1020 2.057 . S
Co1004 O1035 2.037 . S
Co1004 N1039 2.145 . S
Co1004 N1060 2.257 . S
O1005 Co1003 2.143 . S
O1005 Co1004 2.160 . S
C1006 O1007 1.278 . S
C1006 O1014 1.224 . S
O1007 C1006 1.278 . S
C1008 O1009 1.245 . S
C1008 O1020 1.232 . S
O1009 C1008 1.245 . S
O1010 Co1004 2.058 . S
O1010 C1036 1.269 . S
O1011 Co1003 2.074 . S
O1011 C1036 1.257 . S
H1012 C1037 0.930 . S
H1013 C1043 0.930 . S
O1014 Co1003 2.093 . S
O1014 C1006 1.224 . S
H1015 C1047 0.929 . S
H1016 C1049 0.930 . S
H1017 C1050 0.930 . S
H1018 C1048 0.929 . S
H1019 C1051 0.928 . S
O1020 Co1004 2.057 . S
O1020 C1008 1.232 . S
H1021 C1040 0.929 . S
H1022 C1041 0.929 . S
H1023 C1053 0.931 . S
H1024 C1045 0.929 . S
H1025 C1054 0.930 . S
H1026 C1046 0.931 . S
O1027 Co1003 2.097 . S
O1027 C1055 1.214 . S
H1028 C1056 0.929 . S
H1029 C1057 0.929 . S
H1030 C1058 0.930 . S
H1031 C1059 0.929 . S
H1032 C1061 0.930 . S
H1033 C1038 0.930 1_545 S
H1034 C1042 0.930 . S
O1035 Co1004 2.037 . S
O1035 C1055 1.234 . S
C1036 O1010 1.269 . S
C1036 O1011 1.257 . S
C1037 H1012 0.930 . S
C1037 C1040 1.388 . S
C1037 C1042 1.418 . S
C1038 H1033 0.930 1_565 S
C1038 C1041 1.404 . S
C1038 C1042 1.353 . S
N1039 Co1004 2.145 . S
N1039 C1040 1.397 . S
N1039 C1041 1.334 . S
C1040 H1021 0.929 . S
C1040 C1037 1.388 . S
C1040 N1039 1.397 . S
C1041 H1022 0.929 . S
C1041 C1038 1.404 . S
C1041 N1039 1.334 . S
C1042 H1034 0.930 . S
C1042 C1037 1.418 . S
C1042 C1038 1.353 . S
C1043 H1013 0.930 . S
C1043 N1044 1.330 . S
C1043 C1045 1.446 . S
N1044 Co1003 2.151 . S
N1044 C1043 1.330 . S
N1044 C1048 1.418 . S
C1045 H1024 0.929 . S
C1045 C1043 1.446 . S
C1045 C1046 1.332 . S
C1046 H1026 0.931 . S
C1046 C1045 1.332 . S
C1046 C1047 1.267 . S
C1047 H1015 0.929 . S
C1047 C1046 1.267 . S
C1047 C1048 1.251 . S
C1048 H1018 0.929 . S
C1048 N1044 1.418 . S
C1048 C1047 1.251 . S
C1049 H1016 0.930 . S
C1049 C1051 1.406 . S
C1049 C1054 1.261 . S
C1050 H1017 0.930 . S
C1050 N1052 1.325 . S
C1050 C1053 1.357 . S
C1051 H1019 0.928 . S
C1051 C1049 1.406 . S
C1051 N1052 1.261 . S
N1052 Co1003 2.214 . S
N1052 C1050 1.325 . S
N1052 C1051 1.261 . S
C1053 H1023 0.931 . S
C1053 C1050 1.357 . S
C1053 C1054 1.312 . S
C1054 H1025 0.930 . S
C1054 C1049 1.261 . S
C1054 C1053 1.312 . S
C1055 O1027 1.214 . S
C1055 O1035 1.234 . S
C1056 H1028 0.929 . S
C1056 C1059 1.391 . S
C1056 C1061 1.391 . S
C1057 H1029 0.929 . S
C1057 C1058 1.390 . S
C1057 N1060 1.391 . S
C1058 H1030 0.930 . S
C1058 C1057 1.390 . S
C1058 C1059 1.392 . S
C1059 H1031 0.929 . S
C1059 C1056 1.391 . S
C1059 C1058 1.392 . S
N1060 Co1004 2.257 . S
N1060 C1057 1.391 . S
N1060 C1061 1.388 . S
C1061 H1032 0.930 . S
C1061 C1056 1.391 . S
C1061 N1060 1.388 . S
Co1062 O1064 2.143 . S
Co1062 O1070 2.074 . S
Co1062 O1073 2.093 . S
Co1062 O1086 2.097 . S
Co1062 N1103 2.151 . S
Co1062 N1111 2.214 . S
Co1063 O1064 2.160 . S
Co1063 O1069 2.058 . S
Co1063 O1079 2.057 . S
Co1063 O1094 2.037 . S
Co1063 N1098 2.145 . S
Co1063 N1119 2.257 . S
O1064 Co1062 2.143 . S
O1064 Co1063 2.160 . S
C1065 O1066 1.278 . S
C1065 O1073 1.224 . S
O1066 C1065 1.278 . S
C1067 O1068 1.245 . S
C1067 O1079 1.232 . S
O1068 C1067 1.245 . S
O1069 Co1063 2.058 . S
O1069 C1095 1.269 . S
O1070 Co1062 2.074 . S
O1070 C1095 1.257 . S
H1071 C1096 0.930 . S
H1072 C1102 0.930 . S
O1073 Co1062 2.093 . S
O1073 C1065 1.224 . S
H1074 C1106 0.929 . S
H1075 C1108 0.930 . S
H1076 C1109 0.930 . S
H1077 C1107 0.929 . S
H1078 C1110 0.928 . S
O1079 Co1063 2.057 . S
O1079 C1067 1.232 . S
H1080 C1099 0.929 . S
H1081 C1100 0.929 . S
H1082 C1112 0.931 . S
H1083 C1104 0.929 . S
H1084 C1113 0.930 . S
H1085 C1105 0.931 . S
O1086 Co1062 2.097 . S
O1086 C1114 1.214 . S
H1087 C1115 0.929 . S
H1088 C1116 0.929 . S
H1089 C1117 0.930 . S
H1090 C1118 0.929 . S
H1091 C1120 0.930 . S
H1092 C1097 0.930 1_545 S
H1093 C1101 0.930 . S
O1094 Co1063 2.037 . S
O1094 C1114 1.234 . S
C1095 O1069 1.269 . S
C1095 O1070 1.257 . S
C1096 H1071 0.930 . S
C1096 C1099 1.388 . S
C1096 C1101 1.418 . S
C1097 H1092 0.930 1_565 S
C1097 C1100 1.404 . S
C1097 C1101 1.353 . S
N1098 Co1063 2.145 . S
N1098 C1099 1.397 . S
N1098 C1100 1.334 . S
C1099 H1080 0.929 . S
C1099 C1096 1.388 . S
C1099 N1098 1.397 . S
C1100 H1081 0.929 . S
C1100 C1097 1.404 . S
C1100 N1098 1.334 . S
C1101 H1093 0.930 . S
C1101 C1096 1.418 . S
C1101 C1097 1.353 . S
C1102 H1072 0.930 . S
C1102 N1103 1.330 . S
C1102 C1104 1.446 . S
N1103 Co1062 2.151 . S
N1103 C1102 1.330 . S
N1103 C1107 1.418 . S
C1104 H1083 0.929 . S
C1104 C1102 1.446 . S
C1104 C1105 1.332 . S
C1105 H1085 0.931 . S
C1105 C1104 1.332 . S
C1105 C1106 1.267 . S
C1106 H1074 0.929 . S
C1106 C1105 1.267 . S
C1106 C1107 1.251 . S
C1107 H1077 0.929 . S
C1107 N1103 1.418 . S
C1107 C1106 1.251 . S
C1108 H1075 0.930 . S
C1108 C1110 1.406 . S
C1108 C1113 1.261 . S
C1109 H1076 0.930 . S
C1109 N1111 1.325 . S
C1109 C1112 1.357 . S
C1110 H1078 0.928 . S
C1110 C1108 1.406 . S
C1110 N1111 1.261 . S
N1111 Co1062 2.214 . S
N1111 C1109 1.325 . S
N1111 C1110 1.261 . S
C1112 H1082 0.931 . S
C1112 C1109 1.357 . S
C1112 C1113 1.312 . S
C1113 H1084 0.930 . S
C1113 C1108 1.261 . S
C1113 C1112 1.312 . S
C1114 O1086 1.214 . S
C1114 O1094 1.234 . S
C1115 H1087 0.929 . S
C1115 C1118 1.391 . S
C1115 C1120 1.391 . S
C1116 H1088 0.929 . S
C1116 C1117 1.390 . S
C1116 N1119 1.391 . S
C1117 H1089 0.930 . S
C1117 C1116 1.390 . S
C1117 C1118 1.392 . S
C1118 H1090 0.929 . S
C1118 C1115 1.391 . S
C1118 C1117 1.392 . S
N1119 Co1063 2.257 . S
N1119 C1116 1.391 . S
N1119 C1120 1.388 . S
C1120 H1091 0.930 . S
C1120 C1115 1.391 . S
C1120 N1119 1.388 . S
Co1121 O1123 2.143 . S
Co1121 O1129 2.074 . S
Co1121 O1132 2.093 . S
Co1121 O1145 2.097 . S
Co1121 N1162 2.151 . S
Co1121 N1170 2.214 . S
Co1122 O1123 2.160 . S
Co1122 O1128 2.058 . S
Co1122 O1138 2.057 . S
Co1122 O1153 2.037 . S
Co1122 N1157 2.145 . S
Co1122 N1178 2.257 . S
O1123 Co1121 2.143 . S
O1123 Co1122 2.160 . S
C1124 O1125 1.278 . S
C1124 O1132 1.224 . S
O1125 C1124 1.278 . S
C1126 O1127 1.245 . S
C1126 O1138 1.232 . S
O1127 C1126 1.245 . S
O1128 Co1122 2.058 . S
O1128 C1154 1.269 . S
O1129 Co1121 2.074 . S
O1129 C1154 1.257 . S
H1130 C1155 0.930 . S
H1131 C1161 0.930 . S
O1132 Co1121 2.093 . S
O1132 C1124 1.224 . S
H1133 C1165 0.929 . S
H1134 C1167 0.930 . S
H1135 C1168 0.930 . S
H1136 C1166 0.929 . S
H1137 C1169 0.928 . S
O1138 Co1122 2.057 . S
O1138 C1126 1.232 . S
H1139 C1158 0.929 . S
H1140 C1159 0.929 . S
H1141 C1171 0.931 . S
H1142 C1163 0.929 . S
H1143 C1172 0.930 . S
H1144 C1164 0.931 . S
O1145 Co1121 2.097 . S
O1145 C1173 1.214 . S
H1146 C1174 0.929 . S
H1147 C1175 0.929 . S
H1148 C1176 0.930 . S
H1149 C1177 0.929 . S
H1150 C1179 0.930 . S
H1151 C1156 0.930 . S
H1152 C1160 0.930 . S
O1153 Co1122 2.037 . S
O1153 C1173 1.234 . S
C1154 O1128 1.269 . S
C1154 O1129 1.257 . S
C1155 H1130 0.930 . S
C1155 C1158 1.388 . S
C1155 C1160 1.418 . S
C1156 H1151 0.930 . S
C1156 C1159 1.404 . S
C1156 C1160 1.353 . S
N1157 Co1122 2.145 . S
N1157 C1158 1.397 . S
N1157 C1159 1.334 . S
C1158 H1139 0.929 . S
C1158 C1155 1.388 . S
C1158 N1157 1.397 . S
C1159 H1140 0.929 . S
C1159 C1156 1.404 . S
C1159 N1157 1.334 . S
C1160 H1152 0.930 . S
C1160 C1155 1.418 . S
C1160 C1156 1.353 . S
C1161 H1131 0.930 . S
C1161 N1162 1.330 . S
C1161 C1163 1.446 . S
N1162 Co1121 2.151 . S
N1162 C1161 1.330 . S
N1162 C1166 1.418 . S
C1163 H1142 0.929 . S
C1163 C1161 1.446 . S
C1163 C1164 1.332 . S
C1164 H1144 0.931 . S
C1164 C1163 1.332 . S
C1164 C1165 1.267 . S
C1165 H1133 0.929 . S
C1165 C1164 1.267 . S
C1165 C1166 1.251 . S
C1166 H1136 0.929 . S
C1166 N1162 1.418 . S
C1166 C1165 1.251 . S
C1167 H1134 0.930 . S
C1167 C1169 1.406 . S
C1167 C1172 1.261 . S
C1168 H1135 0.930 . S
C1168 N1170 1.325 . S
C1168 C1171 1.357 . S
C1169 H1137 0.928 . S
C1169 C1167 1.406 . S
C1169 N1170 1.261 . S
N1170 Co1121 2.214 . S
N1170 C1168 1.325 . S
N1170 C1169 1.261 . S
C1171 H1141 0.931 . S
C1171 C1168 1.357 . S
C1171 C1172 1.312 . S
C1172 H1143 0.930 . S
C1172 C1167 1.261 . S
C1172 C1171 1.312 . S
C1173 O1145 1.214 . S
C1173 O1153 1.234 . S
C1174 H1146 0.929 . S
C1174 C1177 1.391 . S
C1174 C1179 1.391 . S
C1175 H1147 0.929 . S
C1175 C1176 1.390 . S
C1175 N1178 1.391 . S
C1176 H1148 0.930 . S
C1176 C1175 1.390 . S
C1176 C1177 1.392 . S
C1177 H1149 0.929 . S
C1177 C1174 1.391 . S
C1177 C1176 1.392 . S
N1178 Co1122 2.257 . S
N1178 C1175 1.391 . S
N1178 C1179 1.388 . S
C1179 H1150 0.930 . S
C1179 C1174 1.391 . S
C1179 N1178 1.388 . S
Co1180 O1182 2.143 . S
Co1180 O1188 2.074 . S
Co1180 O1191 2.093 . S
Co1180 O1204 2.097 . S
Co1180 N1221 2.151 . S
Co1180 N1229 2.214 . S
Co1181 O1182 2.160 . S
Co1181 O1187 2.058 . S
Co1181 O1197 2.057 . S
Co1181 O1212 2.037 . S
Co1181 N1216 2.145 . S
Co1181 N1237 2.257 . S
O1182 Co1180 2.143 . S
O1182 Co1181 2.160 . S
C1183 O1184 1.278 . S
C1183 O1191 1.224 . S
O1184 C1183 1.278 . S
C1185 O1186 1.245 . S
C1185 O1197 1.232 . S
O1186 C1185 1.245 . S
O1187 Co1181 2.058 . S
O1187 C1213 1.269 . S
O1188 Co1180 2.074 . S
O1188 C1213 1.257 . S
H1189 C1214 0.930 . S
H1190 C1220 0.930 . S
O1191 Co1180 2.093 . S
O1191 C1183 1.224 . S
H1192 C1224 0.929 . S
H1193 C1226 0.930 . S
H1194 C1227 0.930 . S
H1195 C1225 0.929 . S
H1196 C1228 0.928 . S
O1197 Co1181 2.057 . S
O1197 C1185 1.232 . S
H1198 C1217 0.929 . S
H1199 C1218 0.929 . S
H1200 C1230 0.931 . S
H1201 C1222 0.929 . S
H1202 C1231 0.930 . S
H1203 C1223 0.931 . S
O1204 Co1180 2.097 . S
O1204 C1232 1.214 . S
H1205 C1233 0.929 . S
H1206 C1234 0.929 . S
H1207 C1235 0.930 . S
H1208 C1236 0.929 . S
H1209 C1238 0.930 . S
H1210 C1215 0.930 . S
H1211 C1219 0.930 . S
O1212 Co1181 2.037 . S
O1212 C1232 1.234 . S
C1213 O1187 1.269 . S
C1213 O1188 1.257 . S
C1214 H1189 0.930 . S
C1214 C1217 1.388 . S
C1214 C1219 1.418 . S
C1215 H1210 0.930 . S
C1215 C1218 1.404 . S
C1215 C1219 1.353 . S
N1216 Co1181 2.145 . S
N1216 C1217 1.397 . S
N1216 C1218 1.334 . S
C1217 H1198 0.929 . S
C1217 C1214 1.388 . S
C1217 N1216 1.397 . S
C1218 H1199 0.929 . S
C1218 C1215 1.404 . S
C1218 N1216 1.334 . S
C1219 H1211 0.930 . S
C1219 C1214 1.418 . S
C1219 C1215 1.353 . S
C1220 H1190 0.930 . S
C1220 N1221 1.330 . S
C1220 C1222 1.446 . S
N1221 Co1180 2.151 . S
N1221 C1220 1.330 . S
N1221 C1225 1.418 . S
C1222 H1201 0.929 . S
C1222 C1220 1.446 . S
C1222 C1223 1.332 . S
C1223 H1203 0.931 . S
C1223 C1222 1.332 . S
C1223 C1224 1.267 . S
C1224 H1192 0.929 . S
C1224 C1223 1.267 . S
C1224 C1225 1.251 . S
C1225 H1195 0.929 . S
C1225 N1221 1.418 . S
C1225 C1224 1.251 . S
C1226 H1193 0.930 . S
C1226 C1228 1.406 . S
C1226 C1231 1.261 . S
C1227 H1194 0.930 . S
C1227 N1229 1.325 . S
C1227 C1230 1.357 . S
C1228 H1196 0.928 . S
C1228 C1226 1.406 . S
C1228 N1229 1.261 . S
N1229 Co1180 2.214 . S
N1229 C1227 1.325 . S
N1229 C1228 1.261 . S
C1230 H1200 0.931 . S
C1230 C1227 1.357 . S
C1230 C1231 1.312 . S
C1231 H1202 0.930 . S
C1231 C1226 1.261 . S
C1231 C1230 1.312 . S
C1232 O1204 1.214 . S
C1232 O1212 1.234 . S
C1233 H1205 0.929 . S
C1233 C1236 1.391 . S
C1233 C1238 1.391 . S
C1234 H1206 0.929 . S
C1234 C1235 1.390 . S
C1234 N1237 1.391 . S
C1235 H1207 0.930 . S
C1235 C1234 1.390 . S
C1235 C1236 1.392 . S
C1236 H1208 0.929 . S
C1236 C1233 1.391 . S
C1236 C1235 1.392 . S
N1237 Co1181 2.257 . S
N1237 C1234 1.391 . S
N1237 C1238 1.388 . S
C1238 H1209 0.930 . S
C1238 C1233 1.391 . S
C1238 N1237 1.388 . S
Co1239 O1241 2.143 . S
Co1239 O1247 2.074 . S
Co1239 O1250 2.093 . S
Co1239 O1263 2.097 . S
Co1239 N1280 2.151 . S
Co1239 N1288 2.214 . S
Co1240 O1241 2.160 . S
Co1240 O1246 2.058 . S
Co1240 O1256 2.057 . S
Co1240 O1271 2.037 . S
Co1240 N1275 2.145 . S
Co1240 N1296 2.257 . S
O1241 Co1239 2.143 . S
O1241 Co1240 2.160 . S
C1242 O1243 1.278 . S
C1242 O1250 1.224 . S
O1243 C1242 1.278 . S
C1244 O1245 1.245 . S
C1244 O1256 1.232 . S
O1245 C1244 1.245 . S
O1246 Co1240 2.058 . S
O1246 C1272 1.269 . S
O1247 Co1239 2.074 . S
O1247 C1272 1.257 . S
H1248 C1273 0.930 . S
H1249 C1279 0.930 . S
O1250 Co1239 2.093 . S
O1250 C1242 1.224 . S
H1251 C1283 0.929 . S
H1252 C1285 0.930 . S
H1253 C1286 0.930 . S
H1254 C1284 0.929 . S
H1255 C1287 0.928 . S
O1256 Co1240 2.057 . S
O1256 C1244 1.232 . S
H1257 C1276 0.929 . S
H1258 C1277 0.929 . S
H1259 C1289 0.931 . S
H1260 C1281 0.929 . S
H1261 C1290 0.930 . S
H1262 C1282 0.931 . S
O1263 Co1239 2.097 . S
O1263 C1291 1.214 . S
H1264 C1292 0.929 . S
H1265 C1293 0.929 . S
H1266 C1294 0.930 . S
H1267 C1295 0.929 . S
H1268 C1297 0.930 . S
H1269 C1274 0.930 1_565 S
H1270 C1278 0.930 . S
O1271 Co1240 2.037 . S
O1271 C1291 1.234 . S
C1272 O1246 1.269 . S
C1272 O1247 1.257 . S
C1273 H1248 0.930 . S
C1273 C1276 1.388 . S
C1273 C1278 1.418 . S
C1274 H1269 0.930 1_545 S
C1274 C1277 1.404 . S
C1274 C1278 1.353 . S
N1275 Co1240 2.145 . S
N1275 C1276 1.397 . S
N1275 C1277 1.334 . S
C1276 H1257 0.929 . S
C1276 C1273 1.388 . S
C1276 N1275 1.397 . S
C1277 H1258 0.929 . S
C1277 C1274 1.404 . S
C1277 N1275 1.334 . S
C1278 H1270 0.930 . S
C1278 C1273 1.418 . S
C1278 C1274 1.353 . S
C1279 H1249 0.930 . S
C1279 N1280 1.330 . S
C1279 C1281 1.446 . S
N1280 Co1239 2.151 . S
N1280 C1279 1.330 . S
N1280 C1284 1.418 . S
C1281 H1260 0.929 . S
C1281 C1279 1.446 . S
C1281 C1282 1.332 . S
C1282 H1262 0.931 . S
C1282 C1281 1.332 . S
C1282 C1283 1.267 . S
C1283 H1251 0.929 . S
C1283 C1282 1.267 . S
C1283 C1284 1.251 . S
C1284 H1254 0.929 . S
C1284 N1280 1.418 . S
C1284 C1283 1.251 . S
C1285 H1252 0.930 . S
C1285 C1287 1.406 . S
C1285 C1290 1.261 . S
C1286 H1253 0.930 . S
C1286 N1288 1.325 . S
C1286 C1289 1.357 . S
C1287 H1255 0.928 . S
C1287 C1285 1.406 . S
C1287 N1288 1.261 . S
N1288 Co1239 2.214 . S
N1288 C1286 1.325 . S
N1288 C1287 1.261 . S
C1289 H1259 0.931 . S
C1289 C1286 1.357 . S
C1289 C1290 1.312 . S
C1290 H1261 0.930 . S
C1290 C1285 1.261 . S
C1290 C1289 1.312 . S
C1291 O1263 1.214 . S
C1291 O1271 1.234 . S
C1292 H1264 0.929 . S
C1292 C1295 1.391 . S
C1292 C1297 1.391 . S
C1293 H1265 0.929 . S
C1293 C1294 1.390 . S
C1293 N1296 1.391 . S
C1294 H1266 0.930 . S
C1294 C1293 1.390 . S
C1294 C1295 1.392 . S
C1295 H1267 0.929 . S
C1295 C1292 1.391 . S
C1295 C1294 1.392 . S
N1296 Co1240 2.257 . S
N1296 C1293 1.391 . S
N1296 C1297 1.388 . S
C1297 H1268 0.930 . S
C1297 C1292 1.391 . S
C1297 N1296 1.388 . S
Co1298 O1300 2.143 . S
Co1298 O1306 2.074 . S
Co1298 O1309 2.093 . S
Co1298 O1322 2.097 . S
Co1298 N1339 2.151 . S
Co1298 N1347 2.214 . S
Co1299 O1300 2.160 . S
Co1299 O1305 2.058 . S
Co1299 O1315 2.057 . S
Co1299 O1330 2.037 . S
Co1299 N1334 2.145 . S
Co1299 N1355 2.257 . S
O1300 Co1298 2.143 . S
O1300 Co1299 2.160 . S
C1301 O1302 1.278 . S
C1301 O1309 1.224 . S
O1302 C1301 1.278 . S
C1303 O1304 1.245 . S
C1303 O1315 1.232 . S
O1304 C1303 1.245 . S
O1305 Co1299 2.058 . S
O1305 C1331 1.269 . S
O1306 Co1298 2.074 . S
O1306 C1331 1.257 . S
H1307 C1332 0.930 . S
H1308 C1338 0.930 . S
O1309 Co1298 2.093 . S
O1309 C1301 1.224 . S
H1310 C1342 0.929 . S
H1311 C1344 0.930 . S
H1312 C1345 0.930 . S
H1313 C1343 0.929 . S
H1314 C1346 0.928 . S
O1315 Co1299 2.057 . S
O1315 C1303 1.232 . S
H1316 C1335 0.929 . S
H1317 C1336 0.929 . S
H1318 C1348 0.931 . S
H1319 C1340 0.929 . S
H1320 C1349 0.930 . S
H1321 C1341 0.931 . S
O1322 Co1298 2.097 . S
O1322 C1350 1.214 . S
H1323 C1351 0.929 . S
H1324 C1352 0.929 . S
H1325 C1353 0.930 . S
H1326 C1354 0.929 . S
H1327 C1356 0.930 . S
H1328 C1333 0.930 1_565 S
H1329 C1337 0.930 . S
O1330 Co1299 2.037 . S
O1330 C1350 1.234 . S
C1331 O1305 1.269 . S
C1331 O1306 1.257 . S
C1332 H1307 0.930 . S
C1332 C1335 1.388 . S
C1332 C1337 1.418 . S
C1333 H1328 0.930 1_545 S
C1333 C1336 1.404 . S
C1333 C1337 1.353 . S
N1334 Co1299 2.145 . S
N1334 C1335 1.397 . S
N1334 C1336 1.334 . S
C1335 H1316 0.929 . S
C1335 C1332 1.388 . S
C1335 N1334 1.397 . S
C1336 H1317 0.929 . S
C1336 C1333 1.404 . S
C1336 N1334 1.334 . S
C1337 H1329 0.930 . S
C1337 C1332 1.418 . S
C1337 C1333 1.353 . S
C1338 H1308 0.930 . S
C1338 N1339 1.330 . S
C1338 C1340 1.446 . S
N1339 Co1298 2.151 . S
N1339 C1338 1.330 . S
N1339 C1343 1.418 . S
C1340 H1319 0.929 . S
C1340 C1338 1.446 . S
C1340 C1341 1.332 . S
C1341 H1321 0.931 . S
C1341 C1340 1.332 . S
C1341 C1342 1.267 . S
C1342 H1310 0.929 . S
C1342 C1341 1.267 . S
C1342 C1343 1.251 . S
C1343 H1313 0.929 . S
C1343 N1339 1.418 . S
C1343 C1342 1.251 . S
C1344 H1311 0.930 . S
C1344 C1346 1.406 . S
C1344 C1349 1.261 . S
C1345 H1312 0.930 . S
C1345 N1347 1.325 . S
C1345 C1348 1.357 . S
C1346 H1314 0.928 . S
C1346 C1344 1.406 . S
C1346 N1347 1.261 . S
N1347 Co1298 2.214 . S
N1347 C1345 1.325 . S
N1347 C1346 1.261 . S
C1348 H1318 0.931 . S
C1348 C1345 1.357 . S
C1348 C1349 1.312 . S
C1349 H1320 0.930 . S
C1349 C1344 1.261 . S
C1349 C1348 1.312 . S
C1350 O1322 1.214 . S
C1350 O1330 1.234 . S
C1351 H1323 0.929 . S
C1351 C1354 1.391 . S
C1351 C1356 1.391 . S
C1352 H1324 0.929 . S
C1352 C1353 1.390 . S
C1352 N1355 1.391 . S
C1353 H1325 0.930 . S
C1353 C1352 1.390 . S
C1353 C1354 1.392 . S
C1354 H1326 0.929 . S
C1354 C1351 1.391 . S
C1354 C1353 1.392 . S
N1355 Co1299 2.257 . S
N1355 C1352 1.391 . S
N1355 C1356 1.388 . S
C1356 H1327 0.930 . S
C1356 C1351 1.391 . S
C1356 N1355 1.388 . S
Co1357 O1359 2.143 . S
Co1357 O1365 2.074 . S
Co1357 O1368 2.093 . S
Co1357 O1381 2.097 . S
Co1357 N1398 2.151 . S
Co1357 N1406 2.214 . S
Co1358 O1359 2.160 . S
Co1358 O1364 2.058 . S
Co1358 O1374 2.057 . S
Co1358 O1389 2.037 . S
Co1358 N1393 2.145 . S
Co1358 N1414 2.257 . S
O1359 Co1357 2.143 . S
O1359 Co1358 2.160 . S
C1360 O1361 1.278 . S
C1360 O1368 1.224 . S
O1361 C1360 1.278 . S
C1362 O1363 1.245 . S
C1362 O1374 1.232 . S
O1363 C1362 1.245 . S
O1364 Co1358 2.058 . S
O1364 C1390 1.269 . S
O1365 Co1357 2.074 . S
O1365 C1390 1.257 . S
H1366 C1391 0.930 . S
H1367 C1397 0.930 . S
O1368 Co1357 2.093 . S
O1368 C1360 1.224 . S
H1369 C1401 0.929 . S
H1370 C1403 0.930 . S
H1371 C1404 0.930 . S
H1372 C1402 0.929 . S
H1373 C1405 0.928 . S
O1374 Co1358 2.057 . S
O1374 C1362 1.232 . S
H1375 C1394 0.929 . S
H1376 C1395 0.929 . S
H1377 C1407 0.931 . S
H1378 C1399 0.929 . S
H1379 C1408 0.930 . S
H1380 C1400 0.931 . S
O1381 Co1357 2.097 . S
O1381 C1409 1.214 . S
H1382 C1410 0.929 . S
H1383 C1411 0.929 . S
H1384 C1412 0.930 . S
H1385 C1413 0.929 . S
H1386 C1415 0.930 . S
H1387 C1392 0.930 . S
H1388 C1396 0.930 . S
O1389 Co1358 2.037 . S
O1389 C1409 1.234 . S
C1390 O1364 1.269 . S
C1390 O1365 1.257 . S
C1391 H1366 0.930 . S
C1391 C1394 1.388 . S
C1391 C1396 1.418 . S
C1392 H1387 0.930 . S
C1392 C1395 1.404 . S
C1392 C1396 1.353 . S
N1393 Co1358 2.145 . S
N1393 C1394 1.397 . S
N1393 C1395 1.334 . S
C1394 H1375 0.929 . S
C1394 C1391 1.388 . S
C1394 N1393 1.397 . S
C1395 H1376 0.929 . S
C1395 C1392 1.404 . S
C1395 N1393 1.334 . S
C1396 H1388 0.930 . S
C1396 C1391 1.418 . S
C1396 C1392 1.353 . S
C1397 H1367 0.930 . S
C1397 N1398 1.330 . S
C1397 C1399 1.446 . S
N1398 Co1357 2.151 . S
N1398 C1397 1.330 . S
N1398 C1402 1.418 . S
C1399 H1378 0.929 . S
C1399 C1397 1.446 . S
C1399 C1400 1.332 . S
C1400 H1380 0.931 . S
C1400 C1399 1.332 . S
C1400 C1401 1.267 . S
C1401 H1369 0.929 . S
C1401 C1400 1.267 . S
C1401 C1402 1.251 . S
C1402 H1372 0.929 . S
C1402 N1398 1.418 . S
C1402 C1401 1.251 . S
C1403 H1370 0.930 . S
C1403 C1405 1.406 . S
C1403 C1408 1.261 . S
C1404 H1371 0.930 . S
C1404 N1406 1.325 . S
C1404 C1407 1.357 . S
C1405 H1373 0.928 . S
C1405 C1403 1.406 . S
C1405 N1406 1.261 . S
N1406 Co1357 2.214 . S
N1406 C1404 1.325 . S
N1406 C1405 1.261 . S
C1407 H1377 0.931 . S
C1407 C1404 1.357 . S
C1407 C1408 1.312 . S
C1408 H1379 0.930 . S
C1408 C1403 1.261 . S
C1408 C1407 1.312 . S
C1409 O1381 1.214 . S
C1409 O1389 1.234 . S
C1410 H1382 0.929 . S
C1410 C1413 1.391 . S
C1410 C1415 1.391 . S
C1411 H1383 0.929 . S
C1411 C1412 1.390 . S
C1411 N1414 1.391 . S
C1412 H1384 0.930 . S
C1412 C1411 1.390 . S
C1412 C1413 1.392 . S
C1413 H1385 0.929 . S
C1413 C1410 1.391 . S
C1413 C1412 1.392 . S
N1414 Co1358 2.257 . S
N1414 C1411 1.391 . S
N1414 C1415 1.388 . S
C1415 H1386 0.930 . S
C1415 C1410 1.391 . S
C1415 N1414 1.388 . S
Co1416 O1418 2.143 . S
Co1416 O1424 2.074 . S
Co1416 O1427 2.093 . S
Co1416 O1440 2.097 . S
Co1416 N1457 2.151 . S
Co1416 N1465 2.214 . S
Co1417 O1418 2.160 . S
Co1417 O1423 2.058 . S
Co1417 O1433 2.057 . S
Co1417 O1448 2.037 . S
Co1417 N1452 2.145 . S
Co1417 N1473 2.257 . S
O1418 Co1416 2.143 . S
O1418 Co1417 2.160 . S
C1419 O1420 1.278 . S
C1419 O1427 1.224 . S
O1420 C1419 1.278 . S
C1421 O1422 1.245 . S
C1421 O1433 1.232 . S
O1422 C1421 1.245 . S
O1423 Co1417 2.058 . S
O1423 C1449 1.269 . S
O1424 Co1416 2.074 . S
O1424 C1449 1.257 . S
H1425 C1450 0.930 . S
H1426 C1456 0.930 . S
O1427 Co1416 2.093 . S
O1427 C1419 1.224 . S
H1428 C1460 0.929 . S
H1429 C1462 0.930 . S
H1430 C1463 0.930 . S
H1431 C1461 0.929 . S
H1432 C1464 0.928 . S
O1433 Co1417 2.057 . S
O1433 C1421 1.232 . S
H1434 C1453 0.929 . S
H1435 C1454 0.929 . S
H1436 C1466 0.931 . S
H1437 C1458 0.929 . S
H1438 C1467 0.930 . S
H1439 C1459 0.931 . S
O1440 Co1416 2.097 . S
O1440 C1468 1.214 . S
H1441 C1469 0.929 . S
H1442 C1470 0.929 . S
H1443 C1471 0.930 . S
H1444 C1472 0.929 . S
H1445 C1474 0.930 . S
H1446 C1451 0.930 . S
H1447 C1455 0.930 . S
O1448 Co1417 2.037 . S
O1448 C1468 1.234 . S
C1449 O1423 1.269 . S
C1449 O1424 1.257 . S
C1450 H1425 0.930 . S
C1450 C1453 1.388 . S
C1450 C1455 1.418 . S
C1451 H1446 0.930 . S
C1451 C1454 1.404 . S
C1451 C1455 1.353 . S
N1452 Co1417 2.145 . S
N1452 C1453 1.397 . S
N1452 C1454 1.334 . S
C1453 H1434 0.929 . S
C1453 C1450 1.388 . S
C1453 N1452 1.397 . S
C1454 H1435 0.929 . S
C1454 C1451 1.404 . S
C1454 N1452 1.334 . S
C1455 H1447 0.930 . S
C1455 C1450 1.418 . S
C1455 C1451 1.353 . S
C1456 H1426 0.930 . S
C1456 N1457 1.330 . S
C1456 C1458 1.446 . S
N1457 Co1416 2.151 . S
N1457 C1456 1.330 . S
N1457 C1461 1.418 . S
C1458 H1437 0.929 . S
C1458 C1456 1.446 . S
C1458 C1459 1.332 . S
C1459 H1439 0.931 . S
C1459 C1458 1.332 . S
C1459 C1460 1.267 . S
C1460 H1428 0.929 . S
C1460 C1459 1.267 . S
C1460 C1461 1.251 . S
C1461 H1431 0.929 . S
C1461 N1457 1.418 . S
C1461 C1460 1.251 . S
C1462 H1429 0.930 . S
C1462 C1464 1.406 . S
C1462 C1467 1.261 . S
C1463 H1430 0.930 . S
C1463 N1465 1.325 . S
C1463 C1466 1.357 . S
C1464 H1432 0.928 . S
C1464 C1462 1.406 . S
C1464 N1465 1.261 . S
N1465 Co1416 2.214 . S
N1465 C1463 1.325 . S
N1465 C1464 1.261 . S
C1466 H1436 0.931 . S
C1466 C1463 1.357 . S
C1466 C1467 1.312 . S
C1467 H1438 0.930 . S
C1467 C1462 1.261 . S
C1467 C1466 1.312 . S
C1468 O1440 1.214 . S
C1468 O1448 1.234 . S
C1469 H1441 0.929 . S
C1469 C1472 1.391 . S
C1469 C1474 1.391 . S
C1470 H1442 0.929 . S
C1470 C1471 1.390 . S
C1470 N1473 1.391 . S
C1471 H1443 0.930 . S
C1471 C1470 1.390 . S
C1471 C1472 1.392 . S
C1472 H1444 0.929 . S
C1472 C1469 1.391 . S
C1472 C1471 1.392 . S
N1473 Co1417 2.257 . S
N1473 C1470 1.391 . S
N1473 C1474 1.388 . S
C1474 H1445 0.930 . S
C1474 C1469 1.391 . S
C1474 N1473 1.388 . S
Co1475 O1477 2.143 . S
Co1475 O1483 2.074 . S
Co1475 O1486 2.093 . S
Co1475 O1499 2.097 . S
Co1475 N1516 2.151 . S
Co1475 N1524 2.214 . S
Co1476 O1477 2.160 . S
Co1476 O1482 2.058 . S
Co1476 O1492 2.057 . S
Co1476 O1507 2.037 . S
Co1476 N1511 2.145 . S
Co1476 N1532 2.257 . S
O1477 Co1475 2.143 . S
O1477 Co1476 2.160 . S
C1478 O1479 1.278 . S
C1478 O1486 1.224 . S
O1479 C1478 1.278 . S
C1480 O1481 1.245 . S
C1480 O1492 1.232 . S
O1481 C1480 1.245 . S
O1482 Co1476 2.058 . S
O1482 C1508 1.269 . S
O1483 Co1475 2.074 . S
O1483 C1508 1.257 . S
H1484 C1509 0.930 . S
H1485 C1515 0.930 . S
O1486 Co1475 2.093 . S
O1486 C1478 1.224 . S
H1487 C1519 0.929 . S
H1488 C1521 0.930 . S
H1489 C1522 0.930 . S
H1490 C1520 0.929 . S
H1491 C1523 0.928 . S
O1492 Co1476 2.057 . S
O1492 C1480 1.232 . S
H1493 C1512 0.929 . S
H1494 C1513 0.929 . S
H1495 C1525 0.931 . S
H1496 C1517 0.929 . S
H1497 C1526 0.930 . S
H1498 C1518 0.931 . S
O1499 Co1475 2.097 . S
O1499 C1527 1.214 . S
H1500 C1528 0.929 . S
H1501 C1529 0.929 . S
H1502 C1530 0.930 . S
H1503 C1531 0.929 . S
H1504 C1533 0.930 . S
H1505 C1510 0.930 . S
H1506 C1514 0.930 . S
O1507 Co1476 2.037 . S
O1507 C1527 1.234 . S
C1508 O1482 1.269 . S
C1508 O1483 1.257 . S
C1509 H1484 0.930 . S
C1509 C1512 1.388 . S
C1509 C1514 1.418 . S
C1510 H1505 0.930 . S
C1510 C1513 1.404 . S
C1510 C1514 1.353 . S
N1511 Co1476 2.145 . S
N1511 C1512 1.397 . S
N1511 C1513 1.334 . S
C1512 H1493 0.929 . S
C1512 C1509 1.388 . S
C1512 N1511 1.397 . S
C1513 H1494 0.929 . S
C1513 C1510 1.404 . S
C1513 N1511 1.334 . S
C1514 H1506 0.930 . S
C1514 C1509 1.418 . S
C1514 C1510 1.353 . S
C1515 H1485 0.930 . S
C1515 N1516 1.330 . S
C1515 C1517 1.446 . S
N1516 Co1475 2.151 . S
N1516 C1515 1.330 . S
N1516 C1520 1.418 . S
C1517 H1496 0.929 . S
C1517 C1515 1.446 . S
C1517 C1518 1.332 . S
C1518 H1498 0.931 . S
C1518 C1517 1.332 . S
C1518 C1519 1.267 . S
C1519 H1487 0.929 . S
C1519 C1518 1.267 . S
C1519 C1520 1.251 . S
C1520 H1490 0.929 . S
C1520 N1516 1.418 . S
C1520 C1519 1.251 . S
C1521 H1488 0.930 . S
C1521 C1523 1.406 . S
C1521 C1526 1.261 . S
C1522 H1489 0.930 . S
C1522 N1524 1.325 . S
C1522 C1525 1.357 . S
C1523 H1491 0.928 . S
C1523 C1521 1.406 . S
C1523 N1524 1.261 . S
N1524 Co1475 2.214 . S
N1524 C1522 1.325 . S
N1524 C1523 1.261 . S
C1525 H1495 0.931 . S
C1525 C1522 1.357 . S
C1525 C1526 1.312 . S
C1526 H1497 0.930 . S
C1526 C1521 1.261 . S
C1526 C1525 1.312 . S
C1527 O1499 1.214 . S
C1527 O1507 1.234 . S
C1528 H1500 0.929 . S
C1528 C1531 1.391 . S
C1528 C1533 1.391 . S
C1529 H1501 0.929 . S
C1529 C1530 1.390 . S
C1529 N1532 1.391 . S
C1530 H1502 0.930 . S
C1530 C1529 1.390 . S
C1530 C1531 1.392 . S
C1531 H1503 0.929 . S
C1531 C1528 1.391 . S
C1531 C1530 1.392 . S
N1532 Co1476 2.257 . S
N1532 C1529 1.391 . S
N1532 C1533 1.388 . S
C1533 H1504 0.930 . S
C1533 C1528 1.391 . S
C1533 N1532 1.388 . S
Co1534 O1536 2.143 . S
Co1534 O1542 2.074 1_554 S
Co1534 O1545 2.093 . S
Co1534 O1558 2.097 . S
Co1534 N1575 2.151 . S
Co1534 N1583 2.214 . S
Co1535 O1536 2.160 1_556 S
Co1535 O1541 2.058 . S
Co1535 O1551 2.057 . S
Co1535 O1566 2.037 . S
Co1535 N1570 2.145 . S
Co1535 N1591 2.257 1_556 S
O1536 Co1534 2.143 . S
O1536 Co1535 2.160 1_554 S
C1537 O1538 1.278 . S
C1537 O1545 1.224 . S
O1538 C1537 1.278 . S
C1539 O1540 1.245 . S
C1539 O1551 1.232 . S
O1540 C1539 1.245 . S
O1541 Co1535 2.058 . S
O1541 C1567 1.269 . S
O1542 Co1534 2.074 1_556 S
O1542 C1567 1.257 . S
H1543 C1568 0.930 . S
H1544 C1574 0.930 . S
O1545 Co1534 2.093 . S
O1545 C1537 1.224 . S
H1546 C1578 0.929 . S
H1547 C1580 0.930 . S
H1548 C1581 0.930 . S
H1549 C1579 0.929 . S
H1550 C1582 0.928 . S
O1551 Co1535 2.057 . S
O1551 C1539 1.232 . S
H1552 C1571 0.929 . S
H1553 C1572 0.929 . S
H1554 C1584 0.931 . S
H1555 C1576 0.929 . S
H1556 C1585 0.930 . S
H1557 C1577 0.931 . S
O1558 Co1534 2.097 . S
O1558 C1586 1.214 1_554 S
H1559 C1587 0.929 . S
H1560 C1588 0.929 1_556 S
H1561 C1589 0.930 . S
H1562 C1590 0.929 . S
H1563 C1592 0.930 . S
H1564 C1569 0.930 . S
H1565 C1573 0.930 . S
O1566 Co1535 2.037 . S
O1566 C1586 1.234 . S
C1567 O1541 1.269 . S
C1567 O1542 1.257 . S
C1568 H1543 0.930 . S
C1568 C1571 1.388 . S
C1568 C1573 1.418 . S
C1569 H1564 0.930 . S
C1569 C1572 1.404 . S
C1569 C1573 1.353 . S
N1570 Co1535 2.145 . S
N1570 C1571 1.397 . S
N1570 C1572 1.334 . S
C1571 H1552 0.929 . S
C1571 C1568 1.388 . S
C1571 N1570 1.397 . S
C1572 H1553 0.929 . S
C1572 C1569 1.404 . S
C1572 N1570 1.334 . S
C1573 H1565 0.930 . S
C1573 C1568 1.418 . S
C1573 C1569 1.353 . S
C1574 H1544 0.930 . S
C1574 N1575 1.330 . S
C1574 C1576 1.446 . S
N1575 Co1534 2.151 . S
N1575 C1574 1.330 . S
N1575 C1579 1.418 1_554 S
C1576 H1555 0.929 . S
C1576 C1574 1.446 . S
C1576 C1577 1.332 . S
C1577 H1557 0.931 . S
C1577 C1576 1.332 . S
C1577 C1578 1.267 1_554 S
C1578 H1546 0.929 . S
C1578 C1577 1.267 1_556 S
C1578 C1579 1.251 . S
C1579 H1549 0.929 . S
C1579 N1575 1.418 1_556 S
C1579 C1578 1.251 . S
C1580 H1547 0.930 . S
C1580 C1582 1.406 . S
C1580 C1585 1.261 1_554 S
C1581 H1548 0.930 . S
C1581 N1583 1.325 1_556 S
C1581 C1584 1.357 . S
C1582 H1550 0.928 . S
C1582 C1580 1.406 . S
C1582 N1583 1.261 . S
N1583 Co1534 2.214 . S
N1583 C1581 1.325 1_554 S
N1583 C1582 1.261 . S
C1584 H1554 0.931 . S
C1584 C1581 1.357 . S
C1584 C1585 1.312 . S
C1585 H1556 0.930 . S
C1585 C1580 1.261 1_556 S
C1585 C1584 1.312 . S
C1586 O1558 1.214 1_556 S
C1586 O1566 1.234 . S
C1587 H1559 0.929 . S
C1587 C1590 1.391 . S
C1587 C1592 1.391 . S
C1588 H1560 0.929 1_554 S
C1588 C1589 1.390 . S
C1588 N1591 1.391 . S
C1589 H1561 0.930 . S
C1589 C1588 1.390 . S
C1589 C1590 1.392 . S
C1590 H1562 0.929 . S
C1590 C1587 1.391 . S
C1590 C1589 1.392 . S
N1591 Co1535 2.257 1_554 S
N1591 C1588 1.391 . S
N1591 C1592 1.388 . S
C1592 H1563 0.930 . S
C1592 C1587 1.391 . S
C1592 N1591 1.388 . S
Co1593 O1595 2.143 . S
Co1593 O1601 2.074 1_554 S
Co1593 O1604 2.093 . S
Co1593 O1617 2.097 . S
Co1593 N1634 2.151 . S
Co1593 N1642 2.214 . S
Co1594 O1595 2.160 1_556 S
Co1594 O1600 2.058 . S
Co1594 O1610 2.057 . S
Co1594 O1625 2.037 . S
Co1594 N1629 2.145 . S
Co1594 N1650 2.257 1_556 S
O1595 Co1593 2.143 . S
O1595 Co1594 2.160 1_554 S
C1596 O1597 1.278 . S
C1596 O1604 1.224 . S
O1597 C1596 1.278 . S
C1598 O1599 1.245 . S
C1598 O1610 1.232 . S
O1599 C1598 1.245 . S
O1600 Co1594 2.058 . S
O1600 C1626 1.269 . S
O1601 Co1593 2.074 1_556 S
O1601 C1626 1.257 . S
H1602 C1627 0.930 . S
H1603 C1633 0.930 . S
O1604 Co1593 2.093 . S
O1604 C1596 1.224 . S
H1605 C1637 0.929 . S
H1606 C1639 0.930 . S
H1607 C1640 0.930 . S
H1608 C1638 0.929 . S
H1609 C1641 0.928 . S
O1610 Co1594 2.057 . S
O1610 C1598 1.232 . S
H1611 C1630 0.929 . S
H1612 C1631 0.929 . S
H1613 C1643 0.931 . S
H1614 C1635 0.929 . S
H1615 C1644 0.930 . S
H1616 C1636 0.931 . S
O1617 Co1593 2.097 . S
O1617 C1645 1.214 1_554 S
H1618 C1646 0.929 . S
H1619 C1647 0.929 1_556 S
H1620 C1648 0.930 . S
H1621 C1649 0.929 . S
H1622 C1651 0.930 . S
H1623 C1628 0.930 . S
H1624 C1632 0.930 . S
O1625 Co1594 2.037 . S
O1625 C1645 1.234 . S
C1626 O1600 1.269 . S
C1626 O1601 1.257 . S
C1627 H1602 0.930 . S
C1627 C1630 1.388 . S
C1627 C1632 1.418 . S
C1628 H1623 0.930 . S
C1628 C1631 1.404 . S
C1628 C1632 1.353 . S
N1629 Co1594 2.145 . S
N1629 C1630 1.397 . S
N1629 C1631 1.334 . S
C1630 H1611 0.929 . S
C1630 C1627 1.388 . S
C1630 N1629 1.397 . S
C1631 H1612 0.929 . S
C1631 C1628 1.404 . S
C1631 N1629 1.334 . S
C1632 H1624 0.930 . S
C1632 C1627 1.418 . S
C1632 C1628 1.353 . S
C1633 H1603 0.930 . S
C1633 N1634 1.330 . S
C1633 C1635 1.446 . S
N1634 Co1593 2.151 . S
N1634 C1633 1.330 . S
N1634 C1638 1.418 1_554 S
C1635 H1614 0.929 . S
C1635 C1633 1.446 . S
C1635 C1636 1.332 . S
C1636 H1616 0.931 . S
C1636 C1635 1.332 . S
C1636 C1637 1.267 1_554 S
C1637 H1605 0.929 . S
C1637 C1636 1.267 1_556 S
C1637 C1638 1.251 . S
C1638 H1608 0.929 . S
C1638 N1634 1.418 1_556 S
C1638 C1637 1.251 . S
C1639 H1606 0.930 . S
C1639 C1641 1.406 . S
C1639 C1644 1.261 1_554 S
C1640 H1607 0.930 . S
C1640 N1642 1.325 1_556 S
C1640 C1643 1.357 . S
C1641 H1609 0.928 . S
C1641 C1639 1.406 . S
C1641 N1642 1.261 . S
N1642 Co1593 2.214 . S
N1642 C1640 1.325 1_554 S
N1642 C1641 1.261 . S
C1643 H1613 0.931 . S
C1643 C1640 1.357 . S
C1643 C1644 1.312 . S
C1644 H1615 0.930 . S
C1644 C1639 1.261 1_556 S
C1644 C1643 1.312 . S
C1645 O1617 1.214 1_556 S
C1645 O1625 1.234 . S
C1646 H1618 0.929 . S
C1646 C1649 1.391 . S
C1646 C1651 1.391 . S
C1647 H1619 0.929 1_554 S
C1647 C1648 1.390 . S
C1647 N1650 1.391 . S
C1648 H1620 0.930 . S
C1648 C1647 1.390 . S
C1648 C1649 1.392 . S
C1649 H1621 0.929 . S
C1649 C1646 1.391 . S
C1649 C1648 1.392 . S
N1650 Co1594 2.257 1_554 S
N1650 C1647 1.391 . S
N1650 C1651 1.388 . S
C1651 H1622 0.930 . S
C1651 C1646 1.391 . S
C1651 N1650 1.388 . S
Co1652 O1654 2.143 . S
Co1652 O1660 2.074 . S
Co1652 O1663 2.093 . S
Co1652 O1676 2.097 . S
Co1652 N1693 2.151 . S
Co1652 N1701 2.214 . S
Co1653 O1654 2.160 . S
Co1653 O1659 2.058 . S
Co1653 O1669 2.057 . S
Co1653 O1684 2.037 . S
Co1653 N1688 2.145 . S
Co1653 N1709 2.257 . S
O1654 Co1652 2.143 . S
O1654 Co1653 2.160 . S
C1655 O1656 1.278 . S
C1655 O1663 1.224 . S
O1656 C1655 1.278 . S
C1657 O1658 1.245 . S
C1657 O1669 1.232 . S
O1658 C1657 1.245 . S
O1659 Co1653 2.058 . S
O1659 C1685 1.269 . S
O1660 Co1652 2.074 . S
O1660 C1685 1.257 . S
H1661 C1686 0.930 . S
H1662 C1692 0.930 . S
O1663 Co1652 2.093 . S
O1663 C1655 1.224 . S
H1664 C1696 0.929 . S
H1665 C1698 0.930 . S
H1666 C1699 0.930 . S
H1667 C1697 0.929 . S
H1668 C1700 0.928 . S
O1669 Co1653 2.057 . S
O1669 C1657 1.232 . S
H1670 C1689 0.929 . S
H1671 C1690 0.929 . S
H1672 C1702 0.931 . S
H1673 C1694 0.929 . S
H1674 C1703 0.930 . S
H1675 C1695 0.931 . S
O1676 Co1652 2.097 . S
O1676 C1704 1.214 . S
H1677 C1705 0.929 . S
H1678 C1706 0.929 . S
H1679 C1707 0.930 . S
H1680 C1708 0.929 . S
H1681 C1710 0.930 . S
H1682 C1687 0.930 . S
H1683 C1691 0.930 . S
O1684 Co1653 2.037 . S
O1684 C1704 1.234 . S
C1685 O1659 1.269 . S
C1685 O1660 1.257 . S
C1686 H1661 0.930 . S
C1686 C1689 1.388 . S
C1686 C1691 1.418 . S
C1687 H1682 0.930 . S
C1687 C1690 1.404 . S
C1687 C1691 1.353 . S
N1688 Co1653 2.145 . S
N1688 C1689 1.397 . S
N1688 C1690 1.334 . S
C1689 H1670 0.929 . S
C1689 C1686 1.388 . S
C1689 N1688 1.397 . S
C1690 H1671 0.929 . S
C1690 C1687 1.404 . S
C1690 N1688 1.334 . S
C1691 H1683 0.930 . S
C1691 C1686 1.418 . S
C1691 C1687 1.353 . S
C1692 H1662 0.930 . S
C1692 N1693 1.330 . S
C1692 C1694 1.446 . S
N1693 Co1652 2.151 . S
N1693 C1692 1.330 . S
N1693 C1697 1.418 . S
C1694 H1673 0.929 . S
C1694 C1692 1.446 . S
C1694 C1695 1.332 . S
C1695 H1675 0.931 . S
C1695 C1694 1.332 . S
C1695 C1696 1.267 . S
C1696 H1664 0.929 . S
C1696 C1695 1.267 . S
C1696 C1697 1.251 . S
C1697 H1667 0.929 . S
C1697 N1693 1.418 . S
C1697 C1696 1.251 . S
C1698 H1665 0.930 . S
C1698 C1700 1.406 . S
C1698 C1703 1.261 . S
C1699 H1666 0.930 . S
C1699 N1701 1.325 . S
C1699 C1702 1.357 . S
C1700 H1668 0.928 . S
C1700 C1698 1.406 . S
C1700 N1701 1.261 . S
N1701 Co1652 2.214 . S
N1701 C1699 1.325 . S
N1701 C1700 1.261 . S
C1702 H1672 0.931 . S
C1702 C1699 1.357 . S
C1702 C1703 1.312 . S
C1703 H1674 0.930 . S
C1703 C1698 1.261 . S
C1703 C1702 1.312 . S
C1704 O1676 1.214 . S
C1704 O1684 1.234 . S
C1705 H1677 0.929 . S
C1705 C1708 1.391 . S
C1705 C1710 1.391 . S
C1706 H1678 0.929 . S
C1706 C1707 1.390 . S
C1706 N1709 1.391 . S
C1707 H1679 0.930 . S
C1707 C1706 1.390 . S
C1707 C1708 1.392 . S
C1708 H1680 0.929 . S
C1708 C1705 1.391 . S
C1708 C1707 1.392 . S
N1709 Co1653 2.257 . S
N1709 C1706 1.391 . S
N1709 C1710 1.388 . S
C1710 H1681 0.930 . S
C1710 C1705 1.391 . S
C1710 N1709 1.388 . S
Co1711 O1713 2.143 . S
Co1711 O1719 2.074 . S
Co1711 O1722 2.093 . S
Co1711 O1735 2.097 . S
Co1711 N1752 2.151 . S
Co1711 N1760 2.214 . S
Co1712 O1713 2.160 . S
Co1712 O1718 2.058 . S
Co1712 O1728 2.057 . S
Co1712 O1743 2.037 . S
Co1712 N1747 2.145 . S
Co1712 N1768 2.257 . S
O1713 Co1711 2.143 . S
O1713 Co1712 2.160 . S
C1714 O1715 1.278 . S
C1714 O1722 1.224 . S
O1715 C1714 1.278 . S
C1716 O1717 1.245 . S
C1716 O1728 1.232 . S
O1717 C1716 1.245 . S
O1718 Co1712 2.058 . S
O1718 C1744 1.269 . S
O1719 Co1711 2.074 . S
O1719 C1744 1.257 . S
H1720 C1745 0.930 . S
H1721 C1751 0.930 . S
O1722 Co1711 2.093 . S
O1722 C1714 1.224 . S
H1723 C1755 0.929 . S
H1724 C1757 0.930 . S
H1725 C1758 0.930 . S
H1726 C1756 0.929 . S
H1727 C1759 0.928 . S
O1728 Co1712 2.057 . S
O1728 C1716 1.232 . S
H1729 C1748 0.929 . S
H1730 C1749 0.929 . S
H1731 C1761 0.931 . S
H1732 C1753 0.929 . S
H1733 C1762 0.930 . S
H1734 C1754 0.931 . S
O1735 Co1711 2.097 . S
O1735 C1763 1.214 . S
H1736 C1764 0.929 . S
H1737 C1765 0.929 . S
H1738 C1766 0.930 . S
H1739 C1767 0.929 . S
H1740 C1769 0.930 . S
H1741 C1746 0.930 . S
H1742 C1750 0.930 . S
O1743 Co1712 2.037 . S
O1743 C1763 1.234 . S
C1744 O1718 1.269 . S
C1744 O1719 1.257 . S
C1745 H1720 0.930 . S
C1745 C1748 1.388 . S
C1745 C1750 1.418 . S
C1746 H1741 0.930 . S
C1746 C1749 1.404 . S
C1746 C1750 1.353 . S
N1747 Co1712 2.145 . S
N1747 C1748 1.397 . S
N1747 C1749 1.334 . S
C1748 H1729 0.929 . S
C1748 C1745 1.388 . S
C1748 N1747 1.397 . S
C1749 H1730 0.929 . S
C1749 C1746 1.404 . S
C1749 N1747 1.334 . S
C1750 H1742 0.930 . S
C1750 C1745 1.418 . S
C1750 C1746 1.353 . S
C1751 H1721 0.930 . S
C1751 N1752 1.330 . S
C1751 C1753 1.446 . S
N1752 Co1711 2.151 . S
N1752 C1751 1.330 . S
N1752 C1756 1.418 . S
C1753 H1732 0.929 . S
C1753 C1751 1.446 . S
C1753 C1754 1.332 . S
C1754 H1734 0.931 . S
C1754 C1753 1.332 . S
C1754 C1755 1.267 . S
C1755 H1723 0.929 . S
C1755 C1754 1.267 . S
C1755 C1756 1.251 . S
C1756 H1726 0.929 . S
C1756 N1752 1.418 . S
C1756 C1755 1.251 . S
C1757 H1724 0.930 . S
C1757 C1759 1.406 . S
C1757 C1762 1.261 . S
C1758 H1725 0.930 . S
C1758 N1760 1.325 . S
C1758 C1761 1.357 . S
C1759 H1727 0.928 . S
C1759 C1757 1.406 . S
C1759 N1760 1.261 . S
N1760 Co1711 2.214 . S
N1760 C1758 1.325 . S
N1760 C1759 1.261 . S
C1761 H1731 0.931 . S
C1761 C1758 1.357 . S
C1761 C1762 1.312 . S
C1762 H1733 0.930 . S
C1762 C1757 1.261 . S
C1762 C1761 1.312 . S
C1763 O1735 1.214 . S
C1763 O1743 1.234 . S
C1764 H1736 0.929 . S
C1764 C1767 1.391 . S
C1764 C1769 1.391 . S
C1765 H1737 0.929 . S
C1765 C1766 1.390 . S
C1765 N1768 1.391 . S
C1766 H1738 0.930 . S
C1766 C1765 1.390 . S
C1766 C1767 1.392 . S
C1767 H1739 0.929 . S
C1767 C1764 1.391 . S
C1767 C1766 1.392 . S
N1768 Co1712 2.257 . S
N1768 C1765 1.391 . S
N1768 C1769 1.388 . S
C1769 H1740 0.930 . S
C1769 C1764 1.391 . S
C1769 N1768 1.388 . S
Co1770 O1772 2.143 . S
Co1770 O1778 2.074 1_556 S
Co1770 O1781 2.093 . S
Co1770 O1794 2.097 . S
Co1770 N1811 2.151 . S
Co1770 N1819 2.214 . S
Co1771 O1772 2.160 1_554 S
Co1771 O1777 2.058 . S
Co1771 O1787 2.057 . S
Co1771 O1802 2.037 . S
Co1771 N1806 2.145 . S
Co1771 N1827 2.257 1_554 S
O1772 Co1770 2.143 . S
O1772 Co1771 2.160 1_556 S
C1773 O1774 1.278 . S
C1773 O1781 1.224 . S
O1774 C1773 1.278 . S
C1775 O1776 1.245 . S
C1775 O1787 1.232 . S
O1776 C1775 1.245 . S
O1777 Co1771 2.058 . S
O1777 C1803 1.269 . S
O1778 Co1770 2.074 1_554 S
O1778 C1803 1.257 . S
H1779 C1804 0.930 . S
H1780 C1810 0.930 . S
O1781 Co1770 2.093 . S
O1781 C1773 1.224 . S
H1782 C1814 0.929 . S
H1783 C1816 0.930 . S
H1784 C1817 0.930 . S
H1785 C1815 0.929 . S
H1786 C1818 0.928 . S
O1787 Co1771 2.057 . S
O1787 C1775 1.232 . S
H1788 C1807 0.929 . S
H1789 C1808 0.929 . S
H1790 C1820 0.931 . S
H1791 C1812 0.929 . S
H1792 C1821 0.930 . S
H1793 C1813 0.931 . S
O1794 Co1770 2.097 . S
O1794 C1822 1.214 1_556 S
H1795 C1823 0.929 . S
H1796 C1824 0.929 1_554 S
H1797 C1825 0.930 . S
H1798 C1826 0.929 . S
H1799 C1828 0.930 . S
H1800 C1805 0.930 . S
H1801 C1809 0.930 . S
O1802 Co1771 2.037 . S
O1802 C1822 1.234 . S
C1803 O1777 1.269 . S
C1803 O1778 1.257 . S
C1804 H1779 0.930 . S
C1804 C1807 1.388 . S
C1804 C1809 1.418 . S
C1805 H1800 0.930 . S
C1805 C1808 1.404 . S
C1805 C1809 1.353 . S
N1806 Co1771 2.145 . S
N1806 C1807 1.397 . S
N1806 C1808 1.334 . S
C1807 H1788 0.929 . S
C1807 C1804 1.388 . S
C1807 N1806 1.397 . S
C1808 H1789 0.929 . S
C1808 C1805 1.404 . S
C1808 N1806 1.334 . S
C1809 H1801 0.930 . S
C1809 C1804 1.418 . S
C1809 C1805 1.353 . S
C1810 H1780 0.930 . S
C1810 N1811 1.330 . S
C1810 C1812 1.446 . S
N1811 Co1770 2.151 . S
N1811 C1810 1.330 . S
N1811 C1815 1.418 1_556 S
C1812 H1791 0.929 . S
C1812 C1810 1.446 . S
C1812 C1813 1.332 . S
C1813 H1793 0.931 . S
C1813 C1812 1.332 . S
C1813 C1814 1.267 1_556 S
C1814 H1782 0.929 . S
C1814 C1813 1.267 1_554 S
C1814 C1815 1.251 . S
C1815 H1785 0.929 . S
C1815 N1811 1.418 1_554 S
C1815 C1814 1.251 . S
C1816 H1783 0.930 . S
C1816 C1818 1.406 . S
C1816 C1821 1.261 1_556 S
C1817 H1784 0.930 . S
C1817 N1819 1.325 1_554 S
C1817 C1820 1.357 . S
C1818 H1786 0.928 . S
C1818 C1816 1.406 . S
C1818 N1819 1.261 . S
N1819 Co1770 2.214 . S
N1819 C1817 1.325 1_556 S
N1819 C1818 1.261 . S
C1820 H1790 0.931 . S
C1820 C1817 1.357 . S
C1820 C1821 1.312 . S
C1821 H1792 0.930 . S
C1821 C1816 1.261 1_554 S
C1821 C1820 1.312 . S
C1822 O1794 1.214 1_554 S
C1822 O1802 1.234 . S
C1823 H1795 0.929 . S
C1823 C1826 1.391 . S
C1823 C1828 1.391 . S
C1824 H1796 0.929 1_556 S
C1824 C1825 1.390 . S
C1824 N1827 1.391 . S
C1825 H1797 0.930 . S
C1825 C1824 1.390 . S
C1825 C1826 1.392 . S
C1826 H1798 0.929 . S
C1826 C1823 1.391 . S
C1826 C1825 1.392 . S
N1827 Co1771 2.257 1_556 S
N1827 C1824 1.391 . S
N1827 C1828 1.388 . S
C1828 H1799 0.930 . S
C1828 C1823 1.391 . S
C1828 N1827 1.388 . S
Co1829 O1831 2.143 . S
Co1829 O1837 2.074 1_556 S
Co1829 O1840 2.093 . S
Co1829 O1853 2.097 . S
Co1829 N1870 2.151 . S
Co1829 N1878 2.214 . S
Co1830 O1831 2.160 1_554 S
Co1830 O1836 2.058 . S
Co1830 O1846 2.057 . S
Co1830 O1861 2.037 . S
Co1830 N1865 2.145 . S
Co1830 N1886 2.257 1_554 S
O1831 Co1829 2.143 . S
O1831 Co1830 2.160 1_556 S
C1832 O1833 1.278 . S
C1832 O1840 1.224 . S
O1833 C1832 1.278 . S
C1834 O1835 1.245 . S
C1834 O1846 1.232 . S
O1835 C1834 1.245 . S
O1836 Co1830 2.058 . S
O1836 C1862 1.269 . S
O1837 Co1829 2.074 1_554 S
O1837 C1862 1.257 . S
H1838 C1863 0.930 . S
H1839 C1869 0.930 . S
O1840 Co1829 2.093 . S
O1840 C1832 1.224 . S
H1841 C1873 0.929 . S
H1842 C1875 0.930 . S
H1843 C1876 0.930 . S
H1844 C1874 0.929 . S
H1845 C1877 0.928 . S
O1846 Co1830 2.057 . S
O1846 C1834 1.232 . S
H1847 C1866 0.929 . S
H1848 C1867 0.929 . S
H1849 C1879 0.931 . S
H1850 C1871 0.929 . S
H1851 C1880 0.930 . S
H1852 C1872 0.931 . S
O1853 Co1829 2.097 . S
O1853 C1881 1.214 1_556 S
H1854 C1882 0.929 . S
H1855 C1883 0.929 1_554 S
H1856 C1884 0.930 . S
H1857 C1885 0.929 . S
H1858 C1887 0.930 . S
H1859 C1864 0.930 . S
H1860 C1868 0.930 . S
O1861 Co1830 2.037 . S
O1861 C1881 1.234 . S
C1862 O1836 1.269 . S
C1862 O1837 1.257 . S
C1863 H1838 0.930 . S
C1863 C1866 1.388 . S
C1863 C1868 1.418 . S
C1864 H1859 0.930 . S
C1864 C1867 1.404 . S
C1864 C1868 1.353 . S
N1865 Co1830 2.145 . S
N1865 C1866 1.397 . S
N1865 C1867 1.334 . S
C1866 H1847 0.929 . S
C1866 C1863 1.388 . S
C1866 N1865 1.397 . S
C1867 H1848 0.929 . S
C1867 C1864 1.404 . S
C1867 N1865 1.334 . S
C1868 H1860 0.930 . S
C1868 C1863 1.418 . S
C1868 C1864 1.353 . S
C1869 H1839 0.930 . S
C1869 N1870 1.330 . S
C1869 C1871 1.446 . S
N1870 Co1829 2.151 . S
N1870 C1869 1.330 . S
N1870 C1874 1.418 1_556 S
C1871 H1850 0.929 . S
C1871 C1869 1.446 . S
C1871 C1872 1.332 . S
C1872 H1852 0.931 . S
C1872 C1871 1.332 . S
C1872 C1873 1.267 1_556 S
C1873 H1841 0.929 . S
C1873 C1872 1.267 1_554 S
C1873 C1874 1.251 . S
C1874 H1844 0.929 . S
C1874 N1870 1.418 1_554 S
C1874 C1873 1.251 . S
C1875 H1842 0.930 . S
C1875 C1877 1.406 . S
C1875 C1880 1.261 1_556 S
C1876 H1843 0.930 . S
C1876 N1878 1.325 1_554 S
C1876 C1879 1.357 . S
C1877 H1845 0.928 . S
C1877 C1875 1.406 . S
C1877 N1878 1.261 . S
N1878 Co1829 2.214 . S
N1878 C1876 1.325 1_556 S
N1878 C1877 1.261 . S
C1879 H1849 0.931 . S
C1879 C1876 1.357 . S
C1879 C1880 1.312 . S
C1880 H1851 0.930 . S
C1880 C1875 1.261 1_554 S
C1880 C1879 1.312 . S
C1881 O1853 1.214 1_554 S
C1881 O1861 1.234 . S
C1882 H1854 0.929 . S
C1882 C1885 1.391 . S
C1882 C1887 1.391 . S
C1883 H1855 0.929 1_556 S
C1883 C1884 1.390 . S
C1883 N1886 1.391 . S
C1884 H1856 0.930 . S
C1884 C1883 1.390 . S
C1884 C1885 1.392 . S
C1885 H1857 0.929 . S
C1885 C1882 1.391 . S
C1885 C1884 1.392 . S
N1886 Co1830 2.257 1_556 S
N1886 C1883 1.391 . S
N1886 C1887 1.388 . S
C1887 H1858 0.930 . S
C1887 C1882 1.391 . S
C1887 N1886 1.388 . S
C1888 C1889 1.387 . S
C1888 H1892 0.950 . S
C1888 C1897 1.390 . S
C1889 C1888 1.387 . S
C1889 C1891 1.387 . S
H1890 C1897 0.950 . S
C1891 C1889 1.387 . S
C1891 C1893 1.390 . S
C1891 H1895 0.950 . S
H1892 C1888 0.950 . S
C1893 C1891 1.390 . S
C1893 C1894 1.387 . S
C1893 H1896 0.950 . S
C1894 C1893 1.387 . S
C1894 C1897 1.387 . S
H1895 C1891 0.950 . S
H1896 C1893 0.950 . S
C1897 C1888 1.390 . S
C1897 H1890 0.950 . S
C1897 C1894 1.387 . S
C1898 C1899 1.387 . S
C1898 H1902 0.950 . S
C1898 C1907 1.390 . S
C1899 C1898 1.387 . S
C1899 C1901 1.387 . S
H1900 C1907 0.950 . S
C1901 C1899 1.387 . S
C1901 C1903 1.390 . S
C1901 H1905 0.950 . S
H1902 C1898 0.950 . S
C1903 C1901 1.390 . S
C1903 C1904 1.387 . S
C1903 H1906 0.950 . S
C1904 C1903 1.387 . S
C1904 C1907 1.387 . S
H1905 C1901 0.950 . S
H1906 C1903 0.950 . S
C1907 C1898 1.390 . S
C1907 H1900 0.950 . S
C1907 C1904 1.387 . S
C1908 C1909 1.387 . S
C1908 H1912 0.950 . S
C1908 C1917 1.390 . S
C1909 C1908 1.387 . S
C1909 C1911 1.387 . S
H1910 C1917 0.950 . S
C1911 C1909 1.387 . S
C1911 C1913 1.390 . S
C1911 H1915 0.950 . S
H1912 C1908 0.950 . S
C1913 C1911 1.390 . S
C1913 C1914 1.387 . S
C1913 H1916 0.950 . S
C1914 C1913 1.387 . S
C1914 C1917 1.387 . S
H1915 C1911 0.950 . S
H1916 C1913 0.950 . S
C1917 C1908 1.390 . S
C1917 H1910 0.950 . S
C1917 C1914 1.387 . S
C1918 C1919 1.387 . S
C1918 H1922 0.950 . S
C1918 C1927 1.390 . S
C1919 C1918 1.387 . S
C1919 C1921 1.387 . S
H1920 C1927 0.950 . S
C1921 C1919 1.387 . S
C1921 C1923 1.390 . S
C1921 H1925 0.950 . S
H1922 C1918 0.950 . S
C1923 C1921 1.390 . S
C1923 C1924 1.387 . S
C1923 H1926 0.950 . S
C1924 C1923 1.387 . S
C1924 C1927 1.387 . S
H1925 C1921 0.950 . S
H1926 C1923 0.950 . S
C1927 C1918 1.390 . S
C1927 H1920 0.950 . S
C1927 C1924 1.387 . S
C1928 C1929 1.387 . S
C1928 H1932 0.950 . S
C1928 C1937 1.390 . S
C1929 C1928 1.387 . S
C1929 C1931 1.387 . S
H1930 C1937 0.950 . S
C1931 C1929 1.387 . S
C1931 C1933 1.390 . S
C1931 H1935 0.950 . S
H1932 C1928 0.950 . S
C1933 C1931 1.390 . S
C1933 C1934 1.387 . S
C1933 H1936 0.950 . S
C1934 C1933 1.387 . S
C1934 C1937 1.387 . S
H1935 C1931 0.950 . S
H1936 C1933 0.950 . S
C1937 C1928 1.390 . S
C1937 H1930 0.950 . S
C1937 C1934 1.387 . S
C1938 C1939 1.387 . S
C1938 H1942 0.950 . S
C1938 C1947 1.390 . S
C1939 C1938 1.387 . S
C1939 C1941 1.387 . S
H1940 C1947 0.950 . S
C1941 C1939 1.387 . S
C1941 C1943 1.390 . S
C1941 H1945 0.950 . S
H1942 C1938 0.950 . S
C1943 C1941 1.390 . S
C1943 C1944 1.387 . S
C1943 H1946 0.950 . S
C1944 C1943 1.387 . S
C1944 C1947 1.387 . S
H1945 C1941 0.950 . S
H1946 C1943 0.950 . S
C1947 C1938 1.390 . S
C1947 H1940 0.950 . S
C1947 C1944 1.387 . S
C1948 C1949 1.387 . S
C1948 H1952 0.950 . S
C1948 C1957 1.390 . S
C1949 C1948 1.387 . S
C1949 C1951 1.387 . S
H1950 C1957 0.950 . S
C1951 C1949 1.387 . S
C1951 C1953 1.390 . S
C1951 H1955 0.950 . S
H1952 C1948 0.950 . S
C1953 C1951 1.390 . S
C1953 C1954 1.387 . S
C1953 H1956 0.950 . S
C1954 C1953 1.387 . S
C1954 C1957 1.387 . S
H1955 C1951 0.950 . S
H1956 C1953 0.950 . S
C1957 C1948 1.390 . S
C1957 H1950 0.950 . S
C1957 C1954 1.387 . S
C1958 C1959 1.387 . S
C1958 H1962 0.950 . S
C1958 C1967 1.390 . S
C1959 C1958 1.387 . S
C1959 C1961 1.387 . S
H1960 C1967 0.950 . S
C1961 C1959 1.387 . S
C1961 C1963 1.390 . S
C1961 H1965 0.950 . S
H1962 C1958 0.950 . S
C1963 C1961 1.390 . S
C1963 C1964 1.387 . S
C1963 H1966 0.950 . S
C1964 C1963 1.387 . S
C1964 C1967 1.387 . S
H1965 C1961 0.950 . S
H1966 C1963 0.950 . S
C1967 C1958 1.390 . S
C1967 H1960 0.950 . S
C1967 C1964 1.387 . S
C1968 C1969 1.387 . S
C1968 H1972 0.950 . S
C1968 C1977 1.390 . S
C1969 C1968 1.387 . S
C1969 C1971 1.387 . S
H1970 C1977 0.950 . S
C1971 C1969 1.387 . S
C1971 C1973 1.390 . S
C1971 H1975 0.950 . S
H1972 C1968 0.950 . S
C1973 C1971 1.390 . S
C1973 C1974 1.387 . S
C1973 H1976 0.950 . S
C1974 C1973 1.387 . S
C1974 C1977 1.387 . S
H1975 C1971 0.950 . S
H1976 C1973 0.950 . S
C1977 C1968 1.390 . S
C1977 H1970 0.950 . S
C1977 C1974 1.387 . S
C1978 C1979 1.387 . S
C1978 H1982 0.950 . S
C1978 C1987 1.390 . S
C1979 C1978 1.387 . S
C1979 C1981 1.387 . S
H1980 C1987 0.950 . S
C1981 C1979 1.387 . S
C1981 C1983 1.390 . S
C1981 H1985 0.950 . S
H1982 C1978 0.950 . S
C1983 C1981 1.390 . S
C1983 C1984 1.387 . S
C1983 H1986 0.950 . S
C1984 C1983 1.387 . S
C1984 C1987 1.387 . S
H1985 C1981 0.950 . S
H1986 C1983 0.950 . S
C1987 C1978 1.390 . S
C1987 H1980 0.950 . S
C1987 C1984 1.387 . S
C1988 C1989 1.387 . S
C1988 H1992 0.950 . S
C1988 C1997 1.390 . S
C1989 C1988 1.387 . S
C1989 C1991 1.387 . S
H1990 C1997 0.950 . S
C1991 C1989 1.387 . S
C1991 C1993 1.390 . S
C1991 H1995 0.950 . S
H1992 C1988 0.950 . S
C1993 C1991 1.390 . S
C1993 C1994 1.387 . S
C1993 H1996 0.950 . S
C1994 C1993 1.387 . S
C1994 C1997 1.387 . S
H1995 C1991 0.950 . S
H1996 C1993 0.950 . S
C1997 C1988 1.390 . S
C1997 H1990 0.950 . S
C1997 C1994 1.387 . S
C1998 C1999 1.387 . S
C1998 H2002 0.950 . S
C1998 C2007 1.390 . S
C1999 C1998 1.387 . S
C1999 C2001 1.387 . S
H2000 C2007 0.950 . S
C2001 C1999 1.387 . S
C2001 C2003 1.390 . S
C2001 H2005 0.950 . S
H2002 C1998 0.950 . S
C2003 C2001 1.390 . S
C2003 C2004 1.387 . S
C2003 H2006 0.950 . S
C2004 C2003 1.387 . S
C2004 C2007 1.387 . S
H2005 C2001 0.950 . S
H2006 C2003 0.950 . S
C2007 C1998 1.390 . S
C2007 H2000 0.950 . S
C2007 C2004 1.387 . S
C2008 C2009 1.387 . S
C2008 H2012 0.950 . S
C2008 C2017 1.390 . S
C2009 C2008 1.387 . S
C2009 C2011 1.387 . S
H2010 C2017 0.950 . S
C2011 C2009 1.387 . S
C2011 C2013 1.390 . S
C2011 H2015 0.950 . S
H2012 C2008 0.950 . S
C2013 C2011 1.390 . S
C2013 C2014 1.387 . S
C2013 H2016 0.950 . S
C2014 C2013 1.387 . S
C2014 C2017 1.387 . S
H2015 C2011 0.950 . S
H2016 C2013 0.950 . S
C2017 C2008 1.390 . S
C2017 H2010 0.950 . S
C2017 C2014 1.387 . S
C2018 C2019 1.387 . S
C2018 H2022 0.950 . S
C2018 C2027 1.390 . S
C2019 C2018 1.387 . S
C2019 C2021 1.387 . S
H2020 C2027 0.950 . S
C2021 C2019 1.387 . S
C2021 C2023 1.390 . S
C2021 H2025 0.950 . S
H2022 C2018 0.950 . S
C2023 C2021 1.390 . S
C2023 C2024 1.387 . S
C2023 H2026 0.950 . S
C2024 C2023 1.387 . S
C2024 C2027 1.387 . S
H2025 C2021 0.950 . S
H2026 C2023 0.950 . S
C2027 C2018 1.390 . S
C2027 H2020 0.950 . S
C2027 C2024 1.387 . S
C2028 C2029 1.387 . S
C2028 H2032 0.950 . S
C2028 C2037 1.390 . S
C2029 C2028 1.387 . S
C2029 C2031 1.387 . S
H2030 C2037 0.950 . S
C2031 C2029 1.387 . S
C2031 C2033 1.390 . S
C2031 H2035 0.950 . S
H2032 C2028 0.950 . S
C2033 C2031 1.390 . S
C2033 C2034 1.387 . S
C2033 H2036 0.950 . S
C2034 C2033 1.387 . S
C2034 C2037 1.387 . S
H2035 C2031 0.950 . S
H2036 C2033 0.950 . S
C2037 C2028 1.390 . S
C2037 H2030 0.950 . S
C2037 C2034 1.387 . S
C2038 C2039 1.387 . S
C2038 H2042 0.950 . S
C2038 C2047 1.390 . S
C2039 C2038 1.387 . S
C2039 C2041 1.387 . S
H2040 C2047 0.950 . S
C2041 C2039 1.387 . S
C2041 C2043 1.390 . S
C2041 H2045 0.950 . S
H2042 C2038 0.950 . S
C2043 C2041 1.390 . S
C2043 C2044 1.387 . S
C2043 H2046 0.950 . S
C2044 C2043 1.387 . S
C2044 C2047 1.387 . S
H2045 C2041 0.950 . S
H2046 C2043 0.950 . S
C2047 C2038 1.390 . S
C2047 H2040 0.950 . S
C2047 C2044 1.387 . S
C2048 C2049 1.387 . S
C2048 H2052 0.950 . S
C2048 C2057 1.390 1_655 S
C2049 C2048 1.387 . S
C2049 C2051 1.387 . S
H2050 C2057 0.950 . S
C2051 C2049 1.387 . S
C2051 C2053 1.390 1_655 S
C2051 H2055 0.950 . S
H2052 C2048 0.950 . S
C2053 C2051 1.390 1_455 S
C2053 C2054 1.387 . S
C2053 H2056 0.950 . S
C2054 C2053 1.387 . S
C2054 C2057 1.387 . S
H2055 C2051 0.950 . S
H2056 C2053 0.950 . S
C2057 C2048 1.390 1_455 S
C2057 H2050 0.950 . S
C2057 C2054 1.387 . S
C2058 C2059 1.387 . S
C2058 H2062 0.950 . S
C2058 C2067 1.390 1_565 S
C2059 C2058 1.387 . S
C2059 C2061 1.387 . S
H2060 C2067 0.950 . S
C2061 C2059 1.387 . S
C2061 C2063 1.390 1_565 S
C2061 H2065 0.950 . S
H2062 C2058 0.950 . S
C2063 C2061 1.390 1_545 S
C2063 C2064 1.387 . S
C2063 H2066 0.950 . S
C2064 C2063 1.387 . S
C2064 C2067 1.387 . S
H2065 C2061 0.950 . S
H2066 C2063 0.950 . S
C2067 C2058 1.390 1_545 S
C2067 H2060 0.950 . S
C2067 C2064 1.387 . S
C2068 C2069 1.387 . S
C2068 H2072 0.950 . S
C2068 C2077 1.390 1_565 S
C2069 C2068 1.387 . S
C2069 C2071 1.387 1_456 S
H2070 C2077 0.950 . S
C2071 C2069 1.387 1_654 S
C2071 C2073 1.390 1_565 S
C2071 H2075 0.950 . S
H2072 C2068 0.950 . S
C2073 C2071 1.390 1_545 S
C2073 C2074 1.387 . S
C2073 H2076 0.950 . S
C2074 C2073 1.387 . S
C2074 C2077 1.387 1_654 S
H2075 C2071 0.950 . S
H2076 C2073 0.950 . S
C2077 C2068 1.390 1_545 S
C2077 H2070 0.950 . S
C2077 C2074 1.387 1_456 S
C2078 C2079 1.387 . S
C2078 H2082 0.950 . S
C2078 C2087 1.390 . S
C2079 C2078 1.387 . S
C2079 C2081 1.387 1_554 S
H2080 C2087 0.950 . S
C2081 C2079 1.387 1_556 S
C2081 C2083 1.390 . S
C2081 H2085 0.950 . S
H2082 C2078 0.950 . S
C2083 C2081 1.390 . S
C2083 C2084 1.387 . S
C2083 H2086 0.950 . S
C2084 C2083 1.387 . S
C2084 C2087 1.387 1_556 S
H2085 C2081 0.950 . S
H2086 C2083 0.950 . S
C2087 C2078 1.390 . S
C2087 H2080 0.950 . S
C2087 C2084 1.387 1_554 S
C2088 C2089 1.387 . S
C2088 H2092 0.950 . S
C2088 C2097 1.390 . S
C2089 C2088 1.387 . S
C2089 C2091 1.387 1_655 S
H2090 C2097 0.950 . S
C2091 C2089 1.387 1_455 S
C2091 C2093 1.390 . S
C2091 H2095 0.950 . S
H2092 C2088 0.950 . S
C2093 C2091 1.390 . S
C2093 C2094 1.387 . S
C2093 H2096 0.950 . S
C2094 C2093 1.387 . S
C2094 C2097 1.387 1_455 S
H2095 C2091 0.950 . S
H2096 C2093 0.950 . S
C2097 C2088 1.390 . S
C2097 H2090 0.950 . S
C2097 C2094 1.387 1_655 S
C2098 C2099 1.387 . S
C2098 H2102 0.950 . S
C2098 C2107 1.390 1_565 S
C2099 C2098 1.387 . S
C2099 C2101 1.387 . S
H2100 C2107 0.950 . S
C2101 C2099 1.387 . S
C2101 C2103 1.390 1_565 S
C2101 H2105 0.950 . S
H2102 C2098 0.950 . S
C2103 C2101 1.390 1_545 S
C2103 C2104 1.387 . S
C2103 H2106 0.950 . S
C2104 C2103 1.387 . S
C2104 C2107 1.387 . S
H2105 C2101 0.950 . S
H2106 C2103 0.950 . S
C2107 C2098 1.390 1_545 S
C2107 H2100 0.950 . S
C2107 C2104 1.387 . S
C2108 C2109 1.387 1_554 S
C2108 H2112 0.950 . S
C2108 C2117 1.390 . S
C2109 C2108 1.387 1_556 S
C2109 C2111 1.387 . S
H2110 C2117 0.950 . S
C2111 C2109 1.387 . S
C2111 C2113 1.390 . S
C2111 H2115 0.950 . S
H2112 C2108 0.950 . S
C2113 C2111 1.390 . S
C2113 C2114 1.387 1_556 S
C2113 H2116 0.950 . S
C2114 C2113 1.387 1_554 S
C2114 C2117 1.387 . S
H2115 C2111 0.950 . S
H2116 C2113 0.950 . S
C2117 C2108 1.390 . S
C2117 H2110 0.950 . S
C2117 C2114 1.387 . S
C2118 C2119 1.387 . S
C2118 H2122 0.950 . S
C2118 C2127 1.390 . S
C2119 C2118 1.387 . S
C2119 C2121 1.387 . S
H2120 C2127 0.950 . S
C2121 C2119 1.387 . S
C2121 C2123 1.390 . S
C2121 H2125 0.950 . S
H2122 C2118 0.950 . S
C2123 C2121 1.390 . S
C2123 C2124 1.387 . S
C2123 H2126 0.950 . S
C2124 C2123 1.387 . S
C2124 C2127 1.387 . S
H2125 C2121 0.950 . S
H2126 C2123 0.950 . S
C2127 C2118 1.390 . S
C2127 H2120 0.950 . S
C2127 C2124 1.387 . S
C2128 C2129 1.387 . S
C2128 H2132 0.950 . S
C2128 C2137 1.390 1_655 S
C2129 C2128 1.387 . S
C2129 C2131 1.387 . S
H2130 C2137 0.950 . S
C2131 C2129 1.387 . S
C2131 C2133 1.390 1_655 S
C2131 H2135 0.950 . S
H2132 C2128 0.950 . S
C2133 C2131 1.390 1_455 S
C2133 C2134 1.387 . S
C2133 H2136 0.950 . S
C2134 C2133 1.387 . S
C2134 C2137 1.387 . S
H2135 C2131 0.950 . S
H2136 C2133 0.950 . S
C2137 C2128 1.390 1_455 S
C2137 H2130 0.950 . S
C2137 C2134 1.387 . S
C2138 C2139 1.387 . S
C2138 H2142 0.950 . S
C2138 C2147 1.390 . S
C2139 C2138 1.387 . S
C2139 C2141 1.387 . S
H2140 C2147 0.950 . S
C2141 C2139 1.387 . S
C2141 C2143 1.390 . S
C2141 H2145 0.950 . S
H2142 C2138 0.950 . S
C2143 C2141 1.390 . S
C2143 C2144 1.387 . S
C2143 H2146 0.950 . S
C2144 C2143 1.387 . S
C2144 C2147 1.387 . S
H2145 C2141 0.950 . S
H2146 C2143 0.950 . S
C2147 C2138 1.390 . S
C2147 H2140 0.950 . S
C2147 C2144 1.387 . S
C2148 C2149 1.387 . S
C2148 H2152 0.950 . S
C2148 C2157 1.390 . S
C2149 C2148 1.387 . S
C2149 C2151 1.387 . S
H2150 C2157 0.950 . S
C2151 C2149 1.387 . S
C2151 C2153 1.390 . S
C2151 H2155 0.950 . S
H2152 C2148 0.950 . S
C2153 C2151 1.390 . S
C2153 C2154 1.387 . S
C2153 H2156 0.950 . S
C2154 C2153 1.387 . S
C2154 C2157 1.387 . S
H2155 C2151 0.950 . S
H2156 C2153 0.950 . S
C2157 C2148 1.390 . S
C2157 H2150 0.950 . S
C2157 C2154 1.387 . S
C2158 C2159 1.387 . S
C2158 H2162 0.950 . S
C2158 C2167 1.390 . S
C2159 C2158 1.387 . S
C2159 C2161 1.387 . S
H2160 C2167 0.950 . S
C2161 C2159 1.387 . S
C2161 C2163 1.390 . S
C2161 H2165 0.950 . S
H2162 C2158 0.950 . S
C2163 C2161 1.390 . S
C2163 C2164 1.387 . S
C2163 H2166 0.950 . S
C2164 C2163 1.387 . S
C2164 C2167 1.387 . S
H2165 C2161 0.950 . S
H2166 C2163 0.950 . S
C2167 C2158 1.390 . S
C2167 H2160 0.950 . S
C2167 C2164 1.387 . S
C2168 C2169 1.387 . S
C2168 H2172 0.950 . S
C2168 C2177 1.390 . S
C2169 C2168 1.387 . S
C2169 C2171 1.387 . S
H2170 C2177 0.950 . S
C2171 C2169 1.387 . S
C2171 C2173 1.390 . S
C2171 H2175 0.950 . S
H2172 C2168 0.950 . S
C2173 C2171 1.390 . S
C2173 C2174 1.387 . S
C2173 H2176 0.950 . S
C2174 C2173 1.387 . S
C2174 C2177 1.387 . S
H2175 C2171 0.950 . S
H2176 C2173 0.950 . S
C2177 C2168 1.390 . S
C2177 H2170 0.950 . S
C2177 C2174 1.387 . S
C2178 C2179 1.387 . S
C2178 H2182 0.950 . S
C2178 C2187 1.390 1_545 S
C2179 C2178 1.387 . S
C2179 C2181 1.387 . S
H2180 C2187 0.950 . S
C2181 C2179 1.387 . S
C2181 C2183 1.390 1_545 S
C2181 H2185 0.950 . S
H2182 C2178 0.950 . S
C2183 C2181 1.390 1_565 S
C2183 C2184 1.387 . S
C2183 H2186 0.950 . S
C2184 C2183 1.387 . S
C2184 C2187 1.387 . S
H2185 C2181 0.950 . S
H2186 C2183 0.950 . S
C2187 C2178 1.390 1_565 S
C2187 H2180 0.950 . S
C2187 C2184 1.387 . S
C2188 C2189 1.387 . S
C2188 H2192 0.950 . S
C2188 C2197 1.390 . S
C2189 C2188 1.387 . S
C2189 C2191 1.387 . S
H2190 C2197 0.950 . S
C2191 C2189 1.387 . S
C2191 C2193 1.390 . S
C2191 H2195 0.950 . S
H2192 C2188 0.950 . S
C2193 C2191 1.390 . S
C2193 C2194 1.387 . S
C2193 H2196 0.950 . S
C2194 C2193 1.387 . S
C2194 C2197 1.387 . S
H2195 C2191 0.950 . S
H2196 C2193 0.950 . S
C2197 C2188 1.390 . S
C2197 H2190 0.950 . S
C2197 C2194 1.387 . S
C2198 C2199 1.387 1_554 S
C2198 H2202 0.950 . S
C2198 C2207 1.390 . S
C2199 C2198 1.387 1_556 S
C2199 C2201 1.387 . S
H2200 C2207 0.950 . S
C2201 C2199 1.387 . S
C2201 C2203 1.390 . S
C2201 H2205 0.950 . S
H2202 C2198 0.950 . S
C2203 C2201 1.390 . S
C2203 C2204 1.387 1_556 S
C2203 H2206 0.950 . S
C2204 C2203 1.387 1_554 S
C2204 C2207 1.387 . S
H2205 C2201 0.950 . S
H2206 C2203 0.950 . S
C2207 C2198 1.390 . S
C2207 H2200 0.950 . S
C2207 C2204 1.387 . S
C2208 C2209 1.387 . S
C2208 H2212 0.950 . S
C2208 C2217 1.390 . S
C2209 C2208 1.387 . S
C2209 C2211 1.387 . S
H2210 C2217 0.950 . S
C2211 C2209 1.387 . S
C2211 C2213 1.390 . S
C2211 H2215 0.950 . S
H2212 C2208 0.950 . S
C2213 C2211 1.390 . S
C2213 C2214 1.387 . S
C2213 H2216 0.950 . S
C2214 C2213 1.387 . S
C2214 C2217 1.387 . S
H2215 C2211 0.950 . S
H2216 C2213 0.950 . S
C2217 C2208 1.390 . S
C2217 H2210 0.950 . S
C2217 C2214 1.387 . S
C2218 C2219 1.387 . S
C2218 H2222 0.950 . S
C2218 C2227 1.390 . S
C2219 C2218 1.387 . S
C2219 C2221 1.387 . S
H2220 C2227 0.950 . S
C2221 C2219 1.387 . S
C2221 C2223 1.390 . S
C2221 H2225 0.950 . S
H2222 C2218 0.950 . S
C2223 C2221 1.390 . S
C2223 C2224 1.387 . S
C2223 H2226 0.950 . S
C2224 C2223 1.387 . S
C2224 C2227 1.387 . S
H2225 C2221 0.950 . S
H2226 C2223 0.950 . S
C2227 C2218 1.390 . S
C2227 H2220 0.950 . S
C2227 C2224 1.387 . S
C2228 C2229 1.387 . S
C2228 H2232 0.950 . S
C2228 C2237 1.390 . S
C2229 C2228 1.387 . S
C2229 C2231 1.387 . S
H2230 C2237 0.950 . S
C2231 C2229 1.387 . S
C2231 C2233 1.390 . S
C2231 H2235 0.950 . S
H2232 C2228 0.950 . S
C2233 C2231 1.390 . S
C2233 C2234 1.387 . S
C2233 H2236 0.950 . S
C2234 C2233 1.387 . S
C2234 C2237 1.387 . S
H2235 C2231 0.950 . S
H2236 C2233 0.950 . S
C2237 C2228 1.390 . S
C2237 H2230 0.950 . S
C2237 C2234 1.387 . S
C2238 C2239 1.387 . S
C2238 H2242 0.950 . S
C2238 C2247 1.390 . S
C2239 C2238 1.387 . S
C2239 C2241 1.387 . S
H2240 C2247 0.950 . S
C2241 C2239 1.387 . S
C2241 C2243 1.390 . S
C2241 H2245 0.950 . S
H2242 C2238 0.950 . S
C2243 C2241 1.390 . S
C2243 C2244 1.387 . S
C2243 H2246 0.950 . S
C2244 C2243 1.387 . S
C2244 C2247 1.387 . S
H2245 C2241 0.950 . S
H2246 C2243 0.950 . S
C2247 C2238 1.390 . S
C2247 H2240 0.950 . S
C2247 C2244 1.387 . S
C2248 C2249 1.387 . S
C2248 H2252 0.950 . S
C2248 C2257 1.390 . S
C2249 C2248 1.387 . S
C2249 C2251 1.387 . S
H2250 C2257 0.950 . S
C2251 C2249 1.387 . S
C2251 C2253 1.390 . S
C2251 H2255 0.950 . S
H2252 C2248 0.950 . S
C2253 C2251 1.390 . S
C2253 C2254 1.387 . S
C2253 H2256 0.950 . S
C2254 C2253 1.387 . S
C2254 C2257 1.387 . S
H2255 C2251 0.950 . S
H2256 C2253 0.950 . S
C2257 C2248 1.390 . S
C2257 H2250 0.950 . S
C2257 C2254 1.387 . S
C2258 C2259 1.387 . S
C2258 H2262 0.950 . S
C2258 C2267 1.390 . S
C2259 C2258 1.387 . S
C2259 C2261 1.387 . S
H2260 C2267 0.950 . S
C2261 C2259 1.387 . S
C2261 C2263 1.390 . S
C2261 H2265 0.950 . S
H2262 C2258 0.950 . S
C2263 C2261 1.390 . S
C2263 C2264 1.387 . S
C2263 H2266 0.950 . S
C2264 C2263 1.387 . S
C2264 C2267 1.387 . S
H2265 C2261 0.950 . S
H2266 C2263 0.950 . S
C2267 C2258 1.390 . S
C2267 H2260 0.950 . S
C2267 C2264 1.387 . S
C2268 C2269 1.387 . S
C2268 H2272 0.950 . S
C2268 C2277 1.390 . S
C2269 C2268 1.387 . S
C2269 C2271 1.387 . S
H2270 C2277 0.950 . S
C2271 C2269 1.387 . S
C2271 C2273 1.390 . S
C2271 H2275 0.950 . S
H2272 C2268 0.950 . S
C2273 C2271 1.390 . S
C2273 C2274 1.387 . S
C2273 H2276 0.950 . S
C2274 C2273 1.387 . S
C2274 C2277 1.387 . S
H2275 C2271 0.950 . S
H2276 C2273 0.950 . S
C2277 C2268 1.390 . S
C2277 H2270 0.950 . S
C2277 C2274 1.387 . S
C2278 C2279 1.387 . S
C2278 H2282 0.950 . S
C2278 C2287 1.390 . S
C2279 C2278 1.387 . S
C2279 C2281 1.387 . S
H2280 C2287 0.950 . S
C2281 C2279 1.387 . S
C2281 C2283 1.390 . S
C2281 H2285 0.950 . S
H2282 C2278 0.950 . S
C2283 C2281 1.390 . S
C2283 C2284 1.387 . S
C2283 H2286 0.950 . S
C2284 C2283 1.387 . S
C2284 C2287 1.387 . S
H2285 C2281 0.950 . S
H2286 C2283 0.950 . S
C2287 C2278 1.390 . S
C2287 H2280 0.950 . S
C2287 C2284 1.387 . S
C2288 C2289 1.387 . S
C2288 H2292 0.950 . S
C2288 C2297 1.390 . S
C2289 C2288 1.387 . S
C2289 C2291 1.387 . S
H2290 C2297 0.950 . S
C2291 C2289 1.387 . S
C2291 C2293 1.390 . S
C2291 H2295 0.950 . S
H2292 C2288 0.950 . S
C2293 C2291 1.390 . S
C2293 C2294 1.387 . S
C2293 H2296 0.950 . S
C2294 C2293 1.387 . S
C2294 C2297 1.387 . S
H2295 C2291 0.950 . S
H2296 C2293 0.950 . S
C2297 C2288 1.390 . S
C2297 H2290 0.950 . S
C2297 C2294 1.387 . S
C2298 C2299 1.387 . S
C2298 H2302 0.950 . S
C2298 C2307 1.390 . S
C2299 C2298 1.387 . S
C2299 C2301 1.387 . S
H2300 C2307 0.950 . S
C2301 C2299 1.387 . S
C2301 C2303 1.390 . S
C2301 H2305 0.950 . S
H2302 C2298 0.950 . S
C2303 C2301 1.390 . S
C2303 C2304 1.387 . S
C2303 H2306 0.950 . S
C2304 C2303 1.387 . S
C2304 C2307 1.387 . S
H2305 C2301 0.950 . S
H2306 C2303 0.950 . S
C2307 C2298 1.390 . S
C2307 H2300 0.950 . S
C2307 C2304 1.387 . S
C2308 C2309 1.387 . S
C2308 H2312 0.950 . S
C2308 C2317 1.390 . S
C2309 C2308 1.387 . S
C2309 C2311 1.387 . S
H2310 C2317 0.950 . S
C2311 C2309 1.387 . S
C2311 C2313 1.390 . S
C2311 H2315 0.950 . S
H2312 C2308 0.950 . S
C2313 C2311 1.390 . S
C2313 C2314 1.387 . S
C2313 H2316 0.950 . S
C2314 C2313 1.387 . S
C2314 C2317 1.387 . S
H2315 C2311 0.950 . S
H2316 C2313 0.950 . S
C2317 C2308 1.390 . S
C2317 H2310 0.950 . S
C2317 C2314 1.387 . S
C2318 C2319 1.387 . S
C2318 H2322 0.950 . S
C2318 C2327 1.390 . S
C2319 C2318 1.387 . S
C2319 C2321 1.387 . S
H2320 C2327 0.950 . S
C2321 C2319 1.387 . S
C2321 C2323 1.390 . S
C2321 H2325 0.950 . S
H2322 C2318 0.950 . S
C2323 C2321 1.390 . S
C2323 C2324 1.387 . S
C2323 H2326 0.950 . S
C2324 C2323 1.387 . S
C2324 C2327 1.387 . S
H2325 C2321 0.950 . S
H2326 C2323 0.950 . S
C2327 C2318 1.390 . S
C2327 H2320 0.950 . S
C2327 C2324 1.387 . S
C2328 C2329 1.387 . S
C2328 H2332 0.950 . S
C2328 C2337 1.390 . S
C2329 C2328 1.387 . S
C2329 C2331 1.387 . S
H2330 C2337 0.950 . S
C2331 C2329 1.387 . S
C2331 C2333 1.390 . S
C2331 H2335 0.950 . S
H2332 C2328 0.950 . S
C2333 C2331 1.390 . S
C2333 C2334 1.387 . S
C2333 H2336 0.950 . S
C2334 C2333 1.387 . S
C2334 C2337 1.387 . S
H2335 C2331 0.950 . S
H2336 C2333 0.950 . S
C2337 C2328 1.390 . S
C2337 H2330 0.950 . S
C2337 C2334 1.387 . S
C2338 C2339 1.387 . S
C2338 H2342 0.950 . S
C2338 C2347 1.390 . S
C2339 C2338 1.387 . S
C2339 C2341 1.387 . S
H2340 C2347 0.950 . S
C2341 C2339 1.387 . S
C2341 C2343 1.390 . S
C2341 H2345 0.950 . S
H2342 C2338 0.950 . S
C2343 C2341 1.390 . S
C2343 C2344 1.387 . S
C2343 H2346 0.950 . S
C2344 C2343 1.387 . S
C2344 C2347 1.387 . S
H2345 C2341 0.950 . S
H2346 C2343 0.950 . S
C2347 C2338 1.390 . S
C2347 H2340 0.950 . S
C2347 C2344 1.387 . S
C2348 C2349 1.387 . S
C2348 H2352 0.950 . S
C2348 C2357 1.390 . S
C2349 C2348 1.387 . S
C2349 C2351 1.387 . S
H2350 C2357 0.950 . S
C2351 C2349 1.387 . S
C2351 C2353 1.390 . S
C2351 H2355 0.950 . S
H2352 C2348 0.950 . S
C2353 C2351 1.390 . S
C2353 C2354 1.387 . S
C2353 H2356 0.950 . S
C2354 C2353 1.387 . S
C2354 C2357 1.387 . S
H2355 C2351 0.950 . S
H2356 C2353 0.950 . S
C2357 C2348 1.390 . S
C2357 H2350 0.950 . S
C2357 C2354 1.387 . S
C2358 C2359 1.387 . S
C2358 H2362 0.950 . S
C2358 C2367 1.390 . S
C2359 C2358 1.387 . S
C2359 C2361 1.387 . S
H2360 C2367 0.950 . S
C2361 C2359 1.387 . S
C2361 C2363 1.390 . S
C2361 H2365 0.950 . S
H2362 C2358 0.950 . S
C2363 C2361 1.390 . S
C2363 C2364 1.387 . S
C2363 H2366 0.950 . S
C2364 C2363 1.387 . S
C2364 C2367 1.387 . S
H2365 C2361 0.950 . S
H2366 C2363 0.950 . S
C2367 C2358 1.390 . S
C2367 H2360 0.950 . S
C2367 C2364 1.387 . S
C2368 C2369 1.387 . S
C2368 H2372 0.950 . S
C2368 C2377 1.390 . S
C2369 C2368 1.387 . S
C2369 C2371 1.387 . S
H2370 C2377 0.950 . S
C2371 C2369 1.387 . S
C2371 C2373 1.390 . S
C2371 H2375 0.950 . S
H2372 C2368 0.950 . S
C2373 C2371 1.390 . S
C2373 C2374 1.387 . S
C2373 H2376 0.950 . S
C2374 C2373 1.387 . S
C2374 C2377 1.387 . S
H2375 C2371 0.950 . S
H2376 C2373 0.950 . S
C2377 C2368 1.390 . S
C2377 H2370 0.950 . S
C2377 C2374 1.387 . S
C2378 C2379 1.387 . S
C2378 H2382 0.950 . S
C2378 C2387 1.390 . S
C2379 C2378 1.387 . S
C2379 C2381 1.387 . S
H2380 C2387 0.950 . S
C2381 C2379 1.387 . S
C2381 C2383 1.390 . S
C2381 H2385 0.950 . S
H2382 C2378 0.950 . S
C2383 C2381 1.390 . S
C2383 C2384 1.387 . S
C2383 H2386 0.950 . S
C2384 C2383 1.387 . S
C2384 C2387 1.387 . S
H2385 C2381 0.950 . S
H2386 C2383 0.950 . S
C2387 C2378 1.390 . S
C2387 H2380 0.950 . S
C2387 C2384 1.387 . S
C2388 C2389 1.387 1_554 S
C2388 H2392 0.950 . S
C2388 C2397 1.390 . S
C2389 C2388 1.387 1_556 S
C2389 C2391 1.387 . S
H2390 C2397 0.950 . S
C2391 C2389 1.387 . S
C2391 C2393 1.390 . S
C2391 H2395 0.950 . S
H2392 C2388 0.950 . S
C2393 C2391 1.390 . S
C2393 C2394 1.387 . S
C2393 H2396 0.950 . S
C2394 C2393 1.387 . S
C2394 C2397 1.387 1_556 S
H2395 C2391 0.950 . S
H2396 C2393 0.950 . S
C2397 C2388 1.390 . S
C2397 H2390 0.950 . S
C2397 C2394 1.387 1_554 S
C2398 C2399 1.387 1_554 S
C2398 H2402 0.950 . S
C2398 C2407 1.390 . S
C2399 C2398 1.387 1_556 S
C2399 C2401 1.387 . S
H2400 C2407 0.950 . S
C2401 C2399 1.387 . S
C2401 C2403 1.390 . S
C2401 H2405 0.950 . S
H2402 C2398 0.950 . S
C2403 C2401 1.390 . S
C2403 C2404 1.387 . S
C2403 H2406 0.950 . S
C2404 C2403 1.387 . S
C2404 C2407 1.387 1_556 S
H2405 C2401 0.950 . S
H2406 C2403 0.950 . S
C2407 C2398 1.390 . S
C2407 H2400 0.950 . S
C2407 C2404 1.387 1_554 S
C2408 C2409 1.387 . S
C2408 H2412 0.950 . S
C2408 C2417 1.390 . S
C2409 C2408 1.387 . S
C2409 C2411 1.387 . S
H2410 C2417 0.950 . S
C2411 C2409 1.387 . S
C2411 C2413 1.390 . S
C2411 H2415 0.950 . S
H2412 C2408 0.950 . S
C2413 C2411 1.390 . S
C2413 C2414 1.387 . S
C2413 H2416 0.950 . S
C2414 C2413 1.387 . S
C2414 C2417 1.387 . S
H2415 C2411 0.950 . S
H2416 C2413 0.950 . S
C2417 C2408 1.390 . S
C2417 H2410 0.950 . S
C2417 C2414 1.387 . S
C2418 C2419 1.387 . S
C2418 H2422 0.950 . S
C2418 C2427 1.390 . S
C2419 C2418 1.387 . S
C2419 C2421 1.387 . S
H2420 C2427 0.950 . S
C2421 C2419 1.387 . S
C2421 C2423 1.390 . S
C2421 H2425 0.950 . S
H2422 C2418 0.950 . S
C2423 C2421 1.390 . S
C2423 C2424 1.387 . S
C2423 H2426 0.950 . S
C2424 C2423 1.387 . S
C2424 C2427 1.387 . S
H2425 C2421 0.950 . S
H2426 C2423 0.950 . S
C2427 C2418 1.390 . S
C2427 H2420 0.950 . S
C2427 C2424 1.387 . S
C2428 C2429 1.387 1_556 S
C2428 H2432 0.950 . S
C2428 C2437 1.390 . S
C2429 C2428 1.387 1_554 S
C2429 C2431 1.387 . S
H2430 C2437 0.950 . S
C2431 C2429 1.387 . S
C2431 C2433 1.390 . S
C2431 H2435 0.950 . S
H2432 C2428 0.950 . S
C2433 C2431 1.390 . S
C2433 C2434 1.387 . S
C2433 H2436 0.950 . S
C2434 C2433 1.387 . S
C2434 C2437 1.387 1_554 S
H2435 C2431 0.950 . S
H2436 C2433 0.950 . S
C2437 C2428 1.390 . S
C2437 H2430 0.950 . S
C2437 C2434 1.387 1_556 S
C2438 C2439 1.387 1_556 S
C2438 H2442 0.950 . S
C2438 C2447 1.390 . S
C2439 C2438 1.387 1_554 S
C2439 C2441 1.387 . S
H2440 C2447 0.950 . S
C2441 C2439 1.387 . S
C2441 C2443 1.390 . S
C2441 H2445 0.950 . S
H2442 C2438 0.950 . S
C2443 C2441 1.390 . S
C2443 C2444 1.387 . S
C2443 H2446 0.950 . S
C2444 C2443 1.387 . S
C2444 C2447 1.387 1_554 S
H2445 C2441 0.950 . S
H2446 C2443 0.950 . S
C2447 C2438 1.390 . S
C2447 H2440 0.950 . S
C2447 C2444 1.387 1_556 S
C2448 C2449 1.387 . S
C2448 H2452 0.950 . S
C2448 C2457 1.390 . S
C2449 C2448 1.387 . S
C2449 C2451 1.387 . S
H2450 C2457 0.950 . S
C2451 C2449 1.387 . S
C2451 C2453 1.390 . S
C2451 H2455 0.950 . S
H2452 C2448 0.950 . S
C2453 C2451 1.390 . S
C2453 C2454 1.387 . S
C2453 H2456 0.950 . S
C2454 C2453 1.387 . S
C2454 C2457 1.387 . S
H2455 C2451 0.950 . S
H2456 C2453 0.950 . S
C2457 C2448 1.390 . S
C2457 H2450 0.950 . S
C2457 C2454 1.387 . S
C2458 C2459 1.387 . S
C2458 H2462 0.950 . S
C2458 C2467 1.390 . S
C2459 C2458 1.387 . S
C2459 C2461 1.387 . S
H2460 C2467 0.950 . S
C2461 C2459 1.387 . S
C2461 C2463 1.390 . S
C2461 H2465 0.950 . S
H2462 C2458 0.950 . S
C2463 C2461 1.390 . S
C2463 C2464 1.387 . S
C2463 H2466 0.950 . S
C2464 C2463 1.387 . S
C2464 C2467 1.387 . S
H2465 C2461 0.950 . S
H2466 C2463 0.950 . S
C2467 C2458 1.390 . S
C2467 H2460 0.950 . S
C2467 C2464 1.387 . S
C2468 C2469 1.387 . S
C2468 H2472 0.950 . S
C2468 C2477 1.390 . S
C2469 C2468 1.387 . S
C2469 C2471 1.387 . S
H2470 C2477 0.950 . S
C2471 C2469 1.387 . S
C2471 C2473 1.390 . S
C2471 H2475 0.950 . S
H2472 C2468 0.950 . S
C2473 C2471 1.390 . S
C2473 C2474 1.387 . S
C2473 H2476 0.950 . S
C2474 C2473 1.387 . S
C2474 C2477 1.387 . S
H2475 C2471 0.950 . S
H2476 C2473 0.950 . S
C2477 C2468 1.390 . S
C2477 H2470 0.950 . S
C2477 C2474 1.387 . S
C2478 C2479 1.387 . S
C2478 H2482 0.950 . S
C2478 C2487 1.390 . S
C2479 C2478 1.387 . S
C2479 C2481 1.387 . S
H2480 C2487 0.950 . S
C2481 C2479 1.387 . S
C2481 C2483 1.390 . S
C2481 H2485 0.950 . S
H2482 C2478 0.950 . S
C2483 C2481 1.390 . S
C2483 C2484 1.387 . S
C2483 H2486 0.950 . S
C2484 C2483 1.387 . S
C2484 C2487 1.387 . S
H2485 C2481 0.950 . S
H2486 C2483 0.950 . S
C2487 C2478 1.390 . S
C2487 H2480 0.950 . S
C2487 C2484 1.387 . S
C2488 C2489 1.387 . S
C2488 H2492 0.950 . S
C2488 C2497 1.390 . S
C2489 C2488 1.387 . S
C2489 C2491 1.387 . S
H2490 C2497 0.950 . S
C2491 C2489 1.387 . S
C2491 C2493 1.390 . S
C2491 H2495 0.950 . S
H2492 C2488 0.950 . S
C2493 C2491 1.390 . S
C2493 C2494 1.387 . S
C2493 H2496 0.950 . S
C2494 C2493 1.387 . S
C2494 C2497 1.387 . S
H2495 C2491 0.950 . S
H2496 C2493 0.950 . S
C2497 C2488 1.390 . S
C2497 H2490 0.950 . S
C2497 C2494 1.387 . S
C2498 C2499 1.387 . S
C2498 H2502 0.950 . S
C2498 C2507 1.390 . S
C2499 C2498 1.387 . S
C2499 C2501 1.387 . S
H2500 C2507 0.950 . S
C2501 C2499 1.387 . S
C2501 C2503 1.390 . S
C2501 H2505 0.950 . S
H2502 C2498 0.950 . S
C2503 C2501 1.390 . S
C2503 C2504 1.387 . S
C2503 H2506 0.950 . S
C2504 C2503 1.387 . S
C2504 C2507 1.387 . S
H2505 C2501 0.950 . S
H2506 C2503 0.950 . S
C2507 C2498 1.390 . S
C2507 H2500 0.950 . S
C2507 C2504 1.387 . S
C2508 C2509 1.387 . S
C2508 H2512 0.950 . S
C2508 C2517 1.390 . S
C2509 C2508 1.387 . S
C2509 C2511 1.387 . S
H2510 C2517 0.950 . S
C2511 C2509 1.387 . S
C2511 C2513 1.390 . S
C2511 H2515 0.950 . S
H2512 C2508 0.950 . S
C2513 C2511 1.390 . S
C2513 C2514 1.387 . S
C2513 H2516 0.950 . S
C2514 C2513 1.387 . S
C2514 C2517 1.387 . S
H2515 C2511 0.950 . S
H2516 C2513 0.950 . S
C2517 C2508 1.390 . S
C2517 H2510 0.950 . S
C2517 C2514 1.387 . S
C2518 C2519 1.387 . S
C2518 H2522 0.950 . S
C2518 C2527 1.390 . S
C2519 C2518 1.387 . S
C2519 C2521 1.387 . S
H2520 C2527 0.950 . S
C2521 C2519 1.387 . S
C2521 C2523 1.390 . S
C2521 H2525 0.950 . S
H2522 C2518 0.950 . S
C2523 C2521 1.390 . S
C2523 C2524 1.387 . S
C2523 H2526 0.950 . S
C2524 C2523 1.387 . S
C2524 C2527 1.387 . S
H2525 C2521 0.950 . S
H2526 C2523 0.950 . S
C2527 C2518 1.390 . S
C2527 H2520 0.950 . S
C2527 C2524 1.387 . S
C1889 C3 1.174 . S
C1894 C180 1.174 . S
C1899 C121 1.174 . S
C1904 C62 1.174 . S
C1909 C239 1.174 . S
C1914 C416 1.174 . S
C1919 C357 1.170 . S
C1924 C298 1.170 . S
C1929 C475 1.174 . S
C1934 C652 1.174 . S
C1939 C593 1.170 . S
C1944 C534 1.170 . S
C1949 C711 1.170 . S
C1954 C888 1.170 . S
C1959 C770 1.170 . S
C1964 C829 1.170 . S
C1969 C1124 1.170 . S
C1974 C947 1.170 . S
C1979 C1006 1.174 . S
C1984 C1065 1.174 . S
C1989 C1183 1.170 . S
C1994 C1360 1.170 . S
C1999 C1301 1.174 . S
C2004 C1242 1.174 . S
C2009 C1419 1.170 . S
C2014 C1596 1.170 . S
C2019 C1537 1.174 . S
C2024 C1478 1.174 . S
C2029 C1655 1.174 . S
C2034 C1832 1.174 . S
C2039 C1714 1.174 . S
C2044 C1773 1.174 . S
C2049 C713 1.610 . S
C2054 C5 1.610 . S
C2059 C64 1.609 . S
C2064 C1244 1.609 . S
C2069 C123 1.609 . S
C2074 C359 1.609 . S
C2079 C1834 1.610 . S
C2084 C182 1.610 . S
C2089 C241 1.610 . S
C2094 C477 1.610 . S
C2099 C1008 1.609 . S
C2104 C300 1.609 . S
C2109 C1598 1.610 . S
C2114 C418 1.610 . S
C2119 C1716 1.610 . S
C2124 C536 1.610 . S
C2129 C831 1.609 . S
C2134 C595 1.609 . S
C2139 C1362 1.609 . S
C2144 C654 1.609 . S
C2149 C772 1.609 . S
C2154 C1480 1.609 . S
C2159 C1126 1.609 . S
C2164 C890 1.609 . S
C2169 C1657 1.609 . S
C2174 C949 1.609 . S
C2179 C1303 1.610 . S
C2184 C1067 1.610 . S
C2189 C1421 1.610 . S
C2194 C1185 1.610 . S
C2199 C1539 1.610 . S
C2204 C1775 1.610 . S
C2209 C623 1.669 . S
C2214 C33 1.669 . S
C2219 C92 1.669 . S
C2224 C682 1.669 . S
C2229 C505 1.669 . S
C2234 C151 1.669 . S
C2239 C564 1.666 . S
C2244 C210 1.666 . S
C2249 C269 1.666 . S
C2254 C859 1.666 . S
C2259 C328 1.669 . S
C2264 C918 1.669 . S
C2269 C741 1.669 . S
C2274 C387 1.669 . S
C2279 C446 1.666 . S
C2284 C800 1.666 . S
C2289 C1567 1.669 . S
C2294 C977 1.669 . S
C2299 C1626 1.666 . S
C2304 C1036 1.666 . S
C2309 C1095 1.669 . S
C2314 C1449 1.669 . S
C2319 C1154 1.666 . S
C2324 C1508 1.666 . S
C2329 C1213 1.669 . S
C2334 C1803 1.669 . S
C2339 C1272 1.666 . S
C2344 C1862 1.666 . S
C2349 C1685 1.666 . S
C2354 C1331 1.666 . S
C2359 C1744 1.666 . S
C2364 C1390 1.666 . S
C2369 C52 1.642 . S
C2374 C1527 1.642 . S
C2379 C1468 1.640 . S
C2384 C111 1.640 1_655 S
C2389 C170 1.640 . S
C2394 C1645 1.640 . S
C2399 C229 1.640 1_655 S
C2404 C1586 1.640 . S
C2409 C288 1.640 . S
C2414 C1763 1.640 . S
C2419 C347 1.642 1_455 S
C2424 C1704 1.642 . S
C2429 C1881 1.642 . S
C2434 C406 1.642 . S
C2439 C1822 1.642 . S
C2444 C465 1.642 1_455 S
C2449 C1055 1.640 . S
C2454 C524 1.640 . S
C2459 C996 1.640 . S
C2464 C583 1.640 1_655 S
C2469 C642 1.642 . S
C2474 C1173 1.642 . S
C2479 C701 1.640 1_655 S
C2484 C1114 1.640 . S
C2489 C1291 1.640 . S
C2494 C760 1.640 . S
C2499 C819 1.640 1_455 S
C2504 C1232 1.640 . S
C2509 C878 1.640 . S
C2514 C1409 1.640 . S
C2519 C937 1.640 1_455 S
C2524 C1350 1.640 . S
