# Generated by pormake.
# Topology wiv, (6)-cn, num edge types: 1
# Building blocks:
#     Node 0, Type 0, BuildingBlock: BETFEN_clean_sbu_0, # of connection points: 6
#     Node 1, Type 0, BuildingBlock: BETFEN_clean_sbu_0, # of connection points: 6
#     Node 2, Type 0, BuildingBlock: BETFEN_clean_sbu_0, # of connection points: 6
#     Node 3, Type 0, BuildingBlock: BETFEN_clean_sbu_0, # of connection points: 6
#     Node 4, Type 0, BuildingBlock: BETFEN_clean_sbu_0, # of connection points: 6
#     Node 5, Type 0, BuildingBlock: BETFEN_clean_sbu_0, # of connection points: 6
#     Node 6, Type 0, BuildingBlock: BETFEN_clean_sbu_0, # of connection points: 6
#     Node 7, Type 0, BuildingBlock: BETFEN_clean_sbu_0, # of connection points: 6
#     Node 8, Type 0, BuildingBlock: BETFEN_clean_sbu_0, # of connection points: 6
#     Node 9, Type 0, BuildingBlock: BETFEN_clean_sbu_0, # of connection points: 6
#     Node 10, Type 0, BuildingBlock: BETFEN_clean_sbu_0, # of connection points: 6
#     Node 11, Type 0, BuildingBlock: BETFEN_clean_sbu_0, # of connection points: 6
#     Node 12, Type 0, BuildingBlock: BETFEN_clean_sbu_0, # of connection points: 6
#     Node 13, Type 0, BuildingBlock: BETFEN_clean_sbu_0, # of connection points: 6
#     Node 14, Type 0, BuildingBlock: BETFEN_clean_sbu_0, # of connection points: 6
#     Node 15, Type 0, BuildingBlock: BETFEN_clean_sbu_0, # of connection points: 6
#     Edge 16, Type (0, 0), BuildingBlock: CIFDUS_clean_linker_0, # of connection points: 2
#     Edge 17, Type (0, 0), BuildingBlock: CIFDUS_clean_linker_0, # of connection points: 2
#     Edge 18, Type (0, 0), BuildingBlock: CIFDUS_clean_linker_0, # of connection points: 2
#     Edge 19, Type (0, 0), BuildingBlock: CIFDUS_clean_linker_0, # of connection points: 2
#     Edge 20, Type (0, 0), BuildingBlock: CIFDUS_clean_linker_0, # of connection points: 2
#     Edge 21, Type (0, 0), BuildingBlock: CIFDUS_clean_linker_0, # of connection points: 2
#     Edge 22, Type (0, 0), BuildingBlock: CIFDUS_clean_linker_0, # of connection points: 2
#     Edge 23, Type (0, 0), BuildingBlock: CIFDUS_clean_linker_0, # of connection points: 2
#     Edge 24, Type (0, 0), BuildingBlock: CIFDUS_clean_linker_0, # of connection points: 2
#     Edge 25, Type (0, 0), BuildingBlock: CIFDUS_clean_linker_0, # of connection points: 2
#     Edge 26, Type (0, 0), BuildingBlock: CIFDUS_clean_linker_0, # of connection points: 2
#     Edge 27, Type (0, 0), BuildingBlock: CIFDUS_clean_linker_0, # of connection points: 2
#     Edge 28, Type (0, 0), BuildingBlock: CIFDUS_clean_linker_0, # of connection points: 2
#     Edge 29, Type (0, 0), BuildingBlock: CIFDUS_clean_linker_0, # of connection points: 2
#     Edge 30, Type (0, 0), BuildingBlock: CIFDUS_clean_linker_0, # of connection points: 2
#     Edge 31, Type (0, 0), BuildingBlock: CIFDUS_clean_linker_0, # of connection points: 2
#     Edge 32, Type (0, 0), BuildingBlock: CIFDUS_clean_linker_0, # of connection points: 2
#     Edge 33, Type (0, 0), BuildingBlock: CIFDUS_clean_linker_0, # of connection points: 2
#     Edge 34, Type (0, 0), BuildingBlock: CIFDUS_clean_linker_0, # of connection points: 2
#     Edge 35, Type (0, 0), BuildingBlock: CIFDUS_clean_linker_0, # of connection points: 2
#     Edge 36, Type (0, 0), BuildingBlock: CIFDUS_clean_linker_0, # of connection points: 2
#     Edge 37, Type (0, 0), BuildingBlock: CIFDUS_clean_linker_0, # of connection points: 2
#     Edge 38, Type (0, 0), BuildingBlock: CIFDUS_clean_linker_0, # of connection points: 2
#     Edge 39, Type (0, 0), BuildingBlock: CIFDUS_clean_linker_0, # of connection points: 2
#     Edge 40, Type (0, 0), BuildingBlock: CIFDUS_clean_linker_0, # of connection points: 2
#     Edge 41, Type (0, 0), BuildingBlock: CIFDUS_clean_linker_0, # of connection points: 2
#     Edge 42, Type (0, 0), BuildingBlock: CIFDUS_clean_linker_0, # of connection points: 2
#     Edge 43, Type (0, 0), BuildingBlock: CIFDUS_clean_linker_0, # of connection points: 2
#     Edge 44, Type (0, 0), BuildingBlock: CIFDUS_clean_linker_0, # of connection points: 2
#     Edge 45, Type (0, 0), BuildingBlock: CIFDUS_clean_linker_0, # of connection points: 2
#     Edge 46, Type (0, 0), BuildingBlock: CIFDUS_clean_linker_0, # of connection points: 2
#     Edge 47, Type (0, 0), BuildingBlock: CIFDUS_clean_linker_0, # of connection points: 2
#     Edge 48, Type (0, 0), BuildingBlock: CIFDUS_clean_linker_0, # of connection points: 2
#     Edge 49, Type (0, 0), BuildingBlock: CIFDUS_clean_linker_0, # of connection points: 2
#     Edge 50, Type (0, 0), BuildingBlock: CIFDUS_clean_linker_0, # of connection points: 2
#     Edge 51, Type (0, 0), BuildingBlock: CIFDUS_clean_linker_0, # of connection points: 2
#     Edge 52, Type (0, 0), BuildingBlock: CIFDUS_clean_linker_0, # of connection points: 2
#     Edge 53, Type (0, 0), BuildingBlock: CIFDUS_clean_linker_0, # of connection points: 2
#     Edge 54, Type (0, 0), BuildingBlock: CIFDUS_clean_linker_0, # of connection points: 2
#     Edge 55, Type (0, 0), BuildingBlock: CIFDUS_clean_linker_0, # of connection points: 2
#     Edge 56, Type (0, 0), BuildingBlock: CIFDUS_clean_linker_0, # of connection points: 2
#     Edge 57, Type (0, 0), BuildingBlock: CIFDUS_clean_linker_0, # of connection points: 2
#     Edge 58, Type (0, 0), BuildingBlock: CIFDUS_clean_linker_0, # of connection points: 2
#     Edge 59, Type (0, 0), BuildingBlock: CIFDUS_clean_linker_0, # of connection points: 2
#     Edge 60, Type (0, 0), BuildingBlock: CIFDUS_clean_linker_0, # of connection points: 2
#     Edge 61, Type (0, 0), BuildingBlock: CIFDUS_clean_linker_0, # of connection points: 2
#     Edge 62, Type (0, 0), BuildingBlock: CIFDUS_clean_linker_0, # of connection points: 2
#     Edge 63, Type (0, 0), BuildingBlock: CIFDUS_clean_linker_0, # of connection points: 2
# Relax obj value: 0.147
# Max RMSD: 0.195
# Mean RMSD: 0.195
data_MOF--net-wiv--node1-BETFEN_clean_sbu_0--edge1-CIFDUS_clean_linker_0
_symmetry_space_group_name_H-M    P1
_symmetry_Int_Tables_number       1
_symmetry_cell_setting            triclinic
loop_
_symmetry_equiv_pos_as_xyz
'x, y, z'
_cell_length_a     44.160524
_cell_length_b     44.011262
_cell_length_c     22.955854
_cell_angle_alpha  90.089643
_cell_angle_beta   90.073547
_cell_angle_gamma 89.957391
loop_
_atom_site_label
_atom_site_type_symbol
_atom_site_fract_x
_atom_site_fract_y
_atom_site_fract_z
_atom_type_partial_charge
Pr0 Pr 0.32661 0.10801 0.18662 0.0
Pr1 Pr 0.37148 0.10758 0.0928 0.0
C2 C 0.29779 0.1024 0.2898 0.0
C3 C 0.30727 0.1043 0.35169 0.0
C4 C 0.2902 0.12135 0.39165 0.0
C5 C 0.298 0.12186 0.45094 0.0
C6 C 0.32321 0.10539 0.47129 0.0
C7 C 0.34122 0.08976 0.43047 0.0
C8 C 0.33336 0.0892 0.37146 0.0
C9 C 0.33649 0.16606 0.14148 0.0
C10 C 0.40122 0.11779 0.21732 0.0
C11 C 0.39795 0.10968 0.98725 0.0
C12 C 0.38601 0.11261 0.92728 0.0
C13 C 0.3993 0.09587 0.88208 0.0
C14 C 0.3878 0.09761 0.82534 0.0
C15 C 0.36255 0.11603 0.81248 0.0
C16 C 0.34891 0.13238 0.85826 0.0
C17 C 0.3605 0.13067 0.91503 0.0
C18 C 0.36653 0.05186 0.15065 0.0
C19 C 0.29982 0.10401 0.05585 0.0
O20 O 0.30778 0.07922 0.25973 0.0
O21 O 0.29816 0.12767 0.26021 0.0
O22 O 0.35691 0.14691 0.15304 0.0
O23 O 0.30975 0.15453 0.14962 0.0
O24 O 0.40588 0.12464 0.16221 0.0
O25 O 0.37466 0.10701 0.23471 0.0
O26 O 0.39569 0.13344 1.02137 0.0
O27 O 0.39147 0.08426 1.01366 0.0
O28 O 0.34419 0.06779 0.13416 0.0
O29 O 0.39206 0.06423 0.13593 0.0
O30 O 0.29445 0.09311 0.10852 0.0
O31 O 0.32565 0.11751 0.04537 0.0
H32 H 0.27056 0.13392 0.37701 0.0
H33 H 0.28372 0.13428 0.48104 0.0
H34 H 0.36128 0.07755 0.44429 0.0
H35 H 0.34752 0.07656 0.34147 0.0
H36 H 0.4187 0.08146 0.89064 0.0
H37 H 0.39917 0.08495 0.79131 0.0
H38 H 0.32919 0.14641 0.85033 0.0
H39 H 0.34949 0.14348 0.94929 0.0
Pr40 Pr 0.10355 0.63406 0.97016 0.0
Pr41 Pr 0.10545 0.68408 0.86783 0.0
C42 C 0.10606 0.60725 0.07503 0.0
C43 C 0.10595 0.61858 0.13617 0.0
C44 C 0.07843 0.62212 0.1662 0.0
C45 C 0.07808 0.6316 0.22429 0.0
C46 C 0.10523 0.6376 0.25424 0.0
C47 C 0.13272 0.63532 0.22372 0.0
C48 C 0.13309 0.6258 0.16535 0.0
C49 C 0.05138 0.63927 0.90281 0.0
C50 C 0.09968 0.70849 1.00451 0.0
C51 C 0.09124 0.7132 0.76845 0.0
C52 C 0.09779 0.70781 0.70575 0.0
C53 C 0.12712 0.71077 0.68237 0.0
C54 C 0.13275 0.70372 0.62364 0.0
C55 C 0.10921 0.69349 0.58709 0.0
C56 C 0.07988 0.69109 0.6106 0.0
C57 C 0.07429 0.69812 0.66895 0.0
C58 C 0.16447 0.67144 0.90256 0.0
C59 C 0.12301 0.6095 0.84264 0.0
O60 O 0.13031 0.61229 0.04355 0.0
O61 O 0.08085 0.61056 0.04561 0.0
O62 O 0.06736 0.6615 0.92008 0.0
O63 O 0.06148 0.61352 0.92248 0.0
O64 O 0.09706 0.71684 0.94898 0.0
O65 O 0.10386 0.68 1.01965 0.0
O66 O 0.07338 0.69339 0.79331 0.0
O67 O 0.11353 0.72193 0.80234 0.0
O68 O 0.14078 0.65983 0.92346 0.0
O69 O 0.15794 0.69101 0.86232 0.0
O70 O 0.12518 0.60376 0.89903 0.0
O71 O 0.11306 0.636 0.82211 0.0
H72 H 0.05704 0.61712 0.14512 0.0
H73 H 0.05647 0.63373 0.2462 0.0
H74 H 0.15401 0.63976 0.24557 0.0
H75 H 0.15469 0.62356 0.14347 0.0
H76 H 0.14583 0.7181 0.70951 0.0
H77 H 0.15565 0.7057 0.60725 0.0
H78 H 0.061 0.68396 0.58375 0.0
H79 H 0.05146 0.69568 0.68554 0.0
Pr80 Pr 0.68234 0.89802 0.19012 0.0
Pr81 Pr 0.62949 0.90168 0.09131 0.0
C82 C 0.71461 0.90607 0.28934 0.0
C83 C 0.70749 0.90287 0.35285 0.0
C84 C 0.71086 0.87473 0.38136 0.0
C85 C 0.70353 0.87147 0.44055 0.0
C86 C 0.69283 0.89632 0.47347 0.0
C87 C 0.68972 0.92452 0.44491 0.0
C88 C 0.69692 0.92773 0.38564 0.0
C89 C 0.66604 0.83945 0.15595 0.0
C90 C 0.60733 0.88731 0.22158 0.0
C91 C 0.60291 0.89774 0.98608 0.0
C92 C 0.61462 0.89899 0.92498 0.0
C93 C 0.61806 0.92706 0.89645 0.0
C94 C 0.62809 0.92841 0.83865 0.0
C95 C 0.63493 0.90176 0.8073 0.0
C96 C 0.63261 0.87372 0.83637 0.0
C97 C 0.62245 0.87234 0.89437 0.0
C98 C 0.63685 0.95385 0.15863 0.0
C99 C 0.70323 0.90182 0.05063 0.0
O100 O 0.70239 0.92861 0.26068 0.0
O101 O 0.71534 0.88113 0.2585 0.0
O102 O 0.65518 0.86385 0.13634 0.0
O103 O 0.6867 0.84509 0.19431 0.0
O104 O 0.60073 0.88147 0.16642 0.0
O105 O 0.63432 0.89784 0.23825 0.0
O106 O 0.60958 0.8737 1.0173 0.0
O107 O 0.60393 0.923 1.01632 0.0
O108 O 0.65859 0.93711 0.14097 0.0
O109 O 0.61104 0.94542 0.13654 0.0
O110 O 0.71389 0.90252 0.10512 0.0
O111 O 0.67411 0.90203 0.03928 0.0
H112 H 0.71905 0.85502 0.35785 0.0
H113 H 0.70595 0.84926 0.46023 0.0
H114 H 0.68213 0.94441 0.46851 0.0
H115 H 0.69422 0.94981 0.36552 0.0
H116 H 0.61264 0.94814 0.91852 0.0
H117 H 0.63017 0.95047 0.81818 0.0
H118 H 0.63761 0.85272 0.81366 0.0
H119 H 0.62032 0.85031 0.91493 0.0
Pr120 Pr 0.90471 0.37614 0.97771 0.0
Pr121 Pr 0.90058 0.33212 0.87383 0.0
C122 C 0.90584 0.40196 0.08364 0.0
C123 C 0.90369 0.3896 0.14334 0.0
C124 C 0.92966 0.3892 0.17863 0.0
C125 C 0.92898 0.37566 0.23347 0.0
C126 C 0.90221 0.36249 0.25463 0.0
C127 C 0.87603 0.36319 0.21982 0.0
C128 C 0.8768 0.37647 0.16445 0.0
C129 C 0.95799 0.36856 0.91363 0.0
C130 C 0.90132 0.3024 1.00735 0.0
C131 C 0.91606 0.30625 0.77191 0.0
C132 C 0.90814 0.31019 0.70973 0.0
C133 C 0.87871 0.30524 0.68802 0.0
C134 C 0.87197 0.31129 0.62937 0.0
C135 C 0.89457 0.32221 0.59169 0.0
C136 C 0.92381 0.32719 0.61378 0.0
C137 C 0.93053 0.32112 0.67188 0.0
C138 C 0.84147 0.34248 0.90586 0.0
C139 C 0.88517 0.40798 0.85747 0.0
O140 O 0.88141 0.40137 0.05121 0.0
O141 O 0.93035 0.39459 0.05504 0.0
O142 O 0.9406 0.34726 0.92921 0.0
O143 O 0.94781 0.39478 0.93076 0.0
O144 O 0.90585 0.29575 0.95134 0.0
O145 O 0.89769 0.33045 1.02513 0.0
O146 O 0.93051 0.32917 0.79515 0.0
O147 O 0.89611 0.29401 0.8071 0.0
O148 O 0.86394 0.35447 0.93146 0.0
O149 O 0.84925 0.32431 0.86411 0.0
O150 O 0.88394 0.41075 0.91445 0.0
O151 O 0.89378 0.38201 0.83253 0.0
H152 H 0.9507 0.39904 0.16343 0.0
H153 H 0.94941 0.37575 0.25966 0.0
H154 H 0.85517 0.35301 0.23501 0.0
H155 H 0.85645 0.37609 0.13807 0.0
H156 H 0.86091 0.29703 0.71629 0.0
H157 H 0.84925 0.30719 0.61336 0.0
H158 H 0.94154 0.33618 0.58614 0.0
H159 H 0.95328 0.32547 0.68758 0.0
Pr160 Pr 0.32698 0.4049 0.12735 0.0
Pr161 Pr 0.37091 0.40175 0.2211 0.0
C162 C 0.29868 0.4121 1.02364 0.0
C163 C 0.3067 0.40906 0.96093 0.0
C164 C 0.29774 0.38319 0.92903 0.0
C165 C 0.30416 0.38075 0.86937 0.0
C166 C 0.31929 0.40431 0.84041 0.0
C167 C 0.32878 0.42983 0.87225 0.0
C168 C 0.3227 0.43214 0.93191 0.0
C169 C 0.33081 0.34594 0.17189 0.0
C170 C 0.40042 0.38943 0.09804 0.0
C171 C 0.3973 0.39933 0.3269 0.0
C172 C 0.38657 0.39623 0.38801 0.0
C173 C 0.38253 0.42221 0.42307 0.0
C174 C 0.37309 0.41953 0.48103 0.0
C175 C 0.3678 0.39079 0.50559 0.0
C176 C 0.37126 0.36487 0.47029 0.0
C177 C 0.38048 0.36755 0.41217 0.0
C178 C 0.37334 0.45693 0.16123 0.0
C179 C 0.29947 0.40888 0.25726 0.0
O180 O 0.31053 0.43465 0.05299 0.0
O181 O 0.29743 0.38712 0.05394 0.0
O182 O 0.35333 0.36292 0.162 0.0
O183 O 0.30565 0.3605 0.16319 0.0
O184 O 0.40438 0.38196 0.15303 0.0
O185 O 0.37476 0.40195 0.08023 0.0
O186 O 0.39528 0.37563 0.29247 0.0
O187 O 0.39045 0.42472 0.30066 0.0
O188 O 0.3487 0.44441 0.1769 0.0
O189 O 0.39666 0.44141 0.17813 0.0
O190 O 0.29433 0.4197 0.20441 0.0
O191 O 0.32503 0.395 0.26823 0.0
H192 H 0.28529 0.36504 0.94997 0.0
H193 H 0.29645 0.36096 0.84548 0.0
H194 H 0.3406 0.4482 0.85069 0.0
H195 H 0.33014 0.45229 0.95498 0.0
H196 H 0.38702 0.44468 0.40595 0.0
H197 H 0.37085 0.43992 0.50714 0.0
H198 H 0.36693 0.34244 0.48774 0.0
H199 H 0.38309 0.34709 0.38641 0.0
Pr200 Pr 0.40176 0.6346 0.83895 0.0
Pr201 Pr 0.40097 0.68114 0.94479 0.0
C202 C 0.39409 0.60264 0.7405 0.0
C203 C 0.39527 0.61295 0.67875 0.0
C204 C 0.42085 0.60667 0.6444 0.0
C205 C 0.42336 0.61845 0.58798 0.0
C206 C 0.40027 0.63671 0.56418 0.0
C207 C 0.37448 0.64269 0.59818 0.0
C208 C 0.37204 0.63104 0.65478 0.0
C209 C 0.45846 0.64647 0.8922 0.0
C210 C 0.40812 0.70692 0.80799 0.0
C211 C 0.41447 0.70818 0.04715 0.0
C212 C 0.40844 0.70092 0.10949 0.0
C213 C 0.38165 0.71058 0.13725 0.0
C214 C 0.37596 0.70302 0.19561 0.0
C215 C 0.39704 0.68586 0.22776 0.0
C216 C 0.42375 0.67625 0.19993 0.0
C217 C 0.42941 0.68374 0.14175 0.0
C218 C 0.34166 0.67436 0.90686 0.0
C219 C 0.38123 0.60738 0.96612 0.0
O220 O 0.37131 0.61234 0.77195 0.0
O221 O 0.41975 0.60281 0.76918 0.0
O222 O 0.43348 0.64301 0.91777 0.0
O223 O 0.45455 0.64334 0.83646 0.0
O224 O 0.41525 0.71262 0.86352 0.0
O225 O 0.39722 0.6805 0.79204 0.0
O226 O 0.43332 0.69041 1.01932 0.0
O227 O 0.39138 0.71629 1.01499 0.0
O228 O 0.36452 0.66141 0.88481 0.0
O229 O 0.34963 0.69272 0.94826 0.0
O230 O 0.38594 0.60098 0.91062 0.0
O231 O 0.38595 0.63473 0.98903 0.0
H232 H 0.4392 0.59297 0.66151 0.0
H233 H 0.4434 0.6131 0.56281 0.0
H234 H 0.35647 0.65698 0.58154 0.0
H235 H 0.35212 0.63671 0.68004 0.0
H236 H 0.36502 0.72399 0.11392 0.0
H237 H 0.35527 0.711 0.21581 0.0
H238 H 0.44026 0.66259 0.22301 0.0
H239 H 0.45025 0.67587 0.12197 0.0
Pr240 Pr 0.67917 0.60984 0.12231 0.0
Pr241 Pr 0.63152 0.60316 0.22584 0.0
C242 C 0.70881 0.60742 1.02012 0.0
C243 C 0.70025 0.60642 0.95801 0.0
C244 C 0.70991 0.62967 0.92057 0.0
C245 C 0.70083 0.63002 0.8622 0.0
C246 C 0.68159 0.60726 0.84039 0.0
C247 C 0.67202 0.58396 0.87799 0.0
C248 C 0.6812 0.58355 0.93619 0.0
C249 C 0.66734 0.66318 0.18286 0.0
C250 C 0.60268 0.61845 0.09822 0.0
C251 C 0.60622 0.61584 0.3285 0.0
C252 C 0.61994 0.61506 0.38744 0.0
C253 C 0.61358 0.59098 0.42549 0.0
C254 C 0.62727 0.58965 0.48033 0.0
C255 C 0.64747 0.61249 0.49854 0.0
C256 C 0.65454 0.63611 0.45989 0.0
C257 C 0.64091 0.63742 0.405 0.0
C258 C 0.64291 0.54552 0.17623 0.0
C259 C 0.70581 0.59952 0.25613 0.0
O260 O 0.70338 0.58324 0.05181 0.0
O261 O 0.7027 0.63286 0.04707 0.0
O262 O 0.64792 0.64332 0.16902 0.0
O263 O 0.69416 0.65535 0.16494 0.0
O264 O 0.59694 0.61647 0.15456 0.0
O265 O 0.63041 0.61475 0.07609 0.0
O266 O 0.61631 0.63696 0.29347 0.0
O267 O 0.60209 0.58962 0.30242 0.0
O268 O 0.65458 0.57056 0.16256 0.0
O269 O 0.62374 0.54982 0.21833 0.0
O270 O 0.71312 0.59863 0.19997 0.0
O271 O 0.6778 0.60314 0.27382 0.0
H272 H 0.72412 0.64787 0.93678 0.0
H273 H 0.70825 0.6485 0.83459 0.0
H274 H 0.65741 0.56592 0.8624 0.0
H275 H 0.67304 0.56552 0.96414 0.0
H276 H 0.59801 0.57313 0.41284 0.0
H277 H 0.62184 0.57081 0.50876 0.0
H278 H 0.6699 0.65411 0.47268 0.0
H279 H 0.64678 0.65611 0.37654 0.0
Pr280 Pr 0.60099 0.37368 0.83663 0.0
Pr281 Pr 0.6036 0.33038 0.93941 0.0
C282 C 0.60233 0.39966 0.73126 0.0
C283 C 0.60268 0.38775 0.67128 0.0
C284 C 0.58137 0.39865 0.63129 0.0
C285 C 0.58211 0.389 0.57348 0.0
C286 C 0.60438 0.36842 0.55439 0.0
C287 C 0.62446 0.35586 0.5953 0.0
C288 C 0.62361 0.36544 0.65346 0.0
C289 C 0.54743 0.36836 0.89973 0.0
C290 C 0.59913 0.30004 0.80654 0.0
C291 C 0.58728 0.30421 0.04053 0.0
C292 C 0.59496 0.30795 0.10309 0.0
C293 C 0.61814 0.29095 0.12985 0.0
C294 C 0.62477 0.29504 0.1892 0.0
C295 C 0.60839 0.31621 0.22261 0.0
C296 C 0.58527 0.33303 0.19565 0.0
C297 C 0.5786 0.32891 0.13692 0.0
C298 C 0.66349 0.34036 0.91293 0.0
C299 C 0.61902 0.40609 0.95633 0.0
O300 O 0.62671 0.39551 0.76277 0.0
O301 O 0.57721 0.39554 0.76016 0.0
O302 O 0.56403 0.34638 0.88415 0.0
O303 O 0.55851 0.39421 0.88284 0.0
O304 O 0.59831 0.29364 0.86312 0.0
O305 O 0.60147 0.32797 0.78776 0.0
O306 O 0.57278 0.32692 1.01664 0.0
O307 O 0.60754 0.29211 1.00583 0.0
O308 O 0.64198 0.35281 0.88477 0.0
O309 O 0.65415 0.32141 0.95198 0.0
O310 O 0.62139 0.40838 0.89956 0.0
O311 O 0.61 0.38032 0.9813 0.0
H312 H 0.56451 0.41518 0.6445 0.0
H313 H 0.56579 0.39838 0.54315 0.0
H314 H 0.64168 0.33977 0.58186 0.0
H315 H 0.63977 0.35597 0.68399 0.0
H316 H 0.63114 0.27458 0.10502 0.0
H317 H 0.64283 0.28191 0.20882 0.0
H318 H 0.57177 0.34908 0.2203 0.0
H319 H 0.56038 0.34219 0.11814 0.0
Pr320 Pr 0.82306 0.60733 0.69189 0.0
Pr321 Pr 0.87189 0.60524 0.58918 0.0
C322 C 0.79448 0.60099 0.79478 0.0
C323 C 0.80224 0.60378 0.8574 0.0
C324 C 0.78678 0.62505 0.89206 0.0
C325 C 0.79255 0.6271 0.9519 0.0
C326 C 0.81437 0.60833 0.9779 0.0
C327 C 0.83081 0.58793 0.94304 0.0
C328 C 0.82469 0.58552 0.88332 0.0
C329 C 0.83454 0.66328 0.64017 0.0
C330 C 0.89923 0.61709 0.71925 0.0
C331 C 0.89876 0.61872 0.48793 0.0
C332 C 0.88799 0.61727 0.42668 0.0
C333 C 0.89948 0.59509 0.38853 0.0
C334 C 0.89003 0.59413 0.33033 0.0
C335 C 0.86885 0.61522 0.30931 0.0
C336 C 0.85664 0.63683 0.34751 0.0
C337 C 0.86603 0.63782 0.40571 0.0
C338 C 0.86124 0.54582 0.63283 0.0
C339 C 0.79818 0.60007 0.55715 0.0
O340 O 0.80583 0.578 0.76574 0.0
O341 O 0.79405 0.62621 0.7648 0.0
O342 O 0.85433 0.64317 0.65117 0.0
O343 O 0.8076 0.65408 0.6549 0.0
O344 O 0.90581 0.61667 0.66305 0.0
O345 O 0.87115 0.61283 0.73903 0.0
O346 O 0.88625 0.63932 0.52138 0.0
O347 O 0.90325 0.5928 0.51459 0.0
O348 O 0.84887 0.57038 0.64725 0.0
O349 O 0.88033 0.55152 0.59133 0.0
O350 O 0.7915 0.59303 0.61202 0.0
O351 O 0.82541 0.60923 0.54236 0.0
H352 H 0.76998 0.63989 0.87279 0.0
H353 H 0.77993 0.64327 0.97797 0.0
H354 H 0.84782 0.57331 0.96233 0.0
H355 H 0.83734 0.5692 0.85769 0.0
H356 H 0.91614 0.57878 0.40347 0.0
H357 H 0.89977 0.57734 0.3013 0.0
H358 H 0.84073 0.65365 0.33175 0.0
H359 H 0.85644 0.65508 0.43387 0.0
Pr360 Pr 0.60583 0.13738 0.46709 0.0
Pr361 Pr 0.60739 0.18205 0.3723 0.0
C362 C 0.60822 0.11049 0.57236 0.0
C363 C 0.60763 0.12187 0.63331 0.0
C364 C 0.58225 0.11607 0.66837 0.0
C365 C 0.58057 0.12758 0.7251 0.0
C366 C 0.60437 0.14499 0.74855 0.0
C367 C 0.63 0.15042 0.71375 0.0
C368 C 0.63151 0.13926 0.65661 0.0
C369 C 0.54979 0.14432 0.41116 0.0
C370 C 0.6039 0.20948 0.50353 0.0
C371 C 0.60169 0.21089 0.26893 0.0
C372 C 0.60618 0.20282 0.20663 0.0
C373 C 0.63218 0.21254 0.17665 0.0
C374 C 0.63634 0.20523 0.11777 0.0
C375 C 0.61452 0.18813 0.08743 0.0
C376 C 0.5887 0.17812 0.11762 0.0
C377 C 0.58455 0.1854 0.17639 0.0
C378 C 0.66519 0.17084 0.41606 0.0
C379 C 0.61565 0.10694 0.34261 0.0
O380 O 0.63238 0.11601 0.54117 0.0
O381 O 0.58315 0.11364 0.54275 0.0
O382 O 0.56688 0.16624 0.4258 0.0
O383 O 0.56119 0.1184 0.42665 0.0
O384 O 0.59409 0.21532 0.45013 0.0
O385 O 0.61568 0.18288 0.51509 0.0
O386 O 0.57914 0.19801 0.29597 0.0
O387 O 0.62583 0.21301 0.30156 0.0
O388 O 0.64548 0.15055 0.40667 0.0
O389 O 0.6547 0.19782 0.40513 0.0
O390 O 0.62145 0.10223 0.39817 0.0
O391 O 0.60651 0.134 0.32421 0.0
H392 H 0.56353 0.10271 0.65174 0.0
H393 H 0.56073 0.1224 0.75093 0.0
H394 H 0.64878 0.16363 0.73042 0.0
H395 H 0.65132 0.14441 0.6307 0.0
H396 H 0.6493 0.22592 0.19868 0.0
H397 H 0.65638 0.21345 0.0957 0.0
H398 H 0.57173 0.16443 0.09585 0.0
H399 H 0.56433 0.17731 0.19802 0.0
Pr400 Pr 0.18142 0.40276 0.69302 0.0
Pr401 Pr 0.13177 0.40468 0.59052 0.0
C402 C 0.20966 0.41656 0.79356 0.0
C403 C 0.2013 0.41269 0.85593 0.0
C404 C 0.21729 0.39245 0.89214 0.0
C405 C 0.21004 0.38991 0.95158 0.0
C406 C 0.18672 0.40768 0.97573 0.0
C407 C 0.16989 0.42672 0.93886 0.0
C408 C 0.17712 0.42927 0.87999 0.0
C409 C 0.16943 0.34347 0.65781 0.0
C410 C 0.10643 0.38927 0.71862 0.0
C411 C 0.10517 0.40141 0.48552 0.0
C412 C 0.1172 0.39763 0.42583 0.0
C413 C 0.10736 0.41718 0.38153 0.0
C414 C 0.11929 0.4148 0.32529 0.0
C415 C 0.14135 0.39274 0.31202 0.0
C416 C 0.15151 0.37341 0.35671 0.0
C417 C 0.13969 0.37593 0.41313 0.0
C418 C 0.1391 0.45818 0.65442 0.0
C419 C 0.20627 0.40775 0.55747 0.0
O420 O 0.19394 0.43633 0.7635 0.0
O421 O 0.21592 0.39195 0.76386 0.0
O422 O 0.15747 0.36706 0.63679 0.0
O423 O 0.18879 0.35025 0.69815 0.0
O424 O 0.10075 0.38468 0.66278 0.0
O425 O 0.133 0.39947 0.73763 0.0
O426 O 0.10712 0.37801 0.52068 0.0
O427 O 0.11162 0.42725 0.5109 0.0
O428 O 0.16036 0.4408 0.63812 0.0
O429 O 0.11291 0.44832 0.63666 0.0
O430 O 0.21457 0.40995 0.61306 0.0
O431 O 0.17788 0.4037 0.54166 0.0
H432 H 0.23571 0.379 0.87469 0.0
H433 H 0.22338 0.375 0.97899 0.0
H434 H 0.15142 0.44028 0.95597 0.0
H435 H 0.164 0.44478 0.8538 0.0
H436 H 0.09044 0.4344 0.39047 0.0
H437 H 0.1108 0.42994 0.29189 0.0
H438 H 0.16885 0.35656 0.34821 0.0
H439 H 0.14829 0.36104 0.44685 0.0
Pr440 Pr 0.40151 0.87415 0.47055 0.0
Pr441 Pr 0.39875 0.82848 0.37583 0.0
C442 C 0.39721 0.90231 0.57461 0.0
C443 C 0.39802 0.89209 0.63632 0.0
C444 C 0.42188 0.9013 0.67271 0.0
C445 C 0.4236 0.8912 0.73042 0.0
C446 C 0.40147 0.87155 0.75346 0.0
C447 C 0.3774 0.86255 0.71706 0.0
C448 C 0.37572 0.87262 0.65921 0.0
C449 C 0.45689 0.86697 0.41229 0.0
C450 C 0.4064 0.80147 0.50787 0.0
C451 C 0.4004 0.79894 0.27208 0.0
C452 C 0.39704 0.80723 0.20959 0.0
C453 C 0.37458 0.79325 0.17536 0.0
C454 C 0.37099 0.80095 0.11646 0.0
C455 C 0.38999 0.82265 0.09026 0.0
C456 C 0.41238 0.83669 0.12466 0.0
C457 C 0.41581 0.82917 0.18359 0.0
C458 C 0.34195 0.83984 0.42458 0.0
C459 C 0.39074 0.90353 0.34629 0.0
O460 O 0.3736 0.89464 0.54341 0.0
O461 O 0.42258 0.90038 0.54553 0.0
O462 O 0.43978 0.8452 0.42734 0.0
O463 O 0.44618 0.89299 0.42938 0.0
O464 O 0.41213 0.79461 0.45262 0.0
O465 O 0.39722 0.82885 0.5219 0.0
O466 O 0.42453 0.80847 0.29942 0.0
O467 O 0.37614 0.80068 0.30422 0.0
O468 O 0.36135 0.85986 0.41175 0.0
O469 O 0.3532 0.81287 0.41701 0.0
O470 O 0.38433 0.90826 0.40143 0.0
O471 O 0.40099 0.87678 0.3282 0.0
H472 H 0.43936 0.91629 0.6564 0.0
H473 H 0.44222 0.89909 0.75716 0.0
H474 H 0.36019 0.8471 0.73277 0.0
H475 H 0.35712 0.86481 0.63231 0.0
H476 H 0.35977 0.7763 0.19422 0.0
H477 H 0.35365 0.78956 0.09116 0.0
H478 H 0.42708 0.85382 0.10614 0.0
H479 H 0.43314 0.84065 0.20875 0.0
Pr480 Pr 0.83336 0.90169 0.62827 0.0
Pr481 Pr 0.87424 0.90323 0.72527 0.0
C482 C 0.79695 0.90938 0.53463 0.0
C483 C 0.80188 0.90556 0.47066 0.0
C484 C 0.78859 0.88125 0.44004 0.0
C485 C 0.79419 0.87707 0.38029 0.0
C486 C 0.81312 0.8972 0.34943 0.0
C487 C 0.82611 0.92164 0.38023 0.0
C488 C 0.82066 0.92571 0.43978 0.0
C489 C 0.84966 0.84333 0.66035 0.0
C490 C 0.9066 0.88705 0.60469 0.0
C491 C 0.89508 0.89443 0.8345 0.0
C492 C 0.88325 0.89731 0.89495 0.0
C493 C 0.89131 0.92242 0.92942 0.0
C494 C 0.88271 0.92399 0.98799 0.0
C495 C 0.86599 0.90037 1.01389 0.0
C496 C 0.85656 0.87597 0.97865 0.0
C497 C 0.86515 0.87441 0.91991 0.0
C498 C 0.87807 0.95656 0.65946 0.0
C499 C 0.80714 0.91737 0.76137 0.0
O500 O 0.81135 0.93166 0.5602 0.0
O501 O 0.79653 0.88478 0.56638 0.0
O502 O 0.84163 0.86412 0.69565 0.0
O503 O 0.85137 0.85339 0.60745 0.0
O504 O 0.90778 0.88112 0.66072 0.0
O505 O 0.88205 0.90006 0.58216 0.0
O506 O 0.88398 0.87267 0.80215 0.0
O507 O 0.89994 0.91942 0.80528 0.0
O508 O 0.85345 0.94351 0.6731 0.0
O509 O 0.90159 0.94245 0.68079 0.0
O510 O 0.79961 0.90292 0.71245 0.0
O511 O 0.83429 0.92838 0.76529 0.0
H512 H 0.77405 0.86528 0.46244 0.0
H513 H 0.78393 0.8578 0.35854 0.0
H514 H 0.84024 0.93809 0.3582 0.0
H515 H 0.83131 0.94477 0.46155 0.0
H516 H 0.90496 0.94058 0.91153 0.0
H517 H 0.88976 0.94349 1.01344 0.0
H518 H 0.8437 0.85738 0.99703 0.0
H519 H 0.8583 0.85479 0.89463 0.0
Pr520 Pr 0.90173 0.13259 0.33239 0.0
Pr521 Pr 0.90275 0.18022 0.43741 0.0
C522 C 0.89217 0.10776 0.2277 0.0
C523 C 0.89144 0.12179 0.16912 0.0
C524 C 0.91644 0.1185 0.13202 0.0
C525 C 0.9168 0.13258 0.07765 0.0
C526 C 0.89201 0.15003 0.05868 0.0
C527 C 0.86726 0.15406 0.09626 0.0
C528 C 0.86692 0.14002 0.15095 0.0
C529 C 0.95654 0.13758 0.39245 0.0
C530 C 0.91035 0.2064 0.30108 0.0
C531 C 0.91884 0.20835 0.53709 0.0
C532 C 0.91469 0.20165 0.60015 0.0
C533 C 0.88853 0.21071 0.63088 0.0
C534 C 0.88448 0.20227 0.68941 0.0
C535 C 0.90643 0.18456 0.7181 0.0
C536 C 0.93288 0.17649 0.68779 0.0
C537 C 0.93698 0.18496 0.62987 0.0
C538 C 0.84293 0.17228 0.40163 0.0
C539 C 0.8848 0.10553 0.45931 0.0
O540 O 0.86998 0.11469 0.26317 0.0
O541 O 0.91864 0.10698 0.25348 0.0
O542 O 0.93958 0.15969 0.37882 0.0
O543 O 0.94596 0.11187 0.37303 0.0
O544 O 0.91235 0.21384 0.35736 0.0
O545 O 0.90532 0.17847 0.28342 0.0
O546 O 0.93676 0.18993 0.50839 0.0
O547 O 0.89498 0.21639 0.50685 0.0
O548 O 0.86589 0.15935 0.38058 0.0
O549 O 0.85073 0.19116 0.44227 0.0
O550 O 0.8807 0.10199 0.40283 0.0
O551 O 0.89654 0.13095 0.4816 0.0
H552 H 0.93584 0.10504 0.14508 0.0
H553 H 0.93645 0.12952 0.05004 0.0
H554 H 0.84779 0.16728 0.08269 0.0
H555 H 0.84741 0.14338 0.17876 0.0
H556 H 0.871 0.22383 0.60953 0.0
H557 H 0.86387 0.20887 0.71165 0.0
H558 H 0.95055 0.16343 0.70891 0.0
H559 H 0.95759 0.17796 0.60809 0.0
Pr560 Pr 0.1739 0.10958 0.62896 0.0
Pr561 Pr 0.13256 0.10593 0.72872 0.0
C562 C 0.20248 0.10369 0.52592 0.0
C563 C 0.19466 0.1041 0.46354 0.0
C564 C 0.20955 0.12444 0.42633 0.0
C565 C 0.20346 0.12435 0.36658 0.0
C566 C 0.18239 0.1038 0.34313 0.0
C567 C 0.16659 0.08431 0.38084 0.0
C568 C 0.17262 0.08447 0.44053 0.0
C569 C 0.167 0.16593 0.6823 0.0
C570 C 0.0984 0.12161 0.60894 0.0
C571 C 0.10638 0.10693 0.83385 0.0
C572 C 0.11869 0.11097 0.89282 0.0
C573 C 0.1084 0.09217 0.93767 0.0
C574 C 0.12067 0.09467 0.99344 0.0
C575 C 0.14353 0.11604 1.00538 0.0
C576 C 0.1542 0.13461 0.96011 0.0
C577 C 0.14199 0.13198 0.90411 0.0
C578 C 0.13439 0.05266 0.66282 0.0
C579 C 0.20581 0.10512 0.75788 0.0
O580 O 0.19325 0.0805 0.55671 0.0
O581 O 0.20015 0.12951 0.55348 0.0
O582 O 0.14572 0.14737 0.67307 0.0
O583 O 0.19281 0.15524 0.66459 0.0
O584 O 0.09629 0.12424 0.66588 0.0
O585 O 0.12455 0.11376 0.58424 0.0
O586 O 0.10702 0.13066 0.79956 0.0
O587 O 0.11421 0.0817 0.80783 0.0
O588 O 0.15763 0.0676 0.67814 0.0
O589 O 0.10975 0.06497 0.68235 0.0
O590 O 0.21088 0.09946 0.70207 0.0
O591 O 0.17866 0.11215 0.77613 0.0
H592 H 0.22623 0.14013 0.44347 0.0
H593 H 0.21592 0.13965 0.33855 0.0
H594 H 0.1497 0.06874 0.36407 0.0
H595 H 0.16027 0.06899 0.46841 0.0
H596 H 0.09086 0.07549 0.9295 0.0
H597 H 0.11182 0.08022 1.02755 0.0
H598 H 0.17208 0.15096 0.96793 0.0
H599 H 0.15083 0.14626 0.86971 0.0
Pr600 Pr 0.10569 0.87618 0.33854 0.0
Pr601 Pr 0.10806 0.82792 0.43877 0.0
C602 C 0.1211 0.90157 0.23693 0.0
C603 C 0.12009 0.8891 0.17671 0.0
C604 C 0.09426 0.89281 0.14155 0.0
C605 C 0.09305 0.88003 0.08572 0.0
C606 C 0.11767 0.86331 0.06356 0.0
C607 C 0.14326 0.85914 0.09909 0.0
C608 C 0.1445 0.87195 0.15483 0.0
C609 C 0.04664 0.86989 0.38413 0.0
C610 C 0.09744 0.80236 0.30522 0.0
C611 C 0.10369 0.79865 0.54161 0.0
C612 C 0.1034 0.80745 0.60401 0.0
C613 C 0.12787 0.79961 0.64028 0.0
C614 C 0.12866 0.80915 0.69852 0.0
C615 C 0.10486 0.82657 0.72194 0.0
C616 C 0.0801 0.83379 0.68579 0.0
C617 C 0.07942 0.82445 0.62758 0.0
C618 C 0.16342 0.83751 0.38367 0.0
C619 C 0.12013 0.90382 0.46648 0.0
O620 O 0.14095 0.88924 0.27214 0.0
O621 O 0.09514 0.90725 0.26237 0.0
O622 O 0.07003 0.85565 0.40007 0.0
O623 O 0.05356 0.88825 0.34197 0.0
O624 O 0.09486 0.79485 0.36099 0.0
O625 O 0.10354 0.83026 0.28911 0.0
O626 O 0.08008 0.80587 0.50981 0.0
O627 O 0.1293 0.80251 0.5142 0.0
O628 O 0.14436 0.85779 0.39741 0.0
O629 O 0.15221 0.81074 0.39423 0.0
O630 O 0.11742 0.91071 0.4108 0.0
O631 O 0.11694 0.87558 0.48651 0.0
H632 H 0.07488 0.90551 0.1572 0.0
H633 H 0.07275 0.88319 0.05989 0.0
H634 H 0.1627 0.84659 0.08333 0.0
H635 H 0.16471 0.86839 0.18074 0.0
H636 H 0.14667 0.78648 0.6233 0.0
H637 H 0.14824 0.80342 0.72476 0.0
H638 H 0.06107 0.84664 0.70249 0.0
H639 H 0.06016 0.83084 0.60102 0.0
H640 H 0.34162 0.9356 0.30791 0.0
H641 H 0.43887 0.93032 0.29681 0.0
H642 H 0.43984 0.9761 0.23645 0.0
H643 H 0.41337 0.0176 0.18752 0.0
H644 H 0.31592 0.02262 0.19317 0.0
H645 H 0.31448 0.97679 0.25416 0.0
C646 C 0.3629 0.94443 0.29156 0.0
C647 C 0.39019 0.92964 0.30609 0.0
C648 C 0.36318 0.97055 0.25585 0.0
C649 C 0.41766 0.94117 0.28525 0.0
C650 C 0.4182 0.96738 0.25104 0.0
C651 C 0.39174 0.00862 0.20174 0.0
C652 C 0.36479 0.02354 0.18575 0.0
C653 C 0.39115 0.98223 0.23607 0.0
C654 C 0.337 0.0116 0.20482 0.0
C655 C 0.3362 0.9854 0.23974 0.0
H656 H 0.95908 0.62618 0.69538 0.0
H657 H 0.89556 0.62343 0.83814 0.0
H658 H 0.93664 0.63349 0.90696 0.0
H659 H 0.99141 0.63997 0.92743 0.0
H660 H 0.05467 0.63862 0.78496 0.0
H661 H 0.01306 0.63411 0.71527 0.0
C662 C 0.95408 0.62784 0.7415 0.0
C663 C 0.92413 0.62372 0.76133 0.0
C664 C 0.97788 0.63334 0.78097 0.0
C665 C 0.91831 0.62619 0.82142 0.0
C666 C 0.94184 0.63203 0.86092 0.0
C667 C 0.99587 0.63936 0.88099 0.0
C668 C 0.02594 0.64099 0.86106 0.0
C669 C 0.97178 0.63529 0.84131 0.0
C670 C 0.03167 0.63897 0.80108 0.0
C671 C 0.00786 0.63582 0.76129 0.0
H672 H 0.61628 0.01057 0.13708 0.0
H673 H 0.65763 0.95628 0.2703 0.0
H674 H 0.65849 0.99957 0.33666 0.0
H675 H 0.64312 0.05203 0.35964 0.0
H676 H 0.59615 0.10497 0.22963 0.0
H677 H 0.60063 0.06313 0.16018 0.0
C678 C 0.62607 0.00852 0.18027 0.0
C679 C 0.63936 0.98083 0.19719 0.0
C680 C 0.62442 0.03318 0.21943 0.0
C681 C 0.65049 0.97803 0.25415 0.0
C682 C 0.64981 1.00262 0.29286 0.0
C683 C 0.63394 0.05449 0.31606 0.0
C684 C 0.61926 0.08168 0.30008 0.0
C685 C 0.63648 0.03024 0.27623 0.0
C686 C 0.60765 0.08441 0.24323 0.0
C687 C 0.61019 0.06044 0.20338 0.0
H688 H 1.00217 0.40986 0.90085 0.0
H689 H 0.97802 0.3188 0.85017 0.0
H690 H 0.02048 0.31754 0.78114 0.0
H691 H 0.06433 0.34373 0.73326 0.0
H692 H 0.09184 0.43126 0.79919 0.0
H693 H 0.04896 0.43224 0.86504 0.0
C694 C 0.00622 0.38963 0.87494 0.0
C695 C 0.98598 0.36513 0.8783 0.0
C696 C 0.03161 0.3884 0.83833 0.0
C697 C 0.99234 0.33862 0.8462 0.0
C698 C 0.01684 0.33777 0.80717 0.0
C699 C 0.06087 0.36287 0.76232 0.0
C700 C 0.08112 0.38763 0.76077 0.0
C701 C 0.03646 0.36281 0.80219 0.0
C702 C 0.07674 0.412 0.79935 0.0
C703 C 0.05207 0.41264 0.83702 0.0
H704 H 0.33145 0.50162 0.1286 0.0
H705 H 0.4245 0.4732 0.10758 0.0
H706 H 0.43443 0.516 0.04489 0.0
H707 H 0.41805 0.5623 0.99682 0.0
H708 H 0.3272 0.59518 1.02057 0.0
H709 H 0.31508 0.55052 0.08106 0.0
C710 C 0.3538 0.5049 0.1102 0.0
C711 C 0.3771 0.48391 0.12283 0.0
C712 C 0.35991 0.53063 0.07484 0.0
C713 C 0.40601 0.48871 0.09876 0.0
C714 C 0.41187 0.51333 0.06277 0.0
C715 C 0.39565 0.5597 1.01561 0.0
C716 C 0.37363 0.58182 1.00494 0.0
C717 C 0.38919 0.53452 0.05084 0.0
C718 C 0.34461 0.57839 1.02906 0.0
C719 C 0.33769 0.55282 0.06336 0.0
H720 H 0.57991 0.59216 0.9986 0.0
H721 H 0.56832 0.66818 0.11491 0.0
H722 H 0.52356 0.68465 0.06069 0.0
H723 H 0.48601 0.67619 0.98252 0.0
H724 H 0.49636 0.59962 0.86738 0.0
H725 H 0.5427 0.58447 0.91849 0.0
C726 C 0.56772 0.6125 1.0114 0.0
C727 C 0.5774 0.62896 0.0606 0.0
C728 C 0.54146 0.62156 0.98051 0.0
C729 C 0.5612 0.65507 0.07729 0.0
C730 C 0.53556 0.6645 0.04635 0.0
C731 C 0.49842 0.65624 0.96868 0.0
C732 C 0.48776 0.63911 0.92111 0.0
C733 C 0.52514 0.64769 0.99838 0.0
C734 C 0.50434 0.61345 0.90331 0.0
C735 C 0.53079 0.6047 0.93274 0.0
H736 H 0.63753 0.53858 0.05921 0.0
H737 H 0.65049 0.48836 0.21802 0.0
H738 H 0.64555 0.44025 0.16467 0.0
H739 H 0.63341 0.41235 0.07325 0.0
H740 H 0.61764 0.46393 0.91624 0.0
H741 H 0.62699 0.51103 0.9682 0.0
C742 C 0.63982 0.51706 0.0818 0.0
C743 C 0.64462 0.51691 0.14227 0.0
C744 C 0.63567 0.48954 0.05123 0.0
C745 C 0.64689 0.48893 0.17134 0.0
C746 C 0.64386 0.46144 0.1409 0.0
C747 C 0.63205 0.43389 0.05054 0.0
C748 C 0.62486 0.43431 0.99073 0.0
C749 C 0.63744 0.46139 0.08096 0.0
C750 C 0.62337 0.4626 0.96206 0.0
C751 C 0.62871 0.48977 0.99176 0.0
H752 H 0.43975 0.34258 0.07593 0.0
H753 H 0.41862 0.43499 1.02902 0.0
H754 H 0.46285 0.437 0.96575 0.0
H755 H 0.5076 0.41285 0.92402 0.0
H756 H 0.52474 0.31793 0.95598 0.0
H757 H 0.48211 0.31625 1.02438 0.0
C758 C 0.44493 0.36301 0.05158 0.0
C759 C 0.42637 0.38883 0.05772 0.0
C760 C 0.46965 0.36349 1.01266 0.0
C761 C 0.43282 0.41503 1.02534 0.0
C762 C 0.45805 0.41616 0.98906 0.0
C763 C 0.50197 0.39173 0.94573 0.0
C764 C 0.51996 0.36585 0.93652 0.0
C765 C 0.47663 0.39059 0.98244 0.0
C766 C 0.51183 0.33845 0.96379 0.0
C767 C 0.48734 0.33744 1.00264 0.0
H768 H 0.87937 0.41378 0.73768 0.0
H769 H 0.87431 0.46516 0.89788 0.0
H770 H 0.86359 0.5112 0.84375 0.0
H771 H 0.85791 0.53829 0.7506 0.0
H772 H 0.86551 0.48847 0.58974 0.0
H773 H 0.87204 0.44091 0.64384 0.0
C774 C 0.8758 0.435 0.76074 0.0
C775 C 0.87775 0.43561 0.82209 0.0
C776 C 0.86973 0.46196 0.72905 0.0
C777 C 0.87294 0.46356 0.85087 0.0
C778 C 0.86675 0.49017 0.81988 0.0
C779 C 0.8604 0.51692 0.72748 0.0
C780 C 0.86091 0.51686 0.66621 0.0
C781 C 0.86527 0.48978 0.75896 0.0
C782 C 0.86492 0.48907 0.63691 0.0
C783 C 0.86883 0.46187 0.66787 0.0
H784 H 0.5057 0.10211 0.40266 0.0
H785 H 0.52896 0.19193 0.34374 0.0
H786 H 0.48623 0.19113 0.27529 0.0
H787 H 0.44278 0.16356 0.2298 0.0
H788 H 0.41595 0.07697 0.30052 0.0
H789 H 0.45906 0.07795 0.36743 0.0
C790 C 0.5013 0.12166 0.37521 0.0
C791 C 0.52127 0.14658 0.37668 0.0
C792 C 0.47589 0.12155 0.33815 0.0
C793 C 0.51469 0.17203 0.34197 0.0
C794 C 0.49008 0.17162 0.30309 0.0
C795 C 0.44643 0.14501 0.26006 0.0
C796 C 0.42651 0.11996 0.25968 0.0
C797 C 0.47076 0.14625 0.30011 0.0
C798 C 0.43104 0.09638 0.29985 0.0
C799 C 0.45572 0.09692 0.33805 0.0
H800 H 0.1262 0.54889 0.86437 0.0
H801 H 0.13724 0.61465 0.72686 0.0
H802 H 0.14689 0.57365 0.65705 0.0
H803 H 0.14778 0.51848 0.63341 0.0
H804 H 0.13492 0.45374 0.77087 0.0
H805 H 0.13029 0.4946 0.84229 0.0
C806 C 0.13101 0.55435 0.81926 0.0
C807 C 0.13072 0.58484 0.80087 0.0
C808 C 0.13602 0.53067 0.77921 0.0
C809 C 0.13691 0.59137 0.74211 0.0
C810 C 0.1425 0.56791 0.70214 0.0
C811 C 0.14465 0.51348 0.67925 0.0
C812 C 0.14199 0.48308 0.69734 0.0
C813 C 0.14152 0.5374 0.71991 0.0
C814 C 0.13727 0.47686 0.75639 0.0
C815 C 0.13454 0.50028 0.79711 0.0
H816 H 0.56311 0.84413 0.23144 0.0
H817 H 0.59599 0.92699 0.30937 0.0
H818 H 0.55256 0.92797 0.37541 0.0
H819 H 0.50367 0.9068 0.40746 0.0
H820 H 0.47465 0.82011 0.34085 0.0
H821 H 0.51764 0.81913 0.27356 0.0
C822 C 0.56082 0.86223 0.26327 0.0
C823 C 0.58257 0.88563 0.26515 0.0
C824 C 0.53621 0.86213 0.30254 0.0
C825 C 0.5796 0.90871 0.30712 0.0
C826 C 0.55468 0.90936 0.34471 0.0
C827 C 0.5069 0.88755 0.37857 0.0
C828 C 0.48526 0.86405 0.37766 0.0
C829 C 0.53263 0.88642 0.34233 0.0
C830 C 0.49026 0.83895 0.34102 0.0
C831 C 0.51504 0.8383 0.30283 0.0
H832 H 0.84706 0.97854 0.56584 0.0
H833 H 0.91302 1.00408 0.69502 0.0
H834 H 0.91834 0.05423 0.64972 0.0
H835 H 0.90763 0.08936 0.56735 0.0
H836 H 0.84394 0.06137 0.43502 0.0
H837 H 0.83455 0.01415 0.48681 0.0
C838 C 0.86234 0.99519 0.58435 0.0
C839 C 0.87972 0.98751 0.63355 0.0
C840 C 0.86601 0.02364 0.55683 0.0
C841 C 0.89967 0.0093 0.6567 0.0
C842 C 0.90267 0.03803 0.63082 0.0
C843 C 0.89135 0.07315 0.55044 0.0
C844 C 0.87674 0.07903 0.49694 0.0
C845 C 0.88649 0.04529 0.57996 0.0
C846 C 0.85581 0.05751 0.47568 0.0
C847 C 0.85036 0.03035 0.50532 0.0
H848 H 0.09099 0.13337 0.49054 0.0
H849 H 0.04116 0.12 0.65032 0.0
H850 H 0.99368 0.12627 0.59892 0.0
H851 H 0.96527 0.13263 0.50816 0.0
H852 H 0.01302 0.14686 0.34736 0.0
H853 H 0.0618 0.14359 0.39898 0.0
C854 C 0.06974 0.13188 0.51397 0.0
C855 C 0.06998 0.12607 0.57447 0.0
C856 C 0.04189 0.13578 0.48389 0.0
C857 C 0.04204 0.12451 0.60398 0.0
C858 C 0.01463 0.12807 0.57459 0.0
C859 C 0.98638 0.13555 0.48471 0.0
C860 C 0.98565 0.14014 0.42432 0.0
C861 C 0.01419 0.13342 0.51459 0.0
C862 C 0.01311 0.14351 0.39411 0.0
C863 C 0.04099 0.14145 0.42359 0.0
H864 H 0.09699 0.96033 0.46678 0.0
H865 H 0.16157 0.90345 0.55548 0.0
H866 H 0.17556 0.94605 0.61956 0.0
H867 H 0.16658 0.99915 0.65454 0.0
H868 H 0.09829 0.05323 0.5691 0.0
H869 H 0.08881 0.01251 0.49955 0.0
C870 C 0.1141 0.95728 0.50026 0.0
C871 C 0.12793 0.9288 0.50706 0.0
C872 C 0.12141 0.98155 0.5375 0.0
C873 C 0.15012 0.92507 0.55041 0.0
C874 C 0.15827 0.94949 0.58669 0.0
C875 C 0.1501 1.00206 0.61993 0.0
C876 C 0.1333 0.02922 0.6166 0.0
C877 C 0.14375 0.97781 0.58122 0.0
C878 C 0.1116 0.0326 0.57229 0.0
C879 C 0.10602 0.00925 0.53267 0.0
H880 H 0.03247 0.84845 0.49325 0.0
H881 H 0.99447 0.89521 0.34536 0.0
H882 H 0.94733 0.90362 0.39848 0.0
H883 H 0.91767 0.90069 0.4895 0.0
H884 H 0.9563 0.8547 0.63802 0.0
H885 H 1.00175 0.8431 0.58258 0.0
C886 C 0.0137 0.86004 0.4724 0.0
C887 C 0.01709 0.87116 0.41531 0.0
C888 C 0.98664 0.86533 0.50371 0.0
C889 C 0.99256 0.88643 0.38926 0.0
C890 C 0.96554 0.89136 0.41971 0.0
C891 C 0.93594 0.88799 0.50961 0.0
C892 C 0.93344 0.87896 0.56823 0.0
C893 C 0.96245 0.88143 0.4774 0.0
C894 C 0.95748 0.86235 0.59327 0.0
C895 C 0.98364 0.85558 0.56149 0.0
H896 H 0.31778 0.21278 0.07414 0.0
H897 H 0.36506 0.19186 0.23328 0.0
H898 H 0.36831 0.24599 0.25739 0.0
H899 H 0.35573 0.29961 0.23461 0.0
H900 H 0.30903 0.32003 0.07446 0.0
H901 H 0.3083 0.26623 0.04833 0.0
C902 C 0.32914 0.22026 0.11357 0.0
C903 C 0.34134 0.19868 0.15169 0.0
C904 C 0.33108 0.25139 0.12688 0.0
C905 C 0.35592 0.20833 0.20292 0.0
C906 C 0.35762 0.23922 0.21687 0.0
C907 C 0.34552 0.2921 0.19408 0.0
C908 C 0.33194 0.31343 0.15699 0.0
C909 C 0.34501 0.261 0.17946 0.0
C910 C 0.31901 0.30374 0.10419 0.0
C911 C 0.31867 0.27304 0.08913 0.0
H912 H 0.29788 0.67688 0.98691 0.0
H913 H 0.31427 0.65221 0.80783 0.0
H914 H 0.25959 0.64459 0.79305 0.0
H915 H 0.20713 0.65193 0.82858 0.0
H916 H 0.19157 0.67528 1.00839 0.0
H917 H 0.24636 0.67618 1.02613 0.0
C918 C 0.2895 0.66959 0.94468 0.0
C919 C 0.30976 0.66587 0.89792 0.0
C920 C 0.2584 0.66507 0.937 0.0
C921 C 0.2989 0.65559 0.84402 0.0
C922 C 0.26774 0.6513 0.8357 0.0
C923 C 0.21589 0.65629 0.87198 0.0
C924 C 0.19575 0.66354 0.91731 0.0
C925 C 0.24728 0.6569 0.88146 0.0
C926 C 0.20688 0.66927 0.97335 0.0
C927 C 0.23811 0.67012 0.98317 0.0
H928 H 0.64313 0.80101 0.23335 0.0
H929 H 0.66995 0.80827 0.05371 0.0
H930 H 0.67083 0.75263 0.04523 0.0
H931 H 0.67118 0.70251 0.0939 0.0
H932 H 0.64531 0.69564 0.27429 0.0
H933 H 0.63664 0.75073 0.2781 0.0
C934 C 0.64797 0.79027 0.19179 0.0
C935 C 0.65605 0.80836 0.14393 0.0
C936 C 0.64928 0.75851 0.18809 0.0
C937 C 0.66294 0.79459 0.09051 0.0
C938 C 0.66395 0.76286 0.0861 0.0
C939 C 0.66328 0.71319 0.13373 0.0
C940 C 0.65924 0.69551 0.18413 0.0
C941 C 0.65835 0.74469 0.1353 0.0
C942 C 0.64871 0.70909 0.23537 0.0
C943 C 0.64377 0.74046 0.23741 0.0
H944 H 0.79866 0.38324 0.87465 0.0
H945 H 0.81447 0.30194 0.97442 0.0
H946 H 0.76 0.29372 0.98345 0.0
H947 H 0.70869 0.30742 0.95693 0.0
H948 H 0.69099 0.38826 0.85652 0.0
H949 H 0.74564 0.3991 0.85327 0.0
C950 C 0.78993 0.36449 0.90022 0.0
C951 C 0.81014 0.3437 0.9256 0.0
C952 C 0.75853 0.35952 0.90374 0.0
C953 C 0.79905 0.3187 0.95657 0.0
C954 C 0.76802 0.31376 0.96082 0.0
C955 C 0.71669 0.3275 0.93433 0.0
C956 C 0.696 0.34688 0.90643 0.0
C957 C 0.74768 0.33362 0.93345 0.0
C958 C 0.70667 0.37276 0.87736 0.0
C959 C 0.7378 0.37906 0.87606 0.0
H960 H 0.79723 0.71078 0.66474 0.0
H961 H 0.8891 0.68939 0.61578 0.0
H962 H 0.90263 0.74327 0.62219 0.0
H963 H 0.88792 0.79678 0.6398 0.0
H964 H 0.79702 0.81742 0.6949 0.0
H965 H 0.78346 0.76352 0.68849 0.0
C966 C 0.82017 0.7179 0.65498 0.0
C967 C 0.84205 0.69612 0.63892 0.0
C968 C 0.828 0.74874 0.66071 0.0
C969 C 0.87177 0.70574 0.6274 0.0
C970 C 0.87955 0.73651 0.6315 0.0
C971 C 0.86541 0.78922 0.65189 0.0
C972 C 0.84367 0.81075 0.66917 0.0
C973 C 0.85789 0.75819 0.64827 0.0
C974 C 0.81433 0.80103 0.68336 0.0
C975 C 0.8065 0.77031 0.67884 0.0
H976 H 0.80207 0.13046 0.436 0.0
H977 H 0.81348 0.20945 0.32786 0.0
H978 H 0.75848 0.21571 0.32134 0.0
H979 H 0.70778 0.20273 0.3576 0.0
H980 H 0.69561 0.12336 0.46474 0.0
H981 H 0.75027 0.11321 0.46114 0.0
C982 C 0.79232 0.14829 0.40929 0.0
C983 C 0.81149 0.16929 0.38181 0.0
C984 C 0.76069 0.15222 0.4073 0.0
C985 C 0.79894 0.19279 0.34843 0.0
C986 C 0.76757 0.19661 0.34548 0.0
C987 C 0.71713 0.18322 0.38021 0.0
C988 C 0.69796 0.16427 0.4129 0.0
C989 C 0.74833 0.17725 0.37682 0.0
C990 C 0.71013 0.13854 0.44033 0.0
C991 C 0.74129 0.13268 0.43799 0.0
H992 H 0.14006 0.3043 0.72587 0.0
H993 H 0.1855 0.31213 0.56081 0.0
H994 H 0.18847 0.25655 0.55322 0.0
H995 H 0.18352 0.20627 0.60007 0.0
H996 H 0.13674 0.19845 0.76395 0.0
H997 H 0.12885 0.25368 0.76614 0.0
C998 C 0.14957 0.29367 0.68732 0.0
C999 C 0.16215 0.3119 0.6435 0.0
C1000 C 0.15166 0.26192 0.68408 0.0
C1001 C 0.17507 0.29829 0.59423 0.0
C1002 C 0.17719 0.26661 0.59046 0.0
C1003 C 0.17158 0.2168 0.63613 0.0
C1004 C 0.1614 0.1988 0.68272 0.0
C1005 C 0.16657 0.2483 0.63621 0.0
C1006 C 0.14517 0.2122 0.72837 0.0
C1007 C 0.14058 0.24363 0.7294 0.0
H1008 H 0.29328 0.8416 0.49667 0.0
H1009 H 0.31963 0.84699 0.31649 0.0
H1010 H 0.26641 0.84808 0.28636 0.0
H1011 H 0.21199 0.84415 0.31136 0.0
H1012 H 0.18588 0.84036 0.49191 0.0
H1013 H 0.23897 0.84229 0.52203 0.0
C1014 C 0.28719 0.84353 0.45102 0.0
C1015 C 0.31 0.84437 0.40879 0.0
C1016 C 0.25655 0.84427 0.43411 0.0
C1017 C 0.30216 0.84659 0.34962 0.0
C1018 C 0.27181 0.84706 0.33239 0.0
C1019 C 0.2181 0.84417 0.35715 0.0
C1020 C 0.19537 0.84204 0.39946 0.0
C1021 C 0.24875 0.84545 0.37417 0.0
C1022 C 0.20326 0.84201 0.45877 0.0
C1023 C 0.23355 0.84303 0.47599 0.0
H1024 H 0.21996 0.06247 0.83913 0.0
H1025 H 0.24255 0.15271 0.78185 0.0
H1026 H 0.27134 0.16138 0.87169 0.0
H1027 H 0.28898 0.14383 0.96808 0.0
H1028 H 0.26574 0.05399 1.02723 0.0
H1029 H 0.23864 0.04444 0.93547 0.0
C1030 C 0.23217 0.08359 0.84551 0.0
C1031 C 0.2302 0.10646 0.80255 0.0
C1032 C 0.24806 0.08865 0.89828 0.0
C1033 C 0.24491 0.13425 0.81273 0.0
C1034 C 0.26089 0.13939 0.8647 0.0
C1035 C 0.27761 0.12228 0.96125 0.0
C1036 C 0.27889 0.09986 1.00523 0.0
C1037 C 0.26231 0.11692 0.90813 0.0
C1038 C 0.26432 0.07197 0.99519 0.0
C1039 C 0.2492 0.06637 0.94224 0.0
H1040 H 0.11108 0.69724 0.11918 0.0
H1041 H 0.08328 0.76932 1.00313 0.0
H1042 H 0.07845 0.80373 0.08694 0.0
H1043 H 0.08259 0.81326 0.19248 0.0
H1044 H 0.10971 0.74083 0.30805 0.0
H1045 H 0.11375 0.70626 0.22433 0.0
C1046 C 0.10386 0.72046 0.11162 0.0
C1047 C 0.0976 0.73058 0.05414 0.0
C1048 C 0.10073 0.73988 0.16002 0.0
C1049 C 0.08846 0.76086 0.04628 0.0
C1050 C 0.08554 0.78047 0.09436 0.0
C1051 C 0.08908 0.78978 0.19969 0.0
C1052 C 0.09564 0.77964 0.25693 0.0
C1053 C 0.09159 0.77019 0.15134 0.0
C1054 C 0.10402 0.74916 0.26502 0.0
C1055 C 0.10664 0.72951 0.217 0.0
H1056 H 0.76016 0.92632 1.02391 0.0
H1057 H 0.68837 0.87088 0.95341 0.0
H1058 H 0.71153 0.8719 0.8578 0.0
H1059 H 0.75212 0.88923 0.79092 0.0
H1060 H 0.8234 0.94544 0.86202 0.0
H1061 H 0.80132 0.94253 0.9577 0.0
C1062 C 0.74996 0.91396 0.98801 0.0
C1063 C 0.72235 0.89874 0.99673 0.0
C1064 C 0.76334 0.91479 0.93164 0.0
C1065 C 0.70952 0.8831 0.94868 0.0
C1066 C 0.72271 0.88367 0.89333 0.0
C1067 C 0.76252 0.90128 0.82699 0.0
C1068 C 0.78939 0.91779 0.81757 0.0
C1069 C 0.74946 0.89984 0.88364 0.0
C1070 C 0.80255 0.93271 0.86626 0.0
C1071 C 0.79001 0.93102 0.92201 0.0
H1072 H 0.9444 0.26577 0.05924 0.0
H1073 H 0.85039 0.2914 0.06673 0.0
H1074 H 0.84577 0.26879 0.1633 0.0
H1075 H 0.86843 0.24206 0.24745 0.0
H1076 H 0.96198 0.21523 0.24048 0.0
H1077 H 0.96689 0.23768 0.14329 0.0
C1078 C 0.92264 0.26527 0.08105 0.0
C1079 C 0.89745 0.27932 0.05435 0.0
C1080 C 0.92031 0.2528 0.13801 0.0
C1081 C 0.86981 0.27967 0.08489 0.0
C1082 C 0.86729 0.26727 0.14086 0.0
C1083 C 0.89017 0.24223 0.22553 0.0
C1084 C 0.91524 0.2284 0.25279 0.0
C1085 C 0.89249 0.25425 0.16846 0.0
C1086 C 0.94278 0.22721 0.22206 0.0
C1087 C 0.9454 0.23946 0.16576 0.0
H1088 H 0.31107 0.39752 0.37111 0.0
H1089 H 0.23905 0.42633 0.25612 0.0
H1090 H 0.20455 0.42946 0.33987 0.0
H1091 H 0.19499 0.42325 0.445 0.0
H1092 H 0.26742 0.39487 0.55932 0.0
H1093 H 0.3019 0.39247 0.47571 0.0
C1094 C 0.28782 0.40451 0.36385 0.0
C1095 C 0.27771 0.41161 0.30682 0.0
C1096 C 0.26834 0.40647 0.41211 0.0
C1097 C 0.24752 0.42081 0.29913 0.0
C1098 C 0.22782 0.42257 0.3471 0.0
C1099 C 0.2184 0.41669 0.45195 0.0
C1100 C 0.22858 0.40921 0.50877 0.0
C1101 C 0.23803 0.41541 0.4037 0.0
C1102 C 0.25902 0.40102 0.51657 0.0
C1103 C 0.27867 0.39949 0.46864 0.0
H1104 H 0.41425 0.69447 0.69276 0.0
H1105 H 0.40988 0.77003 0.81276 0.0
H1106 H 0.41005 0.80532 0.72993 0.0
H1107 H 0.40833 0.81447 0.62394 0.0
H1108 H 0.41269 0.73876 0.50423 0.0
H1109 H 0.41547 0.70369 0.5872 0.0
C1110 C 0.4134 0.71871 0.70123 0.0
C1111 C 0.4118 0.72947 0.75955 0.0
C1112 C 0.41317 0.73878 0.6534 0.0
C1113 C 0.41122 0.76099 0.76892 0.0
C1114 C 0.41104 0.78116 0.72137 0.0
C1115 C 0.40986 0.79027 0.61554 0.0
C1116 C 0.40993 0.77938 0.55722 0.0
C1117 C 0.41149 0.77028 0.66348 0.0
C1118 C 0.41248 0.74792 0.54804 0.0
C1119 C 0.414 0.72786 0.59562 0.0
H1120 H 0.70323 0.56811 0.35749 0.0
H1121 H 0.75819 0.63244 0.26377 0.0
H1122 H 0.78901 0.64064 0.35128 0.0
H1123 H 0.80033 0.6297 0.45381 0.0
H1124 H 0.74674 0.56422 0.548 0.0
H1125 H 0.71524 0.55635 0.46082 0.0
C1126 C 0.72255 0.58328 0.3558 0.0
C1127 C 0.72888 0.59907 0.30351 0.0
C1128 C 0.74019 0.58783 0.40645 0.0
C1129 C 0.75348 0.61921 0.30247 0.0
C1130 C 0.77087 0.62415 0.35283 0.0
C1131 C 0.78177 0.61361 0.45562 0.0
C1132 C 0.77604 0.5975 0.50789 0.0
C1133 C 0.76437 0.60868 0.40501 0.0
C1134 C 0.75158 0.57713 0.509 0.0
C1135 C 0.73379 0.57241 0.45883 0.0
H1136 H 0.63133 0.20563 0.60945 0.0
H1137 H 0.56803 0.26088 0.5128 0.0
H1138 H 0.55852 0.29135 0.60067 0.0
H1139 H 0.56855 0.30238 0.7047 0.0
H1140 H 0.63165 0.24688 0.80075 0.0
H1141 H 0.64079 0.21628 0.71313 0.0
C1142 C 0.61542 0.22436 0.6072 0.0
C1143 C 0.60041 0.23086 0.55398 0.0
C1144 C 0.60965 0.24132 0.65816 0.0
C1145 C 0.58013 0.25545 0.55251 0.0
C1146 C 0.57446 0.27266 0.60304 0.0
C1147 C 0.58366 0.28296 0.70691 0.0
C1148 C 0.59894 0.27653 0.75978 0.0
C1149 C 0.58891 0.26563 0.65616 0.0
C1150 C 0.61886 0.25172 0.76154 0.0
C1151 C 0.62431 0.23444 0.71112 0.0
H1152 H 0.3214 0.15005 0.55544 0.0
H1153 H 0.33948 0.0545 0.53062 0.0
H1154 H 0.35158 0.04913 0.63354 0.0
H1155 H 0.3581 0.07134 0.73034 0.0
H1156 H 0.34148 0.16703 0.75641 0.0
H1157 H 0.32671 0.17222 0.65429 0.0
C1158 C 0.32778 0.12803 0.57267 0.0
C1159 C 0.32988 0.1028 0.53488 0.0
C1160 C 0.33476 0.125 0.63242 0.0
C1161 C 0.33831 0.07446 0.55816 0.0
C1162 C 0.34502 0.07128 0.61725 0.0
C1163 C 0.35148 0.09343 0.71374 0.0
C1164 C 0.35128 0.11877 0.75124 0.0
C1165 C 0.34362 0.09641 0.65467 0.0
C1166 C 0.34171 0.147 0.72895 0.0
C1167 C 0.33349 0.15007 0.67027 0.0
H1168 H 0.08448 0.64674 0.52562 0.0
H1169 H 0.14651 0.72183 0.50767 0.0
H1170 H 0.15211 0.7105 0.40377 0.0
H1171 H 0.13679 0.68087 0.3163 0.0
H1172 H 0.07266 0.60764 0.336 0.0
H1173 H 0.06991 0.61721 0.44028 0.0
C1174 C 0.09904 0.6609 0.49906 0.0
C1175 C 0.11469 0.68539 0.52465 0.0
C1176 C 0.10152 0.65478 0.43921 0.0
C1177 C 0.13424 0.70274 0.48951 0.0
C1178 C 0.13727 0.69642 0.42985 0.0
C1179 C 0.12234 0.66697 0.34354 0.0
C1180 C 0.10464 0.64381 0.31807 0.0
C1181 C 0.12065 0.67275 0.40397 0.0
C1182 C 0.08604 0.626 0.3541 0.0
C1183 C 0.0846 0.6313 0.41391 0.0
H1184 H 0.64777 0.92468 0.53574 0.0
H1185 H 0.72085 0.86032 0.556 0.0
H1186 H 0.70904 0.85536 0.65938 0.0
H1187 H 0.67882 0.87056 0.74588 0.0
H1188 H 0.60734 0.93655 0.72481 0.0
H1189 H 0.61833 0.94016 0.62112 0.0
C1190 C 0.66148 0.90982 0.56262 0.0
C1191 C 0.68529 0.89299 0.53718 0.0
C1192 C 0.65501 0.90752 0.62263 0.0
C1193 C 0.7021 0.87331 0.57338 0.0
C1194 C 0.69552 0.87062 0.63297 0.0
C1195 C 0.66557 0.88561 0.71851 0.0
C1196 C 0.64236 0.90341 0.74365 0.0
C1197 C 0.67209 0.88772 0.65828 0.0
C1198 C 0.62564 0.92294 0.70726 0.0
C1199 C 0.63177 0.9249 0.64765 0.0
H1200 H 0.86091 0.37111 0.34119 0.0
H1201 H 0.94307 0.32269 0.29948 0.0
H1202 H 0.94648 0.30415 0.39942 0.0
H1203 H 0.92831 0.30466 0.49978 0.0
H1204 H 0.84701 0.35382 0.54386 0.0
H1205 H 0.84059 0.3686 0.44156 0.0
C1206 C 0.87923 0.35609 0.3539 0.0
C1207 C 0.90191 0.34854 0.31333 0.0
C1208 C 0.88123 0.34576 0.41174 0.0
C1209 C 0.92564 0.32919 0.33026 0.0
C1210 C 0.92756 0.31854 0.38729 0.0
C1211 C 0.90911 0.31852 0.48693 0.0
C1212 C 0.88835 0.3284 0.52927 0.0
C1213 C 0.90589 0.32723 0.4286 0.0
C1214 C 0.86325 0.34586 0.51195 0.0
C1215 C 0.8597 0.35446 0.4536 0.0
H1216 H 0.32679 0.42373 0.56839 0.0
H1217 H 0.39208 0.3513 0.58429 0.0
H1218 H 0.38197 0.34784 0.68872 0.0
H1219 H 0.3559 0.36692 0.77701 0.0
H1220 H 0.2917 0.44016 0.76111 0.0
H1221 H 0.29966 0.44162 0.65556 0.0
C1222 C 0.33876 0.40718 0.59475 0.0
C1223 C 0.36016 0.3878 0.56851 0.0
C1224 C 0.33296 0.40545 0.65493 0.0
C1225 C 0.37524 0.36625 0.60321 0.0
C1226 C 0.3696 0.36437 0.66306 0.0
C1227 C 0.3436 0.38301 0.75013 0.0
C1228 C 0.32338 0.40354 0.7764 0.0
C1229 C 0.34868 0.38401 0.68955 0.0
C1230 C 0.30756 0.42437 0.74153 0.0
C1231 C 0.31211 0.42519 0.68132 0.0
H1232 H 0.43735 0.68818 0.31727 0.0
H1233 H 0.34433 0.66603 0.27874 0.0
H1234 H 0.33652 0.6505 0.38003 0.0
H1235 H 0.35715 0.64034 0.4784 0.0
H1236 H 0.45041 0.66243 0.51543 0.0
H1237 H 0.45711 0.68051 0.4159 0.0
C1238 C 0.41538 0.67984 0.3309 0.0
C1239 C 0.39158 0.67802 0.29016 0.0
C1240 C 0.41113 0.67071 0.38898 0.0
C1241 C 0.36305 0.66781 0.30909 0.0
C1242 C 0.35861 0.65876 0.367 0.0
C1243 C 0.37884 0.6494 0.46486 0.0
C1244 C 0.40337 0.64954 0.50429 0.0
C1245 C 0.38261 0.65975 0.4072 0.0
C1246 C 0.43134 0.66134 0.48578 0.0
C1247 C 0.43516 0.67187 0.42889 0.0
H1248 H 0.71426 0.62038 0.74242 0.0
H1249 H 0.62456 0.59614 0.80086 0.0
H1250 H 0.60669 0.595 0.7005 0.0
H1251 H 0.61616 0.60085 0.59677 0.0
H1252 H 0.70515 0.62581 0.53626 0.0
H1253 H 0.7236 0.62723 0.63695 0.0
C1254 C 0.69075 0.61511 0.73315 0.0
C1255 C 0.67086 0.608 0.77909 0.0
C1256 C 0.68051 0.61462 0.67511 0.0
C1257 C 0.64049 0.60108 0.76632 0.0
C1258 C 0.63019 0.60058 0.70897 0.0
C1259 C 0.63971 0.60618 0.60546 0.0
C1260 C 0.65933 0.61277 0.55908 0.0
C1261 C 0.65002 0.60708 0.66311 0.0
C1262 C 0.68958 0.62056 0.57125 0.0
C1263 C 0.70013 0.62135 0.62877 0.0
H1264 H 0.61334 0.31407 0.49776 0.0
H1265 H 0.60498 0.41068 0.46942 0.0
H1266 H 0.60889 0.40317 0.3648 0.0
H1267 H 0.61157 0.36944 0.28112 0.0
H1268 H 0.61804 0.27271 0.30611 0.0
H1269 H 0.61926 0.27992 0.41202 0.0
C1270 C 0.61264 0.3334 0.46854 0.0
C1271 C 0.60826 0.36284 0.49118 0.0
C1272 C 0.61481 0.32893 0.4079 0.0
C1273 C 0.60753 0.38773 0.45295 0.0
C1274 C 0.61001 0.38352 0.39313 0.0
C1275 C 0.61331 0.34991 0.30972 0.0
C1276 C 0.61416 0.32053 0.28588 0.0
C1277 C 0.6131 0.35424 0.37011 0.0
C1278 C 0.61732 0.29553 0.32345 0.0
C1279 C 0.61773 0.29966 0.384 0.0
H1280 H 0.86448 0.62714 0.03568 0.0
H1281 H 0.77489 0.59124 0.06206 0.0
H1282 H 0.78316 0.59046 0.1678 0.0
H1283 H 0.8168 0.5991 0.25301 0.0
H1284 H 0.90619 0.63539 0.22557 0.0
H1285 H 0.89712 0.63757 0.12045 0.0
C1286 C 0.84684 0.61926 0.06483 0.0
C1287 C 0.8192 0.60919 0.04165 0.0
C1288 C 0.85174 0.61909 0.12535 0.0
C1289 C 0.7963 0.5992 0.07941 0.0
C1290 C 0.80106 0.59869 0.1397 0.0
C1291 C 0.83413 0.6075 0.22373 0.0
C1292 C 0.86222 0.61681 0.24633 0.0
C1293 C 0.82877 0.60845 0.16322 0.0
C1294 C 0.88458 0.62779 0.20854 0.0
C1295 C 0.87938 0.62906 0.14862 0.0
H1296 H 0.64903 0.14706 0.83132 0.0
H1297 H 0.55516 0.17004 0.8026 0.0
H1298 H 0.55027 0.18572 0.90411 0.0
H1299 H 0.57199 0.19133 1.00192 0.0
H1300 H 0.66584 0.16881 1.0313 0.0
H1301 H 0.67154 0.15521 0.92849 0.0
C1302 C 0.62761 0.15589 0.847 0.0
C1303 C 0.6024 0.15692 0.80933 0.0
C1304 C 0.62492 0.16495 0.90564 0.0
C1305 C 0.57478 0.16832 0.83075 0.0
C1306 C 0.57198 0.17746 0.88881 0.0
C1307 C 0.59367 0.18331 0.9859 0.0
C1308 C 0.61837 0.18088 1.02444 0.0
C1309 C 0.59675 0.17543 0.92685 0.0
C1310 C 0.64648 0.17105 1.00261 0.0
C1311 C 0.64972 0.16313 0.94384 0.0
H1312 H 0.15751 0.43809 0.23825 0.0
H1313 H 0.15155 0.34051 0.24952 0.0
H1314 H 0.16674 0.33595 0.14731 0.0
H1315 H 0.17873 0.36023 0.05223 0.0
H1316 H 0.18261 0.45803 0.04258 0.0
H1317 H 0.17089 0.46194 0.14593 0.0
C1318 C 0.15942 0.41581 0.21833 0.0
C1319 C 0.15308 0.38974 0.25141 0.0
C1320 C 0.16762 0.4134 0.15944 0.0
C1321 C 0.15644 0.361 0.22521 0.0
C1322 C 0.16493 0.35837 0.16658 0.0
C1323 C 0.17727 0.38231 0.07306 0.0
C1324 C 0.18125 0.40883 0.03962 0.0
C1325 C 0.17017 0.38447 0.13291 0.0
C1326 C 0.17918 0.43731 0.06713 0.0
C1327 C 0.17259 0.43959 0.12631 0.0
H1328 H 0.43468 0.82915 1.00962 0.0
H1329 H 0.3377 0.83388 1.02921 0.0
H1330 H 0.33246 0.84849 0.92681 0.0
H1331 H 0.35572 0.86201 0.83256 0.0
H1332 H 0.45274 0.85529 0.81305 0.0
H1333 H 0.45759 0.83994 0.91449 0.0
C1334 C 0.41239 0.83351 0.99157 0.0
C1335 C 0.38666 0.83062 1.02732 0.0
C1336 C 0.40954 0.8418 0.93262 0.0
C1337 C 0.3579 0.83578 1.00276 0.0
C1338 C 0.3549 0.84427 0.9442 0.0
C1339 C 0.37792 0.85684 0.85016 0.0
C1340 C 0.40386 0.86039 0.81493 0.0
C1341 C 0.38059 0.84756 0.90875 0.0
C1342 C 0.4324 0.85365 0.83912 0.0
C1343 C 0.43522 0.8446 0.89721 0.0
H1344 H 0.86545 0.90862 0.28912 0.0
H1345 H 0.77403 0.87668 0.26456 0.0
H1346 H 0.78201 0.87435 0.15944 0.0
H1347 H 0.81443 0.88382 0.0733 0.0
H1348 H 0.90578 0.91599 0.09949 0.0
H1349 H 0.89802 0.91652 0.20445 0.0
C1350 C 0.84706 0.90144 0.26096 0.0
C1351 C 0.81886 0.89346 0.28532 0.0
C1352 C 0.85174 0.90047 0.20033 0.0
C1353 C 0.79588 0.88313 0.24759 0.0
C1354 C 0.80041 0.88192 0.18718 0.0
C1355 C 0.83268 0.89077 0.10201 0.0
C1356 C 0.86054 0.90028 0.07813 0.0
C1357 C 0.82815 0.8909 0.1629 0.0
C1358 C 0.88387 0.90927 0.11625 0.0
C1359 C 0.87956 0.90934 0.1765 0.0
H1360 H 0.90673 0.11921 0.96172 0.0
H1361 H 0.87495 0.20679 1.01976 0.0
H1362 H 0.87459 0.22505 0.91865 0.0
H1363 H 0.88567 0.21623 0.81355 0.0
H1364 H 0.91729 0.12779 0.75893 0.0
H1365 H 0.91564 0.10988 0.85901 0.0
C1366 C 0.89996 0.1424 0.95237 0.0
C1367 C 0.89125 0.1617 0.99808 0.0
C1368 C 0.89985 0.15259 0.89468 0.0
C1369 C 0.88176 0.19147 0.98517 0.0
C1370 C 0.88163 0.2019 0.92744 0.0
C1371 C 0.89181 0.19296 0.82359 0.0
C1372 C 0.90206 0.17354 0.7788 0.0
C1373 C 0.89084 0.18267 0.88174 0.0
C1374 C 0.90994 0.14342 0.79258 0.0
C1375 C 0.90892 0.13308 0.8498 0.0
H1376 H 0.1593 0.0711 0.07975 0.0
H1377 H 0.15361 0.16864 0.06594 0.0
H1378 H 0.1666 0.17378 0.16916 0.0
H1379 H 0.1755 0.15011 0.26516 0.0
H1380 H 0.17961 0.05237 0.27806 0.0
H1381 H 0.17064 0.04771 0.17365 0.0
C1382 C 0.16094 0.09348 0.09937 0.0
C1383 C 0.15515 0.11941 0.06559 0.0
C1384 C 0.16769 0.0962 0.15874 0.0
C1385 C 0.15808 0.14832 0.09109 0.0
C1386 C 0.16524 0.15126 0.15018 0.0
C1387 C 0.17471 0.12784 0.24491 0.0
C1388 C 0.17782 0.1016 0.27934 0.0
C1389 C 0.16947 0.1253 0.18471 0.0
C1390 C 0.17663 0.07287 0.25265 0.0
C1391 C 0.17173 0.07019 0.19292 0.0
H1392 H 0.12568 0.7967 0.81896 0.0
H1393 H 0.08656 0.88186 0.76336 0.0
H1394 H 0.08605 0.89989 0.86362 0.0
H1395 H 0.09707 0.89206 0.96682 0.0
H1396 H 0.13804 0.80811 1.02331 0.0
H1397 H 0.138 0.78933 0.92296 0.0
C1398 C 0.11734 0.81932 0.82861 0.0
C1399 C 0.10584 0.83769 0.78338 0.0
C1400 C 0.11748 0.82984 0.88659 0.0
C1401 C 0.0949 0.86688 0.79714 0.0
C1402 C 0.09479 0.87735 0.85454 0.0
C1403 C 0.10567 0.8695 0.95737 0.0
C1404 C 0.11721 0.85143 1.00275 0.0
C1405 C 0.10587 0.85901 0.8996 0.0
C1406 C 0.12903 0.82255 0.98929 0.0
C1407 C 0.12897 0.81177 0.93188 0.0
loop_
_geom_bond_atom_site_label_1
_geom_bond_atom_site_label_2
_geom_bond_distance
_geom_bond_site_symmetry_2
_ccdc_geom_bond_type
Pr0 C2 2.880 . S
Pr0 O20 2.562 . S
Pr0 O21 2.490 . S
Pr0 O22 2.695 . S
Pr0 O23 2.512 . S
Pr0 O25 2.437 . S
Pr0 O28 2.436 . S
Pr0 O30 2.438 . S
Pr1 C11 2.880 1_554 S
Pr1 O22 2.436 . S
Pr1 O24 2.438 . S
Pr1 O26 2.562 1_554 S
Pr1 O27 2.490 1_554 S
Pr1 O28 2.695 . S
Pr1 O29 2.512 . S
Pr1 O31 2.437 . S
C2 Pr0 2.880 . S
C2 C3 1.491 . S
C2 O20 1.254 . S
C2 O21 1.225 . S
C3 C2 1.491 . S
C3 C4 1.392 . S
C3 C8 1.356 . S
C4 C3 1.392 . S
C4 C5 1.368 . S
C4 H32 0.929 . S
C5 C4 1.368 . S
C5 C6 1.386 . S
C5 H33 0.929 . S
C6 C5 1.386 . S
C6 C7 1.373 . S
C7 C6 1.373 . S
C7 C8 1.409 . S
C7 H34 0.931 . S
C8 C3 1.356 . S
C8 C7 1.409 . S
C8 H35 0.930 . S
C9 O22 1.270 . S
C9 O23 1.248 . S
C10 O24 1.267 . S
C10 O25 1.278 . S
C11 Pr1 2.880 1_556 S
C11 C12 1.491 . S
C11 O26 1.254 . S
C11 O27 1.225 . S
C12 C11 1.491 . S
C12 C13 1.392 . S
C12 C17 1.356 . S
C13 C12 1.392 . S
C13 C14 1.368 . S
C13 H36 0.929 . S
C14 C13 1.368 . S
C14 C15 1.386 . S
C14 H37 0.929 . S
C15 C14 1.386 . S
C15 C16 1.373 . S
C16 C15 1.373 . S
C16 C17 1.409 . S
C16 H38 0.931 . S
C17 C12 1.356 . S
C17 C16 1.409 . S
C17 H39 0.930 . S
C18 O28 1.270 . S
C18 O29 1.248 . S
C19 O30 1.267 . S
C19 O31 1.278 . S
O20 Pr0 2.562 . S
O20 C2 1.254 . S
O21 Pr0 2.490 . S
O21 C2 1.225 . S
O22 Pr0 2.695 . S
O22 Pr1 2.436 . S
O22 C9 1.270 . S
O23 Pr0 2.512 . S
O23 C9 1.248 . S
O24 Pr1 2.438 . S
O24 C10 1.267 . S
O25 Pr0 2.437 . S
O25 C10 1.278 . S
O26 Pr1 2.562 1_556 S
O26 C11 1.254 . S
O27 Pr1 2.490 1_556 S
O27 C11 1.225 . S
O28 Pr0 2.436 . S
O28 Pr1 2.695 . S
O28 C18 1.270 . S
O29 Pr1 2.512 . S
O29 C18 1.248 . S
O30 Pr0 2.438 . S
O30 C19 1.267 . S
O31 Pr1 2.437 . S
O31 C19 1.278 . S
H32 C4 0.929 . S
H33 C5 0.929 . S
H34 C7 0.931 . S
H35 C8 0.930 . S
H36 C13 0.929 . S
H37 C14 0.929 . S
H38 C16 0.931 . S
H39 C17 0.930 . S
Pr40 C42 2.880 1_556 S
Pr40 O60 2.562 1_556 S
Pr40 O61 2.490 1_556 S
Pr40 O62 2.695 . S
Pr40 O63 2.512 . S
Pr40 O65 2.437 . S
Pr40 O68 2.436 . S
Pr40 O70 2.438 . S
Pr41 C51 2.880 . S
Pr41 O62 2.436 . S
Pr41 O64 2.438 . S
Pr41 O66 2.562 . S
Pr41 O67 2.490 . S
Pr41 O68 2.695 . S
Pr41 O69 2.512 . S
Pr41 O71 2.437 . S
C42 Pr40 2.880 1_554 S
C42 C43 1.491 . S
C42 O60 1.254 . S
C42 O61 1.225 . S
C43 C42 1.491 . S
C43 C44 1.392 . S
C43 C48 1.356 . S
C44 C43 1.392 . S
C44 C45 1.368 . S
C44 H72 0.929 . S
C45 C44 1.368 . S
C45 C46 1.386 . S
C45 H73 0.929 . S
C46 C45 1.386 . S
C46 C47 1.373 . S
C47 C46 1.373 . S
C47 C48 1.409 . S
C47 H74 0.931 . S
C48 C43 1.356 . S
C48 C47 1.409 . S
C48 H75 0.930 . S
C49 O62 1.270 . S
C49 O63 1.248 . S
C50 O64 1.267 . S
C50 O65 1.278 . S
C51 Pr41 2.880 . S
C51 C52 1.491 . S
C51 O66 1.254 . S
C51 O67 1.225 . S
C52 C51 1.491 . S
C52 C53 1.392 . S
C52 C57 1.356 . S
C53 C52 1.392 . S
C53 C54 1.368 . S
C53 H76 0.929 . S
C54 C53 1.368 . S
C54 C55 1.386 . S
C54 H77 0.929 . S
C55 C54 1.386 . S
C55 C56 1.373 . S
C56 C55 1.373 . S
C56 C57 1.409 . S
C56 H78 0.931 . S
C57 C52 1.356 . S
C57 C56 1.409 . S
C57 H79 0.930 . S
C58 O68 1.270 . S
C58 O69 1.248 . S
C59 O70 1.267 . S
C59 O71 1.278 . S
O60 Pr40 2.562 1_554 S
O60 C42 1.254 . S
O61 Pr40 2.490 1_554 S
O61 C42 1.225 . S
O62 Pr40 2.695 . S
O62 Pr41 2.436 . S
O62 C49 1.270 . S
O63 Pr40 2.512 . S
O63 C49 1.248 . S
O64 Pr41 2.438 . S
O64 C50 1.267 . S
O65 Pr40 2.437 . S
O65 C50 1.278 . S
O66 Pr41 2.562 . S
O66 C51 1.254 . S
O67 Pr41 2.490 . S
O67 C51 1.225 . S
O68 Pr40 2.436 . S
O68 Pr41 2.695 . S
O68 C58 1.270 . S
O69 Pr41 2.512 . S
O69 C58 1.248 . S
O70 Pr40 2.438 . S
O70 C59 1.267 . S
O71 Pr41 2.437 . S
O71 C59 1.278 . S
H72 C44 0.929 . S
H73 C45 0.929 . S
H74 C47 0.931 . S
H75 C48 0.930 . S
H76 C53 0.929 . S
H77 C54 0.929 . S
H78 C56 0.931 . S
H79 C57 0.930 . S
Pr80 C82 2.880 . S
Pr80 O100 2.562 . S
Pr80 O101 2.490 . S
Pr80 O102 2.695 . S
Pr80 O103 2.512 . S
Pr80 O105 2.437 . S
Pr80 O108 2.436 . S
Pr80 O110 2.438 . S
Pr81 C91 2.880 1_554 S
Pr81 O102 2.436 . S
Pr81 O104 2.438 . S
Pr81 O106 2.562 1_554 S
Pr81 O107 2.490 1_554 S
Pr81 O108 2.695 . S
Pr81 O109 2.512 . S
Pr81 O111 2.437 . S
C82 Pr80 2.880 . S
C82 C83 1.491 . S
C82 O100 1.254 . S
C82 O101 1.225 . S
C83 C82 1.491 . S
C83 C84 1.392 . S
C83 C88 1.356 . S
C84 C83 1.392 . S
C84 C85 1.368 . S
C84 H112 0.929 . S
C85 C84 1.368 . S
C85 C86 1.386 . S
C85 H113 0.929 . S
C86 C85 1.386 . S
C86 C87 1.373 . S
C87 C86 1.373 . S
C87 C88 1.409 . S
C87 H114 0.931 . S
C88 C83 1.356 . S
C88 C87 1.409 . S
C88 H115 0.930 . S
C89 O102 1.270 . S
C89 O103 1.248 . S
C90 O104 1.267 . S
C90 O105 1.278 . S
C91 Pr81 2.880 1_556 S
C91 C92 1.491 . S
C91 O106 1.254 . S
C91 O107 1.225 . S
C92 C91 1.491 . S
C92 C93 1.392 . S
C92 C97 1.356 . S
C93 C92 1.392 . S
C93 C94 1.368 . S
C93 H116 0.929 . S
C94 C93 1.368 . S
C94 C95 1.386 . S
C94 H117 0.929 . S
C95 C94 1.386 . S
C95 C96 1.373 . S
C96 C95 1.373 . S
C96 C97 1.409 . S
C96 H118 0.931 . S
C97 C92 1.356 . S
C97 C96 1.409 . S
C97 H119 0.930 . S
C98 O108 1.270 . S
C98 O109 1.248 . S
C99 O110 1.267 . S
C99 O111 1.278 . S
O100 Pr80 2.562 . S
O100 C82 1.254 . S
O101 Pr80 2.490 . S
O101 C82 1.225 . S
O102 Pr80 2.695 . S
O102 Pr81 2.436 . S
O102 C89 1.270 . S
O103 Pr80 2.512 . S
O103 C89 1.248 . S
O104 Pr81 2.438 . S
O104 C90 1.267 . S
O105 Pr80 2.437 . S
O105 C90 1.278 . S
O106 Pr81 2.562 1_556 S
O106 C91 1.254 . S
O107 Pr81 2.490 1_556 S
O107 C91 1.225 . S
O108 Pr80 2.436 . S
O108 Pr81 2.695 . S
O108 C98 1.270 . S
O109 Pr81 2.512 . S
O109 C98 1.248 . S
O110 Pr80 2.438 . S
O110 C99 1.267 . S
O111 Pr81 2.437 . S
O111 C99 1.278 . S
H112 C84 0.929 . S
H113 C85 0.929 . S
H114 C87 0.931 . S
H115 C88 0.930 . S
H116 C93 0.929 . S
H117 C94 0.929 . S
H118 C96 0.931 . S
H119 C97 0.930 . S
Pr120 C122 2.880 1_556 S
Pr120 O140 2.562 1_556 S
Pr120 O141 2.490 1_556 S
Pr120 O142 2.695 . S
Pr120 O143 2.512 . S
Pr120 O145 2.437 . S
Pr120 O148 2.436 . S
Pr120 O150 2.438 . S
Pr121 C131 2.880 . S
Pr121 O142 2.436 . S
Pr121 O144 2.438 . S
Pr121 O146 2.562 . S
Pr121 O147 2.490 . S
Pr121 O148 2.695 . S
Pr121 O149 2.512 . S
Pr121 O151 2.437 . S
C122 Pr120 2.880 1_554 S
C122 C123 1.491 . S
C122 O140 1.254 . S
C122 O141 1.225 . S
C123 C122 1.491 . S
C123 C124 1.392 . S
C123 C128 1.356 . S
C124 C123 1.392 . S
C124 C125 1.368 . S
C124 H152 0.929 . S
C125 C124 1.368 . S
C125 C126 1.386 . S
C125 H153 0.929 . S
C126 C125 1.386 . S
C126 C127 1.373 . S
C127 C126 1.373 . S
C127 C128 1.409 . S
C127 H154 0.931 . S
C128 C123 1.356 . S
C128 C127 1.409 . S
C128 H155 0.930 . S
C129 O142 1.270 . S
C129 O143 1.248 . S
C130 O144 1.267 . S
C130 O145 1.278 . S
C131 Pr121 2.880 . S
C131 C132 1.491 . S
C131 O146 1.254 . S
C131 O147 1.225 . S
C132 C131 1.491 . S
C132 C133 1.392 . S
C132 C137 1.356 . S
C133 C132 1.392 . S
C133 C134 1.368 . S
C133 H156 0.929 . S
C134 C133 1.368 . S
C134 C135 1.386 . S
C134 H157 0.929 . S
C135 C134 1.386 . S
C135 C136 1.373 . S
C136 C135 1.373 . S
C136 C137 1.409 . S
C136 H158 0.931 . S
C137 C132 1.356 . S
C137 C136 1.409 . S
C137 H159 0.930 . S
C138 O148 1.270 . S
C138 O149 1.248 . S
C139 O150 1.267 . S
C139 O151 1.278 . S
O140 Pr120 2.562 1_554 S
O140 C122 1.254 . S
O141 Pr120 2.490 1_554 S
O141 C122 1.225 . S
O142 Pr120 2.695 . S
O142 Pr121 2.436 . S
O142 C129 1.270 . S
O143 Pr120 2.512 . S
O143 C129 1.248 . S
O144 Pr121 2.438 . S
O144 C130 1.267 . S
O145 Pr120 2.437 . S
O145 C130 1.278 . S
O146 Pr121 2.562 . S
O146 C131 1.254 . S
O147 Pr121 2.490 . S
O147 C131 1.225 . S
O148 Pr120 2.436 . S
O148 Pr121 2.695 . S
O148 C138 1.270 . S
O149 Pr121 2.512 . S
O149 C138 1.248 . S
O150 Pr120 2.438 . S
O150 C139 1.267 . S
O151 Pr121 2.437 . S
O151 C139 1.278 . S
H152 C124 0.929 . S
H153 C125 0.929 . S
H154 C127 0.931 . S
H155 C128 0.930 . S
H156 C133 0.929 . S
H157 C134 0.929 . S
H158 C136 0.931 . S
H159 C137 0.930 . S
Pr160 C162 2.880 1_554 S
Pr160 O180 2.562 1_554 S
Pr160 O181 2.490 1_554 S
Pr160 O182 2.695 . S
Pr160 O183 2.512 . S
Pr160 O185 2.437 . S
Pr160 O188 2.436 . S
Pr160 O190 2.438 . S
Pr161 C171 2.880 . S
Pr161 O182 2.436 . S
Pr161 O184 2.438 . S
Pr161 O186 2.562 . S
Pr161 O187 2.490 . S
Pr161 O188 2.695 . S
Pr161 O189 2.512 . S
Pr161 O191 2.437 . S
C162 Pr160 2.880 1_556 S
C162 C163 1.491 . S
C162 O180 1.254 . S
C162 O181 1.225 . S
C163 C162 1.491 . S
C163 C164 1.392 . S
C163 C168 1.356 . S
C164 C163 1.392 . S
C164 C165 1.368 . S
C164 H192 0.929 . S
C165 C164 1.368 . S
C165 C166 1.386 . S
C165 H193 0.929 . S
C166 C165 1.386 . S
C166 C167 1.373 . S
C167 C166 1.373 . S
C167 C168 1.409 . S
C167 H194 0.931 . S
C168 C163 1.356 . S
C168 C167 1.409 . S
C168 H195 0.930 . S
C169 O182 1.270 . S
C169 O183 1.248 . S
C170 O184 1.267 . S
C170 O185 1.278 . S
C171 Pr161 2.880 . S
C171 C172 1.491 . S
C171 O186 1.254 . S
C171 O187 1.225 . S
C172 C171 1.491 . S
C172 C173 1.392 . S
C172 C177 1.356 . S
C173 C172 1.392 . S
C173 C174 1.368 . S
C173 H196 0.929 . S
C174 C173 1.368 . S
C174 C175 1.386 . S
C174 H197 0.929 . S
C175 C174 1.386 . S
C175 C176 1.373 . S
C176 C175 1.373 . S
C176 C177 1.409 . S
C176 H198 0.931 . S
C177 C172 1.356 . S
C177 C176 1.409 . S
C177 H199 0.930 . S
C178 O188 1.270 . S
C178 O189 1.248 . S
C179 O190 1.267 . S
C179 O191 1.278 . S
O180 Pr160 2.562 1_556 S
O180 C162 1.254 . S
O181 Pr160 2.490 1_556 S
O181 C162 1.225 . S
O182 Pr160 2.695 . S
O182 Pr161 2.436 . S
O182 C169 1.270 . S
O183 Pr160 2.512 . S
O183 C169 1.248 . S
O184 Pr161 2.438 . S
O184 C170 1.267 . S
O185 Pr160 2.437 . S
O185 C170 1.278 . S
O186 Pr161 2.562 . S
O186 C171 1.254 . S
O187 Pr161 2.490 . S
O187 C171 1.225 . S
O188 Pr160 2.436 . S
O188 Pr161 2.695 . S
O188 C178 1.270 . S
O189 Pr161 2.512 . S
O189 C178 1.248 . S
O190 Pr160 2.438 . S
O190 C179 1.267 . S
O191 Pr161 2.437 . S
O191 C179 1.278 . S
H192 C164 0.929 . S
H193 C165 0.929 . S
H194 C167 0.931 . S
H195 C168 0.930 . S
H196 C173 0.929 . S
H197 C174 0.929 . S
H198 C176 0.931 . S
H199 C177 0.930 . S
Pr200 C202 2.880 . S
Pr200 O220 2.562 . S
Pr200 O221 2.490 . S
Pr200 O222 2.695 . S
Pr200 O223 2.512 . S
Pr200 O225 2.437 . S
Pr200 O228 2.436 . S
Pr200 O230 2.438 . S
Pr201 C211 2.880 1_556 S
Pr201 O222 2.436 . S
Pr201 O224 2.438 . S
Pr201 O226 2.562 1_556 S
Pr201 O227 2.490 1_556 S
Pr201 O228 2.695 . S
Pr201 O229 2.512 . S
Pr201 O231 2.437 . S
C202 Pr200 2.880 . S
C202 C203 1.491 . S
C202 O220 1.254 . S
C202 O221 1.225 . S
C203 C202 1.491 . S
C203 C204 1.392 . S
C203 C208 1.356 . S
C204 C203 1.392 . S
C204 C205 1.368 . S
C204 H232 0.929 . S
C205 C204 1.368 . S
C205 C206 1.386 . S
C205 H233 0.929 . S
C206 C205 1.386 . S
C206 C207 1.373 . S
C207 C206 1.373 . S
C207 C208 1.409 . S
C207 H234 0.931 . S
C208 C203 1.356 . S
C208 C207 1.409 . S
C208 H235 0.930 . S
C209 O222 1.270 . S
C209 O223 1.248 . S
C210 O224 1.267 . S
C210 O225 1.278 . S
C211 Pr201 2.880 1_554 S
C211 C212 1.491 . S
C211 O226 1.254 . S
C211 O227 1.225 . S
C212 C211 1.491 . S
C212 C213 1.392 . S
C212 C217 1.356 . S
C213 C212 1.392 . S
C213 C214 1.368 . S
C213 H236 0.929 . S
C214 C213 1.368 . S
C214 C215 1.386 . S
C214 H237 0.929 . S
C215 C214 1.386 . S
C215 C216 1.373 . S
C216 C215 1.373 . S
C216 C217 1.409 . S
C216 H238 0.931 . S
C217 C212 1.356 . S
C217 C216 1.409 . S
C217 H239 0.930 . S
C218 O228 1.270 . S
C218 O229 1.248 . S
C219 O230 1.267 . S
C219 O231 1.278 . S
O220 Pr200 2.562 . S
O220 C202 1.254 . S
O221 Pr200 2.490 . S
O221 C202 1.225 . S
O222 Pr200 2.695 . S
O222 Pr201 2.436 . S
O222 C209 1.270 . S
O223 Pr200 2.512 . S
O223 C209 1.248 . S
O224 Pr201 2.438 . S
O224 C210 1.267 . S
O225 Pr200 2.437 . S
O225 C210 1.278 . S
O226 Pr201 2.562 1_554 S
O226 C211 1.254 . S
O227 Pr201 2.490 1_554 S
O227 C211 1.225 . S
O228 Pr200 2.436 . S
O228 Pr201 2.695 . S
O228 C218 1.270 . S
O229 Pr201 2.512 . S
O229 C218 1.248 . S
O230 Pr200 2.438 . S
O230 C219 1.267 . S
O231 Pr201 2.437 . S
O231 C219 1.278 . S
H232 C204 0.929 . S
H233 C205 0.929 . S
H234 C207 0.931 . S
H235 C208 0.930 . S
H236 C213 0.929 . S
H237 C214 0.929 . S
H238 C216 0.931 . S
H239 C217 0.930 . S
Pr240 C242 2.880 1_554 S
Pr240 O260 2.562 1_554 S
Pr240 O261 2.490 1_554 S
Pr240 O262 2.695 . S
Pr240 O263 2.512 . S
Pr240 O265 2.437 . S
Pr240 O268 2.436 . S
Pr240 O270 2.438 . S
Pr241 C251 2.880 . S
Pr241 O262 2.436 . S
Pr241 O264 2.438 . S
Pr241 O266 2.562 . S
Pr241 O267 2.490 . S
Pr241 O268 2.695 . S
Pr241 O269 2.512 . S
Pr241 O271 2.437 . S
C242 Pr240 2.880 1_556 S
C242 C243 1.491 . S
C242 O260 1.254 . S
C242 O261 1.225 . S
C243 C242 1.491 . S
C243 C244 1.392 . S
C243 C248 1.356 . S
C244 C243 1.392 . S
C244 C245 1.368 . S
C244 H272 0.929 . S
C245 C244 1.368 . S
C245 C246 1.386 . S
C245 H273 0.929 . S
C246 C245 1.386 . S
C246 C247 1.373 . S
C247 C246 1.373 . S
C247 C248 1.409 . S
C247 H274 0.931 . S
C248 C243 1.356 . S
C248 C247 1.409 . S
C248 H275 0.930 . S
C249 O262 1.270 . S
C249 O263 1.248 . S
C250 O264 1.267 . S
C250 O265 1.278 . S
C251 Pr241 2.880 . S
C251 C252 1.491 . S
C251 O266 1.254 . S
C251 O267 1.225 . S
C252 C251 1.491 . S
C252 C253 1.392 . S
C252 C257 1.356 . S
C253 C252 1.392 . S
C253 C254 1.368 . S
C253 H276 0.929 . S
C254 C253 1.368 . S
C254 C255 1.386 . S
C254 H277 0.929 . S
C255 C254 1.386 . S
C255 C256 1.373 . S
C256 C255 1.373 . S
C256 C257 1.409 . S
C256 H278 0.931 . S
C257 C252 1.356 . S
C257 C256 1.409 . S
C257 H279 0.930 . S
C258 O268 1.270 . S
C258 O269 1.248 . S
C259 O270 1.267 . S
C259 O271 1.278 . S
O260 Pr240 2.562 1_556 S
O260 C242 1.254 . S
O261 Pr240 2.490 1_556 S
O261 C242 1.225 . S
O262 Pr240 2.695 . S
O262 Pr241 2.436 . S
O262 C249 1.270 . S
O263 Pr240 2.512 . S
O263 C249 1.248 . S
O264 Pr241 2.438 . S
O264 C250 1.267 . S
O265 Pr240 2.437 . S
O265 C250 1.278 . S
O266 Pr241 2.562 . S
O266 C251 1.254 . S
O267 Pr241 2.490 . S
O267 C251 1.225 . S
O268 Pr240 2.436 . S
O268 Pr241 2.695 . S
O268 C258 1.270 . S
O269 Pr241 2.512 . S
O269 C258 1.248 . S
O270 Pr240 2.438 . S
O270 C259 1.267 . S
O271 Pr241 2.437 . S
O271 C259 1.278 . S
H272 C244 0.929 . S
H273 C245 0.929 . S
H274 C247 0.931 . S
H275 C248 0.930 . S
H276 C253 0.929 . S
H277 C254 0.929 . S
H278 C256 0.931 . S
H279 C257 0.930 . S
Pr280 C282 2.880 . S
Pr280 O300 2.562 . S
Pr280 O301 2.490 . S
Pr280 O302 2.695 . S
Pr280 O303 2.512 . S
Pr280 O305 2.437 . S
Pr280 O308 2.436 . S
Pr280 O310 2.438 . S
Pr281 C291 2.880 1_556 S
Pr281 O302 2.436 . S
Pr281 O304 2.438 . S
Pr281 O306 2.562 1_556 S
Pr281 O307 2.490 1_556 S
Pr281 O308 2.695 . S
Pr281 O309 2.512 . S
Pr281 O311 2.437 . S
C282 Pr280 2.880 . S
C282 C283 1.491 . S
C282 O300 1.254 . S
C282 O301 1.225 . S
C283 C282 1.491 . S
C283 C284 1.392 . S
C283 C288 1.356 . S
C284 C283 1.392 . S
C284 C285 1.368 . S
C284 H312 0.929 . S
C285 C284 1.368 . S
C285 C286 1.386 . S
C285 H313 0.929 . S
C286 C285 1.386 . S
C286 C287 1.373 . S
C287 C286 1.373 . S
C287 C288 1.409 . S
C287 H314 0.931 . S
C288 C283 1.356 . S
C288 C287 1.409 . S
C288 H315 0.930 . S
C289 O302 1.270 . S
C289 O303 1.248 . S
C290 O304 1.267 . S
C290 O305 1.278 . S
C291 Pr281 2.880 1_554 S
C291 C292 1.491 . S
C291 O306 1.254 . S
C291 O307 1.225 . S
C292 C291 1.491 . S
C292 C293 1.392 . S
C292 C297 1.356 . S
C293 C292 1.392 . S
C293 C294 1.368 . S
C293 H316 0.929 . S
C294 C293 1.368 . S
C294 C295 1.386 . S
C294 H317 0.929 . S
C295 C294 1.386 . S
C295 C296 1.373 . S
C296 C295 1.373 . S
C296 C297 1.409 . S
C296 H318 0.931 . S
C297 C292 1.356 . S
C297 C296 1.409 . S
C297 H319 0.930 . S
C298 O308 1.270 . S
C298 O309 1.248 . S
C299 O310 1.267 . S
C299 O311 1.278 . S
O300 Pr280 2.562 . S
O300 C282 1.254 . S
O301 Pr280 2.490 . S
O301 C282 1.225 . S
O302 Pr280 2.695 . S
O302 Pr281 2.436 . S
O302 C289 1.270 . S
O303 Pr280 2.512 . S
O303 C289 1.248 . S
O304 Pr281 2.438 . S
O304 C290 1.267 . S
O305 Pr280 2.437 . S
O305 C290 1.278 . S
O306 Pr281 2.562 1_554 S
O306 C291 1.254 . S
O307 Pr281 2.490 1_554 S
O307 C291 1.225 . S
O308 Pr280 2.436 . S
O308 Pr281 2.695 . S
O308 C298 1.270 . S
O309 Pr281 2.512 . S
O309 C298 1.248 . S
O310 Pr280 2.438 . S
O310 C299 1.267 . S
O311 Pr281 2.437 . S
O311 C299 1.278 . S
H312 C284 0.929 . S
H313 C285 0.929 . S
H314 C287 0.931 . S
H315 C288 0.930 . S
H316 C293 0.929 . S
H317 C294 0.929 . S
H318 C296 0.931 . S
H319 C297 0.930 . S
Pr320 C322 2.880 . S
Pr320 O340 2.562 . S
Pr320 O341 2.490 . S
Pr320 O342 2.695 . S
Pr320 O343 2.512 . S
Pr320 O345 2.437 . S
Pr320 O348 2.436 . S
Pr320 O350 2.438 . S
Pr321 C331 2.880 . S
Pr321 O342 2.436 . S
Pr321 O344 2.438 . S
Pr321 O346 2.562 . S
Pr321 O347 2.490 . S
Pr321 O348 2.695 . S
Pr321 O349 2.512 . S
Pr321 O351 2.437 . S
C322 Pr320 2.880 . S
C322 C323 1.491 . S
C322 O340 1.254 . S
C322 O341 1.225 . S
C323 C322 1.491 . S
C323 C324 1.392 . S
C323 C328 1.356 . S
C324 C323 1.392 . S
C324 C325 1.368 . S
C324 H352 0.929 . S
C325 C324 1.368 . S
C325 C326 1.386 . S
C325 H353 0.929 . S
C326 C325 1.386 . S
C326 C327 1.373 . S
C327 C326 1.373 . S
C327 C328 1.409 . S
C327 H354 0.931 . S
C328 C323 1.356 . S
C328 C327 1.409 . S
C328 H355 0.930 . S
C329 O342 1.270 . S
C329 O343 1.248 . S
C330 O344 1.267 . S
C330 O345 1.278 . S
C331 Pr321 2.880 . S
C331 C332 1.491 . S
C331 O346 1.254 . S
C331 O347 1.225 . S
C332 C331 1.491 . S
C332 C333 1.392 . S
C332 C337 1.356 . S
C333 C332 1.392 . S
C333 C334 1.368 . S
C333 H356 0.929 . S
C334 C333 1.368 . S
C334 C335 1.386 . S
C334 H357 0.929 . S
C335 C334 1.386 . S
C335 C336 1.373 . S
C336 C335 1.373 . S
C336 C337 1.409 . S
C336 H358 0.931 . S
C337 C332 1.356 . S
C337 C336 1.409 . S
C337 H359 0.930 . S
C338 O348 1.270 . S
C338 O349 1.248 . S
C339 O350 1.267 . S
C339 O351 1.278 . S
O340 Pr320 2.562 . S
O340 C322 1.254 . S
O341 Pr320 2.490 . S
O341 C322 1.225 . S
O342 Pr320 2.695 . S
O342 Pr321 2.436 . S
O342 C329 1.270 . S
O343 Pr320 2.512 . S
O343 C329 1.248 . S
O344 Pr321 2.438 . S
O344 C330 1.267 . S
O345 Pr320 2.437 . S
O345 C330 1.278 . S
O346 Pr321 2.562 . S
O346 C331 1.254 . S
O347 Pr321 2.490 . S
O347 C331 1.225 . S
O348 Pr320 2.436 . S
O348 Pr321 2.695 . S
O348 C338 1.270 . S
O349 Pr321 2.512 . S
O349 C338 1.248 . S
O350 Pr320 2.438 . S
O350 C339 1.267 . S
O351 Pr321 2.437 . S
O351 C339 1.278 . S
H352 C324 0.929 . S
H353 C325 0.929 . S
H354 C327 0.931 . S
H355 C328 0.930 . S
H356 C333 0.929 . S
H357 C334 0.929 . S
H358 C336 0.931 . S
H359 C337 0.930 . S
Pr360 C362 2.880 . S
Pr360 O380 2.562 . S
Pr360 O381 2.490 . S
Pr360 O382 2.695 . S
Pr360 O383 2.512 . S
Pr360 O385 2.437 . S
Pr360 O388 2.436 . S
Pr360 O390 2.438 . S
Pr361 C371 2.880 . S
Pr361 O382 2.436 . S
Pr361 O384 2.438 . S
Pr361 O386 2.562 . S
Pr361 O387 2.490 . S
Pr361 O388 2.695 . S
Pr361 O389 2.512 . S
Pr361 O391 2.437 . S
C362 Pr360 2.880 . S
C362 C363 1.491 . S
C362 O380 1.254 . S
C362 O381 1.225 . S
C363 C362 1.491 . S
C363 C364 1.392 . S
C363 C368 1.356 . S
C364 C363 1.392 . S
C364 C365 1.368 . S
C364 H392 0.929 . S
C365 C364 1.368 . S
C365 C366 1.386 . S
C365 H393 0.929 . S
C366 C365 1.386 . S
C366 C367 1.373 . S
C367 C366 1.373 . S
C367 C368 1.409 . S
C367 H394 0.931 . S
C368 C363 1.356 . S
C368 C367 1.409 . S
C368 H395 0.930 . S
C369 O382 1.270 . S
C369 O383 1.248 . S
C370 O384 1.267 . S
C370 O385 1.278 . S
C371 Pr361 2.880 . S
C371 C372 1.491 . S
C371 O386 1.254 . S
C371 O387 1.225 . S
C372 C371 1.491 . S
C372 C373 1.392 . S
C372 C377 1.356 . S
C373 C372 1.392 . S
C373 C374 1.368 . S
C373 H396 0.929 . S
C374 C373 1.368 . S
C374 C375 1.386 . S
C374 H397 0.929 . S
C375 C374 1.386 . S
C375 C376 1.373 . S
C376 C375 1.373 . S
C376 C377 1.409 . S
C376 H398 0.931 . S
C377 C372 1.356 . S
C377 C376 1.409 . S
C377 H399 0.930 . S
C378 O388 1.270 . S
C378 O389 1.248 . S
C379 O390 1.267 . S
C379 O391 1.278 . S
O380 Pr360 2.562 . S
O380 C362 1.254 . S
O381 Pr360 2.490 . S
O381 C362 1.225 . S
O382 Pr360 2.695 . S
O382 Pr361 2.436 . S
O382 C369 1.270 . S
O383 Pr360 2.512 . S
O383 C369 1.248 . S
O384 Pr361 2.438 . S
O384 C370 1.267 . S
O385 Pr360 2.437 . S
O385 C370 1.278 . S
O386 Pr361 2.562 . S
O386 C371 1.254 . S
O387 Pr361 2.490 . S
O387 C371 1.225 . S
O388 Pr360 2.436 . S
O388 Pr361 2.695 . S
O388 C378 1.270 . S
O389 Pr361 2.512 . S
O389 C378 1.248 . S
O390 Pr360 2.438 . S
O390 C379 1.267 . S
O391 Pr361 2.437 . S
O391 C379 1.278 . S
H392 C364 0.929 . S
H393 C365 0.929 . S
H394 C367 0.931 . S
H395 C368 0.930 . S
H396 C373 0.929 . S
H397 C374 0.929 . S
H398 C376 0.931 . S
H399 C377 0.930 . S
Pr400 C402 2.880 . S
Pr400 O420 2.562 . S
Pr400 O421 2.490 . S
Pr400 O422 2.695 . S
Pr400 O423 2.512 . S
Pr400 O425 2.437 . S
Pr400 O428 2.436 . S
Pr400 O430 2.438 . S
Pr401 C411 2.880 . S
Pr401 O422 2.436 . S
Pr401 O424 2.438 . S
Pr401 O426 2.562 . S
Pr401 O427 2.490 . S
Pr401 O428 2.695 . S
Pr401 O429 2.512 . S
Pr401 O431 2.437 . S
C402 Pr400 2.880 . S
C402 C403 1.491 . S
C402 O420 1.254 . S
C402 O421 1.225 . S
C403 C402 1.491 . S
C403 C404 1.392 . S
C403 C408 1.356 . S
C404 C403 1.392 . S
C404 C405 1.368 . S
C404 H432 0.929 . S
C405 C404 1.368 . S
C405 C406 1.386 . S
C405 H433 0.929 . S
C406 C405 1.386 . S
C406 C407 1.373 . S
C407 C406 1.373 . S
C407 C408 1.409 . S
C407 H434 0.931 . S
C408 C403 1.356 . S
C408 C407 1.409 . S
C408 H435 0.930 . S
C409 O422 1.270 . S
C409 O423 1.248 . S
C410 O424 1.267 . S
C410 O425 1.278 . S
C411 Pr401 2.880 . S
C411 C412 1.491 . S
C411 O426 1.254 . S
C411 O427 1.225 . S
C412 C411 1.491 . S
C412 C413 1.392 . S
C412 C417 1.356 . S
C413 C412 1.392 . S
C413 C414 1.368 . S
C413 H436 0.929 . S
C414 C413 1.368 . S
C414 C415 1.386 . S
C414 H437 0.929 . S
C415 C414 1.386 . S
C415 C416 1.373 . S
C416 C415 1.373 . S
C416 C417 1.409 . S
C416 H438 0.931 . S
C417 C412 1.356 . S
C417 C416 1.409 . S
C417 H439 0.930 . S
C418 O428 1.270 . S
C418 O429 1.248 . S
C419 O430 1.267 . S
C419 O431 1.278 . S
O420 Pr400 2.562 . S
O420 C402 1.254 . S
O421 Pr400 2.490 . S
O421 C402 1.225 . S
O422 Pr400 2.695 . S
O422 Pr401 2.436 . S
O422 C409 1.270 . S
O423 Pr400 2.512 . S
O423 C409 1.248 . S
O424 Pr401 2.438 . S
O424 C410 1.267 . S
O425 Pr400 2.437 . S
O425 C410 1.278 . S
O426 Pr401 2.562 . S
O426 C411 1.254 . S
O427 Pr401 2.490 . S
O427 C411 1.225 . S
O428 Pr400 2.436 . S
O428 Pr401 2.695 . S
O428 C418 1.270 . S
O429 Pr401 2.512 . S
O429 C418 1.248 . S
O430 Pr400 2.438 . S
O430 C419 1.267 . S
O431 Pr401 2.437 . S
O431 C419 1.278 . S
H432 C404 0.929 . S
H433 C405 0.929 . S
H434 C407 0.931 . S
H435 C408 0.930 . S
H436 C413 0.929 . S
H437 C414 0.929 . S
H438 C416 0.931 . S
H439 C417 0.930 . S
Pr440 C442 2.880 . S
Pr440 O460 2.562 . S
Pr440 O461 2.490 . S
Pr440 O462 2.695 . S
Pr440 O463 2.512 . S
Pr440 O465 2.437 . S
Pr440 O468 2.436 . S
Pr440 O470 2.438 . S
Pr441 C451 2.880 . S
Pr441 O462 2.436 . S
Pr441 O464 2.438 . S
Pr441 O466 2.562 . S
Pr441 O467 2.490 . S
Pr441 O468 2.695 . S
Pr441 O469 2.512 . S
Pr441 O471 2.437 . S
C442 Pr440 2.880 . S
C442 C443 1.491 . S
C442 O460 1.254 . S
C442 O461 1.225 . S
C443 C442 1.491 . S
C443 C444 1.392 . S
C443 C448 1.356 . S
C444 C443 1.392 . S
C444 C445 1.368 . S
C444 H472 0.929 . S
C445 C444 1.368 . S
C445 C446 1.386 . S
C445 H473 0.929 . S
C446 C445 1.386 . S
C446 C447 1.373 . S
C447 C446 1.373 . S
C447 C448 1.409 . S
C447 H474 0.931 . S
C448 C443 1.356 . S
C448 C447 1.409 . S
C448 H475 0.930 . S
C449 O462 1.270 . S
C449 O463 1.248 . S
C450 O464 1.267 . S
C450 O465 1.278 . S
C451 Pr441 2.880 . S
C451 C452 1.491 . S
C451 O466 1.254 . S
C451 O467 1.225 . S
C452 C451 1.491 . S
C452 C453 1.392 . S
C452 C457 1.356 . S
C453 C452 1.392 . S
C453 C454 1.368 . S
C453 H476 0.929 . S
C454 C453 1.368 . S
C454 C455 1.386 . S
C454 H477 0.929 . S
C455 C454 1.386 . S
C455 C456 1.373 . S
C456 C455 1.373 . S
C456 C457 1.409 . S
C456 H478 0.931 . S
C457 C452 1.356 . S
C457 C456 1.409 . S
C457 H479 0.930 . S
C458 O468 1.270 . S
C458 O469 1.248 . S
C459 O470 1.267 . S
C459 O471 1.278 . S
O460 Pr440 2.562 . S
O460 C442 1.254 . S
O461 Pr440 2.490 . S
O461 C442 1.225 . S
O462 Pr440 2.695 . S
O462 Pr441 2.436 . S
O462 C449 1.270 . S
O463 Pr440 2.512 . S
O463 C449 1.248 . S
O464 Pr441 2.438 . S
O464 C450 1.267 . S
O465 Pr440 2.437 . S
O465 C450 1.278 . S
O466 Pr441 2.562 . S
O466 C451 1.254 . S
O467 Pr441 2.490 . S
O467 C451 1.225 . S
O468 Pr440 2.436 . S
O468 Pr441 2.695 . S
O468 C458 1.270 . S
O469 Pr441 2.512 . S
O469 C458 1.248 . S
O470 Pr440 2.438 . S
O470 C459 1.267 . S
O471 Pr441 2.437 . S
O471 C459 1.278 . S
H472 C444 0.929 . S
H473 C445 0.929 . S
H474 C447 0.931 . S
H475 C448 0.930 . S
H476 C453 0.929 . S
H477 C454 0.929 . S
H478 C456 0.931 . S
H479 C457 0.930 . S
Pr480 C482 2.880 . S
Pr480 O500 2.562 . S
Pr480 O501 2.490 . S
Pr480 O502 2.695 . S
Pr480 O503 2.512 . S
Pr480 O505 2.437 . S
Pr480 O508 2.436 . S
Pr480 O510 2.438 . S
Pr481 C491 2.880 . S
Pr481 O502 2.436 . S
Pr481 O504 2.438 . S
Pr481 O506 2.562 . S
Pr481 O507 2.490 . S
Pr481 O508 2.695 . S
Pr481 O509 2.512 . S
Pr481 O511 2.437 . S
C482 Pr480 2.880 . S
C482 C483 1.491 . S
C482 O500 1.254 . S
C482 O501 1.225 . S
C483 C482 1.491 . S
C483 C484 1.392 . S
C483 C488 1.356 . S
C484 C483 1.392 . S
C484 C485 1.368 . S
C484 H512 0.929 . S
C485 C484 1.368 . S
C485 C486 1.386 . S
C485 H513 0.929 . S
C486 C485 1.386 . S
C486 C487 1.373 . S
C487 C486 1.373 . S
C487 C488 1.409 . S
C487 H514 0.931 . S
C488 C483 1.356 . S
C488 C487 1.409 . S
C488 H515 0.930 . S
C489 O502 1.270 . S
C489 O503 1.248 . S
C490 O504 1.267 . S
C490 O505 1.278 . S
C491 Pr481 2.880 . S
C491 C492 1.491 . S
C491 O506 1.254 . S
C491 O507 1.225 . S
C492 C491 1.491 . S
C492 C493 1.392 . S
C492 C497 1.356 . S
C493 C492 1.392 . S
C493 C494 1.368 . S
C493 H516 0.929 . S
C494 C493 1.368 . S
C494 C495 1.386 . S
C494 H517 0.929 . S
C495 C494 1.386 . S
C495 C496 1.373 . S
C496 C495 1.373 . S
C496 C497 1.409 . S
C496 H518 0.931 . S
C497 C492 1.356 . S
C497 C496 1.409 . S
C497 H519 0.930 . S
C498 O508 1.270 . S
C498 O509 1.248 . S
C499 O510 1.267 . S
C499 O511 1.278 . S
O500 Pr480 2.562 . S
O500 C482 1.254 . S
O501 Pr480 2.490 . S
O501 C482 1.225 . S
O502 Pr480 2.695 . S
O502 Pr481 2.436 . S
O502 C489 1.270 . S
O503 Pr480 2.512 . S
O503 C489 1.248 . S
O504 Pr481 2.438 . S
O504 C490 1.267 . S
O505 Pr480 2.437 . S
O505 C490 1.278 . S
O506 Pr481 2.562 . S
O506 C491 1.254 . S
O507 Pr481 2.490 . S
O507 C491 1.225 . S
O508 Pr480 2.436 . S
O508 Pr481 2.695 . S
O508 C498 1.270 . S
O509 Pr481 2.512 . S
O509 C498 1.248 . S
O510 Pr480 2.438 . S
O510 C499 1.267 . S
O511 Pr481 2.437 . S
O511 C499 1.278 . S
H512 C484 0.929 . S
H513 C485 0.929 . S
H514 C487 0.931 . S
H515 C488 0.930 . S
H516 C493 0.929 . S
H517 C494 0.929 . S
H518 C496 0.931 . S
H519 C497 0.930 . S
Pr520 C522 2.880 . S
Pr520 O540 2.562 . S
Pr520 O541 2.490 . S
Pr520 O542 2.695 . S
Pr520 O543 2.512 . S
Pr520 O545 2.437 . S
Pr520 O548 2.436 . S
Pr520 O550 2.438 . S
Pr521 C531 2.880 . S
Pr521 O542 2.436 . S
Pr521 O544 2.438 . S
Pr521 O546 2.562 . S
Pr521 O547 2.490 . S
Pr521 O548 2.695 . S
Pr521 O549 2.512 . S
Pr521 O551 2.437 . S
C522 Pr520 2.880 . S
C522 C523 1.491 . S
C522 O540 1.254 . S
C522 O541 1.225 . S
C523 C522 1.491 . S
C523 C524 1.392 . S
C523 C528 1.356 . S
C524 C523 1.392 . S
C524 C525 1.368 . S
C524 H552 0.929 . S
C525 C524 1.368 . S
C525 C526 1.386 . S
C525 H553 0.929 . S
C526 C525 1.386 . S
C526 C527 1.373 . S
C527 C526 1.373 . S
C527 C528 1.409 . S
C527 H554 0.931 . S
C528 C523 1.356 . S
C528 C527 1.409 . S
C528 H555 0.930 . S
C529 O542 1.270 . S
C529 O543 1.248 . S
C530 O544 1.267 . S
C530 O545 1.278 . S
C531 Pr521 2.880 . S
C531 C532 1.491 . S
C531 O546 1.254 . S
C531 O547 1.225 . S
C532 C531 1.491 . S
C532 C533 1.392 . S
C532 C537 1.356 . S
C533 C532 1.392 . S
C533 C534 1.368 . S
C533 H556 0.929 . S
C534 C533 1.368 . S
C534 C535 1.386 . S
C534 H557 0.929 . S
C535 C534 1.386 . S
C535 C536 1.373 . S
C536 C535 1.373 . S
C536 C537 1.409 . S
C536 H558 0.931 . S
C537 C532 1.356 . S
C537 C536 1.409 . S
C537 H559 0.930 . S
C538 O548 1.270 . S
C538 O549 1.248 . S
C539 O550 1.267 . S
C539 O551 1.278 . S
O540 Pr520 2.562 . S
O540 C522 1.254 . S
O541 Pr520 2.490 . S
O541 C522 1.225 . S
O542 Pr520 2.695 . S
O542 Pr521 2.436 . S
O542 C529 1.270 . S
O543 Pr520 2.512 . S
O543 C529 1.248 . S
O544 Pr521 2.438 . S
O544 C530 1.267 . S
O545 Pr520 2.437 . S
O545 C530 1.278 . S
O546 Pr521 2.562 . S
O546 C531 1.254 . S
O547 Pr521 2.490 . S
O547 C531 1.225 . S
O548 Pr520 2.436 . S
O548 Pr521 2.695 . S
O548 C538 1.270 . S
O549 Pr521 2.512 . S
O549 C538 1.248 . S
O550 Pr520 2.438 . S
O550 C539 1.267 . S
O551 Pr521 2.437 . S
O551 C539 1.278 . S
H552 C524 0.929 . S
H553 C525 0.929 . S
H554 C527 0.931 . S
H555 C528 0.930 . S
H556 C533 0.929 . S
H557 C534 0.929 . S
H558 C536 0.931 . S
H559 C537 0.930 . S
Pr560 C562 2.880 . S
Pr560 O580 2.562 . S
Pr560 O581 2.490 . S
Pr560 O582 2.695 . S
Pr560 O583 2.512 . S
Pr560 O585 2.437 . S
Pr560 O588 2.436 . S
Pr560 O590 2.438 . S
Pr561 C571 2.880 . S
Pr561 O582 2.436 . S
Pr561 O584 2.438 . S
Pr561 O586 2.562 . S
Pr561 O587 2.490 . S
Pr561 O588 2.695 . S
Pr561 O589 2.512 . S
Pr561 O591 2.437 . S
C562 Pr560 2.880 . S
C562 C563 1.491 . S
C562 O580 1.254 . S
C562 O581 1.225 . S
C563 C562 1.491 . S
C563 C564 1.392 . S
C563 C568 1.356 . S
C564 C563 1.392 . S
C564 C565 1.368 . S
C564 H592 0.929 . S
C565 C564 1.368 . S
C565 C566 1.386 . S
C565 H593 0.929 . S
C566 C565 1.386 . S
C566 C567 1.373 . S
C567 C566 1.373 . S
C567 C568 1.409 . S
C567 H594 0.931 . S
C568 C563 1.356 . S
C568 C567 1.409 . S
C568 H595 0.930 . S
C569 O582 1.270 . S
C569 O583 1.248 . S
C570 O584 1.267 . S
C570 O585 1.278 . S
C571 Pr561 2.880 . S
C571 C572 1.491 . S
C571 O586 1.254 . S
C571 O587 1.225 . S
C572 C571 1.491 . S
C572 C573 1.392 . S
C572 C577 1.356 . S
C573 C572 1.392 . S
C573 C574 1.368 . S
C573 H596 0.929 . S
C574 C573 1.368 . S
C574 C575 1.386 . S
C574 H597 0.929 . S
C575 C574 1.386 . S
C575 C576 1.373 . S
C576 C575 1.373 . S
C576 C577 1.409 . S
C576 H598 0.931 . S
C577 C572 1.356 . S
C577 C576 1.409 . S
C577 H599 0.930 . S
C578 O588 1.270 . S
C578 O589 1.248 . S
C579 O590 1.267 . S
C579 O591 1.278 . S
O580 Pr560 2.562 . S
O580 C562 1.254 . S
O581 Pr560 2.490 . S
O581 C562 1.225 . S
O582 Pr560 2.695 . S
O582 Pr561 2.436 . S
O582 C569 1.270 . S
O583 Pr560 2.512 . S
O583 C569 1.248 . S
O584 Pr561 2.438 . S
O584 C570 1.267 . S
O585 Pr560 2.437 . S
O585 C570 1.278 . S
O586 Pr561 2.562 . S
O586 C571 1.254 . S
O587 Pr561 2.490 . S
O587 C571 1.225 . S
O588 Pr560 2.436 . S
O588 Pr561 2.695 . S
O588 C578 1.270 . S
O589 Pr561 2.512 . S
O589 C578 1.248 . S
O590 Pr560 2.438 . S
O590 C579 1.267 . S
O591 Pr561 2.437 . S
O591 C579 1.278 . S
H592 C564 0.929 . S
H593 C565 0.929 . S
H594 C567 0.931 . S
H595 C568 0.930 . S
H596 C573 0.929 . S
H597 C574 0.929 . S
H598 C576 0.931 . S
H599 C577 0.930 . S
Pr600 C602 2.880 . S
Pr600 O620 2.562 . S
Pr600 O621 2.490 . S
Pr600 O622 2.695 . S
Pr600 O623 2.512 . S
Pr600 O625 2.437 . S
Pr600 O628 2.436 . S
Pr600 O630 2.438 . S
Pr601 C611 2.880 . S
Pr601 O622 2.436 . S
Pr601 O624 2.438 . S
Pr601 O626 2.562 . S
Pr601 O627 2.490 . S
Pr601 O628 2.695 . S
Pr601 O629 2.512 . S
Pr601 O631 2.437 . S
C602 Pr600 2.880 . S
C602 C603 1.491 . S
C602 O620 1.254 . S
C602 O621 1.225 . S
C603 C602 1.491 . S
C603 C604 1.392 . S
C603 C608 1.356 . S
C604 C603 1.392 . S
C604 C605 1.368 . S
C604 H632 0.929 . S
C605 C604 1.368 . S
C605 C606 1.386 . S
C605 H633 0.929 . S
C606 C605 1.386 . S
C606 C607 1.373 . S
C607 C606 1.373 . S
C607 C608 1.409 . S
C607 H634 0.931 . S
C608 C603 1.356 . S
C608 C607 1.409 . S
C608 H635 0.930 . S
C609 O622 1.270 . S
C609 O623 1.248 . S
C610 O624 1.267 . S
C610 O625 1.278 . S
C611 Pr601 2.880 . S
C611 C612 1.491 . S
C611 O626 1.254 . S
C611 O627 1.225 . S
C612 C611 1.491 . S
C612 C613 1.392 . S
C612 C617 1.356 . S
C613 C612 1.392 . S
C613 C614 1.368 . S
C613 H636 0.929 . S
C614 C613 1.368 . S
C614 C615 1.386 . S
C614 H637 0.929 . S
C615 C614 1.386 . S
C615 C616 1.373 . S
C616 C615 1.373 . S
C616 C617 1.409 . S
C616 H638 0.931 . S
C617 C612 1.356 . S
C617 C616 1.409 . S
C617 H639 0.930 . S
C618 O628 1.270 . S
C618 O629 1.248 . S
C619 O630 1.267 . S
C619 O631 1.278 . S
O620 Pr600 2.562 . S
O620 C602 1.254 . S
O621 Pr600 2.490 . S
O621 C602 1.225 . S
O622 Pr600 2.695 . S
O622 Pr601 2.436 . S
O622 C609 1.270 . S
O623 Pr600 2.512 . S
O623 C609 1.248 . S
O624 Pr601 2.438 . S
O624 C610 1.267 . S
O625 Pr600 2.437 . S
O625 C610 1.278 . S
O626 Pr601 2.562 . S
O626 C611 1.254 . S
O627 Pr601 2.490 . S
O627 C611 1.225 . S
O628 Pr600 2.436 . S
O628 Pr601 2.695 . S
O628 C618 1.270 . S
O629 Pr601 2.512 . S
O629 C618 1.248 . S
O630 Pr600 2.438 . S
O630 C619 1.267 . S
O631 Pr601 2.437 . S
O631 C619 1.278 . S
H632 C604 0.929 . S
H633 C605 0.929 . S
H634 C607 0.931 . S
H635 C608 0.930 . S
H636 C613 0.929 . S
H637 C614 0.929 . S
H638 C616 0.931 . S
H639 C617 0.930 . S
H640 C646 0.930 . S
H641 C649 0.930 . S
H642 C650 0.930 . S
H643 C651 0.930 . S
H644 C654 0.937 . S
H645 C655 0.930 . S
C646 H640 0.930 . S
C646 C647 1.355 . S
C646 C648 1.415 . S
C647 C646 1.355 . S
C647 C649 1.419 . S
C648 C646 1.415 . S
C648 C653 1.425 . S
C648 C655 1.409 . S
C649 H641 0.930 . S
C649 C647 1.419 . S
C649 C650 1.362 . S
C650 H642 0.930 . S
C650 C649 1.362 . S
C650 C653 1.409 . S
C651 H643 0.930 . S
C651 C652 1.355 . S
C651 C653 1.415 1_545 S
C652 C651 1.355 . S
C652 C654 1.430 . S
C653 C648 1.425 . S
C653 C650 1.409 . S
C653 C651 1.415 1_565 S
C654 H644 0.937 . S
C654 C652 1.430 . S
C654 C655 1.345 1_545 S
C655 H645 0.930 . S
C655 C648 1.409 . S
C655 C654 1.345 1_565 S
H656 C662 0.930 . S
H657 C665 0.930 . S
H658 C666 0.930 . S
H659 C667 0.930 . S
H660 C670 0.930 . S
H661 C671 0.930 . S
C662 H656 0.930 . S
C662 C663 1.355 . S
C662 C664 1.415 . S
C663 C662 1.355 . S
C663 C665 1.419 . S
C664 C662 1.415 . S
C664 C669 1.425 . S
C664 C671 1.409 1_655 S
C665 H657 0.930 . S
C665 C663 1.419 . S
C665 C666 1.362 . S
C666 H658 0.930 . S
C666 C665 1.362 . S
C666 C669 1.409 . S
C667 H659 0.930 . S
C667 C668 1.355 1_655 S
C667 C669 1.415 . S
C668 C667 1.355 1_455 S
C668 C670 1.419 . S
C669 C664 1.425 . S
C669 C666 1.409 . S
C669 C667 1.415 . S
C670 H660 0.930 . S
C670 C668 1.419 . S
C670 C671 1.362 . S
C671 H661 0.930 . S
C671 C664 1.409 1_455 S
C671 C670 1.362 . S
H672 C678 0.930 . S
H673 C681 0.930 . S
H674 C682 0.930 . S
H675 C683 0.930 . S
H676 C686 0.930 . S
H677 C687 0.930 . S
C678 H672 0.930 . S
C678 C679 1.355 1_545 S
C678 C680 1.415 . S
C679 C678 1.355 1_565 S
C679 C681 1.419 . S
C680 C678 1.415 . S
C680 C685 1.425 . S
C680 C687 1.409 . S
C681 H673 0.930 . S
C681 C679 1.419 . S
C681 C682 1.362 1_565 S
C682 H674 0.930 . S
C682 C681 1.362 1_545 S
C682 C685 1.409 . S
C683 H675 0.930 . S
C683 C684 1.355 . S
C683 C685 1.415 . S
C684 C683 1.355 . S
C684 C686 1.419 . S
C685 C680 1.425 . S
C685 C682 1.409 . S
C685 C683 1.415 . S
C686 H676 0.930 . S
C686 C684 1.419 . S
C686 C687 1.362 . S
C687 H677 0.930 . S
C687 C680 1.409 . S
C687 C686 1.362 . S
H688 C694 0.938 . S
H689 C697 0.930 . S
H690 C698 0.930 . S
H691 C699 0.930 . S
H692 C702 0.930 . S
H693 C703 0.930 . S
C694 H688 0.938 . S
C694 C695 1.374 . S
C694 C696 1.387 1_655 S
C695 C694 1.374 . S
C695 C697 1.419 . S
C696 C694 1.387 1_455 S
C696 C701 1.425 . S
C696 C703 1.409 . S
C697 H689 0.930 . S
C697 C695 1.419 . S
C697 C698 1.362 1_655 S
C698 H690 0.930 . S
C698 C697 1.362 1_455 S
C698 C701 1.409 . S
C699 H691 0.930 . S
C699 C700 1.355 . S
C699 C701 1.415 . S
C700 C699 1.355 . S
C700 C702 1.419 . S
C701 C696 1.425 . S
C701 C698 1.409 . S
C701 C699 1.415 . S
C702 H692 0.930 . S
C702 C700 1.419 . S
C702 C703 1.362 . S
C703 H693 0.930 . S
C703 C696 1.409 . S
C703 C702 1.362 . S
H704 C710 0.930 . S
H705 C713 0.930 . S
H706 C714 0.930 . S
H707 C715 0.932 . S
H708 C718 0.930 . S
H709 C719 0.930 . S
C710 H704 0.930 . S
C710 C711 1.355 . S
C710 C712 1.415 . S
C711 C710 1.355 . S
C711 C713 1.419 . S
C712 C710 1.415 . S
C712 C717 1.425 . S
C712 C719 1.409 . S
C713 H705 0.930 . S
C713 C711 1.419 . S
C713 C714 1.362 . S
C714 H706 0.930 . S
C714 C713 1.362 . S
C714 C717 1.409 . S
C715 H707 0.932 . S
C715 C716 1.355 1_554 S
C715 C717 1.415 . S
C716 C715 1.355 1_556 S
C716 C718 1.419 . S
C717 C712 1.425 . S
C717 C714 1.409 . S
C717 C715 1.415 . S
C718 H708 0.930 . S
C718 C716 1.419 . S
C718 C719 1.362 1_556 S
C719 H709 0.930 . S
C719 C712 1.409 . S
C719 C718 1.362 1_554 S
H720 C726 0.930 . S
H721 C729 0.930 . S
H722 C730 0.930 . S
H723 C731 0.930 . S
H724 C734 0.930 . S
H725 C735 0.930 . S
C726 H720 0.930 . S
C726 C727 1.355 1_556 S
C726 C728 1.415 . S
C727 C726 1.355 1_554 S
C727 C729 1.419 . S
C728 C726 1.415 . S
C728 C733 1.425 . S
C728 C735 1.409 . S
C729 H721 0.930 . S
C729 C727 1.419 . S
C729 C730 1.362 . S
C730 H722 0.930 . S
C730 C729 1.362 . S
C730 C733 1.409 1_554 S
C731 H723 0.930 . S
C731 C732 1.355 . S
C731 C733 1.415 . S
C732 C731 1.355 . S
C732 C734 1.419 . S
C733 C728 1.425 . S
C733 C730 1.409 1_556 S
C733 C731 1.415 . S
C734 H724 0.930 . S
C734 C732 1.419 . S
C734 C735 1.362 . S
C735 H725 0.930 . S
C735 C728 1.409 . S
C735 C734 1.362 . S
H736 C742 0.930 . S
H737 C745 0.930 . S
H738 C746 0.930 . S
H739 C747 0.930 . S
H740 C750 0.930 . S
H741 C751 0.930 . S
C742 H736 0.930 . S
C742 C743 1.355 . S
C742 C744 1.415 . S
C743 C742 1.355 . S
C743 C745 1.419 . S
C744 C742 1.415 . S
C744 C749 1.425 . S
C744 C751 1.409 1_554 S
C745 H737 0.930 . S
C745 C743 1.419 . S
C745 C746 1.362 . S
C746 H738 0.930 . S
C746 C745 1.362 . S
C746 C749 1.409 . S
C747 H739 0.930 . S
C747 C748 1.355 1_554 S
C747 C749 1.415 . S
C748 C747 1.355 1_556 S
C748 C750 1.419 . S
C749 C744 1.425 . S
C749 C746 1.409 . S
C749 C747 1.415 . S
C750 H740 0.930 . S
C750 C748 1.419 . S
C750 C751 1.362 . S
C751 H741 0.930 . S
C751 C744 1.409 1_556 S
C751 C750 1.362 . S
H752 C758 0.930 . S
H753 C761 0.932 . S
H754 C762 0.930 . S
H755 C763 0.930 . S
H756 C766 0.930 . S
H757 C767 0.930 . S
C758 H752 0.930 . S
C758 C759 1.355 . S
C758 C760 1.415 1_554 S
C759 C758 1.355 . S
C759 C761 1.419 1_554 S
C760 C758 1.415 1_556 S
C760 C765 1.425 . S
C760 C767 1.409 . S
C761 H753 0.932 . S
C761 C759 1.419 1_556 S
C761 C762 1.362 . S
C762 H754 0.930 . S
C762 C761 1.362 . S
C762 C765 1.409 . S
C763 H755 0.930 . S
C763 C764 1.355 . S
C763 C765 1.415 . S
C764 C763 1.355 . S
C764 C766 1.419 . S
C765 C760 1.425 . S
C765 C762 1.409 . S
C765 C763 1.415 . S
C766 H756 0.930 . S
C766 C764 1.419 . S
C766 C767 1.362 . S
C767 H757 0.930 . S
C767 C760 1.409 . S
C767 C766 1.362 . S
H768 C774 0.930 . S
H769 C777 0.930 . S
H770 C778 0.930 . S
H771 C779 0.930 . S
H772 C782 0.930 . S
H773 C783 0.930 . S
C774 H768 0.930 . S
C774 C775 1.355 . S
C774 C776 1.415 . S
C775 C774 1.355 . S
C775 C777 1.419 . S
C776 C774 1.415 . S
C776 C781 1.425 . S
C776 C783 1.409 . S
C777 H769 0.930 . S
C777 C775 1.419 . S
C777 C778 1.362 . S
C778 H770 0.930 . S
C778 C777 1.362 . S
C778 C781 1.409 . S
C779 H771 0.930 . S
C779 C780 1.355 . S
C779 C781 1.415 . S
C780 C779 1.355 . S
C780 C782 1.419 . S
C781 C776 1.425 . S
C781 C778 1.409 . S
C781 C779 1.415 . S
C782 H772 0.930 . S
C782 C780 1.419 . S
C782 C783 1.362 . S
C783 H773 0.930 . S
C783 C776 1.409 . S
C783 C782 1.362 . S
H784 C790 0.930 . S
H785 C793 0.930 . S
H786 C794 0.930 . S
H787 C795 0.930 . S
H788 C798 0.930 . S
H789 C799 0.930 . S
C790 H784 0.930 . S
C790 C791 1.355 . S
C790 C792 1.415 . S
C791 C790 1.355 . S
C791 C793 1.419 . S
C792 C790 1.415 . S
C792 C797 1.425 . S
C792 C799 1.409 . S
C793 H785 0.930 . S
C793 C791 1.419 . S
C793 C794 1.362 . S
C794 H786 0.930 . S
C794 C793 1.362 . S
C794 C797 1.409 . S
C795 H787 0.930 . S
C795 C796 1.355 . S
C795 C797 1.415 . S
C796 C795 1.355 . S
C796 C798 1.419 . S
C797 C792 1.425 . S
C797 C794 1.409 . S
C797 C795 1.415 . S
C798 H788 0.930 . S
C798 C796 1.419 . S
C798 C799 1.362 . S
C799 H789 0.930 . S
C799 C792 1.409 . S
C799 C798 1.362 . S
H800 C806 0.930 . S
H801 C809 0.930 . S
H802 C810 0.930 . S
H803 C811 0.930 . S
H804 C814 0.930 . S
H805 C815 0.930 . S
C806 H800 0.930 . S
C806 C807 1.355 . S
C806 C808 1.415 . S
C807 C806 1.355 . S
C807 C809 1.419 . S
C808 C806 1.415 . S
C808 C813 1.425 . S
C808 C815 1.409 . S
C809 H801 0.930 . S
C809 C807 1.419 . S
C809 C810 1.362 . S
C810 H802 0.930 . S
C810 C809 1.362 . S
C810 C813 1.409 . S
C811 H803 0.930 . S
C811 C812 1.355 . S
C811 C813 1.415 . S
C812 C811 1.355 . S
C812 C814 1.419 . S
C813 C808 1.425 . S
C813 C810 1.409 . S
C813 C811 1.415 . S
C814 H804 0.930 . S
C814 C812 1.419 . S
C814 C815 1.362 . S
C815 H805 0.930 . S
C815 C808 1.409 . S
C815 C814 1.362 . S
H816 C822 0.930 . S
H817 C825 0.930 . S
H818 C826 0.930 . S
H819 C827 0.930 . S
H820 C830 0.930 . S
H821 C831 0.930 . S
C822 H816 0.930 . S
C822 C823 1.355 . S
C822 C824 1.415 . S
C823 C822 1.355 . S
C823 C825 1.419 . S
C824 C822 1.415 . S
C824 C829 1.425 . S
C824 C831 1.409 . S
C825 H817 0.930 . S
C825 C823 1.419 . S
C825 C826 1.362 . S
C826 H818 0.930 . S
C826 C825 1.362 . S
C826 C829 1.409 . S
C827 H819 0.930 . S
C827 C828 1.355 . S
C827 C829 1.415 . S
C828 C827 1.355 . S
C828 C830 1.419 . S
C829 C824 1.425 . S
C829 C826 1.409 . S
C829 C827 1.415 . S
C830 H820 0.930 . S
C830 C828 1.419 . S
C830 C831 1.362 . S
C831 H821 0.930 . S
C831 C824 1.409 . S
C831 C830 1.362 . S
H832 C838 0.930 . S
H833 C841 0.927 1_565 S
H834 C842 0.930 . S
H835 C843 0.930 . S
H836 C846 0.930 . S
H837 C847 0.930 . S
C838 H832 0.930 . S
C838 C839 1.355 . S
C838 C840 1.415 1_565 S
C839 C838 1.355 . S
C839 C841 1.414 1_565 S
C840 C838 1.415 1_545 S
C840 C845 1.425 . S
C840 C847 1.409 . S
C841 H833 0.927 1_545 S
C841 C839 1.414 1_545 S
C841 C842 1.371 . S
C842 H834 0.930 . S
C842 C841 1.371 . S
C842 C845 1.409 . S
C843 H835 0.930 . S
C843 C844 1.355 . S
C843 C845 1.415 . S
C844 C843 1.355 . S
C844 C846 1.419 . S
C845 C840 1.425 . S
C845 C842 1.409 . S
C845 C843 1.415 . S
C846 H836 0.930 . S
C846 C844 1.419 . S
C846 C847 1.362 . S
C847 H837 0.930 . S
C847 C840 1.409 . S
C847 C846 1.362 . S
H848 C854 0.930 . S
H849 C857 0.930 . S
H850 C858 0.930 . S
H851 C859 0.930 . S
H852 C862 0.930 . S
H853 C863 0.930 . S
C854 H848 0.930 . S
C854 C855 1.355 . S
C854 C856 1.415 . S
C855 C854 1.355 . S
C855 C857 1.419 . S
C856 C854 1.415 . S
C856 C861 1.425 . S
C856 C863 1.409 . S
C857 H849 0.930 . S
C857 C855 1.419 . S
C857 C858 1.362 . S
C858 H850 0.930 . S
C858 C857 1.362 . S
C858 C861 1.409 . S
C859 H851 0.930 . S
C859 C860 1.355 . S
C859 C861 1.415 1_655 S
C860 C859 1.355 . S
C860 C862 1.419 1_655 S
C861 C856 1.425 . S
C861 C858 1.409 . S
C861 C859 1.415 1_455 S
C862 H852 0.930 . S
C862 C860 1.419 1_455 S
C862 C863 1.362 . S
C863 H853 0.930 . S
C863 C856 1.409 . S
C863 C862 1.362 . S
H864 C870 0.930 . S
H865 C873 0.930 . S
H866 C874 0.930 . S
H867 C875 0.930 . S
H868 C878 0.930 . S
H869 C879 0.930 . S
C870 H864 0.930 . S
C870 C871 1.355 . S
C870 C872 1.415 . S
C871 C870 1.355 . S
C871 C873 1.419 . S
C872 C870 1.415 . S
C872 C877 1.425 . S
C872 C879 1.409 . S
C873 H865 0.930 . S
C873 C871 1.419 . S
C873 C874 1.362 . S
C874 H866 0.930 . S
C874 C873 1.362 . S
C874 C877 1.409 . S
C875 H867 0.930 . S
C875 C876 1.355 1_565 S
C875 C877 1.415 . S
C876 C875 1.355 1_545 S
C876 C878 1.419 . S
C877 C872 1.425 . S
C877 C874 1.409 . S
C877 C875 1.415 . S
C878 H868 0.930 . S
C878 C876 1.419 . S
C878 C879 1.362 1_545 S
C879 H869 0.930 . S
C879 C872 1.409 . S
C879 C878 1.362 1_565 S
H880 C886 0.930 . S
H881 C889 0.939 . S
H882 C890 0.930 . S
H883 C891 0.930 . S
H884 C894 0.930 . S
H885 C895 0.930 . S
C886 H880 0.930 . S
C886 C887 1.355 . S
C886 C888 1.415 1_455 S
C887 C886 1.355 . S
C887 C889 1.432 . S
C888 C886 1.415 1_655 S
C888 C893 1.425 . S
C888 C895 1.409 . S
C889 H881 0.939 . S
C889 C887 1.432 . S
C889 C890 1.341 1_455 S
C890 H882 0.930 . S
C890 C889 1.341 1_655 S
C890 C893 1.409 . S
C891 H883 0.930 . S
C891 C892 1.355 . S
C891 C893 1.415 . S
C892 C891 1.355 . S
C892 C894 1.419 . S
C893 C888 1.425 . S
C893 C890 1.409 . S
C893 C891 1.415 . S
C894 H884 0.930 . S
C894 C892 1.419 . S
C894 C895 1.362 . S
C895 H885 0.930 . S
C895 C888 1.409 . S
C895 C894 1.362 . S
H896 C902 0.930 . S
H897 C905 0.930 . S
H898 C906 0.930 . S
H899 C907 0.930 . S
H900 C910 0.930 . S
H901 C911 0.930 . S
C902 H896 0.930 . S
C902 C903 1.355 . S
C902 C904 1.415 . S
C903 C902 1.355 . S
C903 C905 1.419 . S
C904 C902 1.415 . S
C904 C909 1.425 . S
C904 C911 1.409 . S
C905 H897 0.930 . S
C905 C903 1.419 . S
C905 C906 1.362 . S
C906 H898 0.930 . S
C906 C905 1.362 . S
C906 C909 1.409 . S
C907 H899 0.930 . S
C907 C908 1.355 . S
C907 C909 1.415 . S
C908 C907 1.355 . S
C908 C910 1.419 . S
C909 C904 1.425 . S
C909 C906 1.409 . S
C909 C907 1.415 . S
C910 H900 0.930 . S
C910 C908 1.419 . S
C910 C911 1.362 . S
C911 H901 0.930 . S
C911 C904 1.409 . S
C911 C910 1.362 . S
H912 C918 0.930 . S
H913 C921 0.930 . S
H914 C922 0.930 . S
H915 C923 0.930 . S
H916 C926 0.930 . S
H917 C927 0.930 . S
C918 H912 0.930 . S
C918 C919 1.355 . S
C918 C920 1.415 . S
C919 C918 1.355 . S
C919 C921 1.419 . S
C920 C918 1.415 . S
C920 C925 1.425 . S
C920 C927 1.409 . S
C921 H913 0.930 . S
C921 C919 1.419 . S
C921 C922 1.362 . S
C922 H914 0.930 . S
C922 C921 1.362 . S
C922 C925 1.409 . S
C923 H915 0.930 . S
C923 C924 1.355 . S
C923 C925 1.415 . S
C924 C923 1.355 . S
C924 C926 1.419 . S
C925 C920 1.425 . S
C925 C922 1.409 . S
C925 C923 1.415 . S
C926 H916 0.930 . S
C926 C924 1.419 . S
C926 C927 1.362 . S
C927 H917 0.930 . S
C927 C920 1.409 . S
C927 C926 1.362 . S
H928 C934 0.930 . S
H929 C937 0.930 . S
H930 C938 0.930 . S
H931 C939 0.930 . S
H932 C942 0.930 . S
H933 C943 0.930 . S
C934 H928 0.930 . S
C934 C935 1.355 . S
C934 C936 1.415 . S
C935 C934 1.355 . S
C935 C937 1.419 . S
C936 C934 1.415 . S
C936 C941 1.425 . S
C936 C943 1.409 . S
C937 H929 0.930 . S
C937 C935 1.419 . S
C937 C938 1.362 . S
C938 H930 0.930 . S
C938 C937 1.362 . S
C938 C941 1.409 . S
C939 H931 0.930 . S
C939 C940 1.355 . S
C939 C941 1.415 . S
C940 C939 1.355 . S
C940 C942 1.419 . S
C941 C936 1.425 . S
C941 C938 1.409 . S
C941 C939 1.415 . S
C942 H932 0.930 . S
C942 C940 1.419 . S
C942 C943 1.362 . S
C943 H933 0.930 . S
C943 C936 1.409 . S
C943 C942 1.362 . S
H944 C950 0.930 . S
H945 C953 0.930 . S
H946 C954 0.930 . S
H947 C955 0.930 . S
H948 C958 0.930 . S
H949 C959 0.930 . S
C950 H944 0.930 . S
C950 C951 1.355 . S
C950 C952 1.415 . S
C951 C950 1.355 . S
C951 C953 1.419 . S
C952 C950 1.415 . S
C952 C957 1.425 . S
C952 C959 1.409 . S
C953 H945 0.930 . S
C953 C951 1.419 . S
C953 C954 1.362 . S
C954 H946 0.930 . S
C954 C953 1.362 . S
C954 C957 1.409 . S
C955 H947 0.930 . S
C955 C956 1.355 . S
C955 C957 1.415 . S
C956 C955 1.355 . S
C956 C958 1.419 . S
C957 C952 1.425 . S
C957 C954 1.409 . S
C957 C955 1.415 . S
C958 H948 0.930 . S
C958 C956 1.419 . S
C958 C959 1.362 . S
C959 H949 0.930 . S
C959 C952 1.409 . S
C959 C958 1.362 . S
H960 C966 0.930 . S
H961 C969 0.930 . S
H962 C970 0.930 . S
H963 C971 0.930 . S
H964 C974 0.930 . S
H965 C975 0.930 . S
C966 H960 0.930 . S
C966 C967 1.355 . S
C966 C968 1.415 . S
C967 C966 1.355 . S
C967 C969 1.419 . S
C968 C966 1.415 . S
C968 C973 1.425 . S
C968 C975 1.409 . S
C969 H961 0.930 . S
C969 C967 1.419 . S
C969 C970 1.362 . S
C970 H962 0.930 . S
C970 C969 1.362 . S
C970 C973 1.409 . S
C971 H963 0.930 . S
C971 C972 1.355 . S
C971 C973 1.415 . S
C972 C971 1.355 . S
C972 C974 1.419 . S
C973 C968 1.425 . S
C973 C970 1.409 . S
C973 C971 1.415 . S
C974 H964 0.930 . S
C974 C972 1.419 . S
C974 C975 1.362 . S
C975 H965 0.930 . S
C975 C968 1.409 . S
C975 C974 1.362 . S
H976 C982 0.930 . S
H977 C985 0.930 . S
H978 C986 0.930 . S
H979 C987 0.930 . S
H980 C990 0.930 . S
H981 C991 0.930 . S
C982 H976 0.930 . S
C982 C983 1.355 . S
C982 C984 1.415 . S
C983 C982 1.355 . S
C983 C985 1.419 . S
C984 C982 1.415 . S
C984 C989 1.425 . S
C984 C991 1.409 . S
C985 H977 0.930 . S
C985 C983 1.419 . S
C985 C986 1.362 . S
C986 H978 0.930 . S
C986 C985 1.362 . S
C986 C989 1.409 . S
C987 H979 0.930 . S
C987 C988 1.355 . S
C987 C989 1.415 . S
C988 C987 1.355 . S
C988 C990 1.419 . S
C989 C984 1.425 . S
C989 C986 1.409 . S
C989 C987 1.415 . S
C990 H980 0.930 . S
C990 C988 1.419 . S
C990 C991 1.362 . S
C991 H981 0.930 . S
C991 C984 1.409 . S
C991 C990 1.362 . S
H992 C998 0.930 . S
H993 C1001 0.930 . S
H994 C1002 0.930 . S
H995 C1003 0.930 . S
H996 C1006 0.930 . S
H997 C1007 0.930 . S
C998 H992 0.930 . S
C998 C999 1.355 . S
C998 C1000 1.415 . S
C999 C998 1.355 . S
C999 C1001 1.419 . S
C1000 C998 1.415 . S
C1000 C1005 1.425 . S
C1000 C1007 1.409 . S
C1001 H993 0.930 . S
C1001 C999 1.419 . S
C1001 C1002 1.362 . S
C1002 H994 0.930 . S
C1002 C1001 1.362 . S
C1002 C1005 1.409 . S
C1003 H995 0.930 . S
C1003 C1004 1.355 . S
C1003 C1005 1.415 . S
C1004 C1003 1.355 . S
C1004 C1006 1.419 . S
C1005 C1000 1.425 . S
C1005 C1002 1.409 . S
C1005 C1003 1.415 . S
C1006 H996 0.930 . S
C1006 C1004 1.419 . S
C1006 C1007 1.362 . S
C1007 H997 0.930 . S
C1007 C1000 1.409 . S
C1007 C1006 1.362 . S
H1008 C1014 0.930 . S
H1009 C1017 0.930 . S
H1010 C1018 0.930 . S
H1011 C1019 0.930 . S
H1012 C1022 0.930 . S
H1013 C1023 0.930 . S
C1014 H1008 0.930 . S
C1014 C1015 1.355 . S
C1014 C1016 1.415 . S
C1015 C1014 1.355 . S
C1015 C1017 1.419 . S
C1016 C1014 1.415 . S
C1016 C1021 1.425 . S
C1016 C1023 1.409 . S
C1017 H1009 0.930 . S
C1017 C1015 1.419 . S
C1017 C1018 1.362 . S
C1018 H1010 0.930 . S
C1018 C1017 1.362 . S
C1018 C1021 1.409 . S
C1019 H1011 0.930 . S
C1019 C1020 1.355 . S
C1019 C1021 1.415 . S
C1020 C1019 1.355 . S
C1020 C1022 1.419 . S
C1021 C1016 1.425 . S
C1021 C1018 1.409 . S
C1021 C1019 1.415 . S
C1022 H1012 0.930 . S
C1022 C1020 1.419 . S
C1022 C1023 1.362 . S
C1023 H1013 0.930 . S
C1023 C1016 1.409 . S
C1023 C1022 1.362 . S
H1024 C1030 0.930 . S
H1025 C1033 0.930 . S
H1026 C1034 0.930 . S
H1027 C1035 0.930 . S
H1028 C1038 0.930 . S
H1029 C1039 0.930 . S
C1030 H1024 0.930 . S
C1030 C1031 1.355 . S
C1030 C1032 1.415 . S
C1031 C1030 1.355 . S
C1031 C1033 1.419 . S
C1032 C1030 1.415 . S
C1032 C1037 1.425 . S
C1032 C1039 1.409 . S
C1033 H1025 0.930 . S
C1033 C1031 1.419 . S
C1033 C1034 1.362 . S
C1034 H1026 0.930 . S
C1034 C1033 1.362 . S
C1034 C1037 1.409 . S
C1035 H1027 0.930 . S
C1035 C1036 1.355 . S
C1035 C1037 1.415 . S
C1036 C1035 1.355 . S
C1036 C1038 1.419 . S
C1037 C1032 1.425 . S
C1037 C1034 1.409 . S
C1037 C1035 1.415 . S
C1038 H1028 0.930 . S
C1038 C1036 1.419 . S
C1038 C1039 1.362 . S
C1039 H1029 0.930 . S
C1039 C1032 1.409 . S
C1039 C1038 1.362 . S
H1040 C1046 0.930 . S
H1041 C1049 0.930 1_556 S
H1042 C1050 0.930 . S
H1043 C1051 0.930 . S
H1044 C1054 0.930 . S
H1045 C1055 0.930 . S
C1046 H1040 0.930 . S
C1046 C1047 1.355 . S
C1046 C1048 1.415 . S
C1047 C1046 1.355 . S
C1047 C1049 1.419 . S
C1048 C1046 1.415 . S
C1048 C1053 1.425 . S
C1048 C1055 1.409 . S
C1049 H1041 0.930 1_554 S
C1049 C1047 1.419 . S
C1049 C1050 1.362 . S
C1050 H1042 0.930 . S
C1050 C1049 1.362 . S
C1050 C1053 1.409 . S
C1051 H1043 0.930 . S
C1051 C1052 1.355 . S
C1051 C1053 1.415 . S
C1052 C1051 1.355 . S
C1052 C1054 1.419 . S
C1053 C1048 1.425 . S
C1053 C1050 1.409 . S
C1053 C1051 1.415 . S
C1054 H1044 0.930 . S
C1054 C1052 1.419 . S
C1054 C1055 1.362 . S
C1055 H1045 0.930 . S
C1055 C1048 1.409 . S
C1055 C1054 1.362 . S
H1056 C1062 0.930 . S
H1057 C1065 0.930 . S
H1058 C1066 0.930 . S
H1059 C1067 0.930 . S
H1060 C1070 0.930 . S
H1061 C1071 0.930 . S
C1062 H1056 0.930 . S
C1062 C1063 1.355 . S
C1062 C1064 1.415 . S
C1063 C1062 1.355 . S
C1063 C1065 1.419 . S
C1064 C1062 1.415 . S
C1064 C1069 1.425 . S
C1064 C1071 1.409 . S
C1065 H1057 0.930 . S
C1065 C1063 1.419 . S
C1065 C1066 1.362 . S
C1066 H1058 0.930 . S
C1066 C1065 1.362 . S
C1066 C1069 1.409 . S
C1067 H1059 0.930 . S
C1067 C1068 1.355 . S
C1067 C1069 1.415 . S
C1068 C1067 1.355 . S
C1068 C1070 1.419 . S
C1069 C1064 1.425 . S
C1069 C1066 1.409 . S
C1069 C1067 1.415 . S
C1070 H1060 0.930 . S
C1070 C1068 1.419 . S
C1070 C1071 1.362 . S
C1071 H1061 0.930 . S
C1071 C1064 1.409 . S
C1071 C1070 1.362 . S
H1072 C1078 0.930 . S
H1073 C1081 0.930 . S
H1074 C1082 0.930 . S
H1075 C1083 0.930 . S
H1076 C1086 0.930 . S
H1077 C1087 0.930 . S
C1078 H1072 0.930 . S
C1078 C1079 1.355 . S
C1078 C1080 1.415 . S
C1079 C1078 1.355 . S
C1079 C1081 1.419 . S
C1080 C1078 1.415 . S
C1080 C1085 1.425 . S
C1080 C1087 1.409 . S
C1081 H1073 0.930 . S
C1081 C1079 1.419 . S
C1081 C1082 1.362 . S
C1082 H1074 0.930 . S
C1082 C1081 1.362 . S
C1082 C1085 1.409 . S
C1083 H1075 0.930 . S
C1083 C1084 1.355 . S
C1083 C1085 1.415 . S
C1084 C1083 1.355 . S
C1084 C1086 1.419 . S
C1085 C1080 1.425 . S
C1085 C1082 1.409 . S
C1085 C1083 1.415 . S
C1086 H1076 0.930 . S
C1086 C1084 1.419 . S
C1086 C1087 1.362 . S
C1087 H1077 0.930 . S
C1087 C1080 1.409 . S
C1087 C1086 1.362 . S
H1088 C1094 0.930 . S
H1089 C1097 0.930 . S
H1090 C1098 0.930 . S
H1091 C1099 0.930 . S
H1092 C1102 0.930 . S
H1093 C1103 0.930 . S
C1094 H1088 0.930 . S
C1094 C1095 1.355 . S
C1094 C1096 1.415 . S
C1095 C1094 1.355 . S
C1095 C1097 1.419 . S
C1096 C1094 1.415 . S
C1096 C1101 1.425 . S
C1096 C1103 1.409 . S
C1097 H1089 0.930 . S
C1097 C1095 1.419 . S
C1097 C1098 1.362 . S
C1098 H1090 0.930 . S
C1098 C1097 1.362 . S
C1098 C1101 1.409 . S
C1099 H1091 0.930 . S
C1099 C1100 1.355 . S
C1099 C1101 1.415 . S
C1100 C1099 1.355 . S
C1100 C1102 1.419 . S
C1101 C1096 1.425 . S
C1101 C1098 1.409 . S
C1101 C1099 1.415 . S
C1102 H1092 0.930 . S
C1102 C1100 1.419 . S
C1102 C1103 1.362 . S
C1103 H1093 0.930 . S
C1103 C1096 1.409 . S
C1103 C1102 1.362 . S
H1104 C1110 0.930 . S
H1105 C1113 0.930 . S
H1106 C1114 0.930 . S
H1107 C1115 0.930 . S
H1108 C1118 0.930 . S
H1109 C1119 0.930 . S
C1110 H1104 0.930 . S
C1110 C1111 1.355 . S
C1110 C1112 1.415 . S
C1111 C1110 1.355 . S
C1111 C1113 1.419 . S
C1112 C1110 1.415 . S
C1112 C1117 1.425 . S
C1112 C1119 1.409 . S
C1113 H1105 0.930 . S
C1113 C1111 1.419 . S
C1113 C1114 1.362 . S
C1114 H1106 0.930 . S
C1114 C1113 1.362 . S
C1114 C1117 1.409 . S
C1115 H1107 0.930 . S
C1115 C1116 1.355 . S
C1115 C1117 1.415 . S
C1116 C1115 1.355 . S
C1116 C1118 1.419 . S
C1117 C1112 1.425 . S
C1117 C1114 1.409 . S
C1117 C1115 1.415 . S
C1118 H1108 0.930 . S
C1118 C1116 1.419 . S
C1118 C1119 1.362 . S
C1119 H1109 0.930 . S
C1119 C1112 1.409 . S
C1119 C1118 1.362 . S
H1120 C1126 0.930 . S
H1121 C1129 0.930 . S
H1122 C1130 0.930 . S
H1123 C1131 0.930 . S
H1124 C1134 0.930 . S
H1125 C1135 0.930 . S
C1126 H1120 0.930 . S
C1126 C1127 1.355 . S
C1126 C1128 1.415 . S
C1127 C1126 1.355 . S
C1127 C1129 1.419 . S
C1128 C1126 1.415 . S
C1128 C1133 1.425 . S
C1128 C1135 1.409 . S
C1129 H1121 0.930 . S
C1129 C1127 1.419 . S
C1129 C1130 1.362 . S
C1130 H1122 0.930 . S
C1130 C1129 1.362 . S
C1130 C1133 1.409 . S
C1131 H1123 0.930 . S
C1131 C1132 1.355 . S
C1131 C1133 1.415 . S
C1132 C1131 1.355 . S
C1132 C1134 1.419 . S
C1133 C1128 1.425 . S
C1133 C1130 1.409 . S
C1133 C1131 1.415 . S
C1134 H1124 0.930 . S
C1134 C1132 1.419 . S
C1134 C1135 1.362 . S
C1135 H1125 0.930 . S
C1135 C1128 1.409 . S
C1135 C1134 1.362 . S
H1136 C1142 0.930 . S
H1137 C1145 0.930 . S
H1138 C1146 0.930 . S
H1139 C1147 0.930 . S
H1140 C1150 0.930 . S
H1141 C1151 0.930 . S
C1142 H1136 0.930 . S
C1142 C1143 1.355 . S
C1142 C1144 1.415 . S
C1143 C1142 1.355 . S
C1143 C1145 1.419 . S
C1144 C1142 1.415 . S
C1144 C1149 1.425 . S
C1144 C1151 1.409 . S
C1145 H1137 0.930 . S
C1145 C1143 1.419 . S
C1145 C1146 1.362 . S
C1146 H1138 0.930 . S
C1146 C1145 1.362 . S
C1146 C1149 1.409 . S
C1147 H1139 0.930 . S
C1147 C1148 1.355 . S
C1147 C1149 1.415 . S
C1148 C1147 1.355 . S
C1148 C1150 1.419 . S
C1149 C1144 1.425 . S
C1149 C1146 1.409 . S
C1149 C1147 1.415 . S
C1150 H1140 0.930 . S
C1150 C1148 1.419 . S
C1150 C1151 1.362 . S
C1151 H1141 0.930 . S
C1151 C1144 1.409 . S
C1151 C1150 1.362 . S
H1152 C1158 0.930 . S
H1153 C1161 0.930 . S
H1154 C1162 0.930 . S
H1155 C1163 0.930 . S
H1156 C1166 0.930 . S
H1157 C1167 0.930 . S
C1158 H1152 0.930 . S
C1158 C1159 1.355 . S
C1158 C1160 1.415 . S
C1159 C1158 1.355 . S
C1159 C1161 1.419 . S
C1160 C1158 1.415 . S
C1160 C1165 1.425 . S
C1160 C1167 1.409 . S
C1161 H1153 0.930 . S
C1161 C1159 1.419 . S
C1161 C1162 1.362 . S
C1162 H1154 0.930 . S
C1162 C1161 1.362 . S
C1162 C1165 1.409 . S
C1163 H1155 0.930 . S
C1163 C1164 1.355 . S
C1163 C1165 1.415 . S
C1164 C1163 1.355 . S
C1164 C1166 1.419 . S
C1165 C1160 1.425 . S
C1165 C1162 1.409 . S
C1165 C1163 1.415 . S
C1166 H1156 0.930 . S
C1166 C1164 1.419 . S
C1166 C1167 1.362 . S
C1167 H1157 0.930 . S
C1167 C1160 1.409 . S
C1167 C1166 1.362 . S
H1168 C1174 0.930 . S
H1169 C1177 0.930 . S
H1170 C1178 0.930 . S
H1171 C1179 0.930 . S
H1172 C1182 0.930 . S
H1173 C1183 0.930 . S
C1174 H1168 0.930 . S
C1174 C1175 1.355 . S
C1174 C1176 1.415 . S
C1175 C1174 1.355 . S
C1175 C1177 1.419 . S
C1176 C1174 1.415 . S
C1176 C1181 1.425 . S
C1176 C1183 1.409 . S
C1177 H1169 0.930 . S
C1177 C1175 1.419 . S
C1177 C1178 1.362 . S
C1178 H1170 0.930 . S
C1178 C1177 1.362 . S
C1178 C1181 1.409 . S
C1179 H1171 0.930 . S
C1179 C1180 1.355 . S
C1179 C1181 1.415 . S
C1180 C1179 1.355 . S
C1180 C1182 1.419 . S
C1181 C1176 1.425 . S
C1181 C1178 1.409 . S
C1181 C1179 1.415 . S
C1182 H1172 0.930 . S
C1182 C1180 1.419 . S
C1182 C1183 1.362 . S
C1183 H1173 0.930 . S
C1183 C1176 1.409 . S
C1183 C1182 1.362 . S
H1184 C1190 0.930 . S
H1185 C1193 0.930 . S
H1186 C1194 0.930 . S
H1187 C1195 0.930 . S
H1188 C1198 0.930 . S
H1189 C1199 0.930 . S
C1190 H1184 0.930 . S
C1190 C1191 1.355 . S
C1190 C1192 1.415 . S
C1191 C1190 1.355 . S
C1191 C1193 1.419 . S
C1192 C1190 1.415 . S
C1192 C1197 1.425 . S
C1192 C1199 1.409 . S
C1193 H1185 0.930 . S
C1193 C1191 1.419 . S
C1193 C1194 1.362 . S
C1194 H1186 0.930 . S
C1194 C1193 1.362 . S
C1194 C1197 1.409 . S
C1195 H1187 0.930 . S
C1195 C1196 1.355 . S
C1195 C1197 1.415 . S
C1196 C1195 1.355 . S
C1196 C1198 1.419 . S
C1197 C1192 1.425 . S
C1197 C1194 1.409 . S
C1197 C1195 1.415 . S
C1198 H1188 0.930 . S
C1198 C1196 1.419 . S
C1198 C1199 1.362 . S
C1199 H1189 0.930 . S
C1199 C1192 1.409 . S
C1199 C1198 1.362 . S
H1200 C1206 0.930 . S
H1201 C1209 0.930 . S
H1202 C1210 0.930 . S
H1203 C1211 0.930 . S
H1204 C1214 0.930 . S
H1205 C1215 0.930 . S
C1206 H1200 0.930 . S
C1206 C1207 1.355 . S
C1206 C1208 1.415 . S
C1207 C1206 1.355 . S
C1207 C1209 1.419 . S
C1208 C1206 1.415 . S
C1208 C1213 1.425 . S
C1208 C1215 1.409 . S
C1209 H1201 0.930 . S
C1209 C1207 1.419 . S
C1209 C1210 1.362 . S
C1210 H1202 0.930 . S
C1210 C1209 1.362 . S
C1210 C1213 1.409 . S
C1211 H1203 0.930 . S
C1211 C1212 1.355 . S
C1211 C1213 1.415 . S
C1212 C1211 1.355 . S
C1212 C1214 1.419 . S
C1213 C1208 1.425 . S
C1213 C1210 1.409 . S
C1213 C1211 1.415 . S
C1214 H1204 0.930 . S
C1214 C1212 1.419 . S
C1214 C1215 1.362 . S
C1215 H1205 0.930 . S
C1215 C1208 1.409 . S
C1215 C1214 1.362 . S
H1216 C1222 0.930 . S
H1217 C1225 0.930 . S
H1218 C1226 0.930 . S
H1219 C1227 0.930 . S
H1220 C1230 0.930 . S
H1221 C1231 0.930 . S
C1222 H1216 0.930 . S
C1222 C1223 1.355 . S
C1222 C1224 1.415 . S
C1223 C1222 1.355 . S
C1223 C1225 1.419 . S
C1224 C1222 1.415 . S
C1224 C1229 1.425 . S
C1224 C1231 1.409 . S
C1225 H1217 0.930 . S
C1225 C1223 1.419 . S
C1225 C1226 1.362 . S
C1226 H1218 0.930 . S
C1226 C1225 1.362 . S
C1226 C1229 1.409 . S
C1227 H1219 0.930 . S
C1227 C1228 1.355 . S
C1227 C1229 1.415 . S
C1228 C1227 1.355 . S
C1228 C1230 1.419 . S
C1229 C1224 1.425 . S
C1229 C1226 1.409 . S
C1229 C1227 1.415 . S
C1230 H1220 0.930 . S
C1230 C1228 1.419 . S
C1230 C1231 1.362 . S
C1231 H1221 0.930 . S
C1231 C1224 1.409 . S
C1231 C1230 1.362 . S
H1232 C1238 0.930 . S
H1233 C1241 0.930 . S
H1234 C1242 0.930 . S
H1235 C1243 0.930 . S
H1236 C1246 0.930 . S
H1237 C1247 0.930 . S
C1238 H1232 0.930 . S
C1238 C1239 1.355 . S
C1238 C1240 1.415 . S
C1239 C1238 1.355 . S
C1239 C1241 1.419 . S
C1240 C1238 1.415 . S
C1240 C1245 1.425 . S
C1240 C1247 1.409 . S
C1241 H1233 0.930 . S
C1241 C1239 1.419 . S
C1241 C1242 1.362 . S
C1242 H1234 0.930 . S
C1242 C1241 1.362 . S
C1242 C1245 1.409 . S
C1243 H1235 0.930 . S
C1243 C1244 1.355 . S
C1243 C1245 1.415 . S
C1244 C1243 1.355 . S
C1244 C1246 1.419 . S
C1245 C1240 1.425 . S
C1245 C1242 1.409 . S
C1245 C1243 1.415 . S
C1246 H1236 0.930 . S
C1246 C1244 1.419 . S
C1246 C1247 1.362 . S
C1247 H1237 0.930 . S
C1247 C1240 1.409 . S
C1247 C1246 1.362 . S
H1248 C1254 0.930 . S
H1249 C1257 0.930 . S
H1250 C1258 0.930 . S
H1251 C1259 0.930 . S
H1252 C1262 0.930 . S
H1253 C1263 0.930 . S
C1254 H1248 0.930 . S
C1254 C1255 1.355 . S
C1254 C1256 1.415 . S
C1255 C1254 1.355 . S
C1255 C1257 1.419 . S
C1256 C1254 1.415 . S
C1256 C1261 1.425 . S
C1256 C1263 1.409 . S
C1257 H1249 0.930 . S
C1257 C1255 1.419 . S
C1257 C1258 1.362 . S
C1258 H1250 0.930 . S
C1258 C1257 1.362 . S
C1258 C1261 1.409 . S
C1259 H1251 0.930 . S
C1259 C1260 1.355 . S
C1259 C1261 1.415 . S
C1260 C1259 1.355 . S
C1260 C1262 1.419 . S
C1261 C1256 1.425 . S
C1261 C1258 1.409 . S
C1261 C1259 1.415 . S
C1262 H1252 0.930 . S
C1262 C1260 1.419 . S
C1262 C1263 1.362 . S
C1263 H1253 0.930 . S
C1263 C1256 1.409 . S
C1263 C1262 1.362 . S
H1264 C1270 0.930 . S
H1265 C1273 0.930 . S
H1266 C1274 0.930 . S
H1267 C1275 0.930 . S
H1268 C1278 0.930 . S
H1269 C1279 0.930 . S
C1270 H1264 0.930 . S
C1270 C1271 1.355 . S
C1270 C1272 1.415 . S
C1271 C1270 1.355 . S
C1271 C1273 1.419 . S
C1272 C1270 1.415 . S
C1272 C1277 1.425 . S
C1272 C1279 1.409 . S
C1273 H1265 0.930 . S
C1273 C1271 1.419 . S
C1273 C1274 1.362 . S
C1274 H1266 0.930 . S
C1274 C1273 1.362 . S
C1274 C1277 1.409 . S
C1275 H1267 0.930 . S
C1275 C1276 1.355 . S
C1275 C1277 1.415 . S
C1276 C1275 1.355 . S
C1276 C1278 1.419 . S
C1277 C1272 1.425 . S
C1277 C1274 1.409 . S
C1277 C1275 1.415 . S
C1278 H1268 0.930 . S
C1278 C1276 1.419 . S
C1278 C1279 1.362 . S
C1279 H1269 0.930 . S
C1279 C1272 1.409 . S
C1279 C1278 1.362 . S
H1280 C1286 0.930 . S
H1281 C1289 0.930 . S
H1282 C1290 0.930 . S
H1283 C1291 0.930 . S
H1284 C1294 0.930 . S
H1285 C1295 0.930 . S
C1286 H1280 0.930 . S
C1286 C1287 1.355 . S
C1286 C1288 1.415 . S
C1287 C1286 1.355 . S
C1287 C1289 1.419 . S
C1288 C1286 1.415 . S
C1288 C1293 1.425 . S
C1288 C1295 1.409 . S
C1289 H1281 0.930 . S
C1289 C1287 1.419 . S
C1289 C1290 1.362 . S
C1290 H1282 0.930 . S
C1290 C1289 1.362 . S
C1290 C1293 1.409 . S
C1291 H1283 0.930 . S
C1291 C1292 1.355 . S
C1291 C1293 1.415 . S
C1292 C1291 1.355 . S
C1292 C1294 1.419 . S
C1293 C1288 1.425 . S
C1293 C1290 1.409 . S
C1293 C1291 1.415 . S
C1294 H1284 0.930 . S
C1294 C1292 1.419 . S
C1294 C1295 1.362 . S
C1295 H1285 0.930 . S
C1295 C1288 1.409 . S
C1295 C1294 1.362 . S
H1296 C1302 0.930 . S
H1297 C1305 0.930 . S
H1298 C1306 0.930 . S
H1299 C1307 0.930 . S
H1300 C1310 0.930 . S
H1301 C1311 0.930 . S
C1302 H1296 0.930 . S
C1302 C1303 1.355 . S
C1302 C1304 1.415 . S
C1303 C1302 1.355 . S
C1303 C1305 1.419 . S
C1304 C1302 1.415 . S
C1304 C1309 1.425 . S
C1304 C1311 1.409 . S
C1305 H1297 0.930 . S
C1305 C1303 1.419 . S
C1305 C1306 1.362 . S
C1306 H1298 0.930 . S
C1306 C1305 1.362 . S
C1306 C1309 1.409 . S
C1307 H1299 0.930 . S
C1307 C1308 1.355 . S
C1307 C1309 1.415 . S
C1308 C1307 1.355 . S
C1308 C1310 1.419 . S
C1309 C1304 1.425 . S
C1309 C1306 1.409 . S
C1309 C1307 1.415 . S
C1310 H1300 0.930 . S
C1310 C1308 1.419 . S
C1310 C1311 1.362 . S
C1311 H1301 0.930 . S
C1311 C1304 1.409 . S
C1311 C1310 1.362 . S
H1312 C1318 0.930 . S
H1313 C1321 0.930 . S
H1314 C1322 0.930 . S
H1315 C1323 0.930 . S
H1316 C1326 0.930 . S
H1317 C1327 0.930 . S
C1318 H1312 0.930 . S
C1318 C1319 1.355 . S
C1318 C1320 1.415 . S
C1319 C1318 1.355 . S
C1319 C1321 1.419 . S
C1320 C1318 1.415 . S
C1320 C1325 1.425 . S
C1320 C1327 1.409 . S
C1321 H1313 0.930 . S
C1321 C1319 1.419 . S
C1321 C1322 1.362 . S
C1322 H1314 0.930 . S
C1322 C1321 1.362 . S
C1322 C1325 1.409 . S
C1323 H1315 0.930 . S
C1323 C1324 1.355 . S
C1323 C1325 1.415 . S
C1324 C1323 1.355 . S
C1324 C1326 1.419 . S
C1325 C1320 1.425 . S
C1325 C1322 1.409 . S
C1325 C1323 1.415 . S
C1326 H1316 0.930 . S
C1326 C1324 1.419 . S
C1326 C1327 1.362 . S
C1327 H1317 0.930 . S
C1327 C1320 1.409 . S
C1327 C1326 1.362 . S
H1328 C1334 0.930 . S
H1329 C1337 0.930 . S
H1330 C1338 0.930 . S
H1331 C1339 0.930 . S
H1332 C1342 0.930 . S
H1333 C1343 0.930 . S
C1334 H1328 0.930 . S
C1334 C1335 1.355 . S
C1334 C1336 1.415 . S
C1335 C1334 1.355 . S
C1335 C1337 1.419 . S
C1336 C1334 1.415 . S
C1336 C1341 1.425 . S
C1336 C1343 1.409 . S
C1337 H1329 0.930 . S
C1337 C1335 1.419 . S
C1337 C1338 1.362 . S
C1338 H1330 0.930 . S
C1338 C1337 1.362 . S
C1338 C1341 1.409 . S
C1339 H1331 0.930 . S
C1339 C1340 1.355 . S
C1339 C1341 1.415 . S
C1340 C1339 1.355 . S
C1340 C1342 1.419 . S
C1341 C1336 1.425 . S
C1341 C1338 1.409 . S
C1341 C1339 1.415 . S
C1342 H1332 0.930 . S
C1342 C1340 1.419 . S
C1342 C1343 1.362 . S
C1343 H1333 0.930 . S
C1343 C1336 1.409 . S
C1343 C1342 1.362 . S
H1344 C1350 0.930 . S
H1345 C1353 0.930 . S
H1346 C1354 0.930 . S
H1347 C1355 0.930 . S
H1348 C1358 0.930 . S
H1349 C1359 0.930 . S
C1350 H1344 0.930 . S
C1350 C1351 1.355 . S
C1350 C1352 1.415 . S
C1351 C1350 1.355 . S
C1351 C1353 1.419 . S
C1352 C1350 1.415 . S
C1352 C1357 1.425 . S
C1352 C1359 1.409 . S
C1353 H1345 0.930 . S
C1353 C1351 1.419 . S
C1353 C1354 1.362 . S
C1354 H1346 0.930 . S
C1354 C1353 1.362 . S
C1354 C1357 1.409 . S
C1355 H1347 0.930 . S
C1355 C1356 1.355 . S
C1355 C1357 1.415 . S
C1356 C1355 1.355 . S
C1356 C1358 1.419 . S
C1357 C1352 1.425 . S
C1357 C1354 1.409 . S
C1357 C1355 1.415 . S
C1358 H1348 0.930 . S
C1358 C1356 1.419 . S
C1358 C1359 1.362 . S
C1359 H1349 0.930 . S
C1359 C1352 1.409 . S
C1359 C1358 1.362 . S
H1360 C1366 0.930 . S
H1361 C1369 0.930 1_554 S
H1362 C1370 0.930 . S
H1363 C1371 0.930 . S
H1364 C1374 0.930 . S
H1365 C1375 0.930 . S
C1366 H1360 0.930 . S
C1366 C1367 1.355 . S
C1366 C1368 1.415 . S
C1367 C1366 1.355 . S
C1367 C1369 1.419 . S
C1368 C1366 1.415 . S
C1368 C1373 1.425 . S
C1368 C1375 1.409 . S
C1369 H1361 0.930 1_556 S
C1369 C1367 1.419 . S
C1369 C1370 1.362 . S
C1370 H1362 0.930 . S
C1370 C1369 1.362 . S
C1370 C1373 1.409 . S
C1371 H1363 0.930 . S
C1371 C1372 1.355 . S
C1371 C1373 1.415 . S
C1372 C1371 1.355 . S
C1372 C1374 1.419 . S
C1373 C1368 1.425 . S
C1373 C1370 1.409 . S
C1373 C1371 1.415 . S
C1374 H1364 0.930 . S
C1374 C1372 1.419 . S
C1374 C1375 1.362 . S
C1375 H1365 0.930 . S
C1375 C1368 1.409 . S
C1375 C1374 1.362 . S
H1376 C1382 0.930 . S
H1377 C1385 0.923 1_556 S
H1378 C1386 0.930 . S
H1379 C1387 0.930 . S
H1380 C1390 0.930 . S
H1381 C1391 0.930 . S
C1382 H1376 0.930 . S
C1382 C1383 1.355 . S
C1382 C1384 1.415 . S
C1383 C1382 1.355 . S
C1383 C1385 1.419 . S
C1384 C1382 1.415 . S
C1384 C1389 1.425 . S
C1384 C1391 1.409 . S
C1385 H1377 0.923 1_554 S
C1385 C1383 1.419 . S
C1385 C1386 1.362 . S
C1386 H1378 0.930 . S
C1386 C1385 1.362 . S
C1386 C1389 1.409 . S
C1387 H1379 0.930 . S
C1387 C1388 1.355 . S
C1387 C1389 1.415 . S
C1388 C1387 1.355 . S
C1388 C1390 1.419 . S
C1389 C1384 1.425 . S
C1389 C1386 1.409 . S
C1389 C1387 1.415 . S
C1390 H1380 0.930 . S
C1390 C1388 1.419 . S
C1390 C1391 1.362 . S
C1391 H1381 0.930 . S
C1391 C1384 1.409 . S
C1391 C1390 1.362 . S
H1392 C1398 0.930 . S
H1393 C1401 0.930 . S
H1394 C1402 0.930 . S
H1395 C1403 0.930 . S
H1396 C1406 0.930 1_554 S
H1397 C1407 0.930 . S
C1398 H1392 0.930 . S
C1398 C1399 1.355 . S
C1398 C1400 1.415 . S
C1399 C1398 1.355 . S
C1399 C1401 1.419 . S
C1400 C1398 1.415 . S
C1400 C1405 1.425 . S
C1400 C1407 1.409 . S
C1401 H1393 0.930 . S
C1401 C1399 1.419 . S
C1401 C1402 1.362 . S
C1402 H1394 0.930 . S
C1402 C1401 1.362 . S
C1402 C1405 1.409 . S
C1403 H1395 0.930 . S
C1403 C1404 1.355 . S
C1403 C1405 1.415 . S
C1404 C1403 1.355 . S
C1404 C1406 1.419 . S
C1405 C1400 1.425 . S
C1405 C1402 1.409 . S
C1405 C1403 1.415 . S
C1406 H1396 0.930 1_556 S
C1406 C1404 1.419 . S
C1406 C1407 1.362 . S
C1407 H1397 0.930 . S
C1407 C1400 1.409 . S
C1407 C1406 1.362 . S
C647 C459 1.748 . S
C652 C18 1.748 . S
C663 C330 1.750 . S
C668 C49 1.734 . S
C679 C98 1.744 . S
C684 C379 1.752 . S
C695 C129 1.742 . S
C700 C410 1.752 . S
C711 C178 1.699 . S
C716 C219 1.719 . S
C727 C250 1.709 . S
C732 C209 1.695 . S
C743 C258 1.719 . S
C748 C299 1.712 . S
C759 C170 1.742 . S
C764 C289 1.746 . S
C775 C139 1.721 . S
C780 C338 1.730 . S
C791 C369 1.738 . S
C796 C10 1.751 . S
C807 C59 1.723 . S
C812 C418 1.702 . S
C823 C90 1.751 . S
C828 C449 1.747 . S
C839 C498 1.699 . S
C844 C539 1.703 . S
C855 C570 1.711 . S
C860 C529 1.717 . S
C871 C619 1.710 . S
C876 C578 1.695 . S
C887 C609 1.709 . S
C892 C490 1.706 . S
C903 C9 1.153 . S
C908 C169 1.130 . S
C919 C218 1.238 . S
C924 C58 1.210 . S
C935 C89 1.220 . S
C940 C249 1.242 . S
C951 C138 1.190 . S
C956 C298 1.226 . S
C967 C329 1.218 . S
C972 C489 1.179 . S
C983 C538 1.209 . S
C988 C378 1.237 . S
C999 C409 1.207 . S
C1004 C569 1.237 . S
C1015 C458 1.129 . S
C1020 C618 1.141 . S
C1031 C579 2.356 . S
C1036 C19 2.350 1_556 S
C1047 C50 2.380 1_554 S
C1052 C610 2.385 . S
C1063 C99 2.347 1_556 S
C1068 C499 2.349 . S
C1079 C130 2.356 1_554 S
C1084 C530 2.350 . S
C1095 C179 2.387 . S
C1100 C419 2.387 . S
C1111 C210 2.385 . S
C1116 C450 2.387 . S
C1127 C259 2.367 . S
C1132 C339 2.359 . S
C1143 C370 2.361 . S
C1148 C290 2.369 . S
C1159 C6 1.080 . S
C1164 C15 1.080 . S
C1175 C55 1.131 . S
C1180 C46 1.131 . S
C1191 C86 1.130 . S
C1196 C95 1.130 . S
C1207 C126 1.121 . S
C1212 C135 1.121 . S
C1223 C175 1.110 . S
C1228 C166 1.110 . S
C1239 C215 1.117 . S
C1244 C206 1.117 . S
C1255 C246 1.088 . S
C1260 C255 1.088 . S
C1271 C286 1.111 . S
C1276 C295 1.111 . S
C1287 C326 1.097 1_554 S
C1292 C335 1.097 . S
C1303 C366 1.129 . S
C1308 C375 1.129 1_556 S
C1319 C415 1.090 . S
C1324 C406 1.090 1_554 S
C1335 C455 1.126 1_556 S
C1340 C446 1.126 . S
C1351 C486 1.118 . S
C1356 C495 1.118 1_554 S
C1367 C526 1.084 1_556 S
C1372 C535 1.084 . S
C1383 C575 1.090 1_554 S
C1388 C566 1.090 . S
C1399 C615 1.080 . S
C1404 C606 1.080 1_556 S
