# Generated by pormake.
# Topology snp, (6)-cn, num edge types: 1
# Building blocks:
#     Node 0, Type 0, BuildingBlock: KUMBOL_clean_sbu_1, # of connection points: 6
#     Node 1, Type 0, BuildingBlock: KUMBOL_clean_sbu_1, # of connection points: 6
#     Node 2, Type 0, BuildingBlock: KUMBOL_clean_sbu_1, # of connection points: 6
#     Node 3, Type 0, BuildingBlock: KUMBOL_clean_sbu_1, # of connection points: 6
#     Edge 4, Type (0, 0), BuildingBlock: MIFKUJ_clean_linker_0, # of connection points: 2
#     Edge 5, Type (0, 0), BuildingBlock: MIFKUJ_clean_linker_0, # of connection points: 2
#     Edge 6, Type (0, 0), BuildingBlock: MIFKUJ_clean_linker_0, # of connection points: 2
#     Edge 7, Type (0, 0), BuildingBlock: MIFKUJ_clean_linker_0, # of connection points: 2
#     Edge 8, Type (0, 0), BuildingBlock: MIFKUJ_clean_linker_0, # of connection points: 2
#     Edge 9, Type (0, 0), BuildingBlock: MIFKUJ_clean_linker_0, # of connection points: 2
#     Edge 10, Type (0, 0), BuildingBlock: MIFKUJ_clean_linker_0, # of connection points: 2
#     Edge 11, Type (0, 0), BuildingBlock: MIFKUJ_clean_linker_0, # of connection points: 2
#     Edge 12, Type (0, 0), BuildingBlock: MIFKUJ_clean_linker_0, # of connection points: 2
#     Edge 13, Type (0, 0), BuildingBlock: MIFKUJ_clean_linker_0, # of connection points: 2
#     Edge 14, Type (0, 0), BuildingBlock: MIFKUJ_clean_linker_0, # of connection points: 2
#     Edge 15, Type (0, 0), BuildingBlock: MIFKUJ_clean_linker_0, # of connection points: 2
# Relax obj value: 0.194
# Max RMSD: 0.233
# Mean RMSD: 0.233
data_MOF--net-snp--node1-KUMBOL_clean_sbu_1--edge1-MIFKUJ_clean_linker_0
_symmetry_space_group_name_H-M    P1
_symmetry_Int_Tables_number       1
_symmetry_cell_setting            triclinic
loop_
_symmetry_equiv_pos_as_xyz
'x, y, z'
_cell_length_a     32.426877
_cell_length_b     32.4125
_cell_length_c     41.678923
_cell_angle_alpha  108.95017
_cell_angle_beta   71.177392
_cell_angle_gamma 155.18644
loop_
_atom_site_label
_atom_site_type_symbol
_atom_site_fract_x
_atom_site_fract_y
_atom_site_fract_z
_atom_type_partial_charge
C0 C 0.41243 0.1989 0.11892 0.0
C1 C 0.36991 0.10398 0.06757 0.0
C2 C 0.43849 0.18526 0.09171 0.0
C3 C 0.28043 0.04488 0.06854 0.0
C4 C 0.31854 0.13334 0.12194 0.0
C5 C 0.25497 0.05991 0.09565 0.0
N6 N 0.47523 0.2704 0.14405 0.0
C7 C 0.44248 0.26891 0.17519 0.0
C8 C 0.28927 0.13998 0.15217 0.0
C9 C 0.34921 0.20433 0.17952 0.0
Gd10 Gd 0.84357 0.64146 0.08298 0.0
Gd11 Gd 0.63528 0.38518 0.13016 0.0
N12 N 0.52654 0.24505 0.09093 0.0
C13 C 0.391 0.08134 0.04449 0.0
C14 C 0.5437 0.21832 0.0704 0.0
C15 C 0.47669 0.13677 0.04661 0.0
H16 H 0.61072 0.26213 0.07169 0.0
H17 H 0.49165 0.11738 0.02972 0.0
H18 H 0.85902 0.76058 0.13243 0.0
H19 H 0.49123 0.32246 0.19571 0.0
H20 H 0.94593 0.88177 0.18288 0.0
H21 H 0.33944 0.01834 0.02614 0.0
H22 H 0.2281 0.98401 0.04955 0.0
H23 H 0.01401 0.7193 0.035 0.0
H24 H 0.21868 0.09258 0.15521 0.0
H25 H 0.32494 0.2066 0.20341 0.0
H26 H 0.17967 0.99049 0.19592 0.0
H27 H 0.18339 0.01033 0.0972 0.0
H28 H 0.23823 0.91404 0.10004 0.0
H29 H 0.16483 0.8205 0.04453 0.0
N30 N -0.00117 0.75035 0.0855 0.0
C31 C 0.0439 0.80917 0.11475 0.0
C32 C 0.04555 0.75991 0.0594 0.0
C33 C 0.17149 0.86888 0.0962 0.0
C34 C 0.13063 0.81671 0.06472 0.0
C35 C 0.13014 0.86836 0.12131 0.0
H36 H 0.24117 0.97487 0.15741 0.0
N37 N 0.93582 0.77111 0.12621 0.0
C38 C 0.01096 0.81981 0.13595 0.0
C39 C 0.03522 0.90775 0.18251 0.0
C40 C 0.0617 0.88818 0.16473 0.0
C41 C 0.91717 0.79798 0.14112 0.0
C42 C 0.96478 0.86481 0.16998 0.0
O43 O 0.66901 0.39399 0.07299 0.0
O44 O 0.71011 0.49036 0.05556 0.0
O45 O 0.85729 0.71141 0.0669 0.0
O46 O 0.90136 0.68896 0.03151 0.0
O47 O 0.79923 0.53657 0.1236 0.0
O48 O 0.85728 0.58053 0.07117 0.0
O49 O 0.785 0.61958 0.1386 0.0
O50 O 0.74249 0.52776 0.16324 0.0
O51 O 0.64986 0.3349 0.13639 0.0
O52 O 0.59554 0.34048 0.17902 0.0
O53 O 0.68505 0.52307 0.09398 0.0
O54 O 0.58998 0.41246 0.13377 0.0
C55 C 0.65756 0.40794 0.05365 0.0
C56 C 0.84492 0.55283 0.09588 0.0
C57 C 0.96095 0.80591 0.01891 0.0
C58 C -0.0057 0.87648 0.97863 0.0
C59 C 0.12306 0.98191 0.01314 0.0
C60 C 0.05808 0.90018 0.02834 0.0
C61 C 0.09151 0.97046 0.98866 0.0
C62 C 0.92965 0.79419 0.99378 0.0
C63 C 0.88919 0.71914 0.03597 0.0
C64 C 0.14085 0.93901 0.17352 0.0
C65 C 0.17574 0.92989 0.15162 0.0
H66 H 0.07229 0.95974 0.20479 0.0
C67 C 0.76191 0.58604 0.16536 0.0
C68 C 0.60613 0.45248 0.1148 0.0
C69 C 0.53129 0.21351 0.17544 0.0
C70 C 0.448 0.1064 0.21549 0.0
C71 C 0.38362 0.03753 0.1604 0.0
C72 C 0.45933 0.13094 0.15241 0.0
C73 C 0.37738 0.02497 0.19174 0.0
C74 C 0.52553 0.20098 0.20691 0.0
C75 C 0.61088 0.31242 0.16746 0.0
H76 H 0.19805 0.05469 0.02058 0.0
H77 H 0.0831 0.91041 0.0476 0.0
H78 H 0.14336 0.03519 0.97746 0.0
H79 H 0.85401 0.72136 0.98685 0.0
H80 H 0.32846 0.97426 0.14248 0.0
H81 H 0.46069 0.13793 0.12839 0.0
H82 H 0.31548 0.95088 0.19768 0.0
H83 H 0.58114 0.26483 0.22469 0.0
C84 C 0.26967 0.44499 0.53751 0.0
C85 C 0.14424 0.33262 0.58184 0.0
C86 C 0.22008 0.42202 0.56839 0.0
C87 C 0.12447 0.27074 0.56493 0.0
C88 C 0.24565 0.38001 0.51926 0.0
C89 C 0.17483 0.29414 0.53363 0.0
N90 N 0.33936 0.52973 0.52473 0.0
C91 C 0.3812 0.54955 0.49254 0.0
C92 C 0.29304 0.40307 0.48702 0.0
C93 C 0.35988 0.4874 0.47334 0.0
Gd94 Gd 0.65098 0.88223 0.61845 0.0
Gd95 Gd 0.38425 0.63877 0.56106 0.0
N96 N 0.24039 0.48309 0.58374 0.0
C97 C 0.08707 0.30558 0.6108 0.0
C98 C 0.17649 0.45059 0.60924 0.0
C99 C 0.10148 0.3635 0.62396 0.0
H100 H 0.1848 0.4931 0.61907 0.0
H101 H 0.05417 0.3406 0.6452 0.0
H102 H 0.74712 0.86858 0.57785 0.0
H103 H 0.43157 0.61377 0.482 0.0
H104 H 0.87019 0.94584 0.52978 0.0
H105 H 0.02794 0.23736 0.6219 0.0
H106 H 0.06673 0.202 0.57498 0.0
H107 H 0.73948 0.06471 0.65769 0.0
H108 H 0.27697 0.35526 0.47232 0.0
H109 H 0.39522 0.50479 0.44812 0.0
H110 H 0.02093 0.20406 0.50509 0.0
H111 H 0.15657 0.24407 0.52035 0.0
H112 H 0.95658 0.28701 0.58751 0.0
H113 H 0.85505 0.21995 0.64206 0.0
N114 N 0.77133 0.04131 0.61142 0.0
C115 C 0.83487 0.08325 0.58349 0.0
C116 C 0.78332 0.09322 0.63373 0.0
C117 C 0.90567 0.21866 0.59412 0.0
C118 C 0.8487 0.18119 0.625 0.0
C119 C 0.90161 0.17138 0.57342 0.0
H120 H 0.01625 0.27885 0.53568 0.0
N121 N 0.78056 0.9634 0.57918 0.0
C122 C 0.84002 0.04332 0.56694 0.0
C123 C 0.91844 0.05097 0.52541 0.0
C124 C 0.90892 0.08781 0.53912 0.0
C125 C 0.79481 0.93202 0.56774 0.0
C126 C 0.86267 0.97416 0.54019 0.0
O127 O 0.35939 0.64288 0.61848 0.0
O128 O 0.49958 0.76161 0.64708 0.0
O129 O 0.70513 0.88486 0.64273 0.0
O130 O 0.69581 0.94534 0.67005 0.0
O131 O 0.51343 0.78542 0.58646 0.0
O132 O 0.59946 0.90447 0.62447 0.0
O133 O 0.64473 0.84045 0.55999 0.0
O134 O 0.53988 0.78477 0.5388 0.0
O135 O 0.3008 0.6213 0.56479 0.0
O136 O 0.35464 0.62706 0.51529 0.0
O137 O 0.51992 0.71803 0.6108 0.0
O138 O 0.4579 0.64219 0.55772 0.0
C139 C 0.40527 0.68549 0.64576 0.0
C140 C 0.53471 0.84445 0.60306 0.0
C141 C 0.78056 0.97973 0.69741 0.0
C142 C 0.81434 0.98527 0.74593 0.0
C143 C 0.92211 0.13472 0.73014 0.0
C144 C 0.86469 0.08171 0.7034 0.0
C145 C 0.89735 0.08736 0.75119 0.0
C146 C 0.75533 0.93153 0.71891 0.0
C147 C 0.71271 0.92211 0.67182 0.0
C148 C 0.96856 0.16974 0.52683 0.0
C149 C 0.96562 0.21212 0.54416 0.0
H150 H 0.97157 0.08405 0.5044 0.0
C151 C 0.61012 0.81851 0.53391 0.0
C152 C 0.49257 0.66342 0.58303 0.0
C153 C 0.2015 0.5253 0.5188 0.0
C154 C 0.10176 0.42996 0.47112 0.0
C155 C 0.02776 0.3889 0.5289 0.0
C156 C 0.11792 0.46536 0.5413 0.0
C157 C 0.01971 0.37156 0.49404 0.0
C158 C 0.19254 0.50655 0.48353 0.0
C159 C 0.29851 0.60978 0.53198 0.0
H160 H 0.98667 0.21341 0.73457 0.0
H161 H 0.88503 0.1202 0.68775 0.0
H162 H 0.94556 0.13182 0.771 0.0
H163 H 0.68994 0.85258 0.71467 0.0
H164 H 0.96403 0.34339 0.54642 0.0
H165 H 0.12202 0.47771 0.56855 0.0
H166 H 0.94919 0.31209 0.48488 0.0
H167 H 0.2562 0.55234 0.46582 0.0
C168 C 0.4116 0.61052 0.05997 0.0
C169 C 0.4424 0.56602 0.01873 0.0
C170 C 0.47432 0.63129 0.04489 0.0
C171 C 0.3481 0.48138 1.00722 0.0
C172 C 0.3156 0.52359 0.04918 0.0
C173 C 0.28547 0.46097 0.02209 0.0
N174 N 0.44334 0.67373 0.08554 0.0
C175 C 0.37916 0.64822 0.10411 0.0
C176 C 0.25198 0.50116 0.06632 0.0
C177 C 0.2831 0.56249 0.09441 0.0
Gd178 Gd 0.86182 0.11702 0.06284 0.0
Gd179 Gd 0.60951 0.81964 0.09586 0.0
N180 N 0.56717 0.71621 0.05526 0.0
C181 C 0.50747 0.58942 1.00415 0.0
C182 C 0.63022 0.73846 0.04176 0.0
C183 C 0.60172 0.67594 0.01575 0.0
H184 H 0.7024 0.80451 0.05095 0.0
H185 H 0.65221 0.69424 1.00481 0.0
H186 H 0.83718 0.20177 0.10506 0.0
H187 H 0.4018 0.69404 0.12633 0.0
H188 H 0.90326 0.31648 0.15496 0.0
H189 H 0.48576 0.54134 0.9839 0.0
H190 H 0.32291 0.43125 0.98676 0.0
H191 H 0.05033 0.21084 0.03361 0.0
H192 H 0.17762 0.43487 0.05884 0.0
H193 H 0.233 0.54353 0.10864 0.0
H194 H 0.14516 0.45546 0.19052 0.0
H195 H 0.21289 0.39526 0.01291 0.0
H196 H 0.23536 0.39442 0.11529 0.0
H197 H 0.18703 0.30867 0.05788 0.0
N198 N 0.0094 0.22636 0.07898 0.0
C199 C 0.04166 0.28164 0.10897 0.0
C200 C 0.06584 0.24222 0.05958 0.0
C201 C 0.17246 0.34824 0.10534 0.0
C202 C 0.14515 0.29961 0.07299 0.0
C203 C 0.12337 0.3432 0.12313 0.0
H204 H 0.21843 0.44845 0.165 0.0
N205 N 0.92455 0.2288 0.10864 0.0
C206 C -0.00017 0.28508 0.12372 0.0
C207 C 0.00229 0.36025 0.16418 0.0
C208 C 0.03901 0.35052 0.15249 0.0
C209 C 0.89263 0.24245 0.11862 0.0
C210 C 0.93022 0.3075 0.14671 0.0
O211 O 0.63745 0.82984 0.03742 0.0
O212 O 0.76831 0.98869 0.02153 0.0
O213 O 0.8415 0.15255 0.0435 0.0
O214 O 0.95839 0.21081 0.02136 0.0
O215 O 0.77454 0.96482 0.08795 0.0
O216 O 0.87885 0.05898 0.045 0.0
O217 O 0.79863 0.08543 0.11843 0.0
O218 O 0.74908 0.97498 0.1208 0.0
O219 O 0.61437 0.77199 0.11814 0.0
O220 O 0.55156 0.77855 0.14807 0.0
O221 O 0.70254 0.96497 0.07203 0.0
O222 O 0.56558 0.85033 0.10281 0.0
C223 C 0.6946 0.89352 0.0145 0.0
C224 C 0.82982 0.99185 0.06143 0.0
C225 C 0.98729 0.30777 0.02044 0.0
C226 C 0.0815 0.42811 0.98526 0.0
C227 C 0.1171 0.47556 0.04413 0.0
C228 C 0.04415 0.3805 0.04774 0.0
C229 C 0.13676 0.49989 0.01282 0.0
C230 C 0.00537 0.3317 0.98943 0.0
C231 C 0.91808 0.2108 0.02193 0.0
C232 C 0.11546 0.40633 0.16798 0.0
C233 C 0.15712 0.40217 0.15344 0.0
H234 H 0.03097 0.41023 0.18606 0.0
C235 C 0.76688 0.03235 0.13681 0.0
C236 C 0.62909 0.92478 0.08621 0.0
C237 C 0.51914 0.68978 0.16937 0.0
C238 C 0.50854 0.64994 0.2165 0.0
C239 C 0.36388 0.52231 0.18576 0.0
C240 C 0.41925 0.5911 0.16473 0.0
C241 C 0.40769 0.55132 0.21152 0.0
C242 C 0.56395 0.71898 0.19506 0.0
C243 C 0.57814 0.76383 0.14793 0.0
H244 H 0.16097 0.53139 0.06522 0.0
H245 H 0.03544 0.36564 0.0713 0.0
H246 H 0.19643 0.57496 1.00984 0.0
H247 H 0.96459 0.27698 0.96783 0.0
H248 H 0.28668 0.44589 0.18198 0.0
H249 H 0.38452 0.56763 0.14483 0.0
H250 H 0.36294 0.49576 0.22702 0.0
H251 H 0.64146 0.7955 0.19859 0.0
C252 C 0.61146 0.41472 0.61708 0.0
C253 C 0.54665 0.4275 0.65162 0.0
C254 C 0.61741 0.46532 0.62748 0.0
C255 C 0.47279 0.3408 0.66648 0.0
C256 C 0.53354 0.32428 0.6304 0.0
C257 C 0.4658 0.28893 0.65574 0.0
N258 N 0.67915 0.45161 0.59296 0.0
C259 C 0.66583 0.39578 0.57809 0.0
C260 C 0.52493 0.27112 0.6174 0.0
C261 C 0.59008 0.30601 0.59061 0.0
Gd262 Gd 0.09685 0.88549 0.6291 0.0
Gd263 Gd 0.81314 0.61211 0.57928 0.0
N264 N 0.69277 0.55192 0.61402 0.0
C265 C 0.55255 0.47826 0.6602 0.0
C266 C 0.69611 0.59908 0.6208 0.0
C267 C 0.627 0.56383 0.64449 0.0
H268 H 0.75485 0.66624 0.60909 0.0
H269 H 0.63163 0.60308 0.65086 0.0
H270 H 0.26997 0.9671 0.57681 0.0
H271 H 0.71495 0.42135 0.55699 0.0
H272 H 0.40863 0.09326 0.53649 0.0
H273 H 0.49954 0.45154 0.67867 0.0
H274 H 0.41927 0.31197 0.68574 0.0
H275 H 0.10701 0.99231 0.69001 0.0
H276 H 0.46605 0.20132 0.62695 0.0
H277 H 0.58162 0.26347 0.57946 0.0
H278 H 0.45927 0.29044 0.55207 0.0
H279 H 0.4063 0.22029 0.66659 0.0
H280 H 0.28865 0.23869 0.64889 0.0
H281 H 0.1753 0.12701 0.69513 0.0
N282 N 0.1748 0.02356 0.64056 0.0
C283 C 0.24394 0.08935 0.61652 0.0
C284 C 0.15521 0.04016 0.66969 0.0
C285 C 0.25772 0.179 0.64642 0.0
C286 C 0.19416 0.11644 0.67266 0.0
C287 C 0.28655 0.16843 0.61857 0.0
H288 H 0.39473 0.29926 0.59535 0.0
N289 N 0.24325 0.01177 0.59295 0.0
C290 C 0.27994 0.08385 0.59207 0.0
C291 C 0.40433 0.15908 0.54814 0.0
C292 C 0.36039 0.15843 0.56926 0.0
C293 C 0.29311 0.01891 0.57487 0.0
C294 C 0.3723 0.09072 0.55166 0.0
O295 O 0.81466 0.65169 0.63739 0.0
O296 O 0.96635 0.80126 0.66381 0.0
O297 O 0.0919 0.83416 0.6568 0.0
O298 O 0.19475 0.97974 0.66911 0.0
O299 O 0.94691 0.77456 0.5799 0.0
O300 O 0.01747 0.87305 0.62857 0.0
O301 O 0.101 0.85541 0.57193 0.0
O302 O 0.94862 0.6999 0.54592 0.0
O303 O 0.79319 0.6333 0.54599 0.0
O304 O 0.7343 0.51416 0.53342 0.0
O305 O 0.96364 0.7278 0.61228 0.0
O306 O 0.85763 0.58785 0.58453 0.0
C307 C 0.86896 0.71695 0.66411 0.0
C308 C 0.96313 0.82537 0.60418 0.0
C309 C 0.23747 0.95568 0.68159 0.0
C310 C 0.32803 0.01898 0.72361 0.0
C311 C 0.37714 0.03215 0.66314 0.0
C312 C 0.30184 0.98759 0.65546 0.0
C313 C 0.39102 0.04878 0.69699 0.0
C314 C 0.24933 0.96932 0.71527 0.0
C315 C 0.1628 0.91636 0.67542 0.0
C316 C 0.39814 0.23318 0.56959 0.0
C317 C 0.3612 0.2381 0.5942 0.0
H318 H 0.46631 0.21515 0.53035 0.0
C319 C 0.04665 0.78887 0.54566 0.0
C320 C 0.93409 0.66073 0.60193 0.0
C321 C 0.71274 0.53264 0.49223 0.0
C322 C 0.71095 0.56568 0.44775 0.0
C323 C 0.61503 0.41401 0.44344 0.0
C324 C 0.64761 0.44221 0.47412 0.0
C325 C 0.6462 0.475 0.43037 0.0
C326 C 0.74554 0.59526 0.47855 0.0
C327 C 0.74984 0.56244 0.52397 0.0
H328 H 0.42673 0.05657 0.64291 0.0
H329 H 0.29497 0.97966 0.62942 0.0
H330 H 0.45294 0.08779 0.70219 0.0
H331 H 0.19797 0.94303 0.73507 0.0
H332 H 0.56463 0.34403 0.42983 0.0
H333 H 0.62182 0.39301 0.48361 0.0
H334 H 0.61803 0.45037 0.4069 0.0
H335 H 0.79692 0.66599 0.49178 0.0
H336 H 0.96773 0.06312 0.01633 0.0
H337 H 0.09031 0.12976 0.03152 0.0
H338 H 0.93238 0.00984 0.12925 0.0
H339 H 0.81016 0.94224 0.1144 0.0
H340 H 0.19665 0.27009 0.09351 0.0
H341 H 0.9703 0.97076 0.15557 0.0
H342 H 0.79745 0.79043 0.15434 0.0
H343 H 0.82137 0.77093 0.04522 0.0
H344 H -0.00666 0.95163 0.04598 0.0
H345 H 0.48491 0.38722 0.16983 0.0
H346 H 0.32948 0.28376 0.16832 0.0
H347 H 0.4036 0.33746 0.06308 0.0
H348 H 0.55553 0.43593 0.06406 0.0
H349 H 0.16826 0.10325 0.11604 0.0
H350 H 0.372 0.41893 0.06672 0.0
H351 H 0.53192 0.60002 0.07506 0.0
H352 H 0.54389 0.59063 0.17127 0.0
H353 H 0.38061 0.40934 0.16501 0.0
C354 C 0.9577 0.04839 0.04057 0.0
C355 C 0.88158 0.00073 0.06461 0.0
C356 C 0.02779 0.0869 0.04927 0.0
C357 C 0.02063 0.07595 0.08169 0.0
C358 C 0.93881 0.01891 0.10413 0.0
C359 C 0.86884 0.98016 0.09545 0.0
C360 C 0.10271 0.13126 0.09337 0.0
C361 C 0.19124 0.23418 0.09805 0.0
C362 C 0.09192 0.08293 0.10185 0.0
C363 C -0.00488 0.974 0.1008 0.0
C364 C 0.93922 0.92759 0.13132 0.0
C365 C 0.84091 0.82567 0.13073 0.0
C366 C 0.79873 0.76914 0.0997 0.0
C367 C 0.85449 0.81462 0.06921 0.0
C368 C 0.95221 0.91677 0.0697 0.0
C369 C 0.46594 0.37396 0.14619 0.0
C370 C 0.5276 0.4127 0.1164 0.0
C371 C 0.37804 0.31571 0.14544 0.0
C372 C 0.35417 0.30031 0.11523 0.0
C373 C 0.42012 0.34649 0.0863 0.0
C374 C 0.50694 0.40322 0.08697 0.0
C375 C 0.26445 0.24287 0.11387 0.0
C376 C 0.17383 0.13947 0.11165 0.0
C377 C 0.27199 0.29082 0.10916 0.0
C378 C 0.36478 0.39996 0.1149 0.0
C379 C 0.40769 0.45515 0.08995 0.0
C380 C 0.49897 0.55812 0.09439 0.0
C381 C 0.54864 0.60705 0.12343 0.0
C382 C 0.50579 0.5529 0.14865 0.0
C383 C 0.41345 0.44993 0.1448 0.0
H384 H 0.61999 0.68686 0.12648 0.0
H385 H 0.72278 0.69018 0.09929 0.0
H386 H 0.96072 0.90303 0.6498 0.0
H387 H 0.05184 0.04543 0.64134 0.0
H388 H 0.07359 -0.00021 0.53275 0.0
H389 H -0.00721 0.863 0.54175 0.0
H390 H 0.25228 0.18813 0.56024 0.0
H391 H 0.92856 0.96457 0.56838 0.0
H392 H 0.76544 0.82094 0.59918 0.0
H393 H 0.89808 -0.00091 0.6936 0.0
H394 H 0.05697 0.14396 0.66353 0.0
H395 H 0.48259 0.57814 0.53208 0.0
H396 H 0.38166 0.42486 0.53353 0.0
H397 H 0.31727 0.42703 0.64165 0.0
H398 H 0.41679 0.57957 0.64016 0.0
H399 H 0.15373 0.25482 0.61232 0.0
H400 H 0.46034 0.47066 0.61133 0.0
H401 H 0.63511 0.61312 0.5921 0.0
H402 H 0.55202 0.44903 0.49702 0.0
H403 H 0.3782 0.30984 0.51424 0.0
C404 C 0.98178 0.92103 0.62402 0.0
C405 C 0.97196 0.87401 0.59658 0.0
C406 C 0.03333 0.00218 0.61914 0.0
C407 C 0.06774 0.03193 0.58634 0.0
C408 C 0.04724 0.97739 0.55822 0.0
C409 C -0.00055 0.89832 0.56332 0.0
C410 C 0.13268 0.1254 0.58254 0.0
C411 C 0.23027 0.20236 0.57018 0.0
C412 C 0.10426 0.14397 0.59729 0.0
C413 C 0.00414 0.06564 0.61361 0.0
C414 C 0.92093 0.97393 0.59559 0.0
C415 C 0.82889 0.89203 0.61303 0.0
C416 C 0.81982 0.90094 0.64845 0.0
C417 C 0.90242 0.9923 0.6663 0.0
C418 C -0.00669 0.07505 0.64901 0.0
C419 C 0.44903 0.54714 0.55626 0.0
C420 C 0.45631 0.58944 0.58591 0.0
C421 C 0.39132 0.45973 0.55708 0.0
C422 C 0.34144 0.41454 0.58766 0.0
C423 C 0.35438 0.46053 0.61778 0.0
C424 C 0.41223 0.54814 0.61697 0.0
C425 C 0.27252 0.31706 0.58761 0.0
C426 C 0.17487 0.23999 0.60011 0.0
C427 C 0.3014 0.29885 0.57346 0.0
C428 C 0.40604 0.38027 0.56383 0.0
C429 C 0.47951 0.46549 0.5861 0.0
C430 C 0.57867 0.54602 0.57555 0.0
C431 C 0.60517 0.5404 0.54353 0.0
C432 C 0.53241 0.4542 0.52188 0.0
C433 C 0.43329 0.37464 0.53183 0.0
H434 H 0.68218 0.6034 0.53569 0.0
H435 H 0.74935 0.83678 0.66205 0.0
H436 H 0.6256 0.99522 0.14208 0.0
H437 H 0.65529 0.09698 0.14151 0.0
H438 H 0.66039 0.0558 0.03194 0.0
H439 H 0.63098 0.95481 0.03257 0.0
H440 H 0.832 0.2744 0.10591 0.0
H441 H 0.57887 0.07485 1.00956 0.0
H442 H 0.41733 0.90477 0.98736 0.0
H443 H 0.32167 0.79655 0.08081 0.0
H444 H 0.47999 0.96583 0.10428 0.0
H445 H 0.81579 0.4604 0.03612 0.0
H446 H 0.78347 0.35444 0.03032 0.0
H447 H 0.83648 0.42899 0.13606 0.0
H448 H 0.87194 0.53662 0.14142 0.0
H449 H 0.63759 0.1928 0.06015 0.0
H450 H 0.90742 0.40393 0.15302 0.0
H451 H 0.0769 0.57566 0.16945 0.0
H452 H 0.15161 0.66413 0.07415 0.0
H453 H 0.98405 0.49274 0.05666 0.0
C454 C 0.63028 0.00588 0.11808 0.0
C455 C 0.62759 0.96908 0.08733 0.0
C456 C 0.64761 0.06408 0.11771 0.0
C457 C 0.66067 0.0843 0.08664 0.0
C458 C 0.65034 0.04093 0.05614 0.0
C459 C 0.63372 0.98354 0.05652 0.0
C460 C 0.69496 0.15841 0.08568 0.0
C461 C 0.7889 0.25645 0.0965 0.0
C462 C 0.64077 0.13539 0.07144 0.0
C463 C 0.54232 0.0333 0.05849 0.0
C464 C 0.52289 0.01489 0.02557 0.0
C465 C 0.43157 0.91849 0.01279 0.0
C466 C 0.35909 0.83974 0.03266 0.0
C467 C 0.37739 0.85742 0.06549 0.0
C468 C 0.46793 0.95369 0.07858 0.0
C469 C 0.82337 0.45621 0.05773 0.0
C470 C 0.84452 0.50497 0.0894 0.0
C471 C 0.80407 0.39508 0.05452 0.0
C472 C 0.80707 0.38322 0.08279 0.0
C473 C 0.83484 0.43755 0.11372 0.0
C474 C 0.85476 0.49886 0.11683 0.0
C475 C 0.77435 0.30912 0.0811 0.0
C476 C 0.68096 0.21108 0.06959 0.0
C477 C 0.83011 0.33238 0.09388 0.0
C478 C 0.93252 0.43546 0.10372 0.0
C479 C 0.96028 0.45986 0.13543 0.0
C480 C 0.05618 0.55723 0.14492 0.0
C481 C 0.12505 0.63093 0.12292 0.0
C482 C 0.09846 0.60719 0.09121 0.0
C483 C 0.00298 0.50987 0.08148 0.0
H484 H 0.19893 0.70639 0.1305 0.0
H485 H 0.28882 0.76505 0.0226 0.0
H486 H 0.51498 0.85615 0.55024 0.0
H487 H 0.40891 0.82058 0.54927 0.0
H488 H 0.31098 0.75386 0.65443 0.0
H489 H 0.42391 0.7986 0.65583 0.0
H490 H 0.22328 0.66454 0.55527 0.0
H491 H 0.23835 0.78587 0.69424 0.0
H492 H 0.35211 0.90569 0.74024 0.0
H493 H 0.59979 0.10397 0.66654 0.0
H494 H 0.48725 0.98445 0.62008 0.0
H495 H 0.86247 0.51711 0.60178 0.0
H496 H 0.95802 0.53804 0.59905 0.0
H497 H 0.22743 0.85068 0.59339 0.0
H498 H 0.13187 0.82889 0.59732 0.0
H499 H 0.22188 0.80916 0.64366 0.0
H500 H 0.16183 0.71774 0.52611 0.0
H501 H 0.06659 0.61477 0.47536 0.0
H502 H 0.93683 0.38814 0.49831 0.0
H503 H 0.02981 0.489 0.54969 0.0
C504 C 0.47196 0.83573 0.57321 0.0
C505 C 0.47633 0.82928 0.60317 0.0
C506 C 0.41085 0.81455 0.5726 0.0
C507 C 0.35234 0.78523 0.60186 0.0
C508 C 0.35695 0.77858 0.63175 0.0
C509 C 0.42054 0.80306 0.63258 0.0
C510 C 0.28652 0.76151 0.60106 0.0
C511 C 0.22285 0.69606 0.57461 0.0
C512 C 0.2862 0.80293 0.62615 0.0
C513 C 0.35453 0.87612 0.65378 0.0
C514 C 0.3171 0.85518 0.6879 0.0
C515 C 0.38132 0.92277 0.71401 0.0
C516 C 0.48313 0.01245 0.70632 0.0
C517 C 0.52092 0.03444 0.67246 0.0
C518 C 0.45699 0.96659 0.64622 0.0
C519 C 0.94221 0.59026 0.60016 0.0
C520 C 0.99089 0.67295 0.60067 0.0
C521 C -0.00358 0.6019 0.59833 0.0
C522 C 0.09979 0.69627 0.59645 0.0
C523 C 0.14772 0.77753 0.59543 0.0
C524 C 0.09353 0.76547 0.59747 0.0
C525 C 0.15972 0.71337 0.59766 0.0
C526 C 0.22176 0.77706 0.62442 0.0
C527 C 0.16046 0.67265 0.57225 0.0
C528 C 0.10157 0.61027 0.54211 0.0
C529 C 0.11174 0.64526 0.5207 0.0
C530 C 0.05846 0.58743 0.49172 0.0
C531 C -0.00455 0.49481 0.48367 0.0
C532 C 0.98548 0.45978 0.50463 0.0
C533 C 0.03835 0.51719 0.5337 0.0
H534 H 0.95462 0.45034 0.46114 0.0
H535 H 0.5327 0.0649 0.7266 0.0
H536 H 0.66502 0.78173 0.51396 0.0
H537 H 0.6667 0.73048 0.45668 0.0
H538 H 0.58729 0.75997 0.41726 0.0
H539 H 0.5925 0.81875 0.4742 0.0
H540 H 0.5614 0.63605 0.39044 0.0
H541 H 0.74808 0.88259 0.36861 0.0
H542 H 0.87247 0.0496 0.39418 0.0
H543 H 0.97823 0.06141 0.44589 0.0
H544 H 0.85106 0.89299 0.42229 0.0
H545 H 0.71549 0.63048 0.18124 0.0
H546 H 0.71289 0.68454 0.23727 0.0
H547 H 0.79104 0.65909 0.28229 0.0
H548 H 0.79292 0.60372 0.22643 0.0
H549 H 0.80992 0.77634 0.30531 0.0
H550 H 0.61905 0.52588 0.3266 0.0
H551 H 0.49819 0.36168 0.29873 0.0
H552 H 0.4075 0.36199 0.2434 0.0
H553 H 0.52719 0.52553 0.27134 0.0
C554 C 0.65265 0.78213 0.49297 0.0
C555 C 0.62931 0.80513 0.49874 0.0
C556 C 0.65213 0.75118 0.46023 0.0
C557 C 0.62795 0.74212 0.43264 0.0
C558 C 0.60807 0.76835 0.43808 0.0
C559 C 0.61108 0.80185 0.47063 0.0
C560 C 0.60587 0.68664 0.39761 0.0
C561 C 0.66282 0.71373 0.3717 0.0
C562 C 0.69788 0.75049 0.37211 0.0
C563 C 0.79589 0.87835 0.39077 0.0
C564 C 0.79972 0.92217 0.38477 0.0
C565 C 0.86932 0.01622 0.39952 0.0
C566 C 0.93445 0.06691 0.42124 0.0
C567 C 0.92836 0.02256 0.42887 0.0
C568 C 0.85768 0.92782 0.41467 0.0
C569 C 0.73106 0.63528 0.20312 0.0
C570 C 0.75534 0.61374 0.19942 0.0
C571 C 0.72808 0.66474 0.23511 0.0
C572 C 0.74792 0.67187 0.26397 0.0
C573 C 0.77185 0.65021 0.2604 0.0
C574 C 0.77366 0.61947 0.2285 0.0
C575 C 0.76635 0.72595 0.29834 0.0
C576 C 0.70809 0.69775 0.32381 0.0
C577 C 0.67303 0.66106 0.3233 0.0
C578 C 0.57522 0.53379 0.30393 0.0
C579 C 0.56982 0.48848 0.30974 0.0
C580 C 0.50276 0.3964 0.29352 0.0
C581 C 0.44286 0.34995 0.27016 0.0
C582 C 0.4516 0.39658 0.26238 0.0
C583 C 0.5184 0.48859 0.27871 0.0
H584 H 0.39107 0.27867 0.25766 0.0
H585 H 0.98873 0.13998 0.43254 0.0
H586 H 0.39565 0.7507 0.70067 0.0
H587 H 0.31625 0.68747 0.75665 0.0
H588 H 0.21401 0.46241 0.72002 0.0
H589 H 0.28483 0.51971 0.66285 0.0
H590 H 0.09169 0.39398 0.76765 0.0
H591 H 0.43771 0.69118 0.75748 0.0
H592 H 0.60683 0.86037 0.741 0.0
H593 H 0.58013 0.96473 0.81415 0.0
H594 H 0.40893 0.79495 0.83047 0.0
H595 H 0.25226 0.55249 0.94865 0.0
H596 H 0.29363 0.58192 0.88894 0.0
H597 H 0.01759 0.39502 0.8853 0.0
H598 H 0.974 0.36103 0.94465 0.0
H599 H 0.32988 0.66448 0.85637 0.0
H600 H 0.93333 0.28505 0.80785 0.0
H601 H 0.77572 0.11027 0.81957 0.0
H602 H 0.92835 0.16235 0.85945 0.0
H603 H 0.08695 0.33741 0.8479 0.0
C604 C 0.35221 0.68496 0.70414 0.0
C605 C 0.34473 0.6389 0.67756 0.0
C606 C 0.30819 0.64972 0.7363 0.0
C607 C 0.26195 0.57224 0.74284 0.0
C608 C 0.24965 0.52257 0.71569 0.0
C609 C 0.29034 0.55545 0.68314 0.0
C610 C 0.23675 0.55087 0.77836 0.0
C611 C 0.14346 0.45297 0.78712 0.0
C612 C 0.30608 0.62735 0.80344 0.0
C613 C 0.41021 0.73024 0.79492 0.0
C614 C 0.46775 0.75014 0.77001 0.0
C615 C 0.564 0.84615 0.76067 0.0
C616 C 0.6044 0.92339 0.77644 0.0
C617 C 0.54866 0.90477 0.80186 0.0
C618 C 0.45189 0.80858 0.81116 0.0
C619 C 0.20118 0.51869 0.93504 0.0
C620 C 0.11061 0.4554 0.95094 0.0
C621 C 0.22446 0.53506 0.90095 0.0
C622 C 0.15811 0.48952 0.88236 0.0
C623 C 0.06885 0.42889 0.89877 0.0
C624 C 0.04452 0.4106 0.9327 0.0
C625 C 0.18368 0.50748 0.84608 0.0
C626 C 0.27754 0.60507 0.83708 0.0
C627 C 0.117 0.42997 0.82049 0.0
C628 C 0.02187 0.32459 0.82735 0.0
C629 C 0.93327 0.25911 0.819 0.0
C630 C 0.84375 0.15993 0.82557 0.0
C631 C 0.84194 0.12505 0.84013 0.0
C632 C 0.92975 0.18942 0.84822 0.0
C633 C 0.01947 0.2887 0.84176 0.0
H634 H 0.77251 0.04817 0.84514 0.0
H635 H 0.6788 0.99753 0.76888 0.0
H636 H 0.63253 0.57666 0.47147 0.0
H637 H 0.62801 0.62467 0.44051 0.0
H638 H 0.83075 0.72712 0.36178 0.0
H639 H 0.83073 0.67313 0.39197 0.0
H640 H 0.90608 0.88865 0.3637 0.0
H641 H 0.5565 0.48308 0.38373 0.0
H642 H 0.41367 0.3263 0.40922 0.0
H643 H 0.23902 0.27764 0.40847 0.0
H644 H 0.38254 0.43689 0.38438 0.0
H645 H 0.68586 0.76741 0.21283 0.0
H646 H 0.7491 0.79651 0.25568 0.0
H647 H 0.49852 0.62672 0.32446 0.0
H648 H 0.43418 0.59566 0.28178 0.0
H649 H 0.46402 0.52094 0.33147 0.0
H650 H 0.80658 0.91905 0.30881 0.0
H651 H 0.94779 0.07546 0.28303 0.0
H652 H 0.13051 0.13547 0.28709 0.0
H653 H 0.98952 0.97794 0.31212 0.0
C654 C 0.67926 0.613 0.4483 0.0
C655 C 0.73301 0.62233 0.43441 0.0
C656 C 0.67716 0.64119 0.43063 0.0
C657 C 0.7302 0.68102 0.39902 0.0
C658 C 0.79009 0.69757 0.3863 0.0
C659 C 0.79028 0.66698 0.40359 0.0
C660 C 0.71195 0.69173 0.37747 0.0
C661 C 0.83174 0.82772 0.35866 0.0
C662 C 0.56643 0.56864 0.36807 0.0
C663 C 0.48178 0.47409 0.3831 0.0
C664 C 0.48904 0.44112 0.38991 0.0
C665 C 0.40737 0.351 0.40393 0.0
C666 C 0.31741 0.29229 0.41076 0.0
C667 C 0.30889 0.3234 0.40337 0.0
C668 C 0.39061 0.41381 0.38957 0.0
C669 C 0.64536 0.73809 0.23738 0.0
C670 C 0.55433 0.67846 0.24367 0.0
C671 C 0.68208 0.75545 0.26202 0.0
C672 C 0.62972 0.71543 0.29372 0.0
C673 C 0.54082 0.65889 0.30034 0.0
C674 C 0.50362 0.64061 0.27575 0.0
C675 C 0.65682 0.71758 0.31797 0.0
C676 C 0.53842 0.5829 0.33706 0.0
C677 C 0.80325 0.84189 0.32717 0.0
C678 C 0.88662 0.93529 0.31167 0.0
C679 C 0.87599 0.96413 0.30354 0.0
C680 C 0.95637 0.05359 0.28926 0.0
C681 C 0.04798 0.11517 0.28325 0.0
C682 C 0.05944 0.08759 0.29166 0.0
C683 C 0.97922 0.99819 0.30595 0.0
H684 H 0.11015 0.18444 0.27222 0.0
H685 H 0.25417 0.22244 0.42156 0.0
H686 H 0.29398 0.06377 0.77756 0.0
H687 H 0.32216 0.10244 0.83679 0.0
H688 H 0.44143 0.07991 0.81185 0.0
H689 H 0.40586 0.0329 0.75265 0.0
H690 H 0.32876 -0.0012 0.86965 0.0
H691 H 0.59101 0.31002 0.82379 0.0
H692 H 0.65332 0.41847 0.79547 0.0
H693 H 0.49548 0.38033 0.87201 0.0
H694 H 0.43187 0.27127 0.90068 0.0
H695 H 0.65467 0.32579 1.00397 0.0
H696 H 0.56438 0.22608 0.95217 0.0
H697 H 0.42583 0.22835 0.98858 0.0
H698 H 0.51447 0.32591 0.04029 0.0
H699 H 0.534 0.31027 0.92753 0.0
H700 H 0.25269 0.99091 0.96774 0.0
H701 H 0.15911 0.86006 0.99534 0.0
H702 H 0.33083 0.9033 0.93428 0.0
H703 H 0.42297 0.03212 0.90536 0.0
C704 C 0.32386 0.06431 0.78452 0.0
C705 C 0.34656 0.04383 0.75998 0.0
C706 C 0.34162 0.08835 0.81851 0.0
C707 C 0.38576 0.09607 0.82868 0.0
C708 C 0.40772 0.07486 0.80452 0.0
C709 C 0.38818 0.04886 0.77054 0.0
C710 C 0.41056 0.1278 0.86438 0.0
C711 C 0.37498 0.06774 0.8821 0.0
C712 C 0.4667 0.21526 0.88127 0.0
C713 C 0.50633 0.28211 0.86426 0.0
C714 C 0.56944 0.3246 0.83451 0.0
C715 C 0.60503 0.38622 0.81843 0.0
C716 C 0.57836 0.40626 0.83193 0.0
C717 C 0.51622 0.3649 0.86161 0.0
C718 C 0.48057 0.30337 0.87782 0.0
C719 C 0.60287 0.3025 1.00116 0.0
C720 C 0.59248 0.33472 0.02555 0.0
C721 C 0.55103 0.24531 0.97176 0.0
C722 C 0.48894 0.22048 0.96652 0.0
C723 C 0.47375 0.24719 0.99207 0.0
C724 C 0.52509 0.30373 0.02136 0.0
C725 C 0.45397 0.18232 0.93244 0.0
C726 C 0.48787 0.2414 0.91502 0.0
C727 C 0.39468 0.09327 0.91611 0.0
C728 C 0.34518 0.02151 0.93474 0.0
C729 C 0.27081 0.97284 0.96039 0.0
C730 C 0.21722 0.89822 0.97595 0.0
C731 C 0.23918 0.87351 0.96667 0.0
C732 C 0.31407 0.92267 0.9415 0.0
C733 C 0.36638 0.99584 0.92529 0.0
H734 H 0.19811 0.81623 0.97895 0.0
H735 H 0.60589 0.45389 0.81942 0.0
H736 H 0.82148 0.00743 0.96035 0.0
H737 H 0.81837 0.95804 0.9019 0.0
H738 H 0.53807 0.65428 0.92525 0.0
H739 H 0.54006 0.70344 0.98388 0.0
H740 H 0.82407 0.87515 0.90244 0.0
H741 H 0.4545 0.53644 0.81124 0.0
H742 H 0.33385 0.48115 0.80767 0.0
H743 H 0.51821 0.75213 0.86096 0.0
H744 H 0.64108 0.81044 0.86442 0.0
H745 H 0.68937 0.55439 0.70109 0.0
H746 H 0.6317 0.55716 0.75565 0.0
H747 H 0.89331 0.86833 0.75145 0.0
H748 H 0.9461 0.86397 0.69716 0.0
H749 H 0.60724 0.64543 0.78243 0.0
H750 H 0.00992 0.96042 0.79139 0.0
H751 H 0.11022 0.98433 0.7665 0.0
H752 H 0.88078 0.70213 0.79613 0.0
H753 H 0.7784 0.67586 0.82096 0.0
C754 C 0.75711 0.92941 0.95301 0.0
C755 C 0.68213 0.85963 0.97748 0.0
C756 C 0.75468 0.90087 0.91903 0.0
C757 C 0.67669 0.80163 0.90806 0.0
C758 C 0.59814 0.73087 0.93195 0.0
C759 C 0.60049 0.7595 0.96614 0.0
C760 C 0.69515 0.78065 0.87615 0.0
C761 C 0.78904 0.83353 0.87822 0.0
C762 C 0.63194 0.71236 0.84027 0.0
C763 C 0.55675 0.67694 0.83917 0.0
C764 C 0.46977 0.58454 0.82253 0.0
C765 C 0.40065 0.55253 0.82037 0.0
C766 C 0.41783 0.61264 0.83437 0.0
C767 C 0.50428 0.70497 0.85052 0.0
C768 C 0.5735 0.73719 0.85283 0.0
C769 C 0.73298 0.62253 0.71163 0.0
C770 C 0.82398 0.70979 0.69516 0.0
C771 C 0.70041 0.6244 0.74299 0.0
C772 C 0.7592 0.71375 0.75825 0.0
C773 C 0.84667 0.79856 0.74061 0.0
C774 C 0.87787 0.79637 0.70958 0.0
C775 C 0.73957 0.7258 0.79382 0.0
C776 C 0.65237 0.68734 0.80306 0.0
C777 C 0.82094 0.79778 0.82317 0.0
C778 C 0.88856 0.81897 0.81036 0.0
C779 C 0.9816 0.90454 0.79366 0.0
C780 C 0.0386 0.91807 0.77907 0.0
C781 C 0.00283 0.84575 0.78035 0.0
C782 C 0.90935 0.75909 0.79576 0.0
C783 C 0.8519 0.74503 0.8102 0.0
H784 H 0.04696 0.85625 0.76898 0.0
H785 H 0.36455 0.588 0.83245 0.0
H786 H 0.48311 0.19841 0.27713 0.0
H787 H 0.44015 0.15427 0.33356 0.0
H788 H 0.33866 0.93145 0.28799 0.0
H789 H 0.3857 0.978 0.23145 0.0
H790 H 0.19553 0.86756 0.33146 0.0
H791 H 0.52094 0.1039 0.33057 0.0
H792 H 0.70251 0.26696 0.32625 0.0
H793 H 0.70409 0.38805 0.40999 0.0
H794 H 0.52242 0.22586 0.41459 0.0
H795 H 0.01396 0.68706 0.49087 0.0
H796 H 0.1014 0.74617 0.43407 0.0
H797 H 0.28569 0.02557 0.46888 0.0
H798 H 0.19827 0.96649 0.52472 0.0
H799 H 0.39329 0.05662 0.42925 0.0
H800 H 0.08814 0.84931 0.42718 0.0
H801 H 0.90892 0.69984 0.43307 0.0
H802 H 0.87008 0.54161 0.35583 0.0
H803 H 0.04934 0.68958 0.35028 0.0
C804 C 0.45493 0.1424 0.27903 0.0
C805 C 0.43654 0.09075 0.24967 0.0
C806 C 0.4302 0.11715 0.31133 0.0
C807 C 0.38616 0.03957 0.31477 0.0
C808 C 0.37256 0.9915 0.28571 0.0
C809 C 0.39858 0.0176 0.25346 0.0
C810 C 0.34169 -0.0004 0.34813 0.0
C811 C 0.23857 0.9076 0.35269 0.0
C812 C 0.39852 0.05455 0.37598 0.0
C813 C 0.50788 0.15278 0.37267 0.0
C814 C 0.55989 0.1655 0.34778 0.0
C815 C 0.66289 0.25773 0.34537 0.0
C816 C 0.71477 0.33777 0.36782 0.0
C817 C 0.66382 0.32597 0.39262 0.0
C818 C 0.56082 0.23387 0.39515 0.0
C819 C 0.07406 0.76137 0.48628 0.0
C820 C 0.10148 0.8234 0.51225 0.0
C821 C 0.12387 0.79509 0.454 0.0
C822 C 0.2003 0.89046 0.44733 0.0
C823 C 0.22826 0.95249 0.47355 0.0
C824 C 0.17875 0.91892 0.50555 0.0
C825 C 0.24684 0.92419 0.4126 0.0
C826 C 0.35013 0.01534 0.40783 0.0
C827 C 0.19035 0.87033 0.38475 0.0
C828 C 0.08211 0.78007 0.3888 0.0
C829 C 0.0413 0.78214 0.41191 0.0
C830 C 0.93957 0.69756 0.41519 0.0
C831 C 0.87783 0.61074 0.39513 0.0
C832 C 0.91783 0.60846 0.37169 0.0
C833 C 0.0195 0.69262 0.36852 0.0
H834 H 0.79915 0.54547 0.39751 0.0
H835 H 0.79446 0.40877 0.36608 0.0
H836 H 0.76362 0.85273 0.72444 0.0
H837 H 0.76515 0.80308 0.75513 0.0
H838 H 0.83072 0.96537 0.84617 0.0
H839 H 0.83211 0.01832 0.8147 0.0
H840 H 0.86585 0.90653 0.83095 0.0
H841 H 0.49239 0.56467 0.88018 0.0
H842 H 0.32392 0.38752 0.86879 0.0
H843 H 0.43618 0.36562 0.80167 0.0
H844 H 0.6059 0.54404 0.81299 0.0
H845 H 0.02169 0.98445 0.97706 0.0
H846 H 0.96734 0.96751 0.93568 0.0
H847 H 0.83723 0.72778 0.88063 0.0
H848 H 0.88866 0.74237 0.92283 0.0
H849 H 0.70213 0.69525 0.86296 0.0
H850 H 0.06789 0.97943 0.85394 0.0
H851 H 0.23838 0.13405 0.87039 0.0
H852 H 0.23035 0.26679 0.9088 0.0
H853 H 0.06064 0.11378 0.89164 0.0
C854 C 0.77563 0.8759 0.75126 0.0
C855 C 0.79711 0.93951 0.76679 0.0
C856 C 0.77607 0.84652 0.76943 0.0
C857 C 0.79183 0.87418 0.80462 0.0
C858 C 0.81313 0.93781 0.81992 0.0
C859 C 0.8147 0.96896 0.80163 0.0
C860 C 0.80535 0.85215 0.82686 0.0
C861 C 0.92624 0.95471 0.83924 0.0
C862 C 0.67876 0.68901 0.85141 0.0
C863 C 0.56286 0.57033 0.84476 0.0
C864 C 0.48194 0.52347 0.86231 0.0
C865 C 0.38567 0.42215 0.85609 0.0
C866 C 0.36913 0.36561 0.8336 0.0
C867 C 0.44881 0.40986 0.81816 0.0
C868 C 0.54492 0.51122 0.82421 0.0
C869 C 0.98259 0.92889 0.9559 0.0
C870 C 0.96063 0.86552 0.95312 0.0
C871 C 0.95227 0.91984 0.93193 0.0
C872 C 0.90167 0.84915 0.90389 0.0
C873 C 0.87801 0.78451 0.90143 0.0
C874 C 0.907 0.7925 0.92574 0.0
C875 C 0.86649 0.83748 0.87902 0.0
C876 C 0.74432 0.72081 0.87455 0.0
C877 C 0.94789 0.94177 0.863 0.0
C878 C 0.05158 0.03518 0.87135 0.0
C879 C 0.10277 0.0419 0.86548 0.0
C880 C 0.19938 0.12934 0.87493 0.0
C881 C 0.24527 0.2103 0.89057 0.0
C882 C 0.19492 0.20422 0.89649 0.0
C883 C 0.09888 0.11749 0.88657 0.0
H884 H 0.31986 0.27776 0.89806 0.0
H885 H 0.29466 0.28726 0.82867 0.0
H886 H 0.81129 0.0157 0.16987 0.0
H887 H 0.88055 0.09449 0.22468 0.0
H888 H 0.87183 0.22414 0.23772 0.0
H889 H 0.80158 0.14452 0.18225 0.0
H890 H 0.04831 0.35756 0.25536 0.0
H891 H 0.70177 0.02435 0.27719 0.0
H892 H 0.54527 0.8432 0.26823 0.0
H893 H 0.67194 0.85361 0.29506 0.0
H894 H 0.82994 0.0347 0.30304 0.0
H895 H 0.07104 0.45881 0.43698 0.0
H896 H 0.03189 0.40561 0.37738 0.0
H897 H 0.06247 0.29611 0.3637 0.0
H898 H 0.10411 0.35169 0.42317 0.0
H899 H 0.8812 0.15634 0.34548 0.0
H900 H 0.22324 0.47953 0.32174 0.0
H901 H 0.38714 0.66126 0.32784 0.0
H902 H 0.27621 0.67039 0.30404 0.0
H903 H 0.11116 0.48849 0.29816 0.0
C904 C 0.82301 0.06013 0.18437 0.0
C905 C 0.80124 0.07426 0.17154 0.0
C906 C 0.86307 0.10548 0.21577 0.0
C907 C 0.88086 0.16473 0.23545 0.0
C908 C 0.85888 0.17883 0.2229 0.0
C909 C 0.81866 0.1333 0.19129 0.0
C910 C 0.921 0.21036 0.2693 0.0
C911 C 0.01097 0.31354 0.2753 0.0
C912 C 0.87418 0.15298 0.2948 0.0
C913 C 0.77831 0.04349 0.29033 0.0
C914 C 0.69662 0.98811 0.28082 0.0
C915 C 0.60751 0.8853 0.2759 0.0
C916 C 0.59858 0.83678 0.28096 0.0
C917 C 0.6788 0.89101 0.29095 0.0
C918 C 0.76829 0.99384 0.29562 0.0
C919 C 0.07154 0.42541 0.42091 0.0
C920 C 0.09099 0.40963 0.43432 0.0
C921 C 0.04939 0.39524 0.38696 0.0
C922 C 0.04462 0.34724 0.36611 0.0
C923 C 0.06629 0.33347 0.37933 0.0
C924 C 0.0903 0.36538 0.41314 0.0
C925 C 0.00785 0.30331 0.33168 0.0
C926 C 0.91842 0.20037 0.32558 0.0
C927 C 0.05571 0.36087 0.30602 0.0
C928 C 0.1544 0.47026 0.30999 0.0
C929 C 0.23344 0.52021 0.3182 0.0
C930 C 0.32668 0.62329 0.32149 0.0
C931 C 0.34196 0.67733 0.31649 0.0
C932 C 0.26416 0.62839 0.30801 0.0
C933 C 0.17076 0.52529 0.30466 0.0
H934 H 0.41411 0.75711 0.31914 0.0
H935 H 0.52937 0.75719 0.27726 0.0
loop_
_geom_bond_atom_site_label_1
_geom_bond_atom_site_label_2
_geom_bond_distance
_geom_bond_site_symmetry_2
_ccdc_geom_bond_type
C0 C2 1.422 . S
C0 C4 1.415 . S
C0 N6 1.369 . S
C1 C2 1.421 . S
C1 C3 1.417 1_545 S
C1 C13 1.422 . S
C2 C0 1.422 . S
C2 C1 1.421 . S
C2 N12 1.359 . S
C3 C1 1.417 1_565 S
C3 C5 1.329 . S
C3 H22 0.930 . S
C4 C0 1.415 . S
C4 C5 1.437 1_545 S
C4 C8 1.429 1_545 S
C5 C3 1.329 . S
C5 C4 1.437 1_565 S
C5 H27 0.929 . S
N6 C0 1.369 . S
N6 C7 1.338 . S
N6 Gd11 2.622 . S
C7 N6 1.338 . S
C7 C9 1.378 . S
C7 H19 0.929 . S
C8 C4 1.429 1_565 S
C8 C9 1.335 1_565 S
C8 H24 0.928 . S
C9 C7 1.378 . S
C9 C8 1.335 1_545 S
C9 H25 0.930 . S
Gd10 N30 2.622 . S
Gd10 N37 2.570 . S
Gd10 O44 2.353 . S
Gd10 O45 2.468 . S
Gd10 O46 2.427 . S
Gd10 O48 2.388 . S
Gd10 O49 2.386 . S
Gd10 O53 2.307 . S
Gd10 C63 2.805 . S
Gd11 N6 2.622 . S
Gd11 N12 2.570 . S
Gd11 O43 2.386 . S
Gd11 O47 2.307 . S
Gd11 O50 2.353 . S
Gd11 O51 2.468 . S
Gd11 O52 2.427 . S
Gd11 O54 2.388 . S
Gd11 C75 2.805 . S
N12 C2 1.359 . S
N12 Gd11 2.570 . S
N12 C14 1.343 . S
C13 C1 1.422 . S
C13 C15 1.321 . S
C13 H21 0.931 1_545 S
C14 N12 1.343 . S
C14 C15 1.390 . S
C14 H16 0.931 . S
C15 C13 1.321 . S
C15 C14 1.390 . S
C15 H17 0.930 . S
H16 C14 0.931 . S
H17 C15 0.930 . S
H18 C41 0.931 . S
H19 C7 0.929 . S
H20 C42 0.930 . S
H21 C13 0.931 1_565 S
H22 C3 0.930 . S
H23 C32 0.929 . S
H24 C8 0.928 . S
H25 C9 0.930 . S
H26 C64 0.930 . S
H27 C5 0.929 . S
H28 C33 0.931 1_545 S
H29 C34 0.930 . S
N30 Gd10 2.622 . S
N30 C31 1.369 1_655 S
N30 C32 1.338 1_655 S
C31 N30 1.369 1_455 S
C31 C35 1.415 . S
C31 C38 1.422 1_455 S
C32 H23 0.929 . S
C32 N30 1.338 1_455 S
C32 C34 1.378 . S
C33 H28 0.931 1_565 S
C33 C34 1.348 . S
C33 C35 1.413 . S
C34 H29 0.930 . S
C34 C32 1.378 . S
C34 C33 1.348 . S
C35 C31 1.415 . S
C35 C33 1.413 . S
C35 C65 1.437 1_565 S
H36 C65 0.929 . S
N37 Gd10 2.570 . S
N37 C38 1.359 . S
N37 C41 1.343 . S
C38 C31 1.422 1_655 S
C38 N37 1.359 . S
C38 C40 1.421 1_655 S
C39 C40 1.422 1_655 S
C39 C42 1.321 . S
C39 H66 0.931 . S
C40 C38 1.421 1_455 S
C40 C39 1.422 1_455 S
C40 C64 1.417 1_565 S
C41 H18 0.931 . S
C41 N37 1.343 . S
C41 C42 1.390 . S
C42 H20 0.930 . S
C42 C39 1.321 . S
C42 C41 1.390 . S
O43 Gd11 2.386 . S
O43 C55 1.265 . S
O44 Gd10 2.353 . S
O44 C55 1.242 . S
O45 Gd10 2.468 . S
O45 C63 1.263 . S
O46 Gd10 2.427 . S
O46 C63 1.252 . S
O47 Gd11 2.307 . S
O47 C56 1.261 . S
O48 Gd10 2.388 . S
O48 C56 1.252 . S
O49 Gd10 2.386 . S
O49 C67 1.265 . S
O50 Gd11 2.353 . S
O50 C67 1.242 . S
O51 Gd11 2.468 . S
O51 C75 1.263 . S
O52 Gd11 2.427 . S
O52 C75 1.252 . S
O53 Gd10 2.307 . S
O53 C68 1.261 . S
O54 Gd11 2.388 . S
O54 C68 1.252 . S
C55 O43 1.265 . S
C55 O44 1.242 . S
C56 O47 1.261 . S
C56 O48 1.252 . S
C57 C60 1.394 . S
C57 C62 1.370 . S
C57 C63 1.500 1_556 S
C58 C61 1.383 . S
C58 C62 1.395 . S
C59 C60 1.396 1_455 S
C59 C61 1.365 1_455 S
C59 H76 0.929 . S
C60 C57 1.394 . S
C60 C59 1.396 1_655 S
C60 H77 0.930 1_655 S
C61 C58 1.383 . S
C61 C59 1.365 1_655 S
C61 H78 0.931 . S
C62 C57 1.370 . S
C62 C58 1.395 . S
C62 H79 0.930 . S
C63 Gd10 2.805 . S
C63 O45 1.263 . S
C63 O46 1.252 . S
C63 C57 1.500 1_554 S
C64 H26 0.930 . S
C64 C40 1.417 1_545 S
C64 C65 1.329 . S
C65 C35 1.437 1_545 S
C65 H36 0.929 . S
C65 C64 1.329 . S
H66 C39 0.931 . S
C67 O49 1.265 . S
C67 O50 1.242 . S
C68 O53 1.261 . S
C68 O54 1.252 . S
C69 C72 1.394 . S
C69 C74 1.370 . S
C69 C75 1.500 . S
C70 C73 1.383 . S
C70 C74 1.395 . S
C71 C72 1.396 . S
C71 C73 1.365 . S
C71 H80 0.929 . S
C72 C69 1.394 . S
C72 C71 1.396 . S
C72 H81 0.930 . S
C73 C70 1.383 . S
C73 C71 1.365 . S
C73 H82 0.931 . S
C74 C69 1.370 . S
C74 C70 1.395 . S
C74 H83 0.930 . S
C75 Gd11 2.805 . S
C75 O51 1.263 . S
C75 O52 1.252 . S
C75 C69 1.500 . S
H76 C59 0.929 . S
H77 C60 0.930 1_455 S
H78 C61 0.931 . S
H79 C62 0.930 . S
H80 C71 0.929 . S
H81 C72 0.930 . S
H82 C73 0.931 . S
H83 C74 0.930 . S
C84 C86 1.422 . S
C84 C88 1.415 . S
C84 N90 1.369 . S
C85 C86 1.421 . S
C85 C87 1.417 1_455 S
C85 C97 1.422 . S
C86 C84 1.422 . S
C86 C85 1.421 . S
C86 N96 1.359 . S
C87 C85 1.417 1_655 S
C87 C89 1.329 . S
C87 H106 0.930 . S
C88 C84 1.415 . S
C88 C89 1.437 1_455 S
C88 C92 1.413 1_455 S
C89 C87 1.329 . S
C89 C88 1.437 1_655 S
C89 H111 0.929 . S
N90 C84 1.369 . S
N90 C91 1.338 . S
N90 Gd95 2.622 . S
C91 N90 1.338 . S
C91 C93 1.378 . S
C91 H103 0.929 . S
C92 C88 1.413 1_655 S
C92 C93 1.348 1_655 S
C92 H108 0.931 . S
C93 C91 1.378 . S
C93 C92 1.348 1_455 S
C93 H109 0.930 . S
Gd94 N114 2.622 . S
Gd94 N121 2.570 . S
Gd94 O128 2.353 . S
Gd94 O129 2.468 . S
Gd94 O130 2.427 . S
Gd94 O132 2.388 . S
Gd94 O133 2.386 . S
Gd94 O137 2.307 . S
Gd94 C147 2.805 . S
Gd95 N90 2.622 . S
Gd95 N96 2.570 . S
Gd95 O127 2.386 . S
Gd95 O131 2.307 . S
Gd95 O134 2.353 . S
Gd95 O135 2.468 . S
Gd95 O136 2.427 . S
Gd95 O138 2.388 . S
Gd95 C159 2.805 . S
N96 C86 1.359 . S
N96 Gd95 2.570 . S
N96 C98 1.343 . S
C97 C85 1.422 . S
C97 C99 1.321 . S
C97 H105 0.931 1_455 S
C98 N96 1.343 . S
C98 C99 1.390 . S
C98 H100 0.931 . S
C99 C97 1.321 . S
C99 C98 1.390 . S
C99 H101 0.930 . S
H100 C98 0.931 . S
H101 C99 0.930 . S
H102 C125 0.931 . S
H103 C91 0.929 . S
H104 C126 0.930 . S
H105 C97 0.931 1_655 S
H106 C87 0.930 . S
H107 C116 0.929 . S
H108 C92 0.931 . S
H109 C93 0.930 . S
H110 C148 0.930 . S
H111 C89 0.929 . S
H112 C117 0.931 1_455 S
H113 C118 0.930 . S
N114 Gd94 2.622 . S
N114 C115 1.369 1_565 S
N114 C116 1.338 1_565 S
C115 N114 1.369 1_545 S
C115 C119 1.415 . S
C115 C122 1.422 1_545 S
C116 H107 0.929 . S
C116 N114 1.338 1_545 S
C116 C118 1.378 . S
C117 H112 0.931 1_655 S
C117 C118 1.348 . S
C117 C119 1.413 . S
C118 H113 0.930 . S
C118 C116 1.378 . S
C118 C117 1.348 . S
C119 C115 1.415 . S
C119 C117 1.413 . S
C119 C149 1.437 1_655 S
H120 C149 0.929 . S
N121 Gd94 2.570 . S
N121 C122 1.359 . S
N121 C125 1.343 . S
C122 C115 1.422 1_565 S
C122 N121 1.359 . S
C122 C124 1.421 1_565 S
C123 C124 1.422 1_565 S
C123 C126 1.321 . S
C123 H150 0.931 . S
C124 C122 1.421 1_545 S
C124 C123 1.422 1_545 S
C124 C148 1.417 1_655 S
C125 H102 0.931 . S
C125 N121 1.343 . S
C125 C126 1.390 . S
C126 H104 0.930 . S
C126 C123 1.321 . S
C126 C125 1.390 . S
O127 Gd95 2.386 . S
O127 C139 1.265 . S
O128 Gd94 2.353 . S
O128 C139 1.242 . S
O129 Gd94 2.468 . S
O129 C147 1.263 . S
O130 Gd94 2.427 . S
O130 C147 1.252 . S
O131 Gd95 2.307 . S
O131 C140 1.261 . S
O132 Gd94 2.388 . S
O132 C140 1.252 . S
O133 Gd94 2.386 . S
O133 C151 1.265 . S
O134 Gd95 2.353 . S
O134 C151 1.242 . S
O135 Gd95 2.468 . S
O135 C159 1.263 . S
O136 Gd95 2.427 . S
O136 C159 1.252 . S
O137 Gd94 2.307 . S
O137 C152 1.261 . S
O138 Gd95 2.388 . S
O138 C152 1.252 . S
C139 O127 1.265 . S
C139 O128 1.242 . S
C140 O131 1.261 . S
C140 O132 1.252 . S
C141 C144 1.394 . S
C141 C146 1.370 . S
C141 C147 1.500 . S
C142 C145 1.383 . S
C142 C146 1.395 . S
C143 C144 1.396 1_545 S
C143 C145 1.365 1_545 S
C143 H160 0.929 . S
C144 C141 1.394 . S
C144 C143 1.396 1_565 S
C144 H161 0.930 1_565 S
C145 C142 1.383 . S
C145 C143 1.365 1_565 S
C145 H162 0.931 1_565 S
C146 C141 1.370 . S
C146 C142 1.395 . S
C146 H163 0.930 . S
C147 Gd94 2.805 . S
C147 O129 1.263 . S
C147 O130 1.252 . S
C147 C141 1.500 . S
C148 H110 0.930 . S
C148 C124 1.417 1_455 S
C148 C149 1.329 . S
C149 C119 1.437 1_455 S
C149 H120 0.929 . S
C149 C148 1.329 . S
H150 C123 0.931 . S
C151 O133 1.265 . S
C151 O134 1.242 . S
C152 O137 1.261 . S
C152 O138 1.252 . S
C153 C156 1.394 . S
C153 C158 1.370 . S
C153 C159 1.500 . S
C154 C157 1.383 . S
C154 C158 1.395 . S
C155 C156 1.396 . S
C155 C157 1.365 . S
C155 H164 0.929 . S
C156 C153 1.394 . S
C156 C155 1.396 . S
C156 H165 0.930 . S
C157 C154 1.383 . S
C157 C155 1.365 . S
C157 H166 0.931 . S
C158 C153 1.370 . S
C158 C154 1.395 . S
C158 H167 0.930 . S
C159 Gd95 2.805 . S
C159 O135 1.263 . S
C159 O136 1.252 . S
C159 C153 1.500 . S
H160 C143 0.929 . S
H161 C144 0.930 1_545 S
H162 C145 0.931 1_545 S
H163 C146 0.930 . S
H164 C155 0.929 . S
H165 C156 0.930 . S
H166 C157 0.931 . S
H167 C158 0.930 . S
C168 C170 1.422 . S
C168 C172 1.415 . S
C168 N174 1.369 . S
C169 C170 1.421 . S
C169 C171 1.417 . S
C169 C181 1.422 . S
C170 C168 1.422 . S
C170 C169 1.421 . S
C170 N180 1.359 . S
C171 C169 1.417 . S
C171 C173 1.329 . S
C171 H190 0.930 . S
C172 C168 1.415 . S
C172 C173 1.437 . S
C172 C176 1.413 . S
C173 C171 1.329 . S
C173 C172 1.437 . S
C173 H195 0.929 . S
N174 C168 1.369 . S
N174 C175 1.338 . S
N174 Gd179 2.622 . S
C175 N174 1.338 . S
C175 C177 1.378 . S
C175 H187 0.929 . S
C176 C172 1.413 . S
C176 C177 1.348 . S
C176 H192 0.931 . S
C177 C175 1.378 . S
C177 C176 1.348 . S
C177 H193 0.930 . S
Gd178 N198 2.622 1_655 S
Gd178 N205 2.570 1_655 S
Gd178 O212 2.353 1_545 S
Gd178 O213 2.468 . S
Gd178 O214 2.427 1_654 S
Gd178 O216 2.388 . S
Gd178 O217 2.386 . S
Gd178 O221 2.307 . S
Gd178 C231 2.805 1_554 S
Gd179 N174 2.622 . S
Gd179 N180 2.570 . S
Gd179 O211 2.386 . S
Gd179 O215 2.307 . S
Gd179 O218 2.353 1_565 S
Gd179 O219 2.468 . S
Gd179 O220 2.427 . S
Gd179 O222 2.388 . S
Gd179 C243 2.805 . S
N180 C170 1.359 . S
N180 Gd179 2.570 . S
N180 C182 1.343 . S
C181 C169 1.422 . S
C181 C183 1.321 . S
C181 H189 0.931 . S
C182 N180 1.343 . S
C182 C183 1.390 . S
C182 H184 0.931 . S
C183 C181 1.321 . S
C183 C182 1.390 . S
C183 H185 0.930 . S
H184 C182 0.931 . S
H185 C183 0.930 . S
H186 C209 0.931 . S
H187 C175 0.929 . S
H188 C210 0.930 . S
H189 C181 0.931 . S
H190 C171 0.930 . S
H191 C200 0.929 . S
H192 C176 0.931 . S
H193 C177 0.930 . S
H194 C232 0.930 . S
H195 C173 0.929 . S
H196 C201 0.931 . S
H197 C202 0.930 . S
N198 Gd178 2.622 1_455 S
N198 C199 1.369 . S
N198 C200 1.338 . S
C199 N198 1.369 . S
C199 C203 1.415 . S
C199 C206 1.422 . S
C200 H191 0.929 . S
C200 N198 1.338 . S
C200 C202 1.378 . S
C201 H196 0.931 . S
C201 C202 1.348 . S
C201 C203 1.413 . S
C202 H197 0.930 . S
C202 C200 1.378 . S
C202 C201 1.348 . S
C203 C199 1.415 . S
C203 C201 1.413 . S
C203 C233 1.437 . S
H204 C233 0.929 . S
N205 Gd178 2.570 1_455 S
N205 C206 1.359 . S
N205 C209 1.343 1_455 S
C206 C199 1.422 . S
C206 N205 1.359 . S
C206 C208 1.421 . S
C207 C208 1.422 . S
C207 C210 1.321 1_455 S
C207 H234 0.931 . S
C208 C206 1.421 . S
C208 C207 1.422 . S
C208 C232 1.417 . S
C209 H186 0.931 . S
C209 N205 1.343 1_655 S
C209 C210 1.390 . S
C210 H188 0.930 . S
C210 C207 1.321 1_655 S
C210 C209 1.390 . S
O211 Gd179 2.386 . S
O211 C223 1.265 . S
O212 Gd178 2.353 1_565 S
O212 C223 1.241 . S
O213 Gd178 2.468 . S
O213 C231 1.263 1_554 S
O214 Gd178 2.427 1_456 S
O214 C231 1.252 1_455 S
O215 Gd179 2.307 . S
O215 C224 1.261 1_565 S
O216 Gd178 2.388 . S
O216 C224 1.252 . S
O217 Gd178 2.386 . S
O217 C235 1.265 . S
O218 Gd179 2.353 1_545 S
O218 C235 1.242 . S
O219 Gd179 2.468 . S
O219 C243 1.263 . S
O220 Gd179 2.427 . S
O220 C243 1.252 . S
O221 Gd178 2.307 . S
O221 C236 1.261 1_545 S
O222 Gd179 2.388 . S
O222 C236 1.252 . S
C223 O211 1.265 . S
C223 O212 1.241 . S
C224 O215 1.261 1_545 S
C224 O216 1.252 . S
C225 C228 1.394 . S
C225 C230 1.370 1_455 S
C225 C231 1.500 1_455 S
C226 C229 1.383 . S
C226 C230 1.395 1_455 S
C227 C228 1.396 . S
C227 C229 1.365 . S
C227 H244 0.929 . S
C228 C225 1.394 . S
C228 C227 1.396 . S
C228 H245 0.930 . S
C229 C226 1.383 . S
C229 C227 1.365 . S
C229 H246 0.931 . S
C230 C225 1.370 1_655 S
C230 C226 1.395 1_655 S
C230 H247 0.930 . S
C231 Gd178 2.805 1_556 S
C231 O213 1.263 1_556 S
C231 O214 1.252 1_655 S
C231 C225 1.500 1_655 S
C232 H194 0.930 . S
C232 C208 1.417 . S
C232 C233 1.329 . S
C233 C203 1.437 . S
C233 H204 0.929 . S
C233 C232 1.329 . S
H234 C207 0.931 . S
C235 O217 1.265 . S
C235 O218 1.242 . S
C236 O221 1.261 1_565 S
C236 O222 1.252 . S
C237 C240 1.394 . S
C237 C242 1.370 . S
C237 C243 1.500 . S
C238 C241 1.383 . S
C238 C242 1.395 . S
C239 C240 1.396 . S
C239 C241 1.365 . S
C239 H248 0.929 . S
C240 C237 1.394 . S
C240 C239 1.396 . S
C240 H249 0.930 . S
C241 C238 1.383 . S
C241 C239 1.365 . S
C241 H250 0.931 . S
C242 C237 1.370 . S
C242 C238 1.395 . S
C242 H251 0.930 . S
C243 Gd179 2.805 . S
C243 O219 1.263 . S
C243 O220 1.252 . S
C243 C237 1.500 . S
H244 C227 0.929 . S
H245 C228 0.930 . S
H246 C229 0.931 . S
H247 C230 0.930 . S
H248 C239 0.929 . S
H249 C240 0.930 . S
H250 C241 0.931 . S
H251 C242 0.930 . S
C252 C254 1.422 . S
C252 C256 1.415 . S
C252 N258 1.369 . S
C253 C254 1.421 . S
C253 C255 1.417 . S
C253 C265 1.422 . S
C254 C252 1.422 . S
C254 C253 1.421 . S
C254 N264 1.359 . S
C255 C253 1.417 . S
C255 C257 1.329 . S
C255 H274 0.930 . S
C256 C252 1.415 . S
C256 C257 1.437 . S
C256 C260 1.413 . S
C257 C255 1.329 . S
C257 C256 1.437 . S
C257 H279 0.929 . S
N258 C252 1.369 . S
N258 C259 1.338 . S
N258 Gd263 2.622 . S
C259 N258 1.338 . S
C259 C261 1.378 . S
C259 H271 0.929 . S
C260 C256 1.413 . S
C260 C261 1.348 . S
C260 H276 0.931 . S
C261 C259 1.378 . S
C261 C260 1.348 . S
C261 H277 0.930 . S
Gd262 N282 2.622 1_565 S
Gd262 N289 2.570 1_565 S
Gd262 O296 2.353 1_455 S
Gd262 O297 2.468 . S
Gd262 O298 2.427 1_565 S
Gd262 O300 2.388 . S
Gd262 O301 2.386 . S
Gd262 O305 2.307 . S
Gd262 C315 2.805 . S
Gd263 N258 2.622 . S
Gd263 N264 2.570 . S
Gd263 O295 2.386 . S
Gd263 O299 2.307 . S
Gd263 O302 2.353 1_655 S
Gd263 O303 2.468 . S
Gd263 O304 2.427 . S
Gd263 O306 2.388 . S
Gd263 C327 2.805 . S
N264 C254 1.359 . S
N264 Gd263 2.570 . S
N264 C266 1.343 . S
C265 C253 1.422 . S
C265 C267 1.321 . S
C265 H273 0.931 . S
C266 N264 1.343 . S
C266 C267 1.390 . S
C266 H268 0.931 . S
C267 C265 1.321 . S
C267 C266 1.390 . S
C267 H269 0.930 . S
H268 C266 0.931 . S
H269 C267 0.930 . S
H270 C293 0.931 . S
H271 C259 0.929 . S
H272 C294 0.958 . S
H273 C265 0.931 . S
H274 C255 0.930 . S
H275 C284 0.929 . S
H276 C260 0.931 . S
H277 C261 0.930 . S
H278 C316 0.930 . S
H279 C257 0.929 . S
H280 C285 0.931 . S
H281 C286 0.930 . S
N282 Gd262 2.622 1_545 S
N282 C283 1.369 . S
N282 C284 1.338 . S
C283 N282 1.369 . S
C283 C287 1.415 . S
C283 C290 1.422 . S
C284 H275 0.929 . S
C284 N282 1.338 . S
C284 C286 1.378 . S
C285 H280 0.931 . S
C285 C286 1.348 . S
C285 C287 1.413 . S
C286 H281 0.930 . S
C286 C284 1.378 . S
C286 C285 1.348 . S
C287 C283 1.415 . S
C287 C285 1.413 . S
C287 C317 1.437 . S
H288 C317 0.929 . S
N289 Gd262 2.570 1_545 S
N289 C290 1.359 . S
N289 C293 1.343 1_545 S
C290 C283 1.422 . S
C290 N289 1.359 . S
C290 C292 1.421 . S
C291 C292 1.422 . S
C291 C294 1.308 1_545 S
C291 H318 0.931 . S
C292 C290 1.421 . S
C292 C291 1.422 . S
C292 C316 1.417 . S
C293 H270 0.931 . S
C293 N289 1.343 1_565 S
C293 C294 1.376 . S
C294 H272 0.958 . S
C294 C291 1.308 1_565 S
C294 C293 1.376 . S
O295 Gd263 2.386 . S
O295 C307 1.265 . S
O296 Gd262 2.353 1_655 S
O296 C307 1.242 . S
O297 Gd262 2.468 . S
O297 C315 1.263 . S
O298 Gd262 2.427 1_545 S
O298 C315 1.252 1_545 S
O299 Gd263 2.307 . S
O299 C308 1.261 1_655 S
O300 Gd262 2.388 . S
O300 C308 1.252 . S
O301 Gd262 2.386 . S
O301 C319 1.265 . S
O302 Gd263 2.353 1_455 S
O302 C319 1.242 . S
O303 Gd263 2.468 . S
O303 C327 1.263 . S
O304 Gd263 2.427 . S
O304 C327 1.252 . S
O305 Gd262 2.307 . S
O305 C320 1.261 1_455 S
O306 Gd263 2.388 . S
O306 C320 1.252 . S
C307 O295 1.265 . S
C307 O296 1.242 . S
C308 O299 1.261 1_455 S
C308 O300 1.252 . S
C309 C312 1.394 . S
C309 C314 1.370 1_545 S
C309 C315 1.500 1_545 S
C310 C313 1.383 . S
C310 C314 1.395 1_545 S
C311 C312 1.396 . S
C311 C313 1.365 . S
C311 H328 0.929 . S
C312 C309 1.394 . S
C312 C311 1.396 . S
C312 H329 0.930 . S
C313 C310 1.383 . S
C313 C311 1.365 . S
C313 H330 0.931 . S
C314 C309 1.370 1_565 S
C314 C310 1.395 1_565 S
C314 H331 0.930 . S
C315 Gd262 2.805 . S
C315 O297 1.263 . S
C315 O298 1.252 1_565 S
C315 C309 1.500 1_565 S
C316 H278 0.930 . S
C316 C292 1.417 . S
C316 C317 1.329 . S
C317 C287 1.437 . S
C317 H288 0.929 . S
C317 C316 1.329 . S
H318 C291 0.931 . S
C319 O301 1.265 . S
C319 O302 1.242 . S
C320 O305 1.261 1_655 S
C320 O306 1.252 . S
C321 C324 1.394 . S
C321 C326 1.370 . S
C321 C327 1.500 . S
C322 C325 1.383 . S
C322 C326 1.395 . S
C323 C324 1.396 . S
C323 C325 1.365 . S
C323 H332 0.929 . S
C324 C321 1.394 . S
C324 C323 1.396 . S
C324 H333 0.930 . S
C325 C322 1.383 . S
C325 C323 1.365 . S
C325 H334 0.931 . S
C326 C321 1.370 . S
C326 C322 1.395 . S
C326 H335 0.930 . S
C327 Gd263 2.805 . S
C327 O303 1.263 . S
C327 O304 1.252 . S
C327 C321 1.500 . S
H328 C311 0.929 . S
H329 C312 0.930 . S
H330 C313 0.931 . S
H331 C314 0.930 . S
H332 C323 0.929 . S
H333 C324 0.930 . S
H334 C325 0.931 . S
H335 C326 0.930 . S
H336 C354 0.951 . S
H337 C356 0.951 . S
H338 C358 0.950 1_455 S
H339 C359 0.950 . S
H340 C361 0.950 . S
H341 C364 0.950 1_655 S
H342 C365 0.950 . S
H343 C367 0.950 . S
H344 C368 0.950 . S
H345 C369 0.951 . S
H346 C371 0.951 . S
H347 C373 0.950 . S
H348 C374 0.950 . S
H349 C376 0.950 . S
H350 C379 0.950 . S
H351 C380 0.950 . S
H352 C382 0.950 . S
H353 C383 0.950 . S
C354 H336 0.951 . S
C354 C355 1.359 . S
C354 C356 1.388 1_655 S
C355 C354 1.359 . S
C355 C359 1.381 . S
C356 H337 0.951 . S
C356 C354 1.388 1_455 S
C356 C357 1.366 . S
C357 C356 1.366 . S
C357 C358 1.414 1_455 S
C357 C360 1.499 . S
C358 H338 0.950 1_655 S
C358 C357 1.414 1_655 S
C358 C359 1.374 . S
C359 H339 0.950 . S
C359 C355 1.381 . S
C359 C358 1.374 . S
C360 C357 1.499 . S
C360 C361 1.373 . S
C360 C362 1.389 . S
C361 H340 0.950 . S
C361 C360 1.373 . S
C361 C377 1.377 . S
C362 C360 1.389 . S
C362 C363 1.524 . S
C362 C376 1.377 . S
C363 C362 1.524 . S
C363 C364 1.397 1_545 S
C363 C368 1.363 . S
C364 H341 0.950 1_455 S
C364 C363 1.397 1_565 S
C364 C365 1.334 1_455 S
C365 H342 0.950 . S
C365 C364 1.334 1_655 S
C365 C366 1.287 . S
C366 C365 1.287 . S
C366 C367 1.524 1_654 S
C366 H385 0.913 . S
C367 H343 0.950 . S
C367 C366 1.524 1_456 S
C367 C368 1.415 1_566 S
C368 H344 0.950 . S
C368 C363 1.363 . S
C368 C367 1.415 1_544 S
C369 H345 0.951 . S
C369 C370 1.366 . S
C369 C371 1.388 . S
C370 C369 1.366 . S
C370 C374 1.385 . S
C371 H346 0.951 . S
C371 C369 1.388 . S
C371 C372 1.366 . S
C372 C371 1.366 . S
C372 C373 1.414 . S
C372 C375 1.499 . S
C373 H347 0.950 . S
C373 C372 1.414 . S
C373 C374 1.374 . S
C374 H348 0.950 . S
C374 C370 1.385 . S
C374 C373 1.374 . S
C375 C372 1.499 . S
C375 C376 1.373 . S
C375 C377 1.389 . S
C376 H349 0.950 . S
C376 C362 1.377 . S
C376 C375 1.373 . S
C377 C361 1.377 . S
C377 C375 1.389 . S
C377 C378 1.524 . S
C378 C377 1.524 . S
C378 C379 1.397 . S
C378 C383 1.363 . S
C379 H350 0.950 . S
C379 C378 1.397 . S
C379 C380 1.334 . S
C380 H351 0.950 . S
C380 C379 1.334 . S
C380 C381 1.287 . S
C381 C380 1.287 . S
C381 C382 1.524 . S
C381 H384 0.999 . S
C382 H352 0.950 . S
C382 C381 1.524 . S
C382 C383 1.415 . S
C383 H353 0.950 . S
C383 C378 1.363 . S
C383 C382 1.415 . S
H384 C381 0.999 . S
H385 C366 0.913 . S
H386 C404 0.951 . S
H387 C406 0.951 . S
H388 C408 0.950 . S
H389 C409 0.950 . S
H390 C411 0.950 . S
H391 C414 0.950 . S
H392 C415 0.950 . S
H393 C417 0.950 . S
H394 C418 0.951 1_455 S
H395 C419 0.951 . S
H396 C421 0.951 . S
H397 C423 0.950 . S
H398 C424 0.950 . S
H399 C426 0.950 . S
H400 C429 0.950 . S
H401 C430 0.950 . S
H402 C432 0.950 . S
H403 C433 0.950 . S
C404 H386 0.951 . S
C404 C405 1.366 . S
C404 C406 1.388 1_665 S
C405 C404 1.366 . S
C405 C409 1.385 1_655 S
C406 H387 0.951 . S
C406 C404 1.388 1_445 S
C406 C407 1.366 . S
C407 C406 1.366 . S
C407 C408 1.414 . S
C407 C410 1.499 . S
C408 H388 0.950 . S
C408 C407 1.414 . S
C408 C409 1.374 1_545 S
C409 H389 0.950 . S
C409 C405 1.385 1_455 S
C409 C408 1.374 1_565 S
C410 C407 1.499 . S
C410 C411 1.373 . S
C410 C412 1.389 . S
C411 H390 0.950 . S
C411 C410 1.373 . S
C411 C427 1.377 . S
C412 C410 1.389 . S
C412 C413 1.524 . S
C412 C426 1.377 . S
C413 C412 1.524 . S
C413 C414 1.397 1_445 S
C413 C418 1.350 1_455 S
C414 H391 0.950 . S
C414 C413 1.397 1_665 S
C414 C415 1.334 . S
C415 H392 0.950 . S
C415 C414 1.334 . S
C415 C416 1.287 . S
C416 C415 1.287 . S
C416 C417 1.524 1_565 S
C416 H435 0.913 . S
C417 H393 0.950 . S
C417 C416 1.524 1_545 S
C417 C418 1.428 . S
C418 H394 0.951 1_655 S
C418 C413 1.350 1_655 S
C418 C417 1.428 . S
C419 H395 0.951 . S
C419 C420 1.366 . S
C419 C421 1.388 . S
C420 C419 1.366 . S
C420 C424 1.385 . S
C421 H396 0.951 . S
C421 C419 1.388 . S
C421 C422 1.366 . S
C422 C421 1.366 . S
C422 C423 1.414 . S
C422 C425 1.499 . S
C423 H397 0.950 . S
C423 C422 1.414 . S
C423 C424 1.374 . S
C424 H398 0.950 . S
C424 C420 1.385 . S
C424 C423 1.374 . S
C425 C422 1.499 . S
C425 C426 1.373 . S
C425 C427 1.389 . S
C426 H399 0.950 . S
C426 C412 1.377 . S
C426 C425 1.373 . S
C427 C411 1.377 . S
C427 C425 1.389 . S
C427 C428 1.524 . S
C428 C427 1.524 . S
C428 C429 1.397 . S
C428 C433 1.363 . S
C429 H400 0.950 . S
C429 C428 1.397 . S
C429 C430 1.334 . S
C430 H401 0.950 . S
C430 C429 1.334 . S
C430 C431 1.287 . S
C431 C430 1.287 . S
C431 C432 1.524 . S
C431 H434 0.999 . S
C432 H402 0.950 . S
C432 C431 1.524 . S
C432 C433 1.415 . S
C433 H403 0.950 . S
C433 C428 1.363 . S
C433 C432 1.415 . S
H434 C431 0.999 . S
H435 C416 0.913 . S
H436 C454 0.951 . S
H437 C456 0.951 1_565 S
H438 C458 0.950 . S
H439 C459 0.950 . S
H440 C461 0.950 . S
H441 C464 0.950 . S
H442 C465 0.950 . S
H443 C467 0.950 . S
H444 C468 0.939 1_545 S
H445 C469 0.951 . S
H446 C471 0.951 . S
H447 C473 0.950 . S
H448 C474 0.950 . S
H449 C476 0.950 . S
H450 C479 0.950 . S
H451 C480 0.950 . S
H452 C482 0.950 . S
H453 C483 0.950 . S
C454 H436 0.951 . S
C454 C455 1.366 1_565 S
C454 C456 1.388 1_565 S
C455 C454 1.366 1_545 S
C455 C459 1.385 . S
C456 H437 0.951 1_545 S
C456 C454 1.388 1_545 S
C456 C457 1.366 . S
C457 C456 1.366 . S
C457 C458 1.414 . S
C457 C460 1.499 . S
C458 H438 0.950 . S
C458 C457 1.414 . S
C458 C459 1.374 . S
C459 H439 0.950 . S
C459 C455 1.385 . S
C459 C458 1.374 . S
C460 C457 1.499 . S
C460 C461 1.373 . S
C460 C462 1.389 . S
C461 H440 0.950 . S
C461 C460 1.373 . S
C461 C477 1.377 . S
C462 C460 1.389 . S
C462 C463 1.524 . S
C462 C476 1.377 . S
C463 C462 1.524 . S
C463 C464 1.397 . S
C463 C468 1.370 1_545 S
C464 H441 0.950 . S
C464 C463 1.397 . S
C464 C465 1.334 1_544 S
C465 H442 0.950 . S
C465 C464 1.334 1_566 S
C465 C466 1.287 . S
C466 C465 1.287 . S
C466 C467 1.524 1_556 S
C466 H485 0.913 . S
C467 H443 0.950 . S
C467 C466 1.524 1_554 S
C467 C468 1.419 . S
C468 H444 0.939 1_565 S
C468 C463 1.370 1_565 S
C468 C467 1.419 . S
C469 H445 0.951 . S
C469 C470 1.366 . S
C469 C471 1.388 . S
C470 C469 1.366 . S
C470 C474 1.385 . S
C471 H446 0.951 . S
C471 C469 1.388 . S
C471 C472 1.366 . S
C472 C471 1.366 . S
C472 C473 1.414 . S
C472 C475 1.499 . S
C473 H447 0.950 . S
C473 C472 1.414 . S
C473 C474 1.374 . S
C474 H448 0.950 . S
C474 C470 1.385 . S
C474 C473 1.374 . S
C475 C472 1.499 . S
C475 C476 1.373 . S
C475 C477 1.389 . S
C476 H449 0.950 . S
C476 C462 1.377 . S
C476 C475 1.373 . S
C477 C461 1.377 . S
C477 C475 1.389 . S
C477 C478 1.524 . S
C478 C477 1.524 . S
C478 C479 1.397 . S
C478 C483 1.363 . S
C479 H450 0.950 . S
C479 C478 1.397 . S
C479 C480 1.334 . S
C480 H451 0.950 . S
C480 C479 1.334 . S
C480 C481 1.287 . S
C481 C480 1.287 . S
C481 C482 1.524 1_655 S
C481 H484 0.999 1_655 S
C482 H452 0.950 . S
C482 C481 1.524 1_455 S
C482 C483 1.415 1_455 S
C483 H453 0.950 . S
C483 C478 1.363 . S
C483 C482 1.415 1_655 S
H484 C481 0.999 1_455 S
H485 C466 0.913 . S
H486 C504 0.951 . S
H487 C506 0.951 . S
H488 C508 0.950 . S
H489 C509 0.950 . S
H490 C511 0.950 . S
H491 C514 0.950 . S
H492 C515 0.950 . S
H493 C517 0.950 . S
H494 C518 0.950 . S
H495 C519 0.951 . S
H496 C521 0.951 1_655 S
H497 C523 0.950 . S
H498 C524 0.950 . S
H499 C526 0.950 . S
H500 C529 0.950 . S
H501 C530 0.950 . S
H502 C532 0.950 . S
H503 C533 0.950 . S
C504 H486 0.951 . S
C504 C505 1.366 . S
C504 C506 1.388 . S
C505 C504 1.366 . S
C505 C509 1.385 . S
C506 H487 0.951 . S
C506 C504 1.388 . S
C506 C507 1.366 . S
C507 C506 1.366 . S
C507 C508 1.414 . S
C507 C510 1.499 . S
C508 H488 0.950 . S
C508 C507 1.414 . S
C508 C509 1.374 . S
C509 H489 0.950 . S
C509 C505 1.385 . S
C509 C508 1.374 . S
C510 C507 1.499 . S
C510 C511 1.373 . S
C510 C512 1.389 . S
C511 H490 0.950 . S
C511 C510 1.373 . S
C511 C527 1.377 . S
C512 C510 1.389 . S
C512 C513 1.524 . S
C512 C526 1.377 . S
C513 C512 1.524 . S
C513 C514 1.397 . S
C513 C518 1.363 . S
C514 H491 0.950 . S
C514 C513 1.397 . S
C514 C515 1.334 . S
C515 H492 0.950 . S
C515 C514 1.334 . S
C515 C516 1.287 . S
C516 C515 1.287 . S
C516 C517 1.524 1_565 S
C516 H535 0.913 . S
C517 H493 0.950 . S
C517 C516 1.524 1_545 S
C517 C518 1.415 1_545 S
C518 H494 0.950 . S
C518 C513 1.363 . S
C518 C517 1.415 1_565 S
C519 H495 0.951 . S
C519 C520 1.366 1_655 S
C519 C521 1.388 1_655 S
C520 C519 1.366 1_455 S
C520 C524 1.385 . S
C521 H496 0.951 1_455 S
C521 C519 1.388 1_455 S
C521 C522 1.366 . S
C522 C521 1.366 . S
C522 C523 1.414 . S
C522 C525 1.499 . S
C523 H497 0.950 . S
C523 C522 1.414 . S
C523 C524 1.374 . S
C524 H498 0.950 . S
C524 C520 1.385 . S
C524 C523 1.374 . S
C525 C522 1.499 . S
C525 C526 1.373 . S
C525 C527 1.389 . S
C526 H499 0.950 . S
C526 C512 1.377 . S
C526 C525 1.373 . S
C527 C511 1.377 . S
C527 C525 1.389 . S
C527 C528 1.524 . S
C528 C527 1.524 . S
C528 C529 1.397 . S
C528 C533 1.363 . S
C529 H500 0.950 . S
C529 C528 1.397 . S
C529 C530 1.334 . S
C530 H501 0.950 . S
C530 C529 1.334 . S
C530 C531 1.287 . S
C531 C530 1.287 . S
C531 C532 1.524 1_455 S
C531 H534 0.999 1_455 S
C532 H502 0.950 . S
C532 C531 1.524 1_655 S
C532 C533 1.415 1_655 S
C533 H503 0.950 . S
C533 C528 1.363 . S
C533 C532 1.415 1_455 S
H534 C531 0.999 1_655 S
H535 C516 0.913 . S
H536 C554 0.951 . S
H537 C556 0.951 . S
H538 C558 0.950 . S
H539 C559 0.950 . S
H540 C561 0.950 . S
H541 C564 0.950 . S
H542 C565 0.950 . S
H543 C567 0.950 1_455 S
H544 C568 0.950 . S
H545 C569 0.951 . S
H546 C571 0.951 . S
H547 C573 0.950 . S
H548 C574 0.950 . S
H549 C576 0.950 . S
H550 C579 0.950 . S
H551 C580 0.950 . S
H552 C582 0.950 . S
H553 C583 0.950 . S
C554 H536 0.951 . S
C554 C555 1.366 . S
C554 C556 1.388 . S
C555 C554 1.366 . S
C555 C559 1.385 . S
C556 H537 0.951 . S
C556 C554 1.388 . S
C556 C557 1.366 . S
C557 C556 1.366 . S
C557 C558 1.414 . S
C557 C560 1.499 . S
C558 H538 0.950 . S
C558 C557 1.414 . S
C558 C559 1.374 . S
C559 H539 0.950 . S
C559 C555 1.385 . S
C559 C558 1.374 . S
C560 C557 1.499 . S
C560 C561 1.373 . S
C560 C562 1.389 . S
C561 H540 0.950 . S
C561 C560 1.373 . S
C561 C577 1.377 . S
C562 C560 1.389 . S
C562 C563 1.524 . S
C562 C576 1.377 . S
C563 C562 1.524 . S
C563 C564 1.397 . S
C563 C568 1.363 . S
C564 H541 0.950 . S
C564 C563 1.397 . S
C564 C565 1.334 . S
C565 H542 0.950 . S
C565 C564 1.334 . S
C565 C566 1.287 1_565 S
C566 C565 1.287 1_545 S
C566 C567 1.524 . S
C566 H585 0.913 . S
C567 H543 0.950 1_655 S
C567 C566 1.524 . S
C567 C568 1.415 1_545 S
C568 H544 0.950 . S
C568 C563 1.363 . S
C568 C567 1.415 1_565 S
C569 H545 0.951 . S
C569 C570 1.366 . S
C569 C571 1.388 . S
C570 C569 1.366 . S
C570 C574 1.385 . S
C571 H546 0.951 . S
C571 C569 1.388 . S
C571 C572 1.366 . S
C572 C571 1.366 . S
C572 C573 1.414 . S
C572 C575 1.499 . S
C573 H547 0.950 . S
C573 C572 1.414 . S
C573 C574 1.374 . S
C574 H548 0.950 . S
C574 C570 1.385 . S
C574 C573 1.374 . S
C575 C572 1.499 . S
C575 C576 1.373 . S
C575 C577 1.389 . S
C576 H549 0.950 . S
C576 C562 1.377 . S
C576 C575 1.373 . S
C577 C561 1.377 . S
C577 C575 1.389 . S
C577 C578 1.524 . S
C578 C577 1.524 . S
C578 C579 1.397 . S
C578 C583 1.363 . S
C579 H550 0.950 . S
C579 C578 1.397 . S
C579 C580 1.334 . S
C580 H551 0.950 . S
C580 C579 1.334 . S
C580 C581 1.287 . S
C581 C580 1.287 . S
C581 C582 1.524 . S
C581 H584 0.999 . S
C582 H552 0.950 . S
C582 C581 1.524 . S
C582 C583 1.415 . S
C583 H553 0.950 . S
C583 C578 1.363 . S
C583 C582 1.415 . S
H584 C581 0.999 . S
H585 C566 0.913 . S
H586 C604 0.951 . S
H587 C606 0.951 . S
H588 C608 0.950 . S
H589 C609 0.950 . S
H590 C611 0.950 . S
H591 C614 0.950 . S
H592 C615 0.950 . S
H593 C617 0.950 . S
H594 C618 0.950 . S
H595 C619 0.951 . S
H596 C621 0.951 . S
H597 C623 0.950 . S
H598 C624 0.950 1_655 S
H599 C626 0.950 . S
H600 C629 0.950 . S
H601 C630 0.950 . S
H602 C632 0.950 . S
H603 C633 0.950 . S
C604 H586 0.951 . S
C604 C605 1.366 . S
C604 C606 1.388 . S
C605 C604 1.366 . S
C605 C609 1.385 . S
C606 H587 0.951 . S
C606 C604 1.388 . S
C606 C607 1.366 . S
C607 C606 1.366 . S
C607 C608 1.414 . S
C607 C610 1.499 . S
C608 H588 0.950 . S
C608 C607 1.414 . S
C608 C609 1.374 . S
C609 H589 0.950 . S
C609 C605 1.385 . S
C609 C608 1.374 . S
C610 C607 1.499 . S
C610 C611 1.373 . S
C610 C612 1.389 . S
C611 H590 0.950 . S
C611 C610 1.373 . S
C611 C627 1.377 . S
C612 C610 1.389 . S
C612 C613 1.524 . S
C612 C626 1.377 . S
C613 C612 1.524 . S
C613 C614 1.397 . S
C613 C618 1.363 . S
C614 H591 0.950 . S
C614 C613 1.397 . S
C614 C615 1.334 . S
C615 H592 0.950 . S
C615 C614 1.334 . S
C615 C616 1.287 . S
C616 C615 1.287 . S
C616 C617 1.524 . S
C616 H635 0.913 . S
C617 H593 0.950 . S
C617 C616 1.524 . S
C617 C618 1.415 . S
C618 H594 0.950 . S
C618 C613 1.363 . S
C618 C617 1.415 . S
C619 H595 0.951 . S
C619 C620 1.366 . S
C619 C621 1.388 . S
C620 C619 1.366 . S
C620 C624 1.385 . S
C621 H596 0.951 . S
C621 C619 1.388 . S
C621 C622 1.366 . S
C622 C621 1.366 . S
C622 C623 1.414 . S
C622 C625 1.499 . S
C623 H597 0.950 . S
C623 C622 1.414 . S
C623 C624 1.374 . S
C624 H598 0.950 1_455 S
C624 C620 1.385 . S
C624 C623 1.374 . S
C625 C622 1.499 . S
C625 C626 1.373 . S
C625 C627 1.389 . S
C626 H599 0.950 . S
C626 C612 1.377 . S
C626 C625 1.373 . S
C627 C611 1.377 . S
C627 C625 1.389 . S
C627 C628 1.524 . S
C628 C627 1.524 . S
C628 C629 1.397 1_455 S
C628 C633 1.363 . S
C629 H600 0.950 . S
C629 C628 1.397 1_655 S
C629 C630 1.334 . S
C630 H601 0.950 . S
C630 C629 1.334 . S
C630 C631 1.287 . S
C631 C630 1.287 . S
C631 C632 1.524 . S
C631 H634 0.999 1_545 S
C632 H602 0.950 . S
C632 C631 1.524 . S
C632 C633 1.415 1_655 S
C633 H603 0.950 . S
C633 C628 1.363 . S
C633 C632 1.415 1_455 S
H634 C631 0.999 1_565 S
H635 C616 0.913 . S
H636 C654 0.951 . S
H637 C656 0.951 . S
H638 C658 0.950 . S
H639 C659 0.950 . S
H640 C661 0.950 . S
H641 C664 0.950 . S
H642 C665 0.950 . S
H643 C667 0.950 . S
H644 C668 0.950 . S
H645 C669 0.951 . S
H646 C671 0.951 . S
H647 C673 0.950 . S
H648 C674 0.950 . S
H649 C676 0.950 . S
H650 C679 0.950 . S
H651 C680 0.950 1_545 S
H652 C682 0.950 . S
H653 C683 0.950 . S
C654 H636 0.951 . S
C654 C655 1.366 . S
C654 C656 1.388 . S
C655 C654 1.366 . S
C655 C659 1.385 . S
C656 H637 0.951 . S
C656 C654 1.388 . S
C656 C657 1.366 . S
C657 C656 1.366 . S
C657 C658 1.414 . S
C657 C660 1.499 . S
C658 H638 0.950 . S
C658 C657 1.414 . S
C658 C659 1.374 . S
C659 H639 0.950 . S
C659 C655 1.385 . S
C659 C658 1.374 . S
C660 C657 1.499 . S
C660 C661 1.373 . S
C660 C662 1.389 . S
C661 H640 0.950 . S
C661 C660 1.373 . S
C661 C677 1.377 . S
C662 C660 1.389 . S
C662 C663 1.524 . S
C662 C676 1.377 . S
C663 C662 1.524 . S
C663 C664 1.397 . S
C663 C668 1.363 . S
C664 H641 0.950 . S
C664 C663 1.397 . S
C664 C665 1.334 . S
C665 H642 0.950 . S
C665 C664 1.334 . S
C665 C666 1.287 . S
C666 C665 1.287 . S
C666 C667 1.524 . S
C666 H685 0.913 . S
C667 H643 0.950 . S
C667 C666 1.524 . S
C667 C668 1.415 . S
C668 H644 0.950 . S
C668 C663 1.363 . S
C668 C667 1.415 . S
C669 H645 0.951 . S
C669 C670 1.366 . S
C669 C671 1.388 . S
C670 C669 1.366 . S
C670 C674 1.385 . S
C671 H646 0.951 . S
C671 C669 1.388 . S
C671 C672 1.366 . S
C672 C671 1.366 . S
C672 C673 1.414 . S
C672 C675 1.499 . S
C673 H647 0.950 . S
C673 C672 1.414 . S
C673 C674 1.374 . S
C674 H648 0.950 . S
C674 C670 1.385 . S
C674 C673 1.374 . S
C675 C672 1.499 . S
C675 C676 1.373 . S
C675 C677 1.389 . S
C676 H649 0.950 . S
C676 C662 1.377 . S
C676 C675 1.373 . S
C677 C661 1.377 . S
C677 C675 1.389 . S
C677 C678 1.524 . S
C678 C677 1.524 . S
C678 C679 1.397 . S
C678 C683 1.363 . S
C679 H650 0.950 . S
C679 C678 1.397 . S
C679 C680 1.334 . S
C680 H651 0.950 1_565 S
C680 C679 1.334 . S
C680 C681 1.287 1_565 S
C681 C680 1.287 1_545 S
C681 C682 1.524 1_655 S
C681 H684 0.999 1_655 S
C682 H652 0.950 . S
C682 C681 1.524 1_455 S
C682 C683 1.415 1_445 S
C683 H653 0.950 . S
C683 C678 1.363 . S
C683 C682 1.415 1_665 S
H684 C681 0.999 1_455 S
H685 C666 0.913 . S
H686 C704 0.951 . S
H687 C706 0.951 . S
H688 C708 0.950 . S
H689 C709 0.950 1_565 S
H690 C711 0.950 . S
H691 C714 0.950 . S
H692 C715 0.950 . S
H693 C717 0.950 . S
H694 C718 0.950 . S
H695 C719 0.951 . S
H696 C721 0.951 . S
H697 C723 0.950 . S
H698 C724 0.950 . S
H699 C726 0.950 . S
H700 C729 0.950 . S
H701 C730 0.950 . S
H702 C732 0.950 . S
H703 C733 0.950 . S
C704 H686 0.951 . S
C704 C705 1.366 . S
C704 C706 1.388 . S
C705 C704 1.366 . S
C705 C709 1.385 . S
C706 H687 0.951 . S
C706 C704 1.388 . S
C706 C707 1.366 . S
C707 C706 1.366 . S
C707 C708 1.414 . S
C707 C710 1.499 . S
C708 H688 0.950 . S
C708 C707 1.414 . S
C708 C709 1.374 . S
C709 H689 0.950 1_545 S
C709 C705 1.385 . S
C709 C708 1.374 . S
C710 C707 1.499 . S
C710 C711 1.373 . S
C710 C712 1.389 . S
C711 H690 0.950 . S
C711 C710 1.373 . S
C711 C727 1.377 . S
C712 C710 1.389 . S
C712 C713 1.524 . S
C712 C726 1.377 . S
C713 C712 1.524 . S
C713 C714 1.397 . S
C713 C718 1.363 . S
C714 H691 0.950 . S
C714 C713 1.397 . S
C714 C715 1.334 . S
C715 H692 0.950 . S
C715 C714 1.334 . S
C715 C716 1.287 . S
C716 C715 1.287 . S
C716 C717 1.524 . S
C716 H735 0.913 . S
C717 H693 0.950 . S
C717 C716 1.524 . S
C717 C718 1.415 . S
C718 H694 0.950 . S
C718 C713 1.363 . S
C718 C717 1.415 . S
C719 H695 0.951 . S
C719 C720 1.366 1_556 S
C719 C721 1.388 . S
C720 C719 1.366 1_554 S
C720 C724 1.385 . S
C721 H696 0.951 . S
C721 C719 1.388 . S
C721 C722 1.366 . S
C722 C721 1.366 . S
C722 C723 1.414 . S
C722 C725 1.499 . S
C723 H697 0.950 . S
C723 C722 1.414 . S
C723 C724 1.374 1_556 S
C724 H698 0.950 . S
C724 C720 1.385 . S
C724 C723 1.374 1_554 S
C725 C722 1.499 . S
C725 C726 1.373 . S
C725 C727 1.389 . S
C726 H699 0.950 . S
C726 C712 1.377 . S
C726 C725 1.373 . S
C727 C711 1.377 . S
C727 C725 1.389 . S
C727 C728 1.524 . S
C728 C727 1.524 . S
C728 C729 1.397 . S
C728 C733 1.363 . S
C729 H700 0.950 . S
C729 C728 1.397 . S
C729 C730 1.334 1_545 S
C730 H701 0.950 . S
C730 C729 1.334 1_565 S
C730 C731 1.287 . S
C731 C730 1.287 . S
C731 C732 1.524 . S
C731 H734 0.999 . S
C732 H702 0.950 . S
C732 C731 1.524 . S
C732 C733 1.415 1_565 S
C733 H703 0.950 . S
C733 C728 1.363 . S
C733 C732 1.415 1_545 S
H734 C731 0.999 . S
H735 C716 0.913 . S
H736 C754 0.951 . S
H737 C756 0.951 . S
H738 C758 0.950 . S
H739 C759 0.950 . S
H740 C761 0.950 . S
H741 C764 0.950 . S
H742 C765 0.950 . S
H743 C767 0.950 . S
H744 C768 0.950 . S
H745 C769 0.951 . S
H746 C771 0.951 . S
H747 C773 0.950 . S
H748 C774 0.950 . S
H749 C776 0.950 . S
H750 C779 0.950 1_455 S
H751 C780 0.950 . S
H752 C782 0.950 . S
H753 C783 0.950 . S
C754 H736 0.951 . S
C754 C755 1.366 . S
C754 C756 1.388 . S
C755 C754 1.366 . S
C755 C759 1.385 . S
C756 H737 0.951 . S
C756 C754 1.388 . S
C756 C757 1.366 . S
C757 C756 1.366 . S
C757 C758 1.414 . S
C757 C760 1.499 . S
C758 H738 0.950 . S
C758 C757 1.414 . S
C758 C759 1.374 . S
C759 H739 0.950 . S
C759 C755 1.385 . S
C759 C758 1.374 . S
C760 C757 1.499 . S
C760 C761 1.373 . S
C760 C762 1.389 . S
C761 H740 0.950 . S
C761 C760 1.373 . S
C761 C777 1.377 . S
C762 C760 1.389 . S
C762 C763 1.524 . S
C762 C776 1.377 . S
C763 C762 1.524 . S
C763 C764 1.397 . S
C763 C768 1.363 . S
C764 H741 0.950 . S
C764 C763 1.397 . S
C764 C765 1.334 . S
C765 H742 0.950 . S
C765 C764 1.334 . S
C765 C766 1.287 . S
C766 C765 1.287 . S
C766 C767 1.524 . S
C766 H785 0.913 . S
C767 H743 0.950 . S
C767 C766 1.524 . S
C767 C768 1.415 . S
C768 H744 0.950 . S
C768 C763 1.363 . S
C768 C767 1.415 . S
C769 H745 0.951 . S
C769 C770 1.366 . S
C769 C771 1.388 . S
C770 C769 1.366 . S
C770 C774 1.385 . S
C771 H746 0.951 . S
C771 C769 1.388 . S
C771 C772 1.366 . S
C772 C771 1.366 . S
C772 C773 1.414 . S
C772 C775 1.499 . S
C773 H747 0.950 . S
C773 C772 1.414 . S
C773 C774 1.374 . S
C774 H748 0.950 . S
C774 C770 1.385 . S
C774 C773 1.374 . S
C775 C772 1.499 . S
C775 C776 1.373 . S
C775 C777 1.389 . S
C776 H749 0.950 . S
C776 C762 1.377 . S
C776 C775 1.373 . S
C777 C761 1.377 . S
C777 C775 1.389 . S
C777 C778 1.524 . S
C778 C777 1.524 . S
C778 C779 1.397 . S
C778 C783 1.363 . S
C779 H750 0.950 1_655 S
C779 C778 1.397 . S
C779 C780 1.334 1_655 S
C780 H751 0.950 . S
C780 C779 1.334 1_455 S
C780 C781 1.287 . S
C781 C780 1.287 . S
C781 C782 1.524 1_455 S
C781 H784 0.999 . S
C782 H752 0.950 . S
C782 C781 1.524 1_655 S
C782 C783 1.415 . S
C783 H753 0.950 . S
C783 C778 1.363 . S
C783 C782 1.415 . S
H784 C781 0.999 . S
H785 C766 0.913 . S
H786 C804 0.951 . S
H787 C806 0.951 . S
H788 C808 0.950 1_565 S
H789 C809 0.950 . S
H790 C811 0.950 . S
H791 C814 0.950 . S
H792 C815 0.950 . S
H793 C817 0.950 . S
H794 C818 0.950 . S
H795 C819 0.951 . S
H796 C821 0.951 . S
H797 C823 0.950 . S
H798 C824 0.950 1_545 S
H799 C826 0.950 . S
H800 C829 0.950 . S
H801 C830 0.950 . S
H802 C832 0.950 . S
H803 C833 0.950 . S
C804 H786 0.951 . S
C804 C805 1.366 . S
C804 C806 1.388 . S
C805 C804 1.366 . S
C805 C809 1.385 . S
C806 H787 0.951 . S
C806 C804 1.388 . S
C806 C807 1.366 . S
C807 C806 1.366 . S
C807 C808 1.414 . S
C807 C810 1.499 . S
C808 H788 0.950 1_545 S
C808 C807 1.414 . S
C808 C809 1.374 . S
C809 H789 0.950 . S
C809 C805 1.385 . S
C809 C808 1.374 . S
C810 C807 1.499 . S
C810 C811 1.373 1_545 S
C810 C812 1.389 . S
C811 H790 0.950 . S
C811 C810 1.373 1_565 S
C811 C827 1.377 . S
C812 C810 1.389 . S
C812 C813 1.524 . S
C812 C826 1.377 . S
C813 C812 1.524 . S
C813 C814 1.397 . S
C813 C818 1.363 . S
C814 H791 0.950 . S
C814 C813 1.397 . S
C814 C815 1.334 . S
C815 H792 0.950 . S
C815 C814 1.334 . S
C815 C816 1.287 . S
C816 C815 1.287 . S
C816 C817 1.524 . S
C816 H835 0.913 . S
C817 H793 0.950 . S
C817 C816 1.524 . S
C817 C818 1.415 . S
C818 H794 0.950 . S
C818 C813 1.363 . S
C818 C817 1.415 . S
C819 H795 0.951 . S
C819 C820 1.366 . S
C819 C821 1.388 . S
C820 C819 1.366 . S
C820 C824 1.385 . S
C821 H796 0.951 . S
C821 C819 1.388 . S
C821 C822 1.366 . S
C822 C821 1.366 . S
C822 C823 1.414 1_565 S
C822 C825 1.499 1_565 S
C823 H797 0.950 . S
C823 C822 1.414 1_545 S
C823 C824 1.374 1_545 S
C824 H798 0.950 1_565 S
C824 C820 1.385 . S
C824 C823 1.374 1_565 S
C825 C822 1.499 1_545 S
C825 C826 1.373 . S
C825 C827 1.389 1_545 S
C826 H799 0.950 . S
C826 C812 1.377 . S
C826 C825 1.373 . S
C827 C811 1.377 . S
C827 C825 1.389 1_565 S
C827 C828 1.524 . S
C828 C827 1.524 . S
C828 C829 1.397 . S
C828 C833 1.363 . S
C829 H800 0.950 . S
C829 C828 1.397 . S
C829 C830 1.334 1_455 S
C830 H801 0.950 . S
C830 C829 1.334 1_655 S
C830 C831 1.287 . S
C831 C830 1.287 . S
C831 C832 1.524 . S
C831 H834 0.999 . S
C832 H802 0.950 . S
C832 C831 1.524 . S
C832 C833 1.415 1_655 S
C833 H803 0.950 . S
C833 C828 1.363 . S
C833 C832 1.415 1_455 S
H834 C831 0.999 . S
H835 C816 0.913 . S
H836 C854 0.951 . S
H837 C856 0.951 . S
H838 C858 0.950 . S
H839 C859 0.950 . S
H840 C861 0.950 . S
H841 C864 0.950 . S
H842 C865 0.950 . S
H843 C867 0.950 . S
H844 C868 0.950 . S
H845 C869 0.951 1_455 S
H846 C871 0.951 . S
H847 C873 0.950 . S
H848 C874 0.950 . S
H849 C876 0.950 . S
H850 C879 0.950 . S
H851 C880 0.950 . S
H852 C882 0.950 1_545 S
H853 C883 0.950 . S
C854 H836 0.951 . S
C854 C855 1.366 . S
C854 C856 1.388 . S
C855 C854 1.366 . S
C855 C859 1.385 . S
C856 H837 0.951 . S
C856 C854 1.388 . S
C856 C857 1.366 . S
C857 C856 1.366 . S
C857 C858 1.414 . S
C857 C860 1.499 . S
C858 H838 0.950 . S
C858 C857 1.414 . S
C858 C859 1.374 . S
C859 H839 0.950 . S
C859 C855 1.385 . S
C859 C858 1.374 . S
C860 C857 1.499 . S
C860 C861 1.373 . S
C860 C862 1.389 . S
C861 H840 0.950 . S
C861 C860 1.373 . S
C861 C877 1.377 . S
C862 C860 1.389 . S
C862 C863 1.524 . S
C862 C876 1.377 . S
C863 C862 1.524 . S
C863 C864 1.397 . S
C863 C868 1.363 . S
C864 H841 0.950 . S
C864 C863 1.397 . S
C864 C865 1.334 . S
C865 H842 0.950 . S
C865 C864 1.334 . S
C865 C866 1.287 . S
C866 C865 1.287 . S
C866 C867 1.524 . S
C866 H885 0.913 . S
C867 H843 0.950 . S
C867 C866 1.524 . S
C867 C868 1.415 . S
C868 H844 0.950 . S
C868 C863 1.363 . S
C868 C867 1.415 . S
C869 H845 0.951 1_655 S
C869 C870 1.366 . S
C869 C871 1.388 . S
C870 C869 1.366 . S
C870 C874 1.385 . S
C871 H846 0.951 . S
C871 C869 1.388 . S
C871 C872 1.366 . S
C872 C871 1.366 . S
C872 C873 1.414 . S
C872 C875 1.499 . S
C873 H847 0.950 . S
C873 C872 1.414 . S
C873 C874 1.374 . S
C874 H848 0.950 . S
C874 C870 1.385 . S
C874 C873 1.374 . S
C875 C872 1.499 . S
C875 C876 1.373 . S
C875 C877 1.389 . S
C876 H849 0.950 . S
C876 C862 1.377 . S
C876 C875 1.373 . S
C877 C861 1.377 . S
C877 C875 1.389 . S
C877 C878 1.524 . S
C878 C877 1.524 . S
C878 C879 1.397 . S
C878 C883 1.363 1_655 S
C879 H850 0.950 . S
C879 C878 1.397 . S
C879 C880 1.334 . S
C880 H851 0.950 . S
C880 C879 1.334 . S
C880 C881 1.287 1_655 S
C881 C880 1.287 1_455 S
C881 C882 1.524 . S
C881 H884 0.999 . S
C882 H852 0.950 1_565 S
C882 C881 1.524 . S
C882 C883 1.415 . S
C883 H853 0.950 . S
C883 C878 1.363 1_455 S
C883 C882 1.415 . S
H884 C881 0.999 . S
H885 C866 0.913 . S
H886 C904 0.951 . S
H887 C906 0.951 . S
H888 C908 0.950 . S
H889 C909 0.950 . S
H890 C911 0.950 . S
H891 C914 0.950 . S
H892 C915 0.950 . S
H893 C917 0.950 . S
H894 C918 0.950 . S
H895 C919 0.951 . S
H896 C921 0.951 . S
H897 C923 0.950 . S
H898 C924 0.950 . S
H899 C926 0.950 1_655 S
H900 C929 0.950 . S
H901 C930 0.950 . S
H902 C932 0.950 . S
H903 C933 0.950 . S
C904 H886 0.951 . S
C904 C905 1.366 . S
C904 C906 1.388 . S
C905 C904 1.366 . S
C905 C909 1.385 . S
C906 H887 0.951 . S
C906 C904 1.388 . S
C906 C907 1.366 . S
C907 C906 1.366 . S
C907 C908 1.414 . S
C907 C910 1.499 . S
C908 H888 0.950 . S
C908 C907 1.414 . S
C908 C909 1.374 . S
C909 H889 0.950 . S
C909 C905 1.385 . S
C909 C908 1.374 . S
C910 C907 1.499 . S
C910 C911 1.373 1_655 S
C910 C912 1.389 . S
C911 H890 0.950 . S
C911 C910 1.373 1_455 S
C911 C927 1.377 . S
C912 C910 1.389 . S
C912 C913 1.524 . S
C912 C926 1.377 1_655 S
C913 C912 1.524 . S
C913 C914 1.397 . S
C913 C918 1.363 . S
C914 H891 0.950 . S
C914 C913 1.397 . S
C914 C915 1.334 1_545 S
C915 H892 0.950 . S
C915 C914 1.334 1_565 S
C915 C916 1.287 . S
C916 C915 1.287 . S
C916 C917 1.524 . S
C916 H935 0.913 . S
C917 H893 0.950 . S
C917 C916 1.524 . S
C917 C918 1.415 1_565 S
C918 H894 0.950 . S
C918 C913 1.363 . S
C918 C917 1.415 1_545 S
C919 H895 0.951 . S
C919 C920 1.366 . S
C919 C921 1.388 . S
C920 C919 1.366 . S
C920 C924 1.385 . S
C921 H896 0.951 . S
C921 C919 1.388 . S
C921 C922 1.366 . S
C922 C921 1.366 . S
C922 C923 1.414 . S
C922 C925 1.499 . S
C923 H897 0.950 . S
C923 C922 1.414 . S
C923 C924 1.374 . S
C924 H898 0.950 . S
C924 C920 1.385 . S
C924 C923 1.374 . S
C925 C922 1.499 . S
C925 C926 1.373 . S
C925 C927 1.389 . S
C926 H899 0.950 1_455 S
C926 C912 1.377 1_455 S
C926 C925 1.373 . S
C927 C911 1.377 . S
C927 C925 1.389 . S
C927 C928 1.524 . S
C928 C927 1.524 . S
C928 C929 1.397 . S
C928 C933 1.363 . S
C929 H900 0.950 . S
C929 C928 1.397 . S
C929 C930 1.334 . S
C930 H901 0.950 . S
C930 C929 1.334 . S
C930 C931 1.287 . S
C931 C930 1.287 . S
C931 C932 1.524 . S
C931 H934 0.999 . S
C932 H902 0.950 . S
C932 C931 1.524 . S
C932 C933 1.415 . S
C933 H903 0.950 . S
C933 C928 1.363 . S
C933 C932 1.415 . S
H934 C931 0.999 . S
H935 C916 0.913 . S
C355 C224 0.447 . S
C370 C68 0.434 . S
C405 C308 0.434 1_655 S
C420 C152 0.436 . S
C455 C236 1.543 1_545 S
C470 C56 1.543 . S
C505 C140 1.543 . S
C520 C320 1.540 1_455 S
C555 C151 1.941 . S
C570 C67 1.941 . S
C605 C139 1.110 . S
C620 C226 0.952 . S
C655 C322 1.844 . S
C670 C238 1.847 . S
C705 C310 0.953 . S
C720 C55 1.110 . S
C755 C223 1.941 1_556 S
C770 C307 1.942 . S
C805 C70 0.950 . S
C820 C319 1.110 . S
C855 C142 1.844 . S
C870 C58 1.844 . S
C905 C235 1.110 . S
C920 C154 0.951 . S
