# Generated by pormake.
# Topology sml, (6)-cn, num edge types: 1
# Building blocks:
#     Node 0, Type 0, BuildingBlock: IZENUY_clean_sbu_0, # of connection points: 6
#     Node 1, Type 0, BuildingBlock: IZENUY_clean_sbu_0, # of connection points: 6
#     Node 2, Type 0, BuildingBlock: IZENUY_clean_sbu_0, # of connection points: 6
#     Node 3, Type 0, BuildingBlock: IZENUY_clean_sbu_0, # of connection points: 6
#     Node 4, Type 0, BuildingBlock: IZENUY_clean_sbu_0, # of connection points: 6
#     Node 5, Type 0, BuildingBlock: IZENUY_clean_sbu_0, # of connection points: 6
#     Edge 6, Type (0, 0), BuildingBlock: ZUJKAS_clean_linker_0, # of connection points: 2
#     Edge 7, Type (0, 0), BuildingBlock: ZUJKAS_clean_linker_0, # of connection points: 2
#     Edge 8, Type (0, 0), BuildingBlock: ZUJKAS_clean_linker_0, # of connection points: 2
#     Edge 9, Type (0, 0), BuildingBlock: ZUJKAS_clean_linker_0, # of connection points: 2
#     Edge 10, Type (0, 0), BuildingBlock: ZUJKAS_clean_linker_0, # of connection points: 2
#     Edge 11, Type (0, 0), BuildingBlock: ZUJKAS_clean_linker_0, # of connection points: 2
#     Edge 12, Type (0, 0), BuildingBlock: ZUJKAS_clean_linker_0, # of connection points: 2
#     Edge 13, Type (0, 0), BuildingBlock: ZUJKAS_clean_linker_0, # of connection points: 2
#     Edge 14, Type (0, 0), BuildingBlock: ZUJKAS_clean_linker_0, # of connection points: 2
#     Edge 15, Type (0, 0), BuildingBlock: ZUJKAS_clean_linker_0, # of connection points: 2
#     Edge 16, Type (0, 0), BuildingBlock: ZUJKAS_clean_linker_0, # of connection points: 2
#     Edge 17, Type (0, 0), BuildingBlock: ZUJKAS_clean_linker_0, # of connection points: 2
#     Edge 18, Type (0, 0), BuildingBlock: ZUJKAS_clean_linker_0, # of connection points: 2
#     Edge 19, Type (0, 0), BuildingBlock: ZUJKAS_clean_linker_0, # of connection points: 2
#     Edge 20, Type (0, 0), BuildingBlock: ZUJKAS_clean_linker_0, # of connection points: 2
#     Edge 21, Type (0, 0), BuildingBlock: ZUJKAS_clean_linker_0, # of connection points: 2
#     Edge 22, Type (0, 0), BuildingBlock: ZUJKAS_clean_linker_0, # of connection points: 2
#     Edge 23, Type (0, 0), BuildingBlock: ZUJKAS_clean_linker_0, # of connection points: 2
# Relax obj value: 0.327
# Max RMSD: 0.283
# Mean RMSD: 0.283
data_MOF--net-sml--node1-IZENUY_clean_sbu_0--edge1-ZUJKAS_clean_linker_0
_symmetry_space_group_name_H-M    P1
_symmetry_Int_Tables_number       1
_symmetry_cell_setting            triclinic
loop_
_symmetry_equiv_pos_as_xyz
'x, y, z'
_cell_length_a     52.126619
_cell_length_b     52.133314
_cell_length_c     18.820729
_cell_angle_alpha  89.864928
_cell_angle_beta   89.956861
_cell_angle_gamma 119.95319
loop_
_atom_site_label
_atom_site_type_symbol
_atom_site_fract_x
_atom_site_fract_y
_atom_site_fract_z
_atom_type_partial_charge
Fe0 Fe 0.25608 0.4511 0.04188 0.0
Fe1 Fe 0.20143 0.39189 0.0036 0.0
O2 O 0.22065 0.43107 0.00246 0.0
Fe3 Fe 0.20447 0.45024 0.96192 0.0
O4 O 0.20532 0.46829 0.0444 0.0
O5 O 0.25174 0.48281 0.06885 0.0
O6 O 0.24134 0.43488 0.12771 0.0
C7 C 0.22678 0.40746 0.1402 0.0
C8 C 0.26563 0.48494 0.92448 0.0
O9 O 0.21606 0.38892 0.09005 0.0
C10 C 0.19062 0.40598 0.86622 0.0
O11 O 0.26712 0.42333 0.02154 0.0
O12 O 0.23082 0.39081 0.95537 0.0
O13 O 0.24011 0.48204 0.93248 0.0
O14 O 0.27278 0.46857 0.95827 0.0
C15 C 0.15596 0.40219 0.03193 0.0
O16 O 0.18337 0.38783 0.91736 0.0
O17 O 0.20284 0.43343 0.87714 0.0
C18 C 0.25745 0.40315 0.97482 0.0
O19 O 0.17077 0.39042 0.05186 0.0
O20 O 0.16596 0.42217 0.98438 0.0
C21 C 0.22896 0.48544 0.07651 0.0
Fe22 Fe 0.80992 0.25005 0.37648 0.0
Fe23 Fe 0.81742 0.19799 0.32798 0.0
O24 O 0.79754 0.21741 0.32561 0.0
Fe25 Fe 0.76543 0.20402 0.27219 0.0
O26 O 0.7465 0.21688 0.33121 0.0
O27 O 0.77503 0.23465 0.42534 0.0
O28 O 0.82444 0.23758 0.4496 0.0
C29 C 0.81951 0.21199 0.46698 0.0
C30 C 0.79131 0.26361 0.24732 0.0
O31 O 0.81155 0.19172 0.42184 0.0
C32 C 0.80486 0.19449 0.18765 0.0
O33 O 0.84533 0.26801 0.33017 0.0
O34 O 0.85382 0.23104 0.34087 0.0
O35 O 0.78108 0.23815 0.22044 0.0
O36 O 0.79774 0.26811 0.31259 0.0
C37 C 0.75781 0.15227 0.32943 0.0
O38 O 0.82467 0.20307 0.23423 0.0
O39 O 0.77886 0.18878 0.20305 0.0
C40 C 0.86261 0.25775 0.32497 0.0
O41 O 0.78474 0.16123 0.31559 0.0
O42 O 0.74731 0.16926 0.32123 0.0
C43 C 0.74997 0.22421 0.39598 0.0
Fe44 Fe 0.56575 0.75894 0.61378 0.0
Fe45 Fe 0.56515 0.81009 0.69218 0.0
O46 O 0.58503 0.79439 0.65326 0.0
Fe47 Fe 0.62419 0.81406 0.654 0.0
O48 O 0.6252 0.78491 0.7037 0.0
O49 O 0.59385 0.7485 0.636 0.0
O50 O 0.54779 0.74207 0.69689 0.0
C51 C 0.53077 0.74881 0.72905 0.0
C52 C 0.60992 0.78874 0.5172 0.0
O53 O 0.53342 0.77421 0.72059 0.0
C54 C 0.61336 0.85898 0.62344 0.0
O55 O 0.53396 0.76274 0.5847 0.0
O56 O 0.5476 0.80901 0.60864 0.0
O57 O 0.62811 0.79959 0.56813 0.0
O58 O 0.58246 0.77383 0.52859 0.0
C59 C 0.60882 0.82446 0.79016 0.0
O60 O 0.59306 0.84877 0.67021 0.0
O61 O 0.62556 0.84444 0.60467 0.0
C62 C 0.53106 0.78531 0.57596 0.0
O63 O 0.58142 0.81188 0.778 0.0
O64 O 0.62733 0.8321 0.73975 0.0
C65 C 0.6133 0.7583 0.68449 0.0
Fe66 Fe 0.81516 0.5623 0.94014 0.0
Fe67 Fe 0.7633 0.56109 0.01982 0.0
O68 O 0.79876 0.58127 0.9803 0.0
Fe69 Fe 0.81772 0.6204 0.98087 0.0
O70 O 0.8483 0.62205 0.02956 0.0
O71 O 0.85352 0.59052 0.96255 0.0
O72 O 0.81425 0.5442 0.02292 0.0
C73 C 0.79048 0.52679 0.05453 0.0
C74 C 0.82896 0.60657 0.84387 0.0
O75 O 0.76765 0.5293 0.04656 0.0
C76 C 0.7617 0.60876 0.9519 0.0
O77 O 0.77965 0.5305 0.91093 0.0
O78 O 0.74684 0.54389 0.93611 0.0
O79 O 0.83607 0.62467 0.89481 0.0
O80 O 0.81685 0.57913 0.85512 0.0
C81 C 0.7923 0.60457 0.11769 0.0
O82 O 0.75222 0.58893 -0.00024 0.0
O83 O 0.78829 0.6211 0.93198 0.0
C84 C 0.75414 0.52759 0.90264 0.0
O85 O 0.77795 0.57715 0.10554 0.0
O86 O 0.80277 0.62315 0.06721 0.0
C87 C 0.86322 0.61034 0.01018 0.0
Fe88 Fe 0.25614 0.81201 0.29144 0.0
Fe89 Fe 0.20442 0.75939 0.36663 0.0
O90 O 0.22035 0.79544 0.32972 0.0
Fe91 Fe 0.20052 0.81484 0.33177 0.0
O92 O 0.22934 0.84477 0.3823 0.0
O93 O 0.2666 0.8501 0.3169 0.0
O94 O 0.27223 0.80954 0.37433 0.0
C95 C 0.26531 0.78534 0.4044 0.0
C96 C 0.22748 0.8283 0.1964 0.0
O97 O 0.24002 0.76282 0.39419 0.0
C98 C 0.15594 0.75935 0.29894 0.0
O99 O 0.25221 0.77671 0.2593 0.0
O100 O 0.20574 0.74393 0.28187 0.0
O101 O 0.21519 0.83402 0.24701 0.0
O102 O 0.24235 0.81562 0.20646 0.0
C103 C 0.19018 0.78805 0.46642 0.0
O104 O 0.16592 0.74903 0.3455 0.0
O105 O 0.17041 0.78622 0.2813 0.0
C106 C 0.22958 0.75142 0.24915 0.0
O107 O 0.2025 0.77305 0.45322 0.0
O108 O 0.18233 0.79914 0.417 0.0
C109 C 0.25618 0.85953 0.36446 0.0
Fe110 Fe 0.4517 0.2006 0.72128 0.0
Fe111 Fe 0.39363 0.19793 0.67936 0.0
O112 O 0.43279 0.21685 0.67995 0.0
Fe113 Fe 0.45302 0.25204 0.63928 0.0
O114 O 0.47051 0.26895 0.72234 0.0
O115 O 0.4837 0.23618 0.74937 0.0
O116 O 0.43493 0.19952 0.80587 0.0
C117 C 0.40747 0.18729 0.81699 0.0
C118 C 0.48714 0.2244 0.60637 0.0
O119 O 0.38939 0.1799 0.7659 0.0
C120 C 0.40925 0.2227 0.54208 0.0
O121 O 0.42335 0.16214 0.69999 0.0
O122 O 0.39198 0.16717 0.63171 0.0
O123 O 0.48459 0.24729 0.61262 0.0
O124 O 0.46973 0.20092 0.63904 0.0
C125 C 0.40536 0.25411 0.7065 0.0
O126 O 0.39077 0.21255 0.59271 0.0
O127 O 0.43669 0.23699 0.55401 0.0
C128 C 0.40362 0.15229 0.65209 0.0
O129 O 0.3929 0.22757 0.72697 0.0
O130 O 0.42543 0.26344 0.65921 0.0
C131 C 0.48691 0.26186 0.75611 0.0
H132 H 0.35997 0.23937 0.7999 0.0
H133 H 0.34083 0.2705 0.84358 0.0
H134 H 0.407 0.34425 0.72225 0.0
H135 H 0.42606 0.31293 0.67666 0.0
H136 H 0.36743 0.32153 0.92092 0.0
H137 H 0.33068 0.3408 0.65882 0.0
H138 H 0.34147 0.31319 0.67186 0.0
H139 H 0.36918 0.35161 0.66429 0.0
C140 C 0.37048 0.26218 0.7821 0.0
C141 C 0.39439 0.27354 0.73403 0.0
C142 C 0.35953 0.27999 0.80742 0.0
C143 C 0.37219 0.30959 0.78547 0.0
C144 C 0.39649 0.32129 0.73875 0.0
H145 H 0.31664 0.42449 0.00012 0.0
H146 H 0.34768 0.4053 0.95349 0.0
C147 C 0.40744 0.30339 0.713 0.0
C148 C 0.35953 0.32777 0.81169 0.0
H149 H 0.32282 0.36338 0.75818 0.0
C150 C 0.35788 0.33092 0.88538 0.0
C151 C 0.34687 0.33976 0.76517 0.0
C152 C 0.34684 0.33604 0.68565 0.0
C153 C 0.34326 0.34504 0.91394 0.0
C154 C 0.33048 0.35691 0.86742 0.0
C155 C 0.3328 0.35444 0.7937 0.0
C156 C 0.31242 0.36966 0.89401 0.0
C157 C 0.34045 0.34588 -0.00639 0.0
C158 C 0.28255 0.35658 0.87443 0.0
C159 C 0.26487 0.36762 0.90034 0.0
C160 C 0.27666 0.39202 0.94664 0.0
C161 C 0.30677 0.40547 0.96525 0.0
C162 C 0.32452 0.39446 0.93888 0.0
H163 H 0.34566 0.33013 0.02097 0.0
H164 H 0.35617 0.36848 0.01299 0.0
H165 H 0.31772 0.34053 0.00894 0.0
H166 H 0.27274 0.33749 0.83973 0.0
H167 H 0.24185 0.35678 0.88443 0.0
H168 H 0.1175 0.42303 0.00835 0.0
H169 H 0.06716 0.40297 0.0559 0.0
H170 H 0.07557 0.33538 0.16803 0.0
H171 H 0.12564 0.35512 0.12148 0.0
H172 H 0.02178 0.31651 0.07601 0.0
H173 H 0.04308 0.40481 0.27243 0.0
H174 H 0.05794 0.41555 0.18391 0.0
H175 H 0.07217 0.39827 0.24174 0.0
C176 C 0.10866 0.40394 0.04326 0.0
C177 C 0.12562 0.39065 0.06082 0.0
C178 C 0.07997 0.39262 0.07059 0.0
C179 C 0.06779 0.36783 0.11572 0.0
C180 C 0.08464 0.35459 0.13339 0.0
H181 H 0.9074 0.24497 0.32596 0.0
H182 H 0.95658 0.27365 0.27358 0.0
C183 C 0.11328 0.36594 0.10662 0.0
C184 C 0.03711 0.35478 0.14297 0.0
H185 H 0.99463 0.364 0.26733 0.0
C186 C 0.01574 0.32696 0.11745 0.0
C187 C 0.02934 0.36864 0.19653 0.0
C188 C 0.05174 0.39843 0.22583 0.0
C189 C 0.98685 0.31233 0.145 0.0
C190 C 0.97938 0.32553 0.20095 0.0
C191 C 1.00048 0.35385 0.22481 0.0
C192 C 0.95023 0.3095 0.23734 0.0
C193 C 0.96459 0.28282 0.11387 0.0
C194 C 0.93077 0.3208 0.23735 0.0
C195 C 0.90257 0.30452 0.26805 0.0
C196 C 0.89344 0.27672 0.29942 0.0
C197 C 0.91354 0.26615 0.30175 0.0
C198 C 0.94165 0.28244 0.27141 0.0
H199 H 0.9708 0.28017 0.05901 0.0
H200 H 0.96378 0.2648 0.147 0.0
H201 H 0.94208 0.28015 0.11271 0.0
H202 H 0.93707 0.34178 0.21183 0.0
H203 H 0.88763 0.31329 0.26527 0.0
H204 H 0.77084 0.10768 0.33153 0.0
H205 H 0.74152 0.05824 0.3822 0.0
H206 H 0.6728 0.07763 0.43867 0.0
H207 H 0.70186 0.1272 0.38658 0.0
H208 H 0.72458 0.04539 0.52106 0.0
H209 H 0.6256 0.99663 0.34593 0.0
H210 H 0.65941 0.03006 0.32291 0.0
H211 H 0.63432 0.03118 0.38669 0.0
C212 C 0.74932 0.10138 0.35382 0.0
C213 C 0.73868 0.12143 0.35478 0.0
C214 C 0.73259 0.07308 0.38292 0.0
C215 C 0.70485 0.06409 0.41376 0.0
C216 C 0.69387 0.08383 0.41392 0.0
H217 H 0.59258 0.89755 0.64656 0.0
H218 H 0.61294 0.94801 0.59916 0.0
C219 C 0.71057 0.1122 0.38432 0.0
C220 C 0.68852 0.03468 0.44907 0.0
H221 H 0.62509 0.96726 0.44255 0.0
C222 C 0.70278 0.02838 0.504 0.0
C223 C 0.65997 0.01253 0.42714 0.0
C224 C 0.64394 0.01773 0.36707 0.0
C225 C 0.68958 1.00042 0.53656 0.0
C226 C 0.66145 0.97808 0.51338 0.0
C227 C 0.64667 0.98454 0.46016 0.0
C228 C 0.64824 0.94734 0.54033 0.0
C229 C 0.70597 0.99479 0.59503 0.0
C230 C 0.66113 0.93025 0.52199 0.0
C231 C 0.6496 0.90156 0.54857 0.0
C232 C 0.62492 0.88931 0.59441 0.0
C233 C 0.61171 0.90636 0.61184 0.0
C234 C 0.62323 0.93513 0.5847 0.0
H235 H 0.72408 0.01575 0.61739 0.0
H236 H 0.6906 0.98162 0.63861 0.0
H237 H 0.71589 0.98192 0.57334 0.0
H238 H 0.68027 0.93921 0.48721 0.0
H239 H 0.66026 0.88909 0.5335 0.0
H240 H 0.6089 0.70756 0.62929 0.0
H241 H 0.63027 0.67871 0.67772 0.0
H242 H 0.66283 0.73701 0.85867 0.0
H243 H 0.64257 0.76646 0.80938 0.0
H244 H 0.70487 0.72964 0.80558 0.0
H245 H 0.60493 0.61915 0.8354 0.0
H246 H 0.60962 0.63316 0.74636 0.0
H247 H 0.60285 0.65208 0.81746 0.0
C248 C 0.62037 0.71401 0.67973 0.0
C249 C 0.62422 0.73938 0.71528 0.0
C250 C 0.63238 0.69736 0.70768 0.0
C251 C 0.64784 0.7054 0.77243 0.0
C252 C 0.65101 0.73033 0.80868 0.0
H253 H 0.71081 0.6032 0.01013 0.0
H254 H 0.68221 0.62582 0.96701 0.0
C255 C 0.63944 0.74719 0.78035 0.0
C256 C 0.66269 0.68939 0.80011 0.0
H257 H 0.65162 0.62106 0.84558 0.0
C258 C 0.69312 0.70591 0.81474 0.0
C259 C 0.64735 0.65848 0.81306 0.0
C260 C 0.61433 0.63973 0.80297 0.0
C261 C 0.70872 0.69246 0.84091 0.0
C262 C 0.69373 0.66137 0.85049 0.0
C263 C 0.66318 0.64483 0.83724 0.0
C264 C 0.70959 0.64581 0.87405 0.0
C265 C 0.74103 0.71187 0.85926 0.0
C266 C 0.73387 0.64877 0.83501 0.0
C267 C 0.75042 0.6363 0.85995 0.0
C268 C 0.74268 0.62005 0.9238 0.0
C269 C 0.7174 0.61572 0.96097 0.0
C270 C 0.70104 0.6286 0.93636 0.0
H271 H 0.74655 0.73503 0.86989 0.0
H272 H 0.74713 0.70335 0.90664 0.0
H273 H 0.75481 0.71234 0.81374 0.0
H274 H 0.74034 0.66117 0.78567 0.0
H275 H 0.76945 0.63957 0.82935 0.0
H276 H 0.1182 0.69998 0.32103 0.0
H277 H 0.069 0.669 0.26947 0.0
H278 H 0.07682 0.74485 0.15742 0.0
H279 H 0.126 0.77576 0.20734 0.0
H280 H 0.01947 0.67376 0.28296 0.0
H281 H 0.05181 0.68432 -0.00022 0.0
H282 H 0.07839 0.6951 0.07098 0.0
H283 H 0.06567 0.71971 0.04142 0.0
C284 C 0.10951 0.71003 0.28514 0.0
C285 C 0.1261 0.74036 0.26828 0.0
C286 C 0.08141 0.69229 0.25567 0.0
C287 C 0.06948 0.7045 0.20856 0.0
C288 C 0.08589 0.73478 0.19216 0.0
H289 H 0.89121 0.65413 0.1084 0.0
H290 H 0.9407 0.67333 0.15716 0.0
C291 C 0.11395 0.75249 0.22131 0.0
C292 C 0.03932 0.68606 0.17896 0.0
H293 H 1.00047 0.66752 0.02354 0.0
C294 C 0.01534 0.67205 0.22621 0.0
C295 C 0.03395 0.68337 0.1049 0.0
C296 C 0.05886 0.69617 0.05134 0.0
C297 C 0.98606 0.65669 0.20147 0.0
C298 C 0.98062 0.65583 0.1276 0.0
C299 C 1.00464 0.66853 0.08021 0.0
C300 C 0.95025 0.64337 0.0987 0.0
C301 C 0.96122 0.64171 0.25478 0.0
C302 C 0.93942 0.62063 0.048 0.0
C303 C 0.91109 0.60973 0.01921 0.0
C304 C 0.89322 0.62155 0.0403 0.0
C305 C 0.90428 0.64441 0.09096 0.0
C306 C 0.93252 0.65528 0.11948 0.0
H307 H 0.96892 0.63614 0.30443 0.0
H308 H 0.95296 0.65696 0.26893 0.0
H309 H 0.9425 0.62111 0.23277 0.0
H310 H 0.95286 0.61129 0.03083 0.0
H311 H 0.90326 0.59212 0.98038 0.0
H312 H 0.42263 0.11282 0.68152 0.0
H313 H 0.40361 0.06313 0.63193 0.0
H314 H 0.33993 0.07388 0.50842 0.0
H315 H 0.359 0.12346 0.55621 0.0
H316 H 0.34802 0.01491 0.64105 0.0
H317 H 0.37673 0.04643 0.35913 0.0
H318 H 0.39186 0.07301 0.43038 0.0
H319 H 0.35556 0.06177 0.3958 0.0
C320 C 0.40467 0.10464 0.64353 0.0
C321 C 0.39238 0.12217 0.62284 0.0
C322 C 0.39386 0.07627 0.61522 0.0
C323 C 0.37073 0.06502 0.56548 0.0
C324 C 0.35829 0.08237 0.5453 0.0
H325 H 0.23984 0.88817 0.46011 0.0
H326 H 0.27045 0.93727 0.51059 0.0
C327 C 0.3691 0.11068 0.57326 0.0
C328 C 0.35851 0.03467 0.53675 0.0
H329 H 0.33989 0.99569 0.38168 0.0
C330 C 0.3466 0.0107 0.58437 0.0
C331 C 0.35712 0.02919 0.46284 0.0
C332 C 0.37129 0.05399 0.40914 0.0
C333 C 0.33203 0.98136 0.55994 0.0
C334 C 0.32879 0.97591 0.48594 0.0
C335 C 0.34201 0.99987 0.4384 0.0
C336 C 0.31062 0.94566 0.45667 0.0
C337 C 0.32014 0.95652 0.61371 0.0
C338 C 0.3228 0.9343 0.40799 0.0
C339 C 0.30522 0.90626 0.37816 0.0
C340 C 0.27506 0.88915 0.39623 0.0
C341 C 0.26298 0.90065 0.44508 0.0
C342 C 0.28053 0.92867 0.47458 0.0
H343 H 0.33249 0.96381 0.66462 0.0
H344 H 0.29661 0.94933 0.62507 0.0
H345 H 0.32141 0.93718 0.59353 0.0
H346 H 0.34593 0.94715 0.39305 0.0
H347 H 0.31525 0.89807 0.34084 0.0
H348 H 0.18802 0.43467 0.74775 0.0
H349 H 0.18577 0.41929 0.62449 0.0
H350 H 0.18001 0.33771 0.6943 0.0
H351 H 0.18206 0.35287 0.81838 0.0
H352 H 0.22741 0.37322 0.59656 0.0
H353 H 0.11897 0.3543 0.5003 0.0
H354 H 0.13894 0.38776 0.55082 0.0
H355 H 0.12667 0.35257 0.59333 0.0
C356 C 0.18567 0.4132 0.73699 0.0
C357 C 0.18522 0.39497 0.79261 0.0
C358 C 0.18418 0.40435 0.66661 0.0
C359 C 0.18237 0.37724 0.65062 0.0
C360 C 0.18106 0.35856 0.7059 0.0
H361 H 0.18623 0.35267 0.19019 0.0
H362 H 0.17459 0.33729 0.31469 0.0
C363 C 0.18217 0.36724 0.77656 0.0
C364 C 0.18545 0.3705 0.57614 0.0
H365 H 0.15716 0.36778 0.41146 0.0
C366 C 0.21172 0.3712 0.55606 0.0
C367 C 0.16478 0.36754 0.52378 0.0
C368 C 0.1356 0.3652 0.54311 0.0
C369 C 0.21901 0.37162 0.48424 0.0
C370 C 0.19957 0.37149 0.43182 0.0
C371 C 0.17214 0.36815 0.45195 0.0
C372 C 0.20888 0.37891 0.35705 0.0
C373 C 0.24803 0.37359 0.46501 0.0
C374 C 0.23208 0.40732 0.34011 0.0
C375 C 0.23861 0.41626 0.26942 0.0
C376 C 0.22207 0.39688 0.2144 0.0
C377 C 0.19951 0.36802 0.23146 0.0
C378 C 0.19279 0.35919 0.3024 0.0
H379 H 0.25568 0.36429 0.5078 0.0
H380 H 0.24616 0.3617 0.41469 0.0
H381 H 0.26514 0.3972 0.45766 0.0
H382 H 0.24435 0.42304 0.38171 0.0
H383 H 0.25611 0.43862 0.25799 0.0
H384 H 0.8528 0.19065 0.1435 0.0
H385 H 0.86493 0.18411 0.02168 0.0
H386 H 0.78481 0.1804 0.94752 0.0
H387 H 0.77209 0.18599 0.06879 0.0
H388 H 0.79597 0.13911 0.88345 0.0
H389 H 0.89549 0.25228 0.88008 0.0
H390 H 0.89394 0.22631 0.94534 0.0
H391 H 0.86868 0.24022 0.95107 0.0
C392 C 0.83769 0.18822 0.10117 0.0
C393 C 0.81161 0.1891 0.11533 0.0
C394 C 0.84468 0.18451 0.03183 0.0
C395 C 0.82593 0.18214 0.97591 0.0
C396 C 0.79949 0.18209 -0.00972 0.0
H397 H 0.82313 0.24305 0.58591 0.0
H398 H 0.83144 0.23241 0.70732 0.0
C399 C 0.79231 0.18542 0.05945 0.0
C400 C 0.83423 0.18187 0.90136 0.0
H401 H 0.87743 0.2292 0.77099 0.0
C402 C 0.8142 0.15842 0.85858 0.0
C403 C 0.85825 0.2071 0.86992 0.0
C404 C 0.88032 0.23303 0.91361 0.0
C405 C 0.81555 0.16089 0.7845 0.0
C406 C 0.83814 0.18721 0.75311 0.0
C407 C 0.86008 0.20921 0.79579 0.0
C408 C 0.83614 0.19471 0.67871 0.0
C409 C 0.7912 0.13662 0.7411 0.0
C410 C 0.83645 0.17725 0.62271 0.0
C411 C 0.83108 0.18292 0.55354 0.0
C412 C 0.82595 0.20651 0.53951 0.0
C413 C 0.82695 0.22472 0.59534 0.0
C414 C 0.83185 0.21875 0.6645 0.0
H415 H 0.77316 0.11971 0.77489 0.0
H416 H 0.78146 0.146 0.70393 0.0
H417 H 0.8005 0.12532 0.70916 0.0
H418 H 0.84029 0.15897 0.63264 0.0
H419 H 0.83091 0.16883 0.51112 0.0
H420 H 0.58051 0.75753 0.39983 0.0
H421 H 0.59565 0.76999 0.27612 0.0
H422 H 0.67853 0.84448 0.34286 0.0
H423 H 0.66354 0.8321 0.46752 0.0
H424 H 0.64474 0.85796 0.24615 0.0
H425 H 0.65788 0.765 0.14937 0.0
H426 H 0.62451 0.75277 0.1999 0.0
H427 H 0.65986 0.77428 0.24248 0.0
C428 C 0.60221 0.77622 0.38835 0.0
C429 C 0.62084 0.79386 0.44331 0.0
C430 C 0.61092 0.78317 0.31765 0.0
C431 C 0.63834 0.80791 0.30058 0.0
C432 C 0.65742 0.8251 0.35523 0.0
H433 H 0.66287 0.83612 0.83938 0.0
H434 H 0.67793 0.83869 0.96367 0.0
C435 C 0.64885 0.81796 0.42624 0.0
C436 C 0.64502 0.81744 0.22572 0.0
H437 H 0.64542 0.79077 0.06086 0.0
C438 C 0.64571 0.84371 0.20561 0.0
C439 C 0.6466 0.79897 0.17319 0.0
C440 C 0.64748 0.77132 0.19232 0.0
C441 C 0.64538 0.85069 0.13378 0.0
C442 C 0.64417 0.83079 0.08134 0.0
C443 C 0.64607 0.80585 0.10137 0.0
C444 C 0.63702 0.83324 0.0067 0.0
C445 C 0.64498 0.87859 0.11459 0.0
C446 C 0.60912 0.82947 -0.00982 0.0
C447 C 0.60034 0.82773 0.91959 0.0
C448 C 0.6194 0.82984 0.86425 0.0
C449 C 0.6478 0.83469 0.88091 0.0
C450 C 0.65644 0.83611 0.95173 0.0
H451 H 0.65491 0.89543 0.1573 0.0
H452 H 0.65716 0.88826 0.0642 0.0
H453 H 0.62171 0.87327 0.10732 0.0
H454 H 0.59362 0.82665 0.03203 0.0
H455 H 0.57833 0.82394 0.90845 0.0
H456 H 0.83232 0.57828 0.72589 0.0
H457 H 0.83427 0.59351 0.60237 0.0
H458 H 0.83823 0.67428 0.6709 0.0
H459 H 0.83648 0.65928 0.79524 0.0
H460 H 0.79119 0.63822 0.57384 0.0
H461 H 0.9003 0.65908 0.47686 0.0
H462 H 0.88081 0.62555 0.52788 0.0
H463 H 0.8925 0.66063 0.56991 0.0
C464 C 0.83422 0.59956 0.71478 0.0
C465 C 0.83426 0.6176 0.77011 0.0
C466 C 0.83554 0.60832 0.64425 0.0
C467 C 0.83676 0.63516 0.62782 0.0
C468 C 0.83765 0.65366 0.68282 0.0
H469 H 0.83245 0.6595 0.16698 0.0
H470 H 0.84398 0.67484 0.2913 0.0
C471 C 0.83672 0.64508 0.75362 0.0
C472 C 0.8335 0.64173 0.55322 0.0
H473 H 0.86201 0.64498 0.38836 0.0
C474 C 0.807 0.64051 0.53325 0.0
C475 C 0.85431 0.64505 0.50072 0.0
C476 C 0.88373 0.64796 0.51989 0.0
C477 C 0.79965 0.63997 0.46146 0.0
C478 C 0.81927 0.64048 0.40893 0.0
C479 C 0.84689 0.64431 0.42892 0.0
C480 C 0.81003 0.63302 0.33425 0.0
C481 C 0.77039 0.63747 0.4424 0.0
C482 C 0.78707 0.6045 0.31768 0.0
C483 C 0.78059 0.59559 0.2471 0.0
C484 C 0.79696 0.6151 0.19179 0.0
C485 C 0.8193 0.64405 0.20848 0.0
C486 C 0.82596 0.65285 0.27931 0.0
H487 H 0.76253 0.64658 0.48508 0.0
H488 H 0.77203 0.64925 0.39188 0.0
H489 H 0.75355 0.61377 0.43557 0.0
H490 H 0.77493 0.58868 0.35948 0.0
H491 H 0.76327 0.57315 0.23598 0.0
H492 H 0.19258 0.83798 0.51676 0.0
H493 H 0.19847 0.85373 0.64096 0.0
H494 H 0.18619 0.76896 0.7069 0.0
H495 H 0.1818 0.75369 0.5827 0.0
H496 H 0.1682 0.83612 0.76412 0.0
H497 H 0.26804 0.82509 0.77944 0.0
H498 H 0.24939 0.82223 0.69673 0.0
H499 H 0.2364 0.7906 0.75492 0.0
C500 C 0.19056 0.82252 0.55797 0.0
C501 C 0.18716 0.79479 0.54053 0.0
C502 C 0.19399 0.83158 0.62873 0.0
C503 C 0.19366 0.81282 0.68266 0.0
C504 C 0.18748 0.78409 0.66564 0.0
H505 H 0.17592 0.80991 0.12798 0.0
H506 H 0.16946 0.81384 0.00081 0.0
C507 C 0.18475 0.7753 0.59494 0.0
C508 C 0.20188 0.8238 0.75601 0.0
H509 H 0.24703 0.8276 0.89067 0.0
C510 C 0.18569 0.83469 0.79181 0.0
C511 C 0.22555 0.82316 0.79091 0.0
C512 C 0.24605 0.81499 0.75317 0.0
C513 C 0.19132 0.84309 0.86342 0.0
C514 C 0.2129 0.83937 0.9004 0.0
C515 C 0.23022 0.8302 0.86299 0.0
C516 C 0.21632 0.842 0.97861 0.0
C517 C 0.17406 0.85581 0.89828 0.0
C518 C 0.24477 0.8563 0.00886 0.0
C519 C 0.24848 0.8528 0.08091 0.0
C520 C 0.22373 0.83586 0.12398 0.0
C521 C 0.19522 0.8234 0.09532 0.0
C522 C 0.19154 0.82598 0.02281 0.0
H523 H 0.16896 0.86869 0.85936 0.0
H524 H 0.15263 0.83744 0.91796 0.0
H525 H 0.18632 0.87044 0.94352 0.0
H526 H 0.26423 0.86877 0.97595 0.0
H527 H 0.27064 0.86255 0.10257 0.0
H528 H 0.35306 0.18519 0.49471 0.0
H529 H 0.33703 0.17266 0.37103 0.0
H530 H 0.42513 0.23556 0.29935 0.0
H531 H 0.44136 0.2483 0.42214 0.0
H532 H 0.37484 0.23447 0.22173 0.0
H533 H 0.36844 0.12492 0.25305 0.0
H534 H 0.34893 0.13533 0.31509 0.0
H535 H 0.38861 0.15462 0.31525 0.0
C536 C 0.36889 0.19671 0.45256 0.0
C537 C 0.39855 0.2176 0.46811 0.0
C538 C 0.35969 0.18944 0.38213 0.0
C539 C 0.38 0.20307 0.3266 0.0
C540 C 0.40918 0.22487 0.34183 0.0
H541 H 0.43758 0.1889 0.93655 0.0
H542 H 0.4217 0.18674 0.05937 0.0
C543 C 0.41843 0.23203 0.41197 0.0
C544 C 0.37204 0.19339 0.25249 0.0
H545 H 0.36803 0.1412 0.13709 0.0
C546 C 0.37244 0.21372 0.20303 0.0
C547 C 0.36907 0.16631 0.22897 0.0
C548 C 0.3688 0.14394 0.28049 0.0
C549 C 0.37202 0.20857 0.1299 0.0
C550 C 0.37109 0.1824 0.10634 0.0
C551 C 0.36858 0.16113 0.15583 0.0
C552 C 0.37824 0.17945 0.03221 0.0
C553 C 0.37498 0.23213 0.07835 0.0
C554 C 0.35865 0.17528 0.9767 0.0
C555 C 0.36764 0.17643 0.90622 0.0
C556 C 0.39639 0.18197 0.89069 0.0
C557 C 0.41538 0.18479 0.94677 0.0
C558 C 0.40631 0.18343 0.01692 0.0
H559 H 0.37722 0.25199 0.10576 0.0
H560 H 0.39463 0.23905 0.04369 0.0
H561 H 0.35517 0.22302 0.04364 0.0
H562 H 0.33685 0.17208 0.98786 0.0
H563 H 0.35256 0.17425 0.86403 0.0
H564 H 0.18461 0.49661 0.11096 0.0
H565 H 0.18951 0.54468 0.13753 0.0
H566 H 0.28459 0.58501 0.135 0.0
H567 H 0.28 0.53689 0.10875 0.0
H568 H 0.26048 0.60554 0.24605 0.0
H569 H 0.21778 0.60845 0.97793 0.0
H570 H 0.19439 0.57542 0.0278 0.0
H571 H 0.23072 0.58321 0.00119 0.0
C572 C 0.20659 0.51557 0.11727 0.0
C573 C 0.23192 0.51295 0.10697 0.0
C574 C 0.20933 0.54305 0.13201 0.0
C575 C 0.2374 0.56843 0.13641 0.0
C576 C 0.26274 0.56566 0.1311 0.0
H577 H 0.28102 0.75209 0.2145 0.0
H578 H 0.2861 0.70962 0.17957 0.0
C579 C 0.26004 0.5381 0.11648 0.0
C580 C 0.24005 0.59794 0.14317 0.0
H581 H 0.22144 0.64471 0.0604 0.0
C582 C 0.2523 0.61435 0.20525 0.0
C583 C 0.22956 0.60938 0.08939 0.0
C584 C 0.21762 0.59337 0.01998 0.0
C585 C 0.25298 0.64131 0.21655 0.0
C586 C 0.24153 0.65223 0.16374 0.0
C587 C 0.23017 0.63625 0.10072 0.0
C588 C 0.23895 0.67892 0.17552 0.0
C589 C 0.26472 0.65725 0.28615 0.0
C590 C 0.21079 0.67602 0.18093 0.0
C591 C 0.20779 0.70021 0.2003 0.0
C592 C 0.23294 0.72782 0.21434 0.0
C593 C 0.2612 0.73115 0.20407 0.0
C594 C 0.26416 0.70685 0.18485 0.0
H595 H 0.26761 0.64319 0.32614 0.0
H596 H 0.28658 0.67732 0.27703 0.0
H597 H 0.24959 0.66443 0.30841 0.0
H598 H 0.19106 0.65468 0.17329 0.0
H599 H 0.18572 0.69694 0.20731 0.0
H600 H 0.69196 0.19063 0.36336 0.0
H601 H 0.65086 0.19594 0.40679 0.0
H602 H 0.7092 0.26322 0.55349 0.0
H603 H 0.75102 0.25812 0.50972 0.0
H604 H 0.64846 0.21706 0.60655 0.0
H605 H 0.64744 0.27332 0.35682 0.0
H606 H 0.64849 0.2397 0.34393 0.0
H607 H 0.67924 0.27088 0.38548 0.0
C608 C 0.69612 0.20638 0.40545 0.0
C609 C 0.72484 0.22425 0.4325 0.0
C610 C 0.67259 0.20942 0.43 0.0
C611 C 0.67719 0.23041 0.48205 0.0
C612 C 0.70537 0.24709 0.51266 0.0
H613 H 0.53804 0.27497 0.56693 0.0
H614 H 0.58605 0.27953 0.5387 0.0
C615 C 0.72914 0.24404 0.48798 0.0
C616 C 0.6524 0.2352 0.5017 0.0
H617 H 0.60404 0.25417 0.42951 0.0
C618 C 0.63898 0.2256 0.56842 0.0
C619 C 0.64034 0.24668 0.45202 0.0
C620 C 0.65474 0.25851 0.38073 0.0
C621 C 0.61277 0.2257 0.58531 0.0
C622 C 0.59958 0.23527 0.53371 0.0
C623 C 0.61397 0.24646 0.46856 0.0
C624 C 0.57019 0.23253 0.54536 0.0
C625 C 0.59918 0.21517 0.65789 0.0
C626 C 0.54515 0.2045 0.55513 0.0
C627 C 0.51771 0.20177 0.57069 0.0
C628 C 0.51471 0.22705 0.5766 0.0
C629 C 0.53952 0.25503 0.56265 0.0
C630 C 0.56703 0.25772 0.54701 0.0
H631 H 0.61577 0.21655 0.69703 0.0
H632 H 0.58929 0.22837 0.67777 0.0
H633 H 0.58134 0.19169 0.65446 0.0
H634 H 0.54698 0.18472 0.55219 0.0
H635 H 0.49905 0.17987 0.58052 0.0
H636 H 0.32059 0.49559 0.88613 0.0
H637 H 0.36279 0.54277 0.84903 0.0
H638 H 0.3075 0.58259 0.84794 0.0
H639 H 0.26506 0.53544 0.88587 0.0
H640 H 0.37202 0.58078 0.73087 0.0
H641 H 0.37462 0.63369 0.98949 0.0
H642 H 0.35352 0.59412 0.9768 0.0
H643 H 0.34021 0.61735 0.94167 0.0
C644 C 0.31725 0.51424 0.87704 0.0
C645 C 0.2895 0.5118 0.88959 0.0
C646 C 0.3414 0.5412 0.85589 0.0
C647 C 0.33838 0.56628 0.84722 0.0
C648 C 0.31038 0.56359 0.85568 0.0
H649 H 0.47918 0.74837 0.76108 0.0
H650 H 0.43139 0.70507 0.79149 0.0
C651 C 0.2861 0.53654 0.87664 0.0
C652 C 0.36495 0.59533 0.83215 0.0
H653 H 0.41174 0.66266 0.90615 0.0
C654 C 0.38061 0.59876 0.76893 0.0
C655 C 0.37603 0.61875 0.88195 0.0
C656 C 0.36043 0.61591 0.95159 0.0
C657 C 0.40729 0.62486 0.75449 0.0
C658 C 0.41892 0.64787 0.80535 0.0
C659 C 0.40282 0.64486 0.86758 0.0
C660 C 0.44828 0.67471 0.79544 0.0
C661 C 0.42284 0.62759 0.68484 0.0
C662 C 0.47379 0.67218 0.79095 0.0
C663 C 0.50107 0.69679 0.77379 0.0
C664 C 0.50342 0.72449 0.7612 0.0
C665 C 0.47818 0.72739 0.77058 0.0
C666 C 0.45081 0.70265 0.78758 0.0
H667 H 0.40749 0.61191 0.64454 0.0
H668 H 0.43288 0.65044 0.66327 0.0
H669 H 0.44083 0.62241 0.69351 0.0
H670 H 0.47239 0.65091 0.79848 0.0
H671 H 0.5201 0.69384 0.76765 0.0
H672 H 0.74987 0.26139 0.15423 0.0
H673 H 0.74665 0.30412 0.10921 0.0
H674 H 0.83056 0.36345 0.20666 0.0
H675 H 0.8336 0.32114 0.25253 0.0
H676 H 0.75145 0.35099 0.21745 0.0
H677 H 0.83263 0.39498 -0.00481 0.0
H678 H 0.8138 0.35642 0.02133 0.0
H679 H 0.84391 0.38344 0.07368 0.0
C680 C 0.76799 0.28357 0.164 0.0
C681 C 0.79203 0.2881 0.20652 0.0
C682 C 0.76603 0.30787 0.13882 0.0
C683 C 0.78842 0.33684 0.15461 0.0
C684 C 0.81321 0.34127 0.19349 0.0
H685 H 0.83418 0.51801 0.10726 0.0
H686 H 0.83093 0.47058 0.13453 0.0
C687 C 0.81492 0.31712 0.21956 0.0
C688 C 0.78496 0.36262 0.13732 0.0
H689 H 0.8163 0.42672 0.04133 0.0
C690 C 0.76524 0.36742 0.17821 0.0
C691 C 0.8033 0.38401 0.08685 0.0
C692 C 0.82452 0.37953 0.04122 0.0
C693 C 0.76425 0.39378 0.17199 0.0
C694 C 0.78301 0.41552 0.12223 0.0
C695 C 0.80206 0.41017 0.07981 0.0
C696 C 0.78389 0.4443 0.11398 0.0
C697 C 0.74415 0.39862 0.22106 0.0
C698 C 0.75839 0.44542 0.09525 0.0
C699 C 0.7601 0.47258 0.08101 0.0
C700 C 0.78749 0.49907 0.08384 0.0
C701 C 0.81278 0.49798 0.10489 0.0
C702 C 0.81097 0.47088 0.12004 0.0
H703 H 0.73782 0.38399 0.26858 0.0
H704 H 0.75486 0.42197 0.2391 0.0
H705 H 0.72354 0.39342 0.19233 0.0
H706 H 0.73739 0.42522 0.08861 0.0
H707 H 0.74032 0.47263 0.0636 0.0
H708 H 0.31987 0.82891 0.44639 0.0
H709 H 0.36289 0.82374 0.4733 0.0
H710 H 0.30912 0.72886 0.45675 0.0
H711 H 0.26574 0.73373 0.42997 0.0
H712 H 0.35279 0.75129 0.57285 0.0
H713 H 0.40027 0.79924 0.30882 0.0
H714 H 0.38936 0.82108 0.36083 0.0
H715 H 0.36174 0.78505 0.33059 0.0
C716 C 0.31701 0.80688 0.44975 0.0
C717 C 0.28944 0.78176 0.43529 0.0
C718 C 0.34165 0.804 0.46475 0.0
C719 C 0.33923 0.77598 0.46532 0.0
C720 C 0.3114 0.75068 0.45593 0.0
H721 H 0.48088 0.73397 0.53865 0.0
H722 H 0.43311 0.72856 0.50447 0.0
C723 C 0.28663 0.75353 0.44101 0.0
C724 C 0.36618 0.7735 0.4718 0.0
H725 H 0.43243 0.79449 0.39081 0.0
C726 C 0.37009 0.76036 0.53281 0.0
C727 C 0.38851 0.78518 0.41899 0.0
C728 C 0.38476 0.7982 0.35075 0.0
C729 C 0.39654 0.75998 0.54412 0.0
C730 C 0.41931 0.77264 0.49239 0.0
C731 C 0.41492 0.78485 0.43031 0.0
C732 C 0.44872 0.77558 0.50444 0.0
C733 C 0.40045 0.74725 0.61269 0.0
C734 C 0.47358 0.80385 0.51202 0.0
C735 C 0.5009 0.80706 0.53098 0.0
C736 C 0.5039 0.78201 0.54245 0.0
C737 C 0.47935 0.75373 0.53028 0.0
C738 C 0.45196 0.75055 0.51147 0.0
H739 H 0.38306 0.74335 0.65233 0.0
H740 H 0.39922 0.72576 0.60171 0.0
H741 H 0.42247 0.76228 0.63631 0.0
H742 H 0.47156 0.82345 0.50618 0.0
H743 H 0.51939 0.82916 0.53948 0.0
H744 H 0.75425 0.47631 0.87201 0.0
H745 H 0.71143 0.42864 0.83991 0.0
H746 H 0.65704 0.46939 0.8302 0.0
H747 H 0.69962 0.51705 0.86139 0.0
H748 H 0.66051 0.40049 0.9241 0.0
H749 H 0.63267 0.41851 0.65156 0.0
H750 H 0.66839 0.44223 0.69132 0.0
H751 H 0.6374 0.44716 0.71186 0.0
C752 C 0.73339 0.47533 0.86089 0.0
C753 C 0.73031 0.50047 0.86929 0.0
C754 C 0.70892 0.44802 0.84305 0.0
C755 C 0.68113 0.44554 0.83232 0.0
C756 C 0.67838 0.4709 0.8371 0.0
H757 H 0.49846 0.31718 0.79257 0.0
H758 H 0.5469 0.36015 0.81691 0.0
C759 C 0.70274 0.49813 0.85521 0.0
C760 C 0.65435 0.41617 0.82307 0.0
H761 H 0.59402 0.37806 0.71681 0.0
C762 C 0.64615 0.39532 0.87831 0.0
C763 C 0.63572 0.40957 0.76331 0.0
C764 C 0.64411 0.43044 0.70082 0.0
C765 C 0.61904 0.36859 0.87686 0.0
C766 C 0.59993 0.36257 0.81836 0.0
C767 C 0.60863 0.38295 0.76203 0.0
C768 C 0.57035 0.33569 0.81481 0.0
C769 C 0.6105 0.34756 0.93903 0.0
C770 C 0.56741 0.30755 0.80802 0.0
C771 C 0.53966 0.28284 0.79452 0.0
C772 C 0.51453 0.28603 0.78683 0.0
C773 C 0.51738 0.314 0.79793 0.0
C774 C 0.54505 0.33859 0.81158 0.0
H775 H 0.62504 0.35801 0.98572 0.0
H776 H 0.58718 0.33952 0.95495 0.0
H777 H 0.61236 0.32804 0.92331 0.0
H778 H 0.58675 0.30493 0.80948 0.0
H779 H 0.53829 0.26167 0.78558 0.0
loop_
_geom_bond_atom_site_label_1
_geom_bond_atom_site_label_2
_geom_bond_distance
_geom_bond_site_symmetry_2
_ccdc_geom_bond_type
Fe0 O2 1.915 1_554 S
Fe0 O5 1.997 . S
Fe0 O6 2.002 . S
Fe0 O11 1.976 . S
Fe0 O14 1.996 1_554 S
Fe1 O2 1.918 1_554 S
Fe1 O9 1.997 . S
Fe1 O12 1.996 1_554 S
Fe1 O16 1.976 1_554 S
Fe1 O19 2.002 . S
O2 Fe0 1.915 1_556 S
O2 Fe1 1.918 1_556 S
O2 Fe3 1.921 . S
Fe3 O2 1.921 . S
Fe3 O4 2.002 1_556 S
Fe3 O13 1.976 . S
Fe3 O17 1.996 . S
Fe3 O20 1.997 . S
O4 Fe3 2.002 1_554 S
O4 C21 1.295 . S
O5 Fe0 1.997 . S
O5 C21 1.235 . S
O6 Fe0 2.002 . S
O6 C7 1.295 . S
C7 O6 1.295 . S
C7 O9 1.235 . S
C8 O13 1.287 . S
C8 O14 1.255 . S
O9 Fe1 1.997 . S
O9 C7 1.235 . S
C10 O16 1.287 . S
C10 O17 1.255 . S
O11 Fe0 1.976 . S
O11 C18 1.287 . S
O12 Fe1 1.996 1_556 S
O12 C18 1.255 1_556 S
O13 Fe3 1.976 . S
O13 C8 1.287 . S
O14 Fe0 1.996 1_556 S
O14 C8 1.255 . S
C15 O19 1.295 . S
C15 O20 1.235 1_554 S
O16 Fe1 1.976 1_556 S
O16 C10 1.287 . S
O17 Fe3 1.996 . S
O17 C10 1.255 . S
C18 O11 1.287 . S
C18 O12 1.255 1_554 S
O19 Fe1 2.002 . S
O19 C15 1.295 . S
O20 Fe3 1.997 . S
O20 C15 1.235 1_556 S
C21 O4 1.295 . S
C21 O5 1.235 . S
Fe22 O24 1.918 . S
Fe22 O27 1.997 . S
Fe22 O28 2.002 . S
Fe22 O33 1.976 . S
Fe22 O36 1.996 . S
Fe23 O24 1.918 . S
Fe23 O31 1.997 . S
Fe23 O34 1.996 . S
Fe23 O38 1.976 . S
Fe23 O41 2.002 . S
O24 Fe22 1.918 . S
O24 Fe23 1.918 . S
O24 Fe25 1.918 . S
Fe25 O24 1.918 . S
Fe25 O26 2.002 . S
Fe25 O35 1.976 . S
Fe25 O39 1.996 . S
Fe25 O42 1.997 . S
O26 Fe25 2.002 . S
O26 C43 1.295 . S
O27 Fe22 1.997 . S
O27 C43 1.235 . S
O28 Fe22 2.002 . S
O28 C29 1.295 . S
C29 O28 1.295 . S
C29 O31 1.235 . S
C30 O35 1.287 . S
C30 O36 1.255 . S
O31 Fe23 1.997 . S
O31 C29 1.235 . S
C32 O38 1.287 . S
C32 O39 1.255 . S
O33 Fe22 1.976 . S
O33 C40 1.287 . S
O34 Fe23 1.996 . S
O34 C40 1.255 . S
O35 Fe25 1.976 . S
O35 C30 1.287 . S
O36 Fe22 1.996 . S
O36 C30 1.255 . S
C37 O41 1.295 . S
C37 O42 1.235 . S
O38 Fe23 1.976 . S
O38 C32 1.287 . S
O39 Fe25 1.996 . S
O39 C32 1.255 . S
C40 O33 1.287 . S
C40 O34 1.255 . S
O41 Fe23 2.002 . S
O41 C37 1.295 . S
O42 Fe25 1.997 . S
O42 C37 1.235 . S
C43 O26 1.295 . S
C43 O27 1.235 . S
Fe44 O46 1.918 . S
Fe44 O49 1.997 . S
Fe44 O50 2.002 . S
Fe44 O55 1.976 . S
Fe44 O58 1.996 . S
Fe45 O46 1.918 . S
Fe45 O53 1.997 . S
Fe45 O56 1.996 . S
Fe45 O60 1.976 . S
Fe45 O63 2.002 . S
O46 Fe44 1.918 . S
O46 Fe45 1.918 . S
O46 Fe47 1.918 . S
Fe47 O46 1.918 . S
Fe47 O48 2.002 . S
Fe47 O57 1.976 . S
Fe47 O61 1.996 . S
Fe47 O64 1.997 . S
O48 Fe47 2.002 . S
O48 C65 1.295 . S
O49 Fe44 1.997 . S
O49 C65 1.235 . S
O50 Fe44 2.002 . S
O50 C51 1.295 . S
C51 O50 1.295 . S
C51 O53 1.235 . S
C52 O57 1.287 . S
C52 O58 1.255 . S
O53 Fe45 1.997 . S
O53 C51 1.235 . S
C54 O60 1.287 . S
C54 O61 1.255 . S
O55 Fe44 1.976 . S
O55 C62 1.287 . S
O56 Fe45 1.996 . S
O56 C62 1.255 . S
O57 Fe47 1.976 . S
O57 C52 1.287 . S
O58 Fe44 1.996 . S
O58 C52 1.255 . S
C59 O63 1.295 . S
C59 O64 1.235 . S
O60 Fe45 1.976 . S
O60 C54 1.287 . S
O61 Fe47 1.996 . S
O61 C54 1.255 . S
C62 O55 1.287 . S
C62 O56 1.255 . S
O63 Fe45 2.002 . S
O63 C59 1.295 . S
O64 Fe47 1.997 . S
O64 C59 1.235 . S
C65 O48 1.295 . S
C65 O49 1.235 . S
Fe66 O68 1.921 . S
Fe66 O71 1.997 . S
Fe66 O72 2.002 1_556 S
Fe66 O77 1.976 . S
Fe66 O80 1.996 . S
Fe67 O68 1.915 1_554 S
Fe67 O75 1.997 . S
Fe67 O78 1.996 1_554 S
Fe67 O82 1.976 . S
Fe67 O85 2.002 . S
O68 Fe66 1.921 . S
O68 Fe67 1.915 1_556 S
O68 Fe69 1.918 1_556 S
Fe69 O68 1.918 1_554 S
Fe69 O70 2.002 . S
Fe69 O79 1.976 1_554 S
Fe69 O83 1.996 1_554 S
Fe69 O86 1.997 . S
O70 Fe69 2.002 . S
O70 C87 1.295 . S
O71 Fe66 1.997 . S
O71 C87 1.235 1_556 S
O72 Fe66 2.002 1_554 S
O72 C73 1.295 . S
C73 O72 1.295 . S
C73 O75 1.235 . S
C74 O79 1.287 . S
C74 O80 1.255 . S
O75 Fe67 1.997 . S
O75 C73 1.235 . S
C76 O82 1.287 . S
C76 O83 1.255 1_554 S
O77 Fe66 1.976 . S
O77 C84 1.287 . S
O78 Fe67 1.996 1_556 S
O78 C84 1.255 . S
O79 Fe69 1.976 1_556 S
O79 C74 1.287 . S
O80 Fe66 1.996 . S
O80 C74 1.255 . S
C81 O85 1.295 . S
C81 O86 1.235 . S
O82 Fe67 1.976 . S
O82 C76 1.287 . S
O83 Fe69 1.996 1_556 S
O83 C76 1.255 1_556 S
C84 O77 1.287 . S
C84 O78 1.255 . S
O85 Fe67 2.002 . S
O85 C81 1.295 . S
O86 Fe69 1.997 . S
O86 C81 1.235 . S
C87 O70 1.295 . S
C87 O71 1.235 1_554 S
Fe88 O90 1.918 . S
Fe88 O93 1.997 . S
Fe88 O94 2.002 . S
Fe88 O99 1.976 . S
Fe88 O102 1.996 . S
Fe89 O90 1.918 . S
Fe89 O97 1.997 . S
Fe89 O100 1.996 . S
Fe89 O104 1.976 . S
Fe89 O107 2.002 . S
O90 Fe88 1.918 . S
O90 Fe89 1.918 . S
O90 Fe91 1.918 . S
Fe91 O90 1.918 . S
Fe91 O92 2.002 . S
Fe91 O101 1.976 . S
Fe91 O105 1.996 . S
Fe91 O108 1.997 . S
O92 Fe91 2.002 . S
O92 C109 1.295 . S
O93 Fe88 1.997 . S
O93 C109 1.235 . S
O94 Fe88 2.002 . S
O94 C95 1.295 . S
C95 O94 1.295 . S
C95 O97 1.235 . S
C96 O101 1.287 . S
C96 O102 1.255 . S
O97 Fe89 1.997 . S
O97 C95 1.235 . S
C98 O104 1.287 . S
C98 O105 1.255 . S
O99 Fe88 1.976 . S
O99 C106 1.287 . S
O100 Fe89 1.996 . S
O100 C106 1.255 . S
O101 Fe91 1.976 . S
O101 C96 1.287 . S
O102 Fe88 1.996 . S
O102 C96 1.255 . S
C103 O107 1.295 . S
C103 O108 1.235 . S
O104 Fe89 1.976 . S
O104 C98 1.287 . S
O105 Fe91 1.996 . S
O105 C98 1.255 . S
C106 O99 1.287 . S
C106 O100 1.255 . S
O107 Fe89 2.002 . S
O107 C103 1.295 . S
O108 Fe91 1.997 . S
O108 C103 1.235 . S
C109 O92 1.295 . S
C109 O93 1.235 . S
Fe110 O112 1.918 . S
Fe110 O115 1.997 . S
Fe110 O116 2.002 . S
Fe110 O121 1.976 . S
Fe110 O124 1.996 . S
Fe111 O112 1.918 . S
Fe111 O119 1.997 . S
Fe111 O122 1.996 . S
Fe111 O126 1.976 . S
Fe111 O129 2.002 . S
O112 Fe110 1.918 . S
O112 Fe111 1.918 . S
O112 Fe113 1.918 . S
Fe113 O112 1.918 . S
Fe113 O114 2.002 . S
Fe113 O123 1.976 . S
Fe113 O127 1.996 . S
Fe113 O130 1.997 . S
O114 Fe113 2.002 . S
O114 C131 1.295 . S
O115 Fe110 1.997 . S
O115 C131 1.235 . S
O116 Fe110 2.002 . S
O116 C117 1.295 . S
C117 O116 1.295 . S
C117 O119 1.235 . S
C118 O123 1.287 . S
C118 O124 1.255 . S
O119 Fe111 1.997 . S
O119 C117 1.235 . S
C120 O126 1.287 . S
C120 O127 1.255 . S
O121 Fe110 1.976 . S
O121 C128 1.287 . S
O122 Fe111 1.996 . S
O122 C128 1.255 . S
O123 Fe113 1.976 . S
O123 C118 1.287 . S
O124 Fe110 1.996 . S
O124 C118 1.255 . S
C125 O129 1.295 . S
C125 O130 1.235 . S
O126 Fe111 1.976 . S
O126 C120 1.287 . S
O127 Fe113 1.996 . S
O127 C120 1.255 . S
C128 O121 1.287 . S
C128 O122 1.255 . S
O129 Fe111 2.002 . S
O129 C125 1.295 . S
O130 Fe113 1.997 . S
O130 C125 1.235 . S
C131 O114 1.295 . S
C131 O115 1.235 . S
H132 C140 0.929 . S
H133 C142 0.930 . S
H134 C144 0.930 . S
H135 C147 0.929 . S
H136 C150 0.930 . S
H137 C152 0.960 . S
H138 C152 0.960 . S
H139 C152 0.960 . S
C140 H132 0.929 . S
C140 C141 1.377 . S
C140 C142 1.384 . S
C141 C140 1.377 . S
C141 C147 1.390 . S
C142 H133 0.930 . S
C142 C140 1.384 . S
C142 C143 1.372 . S
C143 C142 1.372 . S
C143 C144 1.400 . S
C143 C148 1.490 . S
C144 H134 0.930 . S
C144 C143 1.400 . S
C144 C147 1.386 . S
H145 C161 0.930 . S
H146 C162 0.931 . S
C147 H135 0.929 . S
C147 C141 1.390 . S
C147 C144 1.386 . S
C148 C143 1.490 . S
C148 C150 1.395 . S
C148 C151 1.403 . S
H149 C155 0.930 . S
C150 H136 0.930 . S
C150 C148 1.395 . S
C150 C153 1.403 . S
C151 C148 1.403 . S
C151 C152 1.524 . S
C151 C155 1.400 . S
C152 H137 0.960 . S
C152 H138 0.960 . S
C152 H139 0.960 . S
C152 C151 1.524 . S
C153 C150 1.403 . S
C153 C154 1.392 . S
C153 C157 1.495 1_556 S
C154 C153 1.392 . S
C154 C155 1.385 . S
C154 C156 1.478 . S
C155 H149 0.930 . S
C155 C151 1.400 . S
C155 C154 1.385 . S
C156 C154 1.478 . S
C156 C158 1.381 . S
C156 C162 1.383 . S
C157 C153 1.495 1_554 S
C157 H163 0.959 . S
C157 H164 0.961 . S
C157 H165 0.960 . S
C158 C156 1.381 . S
C158 C159 1.394 . S
C158 H166 0.930 . S
C159 C158 1.394 . S
C159 C160 1.383 . S
C159 H167 0.929 1_556 S
C160 C159 1.383 . S
C160 C161 1.377 . S
C161 H145 0.930 . S
C161 C160 1.377 . S
C161 C162 1.379 . S
C162 H146 0.931 . S
C162 C156 1.383 . S
C162 C161 1.379 . S
H163 C157 0.959 . S
H164 C157 0.961 . S
H165 C157 0.960 . S
H166 C158 0.930 . S
H167 C159 0.929 1_554 S
H168 C176 0.929 . S
H169 C178 0.930 1_556 S
H170 C180 0.930 . S
H171 C183 0.929 . S
H172 C186 0.930 . S
H173 C188 0.960 . S
H174 C188 0.960 . S
H175 C188 0.960 . S
C176 H168 0.929 . S
C176 C177 1.377 1_556 S
C176 C178 1.384 1_556 S
C177 C176 1.377 1_554 S
C177 C183 1.390 . S
C178 H169 0.930 1_554 S
C178 C176 1.384 1_554 S
C178 C179 1.372 . S
C179 C178 1.372 . S
C179 C180 1.400 . S
C179 C184 1.490 . S
C180 H170 0.930 . S
C180 C179 1.400 . S
C180 C183 1.386 . S
H181 C197 0.930 . S
H182 C198 0.931 . S
C183 H171 0.929 . S
C183 C177 1.390 . S
C183 C180 1.386 . S
C184 C179 1.490 . S
C184 C186 1.395 . S
C184 C187 1.403 . S
H185 C191 0.930 . S
C186 H172 0.930 . S
C186 C184 1.395 . S
C186 C189 1.403 1_455 S
C187 C184 1.403 . S
C187 C188 1.524 . S
C187 C191 1.400 1_455 S
C188 H173 0.960 . S
C188 H174 0.960 . S
C188 H175 0.960 . S
C188 C187 1.524 . S
C189 C186 1.403 1_655 S
C189 C190 1.392 . S
C189 C193 1.495 . S
C190 C189 1.392 . S
C190 C191 1.385 . S
C190 C192 1.478 . S
C191 H185 0.930 . S
C191 C187 1.400 1_655 S
C191 C190 1.385 . S
C192 C190 1.478 . S
C192 C194 1.381 . S
C192 C198 1.383 . S
C193 C189 1.495 . S
C193 H199 0.959 . S
C193 H200 0.961 . S
C193 H201 0.960 . S
C194 C192 1.381 . S
C194 C195 1.394 . S
C194 H202 0.930 . S
C195 C194 1.394 . S
C195 C196 1.383 . S
C195 H203 0.929 . S
C196 C195 1.383 . S
C196 C197 1.377 . S
C197 H181 0.930 . S
C197 C196 1.377 . S
C197 C198 1.379 . S
C198 H182 0.931 . S
C198 C192 1.383 . S
C198 C197 1.379 . S
H199 C193 0.959 . S
H200 C193 0.961 . S
H201 C193 0.960 . S
H202 C194 0.930 . S
H203 C195 0.929 . S
H204 C212 0.929 . S
H205 C214 0.930 . S
H206 C216 0.930 . S
H207 C219 0.929 . S
H208 C222 0.930 . S
H209 C224 0.960 . S
H210 C224 0.960 . S
H211 C224 0.960 . S
C212 H204 0.929 . S
C212 C213 1.377 . S
C212 C214 1.384 . S
C213 C212 1.377 . S
C213 C219 1.390 . S
C214 H205 0.930 . S
C214 C212 1.384 . S
C214 C215 1.372 . S
C215 C214 1.372 . S
C215 C216 1.400 . S
C215 C220 1.490 . S
C216 H206 0.930 . S
C216 C215 1.400 . S
C216 C219 1.386 . S
H217 C233 0.930 . S
H218 C234 0.931 . S
C219 H207 0.929 . S
C219 C213 1.390 . S
C219 C216 1.386 . S
C220 C215 1.490 . S
C220 C222 1.395 . S
C220 C223 1.403 . S
H221 C227 0.930 . S
C222 H208 0.930 . S
C222 C220 1.395 . S
C222 C225 1.403 1_545 S
C223 C220 1.403 . S
C223 C224 1.524 . S
C223 C227 1.400 1_545 S
C224 H209 0.960 . S
C224 H210 0.960 . S
C224 H211 0.960 . S
C224 C223 1.524 . S
C225 C222 1.403 1_565 S
C225 C226 1.392 . S
C225 C229 1.495 . S
C226 C225 1.392 . S
C226 C227 1.385 . S
C226 C228 1.478 . S
C227 H221 0.930 . S
C227 C223 1.400 1_565 S
C227 C226 1.385 . S
C228 C226 1.478 . S
C228 C230 1.381 . S
C228 C234 1.383 . S
C229 C225 1.495 . S
C229 H235 0.959 . S
C229 H236 0.961 . S
C229 H237 0.960 . S
C230 C228 1.381 . S
C230 C231 1.394 . S
C230 H238 0.930 . S
C231 C230 1.394 . S
C231 C232 1.383 . S
C231 H239 0.929 . S
C232 C231 1.383 . S
C232 C233 1.377 . S
C233 H217 0.930 . S
C233 C232 1.377 . S
C233 C234 1.379 . S
C234 H218 0.931 . S
C234 C228 1.383 . S
C234 C233 1.379 . S
H235 C229 0.959 . S
H236 C229 0.961 . S
H237 C229 0.960 . S
H238 C230 0.930 . S
H239 C231 0.929 . S
H240 C248 0.929 . S
H241 C250 0.930 . S
H242 C252 0.930 . S
H243 C255 0.929 . S
H244 C258 0.930 . S
H245 C260 0.960 . S
H246 C260 0.960 . S
H247 C260 0.960 . S
C248 H240 0.929 . S
C248 C249 1.377 . S
C248 C250 1.384 . S
C249 C248 1.377 . S
C249 C255 1.390 . S
C250 H241 0.930 . S
C250 C248 1.384 . S
C250 C251 1.372 . S
C251 C250 1.372 . S
C251 C252 1.400 . S
C251 C256 1.490 . S
C252 H242 0.930 . S
C252 C251 1.400 . S
C252 C255 1.386 . S
H253 C269 0.930 . S
H254 C270 0.931 1_554 S
C255 H243 0.929 . S
C255 C249 1.390 . S
C255 C252 1.386 . S
C256 C251 1.490 . S
C256 C258 1.395 . S
C256 C259 1.403 . S
H257 C263 0.930 . S
C258 H244 0.930 . S
C258 C256 1.395 . S
C258 C261 1.403 . S
C259 C256 1.403 . S
C259 C260 1.524 . S
C259 C263 1.400 . S
C260 H245 0.960 . S
C260 H246 0.960 . S
C260 H247 0.960 . S
C260 C259 1.524 . S
C261 C258 1.403 . S
C261 C262 1.392 . S
C261 C265 1.495 . S
C262 C261 1.392 . S
C262 C263 1.385 . S
C262 C264 1.478 . S
C263 H257 0.930 . S
C263 C259 1.400 . S
C263 C262 1.385 . S
C264 C262 1.478 . S
C264 C266 1.381 . S
C264 C270 1.383 . S
C265 C261 1.495 . S
C265 H271 0.959 . S
C265 H272 0.961 . S
C265 H273 0.960 . S
C266 C264 1.381 . S
C266 C267 1.394 . S
C266 H274 0.930 . S
C267 C266 1.394 . S
C267 C268 1.383 . S
C267 H275 0.929 . S
C268 C267 1.383 . S
C268 C269 1.377 1_556 S
C269 H253 0.930 . S
C269 C268 1.377 1_554 S
C269 C270 1.379 1_554 S
C270 H254 0.931 1_556 S
C270 C264 1.383 . S
C270 C269 1.379 1_556 S
H271 C265 0.959 . S
H272 C265 0.961 . S
H273 C265 0.960 . S
H274 C266 0.930 . S
H275 C267 0.929 . S
H276 C284 0.929 . S
H277 C286 0.930 . S
H278 C288 0.930 . S
H279 C291 0.929 . S
H280 C294 0.930 . S
H281 C296 0.960 . S
H282 C296 0.960 . S
H283 C296 0.960 . S
C284 H276 0.929 . S
C284 C285 1.377 . S
C284 C286 1.384 . S
C285 C284 1.377 . S
C285 C291 1.390 . S
C286 H277 0.930 . S
C286 C284 1.384 . S
C286 C287 1.372 . S
C287 C286 1.372 . S
C287 C288 1.400 . S
C287 C292 1.490 . S
C288 H278 0.930 . S
C288 C287 1.400 . S
C288 C291 1.386 . S
H289 C305 0.930 . S
H290 C306 0.931 . S
C291 H279 0.929 . S
C291 C285 1.390 . S
C291 C288 1.386 . S
C292 C287 1.490 . S
C292 C294 1.395 . S
C292 C295 1.403 . S
H293 C299 0.930 . S
C294 H280 0.930 . S
C294 C292 1.395 . S
C294 C297 1.403 1_455 S
C295 C292 1.403 . S
C295 C296 1.524 . S
C295 C299 1.400 1_455 S
C296 H281 0.960 . S
C296 H282 0.960 . S
C296 H283 0.960 . S
C296 C295 1.524 . S
C297 C294 1.403 1_655 S
C297 C298 1.392 . S
C297 C301 1.495 . S
C298 C297 1.392 . S
C298 C299 1.385 . S
C298 C300 1.478 . S
C299 H293 0.930 . S
C299 C295 1.400 1_655 S
C299 C298 1.385 . S
C300 C298 1.478 . S
C300 C302 1.381 . S
C300 C306 1.383 . S
C301 C297 1.495 . S
C301 H307 0.959 . S
C301 H308 0.961 . S
C301 H309 0.960 . S
C302 C300 1.381 . S
C302 C303 1.394 . S
C302 H310 0.930 . S
C303 C302 1.394 . S
C303 C304 1.383 . S
C303 H311 0.929 1_554 S
C304 C303 1.383 . S
C304 C305 1.377 . S
C305 H289 0.930 . S
C305 C304 1.377 . S
C305 C306 1.379 . S
C306 H290 0.931 . S
C306 C300 1.383 . S
C306 C305 1.379 . S
H307 C301 0.959 . S
H308 C301 0.961 . S
H309 C301 0.960 . S
H310 C302 0.930 . S
H311 C303 0.929 1_556 S
H312 C320 0.929 . S
H313 C322 0.930 . S
H314 C324 0.930 . S
H315 C327 0.929 . S
H316 C330 0.932 1_545 S
H317 C332 0.960 . S
H318 C332 0.960 . S
H319 C332 0.960 . S
C320 H312 0.929 . S
C320 C321 1.377 . S
C320 C322 1.384 . S
C321 C320 1.377 . S
C321 C327 1.390 . S
C322 H313 0.930 . S
C322 C320 1.384 . S
C322 C323 1.372 . S
C323 C322 1.372 . S
C323 C324 1.400 . S
C323 C328 1.490 . S
C324 H314 0.930 . S
C324 C323 1.400 . S
C324 C327 1.386 . S
H325 C341 0.930 . S
H326 C342 0.931 . S
C327 H315 0.929 . S
C327 C321 1.390 . S
C327 C324 1.386 . S
C328 C323 1.490 . S
C328 C330 1.372 1_545 S
C328 C331 1.403 . S
H329 C335 0.930 . S
C330 H316 0.932 1_565 S
C330 C328 1.372 1_565 S
C330 C333 1.425 . S
C331 C328 1.403 . S
C331 C332 1.524 . S
C331 C335 1.400 1_545 S
C332 H317 0.960 . S
C332 H318 0.960 . S
C332 H319 0.960 . S
C332 C331 1.524 . S
C333 C330 1.425 . S
C333 C334 1.392 . S
C333 C337 1.495 . S
C334 C333 1.392 . S
C334 C335 1.385 . S
C334 C336 1.478 . S
C335 H329 0.930 . S
C335 C331 1.400 1_565 S
C335 C334 1.385 . S
C336 C334 1.478 . S
C336 C338 1.381 . S
C336 C342 1.383 . S
C337 C333 1.495 . S
C337 H343 0.959 . S
C337 H344 0.961 . S
C337 H345 0.960 . S
C338 C336 1.381 . S
C338 C339 1.394 . S
C338 H346 0.930 . S
C339 C338 1.394 . S
C339 C340 1.383 . S
C339 H347 0.929 . S
C340 C339 1.383 . S
C340 C341 1.377 . S
C341 H325 0.930 . S
C341 C340 1.377 . S
C341 C342 1.379 . S
C342 H326 0.931 . S
C342 C336 1.383 . S
C342 C341 1.379 . S
H343 C337 0.959 . S
H344 C337 0.961 . S
H345 C337 0.960 . S
H346 C338 0.930 . S
H347 C339 0.929 . S
H348 C356 0.929 . S
H349 C358 0.930 . S
H350 C360 0.930 . S
H351 C363 0.929 . S
H352 C366 0.930 . S
H353 C368 0.960 . S
H354 C368 0.960 . S
H355 C368 0.960 . S
C356 H348 0.929 . S
C356 C357 1.377 . S
C356 C358 1.384 . S
C357 C356 1.377 . S
C357 C363 1.390 . S
C358 H349 0.930 . S
C358 C356 1.384 . S
C358 C359 1.372 . S
C359 C358 1.372 . S
C359 C360 1.400 . S
C359 C364 1.490 . S
C360 H350 0.930 . S
C360 C359 1.400 . S
C360 C363 1.386 . S
H361 C377 0.930 . S
H362 C378 0.931 . S
C363 H351 0.929 . S
C363 C357 1.390 . S
C363 C360 1.386 . S
C364 C359 1.490 . S
C364 C366 1.395 . S
C364 C367 1.403 . S
H365 C371 0.930 . S
C366 H352 0.930 . S
C366 C364 1.395 . S
C366 C369 1.403 . S
C367 C364 1.403 . S
C367 C368 1.524 . S
C367 C371 1.400 . S
C368 H353 0.960 . S
C368 H354 0.960 . S
C368 H355 0.960 . S
C368 C367 1.524 . S
C369 C366 1.403 . S
C369 C370 1.392 . S
C369 C373 1.495 . S
C370 C369 1.392 . S
C370 C371 1.385 . S
C370 C372 1.478 . S
C371 H365 0.930 . S
C371 C367 1.400 . S
C371 C370 1.385 . S
C372 C370 1.478 . S
C372 C374 1.381 . S
C372 C378 1.383 . S
C373 C369 1.495 . S
C373 H379 0.959 . S
C373 H380 0.961 . S
C373 H381 0.960 . S
C374 C372 1.381 . S
C374 C375 1.394 . S
C374 H382 0.930 . S
C375 C374 1.394 . S
C375 C376 1.383 . S
C375 H383 0.929 . S
C376 C375 1.383 . S
C376 C377 1.377 . S
C377 H361 0.930 . S
C377 C376 1.377 . S
C377 C378 1.379 . S
C378 H362 0.931 . S
C378 C372 1.383 . S
C378 C377 1.379 . S
H379 C373 0.959 . S
H380 C373 0.961 . S
H381 C373 0.960 . S
H382 C374 0.930 . S
H383 C375 0.929 . S
H384 C392 0.929 . S
H385 C394 0.930 . S
H386 C396 0.934 . S
H387 C399 0.929 . S
H388 C402 0.930 . S
H389 C404 0.960 . S
H390 C404 0.960 . S
H391 C404 0.960 . S
C392 H384 0.929 . S
C392 C393 1.377 . S
C392 C394 1.384 . S
C393 C392 1.377 . S
C393 C399 1.390 . S
C394 H385 0.930 . S
C394 C392 1.384 . S
C394 C395 1.372 1_554 S
C395 C394 1.372 1_556 S
C395 C396 1.400 1_556 S
C395 C400 1.490 . S
C396 H386 0.934 . S
C396 C395 1.400 1_554 S
C396 C399 1.386 . S
H397 C413 0.930 . S
H398 C414 0.931 . S
C399 H387 0.929 . S
C399 C393 1.390 . S
C399 C396 1.386 . S
C400 C395 1.490 . S
C400 C402 1.395 . S
C400 C403 1.403 . S
H401 C407 0.930 . S
C402 H388 0.930 . S
C402 C400 1.395 . S
C402 C405 1.403 . S
C403 C400 1.403 . S
C403 C404 1.524 . S
C403 C407 1.400 . S
C404 H389 0.960 . S
C404 H390 0.960 . S
C404 H391 0.960 . S
C404 C403 1.524 . S
C405 C402 1.403 . S
C405 C406 1.392 . S
C405 C409 1.495 . S
C406 C405 1.392 . S
C406 C407 1.385 . S
C406 C408 1.478 . S
C407 H401 0.930 . S
C407 C403 1.400 . S
C407 C406 1.385 . S
C408 C406 1.478 . S
C408 C410 1.381 . S
C408 C414 1.383 . S
C409 C405 1.495 . S
C409 H415 0.959 . S
C409 H416 0.961 . S
C409 H417 0.960 . S
C410 C408 1.381 . S
C410 C411 1.394 . S
C410 H418 0.930 . S
C411 C410 1.394 . S
C411 C412 1.383 . S
C411 H419 0.929 . S
C412 C411 1.383 . S
C412 C413 1.377 . S
C413 H397 0.930 . S
C413 C412 1.377 . S
C413 C414 1.379 . S
C414 H398 0.931 . S
C414 C408 1.383 . S
C414 C413 1.379 . S
H415 C409 0.959 . S
H416 C409 0.961 . S
H417 C409 0.960 . S
H418 C410 0.930 . S
H419 C411 0.929 . S
H420 C428 0.929 . S
H421 C430 0.930 . S
H422 C432 0.930 . S
H423 C435 0.929 . S
H424 C438 0.930 . S
H425 C440 0.960 . S
H426 C440 0.960 . S
H427 C440 0.960 . S
C428 H420 0.929 . S
C428 C429 1.377 . S
C428 C430 1.384 . S
C429 C428 1.377 . S
C429 C435 1.390 . S
C430 H421 0.930 . S
C430 C428 1.384 . S
C430 C431 1.372 . S
C431 C430 1.372 . S
C431 C432 1.400 . S
C431 C436 1.490 . S
C432 H422 0.930 . S
C432 C431 1.400 . S
C432 C435 1.386 . S
H433 C449 0.930 . S
H434 C450 0.931 . S
C435 H423 0.929 . S
C435 C429 1.390 . S
C435 C432 1.386 . S
C436 C431 1.490 . S
C436 C438 1.395 . S
C436 C439 1.403 . S
H437 C443 0.930 . S
C438 H424 0.930 . S
C438 C436 1.395 . S
C438 C441 1.403 . S
C439 C436 1.403 . S
C439 C440 1.524 . S
C439 C443 1.400 . S
C440 H425 0.960 . S
C440 H426 0.960 . S
C440 H427 0.960 . S
C440 C439 1.524 . S
C441 C438 1.403 . S
C441 C442 1.392 . S
C441 C445 1.495 . S
C442 C441 1.392 . S
C442 C443 1.385 . S
C442 C444 1.478 . S
C443 H437 0.930 . S
C443 C439 1.400 . S
C443 C442 1.385 . S
C444 C442 1.478 . S
C444 C446 1.381 1_554 S
C444 C450 1.383 1_554 S
C445 C441 1.495 . S
C445 H451 0.959 . S
C445 H452 0.961 . S
C445 H453 0.960 . S
C446 C444 1.381 1_556 S
C446 C447 1.394 . S
C446 H454 0.930 1_556 S
C447 C446 1.394 . S
C447 C448 1.383 . S
C447 H455 0.929 . S
C448 C447 1.383 . S
C448 C449 1.377 . S
C449 H433 0.930 . S
C449 C448 1.377 . S
C449 C450 1.379 . S
C450 H434 0.931 . S
C450 C444 1.383 1_556 S
C450 C449 1.379 . S
H451 C445 0.959 . S
H452 C445 0.961 . S
H453 C445 0.960 . S
H454 C446 0.930 1_554 S
H455 C447 0.929 . S
H456 C464 0.929 . S
H457 C466 0.930 . S
H458 C468 0.930 . S
H459 C471 0.929 . S
H460 C474 0.930 . S
H461 C476 0.960 . S
H462 C476 0.960 . S
H463 C476 0.960 . S
C464 H456 0.929 . S
C464 C465 1.377 . S
C464 C466 1.384 . S
C465 C464 1.377 . S
C465 C471 1.390 . S
C466 H457 0.930 . S
C466 C464 1.384 . S
C466 C467 1.372 . S
C467 C466 1.372 . S
C467 C468 1.400 . S
C467 C472 1.490 . S
C468 H458 0.930 . S
C468 C467 1.400 . S
C468 C471 1.386 . S
H469 C485 0.930 . S
H470 C486 0.931 . S
C471 H459 0.929 . S
C471 C465 1.390 . S
C471 C468 1.386 . S
C472 C467 1.490 . S
C472 C474 1.395 . S
C472 C475 1.403 . S
H473 C479 0.930 . S
C474 H460 0.930 . S
C474 C472 1.395 . S
C474 C477 1.403 . S
C475 C472 1.403 . S
C475 C476 1.524 . S
C475 C479 1.400 . S
C476 H461 0.960 . S
C476 H462 0.960 . S
C476 H463 0.960 . S
C476 C475 1.524 . S
C477 C474 1.403 . S
C477 C478 1.392 . S
C477 C481 1.495 . S
C478 C477 1.392 . S
C478 C479 1.385 . S
C478 C480 1.478 . S
C479 H473 0.930 . S
C479 C475 1.400 . S
C479 C478 1.385 . S
C480 C478 1.478 . S
C480 C482 1.381 . S
C480 C486 1.383 . S
C481 C477 1.495 . S
C481 H487 0.959 . S
C481 H488 0.961 . S
C481 H489 0.960 . S
C482 C480 1.381 . S
C482 C483 1.394 . S
C482 H490 0.930 . S
C483 C482 1.394 . S
C483 C484 1.383 . S
C483 H491 0.929 . S
C484 C483 1.383 . S
C484 C485 1.377 . S
C485 H469 0.930 . S
C485 C484 1.377 . S
C485 C486 1.379 . S
C486 H470 0.931 . S
C486 C480 1.383 . S
C486 C485 1.379 . S
H487 C481 0.959 . S
H488 C481 0.961 . S
H489 C481 0.960 . S
H490 C482 0.930 . S
H491 C483 0.929 . S
H492 C500 0.929 . S
H493 C502 0.930 . S
H494 C504 0.930 . S
H495 C507 0.929 . S
H496 C510 0.930 . S
H497 C512 0.960 . S
H498 C512 0.960 . S
H499 C512 0.960 . S
C500 H492 0.929 . S
C500 C501 1.377 . S
C500 C502 1.384 . S
C501 C500 1.377 . S
C501 C507 1.390 . S
C502 H493 0.930 . S
C502 C500 1.384 . S
C502 C503 1.372 . S
C503 C502 1.372 . S
C503 C504 1.400 . S
C503 C508 1.490 . S
C504 H494 0.930 . S
C504 C503 1.400 . S
C504 C507 1.386 . S
H505 C521 0.930 . S
H506 C522 0.931 . S
C507 H495 0.929 . S
C507 C501 1.390 . S
C507 C504 1.386 . S
C508 C503 1.490 . S
C508 C510 1.395 . S
C508 C511 1.403 . S
H509 C515 0.930 . S
C510 H496 0.930 . S
C510 C508 1.395 . S
C510 C513 1.403 . S
C511 C508 1.403 . S
C511 C512 1.524 . S
C511 C515 1.400 . S
C512 H497 0.960 . S
C512 H498 0.960 . S
C512 H499 0.960 . S
C512 C511 1.524 . S
C513 C510 1.403 . S
C513 C514 1.392 . S
C513 C517 1.495 . S
C514 C513 1.392 . S
C514 C515 1.385 . S
C514 C516 1.478 . S
C515 H509 0.930 . S
C515 C511 1.400 . S
C515 C514 1.385 . S
C516 C514 1.478 . S
C516 C518 1.381 1_556 S
C516 C522 1.383 1_556 S
C517 C513 1.495 . S
C517 H523 0.959 . S
C517 H524 0.961 . S
C517 H525 0.960 . S
C518 C516 1.381 1_554 S
C518 C519 1.394 . S
C518 H526 0.930 1_554 S
C519 C518 1.394 . S
C519 C520 1.383 . S
C519 H527 0.929 . S
C520 C519 1.383 . S
C520 C521 1.377 . S
C521 H505 0.930 . S
C521 C520 1.377 . S
C521 C522 1.379 . S
C522 H506 0.931 . S
C522 C516 1.383 1_554 S
C522 C521 1.379 . S
H523 C517 0.959 . S
H524 C517 0.961 . S
H525 C517 0.960 . S
H526 C518 0.930 1_556 S
H527 C519 0.929 . S
H528 C536 0.929 . S
H529 C538 0.930 . S
H530 C540 0.930 . S
H531 C543 0.929 . S
H532 C546 0.930 . S
H533 C548 0.960 . S
H534 C548 0.960 . S
H535 C548 0.960 . S
C536 H528 0.929 . S
C536 C537 1.377 . S
C536 C538 1.384 . S
C537 C536 1.377 . S
C537 C543 1.390 . S
C538 H529 0.930 . S
C538 C536 1.384 . S
C538 C539 1.372 . S
C539 C538 1.372 . S
C539 C540 1.400 . S
C539 C544 1.490 . S
C540 H530 0.930 . S
C540 C539 1.400 . S
C540 C543 1.386 . S
H541 C557 0.930 . S
H542 C558 0.931 1_554 S
C543 H531 0.929 . S
C543 C537 1.390 . S
C543 C540 1.386 . S
C544 C539 1.490 . S
C544 C546 1.395 . S
C544 C547 1.403 . S
H545 C551 0.930 . S
C546 H532 0.930 . S
C546 C544 1.395 . S
C546 C549 1.403 . S
C547 C544 1.403 . S
C547 C548 1.524 . S
C547 C551 1.400 . S
C548 H533 0.960 . S
C548 H534 0.960 . S
C548 H535 0.960 . S
C548 C547 1.524 . S
C549 C546 1.403 . S
C549 C550 1.392 . S
C549 C553 1.495 . S
C550 C549 1.392 . S
C550 C551 1.385 . S
C550 C552 1.478 . S
C551 H545 0.930 . S
C551 C547 1.400 . S
C551 C550 1.385 . S
C552 C550 1.478 . S
C552 C554 1.381 1_554 S
C552 C558 1.383 1_554 S
C553 C549 1.495 . S
C553 H559 0.959 . S
C553 H560 0.961 . S
C553 H561 0.960 . S
C554 C552 1.381 1_556 S
C554 C555 1.394 . S
C554 H562 0.930 . S
C555 C554 1.394 . S
C555 C556 1.383 . S
C555 H563 0.929 . S
C556 C555 1.383 . S
C556 C557 1.377 . S
C557 H541 0.930 . S
C557 C556 1.377 . S
C557 C558 1.379 . S
C558 H542 0.931 1_556 S
C558 C552 1.383 1_556 S
C558 C557 1.379 . S
H559 C553 0.959 . S
H560 C553 0.961 . S
H561 C553 0.960 . S
H562 C554 0.930 . S
H563 C555 0.929 . S
H564 C572 0.929 . S
H565 C574 0.930 . S
H566 C576 0.930 . S
H567 C579 0.929 . S
H568 C582 0.930 . S
H569 C584 0.960 . S
H570 C584 0.960 . S
H571 C584 0.960 . S
C572 H564 0.929 . S
C572 C573 1.377 . S
C572 C574 1.384 . S
C573 C572 1.377 . S
C573 C579 1.390 . S
C574 H565 0.930 . S
C574 C572 1.384 . S
C574 C575 1.372 . S
C575 C574 1.372 . S
C575 C576 1.400 . S
C575 C580 1.490 . S
C576 H566 0.930 . S
C576 C575 1.400 . S
C576 C579 1.386 . S
H577 C593 0.930 . S
H578 C594 0.931 . S
C579 H567 0.929 . S
C579 C573 1.390 . S
C579 C576 1.386 . S
C580 C575 1.490 . S
C580 C582 1.395 . S
C580 C583 1.403 . S
H581 C587 0.930 . S
C582 H568 0.930 . S
C582 C580 1.395 . S
C582 C585 1.403 . S
C583 C580 1.403 . S
C583 C584 1.524 . S
C583 C587 1.400 . S
C584 H569 0.960 . S
C584 H570 0.960 . S
C584 H571 0.960 . S
C584 C583 1.524 . S
C585 C582 1.403 . S
C585 C586 1.392 . S
C585 C589 1.495 . S
C586 C585 1.392 . S
C586 C587 1.385 . S
C586 C588 1.478 . S
C587 H581 0.930 . S
C587 C583 1.400 . S
C587 C586 1.385 . S
C588 C586 1.478 . S
C588 C590 1.381 . S
C588 C594 1.383 . S
C589 C585 1.495 . S
C589 H595 0.959 . S
C589 H596 0.961 . S
C589 H597 0.960 . S
C590 C588 1.381 . S
C590 C591 1.394 . S
C590 H598 0.930 . S
C591 C590 1.394 . S
C591 C592 1.383 . S
C591 H599 0.929 . S
C592 C591 1.383 . S
C592 C593 1.377 . S
C593 H577 0.930 . S
C593 C592 1.377 . S
C593 C594 1.379 . S
C594 H578 0.931 . S
C594 C588 1.383 . S
C594 C593 1.379 . S
H595 C589 0.959 . S
H596 C589 0.961 . S
H597 C589 0.960 . S
H598 C590 0.930 . S
H599 C591 0.929 . S
H600 C608 0.929 . S
H601 C610 0.930 . S
H602 C612 0.930 . S
H603 C615 0.929 . S
H604 C618 0.930 . S
H605 C620 0.960 . S
H606 C620 0.960 . S
H607 C620 0.960 . S
C608 H600 0.929 . S
C608 C609 1.377 . S
C608 C610 1.384 . S
C609 C608 1.377 . S
C609 C615 1.390 . S
C610 H601 0.930 . S
C610 C608 1.384 . S
C610 C611 1.372 . S
C611 C610 1.372 . S
C611 C612 1.400 . S
C611 C616 1.490 . S
C612 H602 0.930 . S
C612 C611 1.400 . S
C612 C615 1.386 . S
H613 C629 0.930 . S
H614 C630 0.931 . S
C615 H603 0.929 . S
C615 C609 1.390 . S
C615 C612 1.386 . S
C616 C611 1.490 . S
C616 C618 1.395 . S
C616 C619 1.403 . S
H617 C623 0.930 . S
C618 H604 0.930 . S
C618 C616 1.395 . S
C618 C621 1.403 . S
C619 C616 1.403 . S
C619 C620 1.524 . S
C619 C623 1.400 . S
C620 H605 0.960 . S
C620 H606 0.960 . S
C620 H607 0.960 . S
C620 C619 1.524 . S
C621 C618 1.403 . S
C621 C622 1.392 . S
C621 C625 1.495 . S
C622 C621 1.392 . S
C622 C623 1.385 . S
C622 C624 1.478 . S
C623 H617 0.930 . S
C623 C619 1.400 . S
C623 C622 1.385 . S
C624 C622 1.478 . S
C624 C626 1.381 . S
C624 C630 1.383 . S
C625 C621 1.495 . S
C625 H631 0.959 . S
C625 H632 0.961 . S
C625 H633 0.960 . S
C626 C624 1.381 . S
C626 C627 1.394 . S
C626 H634 0.930 . S
C627 C626 1.394 . S
C627 C628 1.383 . S
C627 H635 0.929 . S
C628 C627 1.383 . S
C628 C629 1.377 . S
C629 H613 0.930 . S
C629 C628 1.377 . S
C629 C630 1.379 . S
C630 H614 0.931 . S
C630 C624 1.383 . S
C630 C629 1.379 . S
H631 C625 0.959 . S
H632 C625 0.961 . S
H633 C625 0.960 . S
H634 C626 0.930 . S
H635 C627 0.929 . S
H636 C644 0.929 1_554 S
H637 C646 0.930 . S
H638 C648 0.930 . S
H639 C651 0.929 . S
H640 C654 0.930 . S
H641 C656 0.960 . S
H642 C656 0.960 . S
H643 C656 0.960 . S
C644 H636 0.929 1_556 S
C644 C645 1.377 . S
C644 C646 1.384 . S
C645 C644 1.377 . S
C645 C651 1.390 . S
C646 H637 0.930 . S
C646 C644 1.384 . S
C646 C647 1.372 . S
C647 C646 1.372 . S
C647 C648 1.400 . S
C647 C652 1.490 . S
C648 H638 0.930 . S
C648 C647 1.400 . S
C648 C651 1.386 . S
H649 C665 0.930 . S
H650 C666 0.931 . S
C651 H639 0.929 . S
C651 C645 1.390 . S
C651 C648 1.386 . S
C652 C647 1.490 . S
C652 C654 1.395 . S
C652 C655 1.403 . S
H653 C659 0.930 . S
C654 H640 0.930 . S
C654 C652 1.395 . S
C654 C657 1.403 . S
C655 C652 1.403 . S
C655 C656 1.524 . S
C655 C659 1.400 . S
C656 H641 0.960 . S
C656 H642 0.960 . S
C656 H643 0.960 . S
C656 C655 1.524 . S
C657 C654 1.403 . S
C657 C658 1.392 . S
C657 C661 1.495 . S
C658 C657 1.392 . S
C658 C659 1.385 . S
C658 C660 1.478 . S
C659 H653 0.930 . S
C659 C655 1.400 . S
C659 C658 1.385 . S
C660 C658 1.478 . S
C660 C662 1.381 . S
C660 C666 1.383 . S
C661 C657 1.495 . S
C661 H667 0.959 . S
C661 H668 0.961 . S
C661 H669 0.960 . S
C662 C660 1.381 . S
C662 C663 1.394 . S
C662 H670 0.930 . S
C663 C662 1.394 . S
C663 C664 1.383 . S
C663 H671 0.929 . S
C664 C663 1.383 . S
C664 C665 1.377 . S
C665 H649 0.930 . S
C665 C664 1.377 . S
C665 C666 1.379 . S
C666 H650 0.931 . S
C666 C660 1.383 . S
C666 C665 1.379 . S
H667 C661 0.959 . S
H668 C661 0.961 . S
H669 C661 0.960 . S
H670 C662 0.930 . S
H671 C663 0.929 . S
H672 C680 0.929 . S
H673 C682 0.930 . S
H674 C684 0.930 . S
H675 C687 0.929 . S
H676 C690 0.930 . S
H677 C692 0.960 . S
H678 C692 0.960 . S
H679 C692 0.960 . S
C680 H672 0.929 . S
C680 C681 1.377 . S
C680 C682 1.384 . S
C681 C680 1.377 . S
C681 C687 1.390 . S
C682 H673 0.930 . S
C682 C680 1.384 . S
C682 C683 1.372 . S
C683 C682 1.372 . S
C683 C684 1.400 . S
C683 C688 1.490 . S
C684 H674 0.930 . S
C684 C683 1.400 . S
C684 C687 1.386 . S
H685 C701 0.930 . S
H686 C702 0.931 . S
C687 H675 0.929 . S
C687 C681 1.390 . S
C687 C684 1.386 . S
C688 C683 1.490 . S
C688 C690 1.395 . S
C688 C691 1.403 . S
H689 C695 0.930 . S
C690 H676 0.930 . S
C690 C688 1.395 . S
C690 C693 1.403 . S
C691 C688 1.403 . S
C691 C692 1.524 . S
C691 C695 1.400 . S
C692 H677 0.960 . S
C692 H678 0.960 . S
C692 H679 0.960 . S
C692 C691 1.524 . S
C693 C690 1.403 . S
C693 C694 1.392 . S
C693 C697 1.495 . S
C694 C693 1.392 . S
C694 C695 1.385 . S
C694 C696 1.478 . S
C695 H689 0.930 . S
C695 C691 1.400 . S
C695 C694 1.385 . S
C696 C694 1.478 . S
C696 C698 1.381 . S
C696 C702 1.383 . S
C697 C693 1.495 . S
C697 H703 0.959 . S
C697 H704 0.961 . S
C697 H705 0.960 . S
C698 C696 1.381 . S
C698 C699 1.394 . S
C698 H706 0.930 . S
C699 C698 1.394 . S
C699 C700 1.383 . S
C699 H707 0.929 . S
C700 C699 1.383 . S
C700 C701 1.377 . S
C701 H685 0.930 . S
C701 C700 1.377 . S
C701 C702 1.379 . S
C702 H686 0.931 . S
C702 C696 1.383 . S
C702 C701 1.379 . S
H703 C697 0.959 . S
H704 C697 0.961 . S
H705 C697 0.960 . S
H706 C698 0.930 . S
H707 C699 0.929 . S
H708 C716 0.929 . S
H709 C718 0.930 . S
H710 C720 0.930 . S
H711 C723 0.929 . S
H712 C726 0.930 . S
H713 C728 0.960 . S
H714 C728 0.960 . S
H715 C728 0.960 . S
C716 H708 0.929 . S
C716 C717 1.377 . S
C716 C718 1.384 . S
C717 C716 1.377 . S
C717 C723 1.390 . S
C718 H709 0.930 . S
C718 C716 1.384 . S
C718 C719 1.372 . S
C719 C718 1.372 . S
C719 C720 1.400 . S
C719 C724 1.490 . S
C720 H710 0.930 . S
C720 C719 1.400 . S
C720 C723 1.386 . S
H721 C737 0.930 . S
H722 C738 0.931 . S
C723 H711 0.929 . S
C723 C717 1.390 . S
C723 C720 1.386 . S
C724 C719 1.490 . S
C724 C726 1.395 . S
C724 C727 1.403 . S
H725 C731 0.930 . S
C726 H712 0.930 . S
C726 C724 1.395 . S
C726 C729 1.403 . S
C727 C724 1.403 . S
C727 C728 1.524 . S
C727 C731 1.400 . S
C728 H713 0.960 . S
C728 H714 0.960 . S
C728 H715 0.960 . S
C728 C727 1.524 . S
C729 C726 1.403 . S
C729 C730 1.392 . S
C729 C733 1.495 . S
C730 C729 1.392 . S
C730 C731 1.385 . S
C730 C732 1.478 . S
C731 H725 0.930 . S
C731 C727 1.400 . S
C731 C730 1.385 . S
C732 C730 1.478 . S
C732 C734 1.381 . S
C732 C738 1.383 . S
C733 C729 1.495 . S
C733 H739 0.959 . S
C733 H740 0.961 . S
C733 H741 0.960 . S
C734 C732 1.381 . S
C734 C735 1.394 . S
C734 H742 0.930 . S
C735 C734 1.394 . S
C735 C736 1.383 . S
C735 H743 0.929 . S
C736 C735 1.383 . S
C736 C737 1.377 . S
C737 H721 0.930 . S
C737 C736 1.377 . S
C737 C738 1.379 . S
C738 H722 0.931 . S
C738 C732 1.383 . S
C738 C737 1.379 . S
H739 C733 0.959 . S
H740 C733 0.961 . S
H741 C733 0.960 . S
H742 C734 0.930 . S
H743 C735 0.929 . S
H744 C752 0.929 . S
H745 C754 0.930 . S
H746 C756 0.930 . S
H747 C759 0.929 . S
H748 C762 0.930 . S
H749 C764 0.960 . S
H750 C764 0.960 . S
H751 C764 0.960 . S
C752 H744 0.929 . S
C752 C753 1.377 . S
C752 C754 1.384 . S
C753 C752 1.377 . S
C753 C759 1.390 . S
C754 H745 0.930 . S
C754 C752 1.384 . S
C754 C755 1.372 . S
C755 C754 1.372 . S
C755 C756 1.400 . S
C755 C760 1.490 . S
C756 H746 0.930 . S
C756 C755 1.400 . S
C756 C759 1.386 . S
H757 C773 0.930 . S
H758 C774 0.931 . S
C759 H747 0.929 . S
C759 C753 1.390 . S
C759 C756 1.386 . S
C760 C755 1.490 . S
C760 C762 1.395 . S
C760 C763 1.403 . S
H761 C767 0.930 . S
C762 H748 0.930 . S
C762 C760 1.395 . S
C762 C765 1.403 . S
C763 C760 1.403 . S
C763 C764 1.524 . S
C763 C767 1.400 . S
C764 H749 0.960 . S
C764 H750 0.960 . S
C764 H751 0.960 . S
C764 C763 1.524 . S
C765 C762 1.403 . S
C765 C766 1.392 . S
C765 C769 1.495 . S
C766 C765 1.392 . S
C766 C767 1.385 . S
C766 C768 1.478 . S
C767 H761 0.930 . S
C767 C763 1.400 . S
C767 C766 1.385 . S
C768 C766 1.478 . S
C768 C770 1.381 . S
C768 C774 1.383 . S
C769 C765 1.495 . S
C769 H775 0.959 . S
C769 H776 0.961 . S
C769 H777 0.960 . S
C770 C768 1.381 . S
C770 C771 1.394 . S
C770 H778 0.930 . S
C771 C770 1.394 . S
C771 C772 1.383 . S
C771 H779 0.929 . S
C772 C771 1.383 . S
C772 C773 1.377 . S
C773 H757 0.930 . S
C773 C772 1.377 . S
C773 C774 1.379 . S
C774 H758 0.931 . S
C774 C768 1.383 . S
C774 C773 1.379 . S
H775 C769 0.959 . S
H776 C769 0.961 . S
H777 C769 0.960 . S
H778 C770 0.930 . S
H779 C771 0.929 . S
C141 C125 1.632 . S
C160 C18 1.631 1_556 S
C177 C15 1.635 . S
C196 C40 1.598 . S
C213 C37 1.635 . S
C232 C54 1.607 . S
C249 C65 1.636 . S
C268 C76 1.598 1_556 S
C285 C98 1.613 . S
C304 C87 1.636 . S
C321 C128 1.616 . S
C340 C109 1.623 . S
C357 C10 0.727 . S
C376 C7 0.685 . S
C393 C32 0.722 . S
C412 C29 0.742 . S
C429 C52 0.712 . S
C448 C59 0.749 . S
C465 C74 0.727 . S
C484 C81 0.684 . S
C501 C103 0.716 . S
C520 C96 0.761 . S
C537 C120 0.729 . S
C556 C117 0.691 . S
C573 C21 1.136 . S
C592 C106 1.124 . S
C609 C43 1.133 . S
C628 C118 1.121 . S
C645 C8 1.144 . S
C664 C51 1.149 . S
C681 C30 1.152 . S
C700 C73 1.130 . S
C717 C95 1.139 . S
C736 C62 1.133 . S
C753 C84 1.152 . S
C772 C131 1.155 . S
