# Generated by pormake.
# Topology fnh, (5)-cn, num edge types: 1
# Building blocks:
#     Node 0, Type 0, BuildingBlock: XOMCOT_clean_sbu_0, # of connection points: 5
#     Node 1, Type 0, BuildingBlock: XOMCOT_clean_sbu_0, # of connection points: 5
#     Node 2, Type 0, BuildingBlock: XOMCOT_clean_sbu_0, # of connection points: 5
#     Node 3, Type 0, BuildingBlock: XOMCOT_clean_sbu_0, # of connection points: 5
#     Node 4, Type 0, BuildingBlock: XOMCOT_clean_sbu_0, # of connection points: 5
#     Node 5, Type 0, BuildingBlock: XOMCOT_clean_sbu_0, # of connection points: 5
#     Node 6, Type 0, BuildingBlock: XOMCOT_clean_sbu_0, # of connection points: 5
#     Node 7, Type 0, BuildingBlock: XOMCOT_clean_sbu_0, # of connection points: 5
#     Node 8, Type 0, BuildingBlock: XOMCOT_clean_sbu_0, # of connection points: 5
#     Node 9, Type 0, BuildingBlock: XOMCOT_clean_sbu_0, # of connection points: 5
#     Node 10, Type 0, BuildingBlock: XOMCOT_clean_sbu_0, # of connection points: 5
#     Node 11, Type 0, BuildingBlock: XOMCOT_clean_sbu_0, # of connection points: 5
#     Node 12, Type 0, BuildingBlock: XOMCOT_clean_sbu_0, # of connection points: 5
#     Node 13, Type 0, BuildingBlock: XOMCOT_clean_sbu_0, # of connection points: 5
#     Node 14, Type 0, BuildingBlock: XOMCOT_clean_sbu_0, # of connection points: 5
#     Node 15, Type 0, BuildingBlock: XOMCOT_clean_sbu_0, # of connection points: 5
#     Node 16, Type 0, BuildingBlock: XOMCOT_clean_sbu_0, # of connection points: 5
#     Node 17, Type 0, BuildingBlock: XOMCOT_clean_sbu_0, # of connection points: 5
#     Edge 18, Type (0, 0), None
#     Edge 19, Type (0, 0), None
#     Edge 20, Type (0, 0), None
#     Edge 21, Type (0, 0), None
#     Edge 22, Type (0, 0), None
#     Edge 23, Type (0, 0), None
#     Edge 24, Type (0, 0), None
#     Edge 25, Type (0, 0), None
#     Edge 26, Type (0, 0), None
#     Edge 27, Type (0, 0), None
#     Edge 28, Type (0, 0), None
#     Edge 29, Type (0, 0), None
#     Edge 30, Type (0, 0), None
#     Edge 31, Type (0, 0), None
#     Edge 32, Type (0, 0), None
#     Edge 33, Type (0, 0), None
#     Edge 34, Type (0, 0), None
#     Edge 35, Type (0, 0), None
#     Edge 36, Type (0, 0), None
#     Edge 37, Type (0, 0), None
#     Edge 38, Type (0, 0), None
#     Edge 39, Type (0, 0), None
#     Edge 40, Type (0, 0), None
#     Edge 41, Type (0, 0), None
#     Edge 42, Type (0, 0), None
#     Edge 43, Type (0, 0), None
#     Edge 44, Type (0, 0), None
#     Edge 45, Type (0, 0), None
#     Edge 46, Type (0, 0), None
#     Edge 47, Type (0, 0), None
#     Edge 48, Type (0, 0), None
#     Edge 49, Type (0, 0), None
#     Edge 50, Type (0, 0), None
#     Edge 51, Type (0, 0), None
#     Edge 52, Type (0, 0), None
#     Edge 53, Type (0, 0), None
#     Edge 54, Type (0, 0), None
#     Edge 55, Type (0, 0), None
#     Edge 56, Type (0, 0), None
#     Edge 57, Type (0, 0), None
#     Edge 58, Type (0, 0), None
#     Edge 59, Type (0, 0), None
#     Edge 60, Type (0, 0), None
#     Edge 61, Type (0, 0), None
#     Edge 62, Type (0, 0), None
# Relax obj value: 0.323
# Max RMSD: 0.206
# Mean RMSD: 0.206
data_MOF--net-fnh--node1-XOMCOT_clean_sbu_0--edge1-none
_symmetry_space_group_name_H-M    P1
_symmetry_Int_Tables_number       1
_symmetry_cell_setting            triclinic
loop_
_symmetry_equiv_pos_as_xyz
'x, y, z'
_cell_length_a     31.607898
_cell_length_b     31.608004
_cell_length_c     11.74053
_cell_angle_alpha  90.004255
_cell_angle_beta   89.99181
_cell_angle_gamma 120.00077
loop_
_atom_site_label
_atom_site_type_symbol
_atom_site_fract_x
_atom_site_fract_y
_atom_site_fract_z
_atom_type_partial_charge
Co0 Co 0.19326 0.23137 0.33301 0.0
C1 C 0.18092 0.29875 0.47199 0.0
C2 C 1.11963 0.26232 0.36283 0.0
C3 C 1.11247 0.29146 0.43871 0.0
N4 N 0.16132 0.26377 0.39324 0.0
N5 N 0.1462 0.30434 0.52297 0.0
H6 H 0.21535 0.30883 0.51278 0.0
H7 H 1.09434 0.23904 0.29822 0.0
C8 C 1.13935 0.21403 0.08795 0.0
O9 O 0.18018 0.24665 1.03945 0.0
N10 N 0.22703 0.19966 0.27165 0.0
C11 C 0.27413 0.21469 0.29921 0.0
C12 C 0.30188 0.23165 0.20253 0.0
C13 C 0.22587 0.19506 0.1597 0.0
N14 N 0.27037 0.22069 0.11638 0.0
C15 C 0.28459 0.31885 0.30719 0.0
C16 C 0.24519 0.37643 0.25126 0.0
C17 C 0.28956 0.39766 0.31171 0.0
C18 C 0.31024 0.36852 0.33216 0.0
C19 C 0.22086 0.32581 0.22407 0.0
N20 N 0.2382 0.29614 0.26269 0.0
H21 H 0.3002 0.29897 0.3438 0.0
H22 H 0.18466 0.30983 0.18803 0.0
H23 H 0.28933 0.22346 0.38392 0.0
H24 H 0.19323 0.17938 0.10985 0.0
O25 O 0.23295 0.24503 0.47216 0.0
O26 O 0.1661 0.17658 0.45313 0.0
O27 O 0.13973 0.20461 0.19699 0.0
C28 C 0.2054 0.20252 0.5149 0.0
H29 H 1.07755 0.28959 0.44979 0.0
H30 H 0.34119 0.25443 0.19753 0.0
H31 H 0.22869 0.39815 0.22865 0.0
H32 H 0.34509 0.38338 0.37557 0.0
Co33 Co 1.00149 1.00846 0.33302 0.0
C34 C 0.93411 0.92874 0.472 0.0
C35 C 0.97053 0.90388 0.36281 0.0
C36 C 0.9414 0.86758 0.43867 0.0
N37 N 0.96909 0.94412 0.39324 0.0
N38 N 0.92852 0.88844 0.52296 0.0
H39 H 0.92402 0.95309 0.51281 0.0
H40 H 0.99382 0.90188 0.29818 0.0
C41 C 1.01883 0.97189 0.08794 0.0
O42 O 0.98621 0.9801 1.03947 0.0
N43 N 1.03319 1.07394 0.27168 0.0
C44 C 1.01817 0.10602 0.29927 0.0
C45 C 1.0012 0.1168 0.20261 0.0
C46 C 1.03779 1.07739 0.15973 0.0
N47 N 1.01216 0.09625 0.11644 0.0
C48 C 0.914 1.01231 0.30724 0.0
C49 C 0.85643 0.91533 0.25126 0.0
C50 C 0.83519 0.93847 0.31171 0.0
C51 C 0.86433 0.98829 0.33219 0.0
C52 C 0.90705 0.94162 0.22409 0.0
N53 N 0.93672 0.98864 0.26272 0.0
H54 H 0.93388 1.0478 0.34387 0.0
H55 H 0.92304 0.9214 0.18804 0.0
H56 H 1.00939 0.11244 0.384 0.0
H57 H 1.05347 1.06043 0.10985 0.0
O58 O 0.98782 1.0345 0.47219 0.0
O59 O 1.05627 1.0361 0.45314 0.0
O60 O 1.02825 0.98171 0.19698 0.0
C61 C 1.03033 1.04945 0.51492 0.0
H62 H 0.94327 0.83454 0.44973 0.0
H63 H 0.97842 0.13333 0.19764 0.0
H64 H 0.83471 0.87711 0.22863 0.0
H65 H 0.84946 1.00827 0.37561 0.0
Co66 Co 0.2244 1.03959 0.33296 0.0
C67 C 0.30411 1.05194 0.47191 0.0
C68 C 0.32898 0.11323 0.36273 0.0
C69 C 0.36527 0.12039 0.43859 0.0
N70 N 0.28874 1.07153 0.39317 0.0
N71 N 0.34442 1.08666 0.52287 0.0
H72 H 0.27976 1.0175 0.51271 0.0
H73 H 0.33098 0.13851 0.29812 0.0
C74 C 0.26097 0.0935 0.08788 0.0
O75 O 0.25276 1.05267 1.03939 0.0
N76 N 0.15892 1.00581 0.27163 0.0
C77 C 1.12684 0.95871 0.29921 0.0
C78 C 1.11606 0.93096 0.20253 0.0
C79 C 0.15547 1.00696 0.15968 0.0
N80 N 1.1366 0.96247 0.11638 0.0
C81 C 0.22054 0.94825 0.30716 0.0
C82 C 0.31753 0.98766 0.25124 0.0
C83 C 0.29439 0.94329 0.31171 0.0
C84 C 0.24456 0.92261 0.33215 0.0
C85 C 0.29125 1.01198 0.22403 0.0
N86 N 0.24422 0.99464 0.26265 0.0
H87 H 0.18506 0.93264 0.34377 0.0
H88 H 0.31146 1.04818 0.18797 0.0
H89 H 1.12042 0.94351 0.38393 0.0
H90 H 0.17243 1.03961 0.10982 0.0
O91 O 0.19836 0.99989 0.47213 0.0
O92 O 0.19676 1.06674 0.45309 0.0
O93 O 0.25115 1.09311 0.19693 0.0
C94 C 0.18341 1.02745 0.51487 0.0
H95 H 0.39832 0.15531 0.44965 0.0
H96 H 1.09953 0.89165 0.19754 0.0
H97 H 0.35576 1.00416 0.22861 0.0
H98 H 0.22458 0.88776 0.37557 0.0
Co99 Co 0.2789 0.1791 0.75386 0.0
C100 C 0.3148 0.1336 0.61409 0.0
C101 C 0.271 1.08398 0.74264 0.0
C102 C 0.30392 1.07061 0.70566 0.0
N103 N 0.27889 0.12454 0.68633 0.0
N104 N 0.33164 0.10193 0.62281 0.0
H105 H 0.32916 0.16409 0.55552 0.0
H106 H 0.24389 1.06564 0.80823 0.0
C107 C 0.28301 0.13959 1.01232 0.0
O108 O 0.32554 0.17662 1.04128 0.0
N109 N 0.2802 0.23412 0.82643 0.0
C110 C 0.32138 0.27558 0.85817 0.0
C111 C 0.32158 0.28016 0.9738 0.0
C112 C 0.25265 0.22001 0.91921 0.0
N113 N 0.279 0.24337 1.01064 0.0
C114 C 0.37388 0.24927 0.67812 0.0
C115 C 0.42805 0.21058 0.76464 0.0
C116 C 0.44928 0.24749 0.68081 0.0
C117 C 0.42138 0.267 0.64012 0.0
C118 C 0.37921 0.19345 0.80181 0.0
N119 N 0.35198 0.21236 0.75697 0.0
H120 H 0.35431 0.2653 0.63957 0.0
H121 H 0.36245 0.16253 0.85876 0.0
H122 H 0.35219 0.29848 0.8052 0.0
H123 H 0.21966 0.18473 0.9239 0.0
O124 O 0.27565 0.20594 0.60501 0.0
O125 O 0.20955 0.15762 0.69494 0.0
O126 O 0.2651 0.13931 0.91163 0.0
C127 C 0.2289 0.18544 0.60541 0.0
H128 H 0.30337 1.03703 0.72715 0.0
H129 H 0.35214 0.30473 1.02664 0.0
H130 H 0.44877 0.19496 0.80039 0.0
H131 H 0.43621 0.2961 0.57747 0.0
Co132 Co 1.05375 0.14638 0.75392 0.0
C133 C 1.09925 0.22777 0.61418 0.0
C134 C 0.14886 0.23359 0.74271 0.0
C135 C 0.16224 0.27988 0.70574 0.0
N136 N 1.10831 0.20092 0.6864 0.0
N137 N 1.13093 0.27629 0.6229 0.0
H138 H 1.06877 0.21165 0.55561 0.0
H139 H 0.1672 0.22482 0.80829 0.0
C140 C 1.09326 0.18999 1.0124 0.0
O141 O 1.05623 0.1955 1.04137 0.0
N142 N 0.99872 1.09265 0.8265 0.0
C143 C 0.95726 1.09238 0.85827 0.0
C144 C 0.95268 1.08799 0.9739 0.0
C145 C 1.01282 1.0792 0.91926 0.0
N146 N 0.98948 1.08221 1.0107 0.0
C147 C 0.98357 0.17118 0.6782 0.0
C148 C 1.02227 0.26405 0.76468 0.0
C149 C 0.98537 0.24836 0.68084 0.0
C150 C 0.96585 0.20094 0.64017 0.0
C151 C 1.0394 0.23234 0.80187 0.0
N152 N 1.02048 0.18619 0.75705 0.0
H153 H 0.96754 0.13557 0.63967 0.0
H154 H 1.0703 0.2465 0.85883 0.0
H155 H 0.93436 0.10029 0.80533 0.0
H156 H 1.04811 1.0815 0.92392 0.0
O157 O 1.02691 0.11628 0.60507 0.0
O158 O 1.07522 0.0985 0.69497 0.0
O159 O 1.09353 0.17236 0.9117 0.0
C160 C 1.04741 1.09003 0.60545 0.0
H161 H 0.19582 0.31291 0.72724 0.0
H162 H 0.92812 0.09398 1.02676 0.0
H163 H 1.03789 0.30039 0.80042 0.0
H164 H 0.93675 0.18667 0.57752 0.0
Co165 Co 1.08648 0.95394 0.75387 0.0
C166 C 1.00508 0.91804 0.61415 0.0
C167 C 0.99927 0.96185 0.74271 0.0
C168 C 0.95297 0.92893 0.70574 0.0
N169 N 1.03194 0.95396 0.68638 0.0
N170 N 0.95656 0.90121 0.62289 0.0
H171 H 1.02121 0.90369 0.55557 0.0
H172 H 1.00804 0.98896 0.8083 0.0
C173 C 1.04287 0.94984 1.01237 0.0
O174 O 1.03737 0.90731 1.04133 0.0
N175 N 0.1402 0.95264 0.82642 0.0
C176 C 0.14048 0.91145 0.85815 0.0
C177 C 0.14487 0.91126 0.97378 0.0
C178 C 0.15365 0.98019 0.91919 0.0
N179 N 0.15065 0.95383 1.01062 0.0
C180 C 1.06167 0.85896 0.67813 0.0
C181 C 0.9688 0.80479 0.76467 0.0
C182 C 0.98449 0.78357 0.68082 0.0
C183 C 1.0319 0.81147 0.64012 0.0
C184 C 1.00052 0.85363 0.80185 0.0
N185 N 1.04666 0.88086 0.757 0.0
H186 H 1.09727 0.87854 0.63957 0.0
H187 H 0.98636 0.87039 0.85882 0.0
H188 H 1.13257 0.88065 0.80519 0.0
H189 H 0.15135 1.01317 0.92389 0.0
O190 O 1.11657 0.9572 0.60501 0.0
O191 O 1.13436 1.02329 0.69493 0.0
O192 O 1.0605 0.96774 0.91166 0.0
C193 C 0.14282 1.00394 0.60539 0.0
H194 H 0.91995 0.92949 0.72725 0.0
H195 H 1.13888 0.8807 1.02662 0.0
H196 H 0.93246 0.78407 0.80044 0.0
H197 H 1.04618 0.79664 0.57746 0.0
Co198 Co 0.85992 0.5647 0.66633 0.0
C199 C 0.84758 0.63208 0.80531 0.0
C200 C 0.78629 0.59565 0.69615 0.0
C201 C 0.77913 0.62478 0.77203 0.0
N202 N 0.82798 0.5971 0.72657 0.0
N203 N 0.81286 0.63767 0.85629 0.0
H204 H 0.88202 0.64216 0.8461 0.0
H205 H 0.76101 0.57237 0.63155 0.0
C206 C 0.80601 0.54736 0.42127 0.0
O207 O 0.84684 0.57998 0.37277 0.0
N208 N 0.89369 0.533 0.60498 0.0
C209 C 0.9408 0.54803 0.63253 0.0
C210 C 0.96855 0.565 0.53585 0.0
C211 C 0.89254 0.5284 0.49302 0.0
N212 N 0.93704 0.55403 0.44971 0.0
C213 C 0.95126 0.65219 0.64052 0.0
C214 C 0.91185 0.70976 0.58457 0.0
C215 C 0.95622 0.731 0.645 0.0
C216 C 0.97691 0.70186 0.66547 0.0
C217 C 0.88752 0.65914 0.55739 0.0
N218 N 0.90487 0.62947 0.59602 0.0
H219 H 0.96686 0.63231 0.67714 0.0
H220 H 0.85132 0.64316 0.52136 0.0
H221 H 0.956 0.5568 0.71725 0.0
H222 H 0.8599 0.51271 0.44317 0.0
O223 O 0.89962 0.57836 0.80548 0.0
O224 O 0.83277 0.50992 0.78646 0.0
O225 O 0.8064 0.53794 0.53031 0.0
C226 C 0.87206 0.53585 0.84822 0.0
H227 H 0.74421 0.62291 0.78311 0.0
H228 H 1.00786 0.58778 0.53085 0.0
H229 H 0.89535 0.73148 0.56195 0.0
H230 H 1.01175 0.71673 0.70889 0.0
Co231 Co 0.66815 0.34179 0.66635 0.0
C232 C 0.60078 0.26207 0.80532 0.0
C233 C 0.63721 0.23721 0.69613 0.0
C234 C 0.60807 0.20092 0.77199 0.0
N235 N 0.63576 0.27745 0.72656 0.0
N236 N 0.59519 0.22177 0.85628 0.0
H237 H 0.59069 0.28642 0.84613 0.0
H238 H 0.66049 0.23521 0.63151 0.0
C239 C 0.6855 0.30523 0.42126 0.0
O240 O 0.65288 0.31343 0.37279 0.0
N241 N 0.69985 0.40727 0.60501 0.0
C242 C 0.68483 0.43935 0.63259 0.0
C243 C 0.66786 0.45013 0.53593 0.0
C244 C 0.70445 0.41072 0.49305 0.0
N245 N 0.67882 0.42958 0.44977 0.0
C246 C 0.58067 0.34564 0.64057 0.0
C247 C 0.5231 0.24866 0.58456 0.0
C248 C 0.50186 0.2718 0.645 0.0
C249 C 0.53099 0.32162 0.6655 0.0
C250 C 0.57372 0.27495 0.55741 0.0
N251 N 0.60339 0.32197 0.59605 0.0
H252 H 0.60054 0.38112 0.67721 0.0
H253 H 0.58971 0.25474 0.52137 0.0
H254 H 0.67605 0.44577 0.71732 0.0
H255 H 0.72014 0.39376 0.44318 0.0
O256 O 0.65449 0.36782 0.80552 0.0
O257 O 0.72294 0.36943 0.78646 0.0
O258 O 0.69492 0.31504 0.5303 0.0
C259 C 0.697 0.38278 0.84824 0.0
H260 H 0.60995 0.16787 0.78305 0.0
H261 H 0.64507 0.46665 0.53096 0.0
H262 H 0.50138 0.21044 0.56193 0.0
H263 H 0.51612 0.34159 0.70892 0.0
Co264 Co 0.89106 0.37292 0.66628 0.0
C265 C 0.97078 0.38527 0.80523 0.0
C266 C 0.99565 0.44657 0.69606 0.0
C267 C 1.03194 0.45373 0.77191 0.0
N268 N 0.95541 0.40487 0.72649 0.0
N269 N 1.01109 0.42 0.85619 0.0
H270 H 0.94644 0.35084 0.84603 0.0
H271 H 0.99764 0.47184 0.63144 0.0
C272 C 0.92763 0.42683 0.4212 0.0
O273 O 0.91943 0.38601 0.37271 0.0
N274 N 0.82559 0.33914 0.60496 0.0
C275 C 0.79351 0.29204 0.63253 0.0
C276 C 0.78273 0.26429 0.53585 0.0
C277 C 0.82214 0.3403 0.49301 0.0
N278 N 0.80328 0.2958 0.4497 0.0
C279 C 0.88722 0.28159 0.6405 0.0
C280 C 0.9842 0.321 0.58454 0.0
C281 C 0.96106 0.27663 0.64499 0.0
C282 C 0.91124 0.25594 0.66547 0.0
C283 C 0.95792 0.34532 0.55735 0.0
N284 N 0.9109 0.32798 0.59598 0.0
H285 H 0.85173 0.26598 0.67712 0.0
H286 H 0.97813 0.38152 0.52129 0.0
H287 H 0.78709 0.27684 0.71725 0.0
H288 H 0.8391 0.37294 0.44315 0.0
O289 O 0.86503 0.33323 0.80545 0.0
O290 O 0.86343 0.40007 0.78641 0.0
O291 O 0.91782 0.42644 0.53025 0.0
C292 C 0.85008 0.36078 0.84819 0.0
H293 H 1.06499 0.48865 0.78297 0.0
H294 H 0.7662 0.22498 0.53086 0.0
H295 H 1.02243 0.3375 0.56192 0.0
H296 H 0.89126 0.2211 0.70889 0.0
Co297 Co 0.94557 0.51243 0.08718 0.0
C298 C 0.98147 0.46694 0.94742 0.0
C299 C 0.93767 0.41732 0.07596 0.0
C300 C 0.97059 0.40395 1.03898 0.0
N301 N 0.94555 0.45788 1.01965 0.0
N302 N 0.99831 0.43526 0.95613 0.0
H303 H 0.99583 0.49743 0.88884 0.0
H304 H 0.91056 0.39898 0.14156 0.0
C305 C 0.94967 0.47292 0.34564 0.0
O306 O 0.9922 0.50996 0.3746 0.0
N307 N 0.94687 0.56746 0.15976 0.0
C308 C 0.98805 0.60892 0.19148 0.0
C309 C 0.98824 0.6135 0.30712 0.0
C310 C 0.91931 0.55335 0.25254 0.0
N311 N 0.94567 0.5767 0.34396 0.0
C312 C 1.04055 0.58261 1.01144 0.0
C313 C 1.09472 0.54392 0.09797 0.0
C314 C 1.11595 0.58083 1.01414 0.0
C315 C 1.08805 0.60034 0.97344 0.0
C316 C 1.04587 0.52678 0.13514 0.0
N317 N 1.01865 0.5457 0.0903 0.0
H318 H 1.02097 0.59863 0.97289 0.0
H319 H 1.02911 0.49587 0.19209 0.0
H320 H 1.01885 0.63182 0.13852 0.0
H321 H 0.88633 0.51807 0.25723 0.0
O322 O 0.94231 0.53927 0.93833 0.0
O323 O 0.87621 0.49096 1.02826 0.0
O324 O 0.93177 0.47265 0.24496 0.0
C325 C 0.89557 0.51877 0.93873 0.0
H326 H 0.97004 0.37037 0.06047 0.0
H327 H 1.0188 0.63808 0.35996 0.0
H328 H 1.11543 0.52829 0.13373 0.0
H329 H 1.10288 0.62944 0.9108 0.0
Co330 Co 0.72041 0.47971 0.08725 0.0
C331 C 0.76591 0.5611 0.9475 0.0
C332 C 0.81553 0.56692 0.07603 0.0
C333 C 0.82891 0.61322 1.03907 0.0
N334 N 0.77497 0.53425 1.01972 0.0
N335 N 0.79759 0.60962 0.95623 0.0
H336 H 0.73543 0.54498 0.88893 0.0
H337 H 0.83387 0.55815 0.14162 0.0
C338 C 0.75992 0.52332 0.34572 0.0
O339 O 0.72289 0.52883 0.3747 0.0
N340 N 0.66538 0.42598 0.15982 0.0
C341 C 0.62392 0.42571 0.19158 0.0
C342 C 0.61935 0.42132 0.30722 0.0
C343 C 0.67949 0.41253 0.25258 0.0
N344 N 0.65614 0.41554 0.34403 0.0
C345 C 0.65024 0.50451 1.01152 0.0
C346 C 0.68893 0.59738 0.09801 0.0
C347 C 0.65203 0.58169 1.01417 0.0
C348 C 0.63252 0.53427 0.9735 0.0
C349 C 0.70606 0.56567 0.1352 0.0
N350 N 0.68714 0.51952 0.09037 0.0
H351 H 0.63421 0.4689 0.97299 0.0
H352 H 0.73697 0.57983 0.19216 0.0
H353 H 0.60103 0.43362 0.13864 0.0
H354 H 0.71477 0.41483 0.25725 0.0
O355 O 0.69357 0.44961 0.93839 0.0
O356 O 0.74189 0.43183 1.0283 0.0
O357 O 0.76019 0.50569 0.24502 0.0
C358 C 0.71407 0.42336 0.93877 0.0
H359 H 0.86248 0.64624 0.06056 0.0
H360 H 0.59478 0.42731 0.36008 0.0
H361 H 0.70456 0.63372 0.13375 0.0
H362 H 0.60342 0.52 0.91085 0.0
Co363 Co 0.75315 0.28728 0.0872 0.0
C364 C 0.67175 0.25138 0.94748 0.0
C365 C 0.66594 0.29518 0.07603 0.0
C366 C 0.61964 0.26226 1.03906 0.0
N367 N 0.69861 0.28729 1.0197 0.0
N368 N 0.62323 0.23454 0.95621 0.0
H369 H 0.68788 0.23702 0.88889 0.0
H370 H 0.6747 0.32229 0.14162 0.0
C371 C 0.70954 0.28317 0.34569 0.0
O372 O 0.70404 0.24064 0.37466 0.0
N373 N 0.80687 0.28597 0.15974 0.0
C374 C 0.80715 0.24479 0.19147 0.0
C375 C 0.81154 0.2446 0.30709 0.0
C376 C 0.82032 0.31353 0.25252 0.0
N377 N 0.81732 0.28717 0.34394 0.0
C378 C 0.72834 0.1923 1.01145 0.0
C379 C 0.63547 0.13812 0.098 0.0
C380 C 0.65116 0.1169 1.01415 0.0
C381 C 0.69857 0.1448 0.97345 0.0
C382 C 0.66719 0.18697 0.13518 0.0
N383 N 0.71333 0.21419 0.09032 0.0
H384 H 0.76394 0.21187 0.97289 0.0
H385 H 0.65303 0.20372 0.19214 0.0
H386 H 0.79924 0.21399 0.1385 0.0
H387 H 0.81802 0.34651 0.25722 0.0
O388 O 0.78324 0.29053 0.93833 0.0
O389 O 0.80102 0.35663 1.02826 0.0
O390 O 0.72716 0.30108 0.24499 0.0
C391 C 0.80949 0.33728 0.93872 0.0
H392 H 0.58661 0.26282 0.06057 0.0
H393 H 0.80555 0.21404 0.35993 0.0
H394 H 0.59913 0.11741 0.13377 0.0
H395 H 0.71284 0.12997 0.91079 0.0
Co396 Co 0.52659 0.89803 0.99966 0.0
C397 C 0.51425 0.96541 0.13864 0.0
C398 C 0.45296 0.92899 1.02948 0.0
C399 C 0.4458 0.95812 0.10535 0.0
N400 N 0.49465 0.93043 0.0599 0.0
N401 N 0.47954 0.97101 0.18961 0.0
H402 H 0.54869 0.9755 0.17943 0.0
H403 H 0.42768 0.9057 0.96487 0.0
C404 C 0.47269 0.8807 0.7546 0.0
O405 O 0.51351 0.91331 0.7061 0.0
N406 N 0.56037 0.86634 0.93831 0.0
C407 C 0.60747 0.88136 0.96585 0.0
C408 C 0.63522 0.89833 0.86917 0.0
C409 C 0.55921 0.86173 0.82635 0.0
N410 N 0.60371 0.88736 0.78303 0.0
C411 C 0.61793 0.98552 0.97386 0.0
C412 C 0.57852 1.04309 0.9179 0.0
C413 C 0.62289 1.06433 0.97833 0.0
C414 C 0.64358 1.03519 0.99881 0.0
C415 C 0.55419 0.99248 0.89072 0.0
N416 N 0.57154 0.9628 0.92935 0.0
H417 H 0.63353 0.96565 1.01048 0.0
H418 H 0.51799 0.97649 0.85469 0.0
H419 H 0.62267 0.89014 0.05057 0.0
H420 H 0.52657 0.84604 0.77651 0.0
O421 O 0.56629 0.91169 0.13881 0.0
O422 O 0.49944 0.84325 0.11978 0.0
O423 O 0.47307 0.87127 0.86364 0.0
C424 C 0.53873 0.86918 0.18155 0.0
H425 H 0.41088 0.95625 0.11642 0.0
H426 H 0.67453 0.92112 0.86416 0.0
H427 H 0.56202 1.06481 0.89527 0.0
H428 H 0.67842 1.05006 0.04223 0.0
Co429 Co 0.33482 0.67513 0.99968 0.0
C430 C 0.26744 0.59541 0.13865 0.0
C431 C 0.30387 0.57055 1.02945 0.0
C432 C 0.27474 0.53425 0.10532 0.0
N433 N 0.30243 0.61079 0.05989 0.0
N434 N 0.26185 0.5551 0.1896 0.0
H435 H 0.25736 0.61976 0.17946 0.0
H436 H 0.32716 0.56855 0.96483 0.0
C437 C 0.35216 0.63856 0.75459 0.0
O438 O 0.31954 0.64677 0.70612 0.0
N439 N 0.36652 0.74061 0.93834 0.0
C440 C 0.35149 0.77269 0.96592 0.0
C441 C 0.33452 0.78346 0.86925 0.0
C442 C 0.37112 0.74406 0.82638 0.0
N443 N 0.34548 0.76292 0.78309 0.0
C444 C 0.24733 0.67898 0.97391 0.0
C445 C 0.18976 0.582 0.91789 0.0
C446 C 0.16852 0.60514 0.97833 0.0
C447 C 0.19766 0.65496 0.99884 0.0
C448 C 0.24038 0.60829 0.89074 0.0
N449 N 0.27005 0.6553 0.92938 0.0
H450 H 0.26721 0.71446 1.01055 0.0
H451 H 0.25637 0.58808 0.85469 0.0
H452 H 0.34272 0.77911 0.05064 0.0
H453 H 0.38681 0.7271 0.77651 0.0
O454 O 0.32116 0.70116 0.13885 0.0
O455 O 0.38961 0.70277 0.11978 0.0
O456 O 0.36159 0.64838 0.86363 0.0
C457 C 0.36367 0.71612 0.18157 0.0
H458 H 0.27661 0.5012 0.11637 0.0
H459 H 0.31174 0.79999 0.86428 0.0
H460 H 0.16804 0.54377 0.89525 0.0
H461 H 0.18279 0.67493 0.04226 0.0
Co462 Co 0.55773 0.70625 0.99961 0.0
C463 C 0.63745 0.7186 0.13856 0.0
C464 C 0.66231 0.77989 1.02938 0.0
C465 C 0.6986 0.78706 0.10523 0.0
N466 N 0.62207 0.7382 0.05982 0.0
N467 N 0.67775 0.75332 0.18951 0.0
H468 H 0.6131 0.68417 0.17936 0.0
H469 H 0.6643 0.80517 0.96477 0.0
C470 C 0.59429 0.76016 0.75453 0.0
O471 O 0.58609 0.71933 0.70604 0.0
N472 N 0.49225 0.67247 0.93829 0.0
C473 C 0.46017 0.62536 0.96585 0.0
C474 C 0.4494 0.59762 0.86918 0.0
C475 C 0.4888 0.67363 0.82634 0.0
N476 N 0.46994 0.62913 0.78303 0.0
C477 C 0.55388 0.61492 0.97383 0.0
C478 C 0.65087 0.65433 0.91787 0.0
C479 C 0.62772 0.60996 0.97832 0.0
C480 C 0.5779 0.58927 0.9988 0.0
C481 C 0.62458 0.67865 0.89068 0.0
N482 N 0.57756 0.66131 0.92931 0.0
H483 H 0.51839 0.59931 1.01046 0.0
H484 H 0.64479 0.71485 0.85462 0.0
H485 H 0.45375 0.61016 0.05057 0.0
H486 H 0.50576 0.70627 0.77648 0.0
O487 O 0.53169 0.66656 0.13878 0.0
O488 O 0.53009 0.7334 0.11974 0.0
O489 O 0.58448 0.75977 0.86358 0.0
C490 C 0.51674 0.69411 0.18152 0.0
H491 H 0.73165 0.82198 0.11629 0.0
H492 H 0.43287 0.55831 0.86418 0.0
H493 H 0.68909 0.67083 0.89524 0.0
H494 H 0.55792 0.55443 0.04223 0.0
Co495 Co 0.61223 0.84576 0.42051 0.0
C496 C 0.64814 0.80027 0.28075 0.0
C497 C 0.60433 0.75065 0.40929 0.0
C498 C 0.63726 0.73727 0.37231 0.0
N499 N 0.61222 0.79121 0.35298 0.0
N500 N 0.66498 0.76859 0.28946 0.0
H501 H 0.6625 0.83076 0.22218 0.0
H502 H 0.57723 0.73231 0.47488 0.0
C503 C 0.61634 0.80625 0.67897 0.0
O504 O 0.65887 0.84329 0.70794 0.0
N505 N 0.61353 0.90078 0.49308 0.0
C506 C 0.65471 0.94225 0.5248 0.0
C507 C 0.6549 0.94683 0.64043 0.0
C508 C 0.58598 0.88668 0.58586 0.0
N509 N 0.61233 0.91004 0.67728 0.0
C510 C 0.70722 0.91594 0.34478 0.0
C511 C 0.76139 0.87725 0.43133 0.0
C512 C 0.78262 0.91417 0.34752 0.0
C513 C 0.75472 0.93367 0.3068 0.0
C514 C 0.71254 0.86011 0.46848 0.0
N515 N 0.68532 0.87903 0.42363 0.0
H516 H 0.68764 0.93196 0.30621 0.0
H517 H 0.69577 0.8292 0.52542 0.0
H518 H 0.68551 0.96515 0.47183 0.0
H519 H 0.553 0.85139 0.59056 0.0
O520 O 0.60898 0.8726 0.27166 0.0
O521 O 0.54288 0.82428 0.36158 0.0
O522 O 0.59843 0.80597 0.57828 0.0
C523 C 0.56223 0.8521 0.27205 0.0
H524 H 0.63671 0.7037 0.3938 0.0
H525 H 0.68546 0.97141 0.69327 0.0
H526 H 0.7821 0.86162 0.46708 0.0
H527 H 0.76956 0.96278 0.24416 0.0
Co528 Co 0.38708 0.81305 0.42057 0.0
C529 C 0.43258 0.89445 0.28083 0.0
C530 C 0.4822 0.90026 0.40936 0.0
C531 C 0.49558 0.94656 0.37239 0.0
N532 N 0.44164 0.86759 0.35305 0.0
N533 N 0.46426 0.94296 0.28955 0.0
H534 H 0.4021 0.87832 0.22226 0.0
H535 H 0.50054 0.89149 0.47494 0.0
C536 C 0.42659 0.85666 0.67905 0.0
O537 O 0.38956 0.86216 0.70804 0.0
N538 N 0.33206 0.75932 0.49315 0.0
C539 C 0.29059 0.75904 0.5249 0.0
C540 C 0.28601 0.75465 0.64053 0.0
C541 C 0.34616 0.74587 0.58591 0.0
N542 N 0.32281 0.74887 0.67735 0.0
C543 C 0.31691 0.83785 0.34486 0.0
C544 C 0.3556 0.93072 0.43137 0.0
C545 C 0.31869 0.91503 0.34755 0.0
C546 C 0.29918 0.86761 0.30685 0.0
C547 C 0.37273 0.89901 0.46855 0.0
N548 N 0.35381 0.85286 0.42371 0.0
H549 H 0.30088 0.80224 0.30632 0.0
H550 H 0.40364 0.91316 0.52549 0.0
H551 H 0.2677 0.76695 0.47196 0.0
H552 H 0.38144 0.74817 0.59058 0.0
O553 O 0.36025 0.78295 0.27172 0.0
O554 O 0.40856 0.76517 0.36162 0.0
O555 O 0.42686 0.83903 0.57835 0.0
C556 C 0.38075 0.7567 0.27209 0.0
H557 H 0.52916 0.97958 0.39388 0.0
H558 H 0.26144 0.76064 0.69339 0.0
H559 H 0.37123 0.96706 0.46711 0.0
H560 H 0.27008 0.85334 0.24421 0.0
Co561 Co 0.41981 0.62061 0.42052 0.0
C562 C 0.33841 0.5847 0.28081 0.0
C563 C 0.3326 0.62851 0.40936 0.0
C564 C 0.2863 0.59559 0.37239 0.0
N565 N 0.36526 0.62062 0.35303 0.0
N566 N 0.28989 0.56787 0.28954 0.0
H567 H 0.35454 0.57035 0.22223 0.0
H568 H 0.34136 0.65562 0.47495 0.0
C569 C 0.3762 0.61651 0.67902 0.0
O570 O 0.3707 0.57398 0.70799 0.0
N571 N 0.47353 0.61931 0.49307 0.0
C572 C 0.47382 0.57813 0.52478 0.0
C573 C 0.47821 0.57793 0.64041 0.0
C574 C 0.48698 0.64686 0.58584 0.0
N575 N 0.48398 0.6205 0.67726 0.0
C576 C 0.395 0.52563 0.34479 0.0
C577 C 0.30214 0.47145 0.43136 0.0
C578 C 0.31783 0.45023 0.34754 0.0
C579 C 0.36524 0.47813 0.30681 0.0
C580 C 0.33385 0.5203 0.46852 0.0
N581 N 0.37999 0.54753 0.42366 0.0
H582 H 0.4306 0.54521 0.30622 0.0
H583 H 0.3197 0.53706 0.52548 0.0
H584 H 0.46591 0.54733 0.47181 0.0
H585 H 0.48468 0.67984 0.59055 0.0
O586 O 0.4499 0.62386 0.27166 0.0
O587 O 0.46768 0.68996 0.36158 0.0
O588 O 0.39383 0.63441 0.57831 0.0
C589 C 0.47615 0.67061 0.27204 0.0
H590 H 0.25327 0.59615 0.39389 0.0
H591 H 0.47222 0.54737 0.69325 0.0
H592 H 0.2658 0.45074 0.46713 0.0
H593 H 0.37951 0.4633 0.24415 0.0
loop_
_geom_bond_atom_site_label_1
_geom_bond_atom_site_label_2
_geom_bond_distance
_geom_bond_site_symmetry_2
_ccdc_geom_bond_type
Co0 N4 2.148 . S
Co0 N10 2.128 . S
Co0 N20 2.194 . S
Co0 O25 2.351 . S
Co0 O26 2.155 . S
Co0 O27 2.096 . S
C1 N4 1.301 . S
C1 N5 1.336 . S
C1 H6 0.930 . S
C2 C3 1.333 . S
C2 N4 1.317 1_655 S
C2 H7 0.930 . S
C3 C2 1.333 . S
C3 N5 1.346 1_655 S
C3 H29 0.931 . S
N4 Co0 2.148 . S
N4 C1 1.301 . S
N4 C2 1.317 1_455 S
N5 C1 1.336 . S
N5 C3 1.346 1_455 S
H6 C1 0.930 . S
H7 C2 0.930 . S
C8 O9 1.224 . S
C8 O27 1.247 . S
O9 C8 1.224 . S
N10 Co0 2.128 . S
N10 C11 1.355 . S
N10 C13 1.311 . S
C11 N10 1.355 . S
C11 C12 1.363 . S
C11 H23 0.929 . S
C12 C11 1.363 . S
C12 N14 1.375 . S
C12 H30 0.931 . S
C13 N10 1.311 . S
C13 N14 1.347 . S
C13 H24 0.929 . S
N14 C12 1.375 . S
N14 C13 1.347 . S
C15 C18 1.365 . S
C15 N20 1.328 . S
C15 H21 0.929 . S
C16 C17 1.362 . S
C16 C19 1.378 . S
C16 H31 0.929 . S
C17 C16 1.362 . S
C17 C18 1.366 . S
C18 C15 1.365 . S
C18 C17 1.366 . S
C18 H32 0.930 . S
C19 C16 1.378 . S
C19 N20 1.315 . S
C19 H22 0.930 . S
N20 Co0 2.194 . S
N20 C15 1.328 . S
N20 C19 1.315 . S
H21 C15 0.929 . S
H22 C19 0.930 . S
H23 C11 0.929 . S
H24 C13 0.929 . S
O25 Co0 2.351 . S
O25 C28 1.244 . S
O26 Co0 2.155 . S
O26 C28 1.240 . S
O27 Co0 2.096 . S
O27 C8 1.247 . S
C28 O25 1.244 . S
C28 O26 1.240 . S
H29 C3 0.931 . S
H30 C12 0.931 . S
H31 C16 0.929 . S
H32 C18 0.930 . S
Co33 N37 2.148 . S
Co33 N43 2.128 . S
Co33 N53 2.194 . S
Co33 O58 2.351 . S
Co33 O59 2.155 . S
Co33 O60 2.096 . S
C34 N37 1.301 . S
C34 N38 1.328 . S
C34 H39 0.930 . S
C35 C36 1.333 . S
C35 N37 1.317 . S
C35 H40 0.930 . S
C36 C35 1.333 . S
C36 N38 1.350 . S
C36 H62 0.931 . S
N37 Co33 2.148 . S
N37 C34 1.301 . S
N37 C35 1.317 . S
N38 C34 1.328 . S
N38 C36 1.350 . S
H39 C34 0.930 . S
H40 C35 0.930 . S
C41 O42 1.224 . S
C41 O60 1.247 . S
O42 C41 1.224 . S
N43 Co33 2.128 . S
N43 C44 1.355 . S
N43 C46 1.311 . S
C44 N43 1.355 . S
C44 C45 1.363 . S
C44 H56 0.929 . S
C45 C44 1.363 . S
C45 N47 1.375 . S
C45 H63 0.931 . S
C46 N43 1.311 . S
C46 N47 1.347 . S
C46 H57 0.929 . S
N47 C45 1.375 . S
N47 C46 1.347 . S
C48 C51 1.365 . S
C48 N53 1.328 . S
C48 H54 0.929 . S
C49 C50 1.362 . S
C49 C52 1.378 . S
C49 H64 0.929 . S
C50 C49 1.362 . S
C50 C51 1.366 . S
C51 C48 1.365 . S
C51 C50 1.366 . S
C51 H65 0.930 . S
C52 C49 1.378 . S
C52 N53 1.315 . S
C52 H55 0.930 . S
N53 Co33 2.194 . S
N53 C48 1.328 . S
N53 C52 1.315 . S
H54 C48 0.929 . S
H55 C52 0.930 . S
H56 C44 0.929 . S
H57 C46 0.929 . S
O58 Co33 2.351 . S
O58 C61 1.244 . S
O59 Co33 2.155 . S
O59 C61 1.240 . S
O60 Co33 2.096 . S
O60 C41 1.247 . S
C61 O58 1.244 . S
C61 O59 1.240 . S
H62 C36 0.931 . S
H63 C45 0.931 . S
H64 C49 0.929 . S
H65 C51 0.930 . S
Co66 N70 2.148 . S
Co66 N76 2.128 . S
Co66 N86 2.194 . S
Co66 O91 2.351 . S
Co66 O92 2.155 . S
Co66 O93 2.096 . S
C67 N70 1.301 . S
C67 N71 1.334 . S
C67 H72 0.930 . S
C68 C69 1.333 . S
C68 N70 1.317 1_545 S
C68 H73 0.930 . S
C69 C68 1.333 . S
C69 N71 1.345 1_545 S
C69 H95 0.931 . S
N70 Co66 2.148 . S
N70 C67 1.301 . S
N70 C68 1.317 1_565 S
N71 C67 1.334 . S
N71 C69 1.345 1_565 S
H72 C67 0.930 . S
H73 C68 0.930 . S
C74 O75 1.224 . S
C74 O93 1.247 . S
O75 C74 1.224 . S
N76 Co66 2.128 . S
N76 C77 1.355 . S
N76 C79 1.311 . S
C77 N76 1.355 . S
C77 C78 1.363 . S
C77 H89 0.929 . S
C78 C77 1.363 . S
C78 N80 1.375 . S
C78 H96 0.931 . S
C79 N76 1.311 . S
C79 N80 1.347 . S
C79 H90 0.929 . S
N80 C78 1.375 . S
N80 C79 1.347 . S
C81 C84 1.365 . S
C81 N86 1.328 . S
C81 H87 0.929 . S
C82 C83 1.362 . S
C82 C85 1.378 . S
C82 H97 0.929 . S
C83 C82 1.362 . S
C83 C84 1.366 . S
C84 C81 1.365 . S
C84 C83 1.366 . S
C84 H98 0.930 . S
C85 C82 1.378 . S
C85 N86 1.315 . S
C85 H88 0.930 . S
N86 Co66 2.194 . S
N86 C81 1.328 . S
N86 C85 1.315 . S
H87 C81 0.929 . S
H88 C85 0.930 . S
H89 C77 0.929 . S
H90 C79 0.929 . S
O91 Co66 2.351 . S
O91 C94 1.244 . S
O92 Co66 2.155 . S
O92 C94 1.240 . S
O93 Co66 2.096 . S
O93 C74 1.247 . S
C94 O91 1.244 . S
C94 O92 1.240 . S
H95 C69 0.931 . S
H96 C78 0.931 . S
H97 C82 0.929 . S
H98 C84 0.930 . S
Co99 N103 2.148 . S
Co99 N109 2.128 . S
Co99 N119 2.194 . S
Co99 O124 2.351 . S
Co99 O125 2.155 . S
Co99 O126 2.096 . S
C100 N103 1.301 . S
C100 N104 1.336 . S
C100 H105 0.930 . S
C101 C102 1.333 . S
C101 N103 1.317 1_565 S
C101 H106 0.930 . S
C102 C101 1.333 . S
C102 N104 1.346 1_565 S
C102 H128 0.931 . S
N103 Co99 2.148 . S
N103 C100 1.301 . S
N103 C101 1.317 1_545 S
N104 C100 1.336 . S
N104 C102 1.346 1_545 S
H105 C100 0.930 . S
H106 C101 0.930 . S
C107 O108 1.224 . S
C107 O126 1.247 . S
O108 C107 1.224 . S
N109 Co99 2.128 . S
N109 C110 1.355 . S
N109 C112 1.311 . S
C110 N109 1.355 . S
C110 C111 1.363 . S
C110 H122 0.929 . S
C111 C110 1.363 . S
C111 N113 1.375 . S
C111 H129 0.931 . S
C112 N109 1.311 . S
C112 N113 1.347 . S
C112 H123 0.929 . S
N113 C111 1.375 . S
N113 C112 1.347 . S
C114 C117 1.365 . S
C114 N119 1.328 . S
C114 H120 0.929 . S
C115 C116 1.362 . S
C115 C118 1.378 . S
C115 H130 0.929 . S
C116 C115 1.362 . S
C116 C117 1.366 . S
C117 C114 1.365 . S
C117 C116 1.366 . S
C117 H131 0.930 . S
C118 C115 1.378 . S
C118 N119 1.315 . S
C118 H121 0.930 . S
N119 Co99 2.194 . S
N119 C114 1.328 . S
N119 C118 1.315 . S
H120 C114 0.929 . S
H121 C118 0.930 . S
H122 C110 0.929 . S
H123 C112 0.929 . S
O124 Co99 2.351 . S
O124 C127 1.244 . S
O125 Co99 2.155 . S
O125 C127 1.240 . S
O126 Co99 2.096 . S
O126 C107 1.247 . S
C127 O124 1.244 . S
C127 O125 1.240 . S
H128 C102 0.931 . S
H129 C111 0.931 . S
H130 C115 0.929 . S
H131 C117 0.930 . S
Co132 N136 2.148 . S
Co132 N142 2.128 . S
Co132 N152 2.194 . S
Co132 O157 2.351 . S
Co132 O158 2.155 . S
Co132 O159 2.096 . S
C133 N136 1.301 . S
C133 N137 1.334 . S
C133 H138 0.930 . S
C134 C135 1.333 . S
C134 N136 1.317 1_455 S
C134 H139 0.930 . S
C135 C134 1.333 . S
C135 N137 1.345 1_455 S
C135 H161 0.931 . S
N136 Co132 2.148 . S
N136 C133 1.301 . S
N136 C134 1.317 1_655 S
N137 C133 1.334 . S
N137 C135 1.345 1_655 S
H138 C133 0.930 . S
H139 C134 0.930 . S
C140 O141 1.224 . S
C140 O159 1.247 . S
O141 C140 1.224 . S
N142 Co132 2.128 . S
N142 C143 1.355 . S
N142 C145 1.311 . S
C143 N142 1.355 . S
C143 C144 1.363 . S
C143 H155 0.929 . S
C144 C143 1.363 . S
C144 N146 1.375 . S
C144 H162 0.931 . S
C145 N142 1.311 . S
C145 N146 1.347 . S
C145 H156 0.929 . S
N146 C144 1.375 . S
N146 C145 1.347 . S
C147 C150 1.365 . S
C147 N152 1.328 . S
C147 H153 0.929 . S
C148 C149 1.362 . S
C148 C151 1.378 . S
C148 H163 0.929 . S
C149 C148 1.362 . S
C149 C150 1.366 . S
C150 C147 1.365 . S
C150 C149 1.366 . S
C150 H164 0.930 . S
C151 C148 1.378 . S
C151 N152 1.315 . S
C151 H154 0.930 . S
N152 Co132 2.194 . S
N152 C147 1.328 . S
N152 C151 1.315 . S
H153 C147 0.929 . S
H154 C151 0.930 . S
H155 C143 0.929 . S
H156 C145 0.929 . S
O157 Co132 2.351 . S
O157 C160 1.244 . S
O158 Co132 2.155 . S
O158 C160 1.240 . S
O159 Co132 2.096 . S
O159 C140 1.247 . S
C160 O157 1.244 . S
C160 O158 1.240 . S
H161 C135 0.931 . S
H162 C144 0.931 . S
H163 C148 0.929 . S
H164 C150 0.930 . S
Co165 N169 2.148 . S
Co165 N175 2.128 . S
Co165 N185 2.194 . S
Co165 O190 2.351 . S
Co165 O191 2.155 . S
Co165 O192 2.096 . S
C166 N169 1.301 . S
C166 N170 1.328 . S
C166 H171 0.930 . S
C167 C168 1.333 . S
C167 N169 1.317 . S
C167 H172 0.930 . S
C168 C167 1.333 . S
C168 N170 1.350 . S
C168 H194 0.931 . S
N169 Co165 2.148 . S
N169 C166 1.301 . S
N169 C167 1.317 . S
N170 C166 1.328 . S
N170 C168 1.350 . S
H171 C166 0.930 . S
H172 C167 0.930 . S
C173 O174 1.224 . S
C173 O192 1.247 . S
O174 C173 1.224 . S
N175 Co165 2.128 . S
N175 C176 1.355 . S
N175 C178 1.311 . S
C176 N175 1.355 . S
C176 C177 1.363 . S
C176 H188 0.929 . S
C177 C176 1.363 . S
C177 N179 1.375 . S
C177 H195 0.931 . S
C178 N175 1.311 . S
C178 N179 1.347 . S
C178 H189 0.929 . S
N179 C177 1.375 . S
N179 C178 1.347 . S
C180 C183 1.365 . S
C180 N185 1.328 . S
C180 H186 0.929 . S
C181 C182 1.362 . S
C181 C184 1.378 . S
C181 H196 0.929 . S
C182 C181 1.362 . S
C182 C183 1.366 . S
C183 C180 1.365 . S
C183 C182 1.366 . S
C183 H197 0.930 . S
C184 C181 1.378 . S
C184 N185 1.315 . S
C184 H187 0.930 . S
N185 Co165 2.194 . S
N185 C180 1.328 . S
N185 C184 1.315 . S
H186 C180 0.929 . S
H187 C184 0.930 . S
H188 C176 0.929 . S
H189 C178 0.929 . S
O190 Co165 2.351 . S
O190 C193 1.244 . S
O191 Co165 2.155 . S
O191 C193 1.240 . S
O192 Co165 2.096 . S
O192 C173 1.247 . S
C193 O190 1.244 . S
C193 O191 1.240 . S
H194 C168 0.931 . S
H195 C177 0.931 . S
H196 C181 0.929 . S
H197 C183 0.930 . S
Co198 N202 2.148 . S
Co198 N208 2.128 . S
Co198 N218 2.194 . S
Co198 O223 2.351 . S
Co198 O224 2.155 . S
Co198 O225 2.096 . S
C199 N202 1.301 . S
C199 N203 1.328 . S
C199 H204 0.930 . S
C200 C201 1.333 . S
C200 N202 1.317 . S
C200 H205 0.930 . S
C201 C200 1.333 . S
C201 N203 1.350 . S
C201 H227 0.931 . S
N202 Co198 2.148 . S
N202 C199 1.301 . S
N202 C200 1.317 . S
N203 C199 1.328 . S
N203 C201 1.350 . S
H204 C199 0.930 . S
H205 C200 0.930 . S
C206 O207 1.224 . S
C206 O225 1.247 . S
O207 C206 1.224 . S
N208 Co198 2.128 . S
N208 C209 1.355 . S
N208 C211 1.311 . S
C209 N208 1.355 . S
C209 C210 1.363 . S
C209 H221 0.929 . S
C210 C209 1.363 . S
C210 N212 1.375 . S
C210 H228 0.931 . S
C211 N208 1.311 . S
C211 N212 1.347 . S
C211 H222 0.929 . S
N212 C210 1.375 . S
N212 C211 1.347 . S
C213 C216 1.365 . S
C213 N218 1.328 . S
C213 H219 0.929 . S
C214 C215 1.362 . S
C214 C217 1.378 . S
C214 H229 0.929 . S
C215 C214 1.362 . S
C215 C216 1.366 . S
C216 C213 1.365 . S
C216 C215 1.366 . S
C216 H230 0.930 . S
C217 C214 1.378 . S
C217 N218 1.315 . S
C217 H220 0.930 . S
N218 Co198 2.194 . S
N218 C213 1.328 . S
N218 C217 1.315 . S
H219 C213 0.929 . S
H220 C217 0.930 . S
H221 C209 0.929 . S
H222 C211 0.929 . S
O223 Co198 2.351 . S
O223 C226 1.244 . S
O224 Co198 2.155 . S
O224 C226 1.240 . S
O225 Co198 2.096 . S
O225 C206 1.247 . S
C226 O223 1.244 . S
C226 O224 1.240 . S
H227 C201 0.931 . S
H228 C210 0.931 . S
H229 C214 0.929 . S
H230 C216 0.930 . S
Co231 N235 2.148 . S
Co231 N241 2.128 . S
Co231 N251 2.194 . S
Co231 O256 2.351 . S
Co231 O257 2.155 . S
Co231 O258 2.096 . S
C232 N235 1.301 . S
C232 N236 1.328 . S
C232 H237 0.930 . S
C233 C234 1.333 . S
C233 N235 1.317 . S
C233 H238 0.930 . S
C234 C233 1.333 . S
C234 N236 1.350 . S
C234 H260 0.931 . S
N235 Co231 2.148 . S
N235 C232 1.301 . S
N235 C233 1.317 . S
N236 C232 1.328 . S
N236 C234 1.350 . S
H237 C232 0.930 . S
H238 C233 0.930 . S
C239 O240 1.224 . S
C239 O258 1.247 . S
O240 C239 1.224 . S
N241 Co231 2.128 . S
N241 C242 1.355 . S
N241 C244 1.311 . S
C242 N241 1.355 . S
C242 C243 1.363 . S
C242 H254 0.929 . S
C243 C242 1.363 . S
C243 N245 1.375 . S
C243 H261 0.931 . S
C244 N241 1.311 . S
C244 N245 1.347 . S
C244 H255 0.929 . S
N245 C243 1.375 . S
N245 C244 1.347 . S
C246 C249 1.365 . S
C246 N251 1.328 . S
C246 H252 0.929 . S
C247 C248 1.362 . S
C247 C250 1.378 . S
C247 H262 0.929 . S
C248 C247 1.362 . S
C248 C249 1.366 . S
C249 C246 1.365 . S
C249 C248 1.366 . S
C249 H263 0.930 . S
C250 C247 1.378 . S
C250 N251 1.315 . S
C250 H253 0.930 . S
N251 Co231 2.194 . S
N251 C246 1.328 . S
N251 C250 1.315 . S
H252 C246 0.929 . S
H253 C250 0.930 . S
H254 C242 0.929 . S
H255 C244 0.929 . S
O256 Co231 2.351 . S
O256 C259 1.244 . S
O257 Co231 2.155 . S
O257 C259 1.240 . S
O258 Co231 2.096 . S
O258 C239 1.247 . S
C259 O256 1.244 . S
C259 O257 1.240 . S
H260 C234 0.931 . S
H261 C243 0.931 . S
H262 C247 0.929 . S
H263 C249 0.930 . S
Co264 N268 2.148 . S
Co264 N274 2.128 . S
Co264 N284 2.194 . S
Co264 O289 2.351 . S
Co264 O290 2.155 . S
Co264 O291 2.096 . S
C265 N268 1.301 . S
C265 N269 1.328 . S
C265 H270 0.930 . S
C266 C267 1.333 . S
C266 N268 1.317 . S
C266 H271 0.930 . S
C267 C266 1.333 . S
C267 N269 1.350 . S
C267 H293 0.931 . S
N268 Co264 2.148 . S
N268 C265 1.301 . S
N268 C266 1.317 . S
N269 C265 1.328 . S
N269 C267 1.350 . S
H270 C265 0.930 . S
H271 C266 0.930 . S
C272 O273 1.224 . S
C272 O291 1.247 . S
O273 C272 1.224 . S
N274 Co264 2.128 . S
N274 C275 1.355 . S
N274 C277 1.311 . S
C275 N274 1.355 . S
C275 C276 1.363 . S
C275 H287 0.929 . S
C276 C275 1.363 . S
C276 N278 1.375 . S
C276 H294 0.931 . S
C277 N274 1.311 . S
C277 N278 1.347 . S
C277 H288 0.929 . S
N278 C276 1.375 . S
N278 C277 1.347 . S
C279 C282 1.365 . S
C279 N284 1.328 . S
C279 H285 0.929 . S
C280 C281 1.362 . S
C280 C283 1.378 . S
C280 H295 0.929 . S
C281 C280 1.362 . S
C281 C282 1.366 . S
C282 C279 1.365 . S
C282 C281 1.366 . S
C282 H296 0.930 . S
C283 C280 1.378 . S
C283 N284 1.315 . S
C283 H286 0.930 . S
N284 Co264 2.194 . S
N284 C279 1.328 . S
N284 C283 1.315 . S
H285 C279 0.929 . S
H286 C283 0.930 . S
H287 C275 0.929 . S
H288 C277 0.929 . S
O289 Co264 2.351 . S
O289 C292 1.244 . S
O290 Co264 2.155 . S
O290 C292 1.240 . S
O291 Co264 2.096 . S
O291 C272 1.247 . S
C292 O289 1.244 . S
C292 O290 1.240 . S
H293 C267 0.931 . S
H294 C276 0.931 . S
H295 C280 0.929 . S
H296 C282 0.930 . S
Co297 N301 2.148 1_554 S
Co297 N307 2.128 . S
Co297 N317 2.194 . S
Co297 O322 2.351 1_554 S
Co297 O323 2.155 . S
Co297 O324 2.096 . S
C298 N301 1.301 . S
C298 N302 1.328 . S
C298 H303 0.930 . S
C299 C300 1.333 . S
C299 N301 1.317 . S
C299 H304 0.930 1_556 S
C300 C299 1.333 . S
C300 N302 1.350 . S
C300 H326 0.931 . S
N301 Co297 2.148 1_556 S
N301 C298 1.301 . S
N301 C299 1.317 . S
N302 C298 1.328 . S
N302 C300 1.350 . S
H303 C298 0.930 . S
H304 C299 0.930 1_554 S
C305 O306 1.224 . S
C305 O324 1.247 . S
O306 C305 1.224 . S
N307 Co297 2.128 . S
N307 C308 1.355 . S
N307 C310 1.311 . S
C308 N307 1.355 . S
C308 C309 1.363 . S
C308 H320 0.929 . S
C309 C308 1.363 . S
C309 N311 1.375 . S
C309 H327 0.931 . S
C310 N307 1.311 . S
C310 N311 1.347 . S
C310 H321 0.929 . S
N311 C309 1.375 . S
N311 C310 1.347 . S
C312 C315 1.365 . S
C312 N317 1.328 1_556 S
C312 H318 0.929 . S
C313 C314 1.362 . S
C313 C316 1.378 . S
C313 H328 0.929 . S
C314 C313 1.362 . S
C314 C315 1.366 1_554 S
C315 C312 1.365 . S
C315 C314 1.366 1_556 S
C315 H329 0.930 . S
C316 C313 1.378 . S
C316 N317 1.315 . S
C316 H319 0.930 . S
N317 Co297 2.194 . S
N317 C312 1.328 1_554 S
N317 C316 1.315 . S
H318 C312 0.929 . S
H319 C316 0.930 . S
H320 C308 0.929 . S
H321 C310 0.929 . S
O322 Co297 2.351 1_556 S
O322 C325 1.244 . S
O323 Co297 2.155 . S
O323 C325 1.240 1_554 S
O324 Co297 2.096 . S
O324 C305 1.247 . S
C325 O322 1.244 . S
C325 O323 1.240 1_556 S
H326 C300 0.931 . S
H327 C309 0.931 . S
H328 C313 0.929 . S
H329 C315 0.930 . S
Co330 N334 2.148 1_554 S
Co330 N340 2.128 . S
Co330 N350 2.194 . S
Co330 O355 2.351 1_554 S
Co330 O356 2.155 . S
Co330 O357 2.096 . S
C331 N334 1.301 . S
C331 N335 1.328 . S
C331 H336 0.930 . S
C332 C333 1.333 . S
C332 N334 1.317 . S
C332 H337 0.930 1_556 S
C333 C332 1.333 . S
C333 N335 1.350 . S
C333 H359 0.931 . S
N334 Co330 2.148 1_556 S
N334 C331 1.301 . S
N334 C332 1.317 . S
N335 C331 1.328 . S
N335 C333 1.350 . S
H336 C331 0.930 . S
H337 C332 0.930 1_554 S
C338 O339 1.224 . S
C338 O357 1.247 . S
O339 C338 1.224 . S
N340 Co330 2.128 . S
N340 C341 1.355 . S
N340 C343 1.311 . S
C341 N340 1.355 . S
C341 C342 1.363 . S
C341 H353 0.929 . S
C342 C341 1.363 . S
C342 N344 1.375 . S
C342 H360 0.931 . S
C343 N340 1.311 . S
C343 N344 1.347 . S
C343 H354 0.929 . S
N344 C342 1.375 . S
N344 C343 1.347 . S
C345 C348 1.365 . S
C345 N350 1.328 1_556 S
C345 H351 0.929 . S
C346 C347 1.362 . S
C346 C349 1.378 . S
C346 H361 0.929 . S
C347 C346 1.362 . S
C347 C348 1.366 1_554 S
C348 C345 1.365 . S
C348 C347 1.366 1_556 S
C348 H362 0.930 . S
C349 C346 1.378 . S
C349 N350 1.315 . S
C349 H352 0.930 . S
N350 Co330 2.194 . S
N350 C345 1.328 1_554 S
N350 C349 1.315 . S
H351 C345 0.929 . S
H352 C349 0.930 . S
H353 C341 0.929 . S
H354 C343 0.929 . S
O355 Co330 2.351 1_556 S
O355 C358 1.244 . S
O356 Co330 2.155 . S
O356 C358 1.240 1_554 S
O357 Co330 2.096 . S
O357 C338 1.247 . S
C358 O355 1.244 . S
C358 O356 1.240 1_556 S
H359 C333 0.931 . S
H360 C342 0.931 . S
H361 C346 0.929 . S
H362 C348 0.930 . S
Co363 N367 2.148 1_554 S
Co363 N373 2.128 . S
Co363 N383 2.194 . S
Co363 O388 2.351 1_554 S
Co363 O389 2.155 . S
Co363 O390 2.096 . S
C364 N367 1.301 . S
C364 N368 1.328 . S
C364 H369 0.930 . S
C365 C366 1.333 . S
C365 N367 1.317 . S
C365 H370 0.930 1_556 S
C366 C365 1.333 . S
C366 N368 1.350 . S
C366 H392 0.931 . S
N367 Co363 2.148 1_556 S
N367 C364 1.301 . S
N367 C365 1.317 . S
N368 C364 1.328 . S
N368 C366 1.350 . S
H369 C364 0.930 . S
H370 C365 0.930 1_554 S
C371 O372 1.224 . S
C371 O390 1.247 . S
O372 C371 1.224 . S
N373 Co363 2.128 . S
N373 C374 1.355 . S
N373 C376 1.311 . S
C374 N373 1.355 . S
C374 C375 1.363 . S
C374 H386 0.929 . S
C375 C374 1.363 . S
C375 N377 1.375 . S
C375 H393 0.931 . S
C376 N373 1.311 . S
C376 N377 1.347 . S
C376 H387 0.929 . S
N377 C375 1.375 . S
N377 C376 1.347 . S
C378 C381 1.365 . S
C378 N383 1.328 1_556 S
C378 H384 0.929 . S
C379 C380 1.362 . S
C379 C382 1.378 . S
C379 H394 0.929 . S
C380 C379 1.362 . S
C380 C381 1.366 1_554 S
C381 C378 1.365 . S
C381 C380 1.366 1_556 S
C381 H395 0.930 . S
C382 C379 1.378 . S
C382 N383 1.315 . S
C382 H385 0.930 . S
N383 Co363 2.194 . S
N383 C378 1.328 1_554 S
N383 C382 1.315 . S
H384 C378 0.929 . S
H385 C382 0.930 . S
H386 C374 0.929 . S
H387 C376 0.929 . S
O388 Co363 2.351 1_556 S
O388 C391 1.244 . S
O389 Co363 2.155 . S
O389 C391 1.240 1_554 S
O390 Co363 2.096 . S
O390 C371 1.247 . S
C391 O388 1.244 . S
C391 O389 1.240 1_556 S
H392 C366 0.931 . S
H393 C375 0.931 . S
H394 C379 0.929 . S
H395 C381 0.930 . S
Co396 N400 2.148 1_556 S
Co396 N406 2.128 . S
Co396 N416 2.194 . S
Co396 O421 2.351 1_556 S
Co396 O422 2.155 . S
Co396 O423 2.096 . S
C397 N400 1.301 . S
C397 N401 1.328 . S
C397 H402 0.930 . S
C398 C399 1.333 . S
C398 N400 1.317 . S
C398 H403 0.930 1_554 S
C399 C398 1.333 . S
C399 N401 1.350 . S
C399 H425 0.931 . S
N400 Co396 2.148 1_554 S
N400 C397 1.301 . S
N400 C398 1.317 . S
N401 C397 1.328 . S
N401 C399 1.350 . S
H402 C397 0.930 . S
H403 C398 0.930 1_556 S
C404 O405 1.224 . S
C404 O423 1.247 . S
O405 C404 1.224 . S
N406 Co396 2.128 . S
N406 C407 1.355 . S
N406 C409 1.311 . S
C407 N406 1.355 . S
C407 C408 1.363 . S
C407 H419 0.929 . S
C408 C407 1.363 . S
C408 N410 1.375 . S
C408 H426 0.931 . S
C409 N406 1.311 . S
C409 N410 1.347 . S
C409 H420 0.929 . S
N410 C408 1.375 . S
N410 C409 1.347 . S
C411 C414 1.365 . S
C411 N416 1.328 1_554 S
C411 H417 0.929 . S
C412 C413 1.362 . S
C412 C415 1.378 . S
C412 H427 0.929 . S
C413 C412 1.362 . S
C413 C414 1.366 1_556 S
C414 C411 1.365 . S
C414 C413 1.366 1_554 S
C414 H428 0.930 . S
C415 C412 1.378 . S
C415 N416 1.315 . S
C415 H418 0.930 . S
N416 Co396 2.194 . S
N416 C411 1.328 1_556 S
N416 C415 1.315 . S
H417 C411 0.929 . S
H418 C415 0.930 . S
H419 C407 0.929 . S
H420 C409 0.929 . S
O421 Co396 2.351 1_554 S
O421 C424 1.244 . S
O422 Co396 2.155 . S
O422 C424 1.240 1_556 S
O423 Co396 2.096 . S
O423 C404 1.247 . S
C424 O421 1.244 . S
C424 O422 1.240 1_554 S
H425 C399 0.931 . S
H426 C408 0.931 . S
H427 C412 0.929 . S
H428 C414 0.930 . S
Co429 N433 2.148 1_556 S
Co429 N439 2.128 . S
Co429 N449 2.194 . S
Co429 O454 2.351 1_556 S
Co429 O455 2.155 . S
Co429 O456 2.096 . S
C430 N433 1.301 . S
C430 N434 1.328 . S
C430 H435 0.930 . S
C431 C432 1.333 . S
C431 N433 1.317 . S
C431 H436 0.930 1_554 S
C432 C431 1.333 . S
C432 N434 1.350 . S
C432 H458 0.931 . S
N433 Co429 2.148 1_554 S
N433 C430 1.301 . S
N433 C431 1.317 . S
N434 C430 1.328 . S
N434 C432 1.350 . S
H435 C430 0.930 . S
H436 C431 0.930 1_556 S
C437 O438 1.224 . S
C437 O456 1.247 . S
O438 C437 1.224 . S
N439 Co429 2.128 . S
N439 C440 1.355 . S
N439 C442 1.311 . S
C440 N439 1.355 . S
C440 C441 1.363 . S
C440 H452 0.929 . S
C441 C440 1.363 . S
C441 N443 1.375 . S
C441 H459 0.931 . S
C442 N439 1.311 . S
C442 N443 1.347 . S
C442 H453 0.929 . S
N443 C441 1.375 . S
N443 C442 1.347 . S
C444 C447 1.365 . S
C444 N449 1.328 1_554 S
C444 H450 0.929 . S
C445 C446 1.362 . S
C445 C448 1.378 . S
C445 H460 0.929 . S
C446 C445 1.362 . S
C446 C447 1.366 1_556 S
C447 C444 1.365 . S
C447 C446 1.366 1_554 S
C447 H461 0.930 . S
C448 C445 1.378 . S
C448 N449 1.315 . S
C448 H451 0.930 . S
N449 Co429 2.194 . S
N449 C444 1.328 1_556 S
N449 C448 1.315 . S
H450 C444 0.929 . S
H451 C448 0.930 . S
H452 C440 0.929 . S
H453 C442 0.929 . S
O454 Co429 2.351 1_554 S
O454 C457 1.244 . S
O455 Co429 2.155 . S
O455 C457 1.240 1_556 S
O456 Co429 2.096 . S
O456 C437 1.247 . S
C457 O454 1.244 . S
C457 O455 1.240 1_554 S
H458 C432 0.931 . S
H459 C441 0.931 . S
H460 C445 0.929 . S
H461 C447 0.930 . S
Co462 N466 2.148 1_556 S
Co462 N472 2.128 . S
Co462 N482 2.194 . S
Co462 O487 2.351 1_556 S
Co462 O488 2.155 . S
Co462 O489 2.096 . S
C463 N466 1.301 . S
C463 N467 1.328 . S
C463 H468 0.930 . S
C464 C465 1.333 . S
C464 N466 1.317 . S
C464 H469 0.930 1_554 S
C465 C464 1.333 . S
C465 N467 1.350 . S
C465 H491 0.931 . S
N466 Co462 2.148 1_554 S
N466 C463 1.301 . S
N466 C464 1.317 . S
N467 C463 1.328 . S
N467 C465 1.350 . S
H468 C463 0.930 . S
H469 C464 0.930 1_556 S
C470 O471 1.224 . S
C470 O489 1.247 . S
O471 C470 1.224 . S
N472 Co462 2.128 . S
N472 C473 1.355 . S
N472 C475 1.311 . S
C473 N472 1.355 . S
C473 C474 1.363 . S
C473 H485 0.929 . S
C474 C473 1.363 . S
C474 N476 1.375 . S
C474 H492 0.931 . S
C475 N472 1.311 . S
C475 N476 1.347 . S
C475 H486 0.929 . S
N476 C474 1.375 . S
N476 C475 1.347 . S
C477 C480 1.365 . S
C477 N482 1.328 1_554 S
C477 H483 0.929 . S
C478 C479 1.362 . S
C478 C481 1.378 . S
C478 H493 0.929 . S
C479 C478 1.362 . S
C479 C480 1.366 1_556 S
C480 C477 1.365 . S
C480 C479 1.366 1_554 S
C480 H494 0.930 . S
C481 C478 1.378 . S
C481 N482 1.315 . S
C481 H484 0.930 . S
N482 Co462 2.194 . S
N482 C477 1.328 1_556 S
N482 C481 1.315 . S
H483 C477 0.929 . S
H484 C481 0.930 . S
H485 C473 0.929 . S
H486 C475 0.929 . S
O487 Co462 2.351 1_554 S
O487 C490 1.244 . S
O488 Co462 2.155 . S
O488 C490 1.240 1_556 S
O489 Co462 2.096 . S
O489 C470 1.247 . S
C490 O487 1.244 . S
C490 O488 1.240 1_554 S
H491 C465 0.931 . S
H492 C474 0.931 . S
H493 C478 0.929 . S
H494 C480 0.930 . S
Co495 N499 2.148 . S
Co495 N505 2.128 . S
Co495 N515 2.194 . S
Co495 O520 2.351 . S
Co495 O521 2.155 . S
Co495 O522 2.096 . S
C496 N499 1.301 . S
C496 N500 1.328 . S
C496 H501 0.930 . S
C497 C498 1.333 . S
C497 N499 1.317 . S
C497 H502 0.930 . S
C498 C497 1.333 . S
C498 N500 1.350 . S
C498 H524 0.931 . S
N499 Co495 2.148 . S
N499 C496 1.301 . S
N499 C497 1.317 . S
N500 C496 1.328 . S
N500 C498 1.350 . S
H501 C496 0.930 . S
H502 C497 0.930 . S
C503 O504 1.224 . S
C503 O522 1.247 . S
O504 C503 1.224 . S
N505 Co495 2.128 . S
N505 C506 1.355 . S
N505 C508 1.311 . S
C506 N505 1.355 . S
C506 C507 1.363 . S
C506 H518 0.929 . S
C507 C506 1.363 . S
C507 N509 1.375 . S
C507 H525 0.931 . S
C508 N505 1.311 . S
C508 N509 1.347 . S
C508 H519 0.929 . S
N509 C507 1.375 . S
N509 C508 1.347 . S
C510 C513 1.365 . S
C510 N515 1.328 . S
C510 H516 0.929 . S
C511 C512 1.362 . S
C511 C514 1.378 . S
C511 H526 0.929 . S
C512 C511 1.362 . S
C512 C513 1.366 . S
C513 C510 1.365 . S
C513 C512 1.366 . S
C513 H527 0.930 . S
C514 C511 1.378 . S
C514 N515 1.315 . S
C514 H517 0.930 . S
N515 Co495 2.194 . S
N515 C510 1.328 . S
N515 C514 1.315 . S
H516 C510 0.929 . S
H517 C514 0.930 . S
H518 C506 0.929 . S
H519 C508 0.929 . S
O520 Co495 2.351 . S
O520 C523 1.244 . S
O521 Co495 2.155 . S
O521 C523 1.240 . S
O522 Co495 2.096 . S
O522 C503 1.247 . S
C523 O520 1.244 . S
C523 O521 1.240 . S
H524 C498 0.931 . S
H525 C507 0.931 . S
H526 C511 0.929 . S
H527 C513 0.930 . S
Co528 N532 2.148 . S
Co528 N538 2.128 . S
Co528 N548 2.194 . S
Co528 O553 2.351 . S
Co528 O554 2.155 . S
Co528 O555 2.096 . S
C529 N532 1.301 . S
C529 N533 1.328 . S
C529 H534 0.930 . S
C530 C531 1.333 . S
C530 N532 1.317 . S
C530 H535 0.930 . S
C531 C530 1.333 . S
C531 N533 1.350 . S
C531 H557 0.931 . S
N532 Co528 2.148 . S
N532 C529 1.301 . S
N532 C530 1.317 . S
N533 C529 1.328 . S
N533 C531 1.350 . S
H534 C529 0.930 . S
H535 C530 0.930 . S
C536 O537 1.224 . S
C536 O555 1.247 . S
O537 C536 1.224 . S
N538 Co528 2.128 . S
N538 C539 1.355 . S
N538 C541 1.311 . S
C539 N538 1.355 . S
C539 C540 1.363 . S
C539 H551 0.929 . S
C540 C539 1.363 . S
C540 N542 1.375 . S
C540 H558 0.931 . S
C541 N538 1.311 . S
C541 N542 1.347 . S
C541 H552 0.929 . S
N542 C540 1.375 . S
N542 C541 1.347 . S
C543 C546 1.365 . S
C543 N548 1.328 . S
C543 H549 0.929 . S
C544 C545 1.362 . S
C544 C547 1.378 . S
C544 H559 0.929 . S
C545 C544 1.362 . S
C545 C546 1.366 . S
C546 C543 1.365 . S
C546 C545 1.366 . S
C546 H560 0.930 . S
C547 C544 1.378 . S
C547 N548 1.315 . S
C547 H550 0.930 . S
N548 Co528 2.194 . S
N548 C543 1.328 . S
N548 C547 1.315 . S
H549 C543 0.929 . S
H550 C547 0.930 . S
H551 C539 0.929 . S
H552 C541 0.929 . S
O553 Co528 2.351 . S
O553 C556 1.244 . S
O554 Co528 2.155 . S
O554 C556 1.240 . S
O555 Co528 2.096 . S
O555 C536 1.247 . S
C556 O553 1.244 . S
C556 O554 1.240 . S
H557 C531 0.931 . S
H558 C540 0.931 . S
H559 C544 0.929 . S
H560 C546 0.930 . S
Co561 N565 2.148 . S
Co561 N571 2.128 . S
Co561 N581 2.194 . S
Co561 O586 2.351 . S
Co561 O587 2.155 . S
Co561 O588 2.096 . S
C562 N565 1.301 . S
C562 N566 1.328 . S
C562 H567 0.930 . S
C563 C564 1.333 . S
C563 N565 1.317 . S
C563 H568 0.930 . S
C564 C563 1.333 . S
C564 N566 1.350 . S
C564 H590 0.931 . S
N565 Co561 2.148 . S
N565 C562 1.301 . S
N565 C563 1.317 . S
N566 C562 1.328 . S
N566 C564 1.350 . S
H567 C562 0.930 . S
H568 C563 0.930 . S
C569 O570 1.224 . S
C569 O588 1.247 . S
O570 C569 1.224 . S
N571 Co561 2.128 . S
N571 C572 1.355 . S
N571 C574 1.311 . S
C572 N571 1.355 . S
C572 C573 1.363 . S
C572 H584 0.929 . S
C573 C572 1.363 . S
C573 N575 1.375 . S
C573 H591 0.931 . S
C574 N571 1.311 . S
C574 N575 1.347 . S
C574 H585 0.929 . S
N575 C573 1.375 . S
N575 C574 1.347 . S
C576 C579 1.365 . S
C576 N581 1.328 . S
C576 H582 0.929 . S
C577 C578 1.362 . S
C577 C580 1.378 . S
C577 H592 0.929 . S
C578 C577 1.362 . S
C578 C579 1.366 . S
C579 C576 1.365 . S
C579 C578 1.366 . S
C579 H593 0.930 . S
C580 C577 1.378 . S
C580 N581 1.315 . S
C580 H583 0.930 . S
N581 Co561 2.194 . S
N581 C576 1.328 . S
N581 C580 1.315 . S
H582 C576 0.929 . S
H583 C580 0.930 . S
H584 C572 0.929 . S
H585 C574 0.929 . S
O586 Co561 2.351 . S
O586 C589 1.244 . S
O587 Co561 2.155 . S
O587 C589 1.240 . S
O588 Co561 2.096 . S
O588 C569 1.247 . S
C589 O586 1.244 . S
C589 O587 1.240 . S
H590 C564 0.931 . S
H591 C573 0.931 . S
H592 C577 0.929 . S
H593 C579 0.930 . S
N113 N14 0.875 1_556 S
N146 N47 0.875 1_546 S
N80 N179 0.875 1_454 S
C41 C173 2.997 1_554 S
C107 C74 2.997 1_546 S
C140 C8 2.997 1_656 S
N212 N311 0.875 . S
N344 N245 0.875 . S
N278 N377 0.875 . S
C371 C239 2.997 . S
C305 C272 2.997 . S
C338 C206 2.997 . S
N509 N410 0.875 . S
N443 N542 0.875 . S
N575 N476 0.875 . S
C437 C569 2.997 . S
C503 C470 2.997 . S
C404 C536 2.997 . S
C578 C17 1.689 . S
C50 C512 1.689 . S
C545 C83 1.689 . S
C248 C116 1.689 . S
C149 C281 1.689 . S
C182 C215 1.689 . S
C446 C314 1.689 1_456 S
C479 C347 1.690 1_556 S
C380 C413 1.689 1_544 S
C28 C127 2.868 . S
C160 C61 2.867 1_545 S
C94 C193 2.867 1_455 S
N170 N38 0.195 . S
N71 N104 0.194 1_565 S
N137 N5 0.194 1_655 S
C226 C325 2.868 . S
C358 C259 2.867 . S
C391 C292 2.867 . S
N368 N236 0.195 . S
N302 N269 0.195 . S
N335 N203 0.195 . S
C523 C424 2.868 . S
C556 C457 2.867 . S
C589 C490 2.867 . S
N566 N434 0.195 . S
N500 N467 0.195 . S
N533 N401 0.195 . S
