# Generated by pormake.
# Topology unn, (4)-cn, num edge types: 1
# Building blocks:
#     Node 0, Type 0, BuildingBlock: QUQFOY_clean_sbu_3, # of connection points: 4
#     Node 1, Type 0, BuildingBlock: QUQFOY_clean_sbu_3, # of connection points: 4
#     Node 2, Type 0, BuildingBlock: QUQFOY_clean_sbu_3, # of connection points: 4
#     Node 3, Type 0, BuildingBlock: QUQFOY_clean_sbu_3, # of connection points: 4
#     Node 4, Type 0, BuildingBlock: QUQFOY_clean_sbu_3, # of connection points: 4
#     Node 5, Type 0, BuildingBlock: QUQFOY_clean_sbu_3, # of connection points: 4
#     Node 6, Type 0, BuildingBlock: QUQFOY_clean_sbu_3, # of connection points: 4
#     Node 7, Type 0, BuildingBlock: QUQFOY_clean_sbu_3, # of connection points: 4
#     Node 8, Type 0, BuildingBlock: QUQFOY_clean_sbu_3, # of connection points: 4
#     Node 9, Type 0, BuildingBlock: QUQFOY_clean_sbu_3, # of connection points: 4
#     Node 10, Type 0, BuildingBlock: QUQFOY_clean_sbu_3, # of connection points: 4
#     Node 11, Type 0, BuildingBlock: QUQFOY_clean_sbu_3, # of connection points: 4
#     Node 12, Type 0, BuildingBlock: QUQFOY_clean_sbu_3, # of connection points: 4
#     Node 13, Type 0, BuildingBlock: QUQFOY_clean_sbu_3, # of connection points: 4
#     Node 14, Type 0, BuildingBlock: QUQFOY_clean_sbu_3, # of connection points: 4
#     Node 15, Type 0, BuildingBlock: QUQFOY_clean_sbu_3, # of connection points: 4
#     Node 16, Type 0, BuildingBlock: QUQFOY_clean_sbu_3, # of connection points: 4
#     Node 17, Type 0, BuildingBlock: QUQFOY_clean_sbu_3, # of connection points: 4
#     Edge 18, Type (0, 0), BuildingBlock: MIFKUJ_clean_linker_0, # of connection points: 2
#     Edge 19, Type (0, 0), BuildingBlock: MIFKUJ_clean_linker_0, # of connection points: 2
#     Edge 20, Type (0, 0), BuildingBlock: MIFKUJ_clean_linker_0, # of connection points: 2
#     Edge 21, Type (0, 0), BuildingBlock: MIFKUJ_clean_linker_0, # of connection points: 2
#     Edge 22, Type (0, 0), BuildingBlock: MIFKUJ_clean_linker_0, # of connection points: 2
#     Edge 23, Type (0, 0), BuildingBlock: MIFKUJ_clean_linker_0, # of connection points: 2
#     Edge 24, Type (0, 0), BuildingBlock: MIFKUJ_clean_linker_0, # of connection points: 2
#     Edge 25, Type (0, 0), BuildingBlock: MIFKUJ_clean_linker_0, # of connection points: 2
#     Edge 26, Type (0, 0), BuildingBlock: MIFKUJ_clean_linker_0, # of connection points: 2
#     Edge 27, Type (0, 0), BuildingBlock: MIFKUJ_clean_linker_0, # of connection points: 2
#     Edge 28, Type (0, 0), BuildingBlock: MIFKUJ_clean_linker_0, # of connection points: 2
#     Edge 29, Type (0, 0), BuildingBlock: MIFKUJ_clean_linker_0, # of connection points: 2
#     Edge 30, Type (0, 0), BuildingBlock: MIFKUJ_clean_linker_0, # of connection points: 2
#     Edge 31, Type (0, 0), BuildingBlock: MIFKUJ_clean_linker_0, # of connection points: 2
#     Edge 32, Type (0, 0), BuildingBlock: MIFKUJ_clean_linker_0, # of connection points: 2
#     Edge 33, Type (0, 0), BuildingBlock: MIFKUJ_clean_linker_0, # of connection points: 2
#     Edge 34, Type (0, 0), BuildingBlock: MIFKUJ_clean_linker_0, # of connection points: 2
#     Edge 35, Type (0, 0), BuildingBlock: MIFKUJ_clean_linker_0, # of connection points: 2
#     Edge 36, Type (0, 0), BuildingBlock: MIFKUJ_clean_linker_0, # of connection points: 2
#     Edge 37, Type (0, 0), BuildingBlock: MIFKUJ_clean_linker_0, # of connection points: 2
#     Edge 38, Type (0, 0), BuildingBlock: MIFKUJ_clean_linker_0, # of connection points: 2
#     Edge 39, Type (0, 0), BuildingBlock: MIFKUJ_clean_linker_0, # of connection points: 2
#     Edge 40, Type (0, 0), BuildingBlock: MIFKUJ_clean_linker_0, # of connection points: 2
#     Edge 41, Type (0, 0), BuildingBlock: MIFKUJ_clean_linker_0, # of connection points: 2
#     Edge 42, Type (0, 0), BuildingBlock: MIFKUJ_clean_linker_0, # of connection points: 2
#     Edge 43, Type (0, 0), BuildingBlock: MIFKUJ_clean_linker_0, # of connection points: 2
#     Edge 44, Type (0, 0), BuildingBlock: MIFKUJ_clean_linker_0, # of connection points: 2
#     Edge 45, Type (0, 0), BuildingBlock: MIFKUJ_clean_linker_0, # of connection points: 2
#     Edge 46, Type (0, 0), BuildingBlock: MIFKUJ_clean_linker_0, # of connection points: 2
#     Edge 47, Type (0, 0), BuildingBlock: MIFKUJ_clean_linker_0, # of connection points: 2
#     Edge 48, Type (0, 0), BuildingBlock: MIFKUJ_clean_linker_0, # of connection points: 2
#     Edge 49, Type (0, 0), BuildingBlock: MIFKUJ_clean_linker_0, # of connection points: 2
#     Edge 50, Type (0, 0), BuildingBlock: MIFKUJ_clean_linker_0, # of connection points: 2
#     Edge 51, Type (0, 0), BuildingBlock: MIFKUJ_clean_linker_0, # of connection points: 2
#     Edge 52, Type (0, 0), BuildingBlock: MIFKUJ_clean_linker_0, # of connection points: 2
#     Edge 53, Type (0, 0), BuildingBlock: MIFKUJ_clean_linker_0, # of connection points: 2
# Relax obj value: 0.157
# Max RMSD: 0.254
# Mean RMSD: 0.242
data_MOF--net-unn--node1-QUQFOY_clean_sbu_3--edge1-MIFKUJ_clean_linker_0
_symmetry_space_group_name_H-M    P1
_symmetry_Int_Tables_number       1
_symmetry_cell_setting            triclinic
loop_
_symmetry_equiv_pos_as_xyz
'x, y, z'
_cell_length_a     60.445318
_cell_length_b     60.831483
_cell_length_c     50.236023
_cell_angle_alpha  90.850041
_cell_angle_beta   89.816329
_cell_angle_gamma 120.54106
loop_
_atom_site_label
_atom_site_type_symbol
_atom_site_fract_x
_atom_site_fract_y
_atom_site_fract_z
_atom_type_partial_charge
C0 C 0.00323 0.74137 0.27493 0.0
O1 O 0.01367 0.73201 0.26027 0.0
Cd2 Cd 0.03931 0.7552 0.22408 0.0
O3 O 0.00176 0.76061 0.26786 0.0
Cd4 Cd 0.00793 0.78892 0.2305 0.0
C5 C 0.06589 0.8152 0.25823 0.0
O6 O 0.01053 0.7612 0.1999 0.0
O7 O 0.02816 0.79986 0.18617 0.0
O8 O 0.96289 0.763 0.2381 0.0
C9 C 0.02176 0.77681 0.18148 0.0
O10 O 0.06489 0.79536 0.24816 0.0
C11 C 0.95585 0.77467 0.22276 0.0
O12 O 0.04712 0.81924 0.25615 0.0
O13 O 0.97343 0.79606 0.2139 0.0
C14 C 0.28545 0.28278 0.20126 0.0
O15 O 0.30513 0.29223 0.21625 0.0
Cd16 Cd 0.30512 0.26994 0.25451 0.0
O17 O 0.26415 0.26371 0.20831 0.0
Cd18 Cd 0.24086 0.23608 0.24593 0.0
C19 C 0.27164 0.20746 0.22545 0.0
O20 O 0.26988 0.26547 0.27768 0.0
O21 O 0.2488 0.22661 0.29103 0.0
O22 O 0.22195 0.26034 0.23487 0.0
C23 C 0.2644 0.24997 0.29637 0.0
O24 O 0.29055 0.22768 0.23542 0.0
C25 C 0.20327 0.24992 0.25085 0.0
O26 O 0.24909 0.20438 0.22426 0.0
O27 O 0.19842 0.22871 0.26069 0.0
C28 C 0.74919 0.01401 0.19279 0.0
O29 O 0.74138 0.027 0.20559 0.0
Cd30 Cd 0.75944 0.04677 0.24727 0.0
O31 O 0.76544 0.00887 0.20265 0.0
Cd32 Cd 0.7929 0.01061 0.23999 0.0
C33 C 0.82173 0.06575 0.22012 0.0
O34 O 0.76458 0.01607 0.26876 0.0
O35 O 0.80106 0.02647 0.28662 0.0
O36 O 0.76268 0.9669 0.23053 0.0
C37 C 0.77907 0.02417 0.28895 0.0
O38 O 0.79981 0.05772 0.22997 0.0
C39 C 0.77246 0.95734 0.24532 0.0
O40 O 0.82978 0.05002 0.21818 0.0
O41 O 0.79504 0.9726 0.25426 0.0
C42 C 0.05775 0.24104 0.76647 0.0
O43 O 0.05244 0.22139 0.75258 0.0
Cd44 Cd 0.0053 0.20489 0.75465 0.0
O45 O 0.04118 0.24777 0.76776 0.0
Cd46 Cd 0.0046 0.23313 0.737 0.0
C47 C 0.99205 0.24402 0.79118 0.0
O48 O 0.97249 0.19023 0.71963 0.0
O49 O 0.95897 0.21176 0.74213 0.0
O50 O 0.02382 0.24291 0.69338 0.0
C51 C 0.95393 0.19356 0.72604 0.0
O52 O 0.99512 0.22487 0.793 0.0
C53 C 0.02199 0.26269 0.69113 0.0
O54 O 0.99408 0.25428 0.76893 0.0
O55 O 0.01236 0.26873 0.71033 0.0
C56 C 0.82973 0.77521 0.71122 0.0
O57 O 0.84501 0.79706 0.72118 0.0
Cd58 Cd 0.8133 0.81173 0.72174 0.0
O59 O 0.80593 0.76642 0.71364 0.0
Cd60 Cd 0.78256 0.77948 0.74219 0.0
C61 C 0.76134 0.77104 0.68498 0.0
O62 O 0.79166 0.82234 0.75723 0.0
O63 O 0.75626 0.79654 0.73615 0.0
O64 O 0.78852 0.76975 0.78717 0.0
C65 C 0.76845 0.81577 0.75144 0.0
O66 O 0.7834 0.79114 0.68356 0.0
C67 C 0.76717 0.7489 0.78746 0.0
O68 O 0.75336 0.75976 0.70692 0.0
O69 O 0.75332 0.74225 0.76665 0.0
C70 C 0.2821 0.01917 0.77175 0.0
O71 O 0.29256 0.00937 0.75782 0.0
Cd72 Cd 0.27433 0.98709 0.71734 0.0
O73 O 0.26366 0.02149 0.76303 0.0
Cd74 Cd 0.23818 0.01756 0.72332 0.0
C75 C 0.21099 0.95675 0.74327 0.0
O76 O 0.26683 0.01509 0.69447 0.0
O77 O 0.23005 0.00274 0.67626 0.0
O78 O 0.26752 0.0609 0.73298 0.0
C79 C 0.25257 0.00628 0.67418 0.0
O80 O 0.23187 0.95913 0.7344 0.0
C81 C 0.25659 0.07031 0.71975 0.0
O82 O 0.20703 0.97558 0.74388 0.0
O83 O 0.23384 0.05479 0.71125 0.0
C84 C 0.67617 0.06994 0.60835 0.0
O85 O 0.689 0.0628 0.59433 0.0
Cd86 Cd 0.70775 0.08151 0.55286 0.0
O87 O 0.67048 0.086 0.59966 0.0
Cd88 Cd 0.67343 0.11139 0.56103 0.0
C89 C 0.73541 0.14363 0.58014 0.0
O90 O 0.67531 0.08308 0.52968 0.0
O91 O 0.6896 0.12124 0.51551 0.0
O92 O 0.62836 0.08555 0.56933 0.0
C93 C 0.68378 0.09842 0.51056 0.0
O94 O 0.73553 0.12449 0.56966 0.0
C95 C 0.62154 0.09852 0.55574 0.0
O96 O 0.71467 0.14442 0.58219 0.0
O97 O 0.63934 0.12019 0.54773 0.0
C98 C 0.95571 0.62108 0.60896 0.0
O99 O 0.96184 0.64232 0.59836 0.0
Cd100 Cd 0.93943 0.644 0.5607 0.0
O101 O 0.93953 0.59964 0.59824 0.0
Cd102 Cd 0.91045 0.57337 0.56071 0.0
C103 C 0.88021 0.59397 0.5848 0.0
O104 O 0.93952 0.61106 0.53617 0.0
O105 O 0.9074 0.58253 0.51328 0.0
O106 O 0.93778 0.55741 0.57197 0.0
C107 C 0.92783 0.60423 0.51418 0.0
O108 O 0.90129 0.60767 0.57339 0.0
C109 C 0.92886 0.53916 0.55516 0.0
O110 O 0.87081 0.56997 0.58307 0.0
O111 O 0.90793 0.53373 0.54358 0.0
C112 C 0.41467 0.35031 0.61025 0.0
O113 O 0.39426 0.33866 0.59627 0.0
Cd114 Cd 0.3945 0.31888 0.55559 0.0
O115 O 0.43622 0.35435 0.60135 0.0
Cd116 Cd 0.46338 0.3523 0.56545 0.0
C117 C 0.43466 0.29667 0.58429 0.0
O118 O 0.43171 0.34956 0.5353 0.0
O119 O 0.45542 0.33547 0.51946 0.0
O120 O 0.4838 0.39729 0.57619 0.0
C121 C 0.43734 0.33999 0.51586 0.0
O122 O 0.42073 0.30442 0.57431 0.0
C123 C 0.50188 0.40435 0.55954 0.0
O124 O 0.45874 0.31252 0.58643 0.0
O125 O 0.50497 0.38688 0.54912 0.0
C126 C 0.73037 0.57172 0.09991 0.0
O127 O 0.71287 0.55489 0.11429 0.0
Cd128 Cd 0.66777 0.52967 0.09906 0.0
O129 O 0.72425 0.57656 0.07766 0.0
Cd130 Cd 0.68191 0.56925 0.06761 0.0
C131 C 0.66325 0.57513 0.12682 0.0
O132 O 0.64802 0.52555 0.05513 0.0
O133 O 0.63722 0.55294 0.06871 0.0
O134 O 0.69493 0.57933 0.02219 0.0
C135 C 0.63124 0.53245 0.05611 0.0
O136 O 0.65086 0.5509 0.12542 0.0
C137 C 0.69417 0.59979 0.02218 0.0
O138 O 0.6807 0.5882 0.11007 0.0
O139 O 0.68802 0.60639 0.04379 0.0
C140 C 0.44905 0.1594 0.0935 0.0
O141 O 0.46895 0.16324 0.10597 0.0
Cd142 Cd 0.49107 0.14007 0.09324 0.0
O143 O 0.44058 0.14343 0.07444 0.0
Cd144 Cd 0.45052 0.11138 0.06061 0.0
C145 C 0.4445 0.08833 0.11998 0.0
O146 O 0.49506 0.12453 0.04908 0.0
O147 O 0.46964 0.08561 0.06207 0.0
O148 O 0.43955 0.11569 0.01606 0.0
C149 C 0.49005 0.10146 0.0503 0.0
O150 O 0.46881 0.10259 0.12044 0.0
C151 C 0.41955 0.09369 0.01482 0.0
O152 O 0.43124 0.09005 0.10147 0.0
O153 O 0.41418 0.0796 0.03506 0.0
C154 C 0.95201 0.34454 0.1102 0.0
O155 O 0.95902 0.33115 0.09688 0.0
Cd156 Cd 0.93709 0.30979 0.0575 0.0
O157 O 0.93515 0.34933 0.1013 0.0
Cd158 Cd 0.90523 0.34753 0.0665 0.0
C159 C 0.87648 0.29355 0.08722 0.0
O160 O 0.93312 0.3418 0.03758 0.0
O161 O 0.89632 0.33067 0.02016 0.0
O162 O 0.93407 0.39189 0.07613 0.0
C163 C 0.91843 0.33325 0.01765 0.0
O164 O 0.8979 0.30151 0.07619 0.0
C165 C 0.92414 0.40055 0.06033 0.0
O166 O 0.86849 0.30927 0.08969 0.0
O167 O 0.90215 0.38447 0.05069 0.0
C168 C 0.33325 0.38946 0.94393 0.0
O169 O 0.34257 0.37916 0.92906 0.0
Cd170 Cd 0.36851 0.40323 0.89332 0.0
O171 O 0.33304 0.40939 0.93685 0.0
Cd172 Cd 0.34068 0.43862 0.89976 0.0
C173 C 0.39677 0.46385 0.92752 0.0
O174 O 0.3412 0.4103 0.86731 0.0
O175 O 0.3637 0.45009 0.85734 0.0
O176 O 0.29518 0.41783 0.90725 0.0
C177 C 0.35475 0.42694 0.85046 0.0
O178 O 0.39424 0.44318 0.91788 0.0
C179 C 0.29098 0.4305 0.89032 0.0
O180 O 0.37927 0.46955 0.92467 0.0
O181 O 0.31054 0.45018 0.88107 0.0
C182 C 0.62185 0.95628 0.86115 0.0
O183 O 0.64299 0.96309 0.87308 0.0
Cd184 Cd 0.64483 0.94372 0.91268 0.0
O185 O 0.6002 0.93954 0.87071 0.0
Cd186 Cd 0.57464 0.9093 0.90695 0.0
C187 C 0.60028 0.88253 0.88561 0.0
O188 O 0.60934 0.93973 0.93583 0.0
O189 O 0.58573 0.90212 0.95182 0.0
O190 O 0.5499 0.93007 0.89902 0.0
C191 C 0.60422 0.92483 0.9551 0.0
O192 O 0.61198 0.90418 0.89668 0.0
C193 C 0.53384 0.91868 0.9174 0.0
O194 O 0.57596 0.87204 0.88406 0.0
O195 O 0.53426 0.90006 0.92801 0.0
C196 C 0.07011 0.67398 0.86365 0.0
O197 O 0.05928 0.68227 0.87919 0.0
Cd198 Cd 0.07947 0.70509 0.91902 0.0
O199 O 0.08967 0.67287 0.87094 0.0
Cd200 Cd 0.11537 0.6767 0.91034 0.0
C201 C 0.14204 0.73709 0.89108 0.0
O202 O 0.08789 0.67786 0.9424 0.0
O203 O 0.12755 0.69605 0.95499 0.0
O204 O 0.08568 0.63289 0.90403 0.0
C205 C 0.10444 0.68923 0.96051 0.0
O206 O 0.12146 0.73454 0.90109 0.0
C207 C 0.09803 0.62443 0.91633 0.0
O208 O 0.14587 0.71822 0.88926 0.0
O209 O 0.12143 0.64054 0.9224 0.0
C210 C 0.39482 0.90662 0.42452 0.0
O211 O 0.38191 0.88304 0.42968 0.0
Cd212 Cd 0.33569 0.86439 0.42255 0.0
O213 O 0.38394 0.91704 0.41316 0.0
Cd214 Cd 0.34196 0.90411 0.39471 0.0
C215 C 0.32944 0.90981 0.45545 0.0
O216 O 0.31198 0.86002 0.38068 0.0
O217 O 0.29652 0.88176 0.39939 0.0
O218 O 0.36084 0.9168 0.35173 0.0
C219 C 0.29286 0.86325 0.38444 0.0
O220 O 0.32619 0.88747 0.45661 0.0
C221 C 0.35479 0.93379 0.34898 0.0
O222 O 0.33681 0.9225 0.4342 0.0
O223 O 0.34249 0.93694 0.36776 0.0
C224 C 0.15846 0.43443 0.38044 0.0
O225 O 0.17334 0.45843 0.38092 0.0
Cd226 Cd 0.14264 0.47408 0.38403 0.0
O227 O 0.1356 0.42553 0.38799 0.0
Cd228 Cd 0.11087 0.44066 0.41006 0.0
C229 C 0.08938 0.42822 0.35224 0.0
O230 O 0.1214 0.48472 0.42056 0.0
O231 O 0.08529 0.45814 0.40102 0.0
O232 O 0.11786 0.43274 0.45528 0.0
C233 C 0.09804 0.47806 0.41526 0.0
O234 O 0.11037 0.44927 0.34947 0.0
C235 C 0.09576 0.41289 0.45708 0.0
O236 O 0.08272 0.41787 0.37476 0.0
O237 O 0.08075 0.40667 0.4372 0.0
C238 C 0.62264 0.6848 0.44237 0.0
O239 O 0.63147 0.67416 0.42724 0.0
Cd240 Cd 0.6106 0.65155 0.38772 0.0
O241 O 0.60395 0.68747 0.4352 0.0
Cd242 Cd 0.57636 0.68339 0.39736 0.0
C243 C 0.54884 0.62212 0.41714 0.0
O244 O 0.60336 0.68057 0.36684 0.0
O245 O 0.56561 0.66719 0.35071 0.0
O246 O 0.60746 0.72657 0.4054 0.0
C247 C 0.58828 0.67148 0.34725 0.0
O248 O 0.56876 0.62356 0.40663 0.0
C249 C 0.59661 0.73646 0.39283 0.0
O250 O 0.54594 0.6416 0.4189 0.0
O251 O 0.57314 0.72153 0.38599 0.0
H252 H 0.06265 0.80729 0.14996 0.0
H253 H 0.07976 0.79323 0.11346 0.0
H254 H 0.0202 0.71506 0.12604 0.0
H255 H 0.00356 0.72886 0.16288 0.0
H256 H 0.06449 0.71747 0.11511 0.0
H257 H 0.01244 0.74755 0.07871 0.0
H258 H 0.99798 0.7787 0.07531 0.0
H259 H 0.07176 0.8344 0.045 0.0
H260 H 0.08681 0.80366 0.04868 0.0
H261 H 0.05904 0.66666 0.98577 0.0
H262 H 0.04614 0.68428 0.02273 0.0
H263 H 0.12108 0.75244 0.02302 0.0
H264 H 0.13434 0.73467 0.98622 0.0
H265 H 0.06979 0.75554 0.02674 0.0
H266 H 0.11935 0.71941 0.06587 0.0
H267 H 0.12707 0.68331 0.06635 0.0
H268 H 0.04849 0.63262 0.08808 0.0
H269 H 0.04025 0.66843 0.08736 0.0
C270 C 0.05322 0.78716 0.14479 0.0
C271 C 0.03163 0.76916 0.1588 0.0
C272 C 0.06307 0.77914 0.12418 0.0
C273 C 0.05103 0.75316 0.11704 0.0
C274 C 0.02978 0.73516 0.13139 0.0
C275 C 0.02017 0.74311 0.15217 0.0
C276 C 0.0593 0.74489 0.09331 0.0
C277 C 0.06568 0.72583 0.09584 0.0
C278 C 0.06025 0.75541 0.06811 0.0
C279 C 0.05081 0.77339 0.06414 0.0
C280 C 0.02558 0.76645 0.07131 0.0
C281 C 0.0173 0.78404 0.0694 0.0
C282 C 0.03397 0.80854 0.06 0.0
C283 C 0.05889 0.81542 0.0523 0.0
C284 C 0.0673 0.79791 0.05426 0.0
C285 C 0.07275 0.68536 -0.00616 0.0
C286 C 0.09774 0.69925 0.98369 0.0
C287 C 0.0653 0.69544 0.01461 0.0
C288 C 0.08268 0.71962 0.02517 0.0
C289 C 0.1075 0.73379 0.01477 0.0
C290 C 0.11514 0.72351 -0.00578 0.0
C291 C 0.07563 0.72884 0.04888 0.0
C292 C 0.06908 0.74769 0.04619 0.0
C293 C 0.07369 0.71755 0.07375 0.0
C294 C 0.07921 0.69657 0.0766 0.0
C295 C 0.10376 0.70058 0.07087 0.0
C296 C 0.10821 0.68017 0.0711 0.0
C297 C 0.08828 0.65568 0.07724 0.0
C298 C 0.06392 0.65161 0.08338 0.0
C299 C 0.05937 0.67197 0.08314 0.0
H300 H 0.09171 0.63987 0.07724 0.0
H301 H 0.02757 0.82219 0.05866 0.0
H302 H 0.31197 0.34009 0.95913 0.0
H303 H 0.29923 0.32356 0.00424 0.0
H304 H 0.32164 0.39912 0.03347 0.0
H305 H 0.33379 0.4157 -0.01168 0.0
H306 H 0.34424 0.36988 0.05925 0.0
H307 H 0.26433 0.36476 0.03519 0.0
H308 H 0.22781 0.35263 0.00479 0.0
H309 H 0.20608 0.27379 0.01015 0.0
H310 H 0.24268 0.28549 0.04037 0.0
H311 H 0.30966 0.33327 0.19084 0.0
H312 H 0.31254 0.35297 0.1479 0.0
H313 H 0.2679 0.27824 0.11122 0.0
H314 H 0.26366 0.25857 0.15459 0.0
H315 H 0.25551 0.30937 0.08941 0.0
H316 H 0.33442 0.31191 0.1088 0.0
H317 H 0.37175 0.32111 0.13671 0.0
H318 H 0.3968 0.40102 0.13689 0.0
H319 H 0.35942 0.39224 0.10922 0.0
C320 C 0.31386 0.35306 0.97515 0.0
C321 C 0.32377 0.37908 0.9704 0.0
C322 C 0.30655 0.34363 0.00076 0.0
C323 C 0.30953 0.36021 0.02191 0.0
C324 C 0.31916 0.38614 0.01722 0.0
C325 C 0.32596 0.39549 -0.00849 0.0
C326 C 0.30402 0.35058 0.04919 0.0
C327 C 0.32485 0.35707 0.06615 0.0
C328 C 0.27877 0.33322 0.05748 0.0
C329 C 0.25632 0.32602 0.03994 0.0
C330 C 0.25183 0.34485 0.02979 0.0
C331 C 0.23111 0.33805 0.01261 0.0
C332 C 0.21465 0.31246 0.00552 0.0
C333 C 0.21883 0.2936 0.01568 0.0
C334 C 0.23953 0.3003 0.03289 0.0
C335 C 0.30041 0.32115 0.17357 0.0
C336 C 0.28682 0.29453 0.17568 0.0
C337 C 0.302 0.33235 0.14913 0.0
C338 C 0.29091 0.31704 0.12628 0.0
C339 C 0.2766 0.29039 0.1286 0.0
C340 C 0.27436 0.2792 0.15324 0.0
C341 C 0.2958 0.32875 0.09975 0.0
C342 C 0.27491 0.3225 0.08279 0.0
C343 C 0.32112 0.34594 0.09114 0.0
C344 C 0.34404 0.3514 0.10711 0.0
C345 C 0.34786 0.33144 0.11485 0.0
C346 C 0.36901 0.33657 0.13064 0.0
C347 C 0.38661 0.36163 0.13861 0.0
C348 C 0.38314 0.38162 0.13071 0.0
C349 C 0.362 0.37658 0.11494 0.0
H350 H 0.40295 0.36556 0.15088 0.0
H351 H 0.19865 0.30723 -0.00782 0.0
H352 H 0.73582 0.96782 0.17061 0.0
H353 H 0.71616 0.95159 0.1267 0.0
H354 H 0.7234 0.02448 0.11017 0.0
H355 H 0.74131 0.03984 0.15464 0.0
H356 H 0.67741 0.98944 0.1024 0.0
H357 H 0.75893 1.00006 0.07773 0.0
H358 H 0.79651 0.9945 0.08047 0.0
H359 H 0.74765 0.91355 0.0693 0.0
H360 H 0.7097 0.91855 0.06695 0.0
H361 H 0.64118 0.97274 0.96882 0.0
H362 H 0.67067 0.98603 0.0066 0.0
H363 H 0.63813 0.90746 0.02928 0.0
H364 H 0.60821 0.89385 -0.00861 0.0
H365 H 0.69648 0.94253 0.0331 0.0
H366 H 0.61503 0.93414 0.0591 0.0
H367 H 0.57912 0.94204 0.05388 0.0
H368 H 0.63152 0.02282 0.06074 0.0
H369 H 0.66784 0.01542 0.0654 0.0
C370 C 0.73332 0.9803 0.15738 0.0
C371 C 0.73952 0.00488 0.16585 0.0
C372 C 0.7224 0.97116 0.13227 0.0
C373 C 0.71838 0.98685 0.11513 0.0
C374 C 0.72612 0.01197 0.12316 0.0
C375 C 0.73623 0.02074 0.14848 0.0
C376 C 0.70321 0.97638 0.0904 0.0
C377 C 0.68196 0.97956 0.08713 0.0
C378 C 0.70858 0.96272 0.07085 0.0
C379 C 0.7314 0.95966 0.07252 0.0
C380 C 0.75614 0.98104 0.07616 0.0
C381 C 0.77753 0.97799 0.07758 0.0
C382 C 0.77446 0.95368 0.07516 0.0
C383 C 0.75 0.93236 0.07124 0.0
C384 C 0.72854 0.9353 0.06986 0.0
C385 C 0.64041 0.95825 0.98171 0.0
C386 C 0.62222 0.93232 0.97751 0.0
C387 C 0.65736 0.96586 0.0031 0.0
C388 C 0.65641 0.94766 0.02053 0.0
C389 C 0.63907 0.92165 0.01582 0.0
C390 C 0.62186 0.91399 -0.00553 0.0
C391 C 0.67145 0.95628 0.04527 0.0
C392 C 0.69231 0.95254 0.04855 0.0
C393 C 0.6661 0.96981 0.06479 0.0
C394 C 0.64419 0.97422 0.06227 0.0
C395 C 0.61894 0.9536 0.0592 0.0
C396 C 0.5985 0.95799 0.05638 0.0
C397 C 0.60304 0.98292 0.05689 0.0
C398 C 0.62803 0.00352 0.06029 0.0
C399 C 0.64855 0.99924 0.06301 0.0
H400 H 0.58719 0.98628 0.05473 0.0
H401 H 0.79104 0.95136 0.07624 0.0
H402 H 0.65921 0.07256 0.46575 0.0
H403 H 0.67752 0.0597 0.42922 0.0
H404 H 0.7509 0.09648 0.46981 0.0
H405 H 0.73272 0.11005 0.50575 0.0
H406 H 0.75666 0.10817 0.41898 0.0
H407 H 0.71192 0.02998 0.46836 0.0
H408 H 0.6751 0.99396 0.49048 0.0
H409 H 0.63229 0.97301 0.41721 0.0
H410 H 0.66881 0.00897 0.3947 0.0
H411 H 0.80758 0.04784 0.33379 0.0
H412 H 0.79361 0.06228 0.3729 0.0
H413 H 0.72008 0.03619 0.33541 0.0
H414 H 0.73367 0.02184 0.29661 0.0
H415 H 0.71678 0.01843 0.38685 0.0
H416 H 0.75891 0.09717 0.33835 0.0
H417 H 0.79478 0.1331 0.31511 0.0
H418 H 0.8413 0.15283 0.38574 0.0
H419 H 0.80573 0.11685 0.40933 0.0
C420 C 0.67929 0.07807 0.46649 0.0
C421 C 0.69487 0.09252 0.48791 0.0
C422 C 0.68963 0.07049 0.44596 0.0
C423 C 0.71545 0.07686 0.4471 0.0
C424 C 0.73096 0.09142 0.46863 0.0
C425 C 0.7207 0.09924 0.48895 0.0
C426 C 0.72659 0.06925 0.42529 0.0
C427 C 0.74824 0.08847 0.41227 0.0
C428 C 0.71519 0.04363 0.41625 0.0
C429 C 0.69304 0.02228 0.42991 0.0
C430 C 0.69458 0.01781 0.45703 0.0
C431 C 0.67379 0.99736 0.46962 0.0
C432 C 0.65136 0.98124 0.45528 0.0
C433 C 0.64968 0.98551 0.4283 0.0
C434 C 0.67043 0.00588 0.41561 0.0
C435 C 0.7885 0.04531 0.33394 0.0
C436 C 0.77164 0.0336 0.31233 0.0
C437 C 0.78062 0.05362 0.35614 0.0
C438 C 0.75585 0.05017 0.35684 0.0
C439 C 0.73921 0.03883 0.33515 0.0
C440 C 0.74705 0.03068 0.31304 0.0
C441 C 0.74661 0.05737 0.38055 0.0
C442 C 0.72535 0.03805 0.39387 0.0
C443 C 0.75825 0.08287 0.38977 0.0
C444 C 0.7798 0.10415 0.37548 0.0
C445 C 0.77689 0.109 0.34883 0.0
C446 C 0.79713 0.12943 0.33562 0.0
C447 C 0.82033 0.14519 0.34891 0.0
C448 C 0.82333 0.14058 0.37545 0.0
C449 C 0.80314 0.1202 0.38876 0.0
H450 H 0.83596 0.16102 0.33867 0.0
H451 H 0.63529 0.96541 0.46505 0.0
H452 H 0.91658 0.59239 0.46163 0.0
H453 H 0.93336 0.62204 0.42433 0.0
H454 H 0.97509 0.68513 0.47926 0.0
H455 H 0.95934 0.6557 0.51645 0.0
H456 H 0.94061 0.68807 0.43536 0.0
H457 H 0.01193 0.6767 0.45295 0.0
H458 H 0.03389 0.65273 0.46189 0.0
H459 H 0.00711 0.61284 0.38701 0.0
H460 H 0.98461 0.63625 0.37783 0.0
H461 H 0.00379 0.76638 0.32042 0.0
H462 H 0.99263 0.74848 0.36517 0.0
H463 H 0.96907 0.6737 0.33229 0.0
H464 H 0.98124 0.69168 0.28792 0.0
H465 H 0.00176 0.68506 0.37143 0.0
H466 H 0.92631 0.69283 0.35618 0.0
H467 H 0.9033 0.71587 0.34774 0.0
H468 H 0.93697 0.76196 0.41806 0.0
H469 H 0.96047 0.73942 0.42672 0.0
C470 C 0.92921 0.61258 0.46569 0.0
C471 C 0.93654 0.62182 0.49182 0.0
C472 C 0.93882 0.62939 0.4445 0.0
C473 C 0.9554 0.65556 0.44934 0.0
C474 C 0.9623 0.66493 0.47538 0.0
C475 C 0.95323 0.64809 0.4965 0.0
C476 C 0.96534 0.673 0.42692 0.0
C477 C 0.95433 0.68789 0.42149 0.0
C478 C 0.98317 0.67248 0.40918 0.0
C479 C 0.99631 0.65802 0.41486 0.0
C480 C 0.01042 0.66257 0.43855 0.0
C481 C 0.02305 0.64915 0.44362 0.0
C482 C 0.02183 0.63121 0.42507 0.0
C483 C 0.008 0.62669 0.40139 0.0
C484 C 0.99532 0.64005 0.39624 0.0
C485 C 0.99585 0.74606 0.32285 0.0
C486 C 0.99351 0.73031 0.301 0.0
C487 C 0.98945 0.73589 0.34831 0.0
C488 C 0.9801 0.70981 0.35196 0.0
C489 C 0.97653 0.69394 0.32986 0.0
C490 C 0.98342 0.70415 0.30459 0.0
C491 C 0.97579 0.69899 0.37879 0.0
C492 C 0.98824 0.68559 0.38531 0.0
C493 C 0.9592 0.70086 0.39742 0.0
C494 C 0.94545 0.71471 0.39186 0.0
C495 C 0.92905 0.70809 0.36966 0.0
C496 C 0.91586 0.72101 0.36488 0.0
C497 C 0.91875 0.74044 0.38229 0.0
C498 C 0.93481 0.74697 0.40455 0.0
C499 C 0.94807 0.73413 0.40939 0.0
H500 H 0.90848 0.75038 0.37858 0.0
H501 H 0.03165 0.62087 0.429 0.0
H502 H 0.43701 0.30871 0.47595 0.0
H503 H 0.40678 0.29105 0.43847 0.0
H504 H 0.36813 0.32992 0.46725 0.0
H505 H 0.39778 0.34722 0.50477 0.0
H506 H 0.3342 0.28248 0.45015 0.0
H507 H 0.41019 0.3558 0.41916 0.0
H508 H 0.45711 0.38254 0.41395 0.0
H509 H 0.45767 0.32352 0.36652 0.0
H510 H 0.41073 0.29622 0.37185 0.0
H511 H 0.27724 0.2902 0.32902 0.0
H512 H 0.3091 0.30577 0.36526 0.0
H513 H 0.32367 0.24442 0.34893 0.0
H514 H 0.29117 0.22828 0.31329 0.0
H515 H 0.36997 0.30279 0.35868 0.0
H516 H 0.2909 0.22917 0.39425 0.0
H517 H 0.24375 0.207 0.39842 0.0
H518 H 0.2496 0.27349 0.4364 0.0
H519 H 0.29682 0.29617 0.43203 0.0
C520 C 0.42207 0.31347 0.4742 0.0
C521 C 0.41987 0.32954 0.49299 0.0
C522 C 0.40482 0.30332 0.45295 0.0
C523 C 0.38547 0.30943 0.45015 0.0
C524 C 0.38293 0.32499 0.4692 0.0
C525 C 0.40002 0.335 0.49045 0.0
C526 C 0.36872 0.30089 0.42654 0.0
C527 C 0.34205 0.28694 0.4302 0.0
C528 C 0.37903 0.30707 0.40059 0.0
C529 C 0.407 0.32389 0.39608 0.0
C530 C 0.42033 0.3485 0.40766 0.0
C531 C 0.44692 0.36374 0.40472 0.0
C532 C 0.46037 0.3547 0.38997 0.0
C533 C 0.44722 0.33047 0.37796 0.0
C534 C 0.42061 0.31511 0.38091 0.0
C535 C 0.28711 0.27998 0.3335 0.0
C536 C 0.28152 0.25777 0.31923 0.0
C537 C 0.30542 0.28902 0.35376 0.0
C538 C 0.31865 0.27624 0.35933 0.0
C539 C 0.31359 0.25445 0.34458 0.0
C540 C 0.29482 0.24505 0.32475 0.0
C541 C 0.33572 0.28405 0.38248 0.0
C542 C 0.36232 0.29807 0.37869 0.0
C543 C 0.32541 0.2785 0.40835 0.0
C544 C 0.2973 0.26434 0.41276 0.0
C545 C 0.2821 0.23903 0.4035 0.0
C546 C 0.25538 0.2264 0.40585 0.0
C547 C 0.24368 0.23884 0.41765 0.0
C548 C 0.2587 0.26388 0.42728 0.0
C549 C 0.28544 0.27661 0.42492 0.0
H550 H 0.22298 0.22907 0.41935 0.0
H551 H 0.48098 0.36649 0.3878 0.0
H552 H 0.94888 0.2454 0.7992 0.0
H553 H 0.93821 0.26252 0.83831 0.0
H554 H 0.01225 0.28489 0.87297 0.0
H555 H 0.02207 0.26609 0.83443 0.0
H556 H 0.9782 0.26265 0.90783 0.0
H557 H 0.99571 0.32944 0.84775 0.0
H558 H 0.9935 0.35066 0.80722 0.0
H559 H 0.91275 0.32004 0.81918 0.0
H560 H 0.91437 0.29838 0.85958 0.0
H561 H 0.96456 0.33755 0.00919 0.0
H562 H 0.97721 0.32043 0.97207 0.0
H563 H 0.9008 0.28652 0.93884 0.0
H564 H 0.88791 0.30404 0.97609 0.0
H565 H 0.93832 0.31641 0.90429 0.0
H566 H 0.92331 0.24969 0.96616 0.0
H567 H 0.92883 0.23184 0.00771 0.0
H568 H 0.00979 0.26729 -0.00677 0.0
H569 H 0.00484 0.28561 0.95178 0.0
C570 C 0.96271 0.25395 0.81532 0.0
C571 C 0.98598 0.25425 0.81446 0.0
C572 C 0.95684 0.26404 0.83739 0.0
C573 C 0.97462 0.27536 0.85834 0.0
C574 C 0.99826 0.27619 0.85702 0.0
C575 C 0.00381 0.26542 0.83524 0.0
C576 C 0.96751 0.28419 0.88257 0.0
C577 C 0.96991 0.27481 0.90711 0.0
C578 C 0.9563 0.29968 0.88148 0.0
C579 C 0.95513 0.31207 0.85663 0.0
C580 C 0.97742 0.32698 0.84159 0.0
C581 C 0.97628 0.33916 0.81867 0.0
C582 C 0.953 0.33666 0.8106 0.0
C583 C 0.93078 0.32195 0.82543 0.0
C584 C 0.9318 0.30974 0.84836 0.0
C585 C 0.95032 0.32628 -0.0059 0.0
C586 C 0.92529 0.32227 -0.00472 0.0
C587 C 0.95755 0.3163 0.97309 0.0
C588 C 0.93983 0.30201 0.95304 0.0
C589 C 0.91463 0.29746 0.95437 0.0
C590 C 0.90736 0.30756 0.97544 0.0
C591 C 0.94851 0.29439 0.92922 0.0
C592 C 0.94661 0.30424 0.90485 0.0
C593 C 0.9607 0.27984 0.93059 0.0
C594 C 0.9637 0.26923 0.95592 0.0
C595 C 0.94233 0.25392 0.97196 0.0
C596 C 0.94535 0.24364 -0.00453 0.0
C597 C 0.96965 0.24846 0.00312 0.0
C598 C 0.99098 0.26358 -0.01271 0.0
C599 C 0.98807 0.27389 0.96378 0.0
H600 H 0.97193 0.24045 0.02129 0.0
H601 H 0.95217 0.34615 0.7929 0.0
H602 H 0.70551 0.58846 0.97336 0.0
H603 H 0.71646 0.61399 0.93332 0.0
H604 H 0.70761 0.6711 0.97605 0.0
H605 H 0.69624 0.6454 0.01634 0.0
H606 H 0.68551 0.66064 0.92635 0.0
H607 H 0.76641 0.68151 0.96487 0.0
H608 H 0.79883 0.67311 0.98409 0.0
H609 H 0.80008 0.63568 0.91144 0.0
H610 H 0.76738 0.64355 0.8919 0.0
H611 H 0.76429 0.76412 0.83749 0.0
H612 H 0.74861 0.73727 0.87713 0.0
H613 H 0.73577 0.67195 0.8299 0.0
H614 H 0.75033 0.69852 0.79 0.0
H615 H 0.76853 0.68707 0.88164 0.0
H616 H 0.68696 0.66596 0.84357 0.0
H617 H 0.65527 0.67542 0.82442 0.0
H618 H 0.65628 0.71464 0.89659 0.0
H619 H 0.68837 0.70579 0.91601 0.0
C620 C 0.70588 0.60645 0.97428 0.0
C621 C 0.70027 0.61509 -0.00199 0.0
C622 C 0.71218 0.621 0.95141 0.0
C623 C 0.71317 0.64453 0.95193 0.0
C624 C 0.707 0.65299 0.97538 0.0
C625 C 0.70062 0.63837 -0.00167 0.0
C626 C 0.72099 0.66033 0.92793 0.0
C627 C 0.7038 0.66673 0.91676 0.0
C628 C 0.74467 0.66779 0.91526 0.0
C629 C 0.76425 0.66291 0.92701 0.0
C630 C 0.77342 0.67129 0.95307 0.0
C631 C 0.79189 0.66666 0.96401 0.0
C632 C 0.80146 0.65381 0.94902 0.0
C633 C 0.79262 0.6456 0.92304 0.0
C634 C 0.77414 0.65016 0.91202 0.0
C635 C 0.75806 0.74402 0.83572 0.0
C636 C 0.7585 0.73316 0.81108 0.0
C637 C 0.74903 0.72877 0.85816 0.0
C638 C 0.74103 0.70278 0.85616 0.0
C639 C 0.74177 0.692 0.83158 0.0
C640 C 0.75006 0.70707 0.80898 0.0
C641 C 0.73301 0.68715 0.88011 0.0
C642 C 0.75025 0.68092 0.89129 0.0
C643 C 0.70948 0.67998 0.89279 0.0
C644 C 0.69036 0.68553 0.8811 0.0
C645 C 0.68071 0.67691 0.85523 0.0
C646 C 0.6626 0.68208 0.84436 0.0
C647 C 0.65384 0.6957 0.85924 0.0
C648 C 0.66314 0.70414 0.88506 0.0
C649 C 0.68128 0.69905 0.89601 0.0
H650 H 0.63978 0.69965 0.85081 0.0
H651 H 0.81577 0.65027 0.95752 0.0
H652 H 0.37482 0.0485 0.00695 0.0
H653 H 0.3468 0.03535 0.96774 0.0
H654 H 0.39884 0.10678 0.93028 0.0
H655 H 0.42678 0.12016 0.96937 0.0
H656 H 0.34911 0.09448 0.92505 0.0
H657 H 0.39964 0.0549 0.91263 0.0
H658 H 0.41815 0.02826 0.92397 0.0
H659 H 0.34246 0.96235 0.92857 0.0
H660 H 0.32346 0.98872 0.91769 0.0
H661 H 0.3227 0.06451 0.78676 0.0
H662 H 0.34041 0.07746 0.83197 0.0
H663 H 0.27974 0.0057 0.86187 0.0
H664 H 0.26199 0.99287 0.81662 0.0
H665 H 0.32928 0.01627 0.87359 0.0
H666 H 0.27996 0.05783 0.88005 0.0
H667 H 0.26436 0.08611 0.86542 0.0
H668 H 0.34132 0.1503 0.86824 0.0
H669 H 0.35745 0.12236 0.88255 0.0
C670 C 0.38029 0.06135 -0.00967 0.0
C671 C 0.40297 0.0853 -0.00888 0.0
C672 C 0.36429 0.05384 0.96802 0.0
C673 C 0.37088 0.07013 0.94623 0.0
C674 C 0.39344 0.09406 0.94703 0.0
C675 C 0.40942 0.10158 0.96928 0.0
C676 C 0.35453 0.06212 0.92228 0.0
C677 C 0.34483 0.07745 0.91367 0.0
C678 C 0.34875 0.03971 0.90784 0.0
C679 C 0.36011 0.02387 0.91475 0.0
C680 C 0.38692 0.0348 0.91638 0.0
C681 C 0.39751 0.01973 0.92266 0.0
C682 C 0.38149 0.99365 0.9271 0.0
C683 C 0.35485 0.98258 0.92522 0.0
C684 C 0.34416 0.99757 0.91901 0.0
C685 C 0.31307 0.05181 0.80317 0.0
C686 C 0.29129 0.02778 0.7987 0.0
C687 C 0.32299 0.05921 0.82886 0.0
C688 C 0.31121 0.04253 0.85011 0.0
C689 C 0.28892 0.01879 0.84563 0.0
C690 C 0.27889 0.01149 0.81998 0.0
C691 C 0.32394 0.04866 0.87626 0.0
C692 C 0.33311 0.03303 0.88523 0.0
C693 C 0.32961 0.07104 0.89069 0.0
C694 C 0.31994 0.08793 0.88219 0.0
C695 C 0.29359 0.07794 0.87735 0.0
C696 C 0.28465 0.09392 0.86916 0.0
C697 C 0.30184 0.11998 0.86585 0.0
C698 C 0.32802 0.13011 0.8708 0.0
C699 C 0.33707 0.11421 0.879 0.0
H700 H 0.29488 0.13231 0.85949 0.0
H701 H 0.38972 0.98201 0.93191 0.0
H702 H 0.29385 1.00014 0.67212 0.0
H703 H 0.30685 0.9827 0.63575 0.0
H704 H 0.24329 0.9737 0.58821 0.0
H705 H 0.22901 0.98979 0.6256 0.0
H706 H 0.24885 0.93359 0.58263 0.0
H707 H 0.30592 0.02474 0.58135 0.0
H708 H 0.33675 0.06673 0.6011 0.0
H709 H 0.3893 0.04067 0.61724 0.0
H710 H 0.35859 0.99835 0.59804 0.0
H711 H 0.2993 0.93048 0.4557 0.0
H712 H 0.28722 0.94702 0.49444 0.0
H713 H 0.33477 0.9309 0.54487 0.0
H714 H 0.34607 0.9133 0.50621 0.0
H715 H 0.33837 0.98316 0.54942 0.0
H716 H 0.28142 0.89232 0.55036 0.0
H717 H 0.25074 0.85046 0.53041 0.0
H718 H 0.1979 0.8763 0.51493 0.0
H719 H 0.22864 0.91865 0.53406 0.0
C720 C 0.28245 0.99431 0.65404 0.0
C721 C 0.26039 0.99631 0.65161 0.0
C722 C 0.29006 0.98451 0.63319 0.0
C723 C 0.27637 0.97748 0.60916 0.0
C724 C 0.25416 0.9792 0.60666 0.0
C725 C 0.24611 0.98846 0.62787 0.0
C726 C 0.28542 0.96844 0.58665 0.0
C727 C 0.2683 0.94459 0.57511 0.0
C728 C 0.31107 0.98258 0.57748 0.0
C729 C 0.32985 0.00828 0.58842 0.0
C730 C 0.324 0.02791 0.58923 0.0
C731 C 0.34144 0.05177 0.60034 0.0
C732 C 0.36494 0.05635 0.61046 0.0
C733 C 0.37108 0.03709 0.60941 0.0
C734 C 0.35366 0.01317 0.5984 0.0
C735 C 0.30718 0.9306 0.47508 0.0
C736 C 0.32336 0.9206 0.47837 0.0
C737 C 0.30033 0.93999 0.49703 0.0
C738 C 0.31012 0.93998 0.52224 0.0
C739 C 0.32709 0.93089 0.52541 0.0
C740 C 0.33336 0.92079 0.50354 0.0
C741 C 0.30169 0.94861 0.54541 0.0
C742 C 0.31894 0.97229 0.55702 0.0
C743 C 0.27618 0.93439 0.5546 0.0
C744 C 0.25755 0.90884 0.54327 0.0
C745 C 0.26344 0.88925 0.54234 0.0
C746 C 0.24601 0.86539 0.53122 0.0
C747 C 0.22243 0.86075 0.5213 0.0
C748 C 0.21622 0.87996 0.52253 0.0
C749 C 0.23366 0.90391 0.53348 0.0
H750 H 0.20893 0.84225 0.51274 0.0
H751 H 0.37841 0.07483 0.61908 0.0
H752 H 0.01285 0.24471 0.64046 0.0
H753 H 0.0242 0.26979 0.59986 0.0
H754 H 0.0615 0.33935 0.64721 0.0
H755 H 0.04831 0.31413 0.68784 0.0
H756 H 0.03644 0.3449 0.60998 0.0
H757 H 0.09537 0.31325 0.61175 0.0
H758 H 0.10696 0.27987 0.61451 0.0
H759 H 0.06269 0.24341 0.54395 0.0
H760 H 0.05065 0.27645 0.54092 0.0
H761 H 0.11563 0.42721 0.50708 0.0
H762 H 0.10223 0.40051 0.54674 0.0
H763 H 0.04592 0.33645 0.49988 0.0
H764 H 0.05876 0.36309 0.46031 0.0
H765 H 0.08001 0.32784 0.53541 0.0
H766 H 0.02236 0.36068 0.53359 0.0
H767 H 0.01222 0.39502 0.53047 0.0
H768 H 0.05614 0.43044 0.60149 0.0
H769 H 0.06693 0.39651 0.60477 0.0
C770 C 0.02358 0.26536 0.64203 0.0
C771 C 0.03001 0.27768 0.66695 0.0
C772 C 0.03016 0.27966 0.61892 0.0
C773 C 0.04424 0.30645 0.62048 0.0
C774 C 0.05068 0.31871 0.64554 0.0
C775 C 0.0433 0.30438 0.66866 0.0
C776 C 0.05198 0.32175 0.59604 0.0
C777 C 0.0463 0.34136 0.59389 0.0
C778 C 0.0643 0.31677 0.57473 0.0
C779 C 0.07197 0.2972 0.57623 0.0
C780 C 0.08805 0.29806 0.59688 0.0
C781 C 0.09469 0.27921 0.59849 0.0
C782 C 0.08552 0.2595 0.57946 0.0
C783 C 0.06977 0.25867 0.55869 0.0
C784 C 0.06307 0.27748 0.55699 0.0
C785 C 0.10039 0.40745 0.50532 0.0
C786 C 0.08802 0.39716 0.48086 0.0
C787 C 0.0928 0.39231 0.52786 0.0
C788 C 0.07311 0.36672 0.52598 0.0
C789 C 0.06113 0.35625 0.5015 0.0
C790 C 0.06836 0.37148 0.47907 0.0
C791 C 0.06474 0.35093 0.54978 0.0
C792 C 0.07024 0.33128 0.55168 0.0
C793 C 0.0525 0.35601 0.57092 0.0
C794 C 0.04568 0.3762 0.56926 0.0
C795 C 0.03005 0.37591 0.54841 0.0
C796 C 0.02415 0.39528 0.54664 0.0
C797 C 0.03359 0.41495 0.56573 0.0
C798 C 0.04888 0.41522 0.58669 0.0
C799 C 0.05488 0.39591 0.58853 0.0
H800 H 0.02901 0.42994 0.56431 0.0
H801 H 0.09064 0.24489 0.58077 0.0
H802 H 0.66965 0.69497 0.45904 0.0
H803 H 0.68836 0.70893 0.50332 0.0
H804 H 0.62092 0.71014 0.52955 0.0
H805 H 0.60219 0.69668 0.48489 0.0
H806 H 0.66578 0.75129 0.54876 0.0
H807 H 0.62624 0.66097 0.54623 0.0
H808 H 0.61535 0.61939 0.52621 0.0
H809 H 0.69476 0.64056 0.52891 0.0
H810 H 0.7062 0.68245 0.54857 0.0
H811 H 0.71051 0.75393 0.68359 0.0
H812 H 0.68197 0.73778 0.64456 0.0
H813 H 0.7457 0.74919 0.59569 0.0
H814 H 0.77452 0.76628 0.6345 0.0
H815 H 0.69499 0.6978 0.5928 0.0
H816 H 0.73393 0.79032 0.58917 0.0
H817 H 0.74448 0.83207 0.60836 0.0
H818 H 0.6642 0.80559 0.61789 0.0
H819 H 0.65319 0.76343 0.59924 0.0
C820 C 0.6588 0.69824 0.47419 0.0
C821 C 0.63435 0.69441 0.46869 0.0
C822 C 0.66949 0.7062 0.49943 0.0
C823 C 0.65571 0.70998 0.51971 0.0
C824 C 0.6317 0.70713 0.5141 0.0
C825 C 0.62106 0.6994 0.48868 0.0
C826 C 0.66641 0.71617 0.54686 0.0
C827 C 0.67168 0.73936 0.5587 0.0
C828 C 0.67398 0.70048 0.5597 0.0
C829 C 0.66709 0.67491 0.54881 0.0
C830 C 0.6414 0.65679 0.5425 0.0
C831 C 0.63512 0.63317 0.53119 0.0
C832 C 0.65435 0.62735 0.52627 0.0
C833 C 0.67988 0.64509 0.53276 0.0
C834 C 0.68627 0.66877 0.54404 0.0
C835 C 0.71831 0.75295 0.66445 0.0
C836 C 0.74454 0.76133 0.66171 0.0
C837 C 0.70209 0.74377 0.64235 0.0
C838 C 0.7119 0.74236 0.61753 0.0
C839 C 0.73798 0.75022 0.61486 0.0
C840 C 0.75436 0.76006 0.63682 0.0
C841 C 0.69515 0.73326 0.59402 0.0
C842 C 0.68859 0.70942 0.58307 0.0
C843 C 0.68617 0.74821 0.58219 0.0
C844 C 0.69275 0.77359 0.5932 0.0
C845 C 0.71853 0.79328 0.59567 0.0
C846 C 0.7246 0.81704 0.60639 0.0
C847 C 0.70502 0.82145 0.61445 0.0
C848 C 0.67934 0.80212 0.61172 0.0
C849 C 0.67318 0.77828 0.60109 0.0
H850 H 0.70976 0.83988 0.62272 0.0
H851 H 0.64947 0.60908 0.51745 0.0
H852 H 0.40492 0.44981 0.83656 0.0
H853 H 0.42354 0.43543 0.80189 0.0
H854 H 0.34764 0.37358 0.78099 0.0
H855 H 0.32934 0.38705 0.81671 0.0
H856 H 0.38046 0.35773 0.77684 0.0
H857 H 0.37699 0.432 0.74821 0.0
H858 H 0.38701 0.47648 0.75404 0.0
H859 H 0.46772 0.50268 0.75256 0.0
H860 H 0.45813 0.45826 0.74706 0.0
H861 H 0.37178 0.33793 0.63919 0.0
H862 H 0.36989 0.35093 0.6849 0.0
H863 H 0.45266 0.3945 0.68877 0.0
H864 H 0.45486 0.38158 0.64294 0.0
H865 H 0.42718 0.42082 0.70612 0.0
H866 H 0.42577 0.34274 0.72216 0.0
H867 H 0.41103 0.29727 0.71384 0.0
H868 H 0.33432 0.27691 0.73588 0.0
H869 H 0.3485 0.32229 0.74397 0.0
C870 C 0.39234 0.43327 0.82434 0.0
C871 C 0.36574 0.41984 0.82849 0.0
C872 C 0.40294 0.42494 0.80482 0.0
C873 C 0.38691 0.40368 0.78863 0.0
C874 C 0.36036 0.38998 0.7933 0.0
C875 C 0.34988 0.39787 0.81332 0.0
C876 C 0.39715 0.39698 0.76518 0.0
C877 C 0.39078 0.37151 0.76141 0.0
C878 C 0.41106 0.41512 0.74534 0.0
C879 C 0.41687 0.44187 0.74745 0.0
C880 C 0.39687 0.44727 0.74913 0.0
C881 C 0.40247 0.47244 0.75243 0.0
C882 C 0.42799 0.49239 0.75373 0.0
C883 C 0.44797 0.48721 0.75158 0.0
C884 C 0.44247 0.46204 0.74836 0.0
C885 C 0.3896 0.3503 0.6497 0.0
C886 C 0.41346 0.35876 0.6375 0.0
C887 C 0.38848 0.35752 0.67585 0.0
C888 C 0.41116 0.3733 0.69014 0.0
C889 C 0.43501 0.38211 0.67799 0.0
C890 C 0.43618 0.37473 0.65186 0.0
C891 C 0.40957 0.38143 0.7174 0.0
C892 C 0.41763 0.4072 0.7219 0.0
C893 C 0.39667 0.36341 0.73758 0.0
C894 C 0.38822 0.33598 0.73363 0.0
C895 C 0.40574 0.32858 0.72517 0.0
C896 C 0.39748 0.30281 0.72048 0.0
C897 C 0.37175 0.28421 0.72432 0.0
C898 C 0.35425 0.29134 0.73295 0.0
C899 C 0.36241 0.31708 0.73765 0.0
H900 H 0.36538 0.26427 0.72062 0.0
H901 H 0.43229 0.51187 0.75636 0.0
H902 H 0.64008 0.07216 0.6393 0.0
H903 H 0.62526 0.05362 0.68329 0.0
H904 H 0.67918 0.02695 0.68215 0.0
H905 H 0.69371 0.04491 0.63813 0.0
H906 H 0.63143 0.98967 0.69327 0.0
H907 H 0.68822 0.07783 0.72082 0.0
H908 H 0.7037 0.12393 0.72347 0.0
H909 H 0.63115 0.10812 0.75537 0.0
H910 H 0.61509 0.06189 0.75253 0.0
H911 H 0.65846 0.97019 0.82346 0.0
H912 H 0.6595 0.9878 0.77974 0.0
H913 H 0.58813 0.98503 0.79667 0.0
H914 H 0.58652 0.96655 0.84038 0.0
H915 H 0.63389 0.03483 0.77722 0.0
H916 H 0.57937 0.94722 0.75456 0.0
H917 H 0.56314 0.90106 0.75055 0.0
H918 H 0.63177 0.91615 0.70953 0.0
H919 H 0.64863 0.96247 0.7136 0.0
C920 C 0.64886 0.06245 0.64853 0.0
C921 C 0.66782 0.05966 0.63519 0.0
C922 C 0.64047 0.05204 0.67368 0.0
C923 C 0.65118 0.039 0.68589 0.0
C924 C 0.6706 0.03685 0.67291 0.0
C925 C 0.67881 0.04703 0.64775 0.0
C926 C 0.6411 0.02583 0.7113 0.0
C927 C 0.63215 0.9996 0.71167 0.0
C928 C 0.64082 0.03861 0.73495 0.0
C929 C 0.6503 0.06638 0.73602 0.0
C930 C 0.67544 0.08416 0.72804 0.0
C931 C 0.68435 0.11033 0.72967 0.0
C932 C 0.66838 0.11895 0.73946 0.0
C933 C 0.64347 0.10142 0.74769 0.0
C934 C 0.63445 0.07524 0.74606 0.0
C935 C 0.643 0.97334 0.81785 0.0
C936 C 0.62247 0.9672 0.83516 0.0
C937 C 0.64353 0.9832 0.79291 0.0
C938 C 0.62381 0.98749 0.78515 0.0
C939 C 0.60338 0.98165 0.80244 0.0
C940 C 0.60251 0.97116 0.82724 0.0
C941 C 0.62557 0.99908 0.75922 0.0
C942 C 0.6328 0.02491 0.75869 0.0
C943 C 0.62445 0.98604 0.73536 0.0
C944 C 0.61532 0.95834 0.73456 0.0
C945 C 0.59121 0.94074 0.74509 0.0
C946 C 0.58184 0.91454 0.74269 0.0
C947 C 0.59637 0.90572 0.72969 0.0
C948 C 0.62051 0.92305 0.71949 0.0
C949 C 0.62998 0.94927 0.72185 0.0
H950 H 0.58876 0.88545 0.72735 0.0
H951 H 0.67534 0.13921 0.74076 0.0
H952 H 0.09643 0.67442 0.81949 0.0
H953 H 0.07935 0.66104 0.77421 0.0
H954 H 0.00361 0.63984 0.80222 0.0
H955 H 0.02061 0.65369 0.84739 0.0
H956 H 0.00677 0.60313 0.76677 0.0
H957 H 0.03394 0.69255 0.77601 0.0
H958 H 0.06476 0.73806 0.78518 0.0
H959 H 0.11283 0.73882 0.72167 0.0
H960 H 0.08254 0.69308 0.71251 0.0
H961 H 0.93372 0.60118 0.65626 0.0
H962 H 0.95591 0.60494 0.69826 0.0
H963 H 0.02886 0.64345 0.65759 0.0
H964 H 0.00661 0.64118 0.61608 0.0
H965 H 0.03166 0.66939 0.6982 0.0
H966 H 0.00067 0.58012 0.68528 0.0
H967 H 0.96894 0.5347 0.67671 0.0
H968 H 0.9272 0.53332 0.7466 0.0
H969 H 0.95844 0.57879 0.7554 0.0
C970 C 0.07611 0.66676 0.81596 0.0
C971 C 0.05978 0.66518 0.83675 0.0
C972 C 0.06645 0.65917 0.79019 0.0
C973 C 0.04031 0.64953 0.7851 0.0
C974 C 0.02384 0.64722 0.80596 0.0
C975 C 0.03358 0.65528 0.8316 0.0
C976 C 0.03018 0.64297 0.7578 0.0
C977 C 0.01207 0.61749 0.75164 0.0
C978 C 0.0378 0.66181 0.73819 0.0
C979 C 0.0562 0.68924 0.74391 0.0
C980 C 0.05127 0.70229 0.76427 0.0
C981 C 0.06861 0.72815 0.76941 0.0
C982 C 0.09081 0.74128 0.75412 0.0
C983 C 0.09569 0.72859 0.73359 0.0
C984 C 0.07846 0.70268 0.72844 0.0
C985 C 0.95447 0.61018 0.65644 0.0
C986 C 0.96867 0.62117 0.63339 0.0
C987 C 0.96713 0.61206 0.68028 0.0
C988 C 0.99408 0.62418 0.68105 0.0
C989 C 0.00808 0.63407 0.65751 0.0
C990 C 0.99547 0.63286 0.6339 0.0
C991 C 0.00777 0.62932 0.70681 0.0
C992 C 0.02664 0.65469 0.71287 0.0
C993 C 0.00076 0.61031 0.7263 0.0
C994 C 0.98185 0.58295 0.72089 0.0
C995 C 0.98462 0.5702 0.69871 0.0
C996 C 0.96673 0.54441 0.69383 0.0
C997 C 0.94604 0.53114 0.71107 0.0
C998 C 0.94322 0.54361 0.73325 0.0
C999 C 0.96103 0.56938 0.73821 0.0
H1000 H 0.93222 0.51119 0.70726 0.0
H1001 H 0.10419 0.7613 0.75815 0.0
H1002 H 0.63568 0.67974 0.3368 0.0
H1003 H 0.64891 0.66325 0.29953 0.0
H1004 H 0.57164 0.6252 0.26809 0.0
H1005 H 0.55793 0.64147 0.30589 0.0
H1006 H 0.5969 0.5954 0.26838 0.0
H1007 H 0.61335 0.67954 0.24314 0.0
H1008 H 0.63227 0.72559 0.25247 0.0
H1009 H 0.70758 0.73493 0.25534 0.0
H1010 H 0.68903 0.68881 0.24651 0.0
H1011 H 0.61578 0.56406 0.14104 0.0
H1012 H 0.60428 0.58314 0.17767 0.0
H1013 H 0.68469 0.6331 0.19634 0.0
H1014 H 0.69621 0.61504 0.1584 0.0
H1015 H 0.66012 0.65735 0.2047 0.0
H1016 H 0.64768 0.57686 0.22946 0.0
H1017 H 0.63197 0.53088 0.22412 0.0
H1018 H 0.55402 0.51444 0.22733 0.0
H1019 H 0.56925 0.56038 0.23216 0.0
C1020 C 0.62142 0.66786 0.32199 0.0
C1021 C 0.59579 0.662 0.32403 0.0
C1022 C 0.62905 0.65845 0.30079 0.0
C1023 C 0.61125 0.64329 0.28115 0.0
C1024 C 0.58554 0.63698 0.28322 0.0
C1025 C 0.57782 0.64642 0.30456 0.0
C1026 C 0.61991 0.63493 0.25789 0.0
C1027 C 0.6104 0.6088 0.25416 0.0
C1028 C 0.63851 0.65276 0.24036 0.0
C1029 C 0.64978 0.6807 0.24428 0.0
C1030 C 0.63393 0.6914 0.24581 0.0
C1031 C 0.64459 0.71751 0.25105 0.0
C1032 C 0.67111 0.73317 0.25453 0.0
C1033 C 0.68704 0.72277 0.25264 0.0
C1034 C 0.67647 0.69665 0.24749 0.0
C1035 C 0.63092 0.5793 0.15287 0.0
C1036 C 0.65677 0.58794 0.14748 0.0
C1037 C 0.62439 0.59011 0.17374 0.0
C1038 C 0.64363 0.60893 0.19017 0.0
C1039 C 0.66958 0.61843 0.18399 0.0
C1040 C 0.67613 0.60811 0.16251 0.0
C1041 C 0.63645 0.61759 0.21452 0.0
C1042 C 0.64651 0.64382 0.21874 0.0
C1043 C 0.61887 0.59987 0.23296 0.0
C1044 C 0.60962 0.57212 0.23095 0.0
C1045 C 0.62718 0.56346 0.22891 0.0
C1046 C 0.61836 0.5374 0.22595 0.0
C1047 C 0.59201 0.51976 0.22532 0.0
C1048 C 0.57443 0.52813 0.22779 0.0
C1049 C 0.58315 0.55419 0.23065 0.0
H1050 H 0.58522 0.49959 0.22297 0.0
H1051 H 0.67933 0.75337 0.25865 0.0
H1052 H 0.39759 0.07283 0.14133 0.0
H1053 H 0.37756 0.04341 0.17842 0.0
H1054 H 0.44215 0.03166 0.18159 0.0
H1055 H 0.46256 0.06153 0.14507 0.0
H1056 H 0.39141 0.98601 0.18655 0.0
H1057 H 0.44486 0.07193 0.2206 0.0
H1058 H 0.45934 0.11773 0.22412 0.0
H1059 H 0.38478 0.09962 0.25194 0.0
H1060 H 0.36965 0.05362 0.24792 0.0
H1061 H 0.39217 0.94159 0.31397 0.0
H1062 H 0.40356 0.9663 0.27328 0.0
H1063 H 0.3444 0.98467 0.28861 0.0
H1064 H 0.33352 0.96065 0.33003 0.0
H1065 H 0.38745 0.02531 0.27244 0.0
H1066 H 0.33572 0.93818 0.24274 0.0
H1067 H 0.32322 0.89279 0.24013 0.0
H1068 H 0.39596 0.91321 0.20511 0.0
H1069 H 0.40909 0.95875 0.20792 0.0
C1070 C 0.40733 0.06375 0.14986 0.0
C1071 C 0.43168 0.06955 0.14082 0.0
C1072 C 0.3959 0.04701 0.17087 0.0
C1073 C 0.40854 0.03562 0.18259 0.0
C1074 C 0.43223 0.04038 0.17265 0.0
C1075 C 0.44392 0.05754 0.15208 0.0
C1076 C 0.39824 0.0204 0.20665 0.0
C1077 C 0.39052 0.99448 0.20539 0.0
C1078 C 0.39687 0.03166 0.23092 0.0
C1079 C 0.40598 0.05931 0.23348 0.0
C1080 C 0.43143 0.07769 0.2271 0.0
C1081 C 0.43978 0.10369 0.22925 0.0
C1082 C 0.42295 0.11159 0.23812 0.0
C1083 C 0.39776 0.09348 0.24496 0.0
C1084 C 0.38928 0.06743 0.24271 0.0
C1085 C 0.38158 0.95088 0.30864 0.0
C1086 C 0.36184 0.94911 0.32489 0.0
C1087 C 0.38802 0.96487 0.28537 0.0
C1088 C 0.37437 0.97673 0.27768 0.0
C1089 C 0.35498 0.97544 0.29418 0.0
C1090 C 0.3488 0.96176 0.31774 0.0
C1091 C 0.38067 0.99076 0.25254 0.0
C1092 C 0.38777 0.01657 0.25356 0.0
C1093 C 0.38159 0.97938 0.22807 0.0
C1094 C 0.37344 0.95192 0.2257 0.0
C1095 C 0.3491 0.933 0.23459 0.0
C1096 C 0.3419 0.90724 0.23308 0.0
C1097 C 0.3588 0.90013 0.2225 0.0
C1098 C 0.38289 0.91875 0.21331 0.0
C1099 C 0.39021 0.94454 0.21483 0.0
H1100 H 0.35321 0.88018 0.2214 0.0
H1101 H 0.42945 0.13174 0.2398 0.0
H1102 H 0.04113 0.41948 0.34992 0.0
H1103 H 0.0132 0.40629 0.31055 0.0
H1104 H 0.06987 0.39789 0.26602 0.0
H1105 H 0.0984 0.41275 0.30492 0.0
H1106 H 0.0569 0.42585 0.24026 0.0
H1107 H 0.00935 0.34604 0.28795 0.0
H1108 H 0.98472 0.31864 0.3254 0.0
H1109 H 0.9292 0.34236 0.31784 0.0
H1110 H 0.95365 0.37012 0.28053 0.0
H1111 H 0.99491 0.34734 0.13087 0.0
H1112 H 0.01479 0.36522 0.17399 0.0
H1113 H 0.95625 0.3839 0.19138 0.0
H1114 H 0.93615 0.36614 0.14803 0.0
H1115 H 0.96574 0.35686 0.23229 0.0
H1116 H 0.01134 0.43204 0.18013 0.0
H1117 H 0.03578 0.45759 0.14158 0.0
H1118 H 0.09512 0.44034 0.15696 0.0
H1119 H 0.07095 0.41449 0.19543 0.0
C1120 C 0.0473 0.41447 0.33169 0.0
C1121 C 0.07171 0.4172 0.32994 0.0
C1122 C 0.03136 0.40682 0.30937 0.0
C1123 C 0.03947 0.4011 0.28541 0.0
C1124 C 0.0634 0.4025 0.28428 0.0
C1125 C 0.07962 0.41089 0.30635 0.0
C1126 C 0.02433 0.39586 0.26079 0.0
C1127 C 0.03703 0.41057 0.2385 0.0
C1128 C 0.99802 0.37686 0.25894 0.0
C1129 C 0.98351 0.3604 0.28163 0.0
C1130 C 0.99203 0.34561 0.29443 0.0
C1131 C 0.97806 0.32996 0.3156 0.0
C1132 C 0.95546 0.32882 0.32404 0.0
C1133 C 0.94674 0.34329 0.31131 0.0
C1134 C 0.96064 0.35897 0.29015 0.0
C1135 C 0.98627 0.35529 0.14379 0.0
C1136 C 0.96403 0.35539 0.13612 0.0
C1137 C 0.99771 0.3656 0.1683 0.0
C1138 C 0.98701 0.376 0.18553 0.0
C1139 C 0.96473 0.37602 0.17813 0.0
C1140 C 0.95338 0.36593 0.15342 0.0
C1141 C 0.99888 0.38581 0.2117 0.0
C1142 C 0.98551 0.3723 0.23431 0.0
C1143 C 0.02467 0.40573 0.21388 0.0
C1144 C 0.03925 0.42123 0.19064 0.0
C1145 C 0.02952 0.43355 0.17519 0.0
C1146 C 0.04335 0.44813 0.15338 0.0
C1147 C 0.06698 0.45058 0.14682 0.0
C1148 C 0.07683 0.43846 0.16208 0.0
C1149 C 0.0631 0.42389 0.18393 0.0
H1150 H 0.07765 0.46188 0.12993 0.0
H1151 H 0.94466 0.31667 0.3404 0.0
H1152 H 0.24407 0.82475 0.39366 0.0
H1153 H 0.20541 0.81887 0.37096 0.0
H1154 H 0.25296 0.87659 0.31461 0.0
H1155 H 0.29151 0.88185 0.33676 0.0
H1156 H 0.21517 0.88496 0.34247 0.0
H1157 H 0.2215 0.82224 0.28988 0.0
H1158 H 0.22676 0.78499 0.28258 0.0
H1159 H 0.15733 0.73793 0.32581 0.0
H1160 H 0.15185 0.77503 0.33369 0.0
H1161 H 0.11211 0.85696 0.2466 0.0
H1162 H 0.15241 0.86836 0.26978 0.0
H1163 H 0.10933 0.81507 0.33154 0.0
H1164 H 0.0692 0.80436 0.30892 0.0
H1165 H 0.14578 0.8058 0.29971 0.0
H1166 H 0.14 0.86883 0.35302 0.0
H1167 H 0.13431 0.9059 0.35954 0.0
H1168 H 0.20231 0.95228 0.31398 0.0
H1169 H 0.20822 0.91532 0.30689 0.0
C1170 C 0.24615 0.83517 0.37563 0.0
C1171 C 0.27065 0.85305 0.36635 0.0
C1172 C 0.22414 0.83215 0.36294 0.0
C1173 C 0.22637 0.84749 0.34125 0.0
C1174 C 0.25083 0.86463 0.33133 0.0
C1175 C 0.27278 0.86724 0.34365 0.0
C1176 C 0.2032 0.84643 0.32984 0.0
C1177 C 0.20015 0.86778 0.33279 0.0
C1178 C 0.18345 0.82392 0.31763 0.0
C1179 C 0.1864 0.80146 0.31261 0.0
C1180 C 0.20745 0.80399 0.29801 0.0
C1181 C 0.21046 0.7829 0.29373 0.0
C1182 C 0.19243 0.75912 0.3038 0.0
C1183 C 0.1713 0.75637 0.31806 0.0
C1184 C 0.16821 0.77742 0.32241 0.0
C1185 C 0.11128 0.84893 0.26594 0.0
C1186 C 0.08762 0.83026 0.27634 0.0
C1187 C 0.13426 0.85512 0.27895 0.0
C1188 C 0.13377 0.84227 0.30217 0.0
C1189 C 0.11008 0.82515 0.31364 0.0
C1190 C 0.08719 0.81937 0.30094 0.0
C1191 C 0.15763 0.8442 0.31258 0.0
C1192 C 0.16082 0.823 0.30936 0.0
C1193 C 0.17747 0.86684 0.32446 0.0
C1194 C 0.17442 0.88926 0.32921 0.0
C1195 C 0.15365 0.88689 0.34423 0.0
C1196 C 0.1504 0.90788 0.34807 0.0
C1197 C 0.1679 0.93141 0.33711 0.0
C1198 C 0.18876 0.93402 0.32243 0.0
C1199 C 0.1921 0.91307 0.31853 0.0
H1200 H 0.16532 0.94764 0.34005 0.0
H1201 H 0.1948 0.74282 0.3005 0.0
H1202 H 0.22424 0.3008 0.2453 0.0
H1203 H 0.21683 0.32965 0.2724 0.0
H1204 H 0.15468 0.26581 0.31229 0.0
H1205 H 0.16295 0.23616 0.2859 0.0
H1206 H 0.14781 0.30902 0.28762 0.0
H1207 H 0.19684 0.29224 0.34942 0.0
H1208 H 0.23221 0.28766 0.3673 0.0
H1209 H 0.28593 0.36621 0.35049 0.0
H1210 H 0.25101 0.37117 0.33201 0.0
H1211 H 0.13018 0.38306 0.38363 0.0
H1212 H 0.1377 0.35148 0.36253 0.0
H1213 H 0.2102 0.4111 0.33258 0.0
H1214 H 0.2026 0.4436 0.35367 0.0
H1215 H 0.21112 0.36822 0.35455 0.0
H1216 H 0.1622 0.38437 0.29117 0.0
H1217 H 0.12663 0.38903 0.27403 0.0
H1218 H 0.07265 0.31133 0.29393 0.0
H1219 H 0.10781 0.30633 0.31166 0.0
C1220 C 0.20867 0.29259 0.25951 0.0
C1221 C 0.19402 0.266 0.26326 0.0
C1222 C 0.20477 0.30927 0.27527 0.0
C1223 C 0.18566 0.29987 0.29466 0.0
C1224 C 0.16987 0.27335 0.29764 0.0
C1225 C 0.17433 0.25647 0.28233 0.0
C1226 C 0.18162 0.31826 0.31028 0.0
C1227 C 0.16128 0.32162 0.30272 0.0
C1228 C 0.19994 0.33525 0.32915 0.0
C1229 C 0.22127 0.33195 0.33889 0.0
C1230 C 0.21625 0.30841 0.34903 0.0
C1231 C 0.23622 0.30579 0.35942 0.0
C1232 C 0.2613 0.3266 0.35995 0.0
C1233 C 0.2665 0.35007 0.35001 0.0
C1234 C 0.24662 0.35279 0.33955 0.0
C1235 C 0.1479 0.38973 0.37272 0.0
C1236 C 0.16574 0.41602 0.37016 0.0
C1237 C 0.15205 0.37151 0.36056 0.0
C1238 C 0.1742 0.37894 0.34559 0.0
C1239 C 0.19282 0.40505 0.34392 0.0
C1240 C 0.18855 0.42356 0.35603 0.0
C1241 C 0.17735 0.35905 0.33178 0.0
C1242 C 0.19757 0.35552 0.33957 0.0
C1243 C 0.15895 0.34187 0.31306 0.0
C1244 C 0.13765 0.3451 0.30311 0.0
C1245 C 0.14271 0.36839 0.29226 0.0
C1246 C 0.12262 0.37106 0.28234 0.0
C1247 C 0.09739 0.35053 0.28298 0.0
C1248 C 0.09219 0.32726 0.29352 0.0
C1249 C 0.1122 0.3245 0.30351 0.0
H1250 H 0.08188 0.35263 0.27525 0.0
H1251 H 0.2767 0.32456 0.36813 0.0
H1252 H 0.7849 0.92973 0.27925 0.0
H1253 H 0.75439 0.89159 0.30419 0.0
H1254 H 0.6911 0.89052 0.26374 0.0
H1255 H 0.72099 0.9274 0.23811 0.0
H1256 H 0.68984 0.88995 0.32388 0.0
H1257 H 0.69892 0.84898 0.24526 0.0
H1258 H 0.7239 0.84103 0.21161 0.0
H1259 H 0.75347 0.81374 0.27224 0.0
H1260 H 0.72911 0.82211 0.30641 0.0
H1261 H 0.58305 0.76344 0.35909 0.0
H1262 H 0.6129 0.80124 0.33327 0.0
H1263 H 0.67719 0.80357 0.37286 0.0
H1264 H 0.64803 0.76718 0.3994 0.0
H1265 H 0.67755 0.80323 0.31268 0.0
H1266 H 0.67002 0.84516 0.39128 0.0
H1267 H 0.64515 0.85267 0.42544 0.0
H1268 H 0.61303 0.87791 0.36539 0.0
H1269 H 0.63732 0.86999 0.33072 0.0
C1270 C 0.76454 0.92091 0.27515 0.0
C1271 C 0.7555 0.93161 0.25653 0.0
C1272 C 0.74713 0.89933 0.2896 0.0
C1273 C 0.72049 0.88854 0.28606 0.0
C1274 C 0.71154 0.8987 0.26696 0.0
C1275 C 0.72879 0.91968 0.2521 0.0
C1276 C 0.7017 0.86678 0.30231 0.0
C1277 C 0.68699 0.87095 0.32128 0.0
C1278 C 0.69818 0.84208 0.29904 0.0
C1279 C 0.71245 0.83651 0.27848 0.0
C1280 C 0.71097 0.84156 0.25149 0.0
C1281 C 0.72499 0.83694 0.23231 0.0
C1282 C 0.74034 0.82698 0.2398 0.0
C1283 C 0.74162 0.82152 0.26648 0.0
C1284 C 0.72771 0.82621 0.28577 0.0
C1285 C 0.60349 0.77249 0.36284 0.0
C1286 C 0.61303 0.76222 0.38142 0.0
C1287 C 0.62053 0.79384 0.34785 0.0
C1288 C 0.64726 0.80481 0.35084 0.0
C1289 C 0.65668 0.79518 0.36999 0.0
C1290 C 0.63983 0.77447 0.38538 0.0
C1291 C 0.6657 0.82641 0.33421 0.0
C1292 C 0.68037 0.82223 0.31521 0.0
C1293 C 0.66925 0.8511 0.3375 0.0
C1294 C 0.65524 0.85668 0.35834 0.0
C1295 C 0.65747 0.85209 0.3853 0.0
C1296 C 0.6435 0.85644 0.40477 0.0
C1297 C 0.62745 0.86568 0.39758 0.0
C1298 C 0.62543 0.8707 0.37091 0.0
C1299 C 0.6393 0.86628 0.35133 0.0
H1300 H 0.61662 0.86902 0.41267 0.0
H1301 H 0.75118 0.82341 0.22492 0.0
H1302 H 0.82021 0.10598 0.24001 0.0
H1303 H 0.82874 0.1442 0.21669 0.0
H1304 H 0.85859 0.12206 0.14998 0.0
H1305 H 0.84959 0.08297 0.17343 0.0
H1306 H 0.88697 0.17449 0.16199 0.0
H1307 H 0.79783 0.1131 0.14214 0.0
H1308 H 0.75229 0.08142 0.15004 0.0
H1309 H 0.74665 0.13297 0.20506 0.0
H1310 H 0.792 0.16538 0.19675 0.0
H1311 H 0.87845 0.25324 0.0682 0.0
H1312 H 0.87007 0.21538 0.09217 0.0
H1313 H 0.84038 0.23837 0.15834 0.0
H1314 H 0.84909 0.277 0.13418 0.0
H1315 H 0.81233 0.18606 0.14729 0.0
H1316 H 0.90003 0.24955 0.16221 0.0
H1317 H 0.94423 0.28255 0.15061 0.0
H1318 H 0.95308 0.22731 0.10491 0.0
H1319 H 0.90877 0.19405 0.11588 0.0
C1320 C 0.82919 0.10948 0.2206 0.0
C1321 C 0.83429 0.09149 0.20855 0.0
C1322 C 0.83372 0.13121 0.20716 0.0
C1323 C 0.8436 0.13564 0.18131 0.0
C1324 C 0.85063 0.11878 0.16984 0.0
C1325 C 0.84587 0.09669 0.18335 0.0
C1326 C 0.84618 0.15783 0.16659 0.0
C1327 C 0.87061 0.17683 0.15835 0.0
C1328 C 0.82497 0.16137 0.16272 0.0
C1329 C 0.79835 0.14144 0.16917 0.0
C1330 C 0.78697 0.11752 0.15621 0.0
C1331 C 0.76116 0.09948 0.16067 0.0
C1332 C 0.74668 0.10496 0.17837 0.0
C1333 C 0.75792 0.12866 0.19148 0.0
C1334 C 0.78362 0.14694 0.18677 0.0
C1335 C 0.86959 0.25002 0.08764 0.0
C1336 C 0.86448 0.26811 0.09938 0.0
C1337 C 0.86509 0.22848 0.10142 0.0
C1338 C 0.85534 0.22445 0.12732 0.0
C1339 C 0.84827 0.24138 0.13845 0.0
C1340 C 0.85292 0.26323 0.12457 0.0
C1341 C 0.85307 0.20266 0.14254 0.0
C1342 C 0.82873 0.18378 0.15095 0.0
C1343 C 0.8744 0.19932 0.14659 0.0
C1344 C 0.90096 0.21936 0.13965 0.0
C1345 C 0.9113 0.24449 0.14945 0.0
C1346 C 0.9364 0.26324 0.14305 0.0
C1347 C 0.95143 0.25704 0.12699 0.0
C1348 C 0.9414 0.23209 0.11732 0.0
C1349 C 0.9163 0.21328 0.12364 0.0
H1350 H 0.97087 0.27157 0.12209 0.0
H1351 H 0.72669 0.09094 0.18176 0.0
H1352 H 0.77134 0.61003 0.07407 0.0
H1353 H 0.80918 0.64623 0.09411 0.0
H1354 H 0.78564 0.61234 0.17147 0.0
H1355 H 0.74714 0.57616 0.15158 0.0
H1356 H 0.79814 0.6618 0.17293 0.0
H1357 H 0.83701 0.61508 0.13844 0.0
H1358 H 0.84536 0.59186 0.1029 0.0
H1359 H 0.88171 0.65965 0.05599 0.0
H1360 H 0.87324 0.68321 0.09111 0.0
H1361 H 0.91271 0.7373 0.24583 0.0
H1362 H 0.87438 0.70447 0.22278 0.0
H1363 H 0.90239 0.74472 0.14903 0.0
H1364 H 0.94113 0.77772 0.17215 0.0
H1365 H 0.88777 0.69399 0.14345 0.0
H1366 H 0.85063 0.74127 0.17746 0.0
H1367 H 0.84233 0.76513 0.21227 0.0
H1368 H 0.80268 0.69729 0.25879 0.0
H1369 H 0.81105 0.67306 0.22439 0.0
C1370 C 0.77443 0.60988 0.09528 0.0
C1371 C 0.75614 0.59004 0.11117 0.0
C1372 C 0.79613 0.63072 0.10674 0.0
C1373 C 0.80034 0.63209 0.13434 0.0
C1374 C 0.78276 0.61177 0.15014 0.0
C1375 C 0.76092 0.59091 0.13868 0.0
C1376 C 0.82254 0.65516 0.14672 0.0
C1377 C 0.81775 0.66862 0.16672 0.0
C1378 C 0.84809 0.66465 0.13797 0.0
C1379 C 0.85436 0.65088 0.11737 0.0
C1380 C 0.84676 0.62504 0.12053 0.0
C1381 C 0.85148 0.6118 0.10045 0.0
C1382 C 0.86401 0.62426 0.07718 0.0
C1383 C 0.872 0.65003 0.07403 0.0
C1384 C 0.86728 0.66335 0.09405 0.0
C1385 C 0.91029 0.73969 0.2249 0.0
C1386 C 0.92981 0.76029 0.21091 0.0
C1387 C 0.88844 0.72077 0.21167 0.0
C1388 C 0.8855 0.72202 0.18411 0.0
C1389 C 0.90428 0.74331 0.17028 0.0
C1390 C 0.92618 0.76241 0.18361 0.0
C1391 C 0.86336 0.70038 0.1699 0.0
C1392 C 0.86814 0.68722 0.14955 0.0
C1393 C 0.83777 0.69123 0.17817 0.0
C1394 C 0.83157 0.70536 0.19837 0.0
C1395 C 0.84016 0.73143 0.19513 0.0
C1396 C 0.83548 0.74504 0.2148 0.0
C1397 C 0.82202 0.73274 0.23774 0.0
C1398 C 0.81309 0.70678 0.24099 0.0
C1399 C 0.81775 0.69308 0.22137 0.0
H1400 H 0.81848 0.74333 0.253 0.0
H1401 H 0.86757 0.61396 0.06161 0.0
H1402 H 0.29786 0.18683 0.24612 0.0
H1403 H 0.3243 0.17448 0.22045 0.0
H1404 H 0.28932 0.17935 0.14779 0.0
H1405 H 0.26248 0.19147 0.17364 0.0
H1406 H 0.30411 0.14153 0.14606 0.0
H1407 H 0.3406 0.23065 0.16718 0.0
H1408 H 0.35365 0.26848 0.19602 0.0
H1409 H 0.40208 0.25025 0.24151 0.0
H1410 H 0.38902 0.21208 0.21316 0.0
H1411 H 0.41155 0.16301 0.0673 0.0
H1412 H 0.37706 0.16747 0.08726 0.0
H1413 H 0.4119 0.17741 0.16471 0.0
H1414 H 0.44678 0.17374 0.14474 0.0
H1415 H 0.39531 0.20845 0.16069 0.0
H1416 H 0.35761 0.11819 0.14051 0.0
H1417 H 0.34279 0.0792 0.11301 0.0
H1418 H 0.2962 0.09881 0.06612 0.0
H1419 H 0.31092 0.13802 0.09319 0.0
C1420 C 0.29487 0.18396 0.22479 0.0
C1421 C 0.27815 0.19 0.2118 0.0
C1422 C 0.31019 0.17722 0.21012 0.0
C1423 C 0.30924 0.17671 0.18222 0.0
C1424 C 0.29042 0.1798 0.16933 0.0
C1425 C 0.27489 0.18643 0.1841 0.0
C1426 C 0.33006 0.17642 0.16684 0.0
C1427 C 0.32406 0.15627 0.14893 0.0
C1428 C 0.35607 0.19563 0.17083 0.0
C1429 C 0.36364 0.21837 0.18819 0.0
C1430 C 0.35383 0.23456 0.1835 0.0
C1431 C 0.36128 0.2561 0.19972 0.0
C1432 C 0.37865 0.26174 0.22062 0.0
C1433 C 0.38861 0.24584 0.22534 0.0
C1434 C 0.3812 0.22426 0.20919 0.0
C1435 C 0.41218 0.16678 0.08851 0.0
C1436 C 0.43203 0.16821 0.10442 0.0
C1437 C 0.39219 0.16889 0.09996 0.0
C1438 C 0.39143 0.17209 0.12761 0.0
C1439 C 0.41193 0.17481 0.14333 0.0
C1440 C 0.43208 0.173 0.13185 0.0
C1441 C 0.36964 0.17303 0.14034 0.0
C1442 C 0.37543 0.19358 0.15768 0.0
C1443 C 0.34349 0.15415 0.13575 0.0
C1444 C 0.33566 0.13123 0.11866 0.0
C1445 C 0.34448 0.11437 0.12411 0.0
C1446 C 0.33601 0.09217 0.10866 0.0
C1447 C 0.31863 0.08658 0.08777 0.0
C1448 C 0.30971 0.10319 0.08226 0.0
C1449 C 0.31811 0.12539 0.09765 0.0
H1450 H 0.31202 0.06933 0.07592 0.0
H1451 H 0.38444 0.27846 0.23311 0.0
H1452 H 0.74066 0.15707 0.63264 0.0
H1453 H 0.77942 0.16904 0.65886 0.0
H1454 H 0.82212 0.18012 0.58642 0.0
H1455 H 0.78345 0.16796 0.56033 0.0
H1456 H 0.82193 0.14384 0.61728 0.0
H1457 H 0.83781 0.22916 0.62954 0.0
H1458 H 0.82695 0.26183 0.6423 0.0
H1459 H 0.81342 0.23507 0.72265 0.0
H1460 H 0.8238 0.20194 0.71028 0.0
H1461 H 0.94493 0.18217 0.67309 0.0
H1462 H 0.90714 0.1758 0.64853 0.0
H1463 H 0.86954 0.17293 0.72269 0.0
H1464 H 0.90767 0.18026 0.74712 0.0
H1465 H 0.86664 0.20507 0.69167 0.0
H1466 H 0.84942 0.11966 0.68056 0.0
H1467 H 0.86013 0.08661 0.66915 0.0
H1468 H 0.87461 0.11201 0.58831 0.0
H1469 H 0.86437 0.14551 0.59933 0.0
C1470 C 0.75868 0.16355 0.62236 0.0
C1471 C 0.75914 0.16178 0.59447 0.0
C1472 C 0.78078 0.17006 0.63736 0.0
C1473 C 0.8036 0.17508 0.62459 0.0
C1474 C 0.8047 0.17608 0.5967 0.0
C1475 C 0.78268 0.16953 0.58179 0.0
C1476 C 0.825 0.17573 0.63982 0.0
C1477 C 0.83198 0.1575 0.63329 0.0
C1478 C 0.83742 0.19286 0.66137 0.0
C1479 C 0.83131 0.21286 0.6689 0.0
C1480 C 0.83229 0.23007 0.64988 0.0
C1481 C 0.82626 0.24871 0.65705 0.0
C1482 C 0.81942 0.25047 0.68325 0.0
C1483 C 0.81868 0.23365 0.70235 0.0
C1484 C 0.82465 0.21495 0.69527 0.0
C1485 C 0.92818 0.17911 0.68411 0.0
C1486 C 0.92904 0.18137 0.71197 0.0
C1487 C 0.90664 0.1757 0.67008 0.0
C1488 C 0.88541 0.17394 0.68373 0.0
C1489 C 0.88568 0.17444 0.71167 0.0
C1490 C 0.90732 0.17824 0.72563 0.0
C1491 C 0.86373 0.1733 0.66899 0.0
C1492 C 0.8566 0.19141 0.67566 0.0
C1493 C 0.85092 0.15586 0.64775 0.0
C1494 C 0.85633 0.13524 0.64084 0.0
C1495 C 0.855 0.11828 0.66037 0.0
C1496 C 0.86099 0.09946 0.65398 0.0
C1497 C 0.86811 0.09725 0.62804 0.0
C1498 C 0.86912 0.11377 0.6084 0.0
C1499 C 0.86319 0.13266 0.61471 0.0
H1500 H 0.8728 0.08271 0.62313 0.0
H1501 H 0.81476 0.26491 0.68876 0.0
H1502 H 0.83252 0.58931 0.58673 0.0
H1503 H 0.82242 0.61909 0.61011 0.0
H1504 H 0.89823 0.65775 0.64535 0.0
H1505 H 0.90802 0.62817 0.62256 0.0
H1506 H 0.86407 0.65511 0.6803 0.0
H1507 H 0.88515 0.67923 0.58755 0.0
H1508 H 0.87958 0.67338 0.53881 0.0
H1509 H 0.80292 0.6601 0.54549 0.0
H1510 H 0.80797 0.6657 0.59429 0.0
H1511 H 0.87558 0.77527 0.71505 0.0
H1512 H 0.88471 0.74361 0.69455 0.0
H1513 H 0.81042 0.70678 0.65601 0.0
H1514 H 0.80169 0.73819 0.67538 0.0
H1515 H 0.84375 0.70823 0.62295 0.0
H1516 H 0.82165 0.68366 0.71487 0.0
H1517 H 0.8262 0.6892 0.76369 0.0
H1518 H 0.90296 0.70244 0.75887 0.0
H1519 H 0.89892 0.69713 0.70999 0.0
C1520 C 0.84653 0.60363 0.60023 0.0
C1521 C 0.87092 0.60648 0.60309 0.0
C1522 C 0.84096 0.62081 0.61326 0.0
C1523 C 0.85977 0.64089 0.62914 0.0
C1524 C 0.88344 0.64248 0.63324 0.0
C1525 C 0.88899 0.62553 0.62027 0.0
C1526 C 0.85591 0.66137 0.6403 0.0
C1527 C 0.85975 0.66683 0.66775 0.0
C1528 C 0.85005 0.6765 0.62394 0.0
C1529 C 0.84684 0.67261 0.59462 0.0
C1530 C 0.86702 0.67483 0.57865 0.0
C1531 C 0.86399 0.67163 0.551 0.0
C1532 C 0.84089 0.6663 0.53907 0.0
C1533 C 0.82079 0.66419 0.55476 0.0
C1534 C 0.82374 0.6674 0.58241 0.0
C1535 C 0.86152 0.76066 0.70182 0.0
C1536 C 0.83786 0.75906 0.69706 0.0
C1537 C 0.86658 0.74245 0.69035 0.0
C1538 C 0.84803 0.72256 0.67406 0.0
C1539 C 0.825 0.72182 0.6685 0.0
C1540 C 0.82002 0.73981 0.67976 0.0
C1541 C 0.85178 0.70192 0.66302 0.0
C1542 C 0.84799 0.69648 0.63555 0.0
C1543 C 0.85749 0.6867 0.67939 0.0
C1544 C 0.86008 0.69027 0.70874 0.0
C1545 C 0.83957 0.68796 0.7242 0.0
C1546 C 0.84204 0.691 0.75189 0.0
C1547 C 0.86488 0.69624 0.76436 0.0
C1548 C 0.88529 0.69841 0.74918 0.0
C1549 C 0.88291 0.69536 0.72149 0.0
H1550 H 0.86674 0.69856 0.7858 0.0
H1551 H 0.83859 0.66388 0.51767 0.0
H1552 H 0.30413 0.10577 0.73692 0.0
H1553 H 0.33581 0.1427 0.71304 0.0
H1554 H 0.2783 0.1322 0.65543 0.0
H1555 H 0.24646 0.09354 0.67852 0.0
H1556 H 0.32018 0.14081 0.63051 0.0
H1557 H 0.30501 0.18297 0.70422 0.0
H1558 H 0.29983 0.18925 0.75195 0.0
H1559 H 0.3772 0.20738 0.76723 0.0
H1560 H 0.38277 0.20095 0.71961 0.0
H1561 H 0.3878 0.25879 0.57002 0.0
H1562 H 0.35989 0.2205 0.59387 0.0
H1563 H 0.4218 0.23583 0.64771 0.0
H1564 H 0.44997 0.27618 0.62455 0.0
H1565 H 0.37982 0.22379 0.67471 0.0
H1566 H 0.3957 0.18442 0.59942 0.0
H1567 H 0.40036 0.17894 0.55138 0.0
H1568 H 0.32136 0.15625 0.53842 0.0
H1569 H 0.31626 0.16184 0.58634 0.0
C1570 C 0.29789 0.11155 0.71954 0.0
C1571 C 0.27262 0.09665 0.70975 0.0
C1572 C 0.31617 0.13284 0.70584 0.0
C1573 C 0.30954 0.14058 0.68251 0.0
C1574 C 0.28393 0.12663 0.6734 0.0
C1575 C 0.26561 0.1048 0.68687 0.0
C1576 C 0.32978 0.16253 0.66728 0.0
C1577 C 0.33299 0.15905 0.64009 0.0
C1578 C 0.34713 0.18615 0.67991 0.0
C1579 C 0.34427 0.19139 0.70833 0.0
C1580 C 0.32093 0.18833 0.71775 0.0
C1581 C 0.31791 0.19188 0.74479 0.0
C1582 C 0.33816 0.19868 0.76261 0.0
C1583 C 0.36154 0.20213 0.75339 0.0
C1584 C 0.36466 0.19861 0.72636 0.0
C1585 C 0.39584 0.25399 0.58668 0.0
C1586 C 0.42115 0.2707 0.59548 0.0
C1587 C 0.37975 0.23177 0.60021 0.0
C1588 C 0.38869 0.22485 0.62239 0.0
C1589 C 0.41447 0.24073 0.63054 0.0
C1590 C 0.43066 0.26358 0.61715 0.0
C1591 C 0.37015 0.20216 0.6379 0.0
C1592 C 0.36719 0.20548 0.66515 0.0
C1593 C 0.35301 0.17844 0.62526 0.0
C1594 C 0.3556 0.17355 0.59659 0.0
C1595 C 0.37929 0.1782 0.58637 0.0
C1596 C 0.38202 0.17512 0.55912 0.0
C1597 C 0.36117 0.16725 0.54186 0.0
C1598 C 0.33748 0.16229 0.55183 0.0
C1599 C 0.33463 0.16531 0.57906 0.0
H1600 H 0.36336 0.16501 0.52077 0.0
H1601 H 0.33574 0.20129 0.78356 0.0
H1602 H 0.19762 0.9105 0.72345 0.0
H1603 H 0.18624 0.8731 0.74945 0.0
H1604 H 0.1747 0.90926 0.81842 0.0
H1605 H 0.1881 0.94795 0.79239 0.0
H1606 H 0.20451 0.89271 0.83158 0.0
H1607 H 0.12398 0.85186 0.78408 0.0
H1608 H 0.09653 0.83974 0.744 0.0
H1609 H 0.13241 0.79961 0.71236 0.0
H1610 H 0.16027 0.8117 0.75211 0.0
H1611 H 0.15433 0.78316 0.91098 0.0
H1612 H 0.16721 0.82121 0.8854 0.0
H1613 H 0.18073 0.78582 0.81705 0.0
H1614 H 0.16627 0.74671 0.84263 0.0
H1615 H 0.15024 0.80199 0.80363 0.0
H1616 H 0.2306 0.84255 0.85103 0.0
H1617 H 0.25776 0.8541 0.89127 0.0
H1618 H 0.22199 0.89419 0.9233 0.0
H1619 H 0.19446 0.88272 0.88334 0.0
C1620 C 0.1916 0.91012 0.74388 0.0
C1621 C 0.19363 0.93209 0.75585 0.0
C1622 C 0.18505 0.88859 0.75884 0.0
C1623 C 0.1794 0.88805 0.78603 0.0
C1624 C 0.17904 0.90917 0.7975 0.0
C1625 C 0.18616 0.9311 0.78251 0.0
C1626 C 0.17685 0.86676 0.80271 0.0
C1627 C 0.19225 0.87285 0.82571 0.0
C1628 C 0.16165 0.8408 0.79462 0.0
C1629 C 0.1443 0.83279 0.77107 0.0
C1630 C 0.12606 0.84049 0.76856 0.0
C1631 C 0.11043 0.83364 0.74588 0.0
C1632 C 0.11276 0.81896 0.72563 0.0
C1633 C 0.13064 0.81101 0.72805 0.0
C1634 C 0.1463 0.81779 0.75069 0.0
C1635 C 0.16099 0.78381 0.89079 0.0
C1636 C 0.15923 0.76196 0.87877 0.0
C1637 C 0.16846 0.80571 0.87611 0.0
C1638 C 0.17503 0.8066 0.84918 0.0
C1639 C 0.17565 0.7856 0.83778 0.0
C1640 C 0.16781 0.76339 0.8525 0.0
C1641 C 0.17788 0.82794 0.83246 0.0
C1642 C 0.16253 0.82186 0.80947 0.0
C1643 C 0.1931 0.85388 0.84057 0.0
C1644 C 0.21039 0.86169 0.86418 0.0
C1645 C 0.22851 0.85382 0.86665 0.0
C1646 C 0.24397 0.86035 0.88942 0.0
C1647 C 0.24159 0.87485 0.90984 0.0
C1648 C 0.22384 0.88299 0.90745 0.0
C1649 C 0.20836 0.87655 0.8847 0.0
H1650 H 0.2535 0.87979 0.9275 0.0
H1651 H 0.10069 0.81373 0.70807 0.0
H1652 H 0.10564 0.24826 0.75428 0.0
H1653 H 0.14692 0.28083 0.77409 0.0
H1654 H 0.10654 0.30286 0.82931 0.0
H1655 H 0.06581 0.27095 0.80967 0.0
H1656 H 0.14402 0.34383 0.8052 0.0
H1657 H 0.13485 0.2705 0.8509 0.0
H1658 H 0.12751 0.22677 0.85233 0.0
H1659 H 0.19538 0.24985 0.80582 0.0
H1660 H 0.20298 0.29371 0.80393 0.0
H1661 H 0.24166 0.41213 0.90742 0.0
H1662 H 0.20256 0.37933 0.88424 0.0
H1663 H 0.24831 0.38155 0.8172 0.0
H1664 H 0.28698 0.41518 0.83954 0.0
H1665 H 0.21031 0.32892 0.84477 0.0
H1666 H 0.2193 0.40294 0.80016 0.0
H1667 H 0.22611 0.44648 0.80008 0.0
H1668 H 0.15731 0.42126 0.84564 0.0
H1669 H 0.15041 0.37762 0.84645 0.0
C1670 C 0.10568 0.25975 0.77096 0.0
C1671 C 0.08257 0.2572 0.7803 0.0
C1672 C 0.12921 0.2784 0.7822 0.0
C1673 C 0.1298 0.29445 0.80304 0.0
C1674 C 0.10661 0.29098 0.81305 0.0
C1675 C 0.08332 0.27262 0.80184 0.0
C1676 C 0.15435 0.31557 0.81408 0.0
C1677 C 0.1584 0.34047 0.81397 0.0
C1678 C 0.17332 0.31135 0.82519 0.0
C1679 C 0.16938 0.2853 0.82711 0.0
C1680 C 0.14817 0.26622 0.84093 0.0
C1681 C 0.14396 0.24142 0.84182 0.0
C1682 C 0.16093 0.23552 0.82911 0.0
C1683 C 0.18224 0.25446 0.81564 0.0
C1684 C 0.18655 0.2793 0.8147 0.0
C1685 C 0.24308 0.40634 0.8873 0.0
C1686 C 0.26706 0.41677 0.87482 0.0
C1687 C 0.22094 0.38736 0.8743 0.0
C1688 C 0.22273 0.37792 0.84918 0.0
C1689 C 0.24661 0.3886 0.83657 0.0
C1690 C 0.26853 0.40814 0.84912 0.0
C1691 C 0.19964 0.3569 0.83602 0.0
C1692 C 0.19592 0.33214 0.83579 0.0
C1693 C 0.18086 0.36116 0.82467 0.0
C1694 C 0.18451 0.38713 0.82363 0.0
C1695 C 0.20576 0.40674 0.81037 0.0
C1696 C 0.20962 0.43142 0.81016 0.0
C1697 C 0.1922 0.43665 0.82292 0.0
C1698 C 0.17082 0.41718 0.83581 0.0
C1699 C 0.16692 0.39247 0.83615 0.0
H1700 H 0.19522 0.45578 0.82276 0.0
H1701 H 0.15759 0.21629 0.82974 0.0
H1702 H 0.78451 0.85517 0.78901 0.0
H1703 H 0.75661 0.86732 0.81319 0.0
H1704 H 0.69098 0.80941 0.76918 0.0
H1705 H 0.71823 0.79885 0.74422 0.0
H1706 H 0.68625 0.8469 0.77128 0.0
H1707 H 0.70756 0.80339 0.83729 0.0
H1708 H 0.73587 0.79623 0.86666 0.0
H1709 H 0.76354 0.86983 0.90354 0.0
H1710 H 0.73555 0.87752 0.87421 0.0
H1711 H 0.58446 0.84007 0.85243 0.0
H1712 H 0.61259 0.82715 0.83009 0.0
H1713 H 0.67874 0.89046 0.86802 0.0
H1714 H 0.65132 0.90266 0.89069 0.0
H1715 H 0.68331 0.85045 0.86968 0.0
H1716 H 0.65757 0.89029 0.79992 0.0
H1717 H 0.62704 0.89251 0.76906 0.0
H1718 H 0.60356 0.81726 0.73906 0.0
H1719 H 0.63373 0.81454 0.76982 0.0
C1720 C 0.76422 0.84554 0.78425 0.0
C1721 C 0.75371 0.82615 0.76463 0.0
C1722 C 0.74823 0.85219 0.7983 0.0
C1723 C 0.72155 0.83905 0.79325 0.0
C1724 C 0.71141 0.82003 0.77342 0.0
C1725 C 0.72722 0.81397 0.75909 0.0
C1726 C 0.70357 0.84472 0.80787 0.0
C1727 C 0.68552 0.8474 0.79285 0.0
C1728 C 0.70259 0.84559 0.83599 0.0
C1729 C 0.71974 0.84117 0.85329 0.0
C1730 C 0.71987 0.81815 0.85148 0.0
C1731 C 0.73581 0.81396 0.86817 0.0
C1732 C 0.75157 0.83261 0.88688 0.0
C1733 C 0.75138 0.85544 0.88899 0.0
C1734 C 0.73548 0.85971 0.87235 0.0
C1735 C 0.60496 0.85093 0.85615 0.0
C1736 C 0.61561 0.87244 0.8732 0.0
C1737 C 0.62103 0.84371 0.84325 0.0
C1738 C 0.64786 0.85808 0.84714 0.0
C1739 C 0.65819 0.87904 0.86469 0.0
C1740 C 0.64234 0.88605 0.87759 0.0
C1741 C 0.66582 0.85212 0.833 0.0
C1742 C 0.68401 0.84971 0.84812 0.0
C1743 C 0.66644 0.85059 0.80495 0.0
C1744 C 0.64762 0.85209 0.78741 0.0
C1745 C 0.64566 0.87413 0.78696 0.0
C1746 C 0.62849 0.8755 0.76941 0.0
C1747 C 0.61332 0.85498 0.75219 0.0
C1748 C 0.61526 0.83308 0.75246 0.0
C1749 C 0.63237 0.83162 0.76993 0.0
H1750 H 0.60008 0.85595 0.73856 0.0
H1751 H 0.76387 0.82933 0.8998 0.0
H1752 H 0.51982 0.41785 0.50905 0.0
H1753 H 0.52469 0.45465 0.48519 0.0
H1754 H 0.51209 0.485 0.55812 0.0
H1755 H 0.50598 0.44747 0.58184 0.0
H1756 H 0.48348 0.48716 0.52121 0.0
H1757 H 0.5726 0.51138 0.52491 0.0
H1758 H 0.60951 0.50508 0.51876 0.0
H1759 H 0.59471 0.49448 0.43462 0.0
H1760 H 0.55744 0.5003 0.44032 0.0
H1761 H 0.53194 0.61481 0.46867 0.0
H1762 H 0.51993 0.57604 0.49397 0.0
H1763 H 0.51792 0.53657 0.42121 0.0
H1764 H 0.52958 0.57495 0.39604 0.0
H1765 H 0.55356 0.53951 0.45831 0.0
H1766 H 0.46522 0.51537 0.45394 0.0
H1767 H 0.42837 0.52186 0.45906 0.0
H1768 H 0.44189 0.5327 0.54338 0.0
H1769 H 0.47916 0.52671 0.5387 0.0
C1770 C 0.51903 0.4328 0.52024 0.0
C1771 C 0.51283 0.42986 0.54745 0.0
C1772 C 0.52164 0.45384 0.50649 0.0
C1773 C 0.51887 0.47283 0.51978 0.0
C1774 C 0.51419 0.47063 0.54731 0.0
C1775 C 0.5111 0.44935 0.56096 0.0
C1776 C 0.51951 0.49419 0.50479 0.0
C1777 C 0.49906 0.49887 0.50781 0.0
C1778 C 0.53938 0.5091 0.48662 0.0
C1779 C 0.56209 0.50606 0.4831 0.0
C1780 C 0.57713 0.50756 0.50512 0.0
C1781 C 0.59811 0.50408 0.50171 0.0
C1782 C 0.60441 0.49932 0.47633 0.0
C1783 C 0.58979 0.49814 0.45428 0.0
C1784 C 0.56874 0.50154 0.45759 0.0
C1785 C 0.5275 0.59743 0.45799 0.0
C1786 C 0.53155 0.5978 0.4304 0.0
C1787 C 0.52099 0.57538 0.47247 0.0
C1788 C 0.51848 0.55355 0.45949 0.0
C1789 C 0.51999 0.55323 0.43166 0.0
C1790 C 0.52634 0.57508 0.41726 0.0
C1791 C 0.51766 0.53243 0.47486 0.0
C1792 C 0.53807 0.52783 0.47184 0.0
C1793 C 0.49781 0.51767 0.49295 0.0
C1794 C 0.47519 0.5209 0.49593 0.0
C1795 C 0.4605 0.51937 0.47355 0.0
C1796 C 0.4395 0.52292 0.47637 0.0
C1797 C 0.43284 0.52778 0.50152 0.0
C1798 C 0.44711 0.52899 0.5239 0.0
C1799 C 0.46816 0.5255 0.52118 0.0
H1800 H 0.41659 0.53054 0.50366 0.0
H1801 H 0.62065 0.4966 0.47374 0.0
H1802 H 0.60802 0.10305 0.50544 0.0
H1803 H 0.5697 0.0711 0.48148 0.0
H1804 H 0.53835 0.03088 0.55472 0.0
H1805 H 0.57726 0.06221 0.57845 0.0
H1806 H 0.53669 0.99909 0.5183 0.0
H1807 H 0.51381 0.06493 0.51924 0.0
H1808 H 0.52274 0.10851 0.5107 0.0
H1809 H 0.53133 0.09832 0.42731 0.0
H1810 H 0.52284 0.0548 0.43542 0.0
H1811 H 0.41185 0.9065 0.47443 0.0
H1812 H 0.45041 0.94091 0.4959 0.0
H1813 H 0.47479 0.97982 0.42091 0.0
H1814 H 0.43524 0.94615 0.39993 0.0
H1815 H 0.48157 0.01286 0.45601 0.0
H1816 H 0.50451 0.94847 0.45286 0.0
H1817 H 0.49705 0.90511 0.45928 0.0
H1818 H 0.49102 0.91291 0.54367 0.0
H1819 H 0.49805 0.95619 0.53773 0.0
C1820 C 0.59248 0.08803 0.51663 0.0
C1821 C 0.5955 0.08532 0.5439 0.0
C1822 C 0.5706 0.06957 0.50285 0.0
C1823 C 0.55099 0.04845 0.51623 0.0
C1824 C 0.55322 0.04685 0.54387 0.0
C1825 C 0.57529 0.06499 0.55753 0.0
C1826 C 0.52918 0.02701 0.50132 0.0
C1827 C 0.52441 0.0021 0.50499 0.0
C1828 C 0.5138 0.0309 0.48297 0.0
C1829 C 0.51786 0.05667 0.47798 0.0
C1830 C 0.51766 0.07201 0.4991 0.0
C1831 C 0.52267 0.09671 0.49433 0.0
C1832 C 0.52766 0.1062 0.46849 0.0
C1833 C 0.52749 0.09095 0.44732 0.0
C1834 C 0.52255 0.06625 0.45199 0.0
C1835 C 0.42588 0.92198 0.46239 0.0
C1836 C 0.42087 0.92342 0.43542 0.0
C1837 C 0.44792 0.94178 0.47468 0.0
C1838 C 0.4659 0.96299 0.46003 0.0
C1839 C 0.46134 0.9638 0.43274 0.0
C1840 C 0.43893 0.94437 0.42065 0.0
C1841 C 0.48872 0.98482 0.47341 0.0
C1842 C 0.49381 0.00981 0.46933 0.0
C1843 C 0.5047 0.98107 0.49106 0.0
C1844 C 0.50165 0.95552 0.49483 0.0
C1845 C 0.50156 0.94092 0.47279 0.0
C1846 C 0.49737 0.91635 0.47633 0.0
C1847 C 0.49351 0.90624 0.50186 0.0
C1848 C 0.494 0.92076 0.52391 0.0
C1849 C 0.49813 0.94534 0.52047 0.0
H1850 H 0.49017 0.88717 0.50455 0.0
H1851 H 0.53161 0.12535 0.46486 0.0
H1852 H 0.04663 0.45652 0.41622 0.0
H1853 H 0.02102 0.46955 0.44079 0.0
H1854 H 0.08954 0.53682 0.46949 0.0
H1855 H 0.11615 0.52275 0.44561 0.0
H1856 H 0.05495 0.51421 0.50863 0.0
H1857 H 0.04976 0.53936 0.41956 0.0
H1858 H 0.04377 0.53223 0.371 0.0
H1859 H 0.96682 0.47026 0.38277 0.0
H1860 H 0.9724 0.47678 0.4314 0.0
H1861 H 0.98 0.56162 0.56304 0.0
H1862 H 0.01002 0.55405 0.53868 0.0
H1863 H 0.94712 0.48865 0.49929 0.0
H1864 H 0.91655 0.4977 0.52226 0.0
H1865 H 0.98162 0.51438 0.46464 0.0
H1866 H 0.98682 0.48554 0.55197 0.0
H1867 H 0.99162 0.48996 0.60082 0.0
H1868 H 0.06697 0.55568 0.59255 0.0
H1869 H 0.06251 0.55185 0.54364 0.0
C1870 C 0.05661 0.47434 0.42739 0.0
C1871 C 0.08364 0.4888 0.42861 0.0
C1872 C 0.04172 0.48183 0.44141 0.0
C1873 C 0.05322 0.50455 0.45636 0.0
C1874 C 0.08025 0.51932 0.45775 0.0
C1875 C 0.09543 0.51141 0.44403 0.0
C1876 C 0.03644 0.51169 0.47122 0.0
C1877 C 0.03925 0.51483 0.49897 0.0
C1878 C 0.0154 0.51161 0.45864 0.0
C1879 C 0.01153 0.50859 0.42924 0.0
C1880 C 0.03154 0.52424 0.41182 0.0
C1881 C 0.02823 0.52027 0.38427 0.0
C1882 C 0.00493 0.5008 0.37381 0.0
C1883 C 0.98484 0.48536 0.39089 0.0
C1884 C 0.98804 0.48924 0.41846 0.0
C1885 C 0.97233 0.54521 0.54968 0.0
C1886 C 0.94576 0.53002 0.54486 0.0
C1887 C 0.98968 0.54087 0.53572 0.0
C1888 C 0.98098 0.52043 0.5175 0.0
C1889 C 0.95435 0.50453 0.51332 0.0
C1890 C 0.93686 0.50945 0.52669 0.0
C1891 C -0.00012 0.51652 0.50217 0.0
C1892 C 0.99744 0.51401 0.47432 0.0
C1893 C 0.02109 0.51688 0.51467 0.0
C1894 C 0.02428 0.51845 0.5441 0.0
C1895 C 0.00442 0.50093 0.56056 0.0
C1896 C 0.00706 0.50336 0.58827 0.0
C1897 C 0.02957 0.52311 0.59978 0.0
C1898 C 0.04955 0.54038 0.58361 0.0
C1899 C 0.047 0.53805 0.55588 0.0
H1900 H 0.03154 0.52501 0.62123 0.0
H1901 H 0.00245 0.49769 0.35249 0.0
H1902 H 0.43832 0.51262 0.92328 0.0
H1903 H 0.47949 0.52865 0.94694 0.0
H1904 H 0.44524 0.46029 -0.00598 0.0
H1905 H 0.4044 0.44552 0.97193 0.0
H1906 H 0.47769 0.49434 0.02268 0.0
H1907 H 0.48002 0.47036 0.92954 0.0
H1908 H 0.47871 0.47459 0.88085 0.0
H1909 H 0.5413 0.55201 0.88647 0.0
H1910 H 0.54282 0.54832 0.93521 0.0
H1911 H 0.58674 0.48557 0.05741 0.0
H1912 H 0.54599 0.47483 0.03538 0.0
H1913 H 0.58434 0.54734 -0.00433 0.0
H1914 H 0.62469 0.55743 0.01672 0.0
H1915 H 0.55108 0.51406 0.96354 0.0
H1916 H 0.54917 0.53592 0.05738 0.0
H1917 H 0.5493 0.53053 0.10599 0.0
H1918 H 0.48464 0.45438 0.09838 0.0
H1919 H 0.48424 0.45925 0.04975 0.0
C1920 C 0.43951 0.50179 0.93958 0.0
C1921 C 0.41838 0.47795 0.94598 0.0
C1922 C 0.46309 0.51062 0.95272 0.0
C1923 C 0.46581 0.49527 0.97169 0.0
C1924 C 0.44392 0.47253 0.97945 0.0
C1925 C 0.42048 0.46409 0.96686 0.0
C1926 C 0.4913 0.50116 0.98221 0.0
C1927 C 0.49365 0.49846 0.00965 0.0
C1928 C 0.51241 0.50695 0.96538 0.0
C1929 C 0.51134 0.50914 0.93606 0.0
C1930 C 0.4934 0.48832 0.92041 0.0
C1931 C 0.49263 0.49062 0.8928 0.0
C1932 C 0.50986 0.51357 0.88059 0.0
C1933 C 0.52793 0.53426 0.89595 0.0
C1934 C 0.52875 0.53207 0.92356 0.0
C1935 C 0.58648 0.49861 0.04316 0.0
C1936 C 0.60874 0.52213 0.03841 0.0
C1937 C 0.56318 0.49275 0.03096 0.0
C1938 C 0.56194 0.51057 0.01431 0.0
C1939 C 0.58467 0.5333 0.00842 0.0
C1940 C 0.60777 0.539 0.02035 0.0
C1941 C 0.53714 0.50661 0.00387 0.0
C1942 C 0.53506 0.50986 0.97651 0.0
C1943 C 0.51611 0.50094 0.02069 0.0
C1944 C 0.51686 0.49787 0.04988 0.0
C1945 C 0.53514 0.51795 0.06605 0.0
C1946 C 0.53521 0.51501 0.09362 0.0
C1947 C 0.51704 0.49211 0.10525 0.0
C1948 C 0.49874 0.47209 0.08935 0.0
C1949 C 0.49857 0.47495 0.0618 0.0
H1950 H 0.5171 0.48989 0.12659 0.0
H1951 H 0.50925 0.5153 0.85922 0.0
H1952 H 0.50193 0.93518 0.89932 0.0
H1953 H 0.49342 0.96619 0.92194 0.0
H1954 H 0.53907 0.96829 -0.01094 0.0
H1955 H 0.54491 0.93547 0.96777 0.0
H1956 H 0.50625 0.97507 0.00819 0.0
H1957 H 0.5611 0.01552 0.93134 0.0
H1958 H 0.57214 0.02079 0.88358 0.0
H1959 H 0.50494 0.02515 0.86643 0.0
H1960 H 0.49347 0.01982 0.91405 0.0
H1961 H 0.52786 0.09179 0.06387 0.0
H1962 H 0.53718 0.06164 0.04056 0.0
H1963 H 0.48491 0.05339 0.97757 0.0
H1964 H 0.4769 0.08446 0.00013 0.0
H1965 H 0.52163 0.05038 0.95666 0.0
H1966 H 0.4679 0.01052 0.03465 0.0
H1967 H 0.45797 0.00575 0.08267 0.0
H1968 H 0.52549 0.00147 0.09808 0.0
H1969 H 0.53588 0.00632 0.05019 0.0
C1970 C 0.5092 0.94165 0.91932 0.0
C1971 C 0.52355 0.93261 0.93208 0.0
C1972 C 0.50491 0.95983 0.93205 0.0
C1973 C 0.51634 0.97047 0.95697 0.0
C1974 C 0.52991 0.96058 0.96996 0.0
C1975 C 0.53315 0.94164 0.95782 0.0
C1976 C 0.51506 0.9923 0.96943 0.0
C1977 C 0.51 0.99166 -0.00312 0.0
C1978 C 0.51945 0.01397 0.95485 0.0
C1979 C 0.52634 0.01708 0.92621 0.0
C1980 C 0.54864 0.0175 0.91735 0.0
C1981 C 0.55498 0.02053 0.89032 0.0
C1982 C 0.53922 0.02325 0.87198 0.0
C1983 C 0.51712 0.02302 0.88065 0.0
C1984 C 0.51072 0.02006 0.90765 0.0
C1985 C 0.51943 0.08441 0.04442 0.0
C1986 C 0.50232 0.09094 0.03332 0.0
C1987 C 0.52425 0.06674 0.03139 0.0
C1988 C 0.51122 0.05463 0.00758 0.0
C1989 C 0.49524 0.06236 -0.00415 0.0
C1990 C 0.49087 0.08036 0.00858 0.0
C1991 C 0.51303 0.03313 -0.0047 0.0
C1992 C 0.5181 0.03383 0.96792 0.0
C1993 C 0.50895 0.01167 0.01 0.0
C1994 C 0.50278 0.00901 0.03885 0.0
C1995 C 0.4807 0.00871 0.0483 0.0
C1996 C 0.47497 0.00595 0.07549 0.0
C1997 C 0.49112 0.00336 0.09341 0.0
C1998 C 0.51301 0.00349 0.08419 0.0
C1999 C 0.51881 0.0062 0.05702 0.0
H2000 H 0.48664 0.00121 0.11444 0.0
H2001 H 0.54416 0.02559 0.85108 0.0
H2002 H 0.04879 0.58806 0.90514 0.0
H2003 H 0.02035 0.5517 0.93227 0.0
H2004 H 0.0842 0.56576 0.98221 0.0
H2005 H 0.11303 0.60325 0.95556 0.0
H2006 H 0.04758 0.51177 0.96465 0.0
H2007 H 0.0497 0.58289 0.00919 0.0
H2008 H 0.04681 0.62168 0.01512 0.0
H2009 H 0.96913 0.58125 0.98599 0.0
H2010 H 0.97164 0.54229 0.97964 0.0
H2011 H 0.97421 0.43441 0.07209 0.0
H2012 H 0.00417 0.47165 0.04682 0.0
H2013 H 0.94213 0.46265 -0.00303 0.0
H2014 H 0.91178 0.42447 0.02177 0.0
H2015 H 0.97869 0.51485 0.0156 0.0
H2016 H 0.97677 0.44413 0.97028 0.0
H2017 H 0.97978 0.40553 0.96329 0.0
H2018 H 0.05724 0.44539 -0.00693 0.0
H2019 H 0.05457 0.48414 0.00059 0.0
C2020 C 0.05705 0.58327 0.92158 0.0
C2021 C 0.08329 0.5987 0.92817 0.0
C2022 C 0.04062 0.56259 0.93724 0.0
C2023 C 0.05005 0.55643 0.95957 0.0
C2024 C 0.07654 0.57047 0.96518 0.0
C2025 C 0.09304 0.59165 0.94973 0.0
C2026 C 0.03193 0.53513 0.97666 0.0
C2027 C 0.03283 0.51258 0.97625 0.0
C2028 C 0.01217 0.53601 -0.00899 0.0
C2029 C 0.011 0.55975 -0.00645 0.0
C2030 C 0.03214 0.58237 0.00363 0.0
C2031 C 0.03053 0.60436 0.00721 0.0
C2032 C 0.00784 0.60396 0.00083 0.0
C2033 C 0.98672 0.58156 -0.00914 0.0
C2034 C 0.98822 0.55952 -0.01272 0.0
C2035 C 0.96668 0.4405 0.0561 0.0
C2036 C 0.94045 0.42637 0.04904 0.0
C2037 C 0.98398 0.46171 0.04148 0.0
C2038 C 0.97547 0.46964 0.01975 0.0
C2039 C 0.94909 0.45667 0.01358 0.0
C2040 C 0.93174 0.43502 0.02793 0.0
C2041 C 0.99434 0.49145 0.00361 0.0
C2042 C 0.99354 0.51408 0.00415 0.0
C2043 C 0.0142 0.49065 -0.01065 0.0
C2044 C 0.0153 0.46692 0.98643 0.0
C2045 C 0.99428 0.44454 0.97581 0.0
C2046 C 0.99598 0.42266 0.9716 0.0
C2047 C 0.01865 0.42297 0.97783 0.0
C2048 C 0.03965 0.44514 -0.01167 0.0
C2049 C 0.03805 0.46706 -0.00742 0.0
H2050 H 0.01997 0.40606 0.97443 0.0
H2051 H 0.00661 0.62098 0.00369 0.0
loop_
_geom_bond_atom_site_label_1
_geom_bond_atom_site_label_2
_geom_bond_distance
_geom_bond_site_symmetry_2
_ccdc_geom_bond_type
C0 O1 1.306 . S
C0 O3 1.160 1_455 S
O1 C0 1.306 . S
O1 Cd2 2.228 . S
Cd2 O1 2.228 . S
Cd2 O6 2.273 . S
Cd2 O10 2.277 . S
O3 C0 1.160 1_655 S
O3 Cd4 2.203 1_655 S
Cd4 O3 2.203 1_455 S
Cd4 O6 2.411 . S
Cd4 O7 2.333 . S
Cd4 O8 2.352 1_455 S
Cd4 O12 2.277 . S
Cd4 O13 2.356 1_455 S
C5 O10 1.209 . S
C5 O12 1.226 . S
O6 Cd2 2.273 . S
O6 Cd4 2.411 . S
O6 C9 1.320 . S
O7 Cd4 2.333 . S
O7 C9 1.214 . S
O8 Cd4 2.352 1_655 S
O8 C11 1.258 . S
C9 O6 1.320 . S
C9 O7 1.214 . S
O10 Cd2 2.277 . S
O10 C5 1.209 . S
C11 O8 1.258 . S
C11 O13 1.282 . S
O12 Cd4 2.277 . S
O12 C5 1.226 . S
O13 Cd4 2.356 1_655 S
O13 C11 1.282 . S
C14 O15 1.306 . S
C14 O17 1.160 . S
O15 C14 1.306 . S
O15 Cd16 2.228 . S
Cd16 O15 2.228 . S
Cd16 O20 2.273 . S
Cd16 O24 2.277 . S
O17 C14 1.160 . S
O17 Cd18 2.203 . S
Cd18 O17 2.203 . S
Cd18 O20 2.411 . S
Cd18 O21 2.333 . S
Cd18 O22 2.352 . S
Cd18 O26 2.277 . S
Cd18 O27 2.356 . S
C19 O24 1.209 . S
C19 O26 1.226 . S
O20 Cd16 2.273 . S
O20 Cd18 2.411 . S
O20 C23 1.320 . S
O21 Cd18 2.333 . S
O21 C23 1.214 . S
O22 Cd18 2.352 . S
O22 C25 1.258 . S
C23 O20 1.320 . S
C23 O21 1.214 . S
O24 Cd16 2.277 . S
O24 C19 1.209 . S
C25 O22 1.258 . S
C25 O27 1.282 . S
O26 Cd18 2.277 . S
O26 C19 1.226 . S
O27 Cd18 2.356 . S
O27 C25 1.282 . S
C28 O29 1.306 . S
C28 O31 1.160 1_545 S
O29 C28 1.306 . S
O29 Cd30 2.228 . S
Cd30 O29 2.228 . S
Cd30 O34 2.273 . S
Cd30 O38 2.277 . S
O31 C28 1.160 1_565 S
O31 Cd32 2.203 1_565 S
Cd32 O31 2.203 1_545 S
Cd32 O34 2.411 . S
Cd32 O35 2.333 . S
Cd32 O36 2.352 1_545 S
Cd32 O40 2.277 . S
Cd32 O41 2.356 1_545 S
C33 O38 1.209 . S
C33 O40 1.226 . S
O34 Cd30 2.273 . S
O34 Cd32 2.411 . S
O34 C37 1.320 . S
O35 Cd32 2.333 . S
O35 C37 1.214 . S
O36 Cd32 2.352 1_565 S
O36 C39 1.258 . S
C37 O34 1.320 . S
C37 O35 1.214 . S
O38 Cd30 2.277 . S
O38 C33 1.209 . S
C39 O36 1.258 . S
C39 O41 1.282 . S
O40 Cd32 2.277 . S
O40 C33 1.226 . S
O41 Cd32 2.356 1_565 S
O41 C39 1.282 . S
C42 O43 1.306 . S
C42 O45 1.160 . S
O43 C42 1.306 . S
O43 Cd44 2.228 1_455 S
Cd44 O43 2.228 1_655 S
Cd44 O48 2.273 . S
Cd44 O52 2.277 . S
O45 C42 1.160 . S
O45 Cd46 2.203 . S
Cd46 O45 2.203 . S
Cd46 O48 2.411 1_455 S
Cd46 O49 2.333 1_455 S
Cd46 O50 2.352 . S
Cd46 O54 2.279 . S
Cd46 O55 2.356 . S
C47 O52 1.209 . S
C47 O54 1.226 1_655 S
O48 Cd44 2.273 . S
O48 Cd46 2.411 1_655 S
O48 C51 1.320 . S
O49 Cd46 2.333 1_655 S
O49 C51 1.214 . S
O50 Cd46 2.352 . S
O50 C53 1.258 . S
C51 O48 1.320 . S
C51 O49 1.214 . S
O52 Cd44 2.277 . S
O52 C47 1.209 . S
C53 O50 1.258 . S
C53 O55 1.282 . S
O54 Cd46 2.279 . S
O54 C47 1.226 1_455 S
O55 Cd46 2.356 . S
O55 C53 1.282 . S
C56 O57 1.306 . S
C56 O59 1.160 . S
O57 C56 1.306 . S
O57 Cd58 2.228 . S
Cd58 O57 2.228 . S
Cd58 O62 2.273 . S
Cd58 O66 2.277 . S
O59 C56 1.160 . S
O59 Cd60 2.203 . S
Cd60 O59 2.203 . S
Cd60 O62 2.411 . S
Cd60 O63 2.333 . S
Cd60 O64 2.352 . S
Cd60 O68 2.277 . S
Cd60 O69 2.356 . S
C61 O66 1.209 . S
C61 O68 1.226 . S
O62 Cd58 2.273 . S
O62 Cd60 2.411 . S
O62 C65 1.320 . S
O63 Cd60 2.333 . S
O63 C65 1.214 . S
O64 Cd60 2.352 . S
O64 C67 1.258 . S
C65 O62 1.320 . S
C65 O63 1.214 . S
O66 Cd58 2.277 . S
O66 C61 1.209 . S
C67 O64 1.258 . S
C67 O69 1.282 . S
O68 Cd60 2.277 . S
O68 C61 1.226 . S
O69 Cd60 2.356 . S
O69 C67 1.282 . S
C70 O71 1.306 . S
C70 O73 1.160 . S
O71 C70 1.306 . S
O71 Cd72 2.228 1_545 S
Cd72 O71 2.228 1_565 S
Cd72 O76 2.295 . S
Cd72 O80 2.277 . S
O73 C70 1.160 . S
O73 Cd74 2.203 . S
Cd74 O73 2.203 . S
Cd74 O76 2.390 1_545 S
Cd74 O77 2.333 1_545 S
Cd74 O78 2.352 . S
Cd74 O82 2.277 1_545 S
Cd74 O83 2.356 . S
C75 O80 1.209 . S
C75 O82 1.226 . S
O76 Cd72 2.295 . S
O76 Cd74 2.390 1_565 S
O76 C79 1.318 . S
O77 Cd74 2.333 1_565 S
O77 C79 1.214 . S
O78 Cd74 2.352 . S
O78 C81 1.258 . S
C79 O76 1.318 . S
C79 O77 1.214 . S
O80 Cd72 2.277 . S
O80 C75 1.209 . S
C81 O78 1.258 . S
C81 O83 1.282 . S
O82 Cd74 2.277 1_565 S
O82 C75 1.226 . S
O83 Cd74 2.356 . S
O83 C81 1.282 . S
C84 O85 1.306 . S
C84 O87 1.160 . S
O85 C84 1.306 . S
O85 Cd86 2.228 . S
Cd86 O85 2.228 . S
Cd86 O90 2.273 . S
Cd86 O94 2.277 . S
O87 C84 1.160 . S
O87 Cd88 2.203 . S
Cd88 O87 2.203 . S
Cd88 O90 2.411 . S
Cd88 O91 2.333 . S
Cd88 O92 2.352 . S
Cd88 O96 2.277 . S
Cd88 O97 2.356 . S
C89 O94 1.209 . S
C89 O96 1.226 . S
O90 Cd86 2.273 . S
O90 Cd88 2.411 . S
O90 C93 1.320 . S
O91 Cd88 2.333 . S
O91 C93 1.214 . S
O92 Cd88 2.352 . S
O92 C95 1.258 . S
C93 O90 1.320 . S
C93 O91 1.214 . S
O94 Cd86 2.277 . S
O94 C89 1.209 . S
C95 O92 1.258 . S
C95 O97 1.282 . S
O96 Cd88 2.277 . S
O96 C89 1.226 . S
O97 Cd88 2.356 . S
O97 C95 1.282 . S
C98 O99 1.306 . S
C98 O101 1.160 . S
O99 C98 1.306 . S
O99 Cd100 2.228 . S
Cd100 O99 2.228 . S
Cd100 O104 2.273 . S
Cd100 O108 2.277 . S
O101 C98 1.160 . S
O101 Cd102 2.203 . S
Cd102 O101 2.203 . S
Cd102 O104 2.411 . S
Cd102 O105 2.333 . S
Cd102 O106 2.352 . S
Cd102 O110 2.277 . S
Cd102 O111 2.356 . S
C103 O108 1.209 . S
C103 O110 1.226 . S
O104 Cd100 2.273 . S
O104 Cd102 2.411 . S
O104 C107 1.320 . S
O105 Cd102 2.333 . S
O105 C107 1.214 . S
O106 Cd102 2.352 . S
O106 C109 1.258 . S
C107 O104 1.320 . S
C107 O105 1.214 . S
O108 Cd100 2.277 . S
O108 C103 1.209 . S
C109 O106 1.258 . S
C109 O111 1.282 . S
O110 Cd102 2.277 . S
O110 C103 1.226 . S
O111 Cd102 2.356 . S
O111 C109 1.282 . S
C112 O113 1.306 . S
C112 O115 1.160 . S
O113 C112 1.306 . S
O113 Cd114 2.228 . S
Cd114 O113 2.228 . S
Cd114 O118 2.273 . S
Cd114 O122 2.277 . S
O115 C112 1.160 . S
O115 Cd116 2.203 . S
Cd116 O115 2.203 . S
Cd116 O118 2.411 . S
Cd116 O119 2.333 . S
Cd116 O120 2.352 . S
Cd116 O124 2.277 . S
Cd116 O125 2.356 . S
C117 O122 1.209 . S
C117 O124 1.226 . S
O118 Cd114 2.273 . S
O118 Cd116 2.411 . S
O118 C121 1.320 . S
O119 Cd116 2.333 . S
O119 C121 1.214 . S
O120 Cd116 2.352 . S
O120 C123 1.258 . S
C121 O118 1.320 . S
C121 O119 1.214 . S
O122 Cd114 2.277 . S
O122 C117 1.209 . S
C123 O120 1.258 . S
C123 O125 1.282 . S
O124 Cd116 2.277 . S
O124 C117 1.226 . S
O125 Cd116 2.356 . S
O125 C123 1.282 . S
C126 O127 1.306 . S
C126 O129 1.160 . S
O127 C126 1.306 . S
O127 Cd128 2.228 . S
Cd128 O127 2.228 . S
Cd128 O132 2.273 . S
Cd128 O136 2.277 . S
O129 C126 1.160 . S
O129 Cd130 2.203 . S
Cd130 O129 2.203 . S
Cd130 O132 2.411 . S
Cd130 O133 2.333 . S
Cd130 O134 2.352 . S
Cd130 O138 2.277 . S
Cd130 O139 2.356 . S
C131 O136 1.209 . S
C131 O138 1.226 . S
O132 Cd128 2.273 . S
O132 Cd130 2.411 . S
O132 C135 1.320 . S
O133 Cd130 2.333 . S
O133 C135 1.214 . S
O134 Cd130 2.352 . S
O134 C137 1.258 . S
C135 O132 1.320 . S
C135 O133 1.214 . S
O136 Cd128 2.277 . S
O136 C131 1.209 . S
C137 O134 1.258 . S
C137 O139 1.282 . S
O138 Cd130 2.277 . S
O138 C131 1.226 . S
O139 Cd130 2.356 . S
O139 C137 1.282 . S
C140 O141 1.306 . S
C140 O143 1.160 . S
O141 C140 1.306 . S
O141 Cd142 2.228 . S
Cd142 O141 2.228 . S
Cd142 O146 2.273 . S
Cd142 O150 2.277 . S
O143 C140 1.160 . S
O143 Cd144 2.203 . S
Cd144 O143 2.203 . S
Cd144 O146 2.411 . S
Cd144 O147 2.333 . S
Cd144 O148 2.352 . S
Cd144 O152 2.277 . S
Cd144 O153 2.356 . S
C145 O150 1.209 . S
C145 O152 1.226 . S
O146 Cd142 2.273 . S
O146 Cd144 2.411 . S
O146 C149 1.320 . S
O147 Cd144 2.333 . S
O147 C149 1.214 . S
O148 Cd144 2.352 . S
O148 C151 1.258 . S
C149 O146 1.320 . S
C149 O147 1.214 . S
O150 Cd142 2.277 . S
O150 C145 1.209 . S
C151 O148 1.258 . S
C151 O153 1.282 . S
O152 Cd144 2.277 . S
O152 C145 1.226 . S
O153 Cd144 2.356 . S
O153 C151 1.282 . S
C154 O155 1.306 . S
C154 O157 1.160 . S
O155 C154 1.306 . S
O155 Cd156 2.228 . S
Cd156 O155 2.228 . S
Cd156 O160 2.273 . S
Cd156 O164 2.277 . S
O157 C154 1.160 . S
O157 Cd158 2.203 . S
Cd158 O157 2.203 . S
Cd158 O160 2.411 . S
Cd158 O161 2.333 . S
Cd158 O162 2.352 . S
Cd158 O166 2.277 . S
Cd158 O167 2.356 . S
C159 O164 1.209 . S
C159 O166 1.226 . S
O160 Cd156 2.273 . S
O160 Cd158 2.411 . S
O160 C163 1.320 . S
O161 Cd158 2.333 . S
O161 C163 1.214 . S
O162 Cd158 2.352 . S
O162 C165 1.258 . S
C163 O160 1.320 . S
C163 O161 1.214 . S
O164 Cd156 2.277 . S
O164 C159 1.209 . S
C165 O162 1.258 . S
C165 O167 1.282 . S
O166 Cd158 2.277 . S
O166 C159 1.226 . S
O167 Cd158 2.356 . S
O167 C165 1.282 . S
C168 O169 1.306 . S
C168 O171 1.160 . S
O169 C168 1.306 . S
O169 Cd170 2.228 . S
Cd170 O169 2.228 . S
Cd170 O174 2.273 . S
Cd170 O178 2.277 . S
O171 C168 1.160 . S
O171 Cd172 2.203 . S
Cd172 O171 2.203 . S
Cd172 O174 2.411 . S
Cd172 O175 2.333 . S
Cd172 O176 2.352 . S
Cd172 O180 2.277 . S
Cd172 O181 2.356 . S
C173 O178 1.209 . S
C173 O180 1.226 . S
O174 Cd170 2.273 . S
O174 Cd172 2.411 . S
O174 C177 1.320 . S
O175 Cd172 2.333 . S
O175 C177 1.214 . S
O176 Cd172 2.352 . S
O176 C179 1.258 . S
C177 O174 1.320 . S
C177 O175 1.214 . S
O178 Cd170 2.277 . S
O178 C173 1.209 . S
C179 O176 1.258 . S
C179 O181 1.282 . S
O180 Cd172 2.277 . S
O180 C173 1.226 . S
O181 Cd172 2.356 . S
O181 C179 1.282 . S
C182 O183 1.306 . S
C182 O185 1.160 . S
O183 C182 1.306 . S
O183 Cd184 2.228 . S
Cd184 O183 2.228 . S
Cd184 O188 2.273 . S
Cd184 O192 2.277 . S
O185 C182 1.160 . S
O185 Cd186 2.203 . S
Cd186 O185 2.203 . S
Cd186 O188 2.411 . S
Cd186 O189 2.333 . S
Cd186 O190 2.352 . S
Cd186 O194 2.277 . S
Cd186 O195 2.356 . S
C187 O192 1.209 . S
C187 O194 1.226 . S
O188 Cd184 2.273 . S
O188 Cd186 2.411 . S
O188 C191 1.320 . S
O189 Cd186 2.333 . S
O189 C191 1.214 . S
O190 Cd186 2.352 . S
O190 C193 1.258 . S
C191 O188 1.320 . S
C191 O189 1.214 . S
O192 Cd184 2.277 . S
O192 C187 1.209 . S
C193 O190 1.258 . S
C193 O195 1.282 . S
O194 Cd186 2.277 . S
O194 C187 1.226 . S
O195 Cd186 2.356 . S
O195 C193 1.282 . S
C196 O197 1.306 . S
C196 O199 1.160 . S
O197 C196 1.306 . S
O197 Cd198 2.228 . S
Cd198 O197 2.228 . S
Cd198 O202 2.273 . S
Cd198 O206 2.277 . S
O199 C196 1.160 . S
O199 Cd200 2.203 . S
Cd200 O199 2.203 . S
Cd200 O202 2.411 . S
Cd200 O203 2.333 . S
Cd200 O204 2.352 . S
Cd200 O208 2.277 . S
Cd200 O209 2.356 . S
C201 O206 1.209 . S
C201 O208 1.226 . S
O202 Cd198 2.273 . S
O202 Cd200 2.411 . S
O202 C205 1.320 . S
O203 Cd200 2.333 . S
O203 C205 1.214 . S
O204 Cd200 2.352 . S
O204 C207 1.258 . S
C205 O202 1.320 . S
C205 O203 1.214 . S
O206 Cd198 2.277 . S
O206 C201 1.209 . S
C207 O204 1.258 . S
C207 O209 1.282 . S
O208 Cd200 2.277 . S
O208 C201 1.226 . S
O209 Cd200 2.356 . S
O209 C207 1.282 . S
C210 O211 1.306 . S
C210 O213 1.160 . S
O211 C210 1.306 . S
O211 Cd212 2.228 . S
Cd212 O211 2.228 . S
Cd212 O216 2.273 . S
Cd212 O220 2.277 . S
O213 C210 1.160 . S
O213 Cd214 2.203 . S
Cd214 O213 2.203 . S
Cd214 O216 2.411 . S
Cd214 O217 2.333 . S
Cd214 O218 2.352 . S
Cd214 O222 2.277 . S
Cd214 O223 2.356 . S
C215 O220 1.209 . S
C215 O222 1.226 . S
O216 Cd212 2.273 . S
O216 Cd214 2.411 . S
O216 C219 1.320 . S
O217 Cd214 2.333 . S
O217 C219 1.214 . S
O218 Cd214 2.352 . S
O218 C221 1.258 . S
C219 O216 1.320 . S
C219 O217 1.214 . S
O220 Cd212 2.277 . S
O220 C215 1.209 . S
C221 O218 1.258 . S
C221 O223 1.282 . S
O222 Cd214 2.277 . S
O222 C215 1.226 . S
O223 Cd214 2.356 . S
O223 C221 1.282 . S
C224 O225 1.306 . S
C224 O227 1.160 . S
O225 C224 1.306 . S
O225 Cd226 2.228 . S
Cd226 O225 2.228 . S
Cd226 O230 2.273 . S
Cd226 O234 2.277 . S
O227 C224 1.160 . S
O227 Cd228 2.203 . S
Cd228 O227 2.203 . S
Cd228 O230 2.411 . S
Cd228 O231 2.333 . S
Cd228 O232 2.352 . S
Cd228 O236 2.277 . S
Cd228 O237 2.356 . S
C229 O234 1.209 . S
C229 O236 1.226 . S
O230 Cd226 2.273 . S
O230 Cd228 2.411 . S
O230 C233 1.320 . S
O231 Cd228 2.333 . S
O231 C233 1.214 . S
O232 Cd228 2.352 . S
O232 C235 1.258 . S
C233 O230 1.320 . S
C233 O231 1.214 . S
O234 Cd226 2.277 . S
O234 C229 1.209 . S
C235 O232 1.258 . S
C235 O237 1.282 . S
O236 Cd228 2.277 . S
O236 C229 1.226 . S
O237 Cd228 2.356 . S
O237 C235 1.282 . S
C238 O239 1.306 . S
C238 O241 1.160 . S
O239 C238 1.306 . S
O239 Cd240 2.228 . S
Cd240 O239 2.228 . S
Cd240 O244 2.273 . S
Cd240 O248 2.277 . S
O241 C238 1.160 . S
O241 Cd242 2.203 . S
Cd242 O241 2.203 . S
Cd242 O244 2.411 . S
Cd242 O245 2.333 . S
Cd242 O246 2.352 . S
Cd242 O250 2.277 . S
Cd242 O251 2.356 . S
C243 O248 1.209 . S
C243 O250 1.226 . S
O244 Cd240 2.273 . S
O244 Cd242 2.411 . S
O244 C247 1.320 . S
O245 Cd242 2.333 . S
O245 C247 1.214 . S
O246 Cd242 2.352 . S
O246 C249 1.258 . S
C247 O244 1.320 . S
C247 O245 1.214 . S
O248 Cd240 2.277 . S
O248 C243 1.209 . S
C249 O246 1.258 . S
C249 O251 1.282 . S
O250 Cd242 2.277 . S
O250 C243 1.226 . S
O251 Cd242 2.356 . S
O251 C249 1.282 . S
H252 C270 0.951 . S
H253 C272 0.951 . S
H254 C274 0.950 . S
H255 C275 0.950 . S
H256 C277 0.950 . S
H257 C280 0.950 . S
H258 C281 0.950 . S
H259 C283 0.950 . S
H260 C284 0.950 . S
H261 C285 0.951 . S
H262 C287 0.951 . S
H263 C289 0.950 . S
H264 C290 0.950 . S
H265 C292 0.950 . S
H266 C295 0.950 . S
H267 C296 0.950 . S
H268 C298 0.950 . S
H269 C299 0.950 . S
C270 H252 0.951 . S
C270 C271 1.366 . S
C270 C272 1.388 . S
C271 C270 1.366 . S
C271 C275 1.385 . S
C272 H253 0.951 . S
C272 C270 1.388 . S
C272 C273 1.366 . S
C273 C272 1.366 . S
C273 C274 1.414 . S
C273 C276 1.499 . S
C274 H254 0.950 . S
C274 C273 1.414 . S
C274 C275 1.374 . S
C275 H255 0.950 . S
C275 C271 1.385 . S
C275 C274 1.374 . S
C276 C273 1.499 . S
C276 C277 1.373 . S
C276 C278 1.389 . S
C277 H256 0.950 . S
C277 C276 1.373 . S
C277 C293 1.377 . S
C278 C276 1.389 . S
C278 C279 1.524 . S
C278 C292 1.377 . S
C279 C278 1.524 . S
C279 C280 1.397 . S
C279 C284 1.363 . S
C280 H257 0.950 . S
C280 C279 1.397 . S
C280 C281 1.334 . S
C281 H258 0.950 . S
C281 C280 1.334 . S
C281 C282 1.287 . S
C282 C281 1.287 . S
C282 C283 1.524 . S
C282 H301 0.913 . S
C283 H259 0.950 . S
C283 C282 1.524 . S
C283 C284 1.415 . S
C284 H260 0.950 . S
C284 C279 1.363 . S
C284 C283 1.415 . S
C285 H261 0.951 . S
C285 C286 1.366 . S
C285 C287 1.388 1_556 S
C286 C285 1.366 . S
C286 C290 1.385 . S
C287 H262 0.951 . S
C287 C285 1.388 1_554 S
C287 C288 1.366 . S
C288 C287 1.366 . S
C288 C289 1.414 . S
C288 C291 1.499 . S
C289 H263 0.950 . S
C289 C288 1.414 . S
C289 C290 1.374 1_554 S
C290 H264 0.950 . S
C290 C286 1.385 . S
C290 C289 1.374 1_556 S
C291 C288 1.499 . S
C291 C292 1.373 . S
C291 C293 1.389 . S
C292 H265 0.950 . S
C292 C278 1.377 . S
C292 C291 1.373 . S
C293 C277 1.377 . S
C293 C291 1.389 . S
C293 C294 1.524 . S
C294 C293 1.524 . S
C294 C295 1.397 . S
C294 C299 1.363 . S
C295 H266 0.950 . S
C295 C294 1.397 . S
C295 C296 1.334 . S
C296 H267 0.950 . S
C296 C295 1.334 . S
C296 C297 1.287 . S
C297 C296 1.287 . S
C297 C298 1.524 . S
C297 H300 0.999 . S
C298 H268 0.950 . S
C298 C297 1.524 . S
C298 C299 1.415 . S
C299 H269 0.950 . S
C299 C294 1.363 . S
C299 C298 1.415 . S
H300 C297 0.999 . S
H301 C282 0.913 . S
H302 C320 0.951 . S
H303 C322 0.951 . S
H304 C324 0.950 . S
H305 C325 0.950 . S
H306 C327 0.950 . S
H307 C330 0.950 . S
H308 C331 0.950 . S
H309 C333 0.950 . S
H310 C334 0.950 . S
H311 C335 0.951 . S
H312 C337 0.951 . S
H313 C339 0.950 . S
H314 C340 0.950 . S
H315 C342 0.950 . S
H316 C345 0.950 . S
H317 C346 0.950 . S
H318 C348 0.950 . S
H319 C349 0.950 . S
C320 H302 0.951 . S
C320 C321 1.366 . S
C320 C322 1.388 1_556 S
C321 C320 1.366 . S
C321 C325 1.385 1_556 S
C322 H303 0.951 . S
C322 C320 1.388 1_554 S
C322 C323 1.366 . S
C323 C322 1.366 . S
C323 C324 1.414 . S
C323 C326 1.499 . S
C324 H304 0.950 . S
C324 C323 1.414 . S
C324 C325 1.374 . S
C325 H305 0.950 . S
C325 C321 1.385 1_554 S
C325 C324 1.374 . S
C326 C323 1.499 . S
C326 C327 1.373 . S
C326 C328 1.389 . S
C327 H306 0.950 . S
C327 C326 1.373 . S
C327 C343 1.377 . S
C328 C326 1.389 . S
C328 C329 1.524 . S
C328 C342 1.377 . S
C329 C328 1.524 . S
C329 C330 1.397 . S
C329 C334 1.363 . S
C330 H307 0.950 . S
C330 C329 1.397 . S
C330 C331 1.334 . S
C331 H308 0.950 . S
C331 C330 1.334 . S
C331 C332 1.287 . S
C332 C331 1.287 . S
C332 C333 1.524 . S
C332 H351 0.913 . S
C333 H309 0.950 . S
C333 C332 1.524 . S
C333 C334 1.415 . S
C334 H310 0.950 . S
C334 C329 1.363 . S
C334 C333 1.415 . S
C335 H311 0.951 . S
C335 C336 1.366 . S
C335 C337 1.388 . S
C336 C335 1.366 . S
C336 C340 1.385 . S
C337 H312 0.951 . S
C337 C335 1.388 . S
C337 C338 1.366 . S
C338 C337 1.366 . S
C338 C339 1.414 . S
C338 C341 1.499 . S
C339 H313 0.950 . S
C339 C338 1.414 . S
C339 C340 1.374 . S
C340 H314 0.950 . S
C340 C336 1.385 . S
C340 C339 1.374 . S
C341 C338 1.499 . S
C341 C342 1.373 . S
C341 C343 1.389 . S
C342 H315 0.950 . S
C342 C328 1.377 . S
C342 C341 1.373 . S
C343 C327 1.377 . S
C343 C341 1.389 . S
C343 C344 1.524 . S
C344 C343 1.524 . S
C344 C345 1.397 . S
C344 C349 1.363 . S
C345 H316 0.950 . S
C345 C344 1.397 . S
C345 C346 1.334 . S
C346 H317 0.950 . S
C346 C345 1.334 . S
C346 C347 1.287 . S
C347 C346 1.287 . S
C347 C348 1.524 . S
C347 H350 0.999 . S
C348 H318 0.950 . S
C348 C347 1.524 . S
C348 C349 1.415 . S
C349 H319 0.950 . S
C349 C344 1.363 . S
C349 C348 1.415 . S
H350 C347 0.999 . S
H351 C332 0.913 . S
H352 C370 0.951 . S
H353 C372 0.951 . S
H354 C374 0.950 . S
H355 C375 0.950 . S
H356 C377 0.950 . S
H357 C380 0.950 . S
H358 C381 0.950 . S
H359 C383 0.950 . S
H360 C384 0.950 . S
H361 C385 0.951 . S
H362 C387 0.951 . S
H363 C389 0.950 . S
H364 C390 0.950 . S
H365 C392 0.950 . S
H366 C395 0.950 . S
H367 C396 0.950 . S
H368 C398 0.950 . S
H369 C399 0.950 . S
C370 H352 0.951 . S
C370 C371 1.366 . S
C370 C372 1.388 . S
C371 C370 1.366 . S
C371 C375 1.385 1_565 S
C372 H353 0.951 . S
C372 C370 1.388 . S
C372 C373 1.366 . S
C373 C372 1.366 . S
C373 C374 1.414 1_565 S
C373 C376 1.499 . S
C374 H354 0.950 . S
C374 C373 1.414 1_545 S
C374 C375 1.374 . S
C375 H355 0.950 . S
C375 C371 1.385 1_545 S
C375 C374 1.374 . S
C376 C373 1.499 . S
C376 C377 1.373 . S
C376 C378 1.389 . S
C377 H356 0.950 . S
C377 C376 1.373 . S
C377 C393 1.377 . S
C378 C376 1.389 . S
C378 C379 1.524 . S
C378 C392 1.377 . S
C379 C378 1.524 . S
C379 C380 1.397 . S
C379 C384 1.363 . S
C380 H357 0.950 . S
C380 C379 1.397 . S
C380 C381 1.334 . S
C381 H358 0.950 . S
C381 C380 1.334 . S
C381 C382 1.287 . S
C382 C381 1.287 . S
C382 C383 1.524 . S
C382 H401 0.913 . S
C383 H359 0.950 . S
C383 C382 1.524 . S
C383 C384 1.415 . S
C384 H360 0.950 . S
C384 C379 1.363 . S
C384 C383 1.415 . S
C385 H361 0.951 . S
C385 C386 1.366 . S
C385 C387 1.388 1_556 S
C386 C385 1.366 . S
C386 C390 1.385 . S
C387 H362 0.951 . S
C387 C385 1.388 1_554 S
C387 C388 1.366 . S
C388 C387 1.366 . S
C388 C389 1.414 . S
C388 C391 1.499 . S
C389 H363 0.950 . S
C389 C388 1.414 . S
C389 C390 1.374 1_554 S
C390 H364 0.950 . S
C390 C386 1.385 . S
C390 C389 1.374 1_556 S
C391 C388 1.499 . S
C391 C392 1.373 . S
C391 C393 1.389 . S
C392 H365 0.950 . S
C392 C378 1.377 . S
C392 C391 1.373 . S
C393 C377 1.377 . S
C393 C391 1.389 . S
C393 C394 1.524 . S
C394 C393 1.524 . S
C394 C395 1.397 . S
C394 C399 1.363 1_565 S
C395 H366 0.950 . S
C395 C394 1.397 . S
C395 C396 1.334 . S
C396 H367 0.950 . S
C396 C395 1.334 . S
C396 C397 1.287 . S
C397 C396 1.287 . S
C397 C398 1.524 1_565 S
C397 H400 0.999 . S
C398 H368 0.950 . S
C398 C397 1.524 1_545 S
C398 C399 1.415 . S
C399 H369 0.950 . S
C399 C394 1.363 1_545 S
C399 C398 1.415 . S
H400 C397 0.999 . S
H401 C382 0.913 . S
H402 C420 0.951 . S
H403 C422 0.951 . S
H404 C424 0.950 . S
H405 C425 0.950 . S
H406 C427 0.950 . S
H407 C430 0.950 . S
H408 C431 0.950 . S
H409 C433 0.950 . S
H410 C434 0.950 . S
H411 C435 0.951 . S
H412 C437 0.951 . S
H413 C439 0.950 . S
H414 C440 0.950 . S
H415 C442 0.950 . S
H416 C445 0.950 . S
H417 C446 0.950 . S
H418 C448 0.950 . S
H419 C449 0.950 . S
C420 H402 0.951 . S
C420 C421 1.366 . S
C420 C422 1.388 . S
C421 C420 1.366 . S
C421 C425 1.385 . S
C422 H403 0.951 . S
C422 C420 1.388 . S
C422 C423 1.366 . S
C423 C422 1.366 . S
C423 C424 1.414 . S
C423 C426 1.499 . S
C424 H404 0.950 . S
C424 C423 1.414 . S
C424 C425 1.374 . S
C425 H405 0.950 . S
C425 C421 1.385 . S
C425 C424 1.374 . S
C426 C423 1.499 . S
C426 C427 1.373 . S
C426 C428 1.389 . S
C427 H406 0.950 . S
C427 C426 1.373 . S
C427 C443 1.377 . S
C428 C426 1.389 . S
C428 C429 1.524 . S
C428 C442 1.377 . S
C429 C428 1.524 . S
C429 C430 1.397 . S
C429 C434 1.363 . S
C430 H407 0.950 . S
C430 C429 1.397 . S
C430 C431 1.334 1_545 S
C431 H408 0.950 . S
C431 C430 1.334 1_565 S
C431 C432 1.287 . S
C432 C431 1.287 . S
C432 C433 1.524 . S
C432 H451 0.913 . S
C433 H409 0.950 . S
C433 C432 1.524 . S
C433 C434 1.415 1_565 S
C434 H410 0.950 . S
C434 C429 1.363 . S
C434 C433 1.415 1_545 S
C435 H411 0.951 . S
C435 C436 1.366 . S
C435 C437 1.388 . S
C436 C435 1.366 . S
C436 C440 1.385 . S
C437 H412 0.951 . S
C437 C435 1.388 . S
C437 C438 1.366 . S
C438 C437 1.366 . S
C438 C439 1.414 . S
C438 C441 1.499 . S
C439 H413 0.950 . S
C439 C438 1.414 . S
C439 C440 1.374 . S
C440 H414 0.950 . S
C440 C436 1.385 . S
C440 C439 1.374 . S
C441 C438 1.499 . S
C441 C442 1.373 . S
C441 C443 1.389 . S
C442 H415 0.950 . S
C442 C428 1.377 . S
C442 C441 1.373 . S
C443 C427 1.377 . S
C443 C441 1.389 . S
C443 C444 1.524 . S
C444 C443 1.524 . S
C444 C445 1.397 . S
C444 C449 1.363 . S
C445 H416 0.950 . S
C445 C444 1.397 . S
C445 C446 1.334 . S
C446 H417 0.950 . S
C446 C445 1.334 . S
C446 C447 1.287 . S
C447 C446 1.287 . S
C447 C448 1.524 . S
C447 H450 0.999 . S
C448 H418 0.950 . S
C448 C447 1.524 . S
C448 C449 1.415 . S
C449 H419 0.950 . S
C449 C444 1.363 . S
C449 C448 1.415 . S
H450 C447 0.999 . S
H451 C432 0.913 . S
H452 C470 0.951 . S
H453 C472 0.951 . S
H454 C474 0.950 . S
H455 C475 0.950 . S
H456 C477 0.950 . S
H457 C480 0.950 . S
H458 C481 0.950 . S
H459 C483 0.950 . S
H460 C484 0.950 . S
H461 C485 0.951 1_455 S
H462 C487 0.951 . S
H463 C489 0.950 . S
H464 C490 0.950 . S
H465 C492 0.950 . S
H466 C495 0.950 . S
H467 C496 0.950 . S
H468 C498 0.950 . S
H469 C499 0.950 . S
C470 H452 0.951 . S
C470 C471 1.366 . S
C470 C472 1.388 . S
C471 C470 1.366 . S
C471 C475 1.385 . S
C472 H453 0.951 . S
C472 C470 1.388 . S
C472 C473 1.366 . S
C473 C472 1.366 . S
C473 C474 1.414 . S
C473 C476 1.499 . S
C474 H454 0.950 . S
C474 C473 1.414 . S
C474 C475 1.374 . S
C475 H455 0.950 . S
C475 C471 1.385 . S
C475 C474 1.374 . S
C476 C473 1.499 . S
C476 C477 1.373 . S
C476 C478 1.389 . S
C477 H456 0.950 . S
C477 C476 1.373 . S
C477 C493 1.377 . S
C478 C476 1.389 . S
C478 C479 1.524 . S
C478 C492 1.377 . S
C479 C478 1.524 . S
C479 C480 1.397 1_655 S
C479 C484 1.363 . S
C480 H457 0.950 . S
C480 C479 1.397 1_455 S
C480 C481 1.334 . S
C481 H458 0.950 . S
C481 C480 1.334 . S
C481 C482 1.287 . S
C482 C481 1.287 . S
C482 C483 1.524 . S
C482 H501 0.913 . S
C483 H459 0.950 . S
C483 C482 1.524 . S
C483 C484 1.415 1_455 S
C484 H460 0.950 . S
C484 C479 1.363 . S
C484 C483 1.415 1_655 S
C485 H461 0.951 1_655 S
C485 C486 1.366 . S
C485 C487 1.388 . S
C486 C485 1.366 . S
C486 C490 1.385 . S
C487 H462 0.951 . S
C487 C485 1.388 . S
C487 C488 1.366 . S
C488 C487 1.366 . S
C488 C489 1.414 . S
C488 C491 1.499 . S
C489 H463 0.950 . S
C489 C488 1.414 . S
C489 C490 1.374 . S
C490 H464 0.950 . S
C490 C486 1.385 . S
C490 C489 1.374 . S
C491 C488 1.499 . S
C491 C492 1.373 . S
C491 C493 1.389 . S
C492 H465 0.950 . S
C492 C478 1.377 . S
C492 C491 1.373 . S
C493 C477 1.377 . S
C493 C491 1.389 . S
C493 C494 1.524 . S
C494 C493 1.524 . S
C494 C495 1.397 . S
C494 C499 1.363 . S
C495 H466 0.950 . S
C495 C494 1.397 . S
C495 C496 1.334 . S
C496 H467 0.950 . S
C496 C495 1.334 . S
C496 C497 1.287 . S
C497 C496 1.287 . S
C497 C498 1.524 . S
C497 H500 0.999 . S
C498 H468 0.950 . S
C498 C497 1.524 . S
C498 C499 1.415 . S
C499 H469 0.950 . S
C499 C494 1.363 . S
C499 C498 1.415 . S
H500 C497 0.999 . S
H501 C482 0.913 . S
H502 C520 0.951 . S
H503 C522 0.951 . S
H504 C524 0.950 . S
H505 C525 0.950 . S
H506 C527 0.950 . S
H507 C530 0.950 . S
H508 C531 0.950 . S
H509 C533 0.950 . S
H510 C534 0.950 . S
H511 C535 0.951 . S
H512 C537 0.951 . S
H513 C539 0.950 . S
H514 C540 0.950 . S
H515 C542 0.950 . S
H516 C545 0.950 . S
H517 C546 0.950 . S
H518 C548 0.950 . S
H519 C549 0.950 . S
C520 H502 0.951 . S
C520 C521 1.366 . S
C520 C522 1.388 . S
C521 C520 1.366 . S
C521 C525 1.385 . S
C522 H503 0.951 . S
C522 C520 1.388 . S
C522 C523 1.366 . S
C523 C522 1.366 . S
C523 C524 1.414 . S
C523 C526 1.499 . S
C524 H504 0.950 . S
C524 C523 1.414 . S
C524 C525 1.374 . S
C525 H505 0.950 . S
C525 C521 1.385 . S
C525 C524 1.374 . S
C526 C523 1.499 . S
C526 C527 1.373 . S
C526 C528 1.389 . S
C527 H506 0.950 . S
C527 C526 1.373 . S
C527 C543 1.377 . S
C528 C526 1.389 . S
C528 C529 1.524 . S
C528 C542 1.377 . S
C529 C528 1.524 . S
C529 C530 1.397 . S
C529 C534 1.363 . S
C530 H507 0.950 . S
C530 C529 1.397 . S
C530 C531 1.334 . S
C531 H508 0.950 . S
C531 C530 1.334 . S
C531 C532 1.287 . S
C532 C531 1.287 . S
C532 C533 1.524 . S
C532 H551 0.913 . S
C533 H509 0.950 . S
C533 C532 1.524 . S
C533 C534 1.415 . S
C534 H510 0.950 . S
C534 C529 1.363 . S
C534 C533 1.415 . S
C535 H511 0.951 . S
C535 C536 1.366 . S
C535 C537 1.388 . S
C536 C535 1.366 . S
C536 C540 1.385 . S
C537 H512 0.951 . S
C537 C535 1.388 . S
C537 C538 1.366 . S
C538 C537 1.366 . S
C538 C539 1.414 . S
C538 C541 1.499 . S
C539 H513 0.950 . S
C539 C538 1.414 . S
C539 C540 1.374 . S
C540 H514 0.950 . S
C540 C536 1.385 . S
C540 C539 1.374 . S
C541 C538 1.499 . S
C541 C542 1.373 . S
C541 C543 1.389 . S
C542 H515 0.950 . S
C542 C528 1.377 . S
C542 C541 1.373 . S
C543 C527 1.377 . S
C543 C541 1.389 . S
C543 C544 1.524 . S
C544 C543 1.524 . S
C544 C545 1.397 . S
C544 C549 1.363 . S
C545 H516 0.950 . S
C545 C544 1.397 . S
C545 C546 1.334 . S
C546 H517 0.950 . S
C546 C545 1.334 . S
C546 C547 1.287 . S
C547 C546 1.287 . S
C547 C548 1.524 . S
C547 H550 0.999 . S
C548 H518 0.950 . S
C548 C547 1.524 . S
C548 C549 1.415 . S
C549 H519 0.950 . S
C549 C544 1.363 . S
C549 C548 1.415 . S
H550 C547 0.999 . S
H551 C532 0.913 . S
H552 C570 0.951 . S
H553 C572 0.951 . S
H554 C574 0.931 1_455 S
H555 C575 0.950 . S
H556 C577 0.950 . S
H557 C580 0.950 . S
H558 C581 0.950 . S
H559 C583 0.950 . S
H560 C584 0.950 . S
H561 C585 0.951 . S
H562 C587 0.951 . S
H563 C589 0.950 . S
H564 C590 0.950 . S
H565 C592 0.950 . S
H566 C595 0.950 . S
H567 C596 0.950 . S
H568 C598 0.950 1_454 S
H569 C599 0.950 1_455 S
C570 H552 0.951 . S
C570 C571 1.366 . S
C570 C572 1.388 . S
C571 C570 1.366 . S
C571 C575 1.385 1_655 S
C572 H553 0.951 . S
C572 C570 1.388 . S
C572 C573 1.366 . S
C573 C572 1.366 . S
C573 C574 1.448 . S
C573 C576 1.499 . S
C574 H554 0.931 1_655 S
C574 C573 1.448 . S
C574 C575 1.360 1_655 S
C575 H555 0.950 . S
C575 C571 1.385 1_455 S
C575 C574 1.360 1_455 S
C576 C573 1.499 . S
C576 C577 1.373 . S
C576 C578 1.389 . S
C577 H556 0.950 . S
C577 C576 1.373 . S
C577 C593 1.377 . S
C578 C576 1.389 . S
C578 C579 1.524 . S
C578 C592 1.377 . S
C579 C578 1.524 . S
C579 C580 1.397 . S
C579 C584 1.363 . S
C580 H557 0.950 . S
C580 C579 1.397 . S
C580 C581 1.334 . S
C581 H558 0.950 . S
C581 C580 1.334 . S
C581 C582 1.287 . S
C582 C581 1.287 . S
C582 C583 1.524 . S
C582 H601 0.913 . S
C583 H559 0.950 . S
C583 C582 1.524 . S
C583 C584 1.415 . S
C584 H560 0.950 . S
C584 C579 1.363 . S
C584 C583 1.415 . S
C585 H561 0.951 . S
C585 C586 1.366 . S
C585 C587 1.388 1_554 S
C586 C585 1.366 . S
C586 C590 1.385 . S
C587 H562 0.951 . S
C587 C585 1.388 1_556 S
C587 C588 1.366 . S
C588 C587 1.366 . S
C588 C589 1.414 . S
C588 C591 1.499 . S
C589 H563 0.950 . S
C589 C588 1.414 . S
C589 C590 1.374 1_556 S
C590 H564 0.950 . S
C590 C586 1.385 . S
C590 C589 1.374 1_554 S
C591 C588 1.499 . S
C591 C592 1.373 . S
C591 C593 1.389 . S
C592 H565 0.950 . S
C592 C578 1.377 . S
C592 C591 1.373 . S
C593 C577 1.377 . S
C593 C591 1.389 . S
C593 C594 1.524 . S
C594 C593 1.524 . S
C594 C595 1.397 . S
C594 C599 1.363 . S
C595 H566 0.950 . S
C595 C594 1.397 . S
C595 C596 1.334 1_556 S
C596 H567 0.950 . S
C596 C595 1.334 1_554 S
C596 C597 1.287 . S
C597 C596 1.287 . S
C597 C598 1.524 1_554 S
C597 H600 0.999 . S
C598 H568 0.950 1_656 S
C598 C597 1.524 1_556 S
C598 C599 1.415 . S
C599 H569 0.950 1_655 S
C599 C594 1.363 . S
C599 C598 1.415 . S
H600 C597 0.999 . S
H601 C582 0.913 . S
H602 C620 0.951 . S
H603 C622 0.951 . S
H604 C624 0.950 . S
H605 C625 0.950 . S
H606 C627 0.950 . S
H607 C630 0.950 . S
H608 C631 0.950 . S
H609 C633 0.950 . S
H610 C634 0.950 . S
H611 C635 0.951 . S
H612 C637 0.951 . S
H613 C639 0.950 . S
H614 C640 0.950 . S
H615 C642 0.950 . S
H616 C645 0.950 . S
H617 C646 0.950 . S
H618 C648 0.950 . S
H619 C649 0.950 . S
C620 H602 0.951 . S
C620 C621 1.366 1_556 S
C620 C622 1.388 . S
C621 C620 1.366 1_554 S
C621 C625 1.385 . S
C622 H603 0.951 . S
C622 C620 1.388 . S
C622 C623 1.366 . S
C623 C622 1.366 . S
C623 C624 1.414 . S
C623 C626 1.499 . S
C624 H604 0.950 . S
C624 C623 1.414 . S
C624 C625 1.374 1_556 S
C625 H605 0.950 . S
C625 C621 1.385 . S
C625 C624 1.374 1_554 S
C626 C623 1.499 . S
C626 C627 1.373 . S
C626 C628 1.389 . S
C627 H606 0.950 . S
C627 C626 1.373 . S
C627 C643 1.377 . S
C628 C626 1.389 . S
C628 C629 1.524 . S
C628 C642 1.377 . S
C629 C628 1.524 . S
C629 C630 1.397 . S
C629 C634 1.363 . S
C630 H607 0.950 . S
C630 C629 1.397 . S
C630 C631 1.334 . S
C631 H608 0.950 . S
C631 C630 1.334 . S
C631 C632 1.287 . S
C632 C631 1.287 . S
C632 C633 1.524 . S
C632 H651 0.913 . S
C633 H609 0.950 . S
C633 C632 1.524 . S
C633 C634 1.415 . S
C634 H610 0.950 . S
C634 C629 1.363 . S
C634 C633 1.415 . S
C635 H611 0.951 . S
C635 C636 1.366 . S
C635 C637 1.388 . S
C636 C635 1.366 . S
C636 C640 1.385 . S
C637 H612 0.951 . S
C637 C635 1.388 . S
C637 C638 1.366 . S
C638 C637 1.366 . S
C638 C639 1.414 . S
C638 C641 1.499 . S
C639 H613 0.950 . S
C639 C638 1.414 . S
C639 C640 1.374 . S
C640 H614 0.950 . S
C640 C636 1.385 . S
C640 C639 1.374 . S
C641 C638 1.499 . S
C641 C642 1.373 . S
C641 C643 1.389 . S
C642 H615 0.950 . S
C642 C628 1.377 . S
C642 C641 1.373 . S
C643 C627 1.377 . S
C643 C641 1.389 . S
C643 C644 1.524 . S
C644 C643 1.524 . S
C644 C645 1.397 . S
C644 C649 1.363 . S
C645 H616 0.950 . S
C645 C644 1.397 . S
C645 C646 1.334 . S
C646 H617 0.950 . S
C646 C645 1.334 . S
C646 C647 1.287 . S
C647 C646 1.287 . S
C647 C648 1.524 . S
C647 H650 0.999 . S
C648 H618 0.950 . S
C648 C647 1.524 . S
C648 C649 1.415 . S
C649 H619 0.950 . S
C649 C644 1.363 . S
C649 C648 1.415 . S
H650 C647 0.999 . S
H651 C632 0.913 . S
H652 C670 0.951 . S
H653 C672 0.951 . S
H654 C674 0.950 . S
H655 C675 0.950 . S
H656 C677 0.950 . S
H657 C680 0.950 . S
H658 C681 0.950 . S
H659 C683 0.950 . S
H660 C684 0.950 . S
H661 C685 0.951 . S
H662 C687 0.951 . S
H663 C689 0.950 . S
H664 C690 0.950 1_565 S
H665 C692 0.950 . S
H666 C695 0.950 . S
H667 C696 0.950 . S
H668 C698 0.950 . S
H669 C699 0.950 . S
C670 H652 0.951 . S
C670 C671 1.366 . S
C670 C672 1.388 1_554 S
C671 C670 1.366 . S
C671 C675 1.385 1_554 S
C672 H653 0.951 . S
C672 C670 1.388 1_556 S
C672 C673 1.366 . S
C673 C672 1.366 . S
C673 C674 1.414 . S
C673 C676 1.499 . S
C674 H654 0.950 . S
C674 C673 1.414 . S
C674 C675 1.374 . S
C675 H655 0.950 . S
C675 C671 1.385 1_556 S
C675 C674 1.374 . S
C676 C673 1.499 . S
C676 C677 1.373 . S
C676 C678 1.389 . S
C677 H656 0.950 . S
C677 C676 1.373 . S
C677 C693 1.377 . S
C678 C676 1.389 . S
C678 C679 1.524 . S
C678 C692 1.377 . S
C679 C678 1.524 . S
C679 C680 1.397 . S
C679 C684 1.363 1_545 S
C680 H657 0.950 . S
C680 C679 1.397 . S
C680 C681 1.334 . S
C681 H658 0.950 . S
C681 C680 1.334 . S
C681 C682 1.287 1_545 S
C682 C681 1.287 1_565 S
C682 C683 1.524 . S
C682 H701 0.913 . S
C683 H659 0.950 . S
C683 C682 1.524 . S
C683 C684 1.415 . S
C684 H660 0.950 . S
C684 C679 1.363 1_565 S
C684 C683 1.415 . S
C685 H661 0.951 . S
C685 C686 1.366 . S
C685 C687 1.388 . S
C686 C685 1.366 . S
C686 C690 1.385 . S
C687 H662 0.951 . S
C687 C685 1.388 . S
C687 C688 1.366 . S
C688 C687 1.366 . S
C688 C689 1.414 . S
C688 C691 1.499 . S
C689 H663 0.950 . S
C689 C688 1.414 . S
C689 C690 1.374 . S
C690 H664 0.950 1_545 S
C690 C686 1.385 . S
C690 C689 1.374 . S
C691 C688 1.499 . S
C691 C692 1.373 . S
C691 C693 1.389 . S
C692 H665 0.950 . S
C692 C678 1.377 . S
C692 C691 1.373 . S
C693 C677 1.377 . S
C693 C691 1.389 . S
C693 C694 1.524 . S
C694 C693 1.524 . S
C694 C695 1.397 . S
C694 C699 1.363 . S
C695 H666 0.950 . S
C695 C694 1.397 . S
C695 C696 1.334 . S
C696 H667 0.950 . S
C696 C695 1.334 . S
C696 C697 1.287 . S
C697 C696 1.287 . S
C697 C698 1.524 . S
C697 H700 0.999 . S
C698 H668 0.950 . S
C698 C697 1.524 . S
C698 C699 1.415 . S
C699 H669 0.950 . S
C699 C694 1.363 . S
C699 C698 1.415 . S
H700 C697 0.999 . S
H701 C682 0.913 . S
H702 C720 0.951 . S
H703 C722 0.951 . S
H704 C724 0.950 . S
H705 C725 0.950 . S
H706 C727 0.950 . S
H707 C730 0.950 . S
H708 C731 0.950 . S
H709 C733 0.950 . S
H710 C734 0.950 1_565 S
H711 C735 0.951 . S
H712 C737 0.951 . S
H713 C739 0.950 . S
H714 C740 0.950 . S
H715 C742 0.950 . S
H716 C745 0.950 . S
H717 C746 0.950 . S
H718 C748 0.950 . S
H719 C749 0.950 . S
C720 H702 0.951 . S
C720 C721 1.366 . S
C720 C722 1.388 . S
C721 C720 1.366 . S
C721 C725 1.385 . S
C722 H703 0.951 . S
C722 C720 1.388 . S
C722 C723 1.366 . S
C723 C722 1.366 . S
C723 C724 1.414 . S
C723 C726 1.499 . S
C724 H704 0.950 . S
C724 C723 1.414 . S
C724 C725 1.374 . S
C725 H705 0.950 . S
C725 C721 1.385 . S
C725 C724 1.374 . S
C726 C723 1.499 . S
C726 C727 1.373 . S
C726 C728 1.389 . S
C727 H706 0.950 . S
C727 C726 1.373 . S
C727 C743 1.377 . S
C728 C726 1.389 . S
C728 C729 1.524 1_565 S
C728 C742 1.377 . S
C729 C728 1.524 1_545 S
C729 C730 1.397 . S
C729 C734 1.363 . S
C730 H707 0.950 . S
C730 C729 1.397 . S
C730 C731 1.334 . S
C731 H708 0.950 . S
C731 C730 1.334 . S
C731 C732 1.287 . S
C732 C731 1.287 . S
C732 C733 1.524 . S
C732 H751 0.913 . S
C733 H709 0.950 . S
C733 C732 1.524 . S
C733 C734 1.415 . S
C734 H710 0.950 1_545 S
C734 C729 1.363 . S
C734 C733 1.415 . S
C735 H711 0.951 . S
C735 C736 1.366 . S
C735 C737 1.388 . S
C736 C735 1.366 . S
C736 C740 1.385 . S
C737 H712 0.951 . S
C737 C735 1.388 . S
C737 C738 1.366 . S
C738 C737 1.366 . S
C738 C739 1.414 . S
C738 C741 1.499 . S
C739 H713 0.950 . S
C739 C738 1.414 . S
C739 C740 1.374 . S
C740 H714 0.950 . S
C740 C736 1.385 . S
C740 C739 1.374 . S
C741 C738 1.499 . S
C741 C742 1.373 . S
C741 C743 1.389 . S
C742 H715 0.950 . S
C742 C728 1.377 . S
C742 C741 1.373 . S
C743 C727 1.377 . S
C743 C741 1.389 . S
C743 C744 1.524 . S
C744 C743 1.524 . S
C744 C745 1.397 . S
C744 C749 1.363 . S
C745 H716 0.950 . S
C745 C744 1.397 . S
C745 C746 1.334 . S
C746 H717 0.950 . S
C746 C745 1.334 . S
C746 C747 1.287 . S
C747 C746 1.287 . S
C747 C748 1.524 . S
C747 H750 0.999 . S
C748 H718 0.950 . S
C748 C747 1.524 . S
C748 C749 1.415 . S
C749 H719 0.950 . S
C749 C744 1.363 . S
C749 C748 1.415 . S
H750 C747 0.999 . S
H751 C732 0.913 . S
H752 C770 0.951 . S
H753 C772 0.951 . S
H754 C774 0.950 . S
H755 C775 0.950 . S
H756 C777 0.950 . S
H757 C780 0.950 . S
H758 C781 0.950 . S
H759 C783 0.950 . S
H760 C784 0.950 . S
H761 C785 0.951 . S
H762 C787 0.951 . S
H763 C789 0.950 . S
H764 C790 0.950 . S
H765 C792 0.950 . S
H766 C795 0.950 . S
H767 C796 0.950 . S
H768 C798 0.950 . S
H769 C799 0.950 . S
C770 H752 0.951 . S
C770 C771 1.366 . S
C770 C772 1.388 . S
C771 C770 1.366 . S
C771 C775 1.385 . S
C772 H753 0.951 . S
C772 C770 1.388 . S
C772 C773 1.366 . S
C773 C772 1.366 . S
C773 C774 1.414 . S
C773 C776 1.499 . S
C774 H754 0.950 . S
C774 C773 1.414 . S
C774 C775 1.374 . S
C775 H755 0.950 . S
C775 C771 1.385 . S
C775 C774 1.374 . S
C776 C773 1.499 . S
C776 C777 1.373 . S
C776 C778 1.389 . S
C777 H756 0.950 . S
C777 C776 1.373 . S
C777 C793 1.377 . S
C778 C776 1.389 . S
C778 C779 1.524 . S
C778 C792 1.377 . S
C779 C778 1.524 . S
C779 C780 1.397 . S
C779 C784 1.363 . S
C780 H757 0.950 . S
C780 C779 1.397 . S
C780 C781 1.334 . S
C781 H758 0.950 . S
C781 C780 1.334 . S
C781 C782 1.287 . S
C782 C781 1.287 . S
C782 C783 1.524 . S
C782 H801 0.913 . S
C783 H759 0.950 . S
C783 C782 1.524 . S
C783 C784 1.415 . S
C784 H760 0.950 . S
C784 C779 1.363 . S
C784 C783 1.415 . S
C785 H761 0.951 . S
C785 C786 1.366 . S
C785 C787 1.388 . S
C786 C785 1.366 . S
C786 C790 1.385 . S
C787 H762 0.951 . S
C787 C785 1.388 . S
C787 C788 1.366 . S
C788 C787 1.366 . S
C788 C789 1.414 . S
C788 C791 1.499 . S
C789 H763 0.950 . S
C789 C788 1.414 . S
C789 C790 1.374 . S
C790 H764 0.950 . S
C790 C786 1.385 . S
C790 C789 1.374 . S
C791 C788 1.499 . S
C791 C792 1.373 . S
C791 C793 1.389 . S
C792 H765 0.950 . S
C792 C778 1.377 . S
C792 C791 1.373 . S
C793 C777 1.377 . S
C793 C791 1.389 . S
C793 C794 1.524 . S
C794 C793 1.524 . S
C794 C795 1.397 . S
C794 C799 1.363 . S
C795 H766 0.950 . S
C795 C794 1.397 . S
C795 C796 1.334 . S
C796 H767 0.950 . S
C796 C795 1.334 . S
C796 C797 1.287 . S
C797 C796 1.287 . S
C797 C798 1.524 . S
C797 H800 0.999 . S
C798 H768 0.950 . S
C798 C797 1.524 . S
C798 C799 1.415 . S
C799 H769 0.950 . S
C799 C794 1.363 . S
C799 C798 1.415 . S
H800 C797 0.999 . S
H801 C782 0.913 . S
H802 C820 0.951 . S
H803 C822 0.951 . S
H804 C824 0.950 . S
H805 C825 0.950 . S
H806 C827 0.950 . S
H807 C830 0.950 . S
H808 C831 0.950 . S
H809 C833 0.950 . S
H810 C834 0.950 . S
H811 C835 0.951 . S
H812 C837 0.951 . S
H813 C839 0.950 . S
H814 C840 0.950 . S
H815 C842 0.950 . S
H816 C845 0.950 . S
H817 C846 0.950 . S
H818 C848 0.950 . S
H819 C849 0.950 . S
C820 H802 0.951 . S
C820 C821 1.366 . S
C820 C822 1.388 . S
C821 C820 1.366 . S
C821 C825 1.385 . S
C822 H803 0.951 . S
C822 C820 1.388 . S
C822 C823 1.366 . S
C823 C822 1.366 . S
C823 C824 1.414 . S
C823 C826 1.499 . S
C824 H804 0.950 . S
C824 C823 1.414 . S
C824 C825 1.374 . S
C825 H805 0.950 . S
C825 C821 1.385 . S
C825 C824 1.374 . S
C826 C823 1.499 . S
C826 C827 1.373 . S
C826 C828 1.389 . S
C827 H806 0.950 . S
C827 C826 1.373 . S
C827 C843 1.377 . S
C828 C826 1.389 . S
C828 C829 1.524 . S
C828 C842 1.377 . S
C829 C828 1.524 . S
C829 C830 1.397 . S
C829 C834 1.363 . S
C830 H807 0.950 . S
C830 C829 1.397 . S
C830 C831 1.334 . S
C831 H808 0.950 . S
C831 C830 1.334 . S
C831 C832 1.287 . S
C832 C831 1.287 . S
C832 C833 1.524 . S
C832 H851 0.913 . S
C833 H809 0.950 . S
C833 C832 1.524 . S
C833 C834 1.415 . S
C834 H810 0.950 . S
C834 C829 1.363 . S
C834 C833 1.415 . S
C835 H811 0.951 . S
C835 C836 1.366 . S
C835 C837 1.388 . S
C836 C835 1.366 . S
C836 C840 1.385 . S
C837 H812 0.951 . S
C837 C835 1.388 . S
C837 C838 1.366 . S
C838 C837 1.366 . S
C838 C839 1.414 . S
C838 C841 1.499 . S
C839 H813 0.950 . S
C839 C838 1.414 . S
C839 C840 1.374 . S
C840 H814 0.950 . S
C840 C836 1.385 . S
C840 C839 1.374 . S
C841 C838 1.499 . S
C841 C842 1.373 . S
C841 C843 1.389 . S
C842 H815 0.950 . S
C842 C828 1.377 . S
C842 C841 1.373 . S
C843 C827 1.377 . S
C843 C841 1.389 . S
C843 C844 1.524 . S
C844 C843 1.524 . S
C844 C845 1.397 . S
C844 C849 1.363 . S
C845 H816 0.950 . S
C845 C844 1.397 . S
C845 C846 1.334 . S
C846 H817 0.950 . S
C846 C845 1.334 . S
C846 C847 1.287 . S
C847 C846 1.287 . S
C847 C848 1.524 . S
C847 H850 0.999 . S
C848 H818 0.950 . S
C848 C847 1.524 . S
C848 C849 1.415 . S
C849 H819 0.950 . S
C849 C844 1.363 . S
C849 C848 1.415 . S
H850 C847 0.999 . S
H851 C832 0.913 . S
H852 C870 0.951 . S
H853 C872 0.951 . S
H854 C874 0.950 . S
H855 C875 0.950 . S
H856 C877 0.950 . S
H857 C880 0.950 . S
H858 C881 0.950 . S
H859 C883 0.950 . S
H860 C884 0.950 . S
H861 C885 0.951 . S
H862 C887 0.951 . S
H863 C889 0.950 . S
H864 C890 0.950 . S
H865 C892 0.950 . S
H866 C895 0.950 . S
H867 C896 0.950 . S
H868 C898 0.950 . S
H869 C899 0.950 . S
C870 H852 0.951 . S
C870 C871 1.366 . S
C870 C872 1.388 . S
C871 C870 1.366 . S
C871 C875 1.385 . S
C872 H853 0.951 . S
C872 C870 1.388 . S
C872 C873 1.366 . S
C873 C872 1.366 . S
C873 C874 1.414 . S
C873 C876 1.499 . S
C874 H854 0.950 . S
C874 C873 1.414 . S
C874 C875 1.374 . S
C875 H855 0.950 . S
C875 C871 1.385 . S
C875 C874 1.374 . S
C876 C873 1.499 . S
C876 C877 1.373 . S
C876 C878 1.389 . S
C877 H856 0.950 . S
C877 C876 1.373 . S
C877 C893 1.377 . S
C878 C876 1.389 . S
C878 C879 1.524 . S
C878 C892 1.377 . S
C879 C878 1.524 . S
C879 C880 1.397 . S
C879 C884 1.363 . S
C880 H857 0.950 . S
C880 C879 1.397 . S
C880 C881 1.334 . S
C881 H858 0.950 . S
C881 C880 1.334 . S
C881 C882 1.287 . S
C882 C881 1.287 . S
C882 C883 1.524 . S
C882 H901 0.913 . S
C883 H859 0.950 . S
C883 C882 1.524 . S
C883 C884 1.415 . S
C884 H860 0.950 . S
C884 C879 1.363 . S
C884 C883 1.415 . S
C885 H861 0.951 . S
C885 C886 1.366 . S
C885 C887 1.388 . S
C886 C885 1.366 . S
C886 C890 1.385 . S
C887 H862 0.951 . S
C887 C885 1.388 . S
C887 C888 1.366 . S
C888 C887 1.366 . S
C888 C889 1.414 . S
C888 C891 1.499 . S
C889 H863 0.950 . S
C889 C888 1.414 . S
C889 C890 1.374 . S
C890 H864 0.950 . S
C890 C886 1.385 . S
C890 C889 1.374 . S
C891 C888 1.499 . S
C891 C892 1.373 . S
C891 C893 1.389 . S
C892 H865 0.950 . S
C892 C878 1.377 . S
C892 C891 1.373 . S
C893 C877 1.377 . S
C893 C891 1.389 . S
C893 C894 1.524 . S
C894 C893 1.524 . S
C894 C895 1.397 . S
C894 C899 1.363 . S
C895 H866 0.950 . S
C895 C894 1.397 . S
C895 C896 1.334 . S
C896 H867 0.950 . S
C896 C895 1.334 . S
C896 C897 1.287 . S
C897 C896 1.287 . S
C897 C898 1.524 . S
C897 H900 0.999 . S
C898 H868 0.950 . S
C898 C897 1.524 . S
C898 C899 1.415 . S
C899 H869 0.950 . S
C899 C894 1.363 . S
C899 C898 1.415 . S
H900 C897 0.999 . S
H901 C882 0.913 . S
H902 C920 0.951 . S
H903 C922 0.951 . S
H904 C924 0.950 . S
H905 C925 0.950 . S
H906 C927 0.923 1_565 S
H907 C930 0.950 . S
H908 C931 0.950 . S
H909 C933 0.950 . S
H910 C934 0.950 . S
H911 C935 0.951 . S
H912 C937 0.951 . S
H913 C939 0.950 . S
H914 C940 0.950 . S
H915 C942 0.950 . S
H916 C945 0.950 . S
H917 C946 0.950 . S
H918 C948 0.950 . S
H919 C949 0.950 . S
C920 H902 0.951 . S
C920 C921 1.366 . S
C920 C922 1.388 . S
C921 C920 1.366 . S
C921 C925 1.385 . S
C922 H903 0.951 . S
C922 C920 1.388 . S
C922 C923 1.366 . S
C923 C922 1.366 . S
C923 C924 1.414 . S
C923 C926 1.499 . S
C924 H904 0.950 . S
C924 C923 1.414 . S
C924 C925 1.374 . S
C925 H905 0.950 . S
C925 C921 1.385 . S
C925 C924 1.374 . S
C926 C923 1.499 . S
C926 C927 1.423 . S
C926 C928 1.389 . S
C927 H906 0.923 1_545 S
C927 C926 1.423 . S
C927 C943 1.355 1_545 S
C928 C926 1.389 . S
C928 C929 1.524 . S
C928 C942 1.377 . S
C929 C928 1.524 . S
C929 C930 1.397 . S
C929 C934 1.363 . S
C930 H907 0.950 . S
C930 C929 1.397 . S
C930 C931 1.334 . S
C931 H908 0.950 . S
C931 C930 1.334 . S
C931 C932 1.287 . S
C932 C931 1.287 . S
C932 C933 1.524 . S
C932 H951 0.913 . S
C933 H909 0.950 . S
C933 C932 1.524 . S
C933 C934 1.415 . S
C934 H910 0.950 . S
C934 C929 1.363 . S
C934 C933 1.415 . S
C935 H911 0.951 . S
C935 C936 1.366 . S
C935 C937 1.388 . S
C936 C935 1.366 . S
C936 C940 1.385 . S
C937 H912 0.951 . S
C937 C935 1.388 . S
C937 C938 1.366 . S
C938 C937 1.366 . S
C938 C939 1.414 . S
C938 C941 1.499 . S
C939 H913 0.950 . S
C939 C938 1.414 . S
C939 C940 1.374 . S
C940 H914 0.950 . S
C940 C936 1.385 . S
C940 C939 1.374 . S
C941 C938 1.499 . S
C941 C942 1.373 1_565 S
C941 C943 1.389 . S
C942 H915 0.950 . S
C942 C928 1.377 . S
C942 C941 1.373 1_545 S
C943 C927 1.355 1_565 S
C943 C941 1.389 . S
C943 C944 1.524 . S
C944 C943 1.524 . S
C944 C945 1.397 . S
C944 C949 1.363 . S
C945 H916 0.950 . S
C945 C944 1.397 . S
C945 C946 1.334 . S
C946 H917 0.950 . S
C946 C945 1.334 . S
C946 C947 1.287 . S
C947 C946 1.287 . S
C947 C948 1.524 . S
C947 H950 0.999 . S
C948 H918 0.950 . S
C948 C947 1.524 . S
C948 C949 1.415 . S
C949 H919 0.950 . S
C949 C944 1.363 . S
C949 C948 1.415 . S
H950 C947 0.999 . S
H951 C932 0.913 . S
H952 C970 0.951 . S
H953 C972 0.951 . S
H954 C974 0.950 . S
H955 C975 0.950 . S
H956 C977 0.950 . S
H957 C980 0.950 . S
H958 C981 0.950 . S
H959 C983 0.950 . S
H960 C984 0.950 . S
H961 C985 0.951 . S
H962 C987 0.951 . S
H963 C989 0.950 . S
H964 C990 0.950 1_455 S
H965 C992 0.950 . S
H966 C995 0.975 . S
H967 C996 0.950 . S
H968 C998 0.950 . S
H969 C999 0.950 . S
C970 H952 0.951 . S
C970 C971 1.366 . S
C970 C972 1.388 . S
C971 C970 1.366 . S
C971 C975 1.385 . S
C972 H953 0.951 . S
C972 C970 1.388 . S
C972 C973 1.366 . S
C973 C972 1.366 . S
C973 C974 1.414 . S
C973 C976 1.499 . S
C974 H954 0.950 . S
C974 C973 1.414 . S
C974 C975 1.374 . S
C975 H955 0.950 . S
C975 C971 1.385 . S
C975 C974 1.374 . S
C976 C973 1.499 . S
C976 C977 1.373 . S
C976 C978 1.389 . S
C977 H956 0.950 . S
C977 C976 1.373 . S
C977 C993 1.375 1_455 S
C978 C976 1.389 . S
C978 C979 1.524 . S
C978 C992 1.377 . S
C979 C978 1.524 . S
C979 C980 1.397 . S
C979 C984 1.363 . S
C980 H957 0.950 . S
C980 C979 1.397 . S
C980 C981 1.334 . S
C981 H958 0.950 . S
C981 C980 1.334 . S
C981 C982 1.287 . S
C982 C981 1.287 . S
C982 C983 1.524 . S
C982 H1001 0.913 . S
C983 H959 0.950 . S
C983 C982 1.524 . S
C983 C984 1.415 . S
C984 H960 0.950 . S
C984 C979 1.363 . S
C984 C983 1.415 . S
C985 H961 0.951 . S
C985 C986 1.366 . S
C985 C987 1.388 . S
C986 C985 1.366 . S
C986 C990 1.385 . S
C987 H962 0.951 . S
C987 C985 1.388 . S
C987 C988 1.366 . S
C988 C987 1.366 . S
C988 C989 1.414 1_655 S
C988 C991 1.499 1_655 S
C989 H963 0.950 . S
C989 C988 1.414 1_455 S
C989 C990 1.374 1_455 S
C990 H964 0.950 1_655 S
C990 C986 1.385 . S
C990 C989 1.374 1_655 S
C991 C988 1.499 1_455 S
C991 C992 1.373 . S
C991 C993 1.390 1_455 S
C992 H965 0.950 . S
C992 C978 1.377 . S
C992 C991 1.373 . S
C993 C977 1.375 1_655 S
C993 C991 1.390 1_655 S
C993 C994 1.526 . S
C994 C993 1.526 . S
C994 C995 1.397 . S
C994 C999 1.363 . S
C995 H966 0.975 . S
C995 C994 1.397 . S
C995 C996 1.334 . S
C996 H967 0.950 . S
C996 C995 1.334 . S
C996 C997 1.287 . S
C997 C996 1.287 . S
C997 C998 1.524 . S
C997 H1000 0.999 . S
C998 H968 0.950 . S
C998 C997 1.524 . S
C998 C999 1.415 . S
C999 H969 0.950 . S
C999 C994 1.363 . S
C999 C998 1.415 . S
H1000 C997 0.999 . S
H1001 C982 0.913 . S
H1002 C1020 0.951 . S
H1003 C1022 0.951 . S
H1004 C1024 0.950 . S
H1005 C1025 0.950 . S
H1006 C1027 0.950 . S
H1007 C1030 0.950 . S
H1008 C1031 0.950 . S
H1009 C1033 0.950 . S
H1010 C1034 0.950 . S
H1011 C1035 0.951 . S
H1012 C1037 0.951 . S
H1013 C1039 0.950 . S
H1014 C1040 0.950 . S
H1015 C1042 0.950 . S
H1016 C1045 0.950 . S
H1017 C1046 0.950 . S
H1018 C1048 0.950 . S
H1019 C1049 0.950 . S
C1020 H1002 0.951 . S
C1020 C1021 1.366 . S
C1020 C1022 1.388 . S
C1021 C1020 1.366 . S
C1021 C1025 1.385 . S
C1022 H1003 0.951 . S
C1022 C1020 1.388 . S
C1022 C1023 1.366 . S
C1023 C1022 1.366 . S
C1023 C1024 1.414 . S
C1023 C1026 1.499 . S
C1024 H1004 0.950 . S
C1024 C1023 1.414 . S
C1024 C1025 1.374 . S
C1025 H1005 0.950 . S
C1025 C1021 1.385 . S
C1025 C1024 1.374 . S
C1026 C1023 1.499 . S
C1026 C1027 1.373 . S
C1026 C1028 1.389 . S
C1027 H1006 0.950 . S
C1027 C1026 1.373 . S
C1027 C1043 1.377 . S
C1028 C1026 1.389 . S
C1028 C1029 1.524 . S
C1028 C1042 1.377 . S
C1029 C1028 1.524 . S
C1029 C1030 1.397 . S
C1029 C1034 1.363 . S
C1030 H1007 0.950 . S
C1030 C1029 1.397 . S
C1030 C1031 1.334 . S
C1031 H1008 0.950 . S
C1031 C1030 1.334 . S
C1031 C1032 1.287 . S
C1032 C1031 1.287 . S
C1032 C1033 1.524 . S
C1032 H1051 0.913 . S
C1033 H1009 0.950 . S
C1033 C1032 1.524 . S
C1033 C1034 1.415 . S
C1034 H1010 0.950 . S
C1034 C1029 1.363 . S
C1034 C1033 1.415 . S
C1035 H1011 0.951 . S
C1035 C1036 1.366 . S
C1035 C1037 1.388 . S
C1036 C1035 1.366 . S
C1036 C1040 1.385 . S
C1037 H1012 0.951 . S
C1037 C1035 1.388 . S
C1037 C1038 1.366 . S
C1038 C1037 1.366 . S
C1038 C1039 1.414 . S
C1038 C1041 1.499 . S
C1039 H1013 0.950 . S
C1039 C1038 1.414 . S
C1039 C1040 1.374 . S
C1040 H1014 0.950 . S
C1040 C1036 1.385 . S
C1040 C1039 1.374 . S
C1041 C1038 1.499 . S
C1041 C1042 1.373 . S
C1041 C1043 1.389 . S
C1042 H1015 0.950 . S
C1042 C1028 1.377 . S
C1042 C1041 1.373 . S
C1043 C1027 1.377 . S
C1043 C1041 1.389 . S
C1043 C1044 1.524 . S
C1044 C1043 1.524 . S
C1044 C1045 1.397 . S
C1044 C1049 1.363 . S
C1045 H1016 0.950 . S
C1045 C1044 1.397 . S
C1045 C1046 1.334 . S
C1046 H1017 0.950 . S
C1046 C1045 1.334 . S
C1046 C1047 1.287 . S
C1047 C1046 1.287 . S
C1047 C1048 1.524 . S
C1047 H1050 0.999 . S
C1048 H1018 0.950 . S
C1048 C1047 1.524 . S
C1048 C1049 1.415 . S
C1049 H1019 0.950 . S
C1049 C1044 1.363 . S
C1049 C1048 1.415 . S
H1050 C1047 0.999 . S
H1051 C1032 0.913 . S
H1052 C1070 0.951 . S
H1053 C1072 0.951 . S
H1054 C1074 0.950 . S
H1055 C1075 0.950 . S
H1056 C1077 0.950 . S
H1057 C1080 0.950 . S
H1058 C1081 0.950 . S
H1059 C1083 0.950 . S
H1060 C1084 0.950 . S
H1061 C1085 0.951 . S
H1062 C1087 0.951 . S
H1063 C1089 0.950 . S
H1064 C1090 0.950 . S
H1065 C1092 0.950 . S
H1066 C1095 0.950 . S
H1067 C1096 0.950 . S
H1068 C1098 0.950 . S
H1069 C1099 0.950 . S
C1070 H1052 0.951 . S
C1070 C1071 1.366 . S
C1070 C1072 1.388 . S
C1071 C1070 1.366 . S
C1071 C1075 1.385 . S
C1072 H1053 0.951 . S
C1072 C1070 1.388 . S
C1072 C1073 1.366 . S
C1073 C1072 1.366 . S
C1073 C1074 1.414 . S
C1073 C1076 1.499 . S
C1074 H1054 0.950 . S
C1074 C1073 1.414 . S
C1074 C1075 1.374 . S
C1075 H1055 0.950 . S
C1075 C1071 1.385 . S
C1075 C1074 1.374 . S
C1076 C1073 1.499 . S
C1076 C1077 1.373 1_545 S
C1076 C1078 1.389 . S
C1077 H1056 0.950 . S
C1077 C1076 1.373 1_565 S
C1077 C1093 1.377 . S
C1078 C1076 1.389 . S
C1078 C1079 1.524 . S
C1078 C1092 1.377 . S
C1079 C1078 1.524 . S
C1079 C1080 1.397 . S
C1079 C1084 1.363 . S
C1080 H1057 0.950 . S
C1080 C1079 1.397 . S
C1080 C1081 1.334 . S
C1081 H1058 0.950 . S
C1081 C1080 1.334 . S
C1081 C1082 1.287 . S
C1082 C1081 1.287 . S
C1082 C1083 1.524 . S
C1082 H1101 0.913 . S
C1083 H1059 0.950 . S
C1083 C1082 1.524 . S
C1083 C1084 1.415 . S
C1084 H1060 0.950 . S
C1084 C1079 1.363 . S
C1084 C1083 1.415 . S
C1085 H1061 0.951 . S
C1085 C1086 1.366 . S
C1085 C1087 1.388 . S
C1086 C1085 1.366 . S
C1086 C1090 1.385 . S
C1087 H1062 0.951 . S
C1087 C1085 1.388 . S
C1087 C1088 1.366 . S
C1088 C1087 1.366 . S
C1088 C1089 1.414 . S
C1088 C1091 1.499 . S
C1089 H1063 0.950 . S
C1089 C1088 1.414 . S
C1089 C1090 1.374 . S
C1090 H1064 0.950 . S
C1090 C1086 1.385 . S
C1090 C1089 1.374 . S
C1091 C1088 1.499 . S
C1091 C1092 1.373 1_565 S
C1091 C1093 1.389 . S
C1092 H1065 0.950 . S
C1092 C1078 1.377 . S
C1092 C1091 1.373 1_545 S
C1093 C1077 1.377 . S
C1093 C1091 1.389 . S
C1093 C1094 1.524 . S
C1094 C1093 1.524 . S
C1094 C1095 1.397 . S
C1094 C1099 1.363 . S
C1095 H1066 0.950 . S
C1095 C1094 1.397 . S
C1095 C1096 1.334 . S
C1096 H1067 0.950 . S
C1096 C1095 1.334 . S
C1096 C1097 1.287 . S
C1097 C1096 1.287 . S
C1097 C1098 1.524 . S
C1097 H1100 0.999 . S
C1098 H1068 0.950 . S
C1098 C1097 1.524 . S
C1098 C1099 1.415 . S
C1099 H1069 0.950 . S
C1099 C1094 1.363 . S
C1099 C1098 1.415 . S
H1100 C1097 0.999 . S
H1101 C1082 0.913 . S
H1102 C1120 0.951 . S
H1103 C1122 0.951 . S
H1104 C1124 0.950 . S
H1105 C1125 0.950 . S
H1106 C1127 0.950 . S
H1107 C1130 0.950 1_455 S
H1108 C1131 0.950 . S
H1109 C1133 0.950 . S
H1110 C1134 0.950 . S
H1111 C1135 0.951 . S
H1112 C1137 0.951 1_455 S
H1113 C1139 0.950 . S
H1114 C1140 0.950 . S
H1115 C1142 0.950 . S
H1116 C1145 0.950 . S
H1117 C1146 0.950 . S
H1118 C1148 0.950 . S
H1119 C1149 0.950 . S
C1120 H1102 0.951 . S
C1120 C1121 1.366 . S
C1120 C1122 1.388 . S
C1121 C1120 1.366 . S
C1121 C1125 1.385 . S
C1122 H1103 0.951 . S
C1122 C1120 1.388 . S
C1122 C1123 1.366 . S
C1123 C1122 1.366 . S
C1123 C1124 1.414 . S
C1123 C1126 1.499 . S
C1124 H1104 0.950 . S
C1124 C1123 1.414 . S
C1124 C1125 1.374 . S
C1125 H1105 0.950 . S
C1125 C1121 1.385 . S
C1125 C1124 1.374 . S
C1126 C1123 1.499 . S
C1126 C1127 1.373 . S
C1126 C1128 1.389 1_455 S
C1127 H1106 0.950 . S
C1127 C1126 1.373 . S
C1127 C1143 1.377 . S
C1128 C1126 1.389 1_655 S
C1128 C1129 1.524 . S
C1128 C1142 1.377 . S
C1129 C1128 1.524 . S
C1129 C1130 1.397 . S
C1129 C1134 1.363 . S
C1130 H1107 0.950 1_655 S
C1130 C1129 1.397 . S
C1130 C1131 1.334 . S
C1131 H1108 0.950 . S
C1131 C1130 1.334 . S
C1131 C1132 1.287 . S
C1132 C1131 1.287 . S
C1132 C1133 1.524 . S
C1132 H1151 0.913 . S
C1133 H1109 0.950 . S
C1133 C1132 1.524 . S
C1133 C1134 1.415 . S
C1134 H1110 0.950 . S
C1134 C1129 1.363 . S
C1134 C1133 1.415 . S
C1135 H1111 0.951 . S
C1135 C1136 1.366 . S
C1135 C1137 1.388 . S
C1136 C1135 1.366 . S
C1136 C1140 1.385 . S
C1137 H1112 0.951 1_655 S
C1137 C1135 1.388 . S
C1137 C1138 1.366 . S
C1138 C1137 1.366 . S
C1138 C1139 1.414 . S
C1138 C1141 1.499 . S
C1139 H1113 0.950 . S
C1139 C1138 1.414 . S
C1139 C1140 1.374 . S
C1140 H1114 0.950 . S
C1140 C1136 1.385 . S
C1140 C1139 1.374 . S
C1141 C1138 1.499 . S
C1141 C1142 1.373 . S
C1141 C1143 1.389 1_655 S
C1142 H1115 0.950 . S
C1142 C1128 1.377 . S
C1142 C1141 1.373 . S
C1143 C1127 1.377 . S
C1143 C1141 1.389 1_455 S
C1143 C1144 1.524 . S
C1144 C1143 1.524 . S
C1144 C1145 1.397 . S
C1144 C1149 1.363 . S
C1145 H1116 0.950 . S
C1145 C1144 1.397 . S
C1145 C1146 1.334 . S
C1146 H1117 0.950 . S
C1146 C1145 1.334 . S
C1146 C1147 1.287 . S
C1147 C1146 1.287 . S
C1147 C1148 1.524 . S
C1147 H1150 0.999 . S
C1148 H1118 0.950 . S
C1148 C1147 1.524 . S
C1148 C1149 1.415 . S
C1149 H1119 0.950 . S
C1149 C1144 1.363 . S
C1149 C1148 1.415 . S
H1150 C1147 0.999 . S
H1151 C1132 0.913 . S
H1152 C1170 0.951 . S
H1153 C1172 0.951 . S
H1154 C1174 0.950 . S
H1155 C1175 0.950 . S
H1156 C1177 0.950 . S
H1157 C1180 0.950 . S
H1158 C1181 0.950 . S
H1159 C1183 0.950 . S
H1160 C1184 0.950 . S
H1161 C1185 0.951 . S
H1162 C1187 0.951 . S
H1163 C1189 0.950 . S
H1164 C1190 0.950 . S
H1165 C1192 0.950 . S
H1166 C1195 0.950 . S
H1167 C1196 0.950 . S
H1168 C1198 0.950 . S
H1169 C1199 0.950 . S
C1170 H1152 0.951 . S
C1170 C1171 1.366 . S
C1170 C1172 1.388 . S
C1171 C1170 1.366 . S
C1171 C1175 1.385 . S
C1172 H1153 0.951 . S
C1172 C1170 1.388 . S
C1172 C1173 1.366 . S
C1173 C1172 1.366 . S
C1173 C1174 1.414 . S
C1173 C1176 1.499 . S
C1174 H1154 0.950 . S
C1174 C1173 1.414 . S
C1174 C1175 1.374 . S
C1175 H1155 0.950 . S
C1175 C1171 1.385 . S
C1175 C1174 1.374 . S
C1176 C1173 1.499 . S
C1176 C1177 1.373 . S
C1176 C1178 1.389 . S
C1177 H1156 0.950 . S
C1177 C1176 1.373 . S
C1177 C1193 1.377 . S
C1178 C1176 1.389 . S
C1178 C1179 1.524 . S
C1178 C1192 1.377 . S
C1179 C1178 1.524 . S
C1179 C1180 1.397 . S
C1179 C1184 1.363 . S
C1180 H1157 0.950 . S
C1180 C1179 1.397 . S
C1180 C1181 1.334 . S
C1181 H1158 0.950 . S
C1181 C1180 1.334 . S
C1181 C1182 1.287 . S
C1182 C1181 1.287 . S
C1182 C1183 1.524 . S
C1182 H1201 0.913 . S
C1183 H1159 0.950 . S
C1183 C1182 1.524 . S
C1183 C1184 1.415 . S
C1184 H1160 0.950 . S
C1184 C1179 1.363 . S
C1184 C1183 1.415 . S
C1185 H1161 0.951 . S
C1185 C1186 1.366 . S
C1185 C1187 1.388 . S
C1186 C1185 1.366 . S
C1186 C1190 1.385 . S
C1187 H1162 0.951 . S
C1187 C1185 1.388 . S
C1187 C1188 1.366 . S
C1188 C1187 1.366 . S
C1188 C1189 1.414 . S
C1188 C1191 1.499 . S
C1189 H1163 0.950 . S
C1189 C1188 1.414 . S
C1189 C1190 1.374 . S
C1190 H1164 0.950 . S
C1190 C1186 1.385 . S
C1190 C1189 1.374 . S
C1191 C1188 1.499 . S
C1191 C1192 1.373 . S
C1191 C1193 1.389 . S
C1192 H1165 0.950 . S
C1192 C1178 1.377 . S
C1192 C1191 1.373 . S
C1193 C1177 1.377 . S
C1193 C1191 1.389 . S
C1193 C1194 1.524 . S
C1194 C1193 1.524 . S
C1194 C1195 1.397 . S
C1194 C1199 1.363 . S
C1195 H1166 0.950 . S
C1195 C1194 1.397 . S
C1195 C1196 1.334 . S
C1196 H1167 0.950 . S
C1196 C1195 1.334 . S
C1196 C1197 1.287 . S
C1197 C1196 1.287 . S
C1197 C1198 1.524 . S
C1197 H1200 0.999 . S
C1198 H1168 0.950 . S
C1198 C1197 1.524 . S
C1198 C1199 1.415 . S
C1199 H1169 0.950 . S
C1199 C1194 1.363 . S
C1199 C1198 1.415 . S
H1200 C1197 0.999 . S
H1201 C1182 0.913 . S
H1202 C1220 0.951 . S
H1203 C1222 0.951 . S
H1204 C1224 0.950 . S
H1205 C1225 0.950 . S
H1206 C1227 0.950 . S
H1207 C1230 0.950 . S
H1208 C1231 0.950 . S
H1209 C1233 0.950 . S
H1210 C1234 0.950 . S
H1211 C1235 0.951 . S
H1212 C1237 0.951 . S
H1213 C1239 0.950 . S
H1214 C1240 0.950 . S
H1215 C1242 0.950 . S
H1216 C1245 0.950 . S
H1217 C1246 0.950 . S
H1218 C1248 0.950 . S
H1219 C1249 0.950 . S
C1220 H1202 0.951 . S
C1220 C1221 1.366 . S
C1220 C1222 1.388 . S
C1221 C1220 1.366 . S
C1221 C1225 1.385 . S
C1222 H1203 0.951 . S
C1222 C1220 1.388 . S
C1222 C1223 1.366 . S
C1223 C1222 1.366 . S
C1223 C1224 1.414 . S
C1223 C1226 1.499 . S
C1224 H1204 0.950 . S
C1224 C1223 1.414 . S
C1224 C1225 1.374 . S
C1225 H1205 0.950 . S
C1225 C1221 1.385 . S
C1225 C1224 1.374 . S
C1226 C1223 1.499 . S
C1226 C1227 1.373 . S
C1226 C1228 1.389 . S
C1227 H1206 0.950 . S
C1227 C1226 1.373 . S
C1227 C1243 1.377 . S
C1228 C1226 1.389 . S
C1228 C1229 1.524 . S
C1228 C1242 1.377 . S
C1229 C1228 1.524 . S
C1229 C1230 1.397 . S
C1229 C1234 1.363 . S
C1230 H1207 0.950 . S
C1230 C1229 1.397 . S
C1230 C1231 1.334 . S
C1231 H1208 0.950 . S
C1231 C1230 1.334 . S
C1231 C1232 1.287 . S
C1232 C1231 1.287 . S
C1232 C1233 1.524 . S
C1232 H1251 0.913 . S
C1233 H1209 0.950 . S
C1233 C1232 1.524 . S
C1233 C1234 1.415 . S
C1234 H1210 0.950 . S
C1234 C1229 1.363 . S
C1234 C1233 1.415 . S
C1235 H1211 0.951 . S
C1235 C1236 1.366 . S
C1235 C1237 1.388 . S
C1236 C1235 1.366 . S
C1236 C1240 1.385 . S
C1237 H1212 0.951 . S
C1237 C1235 1.388 . S
C1237 C1238 1.366 . S
C1238 C1237 1.366 . S
C1238 C1239 1.414 . S
C1238 C1241 1.499 . S
C1239 H1213 0.950 . S
C1239 C1238 1.414 . S
C1239 C1240 1.374 . S
C1240 H1214 0.950 . S
C1240 C1236 1.385 . S
C1240 C1239 1.374 . S
C1241 C1238 1.499 . S
C1241 C1242 1.373 . S
C1241 C1243 1.389 . S
C1242 H1215 0.950 . S
C1242 C1228 1.377 . S
C1242 C1241 1.373 . S
C1243 C1227 1.377 . S
C1243 C1241 1.389 . S
C1243 C1244 1.524 . S
C1244 C1243 1.524 . S
C1244 C1245 1.397 . S
C1244 C1249 1.363 . S
C1245 H1216 0.950 . S
C1245 C1244 1.397 . S
C1245 C1246 1.334 . S
C1246 H1217 0.950 . S
C1246 C1245 1.334 . S
C1246 C1247 1.287 . S
C1247 C1246 1.287 . S
C1247 C1248 1.524 . S
C1247 H1250 0.999 . S
C1248 H1218 0.950 . S
C1248 C1247 1.524 . S
C1248 C1249 1.415 . S
C1249 H1219 0.950 . S
C1249 C1244 1.363 . S
C1249 C1248 1.415 . S
H1250 C1247 0.999 . S
H1251 C1232 0.913 . S
H1252 C1270 0.951 . S
H1253 C1272 0.951 . S
H1254 C1274 0.950 . S
H1255 C1275 0.950 . S
H1256 C1277 0.950 . S
H1257 C1280 0.950 . S
H1258 C1281 0.950 . S
H1259 C1283 0.950 . S
H1260 C1284 0.950 . S
H1261 C1285 0.951 . S
H1262 C1287 0.951 . S
H1263 C1289 0.950 . S
H1264 C1290 0.950 . S
H1265 C1292 0.950 . S
H1266 C1295 0.950 . S
H1267 C1296 0.950 . S
H1268 C1298 0.950 . S
H1269 C1299 0.950 . S
C1270 H1252 0.951 . S
C1270 C1271 1.366 . S
C1270 C1272 1.388 . S
C1271 C1270 1.366 . S
C1271 C1275 1.385 . S
C1272 H1253 0.951 . S
C1272 C1270 1.388 . S
C1272 C1273 1.366 . S
C1273 C1272 1.366 . S
C1273 C1274 1.414 . S
C1273 C1276 1.499 . S
C1274 H1254 0.950 . S
C1274 C1273 1.414 . S
C1274 C1275 1.374 . S
C1275 H1255 0.950 . S
C1275 C1271 1.385 . S
C1275 C1274 1.374 . S
C1276 C1273 1.499 . S
C1276 C1277 1.373 . S
C1276 C1278 1.389 . S
C1277 H1256 0.950 . S
C1277 C1276 1.373 . S
C1277 C1293 1.377 . S
C1278 C1276 1.389 . S
C1278 C1279 1.524 . S
C1278 C1292 1.377 . S
C1279 C1278 1.524 . S
C1279 C1280 1.397 . S
C1279 C1284 1.363 . S
C1280 H1257 0.950 . S
C1280 C1279 1.397 . S
C1280 C1281 1.334 . S
C1281 H1258 0.950 . S
C1281 C1280 1.334 . S
C1281 C1282 1.287 . S
C1282 C1281 1.287 . S
C1282 C1283 1.524 . S
C1282 H1301 0.913 . S
C1283 H1259 0.950 . S
C1283 C1282 1.524 . S
C1283 C1284 1.415 . S
C1284 H1260 0.950 . S
C1284 C1279 1.363 . S
C1284 C1283 1.415 . S
C1285 H1261 0.951 . S
C1285 C1286 1.366 . S
C1285 C1287 1.388 . S
C1286 C1285 1.366 . S
C1286 C1290 1.385 . S
C1287 H1262 0.951 . S
C1287 C1285 1.388 . S
C1287 C1288 1.366 . S
C1288 C1287 1.366 . S
C1288 C1289 1.414 . S
C1288 C1291 1.499 . S
C1289 H1263 0.950 . S
C1289 C1288 1.414 . S
C1289 C1290 1.374 . S
C1290 H1264 0.950 . S
C1290 C1286 1.385 . S
C1290 C1289 1.374 . S
C1291 C1288 1.499 . S
C1291 C1292 1.373 . S
C1291 C1293 1.389 . S
C1292 H1265 0.950 . S
C1292 C1278 1.377 . S
C1292 C1291 1.373 . S
C1293 C1277 1.377 . S
C1293 C1291 1.389 . S
C1293 C1294 1.524 . S
C1294 C1293 1.524 . S
C1294 C1295 1.397 . S
C1294 C1299 1.363 . S
C1295 H1266 0.950 . S
C1295 C1294 1.397 . S
C1295 C1296 1.334 . S
C1296 H1267 0.950 . S
C1296 C1295 1.334 . S
C1296 C1297 1.287 . S
C1297 C1296 1.287 . S
C1297 C1298 1.524 . S
C1297 H1300 0.999 . S
C1298 H1268 0.950 . S
C1298 C1297 1.524 . S
C1298 C1299 1.415 . S
C1299 H1269 0.950 . S
C1299 C1294 1.363 . S
C1299 C1298 1.415 . S
H1300 C1297 0.999 . S
H1301 C1282 0.913 . S
H1302 C1320 0.951 . S
H1303 C1322 0.951 . S
H1304 C1324 0.950 . S
H1305 C1325 0.950 . S
H1306 C1327 0.950 . S
H1307 C1330 0.950 . S
H1308 C1331 0.950 . S
H1309 C1333 0.950 . S
H1310 C1334 0.950 . S
H1311 C1335 0.951 . S
H1312 C1337 0.951 . S
H1313 C1339 0.950 . S
H1314 C1340 0.950 . S
H1315 C1342 0.950 . S
H1316 C1345 0.950 . S
H1317 C1346 0.950 . S
H1318 C1348 0.950 . S
H1319 C1349 0.950 . S
C1320 H1302 0.951 . S
C1320 C1321 1.366 . S
C1320 C1322 1.388 . S
C1321 C1320 1.366 . S
C1321 C1325 1.385 . S
C1322 H1303 0.951 . S
C1322 C1320 1.388 . S
C1322 C1323 1.366 . S
C1323 C1322 1.366 . S
C1323 C1324 1.414 . S
C1323 C1326 1.499 . S
C1324 H1304 0.950 . S
C1324 C1323 1.414 . S
C1324 C1325 1.374 . S
C1325 H1305 0.950 . S
C1325 C1321 1.385 . S
C1325 C1324 1.374 . S
C1326 C1323 1.499 . S
C1326 C1327 1.373 . S
C1326 C1328 1.389 . S
C1327 H1306 0.950 . S
C1327 C1326 1.373 . S
C1327 C1343 1.377 . S
C1328 C1326 1.389 . S
C1328 C1329 1.524 . S
C1328 C1342 1.377 . S
C1329 C1328 1.524 . S
C1329 C1330 1.397 . S
C1329 C1334 1.363 . S
C1330 H1307 0.950 . S
C1330 C1329 1.397 . S
C1330 C1331 1.334 . S
C1331 H1308 0.950 . S
C1331 C1330 1.334 . S
C1331 C1332 1.287 . S
C1332 C1331 1.287 . S
C1332 C1333 1.524 . S
C1332 H1351 0.913 . S
C1333 H1309 0.950 . S
C1333 C1332 1.524 . S
C1333 C1334 1.415 . S
C1334 H1310 0.950 . S
C1334 C1329 1.363 . S
C1334 C1333 1.415 . S
C1335 H1311 0.951 . S
C1335 C1336 1.366 . S
C1335 C1337 1.388 . S
C1336 C1335 1.366 . S
C1336 C1340 1.385 . S
C1337 H1312 0.951 . S
C1337 C1335 1.388 . S
C1337 C1338 1.366 . S
C1338 C1337 1.366 . S
C1338 C1339 1.414 . S
C1338 C1341 1.499 . S
C1339 H1313 0.950 . S
C1339 C1338 1.414 . S
C1339 C1340 1.374 . S
C1340 H1314 0.950 . S
C1340 C1336 1.385 . S
C1340 C1339 1.374 . S
C1341 C1338 1.499 . S
C1341 C1342 1.373 . S
C1341 C1343 1.389 . S
C1342 H1315 0.950 . S
C1342 C1328 1.377 . S
C1342 C1341 1.373 . S
C1343 C1327 1.377 . S
C1343 C1341 1.389 . S
C1343 C1344 1.524 . S
C1344 C1343 1.524 . S
C1344 C1345 1.397 . S
C1344 C1349 1.363 . S
C1345 H1316 0.950 . S
C1345 C1344 1.397 . S
C1345 C1346 1.334 . S
C1346 H1317 0.950 . S
C1346 C1345 1.334 . S
C1346 C1347 1.287 . S
C1347 C1346 1.287 . S
C1347 C1348 1.524 . S
C1347 H1350 0.999 . S
C1348 H1318 0.950 . S
C1348 C1347 1.524 . S
C1348 C1349 1.415 . S
C1349 H1319 0.950 . S
C1349 C1344 1.363 . S
C1349 C1348 1.415 . S
H1350 C1347 0.999 . S
H1351 C1332 0.913 . S
H1352 C1370 0.951 . S
H1353 C1372 0.951 . S
H1354 C1374 0.950 . S
H1355 C1375 0.950 . S
H1356 C1377 0.950 . S
H1357 C1380 0.950 . S
H1358 C1381 0.950 . S
H1359 C1383 0.950 . S
H1360 C1384 0.950 . S
H1361 C1385 0.951 . S
H1362 C1387 0.951 . S
H1363 C1389 0.950 . S
H1364 C1390 0.950 . S
H1365 C1392 0.950 . S
H1366 C1395 0.950 . S
H1367 C1396 0.950 . S
H1368 C1398 0.950 . S
H1369 C1399 0.950 . S
C1370 H1352 0.951 . S
C1370 C1371 1.366 . S
C1370 C1372 1.388 . S
C1371 C1370 1.366 . S
C1371 C1375 1.385 . S
C1372 H1353 0.951 . S
C1372 C1370 1.388 . S
C1372 C1373 1.366 . S
C1373 C1372 1.366 . S
C1373 C1374 1.414 . S
C1373 C1376 1.499 . S
C1374 H1354 0.950 . S
C1374 C1373 1.414 . S
C1374 C1375 1.374 . S
C1375 H1355 0.950 . S
C1375 C1371 1.385 . S
C1375 C1374 1.374 . S
C1376 C1373 1.499 . S
C1376 C1377 1.373 . S
C1376 C1378 1.389 . S
C1377 H1356 0.950 . S
C1377 C1376 1.373 . S
C1377 C1393 1.377 . S
C1378 C1376 1.389 . S
C1378 C1379 1.524 . S
C1378 C1392 1.377 . S
C1379 C1378 1.524 . S
C1379 C1380 1.397 . S
C1379 C1384 1.363 . S
C1380 H1357 0.950 . S
C1380 C1379 1.397 . S
C1380 C1381 1.334 . S
C1381 H1358 0.950 . S
C1381 C1380 1.334 . S
C1381 C1382 1.287 . S
C1382 C1381 1.287 . S
C1382 C1383 1.524 . S
C1382 H1401 0.913 . S
C1383 H1359 0.950 . S
C1383 C1382 1.524 . S
C1383 C1384 1.415 . S
C1384 H1360 0.950 . S
C1384 C1379 1.363 . S
C1384 C1383 1.415 . S
C1385 H1361 0.951 . S
C1385 C1386 1.366 . S
C1385 C1387 1.388 . S
C1386 C1385 1.366 . S
C1386 C1390 1.385 . S
C1387 H1362 0.951 . S
C1387 C1385 1.388 . S
C1387 C1388 1.366 . S
C1388 C1387 1.366 . S
C1388 C1389 1.414 . S
C1388 C1391 1.499 . S
C1389 H1363 0.950 . S
C1389 C1388 1.414 . S
C1389 C1390 1.374 . S
C1390 H1364 0.950 . S
C1390 C1386 1.385 . S
C1390 C1389 1.374 . S
C1391 C1388 1.499 . S
C1391 C1392 1.373 . S
C1391 C1393 1.389 . S
C1392 H1365 0.950 . S
C1392 C1378 1.377 . S
C1392 C1391 1.373 . S
C1393 C1377 1.377 . S
C1393 C1391 1.389 . S
C1393 C1394 1.524 . S
C1394 C1393 1.524 . S
C1394 C1395 1.397 . S
C1394 C1399 1.363 . S
C1395 H1366 0.950 . S
C1395 C1394 1.397 . S
C1395 C1396 1.334 . S
C1396 H1367 0.950 . S
C1396 C1395 1.334 . S
C1396 C1397 1.287 . S
C1397 C1396 1.287 . S
C1397 C1398 1.524 . S
C1397 H1400 0.999 . S
C1398 H1368 0.950 . S
C1398 C1397 1.524 . S
C1398 C1399 1.415 . S
C1399 H1369 0.950 . S
C1399 C1394 1.363 . S
C1399 C1398 1.415 . S
H1400 C1397 0.999 . S
H1401 C1382 0.913 . S
H1402 C1420 0.951 . S
H1403 C1422 0.951 . S
H1404 C1424 0.950 . S
H1405 C1425 0.950 . S
H1406 C1427 0.950 . S
H1407 C1430 0.950 . S
H1408 C1431 0.950 . S
H1409 C1433 0.950 . S
H1410 C1434 0.950 . S
H1411 C1435 0.951 . S
H1412 C1437 0.951 . S
H1413 C1439 0.950 . S
H1414 C1440 0.950 . S
H1415 C1442 0.950 . S
H1416 C1445 0.950 . S
H1417 C1446 0.950 . S
H1418 C1448 0.950 . S
H1419 C1449 0.950 . S
C1420 H1402 0.951 . S
C1420 C1421 1.366 . S
C1420 C1422 1.388 . S
C1421 C1420 1.366 . S
C1421 C1425 1.385 . S
C1422 H1403 0.951 . S
C1422 C1420 1.388 . S
C1422 C1423 1.366 . S
C1423 C1422 1.366 . S
C1423 C1424 1.414 . S
C1423 C1426 1.499 . S
C1424 H1404 0.950 . S
C1424 C1423 1.414 . S
C1424 C1425 1.374 . S
C1425 H1405 0.950 . S
C1425 C1421 1.385 . S
C1425 C1424 1.374 . S
C1426 C1423 1.499 . S
C1426 C1427 1.373 . S
C1426 C1428 1.389 . S
C1427 H1406 0.950 . S
C1427 C1426 1.373 . S
C1427 C1443 1.377 . S
C1428 C1426 1.389 . S
C1428 C1429 1.524 . S
C1428 C1442 1.377 . S
C1429 C1428 1.524 . S
C1429 C1430 1.397 . S
C1429 C1434 1.363 . S
C1430 H1407 0.950 . S
C1430 C1429 1.397 . S
C1430 C1431 1.334 . S
C1431 H1408 0.950 . S
C1431 C1430 1.334 . S
C1431 C1432 1.287 . S
C1432 C1431 1.287 . S
C1432 C1433 1.524 . S
C1432 H1451 0.913 . S
C1433 H1409 0.950 . S
C1433 C1432 1.524 . S
C1433 C1434 1.415 . S
C1434 H1410 0.950 . S
C1434 C1429 1.363 . S
C1434 C1433 1.415 . S
C1435 H1411 0.951 . S
C1435 C1436 1.366 . S
C1435 C1437 1.388 . S
C1436 C1435 1.366 . S
C1436 C1440 1.385 . S
C1437 H1412 0.951 . S
C1437 C1435 1.388 . S
C1437 C1438 1.366 . S
C1438 C1437 1.366 . S
C1438 C1439 1.414 . S
C1438 C1441 1.499 . S
C1439 H1413 0.950 . S
C1439 C1438 1.414 . S
C1439 C1440 1.374 . S
C1440 H1414 0.950 . S
C1440 C1436 1.385 . S
C1440 C1439 1.374 . S
C1441 C1438 1.499 . S
C1441 C1442 1.373 . S
C1441 C1443 1.389 . S
C1442 H1415 0.950 . S
C1442 C1428 1.377 . S
C1442 C1441 1.373 . S
C1443 C1427 1.377 . S
C1443 C1441 1.389 . S
C1443 C1444 1.524 . S
C1444 C1443 1.524 . S
C1444 C1445 1.397 . S
C1444 C1449 1.363 . S
C1445 H1416 0.950 . S
C1445 C1444 1.397 . S
C1445 C1446 1.334 . S
C1446 H1417 0.950 . S
C1446 C1445 1.334 . S
C1446 C1447 1.287 . S
C1447 C1446 1.287 . S
C1447 C1448 1.524 . S
C1447 H1450 0.999 . S
C1448 H1418 0.950 . S
C1448 C1447 1.524 . S
C1448 C1449 1.415 . S
C1449 H1419 0.950 . S
C1449 C1444 1.363 . S
C1449 C1448 1.415 . S
H1450 C1447 0.999 . S
H1451 C1432 0.913 . S
H1452 C1470 0.951 . S
H1453 C1472 0.951 . S
H1454 C1474 0.950 . S
H1455 C1475 0.950 . S
H1456 C1477 0.950 . S
H1457 C1480 0.950 . S
H1458 C1481 0.950 . S
H1459 C1483 0.950 . S
H1460 C1484 0.950 . S
H1461 C1485 0.951 . S
H1462 C1487 0.951 . S
H1463 C1489 0.950 . S
H1464 C1490 0.950 . S
H1465 C1492 0.950 . S
H1466 C1495 0.950 . S
H1467 C1496 0.950 . S
H1468 C1498 0.950 . S
H1469 C1499 0.950 . S
C1470 H1452 0.951 . S
C1470 C1471 1.366 . S
C1470 C1472 1.388 . S
C1471 C1470 1.366 . S
C1471 C1475 1.385 . S
C1472 H1453 0.951 . S
C1472 C1470 1.388 . S
C1472 C1473 1.366 . S
C1473 C1472 1.366 . S
C1473 C1474 1.414 . S
C1473 C1476 1.499 . S
C1474 H1454 0.950 . S
C1474 C1473 1.414 . S
C1474 C1475 1.374 . S
C1475 H1455 0.950 . S
C1475 C1471 1.385 . S
C1475 C1474 1.374 . S
C1476 C1473 1.499 . S
C1476 C1477 1.373 . S
C1476 C1478 1.389 . S
C1477 H1456 0.950 . S
C1477 C1476 1.373 . S
C1477 C1493 1.377 . S
C1478 C1476 1.389 . S
C1478 C1479 1.524 . S
C1478 C1492 1.377 . S
C1479 C1478 1.524 . S
C1479 C1480 1.397 . S
C1479 C1484 1.363 . S
C1480 H1457 0.950 . S
C1480 C1479 1.397 . S
C1480 C1481 1.334 . S
C1481 H1458 0.950 . S
C1481 C1480 1.334 . S
C1481 C1482 1.287 . S
C1482 C1481 1.287 . S
C1482 C1483 1.524 . S
C1482 H1501 0.913 . S
C1483 H1459 0.950 . S
C1483 C1482 1.524 . S
C1483 C1484 1.415 . S
C1484 H1460 0.950 . S
C1484 C1479 1.363 . S
C1484 C1483 1.415 . S
C1485 H1461 0.951 . S
C1485 C1486 1.366 . S
C1485 C1487 1.388 . S
C1486 C1485 1.366 . S
C1486 C1490 1.385 . S
C1487 H1462 0.951 . S
C1487 C1485 1.388 . S
C1487 C1488 1.366 . S
C1488 C1487 1.366 . S
C1488 C1489 1.414 . S
C1488 C1491 1.499 . S
C1489 H1463 0.950 . S
C1489 C1488 1.414 . S
C1489 C1490 1.374 . S
C1490 H1464 0.950 . S
C1490 C1486 1.385 . S
C1490 C1489 1.374 . S
C1491 C1488 1.499 . S
C1491 C1492 1.373 . S
C1491 C1493 1.389 . S
C1492 H1465 0.950 . S
C1492 C1478 1.377 . S
C1492 C1491 1.373 . S
C1493 C1477 1.377 . S
C1493 C1491 1.389 . S
C1493 C1494 1.524 . S
C1494 C1493 1.524 . S
C1494 C1495 1.397 . S
C1494 C1499 1.363 . S
C1495 H1466 0.950 . S
C1495 C1494 1.397 . S
C1495 C1496 1.334 . S
C1496 H1467 0.950 . S
C1496 C1495 1.334 . S
C1496 C1497 1.287 . S
C1497 C1496 1.287 . S
C1497 C1498 1.524 . S
C1497 H1500 0.999 . S
C1498 H1468 0.950 . S
C1498 C1497 1.524 . S
C1498 C1499 1.415 . S
C1499 H1469 0.950 . S
C1499 C1494 1.363 . S
C1499 C1498 1.415 . S
H1500 C1497 0.999 . S
H1501 C1482 0.913 . S
H1502 C1520 0.951 . S
H1503 C1522 0.951 . S
H1504 C1524 0.950 . S
H1505 C1525 0.950 . S
H1506 C1527 0.950 . S
H1507 C1530 0.950 . S
H1508 C1531 0.950 . S
H1509 C1533 0.950 . S
H1510 C1534 0.950 . S
H1511 C1535 0.951 . S
H1512 C1537 0.951 . S
H1513 C1539 0.950 . S
H1514 C1540 0.950 . S
H1515 C1542 0.950 . S
H1516 C1545 0.950 . S
H1517 C1546 0.950 . S
H1518 C1548 0.950 . S
H1519 C1549 0.950 . S
C1520 H1502 0.951 . S
C1520 C1521 1.366 . S
C1520 C1522 1.388 . S
C1521 C1520 1.366 . S
C1521 C1525 1.385 . S
C1522 H1503 0.951 . S
C1522 C1520 1.388 . S
C1522 C1523 1.366 . S
C1523 C1522 1.366 . S
C1523 C1524 1.414 . S
C1523 C1526 1.499 . S
C1524 H1504 0.950 . S
C1524 C1523 1.414 . S
C1524 C1525 1.374 . S
C1525 H1505 0.950 . S
C1525 C1521 1.385 . S
C1525 C1524 1.374 . S
C1526 C1523 1.499 . S
C1526 C1527 1.373 . S
C1526 C1528 1.389 . S
C1527 H1506 0.950 . S
C1527 C1526 1.373 . S
C1527 C1543 1.377 . S
C1528 C1526 1.389 . S
C1528 C1529 1.524 . S
C1528 C1542 1.377 . S
C1529 C1528 1.524 . S
C1529 C1530 1.397 . S
C1529 C1534 1.363 . S
C1530 H1507 0.950 . S
C1530 C1529 1.397 . S
C1530 C1531 1.334 . S
C1531 H1508 0.950 . S
C1531 C1530 1.334 . S
C1531 C1532 1.287 . S
C1532 C1531 1.287 . S
C1532 C1533 1.524 . S
C1532 H1551 0.913 . S
C1533 H1509 0.950 . S
C1533 C1532 1.524 . S
C1533 C1534 1.415 . S
C1534 H1510 0.950 . S
C1534 C1529 1.363 . S
C1534 C1533 1.415 . S
C1535 H1511 0.951 . S
C1535 C1536 1.366 . S
C1535 C1537 1.388 . S
C1536 C1535 1.366 . S
C1536 C1540 1.385 . S
C1537 H1512 0.951 . S
C1537 C1535 1.388 . S
C1537 C1538 1.366 . S
C1538 C1537 1.366 . S
C1538 C1539 1.414 . S
C1538 C1541 1.499 . S
C1539 H1513 0.950 . S
C1539 C1538 1.414 . S
C1539 C1540 1.374 . S
C1540 H1514 0.950 . S
C1540 C1536 1.385 . S
C1540 C1539 1.374 . S
C1541 C1538 1.499 . S
C1541 C1542 1.373 . S
C1541 C1543 1.389 . S
C1542 H1515 0.950 . S
C1542 C1528 1.377 . S
C1542 C1541 1.373 . S
C1543 C1527 1.377 . S
C1543 C1541 1.389 . S
C1543 C1544 1.524 . S
C1544 C1543 1.524 . S
C1544 C1545 1.397 . S
C1544 C1549 1.363 . S
C1545 H1516 0.950 . S
C1545 C1544 1.397 . S
C1545 C1546 1.334 . S
C1546 H1517 0.950 . S
C1546 C1545 1.334 . S
C1546 C1547 1.287 . S
C1547 C1546 1.287 . S
C1547 C1548 1.524 . S
C1547 H1550 0.999 . S
C1548 H1518 0.950 . S
C1548 C1547 1.524 . S
C1548 C1549 1.415 . S
C1549 H1519 0.950 . S
C1549 C1544 1.363 . S
C1549 C1548 1.415 . S
H1550 C1547 0.999 . S
H1551 C1532 0.913 . S
H1552 C1570 0.951 . S
H1553 C1572 0.951 . S
H1554 C1574 0.950 . S
H1555 C1575 0.950 . S
H1556 C1577 0.950 . S
H1557 C1580 0.950 . S
H1558 C1581 0.950 . S
H1559 C1583 0.950 . S
H1560 C1584 0.950 . S
H1561 C1585 0.951 . S
H1562 C1587 0.951 . S
H1563 C1589 0.950 . S
H1564 C1590 0.950 . S
H1565 C1592 0.950 . S
H1566 C1595 0.950 . S
H1567 C1596 0.950 . S
H1568 C1598 0.950 . S
H1569 C1599 0.950 . S
C1570 H1552 0.951 . S
C1570 C1571 1.366 . S
C1570 C1572 1.388 . S
C1571 C1570 1.366 . S
C1571 C1575 1.385 . S
C1572 H1553 0.951 . S
C1572 C1570 1.388 . S
C1572 C1573 1.366 . S
C1573 C1572 1.366 . S
C1573 C1574 1.414 . S
C1573 C1576 1.499 . S
C1574 H1554 0.950 . S
C1574 C1573 1.414 . S
C1574 C1575 1.374 . S
C1575 H1555 0.950 . S
C1575 C1571 1.385 . S
C1575 C1574 1.374 . S
C1576 C1573 1.499 . S
C1576 C1577 1.373 . S
C1576 C1578 1.389 . S
C1577 H1556 0.950 . S
C1577 C1576 1.373 . S
C1577 C1593 1.377 . S
C1578 C1576 1.389 . S
C1578 C1579 1.524 . S
C1578 C1592 1.377 . S
C1579 C1578 1.524 . S
C1579 C1580 1.397 . S
C1579 C1584 1.363 . S
C1580 H1557 0.950 . S
C1580 C1579 1.397 . S
C1580 C1581 1.334 . S
C1581 H1558 0.950 . S
C1581 C1580 1.334 . S
C1581 C1582 1.287 . S
C1582 C1581 1.287 . S
C1582 C1583 1.524 . S
C1582 H1601 0.913 . S
C1583 H1559 0.950 . S
C1583 C1582 1.524 . S
C1583 C1584 1.415 . S
C1584 H1560 0.950 . S
C1584 C1579 1.363 . S
C1584 C1583 1.415 . S
C1585 H1561 0.951 . S
C1585 C1586 1.366 . S
C1585 C1587 1.388 . S
C1586 C1585 1.366 . S
C1586 C1590 1.385 . S
C1587 H1562 0.951 . S
C1587 C1585 1.388 . S
C1587 C1588 1.366 . S
C1588 C1587 1.366 . S
C1588 C1589 1.414 . S
C1588 C1591 1.499 . S
C1589 H1563 0.950 . S
C1589 C1588 1.414 . S
C1589 C1590 1.374 . S
C1590 H1564 0.950 . S
C1590 C1586 1.385 . S
C1590 C1589 1.374 . S
C1591 C1588 1.499 . S
C1591 C1592 1.373 . S
C1591 C1593 1.389 . S
C1592 H1565 0.950 . S
C1592 C1578 1.377 . S
C1592 C1591 1.373 . S
C1593 C1577 1.377 . S
C1593 C1591 1.389 . S
C1593 C1594 1.524 . S
C1594 C1593 1.524 . S
C1594 C1595 1.397 . S
C1594 C1599 1.363 . S
C1595 H1566 0.950 . S
C1595 C1594 1.397 . S
C1595 C1596 1.334 . S
C1596 H1567 0.950 . S
C1596 C1595 1.334 . S
C1596 C1597 1.287 . S
C1597 C1596 1.287 . S
C1597 C1598 1.524 . S
C1597 H1600 0.999 . S
C1598 H1568 0.950 . S
C1598 C1597 1.524 . S
C1598 C1599 1.415 . S
C1599 H1569 0.950 . S
C1599 C1594 1.363 . S
C1599 C1598 1.415 . S
H1600 C1597 0.999 . S
H1601 C1582 0.913 . S
H1602 C1620 0.951 . S
H1603 C1622 0.951 . S
H1604 C1624 0.950 . S
H1605 C1625 0.950 . S
H1606 C1627 0.950 . S
H1607 C1630 0.950 . S
H1608 C1631 0.950 . S
H1609 C1633 0.950 . S
H1610 C1634 0.950 . S
H1611 C1635 0.951 . S
H1612 C1637 0.951 . S
H1613 C1639 0.950 . S
H1614 C1640 0.950 . S
H1615 C1642 0.950 . S
H1616 C1645 0.950 . S
H1617 C1646 0.950 . S
H1618 C1648 0.950 . S
H1619 C1649 0.950 . S
C1620 H1602 0.951 . S
C1620 C1621 1.366 . S
C1620 C1622 1.388 . S
C1621 C1620 1.366 . S
C1621 C1625 1.385 . S
C1622 H1603 0.951 . S
C1622 C1620 1.388 . S
C1622 C1623 1.366 . S
C1623 C1622 1.366 . S
C1623 C1624 1.414 . S
C1623 C1626 1.499 . S
C1624 H1604 0.950 . S
C1624 C1623 1.414 . S
C1624 C1625 1.374 . S
C1625 H1605 0.950 . S
C1625 C1621 1.385 . S
C1625 C1624 1.374 . S
C1626 C1623 1.499 . S
C1626 C1627 1.373 . S
C1626 C1628 1.389 . S
C1627 H1606 0.950 . S
C1627 C1626 1.373 . S
C1627 C1643 1.377 . S
C1628 C1626 1.389 . S
C1628 C1629 1.524 . S
C1628 C1642 1.377 . S
C1629 C1628 1.524 . S
C1629 C1630 1.397 . S
C1629 C1634 1.363 . S
C1630 H1607 0.950 . S
C1630 C1629 1.397 . S
C1630 C1631 1.334 . S
C1631 H1608 0.950 . S
C1631 C1630 1.334 . S
C1631 C1632 1.287 . S
C1632 C1631 1.287 . S
C1632 C1633 1.524 . S
C1632 H1651 0.913 . S
C1633 H1609 0.950 . S
C1633 C1632 1.524 . S
C1633 C1634 1.415 . S
C1634 H1610 0.950 . S
C1634 C1629 1.363 . S
C1634 C1633 1.415 . S
C1635 H1611 0.951 . S
C1635 C1636 1.366 . S
C1635 C1637 1.388 . S
C1636 C1635 1.366 . S
C1636 C1640 1.385 . S
C1637 H1612 0.951 . S
C1637 C1635 1.388 . S
C1637 C1638 1.366 . S
C1638 C1637 1.366 . S
C1638 C1639 1.414 . S
C1638 C1641 1.499 . S
C1639 H1613 0.950 . S
C1639 C1638 1.414 . S
C1639 C1640 1.374 . S
C1640 H1614 0.950 . S
C1640 C1636 1.385 . S
C1640 C1639 1.374 . S
C1641 C1638 1.499 . S
C1641 C1642 1.373 . S
C1641 C1643 1.389 . S
C1642 H1615 0.950 . S
C1642 C1628 1.377 . S
C1642 C1641 1.373 . S
C1643 C1627 1.377 . S
C1643 C1641 1.389 . S
C1643 C1644 1.524 . S
C1644 C1643 1.524 . S
C1644 C1645 1.397 . S
C1644 C1649 1.363 . S
C1645 H1616 0.950 . S
C1645 C1644 1.397 . S
C1645 C1646 1.334 . S
C1646 H1617 0.950 . S
C1646 C1645 1.334 . S
C1646 C1647 1.287 . S
C1647 C1646 1.287 . S
C1647 C1648 1.524 . S
C1647 H1650 0.999 . S
C1648 H1618 0.950 . S
C1648 C1647 1.524 . S
C1648 C1649 1.415 . S
C1649 H1619 0.950 . S
C1649 C1644 1.363 . S
C1649 C1648 1.415 . S
H1650 C1647 0.999 . S
H1651 C1632 0.913 . S
H1652 C1670 0.951 . S
H1653 C1672 0.951 . S
H1654 C1674 0.950 . S
H1655 C1675 0.950 . S
H1656 C1677 0.950 . S
H1657 C1680 0.950 . S
H1658 C1681 0.950 . S
H1659 C1683 0.950 . S
H1660 C1684 0.950 . S
H1661 C1685 0.951 . S
H1662 C1687 0.951 . S
H1663 C1689 0.950 . S
H1664 C1690 0.950 . S
H1665 C1692 0.950 . S
H1666 C1695 0.950 . S
H1667 C1696 0.950 . S
H1668 C1698 0.950 . S
H1669 C1699 0.950 . S
C1670 H1652 0.951 . S
C1670 C1671 1.366 . S
C1670 C1672 1.388 . S
C1671 C1670 1.366 . S
C1671 C1675 1.385 . S
C1672 H1653 0.951 . S
C1672 C1670 1.388 . S
C1672 C1673 1.366 . S
C1673 C1672 1.366 . S
C1673 C1674 1.414 . S
C1673 C1676 1.499 . S
C1674 H1654 0.950 . S
C1674 C1673 1.414 . S
C1674 C1675 1.374 . S
C1675 H1655 0.950 . S
C1675 C1671 1.385 . S
C1675 C1674 1.374 . S
C1676 C1673 1.499 . S
C1676 C1677 1.373 . S
C1676 C1678 1.389 . S
C1677 H1656 0.950 . S
C1677 C1676 1.373 . S
C1677 C1693 1.377 . S
C1678 C1676 1.389 . S
C1678 C1679 1.524 . S
C1678 C1692 1.377 . S
C1679 C1678 1.524 . S
C1679 C1680 1.397 . S
C1679 C1684 1.363 . S
C1680 H1657 0.950 . S
C1680 C1679 1.397 . S
C1680 C1681 1.334 . S
C1681 H1658 0.950 . S
C1681 C1680 1.334 . S
C1681 C1682 1.287 . S
C1682 C1681 1.287 . S
C1682 C1683 1.524 . S
C1682 H1701 0.913 . S
C1683 H1659 0.950 . S
C1683 C1682 1.524 . S
C1683 C1684 1.415 . S
C1684 H1660 0.950 . S
C1684 C1679 1.363 . S
C1684 C1683 1.415 . S
C1685 H1661 0.951 . S
C1685 C1686 1.366 . S
C1685 C1687 1.388 . S
C1686 C1685 1.366 . S
C1686 C1690 1.385 . S
C1687 H1662 0.951 . S
C1687 C1685 1.388 . S
C1687 C1688 1.366 . S
C1688 C1687 1.366 . S
C1688 C1689 1.414 . S
C1688 C1691 1.499 . S
C1689 H1663 0.950 . S
C1689 C1688 1.414 . S
C1689 C1690 1.374 . S
C1690 H1664 0.950 . S
C1690 C1686 1.385 . S
C1690 C1689 1.374 . S
C1691 C1688 1.499 . S
C1691 C1692 1.373 . S
C1691 C1693 1.389 . S
C1692 H1665 0.950 . S
C1692 C1678 1.377 . S
C1692 C1691 1.373 . S
C1693 C1677 1.377 . S
C1693 C1691 1.389 . S
C1693 C1694 1.524 . S
C1694 C1693 1.524 . S
C1694 C1695 1.397 . S
C1694 C1699 1.363 . S
C1695 H1666 0.950 . S
C1695 C1694 1.397 . S
C1695 C1696 1.334 . S
C1696 H1667 0.950 . S
C1696 C1695 1.334 . S
C1696 C1697 1.287 . S
C1697 C1696 1.287 . S
C1697 C1698 1.524 . S
C1697 H1700 0.999 . S
C1698 H1668 0.950 . S
C1698 C1697 1.524 . S
C1698 C1699 1.415 . S
C1699 H1669 0.950 . S
C1699 C1694 1.363 . S
C1699 C1698 1.415 . S
H1700 C1697 0.999 . S
H1701 C1682 0.913 . S
H1702 C1720 0.951 . S
H1703 C1722 0.951 . S
H1704 C1724 0.950 . S
H1705 C1725 0.950 . S
H1706 C1727 0.950 . S
H1707 C1730 0.950 . S
H1708 C1731 0.950 . S
H1709 C1733 0.950 . S
H1710 C1734 0.950 . S
H1711 C1735 0.951 . S
H1712 C1737 0.951 . S
H1713 C1739 0.950 . S
H1714 C1740 0.950 . S
H1715 C1742 0.950 . S
H1716 C1745 0.950 . S
H1717 C1746 0.950 . S
H1718 C1748 0.950 . S
H1719 C1749 0.950 . S
C1720 H1702 0.951 . S
C1720 C1721 1.366 . S
C1720 C1722 1.388 . S
C1721 C1720 1.366 . S
C1721 C1725 1.385 . S
C1722 H1703 0.951 . S
C1722 C1720 1.388 . S
C1722 C1723 1.366 . S
C1723 C1722 1.366 . S
C1723 C1724 1.414 . S
C1723 C1726 1.499 . S
C1724 H1704 0.950 . S
C1724 C1723 1.414 . S
C1724 C1725 1.374 . S
C1725 H1705 0.950 . S
C1725 C1721 1.385 . S
C1725 C1724 1.374 . S
C1726 C1723 1.499 . S
C1726 C1727 1.373 . S
C1726 C1728 1.389 . S
C1727 H1706 0.950 . S
C1727 C1726 1.373 . S
C1727 C1743 1.377 . S
C1728 C1726 1.389 . S
C1728 C1729 1.524 . S
C1728 C1742 1.377 . S
C1729 C1728 1.524 . S
C1729 C1730 1.397 . S
C1729 C1734 1.363 . S
C1730 H1707 0.950 . S
C1730 C1729 1.397 . S
C1730 C1731 1.334 . S
C1731 H1708 0.950 . S
C1731 C1730 1.334 . S
C1731 C1732 1.287 . S
C1732 C1731 1.287 . S
C1732 C1733 1.524 . S
C1732 H1751 0.913 . S
C1733 H1709 0.950 . S
C1733 C1732 1.524 . S
C1733 C1734 1.415 . S
C1734 H1710 0.950 . S
C1734 C1729 1.363 . S
C1734 C1733 1.415 . S
C1735 H1711 0.951 . S
C1735 C1736 1.366 . S
C1735 C1737 1.388 . S
C1736 C1735 1.366 . S
C1736 C1740 1.385 . S
C1737 H1712 0.951 . S
C1737 C1735 1.388 . S
C1737 C1738 1.366 . S
C1738 C1737 1.366 . S
C1738 C1739 1.414 . S
C1738 C1741 1.499 . S
C1739 H1713 0.950 . S
C1739 C1738 1.414 . S
C1739 C1740 1.374 . S
C1740 H1714 0.950 . S
C1740 C1736 1.385 . S
C1740 C1739 1.374 . S
C1741 C1738 1.499 . S
C1741 C1742 1.373 . S
C1741 C1743 1.389 . S
C1742 H1715 0.950 . S
C1742 C1728 1.377 . S
C1742 C1741 1.373 . S
C1743 C1727 1.377 . S
C1743 C1741 1.389 . S
C1743 C1744 1.524 . S
C1744 C1743 1.524 . S
C1744 C1745 1.397 . S
C1744 C1749 1.363 . S
C1745 H1716 0.950 . S
C1745 C1744 1.397 . S
C1745 C1746 1.334 . S
C1746 H1717 0.950 . S
C1746 C1745 1.334 . S
C1746 C1747 1.287 . S
C1747 C1746 1.287 . S
C1747 C1748 1.524 . S
C1747 H1750 0.999 . S
C1748 H1718 0.950 . S
C1748 C1747 1.524 . S
C1748 C1749 1.415 . S
C1749 H1719 0.950 . S
C1749 C1744 1.363 . S
C1749 C1748 1.415 . S
H1750 C1747 0.999 . S
H1751 C1732 0.913 . S
H1752 C1770 0.951 . S
H1753 C1772 0.951 . S
H1754 C1774 0.950 . S
H1755 C1775 0.950 . S
H1756 C1777 0.950 . S
H1757 C1780 0.950 . S
H1758 C1781 0.950 . S
H1759 C1783 0.950 . S
H1760 C1784 0.950 . S
H1761 C1785 0.951 . S
H1762 C1787 0.951 . S
H1763 C1789 0.950 . S
H1764 C1790 0.950 . S
H1765 C1792 0.950 . S
H1766 C1795 0.950 . S
H1767 C1796 0.950 . S
H1768 C1798 0.950 . S
H1769 C1799 0.950 . S
C1770 H1752 0.951 . S
C1770 C1771 1.366 . S
C1770 C1772 1.388 . S
C1771 C1770 1.366 . S
C1771 C1775 1.385 . S
C1772 H1753 0.951 . S
C1772 C1770 1.388 . S
C1772 C1773 1.366 . S
C1773 C1772 1.366 . S
C1773 C1774 1.414 . S
C1773 C1776 1.499 . S
C1774 H1754 0.950 . S
C1774 C1773 1.414 . S
C1774 C1775 1.374 . S
C1775 H1755 0.950 . S
C1775 C1771 1.385 . S
C1775 C1774 1.374 . S
C1776 C1773 1.499 . S
C1776 C1777 1.373 . S
C1776 C1778 1.389 . S
C1777 H1756 0.950 . S
C1777 C1776 1.373 . S
C1777 C1793 1.377 . S
C1778 C1776 1.389 . S
C1778 C1779 1.524 . S
C1778 C1792 1.377 . S
C1779 C1778 1.524 . S
C1779 C1780 1.397 . S
C1779 C1784 1.363 . S
C1780 H1757 0.950 . S
C1780 C1779 1.397 . S
C1780 C1781 1.334 . S
C1781 H1758 0.950 . S
C1781 C1780 1.334 . S
C1781 C1782 1.287 . S
C1782 C1781 1.287 . S
C1782 C1783 1.524 . S
C1782 H1801 0.913 . S
C1783 H1759 0.950 . S
C1783 C1782 1.524 . S
C1783 C1784 1.415 . S
C1784 H1760 0.950 . S
C1784 C1779 1.363 . S
C1784 C1783 1.415 . S
C1785 H1761 0.951 . S
C1785 C1786 1.366 . S
C1785 C1787 1.388 . S
C1786 C1785 1.366 . S
C1786 C1790 1.385 . S
C1787 H1762 0.951 . S
C1787 C1785 1.388 . S
C1787 C1788 1.366 . S
C1788 C1787 1.366 . S
C1788 C1789 1.414 . S
C1788 C1791 1.499 . S
C1789 H1763 0.950 . S
C1789 C1788 1.414 . S
C1789 C1790 1.374 . S
C1790 H1764 0.950 . S
C1790 C1786 1.385 . S
C1790 C1789 1.374 . S
C1791 C1788 1.499 . S
C1791 C1792 1.373 . S
C1791 C1793 1.389 . S
C1792 H1765 0.950 . S
C1792 C1778 1.377 . S
C1792 C1791 1.373 . S
C1793 C1777 1.377 . S
C1793 C1791 1.389 . S
C1793 C1794 1.524 . S
C1794 C1793 1.524 . S
C1794 C1795 1.397 . S
C1794 C1799 1.363 . S
C1795 H1766 0.950 . S
C1795 C1794 1.397 . S
C1795 C1796 1.334 . S
C1796 H1767 0.950 . S
C1796 C1795 1.334 . S
C1796 C1797 1.287 . S
C1797 C1796 1.287 . S
C1797 C1798 1.524 . S
C1797 H1800 0.999 . S
C1798 H1768 0.950 . S
C1798 C1797 1.524 . S
C1798 C1799 1.415 . S
C1799 H1769 0.950 . S
C1799 C1794 1.363 . S
C1799 C1798 1.415 . S
H1800 C1797 0.999 . S
H1801 C1782 0.913 . S
H1802 C1820 0.951 . S
H1803 C1822 0.951 . S
H1804 C1824 0.950 . S
H1805 C1825 0.950 . S
H1806 C1827 0.950 . S
H1807 C1830 0.950 . S
H1808 C1831 0.950 . S
H1809 C1833 0.950 . S
H1810 C1834 0.950 . S
H1811 C1835 0.951 . S
H1812 C1837 0.951 . S
H1813 C1839 0.950 . S
H1814 C1840 0.950 . S
H1815 C1842 0.950 . S
H1816 C1845 0.950 . S
H1817 C1846 0.950 . S
H1818 C1848 0.950 . S
H1819 C1849 0.950 . S
C1820 H1802 0.951 . S
C1820 C1821 1.366 . S
C1820 C1822 1.388 . S
C1821 C1820 1.366 . S
C1821 C1825 1.385 . S
C1822 H1803 0.951 . S
C1822 C1820 1.388 . S
C1822 C1823 1.366 . S
C1823 C1822 1.366 . S
C1823 C1824 1.414 . S
C1823 C1826 1.499 . S
C1824 H1804 0.950 . S
C1824 C1823 1.414 . S
C1824 C1825 1.374 . S
C1825 H1805 0.950 . S
C1825 C1821 1.385 . S
C1825 C1824 1.374 . S
C1826 C1823 1.499 . S
C1826 C1827 1.373 1_545 S
C1826 C1828 1.389 . S
C1827 H1806 0.950 . S
C1827 C1826 1.373 1_565 S
C1827 C1843 1.377 . S
C1828 C1826 1.389 . S
C1828 C1829 1.524 . S
C1828 C1842 1.377 . S
C1829 C1828 1.524 . S
C1829 C1830 1.397 . S
C1829 C1834 1.363 . S
C1830 H1807 0.950 . S
C1830 C1829 1.397 . S
C1830 C1831 1.334 . S
C1831 H1808 0.950 . S
C1831 C1830 1.334 . S
C1831 C1832 1.287 . S
C1832 C1831 1.287 . S
C1832 C1833 1.524 . S
C1832 H1851 0.913 . S
C1833 H1809 0.950 . S
C1833 C1832 1.524 . S
C1833 C1834 1.415 . S
C1834 H1810 0.950 . S
C1834 C1829 1.363 . S
C1834 C1833 1.415 . S
C1835 H1811 0.951 . S
C1835 C1836 1.366 . S
C1835 C1837 1.388 . S
C1836 C1835 1.366 . S
C1836 C1840 1.385 . S
C1837 H1812 0.951 . S
C1837 C1835 1.388 . S
C1837 C1838 1.366 . S
C1838 C1837 1.366 . S
C1838 C1839 1.414 . S
C1838 C1841 1.499 . S
C1839 H1813 0.950 . S
C1839 C1838 1.414 . S
C1839 C1840 1.374 . S
C1840 H1814 0.950 . S
C1840 C1836 1.385 . S
C1840 C1839 1.374 . S
C1841 C1838 1.499 . S
C1841 C1842 1.373 1_565 S
C1841 C1843 1.389 . S
C1842 H1815 0.950 . S
C1842 C1828 1.377 . S
C1842 C1841 1.373 1_545 S
C1843 C1827 1.377 . S
C1843 C1841 1.389 . S
C1843 C1844 1.524 . S
C1844 C1843 1.524 . S
C1844 C1845 1.397 . S
C1844 C1849 1.363 . S
C1845 H1816 0.950 . S
C1845 C1844 1.397 . S
C1845 C1846 1.334 . S
C1846 H1817 0.950 . S
C1846 C1845 1.334 . S
C1846 C1847 1.287 . S
C1847 C1846 1.287 . S
C1847 C1848 1.524 . S
C1847 H1850 0.999 . S
C1848 H1818 0.950 . S
C1848 C1847 1.524 . S
C1848 C1849 1.415 . S
C1849 H1819 0.950 . S
C1849 C1844 1.363 . S
C1849 C1848 1.415 . S
H1850 C1847 0.999 . S
H1851 C1832 0.913 . S
H1852 C1870 0.951 . S
H1853 C1872 0.951 . S
H1854 C1874 0.950 . S
H1855 C1875 0.950 . S
H1856 C1877 0.950 . S
H1857 C1880 0.950 . S
H1858 C1881 0.950 . S
H1859 C1883 0.950 . S
H1860 C1884 0.950 . S
H1861 C1885 0.951 . S
H1862 C1887 0.951 1_455 S
H1863 C1889 0.950 . S
H1864 C1890 0.950 . S
H1865 C1892 0.950 . S
H1866 C1895 0.950 1_655 S
H1867 C1896 0.950 1_655 S
H1868 C1898 0.950 . S
H1869 C1899 0.950 . S
C1870 H1852 0.951 . S
C1870 C1871 1.366 . S
C1870 C1872 1.388 . S
C1871 C1870 1.366 . S
C1871 C1875 1.385 . S
C1872 H1853 0.951 . S
C1872 C1870 1.388 . S
C1872 C1873 1.366 . S
C1873 C1872 1.366 . S
C1873 C1874 1.414 . S
C1873 C1876 1.499 . S
C1874 H1854 0.950 . S
C1874 C1873 1.414 . S
C1874 C1875 1.374 . S
C1875 H1855 0.950 . S
C1875 C1871 1.385 . S
C1875 C1874 1.374 . S
C1876 C1873 1.499 . S
C1876 C1877 1.373 . S
C1876 C1878 1.389 . S
C1877 H1856 0.950 . S
C1877 C1876 1.373 . S
C1877 C1893 1.377 . S
C1878 C1876 1.389 . S
C1878 C1879 1.524 . S
C1878 C1892 1.377 1_455 S
C1879 C1878 1.524 . S
C1879 C1880 1.397 . S
C1879 C1884 1.363 1_455 S
C1880 H1857 0.950 . S
C1880 C1879 1.397 . S
C1880 C1881 1.334 . S
C1881 H1858 0.950 . S
C1881 C1880 1.334 . S
C1881 C1882 1.287 . S
C1882 C1881 1.287 . S
C1882 C1883 1.524 1_455 S
C1882 H1901 0.913 . S
C1883 H1859 0.950 . S
C1883 C1882 1.524 1_655 S
C1883 C1884 1.415 . S
C1884 H1860 0.950 . S
C1884 C1879 1.363 1_655 S
C1884 C1883 1.415 . S
C1885 H1861 0.951 . S
C1885 C1886 1.366 . S
C1885 C1887 1.388 . S
C1886 C1885 1.366 . S
C1886 C1890 1.385 . S
C1887 H1862 0.951 1_655 S
C1887 C1885 1.388 . S
C1887 C1888 1.366 . S
C1888 C1887 1.366 . S
C1888 C1889 1.414 . S
C1888 C1891 1.463 1_655 S
C1889 H1863 0.950 . S
C1889 C1888 1.414 . S
C1889 C1890 1.374 . S
C1890 H1864 0.950 . S
C1890 C1886 1.385 . S
C1890 C1889 1.374 . S
C1891 C1888 1.463 1_455 S
C1891 C1892 1.375 1_455 S
C1891 C1893 1.426 . S
C1892 H1865 0.950 . S
C1892 C1878 1.377 1_655 S
C1892 C1891 1.375 1_655 S
C1893 C1877 1.377 . S
C1893 C1891 1.426 . S
C1893 C1894 1.524 . S
C1894 C1893 1.524 . S
C1894 C1895 1.397 . S
C1894 C1899 1.363 . S
C1895 H1866 0.950 1_455 S
C1895 C1894 1.397 . S
C1895 C1896 1.334 . S
C1896 H1867 0.950 1_455 S
C1896 C1895 1.334 . S
C1896 C1897 1.287 . S
C1897 C1896 1.287 . S
C1897 C1898 1.524 . S
C1897 H1900 0.999 . S
C1898 H1868 0.950 . S
C1898 C1897 1.524 . S
C1898 C1899 1.415 . S
C1899 H1869 0.950 . S
C1899 C1894 1.363 . S
C1899 C1898 1.415 . S
H1900 C1897 0.999 . S
H1901 C1882 0.913 . S
H1902 C1920 0.951 . S
H1903 C1922 0.951 . S
H1904 C1924 0.950 . S
H1905 C1925 0.950 . S
H1906 C1927 0.950 . S
H1907 C1930 0.950 . S
H1908 C1931 0.950 . S
H1909 C1933 0.950 . S
H1910 C1934 0.950 . S
H1911 C1935 0.951 . S
H1912 C1937 0.951 . S
H1913 C1939 0.950 . S
H1914 C1940 0.950 . S
H1915 C1942 0.950 . S
H1916 C1945 0.950 . S
H1917 C1946 0.950 . S
H1918 C1948 0.950 . S
H1919 C1949 0.950 . S
C1920 H1902 0.951 . S
C1920 C1921 1.366 . S
C1920 C1922 1.388 . S
C1921 C1920 1.366 . S
C1921 C1925 1.385 . S
C1922 H1903 0.951 . S
C1922 C1920 1.388 . S
C1922 C1923 1.366 . S
C1923 C1922 1.366 . S
C1923 C1924 1.414 . S
C1923 C1926 1.499 . S
C1924 H1904 0.950 . S
C1924 C1923 1.414 . S
C1924 C1925 1.374 . S
C1925 H1905 0.950 . S
C1925 C1921 1.385 . S
C1925 C1924 1.374 . S
C1926 C1923 1.499 . S
C1926 C1927 1.373 1_556 S
C1926 C1928 1.389 . S
C1927 H1906 0.950 . S
C1927 C1926 1.373 1_554 S
C1927 C1943 1.377 . S
C1928 C1926 1.389 . S
C1928 C1929 1.524 . S
C1928 C1942 1.377 . S
C1929 C1928 1.524 . S
C1929 C1930 1.397 . S
C1929 C1934 1.363 . S
C1930 H1907 0.950 . S
C1930 C1929 1.397 . S
C1930 C1931 1.334 . S
C1931 H1908 0.950 . S
C1931 C1930 1.334 . S
C1931 C1932 1.287 . S
C1932 C1931 1.287 . S
C1932 C1933 1.524 . S
C1932 H1951 0.913 . S
C1933 H1909 0.950 . S
C1933 C1932 1.524 . S
C1933 C1934 1.415 . S
C1934 H1910 0.950 . S
C1934 C1929 1.363 . S
C1934 C1933 1.415 . S
C1935 H1911 0.951 . S
C1935 C1936 1.366 . S
C1935 C1937 1.388 . S
C1936 C1935 1.366 . S
C1936 C1940 1.385 . S
C1937 H1912 0.951 . S
C1937 C1935 1.388 . S
C1937 C1938 1.366 . S
C1938 C1937 1.366 . S
C1938 C1939 1.414 . S
C1938 C1941 1.499 . S
C1939 H1913 0.950 . S
C1939 C1938 1.414 . S
C1939 C1940 1.374 . S
C1940 H1914 0.950 . S
C1940 C1936 1.385 . S
C1940 C1939 1.374 . S
C1941 C1938 1.499 . S
C1941 C1942 1.373 1_554 S
C1941 C1943 1.389 . S
C1942 H1915 0.950 . S
C1942 C1928 1.377 . S
C1942 C1941 1.373 1_556 S
C1943 C1927 1.377 . S
C1943 C1941 1.389 . S
C1943 C1944 1.524 . S
C1944 C1943 1.524 . S
C1944 C1945 1.397 . S
C1944 C1949 1.363 . S
C1945 H1916 0.950 . S
C1945 C1944 1.397 . S
C1945 C1946 1.334 . S
C1946 H1917 0.950 . S
C1946 C1945 1.334 . S
C1946 C1947 1.287 . S
C1947 C1946 1.287 . S
C1947 C1948 1.524 . S
C1947 H1950 0.999 . S
C1948 H1918 0.950 . S
C1948 C1947 1.524 . S
C1948 C1949 1.415 . S
C1949 H1919 0.950 . S
C1949 C1944 1.363 . S
C1949 C1948 1.415 . S
H1950 C1947 0.999 . S
H1951 C1932 0.913 . S
H1952 C1970 0.951 . S
H1953 C1972 0.951 . S
H1954 C1974 0.977 . S
H1955 C1975 0.950 . S
H1956 C1977 0.950 . S
H1957 C1980 0.950 . S
H1958 C1981 0.950 . S
H1959 C1983 0.950 . S
H1960 C1984 0.950 . S
H1961 C1985 0.951 . S
H1962 C1987 0.951 . S
H1963 C1989 0.978 . S
H1964 C1990 0.950 . S
H1965 C1992 0.950 . S
H1966 C1995 0.962 . S
H1967 C1996 0.950 . S
H1968 C1998 0.950 . S
H1969 C1999 0.950 . S
C1970 H1952 0.951 . S
C1970 C1971 1.366 . S
C1970 C1972 1.388 . S
C1971 C1970 1.366 . S
C1971 C1975 1.385 . S
C1972 H1953 0.951 . S
C1972 C1970 1.388 . S
C1972 C1973 1.366 . S
C1973 C1972 1.366 . S
C1973 C1974 1.414 . S
C1973 C1976 1.499 . S
C1974 H1954 0.977 . S
C1974 C1973 1.414 . S
C1974 C1975 1.374 . S
C1975 H1955 0.950 . S
C1975 C1971 1.385 . S
C1975 C1974 1.374 . S
C1976 C1973 1.499 . S
C1976 C1977 1.373 1_556 S
C1976 C1978 1.389 1_565 S
C1977 H1956 0.950 . S
C1977 C1976 1.373 1_554 S
C1977 C1993 1.377 1_565 S
C1978 C1976 1.389 1_545 S
C1978 C1979 1.524 . S
C1978 C1992 1.377 . S
C1979 C1978 1.524 . S
C1979 C1980 1.397 . S
C1979 C1984 1.363 . S
C1980 H1957 0.950 . S
C1980 C1979 1.397 . S
C1980 C1981 1.334 . S
C1981 H1958 0.950 . S
C1981 C1980 1.334 . S
C1981 C1982 1.287 . S
C1982 C1981 1.287 . S
C1982 C1983 1.524 . S
C1982 H2001 0.913 . S
C1983 H1959 0.950 . S
C1983 C1982 1.524 . S
C1983 C1984 1.415 . S
C1984 H1960 0.950 . S
C1984 C1979 1.363 . S
C1984 C1983 1.415 . S
C1985 H1961 0.951 . S
C1985 C1986 1.366 . S
C1985 C1987 1.388 . S
C1986 C1985 1.366 . S
C1986 C1990 1.385 . S
C1987 H1962 0.951 . S
C1987 C1985 1.388 . S
C1987 C1988 1.366 . S
C1988 C1987 1.366 . S
C1988 C1989 1.414 . S
C1988 C1991 1.499 . S
C1989 H1963 0.978 . S
C1989 C1988 1.414 . S
C1989 C1990 1.374 . S
C1990 H1964 0.950 . S
C1990 C1986 1.385 . S
C1990 C1989 1.374 . S
C1991 C1988 1.499 . S
C1991 C1992 1.373 1_554 S
C1991 C1993 1.389 . S
C1992 H1965 0.950 . S
C1992 C1978 1.377 . S
C1992 C1991 1.373 1_556 S
C1993 C1977 1.377 1_545 S
C1993 C1991 1.389 . S
C1993 C1994 1.524 . S
C1994 C1993 1.524 . S
C1994 C1995 1.385 . S
C1994 C1999 1.363 . S
C1995 H1966 0.962 . S
C1995 C1994 1.385 . S
C1995 C1996 1.331 1_545 S
C1996 H1967 0.950 . S
C1996 C1995 1.331 1_565 S
C1996 C1997 1.287 . S
C1997 C1996 1.287 . S
C1997 C1998 1.524 1_565 S
C1997 H2000 0.999 . S
C1998 H1968 0.950 . S
C1998 C1997 1.524 1_545 S
C1998 C1999 1.415 . S
C1999 H1969 0.950 . S
C1999 C1994 1.363 . S
C1999 C1998 1.415 . S
H2000 C1997 0.999 . S
H2001 C1982 0.913 . S
H2002 C2020 0.951 . S
H2003 C2022 0.951 . S
H2004 C2024 0.950 . S
H2005 C2025 0.950 . S
H2006 C2027 0.950 . S
H2007 C2030 0.950 . S
H2008 C2031 0.950 . S
H2009 C2033 0.950 . S
H2010 C2034 0.950 1_556 S
H2011 C2035 0.951 . S
H2012 C2037 0.951 1_455 S
H2013 C2039 0.950 . S
H2014 C2040 0.950 . S
H2015 C2042 0.950 . S
H2016 C2045 0.950 1_655 S
H2017 C2046 0.950 1_655 S
H2018 C2048 0.950 . S
H2019 C2049 0.953 . S
C2020 H2002 0.951 . S
C2020 C2021 1.366 . S
C2020 C2022 1.388 . S
C2021 C2020 1.366 . S
C2021 C2025 1.385 . S
C2022 H2003 0.951 . S
C2022 C2020 1.388 . S
C2022 C2023 1.366 . S
C2023 C2022 1.366 . S
C2023 C2024 1.414 . S
C2023 C2026 1.499 . S
C2024 H2004 0.950 . S
C2024 C2023 1.414 . S
C2024 C2025 1.374 . S
C2025 H2005 0.950 . S
C2025 C2021 1.385 . S
C2025 C2024 1.374 . S
C2026 C2023 1.499 . S
C2026 C2027 1.373 . S
C2026 C2028 1.389 1_556 S
C2027 H2006 0.950 . S
C2027 C2026 1.373 . S
C2027 C2043 1.388 . S
C2028 C2026 1.389 1_554 S
C2028 C2029 1.524 . S
C2028 C2042 1.377 1_455 S
C2029 C2028 1.524 . S
C2029 C2030 1.397 . S
C2029 C2034 1.363 1_455 S
C2030 H2007 0.950 . S
C2030 C2029 1.397 . S
C2030 C2031 1.334 . S
C2031 H2008 0.950 . S
C2031 C2030 1.334 . S
C2031 C2032 1.287 1_455 S
C2032 C2031 1.287 1_655 S
C2032 C2033 1.524 . S
C2032 H2051 0.913 . S
C2033 H2009 0.950 . S
C2033 C2032 1.524 . S
C2033 C2034 1.415 . S
C2034 H2010 0.950 1_554 S
C2034 C2029 1.363 1_655 S
C2034 C2033 1.415 . S
C2035 H2011 0.951 . S
C2035 C2036 1.366 . S
C2035 C2037 1.388 . S
C2036 C2035 1.366 . S
C2036 C2040 1.385 . S
C2037 H2012 0.951 1_655 S
C2037 C2035 1.388 . S
C2037 C2038 1.366 . S
C2038 C2037 1.366 . S
C2038 C2039 1.414 . S
C2038 C2041 1.499 . S
C2039 H2013 0.950 . S
C2039 C2038 1.414 . S
C2039 C2040 1.374 . S
C2040 H2014 0.950 . S
C2040 C2036 1.385 . S
C2040 C2039 1.374 . S
C2041 C2038 1.499 . S
C2041 C2042 1.373 . S
C2041 C2043 1.376 1_654 S
C2042 H2015 0.950 . S
C2042 C2028 1.377 1_655 S
C2042 C2041 1.373 . S
C2043 C2027 1.388 . S
C2043 C2041 1.376 1_456 S
C2043 C2044 1.529 . S
C2044 C2043 1.529 . S
C2044 C2045 1.397 . S
C2044 C2049 1.361 1_556 S
C2045 H2016 0.950 1_455 S
C2045 C2044 1.397 . S
C2045 C2046 1.334 . S
C2046 H2017 0.950 1_455 S
C2046 C2045 1.334 . S
C2046 C2047 1.287 . S
C2047 C2046 1.287 . S
C2047 C2048 1.524 . S
C2047 H2050 0.999 . S
C2048 H2018 0.950 . S
C2048 C2047 1.524 . S
C2048 C2049 1.414 1_556 S
C2049 H2019 0.953 . S
C2049 C2044 1.361 1_554 S
C2049 C2048 1.414 1_554 S
H2050 C2047 0.999 . S
H2051 C2032 0.913 . S
C271 C9 1.117 . S
C286 C205 1.115 . S
C321 C168 0.967 . S
C336 C14 0.968 . S
C371 C28 1.066 1_565 S
C386 C191 1.065 . S
C421 C93 1.120 . S
C436 C37 1.120 . S
C471 C107 1.012 . S
C486 C0 1.012 1_655 S
C521 C121 1.074 . S
C536 C23 1.073 . S
C571 C47 1.020 . S
C586 C163 1.016 . S
C621 C137 0.928 . S
C636 C67 0.929 . S
C671 C151 0.903 . S
C686 C70 0.901 . S
C721 C79 1.043 . S
C736 C215 1.048 . S
C771 C53 0.876 . S
C786 C235 0.878 . S
C821 C238 0.964 . S
C836 C61 0.967 . S
C871 C177 1.105 . S
C886 C112 1.105 . S
C921 C84 0.984 . S
C936 C182 0.986 . S
C971 C196 1.004 . S
C986 C98 1.004 . S
C1021 C247 0.984 . S
C1036 C131 0.987 . S
C1071 C145 0.970 . S
C1086 C221 0.968 . S
C1121 C229 0.971 . S
C1136 C154 0.967 . S
C1171 C219 1.613 . S
C1186 C5 1.657 . S
C1221 C25 1.583 . S
C1236 C224 1.575 . S
C1271 C39 1.680 . S
C1286 C249 1.683 . S
C1321 C33 1.668 . S
C1336 C159 1.668 . S
C1371 C126 1.673 . S
C1386 C11 1.681 . S
C1421 C19 1.591 . S
C1436 C140 1.610 . S
C1471 C89 1.616 . S
C1486 C51 1.572 . S
C1521 C103 1.595 . S
C1536 C56 1.612 . S
C1571 C81 1.712 . S
C1586 C117 1.671 . S
C1621 C75 1.679 . S
C1636 C201 1.683 . S
C1671 C42 1.643 . S
C1686 C179 1.659 . S
C1721 C65 1.618 . S
C1736 C187 1.662 . S
C1771 C123 1.688 . S
C1786 C243 1.654 . S
C1821 C95 1.725 . S
C1836 C210 1.708 . S
C1871 C233 1.547 . S
C1886 C109 1.623 . S
C1921 C173 1.634 . S
C1936 C135 1.583 . S
C1971 C193 1.615 . S
C1986 C149 1.542 . S
C2021 C207 1.734 . S
C2036 C165 1.732 . S
