# Generated by pormake.
# Topology uob, (4)-cn, num edge types: 1
# Building blocks:
#     Node 0, Type 0, BuildingBlock: ICAMEG_clean_sbu_1, # of connection points: 4
#     Node 1, Type 0, BuildingBlock: ICAMEG_clean_sbu_1, # of connection points: 4
#     Node 2, Type 0, BuildingBlock: ICAMEG_clean_sbu_1, # of connection points: 4
#     Node 3, Type 0, BuildingBlock: ICAMEG_clean_sbu_1, # of connection points: 4
#     Node 4, Type 0, BuildingBlock: ICAMEG_clean_sbu_1, # of connection points: 4
#     Node 5, Type 0, BuildingBlock: ICAMEG_clean_sbu_1, # of connection points: 4
#     Node 6, Type 0, BuildingBlock: ICAMEG_clean_sbu_1, # of connection points: 4
#     Node 7, Type 0, BuildingBlock: ICAMEG_clean_sbu_1, # of connection points: 4
#     Node 8, Type 0, BuildingBlock: ICAMEG_clean_sbu_1, # of connection points: 4
#     Node 9, Type 0, BuildingBlock: ICAMEG_clean_sbu_1, # of connection points: 4
#     Node 10, Type 0, BuildingBlock: ICAMEG_clean_sbu_1, # of connection points: 4
#     Node 11, Type 0, BuildingBlock: ICAMEG_clean_sbu_1, # of connection points: 4
#     Node 12, Type 0, BuildingBlock: ICAMEG_clean_sbu_1, # of connection points: 4
#     Node 13, Type 0, BuildingBlock: ICAMEG_clean_sbu_1, # of connection points: 4
#     Node 14, Type 0, BuildingBlock: ICAMEG_clean_sbu_1, # of connection points: 4
#     Node 15, Type 0, BuildingBlock: ICAMEG_clean_sbu_1, # of connection points: 4
#     Edge 16, Type (0, 0), BuildingBlock: MIFKUJ_clean_linker_0, # of connection points: 2
#     Edge 17, Type (0, 0), BuildingBlock: MIFKUJ_clean_linker_0, # of connection points: 2
#     Edge 18, Type (0, 0), BuildingBlock: MIFKUJ_clean_linker_0, # of connection points: 2
#     Edge 19, Type (0, 0), BuildingBlock: MIFKUJ_clean_linker_0, # of connection points: 2
#     Edge 20, Type (0, 0), BuildingBlock: MIFKUJ_clean_linker_0, # of connection points: 2
#     Edge 21, Type (0, 0), BuildingBlock: MIFKUJ_clean_linker_0, # of connection points: 2
#     Edge 22, Type (0, 0), BuildingBlock: MIFKUJ_clean_linker_0, # of connection points: 2
#     Edge 23, Type (0, 0), BuildingBlock: MIFKUJ_clean_linker_0, # of connection points: 2
#     Edge 24, Type (0, 0), BuildingBlock: MIFKUJ_clean_linker_0, # of connection points: 2
#     Edge 25, Type (0, 0), BuildingBlock: MIFKUJ_clean_linker_0, # of connection points: 2
#     Edge 26, Type (0, 0), BuildingBlock: MIFKUJ_clean_linker_0, # of connection points: 2
#     Edge 27, Type (0, 0), BuildingBlock: MIFKUJ_clean_linker_0, # of connection points: 2
#     Edge 28, Type (0, 0), BuildingBlock: MIFKUJ_clean_linker_0, # of connection points: 2
#     Edge 29, Type (0, 0), BuildingBlock: MIFKUJ_clean_linker_0, # of connection points: 2
#     Edge 30, Type (0, 0), BuildingBlock: MIFKUJ_clean_linker_0, # of connection points: 2
#     Edge 31, Type (0, 0), BuildingBlock: MIFKUJ_clean_linker_0, # of connection points: 2
#     Edge 32, Type (0, 0), BuildingBlock: MIFKUJ_clean_linker_0, # of connection points: 2
#     Edge 33, Type (0, 0), BuildingBlock: MIFKUJ_clean_linker_0, # of connection points: 2
#     Edge 34, Type (0, 0), BuildingBlock: MIFKUJ_clean_linker_0, # of connection points: 2
#     Edge 35, Type (0, 0), BuildingBlock: MIFKUJ_clean_linker_0, # of connection points: 2
#     Edge 36, Type (0, 0), BuildingBlock: MIFKUJ_clean_linker_0, # of connection points: 2
#     Edge 37, Type (0, 0), BuildingBlock: MIFKUJ_clean_linker_0, # of connection points: 2
#     Edge 38, Type (0, 0), BuildingBlock: MIFKUJ_clean_linker_0, # of connection points: 2
#     Edge 39, Type (0, 0), BuildingBlock: MIFKUJ_clean_linker_0, # of connection points: 2
#     Edge 40, Type (0, 0), BuildingBlock: MIFKUJ_clean_linker_0, # of connection points: 2
#     Edge 41, Type (0, 0), BuildingBlock: MIFKUJ_clean_linker_0, # of connection points: 2
#     Edge 42, Type (0, 0), BuildingBlock: MIFKUJ_clean_linker_0, # of connection points: 2
#     Edge 43, Type (0, 0), BuildingBlock: MIFKUJ_clean_linker_0, # of connection points: 2
#     Edge 44, Type (0, 0), BuildingBlock: MIFKUJ_clean_linker_0, # of connection points: 2
#     Edge 45, Type (0, 0), BuildingBlock: MIFKUJ_clean_linker_0, # of connection points: 2
#     Edge 46, Type (0, 0), BuildingBlock: MIFKUJ_clean_linker_0, # of connection points: 2
#     Edge 47, Type (0, 0), BuildingBlock: MIFKUJ_clean_linker_0, # of connection points: 2
# Relax obj value: 0.109
# Max RMSD: 0.131
# Mean RMSD: 0.131
data_MOF--net-uob--node1-ICAMEG_clean_sbu_1--edge1-MIFKUJ_clean_linker_0
_symmetry_space_group_name_H-M    P1
_symmetry_Int_Tables_number       1
_symmetry_cell_setting            triclinic
loop_
_symmetry_equiv_pos_as_xyz
'x, y, z'
_cell_length_a     73.748307
_cell_length_b     73.768198
_cell_length_c     37.399287
_cell_angle_alpha  89.975852
_cell_angle_beta   89.97601
_cell_angle_gamma 89.996741
loop_
_atom_site_label
_atom_site_type_symbol
_atom_site_fract_x
_atom_site_fract_y
_atom_site_fract_z
_atom_type_partial_charge
Co0 Co 0.09977 0.06371 0.29233 0.0
Co1 Co 0.12216 0.02383 0.31329 0.0
O2 O 0.11884 0.04575 0.28434 0.0
C3 C 0.09321 0.05129 0.21827 0.0
O4 O 0.09773 0.03476 0.22771 0.0
C5 C 0.15576 0.04462 0.32395 0.0
O6 O 0.14543 0.05908 0.32529 0.0
O7 O 0.11809 0.03725 0.35894 0.0
O8 O 0.10461 0.06348 0.34428 0.0
H9 H 0.10597 0.97868 0.40872 0.0
H10 H 0.12803 0.07125 0.23803 0.0
O11 O 0.0941 0.06434 0.24039 0.0
H12 H 0.13374 0.12026 0.32696 0.0
H13 H 0.06429 0.12018 0.26368 0.0
H14 H 0.07039 0.0682 0.34578 0.0
H15 H 0.11035 0.09662 0.33382 0.0
H16 H 0.08843 0.09751 0.25467 0.0
O17 O 0.14875 0.02913 0.31786 0.0
H18 H 0.10183 0.00626 0.37228 0.0
H19 H 0.15019 0.99473 0.31494 0.0
H20 H 0.04614 0.09066 0.35597 0.0
H21 H 0.15143 0.0948 0.22981 0.0
H22 H 0.04298 0.11687 0.31474 0.0
H23 H 0.15444 0.11948 0.27458 0.0
O24 O 0.0812 0.04447 0.29842 0.0
H25 H 0.15039 0.01363 0.19271 0.0
H26 H 0.10771 0.98948 0.28238 0.0
H27 H 0.11224 0.97297 0.22574 0.0
H28 H 0.13374 0.98503 0.18045 0.0
H29 H 0.14532 0.02979 0.2496 0.0
H30 H 0.15495 0.96711 0.35096 0.0
H31 H 0.13269 0.9589 0.39814 0.0
O32 O 0.0957 0.0183 0.30991 0.0
C33 C 0.11129 0.05259 0.36709 0.0
C34 C 0.11573 0.98208 0.38816 0.0
C35 C 0.14323 0.9756 0.35577 0.0
N36 N 0.12567 0.00201 0.34135 0.0
C37 C 0.11342 0.99765 0.36738 0.0
C38 C 0.14048 0.99127 0.33552 0.0
C39 C 0.13074 0.971 0.38224 0.0
C40 C 0.12914 0.08207 0.2574 0.0
N41 N 0.11779 0.08261 0.28625 0.0
C42 C 0.14246 0.09531 0.2527 0.0
C43 C 0.14416 0.10914 0.27785 0.0
C44 C 0.13255 0.10959 0.30726 0.0
C45 C 0.11937 0.09613 0.31105 0.0
C46 C 0.06556 0.10885 0.2819 0.0
C47 C 0.06918 0.07965 0.32789 0.0
C48 C 0.07919 0.09595 0.27691 0.0
N49 N 0.08092 0.08165 0.29991 0.0
C50 C 0.05539 0.09229 0.33372 0.0
C51 C 0.05361 0.10698 0.31055 0.0
C52 C 0.08127 0.02749 0.3048 0.0
C53 C 0.14102 0.00821 0.21226 0.0
C54 C 0.11704 0.99484 0.26276 0.0
C55 C 0.11958 0.98541 0.23077 0.0
C56 C 0.13166 0.99218 0.20539 0.0
N57 N 0.12629 0.01054 0.26931 0.0
C58 C 0.13815 0.01726 0.24457 0.0
Co59 Co 0.93143 0.61266 0.53869 0.0
Co60 Co 0.973 0.6278 0.56908 0.0
O61 O 0.95074 0.63069 0.54127 0.0
C62 C 0.94171 0.61721 0.4633 0.0
O63 O 0.95869 0.6162 0.47368 0.0
C64 C 0.95625 0.661 0.59703 0.0
O65 O 0.94109 0.6517 0.59818 0.0
O66 O 0.95925 0.61971 0.61198 0.0
O67 O 0.9335 0.60749 0.59078 0.0
H68 H 0.01618 0.59574 0.65155 0.0
H69 H 0.92495 0.6495 0.50976 0.0
O70 O 0.92899 0.61714 0.48631 0.0
H71 H 0.87929 0.64125 0.60479 0.0
H72 H 0.87184 0.58807 0.49455 0.0
H73 H 0.92584 0.57579 0.56842 0.0
H74 H 0.90071 0.6167 0.58998 0.0
H75 H 0.89594 0.61104 0.50071 0.0
O76 O 0.97075 0.65353 0.58574 0.0
H77 H 0.98817 0.59921 0.61613 0.0
H78 H 0.00516 0.65138 0.5817 0.0
H79 H 0.90194 0.55253 0.56342 0.0
H80 H 0.90366 0.67436 0.52345 0.0
H81 H 0.87472 0.5586 0.5262 0.0
H82 H 0.88068 0.67034 0.57138 0.0
O83 O 0.94916 0.59312 0.52833 0.0
H84 H 0.98628 0.66841 0.4644 0.0
H85 H 0.00536 0.61369 0.53018 0.0
H86 H 0.02224 0.62303 0.4763 0.0
H87 H 0.01274 0.6506 0.44306 0.0
H88 H 0.96967 0.65847 0.51822 0.0
H89 H 0.03328 0.64856 0.61702 0.0
H90 H 0.03896 0.62054 0.65214 0.0
O91 O 0.97549 0.60202 0.55315 0.0
C92 C 0.94436 0.61121 0.61624 0.0
C93 C 0.01389 0.60798 0.63624 0.0
C94 C 0.02348 0.63764 0.6169 0.0
N95 N 0.99514 0.62539 0.59659 0.0
C96 C 0.99809 0.60999 0.61604 0.0
C97 C 0.00752 0.63917 0.59701 0.0
C98 C 0.02666 0.62191 0.63659 0.0
C99 C 0.91485 0.64759 0.53036 0.0
N100 N 0.91402 0.63166 0.54893 0.0
C101 C 0.90289 0.66174 0.53811 0.0
C102 C 0.89001 0.65947 0.56505 0.0
C103 C 0.88923 0.64316 0.58381 0.0
C104 C 0.90142 0.62933 0.57535 0.0
C105 C 0.88359 0.5853 0.511 0.0
C106 C 0.91393 0.57861 0.55253 0.0
C107 C 0.89729 0.59824 0.51454 0.0
N108 N 0.91218 0.59483 0.53525 0.0
C109 C 0.90048 0.56536 0.54967 0.0
C110 C 0.88522 0.56877 0.52876 0.0
C111 C 0.96568 0.59042 0.53679 0.0
C112 C 0.99058 0.6564 0.47871 0.0
C113 C 0.0011 0.62567 0.5158 0.0
C114 C 0.01074 0.63091 0.48535 0.0
C115 C 0.00541 0.64639 0.46673 0.0
N116 N 0.98659 0.63558 0.52742 0.0
C117 C 0.98127 0.65075 0.50928 0.0
Co118 Co 0.39113 0.43658 0.78016 0.0
Co119 Co 0.37624 0.4788 0.80743 0.0
O120 O 0.37307 0.45583 0.78231 0.0
C121 C 0.38614 0.44611 0.70461 0.0
O122 O 0.38753 0.46314 0.71437 0.0
C123 C 0.34518 0.46193 0.84377 0.0
O124 O 0.35522 0.4473 0.84614 0.0
O125 O 0.38655 0.46653 0.85036 0.0
O126 O 0.39653 0.43932 0.83181 0.0
H127 H 0.40994 0.52529 0.87968 0.0
H128 H 0.35415 0.42981 0.75215 0.0
O129 O 0.38636 0.43354 0.72793 0.0
H130 H 0.36255 0.3856 0.84971 0.0
H131 H 0.41514 0.37602 0.74014 0.0
H132 H 0.42818 0.4314 0.8093 0.0
H133 H 0.38717 0.40663 0.8332 0.0
H134 H 0.39246 0.40052 0.74437 0.0
O135 O 0.35129 0.47608 0.82829 0.0
H136 H 0.40618 0.49633 0.84756 0.0
H137 H 0.35194 0.51029 0.82115 0.0
H138 H 0.45119 0.40721 0.80599 0.0
H139 H 0.32925 0.40885 0.76748 0.0
H140 H 0.44473 0.37926 0.77121 0.0
H141 H 0.33335 0.38661 0.8167 0.0
O142 O 0.41072 0.45416 0.7689 0.0
H143 H 0.33108 0.48794 0.7085 0.0
H144 H 0.38747 0.51058 0.76342 0.0
H145 H 0.37532 0.52576 0.70977 0.0
H146 H 0.3469 0.51446 0.68199 0.0
H147 H 0.34381 0.47306 0.76199 0.0
H148 H 0.35505 0.53933 0.8533 0.0
H149 H 0.38425 0.54701 0.88272 0.0
O150 O 0.40122 0.48162 0.78725 0.0
C151 C 0.39431 0.45133 0.85585 0.0
C152 C 0.39717 0.52212 0.86687 0.0
C153 C 0.36636 0.52999 0.8521 0.0
N154 N 0.37891 0.50171 0.83227 0.0
C155 C 0.39498 0.50577 0.84855 0.0
C156 C 0.36466 0.51352 0.83401 0.0
C157 C 0.38274 0.53429 0.86859 0.0
C158 C 0.3561 0.42001 0.7733 0.0
N159 N 0.37212 0.41936 0.79159 0.0
C160 C 0.34193 0.40824 0.78198 0.0
C161 C 0.34423 0.39578 0.80963 0.0
C162 C 0.36062 0.3952 0.82816 0.0
C163 C 0.37449 0.40717 0.81873 0.0
C164 C 0.4181 0.3881 0.75547 0.0
C165 C 0.42521 0.41922 0.79436 0.0
C166 C 0.40531 0.40202 0.75794 0.0
N167 N 0.40892 0.41727 0.77741 0.0
C168 C 0.43832 0.40559 0.79247 0.0
C169 C 0.43469 0.38993 0.77292 0.0
C170 C 0.4131 0.47114 0.77343 0.0
C171 C 0.34345 0.49301 0.72041 0.0
C172 C 0.37514 0.50555 0.75141 0.0
C173 C 0.3683 0.51422 0.72108 0.0
C174 C 0.35234 0.50788 0.70552 0.0
N175 N 0.36632 0.491 0.76588 0.0
C176 C 0.35068 0.48468 0.75076 0.0
Co177 Co 0.57811 0.88102 0.05173 0.0
Co178 Co 0.53633 0.86435 0.07808 0.0
O179 O 0.55904 0.86271 0.05121 0.0
C180 C 0.56819 0.87888 0.97577 0.0
O181 O 0.55118 0.87942 0.98606 0.0
C182 C 0.55372 0.83123 0.10496 0.0
O183 O 0.56852 0.84099 0.10783 0.0
O184 O 0.5491 0.87222 0.12232 0.0
O185 O 0.57573 0.88386 0.10432 0.0
H186 H 0.49096 0.89309 0.1608 0.0
H187 H 0.58477 0.84547 0.01742 0.0
O188 O 0.58087 0.87874 -0.00115 0.0
H189 H 0.63084 0.85048 0.11244 0.0
H190 H 0.63767 0.90845 0.01405 0.0
H191 H 0.5829 0.9164 0.08808 0.0
H192 H 0.60909 0.8753 0.10179 0.0
H193 H 0.61382 0.88498 0.01496 0.0
O194 O 0.53922 0.83839 0.09296 0.0
H195 H 0.51955 0.89133 0.12672 0.0
H196 H 0.50478 0.83952 0.0868 0.0
H197 H 0.60644 0.94013 0.08811 0.0
H198 H 0.60635 0.82036 0.02694 0.0
H199 H 0.63406 0.93624 0.05088 0.0
H200 H 0.62955 0.82276 0.07483 0.0
O201 O 0.56014 0.90075 0.04433 0.0
H202 H 0.52601 0.82533 0.96987 0.0
H203 H 0.50415 0.87815 0.03824 0.0
H204 H 0.48841 0.86928 0.98275 0.0
H205 H 0.49932 0.84268 0.9482 0.0
H206 H 0.54145 0.83477 0.02533 0.0
H207 H 0.47608 0.84063 0.12069 0.0
H208 H 0.46899 0.8676 0.15789 0.0
O209 O 0.53324 0.89034 0.06419 0.0
C210 C 0.56417 0.88008 0.12849 0.0
C211 C 0.49385 0.8813 0.14454 0.0
C212 C 0.48552 0.85185 0.12207 0.0
N213 N 0.51371 0.86545 0.10446 0.0
C214 C 0.50998 0.88027 0.12507 0.0
C215 C 0.50179 0.85128 0.10299 0.0
C216 C 0.48154 0.86699 0.14294 0.0
C217 C 0.59494 0.84666 0.03811 0.0
N218 N 0.59571 0.86184 0.05898 0.0
C219 C 0.60707 0.83238 0.04346 0.0
C220 C 0.62007 0.83373 0.07036 0.0
C221 C 0.62079 0.84927 0.09149 0.0
C222 C 0.60842 0.86326 0.08541 0.0
C223 C 0.62572 0.91028 0.03045 0.0
C224 C 0.59495 0.91453 0.07202 0.0
C225 C 0.61217 0.89705 0.03104 0.0
N226 N 0.59707 0.89924 0.0518 0.0
C227 C 0.6082 0.92805 0.07206 0.0
C228 C 0.62369 0.92587 0.05113 0.0
C229 C 0.54333 0.90278 0.05124 0.0
C230 C 0.5211 0.83692 0.98475 0.0
C231 C 0.50901 0.86658 0.0233 0.0
C232 C 0.50002 0.8616 0.99194 0.0
C233 C 0.50614 0.84667 0.97258 0.0
N234 N 0.52365 0.85692 0.0351 0.0
C235 C 0.52974 0.84228 0.01624 0.0
Co236 Co 0.11217 0.43392 0.01941 0.0
Co237 Co 0.1297 0.47717 0.0094 0.0
O238 O 0.13054 0.4524 0.02808 0.0
C239 C 0.11251 0.43681 0.09786 0.0
O240 O 0.11321 0.45449 0.09402 0.0
C241 C 0.16273 0.46187 0.97777 0.0
O242 O 0.1526 0.44803 0.96853 0.0
O243 O 0.12232 0.46878 0.96083 0.0
O244 O 0.11095 0.44073 0.96814 0.0
H245 H 0.10309 0.52988 0.9423 0.0
H246 H 0.14707 0.42454 0.0539 0.0
O247 O 0.11287 0.42654 0.07059 0.0
H248 H 0.14395 0.38632 0.94593 0.0
H249 H 0.08337 0.37244 0.03409 0.0
H250 H 0.07774 0.43285 0.97867 0.0
H251 H 0.11869 0.40676 0.96166 0.0
H252 H 0.10708 0.39559 0.04308 0.0
O253 O 0.15589 0.47504 0.99525 0.0
H254 H 0.10384 0.49863 0.96579 0.0
H255 H 0.15517 0.50843 0.01335 0.0
H256 H 0.05378 0.41006 0.96875 0.0
H257 H 0.17259 0.40417 0.03942 0.0
H258 H 0.0565 0.37963 -0.00336 0.0
H259 H 0.17118 0.38498 0.98494 0.0
O260 O 0.09237 0.45134 0.03078 0.0
H261 H 0.16713 0.4768 0.12164 0.0
H262 H 0.11574 0.5055 0.0591 0.0
H263 H 0.12393 0.5158 0.11973 0.0
H264 H 0.14981 0.50143 0.15138 0.0
H265 H 0.15837 0.46681 0.06113 0.0
H266 H 0.15508 0.53975 0.99012 0.0
H267 H 0.12885 0.55067 0.95445 0.0
O268 O 0.10356 0.47948 0.02268 0.0
C269 C 0.11502 0.45435 0.94882 0.0
C270 C 0.11455 0.52531 0.95796 0.0
C271 C 0.14374 0.53084 0.98475 0.0
N272 N 0.12941 0.50181 0.9913 0.0
C273 C 0.11501 0.50766 0.97146 0.0
C274 C 0.14373 0.51309 -0.0022 0.0
C275 C 0.12902 0.53696 0.96475 0.0
C276 C 0.14631 0.41612 0.0303 0.0
N277 N 0.13147 0.41691 0.0085 0.0
C278 C 0.16081 0.40465 0.02219 0.0
C279 C 0.16002 0.3939 0.9916 0.0
C280 C 0.14476 0.39466 0.96968 0.0
C281 C 0.13053 0.40631 0.9786 0.0
C282 C 0.08205 0.38565 0.02175 0.0
C283 C 0.07909 0.41958 0.99064 0.0
C284 C 0.09541 0.39882 0.02679 0.0
N285 N 0.09386 0.41551 0.01118 0.0
C286 C 0.06545 0.40676 0.98504 0.0
C287 C 0.06698 0.38969 0.00072 0.0
C288 C 0.09072 0.46856 0.03043 0.0
C289 C 0.15585 0.4832 0.10809 0.0
C290 C 0.12699 0.49915 0.07275 0.0
C291 C 0.13158 0.50507 0.10704 0.0
C292 C 0.14612 0.497 0.12478 0.0
N293 N 0.13663 0.48563 0.05654 0.0
C294 C 0.15088 0.47765 0.07377 0.0
Co295 Co 0.56905 0.59791 0.29126 0.0
Co296 Co 0.52799 0.61872 0.27375 0.0
O297 O 0.55251 0.61855 0.29335 0.0
C298 C 0.56566 0.60577 0.368 0.0
O299 O 0.54812 0.60714 0.36265 0.0
C300 C 0.54641 0.64835 0.23589 0.0
O301 O 0.5595 0.6367 0.22976 0.0
O302 O 0.53637 0.60785 0.22792 0.0
O303 O 0.56213 0.59292 0.24081 0.0
H304 H 0.47395 0.59197 0.21135 0.0
H305 H 0.58258 0.6337 0.31555 0.0
O306 O 0.57624 0.60235 0.34197 0.0
H307 H 0.61885 0.61872 0.20876 0.0
H308 H 0.62781 0.56561 0.31634 0.0
H309 H 0.56707 0.56057 0.26217 0.0
H310 H 0.59564 0.59747 0.23113 0.0
H311 H 0.60664 0.59149 0.31766 0.0
O312 O 0.53248 0.64353 0.25369 0.0
H313 H 0.50487 0.59186 0.23635 0.0
H314 H 0.49894 0.64672 0.26881 0.0
H315 H 0.58785 0.53439 0.25999 0.0
H316 H 0.60573 0.65528 0.29424 0.0
H317 H 0.61847 0.53682 0.28722 0.0
H318 H 0.62402 0.64786 0.24041 0.0
O319 O 0.54982 0.58097 0.30782 0.0
H320 H 0.53044 0.6626 0.37633 0.0
H321 H 0.49786 0.6105 0.32443 0.0
H322 H 0.48763 0.62326 0.38197 0.0
H323 H 0.50396 0.64951 0.40827 0.0
H324 H 0.5403 0.64932 0.31901 0.0
H325 H 0.46798 0.64749 0.24381 0.0
H326 H 0.45527 0.61995 0.21498 0.0
O327 O 0.52327 0.59395 0.29308 0.0
C328 C 0.54957 0.59758 0.21929 0.0
C329 C 0.47931 0.60405 0.22394 0.0
C330 C 0.47597 0.63521 0.24213 0.0
N331 N 0.50363 0.61922 0.2543 0.0
C332 C 0.49679 0.60405 0.23826 0.0
C333 C 0.49352 0.63471 0.25616 0.0
C334 C 0.46885 0.61975 0.22596 0.0
C335 C 0.59061 0.63029 0.29232 0.0
N336 N 0.58784 0.6143 0.27475 0.0
C337 C 0.60365 0.6426 0.28029 0.0
C338 C 0.61388 0.63844 0.25005 0.0
C339 C 0.61098 0.62209 0.23228 0.0
C340 C 0.59781 0.61013 0.24504 0.0
C341 C 0.61452 0.56439 0.30431 0.0
C342 C 0.58042 0.56177 0.27385 0.0
C343 C 0.60247 0.57899 0.30502 0.0
N344 N 0.5857 0.57759 0.28971 0.0
C345 C 0.5921 0.54688 0.27264 0.0
C346 C 0.60928 0.54825 0.28796 0.0
C347 C 0.53257 0.58081 0.30558 0.0
C348 C 0.52318 0.65119 0.3651 0.0
C349 C 0.50505 0.6219 0.33575 0.0
C350 C 0.49918 0.62909 0.3683 0.0
C351 C 0.50834 0.64382 0.38303 0.0
N352 N 0.51961 0.62922 0.31832 0.0
C353 C 0.52866 0.64366 0.33258 0.0
Co354 Co 0.38531 0.07878 0.52371 0.0
Co355 Co 0.36778 0.03704 0.50023 0.0
O356 O 0.36574 0.06096 0.52249 0.0
C357 C 0.37632 0.07442 0.59953 0.0
O358 O 0.3752 0.05693 0.59341 0.0
C359 C 0.33665 0.05393 0.46425 0.0
O360 O 0.34686 0.06841 0.46088 0.0
O361 O 0.3781 0.04756 0.45567 0.0
O362 O 0.3926 0.07262 0.47414 0.0
H363 H 0.39869 0.98738 0.43133 0.0
H364 H 0.34814 0.09024 0.54353 0.0
O365 O 0.37892 0.08536 0.57376 0.0
H366 H 0.36462 0.12777 0.43929 0.0
H367 H 0.41281 0.13932 0.55392 0.0
H368 H 0.42389 0.07914 0.50083 0.0
H369 H 0.38631 0.10566 0.46406 0.0
H370 H 0.38834 0.11659 0.5511 0.0
O371 O 0.34281 0.03988 0.47992 0.0
H372 H 0.39631 0.01744 0.45983 0.0
H373 H 0.34239 0.00587 0.49249 0.0
H374 H 0.44862 0.10167 0.50234 0.0
H375 H 0.32605 0.11231 0.51975 0.0
H376 H 0.4432 0.13192 0.52925 0.0
H377 H 0.33423 0.1312 0.46717 0.0
O378 O 0.4026 0.06038 0.54224 0.0
H379 H 0.32326 0.03273 0.60162 0.0
H380 H 0.37844 0.00648 0.54803 0.0
H381 H 0.36634 0.99359 0.60404 0.0
H382 H 0.33854 0.00672 0.63116 0.0
H383 H 0.33594 0.04531 0.54581 0.0
H384 H 0.3441 0.97574 0.46405 0.0
H385 H 0.37244 0.9663 0.43334 0.0
O386 O 0.39288 0.03383 0.51959 0.0
C387 C 0.38867 0.06095 0.45034 0.0
C388 C 0.3863 0.9913 0.44479 0.0
C389 C 0.35565 0.98478 0.4631 0.0
N390 N 0.36933 0.01329 0.4782 0.0
C391 C 0.38491 0.00827 0.4611 0.0
C392 C 0.35476 0.00186 0.47912 0.0
C393 C 0.37156 0.97949 0.44588 0.0
C394 C 0.35185 0.09857 0.52088 0.0
N395 N 0.36851 0.09673 0.50532 0.0
C396 C 0.33927 0.11097 0.50744 0.0
C397 C 0.34385 0.12155 0.47789 0.0
C398 C 0.36089 0.11962 0.46221 0.0
C399 C 0.37311 0.10705 0.47633 0.0
C400 C 0.41535 0.12617 0.54209 0.0
C401 C 0.42136 0.09238 0.51219 0.0
C402 C 0.40155 0.11323 0.54048 0.0
N403 N 0.40462 0.09663 0.52543 0.0
C404 C 0.43545 0.10502 0.51318 0.0
C405 C 0.43239 0.12201 0.52826 0.0
C406 C 0.40448 0.04346 0.53636 0.0
C407 C 0.33536 0.02686 0.59 0.0
C408 C 0.36637 0.0123 0.55974 0.0
C409 C 0.35956 0.00492 0.5914 0.0
C410 C 0.34395 0.01228 0.60659 0.0
N411 N 0.35785 0.02658 0.54361 0.0
C412 C 0.34255 0.03388 0.55834 0.0
Co413 Co 0.93427 0.89342 0.78701 0.0
Co414 Co 0.97437 0.87841 0.74964 0.0
O415 O 0.95383 0.87578 0.7822 0.0
C416 C 0.94828 0.89079 0.86062 0.0
O417 O 0.96456 0.89365 0.84759 0.0
C418 C 0.95732 0.84409 0.72871 0.0
O419 O 0.9419 0.85293 0.73017 0.0
O420 O 0.95814 0.88481 0.70915 0.0
O421 O 0.93351 0.89744 0.73429 0.0
H422 H 0.01185 0.90918 0.65523 0.0
H423 H 0.93026 0.85707 0.82 0.0
O424 O 0.93462 0.88981 0.83994 0.0
H425 H 0.87981 0.86228 0.73408 0.0
H426 H 0.87657 0.91755 0.84087 0.0
H427 H 0.92607 0.92936 0.75528 0.0
H428 H 0.90122 0.88758 0.74255 0.0
H429 H 0.90093 0.8951 0.83195 0.0
O430 O 0.97211 0.85219 0.73622 0.0
H431 H 0.986 0.90598 0.69667 0.0
H432 H 0.00647 0.85539 0.73288 0.0
H433 H 0.90185 0.9521 0.76304 0.0
H434 H 0.90903 0.83148 0.81265 0.0
H435 H 0.8769 0.94627 0.80617 0.0
H436 H 0.88365 0.83397 0.76929 0.0
O437 O 0.95192 0.91364 0.792 0.0
H438 H 0.99438 0.84138 0.85529 0.0
H439 H 0.00814 0.89449 0.77989 0.0
H440 H 0.02805 0.88724 0.8309 0.0
H441 H 0.02123 0.86048 0.86896 0.0
H442 H 0.97472 0.84925 0.8042 0.0
H443 H 0.03246 0.85796 0.6916 0.0
H444 H 0.0353 0.88505 0.65253 0.0
O445 O 0.97684 0.90464 0.76215 0.0
C446 C 0.94294 0.89296 0.70711 0.0
C447 C 0.0108 0.89735 0.67222 0.0
C448 C 0.02235 0.86859 0.6926 0.0
N449 N 0.99484 0.88061 0.7174 0.0
C450 C 0.99623 0.89549 0.69581 0.0
C451 C 0.0076 0.86719 0.71586 0.0
C452 C 0.02394 0.88379 0.67069 0.0
C453 C 0.91912 0.85832 0.8014 0.0
N454 N 0.91695 0.87381 0.78185 0.0
C455 C 0.90719 0.84376 0.79722 0.0
C456 C 0.89297 0.84516 0.77285 0.0
C457 C 0.89081 0.86103 0.75307 0.0
C458 C 0.903 0.8753 0.75794 0.0
C459 C 0.88733 0.92022 0.82191 0.0
C460 C 0.91515 0.92665 0.77381 0.0
C461 C 0.90118 0.90757 0.81678 0.0
N462 N 0.91481 0.91085 0.79285 0.0
C463 C 0.90152 0.93961 0.7782 0.0
C464 C 0.88753 0.93633 0.80244 0.0
C465 C 0.96775 0.91648 0.77943 0.0
C466 C 0.99752 0.85304 0.83884 0.0
C467 C 0.00506 0.88286 0.79639 0.0
C468 C 0.0164 0.8788 0.82519 0.0
C469 C 0.01257 0.86378 0.84652 0.0
N470 N 0.99034 0.87224 0.78899 0.0
C471 C 0.98648 0.85752 0.8098 0.0
Co472 Co 0.60954 0.57739 0.79422 0.0
Co473 Co 0.62452 0.53397 0.81289 0.0
O474 O 0.62829 0.55875 0.79613 0.0
C475 C 0.62257 0.57443 0.72049 0.0
O476 O 0.62276 0.55684 0.72575 0.0
C477 C 0.65292 0.54876 0.85944 0.0
O478 O 0.64244 0.56303 0.86292 0.0
O479 O 0.61114 0.54249 0.85601 0.0
O480 O 0.60027 0.57006 0.84198 0.0
H481 H 0.58835 0.48162 0.86092 0.0
H482 H 0.64791 0.58742 0.78128 0.0
O483 O 0.61818 0.58502 0.74589 0.0
H484 H 0.62925 0.62267 0.88709 0.0
H485 H 0.58554 0.63971 0.76652 0.0
H486 H 0.57043 0.5789 0.81254 0.0
H487 H 0.60747 0.60263 0.85641 0.0
H488 H 0.60899 0.61593 0.7703 0.0
O489 O 0.64783 0.53542 0.84027 0.0
H490 H 0.59303 0.51291 0.83953 0.0
H491 H 0.64896 0.50218 0.82258 0.0
H492 H 0.5466 0.60231 0.80949 0.0
H493 H 0.67012 0.60734 0.8111 0.0
H494 H 0.5541 0.63297 0.78633 0.0
H495 H 0.66083 0.62509 0.86449 0.0
O496 O 0.59208 0.56044 0.77123 0.0
H497 H 0.6759 0.53375 0.72457 0.0
H498 H 0.61735 0.50599 0.75713 0.0
H499 H 0.6333 0.49565 0.70287 0.0
H500 H 0.66281 0.50955 0.68631 0.0
H501 H 0.65939 0.54382 0.77838 0.0
H502 H 0.64493 0.47081 0.8441 0.0
H503 H 0.61443 0.46033 0.86331 0.0
O504 O 0.60116 0.53231 0.78607 0.0
C505 C 0.6018 0.55659 0.86309 0.0
C506 C 0.6017 0.48601 0.85252 0.0
C507 C 0.63346 0.47995 0.84312 0.0
N508 N 0.62121 0.5093 0.82956 0.0
C509 C 0.60442 0.50369 0.84029 0.0
C510 C 0.63566 0.49773 0.83104 0.0
C511 C 0.61634 0.47408 0.85388 0.0
C512 C 0.64372 0.59526 0.80425 0.0
N513 N 0.6264 0.59396 0.81694 0.0
C514 C 0.65637 0.60646 0.82112 0.0
C515 C 0.65116 0.61638 0.85112 0.0
C516 C 0.63345 0.61502 0.86383 0.0
C517 C 0.62118 0.60365 0.84635 0.0
C518 C 0.58212 0.62642 0.77675 0.0
C519 C 0.57383 0.59226 0.8027 0.0
C520 C 0.59533 0.6129 0.77891 0.0
N521 N 0.59111 0.59611 0.79196 0.0
C522 C 0.56027 0.60544 0.80092 0.0
C523 C 0.56448 0.62263 0.78788 0.0
C524 C 0.59007 0.54326 0.77116 0.0
C525 C 0.66307 0.52756 0.73155 0.0
C526 C 0.63015 0.51214 0.75004 0.0
C527 C 0.63914 0.5062 0.71933 0.0
C528 C 0.65571 0.514 0.71007 0.0
N529 N 0.63746 0.52545 0.77097 0.0
C530 C 0.6537 0.53315 0.76208 0.0
Co531 Co 0.43817 0.10302 0.02381 0.0
Co532 Co 0.47817 0.1236 0.05013 0.0
O533 O 0.45565 0.12292 0.02224 0.0
C534 C 0.44619 0.10729 0.94659 0.0
O535 O 0.4631 0.11132 0.95405 0.0
C536 C 0.45816 0.15586 0.07333 0.0
O537 O 0.44394 0.14521 0.07502 0.0
O538 O 0.46552 0.11606 0.09477 0.0
O539 O 0.44094 0.10092 0.07619 0.0
H540 H 0.5244 0.10014 0.13731 0.0
H541 H 0.4281 0.13739 0.98801 0.0
O542 O 0.43474 0.10427 0.97124 0.0
H543 H 0.38351 0.12967 0.08513 0.0
H544 H 0.38058 0.07063 0.98978 0.0
H545 H 0.43651 0.06776 0.0618 0.0
H546 H 0.40726 0.10672 0.07493 0.0
H547 H 0.40268 0.09572 0.98823 0.0
O548 O 0.47335 0.14957 0.06279 0.0
H549 H 0.49615 0.09909 0.10206 0.0
H550 H 0.50789 0.15071 0.05742 0.0
H551 H 0.41451 0.04266 0.06495 0.0
H552 H 0.40446 0.16061 -0.00294 0.0
H553 H 0.3864 0.04389 0.02851 0.0
H554 H 0.382 0.15686 0.04602 0.0
O555 O 0.45777 0.08494 0.01664 0.0
H556 H 0.4872 0.16113 0.93941 0.0
H557 H 0.51153 0.11105 0.01245 0.0
H558 H 0.52729 0.11987 0.95691 0.0
H559 H 0.51514 0.1451 0.92002 0.0
H560 H 0.47177 0.15175 0.99496 0.0
H561 H 0.53619 0.15241 0.09243 0.0
H562 H 0.54464 0.12695 0.1326 0.0
O563 O 0.4832 0.09755 0.03882 0.0
C564 C 0.45141 0.10658 0.10071 0.0
C565 C 0.52092 0.11127 0.11976 0.0
C566 C 0.52752 0.14062 0.0946 0.0
N567 N 0.50052 0.1247 0.07735 0.0
C568 C 0.50498 0.11072 0.09962 0.0
C569 C 0.51147 0.13959 0.07488 0.0
C570 C 0.53225 0.12633 0.11714 0.0
C571 C 0.41824 0.13557 0.00911 0.0
N572 N 0.419 0.12068 0.03078 0.0
C573 C 0.40494 0.1488 0.01421 0.0
C574 C 0.39236 0.1467 0.04172 0.0
C575 C 0.39321 0.13146 0.06369 0.0
C576 C 0.40671 0.11852 0.05782 0.0
C577 C 0.3928 0.06992 0.00575 0.0
C578 C 0.42421 0.06851 0.04616 0.0
C579 C 0.40538 0.08406 0.00491 0.0
N580 N 0.4208 0.08328 0.02514 0.0
C581 C 0.41186 0.05419 0.04788 0.0
C582 C 0.39607 0.05492 0.02748 0.0
C583 C 0.47447 0.08425 0.02535 0.0
C584 C 0.49265 0.15015 0.95531 0.0
C585 C 0.50611 0.12199 -0.00355 0.0
C586 C 0.51513 0.12696 0.96509 0.0
C587 C 0.50831 0.14113 0.94442 0.0
N588 N 0.49078 0.13092 0.00697 0.0
C589 C 0.48402 0.14483 0.98686 0.0
Co590 Co 0.87786 0.91858 0.2827 0.0
Co591 Co 0.86362 0.96072 0.31213 0.0
O592 O 0.86202 0.9398 0.28026 0.0
C593 C 0.88518 0.933 0.21054 0.0
O594 O 0.88692 0.9491 0.22509 0.0
C595 C 0.8271 0.9461 0.32517 0.0
O596 O 0.83452 0.92995 0.32372 0.0
O597 O 0.86666 0.94498 0.35495 0.0
O598 O 0.87523 0.91747 0.33555 0.0
H599 H 0.89075 0.99813 0.41079 0.0
H600 H 0.84646 0.9185 0.23323 0.0
O601 O 0.881 0.91935 0.22966 0.0
H602 H 0.83603 0.86728 0.31549 0.0
H603 H 0.9023 0.85891 0.23865 0.0
H604 H 0.90778 0.90666 0.33027 0.0
H605 H 0.86347 0.8862 0.32106 0.0
H606 H 0.88182 0.88534 0.23804 0.0
O607 O 0.83673 0.96017 0.31972 0.0
H608 H 0.88857 0.97185 0.37029 0.0
H609 H 0.84156 0.99426 0.32179 0.0
H610 H 0.92836 0.88033 0.3322 0.0
H611 H 0.8189 0.89984 0.22651 0.0
H612 H 0.92573 0.85624 0.28607 0.0
H613 H 0.81353 0.87405 0.26792 0.0
O614 O 0.8999 0.93396 0.28857 0.0
H615 H 0.83434 0.98046 0.1973 0.0
H616 H 0.88297 0.99327 0.28412 0.0
H617 H 0.87982 0.0126 0.23066 0.0
H618 H 0.85533 0.00625 0.18683 0.0
H619 H 0.8381 0.96137 0.25101 0.0
H620 H 0.8431 0.0207 0.36208 0.0
H621 H 0.86788 0.02278 0.40687 0.0
O622 O 0.89042 0.96156 0.30592 0.0
C623 C 0.87122 0.92854 0.36045 0.0
C624 C 0.87992 0.9974 0.39132 0.0
C625 C 0.85316 0.01006 0.364 0.0
N626 N 0.86504 0.9816 0.3435 0.0
C627 C 0.87865 0.98259 0.36822 0.0
C628 C 0.85234 0.99504 0.34132 0.0
C629 C 0.86707 0.01122 0.38912 0.0
C630 C 0.84428 0.9072 0.25113 0.0
N631 N 0.85658 0.90339 0.27738 0.0
C632 C 0.82863 0.89672 0.24729 0.0
C633 C 0.82561 0.88227 0.27056 0.0
C634 C 0.83823 0.87847 0.29727 0.0
C635 C 0.85372 0.88925 0.30034 0.0
C636 C 0.90354 0.86928 0.25897 0.0
C637 C 0.9064 0.89613 0.31036 0.0
C638 C 0.892 0.88429 0.25873 0.0
N639 N 0.89349 0.89744 0.28431 0.0
C640 C 0.91815 0.88129 0.31149 0.0
C641 C 0.91668 0.86779 0.28558 0.0
C642 C 0.90291 0.95032 0.29788 0.0
C643 C 0.84504 0.98338 0.21624 0.0
C644 C 0.87234 0.99038 0.2651 0.0
C645 C 0.87058 0.0014 0.23493 0.0
C646 C 0.85683 0.99784 0.21036 0.0
N647 N 0.86069 0.97625 0.2707 0.0
C648 C 0.84719 0.97266 0.24674 0.0
Co649 Co 0.07689 0.39351 0.5224 0.0
Co650 Co 0.03745 0.3778 0.56129 0.0
O651 O 0.05868 0.37477 0.53058 0.0
C652 C 0.06487 0.38445 0.44956 0.0
O653 O 0.04813 0.38507 0.46143 0.0
C654 C 0.05633 0.34617 0.59113 0.0
O655 O 0.07117 0.35595 0.58934 0.0
O656 O 0.05243 0.38788 0.60076 0.0
O657 O 0.07613 0.401 0.57339 0.0
H658 H 0.99666 0.41092 0.64682 0.0
H659 H 0.08433 0.35585 0.49915 0.0
O660 O 0.07809 0.38675 0.47093 0.0
H661 H 0.1324 0.37039 0.58616 0.0
H662 H 0.13432 0.41851 0.46877 0.0
H663 H 0.08124 0.43187 0.54457 0.0
H664 H 0.10928 0.39316 0.57024 0.0
H665 H 0.11134 0.39497 0.48072 0.0
O666 O 0.04127 0.35279 0.58074 0.0
H667 H 0.02319 0.40728 0.6073 0.0
H668 H 0.00666 0.35371 0.58151 0.0
H669 H 0.10396 0.45576 0.53357 0.0
H670 H 0.10728 0.33271 0.51409 0.0
H671 H 0.13074 0.44915 0.49542 0.0
H672 H 0.13149 0.33992 0.55799 0.0
O673 O 0.05783 0.41168 0.51111 0.0
H674 H 0.02187 0.33332 0.46433 0.0
H675 H 0.00321 0.38946 0.52571 0.0
H676 H 0.98472 0.37775 0.47586 0.0
H677 H 0.99402 0.34946 0.44485 0.0
H678 H 0.04005 0.3456 0.5141 0.0
H679 H 0.97999 0.35672 0.62094 0.0
H680 H 0.97482 0.38551 0.65381 0.0
O681 O 0.03339 0.40287 0.54271 0.0
C682 C 0.06666 0.39768 0.60109 0.0
C683 C 0.99871 0.39833 0.6325 0.0
C684 C 0.98937 0.3679 0.61801 0.0
N685 N 0.01634 0.38038 0.5918 0.0
C686 C 0.01367 0.39622 0.60999 0.0
C687 C 0.0045 0.36627 0.59576 0.0
C688 C 0.98648 0.38407 0.63644 0.0
C689 C 0.09495 0.35913 0.51799 0.0
N690 N 0.09552 0.37585 0.53366 0.0
C691 C 0.10785 0.34596 0.52646 0.0
C692 C 0.12142 0.35 0.55114 0.0
C693 C 0.12193 0.36709 0.56697 0.0
C694 C 0.10878 0.37992 0.5579 0.0
C695 C 0.12274 0.42155 0.48552 0.0
C696 C 0.09292 0.42885 0.52814 0.0
C697 C 0.10967 0.40828 0.49233 0.0
N698 N 0.09506 0.412 0.5136 0.0
C699 C 0.10571 0.44245 0.52192 0.0
C700 C 0.12072 0.43873 0.50048 0.0
C701 C 0.04177 0.41418 0.52282 0.0
C702 C 0.01765 0.34563 0.4777 0.0
C703 C 0.00736 0.37717 0.51228 0.0
C704 C 0.99682 0.37059 0.48413 0.0
C705 C 0.00204 0.35471 0.46675 0.0
N706 N 0.02264 0.36817 0.5229 0.0
C707 C 0.02785 0.3526 0.50599 0.0
Co708 Co 0.6019 0.9361 0.54528 0.0
Co709 Co 0.62212 0.97724 0.52619 0.0
O710 O 0.62188 0.95333 0.54876 0.0
C711 C 0.60667 0.94024 0.62295 0.0
O712 O 0.60678 0.95785 0.61782 0.0
C713 C 0.6536 0.9586 0.4961 0.0
O714 O 0.64261 0.94477 0.49211 0.0
O715 O 0.61382 0.96719 0.47964 0.0
O716 O 0.59785 0.94232 0.49423 0.0
H717 H 0.59705 0.02835 0.45237 0.0
H718 H 0.63715 0.9236 0.57423 0.0
O719 O 0.60527 0.92948 0.59653 0.0
H720 H 0.62676 0.88669 0.46629 0.0
H721 H 0.5714 0.87613 0.56781 0.0
H722 H 0.56532 0.93639 0.51195 0.0
H723 H 0.60408 0.90925 0.48573 0.0
H724 H 0.59601 0.89863 0.57272 0.0
O725 O 0.64784 0.97316 0.51058 0.0
H726 H 0.59663 0.99817 0.48086 0.0
H727 H 0.64922 0.00714 0.52344 0.0
H728 H 0.54063 0.91405 0.50548 0.0
H729 H 0.66002 0.90101 0.55606 0.0
H730 H 0.54353 0.88375 0.53369 0.0
H731 H 0.65492 0.88245 0.50161 0.0
O732 O 0.58416 0.95505 0.55938 0.0
H733 H 0.66124 0.9794 0.63604 0.0
H734 H 0.61047 0.00827 0.57183 0.0
H735 H 0.62016 0.02054 0.63012 0.0
H736 H 0.64574 0.00608 0.66261 0.0
H737 H 0.651 0.96749 0.57779 0.0
H738 H 0.65032 0.03734 0.49512 0.0
H739 H 0.62406 0.04815 0.45943 0.0
O740 O 0.59628 0.98148 0.54062 0.0
C741 C 0.60348 0.95398 0.47177 0.0
C742 C 0.60854 0.02383 0.468 0.0
C743 C 0.63845 0.02886 0.49195 0.0
N744 N 0.62278 0.00102 0.50415 0.0
C745 C 0.60834 0.00679 0.48431 0.0
C746 C 0.63777 0.01175 0.50788 0.0
C747 C 0.62371 0.03492 0.47193 0.0
C748 C 0.63471 0.91538 0.55081 0.0
N749 N 0.61925 0.91766 0.5312 0.0
C750 C 0.64776 0.90269 0.54053 0.0
C751 C 0.6449 0.8923 0.50994 0.0
C752 C 0.62909 0.89468 0.49011 0.0
C753 C 0.61633 0.90749 0.5012 0.0
C754 C 0.56997 0.88931 0.55541 0.0
C755 C 0.56676 0.92316 0.52404 0.0
C756 C 0.58382 0.90214 0.55822 0.0
N757 N 0.58218 0.91875 0.54234 0.0
C758 C 0.55269 0.91062 0.52046 0.0
C759 C 0.55434 0.89359 0.53627 0.0
C760 C 0.58337 0.97213 0.55408 0.0
C761 C 0.65011 0.98584 0.62209 0.0
C762 C 0.62158 0.00188 0.58585 0.0
C763 C 0.62703 0.00891 0.61881 0.0
C764 C 0.64139 0.0008 0.63701 0.0
N765 N 0.63023 0.98723 0.57138 0.0
C766 C 0.64431 0.9792 0.58905 0.0
Co767 Co 0.08107 0.11654 0.79622 0.0
Co768 Co 0.0422 0.13074 0.75276 0.0
O769 O 0.06122 0.13365 0.78867 0.0
C770 C 0.06302 0.11739 0.86612 0.0
O771 O 0.04756 0.11631 0.84886 0.0
C772 C 0.05955 0.16537 0.73447 0.0
O773 O 0.07504 0.1569 0.73877 0.0
O774 O 0.06016 0.12442 0.71512 0.0
O775 O 0.08465 0.11368 0.74385 0.0
H776 H 0.00941 0.09937 0.65262 0.0
H777 H 0.08183 0.15215 0.83274 0.0
O778 O 0.07786 0.11868 0.84894 0.0
H779 H 0.13678 0.15081 0.75759 0.0
H780 H 0.13705 0.09341 0.85824 0.0
H781 H 0.09196 0.08151 0.76379 0.0
H782 H 0.11601 0.12461 0.75924 0.0
H783 H 0.11221 0.11507 0.84693 0.0
O784 O 0.04467 0.15696 0.73952 0.0
H785 H 0.03331 0.10298 0.69819 0.0
H786 H 0.01059 0.15327 0.73057 0.0
H787 H 0.11667 0.05958 0.77395 0.0
H788 H 0.1023 0.17861 0.83211 0.0
H789 H 0.13943 0.06547 0.8215 0.0
H790 H 0.12997 0.17805 0.79422 0.0
O791 O 0.06403 0.09563 0.79628 0.0
H792 H 0.01715 0.16775 0.85417 0.0
H793 H 0.00748 0.11423 0.77752 0.0
H794 H 0.98534 0.12131 0.82494 0.0
H795 H 0.99009 0.14827 0.86361 0.0
H796 H 0.03906 0.16005 0.80666 0.0
H797 H 0.98652 0.15029 0.68515 0.0
H798 H 0.98579 0.12314 0.6459 0.0
O799 O 0.03953 0.10453 0.76504 0.0
C800 C 0.07593 0.11735 0.71538 0.0
C801 C 0.00954 0.11122 0.66966 0.0
C802 C 0.99671 0.13981 0.68788 0.0
N803 N 0.02322 0.12822 0.71724 0.0
C804 C 0.023 0.11331 0.69558 0.0
C805 C 0.01038 0.14144 0.71351 0.0
C806 C 0.9963 0.12458 0.66588 0.0
C807 C 0.09394 0.15175 0.81647 0.0
N808 N 0.09777 0.13684 0.79619 0.0
C809 C 0.10544 0.16679 0.8161 0.0
C810 C 0.12094 0.16648 0.7948 0.0
C811 C 0.12477 0.15121 0.77422 0.0
C812 C 0.11294 0.13643 0.77522 0.0
C813 C 0.12725 0.09072 0.83737 0.0
C814 C 0.10191 0.08424 0.78431 0.0
C815 C 0.11315 0.10292 0.83087 0.0
N816 N 0.10078 0.09965 0.80445 0.0
C817 C 0.11583 0.07174 0.79004 0.0
C818 C 0.12858 0.07505 0.81674 0.0
C819 C 0.04854 0.09264 0.78233 0.0
C820 C 0.01491 0.156 0.83742 0.0
C821 C 0.00967 0.12596 0.79431 0.0
C822 C 0.99707 0.12992 0.82106 0.0
C823 C 0.99974 0.14505 0.84274 0.0
N824 N 0.0245 0.13678 0.78923 0.0
C825 C 0.02723 0.15162 0.8104 0.0
Co826 Co 0.88665 0.56825 0.04582 0.0
Co827 Co 0.86933 0.52832 0.01184 0.0
O828 O 0.86802 0.54954 0.04311 0.0
C829 C 0.88417 0.55624 0.121 0.0
O830 O 0.88546 0.53942 0.10982 0.0
C831 C 0.83561 0.5467 0.9913 0.0
O832 O 0.84512 0.56173 0.99136 0.0
O833 O 0.87621 0.54344 0.96996 0.0
O834 O 0.89018 0.56779 0.99308 0.0
H835 H 0.89702 0.48789 0.91852 0.0
H836 H 0.85089 0.57463 0.07967 0.0
O837 O 0.88369 0.56925 0.09869 0.0
H838 H 0.85788 0.62348 0.99066 0.0
H839 H 0.91465 0.62546 0.09419 0.0
H840 H 0.9227 0.5737 0.01227 0.0
H841 H 0.88209 0.60084 -0.00063 0.0
H842 H 0.89064 0.60241 0.08778 0.0
O843 O 0.84314 0.53168 -0.00076 0.0
H844 H 0.89562 0.51449 0.95838 0.0
H845 H 0.8446 0.49712 -0.0016 0.0
H846 H 0.94694 0.59659 0.01752 0.0
H847 H 0.82639 0.59708 0.07202 0.0
H848 H 0.94303 0.62264 0.05885 0.0
H849 H 0.82978 0.62168 0.02715 0.0
O850 O 0.90589 0.54965 0.05157 0.0
H851 H 0.83221 0.51208 0.11988 0.0
H852 H 0.88394 0.49432 0.04399 0.0
H853 H 0.87604 0.47566 0.09647 0.0
H854 H 0.84997 0.48449 0.13478 0.0
H855 H 0.84069 0.53045 0.06733 0.0
H856 H 0.84536 0.4704 0.95876 0.0
H857 H 0.87175 0.46562 0.91856 0.0
O858 O 0.89558 0.52472 0.02346 0.0
C859 C 0.88514 0.55814 0.96666 0.0
C860 C 0.88548 0.48978 0.93603 0.0
C861 C 0.85648 0.47998 0.95858 0.0
N862 N 0.87015 0.50723 0.98098 0.0
C863 C 0.88465 0.50477 0.95876 0.0
C864 C 0.85611 0.49514 0.98093 0.0
C865 C 0.87129 0.4773 0.93604 0.0
C866 C 0.85253 0.58541 0.06035 0.0
N867 N 0.86792 0.58646 0.04009 0.0
C868 C 0.83859 0.59803 0.05603 0.0
C869 C 0.84049 0.61182 0.03081 0.0
C870 C 0.85624 0.61283 0.01031 0.0
C871 C 0.86989 0.59995 0.01531 0.0
C872 C 0.91648 0.6142 0.076 0.0
C873 C 0.9208 0.58512 0.02999 0.0
C874 C 0.90295 0.60109 0.07229 0.0
N875 N 0.90519 0.58682 0.0494 0.0
C876 C 0.93462 0.59799 0.03298 0.0
C877 C 0.93241 0.6126 0.05617 0.0
C878 C 0.90791 0.53354 0.0399 0.0
C879 C 0.84356 0.50807 0.10334 0.0
C880 C 0.87262 0.49829 0.0606 0.0
C881 C 0.86818 0.48764 0.09023 0.0
C882 C 0.85355 0.4926 0.11171 0.0
N883 N 0.86272 0.51341 0.05252 0.0
C884 C 0.84838 0.51838 0.07348 0.0
Co885 Co 0.41925 0.38172 0.28234 0.0
Co886 Co 0.4614 0.36837 0.25136 0.0
O887 O 0.43996 0.36521 0.2814 0.0
C888 C 0.43305 0.38356 0.35596 0.0
O889 O 0.44935 0.38516 0.34227 0.0
C890 C 0.44566 0.33371 0.22786 0.0
O891 O 0.42982 0.34175 0.22961 0.0
O892 O 0.44643 0.37514 0.20918 0.0
O893 O 0.41881 0.38301 0.22927 0.0
H894 H 0.50092 0.40078 0.16251 0.0
H895 H 0.41755 0.3472 0.32275 0.0
O896 O 0.41937 0.38113 0.33576 0.0
H897 H 0.36751 0.34407 0.23554 0.0
H898 H 0.35906 0.40392 0.32834 0.0
H899 H 0.40909 0.41538 0.24378 0.0
H900 H 0.38713 0.37111 0.23864 0.0
H901 H 0.38525 0.38317 0.32536 0.0
O902 O 0.46 0.34233 0.23636 0.0
H903 H 0.47418 0.39683 0.20134 0.0
H904 H 0.49429 0.34599 0.23703 0.0
H905 H 0.38309 0.4364 0.24565 0.0
H906 H 0.39815 0.31996 0.32077 0.0
H907 H 0.35784 0.43072 0.28817 0.0
H908 H 0.37297 0.31826 0.27683 0.0
O909 O 0.43536 0.4034 0.28348 0.0
H910 H 0.47827 0.33038 0.35778 0.0
H911 H 0.49432 0.38404 0.28579 0.0
H912 H 0.51269 0.37632 0.33874 0.0
H913 H 0.50472 0.34928 0.3751 0.0
H914 H 0.46016 0.33872 0.30481 0.0
H915 H 0.52121 0.34933 0.19837 0.0
H916 H 0.52467 0.37691 0.16083 0.0
O917 O 0.46307 0.3944 0.26548 0.0
C918 C 0.43022 0.3806 0.20415 0.0
C919 C 0.4996 0.38873 0.17883 0.0
C920 C 0.51098 0.35984 0.19893 0.0
N921 N 0.48277 0.37128 0.22166 0.0
C922 C 0.48452 0.38645 0.20097 0.0
C923 C 0.4957 0.35802 0.22072 0.0
C924 C 0.51291 0.37532 0.17788 0.0
C925 C 0.4065 0.34662 0.3038 0.0
N926 N 0.40341 0.36075 0.28097 0.0
C927 C 0.39561 0.33114 0.3027 0.0
C928 C 0.3815 0.33019 0.27801 0.0
C929 C 0.37843 0.34466 0.25482 0.0
C930 C 0.38961 0.35991 0.25665 0.0
C931 C 0.36995 0.4065 0.3096 0.0
C932 C 0.39807 0.41273 0.26211 0.0
C933 C 0.38481 0.39481 0.30781 0.0
N934 N 0.39856 0.39793 0.28407 0.0
C935 C 0.38342 0.42472 0.26316 0.0
C936 C 0.36927 0.42154 0.28705 0.0
C937 C 0.45202 0.40649 0.2765 0.0
C938 C 0.4819 0.34217 0.34212 0.0
C939 C 0.49072 0.37232 0.30159 0.0
C940 C 0.5012 0.36798 0.33147 0.0
C941 C 0.49673 0.3528 0.35185 0.0
N942 N 0.47621 0.36183 0.29221 0.0
C943 C 0.47173 0.34693 0.31204 0.0
H944 H 0.31455 0.02464 0.45471 0.0
H945 H 0.28432 0.02414 0.42797 0.0
H946 H 0.28663 0.08204 0.41265 0.0
H947 H 0.31697 0.08269 0.43929 0.0
H948 H 0.25361 0.06959 0.442 0.0
H949 H 0.29312 0.0563 0.34312 0.0
H950 H 0.31762 0.03983 0.31218 0.0
H951 H 0.28777 0.9901 0.32208 0.0
H952 H 0.2632 0.00624 0.35359 0.0
H953 H 0.17568 0.07551 0.33296 0.0
H954 H 0.20698 0.07793 0.35377 0.0
H955 H 0.2109 0.0196 0.3579 0.0
H956 H 0.17976 0.01705 0.33629 0.0
H957 H 0.24132 0.03337 0.33285 0.0
H958 H 0.20268 0.04521 0.43319 0.0
H959 H 0.1785 0.06034 0.46763 0.0
H960 H 0.20652 0.11114 0.45839 0.0
H961 H 0.23073 0.09638 0.42336 0.0
C962 C 0.30863 0.03729 0.44575 0.0
C963 C 0.31818 0.05371 0.44898 0.0
C964 C 0.29139 0.03695 0.43035 0.0
C965 C 0.28335 0.05303 0.41806 0.0
C966 C 0.29266 0.06949 0.42189 0.0
C967 C 0.31 0.06982 0.437 0.0
C968 C 0.26519 0.05258 0.40122 0.0
C969 C 0.25094 0.06193 0.4178 0.0
C970 C 0.26171 0.04216 0.37024 0.0
C971 C 0.27639 0.03245 0.351 0.0
C972 C 0.29184 0.04183 0.33895 0.0
C973 C 0.30573 0.03255 0.32127 0.0
C974 C 0.30427 0.01392 0.31524 0.0
C975 C 0.28889 0.00453 0.3268 0.0
C976 C 0.27497 0.01374 0.34454 0.0
C977 C 0.18325 0.06319 0.33799 0.0
C978 C 0.17519 0.04609 0.33324 0.0
C979 C 0.20112 0.0646 0.35005 0.0
C980 C 0.21117 0.04895 0.35807 0.0
C981 C 0.20338 0.03186 0.35202 0.0
C982 C 0.18556 0.03043 0.33968 0.0
C983 C 0.22962 0.05036 0.37367 0.0
C984 C 0.24396 0.04115 0.35691 0.0
C985 C 0.23314 0.06075 0.40477 0.0
C986 C 0.21844 0.06971 0.42535 0.0
C987 C 0.2036 0.05964 0.43818 0.0
C988 C 0.1899 0.06814 0.45787 0.0
C989 C 0.19099 0.08668 0.4652 0.0
C990 C 0.20571 0.09678 0.45269 0.0
C991 C 0.21942 0.08835 0.43292 0.0
H992 H 0.18048 0.09321 0.48073 0.0
H993 H 0.31504 0.00676 0.30156 0.0
H994 H 0.98688 0.82307 0.7133 0.0
H995 H 0.98704 0.792 0.69046 0.0
H996 H 0.92859 0.79073 0.69529 0.0
H997 H 0.92829 0.82186 0.71741 0.0
H998 H 0.97554 0.76044 0.71675 0.0
H999 H 0.912 0.76616 0.62628 0.0
H1000 H 0.89552 0.7895 0.59198 0.0
H1001 H 0.9445 0.8205 0.58128 0.0
H1002 H 0.96133 0.79723 0.61503 0.0
H1003 H 0.92741 0.68193 0.61694 0.0
H1004 H 0.92801 0.71305 0.63937 0.0
H1005 H 0.98617 0.71429 0.62735 0.0
H1006 H 0.98574 0.68312 0.60514 0.0
H1007 H 0.9399 0.74466 0.60861 0.0
H1008 H 0.00372 0.73902 0.69709 0.0
H1009 H 0.02063 0.71579 0.7309 0.0
H1010 H 0.97179 0.68485 0.7444 0.0
H1011 H 0.95455 0.70801 0.71115 0.0
C1012 C 0.97406 0.81616 0.7096 0.0
C1013 C 0.95756 0.82498 0.71685 0.0
C1014 C 0.97418 0.7984 0.6966 0.0
C1015 C 0.95782 0.78915 0.69063 0.0
C1016 C 0.94137 0.79774 0.69897 0.0
C1017 C 0.94122 0.81552 0.71174 0.0
C1018 C 0.95794 0.77059 0.67536 0.0
C1019 C 0.96795 0.75705 0.69282 0.0
C1020 C 0.94779 0.7661 0.64447 0.0
C1021 C 0.93787 0.78002 0.62351 0.0
C1022 C 0.91927 0.77792 0.61646 0.0
C1023 C 0.90987 0.79114 0.59713 0.0
C1024 C 0.91894 0.8065 0.58456 0.0
C1025 C 0.93747 0.80863 0.59114 0.0
C1026 C 0.94694 0.79543 0.6104 0.0
C1027 C 0.94034 0.68881 0.61907 0.0
C1028 C 0.95654 0.68001 0.60949 0.0
C1029 C 0.94064 0.70661 0.63175 0.0
C1030 C 0.95714 0.71589 0.63536 0.0
C1031 C 0.97331 0.70727 0.62521 0.0
C1032 C 0.97303 0.68949 0.6124 0.0
C1033 C 0.95743 0.73453 0.65009 0.0
C1034 C 0.94751 0.74808 0.6325 0.0
C1035 C 0.96774 0.73905 0.68073 0.0
C1036 C 0.9779 0.72516 0.70129 0.0
C1037 C 0.99658 0.72729 0.7074 0.0
C1038 C 0.00623 0.71414 0.72645 0.0
C1039 C 0.9973 0.69883 0.73968 0.0
C1040 C 0.9787 0.69668 0.73402 0.0
C1041 C 0.96899 0.70981 0.71503 0.0
H1042 H 0.00479 0.68865 0.75438 0.0
H1043 H 0.91163 0.81674 0.56966 0.0
H1044 H 0.31643 0.48335 0.82592 0.0
H1045 H 0.28619 0.4833 0.85269 0.0
H1046 H 0.30299 0.44146 0.92641 0.0
H1047 H 0.33289 0.44078 0.89829 0.0
H1048 H 0.27159 0.4337 0.90638 0.0
H1049 H 0.29763 0.48784 0.95111 0.0
H1050 H 0.31355 0.51721 0.94898 0.0
H1051 H 0.27062 0.53966 0.88535 0.0
H1052 H 0.25455 0.51034 0.88665 0.0
H1053 H 0.19067 0.48003 0.00968 0.0
H1054 H 0.22268 0.47986 0.99194 0.0
H1055 H 0.20958 0.4456 0.90198 0.0
H1056 H 0.17794 0.44491 0.92078 0.0
H1057 H 0.24066 0.49113 0.93874 0.0
H1058 H 0.24288 0.41788 0.8799 0.0
H1059 H 0.22825 0.38832 0.89077 0.0
H1060 H 0.21775 0.4034 -0.0003 0.0
H1061 H 0.2326 0.43292 0.98969 0.0
C1062 C 0.31363 0.47416 0.84784 0.0
C1063 C 0.32697 0.46209 0.86007 0.0
C1064 C 0.29638 0.47422 0.86333 0.0
C1065 C 0.29234 0.46262 0.8921 0.0
C1066 C 0.30571 0.45054 0.90427 0.0
C1067 C 0.32281 0.45018 0.88822 0.0
C1068 C 0.27404 0.4628 0.90892 0.0
C1069 C 0.26489 0.44627 0.91359 0.0
C1070 C 0.26541 0.47912 0.91943 0.0
C1071 C 0.27495 0.49683 0.91875 0.0
C1072 C 0.29163 0.499 0.93647 0.0
C1073 C 0.30068 0.51565 0.93543 0.0
C1074 C 0.29312 0.53028 0.91698 0.0
C1075 C 0.27646 0.52831 0.89961 0.0
C1076 C 0.26737 0.51168 0.90052 0.0
C1077 C 0.19471 0.4724 0.98625 0.0
C1078 C 0.18192 0.4623 0.96684 0.0
C1079 C 0.21297 0.47235 0.97606 0.0
C1080 C 0.21866 0.46242 0.946 0.0
C1081 C 0.2057 0.45288 0.92592 0.0
C1082 C 0.18758 0.45257 0.93658 0.0
C1083 C 0.23809 0.46208 0.93533 0.0
C1084 C 0.24744 0.47856 0.93182 0.0
C1085 C 0.2472 0.44566 0.92736 0.0
C1086 C 0.23874 0.42768 0.93392 0.0
C1087 C 0.23758 0.41484 0.90625 0.0
C1088 C 0.22922 0.3981 0.91225 0.0
C1089 C 0.22203 0.394 0.94587 0.0
C1090 C 0.22328 0.4066 0.97364 0.0
C1091 C 0.23167 0.42334 0.96781 0.0
H1092 H 0.21552 0.38106 0.95043 0.0
H1093 H 0.30015 0.54315 0.91619 0.0
H1094 H 0.58123 0.81273 0.13751 0.0
H1095 H 0.58102 0.78131 0.15831 0.0
H1096 H 0.52624 0.775 0.11997 0.0
H1097 H 0.52629 0.80643 0.09905 0.0
H1098 H 0.55881 0.76503 0.20788 0.0
H1099 H 0.52214 0.73117 0.08879 0.0
H1100 H 0.51839 0.73561 0.02382 0.0
H1101 H 0.56976 0.7629 0.01888 0.0
H1102 H 0.57393 0.75839 0.08369 0.0
H1103 H 0.525 0.67745 0.25224 0.0
H1104 H 0.5274 0.70833 0.22874 0.0
H1105 H 0.57307 0.69231 0.16401 0.0
H1106 H 0.57089 0.66143 0.18753 0.0
H1107 H 0.54718 0.71309 0.12672 0.0
H1108 H 0.58159 0.71491 0.23565 0.0
H1109 H 0.58663 0.71023 0.30016 0.0
H1110 H 0.543 0.74678 0.32436 0.0
H1111 H 0.53751 0.75146 0.25993 0.0
C1112 C 0.56914 0.80466 0.13338 0.0
C1113 C 0.55377 0.81208 0.11664 0.0
C1114 C 0.56904 0.78674 0.1454 0.0
C1115 C 0.55365 0.77584 0.14054 0.0
C1116 C 0.53831 0.78316 0.12368 0.0
C1117 C 0.53835 0.80112 0.11183 0.0
C1118 C 0.55358 0.75688 0.15354 0.0
C1119 C 0.55626 0.75368 0.19014 0.0
C1120 C 0.55047 0.74208 0.13028 0.0
C1121 C 0.54825 0.74459 0.09117 0.0
C1122 C 0.53267 0.73805 0.07381 0.0
C1123 C 0.53046 0.74059 0.03701 0.0
C1124 C 0.5438 0.74958 0.01726 0.0
C1125 C 0.55941 0.756 0.03423 0.0
C1126 C 0.56168 0.75347 0.07101 0.0
C1127 C 0.53555 0.68049 0.23299 0.0
C1128 C 0.54778 0.66702 0.22179 0.0
C1129 C 0.53691 0.69813 0.21965 0.0
C1130 C 0.55044 0.70256 0.19475 0.0
C1131 C 0.56252 0.68911 0.18317 0.0
C1132 C 0.5613 0.67151 0.19677 0.0
C1133 C 0.55211 0.72131 0.1811 0.0
C1134 C 0.5497 0.72447 0.14442 0.0
C1135 C 0.55566 0.73606 0.20421 0.0
C1136 C 0.55903 0.7334 0.24296 0.0
C1137 C 0.57298 0.72184 0.25472 0.0
C1138 C 0.57593 0.7192 0.29128 0.0
C1139 C 0.56512 0.72817 0.31635 0.0
C1140 C 0.55136 0.73983 0.3049 0.0
C1141 C 0.54832 0.74249 0.26837 0.0
H1142 H 0.56743 0.72611 0.34463 0.0
H1143 H 0.54206 0.75155 0.98879 0.0
H1144 H 0.67056 0.57692 0.89165 0.0
H1145 H 0.701 0.57676 0.91756 0.0
H1146 H 0.70658 0.52007 0.89167 0.0
H1147 H 0.67614 0.52006 0.86567 0.0
H1148 H 0.71891 0.52897 0.96082 0.0
H1149 H 0.72571 0.54973 0.83906 0.0
H1150 H 0.71865 0.56955 0.78782 0.0
H1151 H 0.73555 0.61612 0.84808 0.0
H1152 H 0.74244 0.59658 0.89991 0.0
H1153 H 0.81387 0.51802 0.97425 0.0
H1154 H 0.78225 0.51887 0.95511 0.0
H1155 H 0.78185 0.57708 0.96681 0.0
H1156 H 0.8137 0.57637 0.98493 0.0
H1157 H 0.76621 0.56827 0.9069 0.0
H1158 H 0.76054 0.54829 0.02789 0.0
H1159 H 0.76685 0.52922 0.08059 0.0
H1160 H 0.74725 0.48236 0.02458 0.0
H1161 H 0.74106 0.50111 0.97132 0.0
C1162 C 0.6782 0.56437 0.89169 0.0
C1163 C 0.67098 0.54851 0.8765 0.0
C1164 C 0.69559 0.56433 0.90642 0.0
C1165 C 0.70604 0.54843 0.90628 0.0
C1166 C 0.6987 0.53246 0.89202 0.0
C1167 C 0.68135 0.53251 0.87704 0.0
C1168 C 0.72487 0.5486 0.9199 0.0
C1169 C 0.72933 0.5374 0.94888 0.0
C1170 C 0.73826 0.55999 0.90482 0.0
C1171 C 0.73442 0.57172 0.87347 0.0
C1172 C 0.7278 0.56421 0.84147 0.0
C1173 C 0.72384 0.57539 0.81231 0.0
C1174 C 0.7266 0.59409 0.81473 0.0
C1175 C 0.73339 0.60164 0.84627 0.0
C1176 C 0.73734 0.59051 0.87553 0.0
C1177 C 0.80702 0.53099 0.97295 0.0
C1178 C 0.81627 0.54713 0.98111 0.0
C1179 C 0.78891 0.53145 0.96215 0.0
C1180 C 0.77957 0.54802 0.95998 0.0
C1181 C 0.78877 0.56414 0.9683 0.0
C1182 C 0.80696 0.56371 0.97871 0.0
C1183 C 0.7604 0.54856 0.94794 0.0
C1184 C 0.75583 0.55988 0.91913 0.0
C1185 C 0.74687 0.53739 0.96344 0.0
C1186 C 0.75048 0.52609 0.99549 0.0
C1187 C 0.7577 0.5339 0.02671 0.0
C1188 C 0.76123 0.52315 0.0567 0.0
C1189 C 0.75749 0.50459 0.0559 0.0
C1190 C 0.75016 0.49674 0.02514 0.0
C1191 C 0.74661 0.50742 0.99505 0.0
H1192 H 0.76025 0.49629 0.07915 0.0
H1193 H 0.72352 0.60273 0.79213 0.0
H1194 H 0.47641 0.31463 0.212 0.0
H1195 H 0.47848 0.28434 0.18591 0.0
H1196 H 0.42014 0.28012 0.18628 0.0
H1197 H 0.41792 0.3104 0.21256 0.0
H1198 H 0.4371 0.24867 0.2094 0.0
H1199 H 0.44118 0.29044 0.11074 0.0
H1200 H 0.45369 0.31665 0.07808 0.0
H1201 H 0.50599 0.29109 0.07499 0.0
H1202 H 0.49384 0.26483 0.10813 0.0
H1203 H 0.42757 0.17427 0.09264 0.0
H1204 H 0.4256 0.20461 0.11844 0.0
H1205 H 0.48368 0.21034 0.11015 0.0
H1206 H 0.48575 0.1801 0.08368 0.0
H1207 H 0.46709 0.24108 0.09149 0.0
H1208 H 0.4637 0.19948 0.18954 0.0
H1209 H 0.45196 0.17328 0.22335 0.0
H1210 H 0.39948 0.19832 0.22916 0.0
H1211 H 0.41084 0.22456 0.19489 0.0
C1212 C 0.46401 0.30723 0.20677 0.0
C1213 C 0.44699 0.31497 0.21411 0.0
C1214 C 0.46523 0.28995 0.19174 0.0
C1215 C 0.44945 0.2801 0.18378 0.0
C1216 C 0.43247 0.28754 0.19213 0.0
C1217 C 0.43123 0.30486 0.20702 0.0
C1218 C 0.45067 0.26222 0.16599 0.0
C1219 C 0.44344 0.24701 0.18342 0.0
C1220 C 0.45936 0.26006 0.13251 0.0
C1221 C 0.46664 0.27574 0.11222 0.0
C1222 C 0.45538 0.29046 0.10333 0.0
C1223 C 0.4624 0.30532 0.08469 0.0
C1224 C 0.48064 0.30555 0.07454 0.0
C1225 C 0.49187 0.2909 0.08291 0.0
C1226 C 0.48492 0.27602 0.10159 0.0
C1227 C 0.43993 0.18202 0.0961 0.0
C1228 C 0.45684 0.17472 0.08639 0.0
C1229 C 0.43878 0.19933 0.11099 0.0
C1230 C 0.45453 0.2096 0.11683 0.0
C1231 C 0.47136 0.20261 0.10602 0.0
C1232 C 0.47252 0.18532 0.09093 0.0
C1233 C 0.45347 0.22748 0.13484 0.0
C1234 C 0.46074 0.2427 0.11747 0.0
C1235 C 0.44493 0.22962 0.16852 0.0
C1236 C 0.43808 0.21391 0.18934 0.0
C1237 C 0.44962 0.19934 0.19779 0.0
C1238 C 0.44304 0.18449 0.21707 0.0
C1239 C 0.42497 0.18412 0.22832 0.0
C1240 C 0.41346 0.19862 0.22038 0.0
C1241 C 0.41997 0.21349 0.20105 0.0
H1242 H 0.4199 0.17261 0.24325 0.0
H1243 H 0.48605 0.31707 0.06012 0.0
H1244 H 0.80928 0.97742 0.34221 0.0
H1245 H 0.7792 0.98034 0.36899 0.0
H1246 H 0.77196 0.92242 0.36281 0.0
H1247 H 0.80205 0.91932 0.33591 0.0
H1248 H 0.74065 0.94213 0.34466 0.0
H1249 H 0.78547 0.93982 0.43855 0.0
H1250 H 0.81338 0.94966 0.4692 0.0
H1251 H 0.79108 0.003 0.48271 0.0
H1252 H 0.76313 0.99354 0.45159 0.0
H1253 H 0.67091 0.92885 0.46971 0.0
H1254 H 0.70023 0.92773 0.43958 0.0
H1255 H 0.70724 0.98512 0.45696 0.0
H1256 H 0.67797 0.98632 0.4878 0.0
H1257 H 0.73845 0.96701 0.46793 0.0
H1258 H 0.69319 0.96946 0.37667 0.0
H1259 H 0.66521 0.96009 0.34569 0.0
H1260 H 0.68805 0.90748 0.32617 0.0
H1261 H 0.71607 0.91643 0.3576 0.0
C1262 C 0.80121 0.96531 0.34606 0.0
C1263 C 0.80812 0.9481 0.33726 0.0
C1264 C 0.78405 0.96701 0.36146 0.0
C1265 C 0.7735 0.95157 0.36828 0.0
C1266 C 0.77995 0.93448 0.35784 0.0
C1267 C 0.79716 0.93274 0.34259 0.0
C1268 C 0.75623 0.95312 0.38821 0.0
C1269 C 0.74015 0.9474 0.37172 0.0
C1270 C 0.75562 0.9604 0.4232 0.0
C1271 C 0.77229 0.96602 0.44242 0.0
C1272 C 0.78657 0.95368 0.44783 0.0
C1273 C 0.80239 0.95919 0.46531 0.0
C1274 C 0.80402 0.97696 0.47781 0.0
C1275 C 0.78981 0.98924 0.47296 0.0
C1276 C 0.77397 0.98382 0.45542 0.0
C1277 C 0.67873 0.94123 0.46737 0.0
C1278 C 0.67205 0.95772 0.48083 0.0
C1279 C 0.69546 0.94057 0.45001 0.0
C1280 C 0.70573 0.95641 0.44539 0.0
C1281 C 0.69946 0.97276 0.46007 0.0
C1282 C 0.68274 0.97342 0.47766 0.0
C1283 C 0.72281 0.95591 0.42451 0.0
C1284 C 0.73888 0.96183 0.4408 0.0
C1285 C 0.72339 0.94891 0.38925 0.0
C1286 C 0.70668 0.94357 0.36978 0.0
C1287 C 0.69221 0.95585 0.36598 0.0
C1288 C 0.67634 0.95062 0.34833 0.0
C1289 C 0.67484 0.93319 0.33404 0.0
C1290 C 0.68923 0.92097 0.33728 0.0
C1291 C 0.70511 0.92612 0.355 0.0
H1292 H 0.66254 0.92916 0.3204 0.0
H1293 H 0.81628 0.9812 0.49133 0.0
H1294 H 0.02784 0.32347 0.60454 0.0
H1295 H 0.0289 0.29298 0.62994 0.0
H1296 H 0.08721 0.29622 0.63639 0.0
H1297 H 0.08631 0.32672 0.61069 0.0
H1298 H 0.07561 0.26357 0.60976 0.0
H1299 H 0.06234 0.30182 0.71028 0.0
H1300 H 0.0455 0.32532 0.74337 0.0
H1301 H 0.99692 0.29342 0.73669 0.0
H1302 H 0.01342 0.26983 0.70308 0.0
H1303 H 0.08862 0.1875 0.72231 0.0
H1304 H 0.08829 0.21847 0.69914 0.0
H1305 H 0.02984 0.21724 0.69514 0.0
H1306 H 0.03001 0.18634 0.71874 0.0
H1307 H 0.04195 0.24909 0.72111 0.0
H1308 H 0.05457 0.21122 0.61995 0.0
H1309 H 0.0709 0.18765 0.58607 0.0
H1310 H 0.12003 0.21867 0.5929 0.0
H1311 H 0.10405 0.24233 0.62731 0.0
C1312 C 0.04091 0.31771 0.61128 0.0
C1313 C 0.05699 0.32756 0.60579 0.0
C1314 C 0.04147 0.30031 0.62593 0.0
C1315 C 0.05812 0.29245 0.63543 0.0
C1316 C 0.07423 0.30208 0.62933 0.0
C1317 C 0.07367 0.31953 0.61478 0.0
C1318 C 0.05868 0.27416 0.65178 0.0
C1319 C 0.06848 0.26045 0.63439 0.0
C1320 C 0.049 0.27003 0.68344 0.0
C1321 C 0.03908 0.28414 0.70387 0.0
C1322 C 0.04803 0.29988 0.71562 0.0
C1323 C 0.03856 0.31321 0.73452 0.0
C1324 C 0.02014 0.31089 0.74205 0.0
C1325 C 0.01118 0.29521 0.7308 0.0
C1326 C 0.02059 0.28185 0.71185 0.0
C1327 C 0.07568 0.19383 0.71663 0.0
C1328 C 0.05934 0.18441 0.72212 0.0
C1329 C 0.07553 0.21151 0.70328 0.0
C1330 C 0.05905 0.22006 0.69494 0.0
C1331 C 0.04271 0.21087 0.70131 0.0
C1332 C 0.04284 0.1932 0.71472 0.0
C1333 C 0.05887 0.23848 0.67909 0.0
C1334 C 0.04913 0.25221 0.69654 0.0
C1335 C 0.06853 0.24261 0.64739 0.0
C1336 C 0.07816 0.22846 0.62653 0.0
C1337 C 0.06889 0.21295 0.61448 0.0
C1338 C 0.07808 0.19958 0.59514 0.0
C1339 C 0.0965 0.20164 0.58742 0.0
C1340 C 0.10577 0.21709 0.59895 0.0
C1341 C 0.09665 0.23049 0.61835 0.0
H1342 H 0.10359 0.19127 0.57244 0.0
H1343 H 0.01283 0.32122 0.75668 0.0
H1344 H 0.07489 0.99092 0.31082 0.0
H1345 H 0.04547 0.97559 0.31272 0.0
H1346 H 0.01829 0.02718 0.30425 0.0
H1347 H 0.04747 0.04264 0.30241 0.0
H1348 H 0.00337 0.00536 0.35605 0.0
H1349 H 0.02224 0.00072 0.23257 0.0
H1350 H 0.04319 0.99223 0.184 0.0
H1351 H 0.03993 0.93638 0.2158 0.0
H1352 H 0.01915 0.9446 0.26494 0.0
H1353 H 0.91493 0.98527 0.30181 0.0
H1354 H 0.94608 0.99585 0.30627 0.0
H1355 H 0.9652 0.94058 0.30417 0.0
H1356 H 0.93393 0.92982 0.29856 0.0
H1357 H 0.98556 0.96118 0.2624 0.0
H1358 H 0.96509 0.96547 0.38391 0.0
H1359 H 0.94464 0.97419 0.43328 0.0
H1360 H 0.95076 0.0303 0.40549 0.0
H1361 H 0.97135 0.02198 0.35616 0.0
C1362 C 0.06266 0.99902 0.30936 0.0
C1363 C 0.06358 0.01802 0.30626 0.0
C1364 C 0.04587 0.99023 0.3104 0.0
C1365 C 0.02974 0.00027 0.30843 0.0
C1366 C 0.0306 0.0192 0.30586 0.0
C1367 C 0.04733 0.028 0.30463 0.0
C1368 C 0.01186 0.99115 0.30864 0.0
C1369 C 0.99941 0.99577 0.33548 0.0
C1370 C 0.00694 0.97827 0.28237 0.0
C1371 C 0.01931 0.9733 0.25268 0.0
C1372 C 0.02611 0.98665 0.22939 0.0
C1373 C 0.03793 0.98188 0.20173 0.0
C1374 C 0.04294 0.96378 0.19688 0.0
C1375 C 0.03607 0.9504 0.21963 0.0
C1376 C 0.02426 0.9551 0.24738 0.0
C1377 C 0.92571 0.97532 0.30224 0.0
C1378 C 0.92191 0.95669 0.29979 0.0
C1379 C 0.94355 0.9814 0.30508 0.0
C1380 C 0.95797 0.969 0.30627 0.0
C1381 C 0.95427 0.95038 0.30345 0.0
C1382 C 0.9364 0.94427 0.30019 0.0
C1383 C 0.97688 0.97563 0.3095 0.0
C1384 C 0.98956 0.97055 0.28332 0.0
C1385 C 0.98204 0.98806 0.33647 0.0
C1386 C 0.96968 0.99309 0.36619 0.0
C1387 C 0.96201 0.97966 0.38821 0.0
C1388 C 0.9504 0.98453 0.41619 0.0
C1389 C 0.94631 0.00275 0.42233 0.0
C1390 C 0.95392 0.01618 0.40067 0.0
C1391 C 0.96563 0.01141 0.37281 0.0
H1392 H 0.93729 0.00647 0.44395 0.0
H1393 H 0.0521 0.96011 0.17545 0.0
H1394 H 0.99459 0.57378 0.56825 0.0
H1395 H 0.00708 0.54401 0.55448 0.0
H1396 H 0.96827 0.53776 0.46894 0.0
H1397 H 0.95511 0.56722 0.48384 0.0
H1398 H 0.96968 0.50817 0.50212 0.0
H1399 H 0.01495 0.54591 0.45348 0.0
H1400 H 0.03685 0.57113 0.45092 0.0
H1401 H 0.06724 0.54738 0.53692 0.0
H1402 H 0.04536 0.52216 0.54041 0.0
H1403 H 0.05035 0.43867 0.47031 0.0
H1404 H 0.03646 0.46833 0.45986 0.0
H1405 H 0.99977 0.45904 0.54796 0.0
H1406 H 0.0129 0.42923 0.55733 0.0
H1407 H 0.03591 0.4967 0.49753 0.0
H1408 H 0.96125 0.48093 0.54111 0.0
H1409 H 0.93921 0.45595 0.5355 0.0
H1410 H 0.96733 0.43611 0.4429 0.0
H1411 H 0.98937 0.46111 0.44759 0.0
C1412 C 0.98879 0.56612 0.54636 0.0
C1413 C 0.97386 0.57282 0.52717 0.0
C1414 C 0.99603 0.54913 0.53831 0.0
C1415 C 0.98885 0.53872 0.51021 0.0
C1416 C 0.97406 0.54551 0.49071 0.0
C1417 C 0.96657 0.56236 0.49924 0.0
C1418 C 0.99623 0.52038 0.50257 0.0
C1419 C 0.98416 0.50569 0.50079 0.0
C1420 C 0.0151 0.51713 0.49949 0.0
C1421 C 0.02844 0.53218 0.49732 0.0
C1422 C 0.02625 0.54611 0.47199 0.0
C1423 C 0.03866 0.56041 0.47036 0.0
C1424 C 0.05341 0.56087 0.49377 0.0
C1425 C 0.0558 0.54701 0.5188 0.0
C1426 C 0.04341 0.53269 0.52058 0.0
C1427 C 0.03913 0.44286 0.48706 0.0
C1428 C 0.0327 0.43156 0.51458 0.0
C1429 C 0.03123 0.45984 0.48112 0.0
C1430 C 0.01689 0.46589 0.50279 0.0
C1431 C 0.01045 0.45454 0.53016 0.0
C1432 C 0.01808 0.43749 0.53567 0.0
C1433 C 0.00937 0.48446 0.49862 0.0
C1434 C 0.02142 0.4992 0.49817 0.0
C1435 C 0.99046 0.48779 0.49821 0.0
C1436 C 0.97704 0.47286 0.49485 0.0
C1437 C 0.96266 0.47132 0.5194 0.0
C1438 C 0.95019 0.45713 0.51641 0.0
C1439 C 0.95189 0.44443 0.48891 0.0
C1440 C 0.96605 0.44592 0.46425 0.0
C1441 C 0.97855 0.46009 0.46708 0.0
H1442 H 0.94223 0.43344 0.48668 0.0
H1443 H 0.06301 0.57195 0.49248 0.0
H1444 H 0.44337 0.45288 0.75147 0.0
H1445 H 0.4734 0.46533 0.73971 0.0
H1446 H 0.45334 0.51928 0.75948 0.0
H1447 H 0.42311 0.507 0.77164 0.0
H1448 H 0.47888 0.51552 0.69882 0.0
H1449 H 0.47246 0.50098 0.82453 0.0
H1450 H 0.46463 0.48068 0.87461 0.0
H1451 H 0.50491 0.44256 0.83971 0.0
H1452 H 0.51277 0.46252 0.78903 0.0
H1453 H 0.55967 0.56165 0.74961 0.0
H1454 H 0.52993 0.54881 0.73713 0.0
H1455 H 0.5522 0.49487 0.7453 0.0
H1456 H 0.58189 0.50759 0.75897 0.0
H1457 H 0.52525 0.49781 0.78839 0.0
H1458 H 0.53132 0.50993 0.66249 0.0
H1459 H 0.53809 0.52766 0.60816 0.0
H1460 H 0.49996 0.56843 0.6407 0.0
H1461 H 0.49258 0.55064 0.69475 0.0
C1462 C 0.4452 0.46743 0.75291 0.0
C1463 C 0.43083 0.47892 0.76289 0.0
C1464 C 0.46239 0.4745 0.74609 0.0
C1465 C 0.46554 0.49318 0.74892 0.0
C1466 C 0.4511 0.50482 0.75708 0.0
C1467 C 0.43388 0.49775 0.76423 0.0
C1468 C 0.48426 0.50025 0.74671 0.0
C1469 C 0.48903 0.51183 0.71852 0.0
C1470 C 0.49752 0.49499 0.77191 0.0
C1471 C 0.49307 0.48316 0.80279 0.0
C1472 C 0.47955 0.48821 0.82738 0.0
C1473 C 0.47512 0.47678 0.85589 0.0
C1474 C 0.48423 0.46032 0.86028 0.0
C1475 C 0.49785 0.4553 0.83624 0.0
C1476 C 0.5023 0.46667 0.80763 0.0
C1477 C 0.55837 0.54705 0.74798 0.0
C1478 C 0.57313 0.53566 0.75601 0.0
C1479 C 0.54132 0.5397 0.74051 0.0
C1480 C 0.53876 0.52084 0.74036 0.0
C1481 C 0.5538 0.50947 0.74553 0.0
C1482 C 0.5708 0.51678 0.75335 0.0
C1483 C 0.52017 0.51308 0.74015 0.0
C1484 C 0.51528 0.50143 0.76828 0.0
C1485 C 0.50691 0.51812 0.71465 0.0
C1486 C 0.51154 0.52906 0.68274 0.0
C1487 C 0.52445 0.52272 0.65811 0.0
C1488 C 0.52831 0.53271 0.62727 0.0
C1489 C 0.51959 0.54924 0.62113 0.0
C1490 C 0.50676 0.55566 0.64555 0.0
C1491 C 0.50262 0.54556 0.67613 0.0
H1492 H 0.52272 0.55703 0.59739 0.0
H1493 H 0.48077 0.45148 0.88236 0.0
H1494 H 0.55235 0.92711 -0.00061 0.0
H1495 H 0.54049 0.95782 0.99161 0.0
H1496 H 0.50528 0.95013 0.08268 0.0
H1497 H 0.51629 0.91908 0.08902 0.0
H1498 H 0.48811 0.96872 0.0384 0.0
H1499 H 0.5472 0.97331 0.08684 0.0
H1500 H 0.57999 0.96724 0.09066 0.0
H1501 H 0.58841 0.99461 0.9907 0.0
H1502 H 0.55555 0.00048 0.98581 0.0
H1503 H 0.50395 0.07242 0.06297 0.0
H1504 H 0.51604 0.04166 0.06522 0.0
H1505 H 0.47856 0.02536 0.98264 0.0
H1506 H 0.46576 0.05589 0.98166 0.0
H1507 H 0.53232 0.01903 0.02595 0.0
H1508 H 0.46337 0.9835 0.99534 0.0
H1509 H 0.43068 0.98895 0.00444 0.0
H1510 H 0.44256 0.02428 0.09261 0.0
H1511 H 0.47528 0.01886 0.08434 0.0
C1512 C 0.54194 0.93196 0.01748 0.0
C1513 C 0.53531 0.9208 0.04495 0.0
C1514 C 0.53525 0.94953 0.01318 0.0
C1515 C 0.5223 0.9565 0.0371 0.0
C1516 C 0.51529 0.94513 0.06389 0.0
C1517 C 0.52161 0.92738 0.06757 0.0
C1518 C 0.51641 0.97576 0.03485 0.0
C1519 C 0.4978 0.97969 0.03561 0.0
C1520 C 0.52903 0.99021 0.03253 0.0
C1521 C 0.54888 0.98719 0.03579 0.0
C1522 C 0.55602 0.97797 0.06557 0.0
C1523 C 0.57463 0.97455 0.06793 0.0
C1524 C 0.58628 0.98052 0.04094 0.0
C1525 C 0.57935 0.98998 0.01157 0.0
C1526 C 0.56074 0.99335 0.00898 0.0
C1527 C 0.4984 0.06234 0.04502 0.0
C1528 C 0.48372 0.06652 0.0225 0.0
C1529 C 0.50535 0.04474 0.04629 0.0
C1530 C 0.49794 0.03104 0.02471 0.0
C1531 C 0.48415 0.03554 0.00035 0.0
C1532 C 0.47692 0.05303 -0.00038 0.0
C1533 C 0.50401 0.01193 0.02889 0.0
C1534 C 0.52265 0.00804 0.02859 0.0
C1535 C 0.49146 0.99759 0.03373 0.0
C1536 C 0.47178 0.0009 0.03894 0.0
C1537 C 0.459 0.99239 0.01672 0.0
C1538 C 0.44046 0.99548 0.02173 0.0
C1539 C 0.43455 0.00698 0.04903 0.0
C1540 C 0.44715 0.01542 0.07141 0.0
C1541 C 0.4657 0.01236 0.06653 0.0
H1542 H 0.42019 0.0093 0.05289 0.0
H1543 H 0.60068 0.97784 0.0428 0.0
H1544 H 0.06524 0.45569 0.07681 0.0
H1545 H 0.03437 0.46705 0.0855 0.0
H1546 H 0.04437 0.50925 0.00783 0.0
H1547 H 0.07551 0.49867 0.00104 0.0
H1548 H 0.02389 0.52252 0.05432 0.0
H1549 H 0.02213 0.46752 0.98713 0.0
H1550 H 0.02887 0.43537 0.97501 0.0
H1551 H 0.99891 0.41971 0.06854 0.0
H1552 H 0.99218 0.45184 0.08146 0.0
H1553 H 0.92363 0.50798 -0.00268 0.0
H1554 H 0.95462 0.49646 0.00088 0.0
H1555 H 0.96329 0.52741 0.09734 0.0
H1556 H 0.93262 0.53975 0.09272 0.0
H1557 H 0.97429 0.47747 0.04233 0.0
H1558 H 0.00478 0.54329 0.10211 0.0
H1559 H 0.99788 0.57605 0.10282 0.0
H1560 H 0.97049 0.57115 0.00196 0.0
H1561 H 0.97736 0.53845 0.00055 0.0
C1562 C 0.06086 0.46752 0.06197 0.0
C1563 C 0.07266 0.47621 0.03798 0.0
C1564 C 0.0432 0.47396 0.06679 0.0
C1565 C 0.03682 0.48874 0.04661 0.0
C1566 C 0.04889 0.49782 0.02369 0.0
C1567 C 0.06669 0.49172 0.0197 0.0
C1568 C 0.01741 0.4942 0.04785 0.0
C1569 C 0.01308 0.51263 0.05185 0.0
C1570 C 0.0032 0.48143 0.04358 0.0
C1571 C 0.0068 0.46208 0.03544 0.0
C1572 C 0.01704 0.45722 0.00518 0.0
C1573 C 0.02087 0.439 -0.00182 0.0
C1574 C 0.01438 0.4255 0.02105 0.0
C1575 C 0.00395 0.43019 0.05087 0.0
C1576 C 1.00011 0.4484 0.05804 0.0
C1577 C 0.93211 0.51222 0.01942 0.0
C1578 C 0.92582 0.52495 0.04445 0.0
C1579 C 0.94982 0.50558 0.0215 0.0
C1580 C 0.96145 0.51134 0.04897 0.0
C1581 C 0.95476 0.52316 0.07532 0.0
C1582 C 0.93721 0.53015 0.07275 0.0
C1583 C 0.98082 0.50575 0.04889 0.0
C1584 C 0.98512 0.48731 0.0451 0.0
C1585 C 0.99503 0.51861 0.05139 0.0
C1586 C 0.99145 0.53841 0.05143 0.0
C1587 C 0.99739 0.54924 0.08001 0.0
C1588 C 0.99344 0.56779 0.08057 0.0
C1589 C 0.98368 0.57566 0.05254 0.0
C1590 C 0.97797 0.56504 0.02375 0.0
C1591 C 0.98188 0.5465 0.02307 0.0
H1592 H 0.98059 0.59 0.05309 0.0
H1593 H 0.0174 0.41141 0.01563 0.0
H1594 H 0.48725 0.41673 0.2865 0.0
H1595 H 0.4988 0.4472 0.29816 0.0
H1596 H 0.44452 0.46865 0.29165 0.0
H1597 H 0.43272 0.4381 0.28061 0.0
H1598 H 0.47274 0.48802 0.2507 0.0
H1599 H 0.4593 0.46587 0.36836 0.0
H1600 H 0.46016 0.44335 0.41703 0.0
H1601 H 0.5182 0.44747 0.42118 0.0
H1602 H 0.51771 0.46979 0.37201 0.0
H1603 H 0.4959 0.57504 0.30689 0.0
H1604 H 0.48036 0.54593 0.31056 0.0
H1605 H 0.53148 0.51893 0.3277 0.0
H1606 H 0.54723 0.54801 0.3245 0.0
H1607 H 0.50285 0.50288 0.36582 0.0
H1608 H 0.51699 0.52214 0.24585 0.0
H1609 H 0.51728 0.54464 0.19706 0.0
H1610 H 0.45906 0.54536 0.19636 0.0
H1611 H 0.45844 0.52308 0.24565 0.0
C1612 C 0.47774 0.4279 0.28749 0.0
C1613 C 0.45906 0.42498 0.28275 0.0
C1614 C 0.48437 0.44528 0.29425 0.0
C1615 C 0.47247 0.46007 0.29591 0.0
C1616 C 0.45387 0.45733 0.29051 0.0
C1617 C 0.44717 0.43989 0.28435 0.0
C1618 C 0.47959 0.47839 0.30337 0.0
C1619 C 0.47902 0.4914 0.27607 0.0
C1620 C 0.48814 0.48255 0.33622 0.0
C1621 C 0.48848 0.46939 0.36625 0.0
C1622 C 0.47226 0.46187 0.37944 0.0
C1623 C 0.47268 0.44915 0.40715 0.0
C1624 C 0.48923 0.44395 0.42213 0.0
C1625 C 0.50539 0.4515 0.40951 0.0
C1626 C 0.50505 0.4642 0.38174 0.0
C1627 C 0.50385 0.563 0.31223 0.0
C1628 C 0.52288 0.56385 0.31474 0.0
C1629 C 0.49492 0.54637 0.31435 0.0
C1630 C 0.50483 0.53029 0.31875 0.0
C1631 C 0.52362 0.53121 0.32419 0.0
C1632 C 0.53259 0.54786 0.32219 0.0
C1633 C 0.49597 0.51252 0.31318 0.0
C1634 C 0.49634 0.49958 0.34065 0.0
C1635 C 0.48737 0.50832 0.28036 0.0
C1636 C 0.48767 0.52108 0.24964 0.0
C1637 C 0.50425 0.52714 0.23537 0.0
C1638 C 0.50448 0.53987 0.20766 0.0
C1639 C 0.48819 0.54647 0.1937 0.0
C1640 C 0.47166 0.54025 0.20726 0.0
C1641 C 0.47136 0.52757 0.23507 0.0
H1642 H 0.48839 0.55636 0.17232 0.0
H1643 H 0.48952 0.43409 0.44357 0.0
H1644 H 0.42702 0.05324 0.59114 0.0
H1645 H 0.45693 0.04066 0.60487 0.0
H1646 H 0.45109 0.00257 0.51797 0.0
H1647 H 0.42088 0.01429 0.50578 0.0
H1648 H 0.46825 0.98657 0.56566 0.0
H1649 H 0.4757 0.04441 0.5099 0.0
H1650 H 0.471 0.07721 0.50181 0.0
H1651 H 0.49418 0.08737 0.60524 0.0
H1652 H 0.49904 0.05452 0.61386 0.0
H1653 H 0.56947 0.00194 0.521 0.0
H1654 H 0.53902 0.01437 0.52742 0.0
H1655 H 0.52799 0.97625 0.61236 0.0
H1656 H 0.55814 0.96303 0.60443 0.0
H1657 H 0.51917 0.03042 0.5718 0.0
H1658 H 0.48572 0.96202 0.61061 0.0
H1659 H 0.49117 0.92927 0.60202 0.0
H1660 H 0.52044 0.94045 0.50517 0.0
H1661 H 0.51513 0.97315 0.51319 0.0
C1662 C 0.43205 0.042 0.57537 0.0
C1663 C 0.42168 0.03483 0.54721 0.0
C1664 C 0.44919 0.03489 0.58307 0.0
C1665 C 0.45651 0.02093 0.56193 0.0
C1666 C 0.44581 0.01331 0.53474 0.0
C1667 C 0.42852 0.02008 0.52769 0.0
C1668 C 0.47561 0.01485 0.56656 0.0
C1669 C 0.47934 0.99619 0.5673 0.0
C1670 C 0.49024 0.0273 0.56775 0.0
C1671 C 0.48753 0.04704 0.56268 0.0
C1672 C 0.47971 0.05365 0.53098 0.0
C1673 C 0.47702 0.07224 0.5263 0.0
C1674 C 0.48216 0.08439 0.55311 0.0
C1675 C 0.49015 0.07795 0.58454 0.0
C1676 C 0.49292 0.05934 0.5893 0.0
C1677 C 0.56063 0.99633 0.5413 0.0
C1678 C 0.56606 0.98134 0.56183 0.0
C1679 C 0.54321 0.0035 0.54506 0.0
C1680 C 0.53101 0.99602 0.56987 0.0
C1681 C 0.53694 0.98192 0.5923 0.0
C1682 C 0.55419 0.97443 0.58789 0.0
C1683 C 0.51179 0.00215 0.57032 0.0
C1684 C 0.50805 0.02081 0.57076 0.0
C1685 C 0.49721 0.98971 0.56791 0.0
C1686 C 0.50021 0.97001 0.56275 0.0
C1687 C 0.49329 0.95745 0.58749 0.0
C1688 C 0.49639 0.9389 0.58274 0.0
C1689 C 0.50625 0.93277 0.55319 0.0
C1690 C 0.51294 0.94517 0.52821 0.0
C1691 C 0.50991 0.96371 0.53286 0.0
H1692 H 0.50866 0.91841 0.54959 0.0
H1693 H 0.48002 0.09879 0.54947 0.0
H1694 H 0.02199 0.07706 0.74198 0.0
H1695 H 0.00849 0.04716 0.74942 0.0
H1696 H 0.04257 0.03744 0.84126 0.0
H1697 H 0.05667 0.06717 0.83313 0.0
H1698 H 0.04145 0.00846 0.80446 0.0
H1699 H 0.99634 0.04771 0.84936 0.0
H1700 H 0.97585 0.07411 0.8503 0.0
H1701 H 0.94789 0.05366 0.75808 0.0
H1702 H 0.96841 0.02728 0.75618 0.0
H1703 H 0.95799 0.94238 0.82827 0.0
H1704 H 0.97203 0.97204 0.83769 0.0
H1705 H 0.00979 0.96116 0.75211 0.0
H1706 H 0.99635 0.93134 0.74355 0.0
H1707 H 0.97469 0.00054 0.79923 0.0
H1708 H 0.04952 0.98104 0.76443 0.0
H1709 H 0.06986 0.95474 0.77147 0.0
H1710 H 0.03797 0.93577 0.85998 0.0
H1711 H 0.01763 0.9621 0.85388 0.0
C1712 C 0.0266 0.06859 0.76383 0.0
C1713 C 0.04036 0.0745 0.78701 0.0
C1714 C 0.01878 0.05152 0.76821 0.0
C1715 C 0.02421 0.04016 0.79641 0.0
C1716 C 0.03808 0.04598 0.81944 0.0
C1717 C 0.04613 0.06297 0.81473 0.0
C1718 C 0.01566 0.02208 0.80113 0.0
C1719 C 0.02685 0.00674 0.80353 0.0
C1720 C 0.99658 0.01983 0.80125 0.0
C1721 C 0.98401 0.03555 0.80251 0.0
C1722 C 0.98589 0.04888 0.82915 0.0
C1723 C 0.97427 0.06385 0.82986 0.0
C1724 C 0.96059 0.06557 0.80424 0.0
C1725 C 0.95849 0.05231 0.7779 0.0
C1726 C 0.9701 0.03733 0.77702 0.0
C1727 C 0.96935 0.94629 0.81159 0.0
C1728 C 0.97611 0.93446 0.78527 0.0
C1729 C 0.97735 0.96325 0.81699 0.0
C1730 C 0.99216 0.96875 0.79601 0.0
C1731 C 0.9987 0.95706 0.76932 0.0
C1732 C 0.99092 0.94002 0.76429 0.0
C1733 C 0.00051 0.9869 0.80107 0.0
C1734 C 0.98928 0.00226 0.8006 0.0
C1735 C 0.01952 0.98919 0.80414 0.0
C1736 C 0.03196 0.97351 0.8085 0.0
C1737 C 0.04692 0.97133 0.78555 0.0
C1738 C 0.05844 0.9564 0.78935 0.0
C1739 C 0.05518 0.94357 0.81609 0.0
C1740 C 0.04045 0.94569 0.83921 0.0
C1741 C 0.02891 0.96061 0.83558 0.0
H1742 H 0.0641 0.932 0.81893 0.0
H1743 H 0.95161 0.07717 0.80482 0.0
H1744 H 0.06547 0.12784 0.6483 0.0
H1745 H 0.07765 0.1171 0.59129 0.0
H1746 H 0.11723 0.08478 0.64729 0.0
H1747 H 0.1054 0.09557 0.70441 0.0
H1748 H 0.11417 0.11716 0.56089 0.0
H1749 H 0.1153 0.04273 0.60268 0.0
H1750 H 0.10148 0.02255 0.64779 0.0
H1751 H 0.05383 0.056 0.65009 0.0
H1752 H 0.06724 0.07616 0.6046 0.0
H1753 H 0.12883 0.037 0.42433 0.0
H1754 H 0.12914 0.04792 0.48635 0.0
H1755 H 0.09385 0.09209 0.45669 0.0
H1756 H 0.09372 0.08168 0.39529 0.0
H1757 H 0.10177 0.05243 0.53388 0.0
H1758 H 0.10437 0.12999 0.50082 0.0
H1759 H 0.11801 0.1499 0.45523 0.0
H1760 H 0.15896 0.10998 0.43396 0.0
H1761 H 0.14583 0.08996 0.47999 0.0
C1762 C 0.07692 0.11863 0.64852 0.0
C1763 C 0.08433 0.11241 0.6809 0.0
C1764 C 0.08392 0.11262 0.61595 0.0
C1765 C 0.09823 0.1001 0.6153 0.0
C1766 C 0.10614 0.09441 0.64742 0.0
C1767 C 0.09932 0.10059 0.67999 0.0
C1768 C 0.10377 0.09191 0.58107 0.0
C1769 C 0.11149 0.10303 0.55481 0.0
C1770 C 0.1008 0.07333 0.57392 0.0
C1771 C 0.09239 0.06107 0.60064 0.0
C1772 C 0.10185 0.04572 0.61275 0.0
C1773 C 0.09409 0.03429 0.63837 0.0
C1774 C 0.07682 0.03803 0.65191 0.0
C1775 C 0.06724 0.05316 0.6397 0.0
C1776 C 0.07492 0.0646 0.61403 0.0
C1777 C 0.12118 0.04905 0.4311 0.0
C1778 C 0.11135 0.05852 0.4048 0.0
C1779 C 0.12138 0.05526 0.46646 0.0
C1780 C 0.11181 0.071 0.47587 0.0
C1781 C 0.10171 0.08018 0.44981 0.0
C1782 C 0.10158 0.07411 0.41467 0.0
C1783 C 0.11167 0.07781 0.51302 0.0
C1784 C 0.10495 0.06645 0.54 0.0
C1785 C 0.11568 0.09617 0.52084 0.0
C1786 C 0.12404 0.10841 0.49385 0.0
C1787 C 0.11639 0.12551 0.48671 0.0
C1788 C 0.12402 0.13681 0.46073 0.0
C1789 C 0.13933 0.1312 0.4417 0.0
C1790 C 0.14709 0.1143 0.44872 0.0
C1791 C 0.13956 0.10297 0.47476 0.0
H1792 H 0.14517 0.13995 0.42152 0.0
H1793 H 0.07085 0.02919 0.67179 0.0
H1794 H 0.91946 0.58558 0.63478 0.0
H1795 H 0.90993 0.57681 0.69465 0.0
H1796 H 0.94724 0.6155 0.74018 0.0
H1797 H 0.95739 0.62393 0.68008 0.0
H1798 H 0.94756 0.58533 0.77797 0.0
H1799 H 0.90155 0.62461 0.73264 0.0
H1800 H 0.87928 0.63555 0.68846 0.0
H1801 H 0.84931 0.58592 0.69856 0.0
H1802 H 0.87159 0.57452 0.74231 0.0
H1803 H 0.90631 0.5872 0.94888 0.0
H1804 H 0.91605 0.59654 0.88941 0.0
H1805 H 0.88566 0.5526 0.84268 0.0
H1806 H 0.87573 0.54304 0.90224 0.0
H1807 H 0.88181 0.58626 0.80654 0.0
H1808 H 0.92921 0.5474 0.85232 0.0
H1809 H 0.95136 0.53796 0.89808 0.0
H1810 H 0.97849 0.58925 0.88896 0.0
H1811 H 0.95632 0.59912 0.84354 0.0
C1812 C 0.9257 0.59222 0.65748 0.0
C1813 C 0.93908 0.60558 0.65268 0.0
C1814 C 0.92018 0.58722 0.69172 0.0
C1815 C 0.92759 0.59577 0.72186 0.0
C1816 C 0.94129 0.60879 0.71725 0.0
C1817 C 0.94704 0.61361 0.68293 0.0
C1818 C 0.92077 0.59128 0.75808 0.0
C1819 C 0.93321 0.58578 0.78432 0.0
C1820 C 0.90201 0.59167 0.76628 0.0
C1821 C 0.88834 0.59865 0.74056 0.0
C1822 C 0.89027 0.61598 0.7253 0.0
C1823 C 0.87764 0.62227 0.70033 0.0
C1824 C 0.86291 0.61142 0.69067 0.0
C1825 C 0.86074 0.59429 0.70605 0.0
C1826 C 0.87336 0.58792 0.73095 0.0
C1827 C 0.90157 0.57952 0.92604 0.0
C1828 C 0.8903 0.56427 0.9304 0.0
C1829 C 0.9072 0.58489 0.89207 0.0
C1830 C 0.9017 0.57514 0.86182 0.0
C1831 C 0.89005 0.56026 0.86583 0.0
C1832 C 0.88445 0.55479 0.89987 0.0
C1833 C 0.90857 0.58021 0.82609 0.0
C1834 C 0.89614 0.58585 0.80004 0.0
C1835 C 0.92734 0.58018 0.81824 0.0
C1836 C 0.94101 0.57405 0.84474 0.0
C1837 C 0.93985 0.5567 0.86021 0.0
C1838 C 0.95241 0.55127 0.88608 0.0
C1839 C 0.9663 0.56302 0.89649 0.0
C1840 C 0.96771 0.58018 0.8809 0.0
C1841 C 0.95516 0.58569 0.85506 0.0
H1842 H 0.97598 0.55881 0.9166 0.0
H1843 H 0.85316 0.61631 0.6713 0.0
H1844 H 0.44704 0.3717 0.14133 0.0
H1845 H 0.44025 0.38354 0.08185 0.0
H1846 H 0.39495 0.41349 0.12487 0.0
H1847 H 0.40107 0.40104 0.18396 0.0
H1848 H 0.38664 0.40198 0.06129 0.0
H1849 H 0.43741 0.43307 0.11248 0.0
H1850 H 0.46744 0.43534 0.14112 0.0
H1851 H 0.49221 0.41081 0.04917 0.0
H1852 H 0.46227 0.40809 0.02022 0.0
H1853 H 0.38157 0.4654 0.91869 0.0
H1854 H 0.38812 0.45441 0.97919 0.0
H1855 H 0.42594 0.41553 0.93608 0.0
H1856 H 0.41944 0.42628 0.87574 0.0
H1857 H 0.43775 0.43308 0.00035 0.0
H1858 H 0.38557 0.40172 0.95078 0.0
H1859 H 0.35536 0.40148 0.92252 0.0
H1860 H 0.33296 0.42917 0.01335 0.0
H1861 H 0.36315 0.42989 0.04185 0.0
C1862 C 0.43546 0.38059 0.13803 0.0
C1863 C 0.42478 0.38568 0.1675 0.0
C1864 C 0.43165 0.38742 0.10406 0.0
C1865 C 0.41741 0.39983 0.09915 0.0
C1866 C 0.40609 0.40407 0.12809 0.0
C1867 C 0.40967 0.39697 0.16193 0.0
C1868 C 0.41495 0.40918 0.06443 0.0
C1869 C 0.39777 0.40894 0.04822 0.0
C1870 C 0.42949 0.41827 0.04728 0.0
C1871 C 0.44757 0.42024 0.0643 0.0
C1872 C 0.44925 0.42807 0.09844 0.0
C1873 C 0.46625 0.42943 0.11473 0.0
C1874 C 0.48172 0.4232 0.09699 0.0
C1875 C 0.48021 0.41562 0.06288 0.0
C1876 C 0.46323 0.41417 0.04651 0.0
C1877 C 0.39153 0.45475 0.92219 0.0
C1878 C 0.39988 0.44658 0.89251 0.0
C1879 C 0.3952 0.44848 0.95668 0.0
C1880 C 0.40737 0.43409 0.96186 0.0
C1881 C 0.4165 0.42665 0.9325 0.0
C1882 C 0.41269 0.43274 0.89806 0.0
C1883 C 0.40957 0.42572 -0.0026 0.0
C1884 C 0.42666 0.42616 0.01366 0.0
C1885 C 0.39492 0.41706 0.01481 0.0
C1886 C 0.37665 0.416 -0.00169 0.0
C1887 C 0.37422 0.40784 0.96465 0.0
C1888 C 0.35711 0.40762 0.94858 0.0
C1889 C 0.34226 0.41534 0.96611 0.0
C1890 C 0.34448 0.42322 -0.0002 0.0
C1891 C 0.36159 0.42352 0.01593 0.0
H1892 H 0.32902 0.41519 0.95361 0.0
H1893 H 0.49487 0.42427 0.10964 0.0
H1894 H 0.57013 0.9461 0.44648 0.0
H1895 H 0.56245 0.93585 0.38625 0.0
H1896 H 0.61809 0.94353 0.35352 0.0
H1897 H 0.62556 0.95476 0.41353 0.0
H1898 H 0.59563 0.95124 0.29984 0.0
H1899 H 0.60236 0.90139 0.38327 0.0
H1900 H 0.59562 0.88522 0.43952 0.0
H1901 H 0.53942 0.88195 0.41053 0.0
H1902 H 0.5458 0.89808 0.35406 0.0
H1903 H 0.59684 0.89086 0.15531 0.0
H1904 H 0.60288 0.90414 0.21368 0.0
H1905 H 0.54673 0.89703 0.24298 0.0
H1906 H 0.54063 0.88318 0.18483 0.0
H1907 H 0.56877 0.88952 0.29802 0.0
H1908 H 0.56257 0.9378 0.21237 0.0
H1909 H 0.56956 0.95378 0.15608 0.0
H1910 H 0.62491 0.96028 0.18928 0.0
H1911 H 0.61833 0.94406 0.24551 0.0
C1912 C 0.58058 0.94599 0.42612 0.0
C1913 C 0.59842 0.95104 0.43438 0.0
C1914 C 0.57624 0.94004 0.39186 0.0
C1915 C 0.58983 0.9384 0.36578 0.0
C1916 C 0.60744 0.94458 0.37337 0.0
C1917 C 0.61169 0.951 0.40751 0.0
C1918 C 0.58598 0.92893 0.33175 0.0
C1919 C 0.58993 0.93768 0.29939 0.0
C1920 C 0.57825 0.91134 0.33126 0.0
C1921 C 0.57454 0.90104 0.36457 0.0
C1922 C 0.58856 0.89723 0.38892 0.0
C1923 C 0.58481 0.8881 0.42085 0.0
C1924 C 0.5671 0.88268 0.4287 0.0
C1925 C 0.55313 0.8862 0.40445 0.0
C1926 C 0.55681 0.89527 0.37241 0.0
C1927 C 0.58579 0.89189 0.17426 0.0
C1928 C 0.5682 0.88611 0.16527 0.0
C1929 C 0.58926 0.89959 0.20756 0.0
C1930 C 0.57515 0.90197 0.23225 0.0
C1931 C 0.55777 0.89542 0.22413 0.0
C1932 C 0.55432 0.88751 0.1909 0.0
C1933 C 0.57845 0.9118 0.26607 0.0
C1934 C 0.57441 0.9031 0.29841 0.0
C1935 C 0.58613 0.92941 0.26649 0.0
C1936 C 0.58998 0.93959 0.23306 0.0
C1937 C 0.57626 0.94256 0.20759 0.0
C1938 C 0.58015 0.95165 0.17569 0.0
C1939 C 0.59768 0.95801 0.16909 0.0
C1940 C 0.61134 0.95534 0.19442 0.0
C1941 C 0.60753 0.94621 0.22633 0.0
H1942 H 0.60069 0.96504 0.14439 0.0
H1943 H 0.56422 0.8757 0.45353 0.0
H1944 H 0.0535 0.39128 0.66851 0.0
H1945 H 0.0626 0.4062 0.72397 0.0
H1946 H 0.10109 0.43887 0.66558 0.0
H1947 H 0.09259 0.42366 0.61038 0.0
H1948 H 0.11607 0.42692 0.72356 0.0
H1949 H 0.06033 0.45662 0.69607 0.0
H1950 H 0.02799 0.45826 0.67962 0.0
H1951 H 0.01354 0.43102 0.77703 0.0
H1952 H 0.04581 0.42896 0.79382 0.0
H1953 H 0.10593 0.48129 0.90161 0.0
H1954 H 0.09867 0.47764 0.83771 0.0
H1955 H 0.10956 0.42033 0.84581 0.0
H1956 H 0.11653 0.42379 0.90897 0.0
H1957 H 0.07095 0.45267 0.80797 0.0
H1958 H 0.13445 0.40978 0.7717 0.0
H1959 H 0.16678 0.40836 0.78833 0.0
H1960 H 0.16586 0.46478 0.81645 0.0
H1961 H 0.13363 0.46663 0.79939 0.0
C1962 C 0.06392 0.40161 0.66748 0.0
C1963 C 0.07229 0.40627 0.63499 0.0
C1964 C 0.06901 0.41024 0.69915 0.0
C1965 C 0.08229 0.42389 0.69877 0.0
C1966 C 0.09077 0.42843 0.66645 0.0
C1967 C 0.08586 0.41969 0.6349 0.0
C1968 C 0.0878 0.433 0.73229 0.0
C1969 C 0.10621 0.43274 0.7418 0.0
C1970 C 0.07499 0.44098 0.75572 0.0
C1971 C 0.05552 0.44257 0.74612 0.0
C1972 C 0.05026 0.45092 0.71392 0.0
C1973 C 0.03194 0.45191 0.70453 0.0
C1974 C 0.01872 0.44473 0.72725 0.0
C1975 C 0.02379 0.43658 0.75946 0.0
C1976 C 0.0421 0.43553 0.76896 0.0
C1977 C 0.10687 0.46797 0.88955 0.0
C1978 C 0.11167 0.45278 0.91019 0.0
C1979 C 0.10265 0.46591 0.85328 0.0
C1980 C 0.10366 0.44874 0.8373 0.0
C1981 C 0.10879 0.4337 0.85776 0.0
C1982 C 0.11268 0.43568 0.89388 0.0
C1983 C 0.09901 0.44597 0.79941 0.0
C1984 C 0.08079 0.44731 0.78918 0.0
C1985 C 0.112 0.43921 0.77508 0.0
C1986 C 0.13156 0.43831 0.78444 0.0
C1987 C 0.14117 0.42192 0.78116 0.0
C1988 C 0.15948 0.42104 0.79072 0.0
C1989 C 0.16836 0.43646 0.80352 0.0
C1990 C 0.15896 0.45283 0.80663 0.0
C1991 C 0.14066 0.4538 0.79705 0.0
H1992 H 0.18252 0.43573 0.81098 0.0
H1993 H 0.00455 0.44548 0.7199 0.0
H1994 H 0.53217 0.61109 0.16033 0.0
H1995 H 0.53657 0.60195 0.09795 0.0
H1996 H 0.57444 0.56079 0.13158 0.0
H1997 H 0.57026 0.56982 0.19373 0.0
H1998 H 0.57001 0.60299 0.06226 0.0
H1999 H 0.57015 0.52484 0.07538 0.0
H2000 H 0.55491 0.50116 0.11107 0.0
H2001 H 0.50876 0.5359 0.12522 0.0
H2002 H 0.52368 0.55975 0.08962 0.0
H2003 H 0.60835 0.53653 0.92349 0.0
H2004 H 0.59534 0.54131 0.98304 0.0
H2005 H 0.56135 0.58388 0.94102 0.0
H2006 H 0.57452 0.57958 0.88195 0.0
H2007 H 0.56142 0.54099 0.01348 0.0
H2008 H 0.56144 0.61898 -0.0015 0.0
H2009 H 0.57728 0.64246 0.96335 0.0
H2010 H 0.62396 0.60797 0.9543 0.0
H2011 H 0.60853 0.58443 0.98992 0.0
C2012 C 0.54126 0.59994 0.15447 0.0
C2013 C 0.55095 0.59125 0.18194 0.0
C2014 C 0.54377 0.59478 0.11887 0.0
C2015 C 0.55574 0.58065 0.11032 0.0
C2016 C 0.56499 0.5716 0.13774 0.0
C2017 C 0.56266 0.57686 0.17321 0.0
C2018 C 0.5597 0.57618 0.07264 0.0
C2019 C 0.56779 0.58955 0.05131 0.0
C2020 C 0.55728 0.55849 0.05894 0.0
C2021 C 0.54811 0.54412 0.08005 0.0
C2022 C 0.55673 0.5274 0.08603 0.0
C2023 C 0.54816 0.51397 0.10634 0.0
C2024 C 0.53092 0.51707 0.12059 0.0
C2025 C 0.52217 0.53357 0.11444 0.0
C2026 C 0.5307 0.54707 0.09428 0.0
C2027 C 0.59796 0.54677 0.92689 0.0
C2028 C 0.5927 0.5579 0.89817 0.0
C2029 C 0.59049 0.54942 0.96085 0.0
C2030 C 0.57762 0.56315 0.96647 0.0
C2031 C 0.57151 0.57344 0.93735 0.0
C2032 C 0.5791 0.57097 0.90361 0.0
C2033 C 0.57171 0.56781 0.00311 0.0
C2034 C 0.56341 0.55448 0.0243 0.0
C2035 C 0.57406 0.58554 0.01689 0.0
C2036 C 0.58374 0.59988 -0.00344 0.0
C2037 C 0.57513 0.61646 0.98921 0.0
C2038 C 0.58403 0.62977 0.96917 0.0
C2039 C 0.60159 0.62668 0.95649 0.0
C2040 C 0.61034 0.61032 0.96404 0.0
C2041 C 0.60152 0.597 0.98415 0.0
H2042 H 0.60843 0.63698 0.94089 0.0
H2043 H 0.52431 0.50666 0.1363 0.0
H2044 H 0.41875 0.08058 0.43435 0.0
H2045 H 0.43165 0.08644 0.37572 0.0
H2046 H 0.39043 0.05309 0.32702 0.0
H2047 H 0.37759 0.04666 0.38623 0.0
H2048 H 0.42344 0.04847 0.2952 0.0
H2049 H 0.38535 0.09812 0.32943 0.0
H2050 H 0.37427 0.12199 0.37005 0.0
H2051 H 0.42632 0.14803 0.36656 0.0
H2052 H 0.43782 0.12411 0.3264 0.0
H2053 H 0.42336 0.08526 0.12252 0.0
H2054 H 0.41536 0.07668 0.18307 0.0
H2055 H 0.46027 0.10783 0.22403 0.0
H2056 H 0.46851 0.11674 0.16291 0.0
H2057 H 0.42725 0.11336 0.26047 0.0
H2058 H 0.4643 0.0636 0.22166 0.0
H2059 H 0.47372 0.03991 0.17904 0.0
H2060 H 0.42166 0.01434 0.18869 0.0
H2061 H 0.4118 0.03805 0.23096 0.0
C2062 C 0.41243 0.07437 0.41127 0.0
C2063 C 0.39696 0.06338 0.41483 0.0
C2064 C 0.41986 0.07774 0.37778 0.0
C2065 C 0.41176 0.0705 0.34709 0.0
C2066 C 0.3968 0.05886 0.3505 0.0
C2067 C 0.38946 0.05526 0.38424 0.0
C2068 C 0.41836 0.07603 0.31146 0.0
C2069 C 0.42413 0.06263 0.28744 0.0
C2070 C 0.4195 0.09455 0.30173 0.0
C2071 C 0.4125 0.10921 0.32518 0.0
C2072 C 0.39447 0.10887 0.33749 0.0
C2073 C 0.38811 0.12241 0.36044 0.0
C2074 C 0.3996 0.13649 0.37097 0.0
C2075 C 0.41745 0.1371 0.35843 0.0
C2076 C 0.42389 0.12355 0.33556 0.0
C2077 C 0.43163 0.09036 0.14422 0.0
C2078 C 0.44665 0.10168 0.1378 0.0
C2079 C 0.42703 0.08535 0.17885 0.0
C2080 C 0.43738 0.09143 0.20779 0.0
C2081 C 0.45221 0.10295 0.20181 0.0
C2082 C 0.4569 0.10798 0.16697 0.0
C2083 C 0.43234 0.08583 0.24427 0.0
C2084 C 0.42677 0.09922 0.26841 0.0
C2085 C 0.43118 0.0673 0.25388 0.0
C2086 C 0.43728 0.05268 0.22935 0.0
C2087 C 0.45483 0.05297 0.21459 0.0
C2088 C 0.46025 0.03954 0.19048 0.0
C2089 C 0.44829 0.02564 0.18112 0.0
C2090 C 0.43091 0.02511 0.19597 0.0
C2091 C 0.42541 0.03853 0.22006 0.0
H2092 H 0.4525 0.01528 0.16239 0.0
H2093 H 0.39466 0.14694 0.38878 0.0
H2094 H 0.9162 0.91705 0.69015 0.0
H2095 H 0.90259 0.92236 0.63169 0.0
H2096 H 0.93838 0.88261 0.58489 0.0
H2097 H 0.95255 0.87767 0.6432 0.0
H2098 H 0.93501 0.9103 0.54138 0.0
H2099 H 0.89402 0.87255 0.60627 0.0
H2100 H 0.87522 0.86357 0.65784 0.0
H2101 H 0.84261 0.91133 0.64471 0.0
H2102 H 0.86144 0.92079 0.59344 0.0
H2103 H 0.88596 0.89664 0.38366 0.0
H2104 H 0.89531 0.88924 0.4444 0.0
H2105 H 0.87122 0.93877 0.4829 0.0
H2106 H 0.86197 0.94656 0.42198 0.0
H2107 H 0.86809 0.90546 0.52989 0.0
H2108 H 0.91074 0.94224 0.46252 0.0
H2109 H 0.92842 0.94796 0.40772 0.0
H2110 H 0.95821 0.89868 0.42439 0.0
H2111 H 0.94005 0.89217 0.47834 0.0
C2112 C 0.92126 0.90949 0.66741 0.0
C2113 C 0.93538 0.89684 0.67135 0.0
C2114 C 0.91341 0.9125 0.63402 0.0
C2115 C 0.91922 0.90262 0.60405 0.0
C2116 C 0.93365 0.89035 0.60768 0.0
C2117 C 0.94171 0.88752 0.64102 0.0
C2118 C 0.90996 0.90484 0.56914 0.0
C2119 C 0.92041 0.90904 0.53888 0.0
C2120 C 0.89086 0.9033 0.56584 0.0
C2121 C 0.87925 0.89746 0.59619 0.0
C2122 C 0.88291 0.8812 0.6145 0.0
C2123 C 0.87225 0.87602 0.64368 0.0
C2124 C 0.85775 0.88689 0.65459 0.0
C2125 C 0.85386 0.90294 0.63625 0.0
C2126 C 0.86451 0.90821 0.60711 0.0
C2127 C 0.88228 0.90584 0.40502 0.0
C2128 C 0.87355 0.92241 0.39781 0.0
C2129 C 0.8876 0.90152 0.43974 0.0
C2130 C 0.88412 0.91358 0.46783 0.0
C2131 C 0.87401 0.92933 0.4614 0.0
C2132 C 0.86885 0.9338 0.42655 0.0
C2133 C 0.89316 0.91097 0.5026 0.0
C2134 C 0.88268 0.90671 0.53266 0.0
C2135 C 0.91225 0.91217 0.50561 0.0
C2136 C 0.92388 0.91661 0.47431 0.0
C2137 C 0.92095 0.93253 0.45437 0.0
C2138 C 0.93105 0.93592 0.42344 0.0
C2139 C 0.94448 0.92374 0.41266 0.0
C2140 C 0.9478 0.90812 0.43278 0.0
C2141 C 0.93756 0.90453 0.46347 0.0
H2142 H 0.95229 0.92641 0.38872 0.0
H2143 H 0.84953 0.88287 0.67722 0.0
H2144 H 0.09227 0.12062 0.91 0.0
H2145 H 0.0952 0.10912 0.97079 0.0
H2146 H 0.03867 0.09406 0.97076 0.0
H2147 H 0.03564 0.10533 0.90948 0.0
H2148 H 0.08 0.11602 0.034 0.0
H2149 H 0.03557 0.05218 0.01308 0.0
H2150 H 0.02489 0.03284 0.96355 0.0
H2151 H 0.07151 0.04759 0.90118 0.0
H2152 H 0.08266 0.0667 0.95059 0.0
H2153 H 0.0683 0.07629 0.19961 0.0
H2154 H 0.06031 0.0862 0.13949 0.0
H2155 H 0.09606 0.0458 0.09481 0.0
H2156 H 0.10361 0.03528 0.15545 0.0
H2157 H 0.06596 0.05088 0.05312 0.0
H2158 H 0.11152 0.08784 0.10852 0.0
H2159 H 0.12422 0.10617 0.15763 0.0
H2160 H 0.08031 0.14405 0.14759 0.0
H2161 H 0.06715 0.12575 0.09884 0.0
C2162 C 0.08036 0.11513 0.92307 0.0
C2163 C 0.06377 0.11367 0.90481 0.0
C2164 C 0.08207 0.10859 0.95785 0.0
C2165 C 0.06724 0.10044 0.97493 0.0
C2166 C 0.05034 0.10004 0.9577 0.0
C2167 C 0.04861 0.1066 0.92283 0.0
C2168 C 0.06987 0.09151 0.00991 0.0
C2169 C 0.07684 0.10181 0.03822 0.0
C2170 C 0.06616 0.07285 0.01505 0.0
C2171 C 0.05983 0.06104 0.98543 0.0
C2172 C 0.04359 0.05122 0.98887 0.0
C2173 C 0.03745 0.0403 0.96082 0.0
C2174 C 0.04749 0.03903 0.92922 0.0
C2175 C 0.06372 0.04862 0.92565 0.0
C2176 C 0.06996 0.0595 0.95368 0.0
C2177 C 0.07424 0.06932 0.17695 0.0
C2178 C 0.0868 0.05525 0.18195 0.0
C2179 C 0.06965 0.07498 0.14267 0.0
C2180 C 0.07794 0.06703 0.11283 0.0
C2181 C 0.0896 0.05215 0.1176 0.0
C2182 C 0.09394 0.0462 0.15211 0.0
C2183 C 0.07576 0.07549 0.07727 0.0
C2184 C 0.06898 0.06511 0.04888 0.0
C2185 C 0.08007 0.094 0.0717 0.0
C2186 C 0.08828 0.10536 0.10019 0.0
C2187 C 0.10454 0.10004 0.11687 0.0
C2188 C 0.11181 0.11042 0.14466 0.0
C2189 C 0.10306 0.12625 0.15576 0.0
C2190 C 0.08706 0.13178 0.13898 0.0
C2191 C 0.07969 0.12142 0.11125 0.0
H2192 H 0.1087 0.13424 0.17732 0.0
H2193 H 0.0427 0.03057 0.90756 0.0
H2194 H 0.90858 0.62163 0.43242 0.0
H2195 H 0.89926 0.61127 0.37331 0.0
H2196 H 0.9544 0.59595 0.34948 0.0
H2197 H 0.96395 0.60651 0.4086 0.0
H2198 H 0.93682 0.60973 0.29066 0.0
H2199 H 0.9268 0.5648 0.38037 0.0
H2200 H 0.91559 0.5535 0.43838 0.0
H2201 H 0.86084 0.56498 0.40662 0.0
H2202 H 0.87175 0.57669 0.34866 0.0
H2203 H 0.89607 0.53413 0.17513 0.0
H2204 H 0.90578 0.54381 0.2349 0.0
H2205 H 0.88752 0.59815 0.21228 0.0
H2206 H 0.87785 0.58871 0.15289 0.0
H2207 H 0.88974 0.56157 0.29446 0.0
H2208 H 0.92209 0.62645 0.23434 0.0
H2209 H 0.93468 0.63669 0.17661 0.0
H2210 H 0.94816 0.58178 0.1494 0.0
H2211 H 0.93596 0.57125 0.20719 0.0
C2212 C 0.91881 0.61641 0.41437 0.0
C2213 C 0.93695 0.61463 0.42534 0.0
C2214 C 0.91344 0.61045 0.38066 0.0
C2215 C 0.92607 0.60246 0.35748 0.0
C2216 C 0.94444 0.60196 0.36718 0.0
C2217 C 0.94987 0.60802 0.40093 0.0
C2218 C 0.91979 0.59336 0.32453 0.0
C2219 C 0.92655 0.59921 0.29146 0.0
C2220 C 0.90678 0.57924 0.32578 0.0
C2221 C 0.90011 0.57173 0.36023 0.0
C2222 C 0.91237 0.565 0.38581 0.0
C2223 C 0.90608 0.55853 0.4187 0.0
C2224 C 0.88752 0.55853 0.42617 0.0
C2225 C 0.87521 0.56498 0.40077 0.0
C2226 C 0.88145 0.57153 0.36789 0.0
C2227 C 0.89372 0.54802 0.18326 0.0
C2228 C 0.88648 0.56073 0.15915 0.0
C2229 C 0.89928 0.55352 0.21734 0.0
C2230 C 0.89768 0.57175 0.22754 0.0
C2231 C 0.88913 0.58408 0.20458 0.0
C2232 C 0.8836 0.57864 0.17067 0.0
C2233 C 0.9063 0.57843 0.26064 0.0
C2234 C 0.90005 0.57206 0.29371 0.0
C2235 C 0.92009 0.59177 0.25943 0.0
C2236 C 0.92798 0.59806 0.22502 0.0
C2237 C 0.92786 0.61658 0.21615 0.0
C2238 C 0.93491 0.62243 0.1834 0.0
C2239 C 0.9422 0.60989 0.15936 0.0
C2240 C 0.94249 0.59148 0.16803 0.0
C2241 C 0.9355 0.58556 0.20077 0.0
H2242 H 0.94766 0.61446 0.13405 0.0
H2243 H 0.88266 0.55348 0.45161 0.0
H2244 H 0.40401 0.46461 0.65264 0.0
H2245 H 0.41158 0.45374 0.59293 0.0
H2246 H 0.37947 0.40563 0.61113 0.0
H2247 H 0.37285 0.41601 0.67186 0.0
H2248 H 0.40927 0.39575 0.58523 0.0
H2249 H 0.36719 0.44177 0.55064 0.0
H2250 H 0.35363 0.47231 0.54869 0.0
H2251 H 0.40285 0.49378 0.50428 0.0
H2252 H 0.4168 0.4634 0.50641 0.0
H2253 H 0.40531 0.37168 0.39775 0.0
H2254 H 0.39779 0.38187 0.45834 0.0
H2255 H 0.44549 0.41568 0.45943 0.0
H2256 H 0.4534 0.40517 0.39922 0.0
H2257 H 0.40814 0.43259 0.47428 0.0
H2258 H 0.44929 0.38479 0.50977 0.0
H2259 H 0.46075 0.35339 0.5097 0.0
H2260 H 0.40963 0.33441 0.55 0.0
H2261 H 0.39777 0.36569 0.54977 0.0
C2262 C 0.39825 0.4519 0.64358 0.0
C2263 C 0.38781 0.44115 0.6667 0.0
C2264 C 0.40255 0.4457 0.60936 0.0
C2265 C 0.39596 0.42891 0.59724 0.0
C2266 C 0.38479 0.41857 0.61987 0.0
C2267 C 0.3809 0.42455 0.65443 0.0
C2268 C 0.40178 0.42153 0.56212 0.0
C2269 C 0.4087 0.40377 0.56094 0.0
C2270 C 0.40146 0.43204 0.5304 0.0
C2271 C 0.39309 0.45033 0.52899 0.0
C2272 C 0.37517 0.45303 0.5407 0.0
C2273 C 0.3674 0.47031 0.53952 0.0
C2274 C 0.37738 0.48498 0.52645 0.0
C2275 C 0.39514 0.4824 0.51444 0.0
C2276 C 0.40298 0.46515 0.51558 0.0
C2277 C 0.41437 0.381 0.41124 0.0
C2278 C 0.42995 0.3876 0.39397 0.0
C2279 C 0.41006 0.38681 0.44569 0.0
C2280 C 0.42108 0.39953 0.46304 0.0
C2281 C 0.43687 0.40583 0.44628 0.0
C2282 C 0.44142 0.39972 0.4121 0.0
C2283 C 0.41545 0.40701 0.49782 0.0
C2284 C 0.40859 0.42471 0.49878 0.0
C2285 C 0.41546 0.39636 0.52913 0.0
C2286 C 0.42258 0.37756 0.52937 0.0
C2287 C 0.44043 0.3739 0.51825 0.0
C2288 C 0.44701 0.35613 0.51836 0.0
C2289 C 0.43591 0.3419 0.52974 0.0
C2290 C 0.41821 0.34543 0.54114 0.0
C2291 C 0.41156 0.36318 0.54105 0.0
H2292 H 0.44103 0.32815 0.52981 0.0
H2293 H 0.37135 0.49835 0.52557 0.0
H2294 H 0.60189 0.95844 0.68601 0.0
H2295 H 0.59792 0.94521 0.74545 0.0
H2296 H 0.60678 0.89179 0.70181 0.0
H2297 H 0.61038 0.90483 0.6423 0.0
H2298 H 0.57788 0.89165 0.7423 0.0
H2299 H 0.63876 0.91246 0.75458 0.0
H2300 H 0.66394 0.9344 0.75183 0.0
H2301 H 0.63703 0.96818 0.82882 0.0
H2302 H 0.61156 0.94655 0.83166 0.0
H2303 H 0.60131 0.87405 0.94484 0.0
H2304 H 0.60999 0.881 0.88335 0.0
H2305 H 0.55475 0.89609 0.85959 0.0
H2306 H 0.54587 0.8887 0.92079 0.0
H2307 H 0.60957 0.91241 0.85182 0.0
H2308 H 0.54568 0.89008 0.77223 0.0
H2309 H 0.52236 0.86614 0.77434 0.0
H2310 H 0.55911 0.83119 0.8307 0.0
H2311 H 0.58273 0.85481 0.82849 0.0
C2312 C 0.60324 0.9439 0.68917 0.0
C2313 C 0.60636 0.93267 0.65947 0.0
C2314 C 0.601 0.93636 0.72315 0.0
C2315 C 0.60211 0.91751 0.72805 0.0
C2316 C 0.60579 0.90635 0.69859 0.0
C2317 C 0.60789 0.91385 0.66463 0.0
C2318 C 0.5985 0.90933 0.76352 0.0
C2319 C 0.58486 0.89612 0.76625 0.0
C2320 C 0.60784 0.91493 0.79461 0.0
C2321 C 0.62318 0.92795 0.79311 0.0
C2322 C 0.63815 0.92463 0.77073 0.0
C2323 C 0.65248 0.937 0.76918 0.0
C2324 C 0.65207 0.95269 0.79008 0.0
C2325 C 0.63733 0.95602 0.81263 0.0
C2326 C 0.62295 0.9437 0.81425 0.0
C2327 C 0.59095 0.87856 0.92635 0.0
C2328 C 0.57291 0.88088 0.93764 0.0
C2329 C 0.59595 0.88259 0.89127 0.0
C2330 C 0.58303 0.88903 0.86686 0.0
C2331 C 0.5649 0.89086 0.8778 0.0
C2332 C 0.55984 0.88667 0.91282 0.0
C2333 C 0.58873 0.89493 0.83069 0.0
C2334 C 0.6027 0.90779 0.82785 0.0
C2335 C 0.57998 0.8887 0.79939 0.0
C2336 C 0.56593 0.8743 0.80045 0.0
C2337 C 0.54882 0.87726 0.78492 0.0
C2338 C 0.53554 0.86375 0.78617 0.0
C2339 C 0.53923 0.84717 0.80273 0.0
C2340 C 0.55624 0.84405 0.81799 0.0
C2341 C 0.56957 0.85751 0.81679 0.0
H2342 H 0.52893 0.83674 0.8037 0.0
H2343 H 0.66318 0.96226 0.78884 0.0
H2344 H 0.0405 0.38149 0.39441 0.0
H2345 H 0.04691 0.38475 0.33042 0.0
H2346 H 0.10395 0.39035 0.35384 0.0
H2347 H 0.0978 0.38646 0.41702 0.0
H2348 H 0.05929 0.41293 0.29789 0.0
H2349 H 0.1304 0.37797 0.28764 0.0
H2350 H 0.1457 0.35073 0.31111 0.0
H2351 H 0.09414 0.32507 0.32787 0.0
H2352 H 0.07852 0.35203 0.30402 0.0
H2353 H 0.11019 0.45399 0.16261 0.0
H2354 H 0.10089 0.44066 0.21964 0.0
H2355 H 0.0966 0.38814 0.16955 0.0
H2356 H 0.10634 0.40117 0.11291 0.0
H2357 H 0.11054 0.3844 0.23287 0.0
H2358 H 0.05899 0.41365 0.18439 0.0
H2359 H 0.04159 0.43863 0.15717 0.0
H2360 H 0.04935 0.47085 0.25152 0.0
H2361 H 0.06708 0.44617 0.27908 0.0
C2362 C 0.05443 0.383 0.38576 0.0
C2363 C 0.06862 0.38381 0.4108 0.0
C2364 C 0.05807 0.38493 0.34924 0.0
C2365 C 0.07592 0.38767 0.33727 0.0
C2366 C 0.09011 0.38785 0.36223 0.0
C2367 C 0.08653 0.38575 0.39851 0.0
C2368 C 0.07977 0.39207 0.29936 0.0
C2369 C 0.07037 0.40655 0.28355 0.0
C2370 C 0.09395 0.38349 0.28024 0.0
C2371 C 0.10328 0.36709 0.2942 0.0
C2372 C 0.12232 0.36647 0.29611 0.0
C2373 C 0.13105 0.35109 0.30954 0.0
C2374 C 0.1209 0.3362 0.32104 0.0
C2375 C 0.10199 0.33664 0.31905 0.0
C2376 C 0.09319 0.35198 0.30562 0.0
C2377 C 0.10747 0.43957 0.16386 0.0
C2378 C 0.10885 0.42868 0.13319 0.0
C2379 C 0.10205 0.43199 0.19638 0.0
C2380 C 0.09769 0.41348 0.1986 0.0
C2381 C 0.09981 0.40247 0.16839 0.0
C2382 C 0.10536 0.40998 0.136 0.0
C2383 C 0.09054 0.40568 0.23223 0.0
C2384 C 0.09931 0.39058 0.24709 0.0
C2385 C 0.07539 0.41328 0.24992 0.0
C2386 C 0.06449 0.42809 0.23371 0.0
C2387 C 0.05708 0.4261 0.19926 0.0
C2388 C 0.04715 0.44021 0.18377 0.0
C2389 C 0.04439 0.45633 0.20258 0.0
C2390 C 0.05151 0.45836 0.23697 0.0
C2391 C 0.06149 0.44431 0.25256 0.0
H2392 H 0.03671 0.46724 0.19053 0.0
H2393 H 0.12769 0.32431 0.33146 0.0
H2394 H 0.61827 0.60958 0.69867 0.0
H2395 H 0.61275 0.61983 0.63749 0.0
H2396 H 0.62416 0.56608 0.59828 0.0
H2397 H 0.62961 0.55561 0.65924 0.0
H2398 H 0.62977 0.61769 0.56511 0.0
H2399 H 0.58695 0.55362 0.55913 0.0
H2400 H 0.57383 0.53208 0.60259 0.0
H2401 H 0.56482 0.57554 0.67683 0.0
H2402 H 0.57778 0.59732 0.63371 0.0
H2403 H 0.6007 0.60034 0.3887 0.0
H2404 H 0.61267 0.59988 0.44935 0.0
H2405 H 0.5598 0.61358 0.49078 0.0
H2406 H 0.54755 0.61372 0.42996 0.0
H2407 H 0.57357 0.58608 0.52659 0.0
H2408 H 0.59467 0.64448 0.49179 0.0
H2409 H 0.60957 0.66715 0.45324 0.0
H2410 H 0.6603 0.63914 0.46435 0.0
H2411 H 0.64565 0.61615 0.50256 0.0
C2412 C 0.62016 0.60005 0.67695 0.0
C2413 C 0.6239 0.58166 0.68381 0.0
C2414 C 0.61713 0.606 0.64201 0.0
C2415 C 0.61781 0.59362 0.61367 0.0
C2416 C 0.62348 0.57576 0.62003 0.0
C2417 C 0.62649 0.56979 0.65489 0.0
C2418 C 0.60928 0.59821 0.57919 0.0
C2419 C 0.61751 0.61085 0.55647 0.0
C2420 C 0.59293 0.58972 0.56887 0.0
C2421 C 0.58337 0.57705 0.59325 0.0
C2422 C 0.58193 0.55859 0.58451 0.0
C2423 C 0.57463 0.54634 0.60918 0.0
C2424 C 0.5686 0.55243 0.64253 0.0
C2425 C 0.56956 0.57083 0.65106 0.0
C2426 C 0.57687 0.58313 0.62652 0.0
C2427 C 0.59162 0.60344 0.41063 0.0
C2428 C 0.57314 0.60698 0.40454 0.0
C2429 C 0.59853 0.60328 0.44532 0.0
C2430 C 0.58717 0.60686 0.47457 0.0
C2431 C 0.56879 0.61079 0.46854 0.0
C2432 C 0.56183 0.61088 0.4338 0.0
C2433 C 0.59429 0.60532 0.51146 0.0
C2434 C 0.58574 0.59317 0.53496 0.0
C2435 C 0.61011 0.61465 0.52268 0.0
C2436 C 0.61902 0.62851 0.49986 0.0
C2437 C 0.60898 0.64308 0.48582 0.0
C2438 C 0.61738 0.656 0.46405 0.0
C2439 C 0.63586 0.65457 0.4563 0.0
C2440 C 0.64598 0.64023 0.47037 0.0
C2441 C 0.63764 0.62726 0.49213 0.0
H2442 H 0.64234 0.66458 0.43944 0.0
H2443 H 0.56316 0.5429 0.66175 0.0
H2444 H 0.3716 0.05575 0.6621 0.0
H2445 H 0.38138 0.06535 0.72175 0.0
H2446 H 0.39704 0.11745 0.67952 0.0
H2447 H 0.38705 0.10821 0.62016 0.0
H2448 H 0.42516 0.09718 0.71582 0.0
H2449 H 0.36411 0.11813 0.73266 0.0
H2450 H 0.33079 0.11537 0.73242 0.0
H2451 H 0.3339 0.07229 0.80942 0.0
H2452 H 0.36727 0.07461 0.80973 0.0
H2453 H 0.45572 0.12752 0.88809 0.0
H2454 H 0.44231 0.12554 0.82804 0.0
H2455 H 0.40998 0.07988 0.86235 0.0
H2456 H 0.42253 0.0825 0.92224 0.0
H2457 H 0.38955 0.10125 0.828 0.0
H2458 H 0.44921 0.07653 0.8068 0.0
H2459 H 0.48266 0.07657 0.80618 0.0
H2460 H 0.48257 0.12309 0.73711 0.0
H2461 H 0.44911 0.12345 0.7377 0.0
C2462 C 0.37671 0.0694 0.66569 0.0
C2463 C 0.37871 0.08114 0.63637 0.0
C2464 C 0.38228 0.07485 0.69971 0.0
C2465 C 0.39002 0.09204 0.70473 0.0
C2466 C 0.39114 0.10411 0.67597 0.0
C2467 C 0.38535 0.09879 0.64212 0.0
C2468 C 0.39848 0.09671 0.73919 0.0
C2469 C 0.41741 0.09841 0.74037 0.0
C2470 C 0.38829 0.09783 0.77101 0.0
C2471 C 0.36821 0.09646 0.77099 0.0
C2472 C 0.3577 0.10797 0.74931 0.0
C2473 C 0.3388 0.1065 0.74921 0.0
C2474 C 0.33024 0.09364 0.77083 0.0
C2475 C 0.34056 0.08224 0.79267 0.0
C2476 C 0.35946 0.08364 0.79285 0.0
C2477 C 0.44588 0.11701 0.88245 0.0
C2478 C 0.44006 0.10521 0.90954 0.0
C2479 C 0.43824 0.11584 0.84826 0.0
C2480 C 0.42513 0.10252 0.84064 0.0
C2481 C 0.41987 0.0904 0.86762 0.0
C2482 C 0.42713 0.09184 0.90177 0.0
C2483 C 0.41642 0.10121 0.80504 0.0
C2484 C 0.39739 0.10021 0.80353 0.0
C2485 C 0.42657 0.10033 0.77297 0.0
C2486 C 0.44667 0.10015 0.77267 0.0
C2487 C 0.45633 0.08685 0.79173 0.0
C2488 C 0.47529 0.08679 0.79134 0.0
C2489 C 0.48473 0.09986 0.77172 0.0
C2490 C 0.47524 0.113 0.75237 0.0
C2491 C 0.45628 0.11314 0.75271 0.0
H2492 H 0.49941 0.09979 0.77144 0.0
H2493 H 0.3156 0.09252 0.77072 0.0
H2494 H 0.87499 0.90508 0.16762 0.0
H2495 H 0.88675 0.89775 0.10835 0.0
H2496 H 0.91957 0.94619 0.11006 0.0
H2497 H 0.90725 0.95398 0.16889 0.0
H2498 H 0.90737 0.94068 0.04504 0.0
H2499 H 0.93713 0.90435 0.13272 0.0
H2500 H 0.93872 0.88359 0.18431 0.0
H2501 H 0.91137 0.84238 0.12385 0.0
H2502 H 0.9093 0.86302 0.07208 0.0
H2503 H 0.96786 0.90926 0.91049 0.0
H2504 H 0.95887 0.91533 0.97248 0.0
H2505 H 0.91254 0.88026 0.96007 0.0
H2506 H 0.92112 0.87453 0.8978 0.0
H2507 H 0.93407 0.87924 0.0314 0.0
H2508 H 0.90208 0.9182 0.94617 0.0
H2509 H 0.90207 0.93921 0.89486 0.0
H2510 H 0.93649 0.9759 0.9526 0.0
H2511 H 0.93698 0.95489 0.00403 0.0
C2512 C 0.88451 0.91431 0.15511 0.0
C2513 C 0.89036 0.93001 0.17295 0.0
C2514 C 0.89131 0.91006 0.12136 0.0
C2515 C 0.90444 0.92115 0.10524 0.0
C2516 C 0.90956 0.93736 0.12214 0.0
C2517 C 0.9025 0.9418 0.15571 0.0
C2518 C 0.91335 0.9154 0.07154 0.0
C2519 C 0.91341 0.92734 0.04232 0.0
C2520 C 0.92125 0.89795 0.06785 0.0
C2521 C 0.92293 0.8853 0.09859 0.0
C2522 C 0.93138 0.89089 0.13047 0.0
C2523 C 0.93236 0.87915 0.15976 0.0
C2524 C 0.92512 0.86169 0.15738 0.0
C2525 C 0.91695 0.85592 0.12566 0.0
C2526 C 0.91588 0.86763 0.09632 0.0
C2527 C 0.95603 0.90247 0.92129 0.0
C2528 C 0.9451 0.89152 0.89943 0.0
C2529 C 0.95092 0.90597 0.95659 0.0
C2530 C 0.93504 0.89826 0.97057 0.0
C2531 C 0.92487 0.88624 0.94965 0.0
C2532 C 0.92974 0.88306 0.91415 0.0
C2533 C 0.9278 0.90444 0.00525 0.0
C2534 C 0.92811 0.89259 0.03449 0.0
C2535 C 0.92048 0.92202 0.00916 0.0
C2536 C 0.91972 0.9349 0.97875 0.0
C2537 C 0.90976 0.93068 0.94781 0.0
C2538 C 0.90965 0.94259 0.91872 0.0
C2539 C 0.91932 0.95886 0.92043 0.0
C2540 C 0.92904 0.96328 0.9513 0.0
C2541 C 0.92923 0.95138 0.98042 0.0
H2542 H 0.91924 0.96805 0.89787 0.0
H2543 H 0.92586 0.85263 0.18011 0.0
loop_
_geom_bond_atom_site_label_1
_geom_bond_atom_site_label_2
_geom_bond_distance
_geom_bond_site_symmetry_2
_ccdc_geom_bond_type
Co0 O2 2.143 . S
Co0 O8 2.074 . S
Co0 O11 2.093 . S
Co0 O24 2.097 . S
Co0 N41 2.151 . S
Co0 N49 2.214 . S
Co1 O2 2.160 . S
Co1 O7 2.058 . S
Co1 O17 2.057 . S
Co1 O32 2.037 . S
Co1 N36 2.145 . S
Co1 N57 2.257 . S
O2 Co0 2.143 . S
O2 Co1 2.160 . S
C3 O4 1.278 . S
C3 O11 1.224 . S
O4 C3 1.278 . S
C5 O6 1.245 . S
C5 O17 1.232 . S
O6 C5 1.245 . S
O7 Co1 2.058 . S
O7 C33 1.269 . S
O8 Co0 2.074 . S
O8 C33 1.257 . S
H9 C34 0.930 . S
H10 C40 0.930 . S
O11 Co0 2.093 . S
O11 C3 1.224 . S
H12 C44 0.929 . S
H13 C46 0.930 . S
H14 C47 0.930 . S
H15 C45 0.929 . S
H16 C48 0.928 . S
O17 Co1 2.057 . S
O17 C5 1.232 . S
H18 C37 0.929 . S
H19 C38 0.929 . S
H20 C50 0.931 . S
H21 C42 0.929 . S
H22 C51 0.930 . S
H23 C43 0.931 . S
O24 Co0 2.097 . S
O24 C52 1.214 . S
H25 C53 0.929 . S
H26 C54 0.929 . S
H27 C55 0.930 1_565 S
H28 C56 0.929 1_565 S
H29 C58 0.930 . S
H30 C35 0.930 . S
H31 C39 0.962 . S
O32 Co1 2.037 . S
O32 C52 1.234 . S
C33 O7 1.269 . S
C33 O8 1.257 . S
C34 H9 0.930 . S
C34 C37 1.388 . S
C34 C39 1.402 1_545 S
C35 H30 0.930 . S
C35 C38 1.404 . S
C35 C39 1.338 1_545 S
N36 Co1 2.145 . S
N36 C37 1.397 . S
N36 C38 1.334 . S
C37 H18 0.929 . S
C37 C34 1.388 . S
C37 N36 1.397 . S
C38 H19 0.929 . S
C38 C35 1.404 . S
C38 N36 1.334 . S
C39 H31 0.962 . S
C39 C34 1.402 1_565 S
C39 C35 1.338 1_565 S
C40 H10 0.930 . S
C40 N41 1.330 . S
C40 C42 1.446 . S
N41 Co0 2.151 . S
N41 C40 1.330 . S
N41 C45 1.418 . S
C42 H21 0.929 . S
C42 C40 1.446 . S
C42 C43 1.332 . S
C43 H23 0.931 . S
C43 C42 1.332 . S
C43 C44 1.267 . S
C44 H12 0.929 . S
C44 C43 1.267 . S
C44 C45 1.251 . S
C45 H15 0.929 . S
C45 N41 1.418 . S
C45 C44 1.251 . S
C46 H13 0.930 . S
C46 C48 1.406 . S
C46 C51 1.261 . S
C47 H14 0.930 . S
C47 N49 1.325 . S
C47 C50 1.357 . S
C48 H16 0.928 . S
C48 C46 1.406 . S
C48 N49 1.261 . S
N49 Co0 2.214 . S
N49 C47 1.325 . S
N49 C48 1.261 . S
C50 H20 0.931 . S
C50 C47 1.357 . S
C50 C51 1.312 . S
C51 H22 0.930 . S
C51 C46 1.261 . S
C51 C50 1.312 . S
C52 O24 1.214 . S
C52 O32 1.234 . S
C53 H25 0.929 . S
C53 C56 1.391 . S
C53 C58 1.391 . S
C54 H26 0.929 . S
C54 C55 1.390 . S
C54 N57 1.391 . S
C55 H27 0.930 1_545 S
C55 C54 1.390 . S
C55 C56 1.392 . S
C56 H28 0.929 1_545 S
C56 C53 1.391 . S
C56 C55 1.392 . S
N57 Co1 2.257 . S
N57 C54 1.391 . S
N57 C58 1.388 . S
C58 H29 0.930 . S
C58 C53 1.391 . S
C58 N57 1.388 . S
Co59 O61 2.143 . S
Co59 O67 2.074 . S
Co59 O70 2.093 . S
Co59 O83 2.097 . S
Co59 N100 2.151 . S
Co59 N108 2.214 . S
Co60 O61 2.160 . S
Co60 O66 2.058 . S
Co60 O76 2.057 . S
Co60 O91 2.037 . S
Co60 N95 2.145 . S
Co60 N116 2.257 . S
O61 Co59 2.143 . S
O61 Co60 2.160 . S
C62 O63 1.278 . S
C62 O70 1.224 . S
O63 C62 1.278 . S
C64 O65 1.245 . S
C64 O76 1.232 . S
O65 C64 1.245 . S
O66 Co60 2.058 . S
O66 C92 1.269 . S
O67 Co59 2.074 . S
O67 C92 1.257 . S
H68 C93 0.930 . S
H69 C99 0.930 . S
O70 Co59 2.093 . S
O70 C62 1.224 . S
H71 C103 0.929 . S
H72 C105 0.930 . S
H73 C106 0.930 . S
H74 C104 0.929 . S
H75 C107 0.928 . S
O76 Co60 2.057 . S
O76 C64 1.232 . S
H77 C96 0.929 . S
H78 C97 0.929 . S
H79 C109 0.931 . S
H80 C101 0.929 . S
H81 C110 0.930 . S
H82 C102 0.931 . S
O83 Co59 2.097 . S
O83 C111 1.214 . S
H84 C112 0.929 . S
H85 C113 0.929 . S
H86 C114 0.930 1_455 S
H87 C115 0.929 1_455 S
H88 C117 0.930 . S
H89 C94 0.930 . S
H90 C98 0.962 . S
O91 Co60 2.037 . S
O91 C111 1.234 . S
C92 O66 1.269 . S
C92 O67 1.257 . S
C93 H68 0.930 . S
C93 C96 1.388 . S
C93 C98 1.402 1_655 S
C94 H89 0.930 . S
C94 C97 1.404 . S
C94 C98 1.338 1_655 S
N95 Co60 2.145 . S
N95 C96 1.397 . S
N95 C97 1.334 . S
C96 H77 0.929 . S
C96 C93 1.388 . S
C96 N95 1.397 . S
C97 H78 0.929 . S
C97 C94 1.404 . S
C97 N95 1.334 . S
C98 H90 0.962 . S
C98 C93 1.402 1_455 S
C98 C94 1.338 1_455 S
C99 H69 0.930 . S
C99 N100 1.330 . S
C99 C101 1.446 . S
N100 Co59 2.151 . S
N100 C99 1.330 . S
N100 C104 1.418 . S
C101 H80 0.929 . S
C101 C99 1.446 . S
C101 C102 1.332 . S
C102 H82 0.931 . S
C102 C101 1.332 . S
C102 C103 1.267 . S
C103 H71 0.929 . S
C103 C102 1.267 . S
C103 C104 1.251 . S
C104 H74 0.929 . S
C104 N100 1.418 . S
C104 C103 1.251 . S
C105 H72 0.930 . S
C105 C107 1.406 . S
C105 C110 1.261 . S
C106 H73 0.930 . S
C106 N108 1.325 . S
C106 C109 1.357 . S
C107 H75 0.928 . S
C107 C105 1.406 . S
C107 N108 1.261 . S
N108 Co59 2.214 . S
N108 C106 1.325 . S
N108 C107 1.261 . S
C109 H79 0.931 . S
C109 C106 1.357 . S
C109 C110 1.312 . S
C110 H81 0.930 . S
C110 C105 1.261 . S
C110 C109 1.312 . S
C111 O83 1.214 . S
C111 O91 1.234 . S
C112 H84 0.929 . S
C112 C115 1.391 . S
C112 C117 1.391 . S
C113 H85 0.929 . S
C113 C114 1.390 . S
C113 N116 1.391 . S
C114 H86 0.930 1_655 S
C114 C113 1.390 . S
C114 C115 1.392 . S
C115 H87 0.929 1_655 S
C115 C112 1.391 . S
C115 C114 1.392 . S
N116 Co60 2.257 . S
N116 C113 1.391 . S
N116 C117 1.388 . S
C117 H88 0.930 . S
C117 C112 1.391 . S
C117 N116 1.388 . S
Co118 O120 2.143 . S
Co118 O126 2.074 . S
Co118 O129 2.093 . S
Co118 O142 2.097 . S
Co118 N159 2.151 . S
Co118 N167 2.214 . S
Co119 O120 2.160 . S
Co119 O125 2.058 . S
Co119 O135 2.057 . S
Co119 O150 2.037 . S
Co119 N154 2.145 . S
Co119 N175 2.257 . S
O120 Co118 2.143 . S
O120 Co119 2.160 . S
C121 O122 1.278 . S
C121 O129 1.224 . S
O122 C121 1.278 . S
C123 O124 1.245 . S
C123 O135 1.232 . S
O124 C123 1.245 . S
O125 Co119 2.058 . S
O125 C151 1.269 . S
O126 Co118 2.074 . S
O126 C151 1.257 . S
H127 C152 0.930 . S
H128 C158 0.930 . S
O129 Co118 2.093 . S
O129 C121 1.224 . S
H130 C162 0.929 . S
H131 C164 0.930 . S
H132 C165 0.930 . S
H133 C163 0.929 . S
H134 C166 0.928 . S
O135 Co119 2.057 . S
O135 C123 1.232 . S
H136 C155 0.929 . S
H137 C156 0.929 . S
H138 C168 0.931 . S
H139 C160 0.929 . S
H140 C169 0.930 . S
H141 C161 0.931 . S
O142 Co118 2.097 . S
O142 C170 1.214 . S
H143 C171 0.929 . S
H144 C172 0.929 . S
H145 C173 0.930 . S
H146 C174 0.929 . S
H147 C176 0.930 . S
H148 C153 0.930 . S
H149 C157 0.930 . S
O150 Co119 2.037 . S
O150 C170 1.234 . S
C151 O125 1.269 . S
C151 O126 1.257 . S
C152 H127 0.930 . S
C152 C155 1.388 . S
C152 C157 1.418 . S
C153 H148 0.930 . S
C153 C156 1.404 . S
C153 C157 1.353 . S
N154 Co119 2.145 . S
N154 C155 1.397 . S
N154 C156 1.334 . S
C155 H136 0.929 . S
C155 C152 1.388 . S
C155 N154 1.397 . S
C156 H137 0.929 . S
C156 C153 1.404 . S
C156 N154 1.334 . S
C157 H149 0.930 . S
C157 C152 1.418 . S
C157 C153 1.353 . S
C158 H128 0.930 . S
C158 N159 1.330 . S
C158 C160 1.446 . S
N159 Co118 2.151 . S
N159 C158 1.330 . S
N159 C163 1.418 . S
C160 H139 0.929 . S
C160 C158 1.446 . S
C160 C161 1.332 . S
C161 H141 0.931 . S
C161 C160 1.332 . S
C161 C162 1.267 . S
C162 H130 0.929 . S
C162 C161 1.267 . S
C162 C163 1.251 . S
C163 H133 0.929 . S
C163 N159 1.418 . S
C163 C162 1.251 . S
C164 H131 0.930 . S
C164 C166 1.406 . S
C164 C169 1.261 . S
C165 H132 0.930 . S
C165 N167 1.325 . S
C165 C168 1.357 . S
C166 H134 0.928 . S
C166 C164 1.406 . S
C166 N167 1.261 . S
N167 Co118 2.214 . S
N167 C165 1.325 . S
N167 C166 1.261 . S
C168 H138 0.931 . S
C168 C165 1.357 . S
C168 C169 1.312 . S
C169 H140 0.930 . S
C169 C164 1.261 . S
C169 C168 1.312 . S
C170 O142 1.214 . S
C170 O150 1.234 . S
C171 H143 0.929 . S
C171 C174 1.391 . S
C171 C176 1.391 . S
C172 H144 0.929 . S
C172 C173 1.390 . S
C172 N175 1.391 . S
C173 H145 0.930 . S
C173 C172 1.390 . S
C173 C174 1.392 . S
C174 H146 0.929 . S
C174 C171 1.391 . S
C174 C173 1.392 . S
N175 Co119 2.257 . S
N175 C172 1.391 . S
N175 C176 1.388 . S
C176 H147 0.930 . S
C176 C171 1.391 . S
C176 N175 1.388 . S
Co177 O179 2.143 . S
Co177 O185 2.074 . S
Co177 O188 2.124 . S
Co177 O201 2.097 . S
Co177 N218 2.151 . S
Co177 N226 2.214 . S
Co178 O179 2.160 . S
Co178 O184 2.058 . S
Co178 O194 2.057 . S
Co178 O209 2.037 . S
Co178 N213 2.145 . S
Co178 N234 2.257 . S
O179 Co177 2.143 . S
O179 Co178 2.160 . S
C180 O181 1.278 . S
C180 O188 1.207 1_556 S
O181 C180 1.278 . S
C182 O183 1.245 . S
C182 O194 1.232 . S
O183 C182 1.245 . S
O184 Co178 2.058 . S
O184 C210 1.269 . S
O185 Co177 2.074 . S
O185 C210 1.257 . S
H186 C211 0.930 . S
H187 C217 0.930 . S
O188 Co177 2.124 . S
O188 C180 1.207 1_554 S
H189 C221 0.929 . S
H190 C223 0.930 . S
H191 C224 0.930 . S
H192 C222 0.929 . S
H193 C225 0.928 . S
O194 Co178 2.057 . S
O194 C182 1.232 . S
H195 C214 0.929 . S
H196 C215 0.929 . S
H197 C227 0.931 . S
H198 C219 0.929 . S
H199 C228 0.930 . S
H200 C220 0.931 . S
O201 Co177 2.097 . S
O201 C229 1.214 . S
H202 C230 0.929 . S
H203 C231 0.929 . S
H204 C232 0.930 . S
H205 C233 0.929 . S
H206 C235 0.930 . S
H207 C212 0.930 . S
H208 C216 0.930 . S
O209 Co178 2.037 . S
O209 C229 1.234 . S
C210 O184 1.269 . S
C210 O185 1.257 . S
C211 H186 0.930 . S
C211 C214 1.388 . S
C211 C216 1.418 . S
C212 H207 0.930 . S
C212 C215 1.404 . S
C212 C216 1.353 . S
N213 Co178 2.145 . S
N213 C214 1.397 . S
N213 C215 1.334 . S
C214 H195 0.929 . S
C214 C211 1.388 . S
C214 N213 1.397 . S
C215 H196 0.929 . S
C215 C212 1.404 . S
C215 N213 1.334 . S
C216 H208 0.930 . S
C216 C211 1.418 . S
C216 C212 1.353 . S
C217 H187 0.930 . S
C217 N218 1.330 . S
C217 C219 1.446 . S
N218 Co177 2.151 . S
N218 C217 1.330 . S
N218 C222 1.418 . S
C219 H198 0.929 . S
C219 C217 1.446 . S
C219 C220 1.332 . S
C220 H200 0.931 . S
C220 C219 1.332 . S
C220 C221 1.267 . S
C221 H189 0.929 . S
C221 C220 1.267 . S
C221 C222 1.251 . S
C222 H192 0.929 . S
C222 N218 1.418 . S
C222 C221 1.251 . S
C223 H190 0.930 . S
C223 C225 1.406 . S
C223 C228 1.261 . S
C224 H191 0.930 . S
C224 N226 1.325 . S
C224 C227 1.357 . S
C225 H193 0.928 . S
C225 C223 1.406 . S
C225 N226 1.261 . S
N226 Co177 2.214 . S
N226 C224 1.325 . S
N226 C225 1.261 . S
C227 H197 0.931 . S
C227 C224 1.357 . S
C227 C228 1.312 . S
C228 H199 0.930 . S
C228 C223 1.261 . S
C228 C227 1.312 . S
C229 O201 1.214 . S
C229 O209 1.234 . S
C230 H202 0.929 . S
C230 C233 1.391 . S
C230 C235 1.391 1_556 S
C231 H203 0.929 . S
C231 C232 1.390 . S
C231 N234 1.391 . S
C232 H204 0.930 . S
C232 C231 1.390 . S
C232 C233 1.392 1_554 S
C233 H205 0.929 . S
C233 C230 1.391 . S
C233 C232 1.392 1_556 S
N234 Co178 2.257 . S
N234 C231 1.391 . S
N234 C235 1.388 . S
C235 H206 0.930 . S
C235 C230 1.391 1_554 S
C235 N234 1.388 . S
Co236 O238 2.143 . S
Co236 O244 2.074 1_554 S
Co236 O247 2.093 . S
Co236 O260 2.097 . S
Co236 N277 2.151 . S
Co236 N285 2.214 . S
Co237 O238 2.160 1_556 S
Co237 O243 2.058 . S
Co237 O253 2.057 . S
Co237 O268 2.037 . S
Co237 N272 2.145 . S
Co237 N293 2.257 1_556 S
O238 Co236 2.143 . S
O238 Co237 2.160 1_554 S
C239 O240 1.278 . S
C239 O247 1.224 . S
O240 C239 1.278 . S
C241 O242 1.245 1_556 S
C241 O253 1.232 . S
O242 C241 1.245 1_554 S
O243 Co237 2.058 . S
O243 C269 1.269 . S
O244 Co236 2.074 1_556 S
O244 C269 1.257 . S
H245 C270 0.930 . S
H246 C276 0.930 . S
O247 Co236 2.093 . S
O247 C239 1.224 . S
H248 C280 0.933 . S
H249 C282 0.930 . S
H250 C283 0.930 1_556 S
H251 C281 0.940 . S
H252 C284 0.928 . S
O253 Co237 2.057 . S
O253 C241 1.232 . S
H254 C273 0.929 . S
H255 C274 0.929 . S
H256 C286 0.931 . S
H257 C278 0.929 . S
H258 C287 0.930 . S
H259 C279 0.931 . S
O260 Co236 2.097 . S
O260 C288 1.214 . S
H261 C289 0.929 . S
H262 C290 0.929 . S
H263 C291 0.930 . S
H264 C292 0.929 . S
H265 C294 0.930 . S
H266 C271 0.930 . S
H267 C275 0.930 . S
O268 Co237 2.037 . S
O268 C288 1.234 1_556 S
C269 O243 1.269 . S
C269 O244 1.257 . S
C270 H245 0.930 . S
C270 C273 1.388 . S
C270 C275 1.418 . S
C271 H266 0.930 . S
C271 C274 1.404 . S
C271 C275 1.353 . S
N272 Co237 2.145 . S
N272 C273 1.397 . S
N272 C274 1.334 . S
C273 H254 0.929 . S
C273 C270 1.388 . S
C273 N272 1.397 . S
C274 H255 0.929 . S
C274 C271 1.404 . S
C274 N272 1.334 . S
C275 H267 0.930 . S
C275 C270 1.418 . S
C275 C271 1.353 . S
C276 H246 0.930 . S
C276 N277 1.330 . S
C276 C278 1.446 . S
N277 Co236 2.151 . S
N277 C276 1.330 . S
N277 C281 1.408 1_554 S
C278 H257 0.929 . S
C278 C276 1.446 . S
C278 C279 1.332 . S
C279 H259 0.931 . S
C279 C278 1.332 . S
C279 C280 1.263 1_554 S
C280 H248 0.933 . S
C280 C279 1.263 1_556 S
C280 C281 1.251 . S
C281 H251 0.940 . S
C281 N277 1.408 1_556 S
C281 C280 1.251 . S
C282 H249 0.930 . S
C282 C284 1.406 . S
C282 C287 1.261 . S
C283 H250 0.930 1_554 S
C283 N285 1.325 . S
C283 C286 1.357 1_554 S
C284 H252 0.928 . S
C284 C282 1.406 . S
C284 N285 1.261 . S
N285 Co236 2.214 . S
N285 C283 1.325 . S
N285 C284 1.261 . S
C286 H256 0.931 . S
C286 C283 1.357 1_556 S
C286 C287 1.312 1_556 S
C287 H258 0.930 . S
C287 C282 1.261 . S
C287 C286 1.312 1_554 S
C288 O260 1.214 . S
C288 O268 1.234 1_554 S
C289 H261 0.929 . S
C289 C292 1.391 . S
C289 C294 1.391 . S
C290 H262 0.929 . S
C290 C291 1.390 . S
C290 N293 1.391 . S
C291 H263 0.930 . S
C291 C290 1.390 . S
C291 C292 1.392 . S
C292 H264 0.929 . S
C292 C289 1.391 . S
C292 C291 1.392 . S
N293 Co237 2.257 1_554 S
N293 C290 1.391 . S
N293 C294 1.388 . S
C294 H265 0.930 . S
C294 C289 1.391 . S
C294 N293 1.388 . S
Co295 O297 2.143 . S
Co295 O303 2.074 . S
Co295 O306 2.093 . S
Co295 O319 2.097 . S
Co295 N336 2.151 . S
Co295 N344 2.214 . S
Co296 O297 2.160 . S
Co296 O302 2.058 . S
Co296 O312 2.057 . S
Co296 O327 2.037 . S
Co296 N331 2.145 . S
Co296 N352 2.257 . S
O297 Co295 2.143 . S
O297 Co296 2.160 . S
C298 O299 1.278 . S
C298 O306 1.224 . S
O299 C298 1.278 . S
C300 O301 1.245 . S
C300 O312 1.232 . S
O301 C300 1.245 . S
O302 Co296 2.058 . S
O302 C328 1.269 . S
O303 Co295 2.074 . S
O303 C328 1.257 . S
H304 C329 0.930 . S
H305 C335 0.930 . S
O306 Co295 2.093 . S
O306 C298 1.224 . S
H307 C339 0.929 . S
H308 C341 0.930 . S
H309 C342 0.930 . S
H310 C340 0.929 . S
H311 C343 0.928 . S
O312 Co296 2.057 . S
O312 C300 1.232 . S
H313 C332 0.929 . S
H314 C333 0.929 . S
H315 C345 0.931 . S
H316 C337 0.929 . S
H317 C346 0.930 . S
H318 C338 0.931 . S
O319 Co295 2.097 . S
O319 C347 1.214 . S
H320 C348 0.929 . S
H321 C349 0.929 . S
H322 C350 0.930 . S
H323 C351 0.929 . S
H324 C353 0.930 . S
H325 C330 0.930 . S
H326 C334 0.930 . S
O327 Co296 2.037 . S
O327 C347 1.234 . S
C328 O302 1.269 . S
C328 O303 1.257 . S
C329 H304 0.930 . S
C329 C332 1.388 . S
C329 C334 1.418 . S
C330 H325 0.930 . S
C330 C333 1.404 . S
C330 C334 1.353 . S
N331 Co296 2.145 . S
N331 C332 1.397 . S
N331 C333 1.334 . S
C332 H313 0.929 . S
C332 C329 1.388 . S
C332 N331 1.397 . S
C333 H314 0.929 . S
C333 C330 1.404 . S
C333 N331 1.334 . S
C334 H326 0.930 . S
C334 C329 1.418 . S
C334 C330 1.353 . S
C335 H305 0.930 . S
C335 N336 1.330 . S
C335 C337 1.446 . S
N336 Co295 2.151 . S
N336 C335 1.330 . S
N336 C340 1.418 . S
C337 H316 0.929 . S
C337 C335 1.446 . S
C337 C338 1.332 . S
C338 H318 0.931 . S
C338 C337 1.332 . S
C338 C339 1.267 . S
C339 H307 0.929 . S
C339 C338 1.267 . S
C339 C340 1.251 . S
C340 H310 0.929 . S
C340 N336 1.418 . S
C340 C339 1.251 . S
C341 H308 0.930 . S
C341 C343 1.406 . S
C341 C346 1.261 . S
C342 H309 0.930 . S
C342 N344 1.325 . S
C342 C345 1.357 . S
C343 H311 0.928 . S
C343 C341 1.406 . S
C343 N344 1.261 . S
N344 Co295 2.214 . S
N344 C342 1.325 . S
N344 C343 1.261 . S
C345 H315 0.931 . S
C345 C342 1.357 . S
C345 C346 1.312 . S
C346 H317 0.930 . S
C346 C341 1.261 . S
C346 C345 1.312 . S
C347 O319 1.214 . S
C347 O327 1.234 . S
C348 H320 0.929 . S
C348 C351 1.391 . S
C348 C353 1.391 . S
C349 H321 0.929 . S
C349 C350 1.390 . S
C349 N352 1.391 . S
C350 H322 0.930 . S
C350 C349 1.390 . S
C350 C351 1.392 . S
C351 H323 0.929 . S
C351 C348 1.391 . S
C351 C350 1.392 . S
N352 Co296 2.257 . S
N352 C349 1.391 . S
N352 C353 1.388 . S
C353 H324 0.930 . S
C353 C348 1.391 . S
C353 N352 1.388 . S
Co354 O356 2.143 . S
Co354 O362 2.074 . S
Co354 O365 2.093 . S
Co354 O378 2.097 . S
Co354 N395 2.151 . S
Co354 N403 2.214 . S
Co355 O356 2.160 . S
Co355 O361 2.058 . S
Co355 O371 2.057 . S
Co355 O386 2.037 . S
Co355 N390 2.145 . S
Co355 N411 2.257 . S
O356 Co354 2.143 . S
O356 Co355 2.160 . S
C357 O358 1.278 . S
C357 O365 1.224 . S
O358 C357 1.278 . S
C359 O360 1.245 . S
C359 O371 1.232 . S
O360 C359 1.245 . S
O361 Co355 2.058 . S
O361 C387 1.269 . S
O362 Co354 2.074 . S
O362 C387 1.257 . S
H363 C388 0.930 . S
H364 C394 0.930 . S
O365 Co354 2.093 . S
O365 C357 1.224 . S
H366 C398 0.929 . S
H367 C400 0.930 . S
H368 C401 0.930 . S
H369 C399 0.929 . S
H370 C402 0.928 . S
O371 Co355 2.057 . S
O371 C359 1.232 . S
H372 C391 0.929 . S
H373 C392 0.929 . S
H374 C404 0.931 . S
H375 C396 0.929 . S
H376 C405 0.930 . S
H377 C397 0.931 . S
O378 Co354 2.097 . S
O378 C406 1.214 . S
H379 C407 0.929 . S
H380 C408 0.929 . S
H381 C409 0.930 1_565 S
H382 C410 0.929 1_565 S
H383 C412 0.930 . S
H384 C389 0.930 . S
H385 C393 0.962 . S
O386 Co355 2.037 . S
O386 C406 1.234 . S
C387 O361 1.269 . S
C387 O362 1.257 . S
C388 H363 0.930 . S
C388 C391 1.388 . S
C388 C393 1.402 1_545 S
C389 H384 0.930 . S
C389 C392 1.404 . S
C389 C393 1.338 1_545 S
N390 Co355 2.145 . S
N390 C391 1.397 . S
N390 C392 1.334 . S
C391 H372 0.929 . S
C391 C388 1.388 . S
C391 N390 1.397 . S
C392 H373 0.929 . S
C392 C389 1.404 . S
C392 N390 1.334 . S
C393 H385 0.962 . S
C393 C388 1.402 1_565 S
C393 C389 1.338 1_565 S
C394 H364 0.930 . S
C394 N395 1.330 . S
C394 C396 1.446 . S
N395 Co354 2.151 . S
N395 C394 1.330 . S
N395 C399 1.418 . S
C396 H375 0.929 . S
C396 C394 1.446 . S
C396 C397 1.332 . S
C397 H377 0.931 . S
C397 C396 1.332 . S
C397 C398 1.267 . S
C398 H366 0.929 . S
C398 C397 1.267 . S
C398 C399 1.251 . S
C399 H369 0.929 . S
C399 N395 1.418 . S
C399 C398 1.251 . S
C400 H367 0.930 . S
C400 C402 1.406 . S
C400 C405 1.261 . S
C401 H368 0.930 . S
C401 N403 1.325 . S
C401 C404 1.357 . S
C402 H370 0.928 . S
C402 C400 1.406 . S
C402 N403 1.261 . S
N403 Co354 2.214 . S
N403 C401 1.325 . S
N403 C402 1.261 . S
C404 H374 0.931 . S
C404 C401 1.357 . S
C404 C405 1.312 . S
C405 H376 0.930 . S
C405 C400 1.261 . S
C405 C404 1.312 . S
C406 O378 1.214 . S
C406 O386 1.234 . S
C407 H379 0.929 . S
C407 C410 1.391 . S
C407 C412 1.391 . S
C408 H380 0.929 . S
C408 C409 1.390 . S
C408 N411 1.391 . S
C409 H381 0.930 1_545 S
C409 C408 1.390 . S
C409 C410 1.392 . S
C410 H382 0.929 1_545 S
C410 C407 1.391 . S
C410 C409 1.392 . S
N411 Co355 2.257 . S
N411 C408 1.391 . S
N411 C412 1.388 . S
C412 H383 0.930 . S
C412 C407 1.391 . S
C412 N411 1.388 . S
Co413 O415 2.143 . S
Co413 O421 2.074 . S
Co413 O424 2.093 . S
Co413 O437 2.097 . S
Co413 N454 2.151 . S
Co413 N462 2.214 . S
Co414 O415 2.160 . S
Co414 O420 2.058 . S
Co414 O430 2.057 . S
Co414 O445 2.037 . S
Co414 N449 2.145 . S
Co414 N470 2.257 . S
O415 Co413 2.143 . S
O415 Co414 2.160 . S
C416 O417 1.278 . S
C416 O424 1.224 . S
O417 C416 1.278 . S
C418 O419 1.245 . S
C418 O430 1.232 . S
O419 C418 1.245 . S
O420 Co414 2.058 . S
O420 C446 1.269 . S
O421 Co413 2.074 . S
O421 C446 1.257 . S
H422 C447 0.930 . S
H423 C453 0.930 . S
O424 Co413 2.093 . S
O424 C416 1.224 . S
H425 C457 0.929 . S
H426 C459 0.930 . S
H427 C460 0.930 . S
H428 C458 0.929 . S
H429 C461 0.928 . S
O430 Co414 2.057 . S
O430 C418 1.232 . S
H431 C450 0.929 . S
H432 C451 0.929 . S
H433 C463 0.931 . S
H434 C455 0.929 . S
H435 C464 0.930 . S
H436 C456 0.931 . S
O437 Co413 2.097 . S
O437 C465 1.214 . S
H438 C466 0.929 . S
H439 C467 0.929 . S
H440 C468 0.930 1_455 S
H441 C469 0.929 1_455 S
H442 C471 0.930 . S
H443 C448 0.930 . S
H444 C452 0.963 . S
O445 Co414 2.037 . S
O445 C465 1.234 . S
C446 O420 1.269 . S
C446 O421 1.257 . S
C447 H422 0.930 . S
C447 C450 1.388 . S
C447 C452 1.402 1_655 S
C448 H443 0.930 . S
C448 C451 1.404 . S
C448 C452 1.337 1_655 S
N449 Co414 2.145 . S
N449 C450 1.397 . S
N449 C451 1.334 . S
C450 H431 0.929 . S
C450 C447 1.388 . S
C450 N449 1.397 . S
C451 H432 0.929 . S
C451 C448 1.404 . S
C451 N449 1.334 . S
C452 H444 0.963 . S
C452 C447 1.402 1_455 S
C452 C448 1.337 1_455 S
C453 H423 0.930 . S
C453 N454 1.330 . S
C453 C455 1.446 . S
N454 Co413 2.151 . S
N454 C453 1.330 . S
N454 C458 1.418 . S
C455 H434 0.929 . S
C455 C453 1.446 . S
C455 C456 1.332 . S
C456 H436 0.931 . S
C456 C455 1.332 . S
C456 C457 1.267 . S
C457 H425 0.929 . S
C457 C456 1.267 . S
C457 C458 1.251 . S
C458 H428 0.929 . S
C458 N454 1.418 . S
C458 C457 1.251 . S
C459 H426 0.930 . S
C459 C461 1.406 . S
C459 C464 1.261 . S
C460 H427 0.930 . S
C460 N462 1.325 . S
C460 C463 1.357 . S
C461 H429 0.928 . S
C461 C459 1.406 . S
C461 N462 1.261 . S
N462 Co413 2.214 . S
N462 C460 1.325 . S
N462 C461 1.261 . S
C463 H433 0.931 . S
C463 C460 1.357 . S
C463 C464 1.312 . S
C464 H435 0.930 . S
C464 C459 1.261 . S
C464 C463 1.312 . S
C465 O437 1.214 . S
C465 O445 1.234 . S
C466 H438 0.929 . S
C466 C469 1.391 . S
C466 C471 1.391 . S
C467 H439 0.929 . S
C467 C468 1.390 . S
C467 N470 1.391 . S
C468 H440 0.930 1_655 S
C468 C467 1.390 . S
C468 C469 1.392 . S
C469 H441 0.929 1_655 S
C469 C466 1.391 . S
C469 C468 1.392 . S
N470 Co414 2.257 . S
N470 C467 1.391 . S
N470 C471 1.388 . S
C471 H442 0.930 . S
C471 C466 1.391 . S
C471 N470 1.388 . S
Co472 O474 2.143 . S
Co472 O480 2.074 . S
Co472 O483 2.093 . S
Co472 O496 2.097 . S
Co472 N513 2.151 . S
Co472 N521 2.214 . S
Co473 O474 2.160 . S
Co473 O479 2.058 . S
Co473 O489 2.057 . S
Co473 O504 2.037 . S
Co473 N508 2.145 . S
Co473 N529 2.257 . S
O474 Co472 2.143 . S
O474 Co473 2.160 . S
C475 O476 1.278 . S
C475 O483 1.224 . S
O476 C475 1.278 . S
C477 O478 1.245 . S
C477 O489 1.232 . S
O478 C477 1.245 . S
O479 Co473 2.058 . S
O479 C505 1.269 . S
O480 Co472 2.074 . S
O480 C505 1.257 . S
H481 C506 0.930 . S
H482 C512 0.930 . S
O483 Co472 2.093 . S
O483 C475 1.224 . S
H484 C516 0.929 . S
H485 C518 0.930 . S
H486 C519 0.930 . S
H487 C517 0.929 . S
H488 C520 0.928 . S
O489 Co473 2.057 . S
O489 C477 1.232 . S
H490 C509 0.929 . S
H491 C510 0.929 . S
H492 C522 0.931 . S
H493 C514 0.929 . S
H494 C523 0.930 . S
H495 C515 0.931 . S
O496 Co472 2.097 . S
O496 C524 1.214 . S
H497 C525 0.929 . S
H498 C526 0.929 . S
H499 C527 0.930 . S
H500 C528 0.929 . S
H501 C530 0.930 . S
H502 C507 0.930 . S
H503 C511 0.930 . S
O504 Co473 2.037 . S
O504 C524 1.234 . S
C505 O479 1.269 . S
C505 O480 1.257 . S
C506 H481 0.930 . S
C506 C509 1.388 . S
C506 C511 1.418 . S
C507 H502 0.930 . S
C507 C510 1.404 . S
C507 C511 1.353 . S
N508 Co473 2.145 . S
N508 C509 1.397 . S
N508 C510 1.334 . S
C509 H490 0.929 . S
C509 C506 1.388 . S
C509 N508 1.397 . S
C510 H491 0.929 . S
C510 C507 1.404 . S
C510 N508 1.334 . S
C511 H503 0.930 . S
C511 C506 1.418 . S
C511 C507 1.353 . S
C512 H482 0.930 . S
C512 N513 1.330 . S
C512 C514 1.446 . S
N513 Co472 2.151 . S
N513 C512 1.330 . S
N513 C517 1.418 . S
C514 H493 0.929 . S
C514 C512 1.446 . S
C514 C515 1.332 . S
C515 H495 0.931 . S
C515 C514 1.332 . S
C515 C516 1.267 . S
C516 H484 0.929 . S
C516 C515 1.267 . S
C516 C517 1.251 . S
C517 H487 0.929 . S
C517 N513 1.418 . S
C517 C516 1.251 . S
C518 H485 0.930 . S
C518 C520 1.406 . S
C518 C523 1.261 . S
C519 H486 0.930 . S
C519 N521 1.325 . S
C519 C522 1.357 . S
C520 H488 0.928 . S
C520 C518 1.406 . S
C520 N521 1.261 . S
N521 Co472 2.214 . S
N521 C519 1.325 . S
N521 C520 1.261 . S
C522 H492 0.931 . S
C522 C519 1.357 . S
C522 C523 1.312 . S
C523 H494 0.930 . S
C523 C518 1.261 . S
C523 C522 1.312 . S
C524 O496 1.214 . S
C524 O504 1.234 . S
C525 H497 0.929 . S
C525 C528 1.391 . S
C525 C530 1.391 . S
C526 H498 0.929 . S
C526 C527 1.390 . S
C526 N529 1.391 . S
C527 H499 0.930 . S
C527 C526 1.390 . S
C527 C528 1.392 . S
C528 H500 0.929 . S
C528 C525 1.391 . S
C528 C527 1.392 . S
N529 Co473 2.257 . S
N529 C526 1.391 . S
N529 C530 1.388 . S
C530 H501 0.930 . S
C530 C525 1.391 . S
C530 N529 1.388 . S
Co531 O533 2.143 . S
Co531 O539 2.074 . S
Co531 O542 2.124 . S
Co531 O555 2.097 . S
Co531 N572 2.151 . S
Co531 N580 2.214 . S
Co532 O533 2.160 . S
Co532 O538 2.058 . S
Co532 O548 2.057 . S
Co532 O563 2.037 . S
Co532 N567 2.145 . S
Co532 N588 2.257 . S
O533 Co531 2.143 . S
O533 Co532 2.160 . S
C534 O535 1.278 . S
C534 O542 1.207 1_556 S
O535 C534 1.278 . S
C536 O537 1.245 . S
C536 O548 1.232 . S
O537 C536 1.245 . S
O538 Co532 2.058 . S
O538 C564 1.269 . S
O539 Co531 2.074 . S
O539 C564 1.257 . S
H540 C565 0.930 . S
H541 C571 0.930 . S
O542 Co531 2.124 . S
O542 C534 1.207 1_554 S
H543 C575 0.929 . S
H544 C577 0.930 . S
H545 C578 0.930 . S
H546 C576 0.929 . S
H547 C579 0.928 . S
O548 Co532 2.057 . S
O548 C536 1.232 . S
H549 C568 0.929 . S
H550 C569 0.929 . S
H551 C581 0.931 . S
H552 C573 0.929 . S
H553 C582 0.930 . S
H554 C574 0.931 . S
O555 Co531 2.097 . S
O555 C583 1.214 . S
H556 C584 0.929 . S
H557 C585 0.929 . S
H558 C586 0.930 . S
H559 C587 0.929 . S
H560 C589 0.930 . S
H561 C566 0.930 . S
H562 C570 0.930 . S
O563 Co532 2.037 . S
O563 C583 1.234 . S
C564 O538 1.269 . S
C564 O539 1.257 . S
C565 H540 0.930 . S
C565 C568 1.388 . S
C565 C570 1.418 . S
C566 H561 0.930 . S
C566 C569 1.404 . S
C566 C570 1.353 . S
N567 Co532 2.145 . S
N567 C568 1.397 . S
N567 C569 1.334 . S
C568 H549 0.929 . S
C568 C565 1.388 . S
C568 N567 1.397 . S
C569 H550 0.929 . S
C569 C566 1.404 . S
C569 N567 1.334 . S
C570 H562 0.930 . S
C570 C565 1.418 . S
C570 C566 1.353 . S
C571 H541 0.930 . S
C571 N572 1.330 . S
C571 C573 1.446 . S
N572 Co531 2.151 . S
N572 C571 1.330 . S
N572 C576 1.418 . S
C573 H552 0.929 . S
C573 C571 1.446 . S
C573 C574 1.332 . S
C574 H554 0.931 . S
C574 C573 1.332 . S
C574 C575 1.267 . S
C575 H543 0.929 . S
C575 C574 1.267 . S
C575 C576 1.251 . S
C576 H546 0.929 . S
C576 N572 1.418 . S
C576 C575 1.251 . S
C577 H544 0.930 . S
C577 C579 1.406 . S
C577 C582 1.261 . S
C578 H545 0.930 . S
C578 N580 1.325 . S
C578 C581 1.357 . S
C579 H547 0.928 . S
C579 C577 1.406 . S
C579 N580 1.261 . S
N580 Co531 2.214 . S
N580 C578 1.325 . S
N580 C579 1.261 . S
C581 H551 0.931 . S
C581 C578 1.357 . S
C581 C582 1.312 . S
C582 H553 0.930 . S
C582 C577 1.261 . S
C582 C581 1.312 . S
C583 O555 1.214 . S
C583 O563 1.234 . S
C584 H556 0.929 . S
C584 C587 1.391 . S
C584 C589 1.391 1_556 S
C585 H557 0.929 . S
C585 C586 1.390 . S
C585 N588 1.391 . S
C586 H558 0.930 . S
C586 C585 1.390 . S
C586 C587 1.392 1_554 S
C587 H559 0.929 . S
C587 C584 1.391 . S
C587 C586 1.392 1_556 S
N588 Co532 2.257 . S
N588 C585 1.391 . S
N588 C589 1.388 . S
C589 H560 0.930 . S
C589 C584 1.391 1_554 S
C589 N588 1.388 . S
Co590 O592 2.143 . S
Co590 O598 2.074 . S
Co590 O601 2.093 . S
Co590 O614 2.097 . S
Co590 N631 2.151 . S
Co590 N639 2.214 . S
Co591 O592 2.160 . S
Co591 O597 2.058 . S
Co591 O607 2.057 . S
Co591 O622 2.037 . S
Co591 N626 2.145 . S
Co591 N647 2.257 . S
O592 Co590 2.143 . S
O592 Co591 2.160 . S
C593 O594 1.278 . S
C593 O601 1.224 . S
O594 C593 1.278 . S
C595 O596 1.245 . S
C595 O607 1.232 . S
O596 C595 1.245 . S
O597 Co591 2.058 . S
O597 C623 1.269 . S
O598 Co590 2.074 . S
O598 C623 1.257 . S
H599 C624 0.930 . S
H600 C630 0.930 . S
O601 Co590 2.093 . S
O601 C593 1.224 . S
H602 C634 0.929 . S
H603 C636 0.930 . S
H604 C637 0.930 . S
H605 C635 0.929 . S
H606 C638 0.928 . S
O607 Co591 2.057 . S
O607 C595 1.232 . S
H608 C627 0.929 . S
H609 C628 0.929 . S
H610 C640 0.931 . S
H611 C632 0.929 . S
H612 C641 0.930 . S
H613 C633 0.931 . S
O614 Co590 2.097 . S
O614 C642 1.214 . S
H615 C643 0.929 . S
H616 C644 0.929 . S
H617 C645 0.930 1_545 S
H618 C646 0.929 1_545 S
H619 C648 0.930 . S
H620 C625 0.930 . S
H621 C629 0.962 . S
O622 Co591 2.037 . S
O622 C642 1.234 . S
C623 O597 1.269 . S
C623 O598 1.257 . S
C624 H599 0.930 . S
C624 C627 1.388 . S
C624 C629 1.402 1_565 S
C625 H620 0.930 . S
C625 C628 1.404 . S
C625 C629 1.338 1_565 S
N626 Co591 2.145 . S
N626 C627 1.397 . S
N626 C628 1.334 . S
C627 H608 0.929 . S
C627 C624 1.388 . S
C627 N626 1.397 . S
C628 H609 0.929 . S
C628 C625 1.404 . S
C628 N626 1.334 . S
C629 H621 0.962 . S
C629 C624 1.402 1_545 S
C629 C625 1.338 1_545 S
C630 H600 0.930 . S
C630 N631 1.330 . S
C630 C632 1.446 . S
N631 Co590 2.151 . S
N631 C630 1.330 . S
N631 C635 1.418 . S
C632 H611 0.929 . S
C632 C630 1.446 . S
C632 C633 1.332 . S
C633 H613 0.931 . S
C633 C632 1.332 . S
C633 C634 1.267 . S
C634 H602 0.929 . S
C634 C633 1.267 . S
C634 C635 1.251 . S
C635 H605 0.929 . S
C635 N631 1.418 . S
C635 C634 1.251 . S
C636 H603 0.930 . S
C636 C638 1.406 . S
C636 C641 1.261 . S
C637 H604 0.930 . S
C637 N639 1.325 . S
C637 C640 1.357 . S
C638 H606 0.928 . S
C638 C636 1.406 . S
C638 N639 1.261 . S
N639 Co590 2.214 . S
N639 C637 1.325 . S
N639 C638 1.261 . S
C640 H610 0.931 . S
C640 C637 1.357 . S
C640 C641 1.312 . S
C641 H612 0.930 . S
C641 C636 1.261 . S
C641 C640 1.312 . S
C642 O614 1.214 . S
C642 O622 1.234 . S
C643 H615 0.929 . S
C643 C646 1.391 . S
C643 C648 1.391 . S
C644 H616 0.929 . S
C644 C645 1.390 . S
C644 N647 1.391 . S
C645 H617 0.930 1_565 S
C645 C644 1.390 . S
C645 C646 1.392 . S
C646 H618 0.929 1_565 S
C646 C643 1.391 . S
C646 C645 1.392 . S
N647 Co591 2.257 . S
N647 C644 1.391 . S
N647 C648 1.388 . S
C648 H619 0.930 . S
C648 C643 1.391 . S
C648 N647 1.388 . S
Co649 O651 2.143 . S
Co649 O657 2.074 . S
Co649 O660 2.093 . S
Co649 O673 2.097 . S
Co649 N690 2.151 . S
Co649 N698 2.214 . S
Co650 O651 2.160 . S
Co650 O656 2.058 . S
Co650 O666 2.057 . S
Co650 O681 2.037 . S
Co650 N685 2.145 . S
Co650 N706 2.257 . S
O651 Co649 2.143 . S
O651 Co650 2.160 . S
C652 O653 1.278 . S
C652 O660 1.224 . S
O653 C652 1.278 . S
C654 O655 1.245 . S
C654 O666 1.232 . S
O655 C654 1.245 . S
O656 Co650 2.058 . S
O656 C682 1.269 . S
O657 Co649 2.074 . S
O657 C682 1.257 . S
H658 C683 0.930 . S
H659 C689 0.930 . S
O660 Co649 2.093 . S
O660 C652 1.224 . S
H661 C693 0.929 . S
H662 C695 0.930 . S
H663 C696 0.930 . S
H664 C694 0.929 . S
H665 C697 0.928 . S
O666 Co650 2.057 . S
O666 C654 1.232 . S
H667 C686 0.929 . S
H668 C687 0.929 . S
H669 C699 0.931 . S
H670 C691 0.929 . S
H671 C700 0.930 . S
H672 C692 0.931 . S
O673 Co649 2.097 . S
O673 C701 1.214 . S
H674 C702 0.929 . S
H675 C703 0.929 . S
H676 C704 0.930 1_655 S
H677 C705 0.929 1_655 S
H678 C707 0.930 . S
H679 C684 0.930 . S
H680 C688 0.962 . S
O681 Co650 2.037 . S
O681 C701 1.234 . S
C682 O656 1.269 . S
C682 O657 1.257 . S
C683 H658 0.930 . S
C683 C686 1.388 . S
C683 C688 1.402 1_455 S
C684 H679 0.930 . S
C684 C687 1.404 . S
C684 C688 1.338 1_455 S
N685 Co650 2.145 . S
N685 C686 1.397 . S
N685 C687 1.334 . S
C686 H667 0.929 . S
C686 C683 1.388 . S
C686 N685 1.397 . S
C687 H668 0.929 . S
C687 C684 1.404 . S
C687 N685 1.334 . S
C688 H680 0.962 . S
C688 C683 1.402 1_655 S
C688 C684 1.338 1_655 S
C689 H659 0.930 . S
C689 N690 1.330 . S
C689 C691 1.446 . S
N690 Co649 2.151 . S
N690 C689 1.330 . S
N690 C694 1.418 . S
C691 H670 0.929 . S
C691 C689 1.446 . S
C691 C692 1.332 . S
C692 H672 0.931 . S
C692 C691 1.332 . S
C692 C693 1.267 . S
C693 H661 0.929 . S
C693 C692 1.267 . S
C693 C694 1.251 . S
C694 H664 0.929 . S
C694 N690 1.418 . S
C694 C693 1.251 . S
C695 H662 0.930 . S
C695 C697 1.406 . S
C695 C700 1.261 . S
C696 H663 0.930 . S
C696 N698 1.325 . S
C696 C699 1.357 . S
C697 H665 0.928 . S
C697 C695 1.406 . S
C697 N698 1.261 . S
N698 Co649 2.214 . S
N698 C696 1.325 . S
N698 C697 1.261 . S
C699 H669 0.931 . S
C699 C696 1.357 . S
C699 C700 1.312 . S
C700 H671 0.930 . S
C700 C695 1.261 . S
C700 C699 1.312 . S
C701 O673 1.214 . S
C701 O681 1.234 . S
C702 H674 0.929 . S
C702 C705 1.391 . S
C702 C707 1.391 . S
C703 H675 0.929 . S
C703 C704 1.390 . S
C703 N706 1.391 . S
C704 H676 0.930 1_455 S
C704 C703 1.390 . S
C704 C705 1.392 . S
C705 H677 0.929 1_455 S
C705 C702 1.391 . S
C705 C704 1.392 . S
N706 Co650 2.257 . S
N706 C703 1.391 . S
N706 C707 1.388 . S
C707 H678 0.930 . S
C707 C702 1.391 . S
C707 N706 1.388 . S
Co708 O710 2.143 . S
Co708 O716 2.074 . S
Co708 O719 2.093 . S
Co708 O732 2.097 . S
Co708 N749 2.151 . S
Co708 N757 2.214 . S
Co709 O710 2.160 . S
Co709 O715 2.058 . S
Co709 O725 2.057 . S
Co709 O740 2.037 . S
Co709 N744 2.145 . S
Co709 N765 2.257 . S
O710 Co708 2.143 . S
O710 Co709 2.160 . S
C711 O712 1.278 . S
C711 O719 1.224 . S
O712 C711 1.278 . S
C713 O714 1.245 . S
C713 O725 1.232 . S
O714 C713 1.245 . S
O715 Co709 2.058 . S
O715 C741 1.269 . S
O716 Co708 2.074 . S
O716 C741 1.257 . S
H717 C742 0.930 . S
H718 C748 0.930 . S
O719 Co708 2.093 . S
O719 C711 1.224 . S
H720 C752 0.929 . S
H721 C754 0.930 . S
H722 C755 0.930 . S
H723 C753 0.929 . S
H724 C756 0.928 . S
O725 Co709 2.057 . S
O725 C713 1.232 . S
H726 C745 0.929 . S
H727 C746 0.929 . S
H728 C758 0.931 . S
H729 C750 0.929 . S
H730 C759 0.930 . S
H731 C751 0.931 . S
O732 Co708 2.097 . S
O732 C760 1.214 . S
H733 C761 0.929 . S
H734 C762 0.929 . S
H735 C763 0.930 1_545 S
H736 C764 0.929 1_545 S
H737 C766 0.930 . S
H738 C743 0.930 . S
H739 C747 0.962 . S
O740 Co709 2.037 . S
O740 C760 1.234 . S
C741 O715 1.269 . S
C741 O716 1.257 . S
C742 H717 0.930 . S
C742 C745 1.388 . S
C742 C747 1.402 1_565 S
C743 H738 0.930 . S
C743 C746 1.404 . S
C743 C747 1.338 1_565 S
N744 Co709 2.145 . S
N744 C745 1.397 . S
N744 C746 1.334 . S
C745 H726 0.929 . S
C745 C742 1.388 . S
C745 N744 1.397 . S
C746 H727 0.929 . S
C746 C743 1.404 . S
C746 N744 1.334 . S
C747 H739 0.962 . S
C747 C742 1.402 1_545 S
C747 C743 1.338 1_545 S
C748 H718 0.930 . S
C748 N749 1.330 . S
C748 C750 1.446 . S
N749 Co708 2.151 . S
N749 C748 1.330 . S
N749 C753 1.418 . S
C750 H729 0.929 . S
C750 C748 1.446 . S
C750 C751 1.332 . S
C751 H731 0.931 . S
C751 C750 1.332 . S
C751 C752 1.267 . S
C752 H720 0.929 . S
C752 C751 1.267 . S
C752 C753 1.251 . S
C753 H723 0.929 . S
C753 N749 1.418 . S
C753 C752 1.251 . S
C754 H721 0.930 . S
C754 C756 1.406 . S
C754 C759 1.261 . S
C755 H722 0.930 . S
C755 N757 1.325 . S
C755 C758 1.357 . S
C756 H724 0.928 . S
C756 C754 1.406 . S
C756 N757 1.261 . S
N757 Co708 2.214 . S
N757 C755 1.325 . S
N757 C756 1.261 . S
C758 H728 0.931 . S
C758 C755 1.357 . S
C758 C759 1.312 . S
C759 H730 0.930 . S
C759 C754 1.261 . S
C759 C758 1.312 . S
C760 O732 1.214 . S
C760 O740 1.234 . S
C761 H733 0.929 . S
C761 C764 1.391 . S
C761 C766 1.391 . S
C762 H734 0.929 . S
C762 C763 1.390 . S
C762 N765 1.391 . S
C763 H735 0.930 1_565 S
C763 C762 1.390 . S
C763 C764 1.392 . S
C764 H736 0.929 1_565 S
C764 C761 1.391 . S
C764 C763 1.392 . S
N765 Co709 2.257 . S
N765 C762 1.391 . S
N765 C766 1.388 . S
C766 H737 0.930 . S
C766 C761 1.391 . S
C766 N765 1.388 . S
Co767 O769 2.143 . S
Co767 O775 2.074 . S
Co767 O778 2.093 . S
Co767 O791 2.097 . S
Co767 N808 2.151 . S
Co767 N816 2.214 . S
Co768 O769 2.160 . S
Co768 O774 2.058 . S
Co768 O784 2.057 . S
Co768 O799 2.037 . S
Co768 N803 2.145 . S
Co768 N824 2.257 . S
O769 Co767 2.143 . S
O769 Co768 2.160 . S
C770 O771 1.278 . S
C770 O778 1.224 . S
O771 C770 1.278 . S
C772 O773 1.245 . S
C772 O784 1.232 . S
O773 C772 1.245 . S
O774 Co768 2.058 . S
O774 C800 1.269 . S
O775 Co767 2.074 . S
O775 C800 1.257 . S
H776 C801 0.930 . S
H777 C807 0.930 . S
O778 Co767 2.093 . S
O778 C770 1.224 . S
H779 C811 0.929 . S
H780 C813 0.930 . S
H781 C814 0.930 . S
H782 C812 0.929 . S
H783 C815 0.928 . S
O784 Co768 2.057 . S
O784 C772 1.232 . S
H785 C804 0.929 . S
H786 C805 0.929 . S
H787 C817 0.931 . S
H788 C809 0.929 . S
H789 C818 0.930 . S
H790 C810 0.931 . S
O791 Co767 2.097 . S
O791 C819 1.214 . S
H792 C820 0.929 . S
H793 C821 0.929 . S
H794 C822 0.930 1_655 S
H795 C823 0.929 1_655 S
H796 C825 0.930 . S
H797 C802 0.930 . S
H798 C806 0.963 . S
O799 Co768 2.037 . S
O799 C819 1.234 . S
C800 O774 1.269 . S
C800 O775 1.257 . S
C801 H776 0.930 . S
C801 C804 1.388 . S
C801 C806 1.402 1_455 S
C802 H797 0.930 . S
C802 C805 1.404 . S
C802 C806 1.337 1_455 S
N803 Co768 2.145 . S
N803 C804 1.397 . S
N803 C805 1.334 . S
C804 H785 0.929 . S
C804 C801 1.388 . S
C804 N803 1.397 . S
C805 H786 0.929 . S
C805 C802 1.404 . S
C805 N803 1.334 . S
C806 H798 0.963 . S
C806 C801 1.402 1_655 S
C806 C802 1.337 1_655 S
C807 H777 0.930 . S
C807 N808 1.330 . S
C807 C809 1.446 . S
N808 Co767 2.151 . S
N808 C807 1.330 . S
N808 C812 1.418 . S
C809 H788 0.929 . S
C809 C807 1.446 . S
C809 C810 1.332 . S
C810 H790 0.931 . S
C810 C809 1.332 . S
C810 C811 1.267 . S
C811 H779 0.929 . S
C811 C810 1.267 . S
C811 C812 1.251 . S
C812 H782 0.929 . S
C812 N808 1.418 . S
C812 C811 1.251 . S
C813 H780 0.930 . S
C813 C815 1.406 . S
C813 C818 1.261 . S
C814 H781 0.930 . S
C814 N816 1.325 . S
C814 C817 1.357 . S
C815 H783 0.928 . S
C815 C813 1.406 . S
C815 N816 1.261 . S
N816 Co767 2.214 . S
N816 C814 1.325 . S
N816 C815 1.261 . S
C817 H787 0.931 . S
C817 C814 1.357 . S
C817 C818 1.312 . S
C818 H789 0.930 . S
C818 C813 1.261 . S
C818 C817 1.312 . S
C819 O791 1.214 . S
C819 O799 1.234 . S
C820 H792 0.929 . S
C820 C823 1.391 . S
C820 C825 1.391 . S
C821 H793 0.929 . S
C821 C822 1.390 . S
C821 N824 1.391 . S
C822 H794 0.930 1_455 S
C822 C821 1.390 . S
C822 C823 1.392 . S
C823 H795 0.929 1_455 S
C823 C820 1.391 . S
C823 C822 1.392 . S
N824 Co768 2.257 . S
N824 C821 1.391 . S
N824 C825 1.388 . S
C825 H796 0.930 . S
C825 C820 1.391 . S
C825 N824 1.388 . S
Co826 O828 2.143 . S
Co826 O834 2.074 1_554 S
Co826 O837 2.093 . S
Co826 O850 2.097 . S
Co826 N867 2.151 . S
Co826 N875 2.214 . S
Co827 O828 2.160 1_556 S
Co827 O833 2.058 . S
Co827 O843 2.057 . S
Co827 O858 2.037 . S
Co827 N862 2.145 . S
Co827 N883 2.257 1_556 S
O828 Co826 2.143 . S
O828 Co827 2.160 1_554 S
C829 O830 1.278 . S
C829 O837 1.224 . S
O830 C829 1.278 . S
C831 O832 1.245 1_556 S
C831 O843 1.232 . S
O832 C831 1.245 1_554 S
O833 Co827 2.058 . S
O833 C859 1.269 . S
O834 Co826 2.074 1_556 S
O834 C859 1.257 . S
H835 C860 0.930 . S
H836 C866 0.930 . S
O837 Co826 2.093 . S
O837 C829 1.224 . S
H838 C870 0.933 . S
H839 C872 0.930 . S
H840 C873 0.930 1_556 S
H841 C871 0.940 . S
H842 C874 0.928 . S
O843 Co827 2.057 . S
O843 C831 1.232 . S
H844 C863 0.929 . S
H845 C864 0.929 . S
H846 C876 0.931 . S
H847 C868 0.929 . S
H848 C877 0.930 . S
H849 C869 0.931 . S
O850 Co826 2.097 . S
O850 C878 1.214 . S
H851 C879 0.929 . S
H852 C880 0.929 . S
H853 C881 0.930 . S
H854 C882 0.929 . S
H855 C884 0.930 . S
H856 C861 0.930 . S
H857 C865 0.930 . S
O858 Co827 2.037 . S
O858 C878 1.234 1_556 S
C859 O833 1.269 . S
C859 O834 1.257 . S
C860 H835 0.930 . S
C860 C863 1.388 . S
C860 C865 1.418 . S
C861 H856 0.930 . S
C861 C864 1.404 . S
C861 C865 1.353 . S
N862 Co827 2.145 . S
N862 C863 1.397 . S
N862 C864 1.334 . S
C863 H844 0.929 . S
C863 C860 1.388 . S
C863 N862 1.397 . S
C864 H845 0.929 . S
C864 C861 1.404 . S
C864 N862 1.334 . S
C865 H857 0.930 . S
C865 C860 1.418 . S
C865 C861 1.353 . S
C866 H836 0.930 . S
C866 N867 1.330 . S
C866 C868 1.446 . S
N867 Co826 2.151 . S
N867 C866 1.330 . S
N867 C871 1.408 1_554 S
C868 H847 0.929 . S
C868 C866 1.446 . S
C868 C869 1.332 . S
C869 H849 0.931 . S
C869 C868 1.332 . S
C869 C870 1.263 1_554 S
C870 H838 0.933 . S
C870 C869 1.263 1_556 S
C870 C871 1.251 . S
C871 H841 0.940 . S
C871 N867 1.408 1_556 S
C871 C870 1.251 . S
C872 H839 0.930 . S
C872 C874 1.406 . S
C872 C877 1.261 . S
C873 H840 0.930 1_554 S
C873 N875 1.325 . S
C873 C876 1.357 1_554 S
C874 H842 0.928 . S
C874 C872 1.406 . S
C874 N875 1.261 . S
N875 Co826 2.214 . S
N875 C873 1.325 . S
N875 C874 1.261 . S
C876 H846 0.931 . S
C876 C873 1.357 1_556 S
C876 C877 1.312 1_556 S
C877 H848 0.930 . S
C877 C872 1.261 . S
C877 C876 1.312 1_554 S
C878 O850 1.214 . S
C878 O858 1.234 1_554 S
C879 H851 0.929 . S
C879 C882 1.391 . S
C879 C884 1.391 . S
C880 H852 0.929 . S
C880 C881 1.390 . S
C880 N883 1.391 . S
C881 H853 0.930 . S
C881 C880 1.390 . S
C881 C882 1.392 . S
C882 H854 0.929 . S
C882 C879 1.391 . S
C882 C881 1.392 . S
N883 Co827 2.257 1_554 S
N883 C880 1.391 . S
N883 C884 1.388 . S
C884 H855 0.930 . S
C884 C879 1.391 . S
C884 N883 1.388 . S
Co885 O887 2.143 . S
Co885 O893 2.074 . S
Co885 O896 2.093 . S
Co885 O909 2.097 . S
Co885 N926 2.151 . S
Co885 N934 2.214 . S
Co886 O887 2.160 . S
Co886 O892 2.058 . S
Co886 O902 2.057 . S
Co886 O917 2.037 . S
Co886 N921 2.145 . S
Co886 N942 2.257 . S
O887 Co885 2.143 . S
O887 Co886 2.160 . S
C888 O889 1.278 . S
C888 O896 1.224 . S
O889 C888 1.278 . S
C890 O891 1.245 . S
C890 O902 1.232 . S
O891 C890 1.245 . S
O892 Co886 2.058 . S
O892 C918 1.269 . S
O893 Co885 2.074 . S
O893 C918 1.257 . S
H894 C919 0.930 . S
H895 C925 0.930 . S
O896 Co885 2.093 . S
O896 C888 1.224 . S
H897 C929 0.929 . S
H898 C931 0.930 . S
H899 C932 0.930 . S
H900 C930 0.929 . S
H901 C933 0.928 . S
O902 Co886 2.057 . S
O902 C890 1.232 . S
H903 C922 0.929 . S
H904 C923 0.929 . S
H905 C935 0.931 . S
H906 C927 0.929 . S
H907 C936 0.930 . S
H908 C928 0.931 . S
O909 Co885 2.097 . S
O909 C937 1.214 . S
H910 C938 0.929 . S
H911 C939 0.929 . S
H912 C940 0.930 . S
H913 C941 0.929 . S
H914 C943 0.930 . S
H915 C920 0.930 . S
H916 C924 0.930 . S
O917 Co886 2.037 . S
O917 C937 1.234 . S
C918 O892 1.269 . S
C918 O893 1.257 . S
C919 H894 0.930 . S
C919 C922 1.388 . S
C919 C924 1.418 . S
C920 H915 0.930 . S
C920 C923 1.404 . S
C920 C924 1.353 . S
N921 Co886 2.145 . S
N921 C922 1.397 . S
N921 C923 1.334 . S
C922 H903 0.929 . S
C922 C919 1.388 . S
C922 N921 1.397 . S
C923 H904 0.929 . S
C923 C920 1.404 . S
C923 N921 1.334 . S
C924 H916 0.930 . S
C924 C919 1.418 . S
C924 C920 1.353 . S
C925 H895 0.930 . S
C925 N926 1.330 . S
C925 C927 1.446 . S
N926 Co885 2.151 . S
N926 C925 1.330 . S
N926 C930 1.418 . S
C927 H906 0.929 . S
C927 C925 1.446 . S
C927 C928 1.332 . S
C928 H908 0.931 . S
C928 C927 1.332 . S
C928 C929 1.267 . S
C929 H897 0.929 . S
C929 C928 1.267 . S
C929 C930 1.251 . S
C930 H900 0.929 . S
C930 N926 1.418 . S
C930 C929 1.251 . S
C931 H898 0.930 . S
C931 C933 1.406 . S
C931 C936 1.261 . S
C932 H899 0.930 . S
C932 N934 1.325 . S
C932 C935 1.357 . S
C933 H901 0.928 . S
C933 C931 1.406 . S
C933 N934 1.261 . S
N934 Co885 2.214 . S
N934 C932 1.325 . S
N934 C933 1.261 . S
C935 H905 0.931 . S
C935 C932 1.357 . S
C935 C936 1.312 . S
C936 H907 0.930 . S
C936 C931 1.261 . S
C936 C935 1.312 . S
C937 O909 1.214 . S
C937 O917 1.234 . S
C938 H910 0.929 . S
C938 C941 1.391 . S
C938 C943 1.391 . S
C939 H911 0.929 . S
C939 C940 1.390 . S
C939 N942 1.391 . S
C940 H912 0.930 . S
C940 C939 1.390 . S
C940 C941 1.392 . S
C941 H913 0.929 . S
C941 C938 1.391 . S
C941 C940 1.392 . S
N942 Co886 2.257 . S
N942 C939 1.391 . S
N942 C943 1.388 . S
C943 H914 0.930 . S
C943 C938 1.391 . S
C943 N942 1.388 . S
H944 C962 0.951 . S
H945 C964 0.951 . S
H946 C966 0.950 . S
H947 C967 0.950 . S
H948 C969 0.950 . S
H949 C972 0.950 . S
H950 C973 0.950 . S
H951 C975 0.948 . S
H952 C976 0.950 . S
H953 C977 0.951 . S
H954 C979 0.951 . S
H955 C981 0.950 . S
H956 C982 0.950 . S
H957 C984 0.950 . S
H958 C987 0.950 . S
H959 C988 0.950 . S
H960 C990 0.950 . S
H961 C991 0.950 . S
C962 H944 0.951 . S
C962 C963 1.366 . S
C962 C964 1.388 . S
C963 C962 1.366 . S
C963 C967 1.385 . S
C964 H945 0.951 . S
C964 C962 1.388 . S
C964 C965 1.366 . S
C965 C964 1.366 . S
C965 C966 1.414 . S
C965 C968 1.499 . S
C966 H946 0.950 . S
C966 C965 1.414 . S
C966 C967 1.374 . S
C967 H947 0.950 . S
C967 C963 1.385 . S
C967 C966 1.374 . S
C968 C965 1.499 . S
C968 C969 1.373 . S
C968 C970 1.389 . S
C969 H948 0.950 . S
C969 C968 1.373 . S
C969 C985 1.377 . S
C970 C968 1.389 . S
C970 C971 1.524 . S
C970 C984 1.377 . S
C971 C970 1.524 . S
C971 C972 1.397 . S
C971 C976 1.363 . S
C972 H949 0.950 . S
C972 C971 1.397 . S
C972 C973 1.334 . S
C973 H950 0.950 . S
C973 C972 1.334 . S
C973 C974 1.263 1_545 S
C974 C973 1.263 1_565 S
C974 C975 1.507 1_565 S
C974 H993 0.959 . S
C975 H951 0.948 . S
C975 C974 1.507 1_545 S
C975 C976 1.415 . S
C976 H952 0.950 . S
C976 C971 1.363 . S
C976 C975 1.415 . S
C977 H953 0.951 . S
C977 C978 1.366 . S
C977 C979 1.388 . S
C978 C977 1.366 . S
C978 C982 1.385 . S
C979 H954 0.951 . S
C979 C977 1.388 . S
C979 C980 1.366 . S
C980 C979 1.366 . S
C980 C981 1.414 . S
C980 C983 1.499 . S
C981 H955 0.950 . S
C981 C980 1.414 . S
C981 C982 1.374 . S
C982 H956 0.950 . S
C982 C978 1.385 . S
C982 C981 1.374 . S
C983 C980 1.499 . S
C983 C984 1.373 . S
C983 C985 1.389 . S
C984 H957 0.950 . S
C984 C970 1.377 . S
C984 C983 1.373 . S
C985 C969 1.377 . S
C985 C983 1.389 . S
C985 C986 1.524 . S
C986 C985 1.524 . S
C986 C987 1.397 . S
C986 C991 1.363 . S
C987 H958 0.950 . S
C987 C986 1.397 . S
C987 C988 1.334 . S
C988 H959 0.950 . S
C988 C987 1.334 . S
C988 C989 1.287 . S
C989 C988 1.287 . S
C989 C990 1.524 . S
C989 H992 0.999 . S
C990 H960 0.950 . S
C990 C989 1.524 . S
C990 C991 1.415 . S
C991 H961 0.950 . S
C991 C986 1.363 . S
C991 C990 1.415 . S
H992 C989 0.999 . S
H993 C974 0.959 . S
H994 C1012 0.951 . S
H995 C1014 0.951 . S
H996 C1016 0.950 . S
H997 C1017 0.950 . S
H998 C1019 0.950 . S
H999 C1022 0.950 . S
H1000 C1023 0.950 . S
H1001 C1025 0.950 . S
H1002 C1026 0.950 . S
H1003 C1027 0.951 . S
H1004 C1029 0.951 . S
H1005 C1031 0.950 . S
H1006 C1032 0.950 . S
H1007 C1034 0.950 . S
H1008 C1037 0.950 . S
H1009 C1038 0.950 . S
H1010 C1040 0.950 . S
H1011 C1041 0.950 . S
C1012 H994 0.951 . S
C1012 C1013 1.366 . S
C1012 C1014 1.388 . S
C1013 C1012 1.366 . S
C1013 C1017 1.385 . S
C1014 H995 0.951 . S
C1014 C1012 1.388 . S
C1014 C1015 1.366 . S
C1015 C1014 1.366 . S
C1015 C1016 1.414 . S
C1015 C1018 1.499 . S
C1016 H996 0.950 . S
C1016 C1015 1.414 . S
C1016 C1017 1.374 . S
C1017 H997 0.950 . S
C1017 C1013 1.385 . S
C1017 C1016 1.374 . S
C1018 C1015 1.499 . S
C1018 C1019 1.373 . S
C1018 C1020 1.389 . S
C1019 H998 0.950 . S
C1019 C1018 1.373 . S
C1019 C1035 1.377 . S
C1020 C1018 1.389 . S
C1020 C1021 1.524 . S
C1020 C1034 1.377 . S
C1021 C1020 1.524 . S
C1021 C1022 1.397 . S
C1021 C1026 1.363 . S
C1022 H999 0.950 . S
C1022 C1021 1.397 . S
C1022 C1023 1.334 . S
C1023 H1000 0.950 . S
C1023 C1022 1.334 . S
C1023 C1024 1.287 . S
C1024 C1023 1.287 . S
C1024 C1025 1.524 . S
C1024 H1043 0.913 . S
C1025 H1001 0.950 . S
C1025 C1024 1.524 . S
C1025 C1026 1.415 . S
C1026 H1002 0.950 . S
C1026 C1021 1.363 . S
C1026 C1025 1.415 . S
C1027 H1003 0.951 . S
C1027 C1028 1.366 . S
C1027 C1029 1.388 . S
C1028 C1027 1.366 . S
C1028 C1032 1.385 . S
C1029 H1004 0.951 . S
C1029 C1027 1.388 . S
C1029 C1030 1.366 . S
C1030 C1029 1.366 . S
C1030 C1031 1.414 . S
C1030 C1033 1.499 . S
C1031 H1005 0.950 . S
C1031 C1030 1.414 . S
C1031 C1032 1.374 . S
C1032 H1006 0.950 . S
C1032 C1028 1.385 . S
C1032 C1031 1.374 . S
C1033 C1030 1.499 . S
C1033 C1034 1.373 . S
C1033 C1035 1.389 . S
C1034 H1007 0.950 . S
C1034 C1020 1.377 . S
C1034 C1033 1.373 . S
C1035 C1019 1.377 . S
C1035 C1033 1.389 . S
C1035 C1036 1.524 . S
C1036 C1035 1.524 . S
C1036 C1037 1.397 . S
C1036 C1041 1.363 . S
C1037 H1008 0.950 . S
C1037 C1036 1.397 . S
C1037 C1038 1.334 . S
C1038 H1009 0.950 . S
C1038 C1037 1.334 . S
C1038 C1039 1.287 . S
C1039 C1038 1.287 . S
C1039 C1040 1.524 . S
C1039 H1042 0.992 1_655 S
C1040 H1010 0.950 . S
C1040 C1039 1.524 . S
C1040 C1041 1.415 . S
C1041 H1011 0.950 . S
C1041 C1036 1.363 . S
C1041 C1040 1.415 . S
H1042 C1039 0.992 1_455 S
H1043 C1024 0.913 . S
H1044 C1062 0.951 . S
H1045 C1064 0.951 . S
H1046 C1066 0.950 . S
H1047 C1067 0.950 . S
H1048 C1069 0.950 . S
H1049 C1072 0.950 . S
H1050 C1073 0.950 . S
H1051 C1075 0.950 . S
H1052 C1076 0.950 . S
H1053 C1077 0.951 . S
H1054 C1079 0.945 1_554 S
H1055 C1081 0.950 . S
H1056 C1082 0.950 . S
H1057 C1084 0.950 . S
H1058 C1087 0.950 . S
H1059 C1088 0.950 . S
H1060 C1090 0.950 . S
H1061 C1091 0.950 1_554 S
C1062 H1044 0.951 . S
C1062 C1063 1.366 . S
C1062 C1064 1.388 . S
C1063 C1062 1.366 . S
C1063 C1067 1.385 . S
C1064 H1045 0.951 . S
C1064 C1062 1.388 . S
C1064 C1065 1.366 . S
C1065 C1064 1.366 . S
C1065 C1066 1.414 . S
C1065 C1068 1.499 . S
C1066 H1046 0.950 . S
C1066 C1065 1.414 . S
C1066 C1067 1.374 . S
C1067 H1047 0.950 . S
C1067 C1063 1.385 . S
C1067 C1066 1.374 . S
C1068 C1065 1.499 . S
C1068 C1069 1.373 . S
C1068 C1070 1.389 . S
C1069 H1048 0.950 . S
C1069 C1068 1.373 . S
C1069 C1085 1.377 . S
C1070 C1068 1.389 . S
C1070 C1071 1.524 . S
C1070 C1084 1.377 . S
C1071 C1070 1.524 . S
C1071 C1072 1.397 . S
C1071 C1076 1.363 . S
C1072 H1049 0.950 . S
C1072 C1071 1.397 . S
C1072 C1073 1.334 . S
C1073 H1050 0.950 . S
C1073 C1072 1.334 . S
C1073 C1074 1.287 . S
C1074 C1073 1.287 . S
C1074 C1075 1.524 . S
C1074 H1093 0.913 . S
C1075 H1051 0.950 . S
C1075 C1074 1.524 . S
C1075 C1076 1.415 . S
C1076 H1052 0.950 . S
C1076 C1071 1.363 . S
C1076 C1075 1.415 . S
C1077 H1053 0.951 . S
C1077 C1078 1.366 1_554 S
C1077 C1079 1.388 1_554 S
C1078 C1077 1.366 1_556 S
C1078 C1082 1.385 . S
C1079 H1054 0.945 1_556 S
C1079 C1077 1.388 1_556 S
C1079 C1080 1.366 . S
C1080 C1079 1.366 . S
C1080 C1081 1.414 . S
C1080 C1083 1.499 . S
C1081 H1055 0.950 . S
C1081 C1080 1.414 . S
C1081 C1082 1.374 . S
C1082 H1056 0.950 . S
C1082 C1078 1.385 . S
C1082 C1081 1.374 . S
C1083 C1080 1.499 . S
C1083 C1084 1.373 . S
C1083 C1085 1.389 . S
C1084 H1057 0.950 . S
C1084 C1070 1.377 . S
C1084 C1083 1.373 . S
C1085 C1069 1.377 . S
C1085 C1083 1.389 . S
C1085 C1086 1.524 . S
C1086 C1085 1.524 . S
C1086 C1087 1.397 . S
C1086 C1091 1.363 . S
C1087 H1058 0.950 . S
C1087 C1086 1.397 . S
C1087 C1088 1.334 . S
C1088 H1059 0.950 . S
C1088 C1087 1.334 . S
C1088 C1089 1.287 1_556 S
C1089 C1088 1.287 1_554 S
C1089 C1090 1.524 . S
C1089 H1092 0.999 . S
C1090 H1060 0.950 . S
C1090 C1089 1.524 . S
C1090 C1091 1.415 1_554 S
C1091 H1061 0.950 1_556 S
C1091 C1086 1.363 . S
C1091 C1090 1.415 1_556 S
H1092 C1089 0.999 . S
H1093 C1074 0.913 . S
H1094 C1112 0.951 . S
H1095 C1114 0.951 . S
H1096 C1116 0.950 . S
H1097 C1117 0.950 . S
H1098 C1119 0.950 . S
H1099 C1122 0.950 . S
H1100 C1123 0.950 . S
H1101 C1125 0.950 . S
H1102 C1126 0.950 . S
H1103 C1127 0.951 . S
H1104 C1129 0.951 . S
H1105 C1131 0.950 . S
H1106 C1132 0.950 . S
H1107 C1134 0.950 . S
H1108 C1137 0.950 . S
H1109 C1138 0.950 . S
H1110 C1140 0.950 . S
H1111 C1141 0.950 . S
C1112 H1094 0.951 . S
C1112 C1113 1.366 . S
C1112 C1114 1.388 . S
C1113 C1112 1.366 . S
C1113 C1117 1.385 . S
C1114 H1095 0.951 . S
C1114 C1112 1.388 . S
C1114 C1115 1.366 . S
C1115 C1114 1.366 . S
C1115 C1116 1.414 . S
C1115 C1118 1.499 . S
C1116 H1096 0.950 . S
C1116 C1115 1.414 . S
C1116 C1117 1.374 . S
C1117 H1097 0.950 . S
C1117 C1113 1.385 . S
C1117 C1116 1.374 . S
C1118 C1115 1.499 . S
C1118 C1119 1.373 . S
C1118 C1120 1.389 . S
C1119 H1098 0.950 . S
C1119 C1118 1.373 . S
C1119 C1135 1.377 . S
C1120 C1118 1.389 . S
C1120 C1121 1.524 . S
C1120 C1134 1.377 . S
C1121 C1120 1.524 . S
C1121 C1122 1.397 . S
C1121 C1126 1.363 . S
C1122 H1099 0.950 . S
C1122 C1121 1.397 . S
C1122 C1123 1.334 . S
C1123 H1100 0.950 . S
C1123 C1122 1.334 . S
C1123 C1124 1.287 . S
C1124 C1123 1.287 . S
C1124 C1125 1.524 . S
C1124 H1143 0.913 . S
C1125 H1101 0.950 . S
C1125 C1124 1.524 . S
C1125 C1126 1.415 . S
C1126 H1102 0.950 . S
C1126 C1121 1.363 . S
C1126 C1125 1.415 . S
C1127 H1103 0.951 . S
C1127 C1128 1.366 . S
C1127 C1129 1.388 . S
C1128 C1127 1.366 . S
C1128 C1132 1.385 . S
C1129 H1104 0.951 . S
C1129 C1127 1.388 . S
C1129 C1130 1.366 . S
C1130 C1129 1.366 . S
C1130 C1131 1.414 . S
C1130 C1133 1.499 . S
C1131 H1105 0.950 . S
C1131 C1130 1.414 . S
C1131 C1132 1.374 . S
C1132 H1106 0.950 . S
C1132 C1128 1.385 . S
C1132 C1131 1.374 . S
C1133 C1130 1.499 . S
C1133 C1134 1.373 . S
C1133 C1135 1.389 . S
C1134 H1107 0.950 . S
C1134 C1120 1.377 . S
C1134 C1133 1.373 . S
C1135 C1119 1.377 . S
C1135 C1133 1.389 . S
C1135 C1136 1.524 . S
C1136 C1135 1.524 . S
C1136 C1137 1.397 . S
C1136 C1141 1.363 . S
C1137 H1108 0.950 . S
C1137 C1136 1.397 . S
C1137 C1138 1.334 . S
C1138 H1109 0.950 . S
C1138 C1137 1.334 . S
C1138 C1139 1.287 . S
C1139 C1138 1.287 . S
C1139 C1140 1.524 . S
C1139 H1142 0.999 . S
C1140 H1110 0.950 . S
C1140 C1139 1.524 . S
C1140 C1141 1.415 . S
C1141 H1111 0.950 . S
C1141 C1136 1.363 . S
C1141 C1140 1.415 . S
H1142 C1139 0.999 . S
H1143 C1124 0.913 . S
H1144 C1162 0.951 . S
H1145 C1164 0.951 . S
H1146 C1166 0.950 . S
H1147 C1167 0.950 . S
H1148 C1169 0.950 . S
H1149 C1172 0.950 . S
H1150 C1173 0.950 . S
H1151 C1175 0.950 . S
H1152 C1176 0.950 . S
H1153 C1177 0.951 . S
H1154 C1179 0.951 . S
H1155 C1181 0.950 . S
H1156 C1182 0.950 . S
H1157 C1184 0.950 . S
H1158 C1187 0.950 . S
H1159 C1188 0.950 . S
H1160 C1190 0.950 . S
H1161 C1191 0.950 . S
C1162 H1144 0.951 . S
C1162 C1163 1.366 . S
C1162 C1164 1.388 . S
C1163 C1162 1.366 . S
C1163 C1167 1.385 . S
C1164 H1145 0.951 . S
C1164 C1162 1.388 . S
C1164 C1165 1.366 . S
C1165 C1164 1.366 . S
C1165 C1166 1.414 . S
C1165 C1168 1.499 . S
C1166 H1146 0.950 . S
C1166 C1165 1.414 . S
C1166 C1167 1.374 . S
C1167 H1147 0.950 . S
C1167 C1163 1.385 . S
C1167 C1166 1.374 . S
C1168 C1165 1.499 . S
C1168 C1169 1.373 . S
C1168 C1170 1.389 . S
C1169 H1148 0.950 . S
C1169 C1168 1.373 . S
C1169 C1185 1.377 . S
C1170 C1168 1.389 . S
C1170 C1171 1.524 . S
C1170 C1184 1.377 . S
C1171 C1170 1.524 . S
C1171 C1172 1.397 . S
C1171 C1176 1.363 . S
C1172 H1149 0.950 . S
C1172 C1171 1.397 . S
C1172 C1173 1.334 . S
C1173 H1150 0.950 . S
C1173 C1172 1.334 . S
C1173 C1174 1.287 . S
C1174 C1173 1.287 . S
C1174 C1175 1.524 . S
C1174 H1193 0.913 . S
C1175 H1151 0.950 . S
C1175 C1174 1.524 . S
C1175 C1176 1.415 . S
C1176 H1152 0.950 . S
C1176 C1171 1.363 . S
C1176 C1175 1.415 . S
C1177 H1153 0.951 . S
C1177 C1178 1.366 . S
C1177 C1179 1.388 . S
C1178 C1177 1.366 . S
C1178 C1182 1.385 . S
C1179 H1154 0.951 . S
C1179 C1177 1.388 . S
C1179 C1180 1.366 . S
C1180 C1179 1.366 . S
C1180 C1181 1.414 . S
C1180 C1183 1.499 . S
C1181 H1155 0.950 . S
C1181 C1180 1.414 . S
C1181 C1182 1.374 . S
C1182 H1156 0.950 . S
C1182 C1178 1.385 . S
C1182 C1181 1.374 . S
C1183 C1180 1.499 . S
C1183 C1184 1.373 . S
C1183 C1185 1.389 . S
C1184 H1157 0.950 . S
C1184 C1170 1.377 . S
C1184 C1183 1.373 . S
C1185 C1169 1.377 . S
C1185 C1183 1.389 . S
C1185 C1186 1.524 . S
C1186 C1185 1.524 . S
C1186 C1187 1.397 1_556 S
C1186 C1191 1.363 . S
C1187 H1158 0.950 . S
C1187 C1186 1.397 1_554 S
C1187 C1188 1.334 . S
C1188 H1159 0.950 . S
C1188 C1187 1.334 . S
C1188 C1189 1.287 . S
C1189 C1188 1.287 . S
C1189 C1190 1.524 . S
C1189 H1192 0.999 . S
C1190 H1160 0.950 . S
C1190 C1189 1.524 . S
C1190 C1191 1.415 1_554 S
C1191 H1161 0.950 . S
C1191 C1186 1.363 . S
C1191 C1190 1.415 1_556 S
H1192 C1189 0.999 . S
H1193 C1174 0.913 . S
H1194 C1212 0.951 . S
H1195 C1214 0.951 . S
H1196 C1216 0.950 . S
H1197 C1217 0.950 . S
H1198 C1219 0.950 . S
H1199 C1222 0.950 . S
H1200 C1223 0.950 . S
H1201 C1225 0.950 . S
H1202 C1226 0.950 . S
H1203 C1227 0.951 . S
H1204 C1229 0.951 . S
H1205 C1231 0.950 . S
H1206 C1232 0.950 . S
H1207 C1234 0.950 . S
H1208 C1237 0.950 . S
H1209 C1238 0.950 . S
H1210 C1240 0.950 . S
H1211 C1241 0.950 . S
C1212 H1194 0.951 . S
C1212 C1213 1.366 . S
C1212 C1214 1.388 . S
C1213 C1212 1.366 . S
C1213 C1217 1.385 . S
C1214 H1195 0.951 . S
C1214 C1212 1.388 . S
C1214 C1215 1.366 . S
C1215 C1214 1.366 . S
C1215 C1216 1.414 . S
C1215 C1218 1.499 . S
C1216 H1196 0.950 . S
C1216 C1215 1.414 . S
C1216 C1217 1.374 . S
C1217 H1197 0.950 . S
C1217 C1213 1.385 . S
C1217 C1216 1.374 . S
C1218 C1215 1.499 . S
C1218 C1219 1.373 . S
C1218 C1220 1.389 . S
C1219 H1198 0.950 . S
C1219 C1218 1.373 . S
C1219 C1235 1.377 . S
C1220 C1218 1.389 . S
C1220 C1221 1.524 . S
C1220 C1234 1.377 . S
C1221 C1220 1.524 . S
C1221 C1222 1.397 . S
C1221 C1226 1.363 . S
C1222 H1199 0.950 . S
C1222 C1221 1.397 . S
C1222 C1223 1.334 . S
C1223 H1200 0.950 . S
C1223 C1222 1.334 . S
C1223 C1224 1.287 . S
C1224 C1223 1.287 . S
C1224 C1225 1.524 . S
C1224 H1243 0.913 . S
C1225 H1201 0.950 . S
C1225 C1224 1.524 . S
C1225 C1226 1.415 . S
C1226 H1202 0.950 . S
C1226 C1221 1.363 . S
C1226 C1225 1.415 . S
C1227 H1203 0.951 . S
C1227 C1228 1.366 . S
C1227 C1229 1.388 . S
C1228 C1227 1.366 . S
C1228 C1232 1.385 . S
C1229 H1204 0.951 . S
C1229 C1227 1.388 . S
C1229 C1230 1.366 . S
C1230 C1229 1.366 . S
C1230 C1231 1.414 . S
C1230 C1233 1.499 . S
C1231 H1205 0.950 . S
C1231 C1230 1.414 . S
C1231 C1232 1.374 . S
C1232 H1206 0.950 . S
C1232 C1228 1.385 . S
C1232 C1231 1.374 . S
C1233 C1230 1.499 . S
C1233 C1234 1.373 . S
C1233 C1235 1.389 . S
C1234 H1207 0.950 . S
C1234 C1220 1.377 . S
C1234 C1233 1.373 . S
C1235 C1219 1.377 . S
C1235 C1233 1.389 . S
C1235 C1236 1.524 . S
C1236 C1235 1.524 . S
C1236 C1237 1.397 . S
C1236 C1241 1.363 . S
C1237 H1208 0.950 . S
C1237 C1236 1.397 . S
C1237 C1238 1.334 . S
C1238 H1209 0.950 . S
C1238 C1237 1.334 . S
C1238 C1239 1.287 . S
C1239 C1238 1.287 . S
C1239 C1240 1.524 . S
C1239 H1242 0.999 . S
C1240 H1210 0.950 . S
C1240 C1239 1.524 . S
C1240 C1241 1.415 . S
C1241 H1211 0.950 . S
C1241 C1236 1.363 . S
C1241 C1240 1.415 . S
H1242 C1239 0.999 . S
H1243 C1224 0.913 . S
H1244 C1262 0.951 . S
H1245 C1264 0.951 . S
H1246 C1266 0.950 . S
H1247 C1267 0.950 . S
H1248 C1269 0.950 . S
H1249 C1272 0.950 . S
H1250 C1273 0.950 . S
H1251 C1275 0.950 . S
H1252 C1276 0.950 . S
H1253 C1277 0.951 . S
H1254 C1279 0.951 . S
H1255 C1281 0.950 . S
H1256 C1282 0.950 . S
H1257 C1284 0.950 . S
H1258 C1287 0.950 . S
H1259 C1288 0.950 . S
H1260 C1290 0.950 . S
H1261 C1291 0.950 . S
C1262 H1244 0.951 . S
C1262 C1263 1.366 . S
C1262 C1264 1.388 . S
C1263 C1262 1.366 . S
C1263 C1267 1.385 . S
C1264 H1245 0.951 . S
C1264 C1262 1.388 . S
C1264 C1265 1.366 . S
C1265 C1264 1.366 . S
C1265 C1266 1.414 . S
C1265 C1268 1.499 . S
C1266 H1246 0.950 . S
C1266 C1265 1.414 . S
C1266 C1267 1.374 . S
C1267 H1247 0.950 . S
C1267 C1263 1.385 . S
C1267 C1266 1.374 . S
C1268 C1265 1.499 . S
C1268 C1269 1.373 . S
C1268 C1270 1.389 . S
C1269 H1248 0.950 . S
C1269 C1268 1.373 . S
C1269 C1285 1.377 . S
C1270 C1268 1.389 . S
C1270 C1271 1.524 . S
C1270 C1284 1.377 . S
C1271 C1270 1.524 . S
C1271 C1272 1.397 . S
C1271 C1276 1.363 . S
C1272 H1249 0.950 . S
C1272 C1271 1.397 . S
C1272 C1273 1.334 . S
C1273 H1250 0.950 . S
C1273 C1272 1.334 . S
C1273 C1274 1.287 . S
C1274 C1273 1.287 . S
C1274 C1275 1.524 . S
C1274 H1293 0.913 . S
C1275 H1251 0.950 . S
C1275 C1274 1.524 . S
C1275 C1276 1.415 . S
C1276 H1252 0.950 . S
C1276 C1271 1.363 . S
C1276 C1275 1.415 . S
C1277 H1253 0.951 . S
C1277 C1278 1.366 . S
C1277 C1279 1.388 . S
C1278 C1277 1.366 . S
C1278 C1282 1.385 . S
C1279 H1254 0.951 . S
C1279 C1277 1.388 . S
C1279 C1280 1.366 . S
C1280 C1279 1.366 . S
C1280 C1281 1.414 . S
C1280 C1283 1.499 . S
C1281 H1255 0.950 . S
C1281 C1280 1.414 . S
C1281 C1282 1.374 . S
C1282 H1256 0.950 . S
C1282 C1278 1.385 . S
C1282 C1281 1.374 . S
C1283 C1280 1.499 . S
C1283 C1284 1.373 . S
C1283 C1285 1.389 . S
C1284 H1257 0.950 . S
C1284 C1270 1.377 . S
C1284 C1283 1.373 . S
C1285 C1269 1.377 . S
C1285 C1283 1.389 . S
C1285 C1286 1.524 . S
C1286 C1285 1.524 . S
C1286 C1287 1.397 . S
C1286 C1291 1.363 . S
C1287 H1258 0.950 . S
C1287 C1286 1.397 . S
C1287 C1288 1.334 . S
C1288 H1259 0.950 . S
C1288 C1287 1.334 . S
C1288 C1289 1.287 . S
C1289 C1288 1.287 . S
C1289 C1290 1.524 . S
C1289 H1292 0.999 . S
C1290 H1260 0.950 . S
C1290 C1289 1.524 . S
C1290 C1291 1.415 . S
C1291 H1261 0.950 . S
C1291 C1286 1.363 . S
C1291 C1290 1.415 . S
H1292 C1289 0.999 . S
H1293 C1274 0.913 . S
H1294 C1312 0.951 . S
H1295 C1314 0.951 . S
H1296 C1316 0.950 . S
H1297 C1317 0.950 . S
H1298 C1319 0.950 . S
H1299 C1322 0.950 . S
H1300 C1323 0.950 . S
H1301 C1325 0.950 . S
H1302 C1326 0.950 . S
H1303 C1327 0.951 . S
H1304 C1329 0.951 . S
H1305 C1331 0.950 . S
H1306 C1332 0.950 . S
H1307 C1334 0.950 . S
H1308 C1337 0.950 . S
H1309 C1338 0.950 . S
H1310 C1340 0.950 . S
H1311 C1341 0.950 . S
C1312 H1294 0.951 . S
C1312 C1313 1.366 . S
C1312 C1314 1.388 . S
C1313 C1312 1.366 . S
C1313 C1317 1.385 . S
C1314 H1295 0.951 . S
C1314 C1312 1.388 . S
C1314 C1315 1.366 . S
C1315 C1314 1.366 . S
C1315 C1316 1.414 . S
C1315 C1318 1.499 . S
C1316 H1296 0.950 . S
C1316 C1315 1.414 . S
C1316 C1317 1.374 . S
C1317 H1297 0.950 . S
C1317 C1313 1.385 . S
C1317 C1316 1.374 . S
C1318 C1315 1.499 . S
C1318 C1319 1.373 . S
C1318 C1320 1.389 . S
C1319 H1298 0.950 . S
C1319 C1318 1.373 . S
C1319 C1335 1.377 . S
C1320 C1318 1.389 . S
C1320 C1321 1.524 . S
C1320 C1334 1.377 . S
C1321 C1320 1.524 . S
C1321 C1322 1.397 . S
C1321 C1326 1.363 . S
C1322 H1299 0.950 . S
C1322 C1321 1.397 . S
C1322 C1323 1.334 . S
C1323 H1300 0.950 . S
C1323 C1322 1.334 . S
C1323 C1324 1.287 . S
C1324 C1323 1.287 . S
C1324 C1325 1.524 . S
C1324 H1343 0.913 . S
C1325 H1301 0.950 . S
C1325 C1324 1.524 . S
C1325 C1326 1.415 . S
C1326 H1302 0.950 . S
C1326 C1321 1.363 . S
C1326 C1325 1.415 . S
C1327 H1303 0.951 . S
C1327 C1328 1.366 . S
C1327 C1329 1.388 . S
C1328 C1327 1.366 . S
C1328 C1332 1.385 . S
C1329 H1304 0.951 . S
C1329 C1327 1.388 . S
C1329 C1330 1.366 . S
C1330 C1329 1.366 . S
C1330 C1331 1.414 . S
C1330 C1333 1.499 . S
C1331 H1305 0.950 . S
C1331 C1330 1.414 . S
C1331 C1332 1.374 . S
C1332 H1306 0.950 . S
C1332 C1328 1.385 . S
C1332 C1331 1.374 . S
C1333 C1330 1.499 . S
C1333 C1334 1.373 . S
C1333 C1335 1.389 . S
C1334 H1307 0.950 . S
C1334 C1320 1.377 . S
C1334 C1333 1.373 . S
C1335 C1319 1.377 . S
C1335 C1333 1.389 . S
C1335 C1336 1.524 . S
C1336 C1335 1.524 . S
C1336 C1337 1.397 . S
C1336 C1341 1.363 . S
C1337 H1308 0.950 . S
C1337 C1336 1.397 . S
C1337 C1338 1.334 . S
C1338 H1309 0.950 . S
C1338 C1337 1.334 . S
C1338 C1339 1.287 . S
C1339 C1338 1.287 . S
C1339 C1340 1.524 . S
C1339 H1342 0.999 . S
C1340 H1310 0.950 . S
C1340 C1339 1.524 . S
C1340 C1341 1.415 . S
C1341 H1311 0.950 . S
C1341 C1336 1.363 . S
C1341 C1340 1.415 . S
H1342 C1339 0.999 . S
H1343 C1324 0.913 . S
H1344 C1362 0.951 . S
H1345 C1364 0.951 1_565 S
H1346 C1366 0.950 . S
H1347 C1367 0.950 . S
H1348 C1369 0.950 . S
H1349 C1372 0.966 . S
H1350 C1373 0.950 1_545 S
H1351 C1375 0.950 . S
H1352 C1376 0.950 . S
H1353 C1377 0.951 . S
H1354 C1379 0.951 1_545 S
H1355 C1381 0.950 . S
H1356 C1382 0.950 . S
H1357 C1384 0.950 . S
H1358 C1387 0.966 . S
H1359 C1388 0.950 1_565 S
H1360 C1390 0.950 . S
H1361 C1391 0.950 . S
C1362 H1344 0.951 . S
C1362 C1363 1.366 . S
C1362 C1364 1.388 . S
C1363 C1362 1.366 . S
C1363 C1367 1.385 . S
C1364 H1345 0.951 1_545 S
C1364 C1362 1.388 . S
C1364 C1365 1.366 . S
C1365 C1364 1.366 . S
C1365 C1366 1.414 . S
C1365 C1368 1.499 . S
C1366 H1346 0.950 . S
C1366 C1365 1.414 . S
C1366 C1367 1.374 . S
C1367 H1347 0.950 . S
C1367 C1363 1.385 . S
C1367 C1366 1.374 . S
C1368 C1365 1.499 . S
C1368 C1369 1.373 . S
C1368 C1370 1.389 1_545 S
C1369 H1348 0.950 . S
C1369 C1368 1.373 . S
C1369 C1385 1.377 1_455 S
C1370 C1368 1.389 1_565 S
C1370 C1371 1.524 . S
C1370 C1384 1.377 1_455 S
C1371 C1370 1.524 . S
C1371 C1372 1.385 1_565 S
C1371 C1376 1.363 . S
C1372 H1349 0.966 . S
C1372 C1371 1.385 1_545 S
C1372 C1373 1.330 1_545 S
C1373 H1350 0.950 1_565 S
C1373 C1372 1.330 1_565 S
C1373 C1374 1.287 . S
C1374 C1373 1.287 . S
C1374 C1375 1.524 . S
C1374 H1393 0.913 . S
C1375 H1351 0.950 . S
C1375 C1374 1.524 . S
C1375 C1376 1.415 . S
C1376 H1352 0.950 . S
C1376 C1371 1.363 . S
C1376 C1375 1.415 . S
C1377 H1353 0.951 . S
C1377 C1378 1.366 . S
C1377 C1379 1.388 . S
C1378 C1377 1.366 . S
C1378 C1382 1.385 . S
C1379 H1354 0.951 1_565 S
C1379 C1377 1.388 . S
C1379 C1380 1.366 . S
C1380 C1379 1.366 . S
C1380 C1381 1.414 . S
C1380 C1383 1.499 . S
C1381 H1355 0.950 . S
C1381 C1380 1.414 . S
C1381 C1382 1.374 . S
C1382 H1356 0.950 . S
C1382 C1378 1.385 . S
C1382 C1381 1.374 . S
C1383 C1380 1.499 . S
C1383 C1384 1.373 . S
C1383 C1385 1.389 1_565 S
C1384 H1357 0.950 . S
C1384 C1370 1.377 1_655 S
C1384 C1383 1.373 . S
C1385 C1369 1.377 1_655 S
C1385 C1383 1.389 1_545 S
C1385 C1386 1.524 . S
C1386 C1385 1.524 . S
C1386 C1387 1.385 1_545 S
C1386 C1391 1.363 . S
C1387 H1358 0.966 . S
C1387 C1386 1.385 1_565 S
C1387 C1388 1.330 1_565 S
C1388 H1359 0.950 1_545 S
C1388 C1387 1.330 1_545 S
C1388 C1389 1.287 . S
C1389 C1388 1.287 . S
C1389 C1390 1.524 . S
C1389 H1392 0.999 . S
C1390 H1360 0.950 . S
C1390 C1389 1.524 . S
C1390 C1391 1.415 . S
C1391 H1361 0.950 . S
C1391 C1386 1.363 . S
C1391 C1390 1.415 . S
H1392 C1389 0.999 . S
H1393 C1374 0.913 . S
H1394 C1412 0.951 . S
H1395 C1414 0.951 . S
H1396 C1416 0.950 . S
H1397 C1417 0.950 . S
H1398 C1419 0.950 . S
H1399 C1422 0.950 . S
H1400 C1423 0.950 . S
H1401 C1425 0.950 . S
H1402 C1426 0.950 . S
H1403 C1427 0.951 . S
H1404 C1429 0.951 . S
H1405 C1431 0.950 . S
H1406 C1432 0.950 . S
H1407 C1434 0.950 . S
H1408 C1437 0.950 . S
H1409 C1438 0.950 . S
H1410 C1440 0.950 . S
H1411 C1441 0.950 . S
C1412 H1394 0.951 . S
C1412 C1413 1.366 . S
C1412 C1414 1.388 . S
C1413 C1412 1.366 . S
C1413 C1417 1.385 . S
C1414 H1395 0.951 . S
C1414 C1412 1.388 . S
C1414 C1415 1.366 . S
C1415 C1414 1.366 . S
C1415 C1416 1.414 . S
C1415 C1418 1.499 . S
C1416 H1396 0.950 . S
C1416 C1415 1.414 . S
C1416 C1417 1.374 . S
C1417 H1397 0.950 . S
C1417 C1413 1.385 . S
C1417 C1416 1.374 . S
C1418 C1415 1.499 . S
C1418 C1419 1.373 . S
C1418 C1420 1.389 1_655 S
C1419 H1398 0.950 . S
C1419 C1418 1.373 . S
C1419 C1435 1.377 . S
C1420 C1418 1.389 1_455 S
C1420 C1421 1.524 . S
C1420 C1434 1.377 . S
C1421 C1420 1.524 . S
C1421 C1422 1.397 . S
C1421 C1426 1.363 . S
C1422 H1399 0.950 . S
C1422 C1421 1.397 . S
C1422 C1423 1.334 . S
C1423 H1400 0.950 . S
C1423 C1422 1.334 . S
C1423 C1424 1.287 . S
C1424 C1423 1.287 . S
C1424 C1425 1.524 . S
C1424 H1443 0.913 . S
C1425 H1401 0.950 . S
C1425 C1424 1.524 . S
C1425 C1426 1.415 . S
C1426 H1402 0.950 . S
C1426 C1421 1.363 . S
C1426 C1425 1.415 . S
C1427 H1403 0.951 . S
C1427 C1428 1.366 . S
C1427 C1429 1.388 . S
C1428 C1427 1.366 . S
C1428 C1432 1.385 . S
C1429 H1404 0.951 . S
C1429 C1427 1.388 . S
C1429 C1430 1.366 . S
C1430 C1429 1.366 . S
C1430 C1431 1.414 . S
C1430 C1433 1.499 . S
C1431 H1405 0.950 . S
C1431 C1430 1.414 . S
C1431 C1432 1.374 . S
C1432 H1406 0.950 . S
C1432 C1428 1.385 . S
C1432 C1431 1.374 . S
C1433 C1430 1.499 . S
C1433 C1434 1.373 . S
C1433 C1435 1.389 1_455 S
C1434 H1407 0.950 . S
C1434 C1420 1.377 . S
C1434 C1433 1.373 . S
C1435 C1419 1.377 . S
C1435 C1433 1.389 1_655 S
C1435 C1436 1.524 . S
C1436 C1435 1.524 . S
C1436 C1437 1.397 . S
C1436 C1441 1.363 . S
C1437 H1408 0.950 . S
C1437 C1436 1.397 . S
C1437 C1438 1.334 . S
C1438 H1409 0.950 . S
C1438 C1437 1.334 . S
C1438 C1439 1.287 . S
C1439 C1438 1.287 . S
C1439 C1440 1.524 . S
C1439 H1442 0.999 . S
C1440 H1410 0.950 . S
C1440 C1439 1.524 . S
C1440 C1441 1.415 . S
C1441 H1411 0.950 . S
C1441 C1436 1.363 . S
C1441 C1440 1.415 . S
H1442 C1439 0.999 . S
H1443 C1424 0.913 . S
H1444 C1462 0.951 . S
H1445 C1464 0.951 . S
H1446 C1466 0.950 . S
H1447 C1467 0.950 . S
H1448 C1469 0.950 . S
H1449 C1472 0.950 . S
H1450 C1473 0.950 . S
H1451 C1475 0.950 . S
H1452 C1476 0.950 . S
H1453 C1477 0.951 . S
H1454 C1479 0.951 . S
H1455 C1481 0.950 . S
H1456 C1482 0.950 . S
H1457 C1484 0.950 . S
H1458 C1487 0.950 . S
H1459 C1488 0.950 . S
H1460 C1490 0.950 . S
H1461 C1491 0.950 . S
C1462 H1444 0.951 . S
C1462 C1463 1.366 . S
C1462 C1464 1.388 . S
C1463 C1462 1.366 . S
C1463 C1467 1.385 . S
C1464 H1445 0.951 . S
C1464 C1462 1.388 . S
C1464 C1465 1.366 . S
C1465 C1464 1.366 . S
C1465 C1466 1.414 . S
C1465 C1468 1.499 . S
C1466 H1446 0.950 . S
C1466 C1465 1.414 . S
C1466 C1467 1.374 . S
C1467 H1447 0.950 . S
C1467 C1463 1.385 . S
C1467 C1466 1.374 . S
C1468 C1465 1.499 . S
C1468 C1469 1.373 . S
C1468 C1470 1.389 . S
C1469 H1448 0.950 . S
C1469 C1468 1.373 . S
C1469 C1485 1.377 . S
C1470 C1468 1.389 . S
C1470 C1471 1.524 . S
C1470 C1484 1.377 . S
C1471 C1470 1.524 . S
C1471 C1472 1.397 . S
C1471 C1476 1.363 . S
C1472 H1449 0.950 . S
C1472 C1471 1.397 . S
C1472 C1473 1.334 . S
C1473 H1450 0.950 . S
C1473 C1472 1.334 . S
C1473 C1474 1.287 . S
C1474 C1473 1.287 . S
C1474 C1475 1.524 . S
C1474 H1493 0.913 . S
C1475 H1451 0.950 . S
C1475 C1474 1.524 . S
C1475 C1476 1.415 . S
C1476 H1452 0.950 . S
C1476 C1471 1.363 . S
C1476 C1475 1.415 . S
C1477 H1453 0.951 . S
C1477 C1478 1.366 . S
C1477 C1479 1.388 . S
C1478 C1477 1.366 . S
C1478 C1482 1.385 . S
C1479 H1454 0.951 . S
C1479 C1477 1.388 . S
C1479 C1480 1.366 . S
C1480 C1479 1.366 . S
C1480 C1481 1.414 . S
C1480 C1483 1.499 . S
C1481 H1455 0.950 . S
C1481 C1480 1.414 . S
C1481 C1482 1.374 . S
C1482 H1456 0.950 . S
C1482 C1478 1.385 . S
C1482 C1481 1.374 . S
C1483 C1480 1.499 . S
C1483 C1484 1.373 . S
C1483 C1485 1.389 . S
C1484 H1457 0.950 . S
C1484 C1470 1.377 . S
C1484 C1483 1.373 . S
C1485 C1469 1.377 . S
C1485 C1483 1.389 . S
C1485 C1486 1.524 . S
C1486 C1485 1.524 . S
C1486 C1487 1.397 . S
C1486 C1491 1.363 . S
C1487 H1458 0.950 . S
C1487 C1486 1.397 . S
C1487 C1488 1.334 . S
C1488 H1459 0.950 . S
C1488 C1487 1.334 . S
C1488 C1489 1.287 . S
C1489 C1488 1.287 . S
C1489 C1490 1.524 . S
C1489 H1492 0.999 . S
C1490 H1460 0.950 . S
C1490 C1489 1.524 . S
C1490 C1491 1.415 . S
C1491 H1461 0.950 . S
C1491 C1486 1.363 . S
C1491 C1490 1.415 . S
H1492 C1489 0.999 . S
H1493 C1474 0.913 . S
H1494 C1512 0.951 . S
H1495 C1514 0.951 . S
H1496 C1516 0.950 . S
H1497 C1517 0.950 . S
H1498 C1519 0.950 . S
H1499 C1522 0.950 . S
H1500 C1523 0.950 . S
H1501 C1525 0.950 1_556 S
H1502 C1526 0.950 . S
H1503 C1527 0.951 . S
H1504 C1529 0.951 . S
H1505 C1531 0.950 . S
H1506 C1532 0.950 . S
H1507 C1534 0.950 . S
H1508 C1537 0.950 . S
H1509 C1538 0.950 . S
H1510 C1540 0.950 . S
H1511 C1541 0.950 . S
C1512 H1494 0.951 . S
C1512 C1513 1.366 . S
C1512 C1514 1.388 . S
C1513 C1512 1.366 . S
C1513 C1517 1.385 . S
C1514 H1495 0.951 . S
C1514 C1512 1.388 . S
C1514 C1515 1.366 . S
C1515 C1514 1.366 . S
C1515 C1516 1.414 . S
C1515 C1518 1.499 . S
C1516 H1496 0.950 . S
C1516 C1515 1.414 . S
C1516 C1517 1.374 . S
C1517 H1497 0.950 . S
C1517 C1513 1.385 . S
C1517 C1516 1.374 . S
C1518 C1515 1.499 . S
C1518 C1519 1.373 . S
C1518 C1520 1.404 . S
C1519 H1498 0.950 . S
C1519 C1518 1.373 . S
C1519 C1535 1.361 1_565 S
C1520 C1518 1.404 . S
C1520 C1521 1.522 1_565 S
C1520 C1534 1.361 1_565 S
C1521 C1520 1.522 1_545 S
C1521 C1522 1.379 1_545 S
C1521 C1526 1.390 . S
C1522 H1499 0.950 . S
C1522 C1521 1.379 1_565 S
C1522 C1523 1.334 . S
C1523 H1500 0.950 . S
C1523 C1522 1.334 . S
C1523 C1524 1.287 1_565 S
C1524 C1523 1.287 1_545 S
C1524 C1525 1.524 . S
C1524 H1543 0.913 . S
C1525 H1501 0.950 1_554 S
C1525 C1524 1.524 . S
C1525 C1526 1.415 . S
C1526 H1502 0.950 . S
C1526 C1521 1.390 . S
C1526 C1525 1.415 . S
C1527 H1503 0.951 . S
C1527 C1528 1.366 . S
C1527 C1529 1.388 . S
C1528 C1527 1.366 . S
C1528 C1532 1.385 . S
C1529 H1504 0.951 . S
C1529 C1527 1.388 . S
C1529 C1530 1.366 . S
C1530 C1529 1.366 . S
C1530 C1531 1.414 . S
C1530 C1533 1.499 . S
C1531 H1505 0.950 . S
C1531 C1530 1.414 . S
C1531 C1532 1.374 . S
C1532 H1506 0.950 . S
C1532 C1528 1.385 . S
C1532 C1531 1.374 . S
C1533 C1530 1.499 . S
C1533 C1534 1.373 . S
C1533 C1535 1.404 . S
C1534 H1507 0.950 . S
C1534 C1520 1.361 1_545 S
C1534 C1533 1.373 . S
C1535 C1519 1.361 1_545 S
C1535 C1533 1.404 . S
C1535 C1536 1.522 1_545 S
C1536 C1535 1.522 1_565 S
C1536 C1537 1.379 1_565 S
C1536 C1541 1.390 . S
C1537 H1508 0.950 . S
C1537 C1536 1.379 1_545 S
C1537 C1538 1.334 . S
C1538 H1509 0.950 . S
C1538 C1537 1.334 . S
C1538 C1539 1.287 1_545 S
C1539 C1538 1.287 1_565 S
C1539 C1540 1.524 . S
C1539 H1542 0.999 . S
C1540 H1510 0.950 . S
C1540 C1539 1.524 . S
C1540 C1541 1.415 . S
C1541 H1511 0.950 . S
C1541 C1536 1.390 . S
C1541 C1540 1.415 . S
H1542 C1539 0.999 . S
H1543 C1524 0.913 . S
H1544 C1562 0.951 . S
H1545 C1564 0.951 . S
H1546 C1566 0.950 . S
H1547 C1567 0.950 . S
H1548 C1569 0.950 . S
H1549 C1572 0.950 . S
H1550 C1573 0.950 . S
H1551 C1575 0.950 1_554 S
H1552 C1576 0.950 . S
H1553 C1577 0.951 . S
H1554 C1579 0.951 . S
H1555 C1581 0.950 . S
H1556 C1582 0.950 . S
H1557 C1584 0.948 1_556 S
H1558 C1587 0.950 . S
H1559 C1588 0.950 . S
H1560 C1590 0.950 . S
H1561 C1591 0.950 1_556 S
C1562 H1544 0.951 . S
C1562 C1563 1.366 . S
C1562 C1564 1.388 . S
C1563 C1562 1.366 . S
C1563 C1567 1.385 1_554 S
C1564 H1545 0.951 . S
C1564 C1562 1.388 . S
C1564 C1565 1.366 . S
C1565 C1564 1.366 . S
C1565 C1566 1.414 1_554 S
C1565 C1568 1.499 . S
C1566 H1546 0.950 . S
C1566 C1565 1.414 1_556 S
C1566 C1567 1.374 . S
C1567 H1547 0.950 . S
C1567 C1563 1.385 1_556 S
C1567 C1566 1.374 . S
C1568 C1565 1.499 . S
C1568 C1569 1.373 . S
C1568 C1570 1.395 1_554 S
C1569 H1548 0.950 . S
C1569 C1568 1.373 . S
C1569 C1585 1.371 1_455 S
C1570 C1568 1.395 1_556 S
C1570 C1571 1.522 1_455 S
C1570 C1584 1.370 1_456 S
C1571 C1570 1.522 1_655 S
C1571 C1572 1.367 1_655 S
C1571 C1576 1.400 1_556 S
C1572 H1549 0.950 . S
C1572 C1571 1.367 1_455 S
C1572 C1573 1.334 . S
C1573 H1550 0.950 . S
C1573 C1572 1.334 . S
C1573 C1574 1.287 1_455 S
C1574 C1573 1.287 1_655 S
C1574 C1575 1.524 . S
C1574 H1593 0.913 . S
C1575 H1551 0.950 1_556 S
C1575 C1574 1.524 . S
C1575 C1576 1.415 1_556 S
C1576 H1552 0.950 . S
C1576 C1571 1.400 1_554 S
C1576 C1575 1.415 1_554 S
C1577 H1553 0.951 . S
C1577 C1578 1.366 1_556 S
C1577 C1579 1.388 . S
C1578 C1577 1.366 1_554 S
C1578 C1582 1.385 . S
C1579 H1554 0.951 . S
C1579 C1577 1.388 . S
C1579 C1580 1.366 1_556 S
C1580 C1579 1.366 1_554 S
C1580 C1581 1.414 . S
C1580 C1583 1.499 . S
C1581 H1555 0.950 . S
C1581 C1580 1.414 . S
C1581 C1582 1.374 . S
C1582 H1556 0.950 . S
C1582 C1578 1.385 . S
C1582 C1581 1.374 . S
C1583 C1580 1.499 . S
C1583 C1584 1.377 . S
C1583 C1585 1.395 . S
C1584 H1557 0.948 1_554 S
C1584 C1570 1.370 1_654 S
C1584 C1583 1.377 . S
C1585 C1569 1.371 1_655 S
C1585 C1583 1.395 . S
C1585 C1586 1.522 1_655 S
C1586 C1585 1.522 1_455 S
C1586 C1587 1.367 1_455 S
C1586 C1591 1.400 . S
C1587 H1558 0.950 . S
C1587 C1586 1.367 1_655 S
C1587 C1588 1.334 . S
C1588 H1559 0.950 . S
C1588 C1587 1.334 . S
C1588 C1589 1.287 1_655 S
C1589 C1588 1.287 1_455 S
C1589 C1590 1.524 . S
C1589 H1592 0.999 . S
C1590 H1560 0.950 . S
C1590 C1589 1.524 . S
C1590 C1591 1.415 . S
C1591 H1561 0.950 1_554 S
C1591 C1586 1.400 . S
C1591 C1590 1.415 . S
H1592 C1589 0.999 . S
H1593 C1574 0.913 . S
H1594 C1612 0.951 . S
H1595 C1614 0.951 . S
H1596 C1616 0.950 . S
H1597 C1617 0.950 . S
H1598 C1619 0.950 . S
H1599 C1622 0.950 . S
H1600 C1623 0.950 . S
H1601 C1625 0.950 . S
H1602 C1626 0.950 . S
H1603 C1627 0.951 . S
H1604 C1629 0.951 . S
H1605 C1631 0.950 . S
H1606 C1632 0.950 . S
H1607 C1634 0.950 . S
H1608 C1637 0.950 . S
H1609 C1638 0.950 . S
H1610 C1640 0.950 . S
H1611 C1641 0.950 . S
C1612 H1594 0.951 . S
C1612 C1613 1.366 . S
C1612 C1614 1.388 . S
C1613 C1612 1.366 . S
C1613 C1617 1.385 . S
C1614 H1595 0.951 . S
C1614 C1612 1.388 . S
C1614 C1615 1.366 . S
C1615 C1614 1.366 . S
C1615 C1616 1.414 . S
C1615 C1618 1.499 . S
C1616 H1596 0.950 . S
C1616 C1615 1.414 . S
C1616 C1617 1.374 . S
C1617 H1597 0.950 . S
C1617 C1613 1.385 . S
C1617 C1616 1.374 . S
C1618 C1615 1.499 . S
C1618 C1619 1.373 . S
C1618 C1620 1.389 . S
C1619 H1598 0.950 . S
C1619 C1618 1.373 . S
C1619 C1635 1.377 . S
C1620 C1618 1.389 . S
C1620 C1621 1.524 . S
C1620 C1634 1.377 . S
C1621 C1620 1.524 . S
C1621 C1622 1.397 . S
C1621 C1626 1.363 . S
C1622 H1599 0.950 . S
C1622 C1621 1.397 . S
C1622 C1623 1.334 . S
C1623 H1600 0.950 . S
C1623 C1622 1.334 . S
C1623 C1624 1.287 . S
C1624 C1623 1.287 . S
C1624 C1625 1.524 . S
C1624 H1643 0.913 . S
C1625 H1601 0.950 . S
C1625 C1624 1.524 . S
C1625 C1626 1.415 . S
C1626 H1602 0.950 . S
C1626 C1621 1.363 . S
C1626 C1625 1.415 . S
C1627 H1603 0.951 . S
C1627 C1628 1.366 . S
C1627 C1629 1.388 . S
C1628 C1627 1.366 . S
C1628 C1632 1.385 . S
C1629 H1604 0.951 . S
C1629 C1627 1.388 . S
C1629 C1630 1.366 . S
C1630 C1629 1.366 . S
C1630 C1631 1.414 . S
C1630 C1633 1.499 . S
C1631 H1605 0.950 . S
C1631 C1630 1.414 . S
C1631 C1632 1.374 . S
C1632 H1606 0.950 . S
C1632 C1628 1.385 . S
C1632 C1631 1.374 . S
C1633 C1630 1.499 . S
C1633 C1634 1.373 . S
C1633 C1635 1.389 . S
C1634 H1607 0.950 . S
C1634 C1620 1.377 . S
C1634 C1633 1.373 . S
C1635 C1619 1.377 . S
C1635 C1633 1.389 . S
C1635 C1636 1.524 . S
C1636 C1635 1.524 . S
C1636 C1637 1.397 . S
C1636 C1641 1.363 . S
C1637 H1608 0.950 . S
C1637 C1636 1.397 . S
C1637 C1638 1.334 . S
C1638 H1609 0.950 . S
C1638 C1637 1.334 . S
C1638 C1639 1.287 . S
C1639 C1638 1.287 . S
C1639 C1640 1.524 . S
C1639 H1642 0.999 . S
C1640 H1610 0.950 . S
C1640 C1639 1.524 . S
C1640 C1641 1.415 . S
C1641 H1611 0.950 . S
C1641 C1636 1.363 . S
C1641 C1640 1.415 . S
H1642 C1639 0.999 . S
H1643 C1624 0.913 . S
H1644 C1662 0.951 . S
H1645 C1664 0.951 . S
H1646 C1666 0.950 . S
H1647 C1667 0.950 . S
H1648 C1669 0.950 . S
H1649 C1672 0.950 . S
H1650 C1673 0.950 . S
H1651 C1675 0.950 . S
H1652 C1676 0.950 . S
H1653 C1677 0.951 . S
H1654 C1679 0.951 . S
H1655 C1681 0.950 . S
H1656 C1682 0.950 . S
H1657 C1684 0.950 . S
H1658 C1687 0.950 . S
H1659 C1688 0.950 . S
H1660 C1690 0.950 . S
H1661 C1691 0.950 . S
C1662 H1644 0.951 . S
C1662 C1663 1.366 . S
C1662 C1664 1.388 . S
C1663 C1662 1.366 . S
C1663 C1667 1.385 . S
C1664 H1645 0.951 . S
C1664 C1662 1.388 . S
C1664 C1665 1.366 . S
C1665 C1664 1.366 . S
C1665 C1666 1.414 . S
C1665 C1668 1.499 . S
C1666 H1646 0.950 . S
C1666 C1665 1.414 . S
C1666 C1667 1.374 . S
C1667 H1647 0.950 . S
C1667 C1663 1.385 . S
C1667 C1666 1.374 . S
C1668 C1665 1.499 . S
C1668 C1669 1.373 1_545 S
C1668 C1670 1.389 . S
C1669 H1648 0.950 . S
C1669 C1668 1.373 1_565 S
C1669 C1685 1.377 . S
C1670 C1668 1.389 . S
C1670 C1671 1.524 . S
C1670 C1684 1.377 . S
C1671 C1670 1.524 . S
C1671 C1672 1.397 . S
C1671 C1676 1.363 . S
C1672 H1649 0.950 . S
C1672 C1671 1.397 . S
C1672 C1673 1.334 . S
C1673 H1650 0.950 . S
C1673 C1672 1.334 . S
C1673 C1674 1.287 . S
C1674 C1673 1.287 . S
C1674 C1675 1.524 . S
C1674 H1693 0.913 . S
C1675 H1651 0.950 . S
C1675 C1674 1.524 . S
C1675 C1676 1.415 . S
C1676 H1652 0.950 . S
C1676 C1671 1.363 . S
C1676 C1675 1.415 . S
C1677 H1653 0.951 . S
C1677 C1678 1.366 . S
C1677 C1679 1.388 . S
C1678 C1677 1.366 . S
C1678 C1682 1.385 . S
C1679 H1654 0.951 . S
C1679 C1677 1.388 . S
C1679 C1680 1.366 . S
C1680 C1679 1.366 . S
C1680 C1681 1.414 . S
C1680 C1683 1.499 . S
C1681 H1655 0.950 . S
C1681 C1680 1.414 . S
C1681 C1682 1.374 . S
C1682 H1656 0.950 . S
C1682 C1678 1.385 . S
C1682 C1681 1.374 . S
C1683 C1680 1.499 . S
C1683 C1684 1.373 1_565 S
C1683 C1685 1.389 . S
C1684 H1657 0.950 . S
C1684 C1670 1.377 . S
C1684 C1683 1.373 1_545 S
C1685 C1669 1.377 . S
C1685 C1683 1.389 . S
C1685 C1686 1.524 . S
C1686 C1685 1.524 . S
C1686 C1687 1.397 . S
C1686 C1691 1.363 . S
C1687 H1658 0.950 . S
C1687 C1686 1.397 . S
C1687 C1688 1.334 . S
C1688 H1659 0.950 . S
C1688 C1687 1.334 . S
C1688 C1689 1.287 . S
C1689 C1688 1.287 . S
C1689 C1690 1.524 . S
C1689 H1692 0.999 . S
C1690 H1660 0.950 . S
C1690 C1689 1.524 . S
C1690 C1691 1.415 . S
C1691 H1661 0.950 . S
C1691 C1686 1.363 . S
C1691 C1690 1.415 . S
H1692 C1689 0.999 . S
H1693 C1674 0.913 . S
H1694 C1712 0.951 . S
H1695 C1714 0.951 . S
H1696 C1716 0.950 . S
H1697 C1717 0.950 . S
H1698 C1719 0.950 . S
H1699 C1722 0.950 . S
H1700 C1723 0.950 . S
H1701 C1725 0.950 . S
H1702 C1726 0.950 . S
H1703 C1727 0.951 . S
H1704 C1729 0.951 . S
H1705 C1731 0.950 . S
H1706 C1732 0.950 . S
H1707 C1734 0.950 . S
H1708 C1737 0.950 . S
H1709 C1738 0.950 . S
H1710 C1740 0.950 . S
H1711 C1741 0.950 . S
C1712 H1694 0.951 . S
C1712 C1713 1.366 . S
C1712 C1714 1.388 . S
C1713 C1712 1.366 . S
C1713 C1717 1.385 . S
C1714 H1695 0.951 . S
C1714 C1712 1.388 . S
C1714 C1715 1.366 . S
C1715 C1714 1.366 . S
C1715 C1716 1.414 . S
C1715 C1718 1.499 . S
C1716 H1696 0.950 . S
C1716 C1715 1.414 . S
C1716 C1717 1.374 . S
C1717 H1697 0.950 . S
C1717 C1713 1.385 . S
C1717 C1716 1.374 . S
C1718 C1715 1.499 . S
C1718 C1719 1.373 . S
C1718 C1720 1.389 1_455 S
C1719 H1698 0.950 . S
C1719 C1718 1.373 . S
C1719 C1735 1.377 1_545 S
C1720 C1718 1.389 1_655 S
C1720 C1721 1.524 . S
C1720 C1734 1.377 1_545 S
C1721 C1720 1.524 . S
C1721 C1722 1.397 . S
C1721 C1726 1.363 . S
C1722 H1699 0.950 . S
C1722 C1721 1.397 . S
C1722 C1723 1.334 . S
C1723 H1700 0.950 . S
C1723 C1722 1.334 . S
C1723 C1724 1.287 . S
C1724 C1723 1.287 . S
C1724 C1725 1.524 . S
C1724 H1743 0.913 . S
C1725 H1701 0.950 . S
C1725 C1724 1.524 . S
C1725 C1726 1.415 . S
C1726 H1702 0.950 . S
C1726 C1721 1.363 . S
C1726 C1725 1.415 . S
C1727 H1703 0.951 . S
C1727 C1728 1.366 . S
C1727 C1729 1.388 . S
C1728 C1727 1.366 . S
C1728 C1732 1.385 . S
C1729 H1704 0.951 . S
C1729 C1727 1.388 . S
C1729 C1730 1.366 . S
C1730 C1729 1.366 . S
C1730 C1731 1.414 . S
C1730 C1733 1.499 . S
C1731 H1705 0.950 . S
C1731 C1730 1.414 . S
C1731 C1732 1.374 . S
C1732 H1706 0.950 . S
C1732 C1728 1.385 . S
C1732 C1731 1.374 . S
C1733 C1730 1.499 . S
C1733 C1734 1.373 . S
C1733 C1735 1.389 1_655 S
C1734 H1707 0.950 . S
C1734 C1720 1.377 1_565 S
C1734 C1733 1.373 . S
C1735 C1719 1.377 1_565 S
C1735 C1733 1.389 1_455 S
C1735 C1736 1.524 . S
C1736 C1735 1.524 . S
C1736 C1737 1.397 . S
C1736 C1741 1.363 . S
C1737 H1708 0.950 . S
C1737 C1736 1.397 . S
C1737 C1738 1.334 . S
C1738 H1709 0.950 . S
C1738 C1737 1.334 . S
C1738 C1739 1.287 . S
C1739 C1738 1.287 . S
C1739 C1740 1.524 . S
C1739 H1742 0.999 . S
C1740 H1710 0.950 . S
C1740 C1739 1.524 . S
C1740 C1741 1.415 . S
C1741 H1711 0.950 . S
C1741 C1736 1.363 . S
C1741 C1740 1.415 . S
H1742 C1739 0.999 . S
H1743 C1724 0.913 . S
H1744 C1762 0.951 . S
H1745 C1764 0.951 . S
H1746 C1766 0.950 . S
H1747 C1767 0.950 . S
H1748 C1769 0.950 . S
H1749 C1772 0.950 . S
H1750 C1773 0.950 . S
H1751 C1775 0.950 . S
H1752 C1776 0.950 . S
H1753 C1777 0.951 . S
H1754 C1779 0.951 . S
H1755 C1781 0.950 . S
H1756 C1782 0.950 . S
H1757 C1784 0.950 . S
H1758 C1787 0.950 . S
H1759 C1788 0.950 . S
H1760 C1790 0.950 . S
H1761 C1791 0.950 . S
C1762 H1744 0.951 . S
C1762 C1763 1.366 . S
C1762 C1764 1.388 . S
C1763 C1762 1.366 . S
C1763 C1767 1.385 . S
C1764 H1745 0.951 . S
C1764 C1762 1.388 . S
C1764 C1765 1.366 . S
C1765 C1764 1.366 . S
C1765 C1766 1.414 . S
C1765 C1768 1.499 . S
C1766 H1746 0.950 . S
C1766 C1765 1.414 . S
C1766 C1767 1.374 . S
C1767 H1747 0.950 . S
C1767 C1763 1.385 . S
C1767 C1766 1.374 . S
C1768 C1765 1.499 . S
C1768 C1769 1.373 . S
C1768 C1770 1.389 . S
C1769 H1748 0.950 . S
C1769 C1768 1.373 . S
C1769 C1785 1.377 . S
C1770 C1768 1.389 . S
C1770 C1771 1.524 . S
C1770 C1784 1.377 . S
C1771 C1770 1.524 . S
C1771 C1772 1.397 . S
C1771 C1776 1.363 . S
C1772 H1749 0.950 . S
C1772 C1771 1.397 . S
C1772 C1773 1.334 . S
C1773 H1750 0.950 . S
C1773 C1772 1.334 . S
C1773 C1774 1.287 . S
C1774 C1773 1.287 . S
C1774 C1775 1.524 . S
C1774 H1793 0.913 . S
C1775 H1751 0.950 . S
C1775 C1774 1.524 . S
C1775 C1776 1.415 . S
C1776 H1752 0.950 . S
C1776 C1771 1.363 . S
C1776 C1775 1.415 . S
C1777 H1753 0.951 . S
C1777 C1778 1.366 . S
C1777 C1779 1.388 . S
C1778 C1777 1.366 . S
C1778 C1782 1.385 . S
C1779 H1754 0.951 . S
C1779 C1777 1.388 . S
C1779 C1780 1.366 . S
C1780 C1779 1.366 . S
C1780 C1781 1.414 . S
C1780 C1783 1.499 . S
C1781 H1755 0.950 . S
C1781 C1780 1.414 . S
C1781 C1782 1.374 . S
C1782 H1756 0.950 . S
C1782 C1778 1.385 . S
C1782 C1781 1.374 . S
C1783 C1780 1.499 . S
C1783 C1784 1.373 . S
C1783 C1785 1.389 . S
C1784 H1757 0.950 . S
C1784 C1770 1.377 . S
C1784 C1783 1.373 . S
C1785 C1769 1.377 . S
C1785 C1783 1.389 . S
C1785 C1786 1.524 . S
C1786 C1785 1.524 . S
C1786 C1787 1.397 . S
C1786 C1791 1.363 . S
C1787 H1758 0.950 . S
C1787 C1786 1.397 . S
C1787 C1788 1.334 . S
C1788 H1759 0.950 . S
C1788 C1787 1.334 . S
C1788 C1789 1.287 . S
C1789 C1788 1.287 . S
C1789 C1790 1.524 . S
C1789 H1792 0.999 . S
C1790 H1760 0.950 . S
C1790 C1789 1.524 . S
C1790 C1791 1.415 . S
C1791 H1761 0.950 . S
C1791 C1786 1.363 . S
C1791 C1790 1.415 . S
H1792 C1789 0.999 . S
H1793 C1774 0.913 . S
H1794 C1812 0.951 . S
H1795 C1814 0.951 . S
H1796 C1816 0.950 . S
H1797 C1817 0.950 . S
H1798 C1819 0.950 . S
H1799 C1822 0.950 . S
H1800 C1823 0.950 . S
H1801 C1825 0.950 . S
H1802 C1826 0.950 . S
H1803 C1827 0.951 . S
H1804 C1829 0.951 . S
H1805 C1831 0.950 . S
H1806 C1832 0.950 . S
H1807 C1834 0.950 . S
H1808 C1837 0.950 . S
H1809 C1838 0.950 . S
H1810 C1840 0.950 . S
H1811 C1841 0.950 . S
C1812 H1794 0.951 . S
C1812 C1813 1.366 . S
C1812 C1814 1.388 . S
C1813 C1812 1.366 . S
C1813 C1817 1.385 . S
C1814 H1795 0.951 . S
C1814 C1812 1.388 . S
C1814 C1815 1.366 . S
C1815 C1814 1.366 . S
C1815 C1816 1.414 . S
C1815 C1818 1.499 . S
C1816 H1796 0.950 . S
C1816 C1815 1.414 . S
C1816 C1817 1.374 . S
C1817 H1797 0.950 . S
C1817 C1813 1.385 . S
C1817 C1816 1.374 . S
C1818 C1815 1.499 . S
C1818 C1819 1.373 . S
C1818 C1820 1.389 . S
C1819 H1798 0.950 . S
C1819 C1818 1.373 . S
C1819 C1835 1.377 . S
C1820 C1818 1.389 . S
C1820 C1821 1.524 . S
C1820 C1834 1.377 . S
C1821 C1820 1.524 . S
C1821 C1822 1.397 . S
C1821 C1826 1.363 . S
C1822 H1799 0.950 . S
C1822 C1821 1.397 . S
C1822 C1823 1.334 . S
C1823 H1800 0.950 . S
C1823 C1822 1.334 . S
C1823 C1824 1.287 . S
C1824 C1823 1.287 . S
C1824 C1825 1.524 . S
C1824 H1843 0.913 . S
C1825 H1801 0.950 . S
C1825 C1824 1.524 . S
C1825 C1826 1.415 . S
C1826 H1802 0.950 . S
C1826 C1821 1.363 . S
C1826 C1825 1.415 . S
C1827 H1803 0.951 . S
C1827 C1828 1.366 . S
C1827 C1829 1.388 . S
C1828 C1827 1.366 . S
C1828 C1832 1.385 . S
C1829 H1804 0.951 . S
C1829 C1827 1.388 . S
C1829 C1830 1.366 . S
C1830 C1829 1.366 . S
C1830 C1831 1.414 . S
C1830 C1833 1.499 . S
C1831 H1805 0.950 . S
C1831 C1830 1.414 . S
C1831 C1832 1.374 . S
C1832 H1806 0.950 . S
C1832 C1828 1.385 . S
C1832 C1831 1.374 . S
C1833 C1830 1.499 . S
C1833 C1834 1.373 . S
C1833 C1835 1.389 . S
C1834 H1807 0.950 . S
C1834 C1820 1.377 . S
C1834 C1833 1.373 . S
C1835 C1819 1.377 . S
C1835 C1833 1.389 . S
C1835 C1836 1.524 . S
C1836 C1835 1.524 . S
C1836 C1837 1.397 . S
C1836 C1841 1.363 . S
C1837 H1808 0.950 . S
C1837 C1836 1.397 . S
C1837 C1838 1.334 . S
C1838 H1809 0.950 . S
C1838 C1837 1.334 . S
C1838 C1839 1.287 . S
C1839 C1838 1.287 . S
C1839 C1840 1.524 . S
C1839 H1842 0.999 . S
C1840 H1810 0.950 . S
C1840 C1839 1.524 . S
C1840 C1841 1.415 . S
C1841 H1811 0.950 . S
C1841 C1836 1.363 . S
C1841 C1840 1.415 . S
H1842 C1839 0.999 . S
H1843 C1824 0.913 . S
H1844 C1862 0.951 . S
H1845 C1864 0.951 . S
H1846 C1866 0.950 . S
H1847 C1867 0.950 . S
H1848 C1869 0.950 . S
H1849 C1872 0.950 . S
H1850 C1873 0.950 . S
H1851 C1875 0.950 . S
H1852 C1876 0.950 . S
H1853 C1877 0.951 . S
H1854 C1879 0.951 . S
H1855 C1881 0.950 . S
H1856 C1882 0.950 . S
H1857 C1884 0.954 . S
H1858 C1887 0.950 . S
H1859 C1888 0.950 . S
H1860 C1890 0.950 . S
H1861 C1891 0.950 . S
C1862 H1844 0.951 . S
C1862 C1863 1.366 . S
C1862 C1864 1.388 . S
C1863 C1862 1.366 . S
C1863 C1867 1.385 . S
C1864 H1845 0.951 . S
C1864 C1862 1.388 . S
C1864 C1865 1.366 . S
C1865 C1864 1.366 . S
C1865 C1866 1.414 . S
C1865 C1868 1.499 . S
C1866 H1846 0.950 . S
C1866 C1865 1.414 . S
C1866 C1867 1.374 . S
C1867 H1847 0.950 . S
C1867 C1863 1.385 . S
C1867 C1866 1.374 . S
C1868 C1865 1.499 . S
C1868 C1869 1.373 . S
C1868 C1870 1.389 . S
C1869 H1848 0.950 . S
C1869 C1868 1.373 . S
C1869 C1885 1.377 . S
C1870 C1868 1.389 . S
C1870 C1871 1.524 . S
C1870 C1884 1.377 . S
C1871 C1870 1.524 . S
C1871 C1872 1.397 . S
C1871 C1876 1.363 . S
C1872 H1849 0.950 . S
C1872 C1871 1.397 . S
C1872 C1873 1.334 . S
C1873 H1850 0.950 . S
C1873 C1872 1.334 . S
C1873 C1874 1.287 . S
C1874 C1873 1.287 . S
C1874 C1875 1.524 . S
C1874 H1893 0.913 . S
C1875 H1851 0.950 . S
C1875 C1874 1.524 . S
C1875 C1876 1.415 . S
C1876 H1852 0.950 . S
C1876 C1871 1.363 . S
C1876 C1875 1.415 . S
C1877 H1853 0.951 . S
C1877 C1878 1.366 . S
C1877 C1879 1.388 . S
C1878 C1877 1.366 . S
C1878 C1882 1.385 . S
C1879 H1854 0.951 . S
C1879 C1877 1.388 . S
C1879 C1880 1.366 . S
C1880 C1879 1.366 . S
C1880 C1881 1.414 . S
C1880 C1883 1.499 1_556 S
C1881 H1855 0.950 . S
C1881 C1880 1.414 . S
C1881 C1882 1.374 . S
C1882 H1856 0.950 . S
C1882 C1878 1.385 . S
C1882 C1881 1.374 . S
C1883 C1880 1.499 1_554 S
C1883 C1884 1.373 . S
C1883 C1885 1.389 . S
C1884 H1857 0.954 . S
C1884 C1870 1.377 . S
C1884 C1883 1.373 . S
C1885 C1869 1.377 . S
C1885 C1883 1.389 . S
C1885 C1886 1.524 . S
C1886 C1885 1.524 . S
C1886 C1887 1.397 1_554 S
C1886 C1891 1.363 . S
C1887 H1858 0.950 . S
C1887 C1886 1.397 1_556 S
C1887 C1888 1.334 . S
C1888 H1859 0.950 . S
C1888 C1887 1.334 . S
C1888 C1889 1.287 . S
C1889 C1888 1.287 . S
C1889 C1890 1.524 1_556 S
C1889 H1892 0.999 . S
C1890 H1860 0.950 . S
C1890 C1889 1.524 1_554 S
C1890 C1891 1.415 . S
C1891 H1861 0.950 . S
C1891 C1886 1.363 . S
C1891 C1890 1.415 . S
H1892 C1889 0.999 . S
H1893 C1874 0.913 . S
H1894 C1912 0.951 . S
H1895 C1914 0.951 . S
H1896 C1916 0.950 . S
H1897 C1917 0.950 . S
H1898 C1919 0.950 . S
H1899 C1922 0.950 . S
H1900 C1923 0.950 . S
H1901 C1925 0.950 . S
H1902 C1926 0.950 . S
H1903 C1927 0.951 . S
H1904 C1929 0.951 . S
H1905 C1931 0.950 . S
H1906 C1932 0.950 . S
H1907 C1934 0.950 . S
H1908 C1937 0.950 . S
H1909 C1938 0.950 . S
H1910 C1940 0.950 . S
H1911 C1941 0.950 . S
C1912 H1894 0.951 . S
C1912 C1913 1.366 . S
C1912 C1914 1.388 . S
C1913 C1912 1.366 . S
C1913 C1917 1.385 . S
C1914 H1895 0.951 . S
C1914 C1912 1.388 . S
C1914 C1915 1.366 . S
C1915 C1914 1.366 . S
C1915 C1916 1.414 . S
C1915 C1918 1.499 . S
C1916 H1896 0.950 . S
C1916 C1915 1.414 . S
C1916 C1917 1.374 . S
C1917 H1897 0.950 . S
C1917 C1913 1.385 . S
C1917 C1916 1.374 . S
C1918 C1915 1.499 . S
C1918 C1919 1.373 . S
C1918 C1920 1.389 . S
C1919 H1898 0.950 . S
C1919 C1918 1.373 . S
C1919 C1935 1.377 . S
C1920 C1918 1.389 . S
C1920 C1921 1.524 . S
C1920 C1934 1.377 . S
C1921 C1920 1.524 . S
C1921 C1922 1.397 . S
C1921 C1926 1.363 . S
C1922 H1899 0.950 . S
C1922 C1921 1.397 . S
C1922 C1923 1.334 . S
C1923 H1900 0.950 . S
C1923 C1922 1.334 . S
C1923 C1924 1.287 . S
C1924 C1923 1.287 . S
C1924 C1925 1.524 . S
C1924 H1943 0.913 . S
C1925 H1901 0.950 . S
C1925 C1924 1.524 . S
C1925 C1926 1.415 . S
C1926 H1902 0.950 . S
C1926 C1921 1.363 . S
C1926 C1925 1.415 . S
C1927 H1903 0.951 . S
C1927 C1928 1.366 . S
C1927 C1929 1.388 . S
C1928 C1927 1.366 . S
C1928 C1932 1.385 . S
C1929 H1904 0.951 . S
C1929 C1927 1.388 . S
C1929 C1930 1.366 . S
C1930 C1929 1.366 . S
C1930 C1931 1.414 . S
C1930 C1933 1.499 . S
C1931 H1905 0.950 . S
C1931 C1930 1.414 . S
C1931 C1932 1.374 . S
C1932 H1906 0.950 . S
C1932 C1928 1.385 . S
C1932 C1931 1.374 . S
C1933 C1930 1.499 . S
C1933 C1934 1.373 . S
C1933 C1935 1.389 . S
C1934 H1907 0.950 . S
C1934 C1920 1.377 . S
C1934 C1933 1.373 . S
C1935 C1919 1.377 . S
C1935 C1933 1.389 . S
C1935 C1936 1.524 . S
C1936 C1935 1.524 . S
C1936 C1937 1.397 . S
C1936 C1941 1.363 . S
C1937 H1908 0.950 . S
C1937 C1936 1.397 . S
C1937 C1938 1.334 . S
C1938 H1909 0.950 . S
C1938 C1937 1.334 . S
C1938 C1939 1.287 . S
C1939 C1938 1.287 . S
C1939 C1940 1.524 . S
C1939 H1942 0.999 . S
C1940 H1910 0.950 . S
C1940 C1939 1.524 . S
C1940 C1941 1.415 . S
C1941 H1911 0.950 . S
C1941 C1936 1.363 . S
C1941 C1940 1.415 . S
H1942 C1939 0.999 . S
H1943 C1924 0.913 . S
H1944 C1962 0.951 . S
H1945 C1964 0.951 . S
H1946 C1966 0.950 . S
H1947 C1967 0.950 . S
H1948 C1969 0.950 . S
H1949 C1972 0.950 . S
H1950 C1973 0.950 . S
H1951 C1975 0.950 . S
H1952 C1976 0.950 . S
H1953 C1977 0.951 . S
H1954 C1979 0.951 . S
H1955 C1981 0.950 . S
H1956 C1982 0.950 . S
H1957 C1984 0.950 . S
H1958 C1987 0.950 . S
H1959 C1988 0.950 . S
H1960 C1990 0.950 . S
H1961 C1991 0.950 . S
C1962 H1944 0.951 . S
C1962 C1963 1.366 . S
C1962 C1964 1.388 . S
C1963 C1962 1.366 . S
C1963 C1967 1.385 . S
C1964 H1945 0.951 . S
C1964 C1962 1.388 . S
C1964 C1965 1.366 . S
C1965 C1964 1.366 . S
C1965 C1966 1.414 . S
C1965 C1968 1.499 . S
C1966 H1946 0.950 . S
C1966 C1965 1.414 . S
C1966 C1967 1.374 . S
C1967 H1947 0.950 . S
C1967 C1963 1.385 . S
C1967 C1966 1.374 . S
C1968 C1965 1.499 . S
C1968 C1969 1.373 . S
C1968 C1970 1.389 . S
C1969 H1948 0.950 . S
C1969 C1968 1.373 . S
C1969 C1985 1.377 . S
C1970 C1968 1.389 . S
C1970 C1971 1.524 . S
C1970 C1984 1.377 . S
C1971 C1970 1.524 . S
C1971 C1972 1.397 . S
C1971 C1976 1.363 . S
C1972 H1949 0.950 . S
C1972 C1971 1.397 . S
C1972 C1973 1.334 . S
C1973 H1950 0.950 . S
C1973 C1972 1.334 . S
C1973 C1974 1.287 . S
C1974 C1973 1.287 . S
C1974 C1975 1.524 . S
C1974 H1993 0.913 . S
C1975 H1951 0.950 . S
C1975 C1974 1.524 . S
C1975 C1976 1.415 . S
C1976 H1952 0.950 . S
C1976 C1971 1.363 . S
C1976 C1975 1.415 . S
C1977 H1953 0.951 . S
C1977 C1978 1.366 . S
C1977 C1979 1.388 . S
C1978 C1977 1.366 . S
C1978 C1982 1.385 . S
C1979 H1954 0.951 . S
C1979 C1977 1.388 . S
C1979 C1980 1.366 . S
C1980 C1979 1.366 . S
C1980 C1981 1.414 . S
C1980 C1983 1.499 . S
C1981 H1955 0.950 . S
C1981 C1980 1.414 . S
C1981 C1982 1.374 . S
C1982 H1956 0.950 . S
C1982 C1978 1.385 . S
C1982 C1981 1.374 . S
C1983 C1980 1.499 . S
C1983 C1984 1.373 . S
C1983 C1985 1.389 . S
C1984 H1957 0.950 . S
C1984 C1970 1.377 . S
C1984 C1983 1.373 . S
C1985 C1969 1.377 . S
C1985 C1983 1.389 . S
C1985 C1986 1.524 . S
C1986 C1985 1.524 . S
C1986 C1987 1.397 . S
C1986 C1991 1.363 . S
C1987 H1958 0.950 . S
C1987 C1986 1.397 . S
C1987 C1988 1.334 . S
C1988 H1959 0.950 . S
C1988 C1987 1.334 . S
C1988 C1989 1.287 . S
C1989 C1988 1.287 . S
C1989 C1990 1.524 . S
C1989 H1992 0.999 . S
C1990 H1960 0.950 . S
C1990 C1989 1.524 . S
C1990 C1991 1.415 . S
C1991 H1961 0.950 . S
C1991 C1986 1.363 . S
C1991 C1990 1.415 . S
H1992 C1989 0.999 . S
H1993 C1974 0.913 . S
H1994 C2012 0.951 . S
H1995 C2014 0.951 . S
H1996 C2016 0.950 . S
H1997 C2017 0.950 . S
H1998 C2019 0.950 . S
H1999 C2022 0.950 . S
H2000 C2023 0.950 . S
H2001 C2025 0.950 . S
H2002 C2026 0.950 . S
H2003 C2027 0.951 . S
H2004 C2029 0.951 . S
H2005 C2031 0.950 . S
H2006 C2032 0.950 . S
H2007 C2034 0.950 . S
H2008 C2037 0.950 . S
H2009 C2038 0.950 . S
H2010 C2040 0.950 . S
H2011 C2041 0.950 . S
C2012 H1994 0.951 . S
C2012 C2013 1.366 . S
C2012 C2014 1.388 . S
C2013 C2012 1.366 . S
C2013 C2017 1.385 . S
C2014 H1995 0.951 . S
C2014 C2012 1.388 . S
C2014 C2015 1.366 . S
C2015 C2014 1.366 . S
C2015 C2016 1.414 . S
C2015 C2018 1.499 . S
C2016 H1996 0.950 . S
C2016 C2015 1.414 . S
C2016 C2017 1.374 . S
C2017 H1997 0.950 . S
C2017 C2013 1.385 . S
C2017 C2016 1.374 . S
C2018 C2015 1.499 . S
C2018 C2019 1.373 . S
C2018 C2020 1.389 . S
C2019 H1998 0.950 . S
C2019 C2018 1.373 . S
C2019 C2035 1.377 . S
C2020 C2018 1.389 . S
C2020 C2021 1.524 . S
C2020 C2034 1.377 . S
C2021 C2020 1.524 . S
C2021 C2022 1.397 . S
C2021 C2026 1.363 . S
C2022 H1999 0.950 . S
C2022 C2021 1.397 . S
C2022 C2023 1.334 . S
C2023 H2000 0.950 . S
C2023 C2022 1.334 . S
C2023 C2024 1.287 . S
C2024 C2023 1.287 . S
C2024 C2025 1.524 . S
C2024 H2043 0.913 . S
C2025 H2001 0.950 . S
C2025 C2024 1.524 . S
C2025 C2026 1.415 . S
C2026 H2002 0.950 . S
C2026 C2021 1.363 . S
C2026 C2025 1.415 . S
C2027 H2003 0.951 . S
C2027 C2028 1.366 . S
C2027 C2029 1.388 . S
C2028 C2027 1.366 . S
C2028 C2032 1.385 . S
C2029 H2004 0.951 . S
C2029 C2027 1.388 . S
C2029 C2030 1.366 . S
C2030 C2029 1.366 . S
C2030 C2031 1.414 . S
C2030 C2033 1.499 1_556 S
C2031 H2005 0.950 . S
C2031 C2030 1.414 . S
C2031 C2032 1.374 . S
C2032 H2006 0.950 . S
C2032 C2028 1.385 . S
C2032 C2031 1.374 . S
C2033 C2030 1.499 1_554 S
C2033 C2034 1.373 . S
C2033 C2035 1.389 . S
C2034 H2007 0.950 . S
C2034 C2020 1.377 . S
C2034 C2033 1.373 . S
C2035 C2019 1.377 . S
C2035 C2033 1.389 . S
C2035 C2036 1.524 . S
C2036 C2035 1.524 . S
C2036 C2037 1.397 1_554 S
C2036 C2041 1.363 . S
C2037 H2008 0.950 . S
C2037 C2036 1.397 1_556 S
C2037 C2038 1.334 . S
C2038 H2009 0.950 . S
C2038 C2037 1.334 . S
C2038 C2039 1.287 . S
C2039 C2038 1.287 . S
C2039 C2040 1.524 1_556 S
C2039 H2042 0.999 . S
C2040 H2010 0.950 . S
C2040 C2039 1.524 1_554 S
C2040 C2041 1.415 . S
C2041 H2011 0.950 . S
C2041 C2036 1.363 . S
C2041 C2040 1.415 . S
H2042 C2039 0.999 . S
H2043 C2024 0.913 . S
H2044 C2062 0.951 . S
H2045 C2064 0.951 . S
H2046 C2066 0.950 . S
H2047 C2067 0.950 . S
H2048 C2069 0.950 . S
H2049 C2072 0.950 . S
H2050 C2073 0.950 . S
H2051 C2075 0.950 . S
H2052 C2076 0.950 . S
H2053 C2077 0.951 . S
H2054 C2079 0.951 . S
H2055 C2081 0.950 . S
H2056 C2082 0.950 . S
H2057 C2084 0.950 . S
H2058 C2087 0.950 . S
H2059 C2088 0.950 . S
H2060 C2090 0.950 . S
H2061 C2091 0.950 . S
C2062 H2044 0.951 . S
C2062 C2063 1.366 . S
C2062 C2064 1.388 . S
C2063 C2062 1.366 . S
C2063 C2067 1.385 . S
C2064 H2045 0.951 . S
C2064 C2062 1.388 . S
C2064 C2065 1.366 . S
C2065 C2064 1.366 . S
C2065 C2066 1.414 . S
C2065 C2068 1.499 . S
C2066 H2046 0.950 . S
C2066 C2065 1.414 . S
C2066 C2067 1.374 . S
C2067 H2047 0.950 . S
C2067 C2063 1.385 . S
C2067 C2066 1.374 . S
C2068 C2065 1.499 . S
C2068 C2069 1.373 . S
C2068 C2070 1.389 . S
C2069 H2048 0.950 . S
C2069 C2068 1.373 . S
C2069 C2085 1.377 . S
C2070 C2068 1.389 . S
C2070 C2071 1.524 . S
C2070 C2084 1.377 . S
C2071 C2070 1.524 . S
C2071 C2072 1.397 . S
C2071 C2076 1.363 . S
C2072 H2049 0.950 . S
C2072 C2071 1.397 . S
C2072 C2073 1.334 . S
C2073 H2050 0.950 . S
C2073 C2072 1.334 . S
C2073 C2074 1.287 . S
C2074 C2073 1.287 . S
C2074 C2075 1.524 . S
C2074 H2093 0.913 . S
C2075 H2051 0.950 . S
C2075 C2074 1.524 . S
C2075 C2076 1.415 . S
C2076 H2052 0.950 . S
C2076 C2071 1.363 . S
C2076 C2075 1.415 . S
C2077 H2053 0.951 . S
C2077 C2078 1.366 . S
C2077 C2079 1.388 . S
C2078 C2077 1.366 . S
C2078 C2082 1.385 . S
C2079 H2054 0.951 . S
C2079 C2077 1.388 . S
C2079 C2080 1.366 . S
C2080 C2079 1.366 . S
C2080 C2081 1.414 . S
C2080 C2083 1.499 . S
C2081 H2055 0.950 . S
C2081 C2080 1.414 . S
C2081 C2082 1.374 . S
C2082 H2056 0.950 . S
C2082 C2078 1.385 . S
C2082 C2081 1.374 . S
C2083 C2080 1.499 . S
C2083 C2084 1.373 . S
C2083 C2085 1.389 . S
C2084 H2057 0.950 . S
C2084 C2070 1.377 . S
C2084 C2083 1.373 . S
C2085 C2069 1.377 . S
C2085 C2083 1.389 . S
C2085 C2086 1.524 . S
C2086 C2085 1.524 . S
C2086 C2087 1.397 . S
C2086 C2091 1.363 . S
C2087 H2058 0.950 . S
C2087 C2086 1.397 . S
C2087 C2088 1.334 . S
C2088 H2059 0.950 . S
C2088 C2087 1.334 . S
C2088 C2089 1.287 . S
C2089 C2088 1.287 . S
C2089 C2090 1.524 . S
C2089 H2092 0.999 . S
C2090 H2060 0.950 . S
C2090 C2089 1.524 . S
C2090 C2091 1.415 . S
C2091 H2061 0.950 . S
C2091 C2086 1.363 . S
C2091 C2090 1.415 . S
H2092 C2089 0.999 . S
H2093 C2074 0.913 . S
H2094 C2112 0.951 . S
H2095 C2114 0.951 . S
H2096 C2116 0.950 . S
H2097 C2117 0.950 . S
H2098 C2119 0.950 . S
H2099 C2122 0.950 . S
H2100 C2123 0.950 . S
H2101 C2125 0.950 . S
H2102 C2126 0.950 . S
H2103 C2127 0.951 . S
H2104 C2129 0.951 . S
H2105 C2131 0.950 . S
H2106 C2132 0.950 . S
H2107 C2134 0.950 . S
H2108 C2137 0.950 . S
H2109 C2138 0.950 . S
H2110 C2140 0.950 . S
H2111 C2141 0.950 . S
C2112 H2094 0.951 . S
C2112 C2113 1.366 . S
C2112 C2114 1.388 . S
C2113 C2112 1.366 . S
C2113 C2117 1.385 . S
C2114 H2095 0.951 . S
C2114 C2112 1.388 . S
C2114 C2115 1.366 . S
C2115 C2114 1.366 . S
C2115 C2116 1.414 . S
C2115 C2118 1.499 . S
C2116 H2096 0.950 . S
C2116 C2115 1.414 . S
C2116 C2117 1.374 . S
C2117 H2097 0.950 . S
C2117 C2113 1.385 . S
C2117 C2116 1.374 . S
C2118 C2115 1.499 . S
C2118 C2119 1.373 . S
C2118 C2120 1.389 . S
C2119 H2098 0.950 . S
C2119 C2118 1.373 . S
C2119 C2135 1.377 . S
C2120 C2118 1.389 . S
C2120 C2121 1.524 . S
C2120 C2134 1.377 . S
C2121 C2120 1.524 . S
C2121 C2122 1.397 . S
C2121 C2126 1.363 . S
C2122 H2099 0.950 . S
C2122 C2121 1.397 . S
C2122 C2123 1.334 . S
C2123 H2100 0.950 . S
C2123 C2122 1.334 . S
C2123 C2124 1.287 . S
C2124 C2123 1.287 . S
C2124 C2125 1.524 . S
C2124 H2143 0.913 . S
C2125 H2101 0.950 . S
C2125 C2124 1.524 . S
C2125 C2126 1.415 . S
C2126 H2102 0.950 . S
C2126 C2121 1.363 . S
C2126 C2125 1.415 . S
C2127 H2103 0.951 . S
C2127 C2128 1.366 . S
C2127 C2129 1.388 . S
C2128 C2127 1.366 . S
C2128 C2132 1.385 . S
C2129 H2104 0.951 . S
C2129 C2127 1.388 . S
C2129 C2130 1.366 . S
C2130 C2129 1.366 . S
C2130 C2131 1.414 . S
C2130 C2133 1.499 . S
C2131 H2105 0.950 . S
C2131 C2130 1.414 . S
C2131 C2132 1.374 . S
C2132 H2106 0.950 . S
C2132 C2128 1.385 . S
C2132 C2131 1.374 . S
C2133 C2130 1.499 . S
C2133 C2134 1.373 . S
C2133 C2135 1.389 . S
C2134 H2107 0.950 . S
C2134 C2120 1.377 . S
C2134 C2133 1.373 . S
C2135 C2119 1.377 . S
C2135 C2133 1.389 . S
C2135 C2136 1.524 . S
C2136 C2135 1.524 . S
C2136 C2137 1.397 . S
C2136 C2141 1.363 . S
C2137 H2108 0.950 . S
C2137 C2136 1.397 . S
C2137 C2138 1.334 . S
C2138 H2109 0.950 . S
C2138 C2137 1.334 . S
C2138 C2139 1.287 . S
C2139 C2138 1.287 . S
C2139 C2140 1.524 . S
C2139 H2142 0.999 . S
C2140 H2110 0.950 . S
C2140 C2139 1.524 . S
C2140 C2141 1.415 . S
C2141 H2111 0.950 . S
C2141 C2136 1.363 . S
C2141 C2140 1.415 . S
H2142 C2139 0.999 . S
H2143 C2124 0.913 . S
H2144 C2162 0.951 . S
H2145 C2164 0.951 . S
H2146 C2166 0.950 . S
H2147 C2167 0.950 . S
H2148 C2169 0.950 . S
H2149 C2172 0.950 . S
H2150 C2173 0.950 . S
H2151 C2175 0.950 . S
H2152 C2176 0.950 1_554 S
H2153 C2177 0.951 . S
H2154 C2179 0.951 . S
H2155 C2181 0.950 . S
H2156 C2182 0.950 . S
H2157 C2184 0.950 . S
H2158 C2187 0.950 . S
H2159 C2188 0.950 . S
H2160 C2190 0.950 . S
H2161 C2191 0.950 . S
C2162 H2144 0.951 . S
C2162 C2163 1.366 . S
C2162 C2164 1.388 . S
C2163 C2162 1.366 . S
C2163 C2167 1.385 . S
C2164 H2145 0.951 . S
C2164 C2162 1.388 . S
C2164 C2165 1.366 . S
C2165 C2164 1.366 . S
C2165 C2166 1.414 . S
C2165 C2168 1.499 1_556 S
C2166 H2146 0.950 . S
C2166 C2165 1.414 . S
C2166 C2167 1.374 . S
C2167 H2147 0.950 . S
C2167 C2163 1.385 . S
C2167 C2166 1.374 . S
C2168 C2165 1.499 1_554 S
C2168 C2169 1.373 . S
C2168 C2170 1.389 . S
C2169 H2148 0.950 . S
C2169 C2168 1.373 . S
C2169 C2185 1.377 . S
C2170 C2168 1.389 . S
C2170 C2171 1.524 1_554 S
C2170 C2184 1.377 . S
C2171 C2170 1.524 1_556 S
C2171 C2172 1.397 . S
C2171 C2176 1.363 . S
C2172 H2149 0.950 . S
C2172 C2171 1.397 . S
C2172 C2173 1.334 . S
C2173 H2150 0.950 . S
C2173 C2172 1.334 . S
C2173 C2174 1.287 . S
C2174 C2173 1.287 . S
C2174 C2175 1.524 . S
C2174 H2193 0.913 . S
C2175 H2151 0.950 . S
C2175 C2174 1.524 . S
C2175 C2176 1.415 . S
C2176 H2152 0.950 1_556 S
C2176 C2171 1.363 . S
C2176 C2175 1.415 . S
C2177 H2153 0.951 . S
C2177 C2178 1.366 . S
C2177 C2179 1.388 . S
C2178 C2177 1.366 . S
C2178 C2182 1.385 . S
C2179 H2154 0.951 . S
C2179 C2177 1.388 . S
C2179 C2180 1.366 . S
C2180 C2179 1.366 . S
C2180 C2181 1.414 . S
C2180 C2183 1.499 . S
C2181 H2155 0.950 . S
C2181 C2180 1.414 . S
C2181 C2182 1.374 . S
C2182 H2156 0.950 . S
C2182 C2178 1.385 . S
C2182 C2181 1.374 . S
C2183 C2180 1.499 . S
C2183 C2184 1.373 . S
C2183 C2185 1.389 . S
C2184 H2157 0.950 . S
C2184 C2170 1.377 . S
C2184 C2183 1.373 . S
C2185 C2169 1.377 . S
C2185 C2183 1.389 . S
C2185 C2186 1.524 . S
C2186 C2185 1.524 . S
C2186 C2187 1.397 . S
C2186 C2191 1.363 . S
C2187 H2158 0.950 . S
C2187 C2186 1.397 . S
C2187 C2188 1.334 . S
C2188 H2159 0.950 . S
C2188 C2187 1.334 . S
C2188 C2189 1.287 . S
C2189 C2188 1.287 . S
C2189 C2190 1.524 . S
C2189 H2192 0.999 . S
C2190 H2160 0.950 . S
C2190 C2189 1.524 . S
C2190 C2191 1.415 . S
C2191 H2161 0.950 . S
C2191 C2186 1.363 . S
C2191 C2190 1.415 . S
H2192 C2189 0.999 . S
H2193 C2174 0.913 . S
H2194 C2212 0.951 . S
H2195 C2214 0.951 . S
H2196 C2216 0.950 . S
H2197 C2217 0.950 . S
H2198 C2219 0.950 . S
H2199 C2222 0.950 . S
H2200 C2223 0.950 . S
H2201 C2225 0.950 . S
H2202 C2226 0.950 . S
H2203 C2227 0.951 . S
H2204 C2229 0.951 . S
H2205 C2231 0.950 . S
H2206 C2232 0.950 . S
H2207 C2234 0.950 . S
H2208 C2237 0.950 . S
H2209 C2238 0.950 . S
H2210 C2240 0.950 . S
H2211 C2241 0.950 . S
C2212 H2194 0.951 . S
C2212 C2213 1.366 . S
C2212 C2214 1.388 . S
C2213 C2212 1.366 . S
C2213 C2217 1.385 . S
C2214 H2195 0.951 . S
C2214 C2212 1.388 . S
C2214 C2215 1.366 . S
C2215 C2214 1.366 . S
C2215 C2216 1.414 . S
C2215 C2218 1.499 . S
C2216 H2196 0.950 . S
C2216 C2215 1.414 . S
C2216 C2217 1.374 . S
C2217 H2197 0.950 . S
C2217 C2213 1.385 . S
C2217 C2216 1.374 . S
C2218 C2215 1.499 . S
C2218 C2219 1.373 . S
C2218 C2220 1.389 . S
C2219 H2198 0.950 . S
C2219 C2218 1.373 . S
C2219 C2235 1.377 . S
C2220 C2218 1.389 . S
C2220 C2221 1.524 . S
C2220 C2234 1.377 . S
C2221 C2220 1.524 . S
C2221 C2222 1.397 . S
C2221 C2226 1.363 . S
C2222 H2199 0.950 . S
C2222 C2221 1.397 . S
C2222 C2223 1.334 . S
C2223 H2200 0.950 . S
C2223 C2222 1.334 . S
C2223 C2224 1.287 . S
C2224 C2223 1.287 . S
C2224 C2225 1.524 . S
C2224 H2243 0.913 . S
C2225 H2201 0.950 . S
C2225 C2224 1.524 . S
C2225 C2226 1.415 . S
C2226 H2202 0.950 . S
C2226 C2221 1.363 . S
C2226 C2225 1.415 . S
C2227 H2203 0.951 . S
C2227 C2228 1.366 . S
C2227 C2229 1.388 . S
C2228 C2227 1.366 . S
C2228 C2232 1.385 . S
C2229 H2204 0.951 . S
C2229 C2227 1.388 . S
C2229 C2230 1.366 . S
C2230 C2229 1.366 . S
C2230 C2231 1.414 . S
C2230 C2233 1.499 . S
C2231 H2205 0.950 . S
C2231 C2230 1.414 . S
C2231 C2232 1.374 . S
C2232 H2206 0.950 . S
C2232 C2228 1.385 . S
C2232 C2231 1.374 . S
C2233 C2230 1.499 . S
C2233 C2234 1.373 . S
C2233 C2235 1.389 . S
C2234 H2207 0.950 . S
C2234 C2220 1.377 . S
C2234 C2233 1.373 . S
C2235 C2219 1.377 . S
C2235 C2233 1.389 . S
C2235 C2236 1.524 . S
C2236 C2235 1.524 . S
C2236 C2237 1.397 . S
C2236 C2241 1.363 . S
C2237 H2208 0.950 . S
C2237 C2236 1.397 . S
C2237 C2238 1.334 . S
C2238 H2209 0.950 . S
C2238 C2237 1.334 . S
C2238 C2239 1.287 . S
C2239 C2238 1.287 . S
C2239 C2240 1.524 . S
C2239 H2242 0.999 . S
C2240 H2210 0.950 . S
C2240 C2239 1.524 . S
C2240 C2241 1.415 . S
C2241 H2211 0.950 . S
C2241 C2236 1.363 . S
C2241 C2240 1.415 . S
H2242 C2239 0.999 . S
H2243 C2224 0.913 . S
H2244 C2262 0.951 . S
H2245 C2264 0.951 . S
H2246 C2266 0.950 . S
H2247 C2267 0.950 . S
H2248 C2269 0.950 . S
H2249 C2272 0.950 . S
H2250 C2273 0.950 . S
H2251 C2275 0.950 . S
H2252 C2276 0.950 . S
H2253 C2277 0.951 . S
H2254 C2279 0.951 . S
H2255 C2281 0.950 . S
H2256 C2282 0.950 . S
H2257 C2284 0.950 . S
H2258 C2287 0.950 . S
H2259 C2288 0.950 . S
H2260 C2290 0.950 . S
H2261 C2291 0.950 . S
C2262 H2244 0.951 . S
C2262 C2263 1.366 . S
C2262 C2264 1.388 . S
C2263 C2262 1.366 . S
C2263 C2267 1.385 . S
C2264 H2245 0.951 . S
C2264 C2262 1.388 . S
C2264 C2265 1.366 . S
C2265 C2264 1.366 . S
C2265 C2266 1.414 . S
C2265 C2268 1.499 . S
C2266 H2246 0.950 . S
C2266 C2265 1.414 . S
C2266 C2267 1.374 . S
C2267 H2247 0.950 . S
C2267 C2263 1.385 . S
C2267 C2266 1.374 . S
C2268 C2265 1.499 . S
C2268 C2269 1.373 . S
C2268 C2270 1.389 . S
C2269 H2248 0.950 . S
C2269 C2268 1.373 . S
C2269 C2285 1.377 . S
C2270 C2268 1.389 . S
C2270 C2271 1.524 . S
C2270 C2284 1.377 . S
C2271 C2270 1.524 . S
C2271 C2272 1.397 . S
C2271 C2276 1.363 . S
C2272 H2249 0.950 . S
C2272 C2271 1.397 . S
C2272 C2273 1.334 . S
C2273 H2250 0.950 . S
C2273 C2272 1.334 . S
C2273 C2274 1.287 . S
C2274 C2273 1.287 . S
C2274 C2275 1.524 . S
C2274 H2293 0.913 . S
C2275 H2251 0.950 . S
C2275 C2274 1.524 . S
C2275 C2276 1.415 . S
C2276 H2252 0.950 . S
C2276 C2271 1.363 . S
C2276 C2275 1.415 . S
C2277 H2253 0.951 . S
C2277 C2278 1.366 . S
C2277 C2279 1.388 . S
C2278 C2277 1.366 . S
C2278 C2282 1.385 . S
C2279 H2254 0.951 . S
C2279 C2277 1.388 . S
C2279 C2280 1.366 . S
C2280 C2279 1.366 . S
C2280 C2281 1.414 . S
C2280 C2283 1.499 . S
C2281 H2255 0.950 . S
C2281 C2280 1.414 . S
C2281 C2282 1.374 . S
C2282 H2256 0.950 . S
C2282 C2278 1.385 . S
C2282 C2281 1.374 . S
C2283 C2280 1.499 . S
C2283 C2284 1.373 . S
C2283 C2285 1.389 . S
C2284 H2257 0.950 . S
C2284 C2270 1.377 . S
C2284 C2283 1.373 . S
C2285 C2269 1.377 . S
C2285 C2283 1.389 . S
C2285 C2286 1.524 . S
C2286 C2285 1.524 . S
C2286 C2287 1.397 . S
C2286 C2291 1.363 . S
C2287 H2258 0.950 . S
C2287 C2286 1.397 . S
C2287 C2288 1.334 . S
C2288 H2259 0.950 . S
C2288 C2287 1.334 . S
C2288 C2289 1.287 . S
C2289 C2288 1.287 . S
C2289 C2290 1.524 . S
C2289 H2292 0.999 . S
C2290 H2260 0.950 . S
C2290 C2289 1.524 . S
C2290 C2291 1.415 . S
C2291 H2261 0.950 . S
C2291 C2286 1.363 . S
C2291 C2290 1.415 . S
H2292 C2289 0.999 . S
H2293 C2274 0.913 . S
H2294 C2312 0.951 . S
H2295 C2314 0.951 . S
H2296 C2316 0.950 . S
H2297 C2317 0.950 . S
H2298 C2319 0.950 . S
H2299 C2322 0.950 . S
H2300 C2323 0.950 . S
H2301 C2325 0.950 . S
H2302 C2326 0.950 . S
H2303 C2327 0.951 . S
H2304 C2329 0.951 . S
H2305 C2331 0.950 . S
H2306 C2332 0.950 . S
H2307 C2334 0.950 . S
H2308 C2337 0.950 . S
H2309 C2338 0.950 . S
H2310 C2340 0.950 . S
H2311 C2341 0.950 . S
C2312 H2294 0.951 . S
C2312 C2313 1.366 . S
C2312 C2314 1.388 . S
C2313 C2312 1.366 . S
C2313 C2317 1.385 . S
C2314 H2295 0.951 . S
C2314 C2312 1.388 . S
C2314 C2315 1.366 . S
C2315 C2314 1.366 . S
C2315 C2316 1.414 . S
C2315 C2318 1.499 . S
C2316 H2296 0.950 . S
C2316 C2315 1.414 . S
C2316 C2317 1.374 . S
C2317 H2297 0.950 . S
C2317 C2313 1.385 . S
C2317 C2316 1.374 . S
C2318 C2315 1.499 . S
C2318 C2319 1.373 . S
C2318 C2320 1.389 . S
C2319 H2298 0.950 . S
C2319 C2318 1.373 . S
C2319 C2335 1.377 . S
C2320 C2318 1.389 . S
C2320 C2321 1.524 . S
C2320 C2334 1.377 . S
C2321 C2320 1.524 . S
C2321 C2322 1.397 . S
C2321 C2326 1.363 . S
C2322 H2299 0.950 . S
C2322 C2321 1.397 . S
C2322 C2323 1.334 . S
C2323 H2300 0.950 . S
C2323 C2322 1.334 . S
C2323 C2324 1.287 . S
C2324 C2323 1.287 . S
C2324 C2325 1.524 . S
C2324 H2343 0.913 . S
C2325 H2301 0.950 . S
C2325 C2324 1.524 . S
C2325 C2326 1.415 . S
C2326 H2302 0.950 . S
C2326 C2321 1.363 . S
C2326 C2325 1.415 . S
C2327 H2303 0.951 . S
C2327 C2328 1.366 . S
C2327 C2329 1.388 . S
C2328 C2327 1.366 . S
C2328 C2332 1.385 . S
C2329 H2304 0.951 . S
C2329 C2327 1.388 . S
C2329 C2330 1.366 . S
C2330 C2329 1.366 . S
C2330 C2331 1.414 . S
C2330 C2333 1.499 . S
C2331 H2305 0.950 . S
C2331 C2330 1.414 . S
C2331 C2332 1.374 . S
C2332 H2306 0.950 . S
C2332 C2328 1.385 . S
C2332 C2331 1.374 . S
C2333 C2330 1.499 . S
C2333 C2334 1.373 . S
C2333 C2335 1.389 . S
C2334 H2307 0.950 . S
C2334 C2320 1.377 . S
C2334 C2333 1.373 . S
C2335 C2319 1.377 . S
C2335 C2333 1.389 . S
C2335 C2336 1.524 . S
C2336 C2335 1.524 . S
C2336 C2337 1.397 . S
C2336 C2341 1.363 . S
C2337 H2308 0.950 . S
C2337 C2336 1.397 . S
C2337 C2338 1.334 . S
C2338 H2309 0.950 . S
C2338 C2337 1.334 . S
C2338 C2339 1.287 . S
C2339 C2338 1.287 . S
C2339 C2340 1.524 . S
C2339 H2342 0.999 . S
C2340 H2310 0.950 . S
C2340 C2339 1.524 . S
C2340 C2341 1.415 . S
C2341 H2311 0.950 . S
C2341 C2336 1.363 . S
C2341 C2340 1.415 . S
H2342 C2339 0.999 . S
H2343 C2324 0.913 . S
H2344 C2362 0.951 . S
H2345 C2364 0.951 . S
H2346 C2366 0.950 . S
H2347 C2367 0.950 . S
H2348 C2369 0.950 . S
H2349 C2372 0.950 . S
H2350 C2373 0.950 . S
H2351 C2375 0.950 . S
H2352 C2376 0.950 . S
H2353 C2377 0.951 . S
H2354 C2379 0.951 . S
H2355 C2381 0.950 . S
H2356 C2382 0.950 . S
H2357 C2384 0.950 . S
H2358 C2387 0.950 . S
H2359 C2388 0.950 . S
H2360 C2390 0.950 . S
H2361 C2391 0.950 . S
C2362 H2344 0.951 . S
C2362 C2363 1.366 . S
C2362 C2364 1.388 . S
C2363 C2362 1.366 . S
C2363 C2367 1.385 . S
C2364 H2345 0.951 . S
C2364 C2362 1.388 . S
C2364 C2365 1.366 . S
C2365 C2364 1.366 . S
C2365 C2366 1.414 . S
C2365 C2368 1.499 . S
C2366 H2346 0.950 . S
C2366 C2365 1.414 . S
C2366 C2367 1.374 . S
C2367 H2347 0.950 . S
C2367 C2363 1.385 . S
C2367 C2366 1.374 . S
C2368 C2365 1.499 . S
C2368 C2369 1.373 . S
C2368 C2370 1.389 . S
C2369 H2348 0.950 . S
C2369 C2368 1.373 . S
C2369 C2385 1.377 . S
C2370 C2368 1.389 . S
C2370 C2371 1.524 . S
C2370 C2384 1.377 . S
C2371 C2370 1.524 . S
C2371 C2372 1.397 . S
C2371 C2376 1.363 . S
C2372 H2349 0.950 . S
C2372 C2371 1.397 . S
C2372 C2373 1.334 . S
C2373 H2350 0.950 . S
C2373 C2372 1.334 . S
C2373 C2374 1.287 . S
C2374 C2373 1.287 . S
C2374 C2375 1.524 . S
C2374 H2393 0.913 . S
C2375 H2351 0.950 . S
C2375 C2374 1.524 . S
C2375 C2376 1.415 . S
C2376 H2352 0.950 . S
C2376 C2371 1.363 . S
C2376 C2375 1.415 . S
C2377 H2353 0.951 . S
C2377 C2378 1.366 . S
C2377 C2379 1.388 . S
C2378 C2377 1.366 . S
C2378 C2382 1.385 . S
C2379 H2354 0.951 . S
C2379 C2377 1.388 . S
C2379 C2380 1.366 . S
C2380 C2379 1.366 . S
C2380 C2381 1.414 . S
C2380 C2383 1.499 . S
C2381 H2355 0.950 . S
C2381 C2380 1.414 . S
C2381 C2382 1.374 . S
C2382 H2356 0.950 . S
C2382 C2378 1.385 . S
C2382 C2381 1.374 . S
C2383 C2380 1.499 . S
C2383 C2384 1.373 . S
C2383 C2385 1.389 . S
C2384 H2357 0.950 . S
C2384 C2370 1.377 . S
C2384 C2383 1.373 . S
C2385 C2369 1.377 . S
C2385 C2383 1.389 . S
C2385 C2386 1.524 . S
C2386 C2385 1.524 . S
C2386 C2387 1.397 . S
C2386 C2391 1.363 . S
C2387 H2358 0.950 . S
C2387 C2386 1.397 . S
C2387 C2388 1.334 . S
C2388 H2359 0.950 . S
C2388 C2387 1.334 . S
C2388 C2389 1.287 . S
C2389 C2388 1.287 . S
C2389 C2390 1.524 . S
C2389 H2392 0.999 . S
C2390 H2360 0.950 . S
C2390 C2389 1.524 . S
C2390 C2391 1.415 . S
C2391 H2361 0.950 . S
C2391 C2386 1.363 . S
C2391 C2390 1.415 . S
H2392 C2389 0.999 . S
H2393 C2374 0.913 . S
H2394 C2412 0.951 . S
H2395 C2414 0.951 . S
H2396 C2416 0.950 . S
H2397 C2417 0.950 . S
H2398 C2419 0.950 . S
H2399 C2422 0.950 . S
H2400 C2423 0.950 . S
H2401 C2425 0.950 . S
H2402 C2426 0.950 . S
H2403 C2427 0.951 . S
H2404 C2429 0.951 . S
H2405 C2431 0.950 . S
H2406 C2432 0.950 . S
H2407 C2434 0.950 . S
H2408 C2437 0.950 . S
H2409 C2438 0.950 . S
H2410 C2440 0.950 . S
H2411 C2441 0.950 . S
C2412 H2394 0.951 . S
C2412 C2413 1.366 . S
C2412 C2414 1.388 . S
C2413 C2412 1.366 . S
C2413 C2417 1.385 . S
C2414 H2395 0.951 . S
C2414 C2412 1.388 . S
C2414 C2415 1.366 . S
C2415 C2414 1.366 . S
C2415 C2416 1.414 . S
C2415 C2418 1.499 . S
C2416 H2396 0.950 . S
C2416 C2415 1.414 . S
C2416 C2417 1.374 . S
C2417 H2397 0.950 . S
C2417 C2413 1.385 . S
C2417 C2416 1.374 . S
C2418 C2415 1.499 . S
C2418 C2419 1.373 . S
C2418 C2420 1.389 . S
C2419 H2398 0.950 . S
C2419 C2418 1.373 . S
C2419 C2435 1.377 . S
C2420 C2418 1.389 . S
C2420 C2421 1.524 . S
C2420 C2434 1.377 . S
C2421 C2420 1.524 . S
C2421 C2422 1.397 . S
C2421 C2426 1.363 . S
C2422 H2399 0.950 . S
C2422 C2421 1.397 . S
C2422 C2423 1.334 . S
C2423 H2400 0.950 . S
C2423 C2422 1.334 . S
C2423 C2424 1.287 . S
C2424 C2423 1.287 . S
C2424 C2425 1.524 . S
C2424 H2443 0.913 . S
C2425 H2401 0.950 . S
C2425 C2424 1.524 . S
C2425 C2426 1.415 . S
C2426 H2402 0.950 . S
C2426 C2421 1.363 . S
C2426 C2425 1.415 . S
C2427 H2403 0.951 . S
C2427 C2428 1.366 . S
C2427 C2429 1.388 . S
C2428 C2427 1.366 . S
C2428 C2432 1.385 . S
C2429 H2404 0.951 . S
C2429 C2427 1.388 . S
C2429 C2430 1.366 . S
C2430 C2429 1.366 . S
C2430 C2431 1.414 . S
C2430 C2433 1.499 . S
C2431 H2405 0.950 . S
C2431 C2430 1.414 . S
C2431 C2432 1.374 . S
C2432 H2406 0.950 . S
C2432 C2428 1.385 . S
C2432 C2431 1.374 . S
C2433 C2430 1.499 . S
C2433 C2434 1.373 . S
C2433 C2435 1.389 . S
C2434 H2407 0.950 . S
C2434 C2420 1.377 . S
C2434 C2433 1.373 . S
C2435 C2419 1.377 . S
C2435 C2433 1.389 . S
C2435 C2436 1.524 . S
C2436 C2435 1.524 . S
C2436 C2437 1.397 . S
C2436 C2441 1.363 . S
C2437 H2408 0.950 . S
C2437 C2436 1.397 . S
C2437 C2438 1.334 . S
C2438 H2409 0.950 . S
C2438 C2437 1.334 . S
C2438 C2439 1.287 . S
C2439 C2438 1.287 . S
C2439 C2440 1.524 . S
C2439 H2442 0.999 . S
C2440 H2410 0.950 . S
C2440 C2439 1.524 . S
C2440 C2441 1.415 . S
C2441 H2411 0.950 . S
C2441 C2436 1.363 . S
C2441 C2440 1.415 . S
H2442 C2439 0.999 . S
H2443 C2424 0.913 . S
H2444 C2462 0.951 . S
H2445 C2464 0.951 . S
H2446 C2466 0.950 . S
H2447 C2467 0.950 . S
H2448 C2469 0.950 . S
H2449 C2472 0.950 . S
H2450 C2473 0.950 . S
H2451 C2475 0.950 . S
H2452 C2476 0.950 . S
H2453 C2477 0.951 . S
H2454 C2479 0.951 . S
H2455 C2481 0.950 . S
H2456 C2482 0.950 . S
H2457 C2484 0.950 . S
H2458 C2487 0.950 . S
H2459 C2488 0.950 . S
H2460 C2490 0.950 . S
H2461 C2491 0.950 . S
C2462 H2444 0.951 . S
C2462 C2463 1.366 . S
C2462 C2464 1.388 . S
C2463 C2462 1.366 . S
C2463 C2467 1.385 . S
C2464 H2445 0.951 . S
C2464 C2462 1.388 . S
C2464 C2465 1.366 . S
C2465 C2464 1.366 . S
C2465 C2466 1.414 . S
C2465 C2468 1.499 . S
C2466 H2446 0.950 . S
C2466 C2465 1.414 . S
C2466 C2467 1.374 . S
C2467 H2447 0.950 . S
C2467 C2463 1.385 . S
C2467 C2466 1.374 . S
C2468 C2465 1.499 . S
C2468 C2469 1.373 . S
C2468 C2470 1.389 . S
C2469 H2448 0.950 . S
C2469 C2468 1.373 . S
C2469 C2485 1.377 . S
C2470 C2468 1.389 . S
C2470 C2471 1.524 . S
C2470 C2484 1.377 . S
C2471 C2470 1.524 . S
C2471 C2472 1.397 . S
C2471 C2476 1.363 . S
C2472 H2449 0.950 . S
C2472 C2471 1.397 . S
C2472 C2473 1.334 . S
C2473 H2450 0.950 . S
C2473 C2472 1.334 . S
C2473 C2474 1.287 . S
C2474 C2473 1.287 . S
C2474 C2475 1.524 . S
C2474 H2493 0.913 . S
C2475 H2451 0.950 . S
C2475 C2474 1.524 . S
C2475 C2476 1.415 . S
C2476 H2452 0.950 . S
C2476 C2471 1.363 . S
C2476 C2475 1.415 . S
C2477 H2453 0.951 . S
C2477 C2478 1.366 . S
C2477 C2479 1.388 . S
C2478 C2477 1.366 . S
C2478 C2482 1.385 . S
C2479 H2454 0.951 . S
C2479 C2477 1.388 . S
C2479 C2480 1.366 . S
C2480 C2479 1.366 . S
C2480 C2481 1.414 . S
C2480 C2483 1.499 . S
C2481 H2455 0.950 . S
C2481 C2480 1.414 . S
C2481 C2482 1.374 . S
C2482 H2456 0.950 . S
C2482 C2478 1.385 . S
C2482 C2481 1.374 . S
C2483 C2480 1.499 . S
C2483 C2484 1.373 . S
C2483 C2485 1.389 . S
C2484 H2457 0.950 . S
C2484 C2470 1.377 . S
C2484 C2483 1.373 . S
C2485 C2469 1.377 . S
C2485 C2483 1.389 . S
C2485 C2486 1.524 . S
C2486 C2485 1.524 . S
C2486 C2487 1.397 . S
C2486 C2491 1.363 . S
C2487 H2458 0.950 . S
C2487 C2486 1.397 . S
C2487 C2488 1.334 . S
C2488 H2459 0.950 . S
C2488 C2487 1.334 . S
C2488 C2489 1.287 . S
C2489 C2488 1.287 . S
C2489 C2490 1.524 . S
C2489 H2492 0.999 . S
C2490 H2460 0.950 . S
C2490 C2489 1.524 . S
C2490 C2491 1.415 . S
C2491 H2461 0.950 . S
C2491 C2486 1.363 . S
C2491 C2490 1.415 . S
H2492 C2489 0.999 . S
H2493 C2474 0.913 . S
H2494 C2512 0.951 . S
H2495 C2514 0.951 . S
H2496 C2516 0.950 . S
H2497 C2517 0.950 . S
H2498 C2519 0.950 . S
H2499 C2522 0.950 . S
H2500 C2523 0.950 . S
H2501 C2525 0.950 . S
H2502 C2526 0.950 . S
H2503 C2527 0.951 . S
H2504 C2529 0.951 . S
H2505 C2531 0.950 . S
H2506 C2532 0.950 . S
H2507 C2534 0.950 . S
H2508 C2537 0.950 . S
H2509 C2538 0.950 . S
H2510 C2540 0.950 . S
H2511 C2541 0.950 . S
C2512 H2494 0.951 . S
C2512 C2513 1.366 . S
C2512 C2514 1.388 . S
C2513 C2512 1.366 . S
C2513 C2517 1.385 . S
C2514 H2495 0.951 . S
C2514 C2512 1.388 . S
C2514 C2515 1.366 . S
C2515 C2514 1.366 . S
C2515 C2516 1.414 . S
C2515 C2518 1.499 . S
C2516 H2496 0.950 . S
C2516 C2515 1.414 . S
C2516 C2517 1.374 . S
C2517 H2497 0.950 . S
C2517 C2513 1.385 . S
C2517 C2516 1.374 . S
C2518 C2515 1.499 . S
C2518 C2519 1.373 . S
C2518 C2520 1.389 . S
C2519 H2498 0.950 . S
C2519 C2518 1.373 . S
C2519 C2535 1.377 . S
C2520 C2518 1.389 . S
C2520 C2521 1.524 . S
C2520 C2534 1.377 . S
C2521 C2520 1.524 . S
C2521 C2522 1.397 . S
C2521 C2526 1.363 . S
C2522 H2499 0.950 . S
C2522 C2521 1.397 . S
C2522 C2523 1.334 . S
C2523 H2500 0.950 . S
C2523 C2522 1.334 . S
C2523 C2524 1.287 . S
C2524 C2523 1.287 . S
C2524 C2525 1.524 . S
C2524 H2543 0.913 . S
C2525 H2501 0.950 . S
C2525 C2524 1.524 . S
C2525 C2526 1.415 . S
C2526 H2502 0.950 . S
C2526 C2521 1.363 . S
C2526 C2525 1.415 . S
C2527 H2503 0.951 . S
C2527 C2528 1.366 . S
C2527 C2529 1.388 . S
C2528 C2527 1.366 . S
C2528 C2532 1.385 . S
C2529 H2504 0.951 . S
C2529 C2527 1.388 . S
C2529 C2530 1.366 . S
C2530 C2529 1.366 . S
C2530 C2531 1.414 . S
C2530 C2533 1.499 1_556 S
C2531 H2505 0.950 . S
C2531 C2530 1.414 . S
C2531 C2532 1.374 . S
C2532 H2506 0.950 . S
C2532 C2528 1.385 . S
C2532 C2531 1.374 . S
C2533 C2530 1.499 1_554 S
C2533 C2534 1.373 . S
C2533 C2535 1.389 . S
C2534 H2507 0.950 . S
C2534 C2520 1.377 . S
C2534 C2533 1.373 . S
C2535 C2519 1.377 . S
C2535 C2533 1.389 . S
C2535 C2536 1.524 1_554 S
C2536 C2535 1.524 1_556 S
C2536 C2537 1.397 . S
C2536 C2541 1.363 1_556 S
C2537 H2508 0.950 . S
C2537 C2536 1.397 . S
C2537 C2538 1.334 . S
C2538 H2509 0.950 . S
C2538 C2537 1.334 . S
C2538 C2539 1.287 . S
C2539 C2538 1.287 . S
C2539 C2540 1.524 . S
C2539 H2542 0.999 . S
C2540 H2510 0.950 . S
C2540 C2539 1.524 . S
C2540 C2541 1.415 1_556 S
C2541 H2511 0.950 . S
C2541 C2536 1.363 1_554 S
C2541 C2540 1.415 1_554 S
H2542 C2539 0.999 . S
H2543 C2524 0.913 . S
C963 C359 1.508 . S
C978 C5 1.508 . S
C1013 C418 1.508 . S
C1028 C64 1.508 . S
C1063 C123 1.507 . S
C1078 C241 1.507 . S
C1113 C182 1.507 . S
C1128 C300 1.507 . S
C1163 C477 1.507 . S
C1178 C831 1.507 . S
C1213 C890 1.508 . S
C1228 C536 1.508 . S
C1263 C595 1.508 . S
C1278 C713 1.508 . S
C1313 C654 1.508 . S
C1328 C772 1.508 . S
C1363 C52 1.451 . S
C1378 C642 1.451 . S
C1413 C111 1.451 . S
C1428 C701 1.451 . S
C1463 C170 1.451 . S
C1478 C524 1.451 . S
C1513 C229 1.451 . S
C1528 C583 1.451 . S
C1563 C288 1.451 . S
C1578 C878 1.451 . S
C1613 C937 1.451 . S
C1628 C347 1.451 . S
C1663 C406 1.451 . S
C1678 C760 1.451 . S
C1713 C819 1.451 . S
C1728 C465 1.451 . S
C1763 C800 0.231 . S
C1778 C33 0.230 . S
C1813 C92 0.229 . S
C1828 C859 0.230 . S
C1863 C918 0.233 . S
C1878 C151 0.232 . S
C1913 C741 0.230 . S
C1928 C210 0.230 . S
C1963 C682 0.234 . S
C1978 C269 0.233 . S
C2013 C328 0.231 . S
C2028 C505 0.230 . S
C2063 C387 0.231 . S
C2078 C564 0.232 . S
C2113 C446 0.229 . S
C2128 C623 0.230 . S
C2163 C770 1.619 . S
C2178 C3 1.618 . S
C2213 C62 1.619 . S
C2228 C829 1.618 . S
C2263 C121 1.618 . S
C2278 C888 1.618 . S
C2313 C711 1.618 . S
C2328 C180 1.618 . S
C2363 C652 1.618 . S
C2378 C239 1.619 . S
C2413 C475 1.619 . S
C2428 C298 1.618 . S
C2463 C357 1.618 . S
C2478 C534 1.619 . S
C2513 C593 1.618 . S
C2528 C416 1.619 . S
