# Generated by pormake.
# Topology zfe, (5)-cn, num edge types: 1
# Building blocks:
#     Node 0, Type 0, BuildingBlock: XOMCOT_clean_sbu_0, # of connection points: 5
#     Node 1, Type 0, BuildingBlock: XOMCOT_clean_sbu_0, # of connection points: 5
#     Node 2, Type 0, BuildingBlock: XOMCOT_clean_sbu_0, # of connection points: 5
#     Node 3, Type 0, BuildingBlock: XOMCOT_clean_sbu_0, # of connection points: 5
#     Node 4, Type 0, BuildingBlock: XOMCOT_clean_sbu_0, # of connection points: 5
#     Node 5, Type 0, BuildingBlock: XOMCOT_clean_sbu_0, # of connection points: 5
#     Node 6, Type 0, BuildingBlock: XOMCOT_clean_sbu_0, # of connection points: 5
#     Node 7, Type 0, BuildingBlock: XOMCOT_clean_sbu_0, # of connection points: 5
#     Node 8, Type 0, BuildingBlock: XOMCOT_clean_sbu_0, # of connection points: 5
#     Node 9, Type 0, BuildingBlock: XOMCOT_clean_sbu_0, # of connection points: 5
#     Node 10, Type 0, BuildingBlock: XOMCOT_clean_sbu_0, # of connection points: 5
#     Node 11, Type 0, BuildingBlock: XOMCOT_clean_sbu_0, # of connection points: 5
#     Node 12, Type 0, BuildingBlock: XOMCOT_clean_sbu_0, # of connection points: 5
#     Node 13, Type 0, BuildingBlock: XOMCOT_clean_sbu_0, # of connection points: 5
#     Node 14, Type 0, BuildingBlock: XOMCOT_clean_sbu_0, # of connection points: 5
#     Node 15, Type 0, BuildingBlock: XOMCOT_clean_sbu_0, # of connection points: 5
#     Edge 16, Type (0, 0), BuildingBlock: AJUNOK_clean_linker_0, # of connection points: 2
#     Edge 17, Type (0, 0), BuildingBlock: AJUNOK_clean_linker_0, # of connection points: 2
#     Edge 18, Type (0, 0), BuildingBlock: AJUNOK_clean_linker_0, # of connection points: 2
#     Edge 19, Type (0, 0), BuildingBlock: AJUNOK_clean_linker_0, # of connection points: 2
#     Edge 20, Type (0, 0), BuildingBlock: AJUNOK_clean_linker_0, # of connection points: 2
#     Edge 21, Type (0, 0), BuildingBlock: AJUNOK_clean_linker_0, # of connection points: 2
#     Edge 22, Type (0, 0), BuildingBlock: AJUNOK_clean_linker_0, # of connection points: 2
#     Edge 23, Type (0, 0), BuildingBlock: AJUNOK_clean_linker_0, # of connection points: 2
#     Edge 24, Type (0, 0), BuildingBlock: AJUNOK_clean_linker_0, # of connection points: 2
#     Edge 25, Type (0, 0), BuildingBlock: AJUNOK_clean_linker_0, # of connection points: 2
#     Edge 26, Type (0, 0), BuildingBlock: AJUNOK_clean_linker_0, # of connection points: 2
#     Edge 27, Type (0, 0), BuildingBlock: AJUNOK_clean_linker_0, # of connection points: 2
#     Edge 28, Type (0, 0), BuildingBlock: AJUNOK_clean_linker_0, # of connection points: 2
#     Edge 29, Type (0, 0), BuildingBlock: AJUNOK_clean_linker_0, # of connection points: 2
#     Edge 30, Type (0, 0), BuildingBlock: AJUNOK_clean_linker_0, # of connection points: 2
#     Edge 31, Type (0, 0), BuildingBlock: AJUNOK_clean_linker_0, # of connection points: 2
#     Edge 32, Type (0, 0), BuildingBlock: AJUNOK_clean_linker_0, # of connection points: 2
#     Edge 33, Type (0, 0), BuildingBlock: AJUNOK_clean_linker_0, # of connection points: 2
#     Edge 34, Type (0, 0), BuildingBlock: AJUNOK_clean_linker_0, # of connection points: 2
#     Edge 35, Type (0, 0), BuildingBlock: AJUNOK_clean_linker_0, # of connection points: 2
#     Edge 36, Type (0, 0), BuildingBlock: AJUNOK_clean_linker_0, # of connection points: 2
#     Edge 37, Type (0, 0), BuildingBlock: AJUNOK_clean_linker_0, # of connection points: 2
#     Edge 38, Type (0, 0), BuildingBlock: AJUNOK_clean_linker_0, # of connection points: 2
#     Edge 39, Type (0, 0), BuildingBlock: AJUNOK_clean_linker_0, # of connection points: 2
#     Edge 40, Type (0, 0), BuildingBlock: AJUNOK_clean_linker_0, # of connection points: 2
#     Edge 41, Type (0, 0), BuildingBlock: AJUNOK_clean_linker_0, # of connection points: 2
#     Edge 42, Type (0, 0), BuildingBlock: AJUNOK_clean_linker_0, # of connection points: 2
#     Edge 43, Type (0, 0), BuildingBlock: AJUNOK_clean_linker_0, # of connection points: 2
#     Edge 44, Type (0, 0), BuildingBlock: AJUNOK_clean_linker_0, # of connection points: 2
#     Edge 45, Type (0, 0), BuildingBlock: AJUNOK_clean_linker_0, # of connection points: 2
#     Edge 46, Type (0, 0), BuildingBlock: AJUNOK_clean_linker_0, # of connection points: 2
#     Edge 47, Type (0, 0), BuildingBlock: AJUNOK_clean_linker_0, # of connection points: 2
#     Edge 48, Type (0, 0), BuildingBlock: AJUNOK_clean_linker_0, # of connection points: 2
#     Edge 49, Type (0, 0), BuildingBlock: AJUNOK_clean_linker_0, # of connection points: 2
#     Edge 50, Type (0, 0), BuildingBlock: AJUNOK_clean_linker_0, # of connection points: 2
#     Edge 51, Type (0, 0), BuildingBlock: AJUNOK_clean_linker_0, # of connection points: 2
#     Edge 52, Type (0, 0), BuildingBlock: AJUNOK_clean_linker_0, # of connection points: 2
#     Edge 53, Type (0, 0), BuildingBlock: AJUNOK_clean_linker_0, # of connection points: 2
#     Edge 54, Type (0, 0), BuildingBlock: AJUNOK_clean_linker_0, # of connection points: 2
#     Edge 55, Type (0, 0), BuildingBlock: AJUNOK_clean_linker_0, # of connection points: 2
# Relax obj value: 0.202
# Max RMSD: 0.174
# Mean RMSD: 0.174
data_MOF--net-zfe--node1-XOMCOT_clean_sbu_0--edge1-AJUNOK_clean_linker_0
_symmetry_space_group_name_H-M    P1
_symmetry_Int_Tables_number       1
_symmetry_cell_setting            triclinic
loop_
_symmetry_equiv_pos_as_xyz
'x, y, z'
_cell_length_a     42.600894
_cell_length_b     42.769314
_cell_length_c     20.092563
_cell_angle_alpha  89.965239
_cell_angle_beta   89.97241
_cell_angle_gamma 89.874501
loop_
_atom_site_label
_atom_site_type_symbol
_atom_site_fract_x
_atom_site_fract_y
_atom_site_fract_z
_atom_type_partial_charge
Co0 Co 0.0449 0.23216 0.06676 0.0
C1 C 0.09887 0.27772 0.06284 0.0
C2 C 0.06332 0.28676 0.98961 0.0
C3 C 0.08653 0.30859 0.98225 0.0
N4 N 0.0711 0.26697 0.03927 0.0
N5 N 0.10897 0.30286 0.02778 0.0
H6 H 0.11125 0.2678 0.10482 0.0
H7 H 0.04176 0.28606 0.96138 0.0
C8 C 0.01031 0.21241 0.93839 0.0
O9 O 1.0004 0.18611 0.9643 0.0
N10 N 0.01751 0.1982 0.09385 0.0
C11 C 0.02507 0.16879 0.11213 0.0
C12 C 0.99787 0.15153 0.11685 0.0
C13 C 0.98581 0.19884 0.09156 0.0
N14 N 0.97329 0.1704 0.10309 0.0
C15 C 0.1016 0.19895 0.09537 0.0
C16 C 0.09665 0.15473 0.99601 0.0
C17 C 0.11736 0.14925 0.04885 0.0
C18 C 0.12098 0.17256 0.09693 0.0
C19 C 0.07789 0.18165 0.9959 0.0
N20 N 0.07894 0.20243 0.04765 0.0
H21 H 0.10347 0.21533 0.13584 0.0
H22 H 0.06154 0.18423 0.95592 0.0
H23 H 0.0486 0.15986 0.11851 0.0
H24 H 0.9725 0.21879 0.07403 0.0
O25 O 0.05441 0.23953 0.1593 0.0
O26 O 0.01485 0.26151 0.10609 0.0
O27 O 0.02843 0.2307 0.97119 0.0
C28 C 0.02987 0.25739 0.16204 0.0
H29 H 0.08635 0.32804 0.94773 0.0
H30 H 0.99638 0.12667 0.12648 0.0
H31 H 0.09393 0.13766 0.95663 0.0
H32 H 0.13706 0.16942 0.13817 0.0
Co33 Co 0.76967 0.04767 0.08563 0.0
C34 C 0.72574 0.10129 0.07692 0.0
C35 C 0.71236 0.06338 1.01291 0.0
C36 C 0.69126 0.08745 1.00454 0.0
N37 N 0.73401 0.07216 0.05789 0.0
N38 N 0.69964 0.1112 0.04485 0.0
H39 H 0.73858 0.11494 0.1131 0.0
H40 H 0.71175 0.0409 0.98843 0.0
C41 C 0.79746 0.02328 0.95458 0.0
O42 O 0.82558 0.02704 0.9802 0.0
N43 N 0.80508 0.02252 0.11382 0.0
C44 C 0.82772 0.02977 0.15807 0.0
C45 C 0.84782 1.00472 0.1639 0.0
C46 C 0.81089 0.99268 0.09594 0.0
N47 N 0.83728 0.98151 0.1245 0.0
C48 C 0.80677 0.10024 0.12333 0.0
C49 C 0.83521 0.11144 1.00254 0.0
C50 C 0.84788 0.1249 0.06026 0.0
C51 C 0.83213 0.12053 0.12039 0.0
C52 C 0.80893 0.09175 1.00766 0.0
N53 N 0.79735 0.08359 0.06876 0.0
H54 H 0.79654 0.09635 0.17154 0.0
H55 H 0.7989 0.0825 0.96268 0.0
H56 H 0.82958 0.05139 0.18526 0.0
H57 H 0.79677 0.97997 0.06039 0.0
O58 O 0.76041 0.05672 0.17801 0.0
O59 O 0.74196 0.01577 0.12534 0.0
O60 O 0.77321 0.03069 0.98948 0.0
C61 C 0.74438 0.0312 0.18122 0.0
H62 H 0.67074 0.08718 0.97276 0.0
H63 H 0.86863 1.00365 0.19471 0.0
H64 H 0.84602 0.11537 0.95447 0.0
H65 H 0.84078 0.13078 0.16613 0.0
Co66 Co 0.9738 0.78106 0.08688 0.0
C67 C 0.92982 0.72543 0.08645 0.0
C68 C 0.92403 0.75631 1.00311 0.0
C69 C 0.90181 0.73325 0.99867 0.0
N70 N 0.94155 0.75176 0.05825 0.0
N71 N 0.90545 0.71383 0.05077 0.0
H72 H 0.93824 0.71534 0.13248 0.0
H73 H 0.92674 0.77567 0.96899 0.0
C74 C 1.00889 0.79668 0.95658 0.0
O75 O 0.02396 0.82034 0.98259 0.0
N76 N 1.00581 0.81069 0.11558 0.0
C77 C 1.00062 0.83757 0.14884 0.0
C78 C 0.02882 0.85249 0.15859 0.0
C79 C 0.03743 0.80878 0.10918 0.0
N80 N 0.05193 0.8346 0.13289 0.0
C81 C 0.91756 0.8148 0.10837 0.0
C82 C 0.93097 0.86609 0.02996 0.0
C83 C 0.90446 0.86689 0.07132 0.0
C84 C 0.89745 0.8405 0.10967 0.0
C85 C 0.95061 0.8399 0.0304 0.0
N86 N 0.94429 0.81504 0.07086 0.0
H87 H 0.91232 0.79503 0.13995 0.0
H88 H 0.97157 0.84068 1.00108 0.0
H89 H 0.97778 0.84626 0.16345 0.0
H90 H 0.04939 0.78984 0.08387 0.0
O91 O 0.96362 0.77447 0.17897 0.0
O92 O 0.99962 0.74752 0.12381 0.0
O93 O 0.98894 0.78094 0.99053 0.0
C94 C 0.98555 0.75346 0.18027 0.0
H95 H 0.88433 0.7308 0.95993 0.0
H96 H 0.03189 0.8756 0.17955 0.0
H97 H 0.93713 0.88605 0.99945 0.0
H98 H 0.87758 0.84027 0.1433 0.0
Co99 Co 0.24984 0.96795 0.07639 0.0
C100 C 0.29943 0.91684 0.06379 0.0
C101 C 0.31148 0.96012 1.01687 0.0
C102 C 0.33566 0.93937 1.00691 0.0
N103 N 0.28842 0.94607 0.05171 0.0
N104 N 0.32833 0.91217 0.03698 0.0
H105 H 0.28723 0.89932 0.09218 0.0
H106 H 0.31056 0.98396 0.99897 0.0
C107 C 0.25064 0.97061 0.92711 0.0
O108 O 0.25613 0.94037 0.92669 0.0
N109 N 0.21262 0.99145 0.09925 0.0
C110 C 0.18906 0.98338 0.14055 0.0
C111 C 0.16721 0.00728 0.14103 0.0
C112 C 0.20517 0.02013 0.07615 0.0
N113 N 0.17741 0.03023 0.10028 0.0
C114 C 0.22395 0.90789 0.10415 0.0
C115 C 0.17217 0.91373 1.02246 0.0
C116 C 0.17205 0.89067 0.07214 0.0
C117 C 0.19902 0.887 0.11102 0.0
C118 C 0.19779 0.9342 1.01691 0.0
N119 N 0.22308 0.93169 0.05868 0.0
H120 H 0.24234 0.90674 0.14079 0.0
H121 H 0.19553 0.95401 0.98395 0.0
H122 H 0.18783 0.9617 0.16815 0.0
H123 H 0.21964 0.03322 0.04176 0.0
O124 O 0.25747 0.95997 0.16951 0.0
O125 O 0.27482 1.00137 0.11497 0.0
O126 O 0.24653 0.98473 0.98247 0.0
C127 C 0.27203 0.98655 0.17139 0.0
H128 H 0.35663 0.94392 0.97818 0.0
H129 H 0.14577 0.00792 0.1699 0.0
H130 H 0.15156 0.91766 0.99202 0.0
H131 H 0.19991 0.86951 0.15001 0.0
Co132 Co 0.04614 0.78676 0.53399 0.0
C133 C 0.09061 0.73171 0.52978 0.0
C134 C 0.10173 0.76522 0.60555 0.0
C135 C 0.12355 0.74164 0.60818 0.0
N136 N 0.08114 0.75933 0.55614 0.0
N137 N 0.11655 0.72055 0.56083 0.0
H138 H 0.07918 0.72016 0.48857 0.0
H139 H 0.10107 0.78551 0.6375 0.0
C140 C 0.01439 0.79846 0.67009 0.0
O141 O 0.99608 0.82069 0.64761 0.0
N142 N 0.01121 0.81427 0.51163 0.0
C143 C 0.01332 0.8427 0.48296 0.0
C144 C 0.98399 0.85614 0.48178 0.0
C145 C 0.98016 0.80985 0.5226 0.0
N146 N 0.9633 0.83573 0.50789 0.0
C147 C 0.09888 0.82489 0.5059 0.0
C148 C 0.08542 0.87336 0.59224 0.0
C149 C 0.11083 0.87635 0.54834 0.0
C150 C 0.1177 0.8515 0.50541 0.0
C151 C 0.06712 0.84625 0.59114 0.0
N152 N 0.07357 0.82266 0.54733 0.0
H153 H 0.10419 0.80621 0.47149 0.0
H154 H 0.04706 0.8452 0.62326 0.0
H155 H 0.03487 0.8536 0.46664 0.0
H156 H 0.97063 0.78948 0.54741 0.0
O157 O 0.05358 0.7815 0.44026 0.0
O158 O 0.02165 0.75175 0.49981 0.0
O159 O 0.03452 0.78482 0.63251 0.0
C160 C 0.0334 0.75888 0.44166 0.0
H161 H 0.1429 0.73987 0.64293 0.0
H162 H 0.9785 0.8798 0.46642 0.0
H163 H 0.07933 0.89213 0.62607 0.0
H164 H 0.13671 0.85304 0.46975 0.0
Co165 Co 0.25023 0.05392 0.53501 0.0
C166 C 0.2946 0.10723 0.56297 0.0
C167 C 0.31632 0.06213 0.569 0.0
C168 C 0.33894 0.0845 0.57882 0.0
N169 N 0.28851 0.07626 0.55809 0.0
N170 N 0.32543 0.11298 0.57464 0.0
H171 H 0.27694 0.12512 0.55958 0.0
H172 H 0.3201 0.03713 0.56849 0.0
C173 C 0.25633 0.04552 0.68305 0.0
O174 O 0.26345 0.0753 0.68794 0.0
N175 N 0.21294 0.03078 0.51227 0.0
C176 C 0.18944 0.03964 0.47151 0.0
C177 C 0.16741 0.0161 0.4698 0.0
C178 C 0.20515 1.00209 0.53426 0.0
N179 N 0.17745 0.99247 0.50902 0.0
C180 C 0.22043 0.11292 0.51729 0.0
C181 C 0.17238 0.10194 0.60631 0.0
C182 C 0.16789 0.1243 0.55603 0.0
C183 C 0.19315 0.13106 0.51393 0.0
C184 C 0.19983 0.08393 0.60731 0.0
N185 N 0.223 0.08859 0.56123 0.0
H186 H 0.23813 0.11649 0.47959 0.0
H187 H 0.20039 0.06397 0.64002 0.0
H188 H 0.18837 0.06164 0.44508 0.0
H189 H 0.21925 0.98881 0.56887 0.0
O190 O 0.25555 0.06505 0.44241 0.0
O191 O 0.27497 0.02239 0.48879 0.0
O192 O 0.24971 0.0339 0.62623 0.0
C193 C 0.27093 0.03906 0.43516 0.0
H194 H 0.36373 0.08002 0.58609 0.0
H195 H 0.14584 0.0162 0.44135 0.0
H196 H 0.1537 0.09644 0.64094 0.0
H197 H 0.1908 0.14815 0.47442 0.0
Co198 Co 0.96738 0.22685 0.51771 0.0
C199 C 0.92467 0.28341 0.51808 0.0
C200 C 0.91572 0.25099 0.5974 0.0
C201 C 0.8943 0.27485 0.60193 0.0
N202 N 0.93465 0.256 0.54459 0.0
N203 N 0.89994 0.29522 0.55236 0.0
H204 H 0.93474 0.29429 0.47444 0.0
H205 H 0.91715 0.231 0.6302 0.0
C206 C 1.00048 0.21215 0.65222 0.0
O207 O 0.01711 0.18874 0.62934 0.0
N208 N 0.9997 0.19736 0.49045 0.0
C209 C 0.9948 0.17171 0.45305 0.0
C210 C 0.02263 0.15572 0.44663 0.0
C211 C 0.03096 0.19776 0.50215 0.0
N212 N 0.04519 0.17149 0.47966 0.0
C213 C 0.91175 0.19214 0.49403 0.0
C214 C 0.92567 0.14144 0.57419 0.0
C215 C 0.89926 0.14018 0.53283 0.0
C216 C 0.89204 0.16614 0.49326 0.0
C217 C 0.94494 0.16781 0.57299 0.0
N218 N 0.93822 0.19252 0.53231 0.0
H219 H 0.90632 0.21171 0.46198 0.0
H220 H 0.96603 0.16729 0.60193 0.0
H221 H 0.97233 0.16466 0.43316 0.0
H222 H 0.04256 0.21563 0.53122 0.0
O223 O 0.95832 0.23359 0.42491 0.0
O224 O 0.99343 0.26049 0.48234 0.0
O225 O 0.98102 0.22711 0.61533 0.0
C226 C 0.98014 0.25468 0.42505 0.0
H227 H 0.87612 0.27729 0.63926 0.0
H228 H 0.02574 0.13367 0.4211 0.0
H229 H 0.93232 0.12156 0.60454 0.0
H230 H 0.87175 0.16601 0.46076 0.0
Co231 Co 0.7645 0.96033 0.54327 0.0
C232 C 0.71509 0.91125 0.55147 0.0
C233 C 0.7057 0.95071 0.61436 0.0
C234 C 0.68183 0.92946 0.62217 0.0
N235 N 0.72663 0.93922 0.57055 0.0
N236 N 0.68748 0.90475 0.5821 0.0
H237 H 0.72645 0.89618 0.51547 0.0
H238 H 0.70764 0.97307 0.63901 0.0
C239 C 0.79448 0.98257 0.67338 0.0
O240 O 0.82206 0.97698 0.64652 0.0
N241 N 0.8018 0.98271 0.51597 0.0
C242 C 0.82453 0.97417 0.47279 0.0
C243 C 0.84496 0.99884 0.46482 0.0
C244 C 0.80809 0.01271 0.53155 0.0
N245 N 0.8347 0.0228 0.50252 0.0
C246 C 0.79763 0.90501 0.50481 0.0
C247 C 0.82607 0.89227 0.62483 0.0
C248 C 0.83853 0.8789 0.56656 0.0
C249 C 0.82237 0.88373 0.50699 0.0
C250 C 0.80063 0.91321 0.62039 0.0
N251 N 0.78925 0.9221 0.55959 0.0
H252 H 0.78742 0.90955 0.45682 0.0
H253 H 0.7913 0.92302 0.6656 0.0
H254 H 0.82599 0.95209 0.44711 0.0
H255 H 0.79328 0.02695 0.56322 0.0
O256 O 0.7548 0.9525 0.45057 0.0
O257 O 0.73964 0.99464 0.50401 0.0
O258 O 0.76949 0.9766 0.63969 0.0
C259 C 0.74119 0.97946 0.44767 0.0
H260 H 0.66223 0.93187 0.65603 0.0
H261 H 0.86579 0.99915 0.43393 0.0
H262 H 0.83672 0.88771 0.6728 0.0
H263 H 0.83047 0.87333 0.4609 0.0
Co264 Co 0.54357 0.7279 0.5809 0.0
C265 C 0.58849 0.78235 0.5825 0.0
C266 C 0.59577 0.75075 0.50098 0.0
C267 C 0.61795 0.77391 0.49718 0.0
N268 N 0.57738 0.75576 0.55463 0.0
N269 N 0.61332 0.79379 0.54815 0.0
H270 H 0.57911 0.79291 0.6272 0.0
H271 H 0.59338 0.7313 0.46701 0.0
C272 C 0.50967 0.71385 0.4483 0.0
O273 O 0.494 0.69016 0.47274 0.0
N274 N 0.50979 0.69995 0.60716 0.0
C275 C 0.51293 0.67194 0.63724 0.0
C276 C 0.48399 0.65783 0.64004 0.0
C277 C 0.47858 0.70351 0.59694 0.0
N278 N 0.46257 0.67739 0.61329 0.0
C279 C 0.5978 0.69137 0.60642 0.0
C280 C 0.58347 0.6409 0.52641 0.0
C281 C 0.60891 0.63863 0.57037 0.0
C282 C 0.61665 0.6647 0.60899 0.0
C283 C 0.5652 0.66811 0.52528 0.0
N284 N 0.57179 0.69252 0.56676 0.0
H285 H 0.60346 0.71084 0.63843 0.0
H286 H 0.54505 0.6685 0.4936 0.0
H287 H 0.53493 0.66172 0.65308 0.0
H288 H 0.46838 0.72327 0.57102 0.0
O289 O 0.55253 0.73408 0.67387 0.0
O290 O 0.51879 0.76261 0.61597 0.0
O291 O 0.5297 0.72888 0.48351 0.0
C292 C 0.53154 0.75608 0.67349 0.0
H293 H 0.63591 0.77623 0.45936 0.0
H294 H 0.47931 0.63421 0.65671 0.0
H295 H 0.57717 0.62148 0.49458 0.0
H296 H 0.63624 0.66399 0.64331 0.0
Co297 Co 0.26565 0.55257 0.56849 0.0
C298 C 0.21564 0.60094 0.56018 0.0
C299 C 0.20545 0.56051 0.50088 0.0
C300 C 0.18145 0.58179 0.49297 0.0
N301 N 0.22691 0.57261 0.54262 0.0
N302 N 0.18773 0.60714 0.53063 0.0
H303 H 0.2275 0.61661 0.59407 0.0
H304 H 0.20727 0.53787 0.47729 0.0
C305 C 0.29506 0.53005 0.43745 0.0
O306 O 0.32286 0.53568 0.46304 0.0
N307 N 0.30399 0.53166 0.5949 0.0
C308 C 0.32639 0.54157 0.63741 0.0
C309 C 0.34813 0.51799 0.64572 0.0
C310 C 0.3118 0.50192 0.57998 0.0
N311 N 0.33901 0.49339 0.6088 0.0
C312 C 0.29556 0.60974 0.6057 0.0
C313 C 0.3276 0.62011 0.48879 0.0
C314 C 0.33844 0.63428 0.54753 0.0
C315 C 0.32041 0.63085 0.60508 0.0
C316 C 0.30201 0.59945 0.49155 0.0
N317 N 0.28898 0.59155 0.55144 0.0
H318 H 0.28389 0.60614 0.65254 0.0
H319 H 0.29393 0.58907 0.44597 0.0
H320 H 0.32672 0.56386 0.66242 0.0
H321 H 0.29778 0.48679 0.54874 0.0
O322 O 0.25633 0.56006 0.66149 0.0
O323 O 0.24227 0.51747 0.60864 0.0
O324 O 0.27032 0.53634 0.47187 0.0
C325 C 0.24347 0.53282 0.66479 0.0
H326 H 0.16143 0.57905 0.46042 0.0
H327 H 0.36903 0.51882 0.67629 0.0
H328 H 0.33972 0.6237 0.44203 0.0
H329 H 0.32718 0.64204 0.65123 0.0
Co330 Co 0.47033 0.28837 0.60238 0.0
C331 C 0.42215 0.23663 0.59867 0.0
C332 C 0.42551 0.26285 0.50788 0.0
C333 C 0.40269 0.24068 0.50024 0.0
N334 N 0.43807 0.26032 0.56919 0.0
N335 N 0.40009 0.22444 0.55748 0.0
H336 H 0.42614 0.22879 0.6491 0.0
H337 H 0.43226 0.27996 0.47096 0.0
C338 C 0.50038 0.27056 0.47416 0.0
O339 O 0.50492 0.24259 0.49944 0.0
N340 N 0.50252 0.31668 0.63303 0.0
C341 C 0.49978 0.33871 0.68051 0.0
C342 C 0.52782 0.35459 0.685 0.0
C343 C 0.53208 0.31927 0.60949 0.0
N344 N 0.54812 0.34226 0.64046 0.0
C345 C 0.4148 0.32413 0.61806 0.0
C346 C 0.43441 0.37572 0.54609 0.0
C347 C 0.40621 0.37724 0.58192 0.0
C348 C 0.39614 0.35089 0.61719 0.0
C349 C 0.45257 0.34851 0.54873 0.0
N350 N 0.44286 0.32345 0.58542 0.0
H351 H 0.40733 0.30423 0.64715 0.0
H352 H 0.47515 0.3482 0.52422 0.0
H353 H 0.47862 0.34338 0.70863 0.0
H354 H 0.54164 0.30476 0.57028 0.0
O355 O 0.45811 0.28076 0.69311 0.0
O356 O 0.49476 0.25391 0.63998 0.0
O357 O 0.48769 0.2918 0.50962 0.0
C358 C 0.47981 0.25955 0.69559 0.0
H359 H 0.38953 0.23649 0.45508 0.0
H360 H 0.53245 0.37444 0.71686 0.0
H361 H 0.44306 0.39587 0.5191 0.0
H362 H 0.37442 0.3513 0.64524 0.0
Co363 Co 0.752 0.46515 0.58507 0.0
C364 C 0.8006 0.41408 0.56587 0.0
C365 C 0.81182 0.45711 0.51704 0.0
C366 C 0.83554 0.43611 0.50464 0.0
N367 N 0.78948 0.44327 0.55431 0.0
N368 N 0.82869 0.40907 0.53587 0.0
H369 H 0.7892 0.39697 0.59678 0.0
H370 H 0.81084 0.48102 0.49957 0.0
C371 C 0.74995 0.47219 0.43656 0.0
O372 O 0.75437 0.44183 0.4322 0.0
N373 N 0.71564 0.48821 0.6149 0.0
C374 C 0.69467 0.47958 0.6616 0.0
C375 C 0.67161 0.50217 0.66526 0.0
C376 C 0.70539 0.51589 0.59136 0.0
N377 N 0.67832 0.5248 0.62062 0.0
C378 C 0.72408 0.40515 0.60429 0.0
C379 C 0.67111 0.4175 0.52943 0.0
C380 C 0.67039 0.39283 0.57526 0.0
C381 C 0.69792 0.3857 0.61014 0.0
C382 C 0.69791 0.43626 0.52452 0.0
N383 N 0.72379 0.43064 0.56322 0.0
H384 H 0.74296 0.4016 0.63904 0.0
H385 H 0.69607 0.45743 0.49559 0.0
H386 H 0.6959 0.45825 0.69042 0.0
H387 H 0.71715 0.52903 0.55276 0.0
O388 O 0.76096 0.45377 0.67622 0.0
O389 O 0.77845 0.49646 0.62676 0.0
O390 O 0.74763 0.485 0.49387 0.0
C391 C 0.77614 0.47995 0.68113 0.0
H392 H 0.85589 0.44042 0.47384 0.0
H393 H 0.6517 0.50208 0.69872 0.0
H394 H 0.65019 0.4241 0.50215 0.0
H395 H 0.69846 0.36669 0.64576 0.0
Co396 Co 0.54784 0.28115 0.05426 0.0
C397 C 0.60259 0.23575 0.05508 0.0
C398 C 0.56244 0.22121 0.11172 0.0
C399 C 0.58529 0.1989 0.11842 0.0
N400 N 0.57327 0.24465 0.07324 0.0
N401 N 0.61051 0.20805 0.08323 0.0
H402 H 0.61773 0.24877 1.02212 0.0
H403 H 0.53912 0.22022 0.13286 0.0
C404 C 0.52044 0.29869 0.19178 0.0
O405 O 0.51127 0.3263 0.17082 0.0
N406 N 0.52059 0.31656 0.03631 0.0
C407 C 0.52806 0.34569 1.01613 0.0
C408 C 0.50105 0.36354 1.01483 0.0
C409 C 0.48907 0.31675 0.04397 0.0
N410 N 0.47671 0.34534 0.03318 0.0
C411 C 0.60424 0.31291 1.01827 0.0
C412 C 0.60421 0.35634 0.11968 0.0
C413 C 0.62309 0.36182 0.06365 0.0
C414 C 0.62405 0.33881 1.01422 0.0
C415 C 0.58501 0.32975 0.12227 0.0
N416 N 0.58355 0.30937 0.06986 0.0
H417 H 0.60422 0.29692 0.97689 0.0
H418 H 0.57024 0.32717 0.16489 0.0
H419 H 0.55141 0.35375 1.00428 0.0
H420 H 0.47574 0.29689 0.06169 0.0
O421 O 0.55376 0.27578 0.95977 0.0
O422 O 0.51547 0.25377 1.01671 0.0
O423 O 0.53523 0.28016 0.15255 0.0
C424 C 0.52898 0.25839 0.95923 0.0
H425 H 0.58322 0.17704 0.14527 0.0
H426 H 0.49948 0.38808 1.00204 0.0
H427 H 0.60262 0.37336 0.15938 0.0
H428 H 0.63884 0.34157 0.97074 0.0
Co429 Co 0.75079 0.54757 0.04044 0.0
C430 C 0.8005 0.59866 0.04939 0.0
C431 C 0.81054 0.55751 0.10623 0.0
C432 C 0.83481 0.57811 0.11463 0.0
N433 N 0.7885 0.57042 0.06662 0.0
N434 N 0.82884 0.60393 0.07827 0.0
H435 H 0.78957 0.61474 1.01519 0.0
H436 H 0.80907 0.53441 0.12789 0.0
C437 C 0.74934 0.54505 0.18959 0.0
O438 O 0.75378 0.57544 0.1896 0.0
N439 N 0.71461 0.52287 1.01647 0.0
C440 C 0.69064 0.53005 0.97557 0.0
C441 C 0.67001 0.50515 0.97485 0.0
C442 C 0.70857 0.49385 0.03927 0.0
N443 N 0.68124 0.48252 1.01542 0.0
C444 C 0.72344 0.60743 1.01452 0.0
C445 C 0.67174 0.60029 0.09603 0.0
C446 C 0.67169 0.62441 0.04874 0.0
C447 C 0.69832 0.62833 1.00902 0.0
C448 C 0.69724 0.57954 0.09937 0.0
N449 N 0.72271 0.58295 0.05836 0.0
H450 H 0.74194 0.60928 0.97829 0.0
H451 H 0.69492 0.55907 0.13038 0.0
H452 H 0.68821 0.55184 0.94868 0.0
H453 H 0.72435 0.4811 0.07159 0.0
O454 O 0.75863 0.55648 0.94797 0.0
O455 O 0.77731 0.51521 1.0012 0.0
O456 O 0.74716 0.53048 0.13423 0.0
C457 C 0.77455 0.53066 0.94547 0.0
H458 H 0.85499 0.57437 0.14627 0.0
H459 H 0.64824 0.50395 0.94722 0.0
H460 H 0.65116 0.59592 0.12629 0.0
H461 H 0.69892 0.64629 0.97098 0.0
Co462 Co 0.46983 0.7313 0.02779 0.0
C463 C 0.42638 0.78756 1.02473 0.0
C464 C 0.41583 0.75452 0.10189 0.0
C465 C 0.39403 0.77808 0.10468 0.0
N466 N 0.43603 0.76004 0.05148 0.0
N467 N 0.40063 0.79887 0.05647 0.0
H468 H 0.43745 0.79888 0.9827 0.0
H469 H 0.41657 0.73432 0.13413 0.0
C470 C 0.50169 0.71727 0.16227 0.0
O471 O 0.51768 0.69364 0.13854 0.0
N472 N 0.50348 0.7023 1.00402 0.0
C473 C 0.49992 0.67507 0.97118 0.0
C474 C 0.52879 0.66095 0.96447 0.0
C475 C 0.53487 0.70515 1.01343 0.0
N476 N 0.55072 0.67954 0.99214 0.0
C477 C 0.41537 0.69579 1.00047 0.0
C478 C 0.42739 0.64592 0.08398 0.0
C479 C 0.40209 0.64412 0.03956 0.0
C480 C 0.3958 0.66977 0.99843 0.0
C481 C 0.44654 0.6724 0.08419 0.0
N482 N 0.44093 0.6966 0.04144 0.0
H483 H 0.41058 0.71504 0.96713 0.0
H484 H 0.46652 0.67238 0.11639 0.0
H485 H 0.47776 0.66573 0.95425 0.0
H486 H 0.54563 0.72484 0.03833 0.0
O487 O 0.4618 0.73689 0.93451 0.0
O488 O 0.49555 0.76528 0.9923 0.0
O489 O 0.48232 0.73258 0.12587 0.0
C490 C 0.48291 0.75862 0.93474 0.0
H491 H 0.37491 0.78004 0.13997 0.0
H492 H 0.53315 0.63804 0.9435 0.0
H493 H 0.43297 0.62656 0.11672 0.0
H494 H 0.37689 0.66921 0.96247 0.0
Co495 Co 0.26946 0.46242 0.0275 0.0
C496 C 0.22465 0.40941 0.0365 0.0
C497 C 0.21099 0.44846 0.09722 0.0
C498 C 0.18924 0.42504 0.10532 0.0
N499 N 0.23319 0.43863 0.05437 0.0
N500 N 0.19774 0.40053 0.06706 0.0
H501 H 0.23794 0.39499 1.00235 0.0
H502 H 0.21048 0.47124 0.1205 0.0
C503 C 0.29683 0.48675 0.15826 0.0
O504 O 0.32491 0.48205 0.13299 0.0
N505 N 0.30537 0.48708 1.0003 0.0
C506 C 0.32861 0.47954 0.95751 0.0
C507 C 0.34862 0.50459 0.95181 0.0
C508 C 0.31077 0.5171 1.01727 0.0
N509 N 0.3374 0.52809 0.98961 0.0
C510 C 0.30772 0.40986 0.99304 0.0
C511 C 0.3335 0.39939 0.11681 0.0
C512 C 0.34857 0.38708 0.0604 0.0
C513 C 0.33394 0.39056 0.99868 0.0
C514 C 0.30663 0.41811 0.10879 0.0
N515 N 0.29662 0.42628 0.04651 0.0
H516 H 0.29836 0.41359 0.94392 0.0
H517 H 0.2951 0.42705 0.15255 0.0
H518 H 0.33091 0.45781 0.93089 0.0
H519 H 0.29609 0.53014 0.05136 0.0
O520 O 0.26098 0.45335 0.93454 0.0
O521 O 0.24258 0.49458 0.98686 0.0
O522 O 0.27248 0.47979 0.12336 0.0
C523 C 0.24558 0.47939 0.93083 0.0
H524 H 0.16824 0.42627 0.13558 0.0
H525 H 0.36977 0.50551 0.92197 0.0
H526 H 0.3431 0.39568 0.16609 0.0
H527 H 0.34416 0.38062 0.95403 0.0
C528 C 0.14171 0.33466 0.10306 0.0
C529 C 0.1358 0.32258 0.03933 0.0
C530 C 0.1632 0.35918 0.11223 0.0
C531 C 0.17979 0.37221 0.05815 0.0
H532 H 0.12822 0.32645 0.14525 0.0
H533 H 0.16608 0.36879 0.16168 0.0
S534 S 0.17494 0.34624 0.8824 0.0
N535 N 0.15007 0.32338 0.9224 0.0
N536 N 0.19025 0.36946 0.93939 0.0
C537 C 0.1755 0.35888 0.99492 0.0
C538 C 0.15352 0.3341 0.98561 0.0
C539 C 0.66796 0.1548 1.00002 0.0
C540 C 0.6821 0.13967 0.05471 0.0
C541 C 0.64646 0.17938 1.00919 0.0
C542 C 0.6381 0.18925 0.0734 0.0
H543 H 0.67265 0.14668 0.94995 0.0
H544 H 0.63466 0.1892 0.96625 0.0
S545 S 0.67005 0.15924 0.23259 0.0
N546 N 0.6877 0.13799 0.175 0.0
N547 N 0.64712 0.18393 0.19203 0.0
C548 C 0.65338 0.1756 0.12814 0.0
C549 C 0.67547 0.15087 0.11888 0.0
C550 C 0.83508 0.6611 0.06253 0.0
C551 C 0.84858 0.6314 0.07261 0.0
C552 C 0.85377 0.68803 0.05747 0.0
C553 C 0.88667 0.68645 0.06319 0.0
H554 H 0.80985 0.66361 0.05882 0.0
H555 H 0.84245 0.71036 0.04873 0.0
S556 S 0.93419 0.61467 0.08443 0.0
N557 N 0.89754 0.60216 0.08366 0.0
N558 N 0.93213 0.65304 0.07661 0.0
C559 C 0.90054 0.65714 0.07344 0.0
C560 C 0.88166 0.62958 0.07748 0.0
C561 C 0.33252 0.8544 0.04115 0.0
C562 C 0.34713 0.88388 0.0388 0.0
C563 C 0.35022 0.82671 0.04435 0.0
C564 C 0.38325 0.82727 0.04448 0.0
H565 H 0.30718 0.85267 0.04063 0.0
H566 H 0.338 0.80459 0.04746 0.0
S567 S 0.43329 0.89786 0.04246 0.0
N568 N 0.39707 0.91164 0.0397 0.0
N569 N 0.42996 0.8594 0.04361 0.0
C570 C 0.39825 0.85635 0.0412 0.0
C571 C 0.38031 0.88467 0.03891 0.0
C572 C 0.1668 0.69218 0.55114 0.0
C573 C 0.13379 0.69211 0.54824 0.0
C574 C 0.18418 0.66446 0.54493 0.0
C575 C 0.16926 0.63545 0.53598 0.0
H576 H 0.17927 0.71394 0.5585 0.0
H577 H 0.20953 0.66579 0.5469 0.0
S578 S 0.0831 0.62245 0.52937 0.0
N579 N 0.08676 0.66066 0.53784 0.0
N580 N 0.11921 0.60836 0.52731 0.0
C581 C 0.13617 0.63507 0.53304 0.0
C582 C 0.11851 0.66343 0.53884 0.0
C583 C 0.38892 0.1726 0.60708 0.0
C584 C 0.37911 0.19845 0.56921 0.0
C585 C 0.37061 0.14536 0.61088 0.0
C586 C 0.34176 0.14272 0.57666 0.0
H587 H 0.41152 0.1729 0.63171 0.0
H588 H 0.37954 0.12594 0.63975 0.0
S589 S 0.30381 0.20563 0.4772 0.0
N590 N 0.3369 0.22125 0.50365 0.0
N591 N 0.30356 0.16969 0.50696 0.0
C592 C 0.33101 0.16911 0.54132 0.0
C593 C 0.34942 0.197 0.53844 0.0
C594 C 0.83229 0.35138 0.54159 0.0
C595 C 0.8472 0.38063 0.53654 0.0
C596 C 0.84969 0.32352 0.5443 0.0
C597 C 0.88266 0.32371 0.54118 0.0
H598 H 0.80695 0.34995 0.54366 0.0
H599 H 0.8373 0.30158 0.54957 0.0
S600 S 0.93348 0.39358 0.53078 0.0
N601 N 0.8974 0.4078 0.53107 0.0
N602 N 0.92971 0.3552 0.53406 0.0
C603 C 0.89795 0.35253 0.53503 0.0
C604 C 0.88033 0.38104 0.53324 0.0
C605 C 0.66437 0.82076 0.55421 0.0
C606 C 0.63149 0.82151 0.56099 0.0
C607 C 0.68246 0.84794 0.56135 0.0
C608 C 0.66836 0.87703 0.57493 0.0
H609 H 0.67616 0.79891 0.5433 0.0
H610 H 0.7077 0.84609 0.5566 0.0
S611 S 0.58264 0.89174 0.59143 0.0
N612 N 0.58539 0.85366 0.57924 0.0
N613 N 0.61901 0.90499 0.59091 0.0
C614 C 0.63535 0.87807 0.58111 0.0
C615 C 0.61703 0.85027 0.57462 0.0
C616 C 0.17983 0.08735 0.08204 0.0
C617 C 0.16221 0.05958 0.08553 0.0
C618 C 0.16534 0.11627 0.06911 0.0
C619 C 0.13281 0.11833 0.05778 0.0
H620 H 0.2049 0.08676 0.09089 0.0
H621 H 0.17965 0.13718 0.06819 0.0
S622 S 0.07638 0.05238 0.05953 0.0
N623 N 0.1107 0.0359 0.0751 0.0
N624 N 0.08345 0.0901 0.05078 0.0
C625 C 0.11505 0.09066 0.06007 0.0
C626 C 0.12973 0.06133 0.07403 0.0
C627 C 0.93616 0.13273 0.05354 0.0
C628 C 0.94164 0.16075 0.08838 0.0
C629 C 0.90556 0.12251 0.03994 0.0
C630 C 0.8793 0.1398 0.06118 0.0
H631 H 0.95571 0.11845 0.03719 0.0
H632 H 0.90245 0.10012 1.01561 0.0
S633 S 0.88091 0.21565 0.15029 0.0
N634 N 0.9183 0.20636 0.14068 0.0
N635 N 0.86073 0.18712 0.11534 0.0
C636 C 0.88446 0.16843 0.09373 0.0
C637 C 0.91563 0.17893 0.1072 0.0
C638 C 0.90242 0.92429 0.09244 0.0
C639 C 0.88631 0.89621 0.08029 0.0
C640 C 0.8862 0.95192 0.10698 0.0
C641 C 0.85323 0.95261 0.10985 0.0
H642 H 0.92785 0.9248 0.09236 0.0
H643 H 0.89963 0.97298 0.11571 0.0
S644 S 0.79991 0.88555 0.08068 0.0
N645 N 0.83547 0.87091 0.07016 0.0
N646 N 0.80496 0.9228 0.0993 0.0
C647 C 0.83675 0.9248 0.09708 0.0
C648 C 0.8533 0.89661 0.08204 0.0
C649 C 0.12572 0.85699 0.04102 0.0
C650 C 0.14266 0.87361 0.0896 0.0
C651 C 0.09693 0.84255 0.05646 0.0
C652 C 0.08372 0.8448 0.12062 0.0
H653 H 0.13461 0.85548 0.9906 0.0
H654 H 0.08428 0.83075 1.01718 0.0
S655 S 0.11893 0.88486 0.26591 0.0
N656 N 0.14432 0.8907 0.20504 0.0
N657 N 0.09032 0.86384 0.23336 0.0
C658 C 0.10076 0.8607 0.1698 0.0
C659 C 0.13015 0.87504 0.15448 0.0
C660 C 0.12851 0.96265 0.52541 0.0
C661 C 0.16149 0.96338 0.52189 0.0
C662 C 0.11239 0.93456 0.5362 0.0
C663 C 0.12863 0.90608 0.54345 0.0
H664 H 0.11505 0.98398 0.51976 0.0
H665 H 0.08696 0.93503 0.53703 0.0
S666 S 0.21502 0.89529 0.53989 0.0
N667 N 0.20983 0.93307 0.52701 0.0
N668 N 0.17953 0.88044 0.54887 0.0
C669 C 0.16161 0.90654 0.54129 0.0
C670 C 0.17804 0.93513 0.53026 0.0
C671 C 0.1015 0.17986 0.50579 0.0
C672 C 0.07564 0.15964 0.49939 0.0
C673 C 0.13117 0.16856 0.52544 0.0
C674 C 0.13595 0.1367 0.54042 0.0
H675 H 0.09886 0.20448 0.49454 0.0
H676 H 0.15054 0.18485 0.52874 0.0
S677 S 0.07565 0.07419 0.53359 0.0
N678 N 0.05661 0.10637 0.51276 0.0
N679 N 0.11223 0.0851 0.54666 0.0
C680 C 0.11016 0.11636 0.53484 0.0
C681 C 0.08008 0.12781 0.51511 0.0
C682 C 0.86181 0.06857 0.45564 0.0
C683 C 0.84949 0.05269 0.51096 0.0
C684 C 0.8771 0.09732 0.46311 0.0
C685 C 0.88104 0.1109 0.52633 0.0
H686 H 0.85952 0.05866 0.4063 0.0
H687 H 0.88659 0.10864 0.41927 0.0
S688 S 0.85321 0.07847 0.68696 0.0
N689 N 0.84217 0.05249 0.63093 0.0
N690 N 0.87114 0.10651 0.6451 0.0
C691 C 0.86873 0.09531 0.58203 0.0
C692 C 0.85282 0.06622 0.5743 0.0
C693 C 0.90599 0.82654 0.51027 0.0
C694 C 0.93232 0.8435 0.53145 0.0
C695 C 0.87541 0.83676 0.52595 0.0
C696 C 0.87022 0.864 0.56423 0.0
H697 H 0.90907 0.80626 0.47866 0.0
H698 H 0.85567 0.82403 0.50562 0.0
S699 S 0.93205 0.91429 0.63774 0.0
N700 N 0.95163 0.88685 0.59741 0.0
N701 N 0.89454 0.90622 0.62662 0.0
C702 C 0.89662 0.87983 0.5892 0.0
C703 C 0.92757 0.86957 0.57276 0.0
C704 C 0.67609 0.58091 0.59211 0.0
C705 C 0.66052 0.55271 0.60634 0.0
C706 C 0.65927 0.60849 0.57932 0.0
C707 C 0.62625 0.60879 0.57942 0.0
H708 H 0.70149 0.5818 0.59223 0.0
H709 H 0.67221 0.62979 0.56955 0.0
S710 S 0.57431 0.54085 0.61114 0.0
N711 N 0.61021 0.5265 0.61717 0.0
N712 N 0.57858 0.57839 0.59431 0.0
C713 C 0.6104 0.58062 0.59242 0.0
C714 C 0.62752 0.55259 0.60573 0.0
C715 C 0.37498 0.6765 0.58827 0.0
C716 C 0.37032 0.64836 0.55292 0.0
C717 C 0.4053 0.68664 0.60581 0.0
C718 C 0.43186 0.66865 0.58981 0.0
H719 H 0.35497 0.69019 0.60444 0.0
H720 H 0.40795 0.7079 0.6345 0.0
S721 S 0.43295 0.59476 0.49343 0.0
N722 N 0.39537 0.60382 0.49942 0.0
N723 N 0.452 0.623 0.53203 0.0
C724 C 0.42768 0.64138 0.55187 0.0
C725 C 0.39701 0.63123 0.53346 0.0
C726 C 0.36625 0.44806 0.65714 0.0
C727 C 0.35528 0.46425 0.60099 0.0
C728 C 0.38234 0.41965 0.6504 0.0
C729 C 0.38851 0.40688 0.58718 0.0
H730 H 0.36206 0.45734 0.70649 0.0
H731 H 0.39043 0.4078 0.6949 0.0
S732 S 0.36546 0.44088 0.42471 0.0
N733 N 0.3519 0.46592 0.48039 0.0
N734 N 0.3827 0.41267 0.46752 0.0
C735 C 0.37793 0.42303 0.53064 0.0
C736 C 0.3611 0.45168 0.5376 0.0
C737 C 0.59012 0.35421 0.55911 0.0
C738 C 0.57946 0.353 0.62545 0.0
C739 C 0.61976 0.36653 0.54315 0.0
C740 C 0.64005 0.37766 0.59304 0.0
H741 H 0.57506 0.34644 0.51905 0.0
H742 H 0.62676 0.36761 0.49136 0.0
S743 S 0.62366 0.37868 0.77469 0.0
N744 N 0.59201 0.36289 0.74144 0.0
N745 N 0.64727 0.38653 0.71171 0.0
C746 C 0.62986 0.376 0.65969 0.0
C747 C 0.59969 0.3636 0.67581 0.0
C748 C 0.65034 0.43676 0.97898 0.0
C749 C 0.66728 0.45236 0.02895 0.0
C750 C 0.63663 0.40748 0.99066 0.0
C751 C 0.63915 0.39245 0.05293 0.0
H752 H 0.64786 0.44716 0.93013 0.0
H753 H 0.62346 0.39675 0.95064 0.0
S754 S 0.68066 0.42352 0.20113 0.0
N755 N 0.68517 0.45088 0.14394 0.0
N756 N 0.66023 0.39544 0.16518 0.0
C757 C 0.65604 0.40777 0.10346 0.0
C758 C 0.66996 0.43771 0.0916 0.0
C759 C 0.59971 0.65373 0.95595 0.0
C760 C 0.58294 0.6705 1.00468 0.0
C761 C 0.62898 0.6401 0.96999 0.0
C762 C 0.64243 0.64216 0.0338 0.0
H763 H 0.58964 0.65045 0.90697 0.0
H764 H 0.64057 0.62671 0.93133 0.0
S765 S 0.60934 0.68477 0.17819 0.0
N766 N 0.58315 0.68986 0.11852 0.0
N767 N 0.6377 0.66341 0.14523 0.0
C768 C 0.62651 0.65959 0.08246 0.0
C769 C 0.59695 0.67406 0.06778 0.0
C770 C 0.38557 0.55831 1.00944 0.0
C771 C 0.35272 0.55734 1.00328 0.0
C772 C 0.40115 0.58633 1.02315 0.0
C773 C 0.38448 0.61451 0.03101 0.0
H774 H 0.39935 0.53717 1.00397 0.0
H775 H 0.42654 0.58601 0.02601 0.0
S776 S 0.29808 0.62447 1.02032 0.0
N777 N 0.30395 0.5869 1.00588 0.0
N778 N 0.33319 0.63961 0.03322 0.0
C779 C 0.35155 0.61383 0.02574 0.0
C780 C 0.33568 0.58523 1.01168 0.0
C781 C 0.41969 0.33621 1.02257 0.0
C782 C 0.44471 0.35482 0.04499 0.0
C783 C 0.38838 0.34592 0.0307 0.0
C784 C 0.381 0.37424 0.06297 0.0
H785 H 0.42445 0.31456 0.99649 0.0
H786 H 0.36984 0.33159 1.01012 0.0
S787 S 0.43803 0.43003 0.13566 0.0
N788 N 0.46004 0.40179 0.10445 0.0
N789 N 0.40136 0.42005 0.11984 0.0
C790 C 0.40583 0.39233 0.08816 0.0
C791 C 0.43764 0.38265 0.07906 0.0
C792 C 0.02513 0.26565 0.3493 0.0
C793 C 0.99261 0.26618 0.3607 0.0
C794 C 0.03723 0.26583 0.28419 0.0
C795 C 0.0173 0.26696 0.22813 0.0
H796 H 0.04121 0.2621 0.39042 0.0
H797 H 0.06231 0.26284 0.27773 0.0
S798 S 0.93066 0.27524 0.23259 0.0
N799 N 0.94094 0.27247 0.31162 0.0
N800 N 0.96363 0.27349 0.18941 0.0
C801 C 0.98496 0.27099 0.23936 0.0
C802 C 0.97264 0.27034 0.30565 0.0
C803 C 0.73339 0.97381 0.32413 0.0
C804 C 0.73366 0.99331 0.38099 0.0
C805 C 0.73394 0.98614 0.25903 0.0
C806 C 0.73503 0.01857 0.24785 0.0
H807 H 0.73453 0.94865 0.32987 0.0
H808 H 0.73581 0.9701 0.21751 0.0
S809 S 0.73179 0.07999 0.37861 0.0
N810 N 0.73169 0.04684 0.42082 0.0
N811 N 0.73274 0.07004 0.29922 0.0
C812 C 0.73287 0.03834 0.30404 0.0
C813 C 0.73214 0.02575 0.3703 0.0
C814 C 0.03005 0.74304 0.2574 0.0
C815 C 0.99755 0.74274 0.24555 0.0
C816 C 0.04184 0.745 0.32256 0.0
C817 C 0.0216 0.74602 0.37803 0.0
H818 H 0.04633 0.74514 0.2162 0.0
H819 H 0.06687 0.74817 0.32927 0.0
S820 S 0.93488 0.74032 0.37369 0.0
N821 N 0.94552 0.73954 0.29463 0.0
N822 N 0.96777 0.74242 0.41694 0.0
C823 C 0.98931 0.74211 0.36706 0.0
C824 C 0.97726 0.74069 0.30073 0.0
C825 C 0.28206 0.99461 0.35775 0.0
C826 C 0.27869 0.02698 0.36782 0.0
C827 C 0.28228 0.98185 0.29338 0.0
C828 C 0.27965 1.00099 0.23655 0.0
H829 H 0.28239 0.97875 0.39981 0.0
H830 H 0.28289 0.95664 0.28826 0.0
S831 S 0.27469 0.08759 0.23566 0.0
N832 N 0.27593 0.07819 0.31535 0.0
N833 N 0.27673 0.05422 0.19457 0.0
C834 C 0.27888 0.03356 0.24578 0.0
C835 C 0.27826 0.04655 0.31138 0.0
C836 C 0.9843 0.78748 0.84556 0.0
C837 C 0.01148 0.79181 0.88406 0.0
C838 C 0.98565 0.78837 0.7758 0.0
C839 C 0.01434 0.79262 0.74237 0.0
H840 H 0.9616 0.78525 0.86937 0.0
H841 H 0.96399 0.78661 0.7478 0.0
S842 S 0.09243 0.80277 0.82037 0.0
N843 N 0.06804 0.79915 0.88384 0.0
N844 N 0.07064 0.79977 0.75271 0.0
C845 C 0.04187 0.79527 0.78021 0.0
C846 C 0.04041 0.79514 0.85116 0.0
C847 C 0.25462 0.03979 0.80755 0.0
C848 C 0.25433 0.02574 0.74419 0.0
C849 C 0.25283 0.02184 0.866 0.0
C850 C 0.25096 0.98895 0.86389 0.0
H851 H 0.25618 0.06496 0.81231 0.0
H852 H 0.25338 0.03395 0.91332 0.0
S853 S 0.24883 0.94044 0.71064 0.0
N854 N 0.25164 0.97668 0.68308 0.0
N855 N 0.24827 0.94308 0.79259 0.0
C856 C 0.25041 0.97455 0.80087 0.0
C857 C 0.25208 0.99286 0.74125 0.0
C858 C 0.03094 0.22713 0.82606 0.0
C859 C 1.00573 0.21729 0.86616 0.0
C860 C 0.02865 0.22672 0.7563 0.0
C861 C 1.00076 0.21749 0.72461 0.0
H862 H 0.05316 0.23344 0.84855 0.0
H863 H 0.04909 0.23277 0.72692 0.0
S864 S 0.92738 0.19191 0.8069 0.0
N865 N 0.95164 0.19934 0.86902 0.0
N866 N 0.9471 0.19971 0.73806 0.0
C867 C 0.97492 0.20921 0.76405 0.0
C868 C 0.97747 0.20885 0.83488 0.0
C869 C 0.82169 1.00088 0.77741 0.0
C870 C 0.79336 0.99355 0.74468 0.0
C871 C 0.82244 0.0103 0.84438 0.0
C872 C 0.79489 0.01311 0.88293 0.0
H873 H 0.84385 0.99929 0.7512 0.0
H874 H 0.84513 0.0155 0.86593 0.0
S875 S 0.71417 0.99695 0.82209 0.0
N876 N 0.73668 0.98997 0.75678 0.0
N877 N 0.73808 0.00774 0.88253 0.0
C878 C 0.76623 1.00611 0.851 0.0
C879 C 0.76546 0.99639 0.78223 0.0
C880 C 0.52768 0.76985 0.85871 0.0
C881 C 0.49516 0.77006 0.87024 0.0
C882 C 0.53966 0.76865 0.79353 0.0
C883 C 0.51956 0.76826 0.73777 0.0
H884 H 0.54384 0.76726 0.89999 0.0
H885 H 0.56472 0.76556 0.78692 0.0
S886 S 0.43278 0.77389 0.74174 0.0
N887 N 0.44324 0.77377 0.82089 0.0
N888 N 0.46578 0.7723 0.69868 0.0
C889 C 0.48722 0.77204 0.74871 0.0
C890 C 0.47501 0.77271 0.81499 0.0
C891 C 0.23914 0.4737 0.80667 0.0
C892 C 0.23745 0.4928 0.86401 0.0
C893 C 0.23835 0.48643 0.74185 0.0
C894 C 0.23616 0.51889 0.73147 0.0
H895 H 0.24267 0.44873 0.81179 0.0
H896 H 0.24162 0.47088 0.69987 0.0
S897 S 0.22756 0.579 0.86393 0.0
N898 N 0.23061 0.54574 0.90519 0.0
N899 N 0.22926 0.56963 0.7843 0.0
C900 C 0.23236 0.53804 0.78822 0.0
C901 C 0.23293 0.52505 0.85412 0.0
C902 C 0.53522 0.2457 0.83861 0.0
C903 C 0.51533 0.24874 0.8944 0.0
C904 C 0.5232 0.24529 0.77346 0.0
C905 C 0.49085 0.24847 0.76165 0.0
H906 H 0.56047 0.24573 0.8451 0.0
H907 H 0.5396 0.24546 0.73222 0.0
S908 S 0.42846 0.25257 0.89047 0.0
N909 N 0.46145 0.2511 0.93351 0.0
N910 N 0.43884 0.25085 0.81133 0.0
C911 C 0.47055 0.24869 0.81712 0.0
C912 C 0.48279 0.24868 0.88348 0.0
C913 C 0.78273 0.4729 0.80416 0.0
C914 C 0.78449 0.49254 0.74784 0.0
C915 C 0.78262 0.48517 0.86905 0.0
C916 C 0.78391 0.5176 0.87999 0.0
H917 H 0.77949 0.44794 0.7981 0.0
H918 H 0.77901 0.46933 0.91044 0.0
S919 S 0.79388 0.57878 0.75072 0.0
N920 N 0.7917 0.54581 0.70829 0.0
N921 N 0.79107 0.56881 0.82989 0.0
C922 C 0.78837 0.53725 0.82458 0.0
C923 C 0.78882 0.52475 0.75858 0.0
C924 C 0.49755 0.30996 0.3043 0.0
C925 C 0.51617 0.29056 0.26359 0.0
C926 C 0.49306 0.30345 0.37204 0.0
C927 C 0.50681 0.27709 0.4025 0.0
H928 H 0.48608 0.33043 0.28376 0.0
H929 H 0.47822 0.31912 0.40047 0.0
S930 S 0.55906 0.21945 0.31958 0.0
N931 N 0.54961 0.24435 0.26003 0.0
N932 N 0.54071 0.23188 0.387 0.0
C933 C 0.52571 0.25754 0.36277 0.0
C934 C 0.53049 0.26431 0.29358 0.0
C935 C 0.74769 0.47689 0.31197 0.0
C936 C 0.74832 0.49152 0.37476 0.0
C937 C 0.74745 0.49435 0.25277 0.0
C938 C 0.74799 0.52729 0.2535 0.0
H939 H 0.74759 0.45162 0.30822 0.0
H940 H 0.74728 0.48177 0.20599 0.0
S941 S 0.74833 0.57728 0.40478 0.0
N942 N 0.74852 0.54119 0.43385 0.0
N943 N 0.748 0.5739 0.32297 0.0
C944 C 0.74801 0.54229 0.31595 0.0
C945 C 0.74818 0.52448 0.37634 0.0
C946 C 0.53362 0.72488 0.3371 0.0
C947 C 0.50669 0.72022 0.37633 0.0
C948 C 0.53161 0.7254 0.26733 0.0
C949 C 0.50255 0.72229 0.23479 0.0
H950 H 0.55655 0.72626 0.36019 0.0
H951 H 0.55303 0.72732 0.23854 0.0
S952 S 0.425 0.71194 0.31516 0.0
N953 N 0.45 0.71392 0.37783 0.0
N954 N 0.44626 0.71588 0.24692 0.0
C955 C 0.47534 0.71938 0.27356 0.0
C956 C 0.47742 0.71809 0.34437 0.0
C957 C 0.32171 0.49789 0.26913 0.0
C958 C 0.29441 0.49748 0.2295 0.0
C959 C 0.32125 0.50808 0.33555 0.0
C960 C 0.29345 0.51844 0.36673 0.0
H961 H 0.344 0.49024 0.24884 0.0
H962 H 0.34323 0.50786 0.3626 0.0
S963 S 0.21521 0.52282 0.28549 0.0
N964 N 0.23847 0.50882 0.22675 0.0
N965 N 0.23759 0.52793 0.35172 0.0
C966 C 0.26577 0.51808 0.32805 0.0
C967 C 0.26625 0.50765 0.25973 0.0
loop_
_geom_bond_atom_site_label_1
_geom_bond_atom_site_label_2
_geom_bond_distance
_geom_bond_site_symmetry_2
_ccdc_geom_bond_type
Co0 N4 2.148 . S
Co0 N10 2.128 1_455 S
Co0 N20 2.194 . S
Co0 O25 2.351 . S
Co0 O26 2.155 1_455 S
Co0 O27 2.096 1_454 S
C1 N4 1.301 . S
C1 N5 1.328 . S
C1 H6 0.930 . S
C2 C3 1.333 . S
C2 N4 1.317 1_556 S
C2 H7 0.930 . S
C3 C2 1.333 . S
C3 N5 1.350 1_556 S
C3 H29 0.931 . S
N4 Co0 2.148 . S
N4 C1 1.301 . S
N4 C2 1.317 1_554 S
N5 C1 1.328 . S
N5 C3 1.350 1_554 S
H6 C1 0.930 . S
H7 C2 0.930 . S
C8 O9 1.224 . S
C8 O27 1.247 1_455 S
O9 C8 1.224 . S
N10 Co0 2.128 1_655 S
N10 C11 1.355 . S
N10 C13 1.311 1_554 S
C11 N10 1.355 . S
C11 C12 1.363 . S
C11 H23 0.929 1_655 S
C12 C11 1.363 . S
C12 N14 1.376 . S
C12 H30 0.931 . S
C13 N10 1.311 1_556 S
C13 N14 1.347 1_556 S
C13 H24 0.929 . S
N14 C12 1.376 . S
N14 C13 1.347 1_554 S
C15 C18 1.365 . S
C15 N20 1.328 . S
C15 H21 0.929 . S
C16 C17 1.362 1_556 S
C16 C19 1.378 . S
C16 H31 0.929 . S
C17 C16 1.362 1_554 S
C17 C18 1.366 . S
C18 C15 1.365 . S
C18 C17 1.366 . S
C18 H32 0.930 . S
C19 C16 1.378 . S
C19 N20 1.315 1_556 S
C19 H22 0.930 . S
N20 Co0 2.194 . S
N20 C15 1.328 . S
N20 C19 1.315 1_554 S
H21 C15 0.929 . S
H22 C19 0.930 . S
H23 C11 0.929 1_455 S
H24 C13 0.929 . S
O25 Co0 2.351 . S
O25 C28 1.244 . S
O26 Co0 2.155 1_655 S
O26 C28 1.240 1_655 S
O27 Co0 2.096 1_656 S
O27 C8 1.247 1_655 S
C28 O25 1.244 . S
C28 O26 1.240 1_455 S
H29 C3 0.931 . S
H30 C12 0.931 . S
H31 C16 0.929 . S
H32 C18 0.930 . S
Co33 N37 2.148 . S
Co33 N43 2.128 1_545 S
Co33 N53 2.194 . S
Co33 O58 2.351 . S
Co33 O59 2.155 1_545 S
Co33 O60 2.096 1_544 S
C34 N37 1.301 . S
C34 N38 1.328 . S
C34 H39 0.930 . S
C35 C36 1.333 . S
C35 N37 1.317 1_556 S
C35 H40 0.930 . S
C36 C35 1.333 . S
C36 N38 1.350 1_556 S
C36 H62 0.931 . S
N37 Co33 2.148 . S
N37 C34 1.301 . S
N37 C35 1.317 1_554 S
N38 C34 1.328 . S
N38 C36 1.350 1_554 S
H39 C34 0.930 . S
H40 C35 0.930 . S
C41 O42 1.224 . S
C41 O60 1.247 1_545 S
O42 C41 1.224 . S
N43 Co33 2.128 1_565 S
N43 C44 1.355 . S
N43 C46 1.311 1_554 S
C44 N43 1.355 . S
C44 C45 1.363 . S
C44 H56 0.929 1_565 S
C45 C44 1.363 . S
C45 N47 1.376 . S
C45 H63 0.931 . S
C46 N43 1.311 1_556 S
C46 N47 1.347 1_556 S
C46 H57 0.929 . S
N47 C45 1.376 . S
N47 C46 1.347 1_554 S
C48 C51 1.365 . S
C48 N53 1.328 . S
C48 H54 0.929 . S
C49 C50 1.362 1_556 S
C49 C52 1.378 . S
C49 H64 0.929 . S
C50 C49 1.362 1_554 S
C50 C51 1.366 . S
C51 C48 1.365 . S
C51 C50 1.366 . S
C51 H65 0.930 . S
C52 C49 1.378 . S
C52 N53 1.315 1_556 S
C52 H55 0.930 . S
N53 Co33 2.194 . S
N53 C48 1.328 . S
N53 C52 1.315 1_554 S
H54 C48 0.929 . S
H55 C52 0.930 . S
H56 C44 0.929 1_545 S
H57 C46 0.929 . S
O58 Co33 2.351 . S
O58 C61 1.244 . S
O59 Co33 2.155 1_565 S
O59 C61 1.240 1_565 S
O60 Co33 2.096 1_566 S
O60 C41 1.247 1_565 S
C61 O58 1.244 . S
C61 O59 1.240 1_545 S
H62 C36 0.931 . S
H63 C45 0.931 . S
H64 C49 0.929 . S
H65 C51 0.930 . S
Co66 N70 2.148 . S
Co66 N76 2.128 1_655 S
Co66 N86 2.194 . S
Co66 O91 2.351 . S
Co66 O92 2.155 1_655 S
Co66 O93 2.096 1_654 S
C67 N70 1.301 . S
C67 N71 1.328 . S
C67 H72 0.930 . S
C68 C69 1.333 . S
C68 N70 1.317 1_556 S
C68 H73 0.930 . S
C69 C68 1.333 . S
C69 N71 1.350 1_556 S
C69 H95 0.931 . S
N70 Co66 2.148 . S
N70 C67 1.301 . S
N70 C68 1.317 1_554 S
N71 C67 1.328 . S
N71 C69 1.350 1_554 S
H72 C67 0.930 . S
H73 C68 0.930 . S
C74 O75 1.224 . S
C74 O93 1.247 1_655 S
O75 C74 1.224 . S
N76 Co66 2.128 1_455 S
N76 C77 1.355 . S
N76 C79 1.311 1_554 S
C77 N76 1.355 . S
C77 C78 1.363 . S
C77 H89 0.929 1_455 S
C78 C77 1.363 . S
C78 N80 1.376 . S
C78 H96 0.931 . S
C79 N76 1.311 1_556 S
C79 N80 1.347 1_556 S
C79 H90 0.929 . S
N80 C78 1.376 . S
N80 C79 1.347 1_554 S
C81 C84 1.365 . S
C81 N86 1.328 . S
C81 H87 0.929 . S
C82 C83 1.362 1_556 S
C82 C85 1.378 . S
C82 H97 0.929 . S
C83 C82 1.362 1_554 S
C83 C84 1.366 . S
C84 C81 1.365 . S
C84 C83 1.366 . S
C84 H98 0.930 . S
C85 C82 1.378 . S
C85 N86 1.315 1_556 S
C85 H88 0.930 . S
N86 Co66 2.194 . S
N86 C81 1.328 . S
N86 C85 1.315 1_554 S
H87 C81 0.929 . S
H88 C85 0.930 . S
H89 C77 0.929 1_655 S
H90 C79 0.929 . S
O91 Co66 2.351 . S
O91 C94 1.244 . S
O92 Co66 2.155 1_455 S
O92 C94 1.240 1_455 S
O93 Co66 2.096 1_456 S
O93 C74 1.247 1_455 S
C94 O91 1.244 . S
C94 O92 1.240 1_655 S
H95 C69 0.931 . S
H96 C78 0.931 . S
H97 C82 0.929 . S
H98 C84 0.930 . S
Co99 N103 2.148 . S
Co99 N109 2.128 1_565 S
Co99 N119 2.194 . S
Co99 O124 2.351 . S
Co99 O125 2.155 1_565 S
Co99 O126 2.096 1_564 S
C100 N103 1.301 . S
C100 N104 1.328 . S
C100 H105 0.930 . S
C101 C102 1.333 . S
C101 N103 1.317 1_556 S
C101 H106 0.930 . S
C102 C101 1.333 . S
C102 N104 1.350 1_556 S
C102 H128 0.931 . S
N103 Co99 2.148 . S
N103 C100 1.301 . S
N103 C101 1.317 1_554 S
N104 C100 1.328 . S
N104 C102 1.350 1_554 S
H105 C100 0.930 . S
H106 C101 0.930 . S
C107 O108 1.224 . S
C107 O126 1.247 1_565 S
O108 C107 1.224 . S
N109 Co99 2.128 1_545 S
N109 C110 1.355 . S
N109 C112 1.311 1_554 S
C110 N109 1.355 . S
C110 C111 1.363 . S
C110 H122 0.929 1_545 S
C111 C110 1.363 . S
C111 N113 1.376 . S
C111 H129 0.931 . S
C112 N109 1.311 1_556 S
C112 N113 1.347 1_556 S
C112 H123 0.929 . S
N113 C111 1.376 . S
N113 C112 1.347 1_554 S
C114 C117 1.365 . S
C114 N119 1.328 . S
C114 H120 0.929 . S
C115 C116 1.362 1_556 S
C115 C118 1.378 . S
C115 H130 0.929 . S
C116 C115 1.362 1_554 S
C116 C117 1.366 . S
C117 C114 1.365 . S
C117 C116 1.366 . S
C117 H131 0.930 . S
C118 C115 1.378 . S
C118 N119 1.315 1_556 S
C118 H121 0.930 . S
N119 Co99 2.194 . S
N119 C114 1.328 . S
N119 C118 1.315 1_554 S
H120 C114 0.929 . S
H121 C118 0.930 . S
H122 C110 0.929 1_565 S
H123 C112 0.929 . S
O124 Co99 2.351 . S
O124 C127 1.244 . S
O125 Co99 2.155 1_545 S
O125 C127 1.240 1_545 S
O126 Co99 2.096 1_546 S
O126 C107 1.247 1_545 S
C127 O124 1.244 . S
C127 O125 1.240 1_565 S
H128 C102 0.931 . S
H129 C111 0.931 . S
H130 C115 0.929 . S
H131 C117 0.930 . S
Co132 N136 2.148 . S
Co132 N142 2.128 1_455 S
Co132 N152 2.194 . S
Co132 O157 2.351 . S
Co132 O158 2.155 1_455 S
Co132 O159 2.096 1_455 S
C133 N136 1.301 . S
C133 N137 1.328 . S
C133 H138 0.930 . S
C134 C135 1.333 . S
C134 N136 1.317 . S
C134 H139 0.930 . S
C135 C134 1.333 . S
C135 N137 1.350 . S
C135 H161 0.931 . S
N136 Co132 2.148 . S
N136 C133 1.301 . S
N136 C134 1.317 . S
N137 C133 1.328 . S
N137 C135 1.350 . S
H138 C133 0.930 . S
H139 C134 0.930 . S
C140 O141 1.224 . S
C140 O159 1.247 1_455 S
O141 C140 1.224 . S
N142 Co132 2.128 1_655 S
N142 C143 1.355 . S
N142 C145 1.311 . S
C143 N142 1.355 . S
C143 C144 1.363 . S
C143 H155 0.929 1_655 S
C144 C143 1.363 . S
C144 N146 1.375 . S
C144 H162 0.931 . S
C145 N142 1.311 . S
C145 N146 1.347 . S
C145 H156 0.929 . S
N146 C144 1.375 . S
N146 C145 1.347 . S
C147 C150 1.365 . S
C147 N152 1.328 . S
C147 H153 0.929 . S
C148 C149 1.362 . S
C148 C151 1.378 . S
C148 H163 0.929 . S
C149 C148 1.362 . S
C149 C150 1.366 . S
C150 C147 1.365 . S
C150 C149 1.366 . S
C150 H164 0.930 . S
C151 C148 1.378 . S
C151 N152 1.315 . S
C151 H154 0.930 . S
N152 Co132 2.194 . S
N152 C147 1.328 . S
N152 C151 1.315 . S
H153 C147 0.929 . S
H154 C151 0.930 . S
H155 C143 0.929 1_455 S
H156 C145 0.929 . S
O157 Co132 2.351 . S
O157 C160 1.244 . S
O158 Co132 2.155 1_655 S
O158 C160 1.240 1_655 S
O159 Co132 2.096 1_655 S
O159 C140 1.247 1_655 S
C160 O157 1.244 . S
C160 O158 1.240 1_455 S
H161 C135 0.931 . S
H162 C144 0.931 . S
H163 C148 0.929 . S
H164 C150 0.930 . S
Co165 N169 2.148 . S
Co165 N175 2.128 1_545 S
Co165 N185 2.194 . S
Co165 O190 2.351 . S
Co165 O191 2.155 1_545 S
Co165 O192 2.096 1_545 S
C166 N169 1.301 . S
C166 N170 1.328 . S
C166 H171 0.930 . S
C167 C168 1.333 . S
C167 N169 1.317 . S
C167 H172 0.930 . S
C168 C167 1.333 . S
C168 N170 1.350 . S
C168 H194 0.931 . S
N169 Co165 2.148 . S
N169 C166 1.301 . S
N169 C167 1.317 . S
N170 C166 1.328 . S
N170 C168 1.350 . S
H171 C166 0.930 . S
H172 C167 0.930 . S
C173 O174 1.224 . S
C173 O192 1.247 1_545 S
O174 C173 1.224 . S
N175 Co165 2.128 1_565 S
N175 C176 1.355 . S
N175 C178 1.311 . S
C176 N175 1.355 . S
C176 C177 1.363 . S
C176 H188 0.929 1_565 S
C177 C176 1.363 . S
C177 N179 1.375 . S
C177 H195 0.931 . S
C178 N175 1.311 . S
C178 N179 1.347 . S
C178 H189 0.929 . S
N179 C177 1.375 . S
N179 C178 1.347 . S
C180 C183 1.365 . S
C180 N185 1.328 . S
C180 H186 0.929 . S
C181 C182 1.362 . S
C181 C184 1.378 . S
C181 H196 0.929 . S
C182 C181 1.362 . S
C182 C183 1.366 . S
C183 C180 1.365 . S
C183 C182 1.366 . S
C183 H197 0.930 . S
C184 C181 1.378 . S
C184 N185 1.315 . S
C184 H187 0.930 . S
N185 Co165 2.194 . S
N185 C180 1.328 . S
N185 C184 1.315 . S
H186 C180 0.929 . S
H187 C184 0.930 . S
H188 C176 0.929 1_545 S
H189 C178 0.929 . S
O190 Co165 2.351 . S
O190 C193 1.244 . S
O191 Co165 2.155 1_565 S
O191 C193 1.240 1_565 S
O192 Co165 2.096 1_565 S
O192 C173 1.247 1_565 S
C193 O190 1.244 . S
C193 O191 1.240 1_545 S
H194 C168 0.931 . S
H195 C177 0.931 . S
H196 C181 0.929 . S
H197 C183 0.930 . S
Co198 N202 2.148 . S
Co198 N208 2.128 1_655 S
Co198 N218 2.194 . S
Co198 O223 2.351 . S
Co198 O224 2.155 1_655 S
Co198 O225 2.096 1_655 S
C199 N202 1.301 . S
C199 N203 1.328 . S
C199 H204 0.930 . S
C200 C201 1.333 . S
C200 N202 1.317 . S
C200 H205 0.930 . S
C201 C200 1.333 . S
C201 N203 1.350 . S
C201 H227 0.931 . S
N202 Co198 2.148 . S
N202 C199 1.301 . S
N202 C200 1.317 . S
N203 C199 1.328 . S
N203 C201 1.350 . S
H204 C199 0.930 . S
H205 C200 0.930 . S
C206 O207 1.224 . S
C206 O225 1.247 1_655 S
O207 C206 1.224 . S
N208 Co198 2.128 1_455 S
N208 C209 1.355 . S
N208 C211 1.311 . S
C209 N208 1.355 . S
C209 C210 1.363 . S
C209 H221 0.929 1_455 S
C210 C209 1.363 . S
C210 N212 1.375 . S
C210 H228 0.931 . S
C211 N208 1.311 . S
C211 N212 1.347 . S
C211 H222 0.929 . S
N212 C210 1.375 . S
N212 C211 1.347 . S
C213 C216 1.365 . S
C213 N218 1.328 . S
C213 H219 0.929 . S
C214 C215 1.362 . S
C214 C217 1.378 . S
C214 H229 0.929 . S
C215 C214 1.362 . S
C215 C216 1.366 . S
C216 C213 1.365 . S
C216 C215 1.366 . S
C216 H230 0.930 . S
C217 C214 1.378 . S
C217 N218 1.315 . S
C217 H220 0.930 . S
N218 Co198 2.194 . S
N218 C213 1.328 . S
N218 C217 1.315 . S
H219 C213 0.929 . S
H220 C217 0.930 . S
H221 C209 0.929 1_655 S
H222 C211 0.929 . S
O223 Co198 2.351 . S
O223 C226 1.244 . S
O224 Co198 2.155 1_455 S
O224 C226 1.240 1_455 S
O225 Co198 2.096 1_455 S
O225 C206 1.247 1_455 S
C226 O223 1.244 . S
C226 O224 1.240 1_655 S
H227 C201 0.931 . S
H228 C210 0.931 . S
H229 C214 0.929 . S
H230 C216 0.930 . S
Co231 N235 2.148 . S
Co231 N241 2.128 1_565 S
Co231 N251 2.194 . S
Co231 O256 2.351 . S
Co231 O257 2.155 1_565 S
Co231 O258 2.096 1_565 S
C232 N235 1.301 . S
C232 N236 1.328 . S
C232 H237 0.930 . S
C233 C234 1.333 . S
C233 N235 1.317 . S
C233 H238 0.930 . S
C234 C233 1.333 . S
C234 N236 1.350 . S
C234 H260 0.931 . S
N235 Co231 2.148 . S
N235 C232 1.301 . S
N235 C233 1.317 . S
N236 C232 1.328 . S
N236 C234 1.350 . S
H237 C232 0.930 . S
H238 C233 0.930 . S
C239 O240 1.224 . S
C239 O258 1.247 1_565 S
O240 C239 1.224 . S
N241 Co231 2.128 1_545 S
N241 C242 1.355 . S
N241 C244 1.311 . S
C242 N241 1.355 . S
C242 C243 1.363 . S
C242 H254 0.929 1_545 S
C243 C242 1.363 . S
C243 N245 1.375 . S
C243 H261 0.931 . S
C244 N241 1.311 . S
C244 N245 1.347 . S
C244 H255 0.929 . S
N245 C243 1.375 . S
N245 C244 1.347 . S
C246 C249 1.365 . S
C246 N251 1.328 . S
C246 H252 0.929 . S
C247 C248 1.362 . S
C247 C250 1.378 . S
C247 H262 0.929 . S
C248 C247 1.362 . S
C248 C249 1.366 . S
C249 C246 1.365 . S
C249 C248 1.366 . S
C249 H263 0.930 . S
C250 C247 1.378 . S
C250 N251 1.315 . S
C250 H253 0.930 . S
N251 Co231 2.194 . S
N251 C246 1.328 . S
N251 C250 1.315 . S
H252 C246 0.929 . S
H253 C250 0.930 . S
H254 C242 0.929 1_565 S
H255 C244 0.929 . S
O256 Co231 2.351 . S
O256 C259 1.244 . S
O257 Co231 2.155 1_545 S
O257 C259 1.240 1_545 S
O258 Co231 2.096 1_545 S
O258 C239 1.247 1_545 S
C259 O256 1.244 . S
C259 O257 1.240 1_565 S
H260 C234 0.931 . S
H261 C243 0.931 . S
H262 C247 0.929 . S
H263 C249 0.930 . S
Co264 N268 2.148 . S
Co264 N274 2.128 . S
Co264 N284 2.194 . S
Co264 O289 2.351 . S
Co264 O290 2.155 . S
Co264 O291 2.096 . S
C265 N268 1.301 . S
C265 N269 1.328 . S
C265 H270 0.930 . S
C266 C267 1.333 . S
C266 N268 1.317 . S
C266 H271 0.930 . S
C267 C266 1.333 . S
C267 N269 1.350 . S
C267 H293 0.931 . S
N268 Co264 2.148 . S
N268 C265 1.301 . S
N268 C266 1.317 . S
N269 C265 1.328 . S
N269 C267 1.350 . S
H270 C265 0.930 . S
H271 C266 0.930 . S
C272 O273 1.224 . S
C272 O291 1.247 . S
O273 C272 1.224 . S
N274 Co264 2.128 . S
N274 C275 1.355 . S
N274 C277 1.311 . S
C275 N274 1.355 . S
C275 C276 1.363 . S
C275 H287 0.929 . S
C276 C275 1.363 . S
C276 N278 1.375 . S
C276 H294 0.931 . S
C277 N274 1.311 . S
C277 N278 1.347 . S
C277 H288 0.929 . S
N278 C276 1.375 . S
N278 C277 1.347 . S
C279 C282 1.365 . S
C279 N284 1.328 . S
C279 H285 0.929 . S
C280 C281 1.362 . S
C280 C283 1.378 . S
C280 H295 0.929 . S
C281 C280 1.362 . S
C281 C282 1.366 . S
C282 C279 1.365 . S
C282 C281 1.366 . S
C282 H296 0.930 . S
C283 C280 1.378 . S
C283 N284 1.315 . S
C283 H286 0.930 . S
N284 Co264 2.194 . S
N284 C279 1.328 . S
N284 C283 1.315 . S
H285 C279 0.929 . S
H286 C283 0.930 . S
H287 C275 0.929 . S
H288 C277 0.929 . S
O289 Co264 2.351 . S
O289 C292 1.244 . S
O290 Co264 2.155 . S
O290 C292 1.240 . S
O291 Co264 2.096 . S
O291 C272 1.247 . S
C292 O289 1.244 . S
C292 O290 1.240 . S
H293 C267 0.931 . S
H294 C276 0.931 . S
H295 C280 0.929 . S
H296 C282 0.930 . S
Co297 N301 2.148 . S
Co297 N307 2.128 . S
Co297 N317 2.194 . S
Co297 O322 2.351 . S
Co297 O323 2.155 . S
Co297 O324 2.096 . S
C298 N301 1.301 . S
C298 N302 1.328 . S
C298 H303 0.930 . S
C299 C300 1.333 . S
C299 N301 1.317 . S
C299 H304 0.930 . S
C300 C299 1.333 . S
C300 N302 1.350 . S
C300 H326 0.931 . S
N301 Co297 2.148 . S
N301 C298 1.301 . S
N301 C299 1.317 . S
N302 C298 1.328 . S
N302 C300 1.350 . S
H303 C298 0.930 . S
H304 C299 0.930 . S
C305 O306 1.224 . S
C305 O324 1.247 . S
O306 C305 1.224 . S
N307 Co297 2.128 . S
N307 C308 1.355 . S
N307 C310 1.311 . S
C308 N307 1.355 . S
C308 C309 1.363 . S
C308 H320 0.929 . S
C309 C308 1.363 . S
C309 N311 1.375 . S
C309 H327 0.931 . S
C310 N307 1.311 . S
C310 N311 1.347 . S
C310 H321 0.929 . S
N311 C309 1.375 . S
N311 C310 1.347 . S
C312 C315 1.365 . S
C312 N317 1.328 . S
C312 H318 0.929 . S
C313 C314 1.362 . S
C313 C316 1.378 . S
C313 H328 0.929 . S
C314 C313 1.362 . S
C314 C315 1.366 . S
C315 C312 1.365 . S
C315 C314 1.366 . S
C315 H329 0.930 . S
C316 C313 1.378 . S
C316 N317 1.315 . S
C316 H319 0.930 . S
N317 Co297 2.194 . S
N317 C312 1.328 . S
N317 C316 1.315 . S
H318 C312 0.929 . S
H319 C316 0.930 . S
H320 C308 0.929 . S
H321 C310 0.929 . S
O322 Co297 2.351 . S
O322 C325 1.244 . S
O323 Co297 2.155 . S
O323 C325 1.240 . S
O324 Co297 2.096 . S
O324 C305 1.247 . S
C325 O322 1.244 . S
C325 O323 1.240 . S
H326 C300 0.931 . S
H327 C309 0.931 . S
H328 C313 0.929 . S
H329 C315 0.930 . S
Co330 N334 2.148 . S
Co330 N340 2.128 . S
Co330 N350 2.194 . S
Co330 O355 2.351 . S
Co330 O356 2.155 . S
Co330 O357 2.096 . S
C331 N334 1.301 . S
C331 N335 1.328 . S
C331 H336 0.930 . S
C332 C333 1.333 . S
C332 N334 1.317 . S
C332 H337 0.930 . S
C333 C332 1.333 . S
C333 N335 1.350 . S
C333 H359 0.931 . S
N334 Co330 2.148 . S
N334 C331 1.301 . S
N334 C332 1.317 . S
N335 C331 1.328 . S
N335 C333 1.350 . S
H336 C331 0.930 . S
H337 C332 0.930 . S
C338 O339 1.224 . S
C338 O357 1.247 . S
O339 C338 1.224 . S
N340 Co330 2.128 . S
N340 C341 1.355 . S
N340 C343 1.311 . S
C341 N340 1.355 . S
C341 C342 1.363 . S
C341 H353 0.929 . S
C342 C341 1.363 . S
C342 N344 1.375 . S
C342 H360 0.931 . S
C343 N340 1.311 . S
C343 N344 1.347 . S
C343 H354 0.929 . S
N344 C342 1.375 . S
N344 C343 1.347 . S
C345 C348 1.365 . S
C345 N350 1.328 . S
C345 H351 0.929 . S
C346 C347 1.362 . S
C346 C349 1.378 . S
C346 H361 0.929 . S
C347 C346 1.362 . S
C347 C348 1.366 . S
C348 C345 1.365 . S
C348 C347 1.366 . S
C348 H362 0.930 . S
C349 C346 1.378 . S
C349 N350 1.315 . S
C349 H352 0.930 . S
N350 Co330 2.194 . S
N350 C345 1.328 . S
N350 C349 1.315 . S
H351 C345 0.929 . S
H352 C349 0.930 . S
H353 C341 0.929 . S
H354 C343 0.929 . S
O355 Co330 2.351 . S
O355 C358 1.244 . S
O356 Co330 2.155 . S
O356 C358 1.240 . S
O357 Co330 2.096 . S
O357 C338 1.247 . S
C358 O355 1.244 . S
C358 O356 1.240 . S
H359 C333 0.931 . S
H360 C342 0.931 . S
H361 C346 0.929 . S
H362 C348 0.930 . S
Co363 N367 2.148 . S
Co363 N373 2.128 . S
Co363 N383 2.194 . S
Co363 O388 2.351 . S
Co363 O389 2.155 . S
Co363 O390 2.096 . S
C364 N367 1.301 . S
C364 N368 1.328 . S
C364 H369 0.930 . S
C365 C366 1.333 . S
C365 N367 1.317 . S
C365 H370 0.930 . S
C366 C365 1.333 . S
C366 N368 1.350 . S
C366 H392 0.931 . S
N367 Co363 2.148 . S
N367 C364 1.301 . S
N367 C365 1.317 . S
N368 C364 1.328 . S
N368 C366 1.350 . S
H369 C364 0.930 . S
H370 C365 0.930 . S
C371 O372 1.224 . S
C371 O390 1.247 . S
O372 C371 1.224 . S
N373 Co363 2.128 . S
N373 C374 1.355 . S
N373 C376 1.311 . S
C374 N373 1.355 . S
C374 C375 1.363 . S
C374 H386 0.929 . S
C375 C374 1.363 . S
C375 N377 1.375 . S
C375 H393 0.931 . S
C376 N373 1.311 . S
C376 N377 1.347 . S
C376 H387 0.929 . S
N377 C375 1.375 . S
N377 C376 1.347 . S
C378 C381 1.365 . S
C378 N383 1.328 . S
C378 H384 0.929 . S
C379 C380 1.362 . S
C379 C382 1.378 . S
C379 H394 0.929 . S
C380 C379 1.362 . S
C380 C381 1.366 . S
C381 C378 1.365 . S
C381 C380 1.366 . S
C381 H395 0.930 . S
C382 C379 1.378 . S
C382 N383 1.315 . S
C382 H385 0.930 . S
N383 Co363 2.194 . S
N383 C378 1.328 . S
N383 C382 1.315 . S
H384 C378 0.929 . S
H385 C382 0.930 . S
H386 C374 0.929 . S
H387 C376 0.929 . S
O388 Co363 2.351 . S
O388 C391 1.244 . S
O389 Co363 2.155 . S
O389 C391 1.240 . S
O390 Co363 2.096 . S
O390 C371 1.247 . S
C391 O388 1.244 . S
C391 O389 1.240 . S
H392 C366 0.931 . S
H393 C375 0.931 . S
H394 C379 0.929 . S
H395 C381 0.930 . S
Co396 N400 2.148 . S
Co396 N406 2.128 . S
Co396 N416 2.194 . S
Co396 O421 2.351 1_554 S
Co396 O422 2.155 1_554 S
Co396 O423 2.096 . S
C397 N400 1.301 . S
C397 N401 1.328 . S
C397 H402 0.930 1_554 S
C398 C399 1.333 . S
C398 N400 1.317 . S
C398 H403 0.930 . S
C399 C398 1.333 . S
C399 N401 1.350 . S
C399 H425 0.931 . S
N400 Co396 2.148 . S
N400 C397 1.301 . S
N400 C398 1.317 . S
N401 C397 1.328 . S
N401 C399 1.350 . S
H402 C397 0.930 1_556 S
H403 C398 0.930 . S
C404 O405 1.224 . S
C404 O423 1.247 . S
O405 C404 1.224 . S
N406 Co396 2.128 . S
N406 C407 1.355 . S
N406 C409 1.311 . S
C407 N406 1.355 . S
C407 C408 1.363 . S
C407 H419 0.929 1_554 S
C408 C407 1.363 . S
C408 N410 1.375 . S
C408 H426 0.931 . S
C409 N406 1.311 . S
C409 N410 1.347 . S
C409 H420 0.929 . S
N410 C408 1.375 . S
N410 C409 1.347 . S
C411 C414 1.365 . S
C411 N416 1.328 . S
C411 H417 0.929 1_554 S
C412 C413 1.362 . S
C412 C415 1.378 . S
C412 H427 0.929 . S
C413 C412 1.362 . S
C413 C414 1.366 . S
C414 C411 1.365 . S
C414 C413 1.366 . S
C414 H428 0.930 1_554 S
C415 C412 1.378 . S
C415 N416 1.315 . S
C415 H418 0.930 . S
N416 Co396 2.194 . S
N416 C411 1.328 . S
N416 C415 1.315 . S
H417 C411 0.929 1_556 S
H418 C415 0.930 . S
H419 C407 0.929 1_556 S
H420 C409 0.929 . S
O421 Co396 2.351 1_556 S
O421 C424 1.244 . S
O422 Co396 2.155 1_556 S
O422 C424 1.240 . S
O423 Co396 2.096 . S
O423 C404 1.247 . S
C424 O421 1.244 . S
C424 O422 1.240 . S
H425 C399 0.931 . S
H426 C408 0.931 . S
H427 C412 0.929 . S
H428 C414 0.930 1_556 S
Co429 N433 2.148 . S
Co429 N439 2.128 . S
Co429 N449 2.194 . S
Co429 O454 2.351 1_554 S
Co429 O455 2.155 1_554 S
Co429 O456 2.096 . S
C430 N433 1.301 . S
C430 N434 1.328 . S
C430 H435 0.930 1_554 S
C431 C432 1.333 . S
C431 N433 1.317 . S
C431 H436 0.930 . S
C432 C431 1.333 . S
C432 N434 1.350 . S
C432 H458 0.931 . S
N433 Co429 2.148 . S
N433 C430 1.301 . S
N433 C431 1.317 . S
N434 C430 1.328 . S
N434 C432 1.350 . S
H435 C430 0.930 1_556 S
H436 C431 0.930 . S
C437 O438 1.224 . S
C437 O456 1.247 . S
O438 C437 1.224 . S
N439 Co429 2.128 . S
N439 C440 1.355 . S
N439 C442 1.311 . S
C440 N439 1.355 . S
C440 C441 1.363 . S
C440 H452 0.929 1_554 S
C441 C440 1.363 . S
C441 N443 1.375 . S
C441 H459 0.931 . S
C442 N439 1.311 . S
C442 N443 1.347 . S
C442 H453 0.929 . S
N443 C441 1.375 . S
N443 C442 1.347 . S
C444 C447 1.365 . S
C444 N449 1.328 . S
C444 H450 0.929 1_554 S
C445 C446 1.362 . S
C445 C448 1.378 . S
C445 H460 0.929 . S
C446 C445 1.362 . S
C446 C447 1.366 . S
C447 C444 1.365 . S
C447 C446 1.366 . S
C447 H461 0.930 1_554 S
C448 C445 1.378 . S
C448 N449 1.315 . S
C448 H451 0.930 . S
N449 Co429 2.194 . S
N449 C444 1.328 . S
N449 C448 1.315 . S
H450 C444 0.929 1_556 S
H451 C448 0.930 . S
H452 C440 0.929 1_556 S
H453 C442 0.929 . S
O454 Co429 2.351 1_556 S
O454 C457 1.244 . S
O455 Co429 2.155 1_556 S
O455 C457 1.240 . S
O456 Co429 2.096 . S
O456 C437 1.247 . S
C457 O454 1.244 . S
C457 O455 1.240 . S
H458 C432 0.931 . S
H459 C441 0.931 . S
H460 C445 0.929 . S
H461 C447 0.930 1_556 S
Co462 N466 2.148 . S
Co462 N472 2.128 . S
Co462 N482 2.194 . S
Co462 O487 2.351 1_554 S
Co462 O488 2.155 1_554 S
Co462 O489 2.096 . S
C463 N466 1.301 . S
C463 N467 1.328 . S
C463 H468 0.930 1_554 S
C464 C465 1.333 . S
C464 N466 1.317 . S
C464 H469 0.930 . S
C465 C464 1.333 . S
C465 N467 1.350 . S
C465 H491 0.931 . S
N466 Co462 2.148 . S
N466 C463 1.301 . S
N466 C464 1.317 . S
N467 C463 1.328 . S
N467 C465 1.350 . S
H468 C463 0.930 1_556 S
H469 C464 0.930 . S
C470 O471 1.224 . S
C470 O489 1.247 . S
O471 C470 1.224 . S
N472 Co462 2.128 . S
N472 C473 1.355 . S
N472 C475 1.311 . S
C473 N472 1.355 . S
C473 C474 1.363 . S
C473 H485 0.929 1_554 S
C474 C473 1.363 . S
C474 N476 1.375 . S
C474 H492 0.931 . S
C475 N472 1.311 . S
C475 N476 1.347 . S
C475 H486 0.929 . S
N476 C474 1.375 . S
N476 C475 1.347 . S
C477 C480 1.365 . S
C477 N482 1.328 . S
C477 H483 0.929 1_554 S
C478 C479 1.362 . S
C478 C481 1.378 . S
C478 H493 0.929 . S
C479 C478 1.362 . S
C479 C480 1.366 . S
C480 C477 1.365 . S
C480 C479 1.366 . S
C480 H494 0.930 1_554 S
C481 C478 1.378 . S
C481 N482 1.315 . S
C481 H484 0.930 . S
N482 Co462 2.194 . S
N482 C477 1.328 . S
N482 C481 1.315 . S
H483 C477 0.929 1_556 S
H484 C481 0.930 . S
H485 C473 0.929 1_556 S
H486 C475 0.929 . S
O487 Co462 2.351 1_556 S
O487 C490 1.244 . S
O488 Co462 2.155 1_556 S
O488 C490 1.240 . S
O489 Co462 2.096 . S
O489 C470 1.247 . S
C490 O487 1.244 . S
C490 O488 1.240 . S
H491 C465 0.931 . S
H492 C474 0.931 . S
H493 C478 0.929 . S
H494 C480 0.930 1_556 S
Co495 N499 2.148 . S
Co495 N505 2.128 . S
Co495 N515 2.194 . S
Co495 O520 2.351 1_554 S
Co495 O521 2.155 1_554 S
Co495 O522 2.096 . S
C496 N499 1.301 . S
C496 N500 1.328 . S
C496 H501 0.930 1_554 S
C497 C498 1.333 . S
C497 N499 1.317 . S
C497 H502 0.930 . S
C498 C497 1.333 . S
C498 N500 1.350 . S
C498 H524 0.931 . S
N499 Co495 2.148 . S
N499 C496 1.301 . S
N499 C497 1.317 . S
N500 C496 1.328 . S
N500 C498 1.350 . S
H501 C496 0.930 1_556 S
H502 C497 0.930 . S
C503 O504 1.224 . S
C503 O522 1.247 . S
O504 C503 1.224 . S
N505 Co495 2.128 . S
N505 C506 1.355 . S
N505 C508 1.311 . S
C506 N505 1.355 . S
C506 C507 1.363 . S
C506 H518 0.929 1_554 S
C507 C506 1.363 . S
C507 N509 1.375 . S
C507 H525 0.931 . S
C508 N505 1.311 . S
C508 N509 1.347 . S
C508 H519 0.929 . S
N509 C507 1.375 . S
N509 C508 1.347 . S
C510 C513 1.365 . S
C510 N515 1.328 . S
C510 H516 0.929 1_554 S
C511 C512 1.362 . S
C511 C514 1.378 . S
C511 H526 0.929 . S
C512 C511 1.362 . S
C512 C513 1.366 . S
C513 C510 1.365 . S
C513 C512 1.366 . S
C513 H527 0.930 1_554 S
C514 C511 1.378 . S
C514 N515 1.315 . S
C514 H517 0.930 . S
N515 Co495 2.194 . S
N515 C510 1.328 . S
N515 C514 1.315 . S
H516 C510 0.929 1_556 S
H517 C514 0.930 . S
H518 C506 0.929 1_556 S
H519 C508 0.929 . S
O520 Co495 2.351 1_556 S
O520 C523 1.244 . S
O521 Co495 2.155 1_556 S
O521 C523 1.240 . S
O522 Co495 2.096 . S
O522 C503 1.247 . S
C523 O520 1.244 . S
C523 O521 1.240 . S
H524 C498 0.931 . S
H525 C507 0.931 . S
H526 C511 0.929 . S
H527 C513 0.930 1_556 S
C528 C529 1.369 . S
C528 C530 1.419 . S
C528 H532 0.930 . S
C529 C528 1.369 . S
C529 C538 1.429 1_554 S
C530 C528 1.419 . S
C530 C531 1.363 . S
C530 H533 0.929 . S
C531 C530 1.363 . S
C531 C537 1.428 1_554 S
H532 C528 0.930 . S
H533 C530 0.929 . S
S534 N535 1.613 . S
S534 N536 1.610 . S
N535 S534 1.613 . S
N535 C538 1.350 . S
N536 S534 1.610 . S
N536 C537 1.351 . S
C537 C531 1.428 1_556 S
C537 N536 1.351 . S
C537 C538 1.434 . S
C538 C529 1.429 1_556 S
C538 N535 1.350 . S
C538 C537 1.434 . S
C539 C540 1.369 1_556 S
C539 C541 1.419 . S
C539 H543 0.930 . S
C540 C539 1.369 1_554 S
C540 C549 1.429 . S
C541 C539 1.419 . S
C541 C542 1.363 1_556 S
C541 H544 0.929 . S
C542 C541 1.363 1_554 S
C542 C548 1.428 . S
H543 C539 0.930 . S
H544 C541 0.929 . S
S545 N546 1.613 . S
S545 N547 1.610 . S
N546 S545 1.613 . S
N546 C549 1.350 . S
N547 S545 1.610 . S
N547 C548 1.351 . S
C548 C542 1.428 . S
C548 N547 1.351 . S
C548 C549 1.434 . S
C549 C540 1.429 . S
C549 N546 1.350 . S
C549 C548 1.434 . S
C550 C551 1.369 . S
C550 C552 1.419 . S
C550 H554 0.930 . S
C551 C550 1.369 . S
C551 C560 1.429 . S
C552 C550 1.419 . S
C552 C553 1.363 . S
C552 H555 0.929 . S
C553 C552 1.363 . S
C553 C559 1.428 . S
H554 C550 0.930 . S
H555 C552 0.929 . S
S556 N557 1.613 . S
S556 N558 1.610 . S
N557 S556 1.613 . S
N557 C560 1.350 1_556 S
N558 S556 1.610 . S
N558 C559 1.351 1_556 S
C559 C553 1.428 . S
C559 N558 1.351 1_554 S
C559 C560 1.434 . S
C560 C551 1.429 . S
C560 N557 1.350 1_554 S
C560 C559 1.434 . S
C561 C562 1.369 . S
C561 C563 1.419 . S
C561 H565 0.930 . S
C562 C561 1.369 . S
C562 C571 1.429 . S
C563 C561 1.419 . S
C563 C564 1.363 . S
C563 H566 0.929 . S
C564 C563 1.363 . S
C564 C570 1.428 . S
H565 C561 0.930 . S
H566 C563 0.929 . S
S567 N568 1.613 1_556 S
S567 N569 1.610 1_556 S
N568 S567 1.613 1_554 S
N568 C571 1.350 . S
N569 S567 1.610 1_554 S
N569 C570 1.351 . S
C570 C564 1.428 . S
C570 N569 1.351 . S
C570 C571 1.434 . S
C571 C562 1.429 . S
C571 N568 1.350 . S
C571 C570 1.434 . S
C572 C573 1.369 . S
C572 C574 1.419 . S
C572 H576 0.930 . S
C573 C572 1.369 . S
C573 C582 1.429 . S
C574 C572 1.419 . S
C574 C575 1.363 . S
C574 H577 0.929 . S
C575 C574 1.363 . S
C575 C581 1.428 . S
H576 C572 0.930 . S
H577 C574 0.929 . S
S578 N579 1.613 . S
S578 N580 1.610 . S
N579 S578 1.613 . S
N579 C582 1.350 . S
N580 S578 1.610 . S
N580 C581 1.351 . S
C581 C575 1.428 . S
C581 N580 1.351 . S
C581 C582 1.434 . S
C582 C573 1.429 . S
C582 N579 1.350 . S
C582 C581 1.434 . S
C583 C584 1.369 . S
C583 C585 1.419 . S
C583 H587 0.930 . S
C584 C583 1.369 . S
C584 C593 1.429 . S
C585 C583 1.419 . S
C585 C586 1.363 . S
C585 H588 0.929 . S
C586 C585 1.363 . S
C586 C592 1.428 . S
H587 C583 0.930 . S
H588 C585 0.929 . S
S589 N590 1.613 . S
S589 N591 1.610 . S
N590 S589 1.613 . S
N590 C593 1.350 . S
N591 S589 1.610 . S
N591 C592 1.351 . S
C592 C586 1.428 . S
C592 N591 1.351 . S
C592 C593 1.434 . S
C593 C584 1.429 . S
C593 N590 1.350 . S
C593 C592 1.434 . S
C594 C595 1.369 . S
C594 C596 1.419 . S
C594 H598 0.930 . S
C595 C594 1.369 . S
C595 C604 1.429 . S
C596 C594 1.419 . S
C596 C597 1.363 . S
C596 H599 0.929 . S
C597 C596 1.363 . S
C597 C603 1.428 . S
H598 C594 0.930 . S
H599 C596 0.929 . S
S600 N601 1.613 . S
S600 N602 1.610 . S
N601 S600 1.613 . S
N601 C604 1.350 . S
N602 S600 1.610 . S
N602 C603 1.351 . S
C603 C597 1.428 . S
C603 N602 1.351 . S
C603 C604 1.434 . S
C604 C595 1.429 . S
C604 N601 1.350 . S
C604 C603 1.434 . S
C605 C606 1.369 . S
C605 C607 1.419 . S
C605 H609 0.930 . S
C606 C605 1.369 . S
C606 C615 1.429 . S
C607 C605 1.419 . S
C607 C608 1.363 . S
C607 H610 0.929 . S
C608 C607 1.363 . S
C608 C614 1.428 . S
H609 C605 0.930 . S
H610 C607 0.929 . S
S611 N612 1.613 . S
S611 N613 1.610 . S
N612 S611 1.613 . S
N612 C615 1.350 . S
N613 S611 1.610 . S
N613 C614 1.351 . S
C614 C608 1.428 . S
C614 N613 1.351 . S
C614 C615 1.434 . S
C615 C606 1.429 . S
C615 N612 1.350 . S
C615 C614 1.434 . S
C616 C617 1.369 . S
C616 C618 1.419 . S
C616 H620 0.930 . S
C617 C616 1.369 . S
C617 C626 1.429 . S
C618 C616 1.419 . S
C618 C619 1.363 . S
C618 H621 0.929 . S
C619 C618 1.363 . S
C619 C625 1.428 1_556 S
H620 C616 0.930 . S
H621 C618 0.929 . S
S622 N623 1.613 . S
S622 N624 1.610 . S
N623 S622 1.613 . S
N623 C626 1.350 1_554 S
N624 S622 1.610 . S
N624 C625 1.351 . S
C625 C619 1.428 1_554 S
C625 N624 1.351 . S
C625 C626 1.434 1_554 S
C626 C617 1.429 . S
C626 N623 1.350 1_556 S
C626 C625 1.434 1_556 S
C627 C628 1.369 . S
C627 C629 1.419 . S
C627 H631 0.930 . S
C628 C627 1.369 . S
C628 C637 1.429 1_556 S
C629 C627 1.419 . S
C629 C630 1.362 1_556 S
C629 H632 0.929 . S
C630 C629 1.362 1_554 S
C630 C636 1.429 . S
H631 C627 0.930 . S
H632 C629 0.929 . S
S633 N634 1.613 . S
S633 N635 1.610 . S
N634 S633 1.613 . S
N634 C637 1.350 . S
N635 S633 1.610 . S
N635 C636 1.351 . S
C636 C630 1.429 . S
C636 N635 1.351 . S
C636 C637 1.434 . S
C637 C628 1.429 1_554 S
C637 N634 1.350 . S
C637 C636 1.434 . S
C638 C639 1.369 . S
C638 C640 1.419 . S
C638 H642 0.930 . S
C639 C638 1.369 . S
C639 C648 1.428 1_556 S
C640 C638 1.419 . S
C640 C641 1.363 . S
C640 H643 0.929 . S
C641 C640 1.363 . S
C641 C647 1.428 1_556 S
H642 C638 0.930 . S
H643 C640 0.929 . S
S644 N645 1.613 . S
S644 N646 1.610 . S
N645 S644 1.613 . S
N645 C648 1.350 . S
N646 S644 1.610 . S
N646 C647 1.351 . S
C647 C641 1.428 1_554 S
C647 N646 1.351 . S
C647 C648 1.434 . S
C648 C639 1.428 1_554 S
C648 N645 1.350 . S
C648 C647 1.434 . S
C649 C650 1.358 1_556 S
C649 C651 1.419 . S
C649 H653 0.930 . S
C650 C649 1.358 1_554 S
C650 C659 1.439 . S
C651 C649 1.419 . S
C651 C652 1.363 . S
C651 H654 0.929 . S
C652 C651 1.363 . S
C652 C658 1.428 1_556 S
H653 C649 0.930 . S
H654 C651 0.929 . S
S655 N656 1.613 . S
S655 N657 1.610 . S
N656 S655 1.613 . S
N656 C659 1.350 . S
N657 S655 1.610 . S
N657 C658 1.351 . S
C658 C652 1.428 1_554 S
C658 N657 1.351 . S
C658 C659 1.434 . S
C659 C650 1.439 . S
C659 N656 1.350 . S
C659 C658 1.434 . S
C660 C661 1.369 . S
C660 C662 1.419 . S
C660 H664 0.930 . S
C661 C660 1.369 . S
C661 C670 1.429 . S
C662 C660 1.419 . S
C662 C663 1.363 . S
C662 H665 0.929 . S
C663 C662 1.363 . S
C663 C669 1.428 . S
H664 C660 0.930 . S
H665 C662 0.929 . S
S666 N667 1.613 . S
S666 N668 1.610 . S
N667 S666 1.613 . S
N667 C670 1.350 . S
N668 S666 1.610 . S
N668 C669 1.351 . S
C669 C663 1.428 . S
C669 N668 1.351 . S
C669 C670 1.434 . S
C670 C661 1.429 . S
C670 N667 1.350 . S
C670 C669 1.434 . S
C671 C672 1.369 . S
C671 C673 1.419 . S
C671 H675 0.930 . S
C672 C671 1.369 . S
C672 C681 1.429 . S
C673 C671 1.419 . S
C673 C674 1.363 . S
C673 H676 0.929 . S
C674 C673 1.363 . S
C674 C680 1.428 . S
H675 C671 0.930 . S
H676 C673 0.929 . S
S677 N678 1.613 . S
S677 N679 1.610 . S
N678 S677 1.613 . S
N678 C681 1.350 . S
N679 S677 1.610 . S
N679 C680 1.351 . S
C680 C674 1.428 . S
C680 N679 1.351 . S
C680 C681 1.434 . S
C681 C672 1.429 . S
C681 N678 1.350 . S
C681 C680 1.434 . S
C682 C683 1.369 . S
C682 C684 1.419 . S
C682 H686 0.930 . S
C683 C682 1.369 . S
C683 C692 1.429 . S
C684 C682 1.419 . S
C684 C685 1.363 . S
C684 H687 0.929 . S
C685 C684 1.363 . S
C685 C691 1.428 . S
H686 C682 0.930 . S
H687 C684 0.929 . S
S688 N689 1.613 . S
S688 N690 1.610 . S
N689 S688 1.613 . S
N689 C692 1.350 . S
N690 S688 1.610 . S
N690 C691 1.351 . S
C691 C685 1.428 . S
C691 N690 1.351 . S
C691 C692 1.434 . S
C692 C683 1.429 . S
C692 N689 1.350 . S
C692 C691 1.434 . S
C693 C694 1.369 . S
C693 C695 1.419 . S
C693 H697 0.930 . S
C694 C693 1.369 . S
C694 C703 1.429 . S
C695 C693 1.419 . S
C695 C696 1.363 . S
C695 H698 0.929 . S
C696 C695 1.363 . S
C696 C702 1.428 . S
H697 C693 0.930 . S
H698 C695 0.929 . S
S699 N700 1.613 . S
S699 N701 1.610 . S
N700 S699 1.613 . S
N700 C703 1.350 . S
N701 S699 1.610 . S
N701 C702 1.351 . S
C702 C696 1.428 . S
C702 N701 1.351 . S
C702 C703 1.434 . S
C703 C694 1.429 . S
C703 N700 1.350 . S
C703 C702 1.434 . S
C704 C705 1.369 . S
C704 C706 1.419 . S
C704 H708 0.930 . S
C705 C704 1.369 . S
C705 C714 1.429 . S
C706 C704 1.419 . S
C706 C707 1.363 . S
C706 H709 0.929 . S
C707 C706 1.363 . S
C707 C713 1.428 . S
H708 C704 0.930 . S
H709 C706 0.929 . S
S710 N711 1.613 . S
S710 N712 1.610 . S
N711 S710 1.613 . S
N711 C714 1.350 . S
N712 S710 1.610 . S
N712 C713 1.351 . S
C713 C707 1.428 . S
C713 N712 1.351 . S
C713 C714 1.434 . S
C714 C705 1.429 . S
C714 N711 1.350 . S
C714 C713 1.434 . S
C715 C716 1.369 . S
C715 C717 1.419 . S
C715 H719 0.930 . S
C716 C715 1.369 . S
C716 C725 1.429 . S
C717 C715 1.419 . S
C717 C718 1.363 . S
C717 H720 0.929 . S
C718 C717 1.363 . S
C718 C724 1.428 . S
H719 C715 0.930 . S
H720 C717 0.929 . S
S721 N722 1.613 . S
S721 N723 1.610 . S
N722 S721 1.613 . S
N722 C725 1.350 . S
N723 S721 1.610 . S
N723 C724 1.351 . S
C724 C718 1.428 . S
C724 N723 1.351 . S
C724 C725 1.434 . S
C725 C716 1.429 . S
C725 N722 1.350 . S
C725 C724 1.434 . S
C726 C727 1.369 . S
C726 C728 1.419 . S
C726 H730 0.930 . S
C727 C726 1.369 . S
C727 C736 1.429 . S
C728 C726 1.419 . S
C728 C729 1.363 . S
C728 H731 0.929 . S
C729 C728 1.363 . S
C729 C735 1.428 . S
H730 C726 0.930 . S
H731 C728 0.929 . S
S732 N733 1.613 . S
S732 N734 1.610 . S
N733 S732 1.613 . S
N733 C736 1.350 . S
N734 S732 1.610 . S
N734 C735 1.351 . S
C735 C729 1.428 . S
C735 N734 1.351 . S
C735 C736 1.434 . S
C736 C727 1.429 . S
C736 N733 1.350 . S
C736 C735 1.434 . S
C737 C738 1.369 . S
C737 C739 1.419 . S
C737 H741 0.930 . S
C738 C737 1.369 . S
C738 C747 1.429 . S
C739 C737 1.419 . S
C739 C740 1.363 . S
C739 H742 0.929 . S
C740 C739 1.363 . S
C740 C746 1.428 . S
H741 C737 0.930 . S
H742 C739 0.929 . S
S743 N744 1.613 . S
S743 N745 1.610 . S
N744 S743 1.613 . S
N744 C747 1.350 . S
N745 S743 1.610 . S
N745 C746 1.351 . S
C746 C740 1.428 . S
C746 N745 1.351 . S
C746 C747 1.434 . S
C747 C738 1.429 . S
C747 N744 1.350 . S
C747 C746 1.434 . S
C748 C749 1.369 . S
C748 C750 1.419 . S
C748 H752 0.930 . S
C749 C748 1.369 . S
C749 C758 1.429 . S
C750 C748 1.419 . S
C750 C751 1.363 . S
C750 H753 0.929 1_554 S
C751 C750 1.363 . S
C751 C757 1.428 . S
H752 C748 0.930 . S
H753 C750 0.929 1_556 S
S754 N755 1.613 . S
S754 N756 1.610 . S
N755 S754 1.613 . S
N755 C758 1.350 . S
N756 S754 1.610 . S
N756 C757 1.351 . S
C757 C751 1.428 . S
C757 N756 1.351 . S
C757 C758 1.434 . S
C758 C749 1.429 . S
C758 N755 1.350 . S
C758 C757 1.434 . S
C759 C760 1.369 . S
C759 C761 1.419 . S
C759 H763 0.930 1_554 S
C760 C759 1.369 . S
C760 C769 1.429 . S
C761 C759 1.419 . S
C761 C762 1.363 . S
C761 H764 0.929 1_554 S
C762 C761 1.363 . S
C762 C768 1.428 . S
H763 C759 0.930 1_556 S
H764 C761 0.929 1_556 S
S765 N766 1.613 . S
S765 N767 1.610 . S
N766 S765 1.613 . S
N766 C769 1.350 . S
N767 S765 1.610 . S
N767 C768 1.351 . S
C768 C762 1.428 . S
C768 N767 1.351 . S
C768 C769 1.434 . S
C769 C760 1.429 . S
C769 N766 1.350 . S
C769 C768 1.434 . S
C770 C771 1.369 . S
C770 C772 1.419 . S
C770 H774 0.930 . S
C771 C770 1.369 . S
C771 C780 1.429 . S
C772 C770 1.419 . S
C772 C773 1.363 . S
C772 H775 0.929 . S
C773 C772 1.363 . S
C773 C779 1.428 . S
H774 C770 0.930 . S
H775 C772 0.929 . S
S776 N777 1.613 . S
S776 N778 1.610 . S
N777 S776 1.613 . S
N777 C780 1.350 . S
N778 S776 1.610 . S
N778 C779 1.351 . S
C779 C773 1.428 . S
C779 N778 1.351 . S
C779 C780 1.434 . S
C780 C771 1.429 . S
C780 N777 1.350 . S
C780 C779 1.434 . S
C781 C782 1.369 . S
C781 C783 1.419 . S
C781 H785 0.930 . S
C782 C781 1.369 . S
C782 C791 1.429 . S
C783 C781 1.419 . S
C783 C784 1.363 . S
C783 H786 0.929 . S
C784 C783 1.363 . S
C784 C790 1.428 . S
H785 C781 0.930 . S
H786 C783 0.929 . S
S787 N788 1.613 . S
S787 N789 1.610 . S
N788 S787 1.613 . S
N788 C791 1.350 . S
N789 S787 1.610 . S
N789 C790 1.351 . S
C790 C784 1.428 . S
C790 N789 1.351 . S
C790 C791 1.434 . S
C791 C782 1.429 . S
C791 N788 1.350 . S
C791 C790 1.434 . S
C792 C793 1.369 1_455 S
C792 C794 1.419 . S
C792 H796 0.930 . S
C793 C792 1.369 1_655 S
C793 C802 1.429 . S
C794 C792 1.419 . S
C794 C795 1.363 . S
C794 H797 0.929 . S
C795 C794 1.363 . S
C795 C801 1.428 1_455 S
H796 C792 0.930 . S
H797 C794 0.929 . S
S798 N799 1.613 . S
S798 N800 1.610 . S
N799 S798 1.613 . S
N799 C802 1.350 . S
N800 S798 1.610 . S
N800 C801 1.351 . S
C801 C795 1.428 1_655 S
C801 N800 1.351 . S
C801 C802 1.434 . S
C802 C793 1.429 . S
C802 N799 1.350 . S
C802 C801 1.434 . S
C803 C804 1.369 . S
C803 C805 1.419 . S
C803 H807 0.930 . S
C804 C803 1.369 . S
C804 C813 1.429 1_565 S
C805 C803 1.419 . S
C805 C806 1.363 1_565 S
C805 H808 0.929 . S
C806 C805 1.363 1_545 S
C806 C812 1.428 . S
H807 C803 0.930 . S
H808 C805 0.929 . S
S809 N810 1.613 . S
S809 N811 1.610 . S
N810 S809 1.613 . S
N810 C813 1.350 . S
N811 S809 1.610 . S
N811 C812 1.351 . S
C812 C806 1.428 . S
C812 N811 1.351 . S
C812 C813 1.434 . S
C813 C804 1.429 1_545 S
C813 N810 1.350 . S
C813 C812 1.434 . S
C814 C815 1.369 1_455 S
C814 C816 1.419 . S
C814 H818 0.930 . S
C815 C814 1.369 1_655 S
C815 C824 1.429 . S
C816 C814 1.419 . S
C816 C817 1.363 . S
C816 H819 0.929 . S
C817 C816 1.363 . S
C817 C823 1.428 1_455 S
H818 C814 0.930 . S
H819 C816 0.929 . S
S820 N821 1.613 . S
S820 N822 1.610 . S
N821 S820 1.613 . S
N821 C824 1.350 . S
N822 S820 1.610 . S
N822 C823 1.351 . S
C823 C817 1.428 1_655 S
C823 N822 1.351 . S
C823 C824 1.434 . S
C824 C815 1.429 . S
C824 N821 1.350 . S
C824 C823 1.434 . S
C825 C826 1.369 1_565 S
C825 C827 1.419 . S
C825 H829 0.930 . S
C826 C825 1.369 1_545 S
C826 C835 1.429 . S
C827 C825 1.419 . S
C827 C828 1.363 . S
C827 H830 0.929 . S
C828 C827 1.363 . S
C828 C834 1.428 1_565 S
H829 C825 0.930 . S
H830 C827 0.929 . S
S831 N832 1.613 . S
S831 N833 1.610 . S
N832 S831 1.613 . S
N832 C835 1.350 . S
N833 S831 1.610 . S
N833 C834 1.351 . S
C834 C828 1.428 1_545 S
C834 N833 1.351 . S
C834 C835 1.434 . S
C835 C826 1.429 . S
C835 N832 1.350 . S
C835 C834 1.434 . S
C836 C837 1.369 1_655 S
C836 C838 1.419 . S
C836 H840 0.930 . S
C837 C836 1.369 1_455 S
C837 C846 1.429 . S
C838 C836 1.419 . S
C838 C839 1.363 . S
C838 H841 0.929 . S
C839 C838 1.363 . S
C839 C845 1.428 1_655 S
H840 C836 0.930 . S
H841 C838 0.929 . S
S842 N843 1.613 . S
S842 N844 1.610 . S
N843 S842 1.613 . S
N843 C846 1.350 . S
N844 S842 1.610 . S
N844 C845 1.351 . S
C845 C839 1.428 1_455 S
C845 N844 1.351 . S
C845 C846 1.434 . S
C846 C837 1.429 . S
C846 N843 1.350 . S
C846 C845 1.434 . S
C847 C848 1.369 1_545 S
C847 C849 1.419 . S
C847 H851 0.930 . S
C848 C847 1.369 1_565 S
C848 C857 1.429 . S
C849 C847 1.419 . S
C849 C850 1.363 . S
C849 H852 0.929 . S
C850 C849 1.363 . S
C850 C856 1.428 1_545 S
H851 C847 0.930 . S
H852 C849 0.929 . S
S853 N854 1.613 . S
S853 N855 1.610 . S
N854 S853 1.613 . S
N854 C857 1.350 . S
N855 S853 1.610 . S
N855 C856 1.351 . S
C856 C850 1.428 1_565 S
C856 N855 1.351 . S
C856 C857 1.434 . S
C857 C848 1.429 . S
C857 N854 1.350 . S
C857 C856 1.434 . S
C858 C859 1.369 1_455 S
C858 C860 1.419 . S
C858 H862 0.930 . S
C859 C858 1.369 1_655 S
C859 C868 1.429 . S
C860 C858 1.419 . S
C860 C861 1.363 . S
C860 H863 0.929 . S
C861 C860 1.363 . S
C861 C867 1.428 1_455 S
H862 C858 0.930 . S
H863 C860 0.929 . S
S864 N865 1.613 . S
S864 N866 1.610 . S
N865 S864 1.613 . S
N865 C868 1.350 . S
N866 S864 1.610 . S
N866 C867 1.351 . S
C867 C861 1.428 1_655 S
C867 N866 1.351 . S
C867 C868 1.434 . S
C868 C859 1.429 . S
C868 N865 1.350 . S
C868 C867 1.434 . S
C869 C870 1.369 . S
C869 C871 1.419 . S
C869 H873 0.930 . S
C870 C869 1.369 . S
C870 C879 1.429 1_545 S
C871 C869 1.419 . S
C871 C872 1.363 1_545 S
C871 H874 0.929 . S
C872 C871 1.363 1_565 S
C872 C878 1.428 . S
H873 C869 0.930 . S
H874 C871 0.929 . S
S875 N876 1.613 . S
S875 N877 1.610 . S
N876 S875 1.613 . S
N876 C879 1.350 . S
N877 S875 1.610 . S
N877 C878 1.351 . S
C878 C872 1.428 . S
C878 N877 1.351 . S
C878 C879 1.434 . S
C879 C870 1.429 1_565 S
C879 N876 1.350 . S
C879 C878 1.434 . S
C880 C881 1.369 . S
C880 C882 1.419 . S
C880 H884 0.930 . S
C881 C880 1.369 . S
C881 C890 1.429 . S
C882 C880 1.419 . S
C882 C883 1.363 . S
C882 H885 0.929 . S
C883 C882 1.363 . S
C883 C889 1.428 . S
H884 C880 0.930 . S
H885 C882 0.929 . S
S886 N887 1.613 . S
S886 N888 1.610 . S
N887 S886 1.613 . S
N887 C890 1.350 . S
N888 S886 1.610 . S
N888 C889 1.351 . S
C889 C883 1.428 . S
C889 N888 1.351 . S
C889 C890 1.434 . S
C890 C881 1.429 . S
C890 N887 1.350 . S
C890 C889 1.434 . S
C891 C892 1.369 . S
C891 C893 1.419 . S
C891 H895 0.930 . S
C892 C891 1.369 . S
C892 C901 1.429 . S
C893 C891 1.419 . S
C893 C894 1.363 . S
C893 H896 0.929 . S
C894 C893 1.363 . S
C894 C900 1.428 . S
H895 C891 0.930 . S
H896 C893 0.929 . S
S897 N898 1.613 . S
S897 N899 1.610 . S
N898 S897 1.613 . S
N898 C901 1.350 . S
N899 S897 1.610 . S
N899 C900 1.351 . S
C900 C894 1.428 . S
C900 N899 1.351 . S
C900 C901 1.434 . S
C901 C892 1.429 . S
C901 N898 1.350 . S
C901 C900 1.434 . S
C902 C903 1.369 . S
C902 C904 1.419 . S
C902 H906 0.930 . S
C903 C902 1.369 . S
C903 C912 1.429 . S
C904 C902 1.419 . S
C904 C905 1.363 . S
C904 H907 0.929 . S
C905 C904 1.363 . S
C905 C911 1.428 . S
H906 C902 0.930 . S
H907 C904 0.929 . S
S908 N909 1.613 . S
S908 N910 1.610 . S
N909 S908 1.613 . S
N909 C912 1.350 . S
N910 S908 1.610 . S
N910 C911 1.351 . S
C911 C905 1.428 . S
C911 N910 1.351 . S
C911 C912 1.434 . S
C912 C903 1.429 . S
C912 N909 1.350 . S
C912 C911 1.434 . S
C913 C914 1.369 . S
C913 C915 1.419 . S
C913 H917 0.930 . S
C914 C913 1.369 . S
C914 C923 1.429 . S
C915 C913 1.419 . S
C915 C916 1.363 . S
C915 H918 0.929 . S
C916 C915 1.363 . S
C916 C922 1.428 . S
H917 C913 0.930 . S
H918 C915 0.929 . S
S919 N920 1.613 . S
S919 N921 1.610 . S
N920 S919 1.613 . S
N920 C923 1.350 . S
N921 S919 1.610 . S
N921 C922 1.351 . S
C922 C916 1.428 . S
C922 N921 1.351 . S
C922 C923 1.434 . S
C923 C914 1.429 . S
C923 N920 1.350 . S
C923 C922 1.434 . S
C924 C925 1.369 . S
C924 C926 1.419 . S
C924 H928 0.930 . S
C925 C924 1.369 . S
C925 C934 1.429 . S
C926 C924 1.419 . S
C926 C927 1.363 . S
C926 H929 0.929 . S
C927 C926 1.363 . S
C927 C933 1.428 . S
H928 C924 0.930 . S
H929 C926 0.929 . S
S930 N931 1.613 . S
S930 N932 1.610 . S
N931 S930 1.613 . S
N931 C934 1.350 . S
N932 S930 1.610 . S
N932 C933 1.351 . S
C933 C927 1.428 . S
C933 N932 1.351 . S
C933 C934 1.434 . S
C934 C925 1.429 . S
C934 N931 1.350 . S
C934 C933 1.434 . S
C935 C936 1.369 . S
C935 C937 1.419 . S
C935 H939 0.930 . S
C936 C935 1.369 . S
C936 C945 1.429 . S
C937 C935 1.419 . S
C937 C938 1.363 . S
C937 H940 0.929 . S
C938 C937 1.363 . S
C938 C944 1.428 . S
H939 C935 0.930 . S
H940 C937 0.929 . S
S941 N942 1.613 . S
S941 N943 1.610 . S
N942 S941 1.613 . S
N942 C945 1.350 . S
N943 S941 1.610 . S
N943 C944 1.351 . S
C944 C938 1.428 . S
C944 N943 1.351 . S
C944 C945 1.434 . S
C945 C936 1.429 . S
C945 N942 1.350 . S
C945 C944 1.434 . S
C946 C947 1.369 . S
C946 C948 1.419 . S
C946 H950 0.930 . S
C947 C946 1.369 . S
C947 C956 1.429 . S
C948 C946 1.419 . S
C948 C949 1.363 . S
C948 H951 0.929 . S
C949 C948 1.363 . S
C949 C955 1.428 . S
H950 C946 0.930 . S
H951 C948 0.929 . S
S952 N953 1.613 . S
S952 N954 1.610 . S
N953 S952 1.613 . S
N953 C956 1.350 . S
N954 S952 1.610 . S
N954 C955 1.351 . S
C955 C949 1.428 . S
C955 N954 1.351 . S
C955 C956 1.434 . S
C956 C947 1.429 . S
C956 N953 1.350 . S
C956 C955 1.434 . S
C957 C958 1.369 . S
C957 C959 1.419 . S
C957 H961 0.930 . S
C958 C957 1.369 . S
C958 C967 1.429 . S
C959 C957 1.419 . S
C959 C960 1.363 . S
C959 H962 0.929 . S
C960 C959 1.363 . S
C960 C966 1.428 . S
H961 C957 0.930 . S
H962 C959 0.929 . S
S963 N964 1.613 . S
S963 N965 1.610 . S
N964 S963 1.613 . S
N964 C967 1.350 . S
N965 S963 1.610 . S
N965 C966 1.351 . S
C966 C960 1.428 . S
C966 N965 1.351 . S
C966 C967 1.434 . S
C967 C958 1.429 . S
C967 N964 1.350 . S
C967 C966 1.434 . S
C529 N5 1.354 . S
C531 N500 1.363 . S
C540 N38 1.363 . S
C542 N401 1.355 . S
C551 N434 1.357 . S
C553 N71 1.357 . S
C562 N104 1.354 . S
C564 N467 1.359 . S
C573 N137 1.354 . S
C575 N302 1.360 . S
C584 N335 1.354 . S
C586 N170 1.363 . S
C595 N368 1.359 . S
C597 N203 1.356 . S
C606 N269 1.358 . S
C608 N236 1.356 . S
C617 N113 1.545 1_556 S
C619 C17 1.604 1_556 S
C628 N14 1.543 1_556 S
C630 C50 1.606 . S
C639 C83 1.606 1_556 S
C641 N47 1.546 1_556 S
C650 C116 1.606 . S
C652 N80 1.542 1_556 S
C661 N179 1.542 . S
C663 C149 1.606 . S
C672 N212 1.546 . S
C674 C182 1.604 . S
C683 N245 1.547 . S
C685 C215 1.606 . S
C694 N146 1.545 . S
C696 C248 1.604 . S
C705 N377 1.550 . S
C707 C281 1.605 . S
C716 C314 1.604 . S
C718 N278 1.545 . S
C727 N311 1.550 . S
C729 C347 1.605 . S
C738 N344 1.543 . S
C740 C380 1.605 . S
C749 N443 1.548 . S
C751 C413 1.605 . S
C760 N476 1.550 . S
C762 C446 1.605 . S
C771 N509 1.544 . S
C773 C479 1.606 . S
C782 N410 1.548 . S
C784 C512 1.604 . S
C793 C226 1.807 . S
C795 C28 1.808 . S
C804 C259 1.811 . S
C806 C61 1.810 . S
C815 C94 1.811 . S
C817 C160 1.811 . S
C826 C193 1.807 . S
C828 C127 1.808 . S
C837 C74 0.980 1_455 S
C839 C140 0.970 1_655 S
C848 C173 0.972 1_565 S
C850 C107 0.972 1_545 S
C859 C8 0.977 1_655 S
C861 C206 0.970 1_455 S
C870 C239 0.971 1_545 S
C872 C41 0.982 1_565 S
C881 C490 1.811 . S
C883 C292 1.812 . S
C892 C523 1.809 . S
C894 C325 1.809 . S
C903 C424 1.813 . S
C905 C358 1.812 . S
C914 C391 1.811 . S
C916 C457 1.810 . S
C925 C404 0.979 . S
C927 C338 0.982 . S
C936 C371 0.971 . S
C938 C437 0.973 . S
C947 C272 0.977 . S
C949 C470 0.970 . S
C958 C503 0.984 . S
C960 C305 0.972 . S
