# Generated by pormake.
# Topology cha, (4)-cn, num edge types: 1
# Building blocks:
#     Node 0, Type 0, BuildingBlock: UXUYUI_clean_sbu_0, # of connection points: 4
#     Node 1, Type 0, BuildingBlock: UXUYUI_clean_sbu_0, # of connection points: 4
#     Node 2, Type 0, BuildingBlock: UXUYUI_clean_sbu_0, # of connection points: 4
#     Node 3, Type 0, BuildingBlock: UXUYUI_clean_sbu_0, # of connection points: 4
#     Node 4, Type 0, BuildingBlock: UXUYUI_clean_sbu_0, # of connection points: 4
#     Node 5, Type 0, BuildingBlock: UXUYUI_clean_sbu_0, # of connection points: 4
#     Node 6, Type 0, BuildingBlock: UXUYUI_clean_sbu_0, # of connection points: 4
#     Node 7, Type 0, BuildingBlock: UXUYUI_clean_sbu_0, # of connection points: 4
#     Node 8, Type 0, BuildingBlock: UXUYUI_clean_sbu_0, # of connection points: 4
#     Node 9, Type 0, BuildingBlock: UXUYUI_clean_sbu_0, # of connection points: 4
#     Node 10, Type 0, BuildingBlock: UXUYUI_clean_sbu_0, # of connection points: 4
#     Node 11, Type 0, BuildingBlock: UXUYUI_clean_sbu_0, # of connection points: 4
#     Node 12, Type 0, BuildingBlock: UXUYUI_clean_sbu_0, # of connection points: 4
#     Node 13, Type 0, BuildingBlock: UXUYUI_clean_sbu_0, # of connection points: 4
#     Node 14, Type 0, BuildingBlock: UXUYUI_clean_sbu_0, # of connection points: 4
#     Node 15, Type 0, BuildingBlock: UXUYUI_clean_sbu_0, # of connection points: 4
#     Node 16, Type 0, BuildingBlock: UXUYUI_clean_sbu_0, # of connection points: 4
#     Node 17, Type 0, BuildingBlock: UXUYUI_clean_sbu_0, # of connection points: 4
#     Node 18, Type 0, BuildingBlock: UXUYUI_clean_sbu_0, # of connection points: 4
#     Node 19, Type 0, BuildingBlock: UXUYUI_clean_sbu_0, # of connection points: 4
#     Node 20, Type 0, BuildingBlock: UXUYUI_clean_sbu_0, # of connection points: 4
#     Node 21, Type 0, BuildingBlock: UXUYUI_clean_sbu_0, # of connection points: 4
#     Node 22, Type 0, BuildingBlock: UXUYUI_clean_sbu_0, # of connection points: 4
#     Node 23, Type 0, BuildingBlock: UXUYUI_clean_sbu_0, # of connection points: 4
#     Node 24, Type 0, BuildingBlock: UXUYUI_clean_sbu_0, # of connection points: 4
#     Node 25, Type 0, BuildingBlock: UXUYUI_clean_sbu_0, # of connection points: 4
#     Node 26, Type 0, BuildingBlock: UXUYUI_clean_sbu_0, # of connection points: 4
#     Node 27, Type 0, BuildingBlock: UXUYUI_clean_sbu_0, # of connection points: 4
#     Node 28, Type 0, BuildingBlock: UXUYUI_clean_sbu_0, # of connection points: 4
#     Node 29, Type 0, BuildingBlock: UXUYUI_clean_sbu_0, # of connection points: 4
#     Node 30, Type 0, BuildingBlock: UXUYUI_clean_sbu_0, # of connection points: 4
#     Node 31, Type 0, BuildingBlock: UXUYUI_clean_sbu_0, # of connection points: 4
#     Node 32, Type 0, BuildingBlock: UXUYUI_clean_sbu_0, # of connection points: 4
#     Node 33, Type 0, BuildingBlock: UXUYUI_clean_sbu_0, # of connection points: 4
#     Node 34, Type 0, BuildingBlock: UXUYUI_clean_sbu_0, # of connection points: 4
#     Node 35, Type 0, BuildingBlock: UXUYUI_clean_sbu_0, # of connection points: 4
#     Edge 36, Type (0, 0), BuildingBlock: CIFDUS_clean_linker_0, # of connection points: 2
#     Edge 37, Type (0, 0), BuildingBlock: CIFDUS_clean_linker_0, # of connection points: 2
#     Edge 38, Type (0, 0), BuildingBlock: CIFDUS_clean_linker_0, # of connection points: 2
#     Edge 39, Type (0, 0), BuildingBlock: CIFDUS_clean_linker_0, # of connection points: 2
#     Edge 40, Type (0, 0), BuildingBlock: CIFDUS_clean_linker_0, # of connection points: 2
#     Edge 41, Type (0, 0), BuildingBlock: CIFDUS_clean_linker_0, # of connection points: 2
#     Edge 42, Type (0, 0), BuildingBlock: CIFDUS_clean_linker_0, # of connection points: 2
#     Edge 43, Type (0, 0), BuildingBlock: CIFDUS_clean_linker_0, # of connection points: 2
#     Edge 44, Type (0, 0), BuildingBlock: CIFDUS_clean_linker_0, # of connection points: 2
#     Edge 45, Type (0, 0), BuildingBlock: CIFDUS_clean_linker_0, # of connection points: 2
#     Edge 46, Type (0, 0), BuildingBlock: CIFDUS_clean_linker_0, # of connection points: 2
#     Edge 47, Type (0, 0), BuildingBlock: CIFDUS_clean_linker_0, # of connection points: 2
#     Edge 48, Type (0, 0), BuildingBlock: CIFDUS_clean_linker_0, # of connection points: 2
#     Edge 49, Type (0, 0), BuildingBlock: CIFDUS_clean_linker_0, # of connection points: 2
#     Edge 50, Type (0, 0), BuildingBlock: CIFDUS_clean_linker_0, # of connection points: 2
#     Edge 51, Type (0, 0), BuildingBlock: CIFDUS_clean_linker_0, # of connection points: 2
#     Edge 52, Type (0, 0), BuildingBlock: CIFDUS_clean_linker_0, # of connection points: 2
#     Edge 53, Type (0, 0), BuildingBlock: CIFDUS_clean_linker_0, # of connection points: 2
#     Edge 54, Type (0, 0), BuildingBlock: CIFDUS_clean_linker_0, # of connection points: 2
#     Edge 55, Type (0, 0), BuildingBlock: CIFDUS_clean_linker_0, # of connection points: 2
#     Edge 56, Type (0, 0), BuildingBlock: CIFDUS_clean_linker_0, # of connection points: 2
#     Edge 57, Type (0, 0), BuildingBlock: CIFDUS_clean_linker_0, # of connection points: 2
#     Edge 58, Type (0, 0), BuildingBlock: CIFDUS_clean_linker_0, # of connection points: 2
#     Edge 59, Type (0, 0), BuildingBlock: CIFDUS_clean_linker_0, # of connection points: 2
#     Edge 60, Type (0, 0), BuildingBlock: CIFDUS_clean_linker_0, # of connection points: 2
#     Edge 61, Type (0, 0), BuildingBlock: CIFDUS_clean_linker_0, # of connection points: 2
#     Edge 62, Type (0, 0), BuildingBlock: CIFDUS_clean_linker_0, # of connection points: 2
#     Edge 63, Type (0, 0), BuildingBlock: CIFDUS_clean_linker_0, # of connection points: 2
#     Edge 64, Type (0, 0), BuildingBlock: CIFDUS_clean_linker_0, # of connection points: 2
#     Edge 65, Type (0, 0), BuildingBlock: CIFDUS_clean_linker_0, # of connection points: 2
#     Edge 66, Type (0, 0), BuildingBlock: CIFDUS_clean_linker_0, # of connection points: 2
#     Edge 67, Type (0, 0), BuildingBlock: CIFDUS_clean_linker_0, # of connection points: 2
#     Edge 68, Type (0, 0), BuildingBlock: CIFDUS_clean_linker_0, # of connection points: 2
#     Edge 69, Type (0, 0), BuildingBlock: CIFDUS_clean_linker_0, # of connection points: 2
#     Edge 70, Type (0, 0), BuildingBlock: CIFDUS_clean_linker_0, # of connection points: 2
#     Edge 71, Type (0, 0), BuildingBlock: CIFDUS_clean_linker_0, # of connection points: 2
#     Edge 72, Type (0, 0), BuildingBlock: CIFDUS_clean_linker_0, # of connection points: 2
#     Edge 73, Type (0, 0), BuildingBlock: CIFDUS_clean_linker_0, # of connection points: 2
#     Edge 74, Type (0, 0), BuildingBlock: CIFDUS_clean_linker_0, # of connection points: 2
#     Edge 75, Type (0, 0), BuildingBlock: CIFDUS_clean_linker_0, # of connection points: 2
#     Edge 76, Type (0, 0), BuildingBlock: CIFDUS_clean_linker_0, # of connection points: 2
#     Edge 77, Type (0, 0), BuildingBlock: CIFDUS_clean_linker_0, # of connection points: 2
#     Edge 78, Type (0, 0), BuildingBlock: CIFDUS_clean_linker_0, # of connection points: 2
#     Edge 79, Type (0, 0), BuildingBlock: CIFDUS_clean_linker_0, # of connection points: 2
#     Edge 80, Type (0, 0), BuildingBlock: CIFDUS_clean_linker_0, # of connection points: 2
#     Edge 81, Type (0, 0), BuildingBlock: CIFDUS_clean_linker_0, # of connection points: 2
#     Edge 82, Type (0, 0), BuildingBlock: CIFDUS_clean_linker_0, # of connection points: 2
#     Edge 83, Type (0, 0), BuildingBlock: CIFDUS_clean_linker_0, # of connection points: 2
#     Edge 84, Type (0, 0), BuildingBlock: CIFDUS_clean_linker_0, # of connection points: 2
#     Edge 85, Type (0, 0), BuildingBlock: CIFDUS_clean_linker_0, # of connection points: 2
#     Edge 86, Type (0, 0), BuildingBlock: CIFDUS_clean_linker_0, # of connection points: 2
#     Edge 87, Type (0, 0), BuildingBlock: CIFDUS_clean_linker_0, # of connection points: 2
#     Edge 88, Type (0, 0), BuildingBlock: CIFDUS_clean_linker_0, # of connection points: 2
#     Edge 89, Type (0, 0), BuildingBlock: CIFDUS_clean_linker_0, # of connection points: 2
#     Edge 90, Type (0, 0), BuildingBlock: CIFDUS_clean_linker_0, # of connection points: 2
#     Edge 91, Type (0, 0), BuildingBlock: CIFDUS_clean_linker_0, # of connection points: 2
#     Edge 92, Type (0, 0), BuildingBlock: CIFDUS_clean_linker_0, # of connection points: 2
#     Edge 93, Type (0, 0), BuildingBlock: CIFDUS_clean_linker_0, # of connection points: 2
#     Edge 94, Type (0, 0), BuildingBlock: CIFDUS_clean_linker_0, # of connection points: 2
#     Edge 95, Type (0, 0), BuildingBlock: CIFDUS_clean_linker_0, # of connection points: 2
#     Edge 96, Type (0, 0), BuildingBlock: CIFDUS_clean_linker_0, # of connection points: 2
#     Edge 97, Type (0, 0), BuildingBlock: CIFDUS_clean_linker_0, # of connection points: 2
#     Edge 98, Type (0, 0), BuildingBlock: CIFDUS_clean_linker_0, # of connection points: 2
#     Edge 99, Type (0, 0), BuildingBlock: CIFDUS_clean_linker_0, # of connection points: 2
#     Edge 100, Type (0, 0), BuildingBlock: CIFDUS_clean_linker_0, # of connection points: 2
#     Edge 101, Type (0, 0), BuildingBlock: CIFDUS_clean_linker_0, # of connection points: 2
#     Edge 102, Type (0, 0), BuildingBlock: CIFDUS_clean_linker_0, # of connection points: 2
#     Edge 103, Type (0, 0), BuildingBlock: CIFDUS_clean_linker_0, # of connection points: 2
#     Edge 104, Type (0, 0), BuildingBlock: CIFDUS_clean_linker_0, # of connection points: 2
#     Edge 105, Type (0, 0), BuildingBlock: CIFDUS_clean_linker_0, # of connection points: 2
#     Edge 106, Type (0, 0), BuildingBlock: CIFDUS_clean_linker_0, # of connection points: 2
#     Edge 107, Type (0, 0), BuildingBlock: CIFDUS_clean_linker_0, # of connection points: 2
# Relax obj value: 0.245
# Max RMSD: 0.173
# Mean RMSD: 0.173
data_MOF--net-cha--node1-UXUYUI_clean_sbu_0--edge1-CIFDUS_clean_linker_0
_symmetry_space_group_name_H-M    P1
_symmetry_Int_Tables_number       1
_symmetry_cell_setting            triclinic
loop_
_symmetry_equiv_pos_as_xyz
'x, y, z'
_cell_length_a     87.208351
_cell_length_b     87.203358
_cell_length_c     94.363368
_cell_angle_alpha  89.98796
_cell_angle_beta   90.019409
_cell_angle_gamma 119.99208
loop_
_atom_site_label
_atom_site_type_symbol
_atom_site_fract_x
_atom_site_fract_y
_atom_site_fract_z
_atom_type_partial_charge
Li0 Li 0.02123 0.26376 0.11284 0.0
Li1 Li 0.0404 0.25124 0.10902 0.0
Li2 Li 0.02369 0.25503 0.08857 0.0
Li3 Li 0.0084 0.23184 0.10673 0.0
C4 C 0.0547 0.29075 0.10093 0.0
N5 N 0.07958 0.32641 0.10117 0.0
C6 C 0.06878 0.29733 0.11054 0.0
C7 C 0.05343 0.30224 0.09129 0.0
C8 C 0.08118 0.31542 0.11054 0.0
C9 C 0.0661 0.32024 0.09163 0.0
C10 C 0.02665 0.24197 0.13682 0.0
C11 C 0.03122 0.22357 0.15338 0.0
N12 N 0.03643 0.23649 0.16335 0.0
C13 C 0.03195 0.25504 0.14725 0.0
C14 C 0.02617 0.22606 0.13991 0.0
C15 C 0.03687 0.25202 0.1606 0.0
C16 C 6e-05 0.27251 0.1282 0.0
N17 N 0.01714 0.27932 0.12402 0.0
C18 C 0.02583 0.30582 0.1372 0.0
C19 C 0.03 0.29564 0.12829 0.0
C20 C 0.00829 0.29901 0.14176 0.0
C21 C 0.99529 0.28221 0.137 0.0
H22 H 0.99017 0.25941 0.12476 0.0
H23 H 0.04354 0.30065 0.12509 0.0
C24 C 0.07081 0.25068 0.10227 0.0
N25 N 0.06217 0.25251 0.11354 0.0
C26 C 0.08707 0.25156 0.10414 0.0
C27 C 0.08524 0.25607 0.12923 0.0
C28 C 0.06914 0.25542 0.12683 0.0
C29 C 0.09437 0.25418 0.11777 0.0
H30 H 0.06504 0.24859 0.0918 0.0
H31 H 0.0624 0.25745 0.13556 0.0
C32 C 0.99204 0.25605 0.09402 0.0
N33 N 0.97235 0.27029 0.0834 0.0
C34 C 0.97399 0.24512 0.0913 0.0
C35 C 8e-05 0.27421 0.0914 0.0
C36 C 0.96427 0.25257 0.0859 0.0
C37 C 0.9899 0.28116 0.08603 0.0
C38 C 0.0249 0.21871 0.08956 0.0
C39 C 0.01854 0.2118 0.07609 0.0
C40 C 0.02893 0.20908 0.09919 0.0
C41 C 0.01604 0.19514 0.07255 0.0
C42 C 0.02626 0.19248 0.09525 0.0
N43 N 0.0199 0.1859 0.08213 0.0
C44 C 0.04037 0.2686 0.06244 0.0
C45 C 0.00903 0.25398 0.06174 0.0
C46 C 0.04129 0.27139 0.04782 0.0
N47 N 0.0244 0.25995 0.06903 0.0
C48 C 0.00932 0.25674 0.04717 0.0
C49 C 0.02559 0.26529 0.03994 0.0
H50 H 0.05237 0.27296 0.06853 0.0
H51 H 0.99649 0.24679 0.06716 0.0
C52 C 0.98292 0.20222 0.12245 0.0
N53 N 0.989 0.20866 0.10926 0.0
C54 C 0.9683 0.18526 0.12414 0.0
C55 C 0.96653 0.18199 0.09864 0.0
C56 C 0.981 0.19906 0.09746 0.0
C57 C 0.95999 0.17491 0.11212 0.0
H58 H 0.98927 0.21032 0.13165 0.0
H59 H 0.98573 0.20476 0.0871 0.0
O60 O 0.0426 0.27305 0.10062 0.0
O61 O 0.0217 0.24467 0.12373 0.0
O62 O 0.00172 0.2489 0.09923 0.0
O63 O 0.02731 0.23493 0.09322 0.0
H64 H 0.07002 0.2886 0.11801 0.0
H65 H 0.04286 0.29731 0.08356 0.0
H66 H 0.09208 0.32073 0.11797 0.0
H67 H 0.06524 0.3293 0.08427 0.0
H68 H 0.03098 0.21135 0.15591 0.0
H69 H 0.03233 0.2674 0.14505 0.0
H70 H 0.02193 0.21575 0.13201 0.0
H71 H 0.04106 0.26203 0.16876 0.0
H72 H 0.03626 0.31864 0.14074 0.0
H73 H 0.98155 0.27658 0.14006 0.0
H74 H 0.09379 0.25001 0.09507 0.0
H75 H 0.09067 0.25833 0.13985 0.0
H76 H 0.9676 0.23102 0.09329 0.0
H77 H 0.01398 0.28283 0.09359 0.0
H78 H 0.95029 0.24427 0.0837 0.0
H79 H 0.99594 0.2952 0.08396 0.0
H80 H 0.01545 0.21918 0.0685 0.0
H81 H 0.0341 0.21439 0.10958 0.0
H82 H 0.01102 0.18956 0.0622 0.0
H83 H 0.02926 0.18483 0.10261 0.0
H84 H 0.05412 0.27776 0.04272 0.0
H85 H 0.99689 0.25204 0.04164 0.0
H86 H 0.96358 0.18027 0.1347 0.0
H87 H 0.96023 0.17457 0.08912 0.0
Li88 Li 0.79467 0.81321 0.1096 0.0
Li89 Li 0.78035 0.7817 0.11414 0.0
Li90 Li 0.81298 0.79935 0.10854 0.0
Li91 Li 0.79041 0.79177 0.08969 0.0
C92 C 0.8038 0.8113 0.13701 0.0
N93 N 0.81154 0.83226 0.16088 0.0
C94 C 0.79136 0.80644 0.1479 0.0
C95 C 0.82029 0.82666 0.13838 0.0
C96 C 0.79549 0.81725 0.15986 0.0
C97 C 0.82392 0.83713 0.15049 0.0
C98 C 0.75433 0.78606 0.10085 0.0
C99 C 0.72602 0.76333 0.09209 0.0
N100 N 0.71782 0.76958 0.10064 0.0
C101 C 0.74565 0.79244 0.10938 0.0
C102 C 0.74448 0.77155 0.09198 0.0
C103 C 0.72716 0.78385 0.10919 0.0
C104 C 0.80462 0.84853 0.10506 0.0
N105 N 0.79522 0.83474 0.11399 0.0
C106 C 0.78846 0.85282 0.12881 0.0
C107 C 0.7869 0.83646 0.12556 0.0
C108 C 0.79858 0.86744 0.11998 0.0
C109 C 0.80652 0.86506 0.10788 0.0
H110 H 0.81064 0.8467 0.0957 0.0
H111 H 0.77912 0.82517 0.13231 0.0
C112 C 0.76422 0.74777 0.12621 0.0
N113 N 0.76313 0.76275 0.12539 0.0
C114 C 0.75249 0.7337 0.13468 0.0
C115 C 0.73902 0.75088 0.14184 0.0
C116 C 0.7509 0.76458 0.13302 0.0
C117 C 0.73975 0.7352 0.14269 0.0
H118 H 0.77452 0.74688 0.12061 0.0
H119 H 0.75069 0.77684 0.13262 0.0
C120 C 0.82761 0.82675 0.08899 0.0
N121 N 0.86081 0.84998 0.07829 0.0
C122 C 0.83197 0.82488 0.07509 0.0
C123 C 0.84006 0.84063 0.09737 0.0
C124 C 0.84884 0.8367 0.0699 0.0
C125 C 0.85679 0.85218 0.09179 0.0
C126 C 0.79188 0.76009 0.09583 0.0
C127 C 0.80556 0.75616 0.09507 0.0
C128 C 0.77502 0.74781 0.09087 0.0
C129 C 0.80215 0.74002 0.08925 0.0
C130 C 0.77215 0.73182 0.08512 0.0
N131 N 0.78566 0.7283 0.08443 0.0
C132 C 0.84242 0.80328 0.12469 0.0
C133 C 0.84502 0.8028 0.09969 0.0
C134 C 0.85935 0.80551 0.12641 0.0
N135 N 0.83573 0.80214 0.11146 0.0
C136 C 0.86206 0.8054 0.10091 0.0
C137 C 0.86939 0.8068 0.11439 0.0
H138 H 0.8346 0.80238 0.13387 0.0
H139 H 0.83911 0.80117 0.08934 0.0
C140 C 0.77767 0.79286 0.06222 0.0
N141 N 0.78682 0.78694 0.06996 0.0
C142 C 0.7769 0.79119 0.04745 0.0
C143 C 0.79443 0.77682 0.04904 0.0
C144 C 0.79506 0.77899 0.06369 0.0
C145 C 0.78562 0.78333 0.04065 0.0
H146 H 0.77152 0.79943 0.06748 0.0
H147 H 0.80275 0.77493 0.06998 0.0
O148 O 0.79995 0.80092 0.12519 0.0
O149 O 0.77242 0.79435 0.10085 0.0
O150 O 0.81116 0.81522 0.09427 0.0
O151 O 0.79501 0.77582 0.10154 0.0
H152 H 0.77862 0.7945 0.14711 0.0
H153 H 0.8302 0.83041 0.13022 0.0
H154 H 0.78594 0.8137 0.16832 0.0
H155 H 0.8366 0.8491 0.15164 0.0
H156 H 0.71823 0.75203 0.08533 0.0
H157 H 0.7531 0.80381 0.11616 0.0
H158 H 0.75101 0.76679 0.085 0.0
H159 H 0.72026 0.78854 0.11583 0.0
H160 H 0.78203 0.85407 0.13821 0.0
H161 H 0.81399 0.87582 0.10054 0.0
H162 H 0.75381 0.72201 0.13537 0.0
H163 H 0.7295 0.75258 0.14801 0.0
H164 H 0.82247 0.81437 0.06838 0.0
H165 H 0.83682 0.84252 0.10802 0.0
H166 H 0.85242 0.83533 0.05919 0.0
H167 H 0.86657 0.86292 0.09819 0.0
H168 H 0.81865 0.76544 0.09896 0.0
H169 H 0.76425 0.75053 0.09157 0.0
H170 H 0.81261 0.73681 0.08859 0.0
H171 H 0.75916 0.7222 0.08125 0.0
H172 H 0.86461 0.8064 0.13697 0.0
H173 H 0.86931 0.80595 0.09142 0.0
H174 H 0.77018 0.79664 0.04143 0.0
H175 H 0.80113 0.77046 0.04434 0.0
Li176 Li 0.23505 0.00782 0.10995 0.0
Li177 Li 0.26623 0.02544 0.11417 0.0
Li178 Li 0.24764 0.03989 0.11138 0.0
Li179 Li 0.25509 0.02658 0.09122 0.0
C180 C 0.23699 0.02128 0.13833 0.0
N181 N 0.21739 0.01719 0.1625 0.0
C182 C 0.24114 0.01591 0.15102 0.0
C183 C 0.22296 0.02472 0.13797 0.0
C184 C 0.23104 0.01386 0.16311 0.0
C185 C 0.2132 0.02255 0.15029 0.0
C186 C 0.26223 0.99618 0.10247 0.0
C187 C 0.2866 0.99105 0.0984 0.0
N188 N 0.27894 0.97681 0.10722 0.0
C189 C 0.25455 0.98145 0.11144 0.0
C190 C 0.27834 0.00099 0.09584 0.0
C191 C 0.26322 0.97185 0.11372 0.0
C192 C 0.21061 0.97372 0.10195 0.0
N193 N 0.21478 0.9851 0.11302 0.0
C194 C 0.19093 0.9629 0.12668 0.0
C195 C 0.20534 0.98 0.12529 0.0
C196 C 0.18618 0.95094 0.11533 0.0
C197 C 0.19625 0.95656 0.10284 0.0
H198 H 0.21853 0.978 0.09241 0.0
H199 H 0.20898 0.989 0.13408 0.0
C200 C 0.30185 0.03988 0.12268 0.0
N201 N 0.28511 0.02625 0.12463 0.0
C202 C 0.31557 0.04146 0.13127 0.0
C203 C 0.29463 0.0147 0.14349 0.0
C204 C 0.28131 0.01365 0.13466 0.0
C205 C 0.31198 0.02894 0.14202 0.0
H206 H 0.30444 0.04988 0.11482 0.0
H207 H 0.26783 0.00305 0.13605 0.0
C208 C 0.21526 0.01323 0.09123 0.0
N209 N 0.18164 0.99094 0.0808 0.0
C210 C 0.213 0.00411 0.07851 0.0
C211 C 0.20041 0.01114 0.09856 0.0
C212 C 0.1959 0.99288 0.07343 0.0
C213 C 0.18353 -0.00023 0.09314 0.0
C214 C 0.28319 0.05909 0.09406 0.0
C215 C 0.28294 0.07471 0.09133 0.0
C216 C 0.29538 0.05582 0.08702 0.0
C217 C 0.29482 0.08677 0.08149 0.0
C218 C 0.30701 0.06819 0.07724 0.0
N219 N 0.30649 0.08328 0.0747 0.0
C220 C 0.25326 0.07013 0.12707 0.0
C221 C 0.23247 0.0613 0.10829 0.0
C222 C 0.25115 0.0847 0.12998 0.0
N223 N 0.24405 0.05892 0.11631 0.0
C224 C 0.22988 0.07559 0.11086 0.0
C225 C 0.23942 0.08763 0.12174 0.0
H226 H 0.26242 0.06789 0.13324 0.0
H227 H 0.22548 0.05226 0.09971 0.0
C228 C 0.26146 0.01715 0.06388 0.0
N229 N 0.25924 0.02917 0.07143 0.0
C230 C 0.26301 0.01851 0.04914 0.0
C231 C 0.26048 0.04486 0.05036 0.0
C232 C 0.25868 0.04281 0.065 0.0
C233 C 0.26234 0.03243 0.04215 0.0
H234 H 0.26145 0.0062 0.06927 0.0
H235 H 0.25652 0.05194 0.07127 0.0
O236 O 0.24688 0.02351 0.12645 0.0
O237 O 0.25399 0.00581 0.10015 0.0
O238 O 0.2319 0.02404 0.09651 0.0
O239 O 0.27161 0.04709 0.10361 0.0
H240 H 0.25205 0.01335 0.15155 0.0
H241 H 0.21958 0.02892 0.12829 0.0
H242 H 0.23408 0.00966 0.17299 0.0
H243 H 0.20227 0.0251 0.15014 0.0
H244 H 0.2991 0.99465 0.09338 0.0
H245 H 0.24215 0.97759 0.11674 0.0
H246 H 0.28443 0.01229 0.08882 0.0
H247 H 0.25748 0.96048 0.1207 0.0
H248 H 0.18372 0.95904 0.13659 0.0
H249 H 0.19296 0.94789 0.09375 0.0
H250 H 0.32868 0.05285 0.12996 0.0
H251 H 0.29132 0.00474 0.1516 0.0
H252 H 0.22429 0.00546 0.07271 0.0
H253 H 0.20186 0.01817 0.10834 0.0
H254 H 0.19397 0.98566 0.06366 0.0
H255 H 0.17193 0.99797 0.09876 0.0
H256 H 0.27361 0.07745 0.09672 0.0
H257 H 0.29574 0.0438 0.08901 0.0
H258 H 0.29474 0.09889 0.07924 0.0
H259 H 0.31644 0.06578 0.07166 0.0
H260 H 0.25867 0.09361 0.13851 0.0
H261 H 0.22094 0.07752 0.1041 0.0
H262 H 0.26408 0.00842 0.04327 0.0
H263 H 0.26017 0.05596 0.04551 0.0
Li264 Li 0.23251 0.00883 0.89214 0.0
Li265 Li 0.25734 0.02536 0.90976 0.0
Li266 Li 0.25126 0.04115 0.88973 0.0
Li267 Li 0.26345 0.02231 0.88527 0.0
C268 C 0.22031 0.02594 0.91035 0.0
N269 N 0.1884 0.02212 0.91919 0.0
C270 C 0.21505 0.02184 0.92448 0.0
C271 C 0.20944 0.02823 0.90074 0.0
C272 C 0.19884 0.01993 0.92874 0.0
C273 C 0.19333 0.02621 0.9054 0.0
C274 C 0.25682 0.9921 0.89631 0.0
C275 C 0.28048 0.98538 0.8968 0.0
N276 N 0.2706 0.97087 0.88861 0.0
C277 C 0.24685 0.97708 0.88797 0.0
C278 C 0.27373 0.99626 0.90084 0.0
C279 C 0.25407 0.96652 0.88417 0.0
C280 C 0.20418 0.98202 0.87671 0.0
N281 N 0.20934 0.98931 0.88981 0.0
C282 C 0.18141 0.96817 0.89962 0.0
C283 C 0.19846 0.98259 0.90121 0.0
C284 C 0.1757 0.96037 0.88622 0.0
C285 C 0.18731 0.96741 0.87467 0.0
H286 H 0.21324 0.98746 0.86788 0.0
H287 H 0.20309 0.98828 0.91158 0.0
C288 C 0.26686 0.0419 0.93605 0.0
N289 N 0.26355 0.02698 0.92901 0.0
C290 C 0.27004 0.04325 0.95061 0.0
C291 C 0.26689 0.01407 0.95026 0.0
C292 C 0.26368 0.01324 0.9357 0.0
C293 C 0.26979 0.02909 0.95792 0.0
H294 H 0.26661 0.05256 0.93039 0.0
H295 H 0.26082 0.00147 0.9298 0.0
C296 C 0.24035 0.02753 0.86238 0.0
N297 N 0.23295 0.03723 0.83652 0.0
C298 C 0.25341 0.03487 0.85191 0.0
C299 C 0.22347 0.02494 0.85964 0.0
C300 C 0.24942 0.03974 0.83892 0.0
C301 C 0.22001 0.03 0.84651 0.0
C302 C 0.29186 0.05418 0.89609 0.0
C303 C 0.29975 0.06666 0.88526 0.0
C304 C 0.30243 0.05228 0.90627 0.0
C305 C 0.3182 0.07693 0.88471 0.0
C306 C 0.32083 0.06281 0.90535 0.0
N307 N 0.32826 0.07481 0.89468 0.0
C308 C 0.24624 0.06968 0.89551 0.0
C309 C 0.2582 0.07099 0.87271 0.0
C310 C 0.24658 0.08561 0.89313 0.0
N311 N 0.25178 0.0626 0.88529 0.0
C312 C 0.25865 0.0869 0.86982 0.0
C313 C 0.25274 0.0944 0.8801 0.0
H314 H 0.24181 0.0631 0.90562 0.0
H315 H 0.26325 0.06553 0.86499 0.0
C316 C 0.26876 0.00669 0.86208 0.0
N317 N 0.27807 0.01839 0.87253 0.0
C318 C 0.27743 0.00238 0.85182 0.0
C319 C 0.30525 0.02227 0.8632 0.0
C320 C 0.29598 0.02603 0.87337 0.0
C321 C 0.29595 0.0103 0.85222 0.0
H322 H 0.2545 0.00059 0.86179 0.0
H323 H 0.30316 0.0349 0.88192 0.0
O324 O 0.23608 0.02774 0.906 0.0
O325 O 0.25019 0.00286 0.89981 0.0
O326 O 0.24393 0.02242 0.87509 0.0
O327 O 0.27385 0.04423 0.89696 0.0
H328 H 0.22337 0.02007 0.93206 0.0
H329 H 0.21345 0.03162 0.88982 0.0
H330 H 0.19455 0.01669 0.93963 0.0
H331 H 0.18476 0.02792 0.89807 0.0
H332 H 0.2936 0.98851 0.90013 0.0
H333 H 0.23376 0.97373 0.88436 0.0
H334 H 0.28164 0.00792 0.90723 0.0
H335 H 0.24655 0.95491 0.87765 0.0
H336 H 0.17296 0.96288 0.90884 0.0
H337 H 0.18337 0.96171 0.86418 0.0
H338 H 0.27237 0.05512 0.95613 0.0
H339 H 0.26639 0.0028 0.95555 0.0
H340 H 0.26658 0.03705 0.85386 0.0
H341 H 0.21311 0.019 0.86751 0.0
H342 H 0.25944 0.04554 0.83076 0.0
H343 H 0.20701 0.02811 0.84426 0.0
H344 H 0.29172 0.06832 0.87735 0.0
H345 H 0.29651 0.04272 0.91475 0.0
H346 H 0.32452 0.0866 0.87637 0.0
H347 H 0.3292 0.06144 0.91312 0.0
H348 H 0.24241 0.09116 0.90154 0.0
H349 H 0.26356 0.09323 0.85965 0.0
H350 H 0.26962 0.99269 0.84383 0.0
H351 H 0.31954 0.02871 0.86393 0.0
Li352 Li 0.0217 0.25481 0.90656 0.0
Li353 Li 0.03874 0.25093 0.88734 0.0
Li354 Li 0.0232 0.26849 0.88407 0.0
Li355 Li 0.0062 0.23645 0.88503 0.0
C356 C 0.05423 0.28434 0.90706 0.0
N357 N 0.07619 0.30653 0.92808 0.0
C358 C 0.07023 0.28497 0.9101 0.0
C359 C 0.04952 0.29517 0.9146 0.0
C360 C 0.08112 0.29624 0.92079 0.0
C361 C 0.06076 0.30624 0.92522 0.0
C362 C 0.02185 0.21834 0.90318 0.0
C363 C 0.02065 0.19102 0.89665 0.0
N364 N 0.02463 0.18906 0.91023 0.0
C365 C 0.02573 0.21595 0.9171 0.0
C366 C 0.01914 0.2057 0.89289 0.0
C367 C 0.02716 0.2011 0.92044 0.0
C368 C 0.00499 0.25383 0.93231 0.0
N369 N 0.02029 0.25618 0.92652 0.0
C370 C 0.0332 0.25954 0.94944 0.0
C371 C 0.03422 0.25883 0.93474 0.0
C372 C 0.01753 0.25703 0.95571 0.0
C373 C 0.00328 0.2541 0.947 0.0
H374 H 0.99404 0.25149 0.92552 0.0
H375 H 0.04601 0.26009 0.92989 0.0
C376 C 0.06824 0.25492 0.87131 0.0
N377 N 0.05924 0.24915 0.88373 0.0
C378 C 0.08385 0.25441 0.86918 0.0
C379 C 0.08036 0.24173 0.89255 0.0
C380 C 0.06502 0.2427 0.89428 0.0
C381 C 0.09021 0.24791 0.87998 0.0
H382 H 0.06347 0.26024 0.86317 0.0
H383 H 0.058 0.23874 0.90422 0.0
C384 C 0.9918 0.26155 0.89387 0.0
N385 N 0.97223 0.27821 0.89008 0.0
C386 C 0.97775 0.25475 0.88423 0.0
C387 C 0.99575 0.27667 0.90171 0.0
C388 C 0.96804 0.26339 0.88244 0.0
C389 C 0.98575 0.28495 0.8996 0.0
C390 C 0.02148 0.24285 0.85809 0.0
C391 C 0.01425 0.2476 0.84685 0.0
C392 C 0.02581 0.22958 0.85613 0.0
C393 C 0.01104 0.23865 0.83394 0.0
C394 C 0.02239 0.22094 0.84307 0.0
N395 N 0.01511 0.2256 0.83234 0.0
C396 C 0.03905 0.30492 0.87882 0.0
C397 C 0.01302 0.28746 0.8654 0.0
C398 C 0.04168 0.32026 0.87207 0.0
N399 N 0.02501 0.28894 0.87531 0.0
C400 C 0.01516 0.30248 0.85834 0.0
C401 C 0.02981 0.31911 0.8615 0.0
H402 H 0.04857 0.30572 0.88652 0.0
H403 H 0.00202 0.27459 0.86275 0.0
C404 C 0.97944 0.20201 0.88897 0.0
N405 N 0.98571 0.21523 0.87922 0.0
C406 C 0.96515 0.18545 0.88576 0.0
C407 C 0.96299 0.19666 0.86285 0.0
C408 C 0.97762 0.21302 0.86644 0.0
C409 C 0.95688 0.18258 0.87251 0.0
H410 H 0.98562 0.2043 0.89927 0.0
H411 H 0.98244 0.22391 0.85906 0.0
O412 O 0.04336 0.27333 0.89666 0.0
O413 O 0.02038 0.23283 0.89976 0.0
O414 O 0.00155 0.25336 0.89567 0.0
O415 O 0.02468 0.25146 0.87081 0.0
H416 H 0.07421 0.27688 0.90427 0.0
H417 H 0.03727 0.29496 0.91231 0.0
H418 H 0.0935 0.2968 0.92328 0.0
H419 H 0.05721 0.3146 0.93119 0.0
H420 H 0.01858 0.18114 0.88879 0.0
H421 H 0.02767 0.22547 0.92524 0.0
H422 H 0.01561 0.20702 0.88218 0.0
H423 H 0.03025 0.19915 0.93116 0.0
H424 H 0.04434 0.2615 0.95586 0.0
H425 H 0.99098 0.25207 0.95152 0.0
H426 H 0.09111 0.25952 0.85938 0.0
H427 H 0.08455 0.23637 0.9011 0.0
H428 H 0.97448 0.243 0.87812 0.0
H429 H 0.00643 0.28197 0.90934 0.0
H430 H 0.9572 0.25835 0.87495 0.0
H431 H 0.98872 0.29673 0.90555 0.0
H432 H 0.01104 0.25799 0.8481 0.0
H433 H 0.0319 0.2261 0.86454 0.0
H434 H 0.00531 0.2421 0.8252 0.0
H435 H 0.0256 0.21059 0.84144 0.0
H436 H 0.05336 0.33275 0.87462 0.0
H437 H 0.0057 0.30105 0.85027 0.0
H438 H 0.96047 0.175 0.89362 0.0
H439 H 0.95669 0.19493 0.85262 0.0
Li440 Li 0.79918 0.81522 0.88952 0.0
Li441 Li 0.79002 0.79209 0.90773 0.0
Li442 Li 0.81181 0.79579 0.88838 0.0
Li443 Li 0.78047 0.78334 0.88308 0.0
C444 C 0.82715 0.82866 0.90788 0.0
N445 N 0.85351 0.86199 0.91588 0.0
C446 C 0.82651 0.83541 0.92115 0.0
C447 C 0.84126 0.83875 0.89873 0.0
C448 C 0.83994 0.85233 0.92499 0.0
C449 C 0.85444 0.8556 0.90296 0.0
C450 C 0.75803 0.79108 0.90094 0.0
C451 C 0.73031 0.76603 0.90822 0.0
N452 N 0.72406 0.77713 0.91137 0.0
C453 C 0.75133 0.80225 0.9042 0.0
C454 C 0.74746 0.77283 0.90293 0.0
C455 C 0.73413 0.79494 0.90949 0.0
C456 C 0.80481 0.84556 0.87376 0.0
N457 N 0.8027 0.83829 0.88686 0.0
C458 C 0.80325 0.86335 0.89755 0.0
C459 C 0.80182 0.84676 0.89864 0.0
C460 C 0.80517 0.87117 0.88415 0.0
C461 C 0.80612 0.86212 0.87215 0.0
H462 H 0.80501 0.83831 0.86453 0.0
H463 H 0.79968 0.84044 0.90887 0.0
C464 C 0.78926 0.77699 0.9343 0.0
N465 N 0.78442 0.78747 0.92721 0.0
C466 C 0.78631 0.77434 0.94887 0.0
C467 C 0.77331 0.79318 0.9485 0.0
C468 C 0.77663 0.79557 0.93396 0.0
C469 C 0.77835 0.78261 0.95615 0.0
H470 H 0.7957 0.77096 0.92867 0.0
H471 H 0.77341 0.80426 0.92814 0.0
C472 C 0.80964 0.8048 0.86035 0.0
N473 N 0.82715 0.80941 0.83493 0.0
C474 C 0.80281 0.79137 0.85015 0.0
C475 C 0.82529 0.82062 0.85757 0.0
C476 C 0.81188 0.79394 0.83737 0.0
C477 C 0.83398 0.82268 0.84467 0.0
C478 C 0.78497 0.756 0.89577 0.0
C479 C 0.79126 0.74874 0.8857 0.0
C480 C 0.77205 0.74491 0.90548 0.0
C481 C 0.78443 0.73044 0.88546 0.0
C482 C 0.76553 0.72667 0.90487 0.0
N483 N 0.7718 0.71988 0.89496 0.0
C484 C 0.84477 0.80007 0.89523 0.0
C485 C 0.8351 0.78824 0.87225 0.0
C486 C 0.8604 0.79962 0.89344 0.0
N487 N 0.83259 0.79459 0.88466 0.0
C488 C 0.85064 0.78772 0.86993 0.0
C489 C 0.86359 0.79351 0.8806 0.0
H490 H 0.84226 0.80466 0.90513 0.0
H491 H 0.82503 0.78341 0.86416 0.0
C492 C 0.75787 0.77721 0.86104 0.0
N493 N 0.76192 0.76821 0.87066 0.0
C494 C 0.74526 0.76814 0.85058 0.0
C495 C 0.74089 0.74058 0.86028 0.0
C496 C 0.75362 0.75022 0.87058 0.0
C497 C 0.7367 0.74958 0.85004 0.0
H498 H 0.76465 0.79152 0.86142 0.0
H499 H 0.75684 0.74325 0.87837 0.0
O500 O 0.81412 0.81213 0.90394 0.0
O501 O 0.77492 0.7981 0.89593 0.0
O502 O 0.80085 0.80259 0.87285 0.0
O503 O 0.79163 0.77389 0.89629 0.0
H504 H 0.8157 0.82769 0.92837 0.0
H505 H 0.84205 0.83359 0.88851 0.0
H506 H 0.8396 0.85777 0.9352 0.0
H507 H 0.86542 0.86359 0.89597 0.0
H508 H 0.72197 0.75193 0.90982 0.0
H509 H 0.7594 0.81642 0.90273 0.0
H510 H 0.75245 0.76404 0.90042 0.0
H511 H 0.72879 0.80342 0.91212 0.0
H512 H 0.8027 0.86991 0.90712 0.0
H513 H 0.80731 0.86749 0.8616 0.0
H514 H 0.79036 0.76606 0.9544 0.0
H515 H 0.76746 0.80006 0.95377 0.0
H516 H 0.79075 0.779 0.85212 0.0
H517 H 0.83064 0.83123 0.86526 0.0
H518 H 0.80679 0.78363 0.82942 0.0
H519 H 0.84612 0.83484 0.8424 0.0
H520 H 0.80123 0.75713 0.87811 0.0
H521 H 0.76705 0.75029 0.91337 0.0
H522 H 0.78914 0.72462 0.87771 0.0
H523 H 0.75549 0.71792 0.91228 0.0
H524 H 0.86975 0.80376 0.90213 0.0
H525 H 0.8525 0.78292 0.85986 0.0
H526 H 0.74215 0.77559 0.84308 0.0
H527 H 0.73458 0.72627 0.86022 0.0
Li528 Li 0.02314 0.77745 0.88407 0.0
Li529 Li 0.03946 0.80981 0.88785 0.0
Li530 Li 0.02528 0.7886 0.90737 0.0
Li531 Li 0.00708 0.79302 0.88972 0.0
C532 C 0.05614 0.79151 0.90513 0.0
N533 N 0.07749 0.79113 0.92661 0.0
C534 C 0.07082 0.80729 0.90963 0.0
C535 C 0.0524 0.77551 0.91146 0.0
C536 C 0.08144 0.80683 0.92052 0.0
C537 C 0.06332 0.77561 0.92233 0.0
C538 C 0.02699 0.80411 0.86013 0.0
C539 C 0.03069 0.82685 0.84365 0.0
N540 N 0.03831 0.82085 0.83424 0.0
C541 C 0.03478 0.79811 0.85028 0.0
C542 C 0.02483 0.81852 0.85677 0.0
C543 C 0.04043 0.80677 0.83726 0.0
C544 C 0.01001 0.75068 0.86287 0.0
N545 N 0.02279 0.7593 0.87281 0.0
C546 C 0.03754 0.74372 0.86585 0.0
C547 C 0.03632 0.756 0.87449 0.0
C548 C 0.0247 0.73472 0.85533 0.0
C549 C 0.01065 0.73817 0.85401 0.0
H550 H -0.00045 0.75382 0.86162 0.0
H551 H 0.04651 0.76333 0.88224 0.0
C552 C 0.06482 0.84467 0.89371 0.0
N553 N 0.05946 0.8322 0.88336 0.0
C554 C 0.07997 0.86115 0.8919 0.0
C555 C 0.08383 0.85182 0.86872 0.0
C556 C 0.06868 0.8354 0.87105 0.0
C557 C 0.08976 0.86494 0.87928 0.0
H558 H 0.05763 0.84162 0.90359 0.0
H559 H 0.06454 0.82514 0.86316 0.0
C560 C 0.99252 0.75326 0.8944 0.0
N561 N 0.97083 0.71846 0.8863 0.0
C562 C 0.97723 0.74849 0.88649 0.0
C563 C 0.99671 0.74032 0.8983 0.0
C564 C 0.96644 0.73082 0.88249 0.0
C565 C 0.98561 0.7228 0.89406 0.0
C566 C 0.01976 0.82235 0.9071 0.0
C567 C 0.01309 0.82166 0.9207 0.0
C568 C 0.02114 0.83521 0.89753 0.0
C569 C 0.00771 0.83376 0.92444 0.0
C570 C 0.01562 0.84707 0.90167 0.0
N571 N 0.00906 0.84609 0.91492 0.0
C572 C 0.03785 0.80068 0.93459 0.0
C573 C 0.01786 0.76974 0.93342 0.0
C574 C 0.03893 0.79985 0.94927 0.0
N575 N 0.02727 0.7858 0.92704 0.0
C576 C 0.01868 0.76827 0.9481 0.0
C577 C 0.02909 0.78353 0.95621 0.0
H578 H 0.04515 0.81326 0.92918 0.0
H579 H 0.00946 0.75817 0.92714 0.0
C580 C 0.98059 0.79543 0.87396 0.0
N581 N 0.9864 0.79452 0.88714 0.0
C582 C 0.96574 0.7974 0.87235 0.0
C583 C 0.96318 0.79731 0.89789 0.0
C584 C 0.97778 0.79494 0.89898 0.0
C585 C 0.95713 0.79869 0.88446 0.0
H586 H 0.98752 0.79469 0.86472 0.0
H587 H 0.98237 0.79359 0.90929 0.0
O588 O 0.04533 0.79173 0.89471 0.0
O589 O 0.02125 0.79572 0.87289 0.0
O590 O 0.00335 0.77052 0.89828 0.0
O591 O 0.02492 0.8105 0.90321 0.0
H592 H 0.07395 0.81978 0.90483 0.0
H593 H 0.04102 0.76318 0.90817 0.0
H594 H 0.09281 0.81896 0.92415 0.0
H595 H 0.0605 0.76334 0.92741 0.0
H596 H 0.02915 0.83805 0.84092 0.0
H597 H 0.03656 0.78697 0.8527 0.0
H598 H 0.01864 0.82321 0.86419 0.0
H599 H 0.04654 0.80231 0.82955 0.0
H600 H 0.04889 0.74191 0.86702 0.0
H601 H 0.00045 0.73153 0.84608 0.0
H602 H 0.08424 0.87057 0.90054 0.0
H603 H 0.0909 0.85413 0.8588 0.0
H604 H 0.97378 0.75832 0.8834 0.0
H605 H 0.00854 0.7438 0.90435 0.0
H606 H 0.9546 0.72694 0.87631 0.0
H607 H 0.98876 0.71268 0.8969 0.0
H608 H 0.01188 0.81176 0.92823 0.0
H609 H 0.02644 0.83603 0.88703 0.0
H610 H 0.00242 0.83331 0.9349 0.0
H611 H 0.01657 0.85705 0.89435 0.0
H612 H 0.04723 0.81188 0.95517 0.0
H613 H 0.01079 0.75548 0.9531 0.0
H614 H 0.96124 0.79827 0.86184 0.0
H615 H 0.9566 0.79794 0.90743 0.0
Li616 Li 0.25429 0.23844 0.88957 0.0
Li617 Li 0.26042 0.26007 0.90851 0.0
Li618 Li 0.23793 0.25413 0.89025 0.0
Li619 Li 0.26967 0.27002 0.88486 0.0
C620 C 0.22929 0.22099 0.90939 0.0
N621 N 0.21206 0.18631 0.91875 0.0
C622 C 0.23426 0.21658 0.92216 0.0
C623 C 0.21543 0.20779 0.90146 0.0
C624 C 0.22541 0.19896 0.9267 0.0
C625 C 0.20693 0.19033 0.90634 0.0
C626 C 0.29412 0.2628 0.89205 0.0
C627 C 0.32522 0.28459 0.89158 0.0
N628 N 0.3275 0.27588 0.88056 0.0
C629 C 0.29676 0.25405 0.88073 0.0
C630 C 0.30845 0.27819 0.89754 0.0
C631 C 0.31375 0.26087 0.87507 0.0
C632 C 0.24777 0.20839 0.87299 0.0
N633 N 0.25289 0.21649 0.88582 0.0
C634 C 0.25468 0.19213 0.89537 0.0
C635 C 0.2569 0.209 0.89678 0.0
C636 C 0.24881 0.18323 0.88244 0.0
C637 C 0.24565 0.19156 0.87103 0.0
H638 H 0.24519 0.21489 0.86433 0.0
H639 H 0.26147 0.21603 0.90671 0.0
C640 C 0.25087 0.26132 0.93648 0.0
N641 N 0.26478 0.26409 0.92822 0.0
C642 C 0.25278 0.26308 0.95115 0.0
C643 C 0.28343 0.27088 0.94853 0.0
C644 C 0.28088 0.26883 0.93389 0.0
C645 C 0.26919 0.26776 0.95734 0.0
H646 H 0.23819 0.25745 0.93165 0.0
H647 H 0.29162 0.27067 0.92708 0.0
C648 C 0.23883 0.24766 0.86278 0.0
N649 N 0.21551 0.2418 0.84083 0.0
C650 C 0.24213 0.26127 0.85327 0.0
C651 C 0.22364 0.23108 0.86113 0.0
C652 C 0.2302 0.25804 0.84223 0.0
C653 C 0.21201 0.22839 0.84998 0.0
C654 C 0.25633 0.28793 0.90821 0.0
C655 C 0.24043 0.287 0.91213 0.0
C656 C 0.2719 0.29931 0.91552 0.0
C657 C 0.24034 0.29738 0.92337 0.0
C658 C 0.27125 0.30944 0.92672 0.0
N659 N 0.25562 0.30828 0.93038 0.0
C660 C 0.20247 0.24158 0.89681 0.0
C661 C 0.21263 0.26202 0.87774 0.0
C662 C 0.1861 0.24073 0.89661 0.0
N663 N 0.21536 0.25216 0.88752 0.0
C664 C 0.19628 0.26134 0.877 0.0
C665 C 0.18294 0.25083 0.88671 0.0
H666 H 0.20511 0.23431 0.90477 0.0
H667 H 0.2233 0.27091 0.87088 0.0
C668 C 0.2892 0.28481 0.85981 0.0
N669 N 0.28762 0.28813 0.87363 0.0
C670 C 0.30107 0.29843 0.85099 0.0
C671 C 0.31076 0.31811 0.87119 0.0
C672 C 0.29833 0.30425 0.87949 0.0
C673 C 0.31178 0.31553 0.85657 0.0
H674 H 0.28076 0.27171 0.85552 0.0
H675 H 0.29706 0.30641 0.89058 0.0
O676 O 0.23794 0.23812 0.90466 0.0
O677 O 0.2775 0.25657 0.89749 0.0
O678 O 0.25041 0.25052 0.87362 0.0
O679 O 0.25666 0.27772 0.89731 0.0
H680 H 0.245 0.22658 0.92841 0.0
H681 H 0.21128 0.21099 0.89164 0.0
H682 H 0.22919 0.19535 0.93651 0.0
H683 H 0.19626 0.17998 0.90027 0.0
H684 H 0.3364 0.29655 0.89566 0.0
H685 H 0.2858 0.24224 0.87625 0.0
H686 H 0.30659 0.28532 0.90612 0.0
H687 H 0.31598 0.25428 0.86627 0.0
H688 H 0.25741 0.18603 0.90429 0.0
H689 H 0.24127 0.18498 0.86088 0.0
H690 H 0.24152 0.2607 0.95759 0.0
H691 H 0.29622 0.2743 0.95294 0.0
H692 H 0.25362 0.27428 0.85449 0.0
H693 H 0.22082 0.22041 0.86838 0.0
H694 H 0.23258 0.26847 0.83483 0.0
H695 H 0.20021 0.21562 0.84859 0.0
H696 H 0.22826 0.27837 0.9066 0.0
H697 H 0.28427 0.3 0.91282 0.0
H698 H 0.22812 0.29675 0.92653 0.0
H699 H 0.28316 0.31816 0.93256 0.0
H700 H 0.17611 0.23255 0.90431 0.0
H701 H 0.19437 0.26954 0.8694 0.0
H702 H 0.30119 0.29569 0.83982 0.0
H703 H 0.31913 0.33082 0.87615 0.0
Li704 Li 0.81299 0.04438 0.88738 0.0
Li705 Li 0.79345 0.03022 0.90887 0.0
Li706 Li 0.79694 0.01195 0.88979 0.0
Li707 Li 0.7819 0.02791 0.88521 0.0
C708 C 0.82969 0.03119 0.90893 0.0
N709 N 0.85976 0.03464 0.92177 0.0
C710 C 0.83635 0.04134 0.92123 0.0
C711 C 0.83825 0.02266 0.90324 0.0
C712 C 0.85158 0.04296 0.92754 0.0
C713 C 0.85345 0.0246 0.90986 0.0
C714 C 0.78528 0.05711 0.8954 0.0
C715 C 0.76119 0.06079 0.90375 0.0
N716 N 0.76301 0.07085 0.89216 0.0
C717 C 0.787 0.06757 0.88361 0.0
C718 C 0.77234 0.05374 0.90558 0.0
C719 C 0.77557 0.07435 0.88215 0.0
C720 C 0.83329 0.07265 0.86884 0.0
N721 N 0.83388 0.06482 0.88114 0.0
C722 C 0.86397 0.08704 0.88488 0.0
C723 C 0.84879 0.07166 0.88915 0.0
C724 C 0.86376 0.09556 0.87231 0.0
C725 C 0.84817 0.08821 0.86422 0.0
H726 H 0.82119 0.06689 0.86271 0.0
H727 H 0.84886 0.06539 0.89896 0.0
C728 C 0.78091 0.01619 0.93582 0.0
N729 N 0.7908 0.03153 0.92861 0.0
C730 C 0.77911 0.01644 0.9505 0.0
C731 C 0.7978 0.04829 0.95003 0.0
C732 C 0.79903 0.04744 0.93532 0.0
C733 C 0.78781 0.03263 0.95786 0.0
H734 H 0.77453 0.00374 0.93016 0.0
H735 H 0.80686 0.05941 0.92926 0.0
C736 C 0.80971 0.02471 0.8627 0.0
N737 N 0.83072 0.02106 0.84261 0.0
C738 C 0.80312 0.01862 0.8491 0.0
C739 C 0.82699 0.02897 0.86606 0.0
C740 C 0.81394 0.01685 0.8391 0.0
C741 C 0.83741 0.02704 0.85577 0.0
C742 C 0.7595 0.99427 0.89538 0.0
C743 C 0.75769 0.98675 0.88196 0.0
C744 C 0.7451 0.98723 0.90466 0.0
C745 C 0.74146 0.97221 0.87808 0.0
C746 C 0.72908 0.97267 0.90038 0.0
N747 N 0.72761 0.96553 0.8873 0.0
C748 C 0.79781 0.98321 0.90084 0.0
C749 C 0.79731 0.98261 0.87572 0.0
C750 C 0.7977 0.96719 0.90131 0.0
N751 N 0.7976 0.99056 0.8882 0.0
C752 C 0.79725 0.96654 0.87569 0.0
C753 C 0.7973 0.95858 0.88862 0.0
H754 H 0.79797 0.98982 0.91058 0.0
H755 H 0.79679 0.98849 0.86581 0.0
C756 C 0.76505 0.02973 0.86073 0.0
N757 N 0.76264 0.0266 0.87487 0.0
C758 C 0.75096 0.02717 0.85214 0.0
C759 C 0.73242 0.01922 0.87299 0.0
C760 C 0.74685 0.02177 0.88116 0.0
C761 C 0.73425 0.02148 0.8582 0.0
H762 H 0.77781 0.03371 0.85605 0.0
H763 H 0.74537 0.0195 0.89247 0.0
O764 O 0.81473 0.02944 0.90264 0.0
O765 O 0.79605 0.05001 0.89687 0.0
O766 O 0.79915 0.02639 0.87257 0.0
O767 O 0.77512 0.00878 0.89927 0.0
H768 H 0.82995 0.04808 0.92576 0.0
H769 H 0.83324 0.01456 0.89383 0.0
H770 H 0.85692 0.05086 0.93701 0.0
H771 H 0.86023 0.01811 0.90554 0.0
H772 H 0.75105 0.05821 0.9115 0.0
H773 H 0.79692 0.07024 0.87562 0.0
H774 H 0.77078 0.04558 0.91472 0.0
H775 H 0.77666 0.08237 0.87304 0.0
H776 H 0.87562 0.09248 0.89158 0.0
H777 H 0.84751 0.09441 0.85447 0.0
H778 H 0.77099 0.00406 0.95599 0.0
H779 H 0.80495 0.06105 0.9552 0.0
H780 H 0.78972 0.01516 0.84633 0.0
H781 H 0.83236 0.0338 0.87646 0.0
H782 H 0.80898 0.0121 0.82855 0.0
H783 H 0.85082 0.03031 0.85824 0.0
H784 H 0.76863 0.99224 0.87456 0.0
H785 H 0.74624 0.99303 0.91503 0.0
H786 H 0.73985 0.96628 0.86772 0.0
H787 H 0.71781 0.96709 0.90745 0.0
H788 H 0.79794 0.96159 0.9115 0.0
H789 H 0.79671 0.9602 0.86569 0.0
H790 H 0.753 0.02887 0.8408 0.0
H791 H 0.71988 0.01514 0.87817 0.0
Li792 Li 0.80941 0.03897 0.11154 0.0
Li793 Li 0.77667 0.02351 0.11424 0.0
Li794 Li 0.79132 0.00612 0.11173 0.0
Li795 Li 0.78898 0.0234 0.09152 0.0
C796 C 0.80461 0.02291 0.13831 0.0
N797 N 0.82548 0.02342 0.16054 0.0
C798 C 0.80129 0.02642 0.15207 0.0
C799 C 0.81848 0.01959 0.13586 0.0
C800 C 0.81201 0.02665 0.16317 0.0
C801 C 0.82889 0.01991 0.14724 0.0
C802 C 0.79081 0.05531 0.09276 0.0
C803 C 0.77345 0.06184 0.07654 0.0
N804 N 0.78822 0.07725 0.07294 0.0
C805 C 0.80578 0.0713 0.08902 0.0
C806 C 0.77448 0.05061 0.08658 0.0
C807 C 0.80421 0.08218 0.07893 0.0
C808 C 0.84285 0.06595 0.10446 0.0
N809 N 0.83177 0.05894 0.1157 0.0
C810 C 0.85303 0.08128 0.13102 0.0
C811 C 0.83645 0.06625 0.12883 0.0
C812 C 0.86476 0.08888 0.11956 0.0
C813 C 0.85944 0.08097 0.10613 0.0
H814 H 0.83863 0.06 0.09409 0.0
H815 H 0.8273 0.06054 0.13757 0.0
C816 C 0.74711 0.01168 0.13274 0.0
N817 N 0.75847 0.02499 0.12403 0.0
C818 C 0.73501 0.01376 0.14105 0.0
C819 C 0.74666 0.0432 0.13136 0.0
C820 C 0.75839 0.0405 0.12316 0.0
C821 C 0.73497 0.02978 0.14049 0.0
H822 H 0.74791 -0.00025 0.13364 0.0
H823 H 0.76791 0.05108 0.11653 0.0
C824 C 0.82213 0.01939 0.09145 0.0
N825 N 0.84701 0.01384 0.07785 0.0
C826 C 0.81823 0.01078 0.07834 0.0
C827 C 0.83875 0.02529 0.09759 0.0
C828 C 0.83096 0.00806 0.07165 0.0
C829 C 0.85113 0.02233 0.09056 0.0
C830 C 0.75202 0.99243 0.10256 0.0
C831 C 0.74458 0.9774 0.11121 0.0
C832 C 0.74098 0.99664 0.0948 0.0
C833 C 0.72617 0.96701 0.11214 0.0
C834 C 0.72263 0.98593 0.09603 0.0
N835 N 0.71567 0.97146 0.10461 0.0
C836 C 0.78457 0.97722 0.1297 0.0
C837 C 0.7969 0.97747 0.10725 0.0
C838 C 0.78399 0.96138 0.13328 0.0
N839 N 0.79099 0.9849 0.11686 0.0
C840 C 0.79686 0.96188 0.11046 0.0
C841 C 0.79034 0.95365 0.1236 0.0
H842 H 0.77973 0.98332 0.13708 0.0
H843 H 0.80142 0.98348 0.097 0.0
C844 C 0.79918 0.03772 0.06396 0.0
N845 N 0.78698 0.02358 0.0715 0.0
C846 C 0.79851 0.03754 0.04918 0.0
C847 C 0.7731 0.008 0.05021 0.0
C848 C 0.77406 0.00888 0.06497 0.0
C849 C 0.78545 0.02246 0.04216 0.0
H850 H 0.80969 0.04897 0.06941 0.0
H851 H 0.76478 0.99767 0.07123 0.0
O852 O 0.79429 0.02278 0.12735 0.0
O853 O 0.7921 0.04445 0.10257 0.0
O854 O 0.80986 0.02232 0.09809 0.0
O855 O 0.77002 0.00269 0.10144 0.0
H856 H 0.79058 0.02901 0.15413 0.0
H857 H 0.82107 0.01664 0.12532 0.0
H858 H 0.80963 0.02939 0.17387 0.0
H859 H 0.83966 0.01734 0.14549 0.0
H860 H 0.7609 0.05832 0.07164 0.0
H861 H 0.81848 0.07528 0.09382 0.0
H862 H 0.76273 0.03847 0.08955 0.0
H863 H 0.81571 0.09454 0.07588 0.0
H864 H 0.85661 0.08688 0.14156 0.0
H865 H 0.86781 0.08656 0.09691 0.0
H866 H 0.72635 0.00334 0.14826 0.0
H867 H 0.74711 0.05584 0.13094 0.0
H868 H 0.80542 0.00602 0.07345 0.0
H869 H 0.84215 0.03218 0.10763 0.0
H870 H 0.82808 0.00133 0.06154 0.0
H871 H 0.86404 0.02682 0.0952 0.0
H872 H 0.75292 0.97384 0.11718 0.0
H873 H 0.74649 0.00797 0.08781 0.0
H874 H 0.72023 0.9554 0.11885 0.0
H875 H 0.71393 0.98907 0.09011 0.0
H876 H 0.77878 0.9553 0.14348 0.0
H877 H 0.80151 0.95608 0.10261 0.0
H878 H 0.80843 0.04882 0.04329 0.0
H879 H 0.76288 0.99613 0.04512 0.0
Li880 Li 0.00674 0.7948 0.11025 0.0
Li881 Li 0.02275 0.77942 0.11218 0.0
Li882 Li 0.03932 0.81024 0.111 0.0
Li883 Li 0.02397 0.79192 0.08948 0.0
C884 C 0.0215 0.80718 0.13632 0.0
N885 N 0.01937 0.82919 0.15637 0.0
C886 C 0.02081 0.80323 0.15076 0.0
C887 C 0.02094 0.82227 0.13213 0.0
C888 C 0.01978 0.81453 0.16072 0.0
C889 C 0.01992 0.83325 0.1424 0.0
C890 C 0.99163 0.756 0.09966 0.0
C891 C 0.97924 0.72722 0.0888 0.0
N892 N 0.96933 0.7198 0.10062 0.0
C893 C 0.98122 0.74815 0.11165 0.0
C894 C 0.99058 0.74552 0.08809 0.0
C895 C 0.97008 0.72979 0.11195 0.0
C896 C 0.97954 0.80137 0.10356 0.0
N897 N 0.98604 0.79583 0.11422 0.0
C898 C 0.96261 0.79192 0.12961 0.0
C899 C 0.97791 0.79101 0.12705 0.0
C900 C 0.95553 0.79762 0.11878 0.0
C901 C 0.9642 0.80232 0.1056 0.0
H902 H 0.98621 0.8049 0.09342 0.0
H903 H 0.98329 0.78645 0.13529 0.0
C904 C 0.0251 0.76133 0.13546 0.0
N905 N 0.02215 0.75955 0.12127 0.0
C906 C 0.02396 0.74739 0.14343 0.0
C907 C 0.01772 0.73021 0.12194 0.0
C908 C 0.01894 0.74454 0.11436 0.0
C909 C 0.0199 0.73141 0.13674 0.0
H910 H 0.02806 0.77353 0.14063 0.0
H911 H 0.01717 0.74361 0.10301 0.0
C912 C 0.03071 0.82923 0.09041 0.0
N913 N 0.04477 0.86152 0.07675 0.0
C914 C 0.04354 0.83375 0.07988 0.0
C915 C 0.02479 0.84102 0.09379 0.0
C916 C 0.05055 0.85017 0.07316 0.0
C917 C 0.03213 0.85731 0.08682 0.0
C918 C 0.05368 0.78572 0.10363 0.0
C919 C 0.06414 0.79081 0.11585 0.0
C920 C 0.0528 0.77221 0.09508 0.0
C921 C 0.07349 0.78219 0.11937 0.0
C922 C 0.06236 0.76393 0.09896 0.0
N923 N 0.0724 0.76904 0.11093 0.0
C924 C 0.06459 0.83895 0.12898 0.0
C925 C 0.07268 0.838 0.10518 0.0
C926 C 0.08049 0.85467 0.1313 0.0
N927 N 0.06076 0.83125 0.11593 0.0
C928 C 0.08872 0.85363 0.10702 0.0
C929 C 0.09268 0.86229 0.12017 0.0
H930 H 0.05548 0.83298 0.13766 0.0
H931 H 0.0697 0.83121 0.09512 0.0
C932 C 0.01113 0.79173 0.06248 0.0
N933 N 0.02416 0.79071 0.06954 0.0
C934 C 0.01106 0.792 0.0477 0.0
C935 C 0.03766 0.78984 0.04779 0.0
C936 C 0.03732 0.78981 0.06258 0.0
C937 C 0.02449 0.7911 0.04019 0.0
H938 H 0.00094 0.7926 0.06836 0.0
H939 H 0.04774 0.78945 0.0685 0.0
O940 O 0.02201 0.79591 0.12645 0.0
O941 O 0.00257 0.77392 0.09912 0.0
O942 O 0.02354 0.81312 0.09704 0.0
O943 O 0.04416 0.79376 0.10019 0.0
H944 H 0.02095 0.7915 0.15427 0.0
H945 H 0.02141 0.82554 0.12109 0.0
H946 H 0.01925 0.81162 0.17191 0.0
H947 H 0.01956 0.845 0.13927 0.0
H948 H 0.97834 0.71891 0.07996 0.0
H949 H 0.98186 0.75615 0.12065 0.0
H950 H -0.00149 0.75147 0.07871 0.0
H951 H 0.96202 0.72349 0.12119 0.0
H952 H 0.95647 0.78829 0.13996 0.0
H953 H 0.95904 0.80637 0.09682 0.0
H954 H 0.02555 0.74891 0.15482 0.0
H955 H 0.01487 0.71825 0.1163 0.0
H956 H 0.0481 0.82472 0.07696 0.0
H957 H 0.01454 0.83762 0.10164 0.0
H958 H 0.06058 0.85387 0.06506 0.0
H959 H 0.02772 0.86658 0.08938 0.0
H960 H 0.06487 0.80117 0.12262 0.0
H961 H 0.04455 0.76791 0.08571 0.0
H962 H 0.08156 0.78592 0.12883 0.0
H963 H 0.0617 0.75336 0.09251 0.0
H964 H 0.08326 0.86073 0.1417 0.0
H965 H 0.09775 0.85905 0.09815 0.0
H966 H 0.00063 0.79289 0.0422 0.0
H967 H 0.04836 0.78938 0.04235 0.0
Li968 Li 0.26982 0.269 0.11348 0.0
Li969 Li 0.25165 0.23675 0.1114 0.0
Li970 Li 0.25929 0.25609 0.09061 0.0
Li971 Li 0.23834 0.25497 0.10823 0.0
C972 C 0.28617 0.25108 0.09375 0.0
N973 N 0.30708 0.24766 0.07346 0.0
C974 C 0.28375 0.23438 0.09048 0.0
C975 C 0.29928 0.26605 0.08677 0.0
C976 C 0.29446 0.23293 0.08018 0.0
C977 C 0.30969 0.26403 0.07651 0.0
C978 C 0.24704 0.24381 0.13796 0.0
C979 C 0.2285 0.21978 0.15366 0.0
N980 N 0.24224 0.22537 0.1629 0.0
C981 C 0.26095 0.24939 0.14764 0.0
C982 C 0.23065 0.22896 0.141 0.0
C983 C 0.25827 0.23987 0.16019 0.0
C984 C 0.28579 0.29795 0.13257 0.0
N985 N 0.28868 0.2873 0.12379 0.0
C986 C 0.31886 0.3009 0.13103 0.0
C987 C 0.30481 0.28859 0.12283 0.0
C988 C 0.31635 0.31209 0.1403 0.0
C989 C 0.29957 0.31065 0.14085 0.0
H990 H 0.27269 0.29633 0.13336 0.0
H991 H 0.30661 0.27965 0.11602 0.0
C992 C 0.23689 0.1997 0.11089 0.0
N993 N 0.24887 0.21476 0.11759 0.0
C994 C 0.2363 0.1837 0.1137 0.0
C995 C 0.25999 0.19889 0.13064 0.0
C996 C 0.26025 0.21464 0.12737 0.0
C997 C 0.24817 0.18318 0.12352 0.0
H998 H 0.22833 0.20026 0.10286 0.0
H999 H 0.26999 0.2269 0.13225 0.0
C1000 C 0.26568 0.29377 0.10098 0.0
N1001 N 0.28174 0.32978 0.10584 0.0
C1002 C 0.25667 0.30077 0.10835 0.0
C1003 C 0.28282 0.3051 0.096 0.0
C1004 C 0.26502 0.31901 0.11071 0.0
C1005 C 0.29072 0.32326 0.0986 0.0
C1006 C 0.21917 0.22776 0.09114 0.0
C1007 C 0.21552 0.23156 0.07758 0.0
C1008 C 0.20525 0.21625 0.09994 0.0
C1009 C 0.19794 0.2239 0.0731 0.0
C1010 C 0.18785 0.20887 0.09507 0.0
N1011 N 0.18458 0.21282 0.08187 0.0
C1012 C 0.25981 0.24208 0.06409 0.0
C1013 C 0.26818 0.27247 0.06363 0.0
C1014 C 0.26041 0.24164 0.04934 0.0
N1015 N 0.26347 0.25728 0.07086 0.0
C1016 C 0.26896 0.27264 0.04884 0.0
C1017 C 0.26468 0.25697 0.04152 0.0
H1018 H 0.25581 0.23014 0.07015 0.0
H1019 H 0.27065 0.28426 0.06929 0.0
C1020 C 0.21005 0.255 0.12321 0.0
N1021 N 0.21795 0.25698 0.11041 0.0
C1022 C 0.19542 0.25739 0.12448 0.0
C1023 C 0.19743 0.2637 0.09937 0.0
C1024 C 0.21212 0.26146 0.09865 0.0
C1025 C 0.18889 0.26177 0.11243 0.0
H1026 H 0.21526 0.25184 0.13245 0.0
H1027 H 0.21898 0.26337 0.08869 0.0
O1028 O 0.27568 0.25277 0.10367 0.0
O1029 O 0.24941 0.25291 0.1256 0.0
O1030 O 0.2578 0.27594 0.09867 0.0
O1031 O 0.23629 0.23528 0.09579 0.0
H1032 H 0.27365 0.22266 0.09577 0.0
H1033 H 0.30129 0.27906 0.08915 0.0
H1034 H 0.29271 0.22009 0.07751 0.0
H1035 H 0.31982 0.27549 0.07097 0.0
H1036 H 0.21591 0.20821 0.15612 0.0
H1037 H 0.27372 0.26087 0.14544 0.0
H1038 H 0.21973 0.22453 0.13365 0.0
H1039 H 0.26893 0.24398 0.16776 0.0
H1040 H 0.33135 0.30108 0.1305 0.0
H1041 H 0.297 0.31901 0.14778 0.0
H1042 H 0.22721 0.17206 0.10772 0.0
H1043 H 0.26928 0.19914 0.13838 0.0
H1044 H 0.24343 0.29222 0.11233 0.0
H1045 H 0.29 0.2999 0.09032 0.0
H1046 H 0.25823 0.3246 0.11645 0.0
H1047 H 0.30402 0.33217 0.09489 0.0
H1048 H 0.22611 0.2405 0.07064 0.0
H1049 H 0.20786 0.21311 0.11043 0.0
H1050 H 0.19491 0.2268 0.06266 0.0
H1051 H 0.17694 0.20001 0.1018 0.0
H1052 H 0.25717 0.22933 0.0441 0.0
H1053 H 0.27208 0.28468 0.04321 0.0
H1054 H 0.18946 0.25606 0.1348 0.0
H1055 H 0.19275 0.26678 0.08975 0.0
Li1056 Li 0.69193 0.60269 0.44706 0.0
Li1057 Li 0.70813 0.58734 0.44258 0.0
Li1058 Li 0.69235 0.59357 0.42288 0.0
Li1059 Li 0.67541 0.57024 0.44071 0.0
C1060 C 0.72338 0.62795 0.43752 0.0
N1061 N 0.74425 0.66345 0.4439 0.0
C1062 C 0.73731 0.63348 0.44717 0.0
C1063 C 0.72021 0.64046 0.43095 0.0
C1064 C 0.74768 0.6515 0.4503 0.0
C1065 C 0.73086 0.65835 0.43437 0.0
C1066 C 0.69251 0.57422 0.46942 0.0
C1067 C 0.68999 0.54845 0.4811 0.0
N1068 N 0.697 0.55818 0.49307 0.0
C1069 C 0.69946 0.58389 0.4819 0.0
C1070 C 0.68753 0.5563 0.46906 0.0
C1071 C 0.70172 0.57557 0.49372 0.0
C1072 C 0.67721 0.62289 0.4568 0.0
N1073 N 0.69107 0.6201 0.45859 0.0
C1074 C 0.70195 0.64056 0.47793 0.0
C1075 C 0.70343 0.62871 0.46884 0.0
C1076 C 0.68757 0.64347 0.47644 0.0
C1077 C 0.67523 0.63461 0.46559 0.0
H1078 H 0.66732 0.61558 0.44885 0.0
H1079 H 0.7142 0.62607 0.47018 0.0
C1080 C 0.73563 0.58177 0.43512 0.0
N1081 N 0.72857 0.58558 0.44649 0.0
C1082 C 0.7503 0.57961 0.43676 0.0
C1083 C 0.75081 0.58616 0.4617 0.0
C1084 C 0.73599 0.58809 0.45958 0.0
C1085 C 0.75799 0.58164 0.4502 0.0
H1086 H 0.7298 0.58037 0.42475 0.0
H1087 H 0.7305 0.59166 0.46837 0.0
C1088 C 0.66017 0.59207 0.42563 0.0
N1089 N 0.63756 0.59692 0.40809 0.0
C1090 C 0.6433 0.5779 0.42261 0.0
C1091 C 0.66546 0.60875 0.41985 0.0
C1092 C 0.63208 0.58061 0.41369 0.0
C1093 C 0.65386 0.61092 0.41097 0.0
C1094 C 0.69224 0.5568 0.42165 0.0
C1095 C 0.68813 0.5524 0.40737 0.0
C1096 C 0.69569 0.54591 0.43037 0.0
C1097 C 0.68724 0.537 0.40211 0.0
C1098 C 0.6947 0.53064 0.4247 0.0
N1099 N 0.6905 0.52653 0.41081 0.0
C1100 C 0.70802 0.61056 0.39695 0.0
C1101 C 0.67764 0.5888 0.3956 0.0
C1102 C 0.7086 0.61333 0.38232 0.0
N1103 N 0.69269 0.5984 0.40323 0.0
C1104 C 0.67748 0.59151 0.38107 0.0
C1105 C 0.69318 0.60368 0.37411 0.0
H1106 H 0.71988 0.61778 0.40326 0.0
H1107 H 0.66578 0.57879 0.40074 0.0
C1108 C 0.64515 0.54271 0.45493 0.0
N1109 N 0.65446 0.5479 0.4426 0.0
C1110 C 0.62918 0.52661 0.4556 0.0
C1111 C 0.63294 0.52154 0.43099 0.0
C1112 C 0.64863 0.53774 0.43076 0.0
C1113 C 0.6228 0.51584 0.44346 0.0
H1114 H 0.64995 0.55122 0.46413 0.0
H1115 H 0.65594 0.54242 0.42098 0.0
O1116 O 0.71303 0.61037 0.43439 0.0
O1117 O 0.69017 0.58217 0.45777 0.0
O1118 O 0.67136 0.58961 0.43427 0.0
O1119 O 0.6932 0.57187 0.42694 0.0
H1120 H 0.73998 0.62395 0.45228 0.0
H1121 H 0.70966 0.63641 0.42329 0.0
H1122 H 0.75844 0.65597 0.45782 0.0
H1123 H 0.72851 0.66818 0.42943 0.0
H1124 H 0.68625 0.53461 0.48095 0.0
H1125 H 0.70318 0.59771 0.48243 0.0
H1126 H 0.68166 0.54848 0.45966 0.0
H1127 H 0.70721 0.58294 0.5034 0.0
H1128 H 0.71175 0.64711 0.48617 0.0
H1129 H 0.6637 0.6361 0.46429 0.0
H1130 H 0.75571 0.57659 0.42754 0.0
H1131 H 0.75643 0.58796 0.47222 0.0
H1132 H 0.63892 0.56495 0.42709 0.0
H1133 H 0.67841 0.61987 0.42215 0.0
H1134 H 0.61902 0.56975 0.41122 0.0
H1135 H 0.65782 0.62373 0.40637 0.0
H1136 H 0.68557 0.56074 0.40043 0.0
H1137 H 0.69937 0.54933 0.44133 0.0
H1138 H 0.68398 0.53339 0.39109 0.0
H1139 H 0.69735 0.52211 0.43134 0.0
H1140 H 0.72114 0.62258 0.37751 0.0
H1141 H 0.66513 0.58397 0.3754 0.0
H1142 H 0.62171 0.52291 0.46539 0.0
H1143 H 0.62877 0.51364 0.42142 0.0
Li1144 Li 0.44782 0.11171 0.44482 0.0
Li1145 Li 0.46005 0.14307 0.44223 0.0
Li1146 Li 0.46117 0.12593 0.42232 0.0
Li1147 Li 0.4811 0.13239 0.44328 0.0
C1148 C 0.42224 0.11657 0.43264 0.0
N1149 N 0.38591 0.10121 0.43494 0.0
C1150 C 0.41488 0.12275 0.44272 0.0
C1151 C 0.41112 0.10268 0.42364 0.0
C1152 C 0.39648 0.11479 0.44374 0.0
C1153 C 0.39279 0.09506 0.425 0.0
C1154 C 0.46798 0.13946 0.47075 0.0
C1155 C 0.48914 0.1612 0.4869 0.0
N1156 N 0.47591 0.15712 0.49639 0.0
C1157 C 0.45462 0.13543 0.48069 0.0
C1158 C 0.48541 0.15239 0.47389 0.0
C1159 C 0.45889 0.14454 0.49358 0.0
C1160 C 0.43054 0.07549 0.45211 0.0
N1161 N 0.43007 0.09072 0.45381 0.0
C1162 C 0.40552 0.07629 0.46969 0.0
C1163 C 0.41791 0.09139 0.46242 0.0
C1164 C 0.40573 0.0604 0.4681 0.0
C1165 C 0.41835 0.06007 0.45907 0.0
H1166 H 0.44072 0.07538 0.44569 0.0
H1167 H 0.41807 0.10372 0.46394 0.0
C1168 C 0.44804 0.16597 0.43512 0.0
N1169 N 0.45619 0.1625 0.44591 0.0
C1170 C 0.4453 0.18038 0.43585 0.0
C1171 C 0.45912 0.18733 0.45894 0.0
C1172 C 0.46166 0.1728 0.45773 0.0
C1173 C 0.451 0.19137 0.44784 0.0
H1174 H 0.44401 0.1577 0.42576 0.0
H1175 H 0.46833 0.17012 0.46612 0.0
C1176 C 0.46393 0.09642 0.42424 0.0
N1177 N 0.46044 0.07102 0.40497 0.0
C1178 C 0.47846 0.0944 0.42099 0.0
C1179 C 0.44763 0.08551 0.4177 0.0
C1180 C 0.47642 0.08147 0.41122 0.0
C1181 C 0.44614 0.07275 0.40798 0.0
C1182 C 0.48572 0.16604 0.42581 0.0
C1183 C 0.481 0.16994 0.41271 0.0
C1184 C 0.49519 0.17966 0.43554 0.0
C1185 C 0.48573 0.18742 0.40959 0.0
C1186 C 0.49962 0.19697 0.43203 0.0
N1187 N 0.49484 0.20045 0.41924 0.0
C1188 C 0.44752 0.12358 0.39465 0.0
C1189 C 0.47378 0.12193 0.39605 0.0
C1190 C 0.44745 0.12228 0.37989 0.0
N1191 N 0.46056 0.12336 0.40236 0.0
C1192 C 0.47399 0.12013 0.38139 0.0
C1193 C 0.46081 0.12048 0.37303 0.0
H1194 H 0.43739 0.12515 0.39994 0.0
H1195 H 0.48423 0.12224 0.40243 0.0
C1196 C 0.50514 0.12177 0.4522 0.0
N1197 N 0.5037 0.13601 0.44836 0.0
C1198 C 0.5218 0.12346 0.45403 0.0
C1199 C 0.53513 0.15468 0.4488 0.0
C1200 C 0.51823 0.15229 0.44676 0.0
C1201 C 0.53716 0.14005 0.45208 0.0
H1202 H 0.49333 0.10893 0.45323 0.0
H1203 H 0.51672 0.16335 0.44356 0.0
O1204 O 0.44023 0.12428 0.43139 0.0
O1205 O 0.46412 0.13043 0.4582 0.0
O1206 O 0.46568 0.10912 0.43367 0.0
O1207 O 0.48077 0.14892 0.4292 0.0
H1208 H 0.42325 0.13339 0.44985 0.0
H1209 H 0.41657 0.09788 0.41565 0.0
H1210 H 0.39061 0.11936 0.45156 0.0
H1211 H 0.38403 0.08427 0.41812 0.0
H1212 H 0.50255 0.17129 0.48943 0.0
H1213 H 0.44109 0.12542 0.47849 0.0
H1214 H 0.4959 0.15573 0.46635 0.0
H1215 H 0.44867 0.14158 0.50136 0.0
H1216 H 0.39606 0.0771 0.47663 0.0
H1217 H 0.41928 0.04821 0.45786 0.0
H1218 H 0.43927 0.18317 0.42693 0.0
H1219 H 0.46359 0.19538 0.46843 0.0
H1220 H 0.49121 0.10282 0.42585 0.0
H1221 H 0.43628 0.0869 0.42013 0.0
H1222 H 0.48756 0.07979 0.40858 0.0
H1223 H 0.4336 0.06424 0.40284 0.0
H1224 H 0.47364 0.15958 0.40506 0.0
H1225 H 0.49871 0.17686 0.44582 0.0
H1226 H 0.4821 0.19062 0.39951 0.0
H1227 H 0.50677 0.2076 0.43952 0.0
H1228 H 0.43726 0.12309 0.37396 0.0
H1229 H 0.48442 0.11851 0.37672 0.0
H1230 H 0.52257 0.1117 0.4563 0.0
H1231 H 0.54647 0.1678 0.44747 0.0
Li1232 Li 0.93176 0.36025 0.44676 0.0
Li1233 Li 0.90124 0.34038 0.44168 0.0
Li1234 Li 0.92283 0.3587 0.42223 0.0
Li1235 Li 0.91293 0.37269 0.4411 0.0
C1236 C 0.92844 0.3285 0.43656 0.0
N1237 N 0.942 0.3065 0.44213 0.0
C1238 C 0.92434 0.31905 0.44928 0.0
C1239 C 0.93932 0.32669 0.42663 0.0
C1240 C 0.93137 0.30801 0.45191 0.0
C1241 C 0.94607 0.31552 0.42965 0.0
C1242 C 0.90319 0.3527 0.47014 0.0
C1243 C 0.88127 0.35031 0.48694 0.0
N1244 N 0.88714 0.34261 0.49638 0.0
C1245 C 0.90911 0.3449 0.48006 0.0
C1246 C 0.88925 0.35557 0.47364 0.0
C1247 C 0.90079 0.33984 0.49325 0.0
C1248 C 0.95218 0.37387 0.4708 0.0
N1249 N 0.95081 0.36433 0.45902 0.0
C1250 C 0.97595 0.36212 0.4661 0.0
C1251 C 0.96253 0.35871 0.45637 0.0
C1252 C 0.97744 0.37165 0.47853 0.0
C1253 C 0.96541 0.37768 0.48074 0.0
H1254 H 0.943 0.37863 0.47243 0.0
H1255 H 0.96165 0.35173 0.4467 0.0
C1256 C 0.86981 0.31031 0.43368 0.0
N1257 N 0.88071 0.31795 0.44495 0.0
C1258 C 0.85429 0.29406 0.43518 0.0
C1259 C 0.86177 0.29344 0.45975 0.0
C1260 C 0.87715 0.30973 0.45777 0.0
C1261 C 0.85001 0.28548 0.44839 0.0
H1262 H 0.87318 0.31686 0.4235 0.0
H1263 H 0.88622 0.31568 0.46646 0.0
C1264 C 0.95473 0.39073 0.4359 0.0
N1265 N 0.9905 0.41085 0.44155 0.0
C1266 C 0.96094 0.4049 0.44538 0.0
C1267 C 0.96667 0.38682 0.42923 0.0
C1268 C 0.9791 0.41491 0.44811 0.0
C1269 C 0.98472 0.39715 0.43224 0.0
C1270 C 0.88284 0.35327 0.42292 0.0
C1271 C 0.87933 0.35547 0.40885 0.0
C1272 C 0.8701 0.34959 0.43335 0.0
C1273 C 0.86307 0.35405 0.40545 0.0
C1274 C 0.854 0.34825 0.42952 0.0
N1275 N 0.85085 0.3505 0.41577 0.0
C1276 C 0.92005 0.3453 0.3946 0.0
C1277 C 0.93839 0.37639 0.39713 0.0
C1278 C 0.92209 0.34672 0.37989 0.0
N1279 N 0.928 0.36007 0.4028 0.0
C1280 C 0.94082 0.37842 0.38251 0.0
C1281 C 0.93231 0.36351 0.37366 0.0
H1282 H 0.91164 0.33254 0.39946 0.0
H1283 H 0.94434 0.3879 0.40394 0.0
C1284 C 0.91133 0.39952 0.45677 0.0
N1285 N 0.90801 0.39127 0.44398 0.0
C1286 C 0.90882 0.41401 0.45863 0.0
C1287 C 0.89927 0.411 0.43422 0.0
C1288 C 0.90217 0.39674 0.43279 0.0
C1289 C 0.90277 0.41993 0.44723 0.0
H1290 H 0.91624 0.39503 0.46542 0.0
H1291 H 0.90017 0.39031 0.42262 0.0
O1292 O 0.92177 0.33939 0.43375 0.0
O1293 O 0.91139 0.35806 0.45727 0.0
O1294 O 0.93699 0.38045 0.43341 0.0
O1295 O 0.89871 0.35468 0.42641 0.0
H1296 H 0.91596 0.32035 0.45706 0.0
H1297 H 0.94256 0.33393 0.41673 0.0
H1298 H 0.92839 0.30067 0.46173 0.0
H1299 H 0.95456 0.31403 0.42209 0.0
H1300 H 0.87044 0.35241 0.48978 0.0
H1301 H 0.91986 0.34254 0.47753 0.0
H1302 H 0.88472 0.3619 0.46622 0.0
H1303 H 0.90515 0.33368 0.50098 0.0
H1304 H 0.98498 0.35729 0.46393 0.0
H1305 H 0.96637 0.38554 0.48993 0.0
H1306 H 0.84583 0.28818 0.42603 0.0
H1307 H 0.859 0.28728 0.47011 0.0
H1308 H 0.95182 0.40801 0.45067 0.0
H1309 H 0.96201 0.37578 0.42196 0.0
H1310 H 0.98411 0.42587 0.45547 0.0
H1311 H 0.99412 0.39422 0.42723 0.0
H1312 H 0.88909 0.35829 0.40066 0.0
H1313 H 0.87257 0.34767 0.44424 0.0
H1314 H 0.86017 0.35575 0.39461 0.0
H1315 H 0.84399 0.3454 0.43748 0.0
H1316 H 0.9151 0.33492 0.37346 0.0
H1317 H 0.94897 0.39156 0.37816 0.0
H1318 H 0.91168 0.4206 0.46882 0.0
H1319 H 0.89495 0.41539 0.4251 0.0
Li1320 Li 0.91975 0.35818 0.24096 0.0
Li1321 Li 0.89678 0.34287 0.22208 0.0
Li1322 Li 0.92816 0.35455 0.21706 0.0
Li1323 Li 0.91724 0.37459 0.21993 0.0
C1324 C 0.9204 0.32554 0.23233 0.0
N1325 N 0.93638 0.30512 0.234 0.0
C1326 C 0.91222 0.30864 0.22632 0.0
C1327 C 0.93667 0.33206 0.23922 0.0
C1328 C 0.92052 0.29851 0.22728 0.0
C1329 C 0.94455 0.32153 0.23994 0.0
C1330 C 0.88392 0.3607 0.23779 0.0
C1331 C 0.85932 0.36379 0.22988 0.0
N1332 N 0.85131 0.35769 0.24265 0.0
C1333 C 0.87552 0.35457 0.25085 0.0
C1334 C 0.87584 0.36544 0.22723 0.0
C1335 C 0.859 0.35309 0.2531 0.0
C1336 C 0.93504 0.37371 0.26727 0.0
N1337 N 0.92407 0.35834 0.26046 0.0
C1338 C 0.91856 0.34184 0.28187 0.0
C1339 C 0.91585 0.34258 0.26739 0.0
C1340 C 0.92976 0.35751 0.28926 0.0
C1341 C 0.93809 0.37361 0.28178 0.0
H1342 H 0.94135 0.38603 0.26142 0.0
H1343 H 0.90711 0.3306 0.26164 0.0
C1344 C 0.86765 0.31728 0.20606 0.0
N1345 N 0.87368 0.32361 0.21928 0.0
C1346 C 0.85121 0.30198 0.20427 0.0
C1347 C 0.84759 0.30011 0.22973 0.0
C1348 C 0.86405 0.31542 0.23102 0.0
C1349 C 0.8411 0.29306 0.21623 0.0
H1350 H 0.87585 0.32375 0.19693 0.0
H1351 H 0.86939 0.32052 0.24141 0.0
C1352 C 0.95544 0.38878 0.22506 0.0
N1353 N 0.98937 0.41399 0.21728 0.0
C1354 C 0.95869 0.39622 0.21151 0.0
C1355 C 0.96941 0.39415 0.23466 0.0
C1356 C 0.97595 0.40896 0.20778 0.0
C1357 C 0.98648 0.40691 0.23052 0.0
C1358 C 0.90864 0.3609 0.19199 0.0
C1359 C 0.92264 0.36664 0.18237 0.0
C1360 C 0.8929 0.36015 0.18783 0.0
C1361 C 0.9207 0.37173 0.16875 0.0
C1362 C 0.89149 0.36537 0.17412 0.0
N1363 N 0.9053 0.37101 0.16495 0.0
C1364 C 0.93413 0.33458 0.19807 0.0
C1365 C 0.96083 0.35597 0.20908 0.0
C1366 C 0.94296 0.32722 0.1911 0.0
N1367 N 0.94308 0.34852 0.20697 0.0
C1368 C 0.97029 0.34924 0.20205 0.0
C1369 C 0.96121 0.33451 0.19317 0.0
H1370 H 0.91999 0.32884 0.19678 0.0
H1371 H 0.96757 0.36671 0.2165 0.0
C1372 C 0.91985 0.40622 0.227 0.0
N1373 N 0.91944 0.39682 0.21539 0.0
C1374 C 0.92109 0.42269 0.22549 0.0
C1375 C 0.9215 0.41959 0.20005 0.0
C1376 C 0.92051 0.40326 0.20206 0.0
C1377 C 0.92178 0.42945 0.21187 0.0
H1378 H 0.91908 0.4008 0.23746 0.0
H1379 H 0.92065 0.39588 0.19297 0.0
O1380 O 0.91274 0.33585 0.23116 0.0
O1381 O 0.90004 0.36214 0.23541 0.0
O1382 O 0.93872 0.37619 0.22895 0.0
O1383 O 0.91024 0.3557 0.20532 0.0
H1384 H 0.89965 0.30348 0.22089 0.0
H1385 H 0.94326 0.34521 0.24379 0.0
H1386 H 0.91438 0.28542 0.22264 0.0
H1387 H 0.95719 0.32643 0.24517 0.0
H1388 H 0.85288 0.36738 0.2218 0.0
H1389 H 0.88167 0.3509 0.25914 0.0
H1390 H 0.88226 0.37036 0.21711 0.0
H1391 H 0.8523 0.3483 0.26314 0.0
H1392 H 0.91167 0.32921 0.28727 0.0
H1393 H 0.94691 0.38595 0.28709 0.0
H1394 H 0.84679 0.29681 0.19369 0.0
H1395 H 0.84014 0.29368 0.23922 0.0
H1396 H 0.94803 0.39214 0.20396 0.0
H1397 H 0.96709 0.38843 0.24517 0.0
H1398 H 0.97868 0.41483 0.19733 0.0
H1399 H 0.99743 0.41116 0.23782 0.0
H1400 H 0.93488 0.3672 0.1854 0.0
H1401 H 0.88189 0.35562 0.19511 0.0
H1402 H 0.93143 0.37626 0.16121 0.0
H1403 H 0.87941 0.36492 0.17077 0.0
H1404 H 0.93562 0.31587 0.18426 0.0
H1405 H 0.98437 0.35504 0.2039 0.0
H1406 H 0.92116 0.42991 0.23485 0.0
H1407 H 0.9222 0.42453 0.18939 0.0
Li1408 Li 0.6903 0.59145 0.24091 0.0
Li1409 Li 0.70733 0.58538 0.22251 0.0
Li1410 Li 0.69113 0.60202 0.21718 0.0
Li1411 Li 0.67507 0.57091 0.22141 0.0
C1412 C 0.72262 0.62078 0.2397 0.0
N1413 N 0.7446 0.64482 0.25976 0.0
C1414 C 0.73833 0.62128 0.24362 0.0
C1415 C 0.71817 0.6326 0.24588 0.0
C1416 C 0.74925 0.63352 0.2538 0.0
C1417 C 0.72943 0.64462 0.25603 0.0
C1418 C 0.68081 0.55201 0.24063 0.0
C1419 C 0.67041 0.52109 0.23624 0.0
N1420 N 0.6605 0.51683 0.24826 0.0
C1421 C 0.67063 0.54734 0.25299 0.0
C1422 C 0.68082 0.53881 0.23223 0.0
C1423 C 0.66042 0.52947 0.25665 0.0
C1424 C 0.67428 0.59326 0.26631 0.0
N1425 N 0.6894 0.59502 0.26063 0.0
C1426 C 0.70229 0.59873 0.28359 0.0
C1427 C 0.70323 0.59756 0.26892 0.0
C1428 C 0.68673 0.59661 0.28974 0.0
C1429 C 0.67259 0.59387 0.28098 0.0
H1430 H 0.66331 0.59076 0.25947 0.0
H1431 H 0.71479 0.59815 0.26418 0.0
C1432 C 0.74076 0.5934 0.2108 0.0
N1433 N 0.7278 0.58337 0.22023 0.0
C1434 C 0.75631 0.59245 0.21035 0.0
C1435 C 0.74452 0.57058 0.22905 0.0
C1436 C 0.72934 0.57203 0.22919 0.0
C1437 C 0.75842 0.5811 0.21974 0.0
H1438 H 0.7392 0.60242 0.20389 0.0
H1439 H 0.7189 0.56434 0.23667 0.0
C1440 C 0.66 0.59612 0.2267 0.0
N1441 N 0.63942 0.61113 0.22051 0.0
C1442 C 0.64589 0.5878 0.21719 0.0
C1443 C 0.66355 0.61197 0.23317 0.0
C1444 C 0.63566 0.59562 0.21417 0.0
C1445 C 0.65302 0.61938 0.22986 0.0
C1446 C 0.68922 0.57274 0.19426 0.0
C1447 C 0.67925 0.57343 0.18292 0.0
C1448 C 0.69637 0.56155 0.19347 0.0
C1449 C 0.67648 0.5628 0.17104 0.0
C1450 C 0.6933 0.55112 0.18141 0.0
N1451 N 0.6835 0.55196 0.17053 0.0
C1452 C 0.70582 0.63744 0.20838 0.0
C1453 C 0.68003 0.61715 0.1958 0.0
C1454 C 0.70791 0.65129 0.19968 0.0
N1455 N 0.69218 0.62076 0.20618 0.0
C1456 C 0.68164 0.63059 0.18681 0.0
C1457 C 0.69592 0.64787 0.18855 0.0
H1458 H 0.71544 0.63991 0.21656 0.0
H1459 H 0.66933 0.60377 0.19427 0.0
C1460 C 0.6418 0.54516 0.22878 0.0
N1461 N 0.65371 0.54908 0.21815 0.0
C1462 C 0.62628 0.52883 0.22916 0.0
C1463 C 0.63493 0.52109 0.20716 0.0
C1464 C 0.65053 0.5375 0.20735 0.0
C1465 C 0.62282 0.51654 0.21833 0.0
H1466 H 0.64471 0.55456 0.23726 0.0
H1467 H 0.66019 0.54064 0.19912 0.0
O1468 O 0.71174 0.60885 0.22979 0.0
O1469 O 0.69049 0.56939 0.23665 0.0
O1470 O 0.6702 0.5887 0.22975 0.0
O1471 O 0.69242 0.58338 0.20582 0.0
H1472 H 0.74201 0.61227 0.23892 0.0
H1473 H 0.70611 0.63242 0.24292 0.0
H1474 H 0.7614 0.63401 0.25699 0.0
H1475 H 0.7261 0.65378 0.26096 0.0
H1476 H 0.67016 0.51073 0.22978 0.0
H1477 H 0.67045 0.55738 0.2596 0.0
H1478 H 0.6886 0.54219 0.22263 0.0
H1479 H 0.65239 0.52565 0.26614 0.0
H1480 H 0.71328 0.60048 0.29012 0.0
H1481 H 0.66032 0.59196 0.28547 0.0
H1482 H 0.76676 0.60092 0.2031 0.0
H1483 H 0.74543 0.56144 0.23631 0.0
H1484 H 0.64298 0.57552 0.21208 0.0
H1485 H 0.67433 0.61848 0.24064 0.0
H1486 H 0.62475 0.58939 0.20678 0.0
H1487 H 0.65566 0.63169 0.23474 0.0
H1488 H 0.6737 0.58206 0.18328 0.0
H1489 H 0.70414 0.56083 0.20209 0.0
H1490 H 0.66877 0.56318 0.16221 0.0
H1491 H 0.69871 0.54237 0.18069 0.0
H1492 H 0.71928 0.66435 0.20123 0.0
H1493 H 0.67207 0.62743 0.17839 0.0
H1494 H 0.61714 0.52575 0.2379 0.0
H1495 H 0.63265 0.51181 0.19868 0.0
Li1496 Li 0.45623 0.12361 0.24024 0.0
Li1497 Li 0.4627 0.14577 0.22143 0.0
Li1498 Li 0.44505 0.11299 0.21632 0.0
Li1499 Li 0.47671 0.12746 0.21987 0.0
C1500 C 0.42534 0.12601 0.23673 0.0
N1501 N 0.39728 0.12278 0.25267 0.0
C1502 C 0.42385 0.14092 0.23969 0.0
C1503 C 0.41244 0.10942 0.24174 0.0
C1504 C 0.4096 0.13902 0.2478 0.0
C1505 C 0.39839 0.10807 0.24982 0.0
C1506 C 0.49153 0.16055 0.24041 0.0
C1507 C 0.51792 0.18904 0.23772 0.0
N1508 N 0.51599 0.19324 0.25123 0.0
C1509 C 0.48991 0.16507 0.25433 0.0
C1510 C 0.50574 0.17256 0.23208 0.0
C1511 C 0.50237 0.18169 0.25958 0.0
C1512 C 0.45848 0.10934 0.26631 0.0
N1513 N 0.45238 0.1193 0.26004 0.0
C1514 C 0.44233 0.12395 0.28232 0.0
C1515 C 0.4446 0.12674 0.26774 0.0
C1516 C 0.44864 0.11387 0.28905 0.0
C1517 C 0.45685 0.10653 0.28095 0.0
H1518 H 0.46488 0.10383 0.25997 0.0
H1519 H 0.4406 0.13527 0.26269 0.0
C1520 C 0.46144 0.17188 0.20448 0.0
N1521 N 0.46485 0.16821 0.21773 0.0
C1522 C 0.46198 0.1879 0.20173 0.0
C1523 C 0.46974 0.19609 0.22626 0.0
C1524 C 0.46878 0.17986 0.22857 0.0
C1525 C 0.46619 0.20021 0.21273 0.0
H1526 H 0.45801 0.16224 0.1961 0.0
H1527 H 0.47064 0.17634 0.23914 0.0
C1528 C 0.4492 0.0873 0.22923 0.0
N1529 N 0.43088 0.05072 0.22964 0.0
C1530 C 0.45469 0.07783 0.22071 0.0
C1531 C 0.4346 0.07817 0.23816 0.0
C1532 C 0.44519 0.05934 0.22101 0.0
C1533 C 0.42545 0.05967 0.23817 0.0
C1534 C 0.47426 0.13777 0.19296 0.0
C1535 C 0.47045 0.12622 0.18153 0.0
C1536 C 0.4887 0.15496 0.19218 0.0
C1537 C 0.48144 0.13195 0.16962 0.0
C1538 C 0.49936 0.1602 0.18009 0.0
N1539 N 0.49556 0.14867 0.16916 0.0
C1540 C 0.41026 0.09479 0.20599 0.0
C1541 C 0.42886 0.08456 0.19684 0.0
C1542 C 0.3963 0.08284 0.19753 0.0
N1543 N 0.42612 0.09541 0.20552 0.0
C1544 C 0.41527 0.07246 0.18809 0.0
C1545 C 0.39876 0.07161 0.18832 0.0
H1546 H 0.4086 0.10396 0.21258 0.0
H1547 H 0.44175 0.08565 0.19641 0.0
C1548 C 0.51203 0.13597 0.22299 0.0
N1549 N 0.49748 0.12704 0.21468 0.0
C1550 C 0.52751 0.13572 0.21986 0.0
C1551 C 0.51271 0.11684 0.19977 0.0
C1552 C 0.49748 0.11746 0.20331 0.0
C1553 C 0.52801 0.12608 0.20811 0.0
H1554 H 0.51151 0.14301 0.23223 0.0
H1555 H 0.48557 0.11008 0.19711 0.0
O1556 O 0.4393 0.12768 0.22889 0.0
O1557 O 0.47941 0.14434 0.2351 0.0
O1558 O 0.45831 0.1054 0.22905 0.0
O1559 O 0.46372 0.13234 0.20476 0.0
H1560 H 0.43361 0.15383 0.23581 0.0
H1561 H 0.4132 0.09771 0.23935 0.0
H1562 H 0.40834 0.15046 0.25022 0.0
H1563 H 0.38834 0.09533 0.25379 0.0
H1564 H 0.52895 0.19848 0.23137 0.0
H1565 H 0.4791 0.1559 0.26097 0.0
H1566 H 0.50745 0.16915 0.22143 0.0
H1567 H 0.50121 0.1854 0.2703 0.0
H1568 H 0.4363 0.13012 0.28835 0.0
H1569 H 0.462 0.09883 0.28589 0.0
H1570 H 0.45908 0.19061 0.19116 0.0
H1571 H 0.4726 0.20507 0.23509 0.0
H1572 H 0.46608 0.08469 0.21385 0.0
H1573 H 0.43045 0.08528 0.24508 0.0
H1574 H 0.44921 0.05185 0.21438 0.0
H1575 H 0.41408 0.05244 0.24498 0.0
H1576 H 0.45922 0.11293 0.18189 0.0
H1577 H 0.49156 0.16419 0.20077 0.0
H1578 H 0.47873 0.12311 0.16075 0.0
H1579 H 0.51063 0.17345 0.17937 0.0
H1580 H 0.38394 0.08295 0.19775 0.0
H1581 H 0.4177 0.06409 0.18107 0.0
H1582 H 0.53883 0.14263 0.22682 0.0
H1583 H 0.51251 0.10921 0.19065 0.0
Li1584 Li 0.6706 0.12681 0.22174 0.0
Li1585 Li 0.68629 0.12242 0.24282 0.0
Li1586 Li 0.703 0.14252 0.22283 0.0
Li1587 Li 0.68687 0.11135 0.21954 0.0
C1588 C 0.6873 0.1591 0.24086 0.0
N1589 N 0.68831 0.18953 0.25045 0.0
C1590 C 0.68215 0.15998 0.25472 0.0
C1591 C 0.69312 0.17375 0.23192 0.0
C1592 C 0.68269 0.17546 0.25935 0.0
C1593 C 0.69351 0.189 0.23696 0.0
C1594 C 0.65726 0.08677 0.22982 0.0
C1595 C 0.65153 0.05784 0.23697 0.0
N1596 N 0.64148 0.05078 0.22516 0.0
C1597 C 0.64681 0.07925 0.21779 0.0
C1598 C 0.65961 0.07603 0.23953 0.0
C1599 C 0.63897 0.06101 0.2156 0.0
C1600 C 0.64221 0.12279 0.2042 0.0
N1601 N 0.65051 0.12864 0.2169 0.0
C1602 C 0.63065 0.1387 0.22356 0.0
C1603 C 0.64487 0.13621 0.22661 0.0
C1604 C 0.62194 0.13301 0.2105 0.0
C1605 C 0.62768 0.12476 0.20078 0.0
H1606 H 0.64697 0.11672 0.19671 0.0
H1607 H 0.65136 0.14028 0.23676 0.0
C1608 C 0.70258 0.1259 0.26882 0.0
N1609 N 0.68657 0.12012 0.26263 0.0
C1610 C 0.70394 0.12548 0.28351 0.0
C1611 C 0.67225 0.11325 0.28517 0.0
C1612 C 0.6715 0.11373 0.2704 0.0
C1613 C 0.68868 0.11929 0.29194 0.0
H1614 H 0.71434 0.13106 0.26233 0.0
H1615 H 0.65897 0.10941 0.26512 0.0
C1616 C 0.69034 0.13977 0.19487 0.0
N1617 N 0.69667 0.16101 0.17134 0.0
C1618 C 0.69846 0.13757 0.18288 0.0
C1619 C 0.68533 0.15269 0.19484 0.0
C1620 C 0.70158 0.14845 0.1711 0.0
C1621 C 0.68867 0.16332 0.18286 0.0
C1622 C 0.72198 0.12505 0.22766 0.0
C1623 C 0.72694 0.12911 0.21346 0.0
C1624 C 0.73212 0.12094 0.23669 0.0
C1625 C 0.74201 0.12904 0.20854 0.0
C1626 C 0.74711 0.12102 0.23137 0.0
N1627 N 0.7517 0.12503 0.21752 0.0
C1628 C 0.73171 0.17217 0.23296 0.0
C1629 C 0.73195 0.17211 0.20784 0.0
C1630 C 0.74758 0.18819 0.2333 0.0
N1631 N 0.72423 0.1645 0.2204 0.0
C1632 C 0.74793 0.1882 0.20768 0.0
C1633 C 0.75598 0.19638 0.22055 0.0
H1634 H 0.72529 0.16573 0.24277 0.0
H1635 H 0.72594 0.16566 0.19798 0.0
C1636 C 0.68492 0.09001 0.19627 0.0
N1637 N 0.68814 0.09267 0.21039 0.0
C1638 C 0.68942 0.07892 0.18892 0.0
C1639 C 0.69934 0.0727 0.211 0.0
C1640 C 0.6946 0.08384 0.21791 0.0
C1641 C 0.69736 0.07066 0.19624 0.0
H1642 H 0.67974 0.09722 0.1906 0.0
H1643 H 0.69699 0.08623 0.22916 0.0
O1644 O 0.68663 0.14392 0.23616 0.0
O1645 O 0.66541 0.10463 0.23196 0.0
O1646 O 0.68724 0.12918 0.20646 0.0
O1647 O 0.70701 0.12458 0.23265 0.0
H1648 H 0.67763 0.14878 0.26179 0.0
H1649 H 0.69748 0.17348 0.22126 0.0
H1650 H 0.67865 0.17629 0.27003 0.0
H1651 H 0.69798 0.20044 0.23015 0.0
H1652 H 0.6533 0.04936 0.24436 0.0
H1653 H 0.64495 0.08744 0.21015 0.0
H1654 H 0.66773 0.08171 0.24887 0.0
H1655 H 0.63093 0.05499 0.2063 0.0
H1656 H 0.62632 0.14475 0.23144 0.0
H1657 H 0.62117 0.12014 0.19063 0.0
H1658 H 0.71683 0.13 0.2882 0.0
H1659 H 0.66018 0.10863 0.29121 0.0
H1660 H 0.70245 0.12764 0.1827 0.0
H1661 H 0.67887 0.15449 0.20393 0.0
H1662 H 0.70792 0.14694 0.16178 0.0
H1663 H 0.68489 0.17339 0.18272 0.0
H1664 H 0.71918 0.13214 0.20628 0.0
H1665 H 0.72837 0.11758 0.24767 0.0
H1666 H 0.74596 0.13212 0.19757 0.0
H1667 H 0.75506 0.11784 0.23824 0.0
H1668 H 0.75317 0.19414 0.24346 0.0
H1669 H 0.75409 0.19398 0.19762 0.0
H1670 H 0.68779 0.07778 0.17752 0.0
H1671 H 0.70524 0.0664 0.21704 0.0
Li1672 Li 0.92637 0.59607 0.24094 0.0
Li1673 Li 0.92299 0.57355 0.22378 0.0
Li1674 Li 0.93625 0.60429 0.21698 0.0
Li1675 Li 0.90461 0.58677 0.22166 0.0
C1676 C 0.96237 0.60202 0.22747 0.0
N1677 N 0.99725 0.61939 0.21868 0.0
C1678 C 0.9683 0.59392 0.21786 0.0
C1679 C 0.97418 0.61891 0.23266 0.0
C1680 C 0.98598 0.60294 0.21354 0.0
C1681 C 0.99176 0.62749 0.22807 0.0
C1682 C 0.89844 0.55603 0.24317 0.0
C1683 C 0.88068 0.5243 0.24089 0.0
N1684 N 0.88565 0.52243 0.25415 0.0
C1685 C 0.9033 0.55381 0.2568 0.0
C1686 C 0.88695 0.54117 0.23517 0.0
C1687 C 0.8967 0.53671 0.26216 0.0
C1688 C 0.91672 0.60193 0.268 0.0
N1689 N 0.93004 0.60195 0.26051 0.0
C1690 C 0.94707 0.60702 0.28162 0.0
C1691 C 0.94506 0.60449 0.26696 0.0
C1692 C 0.93347 0.60695 0.28969 0.0
C1693 C 0.91827 0.60467 0.28261 0.0
H1694 H 0.90472 0.5994 0.26265 0.0
H1695 H 0.95523 0.60396 0.2608 0.0
C1696 C 0.9223 0.54505 0.20878 0.0
N1697 N 0.92499 0.55312 0.22158 0.0
C1698 C 0.9246 0.53041 0.20721 0.0
C1699 C 0.93248 0.53282 0.23202 0.0
C1700 C 0.93027 0.54752 0.23304 0.0
C1701 C 0.92969 0.52405 0.21896 0.0
H1702 H 0.91864 0.55015 0.19974 0.0
H1703 H 0.93279 0.55454 0.24298 0.0
C1704 C 0.92071 0.62287 0.23715 0.0
N1705 N 0.91888 0.64576 0.25643 0.0
C1706 C 0.9044 0.62148 0.24035 0.0
C1707 C 0.93609 0.63597 0.24371 0.0
C1708 C 0.90376 0.63317 0.25012 0.0
C1709 C 0.93488 0.64738 0.25345 0.0
C1710 C 0.90759 0.57954 0.19515 0.0
C1711 C 0.91054 0.59303 0.18562 0.0
C1712 C 0.89321 0.56252 0.19308 0.0
C1713 C 0.899 0.58926 0.1742 0.0
C1714 C 0.88196 0.55928 0.18154 0.0
N1715 N 0.88506 0.57261 0.17241 0.0
C1716 C 0.95693 0.61543 0.19251 0.0
C1717 C 0.96029 0.63897 0.20724 0.0
C1718 C 0.96742 0.62736 0.18204 0.0
N1719 N 0.95323 0.6214 0.20461 0.0
C1720 C 0.97109 0.65138 0.19716 0.0
C1721 C 0.97434 0.64555 0.18423 0.0
H1722 H 0.95107 0.60135 0.19075 0.0
H1723 H 0.957 0.6433 0.21691 0.0
C1724 C 0.86741 0.57005 0.22316 0.0
N1725 N 0.88197 0.58327 0.21674 0.0
C1726 C 0.85081 0.56832 0.22088 0.0
C1727 C 0.86443 0.5935 0.20507 0.0
C1728 C 0.8808 0.59486 0.20778 0.0
C1729 C 0.84925 0.58032 0.2119 0.0
H1730 H 0.86875 0.56121 0.23041 0.0
H1731 H 0.89268 0.60555 0.20314 0.0
O1732 O 0.94501 0.59361 0.23153 0.0
O1733 O 0.90495 0.57265 0.23765 0.0
O1734 O 0.92161 0.61148 0.22768 0.0
O1735 O 0.91862 0.583 0.20649 0.0
H1736 H 0.95929 0.5809 0.21367 0.0
H1737 H 0.96977 0.62539 0.24004 0.0
H1738 H 0.99075 0.59687 0.20606 0.0
H1739 H 0.00103 0.6406 0.23194 0.0
H1740 H 0.87188 0.51268 0.23478 0.0
H1741 H 0.91218 0.56514 0.26315 0.0
H1742 H 0.88305 0.54266 0.22461 0.0
H1743 H 0.90042 0.53479 0.27266 0.0
H1744 H 0.95886 0.60837 0.2866 0.0
H1745 H 0.90754 0.60475 0.28831 0.0
H1746 H 0.92265 0.52431 0.19688 0.0
H1747 H 0.93618 0.5283 0.24142 0.0
H1748 H 0.89235 0.6114 0.23544 0.0
H1749 H 0.94879 0.63713 0.24147 0.0
H1750 H 0.89122 0.6322 0.25273 0.0
H1751 H 0.94666 0.65749 0.25867 0.0
H1752 H 0.92145 0.60635 0.18714 0.0
H1753 H 0.8907 0.55193 0.20035 0.0
H1754 H 0.90108 0.59959 0.16678 0.0
H1755 H 0.87074 0.54618 0.17984 0.0
H1756 H 0.96969 0.62243 0.17219 0.0
H1757 H 0.97603 0.66531 0.19913 0.0
H1758 H 0.83937 0.55797 0.22632 0.0
H1759 H 0.86378 0.60316 0.19826 0.0
Li1760 Li 0.47707 0.37467 0.22275 0.0
Li1761 Li 0.45571 0.35751 0.24219 0.0
Li1762 Li 0.46344 0.34273 0.22222 0.0
Li1763 Li 0.44596 0.35666 0.21783 0.0
C1764 C 0.49597 0.3679 0.24162 0.0
N1765 N 0.53099 0.38666 0.24996 0.0
C1766 C 0.50058 0.37721 0.25442 0.0
C1767 C 0.50913 0.36796 0.23313 0.0
C1768 C 0.51837 0.38665 0.25843 0.0
C1769 C 0.52677 0.37758 0.23751 0.0
C1770 C 0.44742 0.38489 0.22891 0.0
C1771 C 0.42054 0.38557 0.23329 0.0
N1772 N 0.4258 0.39898 0.22376 0.0
C1773 C 0.45262 0.39873 0.21922 0.0
C1774 C 0.43131 0.37828 0.23607 0.0
C1775 C 0.44147 0.40567 0.21674 0.0
C1776 C 0.50565 0.3998 0.20603 0.0
N1777 N 0.49796 0.39634 0.21904 0.0
C1778 C 0.52075 0.42407 0.22787 0.0
C1779 C 0.50494 0.4082 0.22981 0.0
C1780 C 0.52935 0.4278 0.21467 0.0
C1781 C 0.52148 0.41554 0.2036 0.0
H1782 H 0.49957 0.39032 0.19756 0.0
H1783 H 0.49826 0.40525 0.23994 0.0
C1784 C 0.4438 0.34129 0.26879 0.0
N1785 N 0.45089 0.35692 0.2617 0.0
C1786 C 0.44102 0.34079 0.28338 0.0
C1787 C 0.45315 0.37254 0.28307 0.0
C1788 C 0.45543 0.37238 0.26845 0.0
C1789 C 0.44595 0.35661 0.2907 0.0
H1790 H 0.44057 0.32926 0.26312 0.0
H1791 H 0.46117 0.38461 0.26249 0.0
C1792 C 0.46883 0.35194 0.19453 0.0
N1793 N 0.47467 0.3377 0.17036 0.0
C1794 C 0.45517 0.3429 0.18473 0.0
C1795 C 0.48544 0.35372 0.19203 0.0
C1796 C 0.4584 0.33582 0.17257 0.0
C1797 C 0.48813 0.34642 0.17976 0.0
C1798 C 0.42314 0.3228 0.22977 0.0
C1799 C 0.41783 0.3112 0.21825 0.0
C1800 C 0.41096 0.32031 0.24042 0.0
C1801 C 0.40036 0.29723 0.21759 0.0
C1802 C 0.39362 0.30619 0.23936 0.0
N1803 N 0.38872 0.29504 0.22806 0.0
C1804 C 0.47626 0.32012 0.22911 0.0
C1805 C 0.46085 0.31266 0.20727 0.0
C1806 C 0.47926 0.30588 0.2279 0.0
N1807 N 0.46722 0.32327 0.21888 0.0
C1808 C 0.46376 0.29843 0.20551 0.0
C1809 C 0.47297 0.29476 0.21597 0.0
H1810 H 0.4809 0.3285 0.23839 0.0
H1811 H 0.45333 0.31507 0.19941 0.0
C1812 C 0.43312 0.36646 0.19454 0.0
N1813 N 0.42768 0.35627 0.20641 0.0
C1814 C 0.42076 0.36607 0.18494 0.0
C1815 C 0.39741 0.34524 0.20025 0.0
C1816 C 0.41023 0.34634 0.20967 0.0
C1817 C 0.40258 0.35487 0.18749 0.0
H1818 H 0.44712 0.37461 0.19238 0.0
H1819 H 0.40614 0.33897 0.21942 0.0
O1820 O 0.47865 0.35877 0.23741 0.0
O1821 O 0.45788 0.37758 0.23116 0.0
O1822 O 0.466 0.35917 0.20642 0.0
O1823 O 0.44021 0.33641 0.23075 0.0
H1824 H 0.49054 0.37724 0.26112 0.0
H1825 H 0.50574 0.36068 0.22327 0.0
H1826 H 0.52215 0.39399 0.26827 0.0
H1827 H 0.53711 0.37782 0.23102 0.0
H1828 H 0.40798 0.38052 0.23867 0.0
H1829 H 0.46504 0.40392 0.21357 0.0
H1830 H 0.42709 0.36749 0.24355 0.0
H1831 H 0.44526 0.41632 0.20921 0.0
H1832 H 0.52616 0.43333 0.2366 0.0
H1833 H 0.52766 0.41792 0.19327 0.0
H1834 H 0.43565 0.3283 0.28897 0.0
H1835 H 0.45708 0.38497 0.28839 0.0
H1836 H 0.44216 0.34116 0.18655 0.0
H1837 H 0.49614 0.36062 0.19951 0.0
H1838 H 0.44795 0.32876 0.16491 0.0
H1839 H 0.50091 0.34768 0.17771 0.0
H1840 H 0.42705 0.31303 0.20988 0.0
H1841 H 0.41479 0.32929 0.24933 0.0
H1842 H 0.39605 0.28814 0.20873 0.0
H1843 H 0.38403 0.30414 0.2475 0.0
H1844 H 0.48603 0.3034 0.23643 0.0
H1845 H 0.45879 0.29038 0.19606 0.0
H1846 H 0.42544 0.37413 0.17548 0.0
H1847 H 0.38362 0.33631 0.20274 0.0
Li1848 Li 0.47924 0.37228 0.44527 0.0
Li1849 Li 0.4473 0.35804 0.44753 0.0
Li1850 Li 0.4612 0.34055 0.44342 0.0
Li1851 Li 0.45911 0.35864 0.42385 0.0
C1852 C 0.47267 0.36276 0.47242 0.0
N1853 N 0.49052 0.3781 0.4973 0.0
C1854 C 0.46647 0.37112 0.48152 0.0
C1855 C 0.48797 0.36224 0.47597 0.0
C1856 C 0.47566 0.37876 0.49406 0.0
C1857 C 0.49681 0.37008 0.48859 0.0
C1858 C 0.45923 0.39218 0.43458 0.0
C1859 C 0.44528 0.40612 0.42211 0.0
N1860 N 0.45199 0.41947 0.43179 0.0
C1861 C 0.46597 0.40601 0.4444 0.0
C1862 C 0.44879 0.39221 0.42333 0.0
C1863 C 0.46217 0.4197 0.4428 0.0
C1864 C 0.51499 0.3955 0.44052 0.0
N1865 N 0.50183 0.39203 0.44992 0.0
C1866 C 0.52104 0.41816 0.46309 0.0
C1867 C 0.50454 0.40298 0.46109 0.0
C1868 C 0.53463 0.42227 0.45328 0.0
C1869 C 0.53155 0.41064 0.44198 0.0
H1870 H 0.51244 0.38678 0.43159 0.0
H1871 H 0.4938 0.40032 0.46818 0.0
C1872 C 0.4217 0.34644 0.46883 0.0
N1873 N 0.42816 0.35778 0.45766 0.0
C1874 C 0.40897 0.34649 0.47775 0.0
C1875 C 0.40908 0.36926 0.4631 0.0
C1876 C 0.42163 0.36859 0.45438 0.0
C1877 C 0.40291 0.35846 0.47521 0.0
H1878 H 0.42691 0.33774 0.47107 0.0
H1879 H 0.42643 0.37709 0.44527 0.0
C1880 C 0.48797 0.34732 0.42671 0.0
N1881 N 0.50282 0.32665 0.42031 0.0
C1882 C 0.48334 0.33746 0.41419 0.0
C1883 C 0.50028 0.34683 0.43591 0.0
C1884 C 0.49098 0.32705 0.41115 0.0
C1885 C 0.50759 0.33624 0.43251 0.0
C1886 C 0.42206 0.33 0.43459 0.0
C1887 C 0.41288 0.31541 0.44352 0.0
C1888 C 0.41283 0.33653 0.42694 0.0
C1889 C 0.39451 0.30764 0.44474 0.0
C1890 C 0.39447 0.3284 0.42846 0.0
N1891 N 0.38577 0.31425 0.43726 0.0
C1892 C 0.46602 0.3155 0.45914 0.0
C1893 C 0.45331 0.30631 0.43631 0.0
C1894 C 0.46591 0.29959 0.46114 0.0
N1895 N 0.46002 0.31861 0.4468 0.0
C1896 C 0.45295 0.29023 0.43785 0.0
C1897 C 0.45946 0.28678 0.45034 0.0
H1898 H 0.471 0.3254 0.46739 0.0
H1899 H 0.44857 0.30918 0.42664 0.0
C1900 C 0.46714 0.37691 0.39804 0.0
N1901 N 0.45737 0.36073 0.40412 0.0
C1902 C 0.46681 0.37881 0.38339 0.0
C1903 C 0.44666 0.34728 0.38154 0.0
C1904 C 0.44714 0.34604 0.39626 0.0
C1905 C 0.45667 0.36383 0.37487 0.0
H1906 H 0.47525 0.38832 0.4046 0.0
H1907 H 0.4397 0.33332 0.40143 0.0
O1908 O 0.46375 0.355 0.46017 0.0
O1909 O 0.46315 0.37889 0.43575 0.0
O1910 O 0.48029 0.35721 0.43006 0.0
O1911 O 0.44005 0.33802 0.43351 0.0
H1912 H 0.45482 0.3719 0.47889 0.0
H1913 H 0.49308 0.35601 0.469 0.0
H1914 H 0.47103 0.38529 0.50118 0.0
H1915 H 0.5087 0.36983 0.49144 0.0
H1916 H 0.43718 0.40629 0.41349 0.0
H1917 H 0.47403 0.40618 0.45317 0.0
H1918 H 0.44328 0.3815 0.41572 0.0
H1919 H 0.46731 0.4305 0.45032 0.0
H1920 H 0.5229 0.42701 0.47181 0.0
H1921 H 0.54175 0.41344 0.4342 0.0
H1922 H 0.40434 0.33765 0.48678 0.0
H1923 H 0.40499 0.37883 0.46071 0.0
H1924 H 0.47382 0.33769 0.40697 0.0
H1925 H 0.50404 0.35446 0.44561 0.0
H1926 H 0.48744 0.31926 0.40154 0.0
H1927 H 0.51705 0.33564 0.43957 0.0
H1928 H 0.41989 0.31025 0.44952 0.0
H1929 H 0.4198 0.34786 0.42002 0.0
H1930 H 0.38722 0.29638 0.45165 0.0
H1931 H 0.38714 0.33336 0.42268 0.0
H1932 H 0.4708 0.29733 0.47101 0.0
H1933 H 0.44805 0.28081 0.4292 0.0
H1934 H 0.47451 0.39188 0.37881 0.0
H1935 H 0.43892 0.3353 0.37545 0.0
Li1936 Li 0.67307 0.12468 0.44536 0.0
Li1937 Li 0.69091 0.11004 0.4482 0.0
Li1938 Li 0.70556 0.14149 0.44237 0.0
Li1939 Li 0.68686 0.11815 0.42501 0.0
C1940 C 0.68887 0.13514 0.47226 0.0
N1941 N 0.68203 0.14581 0.49791 0.0
C1942 C 0.68203 0.12324 0.48358 0.0
C1943 C 0.69229 0.15249 0.47401 0.0
C1944 C 0.67866 0.12889 0.49646 0.0
C1945 C 0.68872 0.15762 0.48705 0.0
C1946 C 0.65597 0.08883 0.42915 0.0
C1947 C 0.64813 0.06625 0.41133 0.0
N1948 N 0.63177 0.06449 0.4103 0.0
C1949 C 0.63902 0.08668 0.42798 0.0
C1950 C 0.66052 0.07843 0.42084 0.0
C1951 C 0.627 0.07434 0.41837 0.0
C1952 C 0.64536 0.13048 0.43942 0.0
N1953 N 0.65295 0.12661 0.45039 0.0
C1954 C 0.63129 0.1257 0.46644 0.0
C1955 C 0.64613 0.12402 0.4637 0.0
C1956 C 0.62315 0.12971 0.4553 0.0
C1957 C 0.63037 0.13199 0.44162 0.0
H1958 H 0.6508 0.13207 0.42888 0.0
H1959 H 0.65204 0.12051 0.4722 0.0
C1960 C 0.70175 0.09764 0.47172 0.0
N1961 N 0.69291 0.0929 0.45917 0.0
C1962 C 0.7011 0.08469 0.48081 0.0
C1963 C 0.68351 0.06249 0.46333 0.0
C1964 C 0.68425 0.07581 0.45472 0.0
C1965 C 0.69153 0.06682 0.47675 0.0
H1966 H 0.70864 0.11139 0.47493 0.0
H1967 H 0.67733 0.07243 0.44472 0.0
C1968 C 0.68949 0.15597 0.42495 0.0
N1969 N 0.69564 0.18852 0.41544 0.0
C1970 C 0.6945 0.16102 0.41088 0.0
C1971 C 0.68738 0.16735 0.43412 0.0
C1972 C 0.69761 0.17758 0.4063 0.0
C1973 C 0.69061 0.18378 0.42913 0.0
C1974 C 0.72026 0.11635 0.43677 0.0
C1975 C 0.7338 0.12493 0.44672 0.0
C1976 C 0.71732 0.10054 0.43061 0.0
C1977 C 0.74416 0.11744 0.45041 0.0
C1978 C 0.72796 0.09348 0.43459 0.0
N1979 N 0.74104 0.102 0.44434 0.0
C1980 C 0.73381 0.17059 0.45683 0.0
C1981 C 0.73286 0.1733 0.43189 0.0
C1982 C 0.7488 0.18743 0.45772 0.0
N1983 N 0.72606 0.16405 0.44406 0.0
C1984 C 0.74763 0.19023 0.4323 0.0
C1985 C 0.75571 0.19751 0.44534 0.0
H1986 H 0.72839 0.16273 0.46631 0.0
H1987 H 0.72685 0.16748 0.42184 0.0
C1988 C 0.66946 0.11131 0.39865 0.0
N1989 N 0.68428 0.11353 0.40528 0.0
C1990 C 0.66766 0.10882 0.38401 0.0
C1991 C 0.69669 0.11163 0.38326 0.0
C1992 C 0.69778 0.11372 0.39796 0.0
C1993 C 0.68148 0.10918 0.37616 0.0
H1994 H 0.65916 0.11172 0.40472 0.0
H1995 H 0.70956 0.11588 0.4035 0.0
O1996 O 0.69236 0.12986 0.4596 0.0
O1997 O 0.66795 0.10095 0.43844 0.0
O1998 O 0.68654 0.13988 0.42963 0.0
O1999 O 0.70965 0.12319 0.43334 0.0
H2000 H 0.67912 0.10971 0.48238 0.0
H2001 H 0.69773 0.16192 0.46543 0.0
H2002 H 0.6733 0.11979 0.50528 0.0
H2003 H 0.6913 0.171 0.48855 0.0
H2004 H 0.65156 0.05827 0.40473 0.0
H2005 H 0.63516 0.09441 0.43446 0.0
H2006 H 0.67362 0.08002 0.42147 0.0
H2007 H 0.61387 0.0726 0.41733 0.0
H2008 H 0.6263 0.1239 0.47717 0.0
H2009 H 0.62434 0.13457 0.43259 0.0
H2010 H 0.70745 0.08849 0.49109 0.0
H2011 H 0.67581 0.04884 0.45991 0.0
H2012 H 0.69612 0.15232 0.40363 0.0
H2013 H 0.6832 0.1635 0.44495 0.0
H2014 H 0.70162 0.18172 0.39547 0.0
H2015 H 0.68908 0.19275 0.43613 0.0
H2016 H 0.73615 0.13712 0.45164 0.0
H2017 H 0.70682 0.09369 0.42294 0.0
H2018 H 0.75463 0.12388 0.45815 0.0
H2019 H 0.72578 0.08119 0.42997 0.0
H2020 H 0.75478 0.1926 0.46796 0.0
H2021 H 0.75284 0.19745 0.42249 0.0
H2022 H 0.65587 0.10724 0.37882 0.0
H2023 H 0.70762 0.11204 0.37749 0.0
Li2024 Li 0.93802 0.60366 0.44602 0.0
Li2025 Li 0.91889 0.57166 0.44262 0.0
Li2026 Li 0.92333 0.59362 0.42331 0.0
Li2027 Li 0.90489 0.59025 0.44386 0.0
C2028 C 0.95797 0.59227 0.43135 0.0
N2029 N 0.9931 0.601 0.43049 0.0
C2030 C 0.9632 0.58086 0.4372 0.0
C2031 C 0.97058 0.60798 0.42487 0.0
C2032 C 0.98103 0.58555 0.43671 0.0
C2033 C 0.98828 0.61219 0.4246 0.0
C2034 C 0.9143 0.57818 0.4716 0.0
C2035 C 0.89225 0.55755 0.48783 0.0
N2036 N 0.90511 0.56143 0.49764 0.0
C2037 C 0.92726 0.58214 0.48192 0.0
C2038 C 0.89662 0.56595 0.47464 0.0
C2039 C 0.92237 0.57346 0.49499 0.0
C2040 C 0.96364 0.63789 0.45629 0.0
N2041 N 0.95898 0.62052 0.45542 0.0
C2042 C 0.98522 0.62607 0.46763 0.0
C2043 C 0.9692 0.61442 0.46118 0.0
C2044 C 0.9905 0.64408 0.46851 0.0
C2045 C 0.97946 0.65001 0.46297 0.0
H2046 H 0.95511 0.64233 0.45181 0.0
H2047 H 0.96488 0.60047 0.46078 0.0
C2048 C 0.90911 0.53652 0.43615 0.0
N2049 N 0.91638 0.54907 0.44642 0.0
C2050 C 0.90777 0.52002 0.43802 0.0
C2051 C 0.92149 0.52966 0.46102 0.0
C2052 C 0.92261 0.54599 0.45867 0.0
C2053 C 0.9141 0.51643 0.45057 0.0
H2054 H 0.90462 0.53945 0.42637 0.0
H2055 H 0.92887 0.55633 0.46648 0.0
C2056 C 0.92746 0.62613 0.42653 0.0
N2057 N 0.93381 0.65309 0.40786 0.0
C2058 C 0.91373 0.62914 0.4226 0.0
C2059 C 0.94446 0.637 0.42115 0.0
C2060 C 0.91719 0.64279 0.4131 0.0
C2061 C 0.9474 0.65051 0.41167 0.0
C2062 C 0.88413 0.559 0.42771 0.0
C2063 C 0.87496 0.55816 0.41531 0.0
C2064 C 0.87568 0.54613 0.43819 0.0
C2065 C 0.85735 0.54476 0.41377 0.0
C2066 C 0.85807 0.5329 0.43625 0.0
N2067 N 0.84933 0.53252 0.4242 0.0
C2068 C 0.93743 0.59666 0.39558 0.0
C2069 C 0.91189 0.5996 0.39722 0.0
C2070 C 0.9375 0.59815 0.38084 0.0
N2071 N 0.92468 0.59732 0.40341 0.0
C2072 C 0.91139 0.60103 0.38253 0.0
C2073 C 0.92419 0.6001 0.37413 0.0
H2074 H 0.94725 0.59451 0.40074 0.0
H2075 H 0.90181 0.59989 0.40369 0.0
C2076 C 0.88073 0.59341 0.46282 0.0
N2077 N 0.88431 0.59098 0.44923 0.0
C2078 C 0.86494 0.59319 0.466 0.0
C2079 C 0.85723 0.58844 0.44114 0.0
C2080 C 0.87313 0.5889 0.43845 0.0
C2081 C 0.85286 0.59038 0.45508 0.0
H2082 H 0.89005 0.59541 0.47116 0.0
H2083 H 0.87664 0.58772 0.4277 0.0
O2084 O 0.94058 0.58795 0.43187 0.0
O2085 O 0.91891 0.58655 0.45874 0.0
O2086 O 0.9243 0.61274 0.43575 0.0
O2087 O 0.90137 0.57213 0.42941 0.0
H2088 H 0.95363 0.56859 0.44215 0.0
H2089 H 0.96675 0.61681 0.42009 0.0
H2090 H 0.98528 0.5769 0.44128 0.0
H2091 H -0.00182 0.62436 0.41968 0.0
H2092 H 0.87862 0.54802 0.49029 0.0
H2093 H 0.94097 0.59173 0.47985 0.0
H2094 H 0.88633 0.56312 0.46699 0.0
H2095 H 0.93228 0.5763 0.50302 0.0
H2096 H 0.99329 0.62103 0.47208 0.0
H2097 H 0.98314 0.66384 0.46364 0.0
H2098 H 0.90233 0.51038 0.42955 0.0
H2099 H 0.9265 0.52749 0.47087 0.0
H2100 H 0.90054 0.62099 0.42678 0.0
H2101 H 0.9553 0.63509 0.42429 0.0
H2102 H 0.90667 0.6452 0.4099 0.0
H2103 H 0.96049 0.65898 0.40737 0.0
H2104 H 0.88132 0.56783 0.40699 0.0
H2105 H 0.8827 0.54618 0.44762 0.0
H2106 H 0.85006 0.54407 0.40428 0.0
H2107 H 0.85138 0.5229 0.4443 0.0
H2108 H 0.94746 0.59713 0.37472 0.0
H2109 H 0.90098 0.60265 0.37777 0.0
H2110 H 0.86205 0.59487 0.47687 0.0
H2111 H 0.8485 0.58674 0.43237 0.0
Li2112 Li 0.35547 0.93237 0.77981 0.0
Li2113 Li 0.37389 0.91918 0.77632 0.0
Li2114 Li 0.35992 0.92546 0.75559 0.0
Li2115 Li 0.34175 0.90074 0.7728 0.0
C2116 C 0.389 0.95977 0.76788 0.0
N2117 N 0.41166 0.99583 0.76568 0.0
C2118 C 0.40472 0.96792 0.77569 0.0
C2119 C 0.3849 0.96988 0.75881 0.0
C2120 C 0.41598 0.98619 0.77447 0.0
C2121 C 0.39651 0.98812 0.75789 0.0
C2122 C 0.35758 0.91089 0.80428 0.0
C2123 C 0.35453 0.89308 0.82479 0.0
N2124 N 0.36376 0.90808 0.83262 0.0
C2125 C 0.367 0.92613 0.81252 0.0
C2126 C 0.35123 0.89423 0.81046 0.0
C2127 C 0.36999 0.92442 0.82683 0.0
C2128 C 0.33462 0.94164 0.79572 0.0
N2129 N 0.35152 0.94799 0.79119 0.0
C2130 C 0.36111 0.97512 0.80371 0.0
C2131 C 0.36476 0.96432 0.79511 0.0
C2132 C 0.34366 0.96905 0.80807 0.0
C2133 C 0.33031 0.95213 0.80402 0.0
H2134 H 0.32448 0.92838 0.79292 0.0
H2135 H 0.37819 0.96888 0.79181 0.0
C2136 C 0.40556 0.921 0.77037 0.0
N2137 N 0.39498 0.9194 0.78149 0.0
C2138 C 0.42159 0.9215 0.77263 0.0
C2139 C 0.41576 0.91905 0.79782 0.0
C2140 C 0.39974 0.91845 0.79505 0.0
C2141 C 0.42682 0.9205 0.78651 0.0
H2142 H 0.40149 0.92189 0.75971 0.0
H2143 H 0.39122 0.91718 0.80375 0.0
C2144 C 0.32465 0.92392 0.76373 0.0
N2145 N 0.2989 0.9334 0.76141 0.0
C2146 C 0.30684 0.91128 0.76579 0.0
C2147 C 0.32937 0.94137 0.76046 0.0
C2148 C 0.29402 0.91634 0.76456 0.0
C2149 C 0.31615 0.94591 0.75936 0.0
C2150 C 0.36308 0.88896 0.75922 0.0
C2151 C 0.36647 0.88343 0.74629 0.0
C2152 C 0.36185 0.87961 0.7716 0.0
C2153 C 0.36852 0.86853 0.74595 0.0
C2154 C 0.36401 0.8648 0.77082 0.0
N2155 N 0.36726 0.85961 0.75812 0.0
C2156 C 0.37726 0.93603 0.72926 0.0
C2157 C 0.34784 0.93081 0.72954 0.0
C2158 C 0.37845 0.93919 0.71468 0.0
N2159 N 0.36204 0.93174 0.73629 0.0
C2160 C 0.34849 0.93401 0.71503 0.0
C2161 C 0.36381 0.93792 0.70733 0.0
H2162 H 0.38827 0.9365 0.73494 0.0
H2163 H 0.33583 0.92714 0.73533 0.0
C2164 C 0.3111 0.87357 0.7859 0.0
N2165 N 0.32142 0.87813 0.77412 0.0
C2166 C 0.29514 0.85751 0.78637 0.0
C2167 C 0.30103 0.85112 0.7627 0.0
C2168 C 0.31681 0.86729 0.76267 0.0
C2169 C 0.2898 0.84617 0.77456 0.0
H2170 H 0.31501 0.88265 0.79475 0.0
H2171 H 0.3252 0.87141 0.75339 0.0
O2172 O 0.37789 0.9419 0.76893 0.0
O2173 O 0.35432 0.91221 0.79029 0.0
O2174 O 0.33734 0.91913 0.76482 0.0
O2175 O 0.36114 0.90356 0.75973 0.0
H2176 H 0.40811 0.96021 0.78267 0.0
H2177 H 0.37297 0.96373 0.75249 0.0
H2178 H 0.42815 0.99271 0.7805 0.0
H2179 H 0.39349 0.99613 0.75095 0.0
H2180 H 0.34973 0.88027 0.8297 0.0
H2181 H 0.37219 0.93912 0.80789 0.0
H2182 H 0.34383 0.88229 0.80425 0.0
H2183 H 0.37733 0.9361 0.83333 0.0
H2184 H 0.37172 0.98807 0.80684 0.0
H2185 H 0.31676 0.94695 0.80747 0.0
H2186 H 0.42988 0.92284 0.76363 0.0
H2187 H 0.4193 0.9181 0.80866 0.0
H2188 H 0.30296 0.8977 0.76826 0.0
H2189 H 0.34307 0.95131 0.75889 0.0
H2190 H 0.28018 0.90669 0.76611 0.0
H2191 H 0.31961 0.95937 0.75689 0.0
H2192 H 0.3675 0.89058 0.73663 0.0
H2193 H 0.35933 0.88379 0.78169 0.0
H2194 H 0.37112 0.86408 0.73602 0.0
H2195 H 0.36311 0.85745 0.78032 0.0
H2196 H 0.39044 0.94192 0.70916 0.0
H2197 H 0.337 0.93315 0.70986 0.0
H2198 H 0.28678 0.85432 0.79564 0.0
H2199 H 0.29756 0.84269 0.75344 0.0
Li2200 Li 0.11168 0.44523 0.7795 0.0
Li2201 Li 0.12543 0.47705 0.7766 0.0
Li2202 Li 0.12107 0.45727 0.75551 0.0
Li2203 Li 0.1443 0.46362 0.7737 0.0
C2204 C 0.08527 0.45079 0.76875 0.0
N2205 N 0.04893 0.43526 0.77077 0.0
C2206 C 0.07778 0.4575 0.77822 0.0
C2207 C 0.07432 0.43639 0.76013 0.0
C2208 C 0.05936 0.4494 0.77914 0.0
C2209 C 0.05597 0.42866 0.76136 0.0
C2210 C 0.13665 0.47267 0.80359 0.0
C2211 C 0.15913 0.49549 0.81823 0.0
N2212 N 0.14742 0.49031 0.82916 0.0
C2213 C 0.1249 0.4674 0.81502 0.0
C2214 C 0.15396 0.48667 0.80524 0.0
C2215 C 0.13058 0.47655 0.82785 0.0
C2216 C 0.09531 0.41005 0.78876 0.0
N2217 N 0.09464 0.42523 0.78985 0.0
C2218 C 0.0702 0.41137 0.8059 0.0
C2219 C 0.08254 0.42623 0.79832 0.0
C2220 C 0.07038 0.39543 0.80466 0.0
C2221 C 0.08315 0.39488 0.79598 0.0
H2222 H 0.1055 0.40975 0.78251 0.0
H2223 H 0.08264 0.4386 0.79938 0.0
C2224 C 0.12887 0.50959 0.77083 0.0
N2225 N 0.12521 0.498 0.78165 0.0
C2226 C 0.12911 0.52547 0.7731 0.0
C2227 C 0.12123 0.51706 0.79758 0.0
C2228 C 0.12115 0.50127 0.79481 0.0
C2229 C 0.1254 0.52946 0.78665 0.0
H2230 H 0.13149 0.50641 0.76036 0.0
H2231 H 0.11768 0.49161 0.80313 0.0
C2232 C 0.12352 0.42602 0.75833 0.0
N2233 N 0.11822 0.39662 0.74323 0.0
C2234 C 0.13764 0.42306 0.75589 0.0
C2235 C 0.1067 0.41401 0.75314 0.0
C2236 C 0.13469 0.40813 0.74822 0.0
C2237 C 0.10429 0.39923 0.74552 0.0
C2238 C 0.15685 0.49496 0.75647 0.0
C2239 C 0.16182 0.49694 0.74221 0.0
C2240 C 0.1672 0.50827 0.76616 0.0
C2241 C 0.17727 0.51214 0.73792 0.0
C2242 C 0.18254 0.52329 0.76145 0.0
N2243 N 0.18723 0.52489 0.74755 0.0
C2244 C 0.10651 0.45959 0.72932 0.0
C2245 C 0.12531 0.4473 0.72814 0.0
C2246 C 0.1044 0.45842 0.7146 0.0
N2247 N 0.11689 0.45411 0.73574 0.0
C2248 C 0.1232 0.44542 0.71351 0.0
C2249 C 0.11291 0.45133 0.70644 0.0
H2250 H 0.10022 0.46527 0.73562 0.0
H2251 H 0.13397 0.44359 0.73339 0.0
C2252 C 0.17277 0.46197 0.78731 0.0
N2253 N 0.1671 0.46612 0.77525 0.0
C2254 C 0.18908 0.46251 0.78753 0.0
C2255 C 0.1935 0.47208 0.76309 0.0
C2256 C 0.17705 0.47104 0.76327 0.0
C2257 C 0.19963 0.46745 0.77522 0.0
H2258 H 0.1644 0.45778 0.79661 0.0
H2259 H 0.172 0.47369 0.75371 0.0
O2260 O 0.10326 0.45862 0.76763 0.0
O2261 O 0.13132 0.4638 0.79098 0.0
O2262 O 0.1262 0.44056 0.76586 0.0
O2263 O 0.14176 0.48013 0.76082 0.0
H2264 H 0.0861 0.46876 0.78487 0.0
H2265 H 0.07993 0.43132 0.7525 0.0
H2266 H 0.05336 0.45436 0.7865 0.0
H2267 H 0.04732 0.41746 0.75479 0.0
H2268 H 0.17247 0.50641 0.81964 0.0
H2269 H 0.11151 0.45646 0.81396 0.0
H2270 H 0.16335 0.49059 0.79662 0.0
H2271 H 0.12159 0.47272 0.83675 0.0
H2272 H 0.06067 0.41233 0.81265 0.0
H2273 H 0.08407 0.38298 0.7951 0.0
H2274 H 0.13186 0.53438 0.76425 0.0
H2275 H 0.11819 0.51957 0.80816 0.0
H2276 H 0.15074 0.43219 0.75988 0.0
H2277 H 0.09562 0.41603 0.75505 0.0
H2278 H 0.1455 0.40567 0.74624 0.0
H2279 H 0.09134 0.38982 0.74145 0.0
H2280 H 0.15388 0.48678 0.73456 0.0
H2281 H 0.16334 0.50712 0.77716 0.0
H2282 H 0.18134 0.51381 0.72693 0.0
H2283 H 0.19069 0.5337 0.76884 0.0
H2284 H 0.09661 0.46348 0.70969 0.0
H2285 H 0.12976 0.43954 0.70784 0.0
H2286 H 0.19309 0.45857 0.79707 0.0
H2287 H 0.2012 0.47627 0.75342 0.0
Li2288 Li 0.59932 0.69092 0.77944 0.0
Li2289 Li 0.56736 0.67407 0.77528 0.0
Li2290 Li 0.58722 0.69183 0.75613 0.0
Li2291 Li 0.5815 0.70549 0.77706 0.0
C2292 C 0.59165 0.65922 0.7664 0.0
N2293 N 0.60291 0.63475 0.76794 0.0
C2294 C 0.58321 0.64469 0.77551 0.0
C2295 C 0.60572 0.66122 0.75798 0.0
C2296 C 0.58912 0.63248 0.77615 0.0
C2297 C 0.61126 0.64874 0.75895 0.0
C2298 C 0.57877 0.69616 0.80419 0.0
C2299 C 0.56286 0.70559 0.81944 0.0
N2300 N 0.57664 0.71229 0.82872 0.0
C2301 C 0.59274 0.70304 0.81391 0.0
C2302 C 0.56365 0.69733 0.80701 0.0
C2303 C 0.59142 0.71117 0.82624 0.0
C2304 C 0.63266 0.7101 0.79091 0.0
N2305 N 0.61943 0.69313 0.78911 0.0
C2306 C 0.6354 0.68241 0.80256 0.0
C2307 C 0.62043 0.67933 0.79483 0.0
C2308 C 0.64932 0.69986 0.80443 0.0
C2309 C 0.6478 0.71378 0.79845 0.0
H2310 H 0.63123 0.7209 0.78686 0.0
H2311 H 0.6095 0.666 0.79375 0.0
C2312 C 0.54066 0.63995 0.7685 0.0
N2313 N 0.54638 0.65244 0.77884 0.0
C2314 C 0.52496 0.62394 0.77023 0.0
C2315 C 0.52149 0.63384 0.79334 0.0
C2316 C 0.5373 0.64969 0.79115 0.0
C2317 C 0.51512 0.62075 0.78276 0.0
H2318 H 0.54823 0.64256 0.75883 0.0
H2319 H 0.54226 0.65982 0.79922 0.0
C2320 C 0.61899 0.72274 0.76045 0.0
N2321 N 0.64854 0.74485 0.74464 0.0
C2322 C 0.62312 0.74015 0.75775 0.0
C2323 C 0.62991 0.71659 0.75521 0.0
C2324 C 0.63811 0.75112 0.7497 0.0
C2325 C 0.64479 0.72797 0.74721 0.0
C2326 C 0.5476 0.68078 0.75833 0.0
C2327 C 0.54303 0.67103 0.74575 0.0
C2328 C 0.5343 0.67987 0.76716 0.0
C2329 C 0.52516 0.66031 0.74229 0.0
C2330 C 0.51659 0.66896 0.76334 0.0
N2331 N 0.51242 0.65948 0.7511 0.0
C2332 C 0.58912 0.68025 0.72851 0.0
C2333 C 0.59555 0.70999 0.73028 0.0
C2334 C 0.59113 0.68179 0.7138 0.0
N2335 N 0.5913 0.69425 0.73637 0.0
C2336 C 0.59804 0.71224 0.71568 0.0
C2337 C 0.5956 0.69796 0.70716 0.0
H2338 H 0.58538 0.66777 0.73363 0.0
H2339 H 0.5968 0.72077 0.73677 0.0
C2340 C 0.59186 0.73743 0.79193 0.0
N2341 N 0.58049 0.72596 0.78213 0.0
C2342 C 0.59271 0.75365 0.79426 0.0
C2343 C 0.57038 0.74601 0.77619 0.0
C2344 C 0.56972 0.72982 0.77441 0.0
C2345 C 0.58217 0.75834 0.78609 0.0
H2346 H 0.60066 0.73425 0.79762 0.0
H2347 H 0.56117 0.72064 0.76642 0.0
O2348 O 0.5859 0.67117 0.76544 0.0
O2349 O 0.57981 0.68813 0.79207 0.0
O2350 O 0.6043 0.71179 0.76823 0.0
O2351 O 0.56499 0.69098 0.76208 0.0
H2352 H 0.57234 0.64295 0.78215 0.0
H2353 H 0.61224 0.67225 0.75073 0.0
H2354 H 0.58276 0.62121 0.7832 0.0
H2355 H 0.62216 0.65015 0.75252 0.0
H2356 H 0.55129 0.7067 0.82171 0.0
H2357 H 0.60446 0.70211 0.81197 0.0
H2358 H 0.55273 0.69209 0.7996 0.0
H2359 H 0.60214 0.7166 0.83384 0.0
H2360 H 0.63601 0.67134 0.80715 0.0
H2361 H 0.65793 0.72746 0.80004 0.0
H2362 H 0.5204 0.61433 0.76172 0.0
H2363 H 0.51438 0.63181 0.80321 0.0
H2364 H 0.61477 0.74508 0.76177 0.0
H2365 H 0.62693 0.70319 0.75731 0.0
H2366 H 0.64146 0.76461 0.74747 0.0
H2367 H 0.65336 0.72339 0.74306 0.0
H2368 H 0.55316 0.67157 0.73881 0.0
H2369 H 0.53763 0.68738 0.77691 0.0
H2370 H 0.52142 0.65259 0.73263 0.0
H2371 H 0.50615 0.66802 0.77012 0.0
H2372 H 0.58871 0.67027 0.70771 0.0
H2373 H 0.60174 0.72503 0.71114 0.0
H2374 H 0.60184 0.76256 0.80213 0.0
H2375 H 0.56229 0.74909 0.76938 0.0
Li2376 Li 0.59203 0.69143 0.57455 0.0
Li2377 Li 0.5691 0.67578 0.55619 0.0
Li2378 Li 0.60173 0.69125 0.55037 0.0
Li2379 Li 0.58717 0.70833 0.55485 0.0
C2380 C 0.58966 0.65863 0.57091 0.0
N2381 N 0.59379 0.63459 0.58717 0.0
C2382 C 0.5751 0.64198 0.57383 0.0
C2383 C 0.60635 0.66299 0.57613 0.0
C2384 C 0.57745 0.63002 0.5821 0.0
C2385 C 0.60816 0.65067 0.58437 0.0
C2386 C 0.55533 0.69094 0.57563 0.0
C2387 C 0.52813 0.69157 0.5731 0.0
N2388 N 0.52375 0.68578 0.58668 0.0
C2389 C 0.55065 0.68518 0.58962 0.0
C2390 C 0.54406 0.69432 0.56735 0.0
C2391 C 0.53459 0.68258 0.59498 0.0
C2392 C 0.60802 0.70717 0.60054 0.0
N2393 N 0.59671 0.69149 0.59422 0.0
C2394 C 0.5907 0.67634 0.61639 0.0
C2395 C 0.58797 0.67626 0.60183 0.0
C2396 C 0.60209 0.69235 0.6232 0.0
C2397 C 0.61082 0.70793 0.61516 0.0
H2398 H 0.61454 0.71913 0.59425 0.0
H2399 H 0.57847 0.66412 0.59671 0.0
C2400 C 0.54071 0.64874 0.54015 0.0
N2401 N 0.54629 0.65577 0.55328 0.0
C2402 C 0.52381 0.63404 0.53829 0.0
C2403 C 0.51887 0.63414 0.5635 0.0
C2404 C 0.53588 0.64861 0.56488 0.0
C2405 C 0.51264 0.62671 0.55008 0.0
H2406 H 0.54939 0.65452 0.53113 0.0
H2407 H 0.54088 0.65397 0.57526 0.0
C2408 C 0.62756 0.72203 0.56179 0.0
N2409 N 0.66384 0.74232 0.55872 0.0
C2410 C 0.63485 0.73682 0.55289 0.0
C2411 C 0.63869 0.71772 0.56931 0.0
C2412 C 0.65324 0.74687 0.55143 0.0
C2413 C 0.657 0.7281 0.56756 0.0
C2414 C 0.57596 0.69496 0.52755 0.0
C2415 C 0.58694 0.70177 0.51569 0.0
C2416 C 0.55879 0.69231 0.52706 0.0
C2417 C 0.58066 0.70618 0.50363 0.0
C2418 C 0.553 0.69689 0.51481 0.0
N2419 N 0.56398 0.7037 0.50345 0.0
C2420 C 0.62008 0.67493 0.53986 0.0
C2421 C 0.62969 0.70339 0.53019 0.0
C2422 C 0.63205 0.67291 0.53142 0.0
N2423 N 0.61914 0.68998 0.53914 0.0
C2424 C 0.64184 0.70191 0.52148 0.0
C2425 C 0.64305 0.68645 0.522 0.0
H2426 H 0.6112 0.66424 0.5467 0.0
H2427 H 0.62839 0.71506 0.52957 0.0
C2428 C 0.58031 0.7353 0.56145 0.0
N2429 N 0.58631 0.72922 0.5508 0.0
C2430 C 0.57839 0.75006 0.55938 0.0
C2431 C 0.5896 0.7526 0.53555 0.0
C2432 C 0.5913 0.73771 0.53811 0.0
C2433 C 0.58284 0.75878 0.54623 0.0
H2434 H 0.57697 0.72864 0.57159 0.0
H2435 H 0.59658 0.73298 0.52996 0.0
O2436 O 0.58756 0.67051 0.56286 0.0
O2437 O 0.57103 0.69357 0.57023 0.0
O2438 O 0.60961 0.71204 0.56334 0.0
O2439 O 0.58192 0.69063 0.53946 0.0
H2440 H 0.56211 0.63832 0.56977 0.0
H2441 H 0.61778 0.67572 0.57383 0.0
H2442 H 0.56629 0.61711 0.58449 0.0
H2443 H 0.62099 0.65389 0.58851 0.0
H2444 H 0.51928 0.69411 0.56679 0.0
H2445 H 0.55927 0.68266 0.59623 0.0
H2446 H 0.54766 0.69921 0.55665 0.0
H2447 H 0.53076 0.67802 0.60576 0.0
H2448 H 0.58347 0.66416 0.62237 0.0
H2449 H 0.61957 0.72053 0.62016 0.0
H2450 H 0.51946 0.62857 0.52779 0.0
H2451 H 0.51079 0.62858 0.57288 0.0
H2452 H 0.6264 0.7404 0.54709 0.0
H2453 H 0.63326 0.70655 0.57647 0.0
H2454 H 0.65908 0.75828 0.5445 0.0
H2455 H 0.66578 0.72488 0.57327 0.0
H2456 H 0.60019 0.70373 0.51582 0.0
H2457 H 0.54997 0.68665 0.53599 0.0
H2458 H 0.58906 0.71158 0.49441 0.0
H2459 H 0.53976 0.69497 0.51431 0.0
H2460 H 0.63219 0.66057 0.53188 0.0
H2461 H 0.65003 0.71261 0.51432 0.0
H2462 H 0.57363 0.75469 0.56805 0.0
H2463 H 0.5933 0.75901 0.5253 0.0
Li2464 Li 0.35505 0.92307 0.57455 0.0
Li2465 Li 0.37238 0.91774 0.55676 0.0
Li2466 Li 0.35766 0.93573 0.55144 0.0
Li2467 Li 0.34 0.90377 0.55349 0.0
C2468 C 0.38697 0.95241 0.57535 0.0
N2469 N 0.40654 0.97554 0.59681 0.0
C2470 C 0.40288 0.9537 0.57978 0.0
C2471 C 0.38118 0.9631 0.5817 0.0
C2472 C 0.41255 0.96543 0.59068 0.0
C2473 C 0.3912 0.97464 0.59258 0.0
C2474 C 0.35363 0.88525 0.57217 0.0
C2475 C 0.3497 0.85692 0.56509 0.0
N2476 N 0.35404 0.85448 0.57842 0.0
C2477 C 0.35782 0.88235 0.58584 0.0
C2478 C 0.34935 0.87235 0.56174 0.0
C2479 C 0.35806 0.86677 0.58877 0.0
C2480 C 0.33956 0.92619 0.60002 0.0
N2481 N 0.35357 0.92559 0.59432 0.0
C2482 C 0.36623 0.92804 0.61721 0.0
C2483 C 0.36671 0.92636 0.60256 0.0
C2484 C 0.35191 0.9286 0.62343 0.0
C2485 C 0.33843 0.92764 0.61467 0.0
H2486 H 0.32922 0.92537 0.59319 0.0
H2487 H 0.37751 0.92552 0.59774 0.0
C2488 C 0.40233 0.91925 0.5428 0.0
N2489 N 0.39289 0.91553 0.55504 0.0
C2490 C 0.41821 0.91892 0.54246 0.0
C2491 C 0.4142 0.9109 0.56727 0.0
C2492 C 0.39846 0.91134 0.56711 0.0
C2493 C 0.42445 0.91498 0.5549 0.0
H2494 H 0.39778 0.92291 0.53342 0.0
H2495 H 0.39102 0.90901 0.57679 0.0
C2496 C 0.3255 0.92911 0.55943 0.0
N2497 N 0.30515 0.94418 0.55252 0.0
C2498 C 0.31202 0.92109 0.54935 0.0
C2499 C 0.32848 0.94466 0.56612 0.0
C2500 C 0.30191 0.92895 0.54597 0.0
C2501 C 0.3181 0.95211 0.56244 0.0
C2502 C 0.35683 0.90895 0.52684 0.0
C2503 C 0.3507 0.91383 0.51494 0.0
C2504 C 0.36094 0.89544 0.52571 0.0
C2505 C 0.34839 0.90479 0.50218 0.0
C2506 C 0.35845 0.88671 0.51278 0.0
N2507 N 0.35225 0.89151 0.50138 0.0
C2508 C 0.37428 0.97189 0.54478 0.0
C2509 C 0.34853 0.95401 0.53119 0.0
C2510 C 0.37726 0.98695 0.53736 0.0
N2511 N 0.36018 0.95583 0.54154 0.0
C2512 C 0.35103 0.96873 0.52344 0.0
C2513 C 0.36569 0.98543 0.5264 0.0
H2514 H 0.38353 0.97296 0.55285 0.0
H2515 H 0.33747 0.94108 0.52876 0.0
C2516 C 0.31014 0.87233 0.55953 0.0
N2517 N 0.31904 0.88266 0.54827 0.0
C2518 C 0.29451 0.85636 0.55751 0.0
C2519 C 0.29713 0.86203 0.5323 0.0
C2520 C 0.31281 0.87797 0.53482 0.0
C2521 C 0.28785 0.85094 0.54375 0.0
H2522 H 0.31525 0.87657 0.57012 0.0
H2523 H 0.31984 0.88656 0.52606 0.0
O2524 O 0.37721 0.94084 0.5648 0.0
O2525 O 0.35328 0.90044 0.56916 0.0
O2526 O 0.33558 0.92165 0.56283 0.0
O2527 O 0.3592 0.91771 0.53941 0.0
H2528 H 0.40774 0.94577 0.57485 0.0
H2529 H 0.369 0.96238 0.57832 0.0
H2530 H 0.42483 0.9665 0.59424 0.0
H2531 H 0.38679 0.98288 0.59765 0.0
H2532 H 0.34643 0.84684 0.55711 0.0
H2533 H 0.36094 0.89207 0.5941 0.0
H2534 H 0.34555 0.87407 0.55124 0.0
H2535 H 0.3614 0.86443 0.59928 0.0
H2536 H 0.37672 0.92843 0.62363 0.0
H2537 H 0.32718 0.92804 0.61911 0.0
H2538 H 0.42583 0.92235 0.53275 0.0
H2539 H 0.41845 0.90767 0.57705 0.0
H2540 H 0.30949 0.90903 0.54409 0.0
H2541 H 0.3387 0.95091 0.57407 0.0
H2542 H 0.2915 0.92295 0.53812 0.0
H2543 H 0.32033 0.9642 0.56749 0.0
H2544 H 0.34767 0.9244 0.51554 0.0
H2545 H 0.36619 0.89183 0.53468 0.0
H2546 H 0.34354 0.90835 0.49292 0.0
H2547 H 0.36151 0.87618 0.51178 0.0
H2548 H 0.38893 -0.0005 0.53978 0.0
H2549 H 0.34179 0.96702 0.51509 0.0
H2550 H 0.28758 0.84847 0.56668 0.0
H2551 H 0.29244 0.85837 0.52152 0.0
Li2552 Li 0.13467 0.48408 0.55383 0.0
Li2553 Li 0.12883 0.46173 0.57319 0.0
Li2554 Li 0.14718 0.46461 0.55282 0.0
Li2555 Li 0.11581 0.4507 0.54992 0.0
C2556 C 0.16899 0.49012 0.56962 0.0
N2557 N 0.20484 0.50318 0.57319 0.0
C2558 C 0.17507 0.48392 0.5807 0.0
C2559 C 0.18112 0.50305 0.56042 0.0
C2560 C 0.19326 0.49068 0.58232 0.0
C2561 C 0.19921 0.50947 0.56238 0.0
C2562 C 0.0987 0.46492 0.57158 0.0
C2563 C 0.07306 0.44719 0.5861 0.0
N2564 N 0.07252 0.46201 0.5897 0.0
C2565 C 0.09784 0.47997 0.57534 0.0
C2566 C 0.08617 0.44838 0.57691 0.0
C2567 C 0.08452 0.47823 0.58455 0.0
C2568 C 0.12655 0.50786 0.54013 0.0
N2569 N 0.13717 0.50643 0.54995 0.0
C2570 C 0.15083 0.53724 0.55534 0.0
C2571 C 0.14918 0.52065 0.55751 0.0
C2572 C 0.13992 0.53914 0.54538 0.0
C2573 C 0.1277 0.5242 0.53766 0.0
H2574 H 0.11707 0.49624 0.53434 0.0
H2575 H 0.15726 0.51904 0.56539 0.0
C2576 C 0.12907 0.4458 0.59903 0.0
N2577 N 0.12595 0.45816 0.59305 0.0
C2578 C 0.12816 0.44356 0.61372 0.0
C2579 C 0.12046 0.46654 0.61576 0.0
C2580 C 0.12188 0.46858 0.60108 0.0
C2581 C 0.12382 0.45404 0.62223 0.0
H2582 H 0.13266 0.43796 0.59241 0.0
H2583 H 0.12013 0.47876 0.59613 0.0
C2584 C 0.14201 0.47159 0.52481 0.0
N2585 N 0.15759 0.47609 0.49852 0.0
C2586 C 0.14096 0.45707 0.51764 0.0
C2587 C 0.15093 0.48838 0.51861 0.0
C2588 C 0.14895 0.45963 0.50436 0.0
C2589 C 0.15874 0.49039 0.50531 0.0
C2590 C 0.12089 0.42484 0.56125 0.0
C2591 C 0.12723 0.41679 0.55197 0.0
C2592 C 0.10626 0.41435 0.56982 0.0
C2593 C 0.11864 0.39832 0.55128 0.0
C2594 C 0.09803 0.39593 0.56881 0.0
N2595 N 0.10433 0.38837 0.55964 0.0
C2596 C 0.17173 0.45362 0.55677 0.0
C2597 C 0.17894 0.47286 0.53703 0.0
C2598 C 0.18714 0.45277 0.55492 0.0
N2599 N 0.16793 0.46357 0.5479 0.0
C2600 C 0.19431 0.47205 0.53459 0.0
C2601 C 0.19857 0.46205 0.5437 0.0
H2602 H 0.16295 0.44667 0.56551 0.0
H2603 H 0.17618 0.48133 0.53051 0.0
C2604 C 0.08102 0.43569 0.54035 0.0
N2605 N 0.09551 0.43372 0.53985 0.0
C2606 C 0.06613 0.42485 0.53224 0.0
C2607 C 0.08128 0.41009 0.52313 0.0
C2608 C 0.09587 0.42117 0.53152 0.0
C2609 C 0.06624 0.41201 0.52334 0.0
H2610 H 0.08123 0.44612 0.54666 0.0
H2611 H 0.10764 0.42009 0.53101 0.0
O2612 O 0.15123 0.48322 0.56757 0.0
O2613 O 0.11164 0.46638 0.56257 0.0
O2614 O 0.13414 0.46939 0.53774 0.0
O2615 O 0.12925 0.44289 0.56218 0.0
H2616 H 0.16582 0.47384 0.58787 0.0
H2617 H 0.17659 0.50785 0.5517 0.0
H2618 H 0.19816 0.48592 0.59079 0.0
H2619 H 0.20875 0.51937 0.55528 0.0
H2620 H 0.0633 0.43448 0.59033 0.0
H2621 H 0.10741 0.49286 0.57124 0.0
H2622 H 0.08653 0.43659 0.57395 0.0
H2623 H 0.08372 0.48976 0.58761 0.0
H2624 H 0.1602 0.54835 0.56169 0.0
H2625 H 0.11913 0.52513 0.52982 0.0
H2626 H 0.13094 0.43386 0.61839 0.0
H2627 H 0.11743 0.47508 0.62205 0.0
H2628 H 0.13427 0.44404 0.52236 0.0
H2629 H 0.15187 0.49975 0.52404 0.0
H2630 H 0.14831 0.44853 0.4987 0.0
H2631 H 0.16572 0.50331 0.50038 0.0
H2632 H 0.13855 0.42471 0.54526 0.0
H2633 H 0.10138 0.42037 0.57723 0.0
H2634 H 0.12333 0.39191 0.54409 0.0
H2635 H 0.08666 0.38765 0.57536 0.0
H2636 H 0.19018 0.44506 0.5622 0.0
H2637 H 0.20308 0.47964 0.52601 0.0
H2638 H 0.05496 0.42705 0.53245 0.0
H2639 H 0.08187 0.40036 0.51638 0.0
Li2640 Li 0.34234 0.46197 0.55414 0.0
Li2641 Li 0.35716 0.45578 0.5722 0.0
Li2642 Li 0.37444 0.47796 0.55441 0.0
Li2643 Li 0.35669 0.44482 0.54863 0.0
C2644 C 0.34928 0.4826 0.57836 0.0
N2645 N 0.33061 0.4904 0.59793 0.0
C2646 C 0.33369 0.46904 0.58428 0.0
C2647 C 0.3554 0.50013 0.58241 0.0
C2648 C 0.32443 0.47324 0.59415 0.0
C2649 C 0.34577 0.50381 0.59231 0.0
C2650 C 0.32579 0.42208 0.56685 0.0
C2651 C 0.31998 0.3927 0.57265 0.0
N2652 N 0.30423 0.38898 0.57847 0.0
C2653 C 0.30945 0.41789 0.57276 0.0
C2654 C 0.33104 0.40932 0.56669 0.0
C2655 C 0.29878 0.40112 0.57863 0.0
C2656 C 0.30672 0.44976 0.54679 0.0
N2657 N 0.32236 0.46441 0.55009 0.0
C2658 C 0.30859 0.48213 0.55088 0.0
C2659 C 0.32368 0.48051 0.5517 0.0
C2660 C 0.29213 0.46708 0.54811 0.0
C2661 C 0.29132 0.45083 0.54564 0.0
H2662 H 0.30614 0.43715 0.54552 0.0
H2663 H 0.33635 0.49198 0.55411 0.0
C2664 C 0.36936 0.46681 0.59955 0.0
N2665 N 0.35801 0.45201 0.5922 0.0
C2666 C 0.37097 0.46616 0.61421 0.0
C2667 C 0.34918 0.43501 0.61357 0.0
C2668 C 0.3481 0.43623 0.59889 0.0
C2669 C 0.36067 0.45014 0.62141 0.0
H2670 H 0.3771 0.47921 0.594 0.0
H2671 H 0.33928 0.42457 0.59296 0.0
C2672 C 0.35114 0.47111 0.52797 0.0
N2673 N 0.33495 0.48197 0.50843 0.0
C2674 C 0.33784 0.45872 0.51915 0.0
C2675 C 0.35626 0.48902 0.52684 0.0
C2676 C 0.3298 0.46448 0.50934 0.0
C2677 C 0.3479 0.49425 0.5169 0.0
C2678 C 0.38747 0.45622 0.57168 0.0
C2679 C 0.40171 0.47113 0.57781 0.0
C2680 C 0.38299 0.43935 0.57655 0.0
C2681 C 0.41107 0.46892 0.58888 0.0
C2682 C 0.39265 0.43769 0.58766 0.0
N2683 N 0.40636 0.45239 0.59355 0.0
C2684 C 0.40177 0.51183 0.56117 0.0
C2685 C 0.40334 0.50269 0.53781 0.0
C2686 C 0.41724 0.52797 0.55906 0.0
N2687 N 0.39524 0.49961 0.55064 0.0
C2688 C 0.41884 0.51873 0.5352 0.0
C2689 C 0.42602 0.53162 0.54594 0.0
H2690 H 0.39507 0.5089 0.57129 0.0
H2691 H 0.39774 0.49268 0.52962 0.0
C2692 C 0.34269 0.41548 0.52959 0.0
N2693 N 0.35693 0.42707 0.53738 0.0
C2694 C 0.34371 0.40288 0.52108 0.0
C2695 C 0.37384 0.41428 0.5291 0.0
C2696 C 0.37227 0.42665 0.53734 0.0
C2697 C 0.35949 0.40224 0.52076 0.0
H2698 H 0.33062 0.41612 0.52992 0.0
H2699 H 0.3834 0.43612 0.54358 0.0
O2700 O 0.35849 0.47885 0.56853 0.0
O2701 O 0.33627 0.43837 0.56089 0.0
O2702 O 0.35886 0.46571 0.53788 0.0
O2703 O 0.37785 0.45815 0.56108 0.0
H2704 H 0.32879 0.45543 0.58129 0.0
H2705 H 0.36742 0.5108 0.57788 0.0
H2706 H 0.31234 0.46287 0.5988 0.0
H2707 H 0.35033 0.51732 0.59552 0.0
H2708 H 0.32393 0.38275 0.57266 0.0
H2709 H 0.30502 0.42747 0.57279 0.0
H2710 H 0.34354 0.41221 0.5621 0.0
H2711 H 0.28614 0.39774 0.58329 0.0
H2712 H 0.30969 0.49491 0.55269 0.0
H2713 H 0.27881 0.43894 0.54355 0.0
H2714 H 0.37986 0.47819 0.61987 0.0
H2715 H 0.34114 0.42235 0.61874 0.0
H2716 H 0.33368 0.4448 0.51996 0.0
H2717 H 0.36643 0.49875 0.53369 0.0
H2718 H 0.31944 0.45504 0.50248 0.0
H2719 H 0.35166 0.50805 0.51594 0.0
H2720 H 0.4054 0.48428 0.57415 0.0
H2721 H 0.37209 0.42767 0.57188 0.0
H2722 H 0.42204 0.48036 0.59379 0.0
H2723 H 0.38924 0.42472 0.5916 0.0
H2724 H 0.42246 0.53734 0.56774 0.0
H2725 H 0.42507 0.52104 0.52489 0.0
H2726 H 0.33235 0.39381 0.51482 0.0
H2727 H 0.38638 0.41452 0.52894 0.0
Li2728 Li 0.59071 0.92169 0.57463 0.0
Li2729 Li 0.58941 0.90442 0.55268 0.0
Li2730 Li 0.60101 0.93528 0.55207 0.0
Li2731 Li 0.56975 0.91717 0.55411 0.0
C2732 C 0.62756 0.93149 0.55939 0.0
N2733 N 0.66239 0.9509 0.55065 0.0
C2734 C 0.63278 0.92757 0.54653 0.0
C2735 C 0.64006 0.94525 0.56783 0.0
C2736 C 0.65045 0.93755 0.54229 0.0
C2737 C 0.65761 0.95492 0.56322 0.0
C2738 C 0.55935 0.88393 0.5733 0.0
C2739 C 0.53103 0.85707 0.57491 0.0
N2740 N 0.53666 0.85238 0.58672 0.0
C2741 C 0.56476 0.87892 0.58555 0.0
C2742 C 0.54227 0.87299 0.56801 0.0
C2743 C 0.55314 0.8629 0.59214 0.0
C2744 C 0.57867 0.92094 0.60228 0.0
N2745 N 0.59269 0.92294 0.59455 0.0
C2746 C 0.60933 0.92636 0.61557 0.0
C2747 C 0.60779 0.92547 0.60084 0.0
C2748 C 0.59505 0.92429 0.62393 0.0
C2749 C 0.57953 0.92148 0.61705 0.0
H2750 H 0.56676 0.91873 0.59693 0.0
H2751 H 0.6186 0.92672 0.59443 0.0
C2752 C 0.59374 0.881 0.53349 0.0
N2753 N 0.5911 0.88433 0.54711 0.0
C2754 C 0.59419 0.86557 0.53022 0.0
C2755 C 0.58971 0.85771 0.55505 0.0
C2756 C 0.58962 0.87331 0.55784 0.0
C2757 C 0.5918 0.85359 0.54109 0.0
H2758 H 0.59537 0.89022 0.52517 0.0
H2759 H 0.5884 0.87668 0.56861 0.0
C2760 C 0.58697 0.95475 0.5629 0.0
N2761 N 0.59074 0.98764 0.55781 0.0
C2762 C 0.58248 0.95858 0.54967 0.0
C2763 C 0.59332 0.96759 0.57355 0.0
C2764 C 0.58451 0.97531 0.5473 0.0
C2765 C 0.59514 0.98415 0.57077 0.0
C2766 C 0.57403 0.90682 0.52739 0.0
C2767 C 0.5757 0.91275 0.5134 0.0
C2768 C 0.56109 0.8895 0.53075 0.0
C2769 C 0.56441 0.90121 0.50301 0.0
C2770 C 0.55007 0.87836 0.52006 0.0
N2771 N 0.55193 0.8844 0.50653 0.0
C2772 C 0.62113 0.95744 0.52971 0.0
C2773 C 0.62852 0.97129 0.55225 0.0
C2774 C 0.63333 0.97321 0.52316 0.0
N2775 N 0.61881 0.95685 0.54396 0.0
C2776 C 0.64094 0.98733 0.54615 0.0
C2777 C 0.6433 0.98851 0.53138 0.0
H2778 H 0.61328 0.94572 0.52342 0.0
H2779 H 0.6265 0.97037 0.56359 0.0
C2780 C 0.53617 0.90962 0.56224 0.0
N2781 N 0.5469 0.914 0.55073 0.0
C2782 C 0.51949 0.90799 0.5611 0.0
C2783 C 0.52514 0.91537 0.53623 0.0
C2784 C 0.54176 0.91685 0.53786 0.0
C2785 C 0.51385 0.91109 0.548 0.0
H2786 H 0.54071 0.90761 0.57237 0.0
H2787 H 0.55069 0.92069 0.52893 0.0
O2788 O 0.61021 0.92213 0.56352 0.0
O2789 O 0.57048 0.89974 0.56683 0.0
O2790 O 0.58527 0.93854 0.56538 0.0
O2791 O 0.58485 0.91813 0.53768 0.0
H2792 H 0.62324 0.91709 0.53981 0.0
H2793 H 0.63622 0.9487 0.57769 0.0
H2794 H 0.65466 0.93472 0.53233 0.0
H2795 H 0.6674 0.96568 0.56959 0.0
H2796 H 0.51781 0.84846 0.5709 0.0
H2797 H 0.57788 0.88723 0.58985 0.0
H2798 H 0.53765 0.87674 0.55872 0.0
H2799 H 0.55722 0.85882 0.60156 0.0
H2800 H 0.62163 0.92877 0.62033 0.0
H2801 H 0.56804 0.91943 0.623 0.0
H2802 H 0.59601 0.86285 0.51934 0.0
H2803 H 0.58828 0.84897 0.56375 0.0
H2804 H 0.57771 0.94882 0.54128 0.0
H2805 H 0.59686 0.96478 0.58384 0.0
H2806 H 0.58117 0.9785 0.5371 0.0
H2807 H 0.60006 0.99424 0.57891 0.0
H2808 H 0.58555 0.92616 0.51061 0.0
H2809 H 0.55973 0.88463 0.54143 0.0
H2810 H 0.56555 0.90565 0.49216 0.0
H2811 H 0.54005 0.86489 0.52253 0.0
H2812 H 0.63446 0.97352 0.51172 0.0
H2813 H 0.64848 -0.00128 0.55291 0.0
H2814 H 0.51113 0.90445 0.5704 0.0
H2815 H 0.52141 0.9181 0.52599 0.0
Li2816 Li 0.14365 0.7082 0.55672 0.0
Li2817 Li 0.12205 0.69115 0.57523 0.0
Li2818 Li 0.1274 0.67627 0.55532 0.0
Li2819 Li 0.11194 0.69291 0.55212 0.0
C2820 C 0.16093 0.69867 0.57494 0.0
N2821 N 0.1957 0.71566 0.58407 0.0
C2822 C 0.16527 0.70623 0.58845 0.0
C2823 C 0.17426 0.69963 0.56612 0.0
C2824 C 0.18293 0.71477 0.59286 0.0
C2825 C 0.19176 0.70833 0.5709 0.0
C2826 C 0.11915 0.72344 0.56186 0.0
C2827 C 0.09595 0.73084 0.56255 0.0
N2828 N 0.10518 0.74419 0.55316 0.0
C2829 C 0.12841 0.73724 0.55224 0.0
C2830 C 0.1028 0.72022 0.5671 0.0
C2831 C 0.12113 0.74758 0.54797 0.0
C2832 C 0.17343 0.73285 0.54039 0.0
N2833 N 0.16577 0.72889 0.55344 0.0
C2834 C 0.19071 0.75405 0.56356 0.0
C2835 C 0.1738 0.73941 0.56483 0.0
C2836 C 0.19916 0.75818 0.55034 0.0
C2837 C 0.19025 0.74766 0.53857 0.0
H2838 H 0.16657 0.72444 0.53146 0.0
H2839 H 0.16716 0.73619 0.57498 0.0
C2840 C 0.11948 0.67721 0.60243 0.0
N2841 N 0.11777 0.68965 0.59504 0.0
C2842 C 0.11661 0.67556 0.61702 0.0
C2843 C 0.11047 0.6997 0.61615 0.0
C2844 C 0.11341 0.70084 0.60155 0.0
C2845 C 0.1121 0.68694 0.62408 0.0
H2846 H 0.1232 0.66866 0.59696 0.0
H2847 H 0.11232 0.71072 0.59541 0.0
C2848 C 0.13258 0.68561 0.52836 0.0
N2849 N 0.13533 0.66833 0.50479 0.0
C2850 C 0.1181 0.67648 0.5193 0.0
C2851 C 0.14847 0.68598 0.52541 0.0
C2852 C 0.11975 0.66783 0.50743 0.0
C2853 C 0.14958 0.67714 0.51346 0.0
C2854 C 0.09372 0.65976 0.57355 0.0
C2855 C 0.09476 0.64464 0.57668 0.0
C2856 C 0.0822 0.66335 0.5813 0.0
C2857 C 0.08431 0.63339 0.58756 0.0
C2858 C 0.07201 0.6518 0.59212 0.0
N2859 N 0.07326 0.63719 0.59499 0.0
C2860 C 0.14069 0.65281 0.55656 0.0
C2861 C 0.11614 0.64357 0.54118 0.0
C2862 C 0.14095 0.63719 0.55407 0.0
N2863 N 0.12839 0.65569 0.55017 0.0
C2864 C 0.11598 0.62778 0.53829 0.0
C2865 C 0.12838 0.62432 0.54492 0.0
H2866 H 0.14993 0.66239 0.56399 0.0
H2867 H 0.10619 0.64597 0.53654 0.0
C2868 C 0.09824 0.70311 0.52918 0.0
N2869 N 0.0939 0.69374 0.54148 0.0
C2870 C 0.08497 0.70213 0.5203 0.0
C2871 C 0.06316 0.68286 0.53739 0.0
C2872 C 0.07682 0.684 0.54582 0.0
C2873 C 0.06715 0.69159 0.52427 0.0
H2874 H 0.11197 0.71073 0.526 0.0
H2875 H 0.07374 0.67658 0.55557 0.0
O2876 O 0.14375 0.69045 0.57035 0.0
O2877 O 0.12585 0.7129 0.56588 0.0
O2878 O 0.13121 0.69409 0.54007 0.0
O2879 O 0.10406 0.6711 0.56309 0.0
H2880 H 0.15516 0.7057 0.59541 0.0
H2881 H 0.17114 0.69385 0.55564 0.0
H2882 H 0.18649 0.72076 0.60327 0.0
H2883 H 0.20222 0.70927 0.56415 0.0
H2884 H 0.08327 0.72842 0.56643 0.0
H2885 H 0.14102 0.73984 0.54801 0.0
H2886 H 0.09534 0.70944 0.5744 0.0
H2887 H 0.12812 0.75827 0.5405 0.0
H2888 H 0.19714 0.76209 0.57281 0.0
H2889 H 0.1964 0.7506 0.5282 0.0
H2890 H 0.11831 0.66575 0.62276 0.0
H2891 H 0.10692 0.70866 0.62118 0.0
H2892 H 0.10564 0.67589 0.52148 0.0
H2893 H 0.1598 0.69294 0.53231 0.0
H2894 H 0.10864 0.66067 0.50036 0.0
H2895 H 0.16178 0.67727 0.51108 0.0
H2896 H 0.10362 0.64164 0.57087 0.0
H2897 H 0.08145 0.67516 0.57922 0.0
H2898 H 0.08503 0.62167 0.59012 0.0
H2899 H 0.06317 0.65452 0.59828 0.0
H2900 H 0.15047 0.63494 0.5597 0.0
H2901 H 0.1061 0.6183 0.53112 0.0
H2902 H 0.08853 0.70904 0.51024 0.0
H2903 H 0.04957 0.67437 0.54071 0.0
Li2904 Li 0.14285 0.7053 0.77634 0.0
Li2905 Li 0.11055 0.68947 0.78027 0.0
Li2906 Li 0.12556 0.67293 0.7747 0.0
Li2907 Li 0.12141 0.6913 0.75689 0.0
C2908 C 0.13716 0.69376 0.80412 0.0
N2909 N 0.15395 0.70624 0.82986 0.0
C2910 C 0.13153 0.70247 0.81337 0.0
C2911 C 0.15124 0.69127 0.808 0.0
C2912 C 0.1402 0.7087 0.82633 0.0
C2913 C 0.15959 0.69773 0.82104 0.0
C2914 C 0.12515 0.72281 0.75944 0.0
C2915 C 0.10985 0.73082 0.74228 0.0
N2916 N 0.12551 0.74525 0.7386 0.0
C2917 C 0.14107 0.73777 0.75555 0.0
C2918 C 0.10939 0.71935 0.75283 0.0
C2919 C 0.14097 0.74894 0.74497 0.0
C2920 C 0.17785 0.7295 0.77007 0.0
N2921 N 0.16556 0.72508 0.78046 0.0
C2922 C 0.1858 0.75019 0.7942 0.0
C2923 C 0.16916 0.73509 0.79238 0.0
C2924 C 0.19862 0.75513 0.78351 0.0
C2925 C 0.19453 0.74445 0.7714 0.0
H2926 H 0.17453 0.7217 0.76049 0.0
H2927 H 0.15903 0.73172 0.80028 0.0
C2928 C 0.0841 0.67678 0.80163 0.0
N2929 N 0.09252 0.68938 0.79153 0.0
C2930 C 0.07163 0.67746 0.81049 0.0
C2931 C 0.07682 0.70406 0.79834 0.0
C2932 C 0.08905 0.70278 0.78968 0.0
C2933 C 0.06803 0.6914 0.80904 0.0
H2934 H 0.08736 0.66642 0.80299 0.0
H2935 H 0.0962 0.71281 0.78177 0.0
C2936 C 0.15467 0.68498 0.75713 0.0
N2937 N 0.17808 0.67389 0.74927 0.0
C2938 C 0.15441 0.67905 0.74332 0.0
C2939 C 0.16691 0.6854 0.7669 0.0
C2940 C 0.16634 0.67347 0.73956 0.0
C2941 C 0.17861 0.6797 0.76274 0.0
C2942 C 0.08583 0.65919 0.76988 0.0
C2943 C 0.08054 0.64397 0.77803 0.0
C2944 C 0.07331 0.66381 0.76566 0.0
C2945 C 0.06278 0.6337 0.78196 0.0
C2946 C 0.05568 0.65321 0.76983 0.0
N2947 N 0.05083 0.63851 0.77783 0.0
C2948 C 0.1273 0.64647 0.79091 0.0
C2949 C 0.12744 0.64333 0.76594 0.0
C2950 C 0.12923 0.63164 0.7929 0.0
N2951 N 0.12673 0.6521 0.77758 0.0
C2952 C 0.12975 0.62872 0.76743 0.0
C2953 C 0.13082 0.62285 0.78103 0.0
H2954 H 0.1264 0.65356 0.79997 0.0
H2955 H 0.12646 0.64785 0.75549 0.0
C2956 C 0.13315 0.70546 0.72996 0.0
N2957 N 0.1186 0.69352 0.73724 0.0
C2958 C 0.13221 0.70745 0.71539 0.0
C2959 C 0.10132 0.68474 0.71605 0.0
C2960 C 0.10284 0.68325 0.73066 0.0
C2961 C 0.11617 0.69691 0.70822 0.0
H2962 H 0.14555 0.71329 0.7355 0.0
H2963 H 0.09153 0.67378 0.73672 0.0
O2964 O 0.12872 0.68738 0.79146 0.0
O2965 O 0.12501 0.71152 0.76958 0.0
O2966 O 0.14302 0.6904 0.76102 0.0
O2967 O 0.1032 0.66954 0.76611 0.0
H2968 H 0.12067 0.70453 0.81054 0.0
H2969 H 0.15564 0.68439 0.80105 0.0
H2970 H 0.13603 0.71552 0.83357 0.0
H2971 H 0.17053 0.69594 0.82417 0.0
H2972 H 0.09778 0.72823 0.737 0.0
H2973 H 0.15337 0.74071 0.76059 0.0
H2974 H 0.09696 0.7078 0.75567 0.0
H2975 H 0.15321 0.76052 0.74181 0.0
H2976 H 0.18836 0.75825 0.8036 0.0
H2977 H 0.20407 0.74775 0.76294 0.0
H2978 H 0.06515 0.6674 0.81855 0.0
H2979 H 0.07487 0.71531 0.79704 0.0
H2980 H 0.145 0.67866 0.73563 0.0
H2981 H 0.16736 0.6901 0.77758 0.0
H2982 H 0.16625 0.66878 0.72894 0.0
H2983 H 0.18812 0.6799 0.77021 0.0
H2984 H 0.09007 0.64021 0.78138 0.0
H2985 H 0.0772 0.67557 0.75938 0.0
H2986 H 0.0585 0.62193 0.78833 0.0
H2987 H 0.04587 0.6567 0.76673 0.0
H2988 H 0.12991 0.62735 0.80354 0.0
H2989 H 0.13061 0.62203 0.75805 0.0
H2990 H 0.14405 0.71679 0.70973 0.0
H2991 H 0.08869 0.67644 0.71093 0.0
Li2992 Li 0.34099 0.46357 0.77368 0.0
Li2993 Li 0.35445 0.44521 0.77774 0.0
Li2994 Li 0.37258 0.47629 0.77207 0.0
Li2995 Li 0.35367 0.45491 0.75423 0.0
C2996 C 0.3508 0.46945 0.80053 0.0
N2997 N 0.33574 0.47628 0.82369 0.0
C2998 C 0.34159 0.45628 0.81066 0.0
C2999 C 0.35235 0.4861 0.80221 0.0
C3000 C 0.33409 0.45999 0.8223 0.0
C3001 C 0.34463 0.48928 0.81397 0.0
C3002 C 0.32102 0.42874 0.75675 0.0
C3003 C 0.31089 0.40553 0.73925 0.0
N3004 N 0.2972 0.4082 0.73601 0.0
C3005 C 0.30681 0.43121 0.75329 0.0
C3006 C 0.32304 0.41574 0.74974 0.0
C3007 C 0.29492 0.4207 0.74276 0.0
C3008 C 0.32 0.47944 0.77065 0.0
N3009 N 0.322 0.46743 0.77843 0.0
C3010 C 0.29519 0.4591 0.79104 0.0
C3011 C 0.30997 0.45728 0.78845 0.0
C3012 C 0.29259 0.47105 0.78289 0.0
C3013 C 0.30523 0.4814 0.77267 0.0
H3014 H 0.32954 0.48703 0.76253 0.0
H3015 H 0.31155 0.44739 0.79411 0.0
C3016 C 0.36369 0.43215 0.80121 0.0
N3017 N 0.3536 0.42709 0.78929 0.0
C3018 C 0.362 0.41953 0.8111 0.0
C3019 C 0.34054 0.39666 0.79572 0.0
C3020 C 0.34243 0.40976 0.78623 0.0
C3021 C 0.35002 0.40159 0.80851 0.0
H3022 H 0.37246 0.44608 0.80332 0.0
H3023 H 0.33452 0.40615 0.7767 0.0
C3024 C 0.36702 0.49507 0.75323 0.0
N3025 N 0.38962 0.5289 0.74343 0.0
C3026 C 0.37616 0.49759 0.74049 0.0
C3027 C 0.36927 0.50974 0.76092 0.0
C3028 C 0.38754 0.51481 0.73572 0.0
C3029 C 0.38079 0.52674 0.75581 0.0
C3030 C 0.3832 0.44782 0.76761 0.0
C3031 C 0.39736 0.45582 0.77711 0.0
C3032 C 0.37785 0.43085 0.76247 0.0
C3033 C 0.40593 0.44666 0.78134 0.0
C3034 C 0.38674 0.42212 0.76696 0.0
N3035 N 0.40048 0.43014 0.77623 0.0
C3036 C 0.39914 0.50595 0.78714 0.0
C3037 C 0.40706 0.50086 0.76431 0.0
C3038 C 0.41594 0.5207 0.78899 0.0
N3039 N 0.39503 0.49654 0.77488 0.0
C3040 C 0.42399 0.51548 0.76569 0.0
C3041 C 0.42859 0.52563 0.77816 0.0
H3042 H 0.38945 0.50193 0.79551 0.0
H3043 H 0.40346 0.49291 0.75478 0.0
C3044 C 0.33963 0.45241 0.72709 0.0
N3045 N 0.35152 0.44987 0.73453 0.0
C3046 C 0.33803 0.44972 0.71247 0.0
C3047 C 0.36118 0.44217 0.71341 0.0
C3048 C 0.36222 0.44485 0.72805 0.0
C3049 C 0.349 0.44467 0.70544 0.0
H3050 H 0.33158 0.45681 0.73251 0.0
H3051 H 0.37178 0.44325 0.7342 0.0
O3052 O 0.3582 0.46606 0.78903 0.0
O3053 O 0.33297 0.43909 0.76687 0.0
O3054 O 0.35611 0.47833 0.75823 0.0
O3055 O 0.37436 0.45639 0.76362 0.0
H3056 H 0.34003 0.44324 0.80947 0.0
H3057 H 0.35929 0.4964 0.79443 0.0
H3058 H 0.32688 0.4499 0.83018 0.0
H3059 H 0.34567 0.50208 0.81536 0.0
H3060 H 0.31238 0.39553 0.73365 0.0
H3061 H 0.30503 0.4412 0.75859 0.0
H3062 H 0.33405 0.41377 0.75217 0.0
H3063 H 0.28391 0.42251 0.73993 0.0
H3064 H 0.28547 0.45068 0.79882 0.0
H3065 H 0.30348 0.49062 0.76613 0.0
H3066 H 0.3695 0.42376 0.82088 0.0
H3067 H 0.33101 0.38293 0.79348 0.0
H3068 H 0.37465 0.48639 0.73443 0.0
H3069 H 0.36227 0.50802 0.77078 0.0
H3070 H 0.39478 0.51696 0.72592 0.0
H3071 H 0.38274 0.53822 0.7617 0.0
H3072 H 0.40157 0.46888 0.78131 0.0
H3073 H 0.36678 0.42439 0.75523 0.0
H3074 H 0.41687 0.45266 0.78872 0.0
H3075 H 0.38268 0.40894 0.76313 0.0
H3076 H 0.41906 0.52803 0.79884 0.0
H3077 H 0.43328 0.51894 0.75702 0.0
H3078 H 0.32869 0.4521 0.70668 0.0
H3079 H 0.36985 0.43824 0.70837 0.0
Li3080 Li 0.60149 0.93537 0.78121 0.0
Li3081 Li 0.58569 0.90432 0.77483 0.0
Li3082 Li 0.5884 0.92623 0.75757 0.0
Li3083 Li 0.56985 0.91995 0.77794 0.0
C3084 C 0.62099 0.9199 0.76672 0.0
N3085 N 0.64859 0.91297 0.76793 0.0
C3086 C 0.62742 0.91815 0.77982 0.0
C3087 C 0.62858 0.91814 0.75423 0.0
C3088 C 0.64137 0.91462 0.78021 0.0
C3089 C 0.64254 0.91465 0.75507 0.0
C3090 C 0.57241 0.90383 0.80258 0.0
C3091 C 0.54777 0.87541 0.80918 0.0
N3092 N 0.54999 0.8807 0.82295 0.0
C3093 C 0.57447 0.90895 0.81681 0.0
C3094 C 0.55897 0.8869 0.79873 0.0
C3095 C 0.56299 0.89708 0.82694 0.0
C3096 C 0.61573 0.95567 0.8053 0.0
N3097 N 0.62031 0.9524 0.79238 0.0
C3098 C 0.65103 0.97015 0.79789 0.0
C3099 C 0.63754 0.95974 0.78836 0.0
C3100 C 0.64665 0.97283 0.81163 0.0
C3101 C 0.62876 0.96584 0.81519 0.0
H3102 H 0.6019 0.94983 0.80807 0.0
H3103 H 0.64081 0.95693 0.77799 0.0
C3104 C 0.57624 0.86996 0.76659 0.0
N3105 N 0.5848 0.88227 0.77684 0.0
C3106 C 0.57375 0.85295 0.76803 0.0
C3107 C 0.58949 0.8618 0.79034 0.0
C3108 C 0.59146 0.87859 0.78856 0.0
C3109 C 0.58033 0.8487 0.78007 0.0
H3110 H 0.5711 0.87331 0.7574 0.0
H3111 H 0.59797 0.88858 0.79665 0.0
C3112 C 0.59854 0.96073 0.76586 0.0
N3113 N 0.62118 0.99476 0.75638 0.0
C3114 C 0.59357 0.97366 0.76672 0.0
C3115 C 0.61505 0.96514 0.76017 0.0
C3116 C 0.60519 0.99078 0.76187 0.0
C3117 C 0.6263 0.9824 0.75544 0.0
C3118 C 0.55329 0.90086 0.75389 0.0
C3119 C 0.55117 0.91515 0.74992 0.0
C3120 C 0.54093 0.88379 0.74941 0.0
C3121 C 0.53675 0.9121 0.7415 0.0
C3122 C 0.52668 0.88129 0.741 0.0
N3123 N 0.5249 0.89538 0.73725 0.0
C3124 C 0.59039 0.91713 0.73002 0.0
C3125 C 0.59051 0.94432 0.73127 0.0
C3126 C 0.59051 0.9177 0.71526 0.0
N3127 N 0.59041 0.9303 0.73769 0.0
C3128 C 0.59094 0.94559 0.71651 0.0
C3129 C 0.59083 0.93209 0.70826 0.0
H3130 H 0.58987 0.90593 0.73543 0.0
H3131 H 0.58996 0.95439 0.73754 0.0
C3132 C 0.54681 0.9323 0.78613 0.0
N3133 N 0.54803 0.91757 0.78377 0.0
C3134 C 0.53023 0.9309 0.78765 0.0
C3135 C 0.51666 0.89914 0.7851 0.0
C3136 C 0.53344 0.90117 0.78354 0.0
C3137 C 0.51488 0.91417 0.78668 0.0
H3138 H 0.55865 0.94519 0.78607 0.0
H3139 H 0.5347 0.88971 0.78131 0.0
O3140 O 0.60749 0.92356 0.76604 0.0
O3141 O 0.58354 0.91538 0.79255 0.0
O3142 O 0.58723 0.94395 0.77065 0.0
O3143 O 0.567 0.90337 0.7625 0.0
H3144 H 0.62169 0.91952 0.78958 0.0
H3145 H 0.62379 0.91956 0.74401 0.0
H3146 H 0.64648 0.91322 0.79028 0.0
H3147 H 0.64858 0.91331 0.74549 0.0
H3148 H 0.5373 0.8623 0.80632 0.0
H3149 H 0.58483 0.92195 0.82002 0.0
H3150 H 0.55708 0.8827 0.78779 0.0
H3151 H 0.56442 0.9009 0.83798 0.0
H3152 H 0.6647 0.97523 0.79481 0.0
H3153 H 0.6249 0.96779 0.82565 0.0
H3154 H 0.56679 0.84323 0.75981 0.0
H3155 H 0.59463 0.85894 0.79981 0.0
H3156 H 0.58084 0.97049 0.77107 0.0
H3157 H 0.61914 0.95536 0.75925 0.0
H3158 H 0.6015 0.0009 0.76247 0.0
H3159 H 0.63909 0.98596 0.75099 0.0
H3160 H 0.56045 0.92844 0.7534 0.0
H3161 H 0.54225 0.87255 0.75252 0.0
H3162 H 0.53494 0.92303 0.73838 0.0
H3163 H 0.517 0.86813 0.73749 0.0
H3164 H 0.58993 0.90672 0.70943 0.0
H3165 H 0.5913 0.95701 0.71164 0.0
H3166 H 0.52942 0.94283 0.78872 0.0
H3167 H 0.50517 0.886 0.78446 0.0
H3168 H 0.12516 0.27581 0.10456 0.0
H3169 H 0.10164 0.23422 0.13571 0.0
H3170 H 0.12931 0.23347 0.13745 0.0
H3171 H 0.15924 0.24306 0.12858 0.0
H3172 H 0.18317 0.28587 0.09829 0.0
H3173 H 0.15616 0.28759 0.09763 0.0
C3174 C 0.1262 0.26669 0.11178 0.0
C3175 C 0.11148 0.25495 0.11988 0.0
C3176 C 0.14209 0.26642 0.11276 0.0
C3177 C 0.11291 0.24335 0.12938 0.0
C3178 C 0.12866 0.24288 0.13032 0.0
C3179 C 0.15872 0.25301 0.12204 0.0
C3180 C 0.17314 0.26406 0.11329 0.0
C3181 C 0.14323 0.25415 0.12186 0.0
C3182 C 0.17211 0.27681 0.10483 0.0
C3183 C 0.15671 0.27792 0.10451 0.0
H3184 H 0.81724 0.94694 0.12144 0.0
H3185 H 0.76205 0.92263 0.13256 0.0
H3186 H 0.76003 0.89359 0.13385 0.0
H3187 H 0.77323 0.87487 0.12893 0.0
H3188 H 0.82857 0.8996 0.11781 0.0
H3189 H 0.83127 0.92875 0.11936 0.0
C3190 C 0.80485 0.93528 0.12432 0.0
C3191 C 0.78977 0.93678 0.12673 0.0
C3192 C 0.80377 0.91873 0.12485 0.0
C3193 C 0.77382 0.92172 0.13068 0.0
C3194 C 0.77265 0.90513 0.13131 0.0
C3195 C 0.78596 0.88666 0.12714 0.0
C3196 C 0.80059 0.88505 0.12298 0.0
C3197 C 0.78742 0.90342 0.12801 0.0
C3198 C 0.817 0.90046 0.12068 0.0
C3199 C 0.81858 0.91714 0.12162 0.0
H3200 H 0.12565 0.87106 0.11121 0.0
H3201 H 0.09675 0.89198 0.13328 0.0
H3202 H 0.12346 0.92109 0.13445 0.0
H3203 H 0.1543 0.94103 0.12753 0.0
H3204 H 0.18324 0.92007 0.1055 0.0
H3205 H 0.15706 0.89059 0.10569 0.0
C3206 C 0.12522 0.882 0.11628 0.0
C3207 C 0.10924 0.87943 0.12204 0.0
C3208 C 0.14053 0.89872 0.11675 0.0
C3209 C 0.10893 0.89361 0.12884 0.0
C3210 C 0.12415 0.91028 0.12942 0.0
C3211 C 0.155 0.92997 0.12299 0.0
C3212 C 0.17067 0.93281 0.11639 0.0
C3213 C 0.13994 0.91304 0.1232 0.0
C3214 C 0.17124 0.91834 0.1104 0.0
C3215 C 0.15632 0.90145 0.11057 0.0
H3216 H 0.22852 0.1037 0.88789 0.0
H3217 H 0.27875 0.12372 0.86657 0.0
H3218 H 0.28101 0.15264 0.86402 0.0
H3219 H 0.26992 0.173 0.86974 0.0
H3220 H 0.22099 0.15346 0.89269 0.0
H3221 H 0.21703 0.12359 0.89289 0.0
C3222 C 0.24001 0.1144 0.88274 0.0
C3223 C 0.2535 0.11156 0.87755 0.0
C3224 C 0.24147 0.13109 0.88168 0.0
C3225 C 0.26808 0.12547 0.87057 0.0
C3226 C 0.26947 0.14206 0.8692 0.0
C3227 C 0.25831 0.16206 0.87457 0.0
C3228 C 0.24569 0.16514 0.88112 0.0
C3229 C 0.25641 0.14511 0.87495 0.0
C3230 C 0.23076 0.15115 0.88754 0.0
C3231 C 0.22855 0.13417 0.88769 0.0
H3232 H 0.92393 0.17462 0.86409 0.0
H3233 H 0.956 0.15117 0.87395 0.0
H3234 H 0.92993 0.1216 0.87283 0.0
H3235 H 0.89774 0.10287 0.87206 0.0
H3236 H 0.86517 0.12614 0.86357 0.0
H3237 H 0.89167 0.15527 0.86078 0.0
C3238 C 0.92519 0.16297 0.86565 0.0
C3239 C 0.94172 0.16495 0.86922 0.0
C3240 C 0.91006 0.14604 0.86535 0.0
C3241 C 0.9433 0.14986 0.87133 0.0
C3242 C 0.92843 0.133 0.87071 0.0
C3243 C 0.89648 0.11431 0.86946 0.0
C3244 C 0.87959 0.11246 0.86824 0.0
C3245 C 0.91168 0.13099 0.86824 0.0
C3246 C 0.87807 0.12726 0.86456 0.0
C3247 C 0.8932 0.14393 0.86307 0.0
H3248 H 0.8967 0.81759 0.88949 0.0
H3249 H 0.86775 0.76796 0.86709 0.0
H3250 H 0.89469 0.76616 0.865 0.0
H3251 H 0.92605 0.77755 0.87118 0.0
H3252 H 0.95407 0.82574 0.89535 0.0
H3253 H 0.92789 0.82917 0.89527 0.0
C3254 C 0.89621 0.8063 0.88424 0.0
C3255 C 0.88016 0.79288 0.87857 0.0
C3256 C 0.9116 0.80506 0.88345 0.0
C3257 C 0.87993 0.77859 0.87145 0.0
C3258 C 0.89532 0.77746 0.87034 0.0
C3259 C 0.92639 0.78888 0.87625 0.0
C3260 C 0.94181 0.80139 0.88326 0.0
C3261 C 0.91115 0.79047 0.8765 0.0
C3262 C 0.94222 0.81595 0.88995 0.0
C3263 C 0.92729 0.8179 0.88991 0.0
H3264 H 0.7883 0.60255 0.46502 0.0
H3265 H 0.76258 0.55536 0.4393 0.0
H3266 H 0.78934 0.5531 0.43965 0.0
H3267 H 0.82066 0.56583 0.44554 0.0
H3268 H 0.8469 0.61322 0.47088 0.0
H3269 H 0.81919 0.61387 0.47276 0.0
C3270 C 0.78848 0.59161 0.45971 0.0
C3271 C 0.77358 0.57929 0.45196 0.0
C3272 C 0.80399 0.59046 0.45987 0.0
C3273 C 0.77401 0.56521 0.44509 0.0
C3274 C 0.78927 0.56386 0.44533 0.0
C3275 C 0.82026 0.57624 0.45154 0.0
C3276 C 0.83578 0.58959 0.4579 0.0
C3277 C 0.80444 0.57665 0.45237 0.0
C3278 C 0.83508 0.6028 0.4659 0.0
C3279 C 0.81928 0.60323 0.46689 0.0
H3280 H 0.43387 0.25349 0.4431 0.0
H3281 H 0.48633 0.28277 0.46102 0.0
H3282 H 0.48794 0.25566 0.4625 0.0
H3283 H 0.47517 0.22405 0.45743 0.0
H3284 H 0.42276 0.19469 0.43943 0.0
H3285 H 0.42057 0.22153 0.43897 0.0
C3286 C 0.44567 0.25393 0.44729 0.0
C3287 C 0.45997 0.27012 0.4519 0.0
C3288 C 0.44658 0.23834 0.44798 0.0
C3289 C 0.47506 0.27045 0.45753 0.0
C3290 C 0.47604 0.25498 0.45829 0.0
C3291 C 0.46314 0.22344 0.45363 0.0
C3292 C 0.44918 0.20739 0.44844 0.0
C3293 C 0.46196 0.23889 0.45342 0.0
C3294 C 0.4338 0.20692 0.44331 0.0
C3295 C 0.4325 0.22225 0.4431 0.0
H3296 H 0.81753 0.27612 0.43791 0.0
H3297 H 0.84524 0.2563 0.46305 0.0
H3298 H 0.8181 0.22766 0.46524 0.0
H3299 H 0.78688 0.20771 0.4588 0.0
H3300 H 0.75971 0.22737 0.43285 0.0
H3301 H 0.78632 0.25658 0.43205 0.0
C3302 C 0.81767 0.2655 0.44379 0.0
C3303 C 0.83341 0.2683 0.45021 0.0
C3304 C 0.80213 0.24903 0.44481 0.0
C3305 C 0.83327 0.25453 0.45808 0.0
C3306 C 0.81778 0.23812 0.45927 0.0
C3307 C 0.78677 0.21849 0.45313 0.0
C3308 C 0.77145 0.21544 0.44584 0.0
C3309 C 0.80219 0.23516 0.45255 0.0
C3310 C 0.77146 0.22941 0.43841 0.0
C3311 C 0.78663 0.24609 0.43797 0.0
H3312 H 0.94442 0.46047 0.22449 0.0
H3313 H 0.90047 0.43658 0.19541 0.0
H3314 H 0.89956 0.46418 0.19442 0.0
H3315 H 0.90977 0.49417 0.20339 0.0
H3316 H 0.95464 0.51843 0.23174 0.0
H3317 H 0.9565 0.49147 0.23162 0.0
C3318 C 0.93473 0.4614 0.21789 0.0
C3319 C 0.92242 0.44658 0.21015 0.0
C3320 C 0.93431 0.47724 0.21738 0.0
C3321 C 0.91008 0.44791 0.20143 0.0
C3322 C 0.90951 0.46362 0.20094 0.0
C3323 C 0.92019 0.49373 0.20933 0.0
C3324 C 0.93185 0.50825 0.21775 0.0
C3325 C 0.92136 0.47827 0.20907 0.0
C3326 C 0.94517 0.50731 0.22547 0.0
C3327 C 0.94634 0.49194 0.22533 0.0
H3328 H 0.59707 0.50055 0.19849 0.0
H3329 H 0.61307 0.49318 0.23999 0.0
H3330 H 0.58583 0.4646 0.24223 0.0
H3331 H 0.5571 0.44238 0.23281 0.0
H3332 H 0.54015 0.45017 0.19181 0.0
H3333 H 0.56821 0.47782 0.18884 0.0
C3334 C 0.59458 0.49255 0.20794 0.0
C3335 C 0.60688 0.49885 0.21909 0.0
C3336 C 0.57875 0.47631 0.20925 0.0
C3337 C 0.60361 0.48855 0.23135 0.0
C3338 C 0.58809 0.47226 0.23262 0.0
C3339 C 0.55948 0.45019 0.22327 0.0
C3340 C 0.54652 0.44431 0.2126 0.0
C3341 C 0.57547 0.46614 0.22174 0.0
C3342 C 0.54997 0.45436 0.20014 0.0
C3343 C 0.56597 0.47021 0.19847 0.0
H3344 H 0.56208 0.15286 0.20924 0.0
H3345 H 0.53025 0.09701 0.20032 0.0
H3346 H 0.55696 0.09471 0.19835 0.0
H3347 H 0.58913 0.1079 0.20203 0.0
H3348 H 0.6205 0.16329 0.21251 0.0
H3349 H 0.59424 0.16647 0.21108 0.0
C3350 C 0.56099 0.14019 0.20683 0.0
C3351 C 0.5442 0.1251 0.20512 0.0
C3352 C 0.57633 0.13887 0.20611 0.0
C3353 C 0.54302 0.10886 0.20164 0.0
C3354 C 0.55828 0.1075 0.20062 0.0
C3355 C 0.5902 0.12071 0.2037 0.0
C3356 C 0.6066 0.13532 0.20746 0.0
C3357 C 0.57497 0.12232 0.20322 0.0
C3358 C 0.60791 0.15185 0.20973 0.0
C3359 C 0.59293 0.15366 0.20893 0.0
H3360 H 0.43888 0.9016 0.7726 0.0
H3361 H 0.45229 0.93968 0.80624 0.0
H3362 H 0.48057 0.94061 0.80976 0.0
H3363 H 0.50186 0.93123 0.80263 0.0
H3364 H 0.48826 0.89362 0.76851 0.0
H3365 H 0.45962 0.89178 0.7659 0.0
C3366 C 0.44805 0.91016 0.78066 0.0
C3367 C 0.44363 0.92066 0.78906 0.0
C3368 C 0.4642 0.91066 0.78257 0.0
C3369 C 0.45542 0.93143 0.79968 0.0
C3370 C 0.47159 0.93201 0.80165 0.0
C3371 C 0.49261 0.92265 0.79464 0.0
C3372 C 0.49715 0.91252 0.78584 0.0
C3373 C 0.47618 0.92179 0.79307 0.0
C3374 C 0.48497 0.90132 0.7756 0.0
C3375 C 0.46865 0.90036 0.774 0.0
H3376 H 0.14909 0.56194 0.77662 0.0
H3377 H 0.10181 0.53479 0.80207 0.0
H3378 H 0.10034 0.56201 0.80383 0.0
H3379 H 0.11096 0.59281 0.79617 0.0
H3380 H 0.15703 0.61897 0.76935 0.0
H3381 H 0.16045 0.59281 0.76997 0.0
C3382 C 0.13844 0.56196 0.78254 0.0
C3383 C 0.12547 0.54631 0.78905 0.0
C3384 C 0.1374 0.57745 0.78316 0.0
C3385 C 0.11202 0.54668 0.797 0.0
C3386 C 0.11109 0.5622 0.79792 0.0
C3387 C 0.12186 0.59279 0.79064 0.0
C3388 C 0.13367 0.60763 0.78265 0.0
C3389 C 0.12349 0.57755 0.79078 0.0
C3390 C 0.1477 0.60754 0.77544 0.0
C3391 C 0.14966 0.59264 0.7758 0.0
H3392 H 0.43669 0.55779 0.78871 0.0
H3393 H 0.46042 0.52899 0.77088 0.0
H3394 H 0.48951 0.55573 0.7715 0.0
H3395 H 0.50789 0.58754 0.77603 0.0
H3396 H 0.48411 0.61651 0.79341 0.0
H3397 H 0.45542 0.5893 0.79449 0.0
C3398 C 0.44827 0.5573 0.78518 0.0
C3399 C 0.44639 0.54148 0.77964 0.0
C3400 C 0.46493 0.57273 0.78552 0.0
C3401 C 0.46149 0.54109 0.77496 0.0
C3402 C 0.47813 0.55634 0.77537 0.0
C3403 C 0.49642 0.58789 0.78003 0.0
C3404 C 0.49809 0.60403 0.78451 0.0
C3405 C 0.47994 0.57229 0.7804 0.0
C3406 C 0.4832 0.60423 0.78998 0.0
C3407 C 0.46676 0.58871 0.7905 0.0
H3408 H 0.60553 0.78989 0.533 0.0
H3409 H 0.55499 0.76263 0.5543 0.0
H3410 H 0.55268 0.78933 0.55342 0.0
H3411 H 0.56619 0.82102 0.54861 0.0
H3412 H 0.61648 0.84862 0.52721 0.0
H3413 H 0.61755 0.82107 0.52576 0.0
C3414 C 0.59386 0.78971 0.53719 0.0
C3415 C 0.58061 0.7744 0.54396 0.0
C3416 C 0.59261 0.80515 0.53667 0.0
C3417 C 0.56559 0.77438 0.54936 0.0
C3418 C 0.5642 0.7896 0.54881 0.0
C3419 C 0.57727 0.8209 0.54349 0.0
C3420 C 0.59133 0.83673 0.53818 0.0
C3421 C 0.57784 0.80516 0.54284 0.0
C3422 C 0.60553 0.83651 0.53137 0.0
C3423 C 0.60618 0.82081 0.53062 0.0
H3424 H 0.21082 0.78665 0.53292 0.0
H3425 H 0.22795 0.76344 0.56512 0.0
H3426 H 0.25757 0.78956 0.5649 0.0
H3427 H 0.27782 0.81965 0.55679 0.0
H3428 H 0.26037 0.84404 0.5258 0.0
H3429 H 0.23178 0.8167 0.52403 0.0
C3430 C 0.22116 0.78731 0.53972 0.0
C3431 C 0.21733 0.7733 0.54907 0.0
C3432 C 0.23802 0.80255 0.53978 0.0
C3433 C 0.23068 0.77421 0.55794 0.0
C3434 C 0.24756 0.7891 0.5578 0.0
C3435 C 0.26775 0.81902 0.54967 0.0
C3436 C 0.27115 0.83392 0.54157 0.0
C3437 C 0.25125 0.80348 0.549 0.0
C3438 C 0.25813 0.83272 0.53211 0.0
C3439 C 0.24173 0.81714 0.53117 0.0
H3440 H 0.26561 0.45558 0.52868 0.0
H3441 H 0.28201 0.48065 0.56958 0.0
H3442 H 0.25436 0.48116 0.57188 0.0
H3443 H 0.22526 0.47394 0.56248 0.0
H3444 H 0.20925 0.45035 0.52111 0.0
H3445 H 0.23696 0.44971 0.5187 0.0
C3446 C 0.26307 0.46117 0.53805 0.0
C3447 C 0.27573 0.46806 0.54895 0.0
C3448 C 0.24724 0.46161 0.53922 0.0
C3449 C 0.27246 0.47542 0.56102 0.0
C3450 C 0.25665 0.47563 0.56237 0.0
C3451 C 0.22792 0.46866 0.55297 0.0
C3452 C 0.21535 0.46205 0.54204 0.0
C3453 C 0.24392 0.46868 0.55158 0.0
C3454 C 0.21886 0.45547 0.52964 0.0
C3455 C 0.23463 0.45509 0.52828 0.0
H3456 H 0.98636 0.28623 0.16432 0.0
H3457 H 0.01938 0.33449 0.14128 0.0
H3458 H 0.0091 0.35038 0.15635 0.0
H3459 H 0.98854 0.34977 0.17468 0.0
H3460 H 0.95409 0.30081 0.19626 0.0
H3461 H 0.967 0.28585 0.18309 0.0
C3462 C 0.99126 0.30021 0.16255 0.0
C3463 C 0.00339 0.30911 0.15158 0.0
C3464 C 0.98496 0.30908 0.17095 0.0
C3465 C 0.01004 0.32735 0.14969 0.0
C3466 C 0.00409 0.33641 0.15823 0.0
C3467 C 0.98412 0.3359 0.17658 0.0
C3468 C 0.97042 0.32628 0.18629 0.0
C3469 C 0.99127 0.32731 0.1687 0.0
C3470 C 0.96458 0.30832 0.18871 0.0
C3471 C 0.97193 0.29981 0.1812 0.0
H3472 H 0.72059 0.70017 0.13693 0.0
H3473 H 0.73359 0.73812 0.17061 0.0
H3474 H 0.71908 0.71406 0.18783 0.0
H3475 H 0.70605 0.68241 0.19358 0.0
H3476 H 0.69404 0.64469 0.15982 0.0
H3477 H 0.70452 0.66842 0.14234 0.0
C3478 C 0.72001 0.70312 0.14803 0.0
C3479 C 0.7283 0.72082 0.15256 0.0
C3480 C 0.71192 0.68927 0.15785 0.0
C3481 C 0.72725 0.72456 0.16689 0.0
C3482 C 0.71909 0.71082 0.17674 0.0
C3483 C 0.70556 0.6794 0.18238 0.0
C3484 C 0.69947 0.66187 0.17801 0.0
C3485 C 0.7119 0.69316 0.17239 0.0
C3486 C 0.69859 0.65807 0.16346 0.0
C3487 C 0.70471 0.67165 0.15346 0.0
H3488 H 0.34664 0.03974 0.13689 0.0
H3489 H 0.30848 0.02501 0.1707 0.0
H3490 H 0.33205 0.0346 0.18823 0.0
H3491 H 0.36373 0.05089 0.19384 0.0
H3492 H 0.40206 0.0673 0.16006 0.0
H3493 H 0.37825 0.05316 0.14267 0.0
C3494 C 0.34349 0.03848 0.1481 0.0
C3495 C 0.32588 0.03188 0.15247 0.0
C3496 C 0.35716 0.04445 0.15813 0.0
C3497 C 0.32192 0.02996 0.16703 0.0
C3498 C 0.33541 0.03559 0.17708 0.0
C3499 C 0.36684 0.05118 0.18268 0.0
C3500 C 0.38458 0.06032 0.17821 0.0
C3501 C 0.3531 0.04342 0.17273 0.0
C3502 C 0.38849 0.0603 0.16377 0.0
C3503 C 0.37488 0.05236 0.15381 0.0
H3504 H 0.32427 0.0056 0.85639 0.0
H3505 H 0.2886 0.00413 0.82394 0.0
H3506 H 0.30111 0.99221 0.80709 0.0
H3507 H 0.32038 0.97982 0.80219 0.0
H3508 H 0.3569 0.98239 0.83412 0.0
H3509 H 0.34623 0.99682 0.85051 0.0
C3510 C 0.3195 0.00309 0.84555 0.0
C3511 C 0.30525 0.00542 0.84154 0.0
C3512 C 0.32688 0.99643 0.83585 0.0
C3513 C 0.29919 0.00197 0.82745 0.0
C3514 C 0.30641 0.99526 0.81776 0.0
C3515 C 0.32611 0.98379 0.81269 0.0
C3516 C 0.33919 0.97999 0.81711 0.0
C3517 C 0.31992 0.99201 0.82197 0.0
C3518 C 0.34678 0.98527 0.8306 0.0
C3519 C 0.34062 0.9934 0.83995 0.0
H3520 H 0.06322 0.39392 0.83275 0.0
H3521 H 0.05071 0.36152 0.79527 0.0
H3522 H 0.03479 0.33477 0.80963 0.0
H3523 H 0.028 0.32073 0.83297 0.0
H3524 H 0.04141 0.35296 0.87063 0.0
H3525 H 0.05328 0.37969 0.85606 0.0
C3526 C 0.05662 0.38101 0.82772 0.0
C3527 C 0.05824 0.37962 0.81303 0.0
C3528 C 0.04785 0.36569 0.83608 0.0
C3529 C 0.04979 0.36284 0.80661 0.0
C3530 C 0.04071 0.34757 0.8148 0.0
C3531 C 0.03305 0.33356 0.83799 0.0
C3532 C 0.03396 0.33489 0.85284 0.0
C3533 C 0.04017 0.34883 0.82958 0.0
C3534 C 0.04079 0.35164 0.8592 0.0
C3535 C 0.04757 0.36691 0.85089 0.0
H3536 H 0.6837 0.72325 0.79876 0.0
H3537 H 0.64966 0.68589 0.83028 0.0
H3538 H 0.67451 0.69676 0.84683 0.0
H3539 H 0.70476 0.71963 0.85334 0.0
H3540 H 0.73834 0.75766 0.82197 0.0
H3541 H 0.71471 0.74398 0.80443 0.0
C3542 C 0.68178 0.71738 0.80922 0.0
C3543 C 0.66485 0.70399 0.81338 0.0
C3544 C 0.69594 0.72404 0.81878 0.0
C3545 C 0.66259 0.6962 0.82682 0.0
C3546 C 0.67675 0.70253 0.83633 0.0
C3547 C 0.70702 0.72469 0.84259 0.0
C3548 C 0.72316 0.73981 0.83902 0.0
C3549 C 0.69332 0.71685 0.83258 0.0
C3550 C 0.72588 0.74627 0.82506 0.0
C3551 C 0.71242 0.73841 0.81501 0.0
H3552 H 0.03648 0.71165 0.86069 0.0
H3553 H 0.01854 0.73204 0.82674 0.0
H3554 H 0.02769 0.71754 0.80936 0.0
H3555 H 0.04477 0.70297 0.80371 0.0
H3556 H 0.06572 0.68563 0.83767 0.0
H3557 H 0.05122 0.69477 0.85505 0.0
C3558 C 0.03447 0.71284 0.84949 0.0
C3559 C 0.02711 0.72319 0.84505 0.0
C3560 C 0.04045 0.70511 0.83951 0.0
C3561 C 0.02411 0.72413 0.83051 0.0
C3562 C 0.02952 0.71599 0.82053 0.0
C3563 C 0.04609 0.7011 0.81491 0.0
C3564 C 0.05658 0.6939 0.81935 0.0
C3565 C 0.03834 0.70706 0.8249 0.0
C3566 C 0.05769 0.69107 0.8339 0.0
C3567 C 0.04955 0.69646 0.84388 0.0
H3568 H 0.34946 0.37016 0.80676 0.0
H3569 H 0.34039 0.40336 0.83538 0.0
H3570 H 0.32894 0.38002 0.85326 0.0
H3571 H 0.31858 0.34942 0.85957 0.0
H3572 H 0.32913 0.3163 0.83188 0.0
H3573 H 0.34272 0.34037 0.81469 0.0
C3574 C 0.34519 0.37228 0.81701 0.0
C3575 C 0.34565 0.38833 0.81979 0.0
C3576 C 0.33867 0.35881 0.82727 0.0
C3577 C 0.34025 0.39112 0.83309 0.0
C3578 C 0.3336 0.37775 0.84326 0.0
C3579 C 0.3243 0.34748 0.85003 0.0
C3580 C 0.32253 0.33085 0.84704 0.0
C3581 C 0.33238 0.36143 0.84033 0.0
C3582 C 0.32982 0.32874 0.83437 0.0
C3583 C 0.33772 0.34255 0.82454 0.0
H3584 H 0.70094 0.9937 0.86166 0.0
H3585 H 0.73242 0.03776 0.83385 0.0
H3586 H 0.7078 0.02697 0.81713 0.0
H3587 H 0.67793 0.00384 0.80971 0.0
H3588 H 0.64648 0.96045 0.83803 0.0
H3589 H 0.67036 0.97246 0.85544 0.0
C3590 C 0.70233 0.00125 0.85214 0.0
C3591 C 0.71861 0.01644 0.84899 0.0
C3592 C 0.68812 0.99505 0.84263 0.0
C3593 C 0.72017 0.02582 0.83643 0.0
C3594 C 0.70607 0.01971 0.82688 0.0
C3595 C 0.67631 0.99715 0.81975 0.0
C3596 C 0.66054 0.98129 0.82259 0.0
C3597 C 0.69012 0.00412 0.82973 0.0
C3598 C 0.65847 0.97277 0.83567 0.0
C3599 C 0.67214 0.97956 0.84559 0.0
H3600 H 0.74636 0.04785 0.16471 0.0
H3601 H 0.70015 0.02024 0.13834 0.0
H3602 H 0.68366 0.02945 0.15397 0.0
H3603 H 0.68336 0.04724 0.17427 0.0
H3604 H 0.73011 0.07504 0.20027 0.0
H3605 H 0.74538 0.06368 0.18583 0.0
C3606 C 0.73259 0.04371 0.16256 0.0
C3607 C 0.72435 0.03349 0.15052 0.0
C3608 C 0.72337 0.04911 0.1715 0.0
C3609 C 0.7066 0.02811 0.14765 0.0
C3610 C 0.69726 0.03342 0.15653 0.0
C3611 C 0.69683 0.05065 0.17681 0.0
C3612 C 0.70557 0.06193 0.18833 0.0
C3613 C 0.70563 0.04421 0.16835 0.0
C3614 C 0.72299 0.06617 0.19159 0.0
C3615 C 0.7318 0.05981 0.18327 0.0
H3616 H 0.99413 0.69721 0.13274 0.0
H3617 H 0.03773 0.73051 0.16037 0.0
H3618 H 0.0283 0.70612 0.17714 0.0
H3619 H 0.0056 0.67647 0.18519 0.0
H3620 H 0.96243 0.64319 0.15731 0.0
H3621 H 0.97407 0.66629 0.1392 0.0
C3622 C 0.00191 0.69903 0.14221 0.0
C3623 C 0.01641 0.71579 0.14541 0.0
C3624 C 0.99642 0.68497 0.15181 0.0
C3625 C 0.02623 0.71788 0.15782 0.0
C3626 C 0.02089 0.70393 0.1674 0.0
C3627 C -0.00104 0.67424 0.17504 0.0
C3628 C 0.98315 0.6583 0.17258 0.0
C3629 C 0.00565 0.68762 0.16473 0.0
C3630 C 0.97469 0.65537 0.15938 0.0
C3631 C 0.98126 0.66861 0.14907 0.0
H3632 H 0.35176 0.33085 0.13485 0.0
H3633 H 0.31347 0.32001 0.16796 0.0
H3634 H 0.3373 0.33536 0.18506 0.0
H3635 H 0.3686 0.34809 0.19126 0.0
H3636 H 0.40622 0.35469 0.15864 0.0
H3637 H 0.38318 0.34511 0.1408 0.0
C3638 C 0.34858 0.33183 0.14581 0.0
C3639 C 0.33079 0.32397 0.15011 0.0
C3640 C 0.3623 0.33989 0.15575 0.0
C3641 C 0.327 0.32596 0.16426 0.0
C3642 C 0.34064 0.33459 0.17412 0.0
C3643 C 0.37181 0.34742 0.18026 0.0
C3644 C 0.38917 0.35188 0.17644 0.0
C3645 C 0.35828 0.34099 0.17008 0.0
C3646 C 0.3931 0.35152 0.16201 0.0
C3647 C 0.37985 0.34583 0.15175 0.0
H3648 H 0.66394 0.67234 0.52787 0.0
H3649 H 0.64773 0.69402 0.49372 0.0
H3650 H 0.66253 0.68478 0.47662 0.0
H3651 H 0.67657 0.6671 0.47114 0.0
H3652 H 0.69104 0.64378 0.50521 0.0
H3653 H 0.6807 0.65731 0.52256 0.0
C3654 C 0.6638 0.67517 0.51669 0.0
C3655 C 0.65455 0.68361 0.51205 0.0
C3656 C 0.67194 0.66943 0.50689 0.0
C3657 C 0.6548 0.68758 0.49758 0.0
C3658 C 0.66313 0.68217 0.48778 0.0
C3659 C 0.6776 0.66513 0.48237 0.0
C3660 C 0.68433 0.65426 0.48686 0.0
C3661 C 0.6712 0.67255 0.49228 0.0
C3662 C 0.68598 0.65214 0.50145 0.0
C3663 C 0.67992 0.65974 0.51139 0.0
H3664 H 0.39864 0.05932 0.49617 0.0
H3665 H 0.38686 0.02604 0.45929 0.0
H3666 H 0.3714 -0.00037 0.47411 0.0
H3667 H 0.36449 0.98621 0.49774 0.0
H3668 H 0.37697 0.01948 0.53471 0.0
H3669 H 0.38874 0.04574 0.51962 0.0
C3670 C 0.39231 0.04629 0.49134 0.0
C3671 C 0.394 0.0446 0.47669 0.0
C3672 C 0.38374 0.0312 0.49994 0.0
C3673 C 0.38592 0.02764 0.47059 0.0
C3674 C 0.37708 0.01255 0.47904 0.0
C3675 C 0.36936 -0.00084 0.50248 0.0
C3676 C 0.37001 0.00093 0.51731 0.0
C3677 C 0.37638 0.01419 0.49377 0.0
C3678 C 0.37657 0.01783 0.52331 0.0
C3679 C 0.38329 0.03283 0.5147 0.0
H3680 H 0.01182 0.38144 0.4731 0.0
H3681 H 0.97525 0.37147 0.50742 0.0
H3682 H -0.00059 0.38177 0.52449 0.0
H3683 H 0.03119 0.39572 0.52948 0.0
H3684 H 0.06775 0.40568 0.49522 0.0
H3685 H 0.0432 0.39261 0.47837 0.0
C3686 C 0.00905 0.38115 0.48433 0.0
C3687 C 0.99178 0.37594 0.48894 0.0
C3688 C 0.02299 0.38704 0.49411 0.0
C3689 C 0.98849 0.37581 0.50354 0.0
C3690 C 0.00227 0.3816 0.51333 0.0
C3691 C 0.03374 0.39489 0.51833 0.0
C3692 C 0.05123 0.40179 0.51357 0.0
C3693 C 0.01962 0.38763 0.50869 0.0
C3694 C 0.05437 0.40037 0.49915 0.0
C3695 C 0.04036 0.39304 0.4895 0.0
H3696 H 0.37507 0.38279 0.52681 0.0
H3697 H 0.34901 0.39442 0.49311 0.0
H3698 H 0.35777 0.37898 0.47619 0.0
H3699 H 0.37647 0.36612 0.47048 0.0
H3700 H 0.40492 0.35737 0.50408 0.0
H3701 H 0.39125 0.36729 0.52149 0.0
C3702 C 0.37117 0.38179 0.51578 0.0
C3703 C 0.3617 0.39001 0.51117 0.0
C3704 C 0.37676 0.37346 0.50605 0.0
C3705 C 0.35631 0.38821 0.49693 0.0
C3706 C 0.36145 0.37952 0.48723 0.0
C3707 C 0.37962 0.36628 0.48162 0.0
C3708 C 0.39196 0.36124 0.48587 0.0
C3709 C 0.37227 0.37273 0.49158 0.0
C3710 C 0.39542 0.36104 0.50042 0.0
C3711 C 0.38775 0.36692 0.51042 0.0
H3712 H 0.66502 0.99488 0.50868 0.0
H3713 H 0.64789 0.02096 0.53835 0.0
H3714 H 0.66401 0.04851 0.52512 0.0
H3715 H 0.67942 0.064 0.50345 0.0
H3716 H 0.69443 0.03736 0.47267 0.0
H3717 H 0.68262 0.01119 0.48795 0.0
C3718 C 0.66486 0.00661 0.51228 0.0
C3719 C 0.65508 0.00576 0.52441 0.0
C3720 C 0.67367 0.02228 0.50435 0.0
C3721 C 0.65539 0.02121 0.52913 0.0
C3722 C 0.66449 0.03697 0.52149 0.0
C3723 C 0.68054 0.05264 0.50028 0.0
C3724 C 0.68773 0.05253 0.48699 0.0
C3725 C 0.67321 0.0375 0.50888 0.0
C3726 C 0.68885 0.03765 0.48286 0.0
C3727 C 0.68206 0.0227 0.49156 0.0
H3728 H 0.99502 0.66375 0.49196 0.0
H3729 H 0.0233 0.65096 0.4611 0.0
H3730 H 0.05061 0.66718 0.47485 0.0
H3731 H 0.06524 0.68147 0.49706 0.0
H3732 H 0.03651 0.69217 0.529 0.0
H3733 H 0.01057 0.68047 0.51344 0.0
C3734 C 0.00731 0.66493 0.48815 0.0
C3735 C 0.00732 0.65628 0.47561 0.0
C3736 C 0.02276 0.67371 0.49638 0.0
C3737 C 0.02313 0.65756 0.47077 0.0
C3738 C 0.03867 0.66676 0.47864 0.0
C3739 C 0.05346 0.68169 0.50044 0.0
C3740 C 0.05272 0.68766 0.51411 0.0
C3741 C 0.0385 0.67441 0.49166 0.0
C3742 C 0.03729 0.68756 0.51851 0.0
C3743 C 0.02248 0.68084 0.50965 0.0
H3744 H 0.00247 0.24168 0.02079 0.0
H3745 H 0.04997 0.29285 0.02364 0.0
H3746 H 0.05164 0.29481 0.99784 0.0
H3747 H 0.03989 0.28168 0.9744 0.0
H3748 H 0.9915 0.23143 0.97176 0.0
H3749 H 0.98959 0.22967 0.99763 0.0
C3750 C 0.01301 0.25346 0.01584 0.0
C3751 C 0.02611 0.26705 0.02423 0.0
C3752 C 0.0137 0.25469 0.00103 0.0
C3753 C 0.03988 0.28201 0.0175 0.0
C3754 C 0.04078 0.28322 0.00273 0.0
C3755 C 0.02892 0.27041 0.97955 0.0
C3756 C 0.01588 0.25667 0.97129 0.0
C3757 C 0.02785 0.26957 0.99439 0.0
C3758 C 0.00161 0.24219 0.97797 0.0
C3759 C 0.00057 0.24115 0.99272 0.0
H3760 H 0.80284 0.786 0.97539 0.0
H3761 H 0.74941 0.77627 0.97188 0.0
H3762 H 0.74668 0.77518 0.99775 0.0
H3763 H 0.75974 0.77737 0.02135 0.0
H3764 H 0.81383 0.78866 0.02446 0.0
H3765 H 0.81584 0.78828 -0.00121 0.0
C3766 C 0.79052 0.7834 0.98029 0.0
C3767 C 0.77632 0.78112 0.97177 0.0
C3768 C 0.78913 0.783 0.9951 0.0
C3769 C 0.76055 0.77814 0.97825 0.0
C3770 C 0.75898 0.77748 0.99302 0.0
C3771 C 0.772 0.77987 0.01642 0.0
C3772 C 0.78653 0.78287 0.02491 0.0
C3773 C 0.77325 0.78003 0.00156 0.0
C3774 C 0.80227 0.78589 0.01828 0.0
C3775 C 0.80351 0.78585 0.00356 0.0
H3776 H 0.25288 0.03902 0.97653 0.0
H3777 H 0.28968 0.01969 0.97436 0.0
H3778 H 0.29106 0.01945 0.00029 0.0
H3779 H 0.28153 0.02456 0.02353 0.0
H3780 H 0.24339 0.04239 0.02524 0.0
H3781 H 0.24326 0.04389 -0.00046 0.0
C3782 C 0.26139 0.03498 0.98173 0.0
C3783 C 0.27126 0.02951 0.97357 0.0
C3784 C 0.26195 0.0347 0.99656 0.0
C3785 C 0.28191 0.02391 0.98044 0.0
C3786 C 0.28273 0.02381 0.99525 0.0
C3787 C 0.27308 0.02865 0.0183 0.0
C3788 C 0.2626 0.03349 0.02641 0.0
C3789 C 0.27271 0.02909 0.00342 0.0
C3790 C 0.25191 0.03897 0.01937 0.0
C3791 C 0.25168 0.03968 0.00463 0.0
H3792 H 0.02474 0.80482 0.97457 0.0
H3793 H 0.0329 0.76 0.97287 0.0
H3794 H 0.03237 0.75845 -0.0012 0.0
H3795 H 0.02945 0.76987 0.02194 0.0
H3796 H 0.02066 0.81433 0.0234 0.0
H3797 H 0.02159 0.81604 0.99754 0.0
C3798 C 0.02657 0.79483 0.9799 0.0
C3799 C 0.02899 0.78263 0.97187 0.0
C3800 C 0.02607 0.79393 0.99473 0.0
C3801 C 0.03097 0.7695 0.97886 0.0
C3802 C 0.03071 0.76864 0.99366 0.0
C3803 C 0.02784 0.77997 0.01656 0.0
C3804 C 0.02499 0.79196 0.02452 0.0
C3805 C 0.02826 0.78079 0.0017 0.0
C3806 C 0.0227 0.80486 0.01747 0.0
C3807 C 0.0233 0.80589 0.00271 0.0
H3808 H 0.28766 0.28115 0.02256 0.0
H3809 H 0.23871 0.23132 0.02532 0.0
H3810 H 0.23587 0.23032 -0.00041 0.0
H3811 H 0.24703 0.24366 0.97633 0.0
H3812 H 0.29587 0.29346 0.97326 0.0
H3813 H 0.29901 0.29448 -0.0009 0.0
C3814 C 0.27636 0.27012 0.01751 0.0
C3815 C 0.26347 0.2563 0.02584 0.0
C3816 C 0.27476 0.26965 0.00268 0.0
C3817 C 0.24897 0.24199 0.01915 0.0
C3818 C 0.24726 0.24146 0.00444 0.0
C3819 C 0.25828 0.25481 0.98134 0.0
C3820 C 0.27114 0.26852 0.97296 0.0
C3821 C 0.26003 0.25523 0.99612 0.0
C3822 C 0.28584 0.28272 0.97953 0.0
C3823 C 0.28761 0.28332 0.99428 0.0
H3824 H 0.78723 0.00873 0.97683 0.0
H3825 H 0.7862 0.05768 0.97442 0.0
H3826 H 0.78571 0.05901 0.00023 0.0
H3827 H 0.78565 0.04629 0.02357 0.0
H3828 H 0.78485 0.99652 0.02582 0.0
H3829 H 0.78554 0.99526 -6e-05 0.0
C3830 C 0.78659 0.01956 0.98189 0.0
C3831 C 0.78682 0.03311 0.9736 0.0
C3832 C 0.78593 0.02007 0.99672 0.0
C3833 C 0.78636 0.04721 0.98047 0.0
C3834 C 0.78596 0.04793 0.99525 0.0
C3835 C 0.78562 0.03519 0.01834 0.0
C3836 C 0.78523 0.02153 0.02651 0.0
C3837 C 0.78582 0.03448 0.00348 0.0
C3838 C 0.78502 0.00711 0.0197 0.0
C3839 C 0.78548 0.00643 0.00493 0.0
H3840 H 0.70567 0.62268 0.30868 0.0
H3841 H 0.66371 0.56844 0.30531 0.0
H3842 H 0.66206 0.56576 0.33116 0.0
H3843 H 0.67364 0.57834 0.35441 0.0
H3844 H 0.71365 0.63358 0.35812 0.0
H3845 H 0.7153 0.63623 0.33239 0.0
C3846 C 0.69609 0.61037 0.31369 0.0
C3847 C 0.68483 0.59575 0.30526 0.0
C3848 C 0.69505 0.60904 0.32853 0.0
C3849 C 0.67239 0.57984 0.3117 0.0
C3850 C 0.67153 0.5783 0.32643 0.0
C3851 C 0.68244 0.59114 0.34973 0.0
C3852 C 0.69356 0.60569 0.35838 0.0
C3853 C 0.6829 0.59277 0.33494 0.0
C3854 C 0.70519 0.62198 0.35185 0.0
C3855 C 0.70604 0.62359 0.33709 0.0
H3856 H 0.43287 0.10519 0.35454 0.0
H3857 H 0.4901 0.13392 0.35583 0.0
H3858 H 0.49117 0.13271 0.33016 0.0
H3859 H 0.47603 0.12501 0.30714 0.0
H3860 H 0.41913 0.09936 0.30557 0.0
H3861 H 0.41774 0.09817 0.33153 0.0
C3862 C 0.44561 0.1114 0.34926 0.0
C3863 C 0.46135 0.11955 0.35727 0.0
C3864 C 0.44619 0.11127 0.33439 0.0
C3865 C 0.4777 0.12718 0.3501 0.0
C3866 C 0.47837 0.12667 0.33535 0.0
C3867 C 0.46335 0.11899 0.31254 0.0
C3868 C 0.4477 0.11212 0.30461 0.0
C3869 C 0.46273 0.11888 0.32739 0.0
C3870 C 0.43132 0.10464 0.31158 0.0
C3871 C 0.43054 0.104 0.32638 0.0
H3872 H 0.93614 0.34286 0.35391 0.0
H3873 H 0.93003 0.38879 0.35833 0.0
H3874 H 0.92979 0.39158 0.33265 0.0
H3875 H 0.92958 0.38003 0.30897 0.0
H3876 H 0.93507 0.33379 0.30435 0.0
H3877 H 0.93699 0.33189 0.33007 0.0
C3878 C 0.93473 0.35345 0.34924 0.0
C3879 C 0.93313 0.3656 0.35803 0.0
C3880 C 0.93435 0.35485 0.33444 0.0
C3881 C 0.93155 0.37941 0.35182 0.0
C3882 C 0.93127 0.38094 0.33712 0.0
C3883 C 0.93147 0.3697 0.31358 0.0
C3884 C 0.93213 0.35705 0.30478 0.0
C3885 C 0.93249 0.36865 0.32834 0.0
C3886 C 0.93431 0.34357 0.31092 0.0
C3887 C 0.93547 0.34251 0.32562 0.0
H3888 H 0.70531 0.13211 0.35747 0.0
H3889 H 0.6551 0.08372 0.36004 0.0
H3890 H 0.65304 0.08226 0.33412 0.0
H3891 H 0.66553 0.09494 0.31082 0.0
H3892 H 0.71484 0.14457 0.30853 0.0
H3893 H 0.71739 0.14518 0.33423 0.0
C3894 C 0.69401 0.12119 0.35231 0.0
C3895 C 0.68044 0.10798 0.36054 0.0
C3896 C 0.69278 0.12065 0.33748 0.0
C3897 C 0.66568 0.09403 0.35383 0.0
C3898 C 0.66452 0.0932 0.33905 0.0
C3899 C 0.67675 0.10599 0.31592 0.0
C3900 C 0.69002 0.11961 0.30767 0.0
C3901 C 0.67795 0.1065 0.33077 0.0
C3902 C 0.70459 0.13369 0.31453 0.0
C3903 C 0.70601 0.13415 0.32926 0.0
H3904 H 0.95092 0.61859 0.35532 0.0
H3905 H 0.89483 0.58155 0.35782 0.0
H3906 H 0.89275 0.58066 0.33202 0.0
H3907 H 0.90695 0.58947 0.30884 0.0
H3908 H 0.96285 0.62737 0.30605 0.0
H3909 H 0.96497 0.62849 0.33187 0.0
C3910 C 0.93826 0.61032 0.35018 0.0
C3911 C 0.92306 0.60017 0.35845 0.0
C3912 C 0.93714 0.60989 0.33531 0.0
C3913 C 0.9067 0.58964 0.35169 0.0
C3914 C 0.90551 0.58904 0.33694 0.0
C3915 C 0.91957 0.59826 0.31382 0.0
C3916 C 0.9347 0.60832 0.30543 0.0
C3917 C 0.92065 0.59905 0.32865 0.0
C3918 C 0.951 0.61927 0.31219 0.0
C3919 C 0.95222 0.62001 0.32697 0.0
H3920 H 0.42956 0.3454 0.35616 0.0
H3921 H 0.48485 0.38565 0.35804 0.0
H3922 H 0.48589 0.38783 0.33233 0.0
H3923 H 0.47165 0.37734 0.3092 0.0
H3924 H 0.41719 0.33553 0.30706 0.0
H3925 H 0.41538 0.33465 0.33298 0.0
C3926 C 0.4419 0.35454 0.35098 0.0
C3927 C 0.45707 0.36537 0.35914 0.0
C3928 C 0.4426 0.35538 0.33611 0.0
C3929 C 0.47284 0.37737 0.35215 0.0
C3930 C 0.47352 0.37854 0.33739 0.0
C3931 C 0.45934 0.36819 0.31444 0.0
C3932 C 0.44455 0.35658 0.30631 0.0
C3933 C 0.45854 0.36752 0.32928 0.0
C3934 C 0.42875 0.34455 0.31316 0.0
C3935 C 0.42772 0.34406 0.32795 0.0
H3936 H 0.33707 0.91831 0.68894 0.0
H3937 H 0.39126 0.9611 0.69042 0.0
H3938 H 0.39217 0.96235 0.66455 0.0
H3939 H 0.37783 0.95059 0.64151 0.0
H3940 H 0.32348 0.90829 0.64022 0.0
H3941 H 0.3222 0.90792 0.6661 0.0
C3942 C 0.349 0.92817 0.68366 0.0
C3943 C 0.3641 0.93956 0.69165 0.0
C3944 C 0.34938 0.92893 0.66882 0.0
C3945 C 0.37953 0.95199 0.68454 0.0
C3946 C 0.38003 0.95278 0.66975 0.0
C3947 C 0.36571 0.94134 0.64693 0.0
C3948 C 0.35079 0.92943 0.63902 0.0
C3949 C 0.3651 0.94117 0.66179 0.0
C3950 C 0.33508 0.91767 0.64611 0.0
C3951 C 0.33438 0.91738 0.66089 0.0
H3952 H 0.1384 0.45555 0.68752 0.0
H3953 H 0.08479 0.44593 0.68961 0.0
H3954 H 0.08351 0.44616 0.66379 0.0
H3955 H 0.09774 0.44922 0.64052 0.0
H3956 H 0.15029 0.45629 0.63875 0.0
H3957 H 0.15159 0.45623 0.66463 0.0
C3958 C 0.12623 0.45307 0.68243 0.0
C3959 C 0.11173 0.45075 0.69065 0.0
C3960 C 0.12536 0.45265 0.6676 0.0
C3961 C 0.09632 0.4481 0.68367 0.0
C3962 C 0.0955 0.44807 0.66887 0.0
C3963 C 0.10941 0.45067 0.64586 0.0
C3964 C 0.12392 0.4528 0.63783 0.0
C3965 C 0.10997 0.45041 0.66073 0.0
C3966 C 0.13894 0.45451 0.64477 0.0
C3967 C 0.13972 0.45458 0.65953 0.0
H3968 H 0.60821 0.68265 0.68869 0.0
H3969 H 0.58596 0.71717 0.69008 0.0
H3970 H 0.58774 0.7198 0.66441 0.0
H3971 H 0.59401 0.71106 0.64136 0.0
H3972 H 0.61331 0.67427 0.63968 0.0
H3973 H 0.61403 0.67352 0.66565 0.0
C3974 C 0.60358 0.69062 0.68342 0.0
C3975 C 0.59704 0.69975 0.69144 0.0
C3976 C 0.60405 0.69163 0.66856 0.0
C3977 C 0.59142 0.71027 0.68431 0.0
C3978 C 0.59227 0.71168 0.66957 0.0
C3979 C 0.59857 0.70307 0.64674 0.0
C3980 C 0.60375 0.69286 0.63877 0.0
C3981 C 0.59842 0.70231 0.66159 0.0
C3982 C 0.60933 0.68227 0.64572 0.0
C3983 C 0.6097 0.68182 0.66051 0.0
H3984 H 0.37661 0.45757 0.68706 0.0
H3985 H 0.31956 0.42781 0.68877 0.0
H3986 H 0.31816 0.42623 0.6629 0.0
H3987 H 0.33315 0.43437 0.6398 0.0
H3988 H 0.39019 0.46453 0.6381 0.0
H3989 H 0.39162 0.46484 0.66398 0.0
C3990 C 0.36389 0.45052 0.68177 0.0
C3991 C 0.34821 0.44281 0.6898 0.0
C3992 C 0.36319 0.44982 0.66691 0.0
C3993 C 0.3318 0.43398 0.6828 0.0
C3994 C 0.331 0.43303 0.66802 0.0
C3995 C 0.34589 0.44079 0.64511 0.0
C3996 C 0.36154 0.44941 0.63707 0.0
C3997 C 0.3466 0.44105 0.65997 0.0
C3998 C 0.37796 0.45794 0.64408 0.0
C3999 C 0.37878 0.45808 0.65886 0.0
H4000 H 0.60701 0.92081 0.68961 0.0
H4001 H 0.57401 0.94474 0.69129 0.0
H4002 H 0.57317 0.94521 0.66549 0.0
H4003 H 0.58121 0.93825 0.64246 0.0
H4004 H 0.6117 0.9116 0.64095 0.0
H4005 H 0.61399 0.91274 0.66668 0.0
C4006 C 0.59942 0.92593 0.68439 0.0
C4007 C 0.59061 0.93273 0.69249 0.0
C4008 C 0.59853 0.92569 0.66954 0.0
C4009 C 0.58121 0.93969 0.68541 0.0
C4010 C 0.58057 0.93982 0.67062 0.0
C4011 C 0.58817 0.93247 0.64773 0.0
C4012 C 0.59631 0.9249 0.63968 0.0
C4013 C 0.58908 0.93274 0.66259 0.0
C4014 C 0.60557 0.91782 0.64678 0.0
C4015 C 0.60678 0.91833 0.66153 0.0
H4016 H 0.10044 0.66976 0.68946 0.0
H4017 H 0.13015 0.72679 0.69193 0.0
H4018 H 0.13083 0.72874 0.66608 0.0
H4019 H 0.12439 0.7142 0.64284 0.0
H4020 H 0.09463 0.65717 0.64037 0.0
H4021 H 0.09251 0.65526 0.66619 0.0
C4022 C 0.1068 0.68262 0.68434 0.0
C4023 C 0.11528 0.6981 0.69259 0.0
C4024 C 0.10725 0.68364 0.66949 0.0
C4025 C 0.12371 0.71467 0.6858 0.0
C4026 C 0.12406 0.7158 0.67103 0.0
C4027 C 0.11719 0.70136 0.64794 0.0
C4028 C 0.10974 0.68585 0.63969 0.0
C4029 C 0.11608 0.70036 0.66278 0.0
C4030 C 0.10069 0.6693 0.64648 0.0
C4031 C 0.09941 0.6682 0.66124 0.0
H4032 H 0.89613 0.09687 0.10728 0.0
H4033 H 0.87251 0.11798 0.13573 0.0
H4034 H 0.90044 0.14597 0.13693 0.0
H4035 H 0.93083 0.1653 0.12831 0.0
H4036 H 0.95375 0.14464 0.0988 0.0
H4037 H 0.92673 0.11571 0.0994 0.0
C4038 C 0.89705 0.1076 0.11372 0.0
C4039 C 0.88217 0.10533 0.12131 0.0
C4040 C 0.91299 0.12381 0.11406 0.0
C4041 C 0.88376 0.11926 0.12987 0.0
C4042 C 0.8997 0.13535 0.13047 0.0
C4043 C 0.92997 0.15437 0.12219 0.0
C4044 C 0.94419 0.15707 0.11348 0.0
C4045 C 0.9143 0.13787 0.12241 0.0
C4046 C 0.94287 0.14289 0.10546 0.0
C4047 C 0.92746 0.12636 0.10583 0.0
H4048 H 0.94762 0.82217 0.10881 0.0
H4049 H 0.92598 0.77426 0.13371 0.0
H4050 H 0.89801 0.77405 0.13588 0.0
H4051 H 0.8788 0.78604 0.12898 0.0
H4052 H 0.89974 0.83239 0.10242 0.0
H4053 H 0.92882 0.83454 0.10246 0.0
C4054 C 0.93677 0.8116 0.11465 0.0
C4055 C 0.93893 0.79819 0.12098 0.0
C4056 C 0.92054 0.81124 0.11549 0.0
C4057 C 0.92482 0.78488 0.12883 0.0
C4058 C 0.90874 0.78465 0.12999 0.0
C4059 C 0.88985 0.79674 0.1234 0.0
C4060 C 0.88726 0.80905 0.11571 0.0
C4061 C 0.90635 0.79758 0.12315 0.0
C4062 C 0.90152 0.82275 0.10835 0.0
C4063 C 0.91809 0.82397 0.10837 0.0
H4064 H 0.26595 0.12139 0.12604 0.0
H4065 H 0.20919 0.08978 0.12193 0.0
H4066 H 0.20674 0.11649 0.12309 0.0
H4067 H 0.22089 0.14891 0.12403 0.0
H4068 H 0.27785 0.18042 0.12701 0.0
H4069 H 0.27995 0.15365 0.12805 0.0
C4070 C 0.25301 0.12031 0.12566 0.0
C4071 C 0.23778 0.10363 0.12385 0.0
C4072 C 0.25172 0.13572 0.12618 0.0
C4073 C 0.22114 0.1025 0.12316 0.0
C4074 C 0.21972 0.11775 0.12386 0.0
C4075 C 0.23378 0.14995 0.12489 0.0
C4076 C 0.24917 0.16674 0.12541 0.0
C4077 C 0.23496 0.13446 0.12511 0.0
C4078 C 0.26572 0.16775 0.12679 0.0
C4079 C 0.26698 0.15241 0.12725 0.0
H4080 H 0.16747 0.92966 0.87289 0.0
H4081 H 0.14421 0.95568 0.89592 0.0
H4082 H 0.11518 0.92881 0.89472 0.0
H4083 H 0.09683 0.89759 0.88821 0.0
H4084 H 0.12061 0.87094 0.86666 0.0
H4085 H 0.14884 0.89855 0.86575 0.0
C4086 C 0.15598 0.92949 0.87746 0.0
C4087 C 0.15793 0.94456 0.88451 0.0
C4088 C 0.13942 0.91391 0.87695 0.0
C4089 C 0.14301 0.94415 0.89055 0.0
C4090 C 0.12643 0.92883 0.88984 0.0
C4091 C 0.10819 0.89776 0.88337 0.0
C4092 C 0.10654 0.88211 0.87761 0.0
C4093 C 0.12455 0.91354 0.88329 0.0
C4094 C 0.12135 0.88276 0.87105 0.0
C4095 C 0.13759 0.89853 0.87064 0.0
H4096 H 0.15967 0.24497 0.86529 0.0
H4097 H 0.16916 0.25806 0.90969 0.0
H4098 H 0.14164 0.25887 0.91135 0.0
H4099 H 0.11506 0.25584 0.90032 0.0
H4100 H 0.10407 0.24088 0.85629 0.0
H4101 H 0.1322 0.24121 0.85424 0.0
C4102 C 0.15566 0.24804 0.87528 0.0
C4103 C 0.16631 0.2514 0.88736 0.0
C4104 C 0.13966 0.24822 0.87621 0.0
C4105 C 0.16103 0.25527 0.9003 0.0
C4106 C 0.14536 0.25579 0.90124 0.0
C4107 C 0.11862 0.25237 0.8903 0.0
C4108 C 0.10735 0.24822 0.87851 0.0
C4109 C 0.13454 0.25219 0.88929 0.0
C4110 C 0.11254 0.24429 0.86552 0.0
C4111 C 0.12857 0.24436 0.86436 0.0
H4112 H 0.78541 0.88196 0.89874 0.0
H4113 H 0.82555 0.89893 0.86631 0.0
H4114 H 0.82617 0.9272 0.86439 0.0
H4115 H 0.81598 0.94753 0.87257 0.0
H4116 H 0.77649 0.93047 0.90552 0.0
H4117 H 0.7753 0.90197 0.90683 0.0
C4118 C 0.79449 0.8919 0.89137 0.0
C4119 C 0.80552 0.88834 0.88277 0.0
C4120 C 0.79497 0.90818 0.89048 0.0
C4121 C 0.81681 0.90124 0.873 0.0
C4122 C 0.81725 0.91746 0.87195 0.0
C4123 C 0.80703 0.9375 0.87995 0.0
C4124 C 0.79641 0.94114 0.88899 0.0
C4125 C 0.80645 0.92111 0.88069 0.0
C4126 C 0.78498 0.92809 0.89859 0.0
C4127 C 0.78423 0.91176 0.8993 0.0
H4128 H 0.54916 0.44678 0.43275 0.0
H4129 H 0.55744 0.43585 0.47572 0.0
H4130 H 0.58558 0.46399 0.47662 0.0
H4131 H 0.60808 0.49133 0.4648 0.0
H4132 H 0.59823 0.50265 0.42225 0.0
H4133 H 0.57058 0.47461 0.42151 0.0
C4134 C 0.5572 0.45056 0.44228 0.0
C4135 C 0.55146 0.43928 0.45409 0.0
C4136 C 0.5731 0.46676 0.44276 0.0
C4137 C 0.56172 0.4444 0.4665 0.0
C4138 C 0.57777 0.46043 0.46699 0.0
C4139 C 0.5998 0.48778 0.45543 0.0
C4140 C 0.60547 0.49904 0.44352 0.0
C4141 C 0.58362 0.47171 0.45515 0.0
C4142 C 0.59453 0.4941 0.43144 0.0
C4143 C 0.5786 0.4781 0.43103 0.0
H4144 H 0.61407 0.15212 0.44256 0.0
H4145 H 0.59559 0.11011 0.47354 0.0
H4146 H 0.56824 0.11096 0.47636 0.0
H4147 H 0.54874 0.12223 0.46891 0.0
H4148 H 0.56606 0.16169 0.43579 0.0
H4149 H 0.59463 0.16324 0.43506 0.0
C4150 C 0.60402 0.143 0.44984 0.0
C4151 C 0.60694 0.13098 0.45772 0.0
C4152 C 0.58805 0.1431 0.45106 0.0
C4153 C 0.5939 0.11967 0.46742 0.0
C4154 C 0.57814 0.12002 0.46896 0.0
C4155 C 0.55868 0.13109 0.46144 0.0
C4156 C 0.55507 0.1418 0.45243 0.0
C4157 C 0.57494 0.13146 0.46064 0.0
C4158 C 0.5684 0.15349 0.44308 0.0
C4159 C 0.58476 0.15428 0.44252 0.0
H4160 H 0.9266 0.45159 0.45855 0.0
H4161 H 0.87535 0.42426 0.43847 0.0
H4162 H 0.87386 0.45154 0.43847 0.0
H4163 H 0.88782 0.48345 0.44309 0.0
H4164 H 0.93977 0.511 0.46213 0.0
H4165 H 0.94009 0.48328 0.46395 0.0
C4166 C 0.91499 0.45156 0.4544 0.0
C4167 C 0.90112 0.43598 0.44851 0.0
C4168 C 0.91436 0.46733 0.45423 0.0
C4169 C 0.88625 0.43616 0.44296 0.0
C4170 C 0.88539 0.45173 0.44297 0.0
C4171 C 0.89924 0.48341 0.4476 0.0
C4172 C 0.91376 0.49933 0.45242 0.0
C4173 C 0.89951 0.46746 0.44835 0.0
C4174 C 0.92831 0.49894 0.45849 0.0
C4175 C 0.92857 0.4831 0.45943 0.0
H4176 H 0.76659 0.22554 0.20385 0.0
H4177 H 0.78404 0.20489 0.23794 0.0
H4178 H 0.81175 0.23293 0.23956 0.0
H4179 H 0.83089 0.26333 0.23157 0.0
H4180 H 0.81402 0.28432 0.1974 0.0
H4181 H 0.78636 0.25599 0.19531 0.0
C4182 C 0.77655 0.22713 0.21151 0.0
C4183 C 0.77317 0.2132 0.22085 0.0
C4184 C 0.79254 0.24332 0.21237 0.0
C4185 C 0.78616 0.21551 0.23081 0.0
C4186 C 0.80205 0.23151 0.2317 0.0
C4187 C 0.82108 0.26177 0.22375 0.0
C4188 C 0.82438 0.27594 0.21477 0.0
C4189 C 0.8053 0.24553 0.22264 0.0
C4190 C 0.81177 0.27357 0.20443 0.0
C4191 C 0.79595 0.25741 0.20327 0.0
H4192 H 0.82789 0.57844 0.23328 0.0
H4193 H 0.83269 0.58201 0.18778 0.0
H4194 H 0.80487 0.5825 0.18607 0.0
H4195 H 0.77921 0.58195 0.19768 0.0
H4196 H 0.7756 0.57963 0.24336 0.0
H4197 H 0.80279 0.57835 0.2448 0.0
C4198 C 0.82272 0.57911 0.22298 0.0
C4199 C 0.83217 0.58002 0.21067 0.0
C4200 C 0.80694 0.5796 0.22212 0.0
C4201 C 0.82559 0.58131 0.1974 0.0
C4202 C 0.80971 0.58157 0.19643 0.0
C4203 C 0.78446 0.58129 0.20795 0.0
C4204 C 0.77524 0.58069 0.22038 0.0
C4205 C 0.80031 0.5808 0.20874 0.0
C4206 C 0.78218 0.57972 0.2336 0.0
C4207 C 0.79781 0.57911 0.23446 0.0
H4208 H 0.44983 0.26223 0.20503 0.0
H4209 H 0.50155 0.29183 0.22429 0.0
H4210 H 0.50427 0.26534 0.2245 0.0
H4211 H 0.49132 0.23338 0.22033 0.0
H4212 H 0.44028 0.20417 0.20017 0.0
H4213 H 0.43821 0.2311 0.19874 0.0
C4214 C 0.46189 0.26306 0.209 0.0
C4215 C 0.47535 0.27904 0.21481 0.0
C4216 C 0.46351 0.24784 0.2089 0.0
C4217 C 0.49076 0.27965 0.22008 0.0
C4218 C 0.4924 0.26453 0.22011 0.0
C4219 C 0.47982 0.23299 0.21554 0.0
C4220 C 0.46592 0.21686 0.21045 0.0
C4221 C 0.47873 0.24849 0.21477 0.0
C4222 C 0.45118 0.21649 0.20409 0.0
C4223 C 0.44995 0.23184 0.20336 0.0
H4224 H 0.27356 0.82209 0.79585 0.0
H4225 H 0.26647 0.83347 0.75257 0.0
H4226 H 0.23779 0.80644 0.75164 0.0
H4227 H 0.21469 0.77968 0.763 0.0
H4228 H 0.22107 0.76803 0.80629 0.0
H4229 H 0.24988 0.79531 0.80747 0.0
C4230 C 0.26567 0.81871 0.78626 0.0
C4231 C 0.27227 0.82972 0.77425 0.0
C4232 C 0.24905 0.80317 0.78582 0.0
C4233 C 0.26192 0.82507 0.76187 0.0
C4234 C 0.24544 0.80967 0.76135 0.0
C4235 C 0.22245 0.78303 0.77266 0.0
C4236 C 0.21586 0.7718 0.7845 0.0
C4237 C 0.23892 0.79861 0.77322 0.0
C4238 C 0.22586 0.77652 0.79706 0.0
C4239 C 0.24235 0.79205 0.7977 0.0
H4240 H 0.26864 0.46345 0.76232 0.0
H4241 H 0.27931 0.47917 0.8061 0.0
H4242 H 0.25146 0.47973 0.80768 0.0
H4243 H 0.22431 0.47602 0.79632 0.0
H4244 H 0.21292 0.45765 0.75298 0.0
H4245 H 0.24093 0.45812 0.75146 0.0
C4246 C 0.26485 0.46707 0.77217 0.0
C4247 C 0.27594 0.47147 0.78403 0.0
C4248 C 0.24876 0.46696 0.77304 0.0
C4249 C 0.27088 0.47582 0.79684 0.0
C4250 C 0.25502 0.47614 0.79772 0.0
C4251 C 0.22783 0.47192 0.78659 0.0
C4252 C 0.21654 0.46713 0.77471 0.0
C4253 C 0.24383 0.47172 0.78587 0.0
C4254 C 0.22149 0.46195 0.76218 0.0
C4255 C 0.23747 0.46204 0.76131 0.0
H4256 H 0.55669 0.76767 0.78326 0.0
H4257 H 0.6127 0.78984 0.79095 0.0
H4258 H 0.61672 0.81953 0.79087 0.0
H4259 H 0.60483 0.83947 0.7869 0.0
H4260 H 0.54943 0.81748 0.77726 0.0
H4261 H 0.5448 0.78751 0.77939 0.0
C4262 C 0.56983 0.77896 0.78482 0.0
C4263 C 0.58433 0.77637 0.78709 0.0
C4264 C 0.57222 0.7961 0.78422 0.0
C4265 C 0.60117 0.79126 0.78942 0.0
C4266 C 0.60356 0.80833 0.78922 0.0
C4267 C 0.59173 0.82808 0.78541 0.0
C4268 C 0.5775 0.83061 0.7819 0.0
C4269 C 0.58924 0.81092 0.78642 0.0
C4270 C 0.56061 0.81581 0.77983 0.0
C4271 C 0.55795 0.79869 0.7811 0.0
H4272 H 0.50348 0.5958 0.53658 0.0
H4273 H 0.4818 0.62261 0.56058 0.0
H4274 H 0.45266 0.59585 0.56044 0.0
H4275 H 0.4339 0.56443 0.55482 0.0
H4276 H 0.45589 0.53697 0.53203 0.0
H4277 H 0.4842 0.56447 0.53005 0.0
C4278 C 0.49228 0.59581 0.54157 0.0
C4279 C 0.49473 0.61106 0.54863 0.0
C4280 C 0.47565 0.58027 0.5417 0.0
C4281 C 0.48021 0.61093 0.5552 0.0
C4282 C 0.46357 0.59566 0.55511 0.0
C4283 C 0.44489 0.56442 0.54946 0.0
C4284 C 0.44278 0.5486 0.54371 0.0
C4285 C 0.46124 0.58016 0.54866 0.0
C4286 C 0.45707 0.54896 0.53648 0.0
C4287 C 0.47332 0.56466 0.53542 0.0
H4288 H 0.43852 0.90231 0.53539 0.0
H4289 H 0.44974 0.9301 0.57528 0.0
H4290 H 0.47821 0.9313 0.5766 0.0
H4291 H 0.49993 0.92453 0.56654 0.0
H4292 H 0.48915 0.89665 0.52676 0.0
H4293 H 0.46069 0.89575 0.52512 0.0
C4294 C 0.44728 0.90873 0.54431 0.0
C4295 C 0.44193 0.91595 0.55528 0.0
C4296 C 0.46372 0.90941 0.545 0.0
C4297 C 0.45337 0.92414 0.56682 0.0
C4298 C 0.46971 0.92493 0.56755 0.0
C4299 C 0.49128 0.91808 0.55758 0.0
C4300 C 0.4966 0.91056 0.54685 0.0
C4301 C 0.47496 0.91753 0.55676 0.0
C4302 C 0.48541 0.90264 0.53513 0.0
C4303 C 0.46911 0.90205 0.53422 0.0
H4304 H 0.15601 0.61813 0.54263 0.0
H4305 H 0.09888 0.59143 0.54328 0.0
H4306 H 0.09747 0.56282 0.54233 0.0
H4307 H 0.11239 0.54531 0.54327 0.0
H4308 H 0.16947 0.57189 0.5436 0.0
H4309 H 0.17094 0.6006 0.54254 0.0
C4310 C 0.14324 0.60606 0.54259 0.0
C4311 C 0.12759 0.60699 0.54309 0.0
C4312 C 0.1425 0.5896 0.54239 0.0
C4313 C 0.11116 0.59118 0.54273 0.0
C4314 C 0.11032 0.57477 0.54232 0.0
C4315 C 0.12515 0.55737 0.54287 0.0
C4316 C 0.14079 0.55647 0.54357 0.0
C4317 C 0.1259 0.57382 0.54238 0.0
C4318 C 0.15723 0.57225 0.54325 0.0
C4319 C 0.15809 0.58866 0.5426 0.0
loop_
_geom_bond_atom_site_label_1
_geom_bond_atom_site_label_2
_geom_bond_distance
_geom_bond_site_symmetry_2
_ccdc_geom_bond_type
Li0 N17 1.990 . S
Li0 O60 1.956 . S
Li0 O61 1.970 . S
Li0 O62 1.961 . S
Li1 N25 1.990 . S
Li1 O60 1.970 . S
Li1 O61 1.956 . S
Li1 O63 1.961 . S
Li2 N47 1.990 . S
Li2 O60 1.961 . S
Li2 O62 1.956 . S
Li2 O63 1.970 . S
Li3 N53 1.990 1_455 S
Li3 O61 1.961 . S
Li3 O62 1.970 . S
Li3 O63 1.956 . S
C4 C6 1.348 . S
C4 C7 1.356 . S
C4 O60 1.325 . S
N5 C8 1.314 . S
N5 C9 1.279 . S
C6 C4 1.348 . S
C6 C8 1.353 . S
C6 H64 0.929 . S
C7 C4 1.356 . S
C7 C9 1.358 . S
C7 H65 0.930 . S
C8 N5 1.314 . S
C8 C6 1.353 . S
C8 H66 0.930 . S
C9 N5 1.279 . S
C9 C7 1.358 . S
C9 H67 0.930 . S
C10 C13 1.348 . S
C10 C14 1.356 . S
C10 O61 1.325 . S
C11 N12 1.279 . S
C11 C14 1.358 . S
C11 H68 0.930 . S
N12 C11 1.279 . S
N12 C15 1.314 . S
C13 C10 1.348 . S
C13 C15 1.353 . S
C13 H69 0.929 . S
C14 C10 1.356 . S
C14 C11 1.358 . S
C14 H70 0.930 . S
C15 N12 1.314 . S
C15 C13 1.353 . S
C15 H71 0.930 . S
C16 N17 1.314 . S
C16 C21 1.353 . S
C16 H22 0.917 1_455 S
N17 Li0 1.990 . S
N17 C16 1.314 . S
N17 C19 1.279 . S
C18 C19 1.358 . S
C18 C20 1.356 . S
C18 H72 0.930 . S
C19 N17 1.279 . S
C19 C18 1.358 . S
C19 H23 0.930 . S
C20 C18 1.356 . S
C20 C21 1.348 . S
C21 C16 1.353 . S
C21 C20 1.348 . S
C21 H73 0.929 1_455 S
H22 C16 0.917 1_655 S
H23 C19 0.930 . S
C24 N25 1.314 . S
C24 C26 1.353 . S
C24 H30 0.930 . S
N25 Li1 1.990 . S
N25 C24 1.314 . S
N25 C28 1.279 . S
C26 C24 1.353 . S
C26 C29 1.348 . S
C26 H74 0.929 . S
C27 C28 1.358 . S
C27 C29 1.356 . S
C27 H75 0.930 . S
C28 N25 1.279 . S
C28 C27 1.358 . S
C28 H31 0.930 . S
C29 C26 1.348 . S
C29 C27 1.356 . S
H30 C24 0.930 . S
H31 C28 0.930 . S
C32 C34 1.348 . S
C32 C35 1.356 . S
C32 O62 1.325 1_655 S
N33 C36 1.314 . S
N33 C37 1.279 . S
C34 C32 1.348 . S
C34 C36 1.353 . S
C34 H76 0.929 . S
C35 C32 1.356 . S
C35 C37 1.358 . S
C35 H77 0.930 1_655 S
C36 N33 1.314 . S
C36 C34 1.353 . S
C36 H78 0.930 . S
C37 N33 1.279 . S
C37 C35 1.358 . S
C37 H79 0.930 . S
C38 C39 1.348 . S
C38 C40 1.356 . S
C38 O63 1.325 . S
C39 C38 1.348 . S
C39 C41 1.353 . S
C39 H80 0.929 . S
C40 C38 1.356 . S
C40 C42 1.358 . S
C40 H81 0.930 . S
C41 C39 1.353 . S
C41 N43 1.314 . S
C41 H82 0.930 . S
C42 C40 1.358 . S
C42 N43 1.279 . S
C42 H83 0.930 . S
N43 C41 1.314 . S
N43 C42 1.279 . S
C44 C46 1.353 . S
C44 N47 1.314 . S
C44 H50 0.930 . S
C45 N47 1.279 . S
C45 C48 1.358 . S
C45 H51 0.930 . S
C46 C44 1.353 . S
C46 C49 1.348 . S
C46 H84 0.929 . S
N47 Li2 1.990 . S
N47 C44 1.314 . S
N47 C45 1.279 . S
C48 C45 1.358 . S
C48 C49 1.356 . S
C48 H85 0.930 . S
C49 C46 1.348 . S
C49 C48 1.356 . S
H50 C44 0.930 . S
H51 C45 0.930 . S
C52 N53 1.314 . S
C52 C54 1.353 . S
C52 H58 0.930 . S
N53 Li3 1.990 1_655 S
N53 C52 1.314 . S
N53 C56 1.279 . S
C54 C52 1.353 . S
C54 C57 1.348 . S
C54 H86 0.929 . S
C55 C56 1.358 . S
C55 C57 1.356 . S
C55 H87 0.930 . S
C56 N53 1.279 . S
C56 C55 1.358 . S
C56 H59 0.930 . S
C57 C54 1.348 . S
C57 C55 1.356 . S
H58 C52 0.930 . S
H59 C56 0.930 . S
O60 Li0 1.956 . S
O60 Li1 1.970 . S
O60 Li2 1.961 . S
O60 C4 1.325 . S
O61 Li0 1.970 . S
O61 Li1 1.956 . S
O61 Li3 1.961 . S
O61 C10 1.325 . S
O62 Li0 1.961 . S
O62 Li2 1.956 . S
O62 Li3 1.970 . S
O62 C32 1.325 1_455 S
O63 Li1 1.961 . S
O63 Li2 1.970 . S
O63 Li3 1.956 . S
O63 C38 1.325 . S
H64 C6 0.929 . S
H65 C7 0.930 . S
H66 C8 0.930 . S
H67 C9 0.930 . S
H68 C11 0.930 . S
H69 C13 0.929 . S
H70 C14 0.930 . S
H71 C15 0.930 . S
H72 C18 0.930 . S
H73 C21 0.929 1_655 S
H74 C26 0.929 . S
H75 C27 0.930 . S
H76 C34 0.929 . S
H77 C35 0.930 1_455 S
H78 C36 0.930 . S
H79 C37 0.930 . S
H80 C39 0.929 . S
H81 C40 0.930 . S
H82 C41 0.930 . S
H83 C42 0.930 . S
H84 C46 0.929 . S
H85 C48 0.930 . S
H86 C54 0.929 . S
H87 C55 0.930 . S
Li88 N105 1.990 . S
Li88 O148 1.956 . S
Li88 O149 1.970 . S
Li88 O150 1.961 . S
Li89 N113 1.990 . S
Li89 O148 1.970 . S
Li89 O149 1.956 . S
Li89 O151 1.961 . S
Li90 N135 1.990 . S
Li90 O148 1.961 . S
Li90 O150 1.956 . S
Li90 O151 1.970 . S
Li91 N141 1.990 . S
Li91 O149 1.961 . S
Li91 O150 1.970 . S
Li91 O151 1.956 . S
C92 C94 1.348 . S
C92 C95 1.356 . S
C92 O148 1.325 . S
N93 C96 1.314 . S
N93 C97 1.279 . S
C94 C92 1.348 . S
C94 C96 1.353 . S
C94 H152 0.929 . S
C95 C92 1.356 . S
C95 C97 1.358 . S
C95 H153 0.930 . S
C96 N93 1.314 . S
C96 C94 1.353 . S
C96 H154 0.930 . S
C97 N93 1.279 . S
C97 C95 1.358 . S
C97 H155 0.930 . S
C98 C101 1.348 . S
C98 C102 1.356 . S
C98 O149 1.325 . S
C99 N100 1.279 . S
C99 C102 1.358 . S
C99 H156 0.930 . S
N100 C99 1.279 . S
N100 C103 1.314 . S
C101 C98 1.348 . S
C101 C103 1.353 . S
C101 H157 0.929 . S
C102 C98 1.356 . S
C102 C99 1.358 . S
C102 H158 0.930 . S
C103 N100 1.314 . S
C103 C101 1.353 . S
C103 H159 0.930 . S
C104 N105 1.314 . S
C104 C109 1.353 . S
C104 H110 0.930 . S
N105 Li88 1.990 . S
N105 C104 1.314 . S
N105 C107 1.279 . S
C106 C107 1.358 . S
C106 C108 1.356 . S
C106 H160 0.930 . S
C107 N105 1.279 . S
C107 C106 1.358 . S
C107 H111 0.930 . S
C108 C106 1.356 . S
C108 C109 1.348 . S
C109 C104 1.353 . S
C109 C108 1.348 . S
C109 H161 0.929 . S
H110 C104 0.930 . S
H111 C107 0.930 . S
C112 N113 1.314 . S
C112 C114 1.353 . S
C112 H118 0.930 . S
N113 Li89 1.990 . S
N113 C112 1.314 . S
N113 C116 1.279 . S
C114 C112 1.353 . S
C114 C117 1.348 . S
C114 H162 0.929 . S
C115 C116 1.358 . S
C115 C117 1.356 . S
C115 H163 0.930 . S
C116 N113 1.279 . S
C116 C115 1.358 . S
C116 H119 0.930 . S
C117 C114 1.348 . S
C117 C115 1.356 . S
H118 C112 0.930 . S
H119 C116 0.930 . S
C120 C122 1.348 . S
C120 C123 1.356 . S
C120 O150 1.325 . S
N121 C124 1.314 . S
N121 C125 1.279 . S
C122 C120 1.348 . S
C122 C124 1.353 . S
C122 H164 0.929 . S
C123 C120 1.356 . S
C123 C125 1.358 . S
C123 H165 0.930 . S
C124 N121 1.314 . S
C124 C122 1.353 . S
C124 H166 0.930 . S
C125 N121 1.279 . S
C125 C123 1.358 . S
C125 H167 0.930 . S
C126 C127 1.348 . S
C126 C128 1.356 . S
C126 O151 1.325 . S
C127 C126 1.348 . S
C127 C129 1.353 . S
C127 H168 0.929 . S
C128 C126 1.356 . S
C128 C130 1.358 . S
C128 H169 0.930 . S
C129 C127 1.353 . S
C129 N131 1.314 . S
C129 H170 0.930 . S
C130 C128 1.358 . S
C130 N131 1.279 . S
C130 H171 0.930 . S
N131 C129 1.314 . S
N131 C130 1.279 . S
C132 C134 1.353 . S
C132 N135 1.314 . S
C132 H138 0.930 . S
C133 N135 1.279 . S
C133 C136 1.358 . S
C133 H139 0.930 . S
C134 C132 1.353 . S
C134 C137 1.348 . S
C134 H172 0.929 . S
N135 Li90 1.990 . S
N135 C132 1.314 . S
N135 C133 1.279 . S
C136 C133 1.358 . S
C136 C137 1.356 . S
C136 H173 0.930 . S
C137 C134 1.348 . S
C137 C136 1.356 . S
H138 C132 0.930 . S
H139 C133 0.930 . S
C140 N141 1.314 . S
C140 C142 1.353 . S
C140 H146 0.930 . S
N141 Li91 1.990 . S
N141 C140 1.314 . S
N141 C144 1.279 . S
C142 C140 1.353 . S
C142 C145 1.348 . S
C142 H174 0.929 . S
C143 C144 1.358 . S
C143 C145 1.356 . S
C143 H175 0.930 . S
C144 N141 1.279 . S
C144 C143 1.358 . S
C144 H147 0.930 . S
C145 C142 1.348 . S
C145 C143 1.356 . S
H146 C140 0.930 . S
H147 C144 0.930 . S
O148 Li88 1.956 . S
O148 Li89 1.970 . S
O148 Li90 1.961 . S
O148 C92 1.325 . S
O149 Li88 1.970 . S
O149 Li89 1.956 . S
O149 Li91 1.961 . S
O149 C98 1.325 . S
O150 Li88 1.961 . S
O150 Li90 1.956 . S
O150 Li91 1.970 . S
O150 C120 1.325 . S
O151 Li89 1.961 . S
O151 Li90 1.970 . S
O151 Li91 1.956 . S
O151 C126 1.325 . S
H152 C94 0.929 . S
H153 C95 0.930 . S
H154 C96 0.930 . S
H155 C97 0.930 . S
H156 C99 0.930 . S
H157 C101 0.929 . S
H158 C102 0.930 . S
H159 C103 0.930 . S
H160 C106 0.930 . S
H161 C109 0.929 . S
H162 C114 0.929 . S
H163 C115 0.930 . S
H164 C122 0.929 . S
H165 C123 0.930 . S
H166 C124 0.930 . S
H167 C125 0.930 . S
H168 C127 0.929 . S
H169 C128 0.930 . S
H170 C129 0.930 . S
H171 C130 0.930 . S
H172 C134 0.929 . S
H173 C136 0.930 . S
H174 C142 0.929 . S
H175 C143 0.930 . S
Li176 N193 1.990 1_545 S
Li176 O236 1.956 . S
Li176 O237 1.970 . S
Li176 O238 1.961 . S
Li177 N201 1.990 . S
Li177 O236 1.970 . S
Li177 O237 1.956 . S
Li177 O239 1.961 . S
Li178 N223 1.990 . S
Li178 O236 1.961 . S
Li178 O238 1.956 . S
Li178 O239 1.970 . S
Li179 N229 1.990 . S
Li179 O237 1.961 . S
Li179 O238 1.970 . S
Li179 O239 1.956 . S
C180 C182 1.348 . S
C180 C183 1.356 . S
C180 O236 1.325 . S
N181 C184 1.314 . S
N181 C185 1.279 . S
C182 C180 1.348 . S
C182 C184 1.353 . S
C182 H240 0.929 . S
C183 C180 1.356 . S
C183 C185 1.358 . S
C183 H241 0.930 . S
C184 N181 1.314 . S
C184 C182 1.353 . S
C184 H242 0.930 . S
C185 N181 1.279 . S
C185 C183 1.358 . S
C185 H243 0.930 . S
C186 C189 1.348 . S
C186 C190 1.356 . S
C186 O237 1.325 1_565 S
C187 N188 1.279 . S
C187 C190 1.358 . S
C187 H244 0.930 . S
N188 C187 1.279 . S
N188 C191 1.314 . S
C189 C186 1.348 . S
C189 C191 1.353 . S
C189 H245 0.929 . S
C190 C186 1.356 . S
C190 C187 1.358 . S
C190 H246 0.930 1_565 S
C191 N188 1.314 . S
C191 C189 1.353 . S
C191 H247 0.930 . S
C192 N193 1.314 . S
C192 C197 1.353 . S
C192 H198 0.930 . S
N193 Li176 1.990 1_565 S
N193 C192 1.314 . S
N193 C195 1.279 . S
C194 C195 1.358 . S
C194 C196 1.356 . S
C194 H248 0.930 . S
C195 N193 1.279 . S
C195 C194 1.358 . S
C195 H199 0.930 . S
C196 C194 1.356 . S
C196 C197 1.348 . S
C197 C192 1.353 . S
C197 C196 1.348 . S
C197 H249 0.929 . S
H198 C192 0.930 . S
H199 C195 0.930 . S
C200 N201 1.314 . S
C200 C202 1.353 . S
C200 H206 0.930 . S
N201 Li177 1.990 . S
N201 C200 1.314 . S
N201 C204 1.279 . S
C202 C200 1.353 . S
C202 C205 1.348 . S
C202 H250 0.929 . S
C203 C204 1.358 . S
C203 C205 1.356 . S
C203 H251 0.930 . S
C204 N201 1.279 . S
C204 C203 1.358 . S
C204 H207 0.930 . S
C205 C202 1.348 . S
C205 C203 1.356 . S
H206 C200 0.930 . S
H207 C204 0.930 . S
C208 C210 1.348 . S
C208 C211 1.356 . S
C208 O238 1.325 . S
N209 C212 1.314 . S
N209 C213 1.279 . S
C210 C208 1.348 . S
C210 C212 1.353 . S
C210 H252 0.929 . S
C211 C208 1.356 . S
C211 C213 1.358 . S
C211 H253 0.930 . S
C212 N209 1.314 . S
C212 C210 1.353 . S
C212 H254 0.930 . S
C213 N209 1.279 . S
C213 C211 1.358 . S
C213 H255 0.930 . S
C214 C215 1.348 . S
C214 C216 1.356 . S
C214 O239 1.325 . S
C215 C214 1.348 . S
C215 C217 1.353 . S
C215 H256 0.929 . S
C216 C214 1.356 . S
C216 C218 1.358 . S
C216 H257 0.930 . S
C217 C215 1.353 . S
C217 N219 1.314 . S
C217 H258 0.930 . S
C218 C216 1.358 . S
C218 N219 1.279 . S
C218 H259 0.930 . S
N219 C217 1.314 . S
N219 C218 1.279 . S
C220 C222 1.353 . S
C220 N223 1.314 . S
C220 H226 0.930 . S
C221 N223 1.279 . S
C221 C224 1.358 . S
C221 H227 0.930 . S
C222 C220 1.353 . S
C222 C225 1.348 . S
C222 H260 0.929 . S
N223 Li178 1.990 . S
N223 C220 1.314 . S
N223 C221 1.279 . S
C224 C221 1.358 . S
C224 C225 1.356 . S
C224 H261 0.930 . S
C225 C222 1.348 . S
C225 C224 1.356 . S
H226 C220 0.930 . S
H227 C221 0.930 . S
C228 N229 1.314 . S
C228 C230 1.353 . S
C228 H234 0.930 1_545 S
N229 Li179 1.990 . S
N229 C228 1.314 . S
N229 C232 1.279 . S
C230 C228 1.353 . S
C230 C233 1.348 . S
C230 H262 0.929 1_545 S
C231 C232 1.358 . S
C231 C233 1.356 . S
C231 H263 0.930 . S
C232 N229 1.279 . S
C232 C231 1.358 . S
C232 H235 0.930 . S
C233 C230 1.348 . S
C233 C231 1.356 . S
H234 C228 0.930 1_565 S
H235 C232 0.930 . S
O236 Li176 1.956 . S
O236 Li177 1.970 . S
O236 Li178 1.961 . S
O236 C180 1.325 . S
O237 Li176 1.970 . S
O237 Li177 1.956 . S
O237 Li179 1.961 . S
O237 C186 1.325 1_545 S
O238 Li176 1.961 . S
O238 Li178 1.956 . S
O238 Li179 1.970 . S
O238 C208 1.325 . S
O239 Li177 1.961 . S
O239 Li178 1.970 . S
O239 Li179 1.956 . S
O239 C214 1.325 . S
H240 C182 0.929 . S
H241 C183 0.930 . S
H242 C184 0.930 . S
H243 C185 0.930 . S
H244 C187 0.930 . S
H245 C189 0.929 . S
H246 C190 0.930 1_545 S
H247 C191 0.930 . S
H248 C194 0.930 . S
H249 C197 0.929 . S
H250 C202 0.929 . S
H251 C203 0.930 . S
H252 C210 0.929 . S
H253 C211 0.930 . S
H254 C212 0.930 . S
H255 C213 0.930 . S
H256 C215 0.929 . S
H257 C216 0.930 . S
H258 C217 0.930 . S
H259 C218 0.930 . S
H260 C222 0.929 . S
H261 C224 0.930 . S
H262 C230 0.929 1_565 S
H263 C231 0.930 . S
Li264 N281 1.990 1_545 S
Li264 O324 1.956 . S
Li264 O325 1.970 . S
Li264 O326 1.961 . S
Li265 N289 1.990 . S
Li265 O324 1.970 . S
Li265 O325 1.956 . S
Li265 O327 1.961 . S
Li266 N311 1.990 . S
Li266 O324 1.961 . S
Li266 O326 1.956 . S
Li266 O327 1.970 . S
Li267 N317 1.990 . S
Li267 O325 1.961 . S
Li267 O326 1.970 . S
Li267 O327 1.956 . S
C268 C270 1.348 . S
C268 C271 1.356 . S
C268 O324 1.325 . S
N269 C272 1.314 . S
N269 C273 1.279 . S
C270 C268 1.348 . S
C270 C272 1.353 . S
C270 H328 0.929 . S
C271 C268 1.356 . S
C271 C273 1.358 . S
C271 H329 0.930 . S
C272 N269 1.314 . S
C272 C270 1.353 . S
C272 H330 0.930 . S
C273 N269 1.279 . S
C273 C271 1.358 . S
C273 H331 0.930 . S
C274 C277 1.348 . S
C274 C278 1.356 . S
C274 O325 1.325 1_565 S
C275 N276 1.279 . S
C275 C278 1.358 . S
C275 H332 0.930 . S
N276 C275 1.279 . S
N276 C279 1.314 . S
C277 C274 1.348 . S
C277 C279 1.353 . S
C277 H333 0.929 . S
C278 C274 1.356 . S
C278 C275 1.358 . S
C278 H334 0.930 1_565 S
C279 N276 1.314 . S
C279 C277 1.353 . S
C279 H335 0.930 . S
C280 N281 1.314 . S
C280 C285 1.353 . S
C280 H286 0.930 . S
N281 Li264 1.990 1_565 S
N281 C280 1.314 . S
N281 C283 1.279 . S
C282 C283 1.358 . S
C282 C284 1.356 . S
C282 H336 0.930 . S
C283 N281 1.279 . S
C283 C282 1.358 . S
C283 H287 0.930 . S
C284 C282 1.356 . S
C284 C285 1.348 . S
C285 C280 1.353 . S
C285 C284 1.348 . S
C285 H337 0.929 . S
H286 C280 0.930 . S
H287 C283 0.930 . S
C288 N289 1.314 . S
C288 C290 1.353 . S
C288 H294 0.930 . S
N289 Li265 1.990 . S
N289 C288 1.314 . S
N289 C292 1.279 . S
C290 C288 1.353 . S
C290 C293 1.348 . S
C290 H338 0.929 . S
C291 C292 1.358 . S
C291 C293 1.356 . S
C291 H339 0.930 . S
C292 N289 1.279 . S
C292 C291 1.358 . S
C292 H295 0.930 . S
C293 C290 1.348 . S
C293 C291 1.356 . S
H294 C288 0.930 . S
H295 C292 0.930 . S
C296 C298 1.348 . S
C296 C299 1.356 . S
C296 O326 1.325 . S
N297 C300 1.314 . S
N297 C301 1.279 . S
C298 C296 1.348 . S
C298 C300 1.353 . S
C298 H340 0.929 . S
C299 C296 1.356 . S
C299 C301 1.358 . S
C299 H341 0.930 . S
C300 N297 1.314 . S
C300 C298 1.353 . S
C300 H342 0.930 . S
C301 N297 1.279 . S
C301 C299 1.358 . S
C301 H343 0.930 . S
C302 C303 1.348 . S
C302 C304 1.356 . S
C302 O327 1.325 . S
C303 C302 1.348 . S
C303 C305 1.353 . S
C303 H344 0.929 . S
C304 C302 1.356 . S
C304 C306 1.358 . S
C304 H345 0.930 . S
C305 C303 1.353 . S
C305 N307 1.314 . S
C305 H346 0.930 . S
C306 C304 1.358 . S
C306 N307 1.279 . S
C306 H347 0.930 . S
N307 C305 1.314 . S
N307 C306 1.279 . S
C308 C310 1.353 . S
C308 N311 1.314 . S
C308 H314 0.930 . S
C309 N311 1.279 . S
C309 C312 1.358 . S
C309 H315 0.930 . S
C310 C308 1.353 . S
C310 C313 1.348 . S
C310 H348 0.929 . S
N311 Li266 1.990 . S
N311 C308 1.314 . S
N311 C309 1.279 . S
C312 C309 1.358 . S
C312 C313 1.356 . S
C312 H349 0.930 . S
C313 C310 1.348 . S
C313 C312 1.356 . S
H314 C308 0.930 . S
H315 C309 0.930 . S
C316 N317 1.314 . S
C316 C318 1.353 . S
C316 H322 0.917 1_545 S
N317 Li267 1.990 . S
N317 C316 1.314 . S
N317 C320 1.279 . S
C318 C316 1.353 . S
C318 C321 1.348 . S
C318 H350 0.929 1_545 S
C319 C320 1.358 . S
C319 C321 1.356 . S
C319 H351 0.930 . S
C320 N317 1.279 . S
C320 C319 1.358 . S
C320 H323 0.930 . S
C321 C318 1.348 . S
C321 C319 1.356 . S
H322 C316 0.917 1_565 S
H323 C320 0.930 . S
O324 Li264 1.956 . S
O324 Li265 1.970 . S
O324 Li266 1.961 . S
O324 C268 1.325 . S
O325 Li264 1.970 . S
O325 Li265 1.956 . S
O325 Li267 1.961 . S
O325 C274 1.325 1_545 S
O326 Li264 1.961 . S
O326 Li266 1.956 . S
O326 Li267 1.970 . S
O326 C296 1.325 . S
O327 Li265 1.961 . S
O327 Li266 1.970 . S
O327 Li267 1.956 . S
O327 C302 1.325 . S
H328 C270 0.929 . S
H329 C271 0.930 . S
H330 C272 0.930 . S
H331 C273 0.930 . S
H332 C275 0.930 . S
H333 C277 0.929 . S
H334 C278 0.930 1_545 S
H335 C279 0.930 . S
H336 C282 0.930 . S
H337 C285 0.929 . S
H338 C290 0.929 . S
H339 C291 0.930 . S
H340 C298 0.929 . S
H341 C299 0.930 . S
H342 C300 0.930 . S
H343 C301 0.930 . S
H344 C303 0.929 . S
H345 C304 0.930 . S
H346 C305 0.930 . S
H347 C306 0.930 . S
H348 C310 0.929 . S
H349 C312 0.930 . S
H350 C318 0.929 1_565 S
H351 C319 0.930 . S
Li352 N369 1.990 . S
Li352 O412 1.956 . S
Li352 O413 1.970 . S
Li352 O414 1.961 . S
Li353 N377 1.990 . S
Li353 O412 1.970 . S
Li353 O413 1.956 . S
Li353 O415 1.961 . S
Li354 N399 1.990 . S
Li354 O412 1.961 . S
Li354 O414 1.956 . S
Li354 O415 1.970 . S
Li355 N405 1.990 1_455 S
Li355 O413 1.961 . S
Li355 O414 1.970 . S
Li355 O415 1.956 . S
C356 C358 1.348 . S
C356 C359 1.356 . S
C356 O412 1.325 . S
N357 C360 1.314 . S
N357 C361 1.279 . S
C358 C356 1.348 . S
C358 C360 1.353 . S
C358 H416 0.929 . S
C359 C356 1.356 . S
C359 C361 1.358 . S
C359 H417 0.930 . S
C360 N357 1.314 . S
C360 C358 1.353 . S
C360 H418 0.930 . S
C361 N357 1.279 . S
C361 C359 1.358 . S
C361 H419 0.930 . S
C362 C365 1.348 . S
C362 C366 1.356 . S
C362 O413 1.325 . S
C363 N364 1.279 . S
C363 C366 1.358 . S
C363 H420 0.930 . S
N364 C363 1.279 . S
N364 C367 1.314 . S
C365 C362 1.348 . S
C365 C367 1.353 . S
C365 H421 0.929 . S
C366 C362 1.356 . S
C366 C363 1.358 . S
C366 H422 0.930 . S
C367 N364 1.314 . S
C367 C365 1.353 . S
C367 H423 0.930 . S
C368 N369 1.314 . S
C368 C373 1.353 . S
C368 H374 0.930 1_455 S
N369 Li352 1.990 . S
N369 C368 1.314 . S
N369 C371 1.279 . S
C370 C371 1.358 . S
C370 C372 1.356 . S
C370 H424 0.930 . S
C371 N369 1.279 . S
C371 C370 1.358 . S
C371 H375 0.930 . S
C372 C370 1.356 . S
C372 C373 1.348 . S
C373 C368 1.353 . S
C373 C372 1.348 . S
C373 H425 0.929 1_455 S
H374 C368 0.930 1_655 S
H375 C371 0.930 . S
C376 N377 1.314 . S
C376 C378 1.353 . S
C376 H382 0.930 . S
N377 Li353 1.990 . S
N377 C376 1.314 . S
N377 C380 1.279 . S
C378 C376 1.353 . S
C378 C381 1.348 . S
C378 H426 0.929 . S
C379 C380 1.358 . S
C379 C381 1.356 . S
C379 H427 0.930 . S
C380 N377 1.279 . S
C380 C379 1.358 . S
C380 H383 0.930 . S
C381 C378 1.348 . S
C381 C379 1.356 . S
H382 C376 0.930 . S
H383 C380 0.930 . S
C384 C386 1.348 . S
C384 C387 1.356 . S
C384 O414 1.325 1_655 S
N385 C388 1.314 . S
N385 C389 1.279 . S
C386 C384 1.348 . S
C386 C388 1.353 . S
C386 H428 0.929 . S
C387 C384 1.356 . S
C387 C389 1.358 . S
C387 H429 0.930 1_655 S
C388 N385 1.314 . S
C388 C386 1.353 . S
C388 H430 0.930 . S
C389 N385 1.279 . S
C389 C387 1.358 . S
C389 H431 0.930 . S
C390 C391 1.348 . S
C390 C392 1.356 . S
C390 O415 1.325 . S
C391 C390 1.348 . S
C391 C393 1.353 . S
C391 H432 0.929 . S
C392 C390 1.356 . S
C392 C394 1.358 . S
C392 H433 0.930 . S
C393 C391 1.353 . S
C393 N395 1.314 . S
C393 H434 0.930 . S
C394 C392 1.358 . S
C394 N395 1.279 . S
C394 H435 0.930 . S
N395 C393 1.314 . S
N395 C394 1.279 . S
C396 C398 1.353 . S
C396 N399 1.314 . S
C396 H402 0.930 . S
C397 N399 1.279 . S
C397 C400 1.358 . S
C397 H403 0.930 . S
C398 C396 1.353 . S
C398 C401 1.348 . S
C398 H436 0.929 . S
N399 Li354 1.990 . S
N399 C396 1.314 . S
N399 C397 1.279 . S
C400 C397 1.358 . S
C400 C401 1.356 . S
C400 H437 0.930 . S
C401 C398 1.348 . S
C401 C400 1.356 . S
H402 C396 0.930 . S
H403 C397 0.930 . S
C404 N405 1.314 . S
C404 C406 1.353 . S
C404 H410 0.930 . S
N405 Li355 1.990 1_655 S
N405 C404 1.314 . S
N405 C408 1.279 . S
C406 C404 1.353 . S
C406 C409 1.348 . S
C406 H438 0.929 . S
C407 C408 1.358 . S
C407 C409 1.356 . S
C407 H439 0.930 . S
C408 N405 1.279 . S
C408 C407 1.358 . S
C408 H411 0.930 . S
C409 C406 1.348 . S
C409 C407 1.356 . S
H410 C404 0.930 . S
H411 C408 0.930 . S
O412 Li352 1.956 . S
O412 Li353 1.970 . S
O412 Li354 1.961 . S
O412 C356 1.325 . S
O413 Li352 1.970 . S
O413 Li353 1.956 . S
O413 Li355 1.961 . S
O413 C362 1.325 . S
O414 Li352 1.961 . S
O414 Li354 1.956 . S
O414 Li355 1.970 . S
O414 C384 1.325 1_455 S
O415 Li353 1.961 . S
O415 Li354 1.970 . S
O415 Li355 1.956 . S
O415 C390 1.325 . S
H416 C358 0.929 . S
H417 C359 0.930 . S
H418 C360 0.930 . S
H419 C361 0.930 . S
H420 C363 0.930 . S
H421 C365 0.929 . S
H422 C366 0.930 . S
H423 C367 0.930 . S
H424 C370 0.930 . S
H425 C373 0.929 1_655 S
H426 C378 0.929 . S
H427 C379 0.930 . S
H428 C386 0.929 . S
H429 C387 0.930 1_455 S
H430 C388 0.930 . S
H431 C389 0.930 . S
H432 C391 0.929 . S
H433 C392 0.930 . S
H434 C393 0.930 . S
H435 C394 0.930 . S
H436 C398 0.929 . S
H437 C400 0.930 . S
H438 C406 0.929 . S
H439 C407 0.930 . S
Li440 N457 1.990 . S
Li440 O500 1.956 . S
Li440 O501 1.970 . S
Li440 O502 1.961 . S
Li441 N465 1.990 . S
Li441 O500 1.970 . S
Li441 O501 1.956 . S
Li441 O503 1.961 . S
Li442 N487 1.990 . S
Li442 O500 1.961 . S
Li442 O502 1.956 . S
Li442 O503 1.970 . S
Li443 N493 1.990 . S
Li443 O501 1.961 . S
Li443 O502 1.970 . S
Li443 O503 1.956 . S
C444 C446 1.348 . S
C444 C447 1.356 . S
C444 O500 1.325 . S
N445 C448 1.314 . S
N445 C449 1.279 . S
C446 C444 1.348 . S
C446 C448 1.353 . S
C446 H504 0.929 . S
C447 C444 1.356 . S
C447 C449 1.358 . S
C447 H505 0.930 . S
C448 N445 1.314 . S
C448 C446 1.353 . S
C448 H506 0.930 . S
C449 N445 1.279 . S
C449 C447 1.358 . S
C449 H507 0.930 . S
C450 C453 1.348 . S
C450 C454 1.356 . S
C450 O501 1.325 . S
C451 N452 1.279 . S
C451 C454 1.358 . S
C451 H508 0.930 . S
N452 C451 1.279 . S
N452 C455 1.314 . S
C453 C450 1.348 . S
C453 C455 1.353 . S
C453 H509 0.929 . S
C454 C450 1.356 . S
C454 C451 1.358 . S
C454 H510 0.930 . S
C455 N452 1.314 . S
C455 C453 1.353 . S
C455 H511 0.930 . S
C456 N457 1.314 . S
C456 C461 1.353 . S
C456 H462 0.930 . S
N457 Li440 1.990 . S
N457 C456 1.314 . S
N457 C459 1.279 . S
C458 C459 1.358 . S
C458 C460 1.356 . S
C458 H512 0.930 . S
C459 N457 1.279 . S
C459 C458 1.358 . S
C459 H463 0.930 . S
C460 C458 1.356 . S
C460 C461 1.348 . S
C461 C456 1.353 . S
C461 C460 1.348 . S
C461 H513 0.929 . S
H462 C456 0.930 . S
H463 C459 0.930 . S
C464 N465 1.314 . S
C464 C466 1.353 . S
C464 H470 0.930 . S
N465 Li441 1.990 . S
N465 C464 1.314 . S
N465 C468 1.279 . S
C466 C464 1.353 . S
C466 C469 1.348 . S
C466 H514 0.929 . S
C467 C468 1.358 . S
C467 C469 1.356 . S
C467 H515 0.930 . S
C468 N465 1.279 . S
C468 C467 1.358 . S
C468 H471 0.930 . S
C469 C466 1.348 . S
C469 C467 1.356 . S
H470 C464 0.930 . S
H471 C468 0.930 . S
C472 C474 1.348 . S
C472 C475 1.356 . S
C472 O502 1.325 . S
N473 C476 1.314 . S
N473 C477 1.279 . S
C474 C472 1.348 . S
C474 C476 1.353 . S
C474 H516 0.929 . S
C475 C472 1.356 . S
C475 C477 1.358 . S
C475 H517 0.930 . S
C476 N473 1.314 . S
C476 C474 1.353 . S
C476 H518 0.930 . S
C477 N473 1.279 . S
C477 C475 1.358 . S
C477 H519 0.930 . S
C478 C479 1.348 . S
C478 C480 1.356 . S
C478 O503 1.325 . S
C479 C478 1.348 . S
C479 C481 1.353 . S
C479 H520 0.929 . S
C480 C478 1.356 . S
C480 C482 1.358 . S
C480 H521 0.930 . S
C481 C479 1.353 . S
C481 N483 1.314 . S
C481 H522 0.930 . S
C482 C480 1.358 . S
C482 N483 1.279 . S
C482 H523 0.930 . S
N483 C481 1.314 . S
N483 C482 1.279 . S
C484 C486 1.353 . S
C484 N487 1.314 . S
C484 H490 0.930 . S
C485 N487 1.279 . S
C485 C488 1.358 . S
C485 H491 0.930 . S
C486 C484 1.353 . S
C486 C489 1.348 . S
C486 H524 0.929 . S
N487 Li442 1.990 . S
N487 C484 1.314 . S
N487 C485 1.279 . S
C488 C485 1.358 . S
C488 C489 1.356 . S
C488 H525 0.930 . S
C489 C486 1.348 . S
C489 C488 1.356 . S
H490 C484 0.930 . S
H491 C485 0.930 . S
C492 N493 1.314 . S
C492 C494 1.353 . S
C492 H498 0.930 . S
N493 Li443 1.990 . S
N493 C492 1.314 . S
N493 C496 1.279 . S
C494 C492 1.353 . S
C494 C497 1.348 . S
C494 H526 0.929 . S
C495 C496 1.358 . S
C495 C497 1.356 . S
C495 H527 0.930 . S
C496 N493 1.279 . S
C496 C495 1.358 . S
C496 H499 0.930 . S
C497 C494 1.348 . S
C497 C495 1.356 . S
H498 C492 0.930 . S
H499 C496 0.930 . S
O500 Li440 1.956 . S
O500 Li441 1.970 . S
O500 Li442 1.961 . S
O500 C444 1.325 . S
O501 Li440 1.970 . S
O501 Li441 1.956 . S
O501 Li443 1.961 . S
O501 C450 1.325 . S
O502 Li440 1.961 . S
O502 Li442 1.956 . S
O502 Li443 1.970 . S
O502 C472 1.325 . S
O503 Li441 1.961 . S
O503 Li442 1.970 . S
O503 Li443 1.956 . S
O503 C478 1.325 . S
H504 C446 0.929 . S
H505 C447 0.930 . S
H506 C448 0.930 . S
H507 C449 0.930 . S
H508 C451 0.930 . S
H509 C453 0.929 . S
H510 C454 0.930 . S
H511 C455 0.930 . S
H512 C458 0.930 . S
H513 C461 0.929 . S
H514 C466 0.929 . S
H515 C467 0.930 . S
H516 C474 0.929 . S
H517 C475 0.930 . S
H518 C476 0.930 . S
H519 C477 0.930 . S
H520 C479 0.929 . S
H521 C480 0.930 . S
H522 C481 0.930 . S
H523 C482 0.930 . S
H524 C486 0.929 . S
H525 C488 0.930 . S
H526 C494 0.929 . S
H527 C495 0.930 . S
Li528 N545 1.990 . S
Li528 O588 1.956 . S
Li528 O589 1.970 . S
Li528 O590 1.961 . S
Li529 N553 1.990 . S
Li529 O588 1.970 . S
Li529 O589 1.956 . S
Li529 O591 1.961 . S
Li530 N575 1.990 . S
Li530 O588 1.961 . S
Li530 O590 1.956 . S
Li530 O591 1.970 . S
Li531 N581 1.990 1_455 S
Li531 O589 1.961 . S
Li531 O590 1.970 . S
Li531 O591 1.956 . S
C532 C534 1.348 . S
C532 C535 1.356 . S
C532 O588 1.325 . S
N533 C536 1.314 . S
N533 C537 1.279 . S
C534 C532 1.348 . S
C534 C536 1.353 . S
C534 H592 0.929 . S
C535 C532 1.356 . S
C535 C537 1.358 . S
C535 H593 0.930 . S
C536 N533 1.314 . S
C536 C534 1.353 . S
C536 H594 0.930 . S
C537 N533 1.279 . S
C537 C535 1.358 . S
C537 H595 0.930 . S
C538 C541 1.348 . S
C538 C542 1.356 . S
C538 O589 1.325 . S
C539 N540 1.279 . S
C539 C542 1.358 . S
C539 H596 0.930 . S
N540 C539 1.279 . S
N540 C543 1.314 . S
C541 C538 1.348 . S
C541 C543 1.353 . S
C541 H597 0.929 . S
C542 C538 1.356 . S
C542 C539 1.358 . S
C542 H598 0.930 . S
C543 N540 1.314 . S
C543 C541 1.353 . S
C543 H599 0.930 . S
C544 N545 1.314 . S
C544 C549 1.353 . S
C544 H550 0.930 . S
N545 Li528 1.990 . S
N545 C544 1.314 . S
N545 C547 1.279 . S
C546 C547 1.358 . S
C546 C548 1.356 . S
C546 H600 0.930 . S
C547 N545 1.279 . S
C547 C546 1.358 . S
C547 H551 0.930 . S
C548 C546 1.356 . S
C548 C549 1.348 . S
C549 C544 1.353 . S
C549 C548 1.348 . S
C549 H601 0.929 . S
H550 C544 0.930 . S
H551 C547 0.930 . S
C552 N553 1.314 . S
C552 C554 1.353 . S
C552 H558 0.930 . S
N553 Li529 1.990 . S
N553 C552 1.314 . S
N553 C556 1.279 . S
C554 C552 1.353 . S
C554 C557 1.348 . S
C554 H602 0.929 . S
C555 C556 1.358 . S
C555 C557 1.356 . S
C555 H603 0.930 . S
C556 N553 1.279 . S
C556 C555 1.358 . S
C556 H559 0.930 . S
C557 C554 1.348 . S
C557 C555 1.356 . S
H558 C552 0.930 . S
H559 C556 0.930 . S
C560 C562 1.348 . S
C560 C563 1.356 . S
C560 O590 1.325 1_655 S
N561 C564 1.314 . S
N561 C565 1.279 . S
C562 C560 1.348 . S
C562 C564 1.353 . S
C562 H604 0.929 . S
C563 C560 1.356 . S
C563 C565 1.358 . S
C563 H605 0.930 1_655 S
C564 N561 1.314 . S
C564 C562 1.353 . S
C564 H606 0.930 . S
C565 N561 1.279 . S
C565 C563 1.358 . S
C565 H607 0.930 . S
C566 C567 1.348 . S
C566 C568 1.356 . S
C566 O591 1.325 . S
C567 C566 1.348 . S
C567 C569 1.353 . S
C567 H608 0.929 . S
C568 C566 1.356 . S
C568 C570 1.358 . S
C568 H609 0.930 . S
C569 C567 1.353 . S
C569 N571 1.314 . S
C569 H610 0.930 . S
C570 C568 1.358 . S
C570 N571 1.279 . S
C570 H611 0.930 . S
N571 C569 1.314 . S
N571 C570 1.279 . S
C572 C574 1.353 . S
C572 N575 1.314 . S
C572 H578 0.930 . S
C573 N575 1.279 . S
C573 C576 1.358 . S
C573 H579 0.930 1_455 S
C574 C572 1.353 . S
C574 C577 1.348 . S
C574 H612 0.929 . S
N575 Li530 1.990 . S
N575 C572 1.314 . S
N575 C573 1.279 . S
C576 C573 1.358 . S
C576 C577 1.356 . S
C576 H613 0.930 1_455 S
C577 C574 1.348 . S
C577 C576 1.356 . S
H578 C572 0.930 . S
H579 C573 0.930 1_655 S
C580 N581 1.314 . S
C580 C582 1.353 . S
C580 H586 0.930 . S
N581 Li531 1.990 1_655 S
N581 C580 1.314 . S
N581 C584 1.279 . S
C582 C580 1.353 . S
C582 C585 1.348 . S
C582 H614 0.929 . S
C583 C584 1.358 . S
C583 C585 1.356 . S
C583 H615 0.930 . S
C584 N581 1.279 . S
C584 C583 1.358 . S
C584 H587 0.930 . S
C585 C582 1.348 . S
C585 C583 1.356 . S
H586 C580 0.930 . S
H587 C584 0.930 . S
O588 Li528 1.956 . S
O588 Li529 1.970 . S
O588 Li530 1.961 . S
O588 C532 1.325 . S
O589 Li528 1.970 . S
O589 Li529 1.956 . S
O589 Li531 1.961 . S
O589 C538 1.325 . S
O590 Li528 1.961 . S
O590 Li530 1.956 . S
O590 Li531 1.970 . S
O590 C560 1.325 1_455 S
O591 Li529 1.961 . S
O591 Li530 1.970 . S
O591 Li531 1.956 . S
O591 C566 1.325 . S
H592 C534 0.929 . S
H593 C535 0.930 . S
H594 C536 0.930 . S
H595 C537 0.930 . S
H596 C539 0.930 . S
H597 C541 0.929 . S
H598 C542 0.930 . S
H599 C543 0.930 . S
H600 C546 0.930 . S
H601 C549 0.929 . S
H602 C554 0.929 . S
H603 C555 0.930 . S
H604 C562 0.929 . S
H605 C563 0.930 1_455 S
H606 C564 0.930 . S
H607 C565 0.930 . S
H608 C567 0.929 . S
H609 C568 0.930 . S
H610 C569 0.930 . S
H611 C570 0.930 . S
H612 C574 0.929 . S
H613 C576 0.930 1_655 S
H614 C582 0.929 . S
H615 C583 0.930 . S
Li616 N633 1.990 . S
Li616 O676 1.956 . S
Li616 O677 1.970 . S
Li616 O678 1.961 . S
Li617 N641 1.990 . S
Li617 O676 1.970 . S
Li617 O677 1.956 . S
Li617 O679 1.961 . S
Li618 N663 1.990 . S
Li618 O676 1.961 . S
Li618 O678 1.956 . S
Li618 O679 1.970 . S
Li619 N669 1.990 . S
Li619 O677 1.961 . S
Li619 O678 1.970 . S
Li619 O679 1.956 . S
C620 C622 1.348 . S
C620 C623 1.356 . S
C620 O676 1.325 . S
N621 C624 1.314 . S
N621 C625 1.279 . S
C622 C620 1.348 . S
C622 C624 1.353 . S
C622 H680 0.929 . S
C623 C620 1.356 . S
C623 C625 1.358 . S
C623 H681 0.930 . S
C624 N621 1.314 . S
C624 C622 1.353 . S
C624 H682 0.930 . S
C625 N621 1.279 . S
C625 C623 1.358 . S
C625 H683 0.930 . S
C626 C629 1.348 . S
C626 C630 1.356 . S
C626 O677 1.325 . S
C627 N628 1.279 . S
C627 C630 1.358 . S
C627 H684 0.930 . S
N628 C627 1.279 . S
N628 C631 1.314 . S
C629 C626 1.348 . S
C629 C631 1.353 . S
C629 H685 0.929 . S
C630 C626 1.356 . S
C630 C627 1.358 . S
C630 H686 0.930 . S
C631 N628 1.314 . S
C631 C629 1.353 . S
C631 H687 0.930 . S
C632 N633 1.314 . S
C632 C637 1.353 . S
C632 H638 0.930 . S
N633 Li616 1.990 . S
N633 C632 1.314 . S
N633 C635 1.279 . S
C634 C635 1.358 . S
C634 C636 1.356 . S
C634 H688 0.930 . S
C635 N633 1.279 . S
C635 C634 1.358 . S
C635 H639 0.930 . S
C636 C634 1.356 . S
C636 C637 1.348 . S
C637 C632 1.353 . S
C637 C636 1.348 . S
C637 H689 0.929 . S
H638 C632 0.930 . S
H639 C635 0.930 . S
C640 N641 1.314 . S
C640 C642 1.353 . S
C640 H646 0.930 . S
N641 Li617 1.990 . S
N641 C640 1.314 . S
N641 C644 1.279 . S
C642 C640 1.353 . S
C642 C645 1.348 . S
C642 H690 0.929 . S
C643 C644 1.358 . S
C643 C645 1.356 . S
C643 H691 0.930 . S
C644 N641 1.279 . S
C644 C643 1.358 . S
C644 H647 0.930 . S
C645 C642 1.348 . S
C645 C643 1.356 . S
H646 C640 0.930 . S
H647 C644 0.930 . S
C648 C650 1.348 . S
C648 C651 1.356 . S
C648 O678 1.325 . S
N649 C652 1.314 . S
N649 C653 1.279 . S
C650 C648 1.348 . S
C650 C652 1.353 . S
C650 H692 0.929 . S
C651 C648 1.356 . S
C651 C653 1.358 . S
C651 H693 0.930 . S
C652 N649 1.314 . S
C652 C650 1.353 . S
C652 H694 0.930 . S
C653 N649 1.279 . S
C653 C651 1.358 . S
C653 H695 0.930 . S
C654 C655 1.348 . S
C654 C656 1.356 . S
C654 O679 1.325 . S
C655 C654 1.348 . S
C655 C657 1.353 . S
C655 H696 0.929 . S
C656 C654 1.356 . S
C656 C658 1.358 . S
C656 H697 0.930 . S
C657 C655 1.353 . S
C657 N659 1.314 . S
C657 H698 0.930 . S
C658 C656 1.358 . S
C658 N659 1.279 . S
C658 H699 0.930 . S
N659 C657 1.314 . S
N659 C658 1.279 . S
C660 C662 1.353 . S
C660 N663 1.314 . S
C660 H666 0.930 . S
C661 N663 1.279 . S
C661 C664 1.358 . S
C661 H667 0.930 . S
C662 C660 1.353 . S
C662 C665 1.348 . S
C662 H700 0.929 . S
N663 Li618 1.990 . S
N663 C660 1.314 . S
N663 C661 1.279 . S
C664 C661 1.358 . S
C664 C665 1.356 . S
C664 H701 0.930 . S
C665 C662 1.348 . S
C665 C664 1.356 . S
H666 C660 0.930 . S
H667 C661 0.930 . S
C668 N669 1.314 . S
C668 C670 1.353 . S
C668 H674 0.930 . S
N669 Li619 1.990 . S
N669 C668 1.314 . S
N669 C672 1.279 . S
C670 C668 1.353 . S
C670 C673 1.348 . S
C670 H702 0.929 . S
C671 C672 1.358 . S
C671 C673 1.356 . S
C671 H703 0.930 . S
C672 N669 1.279 . S
C672 C671 1.358 . S
C672 H675 0.930 . S
C673 C670 1.348 . S
C673 C671 1.356 . S
H674 C668 0.930 . S
H675 C672 0.930 . S
O676 Li616 1.956 . S
O676 Li617 1.970 . S
O676 Li618 1.961 . S
O676 C620 1.325 . S
O677 Li616 1.970 . S
O677 Li617 1.956 . S
O677 Li619 1.961 . S
O677 C626 1.325 . S
O678 Li616 1.961 . S
O678 Li618 1.956 . S
O678 Li619 1.970 . S
O678 C648 1.325 . S
O679 Li617 1.961 . S
O679 Li618 1.970 . S
O679 Li619 1.956 . S
O679 C654 1.325 . S
H680 C622 0.929 . S
H681 C623 0.930 . S
H682 C624 0.930 . S
H683 C625 0.930 . S
H684 C627 0.930 . S
H685 C629 0.929 . S
H686 C630 0.930 . S
H687 C631 0.930 . S
H688 C634 0.930 . S
H689 C637 0.929 . S
H690 C642 0.929 . S
H691 C643 0.930 . S
H692 C650 0.929 . S
H693 C651 0.930 . S
H694 C652 0.930 . S
H695 C653 0.930 . S
H696 C655 0.929 . S
H697 C656 0.930 . S
H698 C657 0.930 . S
H699 C658 0.930 . S
H700 C662 0.929 . S
H701 C664 0.930 . S
H702 C670 0.929 . S
H703 C671 0.930 . S
Li704 N721 1.990 . S
Li704 O764 1.956 . S
Li704 O765 1.970 . S
Li704 O766 1.961 . S
Li705 N729 1.990 . S
Li705 O764 1.970 . S
Li705 O765 1.956 . S
Li705 O767 1.961 . S
Li706 N751 1.990 1_545 S
Li706 O764 1.961 . S
Li706 O766 1.956 . S
Li706 O767 1.970 . S
Li707 N757 1.990 . S
Li707 O765 1.961 . S
Li707 O766 1.970 . S
Li707 O767 1.956 . S
C708 C710 1.348 . S
C708 C711 1.356 . S
C708 O764 1.325 . S
N709 C712 1.314 . S
N709 C713 1.279 . S
C710 C708 1.348 . S
C710 C712 1.353 . S
C710 H768 0.929 . S
C711 C708 1.356 . S
C711 C713 1.358 . S
C711 H769 0.930 . S
C712 N709 1.314 . S
C712 C710 1.353 . S
C712 H770 0.930 . S
C713 N709 1.279 . S
C713 C711 1.358 . S
C713 H771 0.930 . S
C714 C717 1.348 . S
C714 C718 1.356 . S
C714 O765 1.325 . S
C715 N716 1.279 . S
C715 C718 1.358 . S
C715 H772 0.930 . S
N716 C715 1.279 . S
N716 C719 1.314 . S
C717 C714 1.348 . S
C717 C719 1.353 . S
C717 H773 0.929 . S
C718 C714 1.356 . S
C718 C715 1.358 . S
C718 H774 0.930 . S
C719 N716 1.314 . S
C719 C717 1.353 . S
C719 H775 0.930 . S
C720 N721 1.314 . S
C720 C725 1.353 . S
C720 H726 0.930 . S
N721 Li704 1.990 . S
N721 C720 1.314 . S
N721 C723 1.279 . S
C722 C723 1.358 . S
C722 C724 1.356 . S
C722 H776 0.930 . S
C723 N721 1.279 . S
C723 C722 1.358 . S
C723 H727 0.930 . S
C724 C722 1.356 . S
C724 C725 1.348 . S
C725 C720 1.353 . S
C725 C724 1.348 . S
C725 H777 0.929 . S
H726 C720 0.930 . S
H727 C723 0.930 . S
C728 N729 1.314 . S
C728 C730 1.353 . S
C728 H734 0.930 . S
N729 Li705 1.990 . S
N729 C728 1.314 . S
N729 C732 1.279 . S
C730 C728 1.353 . S
C730 C733 1.348 . S
C730 H778 0.929 . S
C731 C732 1.358 . S
C731 C733 1.356 . S
C731 H779 0.930 . S
C732 N729 1.279 . S
C732 C731 1.358 . S
C732 H735 0.930 . S
C733 C730 1.348 . S
C733 C731 1.356 . S
H734 C728 0.930 . S
H735 C732 0.930 . S
C736 C738 1.348 . S
C736 C739 1.356 . S
C736 O766 1.325 . S
N737 C740 1.314 . S
N737 C741 1.279 . S
C738 C736 1.348 . S
C738 C740 1.353 . S
C738 H780 0.929 . S
C739 C736 1.356 . S
C739 C741 1.358 . S
C739 H781 0.930 . S
C740 N737 1.314 . S
C740 C738 1.353 . S
C740 H782 0.930 . S
C741 N737 1.279 . S
C741 C739 1.358 . S
C741 H783 0.930 . S
C742 C743 1.348 . S
C742 C744 1.356 . S
C742 O767 1.325 1_565 S
C743 C742 1.348 . S
C743 C745 1.353 . S
C743 H784 0.929 . S
C744 C742 1.356 . S
C744 C746 1.358 . S
C744 H785 0.930 1_565 S
C745 C743 1.353 . S
C745 N747 1.314 . S
C745 H786 0.930 . S
C746 C744 1.358 . S
C746 N747 1.279 . S
C746 H787 0.930 . S
N747 C745 1.314 . S
N747 C746 1.279 . S
C748 C750 1.353 . S
C748 N751 1.314 . S
C748 H754 0.930 . S
C749 N751 1.279 . S
C749 C752 1.358 . S
C749 H755 0.930 . S
C750 C748 1.353 . S
C750 C753 1.348 . S
C750 H788 0.929 . S
N751 Li706 1.990 1_565 S
N751 C748 1.314 . S
N751 C749 1.279 . S
C752 C749 1.358 . S
C752 C753 1.356 . S
C752 H789 0.930 . S
C753 C750 1.348 . S
C753 C752 1.356 . S
H754 C748 0.930 . S
H755 C749 0.930 . S
C756 N757 1.314 . S
C756 C758 1.353 . S
C756 H762 0.930 . S
N757 Li707 1.990 . S
N757 C756 1.314 . S
N757 C760 1.279 . S
C758 C756 1.353 . S
C758 C761 1.348 . S
C758 H790 0.929 . S
C759 C760 1.358 . S
C759 C761 1.356 . S
C759 H791 0.930 1_545 S
C760 N757 1.279 . S
C760 C759 1.358 . S
C760 H763 0.930 1_545 S
C761 C758 1.348 . S
C761 C759 1.356 . S
H762 C756 0.930 . S
H763 C760 0.930 1_565 S
O764 Li704 1.956 . S
O764 Li705 1.970 . S
O764 Li706 1.961 . S
O764 C708 1.325 . S
O765 Li704 1.970 . S
O765 Li705 1.956 . S
O765 Li707 1.961 . S
O765 C714 1.325 . S
O766 Li704 1.961 . S
O766 Li706 1.956 . S
O766 Li707 1.970 . S
O766 C736 1.325 . S
O767 Li705 1.961 . S
O767 Li706 1.970 . S
O767 Li707 1.956 . S
O767 C742 1.325 1_545 S
H768 C710 0.929 . S
H769 C711 0.930 . S
H770 C712 0.930 . S
H771 C713 0.930 . S
H772 C715 0.930 . S
H773 C717 0.929 . S
H774 C718 0.930 . S
H775 C719 0.930 . S
H776 C722 0.930 . S
H777 C725 0.929 . S
H778 C730 0.929 . S
H779 C731 0.930 . S
H780 C738 0.929 . S
H781 C739 0.930 . S
H782 C740 0.930 . S
H783 C741 0.930 . S
H784 C743 0.929 . S
H785 C744 0.930 1_545 S
H786 C745 0.930 . S
H787 C746 0.930 . S
H788 C750 0.929 . S
H789 C752 0.930 . S
H790 C758 0.929 . S
H791 C759 0.930 1_565 S
Li792 N809 1.990 . S
Li792 O852 1.956 . S
Li792 O853 1.970 . S
Li792 O854 1.961 . S
Li793 N817 1.990 . S
Li793 O852 1.970 . S
Li793 O853 1.956 . S
Li793 O855 1.961 . S
Li794 N839 1.990 1_545 S
Li794 O852 1.961 . S
Li794 O854 1.956 . S
Li794 O855 1.970 . S
Li795 N845 1.990 . S
Li795 O853 1.961 . S
Li795 O854 1.970 . S
Li795 O855 1.956 . S
C796 C798 1.348 . S
C796 C799 1.356 . S
C796 O852 1.325 . S
N797 C800 1.314 . S
N797 C801 1.279 . S
C798 C796 1.348 . S
C798 C800 1.353 . S
C798 H856 0.929 . S
C799 C796 1.356 . S
C799 C801 1.358 . S
C799 H857 0.930 . S
C800 N797 1.314 . S
C800 C798 1.353 . S
C800 H858 0.930 . S
C801 N797 1.279 . S
C801 C799 1.358 . S
C801 H859 0.930 . S
C802 C805 1.348 . S
C802 C806 1.356 . S
C802 O853 1.325 . S
C803 N804 1.279 . S
C803 C806 1.358 . S
C803 H860 0.930 . S
N804 C803 1.279 . S
N804 C807 1.314 . S
C805 C802 1.348 . S
C805 C807 1.353 . S
C805 H861 0.929 . S
C806 C802 1.356 . S
C806 C803 1.358 . S
C806 H862 0.930 . S
C807 N804 1.314 . S
C807 C805 1.353 . S
C807 H863 0.930 . S
C808 N809 1.314 . S
C808 C813 1.353 . S
C808 H814 0.930 . S
N809 Li792 1.990 . S
N809 C808 1.314 . S
N809 C811 1.279 . S
C810 C811 1.358 . S
C810 C812 1.356 . S
C810 H864 0.930 . S
C811 N809 1.279 . S
C811 C810 1.358 . S
C811 H815 0.930 . S
C812 C810 1.356 . S
C812 C813 1.348 . S
C813 C808 1.353 . S
C813 C812 1.348 . S
C813 H865 0.929 . S
H814 C808 0.930 . S
H815 C811 0.930 . S
C816 N817 1.314 . S
C816 C818 1.353 . S
C816 H822 0.930 . S
N817 Li793 1.990 . S
N817 C816 1.314 . S
N817 C820 1.279 . S
C818 C816 1.353 . S
C818 C821 1.348 . S
C818 H866 0.929 . S
C819 C820 1.358 . S
C819 C821 1.356 . S
C819 H867 0.930 . S
C820 N817 1.279 . S
C820 C819 1.358 . S
C820 H823 0.930 . S
C821 C818 1.348 . S
C821 C819 1.356 . S
H822 C816 0.930 . S
H823 C820 0.930 . S
C824 C826 1.348 . S
C824 C827 1.356 . S
C824 O854 1.325 . S
N825 C828 1.314 . S
N825 C829 1.279 . S
C826 C824 1.348 . S
C826 C828 1.353 . S
C826 H868 0.929 . S
C827 C824 1.356 . S
C827 C829 1.358 . S
C827 H869 0.930 . S
C828 N825 1.314 . S
C828 C826 1.353 . S
C828 H870 0.930 . S
C829 N825 1.279 . S
C829 C827 1.358 . S
C829 H871 0.930 . S
C830 C831 1.348 . S
C830 C832 1.356 . S
C830 O855 1.325 1_565 S
C831 C830 1.348 . S
C831 C833 1.353 . S
C831 H872 0.929 . S
C832 C830 1.356 . S
C832 C834 1.358 . S
C832 H873 0.930 1_565 S
C833 C831 1.353 . S
C833 N835 1.314 . S
C833 H874 0.930 . S
C834 C832 1.358 . S
C834 N835 1.279 . S
C834 H875 0.930 . S
N835 C833 1.314 . S
N835 C834 1.279 . S
C836 C838 1.353 . S
C836 N839 1.314 . S
C836 H842 0.930 . S
C837 N839 1.279 . S
C837 C840 1.358 . S
C837 H843 0.930 . S
C838 C836 1.353 . S
C838 C841 1.348 . S
C838 H876 0.929 . S
N839 Li794 1.990 1_565 S
N839 C836 1.314 . S
N839 C837 1.279 . S
C840 C837 1.358 . S
C840 C841 1.356 . S
C840 H877 0.930 . S
C841 C838 1.348 . S
C841 C840 1.356 . S
H842 C836 0.930 . S
H843 C837 0.930 . S
C844 N845 1.314 . S
C844 C846 1.353 . S
C844 H850 0.930 . S
N845 Li795 1.990 . S
N845 C844 1.314 . S
N845 C848 1.279 . S
C846 C844 1.353 . S
C846 C849 1.348 . S
C846 H878 0.929 . S
C847 C848 1.358 . S
C847 C849 1.356 . S
C847 H879 0.930 1_545 S
C848 N845 1.279 . S
C848 C847 1.358 . S
C848 H851 0.930 1_545 S
C849 C846 1.348 . S
C849 C847 1.356 . S
H850 C844 0.930 . S
H851 C848 0.930 1_565 S
O852 Li792 1.956 . S
O852 Li793 1.970 . S
O852 Li794 1.961 . S
O852 C796 1.325 . S
O853 Li792 1.970 . S
O853 Li793 1.956 . S
O853 Li795 1.961 . S
O853 C802 1.325 . S
O854 Li792 1.961 . S
O854 Li794 1.956 . S
O854 Li795 1.970 . S
O854 C824 1.325 . S
O855 Li793 1.961 . S
O855 Li794 1.970 . S
O855 Li795 1.956 . S
O855 C830 1.325 1_545 S
H856 C798 0.929 . S
H857 C799 0.930 . S
H858 C800 0.930 . S
H859 C801 0.930 . S
H860 C803 0.930 . S
H861 C805 0.929 . S
H862 C806 0.930 . S
H863 C807 0.930 . S
H864 C810 0.930 . S
H865 C813 0.929 . S
H866 C818 0.929 . S
H867 C819 0.930 . S
H868 C826 0.929 . S
H869 C827 0.930 . S
H870 C828 0.930 . S
H871 C829 0.930 . S
H872 C831 0.929 . S
H873 C832 0.930 1_545 S
H874 C833 0.930 . S
H875 C834 0.930 . S
H876 C838 0.929 . S
H877 C840 0.930 . S
H878 C846 0.929 . S
H879 C847 0.930 1_565 S
Li880 N897 1.990 1_455 S
Li880 O940 1.956 . S
Li880 O941 1.970 . S
Li880 O942 1.961 . S
Li881 N905 1.990 . S
Li881 O940 1.970 . S
Li881 O941 1.956 . S
Li881 O943 1.961 . S
Li882 N927 1.990 . S
Li882 O940 1.961 . S
Li882 O942 1.956 . S
Li882 O943 1.970 . S
Li883 N933 1.990 . S
Li883 O941 1.961 . S
Li883 O942 1.970 . S
Li883 O943 1.956 . S
C884 C886 1.348 . S
C884 C887 1.356 . S
C884 O940 1.325 . S
N885 C888 1.314 . S
N885 C889 1.279 . S
C886 C884 1.348 . S
C886 C888 1.353 . S
C886 H944 0.929 . S
C887 C884 1.356 . S
C887 C889 1.358 . S
C887 H945 0.930 . S
C888 N885 1.314 . S
C888 C886 1.353 . S
C888 H946 0.930 . S
C889 N885 1.279 . S
C889 C887 1.358 . S
C889 H947 0.930 . S
C890 C893 1.348 . S
C890 C894 1.356 . S
C890 O941 1.325 1_655 S
C891 N892 1.279 . S
C891 C894 1.358 . S
C891 H948 0.930 . S
N892 C891 1.279 . S
N892 C895 1.314 . S
C893 C890 1.348 . S
C893 C895 1.353 . S
C893 H949 0.929 . S
C894 C890 1.356 . S
C894 C891 1.358 . S
C894 H950 0.930 1_655 S
C895 N892 1.314 . S
C895 C893 1.353 . S
C895 H951 0.930 . S
C896 N897 1.314 . S
C896 C901 1.353 . S
C896 H902 0.930 . S
N897 Li880 1.990 1_655 S
N897 C896 1.314 . S
N897 C899 1.279 . S
C898 C899 1.358 . S
C898 C900 1.356 . S
C898 H952 0.930 . S
C899 N897 1.279 . S
C899 C898 1.358 . S
C899 H903 0.930 . S
C900 C898 1.356 . S
C900 C901 1.348 . S
C901 C896 1.353 . S
C901 C900 1.348 . S
C901 H953 0.929 . S
H902 C896 0.930 . S
H903 C899 0.930 . S
C904 N905 1.314 . S
C904 C906 1.353 . S
C904 H910 0.930 . S
N905 Li881 1.990 . S
N905 C904 1.314 . S
N905 C908 1.279 . S
C906 C904 1.353 . S
C906 C909 1.348 . S
C906 H954 0.929 . S
C907 C908 1.358 . S
C907 C909 1.356 . S
C907 H955 0.930 1_455 S
C908 N905 1.279 . S
C908 C907 1.358 . S
C908 H911 0.930 1_455 S
C909 C906 1.348 . S
C909 C907 1.356 . S
H910 C904 0.930 . S
H911 C908 0.930 1_655 S
C912 C914 1.348 . S
C912 C915 1.356 . S
C912 O942 1.325 . S
N913 C916 1.314 . S
N913 C917 1.279 . S
C914 C912 1.348 . S
C914 C916 1.353 . S
C914 H956 0.929 . S
C915 C912 1.356 . S
C915 C917 1.358 . S
C915 H957 0.930 . S
C916 N913 1.314 . S
C916 C914 1.353 . S
C916 H958 0.930 . S
C917 N913 1.279 . S
C917 C915 1.358 . S
C917 H959 0.930 . S
C918 C919 1.348 . S
C918 C920 1.356 . S
C918 O943 1.325 . S
C919 C918 1.348 . S
C919 C921 1.353 . S
C919 H960 0.929 . S
C920 C918 1.356 . S
C920 C922 1.358 . S
C920 H961 0.930 . S
C921 C919 1.353 . S
C921 N923 1.314 . S
C921 H962 0.930 . S
C922 C920 1.358 . S
C922 N923 1.279 . S
C922 H963 0.930 . S
N923 C921 1.314 . S
N923 C922 1.279 . S
C924 C926 1.353 . S
C924 N927 1.314 . S
C924 H930 0.930 . S
C925 N927 1.279 . S
C925 C928 1.358 . S
C925 H931 0.930 . S
C926 C924 1.353 . S
C926 C929 1.348 . S
C926 H964 0.929 . S
N927 Li882 1.990 . S
N927 C924 1.314 . S
N927 C925 1.279 . S
C928 C925 1.358 . S
C928 C929 1.356 . S
C928 H965 0.930 . S
C929 C926 1.348 . S
C929 C928 1.356 . S
H930 C924 0.930 . S
H931 C925 0.930 . S
C932 N933 1.314 . S
C932 C934 1.353 . S
C932 H938 0.930 . S
N933 Li883 1.990 . S
N933 C932 1.314 . S
N933 C936 1.279 . S
C934 C932 1.353 . S
C934 C937 1.348 . S
C934 H966 0.929 . S
C935 C936 1.358 . S
C935 C937 1.356 . S
C935 H967 0.930 . S
C936 N933 1.279 . S
C936 C935 1.358 . S
C936 H939 0.930 . S
C937 C934 1.348 . S
C937 C935 1.356 . S
H938 C932 0.930 . S
H939 C936 0.930 . S
O940 Li880 1.956 . S
O940 Li881 1.970 . S
O940 Li882 1.961 . S
O940 C884 1.325 . S
O941 Li880 1.970 . S
O941 Li881 1.956 . S
O941 Li883 1.961 . S
O941 C890 1.325 1_455 S
O942 Li880 1.961 . S
O942 Li882 1.956 . S
O942 Li883 1.970 . S
O942 C912 1.325 . S
O943 Li881 1.961 . S
O943 Li882 1.970 . S
O943 Li883 1.956 . S
O943 C918 1.325 . S
H944 C886 0.929 . S
H945 C887 0.930 . S
H946 C888 0.930 . S
H947 C889 0.930 . S
H948 C891 0.930 . S
H949 C893 0.929 . S
H950 C894 0.930 1_455 S
H951 C895 0.930 . S
H952 C898 0.930 . S
H953 C901 0.929 . S
H954 C906 0.929 . S
H955 C907 0.930 1_655 S
H956 C914 0.929 . S
H957 C915 0.930 . S
H958 C916 0.930 . S
H959 C917 0.930 . S
H960 C919 0.929 . S
H961 C920 0.930 . S
H962 C921 0.930 . S
H963 C922 0.930 . S
H964 C926 0.929 . S
H965 C928 0.930 . S
H966 C934 0.929 . S
H967 C935 0.930 . S
Li968 N985 1.990 . S
Li968 O1028 1.956 . S
Li968 O1029 1.970 . S
Li968 O1030 1.961 . S
Li969 N993 1.990 . S
Li969 O1028 1.970 . S
Li969 O1029 1.956 . S
Li969 O1031 1.961 . S
Li970 N1015 1.990 . S
Li970 O1028 1.961 . S
Li970 O1030 1.956 . S
Li970 O1031 1.970 . S
Li971 N1021 1.990 . S
Li971 O1029 1.961 . S
Li971 O1030 1.970 . S
Li971 O1031 1.956 . S
C972 C974 1.348 . S
C972 C975 1.356 . S
C972 O1028 1.325 . S
N973 C976 1.314 . S
N973 C977 1.279 . S
C974 C972 1.348 . S
C974 C976 1.353 . S
C974 H1032 0.929 . S
C975 C972 1.356 . S
C975 C977 1.358 . S
C975 H1033 0.930 . S
C976 N973 1.314 . S
C976 C974 1.353 . S
C976 H1034 0.930 . S
C977 N973 1.279 . S
C977 C975 1.358 . S
C977 H1035 0.930 . S
C978 C981 1.348 . S
C978 C982 1.356 . S
C978 O1029 1.325 . S
C979 N980 1.279 . S
C979 C982 1.358 . S
C979 H1036 0.930 . S
N980 C979 1.279 . S
N980 C983 1.314 . S
C981 C978 1.348 . S
C981 C983 1.353 . S
C981 H1037 0.929 . S
C982 C978 1.356 . S
C982 C979 1.358 . S
C982 H1038 0.930 . S
C983 N980 1.314 . S
C983 C981 1.353 . S
C983 H1039 0.930 . S
C984 N985 1.314 . S
C984 C989 1.353 . S
C984 H990 0.930 . S
N985 Li968 1.990 . S
N985 C984 1.314 . S
N985 C987 1.279 . S
C986 C987 1.358 . S
C986 C988 1.356 . S
C986 H1040 0.930 . S
C987 N985 1.279 . S
C987 C986 1.358 . S
C987 H991 0.930 . S
C988 C986 1.356 . S
C988 C989 1.348 . S
C989 C984 1.353 . S
C989 C988 1.348 . S
C989 H1041 0.929 . S
H990 C984 0.930 . S
H991 C987 0.930 . S
C992 N993 1.314 . S
C992 C994 1.353 . S
C992 H998 0.930 . S
N993 Li969 1.990 . S
N993 C992 1.314 . S
N993 C996 1.279 . S
C994 C992 1.353 . S
C994 C997 1.348 . S
C994 H1042 0.929 . S
C995 C996 1.358 . S
C995 C997 1.356 . S
C995 H1043 0.930 . S
C996 N993 1.279 . S
C996 C995 1.358 . S
C996 H999 0.930 . S
C997 C994 1.348 . S
C997 C995 1.356 . S
H998 C992 0.930 . S
H999 C996 0.930 . S
C1000 C1002 1.348 . S
C1000 C1003 1.356 . S
C1000 O1030 1.325 . S
N1001 C1004 1.314 . S
N1001 C1005 1.279 . S
C1002 C1000 1.348 . S
C1002 C1004 1.353 . S
C1002 H1044 0.929 . S
C1003 C1000 1.356 . S
C1003 C1005 1.358 . S
C1003 H1045 0.930 . S
C1004 N1001 1.314 . S
C1004 C1002 1.353 . S
C1004 H1046 0.930 . S
C1005 N1001 1.279 . S
C1005 C1003 1.358 . S
C1005 H1047 0.930 . S
C1006 C1007 1.348 . S
C1006 C1008 1.356 . S
C1006 O1031 1.325 . S
C1007 C1006 1.348 . S
C1007 C1009 1.353 . S
C1007 H1048 0.929 . S
C1008 C1006 1.356 . S
C1008 C1010 1.358 . S
C1008 H1049 0.930 . S
C1009 C1007 1.353 . S
C1009 N1011 1.314 . S
C1009 H1050 0.930 . S
C1010 C1008 1.358 . S
C1010 N1011 1.279 . S
C1010 H1051 0.930 . S
N1011 C1009 1.314 . S
N1011 C1010 1.279 . S
C1012 C1014 1.353 . S
C1012 N1015 1.314 . S
C1012 H1018 0.930 . S
C1013 N1015 1.279 . S
C1013 C1016 1.358 . S
C1013 H1019 0.930 . S
C1014 C1012 1.353 . S
C1014 C1017 1.348 . S
C1014 H1052 0.929 . S
N1015 Li970 1.990 . S
N1015 C1012 1.314 . S
N1015 C1013 1.279 . S
C1016 C1013 1.358 . S
C1016 C1017 1.356 . S
C1016 H1053 0.930 . S
C1017 C1014 1.348 . S
C1017 C1016 1.356 . S
H1018 C1012 0.930 . S
H1019 C1013 0.930 . S
C1020 N1021 1.314 . S
C1020 C1022 1.353 . S
C1020 H1026 0.930 . S
N1021 Li971 1.990 . S
N1021 C1020 1.314 . S
N1021 C1024 1.279 . S
C1022 C1020 1.353 . S
C1022 C1025 1.348 . S
C1022 H1054 0.929 . S
C1023 C1024 1.358 . S
C1023 C1025 1.356 . S
C1023 H1055 0.930 . S
C1024 N1021 1.279 . S
C1024 C1023 1.358 . S
C1024 H1027 0.930 . S
C1025 C1022 1.348 . S
C1025 C1023 1.356 . S
H1026 C1020 0.930 . S
H1027 C1024 0.930 . S
O1028 Li968 1.956 . S
O1028 Li969 1.970 . S
O1028 Li970 1.961 . S
O1028 C972 1.325 . S
O1029 Li968 1.970 . S
O1029 Li969 1.956 . S
O1029 Li971 1.961 . S
O1029 C978 1.325 . S
O1030 Li968 1.961 . S
O1030 Li970 1.956 . S
O1030 Li971 1.970 . S
O1030 C1000 1.325 . S
O1031 Li969 1.961 . S
O1031 Li970 1.970 . S
O1031 Li971 1.956 . S
O1031 C1006 1.325 . S
H1032 C974 0.929 . S
H1033 C975 0.930 . S
H1034 C976 0.930 . S
H1035 C977 0.930 . S
H1036 C979 0.930 . S
H1037 C981 0.929 . S
H1038 C982 0.930 . S
H1039 C983 0.930 . S
H1040 C986 0.930 . S
H1041 C989 0.929 . S
H1042 C994 0.929 . S
H1043 C995 0.930 . S
H1044 C1002 0.929 . S
H1045 C1003 0.930 . S
H1046 C1004 0.930 . S
H1047 C1005 0.930 . S
H1048 C1007 0.929 . S
H1049 C1008 0.930 . S
H1050 C1009 0.930 . S
H1051 C1010 0.930 . S
H1052 C1014 0.929 . S
H1053 C1016 0.930 . S
H1054 C1022 0.929 . S
H1055 C1023 0.930 . S
Li1056 N1073 1.990 . S
Li1056 O1116 1.956 . S
Li1056 O1117 1.970 . S
Li1056 O1118 1.961 . S
Li1057 N1081 1.990 . S
Li1057 O1116 1.970 . S
Li1057 O1117 1.956 . S
Li1057 O1119 1.961 . S
Li1058 N1103 1.990 . S
Li1058 O1116 1.961 . S
Li1058 O1118 1.956 . S
Li1058 O1119 1.970 . S
Li1059 N1109 1.990 . S
Li1059 O1117 1.961 . S
Li1059 O1118 1.970 . S
Li1059 O1119 1.956 . S
C1060 C1062 1.348 . S
C1060 C1063 1.356 . S
C1060 O1116 1.325 . S
N1061 C1064 1.314 . S
N1061 C1065 1.279 . S
C1062 C1060 1.348 . S
C1062 C1064 1.353 . S
C1062 H1120 0.929 . S
C1063 C1060 1.356 . S
C1063 C1065 1.358 . S
C1063 H1121 0.930 . S
C1064 N1061 1.314 . S
C1064 C1062 1.353 . S
C1064 H1122 0.930 . S
C1065 N1061 1.279 . S
C1065 C1063 1.358 . S
C1065 H1123 0.930 . S
C1066 C1069 1.348 . S
C1066 C1070 1.356 . S
C1066 O1117 1.325 . S
C1067 N1068 1.279 . S
C1067 C1070 1.358 . S
C1067 H1124 0.930 . S
N1068 C1067 1.279 . S
N1068 C1071 1.314 . S
C1069 C1066 1.348 . S
C1069 C1071 1.353 . S
C1069 H1125 0.929 . S
C1070 C1066 1.356 . S
C1070 C1067 1.358 . S
C1070 H1126 0.930 . S
C1071 N1068 1.314 . S
C1071 C1069 1.353 . S
C1071 H1127 0.930 . S
C1072 N1073 1.314 . S
C1072 C1077 1.353 . S
C1072 H1078 0.930 . S
N1073 Li1056 1.990 . S
N1073 C1072 1.314 . S
N1073 C1075 1.279 . S
C1074 C1075 1.358 . S
C1074 C1076 1.356 . S
C1074 H1128 0.930 . S
C1075 N1073 1.279 . S
C1075 C1074 1.358 . S
C1075 H1079 0.930 . S
C1076 C1074 1.356 . S
C1076 C1077 1.348 . S
C1077 C1072 1.353 . S
C1077 C1076 1.348 . S
C1077 H1129 0.929 . S
H1078 C1072 0.930 . S
H1079 C1075 0.930 . S
C1080 N1081 1.314 . S
C1080 C1082 1.353 . S
C1080 H1086 0.930 . S
N1081 Li1057 1.990 . S
N1081 C1080 1.314 . S
N1081 C1084 1.279 . S
C1082 C1080 1.353 . S
C1082 C1085 1.348 . S
C1082 H1130 0.929 . S
C1083 C1084 1.358 . S
C1083 C1085 1.356 . S
C1083 H1131 0.930 . S
C1084 N1081 1.279 . S
C1084 C1083 1.358 . S
C1084 H1087 0.930 . S
C1085 C1082 1.348 . S
C1085 C1083 1.356 . S
H1086 C1080 0.930 . S
H1087 C1084 0.930 . S
C1088 C1090 1.348 . S
C1088 C1091 1.356 . S
C1088 O1118 1.325 . S
N1089 C1092 1.314 . S
N1089 C1093 1.279 . S
C1090 C1088 1.348 . S
C1090 C1092 1.353 . S
C1090 H1132 0.929 . S
C1091 C1088 1.356 . S
C1091 C1093 1.358 . S
C1091 H1133 0.930 . S
C1092 N1089 1.314 . S
C1092 C1090 1.353 . S
C1092 H1134 0.930 . S
C1093 N1089 1.279 . S
C1093 C1091 1.358 . S
C1093 H1135 0.930 . S
C1094 C1095 1.348 . S
C1094 C1096 1.356 . S
C1094 O1119 1.325 . S
C1095 C1094 1.348 . S
C1095 C1097 1.353 . S
C1095 H1136 0.929 . S
C1096 C1094 1.356 . S
C1096 C1098 1.358 . S
C1096 H1137 0.930 . S
C1097 C1095 1.353 . S
C1097 N1099 1.314 . S
C1097 H1138 0.930 . S
C1098 C1096 1.358 . S
C1098 N1099 1.279 . S
C1098 H1139 0.930 . S
N1099 C1097 1.314 . S
N1099 C1098 1.279 . S
C1100 C1102 1.353 . S
C1100 N1103 1.314 . S
C1100 H1106 0.930 . S
C1101 N1103 1.279 . S
C1101 C1104 1.358 . S
C1101 H1107 0.930 . S
C1102 C1100 1.353 . S
C1102 C1105 1.348 . S
C1102 H1140 0.929 . S
N1103 Li1058 1.990 . S
N1103 C1100 1.314 . S
N1103 C1101 1.279 . S
C1104 C1101 1.358 . S
C1104 C1105 1.356 . S
C1104 H1141 0.930 . S
C1105 C1102 1.348 . S
C1105 C1104 1.356 . S
H1106 C1100 0.930 . S
H1107 C1101 0.930 . S
C1108 N1109 1.314 . S
C1108 C1110 1.353 . S
C1108 H1114 0.930 . S
N1109 Li1059 1.990 . S
N1109 C1108 1.314 . S
N1109 C1112 1.279 . S
C1110 C1108 1.353 . S
C1110 C1113 1.348 . S
C1110 H1142 0.929 . S
C1111 C1112 1.358 . S
C1111 C1113 1.356 . S
C1111 H1143 0.930 . S
C1112 N1109 1.279 . S
C1112 C1111 1.358 . S
C1112 H1115 0.930 . S
C1113 C1110 1.348 . S
C1113 C1111 1.356 . S
H1114 C1108 0.930 . S
H1115 C1112 0.930 . S
O1116 Li1056 1.956 . S
O1116 Li1057 1.970 . S
O1116 Li1058 1.961 . S
O1116 C1060 1.325 . S
O1117 Li1056 1.970 . S
O1117 Li1057 1.956 . S
O1117 Li1059 1.961 . S
O1117 C1066 1.325 . S
O1118 Li1056 1.961 . S
O1118 Li1058 1.956 . S
O1118 Li1059 1.970 . S
O1118 C1088 1.325 . S
O1119 Li1057 1.961 . S
O1119 Li1058 1.970 . S
O1119 Li1059 1.956 . S
O1119 C1094 1.325 . S
H1120 C1062 0.929 . S
H1121 C1063 0.930 . S
H1122 C1064 0.930 . S
H1123 C1065 0.930 . S
H1124 C1067 0.930 . S
H1125 C1069 0.929 . S
H1126 C1070 0.930 . S
H1127 C1071 0.930 . S
H1128 C1074 0.930 . S
H1129 C1077 0.929 . S
H1130 C1082 0.929 . S
H1131 C1083 0.930 . S
H1132 C1090 0.929 . S
H1133 C1091 0.930 . S
H1134 C1092 0.930 . S
H1135 C1093 0.930 . S
H1136 C1095 0.929 . S
H1137 C1096 0.930 . S
H1138 C1097 0.930 . S
H1139 C1098 0.930 . S
H1140 C1102 0.929 . S
H1141 C1104 0.930 . S
H1142 C1110 0.929 . S
H1143 C1111 0.930 . S
Li1144 N1161 1.990 . S
Li1144 O1204 1.956 . S
Li1144 O1205 1.970 . S
Li1144 O1206 1.961 . S
Li1145 N1169 1.990 . S
Li1145 O1204 1.970 . S
Li1145 O1205 1.956 . S
Li1145 O1207 1.961 . S
Li1146 N1191 1.990 . S
Li1146 O1204 1.961 . S
Li1146 O1206 1.956 . S
Li1146 O1207 1.970 . S
Li1147 N1197 1.990 . S
Li1147 O1205 1.961 . S
Li1147 O1206 1.970 . S
Li1147 O1207 1.956 . S
C1148 C1150 1.348 . S
C1148 C1151 1.356 . S
C1148 O1204 1.325 . S
N1149 C1152 1.314 . S
N1149 C1153 1.279 . S
C1150 C1148 1.348 . S
C1150 C1152 1.353 . S
C1150 H1208 0.929 . S
C1151 C1148 1.356 . S
C1151 C1153 1.358 . S
C1151 H1209 0.930 . S
C1152 N1149 1.314 . S
C1152 C1150 1.353 . S
C1152 H1210 0.930 . S
C1153 N1149 1.279 . S
C1153 C1151 1.358 . S
C1153 H1211 0.930 . S
C1154 C1157 1.348 . S
C1154 C1158 1.356 . S
C1154 O1205 1.325 . S
C1155 N1156 1.279 . S
C1155 C1158 1.358 . S
C1155 H1212 0.930 . S
N1156 C1155 1.279 . S
N1156 C1159 1.314 . S
C1157 C1154 1.348 . S
C1157 C1159 1.353 . S
C1157 H1213 0.929 . S
C1158 C1154 1.356 . S
C1158 C1155 1.358 . S
C1158 H1214 0.930 . S
C1159 N1156 1.314 . S
C1159 C1157 1.353 . S
C1159 H1215 0.930 . S
C1160 N1161 1.314 . S
C1160 C1165 1.353 . S
C1160 H1166 0.930 . S
N1161 Li1144 1.990 . S
N1161 C1160 1.314 . S
N1161 C1163 1.279 . S
C1162 C1163 1.358 . S
C1162 C1164 1.356 . S
C1162 H1216 0.930 . S
C1163 N1161 1.279 . S
C1163 C1162 1.358 . S
C1163 H1167 0.930 . S
C1164 C1162 1.356 . S
C1164 C1165 1.348 . S
C1165 C1160 1.353 . S
C1165 C1164 1.348 . S
C1165 H1217 0.929 . S
H1166 C1160 0.930 . S
H1167 C1163 0.930 . S
C1168 N1169 1.314 . S
C1168 C1170 1.353 . S
C1168 H1174 0.930 . S
N1169 Li1145 1.990 . S
N1169 C1168 1.314 . S
N1169 C1172 1.279 . S
C1170 C1168 1.353 . S
C1170 C1173 1.348 . S
C1170 H1218 0.929 . S
C1171 C1172 1.358 . S
C1171 C1173 1.356 . S
C1171 H1219 0.930 . S
C1172 N1169 1.279 . S
C1172 C1171 1.358 . S
C1172 H1175 0.930 . S
C1173 C1170 1.348 . S
C1173 C1171 1.356 . S
H1174 C1168 0.930 . S
H1175 C1172 0.930 . S
C1176 C1178 1.348 . S
C1176 C1179 1.356 . S
C1176 O1206 1.325 . S
N1177 C1180 1.314 . S
N1177 C1181 1.279 . S
C1178 C1176 1.348 . S
C1178 C1180 1.353 . S
C1178 H1220 0.929 . S
C1179 C1176 1.356 . S
C1179 C1181 1.358 . S
C1179 H1221 0.930 . S
C1180 N1177 1.314 . S
C1180 C1178 1.353 . S
C1180 H1222 0.930 . S
C1181 N1177 1.279 . S
C1181 C1179 1.358 . S
C1181 H1223 0.930 . S
C1182 C1183 1.348 . S
C1182 C1184 1.356 . S
C1182 O1207 1.325 . S
C1183 C1182 1.348 . S
C1183 C1185 1.353 . S
C1183 H1224 0.929 . S
C1184 C1182 1.356 . S
C1184 C1186 1.358 . S
C1184 H1225 0.930 . S
C1185 C1183 1.353 . S
C1185 N1187 1.314 . S
C1185 H1226 0.930 . S
C1186 C1184 1.358 . S
C1186 N1187 1.279 . S
C1186 H1227 0.930 . S
N1187 C1185 1.314 . S
N1187 C1186 1.279 . S
C1188 C1190 1.353 . S
C1188 N1191 1.314 . S
C1188 H1194 0.930 . S
C1189 N1191 1.279 . S
C1189 C1192 1.358 . S
C1189 H1195 0.930 . S
C1190 C1188 1.353 . S
C1190 C1193 1.348 . S
C1190 H1228 0.929 . S
N1191 Li1146 1.990 . S
N1191 C1188 1.314 . S
N1191 C1189 1.279 . S
C1192 C1189 1.358 . S
C1192 C1193 1.356 . S
C1192 H1229 0.930 . S
C1193 C1190 1.348 . S
C1193 C1192 1.356 . S
H1194 C1188 0.930 . S
H1195 C1189 0.930 . S
C1196 N1197 1.314 . S
C1196 C1198 1.353 . S
C1196 H1202 0.930 . S
N1197 Li1147 1.990 . S
N1197 C1196 1.314 . S
N1197 C1200 1.279 . S
C1198 C1196 1.353 . S
C1198 C1201 1.348 . S
C1198 H1230 0.929 . S
C1199 C1200 1.358 . S
C1199 C1201 1.356 . S
C1199 H1231 0.930 . S
C1200 N1197 1.279 . S
C1200 C1199 1.358 . S
C1200 H1203 0.930 . S
C1201 C1198 1.348 . S
C1201 C1199 1.356 . S
H1202 C1196 0.930 . S
H1203 C1200 0.930 . S
O1204 Li1144 1.956 . S
O1204 Li1145 1.970 . S
O1204 Li1146 1.961 . S
O1204 C1148 1.325 . S
O1205 Li1144 1.970 . S
O1205 Li1145 1.956 . S
O1205 Li1147 1.961 . S
O1205 C1154 1.325 . S
O1206 Li1144 1.961 . S
O1206 Li1146 1.956 . S
O1206 Li1147 1.970 . S
O1206 C1176 1.325 . S
O1207 Li1145 1.961 . S
O1207 Li1146 1.970 . S
O1207 Li1147 1.956 . S
O1207 C1182 1.325 . S
H1208 C1150 0.929 . S
H1209 C1151 0.930 . S
H1210 C1152 0.930 . S
H1211 C1153 0.930 . S
H1212 C1155 0.930 . S
H1213 C1157 0.929 . S
H1214 C1158 0.930 . S
H1215 C1159 0.930 . S
H1216 C1162 0.930 . S
H1217 C1165 0.929 . S
H1218 C1170 0.929 . S
H1219 C1171 0.930 . S
H1220 C1178 0.929 . S
H1221 C1179 0.930 . S
H1222 C1180 0.930 . S
H1223 C1181 0.930 . S
H1224 C1183 0.929 . S
H1225 C1184 0.930 . S
H1226 C1185 0.930 . S
H1227 C1186 0.930 . S
H1228 C1190 0.929 . S
H1229 C1192 0.930 . S
H1230 C1198 0.929 . S
H1231 C1199 0.930 . S
Li1232 N1249 1.990 . S
Li1232 O1292 1.956 . S
Li1232 O1293 1.970 . S
Li1232 O1294 1.961 . S
Li1233 N1257 1.990 . S
Li1233 O1292 1.970 . S
Li1233 O1293 1.956 . S
Li1233 O1295 1.961 . S
Li1234 N1279 1.990 . S
Li1234 O1292 1.961 . S
Li1234 O1294 1.956 . S
Li1234 O1295 1.970 . S
Li1235 N1285 1.990 . S
Li1235 O1293 1.961 . S
Li1235 O1294 1.970 . S
Li1235 O1295 1.956 . S
C1236 C1238 1.348 . S
C1236 C1239 1.356 . S
C1236 O1292 1.325 . S
N1237 C1240 1.314 . S
N1237 C1241 1.279 . S
C1238 C1236 1.348 . S
C1238 C1240 1.353 . S
C1238 H1296 0.929 . S
C1239 C1236 1.356 . S
C1239 C1241 1.358 . S
C1239 H1297 0.930 . S
C1240 N1237 1.314 . S
C1240 C1238 1.353 . S
C1240 H1298 0.930 . S
C1241 N1237 1.279 . S
C1241 C1239 1.358 . S
C1241 H1299 0.930 . S
C1242 C1245 1.348 . S
C1242 C1246 1.356 . S
C1242 O1293 1.325 . S
C1243 N1244 1.279 . S
C1243 C1246 1.358 . S
C1243 H1300 0.930 . S
N1244 C1243 1.279 . S
N1244 C1247 1.314 . S
C1245 C1242 1.348 . S
C1245 C1247 1.353 . S
C1245 H1301 0.929 . S
C1246 C1242 1.356 . S
C1246 C1243 1.358 . S
C1246 H1302 0.930 . S
C1247 N1244 1.314 . S
C1247 C1245 1.353 . S
C1247 H1303 0.930 . S
C1248 N1249 1.314 . S
C1248 C1253 1.353 . S
C1248 H1254 0.930 . S
N1249 Li1232 1.990 . S
N1249 C1248 1.314 . S
N1249 C1251 1.279 . S
C1250 C1251 1.358 . S
C1250 C1252 1.356 . S
C1250 H1304 0.930 . S
C1251 N1249 1.279 . S
C1251 C1250 1.358 . S
C1251 H1255 0.930 . S
C1252 C1250 1.356 . S
C1252 C1253 1.348 . S
C1253 C1248 1.353 . S
C1253 C1252 1.348 . S
C1253 H1305 0.929 . S
H1254 C1248 0.930 . S
H1255 C1251 0.930 . S
C1256 N1257 1.314 . S
C1256 C1258 1.353 . S
C1256 H1262 0.930 . S
N1257 Li1233 1.990 . S
N1257 C1256 1.314 . S
N1257 C1260 1.279 . S
C1258 C1256 1.353 . S
C1258 C1261 1.348 . S
C1258 H1306 0.929 . S
C1259 C1260 1.358 . S
C1259 C1261 1.356 . S
C1259 H1307 0.930 . S
C1260 N1257 1.279 . S
C1260 C1259 1.358 . S
C1260 H1263 0.930 . S
C1261 C1258 1.348 . S
C1261 C1259 1.356 . S
H1262 C1256 0.930 . S
H1263 C1260 0.930 . S
C1264 C1266 1.348 . S
C1264 C1267 1.356 . S
C1264 O1294 1.325 . S
N1265 C1268 1.314 . S
N1265 C1269 1.279 . S
C1266 C1264 1.348 . S
C1266 C1268 1.353 . S
C1266 H1308 0.929 . S
C1267 C1264 1.356 . S
C1267 C1269 1.358 . S
C1267 H1309 0.930 . S
C1268 N1265 1.314 . S
C1268 C1266 1.353 . S
C1268 H1310 0.930 . S
C1269 N1265 1.279 . S
C1269 C1267 1.358 . S
C1269 H1311 0.930 . S
C1270 C1271 1.348 . S
C1270 C1272 1.356 . S
C1270 O1295 1.325 . S
C1271 C1270 1.348 . S
C1271 C1273 1.353 . S
C1271 H1312 0.929 . S
C1272 C1270 1.356 . S
C1272 C1274 1.358 . S
C1272 H1313 0.930 . S
C1273 C1271 1.353 . S
C1273 N1275 1.314 . S
C1273 H1314 0.930 . S
C1274 C1272 1.358 . S
C1274 N1275 1.279 . S
C1274 H1315 0.930 . S
N1275 C1273 1.314 . S
N1275 C1274 1.279 . S
C1276 C1278 1.353 . S
C1276 N1279 1.314 . S
C1276 H1282 0.930 . S
C1277 N1279 1.279 . S
C1277 C1280 1.358 . S
C1277 H1283 0.930 . S
C1278 C1276 1.353 . S
C1278 C1281 1.348 . S
C1278 H1316 0.929 . S
N1279 Li1234 1.990 . S
N1279 C1276 1.314 . S
N1279 C1277 1.279 . S
C1280 C1277 1.358 . S
C1280 C1281 1.356 . S
C1280 H1317 0.930 . S
C1281 C1278 1.348 . S
C1281 C1280 1.356 . S
H1282 C1276 0.930 . S
H1283 C1277 0.930 . S
C1284 N1285 1.314 . S
C1284 C1286 1.353 . S
C1284 H1290 0.930 . S
N1285 Li1235 1.990 . S
N1285 C1284 1.314 . S
N1285 C1288 1.279 . S
C1286 C1284 1.353 . S
C1286 C1289 1.348 . S
C1286 H1318 0.929 . S
C1287 C1288 1.358 . S
C1287 C1289 1.356 . S
C1287 H1319 0.930 . S
C1288 N1285 1.279 . S
C1288 C1287 1.358 . S
C1288 H1291 0.930 . S
C1289 C1286 1.348 . S
C1289 C1287 1.356 . S
H1290 C1284 0.930 . S
H1291 C1288 0.930 . S
O1292 Li1232 1.956 . S
O1292 Li1233 1.970 . S
O1292 Li1234 1.961 . S
O1292 C1236 1.325 . S
O1293 Li1232 1.970 . S
O1293 Li1233 1.956 . S
O1293 Li1235 1.961 . S
O1293 C1242 1.325 . S
O1294 Li1232 1.961 . S
O1294 Li1234 1.956 . S
O1294 Li1235 1.970 . S
O1294 C1264 1.325 . S
O1295 Li1233 1.961 . S
O1295 Li1234 1.970 . S
O1295 Li1235 1.956 . S
O1295 C1270 1.325 . S
H1296 C1238 0.929 . S
H1297 C1239 0.930 . S
H1298 C1240 0.930 . S
H1299 C1241 0.930 . S
H1300 C1243 0.930 . S
H1301 C1245 0.929 . S
H1302 C1246 0.930 . S
H1303 C1247 0.930 . S
H1304 C1250 0.930 . S
H1305 C1253 0.929 . S
H1306 C1258 0.929 . S
H1307 C1259 0.930 . S
H1308 C1266 0.929 . S
H1309 C1267 0.930 . S
H1310 C1268 0.930 . S
H1311 C1269 0.930 . S
H1312 C1271 0.929 . S
H1313 C1272 0.930 . S
H1314 C1273 0.930 . S
H1315 C1274 0.930 . S
H1316 C1278 0.929 . S
H1317 C1280 0.930 . S
H1318 C1286 0.929 . S
H1319 C1287 0.930 . S
Li1320 N1337 1.990 . S
Li1320 O1380 1.956 . S
Li1320 O1381 1.970 . S
Li1320 O1382 1.961 . S
Li1321 N1345 1.990 . S
Li1321 O1380 1.970 . S
Li1321 O1381 1.956 . S
Li1321 O1383 1.961 . S
Li1322 N1367 1.990 . S
Li1322 O1380 1.961 . S
Li1322 O1382 1.956 . S
Li1322 O1383 1.970 . S
Li1323 N1373 1.990 . S
Li1323 O1381 1.961 . S
Li1323 O1382 1.970 . S
Li1323 O1383 1.956 . S
C1324 C1326 1.348 . S
C1324 C1327 1.356 . S
C1324 O1380 1.325 . S
N1325 C1328 1.314 . S
N1325 C1329 1.279 . S
C1326 C1324 1.348 . S
C1326 C1328 1.353 . S
C1326 H1384 0.929 . S
C1327 C1324 1.356 . S
C1327 C1329 1.358 . S
C1327 H1385 0.930 . S
C1328 N1325 1.314 . S
C1328 C1326 1.353 . S
C1328 H1386 0.930 . S
C1329 N1325 1.279 . S
C1329 C1327 1.358 . S
C1329 H1387 0.930 . S
C1330 C1333 1.348 . S
C1330 C1334 1.356 . S
C1330 O1381 1.325 . S
C1331 N1332 1.279 . S
C1331 C1334 1.358 . S
C1331 H1388 0.930 . S
N1332 C1331 1.279 . S
N1332 C1335 1.314 . S
C1333 C1330 1.348 . S
C1333 C1335 1.353 . S
C1333 H1389 0.929 . S
C1334 C1330 1.356 . S
C1334 C1331 1.358 . S
C1334 H1390 0.930 . S
C1335 N1332 1.314 . S
C1335 C1333 1.353 . S
C1335 H1391 0.930 . S
C1336 N1337 1.314 . S
C1336 C1341 1.353 . S
C1336 H1342 0.930 . S
N1337 Li1320 1.990 . S
N1337 C1336 1.314 . S
N1337 C1339 1.279 . S
C1338 C1339 1.358 . S
C1338 C1340 1.356 . S
C1338 H1392 0.930 . S
C1339 N1337 1.279 . S
C1339 C1338 1.358 . S
C1339 H1343 0.930 . S
C1340 C1338 1.356 . S
C1340 C1341 1.348 . S
C1341 C1336 1.353 . S
C1341 C1340 1.348 . S
C1341 H1393 0.929 . S
H1342 C1336 0.930 . S
H1343 C1339 0.930 . S
C1344 N1345 1.314 . S
C1344 C1346 1.353 . S
C1344 H1350 0.930 . S
N1345 Li1321 1.990 . S
N1345 C1344 1.314 . S
N1345 C1348 1.279 . S
C1346 C1344 1.353 . S
C1346 C1349 1.348 . S
C1346 H1394 0.929 . S
C1347 C1348 1.358 . S
C1347 C1349 1.356 . S
C1347 H1395 0.930 . S
C1348 N1345 1.279 . S
C1348 C1347 1.358 . S
C1348 H1351 0.930 . S
C1349 C1346 1.348 . S
C1349 C1347 1.356 . S
H1350 C1344 0.930 . S
H1351 C1348 0.930 . S
C1352 C1354 1.348 . S
C1352 C1355 1.356 . S
C1352 O1382 1.325 . S
N1353 C1356 1.314 . S
N1353 C1357 1.279 . S
C1354 C1352 1.348 . S
C1354 C1356 1.353 . S
C1354 H1396 0.929 . S
C1355 C1352 1.356 . S
C1355 C1357 1.358 . S
C1355 H1397 0.930 . S
C1356 N1353 1.314 . S
C1356 C1354 1.353 . S
C1356 H1398 0.930 . S
C1357 N1353 1.279 . S
C1357 C1355 1.358 . S
C1357 H1399 0.990 . S
C1358 C1359 1.348 . S
C1358 C1360 1.356 . S
C1358 O1383 1.325 . S
C1359 C1358 1.348 . S
C1359 C1361 1.353 . S
C1359 H1400 0.929 . S
C1360 C1358 1.356 . S
C1360 C1362 1.358 . S
C1360 H1401 0.930 . S
C1361 C1359 1.353 . S
C1361 N1363 1.314 . S
C1361 H1402 0.930 . S
C1362 C1360 1.358 . S
C1362 N1363 1.279 . S
C1362 H1403 0.930 . S
N1363 C1361 1.314 . S
N1363 C1362 1.279 . S
C1364 C1366 1.353 . S
C1364 N1367 1.314 . S
C1364 H1370 0.930 . S
C1365 N1367 1.279 . S
C1365 C1368 1.358 . S
C1365 H1371 0.930 . S
C1366 C1364 1.353 . S
C1366 C1369 1.348 . S
C1366 H1404 0.929 . S
N1367 Li1322 1.990 . S
N1367 C1364 1.314 . S
N1367 C1365 1.279 . S
C1368 C1365 1.358 . S
C1368 C1369 1.356 . S
C1368 H1405 0.930 . S
C1369 C1366 1.348 . S
C1369 C1368 1.356 . S
H1370 C1364 0.930 . S
H1371 C1365 0.930 . S
C1372 N1373 1.314 . S
C1372 C1374 1.353 . S
C1372 H1378 0.930 . S
N1373 Li1323 1.990 . S
N1373 C1372 1.314 . S
N1373 C1376 1.279 . S
C1374 C1372 1.353 . S
C1374 C1377 1.348 . S
C1374 H1406 0.929 . S
C1375 C1376 1.358 . S
C1375 C1377 1.356 . S
C1375 H1407 0.930 . S
C1376 N1373 1.279 . S
C1376 C1375 1.358 . S
C1376 H1379 0.930 . S
C1377 C1374 1.348 . S
C1377 C1375 1.356 . S
H1378 C1372 0.930 . S
H1379 C1376 0.930 . S
O1380 Li1320 1.956 . S
O1380 Li1321 1.970 . S
O1380 Li1322 1.961 . S
O1380 C1324 1.325 . S
O1381 Li1320 1.970 . S
O1381 Li1321 1.956 . S
O1381 Li1323 1.961 . S
O1381 C1330 1.325 . S
O1382 Li1320 1.961 . S
O1382 Li1322 1.956 . S
O1382 Li1323 1.970 . S
O1382 C1352 1.325 . S
O1383 Li1321 1.961 . S
O1383 Li1322 1.970 . S
O1383 Li1323 1.956 . S
O1383 C1358 1.325 . S
H1384 C1326 0.929 . S
H1385 C1327 0.930 . S
H1386 C1328 0.930 . S
H1387 C1329 0.930 . S
H1388 C1331 0.930 . S
H1389 C1333 0.929 . S
H1390 C1334 0.930 . S
H1391 C1335 0.930 . S
H1392 C1338 0.930 . S
H1393 C1341 0.929 . S
H1394 C1346 0.929 . S
H1395 C1347 0.930 . S
H1396 C1354 0.929 . S
H1397 C1355 0.930 . S
H1398 C1356 0.930 . S
H1399 C1357 0.990 . S
H1400 C1359 0.929 . S
H1401 C1360 0.930 . S
H1402 C1361 0.930 . S
H1403 C1362 0.930 . S
H1404 C1366 0.929 . S
H1405 C1368 0.930 . S
H1406 C1374 0.929 . S
H1407 C1375 0.930 . S
Li1408 N1425 1.990 . S
Li1408 O1468 1.956 . S
Li1408 O1469 1.970 . S
Li1408 O1470 1.961 . S
Li1409 N1433 1.990 . S
Li1409 O1468 1.970 . S
Li1409 O1469 1.956 . S
Li1409 O1471 1.961 . S
Li1410 N1455 1.990 . S
Li1410 O1468 1.961 . S
Li1410 O1470 1.956 . S
Li1410 O1471 1.970 . S
Li1411 N1461 1.990 . S
Li1411 O1469 1.961 . S
Li1411 O1470 1.970 . S
Li1411 O1471 1.956 . S
C1412 C1414 1.348 . S
C1412 C1415 1.356 . S
C1412 O1468 1.325 . S
N1413 C1416 1.314 . S
N1413 C1417 1.279 . S
C1414 C1412 1.348 . S
C1414 C1416 1.353 . S
C1414 H1472 0.929 . S
C1415 C1412 1.356 . S
C1415 C1417 1.358 . S
C1415 H1473 0.930 . S
C1416 N1413 1.314 . S
C1416 C1414 1.353 . S
C1416 H1474 0.930 . S
C1417 N1413 1.279 . S
C1417 C1415 1.358 . S
C1417 H1475 0.930 . S
C1418 C1421 1.348 . S
C1418 C1422 1.356 . S
C1418 O1469 1.325 . S
C1419 N1420 1.279 . S
C1419 C1422 1.358 . S
C1419 H1476 0.930 . S
N1420 C1419 1.279 . S
N1420 C1423 1.314 . S
C1421 C1418 1.348 . S
C1421 C1423 1.353 . S
C1421 H1477 0.929 . S
C1422 C1418 1.356 . S
C1422 C1419 1.358 . S
C1422 H1478 0.930 . S
C1423 N1420 1.314 . S
C1423 C1421 1.353 . S
C1423 H1479 0.930 . S
C1424 N1425 1.314 . S
C1424 C1429 1.353 . S
C1424 H1430 0.930 . S
N1425 Li1408 1.990 . S
N1425 C1424 1.314 . S
N1425 C1427 1.279 . S
C1426 C1427 1.358 . S
C1426 C1428 1.356 . S
C1426 H1480 0.930 . S
C1427 N1425 1.279 . S
C1427 C1426 1.358 . S
C1427 H1431 0.930 . S
C1428 C1426 1.356 . S
C1428 C1429 1.348 . S
C1429 C1424 1.353 . S
C1429 C1428 1.348 . S
C1429 H1481 0.929 . S
H1430 C1424 0.930 . S
H1431 C1427 0.930 . S
C1432 N1433 1.314 . S
C1432 C1434 1.353 . S
C1432 H1438 0.930 . S
N1433 Li1409 1.990 . S
N1433 C1432 1.314 . S
N1433 C1436 1.279 . S
C1434 C1432 1.353 . S
C1434 C1437 1.348 . S
C1434 H1482 0.929 . S
C1435 C1436 1.358 . S
C1435 C1437 1.356 . S
C1435 H1483 0.930 . S
C1436 N1433 1.279 . S
C1436 C1435 1.358 . S
C1436 H1439 0.930 . S
C1437 C1434 1.348 . S
C1437 C1435 1.356 . S
H1438 C1432 0.930 . S
H1439 C1436 0.930 . S
C1440 C1442 1.348 . S
C1440 C1443 1.356 . S
C1440 O1470 1.325 . S
N1441 C1444 1.314 . S
N1441 C1445 1.279 . S
C1442 C1440 1.348 . S
C1442 C1444 1.353 . S
C1442 H1484 0.929 . S
C1443 C1440 1.356 . S
C1443 C1445 1.358 . S
C1443 H1485 0.930 . S
C1444 N1441 1.314 . S
C1444 C1442 1.353 . S
C1444 H1486 0.930 . S
C1445 N1441 1.279 . S
C1445 C1443 1.358 . S
C1445 H1487 0.930 . S
C1446 C1447 1.348 . S
C1446 C1448 1.356 . S
C1446 O1471 1.325 . S
C1447 C1446 1.348 . S
C1447 C1449 1.353 . S
C1447 H1488 0.929 . S
C1448 C1446 1.356 . S
C1448 C1450 1.358 . S
C1448 H1489 0.930 . S
C1449 C1447 1.353 . S
C1449 N1451 1.314 . S
C1449 H1490 0.930 . S
C1450 C1448 1.358 . S
C1450 N1451 1.279 . S
C1450 H1491 0.930 . S
N1451 C1449 1.314 . S
N1451 C1450 1.279 . S
C1452 C1454 1.353 . S
C1452 N1455 1.314 . S
C1452 H1458 0.930 . S
C1453 N1455 1.279 . S
C1453 C1456 1.358 . S
C1453 H1459 0.930 . S
C1454 C1452 1.353 . S
C1454 C1457 1.348 . S
C1454 H1492 0.929 . S
N1455 Li1410 1.990 . S
N1455 C1452 1.314 . S
N1455 C1453 1.279 . S
C1456 C1453 1.358 . S
C1456 C1457 1.356 . S
C1456 H1493 0.930 . S
C1457 C1454 1.348 . S
C1457 C1456 1.356 . S
H1458 C1452 0.930 . S
H1459 C1453 0.930 . S
C1460 N1461 1.314 . S
C1460 C1462 1.353 . S
C1460 H1466 0.930 . S
N1461 Li1411 1.990 . S
N1461 C1460 1.314 . S
N1461 C1464 1.279 . S
C1462 C1460 1.353 . S
C1462 C1465 1.348 . S
C1462 H1494 0.929 . S
C1463 C1464 1.358 . S
C1463 C1465 1.356 . S
C1463 H1495 0.930 . S
C1464 N1461 1.279 . S
C1464 C1463 1.358 . S
C1464 H1467 0.930 . S
C1465 C1462 1.348 . S
C1465 C1463 1.356 . S
H1466 C1460 0.930 . S
H1467 C1464 0.930 . S
O1468 Li1408 1.956 . S
O1468 Li1409 1.970 . S
O1468 Li1410 1.961 . S
O1468 C1412 1.325 . S
O1469 Li1408 1.970 . S
O1469 Li1409 1.956 . S
O1469 Li1411 1.961 . S
O1469 C1418 1.325 . S
O1470 Li1408 1.961 . S
O1470 Li1410 1.956 . S
O1470 Li1411 1.970 . S
O1470 C1440 1.325 . S
O1471 Li1409 1.961 . S
O1471 Li1410 1.970 . S
O1471 Li1411 1.956 . S
O1471 C1446 1.325 . S
H1472 C1414 0.929 . S
H1473 C1415 0.930 . S
H1474 C1416 0.930 . S
H1475 C1417 0.930 . S
H1476 C1419 0.930 . S
H1477 C1421 0.929 . S
H1478 C1422 0.930 . S
H1479 C1423 0.930 . S
H1480 C1426 0.930 . S
H1481 C1429 0.929 . S
H1482 C1434 0.929 . S
H1483 C1435 0.930 . S
H1484 C1442 0.929 . S
H1485 C1443 0.930 . S
H1486 C1444 0.930 . S
H1487 C1445 0.930 . S
H1488 C1447 0.929 . S
H1489 C1448 0.930 . S
H1490 C1449 0.930 . S
H1491 C1450 0.930 . S
H1492 C1454 0.929 . S
H1493 C1456 0.930 . S
H1494 C1462 0.929 . S
H1495 C1463 0.930 . S
Li1496 N1513 1.990 . S
Li1496 O1556 1.956 . S
Li1496 O1557 1.970 . S
Li1496 O1558 1.961 . S
Li1497 N1521 1.990 . S
Li1497 O1556 1.970 . S
Li1497 O1557 1.956 . S
Li1497 O1559 1.961 . S
Li1498 N1543 1.990 . S
Li1498 O1556 1.961 . S
Li1498 O1558 1.956 . S
Li1498 O1559 1.970 . S
Li1499 N1549 1.990 . S
Li1499 O1557 1.961 . S
Li1499 O1558 1.970 . S
Li1499 O1559 1.956 . S
C1500 C1502 1.348 . S
C1500 C1503 1.356 . S
C1500 O1556 1.325 . S
N1501 C1504 1.314 . S
N1501 C1505 1.279 . S
C1502 C1500 1.348 . S
C1502 C1504 1.353 . S
C1502 H1560 0.929 . S
C1503 C1500 1.356 . S
C1503 C1505 1.358 . S
C1503 H1561 0.930 . S
C1504 N1501 1.314 . S
C1504 C1502 1.353 . S
C1504 H1562 0.930 . S
C1505 N1501 1.279 . S
C1505 C1503 1.358 . S
C1505 H1563 0.930 . S
C1506 C1509 1.348 . S
C1506 C1510 1.356 . S
C1506 O1557 1.325 . S
C1507 N1508 1.279 . S
C1507 C1510 1.358 . S
C1507 H1564 0.930 . S
N1508 C1507 1.279 . S
N1508 C1511 1.314 . S
C1509 C1506 1.348 . S
C1509 C1511 1.353 . S
C1509 H1565 0.929 . S
C1510 C1506 1.356 . S
C1510 C1507 1.358 . S
C1510 H1566 0.930 . S
C1511 N1508 1.314 . S
C1511 C1509 1.353 . S
C1511 H1567 0.930 . S
C1512 N1513 1.314 . S
C1512 C1517 1.353 . S
C1512 H1518 0.930 . S
N1513 Li1496 1.990 . S
N1513 C1512 1.314 . S
N1513 C1515 1.279 . S
C1514 C1515 1.358 . S
C1514 C1516 1.356 . S
C1514 H1568 0.930 . S
C1515 N1513 1.279 . S
C1515 C1514 1.358 . S
C1515 H1519 0.930 . S
C1516 C1514 1.356 . S
C1516 C1517 1.348 . S
C1517 C1512 1.353 . S
C1517 C1516 1.348 . S
C1517 H1569 0.929 . S
H1518 C1512 0.930 . S
H1519 C1515 0.930 . S
C1520 N1521 1.314 . S
C1520 C1522 1.353 . S
C1520 H1526 0.930 . S
N1521 Li1497 1.990 . S
N1521 C1520 1.314 . S
N1521 C1524 1.279 . S
C1522 C1520 1.353 . S
C1522 C1525 1.348 . S
C1522 H1570 0.929 . S
C1523 C1524 1.358 . S
C1523 C1525 1.356 . S
C1523 H1571 0.930 . S
C1524 N1521 1.279 . S
C1524 C1523 1.358 . S
C1524 H1527 0.930 . S
C1525 C1522 1.348 . S
C1525 C1523 1.356 . S
H1526 C1520 0.930 . S
H1527 C1524 0.930 . S
C1528 C1530 1.348 . S
C1528 C1531 1.356 . S
C1528 O1558 1.325 . S
N1529 C1532 1.314 . S
N1529 C1533 1.279 . S
C1530 C1528 1.348 . S
C1530 C1532 1.353 . S
C1530 H1572 0.929 . S
C1531 C1528 1.356 . S
C1531 C1533 1.358 . S
C1531 H1573 0.930 . S
C1532 N1529 1.314 . S
C1532 C1530 1.353 . S
C1532 H1574 0.930 . S
C1533 N1529 1.279 . S
C1533 C1531 1.358 . S
C1533 H1575 0.930 . S
C1534 C1535 1.348 . S
C1534 C1536 1.356 . S
C1534 O1559 1.325 . S
C1535 C1534 1.348 . S
C1535 C1537 1.353 . S
C1535 H1576 0.929 . S
C1536 C1534 1.356 . S
C1536 C1538 1.358 . S
C1536 H1577 0.930 . S
C1537 C1535 1.353 . S
C1537 N1539 1.314 . S
C1537 H1578 0.930 . S
C1538 C1536 1.358 . S
C1538 N1539 1.279 . S
C1538 H1579 0.930 . S
N1539 C1537 1.314 . S
N1539 C1538 1.279 . S
C1540 C1542 1.353 . S
C1540 N1543 1.314 . S
C1540 H1546 0.930 . S
C1541 N1543 1.279 . S
C1541 C1544 1.358 . S
C1541 H1547 0.930 . S
C1542 C1540 1.353 . S
C1542 C1545 1.348 . S
C1542 H1580 0.929 . S
N1543 Li1498 1.990 . S
N1543 C1540 1.314 . S
N1543 C1541 1.279 . S
C1544 C1541 1.358 . S
C1544 C1545 1.356 . S
C1544 H1581 0.930 . S
C1545 C1542 1.348 . S
C1545 C1544 1.356 . S
H1546 C1540 0.930 . S
H1547 C1541 0.930 . S
C1548 N1549 1.314 . S
C1548 C1550 1.353 . S
C1548 H1554 0.930 . S
N1549 Li1499 1.990 . S
N1549 C1548 1.314 . S
N1549 C1552 1.279 . S
C1550 C1548 1.353 . S
C1550 C1553 1.348 . S
C1550 H1582 0.929 . S
C1551 C1552 1.358 . S
C1551 C1553 1.356 . S
C1551 H1583 0.930 . S
C1552 N1549 1.279 . S
C1552 C1551 1.358 . S
C1552 H1555 0.930 . S
C1553 C1550 1.348 . S
C1553 C1551 1.356 . S
H1554 C1548 0.930 . S
H1555 C1552 0.930 . S
O1556 Li1496 1.956 . S
O1556 Li1497 1.970 . S
O1556 Li1498 1.961 . S
O1556 C1500 1.325 . S
O1557 Li1496 1.970 . S
O1557 Li1497 1.956 . S
O1557 Li1499 1.961 . S
O1557 C1506 1.325 . S
O1558 Li1496 1.961 . S
O1558 Li1498 1.956 . S
O1558 Li1499 1.970 . S
O1558 C1528 1.325 . S
O1559 Li1497 1.961 . S
O1559 Li1498 1.970 . S
O1559 Li1499 1.956 . S
O1559 C1534 1.325 . S
H1560 C1502 0.929 . S
H1561 C1503 0.930 . S
H1562 C1504 0.930 . S
H1563 C1505 0.930 . S
H1564 C1507 0.930 . S
H1565 C1509 0.929 . S
H1566 C1510 0.930 . S
H1567 C1511 0.930 . S
H1568 C1514 0.930 . S
H1569 C1517 0.929 . S
H1570 C1522 0.929 . S
H1571 C1523 0.930 . S
H1572 C1530 0.929 . S
H1573 C1531 0.930 . S
H1574 C1532 0.930 . S
H1575 C1533 0.930 . S
H1576 C1535 0.929 . S
H1577 C1536 0.930 . S
H1578 C1537 0.930 . S
H1579 C1538 0.930 . S
H1580 C1542 0.929 . S
H1581 C1544 0.930 . S
H1582 C1550 0.929 . S
H1583 C1551 0.930 . S
Li1584 N1601 1.990 . S
Li1584 O1644 1.956 . S
Li1584 O1645 1.970 . S
Li1584 O1646 1.961 . S
Li1585 N1609 1.990 . S
Li1585 O1644 1.970 . S
Li1585 O1645 1.956 . S
Li1585 O1647 1.961 . S
Li1586 N1631 1.990 . S
Li1586 O1644 1.961 . S
Li1586 O1646 1.956 . S
Li1586 O1647 1.970 . S
Li1587 N1637 1.990 . S
Li1587 O1645 1.961 . S
Li1587 O1646 1.970 . S
Li1587 O1647 1.956 . S
C1588 C1590 1.348 . S
C1588 C1591 1.356 . S
C1588 O1644 1.325 . S
N1589 C1592 1.314 . S
N1589 C1593 1.279 . S
C1590 C1588 1.348 . S
C1590 C1592 1.353 . S
C1590 H1648 0.929 . S
C1591 C1588 1.356 . S
C1591 C1593 1.358 . S
C1591 H1649 0.930 . S
C1592 N1589 1.314 . S
C1592 C1590 1.353 . S
C1592 H1650 0.930 . S
C1593 N1589 1.279 . S
C1593 C1591 1.358 . S
C1593 H1651 0.930 . S
C1594 C1597 1.348 . S
C1594 C1598 1.356 . S
C1594 O1645 1.325 . S
C1595 N1596 1.279 . S
C1595 C1598 1.358 . S
C1595 H1652 0.930 . S
N1596 C1595 1.279 . S
N1596 C1599 1.314 . S
C1597 C1594 1.348 . S
C1597 C1599 1.353 . S
C1597 H1653 0.929 . S
C1598 C1594 1.356 . S
C1598 C1595 1.358 . S
C1598 H1654 0.930 . S
C1599 N1596 1.314 . S
C1599 C1597 1.353 . S
C1599 H1655 0.930 . S
C1600 N1601 1.314 . S
C1600 C1605 1.353 . S
C1600 H1606 0.930 . S
N1601 Li1584 1.990 . S
N1601 C1600 1.314 . S
N1601 C1603 1.279 . S
C1602 C1603 1.358 . S
C1602 C1604 1.356 . S
C1602 H1656 0.930 . S
C1603 N1601 1.279 . S
C1603 C1602 1.358 . S
C1603 H1607 0.930 . S
C1604 C1602 1.356 . S
C1604 C1605 1.348 . S
C1605 C1600 1.353 . S
C1605 C1604 1.348 . S
C1605 H1657 0.929 . S
H1606 C1600 0.930 . S
H1607 C1603 0.930 . S
C1608 N1609 1.314 . S
C1608 C1610 1.353 . S
C1608 H1614 0.930 . S
N1609 Li1585 1.990 . S
N1609 C1608 1.314 . S
N1609 C1612 1.279 . S
C1610 C1608 1.353 . S
C1610 C1613 1.348 . S
C1610 H1658 0.929 . S
C1611 C1612 1.358 . S
C1611 C1613 1.356 . S
C1611 H1659 0.930 . S
C1612 N1609 1.279 . S
C1612 C1611 1.358 . S
C1612 H1615 0.930 . S
C1613 C1610 1.348 . S
C1613 C1611 1.356 . S
H1614 C1608 0.930 . S
H1615 C1612 0.930 . S
C1616 C1618 1.348 . S
C1616 C1619 1.356 . S
C1616 O1646 1.325 . S
N1617 C1620 1.314 . S
N1617 C1621 1.279 . S
C1618 C1616 1.348 . S
C1618 C1620 1.353 . S
C1618 H1660 0.929 . S
C1619 C1616 1.356 . S
C1619 C1621 1.358 . S
C1619 H1661 0.930 . S
C1620 N1617 1.314 . S
C1620 C1618 1.353 . S
C1620 H1662 0.930 . S
C1621 N1617 1.279 . S
C1621 C1619 1.358 . S
C1621 H1663 0.930 . S
C1622 C1623 1.348 . S
C1622 C1624 1.356 . S
C1622 O1647 1.325 . S
C1623 C1622 1.348 . S
C1623 C1625 1.353 . S
C1623 H1664 0.929 . S
C1624 C1622 1.356 . S
C1624 C1626 1.358 . S
C1624 H1665 0.930 . S
C1625 C1623 1.353 . S
C1625 N1627 1.314 . S
C1625 H1666 0.930 . S
C1626 C1624 1.358 . S
C1626 N1627 1.279 . S
C1626 H1667 0.930 . S
N1627 C1625 1.314 . S
N1627 C1626 1.279 . S
C1628 C1630 1.353 . S
C1628 N1631 1.314 . S
C1628 H1634 0.930 . S
C1629 N1631 1.279 . S
C1629 C1632 1.358 . S
C1629 H1635 0.930 . S
C1630 C1628 1.353 . S
C1630 C1633 1.348 . S
C1630 H1668 0.929 . S
N1631 Li1586 1.990 . S
N1631 C1628 1.314 . S
N1631 C1629 1.279 . S
C1632 C1629 1.358 . S
C1632 C1633 1.356 . S
C1632 H1669 0.930 . S
C1633 C1630 1.348 . S
C1633 C1632 1.356 . S
H1634 C1628 0.930 . S
H1635 C1629 0.930 . S
C1636 N1637 1.314 . S
C1636 C1638 1.353 . S
C1636 H1642 0.930 . S
N1637 Li1587 1.990 . S
N1637 C1636 1.314 . S
N1637 C1640 1.279 . S
C1638 C1636 1.353 . S
C1638 C1641 1.348 . S
C1638 H1670 0.929 . S
C1639 C1640 1.358 . S
C1639 C1641 1.356 . S
C1639 H1671 0.930 . S
C1640 N1637 1.279 . S
C1640 C1639 1.358 . S
C1640 H1643 0.930 . S
C1641 C1638 1.348 . S
C1641 C1639 1.356 . S
H1642 C1636 0.930 . S
H1643 C1640 0.930 . S
O1644 Li1584 1.956 . S
O1644 Li1585 1.970 . S
O1644 Li1586 1.961 . S
O1644 C1588 1.325 . S
O1645 Li1584 1.970 . S
O1645 Li1585 1.956 . S
O1645 Li1587 1.961 . S
O1645 C1594 1.325 . S
O1646 Li1584 1.961 . S
O1646 Li1586 1.956 . S
O1646 Li1587 1.970 . S
O1646 C1616 1.325 . S
O1647 Li1585 1.961 . S
O1647 Li1586 1.970 . S
O1647 Li1587 1.956 . S
O1647 C1622 1.325 . S
H1648 C1590 0.929 . S
H1649 C1591 0.930 . S
H1650 C1592 0.930 . S
H1651 C1593 0.930 . S
H1652 C1595 0.930 . S
H1653 C1597 0.929 . S
H1654 C1598 0.930 . S
H1655 C1599 0.930 . S
H1656 C1602 0.930 . S
H1657 C1605 0.929 . S
H1658 C1610 0.929 . S
H1659 C1611 0.930 . S
H1660 C1618 0.929 . S
H1661 C1619 0.930 . S
H1662 C1620 0.930 . S
H1663 C1621 0.930 . S
H1664 C1623 0.929 . S
H1665 C1624 0.930 . S
H1666 C1625 0.930 . S
H1667 C1626 0.930 . S
H1668 C1630 0.929 . S
H1669 C1632 0.930 . S
H1670 C1638 0.929 . S
H1671 C1639 0.930 . S
Li1672 N1689 1.990 . S
Li1672 O1732 1.956 . S
Li1672 O1733 1.970 . S
Li1672 O1734 1.961 . S
Li1673 N1697 1.990 . S
Li1673 O1732 1.970 . S
Li1673 O1733 1.956 . S
Li1673 O1735 1.961 . S
Li1674 N1719 1.990 . S
Li1674 O1732 1.961 . S
Li1674 O1734 1.956 . S
Li1674 O1735 1.970 . S
Li1675 N1725 1.990 . S
Li1675 O1733 1.961 . S
Li1675 O1734 1.970 . S
Li1675 O1735 1.956 . S
C1676 C1678 1.348 . S
C1676 C1679 1.356 . S
C1676 O1732 1.325 . S
N1677 C1680 1.314 . S
N1677 C1681 1.279 . S
C1678 C1676 1.348 . S
C1678 C1680 1.353 . S
C1678 H1736 0.929 . S
C1679 C1676 1.356 . S
C1679 C1681 1.358 . S
C1679 H1737 0.930 . S
C1680 N1677 1.314 . S
C1680 C1678 1.353 . S
C1680 H1738 0.930 . S
C1681 N1677 1.279 . S
C1681 C1679 1.358 . S
C1681 H1739 0.930 1_655 S
C1682 C1685 1.348 . S
C1682 C1686 1.356 . S
C1682 O1733 1.325 . S
C1683 N1684 1.279 . S
C1683 C1686 1.358 . S
C1683 H1740 0.930 . S
N1684 C1683 1.279 . S
N1684 C1687 1.314 . S
C1685 C1682 1.348 . S
C1685 C1687 1.353 . S
C1685 H1741 0.929 . S
C1686 C1682 1.356 . S
C1686 C1683 1.358 . S
C1686 H1742 0.930 . S
C1687 N1684 1.314 . S
C1687 C1685 1.353 . S
C1687 H1743 0.930 . S
C1688 N1689 1.314 . S
C1688 C1693 1.353 . S
C1688 H1694 0.930 . S
N1689 Li1672 1.990 . S
N1689 C1688 1.314 . S
N1689 C1691 1.279 . S
C1690 C1691 1.358 . S
C1690 C1692 1.356 . S
C1690 H1744 0.930 . S
C1691 N1689 1.279 . S
C1691 C1690 1.358 . S
C1691 H1695 0.930 . S
C1692 C1690 1.356 . S
C1692 C1693 1.348 . S
C1693 C1688 1.353 . S
C1693 C1692 1.348 . S
C1693 H1745 0.929 . S
H1694 C1688 0.930 . S
H1695 C1691 0.930 . S
C1696 N1697 1.314 . S
C1696 C1698 1.353 . S
C1696 H1702 0.930 . S
N1697 Li1673 1.990 . S
N1697 C1696 1.314 . S
N1697 C1700 1.279 . S
C1698 C1696 1.353 . S
C1698 C1701 1.348 . S
C1698 H1746 0.929 . S
C1699 C1700 1.358 . S
C1699 C1701 1.356 . S
C1699 H1747 0.930 . S
C1700 N1697 1.279 . S
C1700 C1699 1.358 . S
C1700 H1703 0.930 . S
C1701 C1698 1.348 . S
C1701 C1699 1.356 . S
H1702 C1696 0.930 . S
H1703 C1700 0.930 . S
C1704 C1706 1.348 . S
C1704 C1707 1.356 . S
C1704 O1734 1.325 . S
N1705 C1708 1.314 . S
N1705 C1709 1.279 . S
C1706 C1704 1.348 . S
C1706 C1708 1.353 . S
C1706 H1748 0.929 . S
C1707 C1704 1.356 . S
C1707 C1709 1.358 . S
C1707 H1749 0.930 . S
C1708 N1705 1.314 . S
C1708 C1706 1.353 . S
C1708 H1750 0.930 . S
C1709 N1705 1.279 . S
C1709 C1707 1.358 . S
C1709 H1751 0.930 . S
C1710 C1711 1.348 . S
C1710 C1712 1.356 . S
C1710 O1735 1.325 . S
C1711 C1710 1.348 . S
C1711 C1713 1.353 . S
C1711 H1752 0.929 . S
C1712 C1710 1.356 . S
C1712 C1714 1.358 . S
C1712 H1753 0.930 . S
C1713 C1711 1.353 . S
C1713 N1715 1.314 . S
C1713 H1754 0.930 . S
C1714 C1712 1.358 . S
C1714 N1715 1.279 . S
C1714 H1755 0.930 . S
N1715 C1713 1.314 . S
N1715 C1714 1.279 . S
C1716 C1718 1.353 . S
C1716 N1719 1.314 . S
C1716 H1722 0.930 . S
C1717 N1719 1.279 . S
C1717 C1720 1.358 . S
C1717 H1723 0.930 . S
C1718 C1716 1.353 . S
C1718 C1721 1.348 . S
C1718 H1756 0.929 . S
N1719 Li1674 1.990 . S
N1719 C1716 1.314 . S
N1719 C1717 1.279 . S
C1720 C1717 1.358 . S
C1720 C1721 1.356 . S
C1720 H1757 0.930 . S
C1721 C1718 1.348 . S
C1721 C1720 1.356 . S
H1722 C1716 0.930 . S
H1723 C1717 0.930 . S
C1724 N1725 1.314 . S
C1724 C1726 1.353 . S
C1724 H1730 0.930 . S
N1725 Li1675 1.990 . S
N1725 C1724 1.314 . S
N1725 C1728 1.279 . S
C1726 C1724 1.353 . S
C1726 C1729 1.348 . S
C1726 H1758 0.929 . S
C1727 C1728 1.358 . S
C1727 C1729 1.356 . S
C1727 H1759 0.930 . S
C1728 N1725 1.279 . S
C1728 C1727 1.358 . S
C1728 H1731 0.930 . S
C1729 C1726 1.348 . S
C1729 C1727 1.356 . S
H1730 C1724 0.930 . S
H1731 C1728 0.930 . S
O1732 Li1672 1.956 . S
O1732 Li1673 1.970 . S
O1732 Li1674 1.961 . S
O1732 C1676 1.325 . S
O1733 Li1672 1.970 . S
O1733 Li1673 1.956 . S
O1733 Li1675 1.961 . S
O1733 C1682 1.325 . S
O1734 Li1672 1.961 . S
O1734 Li1674 1.956 . S
O1734 Li1675 1.970 . S
O1734 C1704 1.325 . S
O1735 Li1673 1.961 . S
O1735 Li1674 1.970 . S
O1735 Li1675 1.956 . S
O1735 C1710 1.325 . S
H1736 C1678 0.929 . S
H1737 C1679 0.930 . S
H1738 C1680 0.930 . S
H1739 C1681 0.930 1_455 S
H1740 C1683 0.930 . S
H1741 C1685 0.929 . S
H1742 C1686 0.930 . S
H1743 C1687 0.930 . S
H1744 C1690 0.930 . S
H1745 C1693 0.929 . S
H1746 C1698 0.929 . S
H1747 C1699 0.930 . S
H1748 C1706 0.929 . S
H1749 C1707 0.930 . S
H1750 C1708 0.930 . S
H1751 C1709 0.930 . S
H1752 C1711 0.929 . S
H1753 C1712 0.930 . S
H1754 C1713 0.930 . S
H1755 C1714 0.930 . S
H1756 C1718 0.929 . S
H1757 C1720 0.930 . S
H1758 C1726 0.929 . S
H1759 C1727 0.930 . S
Li1760 N1777 1.990 . S
Li1760 O1820 1.956 . S
Li1760 O1821 1.970 . S
Li1760 O1822 1.961 . S
Li1761 N1785 1.990 . S
Li1761 O1820 1.970 . S
Li1761 O1821 1.956 . S
Li1761 O1823 1.961 . S
Li1762 N1807 1.990 . S
Li1762 O1820 1.961 . S
Li1762 O1822 1.956 . S
Li1762 O1823 1.970 . S
Li1763 N1813 1.990 . S
Li1763 O1821 1.961 . S
Li1763 O1822 1.970 . S
Li1763 O1823 1.956 . S
C1764 C1766 1.348 . S
C1764 C1767 1.356 . S
C1764 O1820 1.325 . S
N1765 C1768 1.314 . S
N1765 C1769 1.279 . S
C1766 C1764 1.348 . S
C1766 C1768 1.353 . S
C1766 H1824 0.929 . S
C1767 C1764 1.356 . S
C1767 C1769 1.358 . S
C1767 H1825 0.930 . S
C1768 N1765 1.314 . S
C1768 C1766 1.353 . S
C1768 H1826 0.930 . S
C1769 N1765 1.279 . S
C1769 C1767 1.358 . S
C1769 H1827 0.930 . S
C1770 C1773 1.348 . S
C1770 C1774 1.356 . S
C1770 O1821 1.325 . S
C1771 N1772 1.279 . S
C1771 C1774 1.358 . S
C1771 H1828 0.930 . S
N1772 C1771 1.279 . S
N1772 C1775 1.314 . S
C1773 C1770 1.348 . S
C1773 C1775 1.353 . S
C1773 H1829 0.929 . S
C1774 C1770 1.356 . S
C1774 C1771 1.358 . S
C1774 H1830 0.930 . S
C1775 N1772 1.314 . S
C1775 C1773 1.353 . S
C1775 H1831 0.930 . S
C1776 N1777 1.314 . S
C1776 C1781 1.353 . S
C1776 H1782 0.930 . S
N1777 Li1760 1.990 . S
N1777 C1776 1.314 . S
N1777 C1779 1.279 . S
C1778 C1779 1.358 . S
C1778 C1780 1.356 . S
C1778 H1832 0.930 . S
C1779 N1777 1.279 . S
C1779 C1778 1.358 . S
C1779 H1783 0.930 . S
C1780 C1778 1.356 . S
C1780 C1781 1.348 . S
C1781 C1776 1.353 . S
C1781 C1780 1.348 . S
C1781 H1833 0.929 . S
H1782 C1776 0.930 . S
H1783 C1779 0.930 . S
C1784 N1785 1.314 . S
C1784 C1786 1.353 . S
C1784 H1790 0.930 . S
N1785 Li1761 1.990 . S
N1785 C1784 1.314 . S
N1785 C1788 1.279 . S
C1786 C1784 1.353 . S
C1786 C1789 1.348 . S
C1786 H1834 0.929 . S
C1787 C1788 1.358 . S
C1787 C1789 1.356 . S
C1787 H1835 0.930 . S
C1788 N1785 1.279 . S
C1788 C1787 1.358 . S
C1788 H1791 0.930 . S
C1789 C1786 1.348 . S
C1789 C1787 1.356 . S
H1790 C1784 0.930 . S
H1791 C1788 0.930 . S
C1792 C1794 1.348 . S
C1792 C1795 1.356 . S
C1792 O1822 1.325 . S
N1793 C1796 1.314 . S
N1793 C1797 1.279 . S
C1794 C1792 1.348 . S
C1794 C1796 1.353 . S
C1794 H1836 0.929 . S
C1795 C1792 1.356 . S
C1795 C1797 1.358 . S
C1795 H1837 0.930 . S
C1796 N1793 1.314 . S
C1796 C1794 1.353 . S
C1796 H1838 0.930 . S
C1797 N1793 1.279 . S
C1797 C1795 1.358 . S
C1797 H1839 0.930 . S
C1798 C1799 1.348 . S
C1798 C1800 1.356 . S
C1798 O1823 1.325 . S
C1799 C1798 1.348 . S
C1799 C1801 1.353 . S
C1799 H1840 0.929 . S
C1800 C1798 1.356 . S
C1800 C1802 1.358 . S
C1800 H1841 0.930 . S
C1801 C1799 1.353 . S
C1801 N1803 1.314 . S
C1801 H1842 0.930 . S
C1802 C1800 1.358 . S
C1802 N1803 1.279 . S
C1802 H1843 0.930 . S
N1803 C1801 1.314 . S
N1803 C1802 1.279 . S
C1804 C1806 1.353 . S
C1804 N1807 1.314 . S
C1804 H1810 0.930 . S
C1805 N1807 1.279 . S
C1805 C1808 1.358 . S
C1805 H1811 0.930 . S
C1806 C1804 1.353 . S
C1806 C1809 1.348 . S
C1806 H1844 0.929 . S
N1807 Li1762 1.990 . S
N1807 C1804 1.314 . S
N1807 C1805 1.279 . S
C1808 C1805 1.358 . S
C1808 C1809 1.356 . S
C1808 H1845 0.930 . S
C1809 C1806 1.348 . S
C1809 C1808 1.356 . S
H1810 C1804 0.930 . S
H1811 C1805 0.930 . S
C1812 N1813 1.314 . S
C1812 C1814 1.353 . S
C1812 H1818 0.930 . S
N1813 Li1763 1.990 . S
N1813 C1812 1.314 . S
N1813 C1816 1.279 . S
C1814 C1812 1.353 . S
C1814 C1817 1.348 . S
C1814 H1846 0.929 . S
C1815 C1816 1.358 . S
C1815 C1817 1.356 . S
C1815 H1847 0.930 . S
C1816 N1813 1.279 . S
C1816 C1815 1.358 . S
C1816 H1819 0.930 . S
C1817 C1814 1.348 . S
C1817 C1815 1.356 . S
H1818 C1812 0.930 . S
H1819 C1816 0.930 . S
O1820 Li1760 1.956 . S
O1820 Li1761 1.970 . S
O1820 Li1762 1.961 . S
O1820 C1764 1.325 . S
O1821 Li1760 1.970 . S
O1821 Li1761 1.956 . S
O1821 Li1763 1.961 . S
O1821 C1770 1.325 . S
O1822 Li1760 1.961 . S
O1822 Li1762 1.956 . S
O1822 Li1763 1.970 . S
O1822 C1792 1.325 . S
O1823 Li1761 1.961 . S
O1823 Li1762 1.970 . S
O1823 Li1763 1.956 . S
O1823 C1798 1.325 . S
H1824 C1766 0.929 . S
H1825 C1767 0.930 . S
H1826 C1768 0.930 . S
H1827 C1769 0.930 . S
H1828 C1771 0.930 . S
H1829 C1773 0.929 . S
H1830 C1774 0.930 . S
H1831 C1775 0.930 . S
H1832 C1778 0.930 . S
H1833 C1781 0.929 . S
H1834 C1786 0.929 . S
H1835 C1787 0.930 . S
H1836 C1794 0.929 . S
H1837 C1795 0.930 . S
H1838 C1796 0.930 . S
H1839 C1797 0.930 . S
H1840 C1799 0.929 . S
H1841 C1800 0.930 . S
H1842 C1801 0.930 . S
H1843 C1802 0.930 . S
H1844 C1806 0.929 . S
H1845 C1808 0.930 . S
H1846 C1814 0.929 . S
H1847 C1815 0.930 . S
Li1848 N1865 1.990 . S
Li1848 O1908 1.956 . S
Li1848 O1909 1.970 . S
Li1848 O1910 1.961 . S
Li1849 N1873 1.990 . S
Li1849 O1908 1.970 . S
Li1849 O1909 1.956 . S
Li1849 O1911 1.961 . S
Li1850 N1895 1.990 . S
Li1850 O1908 1.961 . S
Li1850 O1910 1.956 . S
Li1850 O1911 1.970 . S
Li1851 N1901 1.990 . S
Li1851 O1909 1.961 . S
Li1851 O1910 1.970 . S
Li1851 O1911 1.956 . S
C1852 C1854 1.348 . S
C1852 C1855 1.356 . S
C1852 O1908 1.325 . S
N1853 C1856 1.314 . S
N1853 C1857 1.279 . S
C1854 C1852 1.348 . S
C1854 C1856 1.353 . S
C1854 H1912 0.929 . S
C1855 C1852 1.356 . S
C1855 C1857 1.358 . S
C1855 H1913 0.930 . S
C1856 N1853 1.314 . S
C1856 C1854 1.353 . S
C1856 H1914 0.930 . S
C1857 N1853 1.279 . S
C1857 C1855 1.358 . S
C1857 H1915 0.930 . S
C1858 C1861 1.348 . S
C1858 C1862 1.356 . S
C1858 O1909 1.325 . S
C1859 N1860 1.279 . S
C1859 C1862 1.358 . S
C1859 H1916 0.930 . S
N1860 C1859 1.279 . S
N1860 C1863 1.314 . S
C1861 C1858 1.348 . S
C1861 C1863 1.353 . S
C1861 H1917 0.929 . S
C1862 C1858 1.356 . S
C1862 C1859 1.358 . S
C1862 H1918 0.930 . S
C1863 N1860 1.314 . S
C1863 C1861 1.353 . S
C1863 H1919 0.930 . S
C1864 N1865 1.314 . S
C1864 C1869 1.353 . S
C1864 H1870 0.930 . S
N1865 Li1848 1.990 . S
N1865 C1864 1.314 . S
N1865 C1867 1.279 . S
C1866 C1867 1.358 . S
C1866 C1868 1.356 . S
C1866 H1920 0.930 . S
C1867 N1865 1.279 . S
C1867 C1866 1.358 . S
C1867 H1871 0.930 . S
C1868 C1866 1.356 . S
C1868 C1869 1.348 . S
C1869 C1864 1.353 . S
C1869 C1868 1.348 . S
C1869 H1921 0.929 . S
H1870 C1864 0.930 . S
H1871 C1867 0.930 . S
C1872 N1873 1.314 . S
C1872 C1874 1.353 . S
C1872 H1878 0.930 . S
N1873 Li1849 1.990 . S
N1873 C1872 1.314 . S
N1873 C1876 1.279 . S
C1874 C1872 1.353 . S
C1874 C1877 1.348 . S
C1874 H1922 0.929 . S
C1875 C1876 1.358 . S
C1875 C1877 1.356 . S
C1875 H1923 0.930 . S
C1876 N1873 1.279 . S
C1876 C1875 1.358 . S
C1876 H1879 0.930 . S
C1877 C1874 1.348 . S
C1877 C1875 1.356 . S
H1878 C1872 0.930 . S
H1879 C1876 0.930 . S
C1880 C1882 1.348 . S
C1880 C1883 1.356 . S
C1880 O1910 1.325 . S
N1881 C1884 1.314 . S
N1881 C1885 1.279 . S
C1882 C1880 1.348 . S
C1882 C1884 1.353 . S
C1882 H1924 0.929 . S
C1883 C1880 1.356 . S
C1883 C1885 1.358 . S
C1883 H1925 0.930 . S
C1884 N1881 1.314 . S
C1884 C1882 1.353 . S
C1884 H1926 0.930 . S
C1885 N1881 1.279 . S
C1885 C1883 1.358 . S
C1885 H1927 0.930 . S
C1886 C1887 1.348 . S
C1886 C1888 1.356 . S
C1886 O1911 1.325 . S
C1887 C1886 1.348 . S
C1887 C1889 1.353 . S
C1887 H1928 0.929 . S
C1888 C1886 1.356 . S
C1888 C1890 1.358 . S
C1888 H1929 0.930 . S
C1889 C1887 1.353 . S
C1889 N1891 1.314 . S
C1889 H1930 0.930 . S
C1890 C1888 1.358 . S
C1890 N1891 1.279 . S
C1890 H1931 0.930 . S
N1891 C1889 1.314 . S
N1891 C1890 1.279 . S
C1892 C1894 1.353 . S
C1892 N1895 1.314 . S
C1892 H1898 0.930 . S
C1893 N1895 1.279 . S
C1893 C1896 1.358 . S
C1893 H1899 0.930 . S
C1894 C1892 1.353 . S
C1894 C1897 1.348 . S
C1894 H1932 0.929 . S
N1895 Li1850 1.990 . S
N1895 C1892 1.314 . S
N1895 C1893 1.279 . S
C1896 C1893 1.358 . S
C1896 C1897 1.356 . S
C1896 H1933 0.930 . S
C1897 C1894 1.348 . S
C1897 C1896 1.356 . S
H1898 C1892 0.930 . S
H1899 C1893 0.930 . S
C1900 N1901 1.314 . S
C1900 C1902 1.353 . S
C1900 H1906 0.930 . S
N1901 Li1851 1.990 . S
N1901 C1900 1.314 . S
N1901 C1904 1.279 . S
C1902 C1900 1.353 . S
C1902 C1905 1.348 . S
C1902 H1934 0.929 . S
C1903 C1904 1.358 . S
C1903 C1905 1.356 . S
C1903 H1935 0.930 . S
C1904 N1901 1.279 . S
C1904 C1903 1.358 . S
C1904 H1907 0.930 . S
C1905 C1902 1.348 . S
C1905 C1903 1.356 . S
H1906 C1900 0.930 . S
H1907 C1904 0.930 . S
O1908 Li1848 1.956 . S
O1908 Li1849 1.970 . S
O1908 Li1850 1.961 . S
O1908 C1852 1.325 . S
O1909 Li1848 1.970 . S
O1909 Li1849 1.956 . S
O1909 Li1851 1.961 . S
O1909 C1858 1.325 . S
O1910 Li1848 1.961 . S
O1910 Li1850 1.956 . S
O1910 Li1851 1.970 . S
O1910 C1880 1.325 . S
O1911 Li1849 1.961 . S
O1911 Li1850 1.970 . S
O1911 Li1851 1.956 . S
O1911 C1886 1.325 . S
H1912 C1854 0.929 . S
H1913 C1855 0.930 . S
H1914 C1856 0.930 . S
H1915 C1857 0.930 . S
H1916 C1859 0.930 . S
H1917 C1861 0.929 . S
H1918 C1862 0.930 . S
H1919 C1863 0.930 . S
H1920 C1866 0.930 . S
H1921 C1869 0.929 . S
H1922 C1874 0.929 . S
H1923 C1875 0.930 . S
H1924 C1882 0.929 . S
H1925 C1883 0.930 . S
H1926 C1884 0.930 . S
H1927 C1885 0.930 . S
H1928 C1887 0.929 . S
H1929 C1888 0.930 . S
H1930 C1889 0.930 . S
H1931 C1890 0.930 . S
H1932 C1894 0.929 . S
H1933 C1896 0.930 . S
H1934 C1902 0.929 . S
H1935 C1903 0.930 . S
Li1936 N1953 1.990 . S
Li1936 O1996 1.956 . S
Li1936 O1997 1.970 . S
Li1936 O1998 1.961 . S
Li1937 N1961 1.990 . S
Li1937 O1996 1.970 . S
Li1937 O1997 1.956 . S
Li1937 O1999 1.961 . S
Li1938 N1983 1.990 . S
Li1938 O1996 1.961 . S
Li1938 O1998 1.956 . S
Li1938 O1999 1.970 . S
Li1939 N1989 1.990 . S
Li1939 O1997 1.961 . S
Li1939 O1998 1.970 . S
Li1939 O1999 1.956 . S
C1940 C1942 1.348 . S
C1940 C1943 1.356 . S
C1940 O1996 1.325 . S
N1941 C1944 1.314 . S
N1941 C1945 1.279 . S
C1942 C1940 1.348 . S
C1942 C1944 1.353 . S
C1942 H2000 0.929 . S
C1943 C1940 1.356 . S
C1943 C1945 1.358 . S
C1943 H2001 0.930 . S
C1944 N1941 1.314 . S
C1944 C1942 1.353 . S
C1944 H2002 0.930 . S
C1945 N1941 1.279 . S
C1945 C1943 1.358 . S
C1945 H2003 0.930 . S
C1946 C1949 1.348 . S
C1946 C1950 1.356 . S
C1946 O1997 1.325 . S
C1947 N1948 1.279 . S
C1947 C1950 1.358 . S
C1947 H2004 0.930 . S
N1948 C1947 1.279 . S
N1948 C1951 1.314 . S
C1949 C1946 1.348 . S
C1949 C1951 1.353 . S
C1949 H2005 0.929 . S
C1950 C1946 1.356 . S
C1950 C1947 1.358 . S
C1950 H2006 0.930 . S
C1951 N1948 1.314 . S
C1951 C1949 1.353 . S
C1951 H2007 0.930 . S
C1952 N1953 1.314 . S
C1952 C1957 1.353 . S
C1952 H1958 0.930 . S
N1953 Li1936 1.990 . S
N1953 C1952 1.314 . S
N1953 C1955 1.279 . S
C1954 C1955 1.358 . S
C1954 C1956 1.356 . S
C1954 H2008 0.930 . S
C1955 N1953 1.279 . S
C1955 C1954 1.358 . S
C1955 H1959 0.930 . S
C1956 C1954 1.356 . S
C1956 C1957 1.348 . S
C1957 C1952 1.353 . S
C1957 C1956 1.348 . S
C1957 H2009 0.929 . S
H1958 C1952 0.930 . S
H1959 C1955 0.930 . S
C1960 N1961 1.314 . S
C1960 C1962 1.353 . S
C1960 H1966 0.930 . S
N1961 Li1937 1.990 . S
N1961 C1960 1.314 . S
N1961 C1964 1.279 . S
C1962 C1960 1.353 . S
C1962 C1965 1.348 . S
C1962 H2010 0.929 . S
C1963 C1964 1.358 . S
C1963 C1965 1.356 . S
C1963 H2011 0.930 . S
C1964 N1961 1.279 . S
C1964 C1963 1.358 . S
C1964 H1967 0.930 . S
C1965 C1962 1.348 . S
C1965 C1963 1.356 . S
H1966 C1960 0.930 . S
H1967 C1964 0.930 . S
C1968 C1970 1.348 . S
C1968 C1971 1.356 . S
C1968 O1998 1.325 . S
N1969 C1972 1.314 . S
N1969 C1973 1.279 . S
C1970 C1968 1.348 . S
C1970 C1972 1.353 . S
C1970 H2012 0.929 . S
C1971 C1968 1.356 . S
C1971 C1973 1.358 . S
C1971 H2013 0.930 . S
C1972 N1969 1.314 . S
C1972 C1970 1.353 . S
C1972 H2014 0.930 . S
C1973 N1969 1.279 . S
C1973 C1971 1.358 . S
C1973 H2015 0.930 . S
C1974 C1975 1.348 . S
C1974 C1976 1.356 . S
C1974 O1999 1.325 . S
C1975 C1974 1.348 . S
C1975 C1977 1.353 . S
C1975 H2016 0.929 . S
C1976 C1974 1.356 . S
C1976 C1978 1.358 . S
C1976 H2017 0.930 . S
C1977 C1975 1.353 . S
C1977 N1979 1.314 . S
C1977 H2018 0.930 . S
C1978 C1976 1.358 . S
C1978 N1979 1.279 . S
C1978 H2019 0.930 . S
N1979 C1977 1.314 . S
N1979 C1978 1.279 . S
C1980 C1982 1.353 . S
C1980 N1983 1.314 . S
C1980 H1986 0.930 . S
C1981 N1983 1.279 . S
C1981 C1984 1.358 . S
C1981 H1987 0.930 . S
C1982 C1980 1.353 . S
C1982 C1985 1.348 . S
C1982 H2020 0.929 . S
N1983 Li1938 1.990 . S
N1983 C1980 1.314 . S
N1983 C1981 1.279 . S
C1984 C1981 1.358 . S
C1984 C1985 1.356 . S
C1984 H2021 0.930 . S
C1985 C1982 1.348 . S
C1985 C1984 1.356 . S
H1986 C1980 0.930 . S
H1987 C1981 0.930 . S
C1988 N1989 1.314 . S
C1988 C1990 1.353 . S
C1988 H1994 0.930 . S
N1989 Li1939 1.990 . S
N1989 C1988 1.314 . S
N1989 C1992 1.279 . S
C1990 C1988 1.353 . S
C1990 C1993 1.348 . S
C1990 H2022 0.929 . S
C1991 C1992 1.358 . S
C1991 C1993 1.356 . S
C1991 H2023 0.930 . S
C1992 N1989 1.279 . S
C1992 C1991 1.358 . S
C1992 H1995 0.930 . S
C1993 C1990 1.348 . S
C1993 C1991 1.356 . S
H1994 C1988 0.930 . S
H1995 C1992 0.930 . S
O1996 Li1936 1.956 . S
O1996 Li1937 1.970 . S
O1996 Li1938 1.961 . S
O1996 C1940 1.325 . S
O1997 Li1936 1.970 . S
O1997 Li1937 1.956 . S
O1997 Li1939 1.961 . S
O1997 C1946 1.325 . S
O1998 Li1936 1.961 . S
O1998 Li1938 1.956 . S
O1998 Li1939 1.970 . S
O1998 C1968 1.325 . S
O1999 Li1937 1.961 . S
O1999 Li1938 1.970 . S
O1999 Li1939 1.956 . S
O1999 C1974 1.325 . S
H2000 C1942 0.929 . S
H2001 C1943 0.930 . S
H2002 C1944 0.930 . S
H2003 C1945 0.930 . S
H2004 C1947 0.930 . S
H2005 C1949 0.929 . S
H2006 C1950 0.930 . S
H2007 C1951 0.930 . S
H2008 C1954 0.930 . S
H2009 C1957 0.929 . S
H2010 C1962 0.929 . S
H2011 C1963 0.930 . S
H2012 C1970 0.929 . S
H2013 C1971 0.930 . S
H2014 C1972 0.930 . S
H2015 C1973 0.930 . S
H2016 C1975 0.929 . S
H2017 C1976 0.930 . S
H2018 C1977 0.930 . S
H2019 C1978 0.930 . S
H2020 C1982 0.929 . S
H2021 C1984 0.930 . S
H2022 C1990 0.929 . S
H2023 C1991 0.930 . S
Li2024 N2041 1.990 . S
Li2024 O2084 1.956 . S
Li2024 O2085 1.970 . S
Li2024 O2086 1.961 . S
Li2025 N2049 1.990 . S
Li2025 O2084 1.970 . S
Li2025 O2085 1.956 . S
Li2025 O2087 1.961 . S
Li2026 N2071 1.990 . S
Li2026 O2084 1.961 . S
Li2026 O2086 1.956 . S
Li2026 O2087 1.970 . S
Li2027 N2077 1.990 . S
Li2027 O2085 1.961 . S
Li2027 O2086 1.970 . S
Li2027 O2087 1.956 . S
C2028 C2030 1.348 . S
C2028 C2031 1.356 . S
C2028 O2084 1.325 . S
N2029 C2032 1.314 . S
N2029 C2033 1.279 . S
C2030 C2028 1.348 . S
C2030 C2032 1.353 . S
C2030 H2088 0.929 . S
C2031 C2028 1.356 . S
C2031 C2033 1.358 . S
C2031 H2089 0.930 . S
C2032 N2029 1.314 . S
C2032 C2030 1.353 . S
C2032 H2090 0.930 . S
C2033 N2029 1.279 . S
C2033 C2031 1.358 . S
C2033 H2091 0.930 . S
C2034 C2037 1.348 . S
C2034 C2038 1.356 . S
C2034 O2085 1.325 . S
C2035 N2036 1.279 . S
C2035 C2038 1.358 . S
C2035 H2092 0.930 . S
N2036 C2035 1.279 . S
N2036 C2039 1.314 . S
C2037 C2034 1.348 . S
C2037 C2039 1.353 . S
C2037 H2093 0.929 . S
C2038 C2034 1.356 . S
C2038 C2035 1.358 . S
C2038 H2094 0.930 . S
C2039 N2036 1.314 . S
C2039 C2037 1.353 . S
C2039 H2095 0.930 . S
C2040 N2041 1.314 . S
C2040 C2045 1.353 . S
C2040 H2046 0.930 . S
N2041 Li2024 1.990 . S
N2041 C2040 1.314 . S
N2041 C2043 1.279 . S
C2042 C2043 1.358 . S
C2042 C2044 1.356 . S
C2042 H2096 0.930 . S
C2043 N2041 1.279 . S
C2043 C2042 1.358 . S
C2043 H2047 0.930 . S
C2044 C2042 1.356 . S
C2044 C2045 1.348 . S
C2045 C2040 1.353 . S
C2045 C2044 1.348 . S
C2045 H2097 0.929 . S
H2046 C2040 0.930 . S
H2047 C2043 0.930 . S
C2048 N2049 1.314 . S
C2048 C2050 1.353 . S
C2048 H2054 0.930 . S
N2049 Li2025 1.990 . S
N2049 C2048 1.314 . S
N2049 C2052 1.279 . S
C2050 C2048 1.353 . S
C2050 C2053 1.348 . S
C2050 H2098 0.929 . S
C2051 C2052 1.358 . S
C2051 C2053 1.356 . S
C2051 H2099 0.930 . S
C2052 N2049 1.279 . S
C2052 C2051 1.358 . S
C2052 H2055 0.930 . S
C2053 C2050 1.348 . S
C2053 C2051 1.356 . S
H2054 C2048 0.930 . S
H2055 C2052 0.930 . S
C2056 C2058 1.348 . S
C2056 C2059 1.356 . S
C2056 O2086 1.325 . S
N2057 C2060 1.314 . S
N2057 C2061 1.279 . S
C2058 C2056 1.348 . S
C2058 C2060 1.353 . S
C2058 H2100 0.929 . S
C2059 C2056 1.356 . S
C2059 C2061 1.358 . S
C2059 H2101 0.930 . S
C2060 N2057 1.314 . S
C2060 C2058 1.353 . S
C2060 H2102 0.930 . S
C2061 N2057 1.279 . S
C2061 C2059 1.358 . S
C2061 H2103 0.930 . S
C2062 C2063 1.348 . S
C2062 C2064 1.356 . S
C2062 O2087 1.325 . S
C2063 C2062 1.348 . S
C2063 C2065 1.353 . S
C2063 H2104 0.929 . S
C2064 C2062 1.356 . S
C2064 C2066 1.358 . S
C2064 H2105 0.930 . S
C2065 C2063 1.353 . S
C2065 N2067 1.314 . S
C2065 H2106 0.930 . S
C2066 C2064 1.358 . S
C2066 N2067 1.279 . S
C2066 H2107 0.930 . S
N2067 C2065 1.314 . S
N2067 C2066 1.279 . S
C2068 C2070 1.353 . S
C2068 N2071 1.314 . S
C2068 H2074 0.930 . S
C2069 N2071 1.279 . S
C2069 C2072 1.358 . S
C2069 H2075 0.930 . S
C2070 C2068 1.353 . S
C2070 C2073 1.348 . S
C2070 H2108 0.929 . S
N2071 Li2026 1.990 . S
N2071 C2068 1.314 . S
N2071 C2069 1.279 . S
C2072 C2069 1.358 . S
C2072 C2073 1.356 . S
C2072 H2109 0.930 . S
C2073 C2070 1.348 . S
C2073 C2072 1.356 . S
H2074 C2068 0.930 . S
H2075 C2069 0.930 . S
C2076 N2077 1.314 . S
C2076 C2078 1.353 . S
C2076 H2082 0.930 . S
N2077 Li2027 1.990 . S
N2077 C2076 1.314 . S
N2077 C2080 1.279 . S
C2078 C2076 1.353 . S
C2078 C2081 1.348 . S
C2078 H2110 0.929 . S
C2079 C2080 1.358 . S
C2079 C2081 1.356 . S
C2079 H2111 0.930 . S
C2080 N2077 1.279 . S
C2080 C2079 1.358 . S
C2080 H2083 0.930 . S
C2081 C2078 1.348 . S
C2081 C2079 1.356 . S
H2082 C2076 0.930 . S
H2083 C2080 0.930 . S
O2084 Li2024 1.956 . S
O2084 Li2025 1.970 . S
O2084 Li2026 1.961 . S
O2084 C2028 1.325 . S
O2085 Li2024 1.970 . S
O2085 Li2025 1.956 . S
O2085 Li2027 1.961 . S
O2085 C2034 1.325 . S
O2086 Li2024 1.961 . S
O2086 Li2026 1.956 . S
O2086 Li2027 1.970 . S
O2086 C2056 1.325 . S
O2087 Li2025 1.961 . S
O2087 Li2026 1.970 . S
O2087 Li2027 1.956 . S
O2087 C2062 1.325 . S
H2088 C2030 0.929 . S
H2089 C2031 0.930 . S
H2090 C2032 0.930 . S
H2091 C2033 0.930 . S
H2092 C2035 0.930 . S
H2093 C2037 0.929 . S
H2094 C2038 0.930 . S
H2095 C2039 0.930 . S
H2096 C2042 0.930 . S
H2097 C2045 0.929 . S
H2098 C2050 0.929 . S
H2099 C2051 0.930 . S
H2100 C2058 0.929 . S
H2101 C2059 0.930 . S
H2102 C2060 0.930 . S
H2103 C2061 0.930 . S
H2104 C2063 0.929 . S
H2105 C2064 0.930 . S
H2106 C2065 0.930 . S
H2107 C2066 0.930 . S
H2108 C2070 0.929 . S
H2109 C2072 0.930 . S
H2110 C2078 0.929 . S
H2111 C2079 0.930 . S
Li2112 N2129 1.990 . S
Li2112 O2172 1.956 . S
Li2112 O2173 1.970 . S
Li2112 O2174 1.961 . S
Li2113 N2137 1.990 . S
Li2113 O2172 1.970 . S
Li2113 O2173 1.956 . S
Li2113 O2175 1.961 . S
Li2114 N2159 1.990 . S
Li2114 O2172 1.961 . S
Li2114 O2174 1.956 . S
Li2114 O2175 1.970 . S
Li2115 N2165 1.990 . S
Li2115 O2173 1.961 . S
Li2115 O2174 1.970 . S
Li2115 O2175 1.956 . S
C2116 C2118 1.348 . S
C2116 C2119 1.356 . S
C2116 O2172 1.325 . S
N2117 C2120 1.314 . S
N2117 C2121 1.279 . S
C2118 C2116 1.348 . S
C2118 C2120 1.353 . S
C2118 H2176 0.929 . S
C2119 C2116 1.356 . S
C2119 C2121 1.358 . S
C2119 H2177 0.930 . S
C2120 N2117 1.314 . S
C2120 C2118 1.353 . S
C2120 H2178 0.930 . S
C2121 N2117 1.279 . S
C2121 C2119 1.358 . S
C2121 H2179 0.990 . S
C2122 C2125 1.348 . S
C2122 C2126 1.356 . S
C2122 O2173 1.325 . S
C2123 N2124 1.279 . S
C2123 C2126 1.358 . S
C2123 H2180 0.930 . S
N2124 C2123 1.279 . S
N2124 C2127 1.314 . S
C2125 C2122 1.348 . S
C2125 C2127 1.353 . S
C2125 H2181 0.929 . S
C2126 C2122 1.356 . S
C2126 C2123 1.358 . S
C2126 H2182 0.930 . S
C2127 N2124 1.314 . S
C2127 C2125 1.353 . S
C2127 H2183 0.930 . S
C2128 N2129 1.314 . S
C2128 C2133 1.353 . S
C2128 H2134 0.930 . S
N2129 Li2112 1.990 . S
N2129 C2128 1.314 . S
N2129 C2131 1.279 . S
C2130 C2131 1.358 . S
C2130 C2132 1.356 . S
C2130 H2184 0.930 . S
C2131 N2129 1.279 . S
C2131 C2130 1.358 . S
C2131 H2135 0.930 . S
C2132 C2130 1.356 . S
C2132 C2133 1.348 . S
C2133 C2128 1.353 . S
C2133 C2132 1.348 . S
C2133 H2185 0.929 . S
H2134 C2128 0.930 . S
H2135 C2131 0.930 . S
C2136 N2137 1.314 . S
C2136 C2138 1.353 . S
C2136 H2142 0.930 . S
N2137 Li2113 1.990 . S
N2137 C2136 1.314 . S
N2137 C2140 1.279 . S
C2138 C2136 1.353 . S
C2138 C2141 1.348 . S
C2138 H2186 0.929 . S
C2139 C2140 1.358 . S
C2139 C2141 1.356 . S
C2139 H2187 0.930 . S
C2140 N2137 1.279 . S
C2140 C2139 1.358 . S
C2140 H2143 0.930 . S
C2141 C2138 1.348 . S
C2141 C2139 1.356 . S
H2142 C2136 0.930 . S
H2143 C2140 0.930 . S
C2144 C2146 1.348 . S
C2144 C2147 1.356 . S
C2144 O2174 1.325 . S
N2145 C2148 1.314 . S
N2145 C2149 1.279 . S
C2146 C2144 1.348 . S
C2146 C2148 1.353 . S
C2146 H2188 0.929 . S
C2147 C2144 1.356 . S
C2147 C2149 1.358 . S
C2147 H2189 0.930 . S
C2148 N2145 1.314 . S
C2148 C2146 1.353 . S
C2148 H2190 0.930 . S
C2149 N2145 1.279 . S
C2149 C2147 1.358 . S
C2149 H2191 0.930 . S
C2150 C2151 1.348 . S
C2150 C2152 1.356 . S
C2150 O2175 1.325 . S
C2151 C2150 1.348 . S
C2151 C2153 1.353 . S
C2151 H2192 0.929 . S
C2152 C2150 1.356 . S
C2152 C2154 1.358 . S
C2152 H2193 0.930 . S
C2153 C2151 1.353 . S
C2153 N2155 1.314 . S
C2153 H2194 0.930 . S
C2154 C2152 1.358 . S
C2154 N2155 1.279 . S
C2154 H2195 0.930 . S
N2155 C2153 1.314 . S
N2155 C2154 1.279 . S
C2156 C2158 1.353 . S
C2156 N2159 1.314 . S
C2156 H2162 0.930 . S
C2157 N2159 1.279 . S
C2157 C2160 1.358 . S
C2157 H2163 0.930 . S
C2158 C2156 1.353 . S
C2158 C2161 1.348 . S
C2158 H2196 0.929 . S
N2159 Li2114 1.990 . S
N2159 C2156 1.314 . S
N2159 C2157 1.279 . S
C2160 C2157 1.358 . S
C2160 C2161 1.356 . S
C2160 H2197 0.930 . S
C2161 C2158 1.348 . S
C2161 C2160 1.356 . S
H2162 C2156 0.930 . S
H2163 C2157 0.930 . S
C2164 N2165 1.314 . S
C2164 C2166 1.353 . S
C2164 H2170 0.930 . S
N2165 Li2115 1.990 . S
N2165 C2164 1.314 . S
N2165 C2168 1.279 . S
C2166 C2164 1.353 . S
C2166 C2169 1.348 . S
C2166 H2198 0.929 . S
C2167 C2168 1.358 . S
C2167 C2169 1.356 . S
C2167 H2199 0.930 . S
C2168 N2165 1.279 . S
C2168 C2167 1.358 . S
C2168 H2171 0.930 . S
C2169 C2166 1.348 . S
C2169 C2167 1.356 . S
H2170 C2164 0.930 . S
H2171 C2168 0.930 . S
O2172 Li2112 1.956 . S
O2172 Li2113 1.970 . S
O2172 Li2114 1.961 . S
O2172 C2116 1.325 . S
O2173 Li2112 1.970 . S
O2173 Li2113 1.956 . S
O2173 Li2115 1.961 . S
O2173 C2122 1.325 . S
O2174 Li2112 1.961 . S
O2174 Li2114 1.956 . S
O2174 Li2115 1.970 . S
O2174 C2144 1.325 . S
O2175 Li2113 1.961 . S
O2175 Li2114 1.970 . S
O2175 Li2115 1.956 . S
O2175 C2150 1.325 . S
H2176 C2118 0.929 . S
H2177 C2119 0.930 . S
H2178 C2120 0.930 . S
H2179 C2121 0.990 . S
H2180 C2123 0.930 . S
H2181 C2125 0.929 . S
H2182 C2126 0.930 . S
H2183 C2127 0.930 . S
H2184 C2130 0.930 . S
H2185 C2133 0.929 . S
H2186 C2138 0.929 . S
H2187 C2139 0.930 . S
H2188 C2146 0.929 . S
H2189 C2147 0.930 . S
H2190 C2148 0.930 . S
H2191 C2149 0.930 . S
H2192 C2151 0.929 . S
H2193 C2152 0.930 . S
H2194 C2153 0.930 . S
H2195 C2154 0.930 . S
H2196 C2158 0.929 . S
H2197 C2160 0.930 . S
H2198 C2166 0.929 . S
H2199 C2167 0.930 . S
Li2200 N2217 1.990 . S
Li2200 O2260 1.956 . S
Li2200 O2261 1.970 . S
Li2200 O2262 1.961 . S
Li2201 N2225 1.990 . S
Li2201 O2260 1.970 . S
Li2201 O2261 1.956 . S
Li2201 O2263 1.961 . S
Li2202 N2247 1.990 . S
Li2202 O2260 1.961 . S
Li2202 O2262 1.956 . S
Li2202 O2263 1.970 . S
Li2203 N2253 1.990 . S
Li2203 O2261 1.961 . S
Li2203 O2262 1.970 . S
Li2203 O2263 1.956 . S
C2204 C2206 1.348 . S
C2204 C2207 1.356 . S
C2204 O2260 1.325 . S
N2205 C2208 1.314 . S
N2205 C2209 1.279 . S
C2206 C2204 1.348 . S
C2206 C2208 1.353 . S
C2206 H2264 0.929 . S
C2207 C2204 1.356 . S
C2207 C2209 1.358 . S
C2207 H2265 0.930 . S
C2208 N2205 1.314 . S
C2208 C2206 1.353 . S
C2208 H2266 0.930 . S
C2209 N2205 1.279 . S
C2209 C2207 1.358 . S
C2209 H2267 0.930 . S
C2210 C2213 1.348 . S
C2210 C2214 1.356 . S
C2210 O2261 1.325 . S
C2211 N2212 1.279 . S
C2211 C2214 1.358 . S
C2211 H2268 0.930 . S
N2212 C2211 1.279 . S
N2212 C2215 1.314 . S
C2213 C2210 1.348 . S
C2213 C2215 1.353 . S
C2213 H2269 0.929 . S
C2214 C2210 1.356 . S
C2214 C2211 1.358 . S
C2214 H2270 0.930 . S
C2215 N2212 1.314 . S
C2215 C2213 1.353 . S
C2215 H2271 0.930 . S
C2216 N2217 1.314 . S
C2216 C2221 1.353 . S
C2216 H2222 0.930 . S
N2217 Li2200 1.990 . S
N2217 C2216 1.314 . S
N2217 C2219 1.279 . S
C2218 C2219 1.358 . S
C2218 C2220 1.356 . S
C2218 H2272 0.930 . S
C2219 N2217 1.279 . S
C2219 C2218 1.358 . S
C2219 H2223 0.930 . S
C2220 C2218 1.356 . S
C2220 C2221 1.348 . S
C2221 C2216 1.353 . S
C2221 C2220 1.348 . S
C2221 H2273 0.929 . S
H2222 C2216 0.930 . S
H2223 C2219 0.930 . S
C2224 N2225 1.314 . S
C2224 C2226 1.353 . S
C2224 H2230 0.930 . S
N2225 Li2201 1.990 . S
N2225 C2224 1.314 . S
N2225 C2228 1.279 . S
C2226 C2224 1.353 . S
C2226 C2229 1.348 . S
C2226 H2274 0.929 . S
C2227 C2228 1.358 . S
C2227 C2229 1.356 . S
C2227 H2275 0.930 . S
C2228 N2225 1.279 . S
C2228 C2227 1.358 . S
C2228 H2231 0.930 . S
C2229 C2226 1.348 . S
C2229 C2227 1.356 . S
H2230 C2224 0.930 . S
H2231 C2228 0.930 . S
C2232 C2234 1.348 . S
C2232 C2235 1.356 . S
C2232 O2262 1.325 . S
N2233 C2236 1.314 . S
N2233 C2237 1.279 . S
C2234 C2232 1.348 . S
C2234 C2236 1.353 . S
C2234 H2276 0.929 . S
C2235 C2232 1.356 . S
C2235 C2237 1.358 . S
C2235 H2277 0.930 . S
C2236 N2233 1.314 . S
C2236 C2234 1.353 . S
C2236 H2278 0.930 . S
C2237 N2233 1.279 . S
C2237 C2235 1.358 . S
C2237 H2279 0.930 . S
C2238 C2239 1.348 . S
C2238 C2240 1.356 . S
C2238 O2263 1.325 . S
C2239 C2238 1.348 . S
C2239 C2241 1.353 . S
C2239 H2280 0.929 . S
C2240 C2238 1.356 . S
C2240 C2242 1.358 . S
C2240 H2281 0.930 . S
C2241 C2239 1.353 . S
C2241 N2243 1.314 . S
C2241 H2282 0.930 . S
C2242 C2240 1.358 . S
C2242 N2243 1.279 . S
C2242 H2283 0.930 . S
N2243 C2241 1.314 . S
N2243 C2242 1.279 . S
C2244 C2246 1.353 . S
C2244 N2247 1.314 . S
C2244 H2250 0.930 . S
C2245 N2247 1.279 . S
C2245 C2248 1.358 . S
C2245 H2251 0.930 . S
C2246 C2244 1.353 . S
C2246 C2249 1.348 . S
C2246 H2284 0.929 . S
N2247 Li2202 1.990 . S
N2247 C2244 1.314 . S
N2247 C2245 1.279 . S
C2248 C2245 1.358 . S
C2248 C2249 1.356 . S
C2248 H2285 0.930 . S
C2249 C2246 1.348 . S
C2249 C2248 1.356 . S
H2250 C2244 0.930 . S
H2251 C2245 0.930 . S
C2252 N2253 1.314 . S
C2252 C2254 1.353 . S
C2252 H2258 0.930 . S
N2253 Li2203 1.990 . S
N2253 C2252 1.314 . S
N2253 C2256 1.279 . S
C2254 C2252 1.353 . S
C2254 C2257 1.348 . S
C2254 H2286 0.929 . S
C2255 C2256 1.358 . S
C2255 C2257 1.356 . S
C2255 H2287 0.930 . S
C2256 N2253 1.279 . S
C2256 C2255 1.358 . S
C2256 H2259 0.930 . S
C2257 C2254 1.348 . S
C2257 C2255 1.356 . S
H2258 C2252 0.930 . S
H2259 C2256 0.930 . S
O2260 Li2200 1.956 . S
O2260 Li2201 1.970 . S
O2260 Li2202 1.961 . S
O2260 C2204 1.325 . S
O2261 Li2200 1.970 . S
O2261 Li2201 1.956 . S
O2261 Li2203 1.961 . S
O2261 C2210 1.325 . S
O2262 Li2200 1.961 . S
O2262 Li2202 1.956 . S
O2262 Li2203 1.970 . S
O2262 C2232 1.325 . S
O2263 Li2201 1.961 . S
O2263 Li2202 1.970 . S
O2263 Li2203 1.956 . S
O2263 C2238 1.325 . S
H2264 C2206 0.929 . S
H2265 C2207 0.930 . S
H2266 C2208 0.930 . S
H2267 C2209 0.930 . S
H2268 C2211 0.930 . S
H2269 C2213 0.929 . S
H2270 C2214 0.930 . S
H2271 C2215 0.930 . S
H2272 C2218 0.930 . S
H2273 C2221 0.929 . S
H2274 C2226 0.929 . S
H2275 C2227 0.930 . S
H2276 C2234 0.929 . S
H2277 C2235 0.930 . S
H2278 C2236 0.930 . S
H2279 C2237 0.930 . S
H2280 C2239 0.929 . S
H2281 C2240 0.930 . S
H2282 C2241 0.930 . S
H2283 C2242 0.930 . S
H2284 C2246 0.929 . S
H2285 C2248 0.930 . S
H2286 C2254 0.929 . S
H2287 C2255 0.930 . S
Li2288 N2305 1.990 . S
Li2288 O2348 1.956 . S
Li2288 O2349 1.970 . S
Li2288 O2350 1.961 . S
Li2289 N2313 1.990 . S
Li2289 O2348 1.970 . S
Li2289 O2349 1.956 . S
Li2289 O2351 1.961 . S
Li2290 N2335 1.990 . S
Li2290 O2348 1.961 . S
Li2290 O2350 1.956 . S
Li2290 O2351 1.970 . S
Li2291 N2341 1.990 . S
Li2291 O2349 1.961 . S
Li2291 O2350 1.970 . S
Li2291 O2351 1.956 . S
C2292 C2294 1.348 . S
C2292 C2295 1.356 . S
C2292 O2348 1.325 . S
N2293 C2296 1.314 . S
N2293 C2297 1.279 . S
C2294 C2292 1.348 . S
C2294 C2296 1.353 . S
C2294 H2352 0.929 . S
C2295 C2292 1.356 . S
C2295 C2297 1.358 . S
C2295 H2353 0.930 . S
C2296 N2293 1.314 . S
C2296 C2294 1.353 . S
C2296 H2354 0.930 . S
C2297 N2293 1.279 . S
C2297 C2295 1.358 . S
C2297 H2355 0.930 . S
C2298 C2301 1.348 . S
C2298 C2302 1.356 . S
C2298 O2349 1.325 . S
C2299 N2300 1.279 . S
C2299 C2302 1.358 . S
C2299 H2356 0.930 . S
N2300 C2299 1.279 . S
N2300 C2303 1.314 . S
C2301 C2298 1.348 . S
C2301 C2303 1.353 . S
C2301 H2357 0.929 . S
C2302 C2298 1.356 . S
C2302 C2299 1.358 . S
C2302 H2358 0.930 . S
C2303 N2300 1.314 . S
C2303 C2301 1.353 . S
C2303 H2359 0.930 . S
C2304 N2305 1.314 . S
C2304 C2309 1.353 . S
C2304 H2310 0.930 . S
N2305 Li2288 1.990 . S
N2305 C2304 1.314 . S
N2305 C2307 1.279 . S
C2306 C2307 1.358 . S
C2306 C2308 1.356 . S
C2306 H2360 0.930 . S
C2307 N2305 1.279 . S
C2307 C2306 1.358 . S
C2307 H2311 0.930 . S
C2308 C2306 1.356 . S
C2308 C2309 1.348 . S
C2309 C2304 1.353 . S
C2309 C2308 1.348 . S
C2309 H2361 0.929 . S
H2310 C2304 0.930 . S
H2311 C2307 0.930 . S
C2312 N2313 1.314 . S
C2312 C2314 1.353 . S
C2312 H2318 0.930 . S
N2313 Li2289 1.990 . S
N2313 C2312 1.314 . S
N2313 C2316 1.279 . S
C2314 C2312 1.353 . S
C2314 C2317 1.348 . S
C2314 H2362 0.929 . S
C2315 C2316 1.358 . S
C2315 C2317 1.356 . S
C2315 H2363 0.930 . S
C2316 N2313 1.279 . S
C2316 C2315 1.358 . S
C2316 H2319 0.930 . S
C2317 C2314 1.348 . S
C2317 C2315 1.356 . S
H2318 C2312 0.930 . S
H2319 C2316 0.930 . S
C2320 C2322 1.348 . S
C2320 C2323 1.356 . S
C2320 O2350 1.325 . S
N2321 C2324 1.314 . S
N2321 C2325 1.279 . S
C2322 C2320 1.348 . S
C2322 C2324 1.353 . S
C2322 H2364 0.929 . S
C2323 C2320 1.356 . S
C2323 C2325 1.358 . S
C2323 H2365 0.930 . S
C2324 N2321 1.314 . S
C2324 C2322 1.353 . S
C2324 H2366 0.930 . S
C2325 N2321 1.279 . S
C2325 C2323 1.358 . S
C2325 H2367 0.930 . S
C2326 C2327 1.348 . S
C2326 C2328 1.356 . S
C2326 O2351 1.325 . S
C2327 C2326 1.348 . S
C2327 C2329 1.353 . S
C2327 H2368 0.929 . S
C2328 C2326 1.356 . S
C2328 C2330 1.358 . S
C2328 H2369 0.930 . S
C2329 C2327 1.353 . S
C2329 N2331 1.314 . S
C2329 H2370 0.930 . S
C2330 C2328 1.358 . S
C2330 N2331 1.279 . S
C2330 H2371 0.930 . S
N2331 C2329 1.314 . S
N2331 C2330 1.279 . S
C2332 C2334 1.353 . S
C2332 N2335 1.314 . S
C2332 H2338 0.930 . S
C2333 N2335 1.279 . S
C2333 C2336 1.358 . S
C2333 H2339 0.930 . S
C2334 C2332 1.353 . S
C2334 C2337 1.348 . S
C2334 H2372 0.929 . S
N2335 Li2290 1.990 . S
N2335 C2332 1.314 . S
N2335 C2333 1.279 . S
C2336 C2333 1.358 . S
C2336 C2337 1.356 . S
C2336 H2373 0.930 . S
C2337 C2334 1.348 . S
C2337 C2336 1.356 . S
H2338 C2332 0.930 . S
H2339 C2333 0.930 . S
C2340 N2341 1.314 . S
C2340 C2342 1.353 . S
C2340 H2346 0.930 . S
N2341 Li2291 1.990 . S
N2341 C2340 1.314 . S
N2341 C2344 1.279 . S
C2342 C2340 1.353 . S
C2342 C2345 1.348 . S
C2342 H2374 0.929 . S
C2343 C2344 1.358 . S
C2343 C2345 1.356 . S
C2343 H2375 0.930 . S
C2344 N2341 1.279 . S
C2344 C2343 1.358 . S
C2344 H2347 0.930 . S
C2345 C2342 1.348 . S
C2345 C2343 1.356 . S
H2346 C2340 0.930 . S
H2347 C2344 0.930 . S
O2348 Li2288 1.956 . S
O2348 Li2289 1.970 . S
O2348 Li2290 1.961 . S
O2348 C2292 1.325 . S
O2349 Li2288 1.970 . S
O2349 Li2289 1.956 . S
O2349 Li2291 1.961 . S
O2349 C2298 1.325 . S
O2350 Li2288 1.961 . S
O2350 Li2290 1.956 . S
O2350 Li2291 1.970 . S
O2350 C2320 1.325 . S
O2351 Li2289 1.961 . S
O2351 Li2290 1.970 . S
O2351 Li2291 1.956 . S
O2351 C2326 1.325 . S
H2352 C2294 0.929 . S
H2353 C2295 0.930 . S
H2354 C2296 0.930 . S
H2355 C2297 0.930 . S
H2356 C2299 0.930 . S
H2357 C2301 0.929 . S
H2358 C2302 0.930 . S
H2359 C2303 0.930 . S
H2360 C2306 0.930 . S
H2361 C2309 0.929 . S
H2362 C2314 0.929 . S
H2363 C2315 0.930 . S
H2364 C2322 0.929 . S
H2365 C2323 0.930 . S
H2366 C2324 0.930 . S
H2367 C2325 0.930 . S
H2368 C2327 0.929 . S
H2369 C2328 0.930 . S
H2370 C2329 0.930 . S
H2371 C2330 0.930 . S
H2372 C2334 0.929 . S
H2373 C2336 0.930 . S
H2374 C2342 0.929 . S
H2375 C2343 0.930 . S
Li2376 N2393 1.990 . S
Li2376 O2436 1.956 . S
Li2376 O2437 1.970 . S
Li2376 O2438 1.961 . S
Li2377 N2401 1.990 . S
Li2377 O2436 1.970 . S
Li2377 O2437 1.956 . S
Li2377 O2439 1.961 . S
Li2378 N2423 1.990 . S
Li2378 O2436 1.961 . S
Li2378 O2438 1.956 . S
Li2378 O2439 1.970 . S
Li2379 N2429 1.990 . S
Li2379 O2437 1.961 . S
Li2379 O2438 1.970 . S
Li2379 O2439 1.956 . S
C2380 C2382 1.348 . S
C2380 C2383 1.356 . S
C2380 O2436 1.325 . S
N2381 C2384 1.314 . S
N2381 C2385 1.279 . S
C2382 C2380 1.348 . S
C2382 C2384 1.353 . S
C2382 H2440 0.929 . S
C2383 C2380 1.356 . S
C2383 C2385 1.358 . S
C2383 H2441 0.930 . S
C2384 N2381 1.314 . S
C2384 C2382 1.353 . S
C2384 H2442 0.930 . S
C2385 N2381 1.279 . S
C2385 C2383 1.358 . S
C2385 H2443 0.930 . S
C2386 C2389 1.348 . S
C2386 C2390 1.356 . S
C2386 O2437 1.325 . S
C2387 N2388 1.279 . S
C2387 C2390 1.358 . S
C2387 H2444 0.930 . S
N2388 C2387 1.279 . S
N2388 C2391 1.314 . S
C2389 C2386 1.348 . S
C2389 C2391 1.353 . S
C2389 H2445 0.929 . S
C2390 C2386 1.356 . S
C2390 C2387 1.358 . S
C2390 H2446 0.930 . S
C2391 N2388 1.314 . S
C2391 C2389 1.353 . S
C2391 H2447 0.930 . S
C2392 N2393 1.314 . S
C2392 C2397 1.353 . S
C2392 H2398 0.930 . S
N2393 Li2376 1.990 . S
N2393 C2392 1.314 . S
N2393 C2395 1.279 . S
C2394 C2395 1.358 . S
C2394 C2396 1.356 . S
C2394 H2448 0.930 . S
C2395 N2393 1.279 . S
C2395 C2394 1.358 . S
C2395 H2399 0.930 . S
C2396 C2394 1.356 . S
C2396 C2397 1.348 . S
C2397 C2392 1.353 . S
C2397 C2396 1.348 . S
C2397 H2449 0.929 . S
H2398 C2392 0.930 . S
H2399 C2395 0.930 . S
C2400 N2401 1.314 . S
C2400 C2402 1.353 . S
C2400 H2406 0.930 . S
N2401 Li2377 1.990 . S
N2401 C2400 1.314 . S
N2401 C2404 1.279 . S
C2402 C2400 1.353 . S
C2402 C2405 1.348 . S
C2402 H2450 0.929 . S
C2403 C2404 1.358 . S
C2403 C2405 1.356 . S
C2403 H2451 0.930 . S
C2404 N2401 1.279 . S
C2404 C2403 1.358 . S
C2404 H2407 0.930 . S
C2405 C2402 1.348 . S
C2405 C2403 1.356 . S
H2406 C2400 0.930 . S
H2407 C2404 0.930 . S
C2408 C2410 1.348 . S
C2408 C2411 1.356 . S
C2408 O2438 1.325 . S
N2409 C2412 1.314 . S
N2409 C2413 1.279 . S
C2410 C2408 1.348 . S
C2410 C2412 1.353 . S
C2410 H2452 0.929 . S
C2411 C2408 1.356 . S
C2411 C2413 1.358 . S
C2411 H2453 0.930 . S
C2412 N2409 1.314 . S
C2412 C2410 1.353 . S
C2412 H2454 0.930 . S
C2413 N2409 1.279 . S
C2413 C2411 1.358 . S
C2413 H2455 0.930 . S
C2414 C2415 1.348 . S
C2414 C2416 1.356 . S
C2414 O2439 1.325 . S
C2415 C2414 1.348 . S
C2415 C2417 1.353 . S
C2415 H2456 0.929 . S
C2416 C2414 1.356 . S
C2416 C2418 1.358 . S
C2416 H2457 0.930 . S
C2417 C2415 1.353 . S
C2417 N2419 1.314 . S
C2417 H2458 0.930 . S
C2418 C2416 1.358 . S
C2418 N2419 1.279 . S
C2418 H2459 0.930 . S
N2419 C2417 1.314 . S
N2419 C2418 1.279 . S
C2420 C2422 1.353 . S
C2420 N2423 1.314 . S
C2420 H2426 0.930 . S
C2421 N2423 1.279 . S
C2421 C2424 1.358 . S
C2421 H2427 0.930 . S
C2422 C2420 1.353 . S
C2422 C2425 1.348 . S
C2422 H2460 0.929 . S
N2423 Li2378 1.990 . S
N2423 C2420 1.314 . S
N2423 C2421 1.279 . S
C2424 C2421 1.358 . S
C2424 C2425 1.356 . S
C2424 H2461 0.930 . S
C2425 C2422 1.348 . S
C2425 C2424 1.356 . S
H2426 C2420 0.930 . S
H2427 C2421 0.930 . S
C2428 N2429 1.314 . S
C2428 C2430 1.353 . S
C2428 H2434 0.930 . S
N2429 Li2379 1.990 . S
N2429 C2428 1.314 . S
N2429 C2432 1.279 . S
C2430 C2428 1.353 . S
C2430 C2433 1.348 . S
C2430 H2462 0.929 . S
C2431 C2432 1.358 . S
C2431 C2433 1.356 . S
C2431 H2463 0.930 . S
C2432 N2429 1.279 . S
C2432 C2431 1.358 . S
C2432 H2435 0.930 . S
C2433 C2430 1.348 . S
C2433 C2431 1.356 . S
H2434 C2428 0.930 . S
H2435 C2432 0.930 . S
O2436 Li2376 1.956 . S
O2436 Li2377 1.970 . S
O2436 Li2378 1.961 . S
O2436 C2380 1.325 . S
O2437 Li2376 1.970 . S
O2437 Li2377 1.956 . S
O2437 Li2379 1.961 . S
O2437 C2386 1.325 . S
O2438 Li2376 1.961 . S
O2438 Li2378 1.956 . S
O2438 Li2379 1.970 . S
O2438 C2408 1.325 . S
O2439 Li2377 1.961 . S
O2439 Li2378 1.970 . S
O2439 Li2379 1.956 . S
O2439 C2414 1.325 . S
H2440 C2382 0.929 . S
H2441 C2383 0.930 . S
H2442 C2384 0.930 . S
H2443 C2385 0.930 . S
H2444 C2387 0.930 . S
H2445 C2389 0.929 . S
H2446 C2390 0.930 . S
H2447 C2391 0.930 . S
H2448 C2394 0.930 . S
H2449 C2397 0.929 . S
H2450 C2402 0.929 . S
H2451 C2403 0.930 . S
H2452 C2410 0.929 . S
H2453 C2411 0.930 . S
H2454 C2412 0.930 . S
H2455 C2413 0.930 . S
H2456 C2415 0.929 . S
H2457 C2416 0.930 . S
H2458 C2417 0.930 . S
H2459 C2418 0.930 . S
H2460 C2422 0.929 . S
H2461 C2424 0.930 . S
H2462 C2430 0.929 . S
H2463 C2431 0.930 . S
Li2464 N2481 1.990 . S
Li2464 O2524 1.956 . S
Li2464 O2525 1.970 . S
Li2464 O2526 1.961 . S
Li2465 N2489 1.990 . S
Li2465 O2524 1.970 . S
Li2465 O2525 1.956 . S
Li2465 O2527 1.961 . S
Li2466 N2511 1.990 . S
Li2466 O2524 1.961 . S
Li2466 O2526 1.956 . S
Li2466 O2527 1.970 . S
Li2467 N2517 1.990 . S
Li2467 O2525 1.961 . S
Li2467 O2526 1.970 . S
Li2467 O2527 1.956 . S
C2468 C2470 1.348 . S
C2468 C2471 1.356 . S
C2468 O2524 1.325 . S
N2469 C2472 1.314 . S
N2469 C2473 1.279 . S
C2470 C2468 1.348 . S
C2470 C2472 1.353 . S
C2470 H2528 0.929 . S
C2471 C2468 1.356 . S
C2471 C2473 1.358 . S
C2471 H2529 0.930 . S
C2472 N2469 1.314 . S
C2472 C2470 1.353 . S
C2472 H2530 0.930 . S
C2473 N2469 1.279 . S
C2473 C2471 1.358 . S
C2473 H2531 0.930 . S
C2474 C2477 1.348 . S
C2474 C2478 1.356 . S
C2474 O2525 1.325 . S
C2475 N2476 1.279 . S
C2475 C2478 1.358 . S
C2475 H2532 0.930 . S
N2476 C2475 1.279 . S
N2476 C2479 1.314 . S
C2477 C2474 1.348 . S
C2477 C2479 1.353 . S
C2477 H2533 0.929 . S
C2478 C2474 1.356 . S
C2478 C2475 1.358 . S
C2478 H2534 0.930 . S
C2479 N2476 1.314 . S
C2479 C2477 1.353 . S
C2479 H2535 0.930 . S
C2480 N2481 1.314 . S
C2480 C2485 1.353 . S
C2480 H2486 0.930 . S
N2481 Li2464 1.990 . S
N2481 C2480 1.314 . S
N2481 C2483 1.279 . S
C2482 C2483 1.358 . S
C2482 C2484 1.356 . S
C2482 H2536 0.930 . S
C2483 N2481 1.279 . S
C2483 C2482 1.358 . S
C2483 H2487 0.930 . S
C2484 C2482 1.356 . S
C2484 C2485 1.348 . S
C2485 C2480 1.353 . S
C2485 C2484 1.348 . S
C2485 H2537 0.929 . S
H2486 C2480 0.930 . S
H2487 C2483 0.930 . S
C2488 N2489 1.314 . S
C2488 C2490 1.353 . S
C2488 H2494 0.930 . S
N2489 Li2465 1.990 . S
N2489 C2488 1.314 . S
N2489 C2492 1.279 . S
C2490 C2488 1.353 . S
C2490 C2493 1.348 . S
C2490 H2538 0.929 . S
C2491 C2492 1.358 . S
C2491 C2493 1.356 . S
C2491 H2539 0.930 . S
C2492 N2489 1.279 . S
C2492 C2491 1.358 . S
C2492 H2495 0.930 . S
C2493 C2490 1.348 . S
C2493 C2491 1.356 . S
H2494 C2488 0.930 . S
H2495 C2492 0.930 . S
C2496 C2498 1.348 . S
C2496 C2499 1.356 . S
C2496 O2526 1.325 . S
N2497 C2500 1.314 . S
N2497 C2501 1.279 . S
C2498 C2496 1.348 . S
C2498 C2500 1.353 . S
C2498 H2540 0.929 . S
C2499 C2496 1.356 . S
C2499 C2501 1.358 . S
C2499 H2541 0.930 . S
C2500 N2497 1.314 . S
C2500 C2498 1.353 . S
C2500 H2542 0.930 . S
C2501 N2497 1.279 . S
C2501 C2499 1.358 . S
C2501 H2543 0.930 . S
C2502 C2503 1.348 . S
C2502 C2504 1.356 . S
C2502 O2527 1.325 . S
C2503 C2502 1.348 . S
C2503 C2505 1.353 . S
C2503 H2544 0.929 . S
C2504 C2502 1.356 . S
C2504 C2506 1.358 . S
C2504 H2545 0.930 . S
C2505 C2503 1.353 . S
C2505 N2507 1.314 . S
C2505 H2546 0.930 . S
C2506 C2504 1.358 . S
C2506 N2507 1.279 . S
C2506 H2547 0.930 . S
N2507 C2505 1.314 . S
N2507 C2506 1.279 . S
C2508 C2510 1.353 . S
C2508 N2511 1.314 . S
C2508 H2514 0.930 . S
C2509 N2511 1.279 . S
C2509 C2512 1.358 . S
C2509 H2515 0.930 . S
C2510 C2508 1.353 . S
C2510 C2513 1.348 . S
C2510 H2548 0.929 . S
N2511 Li2466 1.990 . S
N2511 C2508 1.314 . S
N2511 C2509 1.279 . S
C2512 C2509 1.358 . S
C2512 C2513 1.356 . S
C2512 H2549 0.930 . S
C2513 C2510 1.348 . S
C2513 C2512 1.356 . S
H2514 C2508 0.930 . S
H2515 C2509 0.930 . S
C2516 N2517 1.314 . S
C2516 C2518 1.353 . S
C2516 H2522 0.930 . S
N2517 Li2467 1.990 . S
N2517 C2516 1.314 . S
N2517 C2520 1.279 . S
C2518 C2516 1.353 . S
C2518 C2521 1.348 . S
C2518 H2550 0.929 . S
C2519 C2520 1.358 . S
C2519 C2521 1.356 . S
C2519 H2551 0.930 . S
C2520 N2517 1.279 . S
C2520 C2519 1.358 . S
C2520 H2523 0.930 . S
C2521 C2518 1.348 . S
C2521 C2519 1.356 . S
H2522 C2516 0.930 . S
H2523 C2520 0.930 . S
O2524 Li2464 1.956 . S
O2524 Li2465 1.970 . S
O2524 Li2466 1.961 . S
O2524 C2468 1.325 . S
O2525 Li2464 1.970 . S
O2525 Li2465 1.956 . S
O2525 Li2467 1.961 . S
O2525 C2474 1.325 . S
O2526 Li2464 1.961 . S
O2526 Li2466 1.956 . S
O2526 Li2467 1.970 . S
O2526 C2496 1.325 . S
O2527 Li2465 1.961 . S
O2527 Li2466 1.970 . S
O2527 Li2467 1.956 . S
O2527 C2502 1.325 . S
H2528 C2470 0.929 . S
H2529 C2471 0.930 . S
H2530 C2472 0.930 . S
H2531 C2473 0.930 . S
H2532 C2475 0.930 . S
H2533 C2477 0.929 . S
H2534 C2478 0.930 . S
H2535 C2479 0.930 . S
H2536 C2482 0.930 . S
H2537 C2485 0.929 . S
H2538 C2490 0.929 . S
H2539 C2491 0.930 . S
H2540 C2498 0.929 . S
H2541 C2499 0.930 . S
H2542 C2500 0.930 . S
H2543 C2501 0.930 . S
H2544 C2503 0.929 . S
H2545 C2504 0.930 . S
H2546 C2505 0.930 . S
H2547 C2506 0.930 . S
H2548 C2510 0.929 . S
H2549 C2512 0.930 . S
H2550 C2518 0.929 . S
H2551 C2519 0.930 . S
Li2552 N2569 1.990 . S
Li2552 O2612 1.956 . S
Li2552 O2613 1.970 . S
Li2552 O2614 1.961 . S
Li2553 N2577 1.990 . S
Li2553 O2612 1.970 . S
Li2553 O2613 1.956 . S
Li2553 O2615 1.961 . S
Li2554 N2599 1.990 . S
Li2554 O2612 1.961 . S
Li2554 O2614 1.956 . S
Li2554 O2615 1.970 . S
Li2555 N2605 1.990 . S
Li2555 O2613 1.961 . S
Li2555 O2614 1.970 . S
Li2555 O2615 1.956 . S
C2556 C2558 1.348 . S
C2556 C2559 1.356 . S
C2556 O2612 1.325 . S
N2557 C2560 1.314 . S
N2557 C2561 1.279 . S
C2558 C2556 1.348 . S
C2558 C2560 1.353 . S
C2558 H2616 0.929 . S
C2559 C2556 1.356 . S
C2559 C2561 1.358 . S
C2559 H2617 0.930 . S
C2560 N2557 1.314 . S
C2560 C2558 1.353 . S
C2560 H2618 0.930 . S
C2561 N2557 1.279 . S
C2561 C2559 1.358 . S
C2561 H2619 0.930 . S
C2562 C2565 1.348 . S
C2562 C2566 1.356 . S
C2562 O2613 1.325 . S
C2563 N2564 1.279 . S
C2563 C2566 1.358 . S
C2563 H2620 0.930 . S
N2564 C2563 1.279 . S
N2564 C2567 1.314 . S
C2565 C2562 1.348 . S
C2565 C2567 1.353 . S
C2565 H2621 0.929 . S
C2566 C2562 1.356 . S
C2566 C2563 1.358 . S
C2566 H2622 0.930 . S
C2567 N2564 1.314 . S
C2567 C2565 1.353 . S
C2567 H2623 0.930 . S
C2568 N2569 1.314 . S
C2568 C2573 1.353 . S
C2568 H2574 0.930 . S
N2569 Li2552 1.990 . S
N2569 C2568 1.314 . S
N2569 C2571 1.279 . S
C2570 C2571 1.358 . S
C2570 C2572 1.356 . S
C2570 H2624 0.930 . S
C2571 N2569 1.279 . S
C2571 C2570 1.358 . S
C2571 H2575 0.930 . S
C2572 C2570 1.356 . S
C2572 C2573 1.348 . S
C2573 C2568 1.353 . S
C2573 C2572 1.348 . S
C2573 H2625 0.929 . S
H2574 C2568 0.930 . S
H2575 C2571 0.930 . S
C2576 N2577 1.314 . S
C2576 C2578 1.353 . S
C2576 H2582 0.930 . S
N2577 Li2553 1.990 . S
N2577 C2576 1.314 . S
N2577 C2580 1.279 . S
C2578 C2576 1.353 . S
C2578 C2581 1.348 . S
C2578 H2626 0.929 . S
C2579 C2580 1.358 . S
C2579 C2581 1.356 . S
C2579 H2627 0.930 . S
C2580 N2577 1.279 . S
C2580 C2579 1.358 . S
C2580 H2583 0.930 . S
C2581 C2578 1.348 . S
C2581 C2579 1.356 . S
H2582 C2576 0.930 . S
H2583 C2580 0.930 . S
C2584 C2586 1.348 . S
C2584 C2587 1.356 . S
C2584 O2614 1.325 . S
N2585 C2588 1.314 . S
N2585 C2589 1.279 . S
C2586 C2584 1.348 . S
C2586 C2588 1.353 . S
C2586 H2628 0.929 . S
C2587 C2584 1.356 . S
C2587 C2589 1.358 . S
C2587 H2629 0.930 . S
C2588 N2585 1.314 . S
C2588 C2586 1.353 . S
C2588 H2630 0.930 . S
C2589 N2585 1.279 . S
C2589 C2587 1.358 . S
C2589 H2631 0.930 . S
C2590 C2591 1.348 . S
C2590 C2592 1.356 . S
C2590 O2615 1.325 . S
C2591 C2590 1.348 . S
C2591 C2593 1.353 . S
C2591 H2632 0.929 . S
C2592 C2590 1.356 . S
C2592 C2594 1.358 . S
C2592 H2633 0.930 . S
C2593 C2591 1.353 . S
C2593 N2595 1.314 . S
C2593 H2634 0.930 . S
C2594 C2592 1.358 . S
C2594 N2595 1.279 . S
C2594 H2635 0.930 . S
N2595 C2593 1.314 . S
N2595 C2594 1.279 . S
C2596 C2598 1.353 . S
C2596 N2599 1.314 . S
C2596 H2602 0.930 . S
C2597 N2599 1.279 . S
C2597 C2600 1.358 . S
C2597 H2603 0.930 . S
C2598 C2596 1.353 . S
C2598 C2601 1.348 . S
C2598 H2636 0.929 . S
N2599 Li2554 1.990 . S
N2599 C2596 1.314 . S
N2599 C2597 1.279 . S
C2600 C2597 1.358 . S
C2600 C2601 1.356 . S
C2600 H2637 0.930 . S
C2601 C2598 1.348 . S
C2601 C2600 1.356 . S
H2602 C2596 0.930 . S
H2603 C2597 0.930 . S
C2604 N2605 1.314 . S
C2604 C2606 1.353 . S
C2604 H2610 0.930 . S
N2605 Li2555 1.990 . S
N2605 C2604 1.314 . S
N2605 C2608 1.279 . S
C2606 C2604 1.353 . S
C2606 C2609 1.348 . S
C2606 H2638 0.929 . S
C2607 C2608 1.358 . S
C2607 C2609 1.356 . S
C2607 H2639 0.930 . S
C2608 N2605 1.279 . S
C2608 C2607 1.358 . S
C2608 H2611 0.930 . S
C2609 C2606 1.348 . S
C2609 C2607 1.356 . S
H2610 C2604 0.930 . S
H2611 C2608 0.930 . S
O2612 Li2552 1.956 . S
O2612 Li2553 1.970 . S
O2612 Li2554 1.961 . S
O2612 C2556 1.325 . S
O2613 Li2552 1.970 . S
O2613 Li2553 1.956 . S
O2613 Li2555 1.961 . S
O2613 C2562 1.325 . S
O2614 Li2552 1.961 . S
O2614 Li2554 1.956 . S
O2614 Li2555 1.970 . S
O2614 C2584 1.325 . S
O2615 Li2553 1.961 . S
O2615 Li2554 1.970 . S
O2615 Li2555 1.956 . S
O2615 C2590 1.325 . S
H2616 C2558 0.929 . S
H2617 C2559 0.930 . S
H2618 C2560 0.930 . S
H2619 C2561 0.930 . S
H2620 C2563 0.930 . S
H2621 C2565 0.929 . S
H2622 C2566 0.930 . S
H2623 C2567 0.930 . S
H2624 C2570 0.930 . S
H2625 C2573 0.929 . S
H2626 C2578 0.929 . S
H2627 C2579 0.930 . S
H2628 C2586 0.929 . S
H2629 C2587 0.930 . S
H2630 C2588 0.930 . S
H2631 C2589 0.930 . S
H2632 C2591 0.929 . S
H2633 C2592 0.930 . S
H2634 C2593 0.930 . S
H2635 C2594 0.930 . S
H2636 C2598 0.929 . S
H2637 C2600 0.930 . S
H2638 C2606 0.929 . S
H2639 C2607 0.930 . S
Li2640 N2657 1.990 . S
Li2640 O2700 1.956 . S
Li2640 O2701 1.970 . S
Li2640 O2702 1.961 . S
Li2641 N2665 1.990 . S
Li2641 O2700 1.970 . S
Li2641 O2701 1.956 . S
Li2641 O2703 1.961 . S
Li2642 N2687 1.990 . S
Li2642 O2700 1.961 . S
Li2642 O2702 1.956 . S
Li2642 O2703 1.970 . S
Li2643 N2693 1.990 . S
Li2643 O2701 1.961 . S
Li2643 O2702 1.970 . S
Li2643 O2703 1.956 . S
C2644 C2646 1.348 . S
C2644 C2647 1.356 . S
C2644 O2700 1.325 . S
N2645 C2648 1.314 . S
N2645 C2649 1.279 . S
C2646 C2644 1.348 . S
C2646 C2648 1.353 . S
C2646 H2704 0.929 . S
C2647 C2644 1.356 . S
C2647 C2649 1.358 . S
C2647 H2705 0.930 . S
C2648 N2645 1.314 . S
C2648 C2646 1.353 . S
C2648 H2706 0.930 . S
C2649 N2645 1.279 . S
C2649 C2647 1.358 . S
C2649 H2707 0.930 . S
C2650 C2653 1.348 . S
C2650 C2654 1.356 . S
C2650 O2701 1.325 . S
C2651 N2652 1.279 . S
C2651 C2654 1.358 . S
C2651 H2708 0.930 . S
N2652 C2651 1.279 . S
N2652 C2655 1.314 . S
C2653 C2650 1.348 . S
C2653 C2655 1.353 . S
C2653 H2709 0.929 . S
C2654 C2650 1.356 . S
C2654 C2651 1.358 . S
C2654 H2710 0.930 . S
C2655 N2652 1.314 . S
C2655 C2653 1.353 . S
C2655 H2711 0.930 . S
C2656 N2657 1.314 . S
C2656 C2661 1.353 . S
C2656 H2662 0.930 . S
N2657 Li2640 1.990 . S
N2657 C2656 1.314 . S
N2657 C2659 1.279 . S
C2658 C2659 1.358 . S
C2658 C2660 1.356 . S
C2658 H2712 0.930 . S
C2659 N2657 1.279 . S
C2659 C2658 1.358 . S
C2659 H2663 0.930 . S
C2660 C2658 1.356 . S
C2660 C2661 1.348 . S
C2661 C2656 1.353 . S
C2661 C2660 1.348 . S
C2661 H2713 0.929 . S
H2662 C2656 0.930 . S
H2663 C2659 0.930 . S
C2664 N2665 1.314 . S
C2664 C2666 1.353 . S
C2664 H2670 0.930 . S
N2665 Li2641 1.990 . S
N2665 C2664 1.314 . S
N2665 C2668 1.279 . S
C2666 C2664 1.353 . S
C2666 C2669 1.348 . S
C2666 H2714 0.929 . S
C2667 C2668 1.358 . S
C2667 C2669 1.356 . S
C2667 H2715 0.930 . S
C2668 N2665 1.279 . S
C2668 C2667 1.358 . S
C2668 H2671 0.930 . S
C2669 C2666 1.348 . S
C2669 C2667 1.356 . S
H2670 C2664 0.930 . S
H2671 C2668 0.930 . S
C2672 C2674 1.348 . S
C2672 C2675 1.356 . S
C2672 O2702 1.325 . S
N2673 C2676 1.314 . S
N2673 C2677 1.279 . S
C2674 C2672 1.348 . S
C2674 C2676 1.353 . S
C2674 H2716 0.929 . S
C2675 C2672 1.356 . S
C2675 C2677 1.358 . S
C2675 H2717 0.930 . S
C2676 N2673 1.314 . S
C2676 C2674 1.353 . S
C2676 H2718 0.930 . S
C2677 N2673 1.279 . S
C2677 C2675 1.358 . S
C2677 H2719 0.930 . S
C2678 C2679 1.348 . S
C2678 C2680 1.356 . S
C2678 O2703 1.325 . S
C2679 C2678 1.348 . S
C2679 C2681 1.353 . S
C2679 H2720 0.929 . S
C2680 C2678 1.356 . S
C2680 C2682 1.358 . S
C2680 H2721 0.930 . S
C2681 C2679 1.353 . S
C2681 N2683 1.314 . S
C2681 H2722 0.930 . S
C2682 C2680 1.358 . S
C2682 N2683 1.279 . S
C2682 H2723 0.930 . S
N2683 C2681 1.314 . S
N2683 C2682 1.279 . S
C2684 C2686 1.353 . S
C2684 N2687 1.314 . S
C2684 H2690 0.930 . S
C2685 N2687 1.279 . S
C2685 C2688 1.358 . S
C2685 H2691 0.930 . S
C2686 C2684 1.353 . S
C2686 C2689 1.348 . S
C2686 H2724 0.929 . S
N2687 Li2642 1.990 . S
N2687 C2684 1.314 . S
N2687 C2685 1.279 . S
C2688 C2685 1.358 . S
C2688 C2689 1.356 . S
C2688 H2725 0.930 . S
C2689 C2686 1.348 . S
C2689 C2688 1.356 . S
H2690 C2684 0.930 . S
H2691 C2685 0.930 . S
C2692 N2693 1.314 . S
C2692 C2694 1.353 . S
C2692 H2698 0.930 . S
N2693 Li2643 1.990 . S
N2693 C2692 1.314 . S
N2693 C2696 1.279 . S
C2694 C2692 1.353 . S
C2694 C2697 1.348 . S
C2694 H2726 0.929 . S
C2695 C2696 1.358 . S
C2695 C2697 1.356 . S
C2695 H2727 0.930 . S
C2696 N2693 1.279 . S
C2696 C2695 1.358 . S
C2696 H2699 0.930 . S
C2697 C2694 1.348 . S
C2697 C2695 1.356 . S
H2698 C2692 0.930 . S
H2699 C2696 0.930 . S
O2700 Li2640 1.956 . S
O2700 Li2641 1.970 . S
O2700 Li2642 1.961 . S
O2700 C2644 1.325 . S
O2701 Li2640 1.970 . S
O2701 Li2641 1.956 . S
O2701 Li2643 1.961 . S
O2701 C2650 1.325 . S
O2702 Li2640 1.961 . S
O2702 Li2642 1.956 . S
O2702 Li2643 1.970 . S
O2702 C2672 1.325 . S
O2703 Li2641 1.961 . S
O2703 Li2642 1.970 . S
O2703 Li2643 1.956 . S
O2703 C2678 1.325 . S
H2704 C2646 0.929 . S
H2705 C2647 0.930 . S
H2706 C2648 0.930 . S
H2707 C2649 0.930 . S
H2708 C2651 0.930 . S
H2709 C2653 0.929 . S
H2710 C2654 0.930 . S
H2711 C2655 0.930 . S
H2712 C2658 0.930 . S
H2713 C2661 0.929 . S
H2714 C2666 0.929 . S
H2715 C2667 0.930 . S
H2716 C2674 0.929 . S
H2717 C2675 0.930 . S
H2718 C2676 0.930 . S
H2719 C2677 0.930 . S
H2720 C2679 0.929 . S
H2721 C2680 0.930 . S
H2722 C2681 0.930 . S
H2723 C2682 0.930 . S
H2724 C2686 0.929 . S
H2725 C2688 0.930 . S
H2726 C2694 0.929 . S
H2727 C2695 0.930 . S
Li2728 N2745 1.990 . S
Li2728 O2788 1.956 . S
Li2728 O2789 1.970 . S
Li2728 O2790 1.961 . S
Li2729 N2753 1.990 . S
Li2729 O2788 1.970 . S
Li2729 O2789 1.956 . S
Li2729 O2791 1.961 . S
Li2730 N2775 1.990 . S
Li2730 O2788 1.961 . S
Li2730 O2790 1.956 . S
Li2730 O2791 1.970 . S
Li2731 N2781 1.990 . S
Li2731 O2789 1.961 . S
Li2731 O2790 1.970 . S
Li2731 O2791 1.956 . S
C2732 C2734 1.348 . S
C2732 C2735 1.356 . S
C2732 O2788 1.325 . S
N2733 C2736 1.314 . S
N2733 C2737 1.279 . S
C2734 C2732 1.348 . S
C2734 C2736 1.353 . S
C2734 H2792 0.929 . S
C2735 C2732 1.356 . S
C2735 C2737 1.358 . S
C2735 H2793 0.930 . S
C2736 N2733 1.314 . S
C2736 C2734 1.353 . S
C2736 H2794 0.930 . S
C2737 N2733 1.279 . S
C2737 C2735 1.358 . S
C2737 H2795 0.930 . S
C2738 C2741 1.348 . S
C2738 C2742 1.356 . S
C2738 O2789 1.325 . S
C2739 N2740 1.279 . S
C2739 C2742 1.358 . S
C2739 H2796 0.930 . S
N2740 C2739 1.279 . S
N2740 C2743 1.314 . S
C2741 C2738 1.348 . S
C2741 C2743 1.353 . S
C2741 H2797 0.929 . S
C2742 C2738 1.356 . S
C2742 C2739 1.358 . S
C2742 H2798 0.930 . S
C2743 N2740 1.314 . S
C2743 C2741 1.353 . S
C2743 H2799 0.930 . S
C2744 N2745 1.314 . S
C2744 C2749 1.353 . S
C2744 H2750 0.930 . S
N2745 Li2728 1.990 . S
N2745 C2744 1.314 . S
N2745 C2747 1.279 . S
C2746 C2747 1.358 . S
C2746 C2748 1.356 . S
C2746 H2800 0.930 . S
C2747 N2745 1.279 . S
C2747 C2746 1.358 . S
C2747 H2751 0.930 . S
C2748 C2746 1.356 . S
C2748 C2749 1.348 . S
C2749 C2744 1.353 . S
C2749 C2748 1.348 . S
C2749 H2801 0.929 . S
H2750 C2744 0.930 . S
H2751 C2747 0.930 . S
C2752 N2753 1.314 . S
C2752 C2754 1.353 . S
C2752 H2758 0.930 . S
N2753 Li2729 1.990 . S
N2753 C2752 1.314 . S
N2753 C2756 1.279 . S
C2754 C2752 1.353 . S
C2754 C2757 1.348 . S
C2754 H2802 0.929 . S
C2755 C2756 1.358 . S
C2755 C2757 1.356 . S
C2755 H2803 0.930 . S
C2756 N2753 1.279 . S
C2756 C2755 1.358 . S
C2756 H2759 0.930 . S
C2757 C2754 1.348 . S
C2757 C2755 1.356 . S
H2758 C2752 0.930 . S
H2759 C2756 0.930 . S
C2760 C2762 1.348 . S
C2760 C2763 1.356 . S
C2760 O2790 1.325 . S
N2761 C2764 1.314 . S
N2761 C2765 1.279 . S
C2762 C2760 1.348 . S
C2762 C2764 1.353 . S
C2762 H2804 0.929 . S
C2763 C2760 1.356 . S
C2763 C2765 1.358 . S
C2763 H2805 0.930 . S
C2764 N2761 1.314 . S
C2764 C2762 1.353 . S
C2764 H2806 0.930 . S
C2765 N2761 1.279 . S
C2765 C2763 1.358 . S
C2765 H2807 0.930 . S
C2766 C2767 1.348 . S
C2766 C2768 1.356 . S
C2766 O2791 1.325 . S
C2767 C2766 1.348 . S
C2767 C2769 1.353 . S
C2767 H2808 0.929 . S
C2768 C2766 1.356 . S
C2768 C2770 1.358 . S
C2768 H2809 0.930 . S
C2769 C2767 1.353 . S
C2769 N2771 1.314 . S
C2769 H2810 0.930 . S
C2770 C2768 1.358 . S
C2770 N2771 1.279 . S
C2770 H2811 0.930 . S
N2771 C2769 1.314 . S
N2771 C2770 1.279 . S
C2772 C2774 1.353 . S
C2772 N2775 1.314 . S
C2772 H2778 0.930 . S
C2773 N2775 1.279 . S
C2773 C2776 1.358 . S
C2773 H2779 0.930 . S
C2774 C2772 1.353 . S
C2774 C2777 1.348 . S
C2774 H2812 0.929 . S
N2775 Li2730 1.990 . S
N2775 C2772 1.314 . S
N2775 C2773 1.279 . S
C2776 C2773 1.358 . S
C2776 C2777 1.356 . S
C2776 H2813 0.930 . S
C2777 C2774 1.348 . S
C2777 C2776 1.356 . S
H2778 C2772 0.930 . S
H2779 C2773 0.930 . S
C2780 N2781 1.314 . S
C2780 C2782 1.353 . S
C2780 H2786 0.930 . S
N2781 Li2731 1.990 . S
N2781 C2780 1.314 . S
N2781 C2784 1.279 . S
C2782 C2780 1.353 . S
C2782 C2785 1.348 . S
C2782 H2814 0.929 . S
C2783 C2784 1.358 . S
C2783 C2785 1.356 . S
C2783 H2815 0.930 . S
C2784 N2781 1.279 . S
C2784 C2783 1.358 . S
C2784 H2787 0.930 . S
C2785 C2782 1.348 . S
C2785 C2783 1.356 . S
H2786 C2780 0.930 . S
H2787 C2784 0.930 . S
O2788 Li2728 1.956 . S
O2788 Li2729 1.970 . S
O2788 Li2730 1.961 . S
O2788 C2732 1.325 . S
O2789 Li2728 1.970 . S
O2789 Li2729 1.956 . S
O2789 Li2731 1.961 . S
O2789 C2738 1.325 . S
O2790 Li2728 1.961 . S
O2790 Li2730 1.956 . S
O2790 Li2731 1.970 . S
O2790 C2760 1.325 . S
O2791 Li2729 1.961 . S
O2791 Li2730 1.970 . S
O2791 Li2731 1.956 . S
O2791 C2766 1.325 . S
H2792 C2734 0.929 . S
H2793 C2735 0.930 . S
H2794 C2736 0.930 . S
H2795 C2737 0.930 . S
H2796 C2739 0.930 . S
H2797 C2741 0.929 . S
H2798 C2742 0.930 . S
H2799 C2743 0.930 . S
H2800 C2746 0.930 . S
H2801 C2749 0.929 . S
H2802 C2754 0.929 . S
H2803 C2755 0.930 . S
H2804 C2762 0.929 . S
H2805 C2763 0.930 . S
H2806 C2764 0.930 . S
H2807 C2765 0.930 . S
H2808 C2767 0.929 . S
H2809 C2768 0.930 . S
H2810 C2769 0.930 . S
H2811 C2770 0.930 . S
H2812 C2774 0.929 . S
H2813 C2776 0.930 . S
H2814 C2782 0.929 . S
H2815 C2783 0.930 . S
Li2816 N2833 1.990 . S
Li2816 O2876 1.956 . S
Li2816 O2877 1.970 . S
Li2816 O2878 1.961 . S
Li2817 N2841 1.990 . S
Li2817 O2876 1.970 . S
Li2817 O2877 1.956 . S
Li2817 O2879 1.961 . S
Li2818 N2863 1.990 . S
Li2818 O2876 1.961 . S
Li2818 O2878 1.956 . S
Li2818 O2879 1.970 . S
Li2819 N2869 1.990 . S
Li2819 O2877 1.961 . S
Li2819 O2878 1.970 . S
Li2819 O2879 1.956 . S
C2820 C2822 1.348 . S
C2820 C2823 1.356 . S
C2820 O2876 1.325 . S
N2821 C2824 1.314 . S
N2821 C2825 1.279 . S
C2822 C2820 1.348 . S
C2822 C2824 1.353 . S
C2822 H2880 0.929 . S
C2823 C2820 1.356 . S
C2823 C2825 1.358 . S
C2823 H2881 0.930 . S
C2824 N2821 1.314 . S
C2824 C2822 1.353 . S
C2824 H2882 0.930 . S
C2825 N2821 1.279 . S
C2825 C2823 1.358 . S
C2825 H2883 0.930 . S
C2826 C2829 1.348 . S
C2826 C2830 1.356 . S
C2826 O2877 1.325 . S
C2827 N2828 1.279 . S
C2827 C2830 1.358 . S
C2827 H2884 0.930 . S
N2828 C2827 1.279 . S
N2828 C2831 1.314 . S
C2829 C2826 1.348 . S
C2829 C2831 1.353 . S
C2829 H2885 0.929 . S
C2830 C2826 1.356 . S
C2830 C2827 1.358 . S
C2830 H2886 0.930 . S
C2831 N2828 1.314 . S
C2831 C2829 1.353 . S
C2831 H2887 0.930 . S
C2832 N2833 1.314 . S
C2832 C2837 1.353 . S
C2832 H2838 0.930 . S
N2833 Li2816 1.990 . S
N2833 C2832 1.314 . S
N2833 C2835 1.279 . S
C2834 C2835 1.358 . S
C2834 C2836 1.356 . S
C2834 H2888 0.930 . S
C2835 N2833 1.279 . S
C2835 C2834 1.358 . S
C2835 H2839 0.930 . S
C2836 C2834 1.356 . S
C2836 C2837 1.348 . S
C2837 C2832 1.353 . S
C2837 C2836 1.348 . S
C2837 H2889 0.929 . S
H2838 C2832 0.930 . S
H2839 C2835 0.930 . S
C2840 N2841 1.314 . S
C2840 C2842 1.353 . S
C2840 H2846 0.930 . S
N2841 Li2817 1.990 . S
N2841 C2840 1.314 . S
N2841 C2844 1.279 . S
C2842 C2840 1.353 . S
C2842 C2845 1.348 . S
C2842 H2890 0.929 . S
C2843 C2844 1.358 . S
C2843 C2845 1.356 . S
C2843 H2891 0.930 . S
C2844 N2841 1.279 . S
C2844 C2843 1.358 . S
C2844 H2847 0.930 . S
C2845 C2842 1.348 . S
C2845 C2843 1.356 . S
H2846 C2840 0.930 . S
H2847 C2844 0.930 . S
C2848 C2850 1.348 . S
C2848 C2851 1.356 . S
C2848 O2878 1.325 . S
N2849 C2852 1.314 . S
N2849 C2853 1.279 . S
C2850 C2848 1.348 . S
C2850 C2852 1.353 . S
C2850 H2892 0.929 . S
C2851 C2848 1.356 . S
C2851 C2853 1.358 . S
C2851 H2893 0.930 . S
C2852 N2849 1.314 . S
C2852 C2850 1.353 . S
C2852 H2894 0.930 . S
C2853 N2849 1.279 . S
C2853 C2851 1.358 . S
C2853 H2895 0.930 . S
C2854 C2855 1.348 . S
C2854 C2856 1.356 . S
C2854 O2879 1.325 . S
C2855 C2854 1.348 . S
C2855 C2857 1.353 . S
C2855 H2896 0.929 . S
C2856 C2854 1.356 . S
C2856 C2858 1.358 . S
C2856 H2897 0.930 . S
C2857 C2855 1.353 . S
C2857 N2859 1.314 . S
C2857 H2898 0.930 . S
C2858 C2856 1.358 . S
C2858 N2859 1.279 . S
C2858 H2899 0.930 . S
N2859 C2857 1.314 . S
N2859 C2858 1.279 . S
C2860 C2862 1.353 . S
C2860 N2863 1.314 . S
C2860 H2866 0.930 . S
C2861 N2863 1.279 . S
C2861 C2864 1.358 . S
C2861 H2867 0.930 . S
C2862 C2860 1.353 . S
C2862 C2865 1.348 . S
C2862 H2900 0.929 . S
N2863 Li2818 1.990 . S
N2863 C2860 1.314 . S
N2863 C2861 1.279 . S
C2864 C2861 1.358 . S
C2864 C2865 1.356 . S
C2864 H2901 0.930 . S
C2865 C2862 1.348 . S
C2865 C2864 1.356 . S
H2866 C2860 0.930 . S
H2867 C2861 0.930 . S
C2868 N2869 1.314 . S
C2868 C2870 1.353 . S
C2868 H2874 0.930 . S
N2869 Li2819 1.990 . S
N2869 C2868 1.314 . S
N2869 C2872 1.279 . S
C2870 C2868 1.353 . S
C2870 C2873 1.348 . S
C2870 H2902 0.929 . S
C2871 C2872 1.358 . S
C2871 C2873 1.356 . S
C2871 H2903 0.930 . S
C2872 N2869 1.279 . S
C2872 C2871 1.358 . S
C2872 H2875 0.930 . S
C2873 C2870 1.348 . S
C2873 C2871 1.356 . S
H2874 C2868 0.930 . S
H2875 C2872 0.930 . S
O2876 Li2816 1.956 . S
O2876 Li2817 1.970 . S
O2876 Li2818 1.961 . S
O2876 C2820 1.325 . S
O2877 Li2816 1.970 . S
O2877 Li2817 1.956 . S
O2877 Li2819 1.961 . S
O2877 C2826 1.325 . S
O2878 Li2816 1.961 . S
O2878 Li2818 1.956 . S
O2878 Li2819 1.970 . S
O2878 C2848 1.325 . S
O2879 Li2817 1.961 . S
O2879 Li2818 1.970 . S
O2879 Li2819 1.956 . S
O2879 C2854 1.325 . S
H2880 C2822 0.929 . S
H2881 C2823 0.930 . S
H2882 C2824 0.930 . S
H2883 C2825 0.930 . S
H2884 C2827 0.930 . S
H2885 C2829 0.929 . S
H2886 C2830 0.930 . S
H2887 C2831 0.930 . S
H2888 C2834 0.930 . S
H2889 C2837 0.929 . S
H2890 C2842 0.929 . S
H2891 C2843 0.930 . S
H2892 C2850 0.929 . S
H2893 C2851 0.930 . S
H2894 C2852 0.930 . S
H2895 C2853 0.930 . S
H2896 C2855 0.929 . S
H2897 C2856 0.930 . S
H2898 C2857 0.930 . S
H2899 C2858 0.930 . S
H2900 C2862 0.929 . S
H2901 C2864 0.930 . S
H2902 C2870 0.929 . S
H2903 C2871 0.930 . S
Li2904 N2921 1.990 . S
Li2904 O2964 1.956 . S
Li2904 O2965 1.970 . S
Li2904 O2966 1.961 . S
Li2905 N2929 1.990 . S
Li2905 O2964 1.970 . S
Li2905 O2965 1.956 . S
Li2905 O2967 1.961 . S
Li2906 N2951 1.990 . S
Li2906 O2964 1.961 . S
Li2906 O2966 1.956 . S
Li2906 O2967 1.970 . S
Li2907 N2957 1.990 . S
Li2907 O2965 1.961 . S
Li2907 O2966 1.970 . S
Li2907 O2967 1.956 . S
C2908 C2910 1.348 . S
C2908 C2911 1.356 . S
C2908 O2964 1.325 . S
N2909 C2912 1.314 . S
N2909 C2913 1.279 . S
C2910 C2908 1.348 . S
C2910 C2912 1.353 . S
C2910 H2968 0.929 . S
C2911 C2908 1.356 . S
C2911 C2913 1.358 . S
C2911 H2969 0.930 . S
C2912 N2909 1.314 . S
C2912 C2910 1.353 . S
C2912 H2970 0.930 . S
C2913 N2909 1.279 . S
C2913 C2911 1.358 . S
C2913 H2971 0.930 . S
C2914 C2917 1.348 . S
C2914 C2918 1.356 . S
C2914 O2965 1.325 . S
C2915 N2916 1.279 . S
C2915 C2918 1.358 . S
C2915 H2972 0.930 . S
N2916 C2915 1.279 . S
N2916 C2919 1.314 . S
C2917 C2914 1.348 . S
C2917 C2919 1.353 . S
C2917 H2973 0.929 . S
C2918 C2914 1.356 . S
C2918 C2915 1.358 . S
C2918 H2974 0.930 . S
C2919 N2916 1.314 . S
C2919 C2917 1.353 . S
C2919 H2975 0.930 . S
C2920 N2921 1.314 . S
C2920 C2925 1.353 . S
C2920 H2926 0.930 . S
N2921 Li2904 1.990 . S
N2921 C2920 1.314 . S
N2921 C2923 1.279 . S
C2922 C2923 1.358 . S
C2922 C2924 1.356 . S
C2922 H2976 0.930 . S
C2923 N2921 1.279 . S
C2923 C2922 1.358 . S
C2923 H2927 0.930 . S
C2924 C2922 1.356 . S
C2924 C2925 1.348 . S
C2925 C2920 1.353 . S
C2925 C2924 1.348 . S
C2925 H2977 0.929 . S
H2926 C2920 0.930 . S
H2927 C2923 0.930 . S
C2928 N2929 1.314 . S
C2928 C2930 1.353 . S
C2928 H2934 0.930 . S
N2929 Li2905 1.990 . S
N2929 C2928 1.314 . S
N2929 C2932 1.279 . S
C2930 C2928 1.353 . S
C2930 C2933 1.348 . S
C2930 H2978 0.929 . S
C2931 C2932 1.358 . S
C2931 C2933 1.356 . S
C2931 H2979 0.930 . S
C2932 N2929 1.279 . S
C2932 C2931 1.358 . S
C2932 H2935 0.930 . S
C2933 C2930 1.348 . S
C2933 C2931 1.356 . S
H2934 C2928 0.930 . S
H2935 C2932 0.930 . S
C2936 C2938 1.348 . S
C2936 C2939 1.356 . S
C2936 O2966 1.325 . S
N2937 C2940 1.314 . S
N2937 C2941 1.279 . S
C2938 C2936 1.348 . S
C2938 C2940 1.353 . S
C2938 H2980 0.929 . S
C2939 C2936 1.356 . S
C2939 C2941 1.358 . S
C2939 H2981 0.930 . S
C2940 N2937 1.314 . S
C2940 C2938 1.353 . S
C2940 H2982 0.930 . S
C2941 N2937 1.279 . S
C2941 C2939 1.358 . S
C2941 H2983 0.930 . S
C2942 C2943 1.348 . S
C2942 C2944 1.356 . S
C2942 O2967 1.325 . S
C2943 C2942 1.348 . S
C2943 C2945 1.353 . S
C2943 H2984 0.929 . S
C2944 C2942 1.356 . S
C2944 C2946 1.358 . S
C2944 H2985 0.930 . S
C2945 C2943 1.353 . S
C2945 N2947 1.314 . S
C2945 H2986 0.930 . S
C2946 C2944 1.358 . S
C2946 N2947 1.279 . S
C2946 H2987 0.930 . S
N2947 C2945 1.314 . S
N2947 C2946 1.279 . S
C2948 C2950 1.353 . S
C2948 N2951 1.314 . S
C2948 H2954 0.930 . S
C2949 N2951 1.279 . S
C2949 C2952 1.358 . S
C2949 H2955 0.930 . S
C2950 C2948 1.353 . S
C2950 C2953 1.348 . S
C2950 H2988 0.929 . S
N2951 Li2906 1.990 . S
N2951 C2948 1.314 . S
N2951 C2949 1.279 . S
C2952 C2949 1.358 . S
C2952 C2953 1.356 . S
C2952 H2989 0.930 . S
C2953 C2950 1.348 . S
C2953 C2952 1.356 . S
H2954 C2948 0.930 . S
H2955 C2949 0.930 . S
C2956 N2957 1.314 . S
C2956 C2958 1.353 . S
C2956 H2962 0.930 . S
N2957 Li2907 1.990 . S
N2957 C2956 1.314 . S
N2957 C2960 1.279 . S
C2958 C2956 1.353 . S
C2958 C2961 1.348 . S
C2958 H2990 0.929 . S
C2959 C2960 1.358 . S
C2959 C2961 1.356 . S
C2959 H2991 0.930 . S
C2960 N2957 1.279 . S
C2960 C2959 1.358 . S
C2960 H2963 0.930 . S
C2961 C2958 1.348 . S
C2961 C2959 1.356 . S
H2962 C2956 0.930 . S
H2963 C2960 0.930 . S
O2964 Li2904 1.956 . S
O2964 Li2905 1.970 . S
O2964 Li2906 1.961 . S
O2964 C2908 1.325 . S
O2965 Li2904 1.970 . S
O2965 Li2905 1.956 . S
O2965 Li2907 1.961 . S
O2965 C2914 1.325 . S
O2966 Li2904 1.961 . S
O2966 Li2906 1.956 . S
O2966 Li2907 1.970 . S
O2966 C2936 1.325 . S
O2967 Li2905 1.961 . S
O2967 Li2906 1.970 . S
O2967 Li2907 1.956 . S
O2967 C2942 1.325 . S
H2968 C2910 0.929 . S
H2969 C2911 0.930 . S
H2970 C2912 0.930 . S
H2971 C2913 0.930 . S
H2972 C2915 0.930 . S
H2973 C2917 0.929 . S
H2974 C2918 0.930 . S
H2975 C2919 0.930 . S
H2976 C2922 0.930 . S
H2977 C2925 0.929 . S
H2978 C2930 0.929 . S
H2979 C2931 0.930 . S
H2980 C2938 0.929 . S
H2981 C2939 0.930 . S
H2982 C2940 0.930 . S
H2983 C2941 0.930 . S
H2984 C2943 0.929 . S
H2985 C2944 0.930 . S
H2986 C2945 0.930 . S
H2987 C2946 0.930 . S
H2988 C2950 0.929 . S
H2989 C2952 0.930 . S
H2990 C2958 0.929 . S
H2991 C2959 0.930 . S
Li2992 N3009 1.990 . S
Li2992 O3052 1.956 . S
Li2992 O3053 1.970 . S
Li2992 O3054 1.961 . S
Li2993 N3017 1.990 . S
Li2993 O3052 1.970 . S
Li2993 O3053 1.956 . S
Li2993 O3055 1.961 . S
Li2994 N3039 1.990 . S
Li2994 O3052 1.961 . S
Li2994 O3054 1.956 . S
Li2994 O3055 1.970 . S
Li2995 N3045 1.990 . S
Li2995 O3053 1.961 . S
Li2995 O3054 1.970 . S
Li2995 O3055 1.956 . S
C2996 C2998 1.348 . S
C2996 C2999 1.356 . S
C2996 O3052 1.325 . S
N2997 C3000 1.314 . S
N2997 C3001 1.279 . S
C2998 C2996 1.348 . S
C2998 C3000 1.353 . S
C2998 H3056 0.929 . S
C2999 C2996 1.356 . S
C2999 C3001 1.358 . S
C2999 H3057 0.930 . S
C3000 N2997 1.314 . S
C3000 C2998 1.353 . S
C3000 H3058 0.930 . S
C3001 N2997 1.279 . S
C3001 C2999 1.358 . S
C3001 H3059 0.930 . S
C3002 C3005 1.348 . S
C3002 C3006 1.356 . S
C3002 O3053 1.325 . S
C3003 N3004 1.279 . S
C3003 C3006 1.358 . S
C3003 H3060 0.930 . S
N3004 C3003 1.279 . S
N3004 C3007 1.314 . S
C3005 C3002 1.348 . S
C3005 C3007 1.353 . S
C3005 H3061 0.929 . S
C3006 C3002 1.356 . S
C3006 C3003 1.358 . S
C3006 H3062 0.930 . S
C3007 N3004 1.314 . S
C3007 C3005 1.353 . S
C3007 H3063 0.930 . S
C3008 N3009 1.314 . S
C3008 C3013 1.353 . S
C3008 H3014 0.930 . S
N3009 Li2992 1.990 . S
N3009 C3008 1.314 . S
N3009 C3011 1.279 . S
C3010 C3011 1.358 . S
C3010 C3012 1.356 . S
C3010 H3064 0.930 . S
C3011 N3009 1.279 . S
C3011 C3010 1.358 . S
C3011 H3015 0.930 . S
C3012 C3010 1.356 . S
C3012 C3013 1.348 . S
C3013 C3008 1.353 . S
C3013 C3012 1.348 . S
C3013 H3065 0.929 . S
H3014 C3008 0.930 . S
H3015 C3011 0.930 . S
C3016 N3017 1.314 . S
C3016 C3018 1.353 . S
C3016 H3022 0.930 . S
N3017 Li2993 1.990 . S
N3017 C3016 1.314 . S
N3017 C3020 1.279 . S
C3018 C3016 1.353 . S
C3018 C3021 1.348 . S
C3018 H3066 0.929 . S
C3019 C3020 1.358 . S
C3019 C3021 1.356 . S
C3019 H3067 0.930 . S
C3020 N3017 1.279 . S
C3020 C3019 1.358 . S
C3020 H3023 0.930 . S
C3021 C3018 1.348 . S
C3021 C3019 1.356 . S
H3022 C3016 0.930 . S
H3023 C3020 0.930 . S
C3024 C3026 1.348 . S
C3024 C3027 1.356 . S
C3024 O3054 1.325 . S
N3025 C3028 1.314 . S
N3025 C3029 1.279 . S
C3026 C3024 1.348 . S
C3026 C3028 1.353 . S
C3026 H3068 0.929 . S
C3027 C3024 1.356 . S
C3027 C3029 1.358 . S
C3027 H3069 0.930 . S
C3028 N3025 1.314 . S
C3028 C3026 1.353 . S
C3028 H3070 0.930 . S
C3029 N3025 1.279 . S
C3029 C3027 1.358 . S
C3029 H3071 0.930 . S
C3030 C3031 1.348 . S
C3030 C3032 1.356 . S
C3030 O3055 1.325 . S
C3031 C3030 1.348 . S
C3031 C3033 1.353 . S
C3031 H3072 0.929 . S
C3032 C3030 1.356 . S
C3032 C3034 1.358 . S
C3032 H3073 0.930 . S
C3033 C3031 1.353 . S
C3033 N3035 1.314 . S
C3033 H3074 0.930 . S
C3034 C3032 1.358 . S
C3034 N3035 1.279 . S
C3034 H3075 0.930 . S
N3035 C3033 1.314 . S
N3035 C3034 1.279 . S
C3036 C3038 1.353 . S
C3036 N3039 1.314 . S
C3036 H3042 0.930 . S
C3037 N3039 1.279 . S
C3037 C3040 1.358 . S
C3037 H3043 0.930 . S
C3038 C3036 1.353 . S
C3038 C3041 1.348 . S
C3038 H3076 0.929 . S
N3039 Li2994 1.990 . S
N3039 C3036 1.314 . S
N3039 C3037 1.279 . S
C3040 C3037 1.358 . S
C3040 C3041 1.356 . S
C3040 H3077 0.930 . S
C3041 C3038 1.348 . S
C3041 C3040 1.356 . S
H3042 C3036 0.930 . S
H3043 C3037 0.930 . S
C3044 N3045 1.314 . S
C3044 C3046 1.353 . S
C3044 H3050 0.930 . S
N3045 Li2995 1.990 . S
N3045 C3044 1.314 . S
N3045 C3048 1.279 . S
C3046 C3044 1.353 . S
C3046 C3049 1.348 . S
C3046 H3078 0.929 . S
C3047 C3048 1.358 . S
C3047 C3049 1.356 . S
C3047 H3079 0.930 . S
C3048 N3045 1.279 . S
C3048 C3047 1.358 . S
C3048 H3051 0.930 . S
C3049 C3046 1.348 . S
C3049 C3047 1.356 . S
H3050 C3044 0.930 . S
H3051 C3048 0.930 . S
O3052 Li2992 1.956 . S
O3052 Li2993 1.970 . S
O3052 Li2994 1.961 . S
O3052 C2996 1.325 . S
O3053 Li2992 1.970 . S
O3053 Li2993 1.956 . S
O3053 Li2995 1.961 . S
O3053 C3002 1.325 . S
O3054 Li2992 1.961 . S
O3054 Li2994 1.956 . S
O3054 Li2995 1.970 . S
O3054 C3024 1.325 . S
O3055 Li2993 1.961 . S
O3055 Li2994 1.970 . S
O3055 Li2995 1.956 . S
O3055 C3030 1.325 . S
H3056 C2998 0.929 . S
H3057 C2999 0.930 . S
H3058 C3000 0.930 . S
H3059 C3001 0.930 . S
H3060 C3003 0.930 . S
H3061 C3005 0.929 . S
H3062 C3006 0.930 . S
H3063 C3007 0.930 . S
H3064 C3010 0.930 . S
H3065 C3013 0.929 . S
H3066 C3018 0.929 . S
H3067 C3019 0.930 . S
H3068 C3026 0.929 . S
H3069 C3027 0.930 . S
H3070 C3028 0.930 . S
H3071 C3029 0.930 . S
H3072 C3031 0.929 . S
H3073 C3032 0.930 . S
H3074 C3033 0.930 . S
H3075 C3034 0.930 . S
H3076 C3038 0.929 . S
H3077 C3040 0.930 . S
H3078 C3046 0.929 . S
H3079 C3047 0.930 . S
Li3080 N3097 1.990 . S
Li3080 O3140 1.956 . S
Li3080 O3141 1.970 . S
Li3080 O3142 1.961 . S
Li3081 N3105 1.990 . S
Li3081 O3140 1.970 . S
Li3081 O3141 1.956 . S
Li3081 O3143 1.961 . S
Li3082 N3127 1.990 . S
Li3082 O3140 1.961 . S
Li3082 O3142 1.956 . S
Li3082 O3143 1.970 . S
Li3083 N3133 1.990 . S
Li3083 O3141 1.961 . S
Li3083 O3142 1.970 . S
Li3083 O3143 1.956 . S
C3084 C3086 1.348 . S
C3084 C3087 1.356 . S
C3084 O3140 1.325 . S
N3085 C3088 1.314 . S
N3085 C3089 1.279 . S
C3086 C3084 1.348 . S
C3086 C3088 1.353 . S
C3086 H3144 0.929 . S
C3087 C3084 1.356 . S
C3087 C3089 1.358 . S
C3087 H3145 0.930 . S
C3088 N3085 1.314 . S
C3088 C3086 1.353 . S
C3088 H3146 0.930 . S
C3089 N3085 1.279 . S
C3089 C3087 1.358 . S
C3089 H3147 0.930 . S
C3090 C3093 1.348 . S
C3090 C3094 1.356 . S
C3090 O3141 1.325 . S
C3091 N3092 1.279 . S
C3091 C3094 1.358 . S
C3091 H3148 0.930 . S
N3092 C3091 1.279 . S
N3092 C3095 1.314 . S
C3093 C3090 1.348 . S
C3093 C3095 1.353 . S
C3093 H3149 0.929 . S
C3094 C3090 1.356 . S
C3094 C3091 1.358 . S
C3094 H3150 0.930 . S
C3095 N3092 1.314 . S
C3095 C3093 1.353 . S
C3095 H3151 0.930 . S
C3096 N3097 1.314 . S
C3096 C3101 1.353 . S
C3096 H3102 0.930 . S
N3097 Li3080 1.990 . S
N3097 C3096 1.314 . S
N3097 C3099 1.279 . S
C3098 C3099 1.358 . S
C3098 C3100 1.356 . S
C3098 H3152 0.930 . S
C3099 N3097 1.279 . S
C3099 C3098 1.358 . S
C3099 H3103 0.930 . S
C3100 C3098 1.356 . S
C3100 C3101 1.348 . S
C3101 C3096 1.353 . S
C3101 C3100 1.348 . S
C3101 H3153 0.929 . S
H3102 C3096 0.930 . S
H3103 C3099 0.930 . S
C3104 N3105 1.314 . S
C3104 C3106 1.353 . S
C3104 H3110 0.930 . S
N3105 Li3081 1.990 . S
N3105 C3104 1.314 . S
N3105 C3108 1.279 . S
C3106 C3104 1.353 . S
C3106 C3109 1.348 . S
C3106 H3154 0.929 . S
C3107 C3108 1.358 . S
C3107 C3109 1.356 . S
C3107 H3155 0.930 . S
C3108 N3105 1.279 . S
C3108 C3107 1.358 . S
C3108 H3111 0.930 . S
C3109 C3106 1.348 . S
C3109 C3107 1.356 . S
H3110 C3104 0.930 . S
H3111 C3108 0.930 . S
C3112 C3114 1.348 . S
C3112 C3115 1.356 . S
C3112 O3142 1.325 . S
N3113 C3116 1.314 . S
N3113 C3117 1.279 . S
C3114 C3112 1.348 . S
C3114 C3116 1.353 . S
C3114 H3156 0.929 . S
C3115 C3112 1.356 . S
C3115 C3117 1.358 . S
C3115 H3157 0.930 . S
C3116 N3113 1.314 . S
C3116 C3114 1.353 . S
C3116 H3158 0.930 . S
C3117 N3113 1.279 . S
C3117 C3115 1.358 . S
C3117 H3159 0.930 1_565 S
C3118 C3119 1.348 . S
C3118 C3120 1.356 . S
C3118 O3143 1.325 . S
C3119 C3118 1.348 . S
C3119 C3121 1.353 . S
C3119 H3160 0.929 . S
C3120 C3118 1.356 . S
C3120 C3122 1.358 . S
C3120 H3161 0.930 . S
C3121 C3119 1.353 . S
C3121 N3123 1.314 . S
C3121 H3162 0.930 . S
C3122 C3120 1.358 . S
C3122 N3123 1.279 . S
C3122 H3163 0.930 . S
N3123 C3121 1.314 . S
N3123 C3122 1.279 . S
C3124 C3126 1.353 . S
C3124 N3127 1.314 . S
C3124 H3130 0.930 . S
C3125 N3127 1.279 . S
C3125 C3128 1.358 . S
C3125 H3131 0.930 . S
C3126 C3124 1.353 . S
C3126 C3129 1.348 . S
C3126 H3164 0.929 . S
N3127 Li3082 1.990 . S
N3127 C3124 1.314 . S
N3127 C3125 1.279 . S
C3128 C3125 1.358 . S
C3128 C3129 1.356 . S
C3128 H3165 0.930 . S
C3129 C3126 1.348 . S
C3129 C3128 1.356 . S
H3130 C3124 0.930 . S
H3131 C3125 0.930 . S
C3132 N3133 1.314 . S
C3132 C3134 1.353 . S
C3132 H3138 0.930 . S
N3133 Li3083 1.990 . S
N3133 C3132 1.314 . S
N3133 C3136 1.279 . S
C3134 C3132 1.353 . S
C3134 C3137 1.348 . S
C3134 H3166 0.929 . S
C3135 C3136 1.358 . S
C3135 C3137 1.356 . S
C3135 H3167 0.930 . S
C3136 N3133 1.279 . S
C3136 C3135 1.358 . S
C3136 H3139 0.930 . S
C3137 C3134 1.348 . S
C3137 C3135 1.356 . S
H3138 C3132 0.930 . S
H3139 C3136 0.930 . S
O3140 Li3080 1.956 . S
O3140 Li3081 1.970 . S
O3140 Li3082 1.961 . S
O3140 C3084 1.325 . S
O3141 Li3080 1.970 . S
O3141 Li3081 1.956 . S
O3141 Li3083 1.961 . S
O3141 C3090 1.325 . S
O3142 Li3080 1.961 . S
O3142 Li3082 1.956 . S
O3142 Li3083 1.970 . S
O3142 C3112 1.325 . S
O3143 Li3081 1.961 . S
O3143 Li3082 1.970 . S
O3143 Li3083 1.956 . S
O3143 C3118 1.325 . S
H3144 C3086 0.929 . S
H3145 C3087 0.930 . S
H3146 C3088 0.930 . S
H3147 C3089 0.930 . S
H3148 C3091 0.930 . S
H3149 C3093 0.929 . S
H3150 C3094 0.930 . S
H3151 C3095 0.930 . S
H3152 C3098 0.930 . S
H3153 C3101 0.929 . S
H3154 C3106 0.929 . S
H3155 C3107 0.930 . S
H3156 C3114 0.929 . S
H3157 C3115 0.930 . S
H3158 C3116 0.930 . S
H3159 C3117 0.930 1_545 S
H3160 C3119 0.929 . S
H3161 C3120 0.930 . S
H3162 C3121 0.930 . S
H3163 C3122 0.930 . S
H3164 C3126 0.929 . S
H3165 C3128 0.930 . S
H3166 C3134 0.929 . S
H3167 C3135 0.930 . S
H3168 C3174 0.930 . S
H3169 C3177 0.930 . S
H3170 C3178 0.930 . S
H3171 C3179 0.930 . S
H3172 C3182 0.930 . S
H3173 C3183 0.930 . S
C3174 H3168 0.930 . S
C3174 C3175 1.355 . S
C3174 C3176 1.415 . S
C3175 C3174 1.355 . S
C3175 C3177 1.419 . S
C3176 C3174 1.415 . S
C3176 C3181 1.425 . S
C3176 C3183 1.409 . S
C3177 H3169 0.930 . S
C3177 C3175 1.419 . S
C3177 C3178 1.362 . S
C3178 H3170 0.930 . S
C3178 C3177 1.362 . S
C3178 C3181 1.409 . S
C3179 H3171 0.930 . S
C3179 C3180 1.355 . S
C3179 C3181 1.415 . S
C3180 C3179 1.355 . S
C3180 C3182 1.419 . S
C3181 C3176 1.425 . S
C3181 C3178 1.409 . S
C3181 C3179 1.415 . S
C3182 H3172 0.930 . S
C3182 C3180 1.419 . S
C3182 C3183 1.362 . S
C3183 H3173 0.930 . S
C3183 C3176 1.409 . S
C3183 C3182 1.362 . S
H3184 C3190 0.930 . S
H3185 C3193 0.930 . S
H3186 C3194 0.930 . S
H3187 C3195 0.930 . S
H3188 C3198 0.930 . S
H3189 C3199 0.930 . S
C3190 H3184 0.930 . S
C3190 C3191 1.355 . S
C3190 C3192 1.415 . S
C3191 C3190 1.355 . S
C3191 C3193 1.419 . S
C3192 C3190 1.415 . S
C3192 C3197 1.425 . S
C3192 C3199 1.409 . S
C3193 H3185 0.930 . S
C3193 C3191 1.419 . S
C3193 C3194 1.362 . S
C3194 H3186 0.930 . S
C3194 C3193 1.362 . S
C3194 C3197 1.409 . S
C3195 H3187 0.930 . S
C3195 C3196 1.355 . S
C3195 C3197 1.415 . S
C3196 C3195 1.355 . S
C3196 C3198 1.419 . S
C3197 C3192 1.425 . S
C3197 C3194 1.409 . S
C3197 C3195 1.415 . S
C3198 H3188 0.930 . S
C3198 C3196 1.419 . S
C3198 C3199 1.362 . S
C3199 H3189 0.930 . S
C3199 C3192 1.409 . S
C3199 C3198 1.362 . S
H3200 C3206 0.930 . S
H3201 C3209 0.930 . S
H3202 C3210 0.930 . S
H3203 C3211 0.930 . S
H3204 C3214 0.930 . S
H3205 C3215 0.930 . S
C3206 H3200 0.930 . S
C3206 C3207 1.355 . S
C3206 C3208 1.415 . S
C3207 C3206 1.355 . S
C3207 C3209 1.419 . S
C3208 C3206 1.415 . S
C3208 C3213 1.425 . S
C3208 C3215 1.409 . S
C3209 H3201 0.930 . S
C3209 C3207 1.419 . S
C3209 C3210 1.362 . S
C3210 H3202 0.930 . S
C3210 C3209 1.362 . S
C3210 C3213 1.409 . S
C3211 H3203 0.930 . S
C3211 C3212 1.355 . S
C3211 C3213 1.415 . S
C3212 C3211 1.355 . S
C3212 C3214 1.419 . S
C3213 C3208 1.425 . S
C3213 C3210 1.409 . S
C3213 C3211 1.415 . S
C3214 H3204 0.930 . S
C3214 C3212 1.419 . S
C3214 C3215 1.362 . S
C3215 H3205 0.930 . S
C3215 C3208 1.409 . S
C3215 C3214 1.362 . S
H3216 C3222 0.930 . S
H3217 C3225 0.930 . S
H3218 C3226 0.930 . S
H3219 C3227 0.930 . S
H3220 C3230 0.930 . S
H3221 C3231 0.930 . S
C3222 H3216 0.930 . S
C3222 C3223 1.355 . S
C3222 C3224 1.415 . S
C3223 C3222 1.355 . S
C3223 C3225 1.419 . S
C3224 C3222 1.415 . S
C3224 C3229 1.425 . S
C3224 C3231 1.409 . S
C3225 H3217 0.930 . S
C3225 C3223 1.419 . S
C3225 C3226 1.362 . S
C3226 H3218 0.930 . S
C3226 C3225 1.362 . S
C3226 C3229 1.409 . S
C3227 H3219 0.930 . S
C3227 C3228 1.355 . S
C3227 C3229 1.415 . S
C3228 C3227 1.355 . S
C3228 C3230 1.419 . S
C3229 C3224 1.425 . S
C3229 C3226 1.409 . S
C3229 C3227 1.415 . S
C3230 H3220 0.930 . S
C3230 C3228 1.419 . S
C3230 C3231 1.362 . S
C3231 H3221 0.930 . S
C3231 C3224 1.409 . S
C3231 C3230 1.362 . S
H3232 C3238 0.930 . S
H3233 C3241 0.930 . S
H3234 C3242 0.930 . S
H3235 C3243 0.930 . S
H3236 C3246 0.930 . S
H3237 C3247 0.930 . S
C3238 H3232 0.930 . S
C3238 C3239 1.355 . S
C3238 C3240 1.415 . S
C3239 C3238 1.355 . S
C3239 C3241 1.419 . S
C3240 C3238 1.415 . S
C3240 C3245 1.425 . S
C3240 C3247 1.409 . S
C3241 H3233 0.930 . S
C3241 C3239 1.419 . S
C3241 C3242 1.362 . S
C3242 H3234 0.930 . S
C3242 C3241 1.362 . S
C3242 C3245 1.409 . S
C3243 H3235 0.930 . S
C3243 C3244 1.355 . S
C3243 C3245 1.415 . S
C3244 C3243 1.355 . S
C3244 C3246 1.419 . S
C3245 C3240 1.425 . S
C3245 C3242 1.409 . S
C3245 C3243 1.415 . S
C3246 H3236 0.930 . S
C3246 C3244 1.419 . S
C3246 C3247 1.362 . S
C3247 H3237 0.930 . S
C3247 C3240 1.409 . S
C3247 C3246 1.362 . S
H3248 C3254 0.930 . S
H3249 C3257 0.930 . S
H3250 C3258 0.930 . S
H3251 C3259 0.930 . S
H3252 C3262 0.930 . S
H3253 C3263 0.930 . S
C3254 H3248 0.930 . S
C3254 C3255 1.355 . S
C3254 C3256 1.415 . S
C3255 C3254 1.355 . S
C3255 C3257 1.419 . S
C3256 C3254 1.415 . S
C3256 C3261 1.425 . S
C3256 C3263 1.409 . S
C3257 H3249 0.930 . S
C3257 C3255 1.419 . S
C3257 C3258 1.362 . S
C3258 H3250 0.930 . S
C3258 C3257 1.362 . S
C3258 C3261 1.409 . S
C3259 H3251 0.930 . S
C3259 C3260 1.355 . S
C3259 C3261 1.415 . S
C3260 C3259 1.355 . S
C3260 C3262 1.419 . S
C3261 C3256 1.425 . S
C3261 C3258 1.409 . S
C3261 C3259 1.415 . S
C3262 H3252 0.930 . S
C3262 C3260 1.419 . S
C3262 C3263 1.362 . S
C3263 H3253 0.930 . S
C3263 C3256 1.409 . S
C3263 C3262 1.362 . S
H3264 C3270 0.930 . S
H3265 C3273 0.930 . S
H3266 C3274 0.930 . S
H3267 C3275 0.930 . S
H3268 C3278 0.930 . S
H3269 C3279 0.930 . S
C3270 H3264 0.930 . S
C3270 C3271 1.355 . S
C3270 C3272 1.415 . S
C3271 C3270 1.355 . S
C3271 C3273 1.419 . S
C3272 C3270 1.415 . S
C3272 C3277 1.425 . S
C3272 C3279 1.409 . S
C3273 H3265 0.930 . S
C3273 C3271 1.419 . S
C3273 C3274 1.362 . S
C3274 H3266 0.930 . S
C3274 C3273 1.362 . S
C3274 C3277 1.409 . S
C3275 H3267 0.930 . S
C3275 C3276 1.355 . S
C3275 C3277 1.415 . S
C3276 C3275 1.355 . S
C3276 C3278 1.419 . S
C3277 C3272 1.425 . S
C3277 C3274 1.409 . S
C3277 C3275 1.415 . S
C3278 H3268 0.930 . S
C3278 C3276 1.419 . S
C3278 C3279 1.362 . S
C3279 H3269 0.930 . S
C3279 C3272 1.409 . S
C3279 C3278 1.362 . S
H3280 C3286 0.930 . S
H3281 C3289 0.930 . S
H3282 C3290 0.930 . S
H3283 C3291 0.930 . S
H3284 C3294 0.930 . S
H3285 C3295 0.930 . S
C3286 H3280 0.930 . S
C3286 C3287 1.355 . S
C3286 C3288 1.415 . S
C3287 C3286 1.355 . S
C3287 C3289 1.419 . S
C3288 C3286 1.415 . S
C3288 C3293 1.425 . S
C3288 C3295 1.409 . S
C3289 H3281 0.930 . S
C3289 C3287 1.419 . S
C3289 C3290 1.362 . S
C3290 H3282 0.930 . S
C3290 C3289 1.362 . S
C3290 C3293 1.409 . S
C3291 H3283 0.930 . S
C3291 C3292 1.355 . S
C3291 C3293 1.415 . S
C3292 C3291 1.355 . S
C3292 C3294 1.419 . S
C3293 C3288 1.425 . S
C3293 C3290 1.409 . S
C3293 C3291 1.415 . S
C3294 H3284 0.930 . S
C3294 C3292 1.419 . S
C3294 C3295 1.362 . S
C3295 H3285 0.930 . S
C3295 C3288 1.409 . S
C3295 C3294 1.362 . S
H3296 C3302 0.930 . S
H3297 C3305 0.930 . S
H3298 C3306 0.930 . S
H3299 C3307 0.930 . S
H3300 C3310 0.930 . S
H3301 C3311 0.930 . S
C3302 H3296 0.930 . S
C3302 C3303 1.355 . S
C3302 C3304 1.415 . S
C3303 C3302 1.355 . S
C3303 C3305 1.419 . S
C3304 C3302 1.415 . S
C3304 C3309 1.425 . S
C3304 C3311 1.409 . S
C3305 H3297 0.930 . S
C3305 C3303 1.419 . S
C3305 C3306 1.362 . S
C3306 H3298 0.930 . S
C3306 C3305 1.362 . S
C3306 C3309 1.409 . S
C3307 H3299 0.930 . S
C3307 C3308 1.355 . S
C3307 C3309 1.415 . S
C3308 C3307 1.355 . S
C3308 C3310 1.419 . S
C3309 C3304 1.425 . S
C3309 C3306 1.409 . S
C3309 C3307 1.415 . S
C3310 H3300 0.930 . S
C3310 C3308 1.419 . S
C3310 C3311 1.362 . S
C3311 H3301 0.930 . S
C3311 C3304 1.409 . S
C3311 C3310 1.362 . S
H3312 C3318 0.930 . S
H3313 C3321 0.930 . S
H3314 C3322 0.930 . S
H3315 C3323 0.930 . S
H3316 C3326 0.930 . S
H3317 C3327 0.930 . S
C3318 H3312 0.930 . S
C3318 C3319 1.355 . S
C3318 C3320 1.415 . S
C3319 C3318 1.355 . S
C3319 C3321 1.419 . S
C3320 C3318 1.415 . S
C3320 C3325 1.425 . S
C3320 C3327 1.409 . S
C3321 H3313 0.930 . S
C3321 C3319 1.419 . S
C3321 C3322 1.362 . S
C3322 H3314 0.930 . S
C3322 C3321 1.362 . S
C3322 C3325 1.409 . S
C3323 H3315 0.930 . S
C3323 C3324 1.355 . S
C3323 C3325 1.415 . S
C3324 C3323 1.355 . S
C3324 C3326 1.419 . S
C3325 C3320 1.425 . S
C3325 C3322 1.409 . S
C3325 C3323 1.415 . S
C3326 H3316 0.930 . S
C3326 C3324 1.419 . S
C3326 C3327 1.362 . S
C3327 H3317 0.930 . S
C3327 C3320 1.409 . S
C3327 C3326 1.362 . S
H3328 C3334 0.930 . S
H3329 C3337 0.930 . S
H3330 C3338 0.930 . S
H3331 C3339 0.930 . S
H3332 C3342 0.930 . S
H3333 C3343 0.930 . S
C3334 H3328 0.930 . S
C3334 C3335 1.355 . S
C3334 C3336 1.415 . S
C3335 C3334 1.355 . S
C3335 C3337 1.419 . S
C3336 C3334 1.415 . S
C3336 C3341 1.425 . S
C3336 C3343 1.409 . S
C3337 H3329 0.930 . S
C3337 C3335 1.419 . S
C3337 C3338 1.362 . S
C3338 H3330 0.930 . S
C3338 C3337 1.362 . S
C3338 C3341 1.409 . S
C3339 H3331 0.930 . S
C3339 C3340 1.355 . S
C3339 C3341 1.415 . S
C3340 C3339 1.355 . S
C3340 C3342 1.419 . S
C3341 C3336 1.425 . S
C3341 C3338 1.409 . S
C3341 C3339 1.415 . S
C3342 H3332 0.930 . S
C3342 C3340 1.419 . S
C3342 C3343 1.362 . S
C3343 H3333 0.930 . S
C3343 C3336 1.409 . S
C3343 C3342 1.362 . S
H3344 C3350 0.930 . S
H3345 C3353 0.930 . S
H3346 C3354 0.930 . S
H3347 C3355 0.930 . S
H3348 C3358 0.930 . S
H3349 C3359 0.930 . S
C3350 H3344 0.930 . S
C3350 C3351 1.355 . S
C3350 C3352 1.415 . S
C3351 C3350 1.355 . S
C3351 C3353 1.419 . S
C3352 C3350 1.415 . S
C3352 C3357 1.425 . S
C3352 C3359 1.409 . S
C3353 H3345 0.930 . S
C3353 C3351 1.419 . S
C3353 C3354 1.362 . S
C3354 H3346 0.930 . S
C3354 C3353 1.362 . S
C3354 C3357 1.409 . S
C3355 H3347 0.930 . S
C3355 C3356 1.355 . S
C3355 C3357 1.415 . S
C3356 C3355 1.355 . S
C3356 C3358 1.419 . S
C3357 C3352 1.425 . S
C3357 C3354 1.409 . S
C3357 C3355 1.415 . S
C3358 H3348 0.930 . S
C3358 C3356 1.419 . S
C3358 C3359 1.362 . S
C3359 H3349 0.930 . S
C3359 C3352 1.409 . S
C3359 C3358 1.362 . S
H3360 C3366 0.930 . S
H3361 C3369 0.930 . S
H3362 C3370 0.930 . S
H3363 C3371 0.930 . S
H3364 C3374 0.930 . S
H3365 C3375 0.930 . S
C3366 H3360 0.930 . S
C3366 C3367 1.355 . S
C3366 C3368 1.415 . S
C3367 C3366 1.355 . S
C3367 C3369 1.419 . S
C3368 C3366 1.415 . S
C3368 C3373 1.425 . S
C3368 C3375 1.409 . S
C3369 H3361 0.930 . S
C3369 C3367 1.419 . S
C3369 C3370 1.362 . S
C3370 H3362 0.930 . S
C3370 C3369 1.362 . S
C3370 C3373 1.409 . S
C3371 H3363 0.930 . S
C3371 C3372 1.355 . S
C3371 C3373 1.415 . S
C3372 C3371 1.355 . S
C3372 C3374 1.419 . S
C3373 C3368 1.425 . S
C3373 C3370 1.409 . S
C3373 C3371 1.415 . S
C3374 H3364 0.930 . S
C3374 C3372 1.419 . S
C3374 C3375 1.362 . S
C3375 H3365 0.930 . S
C3375 C3368 1.409 . S
C3375 C3374 1.362 . S
H3376 C3382 0.930 . S
H3377 C3385 0.930 . S
H3378 C3386 0.930 . S
H3379 C3387 0.930 . S
H3380 C3390 0.930 . S
H3381 C3391 0.930 . S
C3382 H3376 0.930 . S
C3382 C3383 1.355 . S
C3382 C3384 1.415 . S
C3383 C3382 1.355 . S
C3383 C3385 1.419 . S
C3384 C3382 1.415 . S
C3384 C3389 1.425 . S
C3384 C3391 1.409 . S
C3385 H3377 0.930 . S
C3385 C3383 1.419 . S
C3385 C3386 1.362 . S
C3386 H3378 0.930 . S
C3386 C3385 1.362 . S
C3386 C3389 1.409 . S
C3387 H3379 0.930 . S
C3387 C3388 1.355 . S
C3387 C3389 1.415 . S
C3388 C3387 1.355 . S
C3388 C3390 1.419 . S
C3389 C3384 1.425 . S
C3389 C3386 1.409 . S
C3389 C3387 1.415 . S
C3390 H3380 0.930 . S
C3390 C3388 1.419 . S
C3390 C3391 1.362 . S
C3391 H3381 0.930 . S
C3391 C3384 1.409 . S
C3391 C3390 1.362 . S
H3392 C3398 0.930 . S
H3393 C3401 0.930 . S
H3394 C3402 0.930 . S
H3395 C3403 0.930 . S
H3396 C3406 0.930 . S
H3397 C3407 0.930 . S
C3398 H3392 0.930 . S
C3398 C3399 1.355 . S
C3398 C3400 1.415 . S
C3399 C3398 1.355 . S
C3399 C3401 1.419 . S
C3400 C3398 1.415 . S
C3400 C3405 1.425 . S
C3400 C3407 1.409 . S
C3401 H3393 0.930 . S
C3401 C3399 1.419 . S
C3401 C3402 1.362 . S
C3402 H3394 0.930 . S
C3402 C3401 1.362 . S
C3402 C3405 1.409 . S
C3403 H3395 0.930 . S
C3403 C3404 1.355 . S
C3403 C3405 1.415 . S
C3404 C3403 1.355 . S
C3404 C3406 1.419 . S
C3405 C3400 1.425 . S
C3405 C3402 1.409 . S
C3405 C3403 1.415 . S
C3406 H3396 0.930 . S
C3406 C3404 1.419 . S
C3406 C3407 1.362 . S
C3407 H3397 0.930 . S
C3407 C3400 1.409 . S
C3407 C3406 1.362 . S
H3408 C3414 0.930 . S
H3409 C3417 0.930 . S
H3410 C3418 0.930 . S
H3411 C3419 0.930 . S
H3412 C3422 0.930 . S
H3413 C3423 0.930 . S
C3414 H3408 0.930 . S
C3414 C3415 1.355 . S
C3414 C3416 1.415 . S
C3415 C3414 1.355 . S
C3415 C3417 1.419 . S
C3416 C3414 1.415 . S
C3416 C3421 1.425 . S
C3416 C3423 1.409 . S
C3417 H3409 0.930 . S
C3417 C3415 1.419 . S
C3417 C3418 1.362 . S
C3418 H3410 0.930 . S
C3418 C3417 1.362 . S
C3418 C3421 1.409 . S
C3419 H3411 0.930 . S
C3419 C3420 1.355 . S
C3419 C3421 1.415 . S
C3420 C3419 1.355 . S
C3420 C3422 1.419 . S
C3421 C3416 1.425 . S
C3421 C3418 1.409 . S
C3421 C3419 1.415 . S
C3422 H3412 0.930 . S
C3422 C3420 1.419 . S
C3422 C3423 1.362 . S
C3423 H3413 0.930 . S
C3423 C3416 1.409 . S
C3423 C3422 1.362 . S
H3424 C3430 0.930 . S
H3425 C3433 0.930 . S
H3426 C3434 0.930 . S
H3427 C3435 0.930 . S
H3428 C3438 0.930 . S
H3429 C3439 0.930 . S
C3430 H3424 0.930 . S
C3430 C3431 1.355 . S
C3430 C3432 1.415 . S
C3431 C3430 1.355 . S
C3431 C3433 1.419 . S
C3432 C3430 1.415 . S
C3432 C3437 1.425 . S
C3432 C3439 1.409 . S
C3433 H3425 0.930 . S
C3433 C3431 1.419 . S
C3433 C3434 1.362 . S
C3434 H3426 0.930 . S
C3434 C3433 1.362 . S
C3434 C3437 1.409 . S
C3435 H3427 0.930 . S
C3435 C3436 1.355 . S
C3435 C3437 1.415 . S
C3436 C3435 1.355 . S
C3436 C3438 1.419 . S
C3437 C3432 1.425 . S
C3437 C3434 1.409 . S
C3437 C3435 1.415 . S
C3438 H3428 0.930 . S
C3438 C3436 1.419 . S
C3438 C3439 1.362 . S
C3439 H3429 0.930 . S
C3439 C3432 1.409 . S
C3439 C3438 1.362 . S
H3440 C3446 0.930 . S
H3441 C3449 0.930 . S
H3442 C3450 0.930 . S
H3443 C3451 0.930 . S
H3444 C3454 0.930 . S
H3445 C3455 0.930 . S
C3446 H3440 0.930 . S
C3446 C3447 1.355 . S
C3446 C3448 1.415 . S
C3447 C3446 1.355 . S
C3447 C3449 1.419 . S
C3448 C3446 1.415 . S
C3448 C3453 1.425 . S
C3448 C3455 1.409 . S
C3449 H3441 0.930 . S
C3449 C3447 1.419 . S
C3449 C3450 1.362 . S
C3450 H3442 0.930 . S
C3450 C3449 1.362 . S
C3450 C3453 1.409 . S
C3451 H3443 0.930 . S
C3451 C3452 1.355 . S
C3451 C3453 1.415 . S
C3452 C3451 1.355 . S
C3452 C3454 1.419 . S
C3453 C3448 1.425 . S
C3453 C3450 1.409 . S
C3453 C3451 1.415 . S
C3454 H3444 0.930 . S
C3454 C3452 1.419 . S
C3454 C3455 1.362 . S
C3455 H3445 0.930 . S
C3455 C3448 1.409 . S
C3455 C3454 1.362 . S
H3456 C3462 0.930 1_655 S
H3457 C3465 0.930 . S
H3458 C3466 0.930 . S
H3459 C3467 0.930 . S
H3460 C3470 0.930 . S
H3461 C3471 0.930 . S
C3462 H3456 0.930 1_455 S
C3462 C3463 1.355 . S
C3462 C3464 1.415 1_455 S
C3463 C3462 1.355 . S
C3463 C3465 1.419 . S
C3464 C3462 1.415 1_655 S
C3464 C3469 1.425 1_655 S
C3464 C3471 1.409 . S
C3465 H3457 0.930 . S
C3465 C3463 1.419 . S
C3465 C3466 1.362 . S
C3466 H3458 0.930 . S
C3466 C3465 1.362 . S
C3466 C3469 1.409 . S
C3467 H3459 0.930 . S
C3467 C3468 1.355 1_455 S
C3467 C3469 1.415 . S
C3468 C3467 1.355 1_655 S
C3468 C3470 1.419 . S
C3469 C3464 1.425 1_455 S
C3469 C3466 1.409 . S
C3469 C3467 1.415 . S
C3470 H3460 0.930 . S
C3470 C3468 1.419 . S
C3470 C3471 1.362 . S
C3471 H3461 0.930 . S
C3471 C3464 1.409 . S
C3471 C3470 1.362 . S
H3472 C3478 0.930 . S
H3473 C3481 0.930 . S
H3474 C3482 0.930 . S
H3475 C3483 0.930 . S
H3476 C3486 0.930 . S
H3477 C3487 0.930 . S
C3478 H3472 0.930 . S
C3478 C3479 1.355 . S
C3478 C3480 1.415 . S
C3479 C3478 1.355 . S
C3479 C3481 1.419 . S
C3480 C3478 1.415 . S
C3480 C3485 1.425 . S
C3480 C3487 1.409 . S
C3481 H3473 0.930 . S
C3481 C3479 1.419 . S
C3481 C3482 1.362 . S
C3482 H3474 0.930 . S
C3482 C3481 1.362 . S
C3482 C3485 1.409 . S
C3483 H3475 0.930 . S
C3483 C3484 1.355 . S
C3483 C3485 1.415 . S
C3484 C3483 1.355 . S
C3484 C3486 1.419 . S
C3485 C3480 1.425 . S
C3485 C3482 1.409 . S
C3485 C3483 1.415 . S
C3486 H3476 0.930 . S
C3486 C3484 1.419 . S
C3486 C3487 1.362 . S
C3487 H3477 0.930 . S
C3487 C3480 1.409 . S
C3487 C3486 1.362 . S
H3488 C3494 0.930 . S
H3489 C3497 0.930 . S
H3490 C3498 0.930 . S
H3491 C3499 0.930 . S
H3492 C3502 0.930 . S
H3493 C3503 0.930 . S
C3494 H3488 0.930 . S
C3494 C3495 1.355 . S
C3494 C3496 1.415 . S
C3495 C3494 1.355 . S
C3495 C3497 1.419 . S
C3496 C3494 1.415 . S
C3496 C3501 1.425 . S
C3496 C3503 1.409 . S
C3497 H3489 0.930 . S
C3497 C3495 1.419 . S
C3497 C3498 1.362 . S
C3498 H3490 0.930 . S
C3498 C3497 1.362 . S
C3498 C3501 1.409 . S
C3499 H3491 0.930 . S
C3499 C3500 1.355 . S
C3499 C3501 1.415 . S
C3500 C3499 1.355 . S
C3500 C3502 1.419 . S
C3501 C3496 1.425 . S
C3501 C3498 1.409 . S
C3501 C3499 1.415 . S
C3502 H3492 0.930 . S
C3502 C3500 1.419 . S
C3502 C3503 1.362 . S
C3503 H3493 0.930 . S
C3503 C3496 1.409 . S
C3503 C3502 1.362 . S
H3504 C3510 0.930 . S
H3505 C3513 0.930 . S
H3506 C3514 0.930 1_565 S
H3507 C3515 0.930 . S
H3508 C3518 0.930 . S
H3509 C3519 0.936 . S
C3510 H3504 0.930 . S
C3510 C3511 1.355 . S
C3510 C3512 1.415 . S
C3511 C3510 1.355 . S
C3511 C3513 1.419 . S
C3512 C3510 1.415 . S
C3512 C3517 1.425 1_545 S
C3512 C3519 1.453 . S
C3513 H3505 0.930 . S
C3513 C3511 1.419 . S
C3513 C3514 1.362 . S
C3514 H3506 0.930 1_545 S
C3514 C3513 1.362 . S
C3514 C3517 1.409 1_545 S
C3515 H3507 0.930 . S
C3515 C3516 1.355 . S
C3515 C3517 1.415 . S
C3516 C3515 1.355 . S
C3516 C3518 1.419 . S
C3517 C3512 1.425 1_565 S
C3517 C3514 1.409 1_565 S
C3517 C3515 1.415 . S
C3518 H3508 0.930 . S
C3518 C3516 1.419 . S
C3518 C3519 1.317 1_565 S
C3519 H3509 0.936 . S
C3519 C3512 1.453 . S
C3519 C3518 1.317 1_545 S
H3520 C3526 0.930 . S
H3521 C3529 0.930 . S
H3522 C3530 0.930 . S
H3523 C3531 0.930 . S
H3524 C3534 0.930 . S
H3525 C3535 0.930 . S
C3526 H3520 0.930 . S
C3526 C3527 1.355 . S
C3526 C3528 1.415 . S
C3527 C3526 1.355 . S
C3527 C3529 1.419 . S
C3528 C3526 1.415 . S
C3528 C3533 1.425 . S
C3528 C3535 1.409 . S
C3529 H3521 0.930 . S
C3529 C3527 1.419 . S
C3529 C3530 1.362 . S
C3530 H3522 0.930 . S
C3530 C3529 1.362 . S
C3530 C3533 1.409 . S
C3531 H3523 0.930 . S
C3531 C3532 1.355 . S
C3531 C3533 1.415 . S
C3532 C3531 1.355 . S
C3532 C3534 1.419 . S
C3533 C3528 1.425 . S
C3533 C3530 1.409 . S
C3533 C3531 1.415 . S
C3534 H3524 0.930 . S
C3534 C3532 1.419 . S
C3534 C3535 1.362 . S
C3535 H3525 0.930 . S
C3535 C3528 1.409 . S
C3535 C3534 1.362 . S
H3536 C3542 0.930 . S
H3537 C3545 0.930 . S
H3538 C3546 0.930 . S
H3539 C3547 0.930 . S
H3540 C3550 0.930 . S
H3541 C3551 0.930 . S
C3542 H3536 0.930 . S
C3542 C3543 1.355 . S
C3542 C3544 1.415 . S
C3543 C3542 1.355 . S
C3543 C3545 1.419 . S
C3544 C3542 1.415 . S
C3544 C3549 1.425 . S
C3544 C3551 1.409 . S
C3545 H3537 0.930 . S
C3545 C3543 1.419 . S
C3545 C3546 1.362 . S
C3546 H3538 0.930 . S
C3546 C3545 1.362 . S
C3546 C3549 1.409 . S
C3547 H3539 0.930 . S
C3547 C3548 1.355 . S
C3547 C3549 1.415 . S
C3548 C3547 1.355 . S
C3548 C3550 1.419 . S
C3549 C3544 1.425 . S
C3549 C3546 1.409 . S
C3549 C3547 1.415 . S
C3550 H3540 0.930 . S
C3550 C3548 1.419 . S
C3550 C3551 1.362 . S
C3551 H3541 0.930 . S
C3551 C3544 1.409 . S
C3551 C3550 1.362 . S
H3552 C3558 0.930 . S
H3553 C3561 0.930 . S
H3554 C3562 0.930 . S
H3555 C3563 0.930 . S
H3556 C3566 0.930 . S
H3557 C3567 0.930 . S
C3558 H3552 0.930 . S
C3558 C3559 1.355 . S
C3558 C3560 1.415 . S
C3559 C3558 1.355 . S
C3559 C3561 1.419 . S
C3560 C3558 1.415 . S
C3560 C3565 1.425 . S
C3560 C3567 1.409 . S
C3561 H3553 0.930 . S
C3561 C3559 1.419 . S
C3561 C3562 1.362 . S
C3562 H3554 0.930 . S
C3562 C3561 1.362 . S
C3562 C3565 1.409 . S
C3563 H3555 0.930 . S
C3563 C3564 1.355 . S
C3563 C3565 1.415 . S
C3564 C3563 1.355 . S
C3564 C3566 1.419 . S
C3565 C3560 1.425 . S
C3565 C3562 1.409 . S
C3565 C3563 1.415 . S
C3566 H3556 0.930 . S
C3566 C3564 1.419 . S
C3566 C3567 1.362 . S
C3567 H3557 0.930 . S
C3567 C3560 1.409 . S
C3567 C3566 1.362 . S
H3568 C3574 0.930 . S
H3569 C3577 0.930 . S
H3570 C3578 0.930 . S
H3571 C3579 0.930 . S
H3572 C3582 0.930 . S
H3573 C3583 0.930 . S
C3574 H3568 0.930 . S
C3574 C3575 1.355 . S
C3574 C3576 1.415 . S
C3575 C3574 1.355 . S
C3575 C3577 1.419 . S
C3576 C3574 1.415 . S
C3576 C3581 1.425 . S
C3576 C3583 1.409 . S
C3577 H3569 0.930 . S
C3577 C3575 1.419 . S
C3577 C3578 1.362 . S
C3578 H3570 0.930 . S
C3578 C3577 1.362 . S
C3578 C3581 1.409 . S
C3579 H3571 0.930 . S
C3579 C3580 1.355 . S
C3579 C3581 1.415 . S
C3580 C3579 1.355 . S
C3580 C3582 1.419 . S
C3581 C3576 1.425 . S
C3581 C3578 1.409 . S
C3581 C3579 1.415 . S
C3582 H3572 0.930 . S
C3582 C3580 1.419 . S
C3582 C3583 1.362 . S
C3583 H3573 0.930 . S
C3583 C3576 1.409 . S
C3583 C3582 1.362 . S
H3584 C3590 0.860 1_565 S
H3585 C3593 0.930 . S
H3586 C3594 0.930 . S
H3587 C3595 0.930 . S
H3588 C3598 0.930 . S
H3589 C3599 0.930 . S
C3590 H3584 0.860 1_545 S
C3590 C3591 1.412 . S
C3590 C3592 1.429 1_545 S
C3591 C3590 1.412 . S
C3591 C3593 1.419 . S
C3592 C3590 1.429 1_565 S
C3592 C3597 1.425 1_565 S
C3592 C3599 1.409 . S
C3593 H3585 0.930 . S
C3593 C3591 1.419 . S
C3593 C3594 1.362 . S
C3594 H3586 0.930 . S
C3594 C3593 1.362 . S
C3594 C3597 1.409 . S
C3595 H3587 0.930 . S
C3595 C3596 1.355 1_545 S
C3595 C3597 1.415 . S
C3596 C3595 1.355 1_565 S
C3596 C3598 1.419 . S
C3597 C3592 1.425 1_545 S
C3597 C3594 1.409 . S
C3597 C3595 1.415 . S
C3598 H3588 0.930 . S
C3598 C3596 1.419 . S
C3598 C3599 1.362 . S
C3599 H3589 0.930 . S
C3599 C3592 1.409 . S
C3599 C3598 1.362 . S
H3600 C3606 0.930 . S
H3601 C3609 0.930 . S
H3602 C3610 0.930 . S
H3603 C3611 0.930 . S
H3604 C3614 0.930 . S
H3605 C3615 0.930 . S
C3606 H3600 0.930 . S
C3606 C3607 1.355 . S
C3606 C3608 1.415 . S
C3607 C3606 1.355 . S
C3607 C3609 1.419 . S
C3608 C3606 1.415 . S
C3608 C3613 1.425 . S
C3608 C3615 1.409 . S
C3609 H3601 0.930 . S
C3609 C3607 1.419 . S
C3609 C3610 1.362 . S
C3610 H3602 0.930 . S
C3610 C3609 1.362 . S
C3610 C3613 1.409 . S
C3611 H3603 0.930 . S
C3611 C3612 1.355 . S
C3611 C3613 1.415 . S
C3612 C3611 1.355 . S
C3612 C3614 1.419 . S
C3613 C3608 1.425 . S
C3613 C3610 1.409 . S
C3613 C3611 1.415 . S
C3614 H3604 0.930 . S
C3614 C3612 1.419 . S
C3614 C3615 1.362 . S
C3615 H3605 0.930 . S
C3615 C3608 1.409 . S
C3615 C3614 1.362 . S
H3616 C3622 0.910 1_655 S
H3617 C3625 0.930 . S
H3618 C3626 0.930 . S
H3619 C3627 0.930 . S
H3620 C3630 0.930 . S
H3621 C3631 0.930 . S
C3622 H3616 0.910 1_455 S
C3622 C3623 1.371 . S
C3622 C3624 1.419 1_455 S
C3623 C3622 1.371 . S
C3623 C3625 1.419 . S
C3624 C3622 1.419 1_655 S
C3624 C3629 1.425 1_655 S
C3624 C3631 1.409 . S
C3625 H3617 0.930 . S
C3625 C3623 1.419 . S
C3625 C3626 1.362 . S
C3626 H3618 0.930 . S
C3626 C3625 1.362 . S
C3626 C3629 1.409 . S
C3627 H3619 0.930 . S
C3627 C3628 1.355 1_455 S
C3627 C3629 1.415 . S
C3628 C3627 1.355 1_655 S
C3628 C3630 1.419 . S
C3629 C3624 1.425 1_455 S
C3629 C3626 1.409 . S
C3629 C3627 1.415 . S
C3630 H3620 0.930 . S
C3630 C3628 1.419 . S
C3630 C3631 1.362 . S
C3631 H3621 0.930 . S
C3631 C3624 1.409 . S
C3631 C3630 1.362 . S
H3632 C3638 0.930 . S
H3633 C3641 0.930 . S
H3634 C3642 0.930 . S
H3635 C3643 0.930 . S
H3636 C3646 0.930 . S
H3637 C3647 0.930 . S
C3638 H3632 0.930 . S
C3638 C3639 1.355 . S
C3638 C3640 1.415 . S
C3639 C3638 1.355 . S
C3639 C3641 1.419 . S
C3640 C3638 1.415 . S
C3640 C3645 1.425 . S
C3640 C3647 1.409 . S
C3641 H3633 0.930 . S
C3641 C3639 1.419 . S
C3641 C3642 1.362 . S
C3642 H3634 0.930 . S
C3642 C3641 1.362 . S
C3642 C3645 1.409 . S
C3643 H3635 0.930 . S
C3643 C3644 1.355 . S
C3643 C3645 1.415 . S
C3644 C3643 1.355 . S
C3644 C3646 1.419 . S
C3645 C3640 1.425 . S
C3645 C3642 1.409 . S
C3645 C3643 1.415 . S
C3646 H3636 0.930 . S
C3646 C3644 1.419 . S
C3646 C3647 1.362 . S
C3647 H3637 0.930 . S
C3647 C3640 1.409 . S
C3647 C3646 1.362 . S
H3648 C3654 0.930 . S
H3649 C3657 0.930 . S
H3650 C3658 0.930 . S
H3651 C3659 0.930 . S
H3652 C3662 0.930 . S
H3653 C3663 0.930 . S
C3654 H3648 0.930 . S
C3654 C3655 1.355 . S
C3654 C3656 1.415 . S
C3655 C3654 1.355 . S
C3655 C3657 1.419 . S
C3656 C3654 1.415 . S
C3656 C3661 1.425 . S
C3656 C3663 1.409 . S
C3657 H3649 0.930 . S
C3657 C3655 1.419 . S
C3657 C3658 1.362 . S
C3658 H3650 0.930 . S
C3658 C3657 1.362 . S
C3658 C3661 1.409 . S
C3659 H3651 0.930 . S
C3659 C3660 1.355 . S
C3659 C3661 1.415 . S
C3660 C3659 1.355 . S
C3660 C3662 1.419 . S
C3661 C3656 1.425 . S
C3661 C3658 1.409 . S
C3661 C3659 1.415 . S
C3662 H3652 0.930 . S
C3662 C3660 1.419 . S
C3662 C3663 1.362 . S
C3663 H3653 0.930 . S
C3663 C3656 1.409 . S
C3663 C3662 1.362 . S
H3664 C3670 0.930 . S
H3665 C3673 0.930 . S
H3666 C3674 0.930 . S
H3667 C3675 0.930 1_565 S
H3668 C3678 0.930 . S
H3669 C3679 0.930 . S
C3670 H3664 0.930 . S
C3670 C3671 1.355 . S
C3670 C3672 1.415 . S
C3671 C3670 1.355 . S
C3671 C3673 1.419 . S
C3672 C3670 1.415 . S
C3672 C3677 1.425 . S
C3672 C3679 1.409 . S
C3673 H3665 0.930 . S
C3673 C3671 1.419 . S
C3673 C3674 1.362 . S
C3674 H3666 0.930 . S
C3674 C3673 1.362 . S
C3674 C3677 1.409 . S
C3675 H3667 0.930 1_545 S
C3675 C3676 1.355 1_545 S
C3675 C3677 1.415 . S
C3676 C3675 1.355 1_565 S
C3676 C3678 1.419 1_565 S
C3677 C3672 1.425 . S
C3677 C3674 1.409 . S
C3677 C3675 1.415 . S
C3678 H3668 0.930 . S
C3678 C3676 1.419 1_545 S
C3678 C3679 1.362 . S
C3679 H3669 0.930 . S
C3679 C3672 1.409 . S
C3679 C3678 1.362 . S
H3680 C3686 0.930 . S
H3681 C3689 0.930 . S
H3682 C3690 0.930 . S
H3683 C3691 0.930 . S
H3684 C3694 0.930 . S
H3685 C3695 0.930 . S
C3686 H3680 0.930 . S
C3686 C3687 1.355 1_455 S
C3686 C3688 1.415 . S
C3687 C3686 1.355 1_655 S
C3687 C3689 1.419 . S
C3688 C3686 1.415 . S
C3688 C3693 1.425 . S
C3688 C3695 1.409 . S
C3689 H3681 0.930 . S
C3689 C3687 1.419 . S
C3689 C3690 1.362 1_655 S
C3690 H3682 0.930 . S
C3690 C3689 1.362 1_455 S
C3690 C3693 1.409 . S
C3691 H3683 0.930 . S
C3691 C3692 1.355 . S
C3691 C3693 1.415 . S
C3692 C3691 1.355 . S
C3692 C3694 1.419 . S
C3693 C3688 1.425 . S
C3693 C3690 1.409 . S
C3693 C3691 1.415 . S
C3694 H3684 0.930 . S
C3694 C3692 1.419 . S
C3694 C3695 1.362 . S
C3695 H3685 0.930 . S
C3695 C3688 1.409 . S
C3695 C3694 1.362 . S
H3696 C3702 0.930 . S
H3697 C3705 0.930 . S
H3698 C3706 0.930 . S
H3699 C3707 0.930 . S
H3700 C3710 0.930 . S
H3701 C3711 0.930 . S
C3702 H3696 0.930 . S
C3702 C3703 1.355 . S
C3702 C3704 1.415 . S
C3703 C3702 1.355 . S
C3703 C3705 1.419 . S
C3704 C3702 1.415 . S
C3704 C3709 1.425 . S
C3704 C3711 1.409 . S
C3705 H3697 0.930 . S
C3705 C3703 1.419 . S
C3705 C3706 1.362 . S
C3706 H3698 0.930 . S
C3706 C3705 1.362 . S
C3706 C3709 1.409 . S
C3707 H3699 0.930 . S
C3707 C3708 1.355 . S
C3707 C3709 1.415 . S
C3708 C3707 1.355 . S
C3708 C3710 1.419 . S
C3709 C3704 1.425 . S
C3709 C3706 1.409 . S
C3709 C3707 1.415 . S
C3710 H3700 0.930 . S
C3710 C3708 1.419 . S
C3710 C3711 1.362 . S
C3711 H3701 0.930 . S
C3711 C3704 1.409 . S
C3711 C3710 1.362 . S
H3712 C3718 0.953 . S
H3713 C3721 0.930 . S
H3714 C3722 0.930 . S
H3715 C3723 0.930 . S
H3716 C3726 0.930 . S
H3717 C3727 0.930 . S
C3718 H3712 0.953 . S
C3718 C3719 1.355 1_545 S
C3718 C3720 1.415 . S
C3719 C3718 1.355 1_565 S
C3719 C3721 1.419 1_565 S
C3720 C3718 1.415 . S
C3720 C3725 1.425 . S
C3720 C3727 1.409 . S
C3721 H3713 0.930 . S
C3721 C3719 1.419 1_545 S
C3721 C3722 1.362 . S
C3722 H3714 0.930 . S
C3722 C3721 1.362 . S
C3722 C3725 1.409 . S
C3723 H3715 0.930 . S
C3723 C3724 1.355 . S
C3723 C3725 1.415 . S
C3724 C3723 1.355 . S
C3724 C3726 1.419 . S
C3725 C3720 1.425 . S
C3725 C3722 1.409 . S
C3725 C3723 1.415 . S
C3726 H3716 0.930 . S
C3726 C3724 1.419 . S
C3726 C3727 1.362 . S
C3727 H3717 0.930 . S
C3727 C3720 1.409 . S
C3727 C3726 1.362 . S
H3728 C3734 0.930 1_655 S
H3729 C3737 0.930 . S
H3730 C3738 0.930 . S
H3731 C3739 0.930 . S
H3732 C3742 0.930 . S
H3733 C3743 0.930 . S
C3734 H3728 0.930 1_455 S
C3734 C3735 1.355 1_455 S
C3734 C3736 1.415 . S
C3735 C3734 1.355 1_655 S
C3735 C3737 1.419 1_655 S
C3736 C3734 1.415 . S
C3736 C3741 1.425 . S
C3736 C3743 1.409 . S
C3737 H3729 0.930 . S
C3737 C3735 1.419 1_455 S
C3737 C3738 1.362 . S
C3738 H3730 0.930 . S
C3738 C3737 1.362 . S
C3738 C3741 1.409 . S
C3739 H3731 0.930 . S
C3739 C3740 1.355 . S
C3739 C3741 1.415 . S
C3740 C3739 1.355 . S
C3740 C3742 1.419 . S
C3741 C3736 1.425 . S
C3741 C3738 1.409 . S
C3741 C3739 1.415 . S
C3742 H3732 0.930 . S
C3742 C3740 1.419 . S
C3742 C3743 1.362 . S
C3743 H3733 0.930 . S
C3743 C3736 1.409 . S
C3743 C3742 1.362 . S
H3744 C3750 0.930 . S
H3745 C3753 0.930 . S
H3746 C3754 0.930 . S
H3747 C3755 0.930 . S
H3748 C3758 0.930 . S
H3749 C3759 0.930 . S
C3750 H3744 0.930 . S
C3750 C3751 1.355 . S
C3750 C3752 1.415 . S
C3751 C3750 1.355 . S
C3751 C3753 1.419 . S
C3752 C3750 1.415 . S
C3752 C3757 1.425 1_554 S
C3752 C3759 1.409 1_554 S
C3753 H3745 0.930 . S
C3753 C3751 1.419 . S
C3753 C3754 1.362 . S
C3754 H3746 0.930 . S
C3754 C3753 1.362 . S
C3754 C3757 1.409 1_554 S
C3755 H3747 0.930 . S
C3755 C3756 1.355 . S
C3755 C3757 1.415 . S
C3756 C3755 1.355 . S
C3756 C3758 1.419 . S
C3757 C3752 1.425 1_556 S
C3757 C3754 1.409 1_556 S
C3757 C3755 1.415 . S
C3758 H3748 0.930 . S
C3758 C3756 1.419 . S
C3758 C3759 1.362 . S
C3759 H3749 0.930 . S
C3759 C3752 1.409 1_556 S
C3759 C3758 1.362 . S
H3760 C3766 0.930 . S
H3761 C3769 0.930 . S
H3762 C3770 0.930 . S
H3763 C3771 0.930 . S
H3764 C3774 0.930 . S
H3765 C3775 0.930 . S
C3766 H3760 0.930 . S
C3766 C3767 1.355 . S
C3766 C3768 1.415 . S
C3767 C3766 1.355 . S
C3767 C3769 1.419 . S
C3768 C3766 1.415 . S
C3768 C3773 1.425 1_556 S
C3768 C3775 1.409 1_556 S
C3769 H3761 0.930 . S
C3769 C3767 1.419 . S
C3769 C3770 1.362 . S
C3770 H3762 0.930 . S
C3770 C3769 1.362 . S
C3770 C3773 1.409 1_556 S
C3771 H3763 0.930 . S
C3771 C3772 1.355 . S
C3771 C3773 1.415 . S
C3772 C3771 1.355 . S
C3772 C3774 1.419 . S
C3773 C3768 1.425 1_554 S
C3773 C3770 1.409 1_554 S
C3773 C3771 1.415 . S
C3774 H3764 0.930 . S
C3774 C3772 1.419 . S
C3774 C3775 1.362 . S
C3775 H3765 0.930 . S
C3775 C3768 1.409 1_554 S
C3775 C3774 1.362 . S
H3776 C3782 0.930 . S
H3777 C3785 0.930 . S
H3778 C3786 0.930 . S
H3779 C3787 0.930 . S
H3780 C3790 0.930 . S
H3781 C3791 0.930 . S
C3782 H3776 0.930 . S
C3782 C3783 1.355 . S
C3782 C3784 1.415 . S
C3783 C3782 1.355 . S
C3783 C3785 1.419 . S
C3784 C3782 1.415 . S
C3784 C3789 1.425 1_556 S
C3784 C3791 1.409 1_556 S
C3785 H3777 0.930 . S
C3785 C3783 1.419 . S
C3785 C3786 1.362 . S
C3786 H3778 0.930 . S
C3786 C3785 1.362 . S
C3786 C3789 1.409 1_556 S
C3787 H3779 0.930 . S
C3787 C3788 1.355 . S
C3787 C3789 1.415 . S
C3788 C3787 1.355 . S
C3788 C3790 1.419 . S
C3789 C3784 1.425 1_554 S
C3789 C3786 1.409 1_554 S
C3789 C3787 1.415 . S
C3790 H3780 0.930 . S
C3790 C3788 1.419 . S
C3790 C3791 1.362 . S
C3791 H3781 0.930 . S
C3791 C3784 1.409 1_554 S
C3791 C3790 1.362 . S
H3792 C3798 0.930 . S
H3793 C3801 0.930 . S
H3794 C3802 0.930 . S
H3795 C3803 0.930 . S
H3796 C3806 0.930 . S
H3797 C3807 0.930 . S
C3798 H3792 0.930 . S
C3798 C3799 1.355 . S
C3798 C3800 1.415 . S
C3799 C3798 1.355 . S
C3799 C3801 1.419 . S
C3800 C3798 1.415 . S
C3800 C3805 1.425 1_556 S
C3800 C3807 1.409 1_556 S
C3801 H3793 0.930 . S
C3801 C3799 1.419 . S
C3801 C3802 1.362 . S
C3802 H3794 0.930 . S
C3802 C3801 1.362 . S
C3802 C3805 1.409 1_556 S
C3803 H3795 0.930 . S
C3803 C3804 1.355 . S
C3803 C3805 1.415 . S
C3804 C3803 1.355 . S
C3804 C3806 1.419 . S
C3805 C3800 1.425 1_554 S
C3805 C3802 1.409 1_554 S
C3805 C3803 1.415 . S
C3806 H3796 0.930 . S
C3806 C3804 1.419 . S
C3806 C3807 1.362 . S
C3807 H3797 0.930 . S
C3807 C3800 1.409 1_554 S
C3807 C3806 1.362 . S
H3808 C3814 0.930 . S
H3809 C3817 0.930 . S
H3810 C3818 0.930 . S
H3811 C3819 0.930 . S
H3812 C3822 0.930 . S
H3813 C3823 0.930 . S
C3814 H3808 0.930 . S
C3814 C3815 1.355 . S
C3814 C3816 1.415 . S
C3815 C3814 1.355 . S
C3815 C3817 1.419 . S
C3816 C3814 1.415 . S
C3816 C3821 1.425 1_554 S
C3816 C3823 1.409 1_554 S
C3817 H3809 0.930 . S
C3817 C3815 1.419 . S
C3817 C3818 1.362 . S
C3818 H3810 0.930 . S
C3818 C3817 1.362 . S
C3818 C3821 1.409 1_554 S
C3819 H3811 0.930 . S
C3819 C3820 1.355 . S
C3819 C3821 1.415 . S
C3820 C3819 1.355 . S
C3820 C3822 1.419 . S
C3821 C3816 1.425 1_556 S
C3821 C3818 1.409 1_556 S
C3821 C3819 1.415 . S
C3822 H3812 0.930 . S
C3822 C3820 1.419 . S
C3822 C3823 1.362 . S
C3823 H3813 0.930 . S
C3823 C3816 1.409 1_556 S
C3823 C3822 1.362 . S
H3824 C3830 0.930 . S
H3825 C3833 0.930 . S
H3826 C3834 0.930 . S
H3827 C3835 0.930 . S
H3828 C3838 0.930 . S
H3829 C3839 0.930 . S
C3830 H3824 0.930 . S
C3830 C3831 1.355 . S
C3830 C3832 1.415 . S
C3831 C3830 1.355 . S
C3831 C3833 1.419 . S
C3832 C3830 1.415 . S
C3832 C3837 1.425 1_556 S
C3832 C3839 1.409 1_556 S
C3833 H3825 0.930 . S
C3833 C3831 1.419 . S
C3833 C3834 1.362 . S
C3834 H3826 0.930 . S
C3834 C3833 1.362 . S
C3834 C3837 1.409 1_556 S
C3835 H3827 0.930 . S
C3835 C3836 1.355 . S
C3835 C3837 1.415 . S
C3836 C3835 1.355 . S
C3836 C3838 1.419 . S
C3837 C3832 1.425 1_554 S
C3837 C3834 1.409 1_554 S
C3837 C3835 1.415 . S
C3838 H3828 0.930 . S
C3838 C3836 1.419 . S
C3838 C3839 1.362 . S
C3839 H3829 0.930 . S
C3839 C3832 1.409 1_554 S
C3839 C3838 1.362 . S
H3840 C3846 0.930 . S
H3841 C3849 0.930 . S
H3842 C3850 0.930 . S
H3843 C3851 0.930 . S
H3844 C3854 0.930 . S
H3845 C3855 0.930 . S
C3846 H3840 0.930 . S
C3846 C3847 1.355 . S
C3846 C3848 1.415 . S
C3847 C3846 1.355 . S
C3847 C3849 1.419 . S
C3848 C3846 1.415 . S
C3848 C3853 1.425 . S
C3848 C3855 1.409 . S
C3849 H3841 0.930 . S
C3849 C3847 1.419 . S
C3849 C3850 1.362 . S
C3850 H3842 0.930 . S
C3850 C3849 1.362 . S
C3850 C3853 1.409 . S
C3851 H3843 0.930 . S
C3851 C3852 1.355 . S
C3851 C3853 1.415 . S
C3852 C3851 1.355 . S
C3852 C3854 1.419 . S
C3853 C3848 1.425 . S
C3853 C3850 1.409 . S
C3853 C3851 1.415 . S
C3854 H3844 0.930 . S
C3854 C3852 1.419 . S
C3854 C3855 1.362 . S
C3855 H3845 0.930 . S
C3855 C3848 1.409 . S
C3855 C3854 1.362 . S
H3856 C3862 0.930 . S
H3857 C3865 0.930 . S
H3858 C3866 0.930 . S
H3859 C3867 0.930 . S
H3860 C3870 0.930 . S
H3861 C3871 0.930 . S
C3862 H3856 0.930 . S
C3862 C3863 1.355 . S
C3862 C3864 1.415 . S
C3863 C3862 1.355 . S
C3863 C3865 1.419 . S
C3864 C3862 1.415 . S
C3864 C3869 1.425 . S
C3864 C3871 1.409 . S
C3865 H3857 0.930 . S
C3865 C3863 1.419 . S
C3865 C3866 1.362 . S
C3866 H3858 0.930 . S
C3866 C3865 1.362 . S
C3866 C3869 1.409 . S
C3867 H3859 0.930 . S
C3867 C3868 1.355 . S
C3867 C3869 1.415 . S
C3868 C3867 1.355 . S
C3868 C3870 1.419 . S
C3869 C3864 1.425 . S
C3869 C3866 1.409 . S
C3869 C3867 1.415 . S
C3870 H3860 0.930 . S
C3870 C3868 1.419 . S
C3870 C3871 1.362 . S
C3871 H3861 0.930 . S
C3871 C3864 1.409 . S
C3871 C3870 1.362 . S
H3872 C3878 0.930 . S
H3873 C3881 0.930 . S
H3874 C3882 0.930 . S
H3875 C3883 0.930 . S
H3876 C3886 0.930 . S
H3877 C3887 0.930 . S
C3878 H3872 0.930 . S
C3878 C3879 1.355 . S
C3878 C3880 1.415 . S
C3879 C3878 1.355 . S
C3879 C3881 1.419 . S
C3880 C3878 1.415 . S
C3880 C3885 1.425 . S
C3880 C3887 1.409 . S
C3881 H3873 0.930 . S
C3881 C3879 1.419 . S
C3881 C3882 1.362 . S
C3882 H3874 0.930 . S
C3882 C3881 1.362 . S
C3882 C3885 1.409 . S
C3883 H3875 0.930 . S
C3883 C3884 1.355 . S
C3883 C3885 1.415 . S
C3884 C3883 1.355 . S
C3884 C3886 1.419 . S
C3885 C3880 1.425 . S
C3885 C3882 1.409 . S
C3885 C3883 1.415 . S
C3886 H3876 0.930 . S
C3886 C3884 1.419 . S
C3886 C3887 1.362 . S
C3887 H3877 0.930 . S
C3887 C3880 1.409 . S
C3887 C3886 1.362 . S
H3888 C3894 0.930 . S
H3889 C3897 0.930 . S
H3890 C3898 0.930 . S
H3891 C3899 0.930 . S
H3892 C3902 0.930 . S
H3893 C3903 0.930 . S
C3894 H3888 0.930 . S
C3894 C3895 1.355 . S
C3894 C3896 1.415 . S
C3895 C3894 1.355 . S
C3895 C3897 1.419 . S
C3896 C3894 1.415 . S
C3896 C3901 1.425 . S
C3896 C3903 1.409 . S
C3897 H3889 0.930 . S
C3897 C3895 1.419 . S
C3897 C3898 1.362 . S
C3898 H3890 0.930 . S
C3898 C3897 1.362 . S
C3898 C3901 1.409 . S
C3899 H3891 0.930 . S
C3899 C3900 1.355 . S
C3899 C3901 1.415 . S
C3900 C3899 1.355 . S
C3900 C3902 1.419 . S
C3901 C3896 1.425 . S
C3901 C3898 1.409 . S
C3901 C3899 1.415 . S
C3902 H3892 0.930 . S
C3902 C3900 1.419 . S
C3902 C3903 1.362 . S
C3903 H3893 0.930 . S
C3903 C3896 1.409 . S
C3903 C3902 1.362 . S
H3904 C3910 0.930 . S
H3905 C3913 0.930 . S
H3906 C3914 0.930 . S
H3907 C3915 0.930 . S
H3908 C3918 0.930 . S
H3909 C3919 0.930 . S
C3910 H3904 0.930 . S
C3910 C3911 1.355 . S
C3910 C3912 1.415 . S
C3911 C3910 1.355 . S
C3911 C3913 1.419 . S
C3912 C3910 1.415 . S
C3912 C3917 1.425 . S
C3912 C3919 1.409 . S
C3913 H3905 0.930 . S
C3913 C3911 1.419 . S
C3913 C3914 1.362 . S
C3914 H3906 0.930 . S
C3914 C3913 1.362 . S
C3914 C3917 1.409 . S
C3915 H3907 0.930 . S
C3915 C3916 1.355 . S
C3915 C3917 1.415 . S
C3916 C3915 1.355 . S
C3916 C3918 1.419 . S
C3917 C3912 1.425 . S
C3917 C3914 1.409 . S
C3917 C3915 1.415 . S
C3918 H3908 0.930 . S
C3918 C3916 1.419 . S
C3918 C3919 1.362 . S
C3919 H3909 0.930 . S
C3919 C3912 1.409 . S
C3919 C3918 1.362 . S
H3920 C3926 0.930 . S
H3921 C3929 0.930 . S
H3922 C3930 0.930 . S
H3923 C3931 0.930 . S
H3924 C3934 0.930 . S
H3925 C3935 0.930 . S
C3926 H3920 0.930 . S
C3926 C3927 1.355 . S
C3926 C3928 1.415 . S
C3927 C3926 1.355 . S
C3927 C3929 1.419 . S
C3928 C3926 1.415 . S
C3928 C3933 1.425 . S
C3928 C3935 1.409 . S
C3929 H3921 0.930 . S
C3929 C3927 1.419 . S
C3929 C3930 1.362 . S
C3930 H3922 0.930 . S
C3930 C3929 1.362 . S
C3930 C3933 1.409 . S
C3931 H3923 0.930 . S
C3931 C3932 1.355 . S
C3931 C3933 1.415 . S
C3932 C3931 1.355 . S
C3932 C3934 1.419 . S
C3933 C3928 1.425 . S
C3933 C3930 1.409 . S
C3933 C3931 1.415 . S
C3934 H3924 0.930 . S
C3934 C3932 1.419 . S
C3934 C3935 1.362 . S
C3935 H3925 0.930 . S
C3935 C3928 1.409 . S
C3935 C3934 1.362 . S
H3936 C3942 0.930 . S
H3937 C3945 0.930 . S
H3938 C3946 0.930 . S
H3939 C3947 0.930 . S
H3940 C3950 0.930 . S
H3941 C3951 0.930 . S
C3942 H3936 0.930 . S
C3942 C3943 1.355 . S
C3942 C3944 1.415 . S
C3943 C3942 1.355 . S
C3943 C3945 1.419 . S
C3944 C3942 1.415 . S
C3944 C3949 1.425 . S
C3944 C3951 1.409 . S
C3945 H3937 0.930 . S
C3945 C3943 1.419 . S
C3945 C3946 1.362 . S
C3946 H3938 0.930 . S
C3946 C3945 1.362 . S
C3946 C3949 1.409 . S
C3947 H3939 0.930 . S
C3947 C3948 1.355 . S
C3947 C3949 1.415 . S
C3948 C3947 1.355 . S
C3948 C3950 1.419 . S
C3949 C3944 1.425 . S
C3949 C3946 1.409 . S
C3949 C3947 1.415 . S
C3950 H3940 0.930 . S
C3950 C3948 1.419 . S
C3950 C3951 1.362 . S
C3951 H3941 0.930 . S
C3951 C3944 1.409 . S
C3951 C3950 1.362 . S
H3952 C3958 0.930 . S
H3953 C3961 0.930 . S
H3954 C3962 0.930 . S
H3955 C3963 0.930 . S
H3956 C3966 0.930 . S
H3957 C3967 0.930 . S
C3958 H3952 0.930 . S
C3958 C3959 1.355 . S
C3958 C3960 1.415 . S
C3959 C3958 1.355 . S
C3959 C3961 1.419 . S
C3960 C3958 1.415 . S
C3960 C3965 1.425 . S
C3960 C3967 1.409 . S
C3961 H3953 0.930 . S
C3961 C3959 1.419 . S
C3961 C3962 1.362 . S
C3962 H3954 0.930 . S
C3962 C3961 1.362 . S
C3962 C3965 1.409 . S
C3963 H3955 0.930 . S
C3963 C3964 1.355 . S
C3963 C3965 1.415 . S
C3964 C3963 1.355 . S
C3964 C3966 1.419 . S
C3965 C3960 1.425 . S
C3965 C3962 1.409 . S
C3965 C3963 1.415 . S
C3966 H3956 0.930 . S
C3966 C3964 1.419 . S
C3966 C3967 1.362 . S
C3967 H3957 0.930 . S
C3967 C3960 1.409 . S
C3967 C3966 1.362 . S
H3968 C3974 0.930 . S
H3969 C3977 0.930 . S
H3970 C3978 0.930 . S
H3971 C3979 0.930 . S
H3972 C3982 0.930 . S
H3973 C3983 0.930 . S
C3974 H3968 0.930 . S
C3974 C3975 1.355 . S
C3974 C3976 1.415 . S
C3975 C3974 1.355 . S
C3975 C3977 1.419 . S
C3976 C3974 1.415 . S
C3976 C3981 1.425 . S
C3976 C3983 1.409 . S
C3977 H3969 0.930 . S
C3977 C3975 1.419 . S
C3977 C3978 1.362 . S
C3978 H3970 0.930 . S
C3978 C3977 1.362 . S
C3978 C3981 1.409 . S
C3979 H3971 0.930 . S
C3979 C3980 1.355 . S
C3979 C3981 1.415 . S
C3980 C3979 1.355 . S
C3980 C3982 1.419 . S
C3981 C3976 1.425 . S
C3981 C3978 1.409 . S
C3981 C3979 1.415 . S
C3982 H3972 0.930 . S
C3982 C3980 1.419 . S
C3982 C3983 1.362 . S
C3983 H3973 0.930 . S
C3983 C3976 1.409 . S
C3983 C3982 1.362 . S
H3984 C3990 0.930 . S
H3985 C3993 0.930 . S
H3986 C3994 0.930 . S
H3987 C3995 0.930 . S
H3988 C3998 0.930 . S
H3989 C3999 0.930 . S
C3990 H3984 0.930 . S
C3990 C3991 1.355 . S
C3990 C3992 1.415 . S
C3991 C3990 1.355 . S
C3991 C3993 1.419 . S
C3992 C3990 1.415 . S
C3992 C3997 1.425 . S
C3992 C3999 1.409 . S
C3993 H3985 0.930 . S
C3993 C3991 1.419 . S
C3993 C3994 1.362 . S
C3994 H3986 0.930 . S
C3994 C3993 1.362 . S
C3994 C3997 1.409 . S
C3995 H3987 0.930 . S
C3995 C3996 1.355 . S
C3995 C3997 1.415 . S
C3996 C3995 1.355 . S
C3996 C3998 1.419 . S
C3997 C3992 1.425 . S
C3997 C3994 1.409 . S
C3997 C3995 1.415 . S
C3998 H3988 0.930 . S
C3998 C3996 1.419 . S
C3998 C3999 1.362 . S
C3999 H3989 0.930 . S
C3999 C3992 1.409 . S
C3999 C3998 1.362 . S
H4000 C4006 0.930 . S
H4001 C4009 0.930 . S
H4002 C4010 0.930 . S
H4003 C4011 0.930 . S
H4004 C4014 0.930 . S
H4005 C4015 0.930 . S
C4006 H4000 0.930 . S
C4006 C4007 1.355 . S
C4006 C4008 1.415 . S
C4007 C4006 1.355 . S
C4007 C4009 1.419 . S
C4008 C4006 1.415 . S
C4008 C4013 1.425 . S
C4008 C4015 1.409 . S
C4009 H4001 0.930 . S
C4009 C4007 1.419 . S
C4009 C4010 1.362 . S
C4010 H4002 0.930 . S
C4010 C4009 1.362 . S
C4010 C4013 1.409 . S
C4011 H4003 0.930 . S
C4011 C4012 1.355 . S
C4011 C4013 1.415 . S
C4012 C4011 1.355 . S
C4012 C4014 1.419 . S
C4013 C4008 1.425 . S
C4013 C4010 1.409 . S
C4013 C4011 1.415 . S
C4014 H4004 0.930 . S
C4014 C4012 1.419 . S
C4014 C4015 1.362 . S
C4015 H4005 0.930 . S
C4015 C4008 1.409 . S
C4015 C4014 1.362 . S
H4016 C4022 0.930 . S
H4017 C4025 0.930 . S
H4018 C4026 0.930 . S
H4019 C4027 0.930 . S
H4020 C4030 0.930 . S
H4021 C4031 0.930 . S
C4022 H4016 0.930 . S
C4022 C4023 1.355 . S
C4022 C4024 1.415 . S
C4023 C4022 1.355 . S
C4023 C4025 1.419 . S
C4024 C4022 1.415 . S
C4024 C4029 1.425 . S
C4024 C4031 1.409 . S
C4025 H4017 0.930 . S
C4025 C4023 1.419 . S
C4025 C4026 1.362 . S
C4026 H4018 0.930 . S
C4026 C4025 1.362 . S
C4026 C4029 1.409 . S
C4027 H4019 0.930 . S
C4027 C4028 1.355 . S
C4027 C4029 1.415 . S
C4028 C4027 1.355 . S
C4028 C4030 1.419 . S
C4029 C4024 1.425 . S
C4029 C4026 1.409 . S
C4029 C4027 1.415 . S
C4030 H4020 0.930 . S
C4030 C4028 1.419 . S
C4030 C4031 1.362 . S
C4031 H4021 0.930 . S
C4031 C4024 1.409 . S
C4031 C4030 1.362 . S
H4032 C4038 0.930 . S
H4033 C4041 0.930 . S
H4034 C4042 0.930 . S
H4035 C4043 0.930 . S
H4036 C4046 0.930 . S
H4037 C4047 0.930 . S
C4038 H4032 0.930 . S
C4038 C4039 1.355 . S
C4038 C4040 1.415 . S
C4039 C4038 1.355 . S
C4039 C4041 1.419 . S
C4040 C4038 1.415 . S
C4040 C4045 1.425 . S
C4040 C4047 1.409 . S
C4041 H4033 0.930 . S
C4041 C4039 1.419 . S
C4041 C4042 1.362 . S
C4042 H4034 0.930 . S
C4042 C4041 1.362 . S
C4042 C4045 1.409 . S
C4043 H4035 0.930 . S
C4043 C4044 1.355 . S
C4043 C4045 1.415 . S
C4044 C4043 1.355 . S
C4044 C4046 1.419 . S
C4045 C4040 1.425 . S
C4045 C4042 1.409 . S
C4045 C4043 1.415 . S
C4046 H4036 0.930 . S
C4046 C4044 1.419 . S
C4046 C4047 1.362 . S
C4047 H4037 0.930 . S
C4047 C4040 1.409 . S
C4047 C4046 1.362 . S
H4048 C4054 0.930 . S
H4049 C4057 0.930 . S
H4050 C4058 0.930 . S
H4051 C4059 0.930 . S
H4052 C4062 0.930 . S
H4053 C4063 0.930 . S
C4054 H4048 0.930 . S
C4054 C4055 1.355 . S
C4054 C4056 1.415 . S
C4055 C4054 1.355 . S
C4055 C4057 1.419 . S
C4056 C4054 1.415 . S
C4056 C4061 1.425 . S
C4056 C4063 1.409 . S
C4057 H4049 0.930 . S
C4057 C4055 1.419 . S
C4057 C4058 1.362 . S
C4058 H4050 0.930 . S
C4058 C4057 1.362 . S
C4058 C4061 1.409 . S
C4059 H4051 0.930 . S
C4059 C4060 1.355 . S
C4059 C4061 1.415 . S
C4060 C4059 1.355 . S
C4060 C4062 1.419 . S
C4061 C4056 1.425 . S
C4061 C4058 1.409 . S
C4061 C4059 1.415 . S
C4062 H4052 0.930 . S
C4062 C4060 1.419 . S
C4062 C4063 1.362 . S
C4063 H4053 0.930 . S
C4063 C4056 1.409 . S
C4063 C4062 1.362 . S
H4064 C4070 0.930 . S
H4065 C4073 0.930 . S
H4066 C4074 0.930 . S
H4067 C4075 0.930 . S
H4068 C4078 0.930 . S
H4069 C4079 0.930 . S
C4070 H4064 0.930 . S
C4070 C4071 1.355 . S
C4070 C4072 1.415 . S
C4071 C4070 1.355 . S
C4071 C4073 1.419 . S
C4072 C4070 1.415 . S
C4072 C4077 1.425 . S
C4072 C4079 1.409 . S
C4073 H4065 0.930 . S
C4073 C4071 1.419 . S
C4073 C4074 1.362 . S
C4074 H4066 0.930 . S
C4074 C4073 1.362 . S
C4074 C4077 1.409 . S
C4075 H4067 0.930 . S
C4075 C4076 1.355 . S
C4075 C4077 1.415 . S
C4076 C4075 1.355 . S
C4076 C4078 1.419 . S
C4077 C4072 1.425 . S
C4077 C4074 1.409 . S
C4077 C4075 1.415 . S
C4078 H4068 0.930 . S
C4078 C4076 1.419 . S
C4078 C4079 1.362 . S
C4079 H4069 0.930 . S
C4079 C4072 1.409 . S
C4079 C4078 1.362 . S
H4080 C4086 0.930 . S
H4081 C4089 0.930 . S
H4082 C4090 0.930 . S
H4083 C4091 0.930 . S
H4084 C4094 0.930 . S
H4085 C4095 0.930 . S
C4086 H4080 0.930 . S
C4086 C4087 1.355 . S
C4086 C4088 1.415 . S
C4087 C4086 1.355 . S
C4087 C4089 1.419 . S
C4088 C4086 1.415 . S
C4088 C4093 1.425 . S
C4088 C4095 1.409 . S
C4089 H4081 0.930 . S
C4089 C4087 1.419 . S
C4089 C4090 1.362 . S
C4090 H4082 0.930 . S
C4090 C4089 1.362 . S
C4090 C4093 1.409 . S
C4091 H4083 0.930 . S
C4091 C4092 1.355 . S
C4091 C4093 1.415 . S
C4092 C4091 1.355 . S
C4092 C4094 1.419 . S
C4093 C4088 1.425 . S
C4093 C4090 1.409 . S
C4093 C4091 1.415 . S
C4094 H4084 0.930 . S
C4094 C4092 1.419 . S
C4094 C4095 1.362 . S
C4095 H4085 0.930 . S
C4095 C4088 1.409 . S
C4095 C4094 1.362 . S
H4096 C4102 0.930 . S
H4097 C4105 0.930 . S
H4098 C4106 0.930 . S
H4099 C4107 0.930 . S
H4100 C4110 0.930 . S
H4101 C4111 0.930 . S
C4102 H4096 0.930 . S
C4102 C4103 1.355 . S
C4102 C4104 1.415 . S
C4103 C4102 1.355 . S
C4103 C4105 1.419 . S
C4104 C4102 1.415 . S
C4104 C4109 1.425 . S
C4104 C4111 1.409 . S
C4105 H4097 0.930 . S
C4105 C4103 1.419 . S
C4105 C4106 1.362 . S
C4106 H4098 0.930 . S
C4106 C4105 1.362 . S
C4106 C4109 1.409 . S
C4107 H4099 0.930 . S
C4107 C4108 1.355 . S
C4107 C4109 1.415 . S
C4108 C4107 1.355 . S
C4108 C4110 1.419 . S
C4109 C4104 1.425 . S
C4109 C4106 1.409 . S
C4109 C4107 1.415 . S
C4110 H4100 0.930 . S
C4110 C4108 1.419 . S
C4110 C4111 1.362 . S
C4111 H4101 0.930 . S
C4111 C4104 1.409 . S
C4111 C4110 1.362 . S
H4112 C4118 0.930 . S
H4113 C4121 0.930 . S
H4114 C4122 0.930 . S
H4115 C4123 0.930 . S
H4116 C4126 0.930 . S
H4117 C4127 0.930 . S
C4118 H4112 0.930 . S
C4118 C4119 1.355 . S
C4118 C4120 1.415 . S
C4119 C4118 1.355 . S
C4119 C4121 1.419 . S
C4120 C4118 1.415 . S
C4120 C4125 1.425 . S
C4120 C4127 1.409 . S
C4121 H4113 0.930 . S
C4121 C4119 1.419 . S
C4121 C4122 1.362 . S
C4122 H4114 0.930 . S
C4122 C4121 1.362 . S
C4122 C4125 1.409 . S
C4123 H4115 0.930 . S
C4123 C4124 1.355 . S
C4123 C4125 1.415 . S
C4124 C4123 1.355 . S
C4124 C4126 1.419 . S
C4125 C4120 1.425 . S
C4125 C4122 1.409 . S
C4125 C4123 1.415 . S
C4126 H4116 0.930 . S
C4126 C4124 1.419 . S
C4126 C4127 1.362 . S
C4127 H4117 0.930 . S
C4127 C4120 1.409 . S
C4127 C4126 1.362 . S
H4128 C4134 0.930 . S
H4129 C4137 0.930 . S
H4130 C4138 0.930 . S
H4131 C4139 0.930 . S
H4132 C4142 0.930 . S
H4133 C4143 0.930 . S
C4134 H4128 0.930 . S
C4134 C4135 1.355 . S
C4134 C4136 1.415 . S
C4135 C4134 1.355 . S
C4135 C4137 1.419 . S
C4136 C4134 1.415 . S
C4136 C4141 1.425 . S
C4136 C4143 1.409 . S
C4137 H4129 0.930 . S
C4137 C4135 1.419 . S
C4137 C4138 1.362 . S
C4138 H4130 0.930 . S
C4138 C4137 1.362 . S
C4138 C4141 1.409 . S
C4139 H4131 0.930 . S
C4139 C4140 1.355 . S
C4139 C4141 1.415 . S
C4140 C4139 1.355 . S
C4140 C4142 1.419 . S
C4141 C4136 1.425 . S
C4141 C4138 1.409 . S
C4141 C4139 1.415 . S
C4142 H4132 0.930 . S
C4142 C4140 1.419 . S
C4142 C4143 1.362 . S
C4143 H4133 0.930 . S
C4143 C4136 1.409 . S
C4143 C4142 1.362 . S
H4144 C4150 0.930 . S
H4145 C4153 0.930 . S
H4146 C4154 0.930 . S
H4147 C4155 0.930 . S
H4148 C4158 0.930 . S
H4149 C4159 0.930 . S
C4150 H4144 0.930 . S
C4150 C4151 1.355 . S
C4150 C4152 1.415 . S
C4151 C4150 1.355 . S
C4151 C4153 1.419 . S
C4152 C4150 1.415 . S
C4152 C4157 1.425 . S
C4152 C4159 1.409 . S
C4153 H4145 0.930 . S
C4153 C4151 1.419 . S
C4153 C4154 1.362 . S
C4154 H4146 0.930 . S
C4154 C4153 1.362 . S
C4154 C4157 1.409 . S
C4155 H4147 0.930 . S
C4155 C4156 1.355 . S
C4155 C4157 1.415 . S
C4156 C4155 1.355 . S
C4156 C4158 1.419 . S
C4157 C4152 1.425 . S
C4157 C4154 1.409 . S
C4157 C4155 1.415 . S
C4158 H4148 0.930 . S
C4158 C4156 1.419 . S
C4158 C4159 1.362 . S
C4159 H4149 0.930 . S
C4159 C4152 1.409 . S
C4159 C4158 1.362 . S
H4160 C4166 0.930 . S
H4161 C4169 0.930 . S
H4162 C4170 0.930 . S
H4163 C4171 0.930 . S
H4164 C4174 0.930 . S
H4165 C4175 0.930 . S
C4166 H4160 0.930 . S
C4166 C4167 1.355 . S
C4166 C4168 1.415 . S
C4167 C4166 1.355 . S
C4167 C4169 1.419 . S
C4168 C4166 1.415 . S
C4168 C4173 1.425 . S
C4168 C4175 1.409 . S
C4169 H4161 0.930 . S
C4169 C4167 1.419 . S
C4169 C4170 1.362 . S
C4170 H4162 0.930 . S
C4170 C4169 1.362 . S
C4170 C4173 1.409 . S
C4171 H4163 0.930 . S
C4171 C4172 1.355 . S
C4171 C4173 1.415 . S
C4172 C4171 1.355 . S
C4172 C4174 1.419 . S
C4173 C4168 1.425 . S
C4173 C4170 1.409 . S
C4173 C4171 1.415 . S
C4174 H4164 0.930 . S
C4174 C4172 1.419 . S
C4174 C4175 1.362 . S
C4175 H4165 0.930 . S
C4175 C4168 1.409 . S
C4175 C4174 1.362 . S
H4176 C4182 0.930 . S
H4177 C4185 0.930 . S
H4178 C4186 0.930 . S
H4179 C4187 0.930 . S
H4180 C4190 0.930 . S
H4181 C4191 0.930 . S
C4182 H4176 0.930 . S
C4182 C4183 1.355 . S
C4182 C4184 1.415 . S
C4183 C4182 1.355 . S
C4183 C4185 1.419 . S
C4184 C4182 1.415 . S
C4184 C4189 1.425 . S
C4184 C4191 1.409 . S
C4185 H4177 0.930 . S
C4185 C4183 1.419 . S
C4185 C4186 1.362 . S
C4186 H4178 0.930 . S
C4186 C4185 1.362 . S
C4186 C4189 1.409 . S
C4187 H4179 0.930 . S
C4187 C4188 1.355 . S
C4187 C4189 1.415 . S
C4188 C4187 1.355 . S
C4188 C4190 1.419 . S
C4189 C4184 1.425 . S
C4189 C4186 1.409 . S
C4189 C4187 1.415 . S
C4190 H4180 0.930 . S
C4190 C4188 1.419 . S
C4190 C4191 1.362 . S
C4191 H4181 0.930 . S
C4191 C4184 1.409 . S
C4191 C4190 1.362 . S
H4192 C4198 0.930 . S
H4193 C4201 0.930 . S
H4194 C4202 0.930 . S
H4195 C4203 0.930 . S
H4196 C4206 0.930 . S
H4197 C4207 0.930 . S
C4198 H4192 0.930 . S
C4198 C4199 1.355 . S
C4198 C4200 1.415 . S
C4199 C4198 1.355 . S
C4199 C4201 1.419 . S
C4200 C4198 1.415 . S
C4200 C4205 1.425 . S
C4200 C4207 1.409 . S
C4201 H4193 0.930 . S
C4201 C4199 1.419 . S
C4201 C4202 1.362 . S
C4202 H4194 0.930 . S
C4202 C4201 1.362 . S
C4202 C4205 1.409 . S
C4203 H4195 0.930 . S
C4203 C4204 1.355 . S
C4203 C4205 1.415 . S
C4204 C4203 1.355 . S
C4204 C4206 1.419 . S
C4205 C4200 1.425 . S
C4205 C4202 1.409 . S
C4205 C4203 1.415 . S
C4206 H4196 0.930 . S
C4206 C4204 1.419 . S
C4206 C4207 1.362 . S
C4207 H4197 0.930 . S
C4207 C4200 1.409 . S
C4207 C4206 1.362 . S
H4208 C4214 0.930 . S
H4209 C4217 0.930 . S
H4210 C4218 0.930 . S
H4211 C4219 0.930 . S
H4212 C4222 0.930 . S
H4213 C4223 0.930 . S
C4214 H4208 0.930 . S
C4214 C4215 1.355 . S
C4214 C4216 1.415 . S
C4215 C4214 1.355 . S
C4215 C4217 1.419 . S
C4216 C4214 1.415 . S
C4216 C4221 1.425 . S
C4216 C4223 1.409 . S
C4217 H4209 0.930 . S
C4217 C4215 1.419 . S
C4217 C4218 1.362 . S
C4218 H4210 0.930 . S
C4218 C4217 1.362 . S
C4218 C4221 1.409 . S
C4219 H4211 0.930 . S
C4219 C4220 1.355 . S
C4219 C4221 1.415 . S
C4220 C4219 1.355 . S
C4220 C4222 1.419 . S
C4221 C4216 1.425 . S
C4221 C4218 1.409 . S
C4221 C4219 1.415 . S
C4222 H4212 0.930 . S
C4222 C4220 1.419 . S
C4222 C4223 1.362 . S
C4223 H4213 0.930 . S
C4223 C4216 1.409 . S
C4223 C4222 1.362 . S
H4224 C4230 0.930 . S
H4225 C4233 0.930 . S
H4226 C4234 0.930 . S
H4227 C4235 0.930 . S
H4228 C4238 0.930 . S
H4229 C4239 0.930 . S
C4230 H4224 0.930 . S
C4230 C4231 1.355 . S
C4230 C4232 1.415 . S
C4231 C4230 1.355 . S
C4231 C4233 1.419 . S
C4232 C4230 1.415 . S
C4232 C4237 1.425 . S
C4232 C4239 1.409 . S
C4233 H4225 0.930 . S
C4233 C4231 1.419 . S
C4233 C4234 1.362 . S
C4234 H4226 0.930 . S
C4234 C4233 1.362 . S
C4234 C4237 1.409 . S
C4235 H4227 0.930 . S
C4235 C4236 1.355 . S
C4235 C4237 1.415 . S
C4236 C4235 1.355 . S
C4236 C4238 1.419 . S
C4237 C4232 1.425 . S
C4237 C4234 1.409 . S
C4237 C4235 1.415 . S
C4238 H4228 0.930 . S
C4238 C4236 1.419 . S
C4238 C4239 1.362 . S
C4239 H4229 0.930 . S
C4239 C4232 1.409 . S
C4239 C4238 1.362 . S
H4240 C4246 0.930 . S
H4241 C4249 0.930 . S
H4242 C4250 0.930 . S
H4243 C4251 0.930 . S
H4244 C4254 0.930 . S
H4245 C4255 0.930 . S
C4246 H4240 0.930 . S
C4246 C4247 1.355 . S
C4246 C4248 1.415 . S
C4247 C4246 1.355 . S
C4247 C4249 1.419 . S
C4248 C4246 1.415 . S
C4248 C4253 1.425 . S
C4248 C4255 1.409 . S
C4249 H4241 0.930 . S
C4249 C4247 1.419 . S
C4249 C4250 1.362 . S
C4250 H4242 0.930 . S
C4250 C4249 1.362 . S
C4250 C4253 1.409 . S
C4251 H4243 0.930 . S
C4251 C4252 1.355 . S
C4251 C4253 1.415 . S
C4252 C4251 1.355 . S
C4252 C4254 1.419 . S
C4253 C4248 1.425 . S
C4253 C4250 1.409 . S
C4253 C4251 1.415 . S
C4254 H4244 0.930 . S
C4254 C4252 1.419 . S
C4254 C4255 1.362 . S
C4255 H4245 0.930 . S
C4255 C4248 1.409 . S
C4255 C4254 1.362 . S
H4256 C4262 0.930 . S
H4257 C4265 0.930 . S
H4258 C4266 0.930 . S
H4259 C4267 0.930 . S
H4260 C4270 0.930 . S
H4261 C4271 0.930 . S
C4262 H4256 0.930 . S
C4262 C4263 1.355 . S
C4262 C4264 1.415 . S
C4263 C4262 1.355 . S
C4263 C4265 1.419 . S
C4264 C4262 1.415 . S
C4264 C4269 1.425 . S
C4264 C4271 1.409 . S
C4265 H4257 0.930 . S
C4265 C4263 1.419 . S
C4265 C4266 1.362 . S
C4266 H4258 0.930 . S
C4266 C4265 1.362 . S
C4266 C4269 1.409 . S
C4267 H4259 0.930 . S
C4267 C4268 1.355 . S
C4267 C4269 1.415 . S
C4268 C4267 1.355 . S
C4268 C4270 1.419 . S
C4269 C4264 1.425 . S
C4269 C4266 1.409 . S
C4269 C4267 1.415 . S
C4270 H4260 0.930 . S
C4270 C4268 1.419 . S
C4270 C4271 1.362 . S
C4271 H4261 0.930 . S
C4271 C4264 1.409 . S
C4271 C4270 1.362 . S
H4272 C4278 0.930 . S
H4273 C4281 0.930 . S
H4274 C4282 0.930 . S
H4275 C4283 0.930 . S
H4276 C4286 0.930 . S
H4277 C4287 0.930 . S
C4278 H4272 0.930 . S
C4278 C4279 1.355 . S
C4278 C4280 1.415 . S
C4279 C4278 1.355 . S
C4279 C4281 1.419 . S
C4280 C4278 1.415 . S
C4280 C4285 1.425 . S
C4280 C4287 1.409 . S
C4281 H4273 0.930 . S
C4281 C4279 1.419 . S
C4281 C4282 1.362 . S
C4282 H4274 0.930 . S
C4282 C4281 1.362 . S
C4282 C4285 1.409 . S
C4283 H4275 0.930 . S
C4283 C4284 1.355 . S
C4283 C4285 1.415 . S
C4284 C4283 1.355 . S
C4284 C4286 1.419 . S
C4285 C4280 1.425 . S
C4285 C4282 1.409 . S
C4285 C4283 1.415 . S
C4286 H4276 0.930 . S
C4286 C4284 1.419 . S
C4286 C4287 1.362 . S
C4287 H4277 0.930 . S
C4287 C4280 1.409 . S
C4287 C4286 1.362 . S
H4288 C4294 0.930 . S
H4289 C4297 0.930 . S
H4290 C4298 0.930 . S
H4291 C4299 0.930 . S
H4292 C4302 0.930 . S
H4293 C4303 0.930 . S
C4294 H4288 0.930 . S
C4294 C4295 1.355 . S
C4294 C4296 1.415 . S
C4295 C4294 1.355 . S
C4295 C4297 1.419 . S
C4296 C4294 1.415 . S
C4296 C4301 1.425 . S
C4296 C4303 1.409 . S
C4297 H4289 0.930 . S
C4297 C4295 1.419 . S
C4297 C4298 1.362 . S
C4298 H4290 0.930 . S
C4298 C4297 1.362 . S
C4298 C4301 1.409 . S
C4299 H4291 0.930 . S
C4299 C4300 1.355 . S
C4299 C4301 1.415 . S
C4300 C4299 1.355 . S
C4300 C4302 1.419 . S
C4301 C4296 1.425 . S
C4301 C4298 1.409 . S
C4301 C4299 1.415 . S
C4302 H4292 0.930 . S
C4302 C4300 1.419 . S
C4302 C4303 1.362 . S
C4303 H4293 0.930 . S
C4303 C4296 1.409 . S
C4303 C4302 1.362 . S
H4304 C4310 0.930 . S
H4305 C4313 0.930 . S
H4306 C4314 0.930 . S
H4307 C4315 0.930 . S
H4308 C4318 0.930 . S
H4309 C4319 0.930 . S
C4310 H4304 0.930 . S
C4310 C4311 1.355 . S
C4310 C4312 1.415 . S
C4311 C4310 1.355 . S
C4311 C4313 1.419 . S
C4312 C4310 1.415 . S
C4312 C4317 1.425 . S
C4312 C4319 1.409 . S
C4313 H4305 0.930 . S
C4313 C4311 1.419 . S
C4313 C4314 1.362 . S
C4314 H4306 0.930 . S
C4314 C4313 1.362 . S
C4314 C4317 1.409 . S
C4315 H4307 0.930 . S
C4315 C4316 1.355 . S
C4315 C4317 1.415 . S
C4316 C4315 1.355 . S
C4316 C4318 1.419 . S
C4317 C4312 1.425 . S
C4317 C4314 1.409 . S
C4317 C4315 1.415 . S
C4318 H4308 0.930 . S
C4318 C4316 1.419 . S
C4318 C4319 1.362 . S
C4319 H4309 0.930 . S
C4319 C4312 1.409 . S
C4319 C4318 1.362 . S
C3175 C29 1.070 . S
C3180 C1025 1.036 . S
C3191 C841 1.047 . S
C3196 C108 1.060 . S
C3207 C929 1.062 . S
C3212 C196 1.047 . S
C3223 C313 1.079 . S
C3228 C636 1.025 . S
C3239 C409 1.046 . S
C3244 C724 1.064 . S
C3255 C489 1.075 . S
C3260 C585 1.029 . S
C3271 C1085 1.031 . S
C3276 C2081 1.079 . S
C3287 C1897 1.076 . S
C3292 C1173 1.034 . S
C3303 C1261 1.079 . S
C3308 C1985 1.026 . S
C3319 C1377 1.064 . S
C3324 C1701 1.043 . S
C3335 C1465 1.031 . S
C3340 C1780 1.080 . S
C3351 C1553 1.070 . S
C3356 C1604 1.035 . S
C3367 C2141 1.078 . S
C3372 C3137 1.026 . S
C3383 C2229 1.076 . S
C3388 C2953 1.029 . S
C3399 C3041 1.040 . S
C3404 C2317 1.067 . S
C3415 C2433 1.037 . S
C3420 C2757 1.074 . S
C3431 C2836 1.042 . S
C3436 C2521 1.064 . S
C3447 C2660 1.026 . S
C3452 C2601 1.077 . S
C3463 C20 1.017 . S
C3468 C1369 0.971 . S
C3479 C117 1.011 . S
C3484 C1457 1.001 . S
C3495 C205 1.010 . S
C3500 C1545 1.003 . S
C3511 C321 1.002 . S
C3516 C2132 1.010 . S
C3527 C2220 0.988 . S
C3532 C401 0.995 . S
C3543 C2308 1.027 . S
C3548 C497 0.973 . S
C3559 C548 1.004 . S
C3564 C2933 1.012 . S
C3575 C3021 0.968 . S
C3580 C673 1.028 . S
C3591 C761 1.030 . S
C3596 C3100 0.973 . S
C3607 C821 1.030 . S
C3612 C1641 0.969 . S
C3623 C909 1.025 . S
C3628 C1721 0.985 . S
C3639 C988 1.025 . S
C3644 C1817 0.987 . S
C3655 C2425 1.018 . S
C3660 C1076 0.992 . S
C3671 C1164 0.982 . S
C3676 C2513 1.001 . S
C3687 C1252 0.986 . S
C3692 C2609 1.023 . S
C3703 C2697 1.008 . S
C3708 C1877 1.008 . S
C3719 C2777 0.970 . S
C3724 C1965 1.018 . S
C3735 C2044 0.975 . S
C3740 C2873 1.009 . S
C3751 C49 1.544 . S
C3756 C372 1.523 . S
C3767 C469 1.522 . S
C3772 C145 1.501 . S
C3783 C293 1.539 . S
C3788 C233 1.510 . S
C3799 C577 1.526 . S
C3804 C937 1.503 . S
C3815 C1017 1.512 . S
C3820 C645 1.539 . S
C3831 C733 1.540 . S
C3836 C849 1.512 . S
C3847 C1428 1.510 . S
C3852 C1105 1.538 . S
C3863 C1193 1.502 . S
C3868 C1516 1.522 . S
C3879 C1281 1.502 . S
C3884 C1340 1.516 . S
C3895 C1993 1.520 . S
C3900 C1613 1.503 . S
C3911 C2073 1.518 . S
C3916 C1692 1.542 . S
C3927 C1905 1.503 . S
C3932 C1789 1.523 . S
C3943 C2161 1.536 . S
C3948 C2484 1.540 . S
C3959 C2249 1.542 . S
C3964 C2581 1.532 . S
C3975 C2337 1.503 . S
C3980 C2396 1.529 . S
C3991 C3049 1.506 . S
C3996 C2669 1.513 . S
C4007 C3129 1.536 . S
C4012 C2748 1.536 . S
C4023 C2961 1.506 . S
C4028 C2845 1.513 . S
C4039 C812 1.508 . S
C4044 C57 1.495 . S
C4055 C900 1.507 . S
C4060 C137 1.496 . S
C4071 C225 1.513 . S
C4076 C997 1.492 . S
C4087 C284 1.505 . S
C4092 C557 1.498 . S
C4103 C665 1.491 . S
C4108 C381 1.515 . S
C4119 C460 1.511 . S
C4124 C753 1.496 . S
C4135 C1868 1.515 . S
C4140 C1113 1.489 . S
C4151 C1956 1.511 . S
C4156 C1201 1.492 . S
C4167 C1289 1.512 . S
C4172 C2053 1.493 . S
C4183 C1633 1.492 . S
C4188 C1349 1.513 . S
C4199 C1729 1.513 . S
C4204 C1437 1.490 . S
C4215 C1809 1.504 . S
C4220 C1525 1.503 . S
C4231 C2169 1.488 . S
C4236 C2924 1.515 . S
C4247 C3012 1.514 . S
C4252 C2257 1.489 . S
C4263 C2345 1.490 . S
C4268 C3109 1.515 . S
C4279 C2405 1.513 . S
C4284 C2689 1.492 . S
C4295 C2493 1.490 . S
C4300 C2785 1.513 . S
C4311 C2865 1.494 . S
C4316 C2572 1.511 . S
