# Generated by pormake.
# Topology snl, (6)-cn, num edge types: 1
# Building blocks:
#     Node 0, Type 0, BuildingBlock: BETGAK_clean_sbu_0, # of connection points: 6
#     Node 1, Type 0, BuildingBlock: BETGAK_clean_sbu_0, # of connection points: 6
#     Node 2, Type 0, BuildingBlock: BETGAK_clean_sbu_0, # of connection points: 6
#     Node 3, Type 0, BuildingBlock: BETGAK_clean_sbu_0, # of connection points: 6
#     Node 4, Type 0, BuildingBlock: BETGAK_clean_sbu_0, # of connection points: 6
#     Node 5, Type 0, BuildingBlock: BETGAK_clean_sbu_0, # of connection points: 6
#     Node 6, Type 0, BuildingBlock: BETGAK_clean_sbu_0, # of connection points: 6
#     Node 7, Type 0, BuildingBlock: BETGAK_clean_sbu_0, # of connection points: 6
#     Node 8, Type 0, BuildingBlock: BETGAK_clean_sbu_0, # of connection points: 6
#     Node 9, Type 0, BuildingBlock: BETGAK_clean_sbu_0, # of connection points: 6
#     Node 10, Type 0, BuildingBlock: BETGAK_clean_sbu_0, # of connection points: 6
#     Node 11, Type 0, BuildingBlock: BETGAK_clean_sbu_0, # of connection points: 6
#     Node 12, Type 0, BuildingBlock: BETGAK_clean_sbu_0, # of connection points: 6
#     Node 13, Type 0, BuildingBlock: BETGAK_clean_sbu_0, # of connection points: 6
#     Node 14, Type 0, BuildingBlock: BETGAK_clean_sbu_0, # of connection points: 6
#     Node 15, Type 0, BuildingBlock: BETGAK_clean_sbu_0, # of connection points: 6
#     Edge 16, Type (0, 0), None
#     Edge 17, Type (0, 0), None
#     Edge 18, Type (0, 0), None
#     Edge 19, Type (0, 0), None
#     Edge 20, Type (0, 0), None
#     Edge 21, Type (0, 0), None
#     Edge 22, Type (0, 0), None
#     Edge 23, Type (0, 0), None
#     Edge 24, Type (0, 0), None
#     Edge 25, Type (0, 0), None
#     Edge 26, Type (0, 0), None
#     Edge 27, Type (0, 0), None
#     Edge 28, Type (0, 0), None
#     Edge 29, Type (0, 0), None
#     Edge 30, Type (0, 0), None
#     Edge 31, Type (0, 0), None
#     Edge 32, Type (0, 0), None
#     Edge 33, Type (0, 0), None
#     Edge 34, Type (0, 0), None
#     Edge 35, Type (0, 0), None
#     Edge 36, Type (0, 0), None
#     Edge 37, Type (0, 0), None
#     Edge 38, Type (0, 0), None
#     Edge 39, Type (0, 0), None
#     Edge 40, Type (0, 0), None
#     Edge 41, Type (0, 0), None
#     Edge 42, Type (0, 0), None
#     Edge 43, Type (0, 0), None
#     Edge 44, Type (0, 0), None
#     Edge 45, Type (0, 0), None
#     Edge 46, Type (0, 0), None
#     Edge 47, Type (0, 0), None
#     Edge 48, Type (0, 0), None
#     Edge 49, Type (0, 0), None
#     Edge 50, Type (0, 0), None
#     Edge 51, Type (0, 0), None
#     Edge 52, Type (0, 0), None
#     Edge 53, Type (0, 0), None
#     Edge 54, Type (0, 0), None
#     Edge 55, Type (0, 0), None
#     Edge 56, Type (0, 0), None
#     Edge 57, Type (0, 0), None
#     Edge 58, Type (0, 0), None
#     Edge 59, Type (0, 0), None
#     Edge 60, Type (0, 0), None
#     Edge 61, Type (0, 0), None
#     Edge 62, Type (0, 0), None
#     Edge 63, Type (0, 0), None
# Relax obj value: 0.236
# Max RMSD: 0.324
# Mean RMSD: 0.301
data_MOF--net-snl--node1-BETGAK_clean_sbu_0--edge1-none
_symmetry_space_group_name_H-M    P1
_symmetry_Int_Tables_number       1
_symmetry_cell_setting            triclinic
loop_
_symmetry_equiv_pos_as_xyz
'x, y, z'
_cell_length_a     24.483689
_cell_length_b     23.885221
_cell_length_c     15.807012
_cell_angle_alpha  95.316666
_cell_angle_beta   93.742931
_cell_angle_gamma 91.103744
loop_
_atom_site_label
_atom_site_type_symbol
_atom_site_fract_x
_atom_site_fract_y
_atom_site_fract_z
_atom_type_partial_charge
La0 La 0.1618 0.6689 0.1194 0.0
La1 La 0.12197 0.60955 0.2281 0.0
C2 C 0.18381 0.69997 0.97694 0.0
C3 C 0.16719 0.68226 0.88727 0.0
C4 C 0.134 0.71707 0.83985 0.0
C5 C 0.12064 0.70234 0.75338 0.0
C6 C 0.14037 0.65265 0.71371 0.0
C7 C 0.17367 0.61802 0.76059 0.0
C8 C 0.18657 0.63231 0.84697 0.0
C9 C 0.145 0.74523 0.24409 0.0
C10 C 0.03044 0.645 0.11398 0.0
C11 C 0.08878 0.57734 0.36302 0.0
C12 C 0.10257 0.59653 0.45256 0.0
C13 C 0.07673 0.57131 0.51608 0.0
C14 C 0.08793 0.59105 0.60139 0.0
C15 C 0.12545 0.63572 0.62376 0.0
C16 C 0.15029 0.66215 0.56031 0.0
C17 C 0.13856 0.64289 0.47492 0.0
C18 C 0.13422 0.54321 1.08192 0.0
C19 C 0.24225 0.65348 0.28038 0.0
O20 O 0.1464 0.72232 1.02266 0.0
O21 O 0.2129 0.66512 1.01851 0.0
O22 O 0.19153 0.73643 0.21137 0.0
O23 O 0.11353 0.70206 0.21858 0.0
O24 O 0.07058 0.67844 0.09416 0.0
O25 O 0.04418 0.60425 0.15887 0.0
O26 O 0.1274 0.55212 0.32152 0.0
O27 O 0.06471 0.61511 0.32006 0.0
O28 O 0.0938 0.54135 0.12991 0.0
O29 O 0.16815 0.57993 0.11897 0.0
O30 O 0.20229 0.62076 0.29908 0.0
O31 O 0.23714 0.67705 0.20749 0.0
H32 H 0.11854 0.75568 0.86961 0.0
H33 H 0.09482 0.72944 0.71764 0.0
H34 H 0.19058 0.58049 0.73008 0.0
H35 H 0.21286 0.60494 0.88136 0.0
H36 H 0.04805 0.53649 0.4996 0.0
H37 H 0.06814 0.57113 0.65035 0.0
H38 H 0.17903 0.69713 0.5769 0.0
H39 H 0.15719 0.66454 0.4266 0.0
La40 La 0.67308 0.90372 0.53894 0.0
La41 La 0.61844 0.94256 0.40859 0.0
C42 C 0.71242 0.88962 0.68582 0.0
C43 C 0.69285 0.90439 0.77044 0.0
C44 C 0.6449 0.8792 0.79524 0.0
C45 C 0.62679 0.89367 0.87564 0.0
C46 C 0.65689 0.93265 0.93355 0.0
C47 C 0.70429 0.95863 0.90777 0.0
C48 C 0.7217 0.94506 0.82655 0.0
C49 C 0.65294 0.8149 0.42896 0.0
C50 C 0.54033 0.90413 0.525 0.0
C51 C 0.58868 0.98262 0.27273 0.0
C52 C 0.60462 0.96949 0.18562 0.0
C53 C 0.63104 1.0111 0.14539 0.0
C54 C 0.64774 0.99939 1.06338 0.0
C55 C 0.63913 0.94538 1.02068 0.0
C56 C 0.61395 0.90324 1.06234 0.0
C57 C 0.59653 0.91526 0.14385 0.0
C58 C 0.63429 1.02086 0.54566 0.0
C59 C 0.73391 0.91446 0.37 0.0
O60 O 0.68394 0.85118 0.63706 0.0
O61 O 0.72635 0.93188 0.64448 0.0
O62 O 0.70029 0.8296 0.46588 0.0
O63 O 0.62076 0.85543 0.44447 0.0
O64 O 0.58504 0.91576 0.57763 0.0
O65 O 0.54836 0.89807 0.44399 0.0
O66 O 0.62775 1.0051 0.32578 0.0
O67 O 0.56101 0.94376 0.30557 0.0
O68 O 0.58884 1.00901 0.50095 0.0
O69 O 0.66891 0.98802 0.51355 0.0
O70 O 0.68454 0.91128 0.33539 0.0
O71 O 0.74071 0.91919 0.45476 0.0
H72 H 0.62107 0.84847 0.75263 0.0
H73 H 0.58905 0.87432 0.89207 0.0
H74 H 0.72883 0.98853 0.95065 0.0
H75 H 0.75847 0.96546 0.80824 0.0
H76 H 0.6392 0.05261 0.17779 0.0
H77 H 0.66706 1.03288 1.0336 0.0
H78 H 0.60834 0.86062 1.03276 0.0
H79 H 0.57734 0.88189 0.17426 0.0
La80 La 0.39205 0.43839 0.76426 0.0
La81 La 0.35856 0.39093 0.62458 0.0
C82 C 0.40438 0.48585 0.91549 0.0
C83 C 0.39807 0.46052 0.99703 0.0
C84 C 0.42073 0.48681 1.07448 0.0
C85 C 0.41434 0.46257 0.15117 0.0
C86 C 0.38611 0.41028 0.1525 0.0
C87 C 0.36506 0.38354 1.0734 0.0
C88 C 0.37018 0.40871 0.99769 0.0
C89 C 0.48043 0.404 0.6798 0.0
C90 C 0.38528 0.3077 0.74988 0.0
C91 C 0.32314 0.34652 0.47954 0.0
C92 C 0.3453 0.35388 0.39571 0.0
C93 C 0.31827 0.33013 0.31993 0.0
C94 C 0.33337 0.34549 0.24096 0.0
C95 C 0.37601 0.38569 0.23546 0.0
C96 C 0.40711 0.40393 0.31178 0.0
C97 C 0.39209 0.38804 0.39044 0.0
C98 C 0.2785 0.38389 0.77055 0.0
C99 C 0.38146 0.51174 0.60164 0.0
O100 O 0.44449 0.46753 0.87157 0.0
O101 O 0.36 0.48824 0.86608 0.0
O102 O 0.46932 0.39332 0.75561 0.0
O103 O 0.43914 0.42887 0.65128 0.0
O104 O 0.37894 0.35238 0.80235 0.0
O105 O 0.39058 0.31518 0.6703 0.0
O106 O 0.3028 0.39153 0.51756 0.0
O107 O 0.35467 0.32111 0.53294 0.0
O108 O 0.30325 0.41839 0.72481 0.0
O109 O 0.30439 0.4162 0.72379 0.0
O110 O 0.3761 0.46289 0.55948 0.0
O111 O 0.38631 0.51407 0.68685 0.0
H112 H 0.44269 0.52661 1.07578 0.0
H113 H 0.43087 0.48596 0.20918 0.0
H114 H 0.34433 0.34295 1.06847 0.0
H115 H 0.3517 0.38743 0.93957 0.0
H116 H 0.28423 0.30117 0.32162 0.0
H117 H 0.30915 0.32742 0.18538 0.0
H118 H 0.44289 0.43116 0.31193 0.0
H119 H 0.41671 0.40351 0.44729 0.0
La120 La 0.89502 0.13249 0.92775 0.0
La121 La 0.85847 0.17686 1.05085 0.0
C122 C 0.91422 0.10068 0.77575 0.0
C123 C 0.90085 0.12093 0.69093 0.0
C124 C 0.93934 0.15376 0.65339 0.0
C125 C 0.92779 0.17189 0.57251 0.0
C126 C 0.87739 0.15772 0.52727 0.0
C127 C 0.83933 0.12404 0.56429 0.0
C128 C 0.85087 0.10589 0.64501 0.0
C129 C 0.98221 0.15061 1.03711 0.0
C130 C 0.88688 0.26757 0.94134 0.0
C131 C 0.81118 0.2036 0.18506 0.0
C132 C 0.83174 0.20244 0.27464 0.0
C133 C 0.79449 0.20582 0.33769 0.0
C134 C 0.8106 0.19474 0.42066 0.0
C135 C 0.86384 0.17759 0.44181 0.0
C136 C 0.90236 0.17702 0.37941 0.0
C137 C 0.88647 0.18978 0.29651 0.0
C138 C 0.78712 0.17591 0.88153 0.0
C139 C 0.88926 0.06065 0.08611 0.0
O140 O 0.9471 0.1327 0.8279 0.0
O141 O 0.87462 0.07934 0.81526 0.0
O142 O 0.96691 0.10319 0.9958 0.0
O143 O 0.94403 0.18471 1.02496 0.0
O144 O 0.891 0.22161 0.88862 0.0
O145 O 0.87778 0.26014 1.01989 0.0
O146 O 0.80668 0.15407 0.1431 0.0
O147 O 0.83357 0.24021 0.14069 0.0
O148 O 0.80521 0.14335 0.93914 0.0
O149 O 0.8068 0.14608 0.93985 0.0
O150 O 0.89309 0.11159 0.12178 0.0
O151 O 0.8841 0.05598 1.00116 0.0
H152 H 0.97858 0.16546 0.68647 0.0
H153 H 0.95803 0.19766 0.546 0.0
H154 H 0.8007 0.11098 0.53028 0.0
H155 H 0.82073 0.07974 0.67104 0.0
H156 H 0.7526 0.21547 0.32147 0.0
H157 H 0.78122 0.19825 0.46832 0.0
H158 H 0.94396 0.16436 0.39343 0.0
H159 H 0.91629 0.18726 0.24876 0.0
La160 La 0.17829 0.4 1.00674 0.0
La161 La 0.11187 0.42598 0.86993 0.0
C162 C 0.22322 0.3977 0.15372 0.0
C163 C 0.20042 0.40581 0.23697 0.0
C164 C 0.14662 0.38765 0.24671 0.0
C165 C 0.12478 0.39478 0.3257 0.0
C166 C 0.15685 0.4185 0.39765 0.0
C167 C 0.21049 0.43803 0.38676 0.0
C168 C 0.23173 0.4324 0.30679 0.0
C169 C 0.14713 0.3058 0.9114 0.0
C170 C 0.04491 0.4005 1.01535 0.0
C171 C 0.06591 0.43532 0.72642 0.0
C172 C 0.08878 0.43179 0.64265 0.0
C173 C 0.13183 0.46786 0.62652 0.0
C174 C 0.15349 0.4642 0.54711 0.0
C175 C 0.13425 0.42239 0.48302 0.0
C176 C 0.09305 0.3841 0.50149 0.0
C177 C 0.06997 0.38941 0.57996 0.0
C178 C 0.13243 0.51408 0.99162 0.0
C179 C 0.2358 0.40407 0.83182 0.0
O180 O 0.20495 0.35306 0.10586 0.0
O181 O 0.22481 0.44198 0.11135 0.0
O182 O 0.19705 0.32013 0.93762 0.0
O183 O 0.11875 0.3484 0.92986 0.0
O184 O 0.09319 0.4146 1.05774 0.0
O185 O 0.04629 0.38897 0.93298 0.0
O186 O 0.08115 0.4787 0.78003 0.0
O187 O 0.06591 0.38842 0.76248 0.0
O188 O 0.08602 0.50061 0.94982 0.0
O189 O 0.16614 0.47899 0.96107 0.0
O190 O 0.18534 0.40791 0.80019 0.0
O191 O 0.24473 0.40448 0.91603 0.0
H192 H 0.12131 0.36757 0.19335 0.0
H193 H 0.08257 0.38161 0.32958 0.0
H194 H 0.23677 0.45695 0.43966 0.0
H195 H 0.27296 0.44783 0.29985 0.0
H196 H 0.14839 0.49948 0.675 0.0
H197 H 0.18443 0.49516 0.53626 0.0
H198 H 0.07865 0.34947 0.45607 0.0
H199 H 0.03784 0.35992 0.59209 0.0
La200 La 0.8526 0.90059 0.14936 0.0
La201 La 0.89787 0.93761 0.28863 0.0
C202 C 0.80963 0.88422 0.99798 0.0
C203 C 0.83686 0.88759 0.91679 0.0
C204 C 0.81651 0.85726 0.8406 0.0
C205 C 0.83962 0.86527 0.76307 0.0
C206 C 0.88456 0.90304 0.75998 0.0
C207 C 0.90762 0.92913 0.83836 0.0
C208 C 0.88375 0.92208 0.9149 0.0
C209 C 0.88604 0.81223 0.23057 0.0
C210 C 0.98062 0.90449 0.16617 0.0
C211 C 0.93405 0.98065 0.4334 0.0
C212 C 0.92843 0.95758 0.5167 0.0
C213 C 0.93906 0.99196 0.59243 0.0
C214 C 0.92866 0.97245 0.67084 0.0
C215 C 0.90418 0.91903 0.67622 0.0
C216 C 0.8956 0.88357 0.59971 0.0
C217 C 0.90808 0.90244 0.52122 0.0
C218 C 0.90662 1.01416 0.13962 0.0
C219 C 0.7813 0.91318 0.31534 0.0
O220 O 0.82468 0.84396 1.04353 0.0
O221 O 0.80715 0.93127 1.04611 0.0
O222 O 0.89624 0.82191 0.15421 0.0
O223 O 0.86158 0.85438 0.26157 0.0
O224 O 0.93826 0.91108 0.11295 0.0
O225 O 0.9718 0.90166 0.2459 0.0
O226 O 0.88815 0.99507 0.39556 0.0
O227 O 0.96426 0.95244 0.37986 0.0
O228 O 0.87232 0.9919 0.18821 0.0
O229 O 0.87468 0.99064 0.18895 0.0
O230 O 0.82924 0.91403 0.35434 0.0
O231 O 0.77854 0.91042 0.22999 0.0
H232 H 0.78111 0.82935 0.84032 0.0
H233 H 0.8204 0.84356 0.7054 0.0
H234 H 0.94383 0.95605 0.84144 0.0
H235 H 0.90162 0.94475 0.97267 0.0
H236 H 0.95382 1.03471 0.59076 0.0
H237 H 0.93817 1.00051 0.727 0.0
H238 H 0.87889 0.84133 0.5998 0.0
H239 H 0.90033 0.87435 0.46371 0.0
La240 La 0.39385 0.63563 0.39807 0.0
La241 La 0.35504 0.67601 0.52228 0.0
C242 C 0.41646 0.60617 0.24601 0.0
C243 C 0.40251 0.62585 0.1609 0.0
C244 C 0.44 0.66013 0.1238 0.0
C245 C 0.42785 0.67833 1.04305 0.0
C246 C 0.37779 0.66283 0.99782 0.0
C247 C 0.34093 0.62751 1.03397 0.0
C248 C 0.35296 0.60939 0.11462 0.0
C249 C 0.47955 0.65164 0.51105 0.0
C250 C 0.38731 0.77012 0.42628 0.0
C251 C 0.30529 0.69902 0.65513 0.0
C252 C 0.32758 0.70106 0.74441 0.0
C253 C 0.29303 0.71124 0.81066 0.0
C254 C 0.31161 0.70361 0.89428 0.0
C255 C 0.36356 0.68218 0.91249 0.0
C256 C 0.39975 0.67603 0.84715 0.0
C257 C 0.38213 0.6864 0.76399 0.0
C258 C 0.28516 0.67532 0.34911 0.0
C259 C 0.38349 0.56162 0.55179 0.0
O260 O 0.44608 0.6408 0.29917 0.0
O261 O 0.37784 0.58225 0.28428 0.0
O262 O 0.46538 0.60514 0.46609 0.0
O263 O 0.4412 0.68552 0.49984 0.0
O264 O 0.38609 0.72638 0.36808 0.0
O265 O 0.38199 0.75914 0.50434 0.0
O266 O 0.30595 0.64897 0.61508 0.0
O267 O 0.32271 0.73726 0.60854 0.0
O268 O 0.30379 0.64321 0.40712 0.0
O269 O 0.30527 0.64608 0.40782 0.0
O270 O 0.39085 0.61101 0.5909 0.0
O271 O 0.37575 0.55936 0.46728 0.0
H272 H 0.47883 0.67304 0.15735 0.0
H273 H 0.45727 0.70503 1.01648 0.0
H274 H 0.30309 0.61295 0.99894 0.0
H275 H 0.32366 0.58203 0.14016 0.0
H276 H 0.25184 0.72511 0.79738 0.0
H277 H 0.28542 0.71362 0.94516 0.0
H278 H 0.44069 0.66098 0.85949 0.0
H279 H 0.41055 0.68068 0.71459 0.0
La280 La 0.66082 0.17479 0.65748 0.0
La281 La 0.61798 0.1201 0.77287 0.0
C282 C 0.6822 0.19763 0.511 0.0
C283 C 0.65003 0.19398 0.42933 0.0
C284 C 0.65647 0.23583 0.37446 0.0
C285 C 0.63406 0.22812 0.29072 0.0
C286 C 0.60528 0.17786 0.26087 0.0
C287 C 0.5935 0.13912 0.31947 0.0
C288 C 0.61562 0.14721 0.40314 0.0
C289 C 0.64209 0.25414 0.77682 0.0
C290 C 0.53017 0.14711 0.64523 0.0
C291 C 0.57738 0.09626 0.90731 0.0
C292 C 0.58565 0.1165 0.99727 0.0
C293 C 0.54705 0.10209 1.0532 0.0
C294 C 0.55059 0.12571 0.13736 0.0
C295 C 0.59499 0.16173 0.16826 0.0
C296 C 0.63388 0.176 0.1114 0.0
C297 C 0.62866 0.15433 1.02627 0.0
C298 C 0.63587 0.04823 0.63612 0.0
C299 C 0.74091 0.15712 0.81738 0.0
O300 O 0.66705 0.23449 0.56951 0.0
O301 O 0.69392 0.15001 0.54123 0.0
O302 O 0.68971 0.24366 0.74809 0.0
O303 O 0.61043 0.21094 0.75145 0.0
O304 O 0.56943 0.18294 0.62928 0.0
O305 O 0.54503 0.10699 0.69078 0.0
O306 O 0.61689 0.06776 0.87307 0.0
O307 O 0.55888 0.13446 0.8597 0.0
O308 O 0.59411 0.04691 0.68168 0.0
O309 O 0.66771 0.0875 0.67133 0.0
O310 O 0.69837 0.13085 0.84249 0.0
O311 O 0.7374 0.17723 0.74162 0.0
H312 H 0.68266 0.27223 0.39425 0.0
H313 H 0.64226 0.25989 0.24825 0.0
H314 H 0.5706 0.10047 0.29979 0.0
H315 H 0.60837 0.11533 0.44576 0.0
H316 H 0.51433 0.07226 1.03181 0.0
H317 H 0.5194 0.11435 0.17861 0.0
H318 H 0.66944 0.20245 0.13283 0.0
H319 H 0.65846 0.16673 0.98354 0.0
La320 La 0.90402 0.45841 0.91847 0.0
La321 La 0.85605 0.4044 1.02963 0.0
C322 C 0.94248 0.48191 0.78226 0.0
C323 C 0.92781 0.46415 0.6925 0.0
C324 C 0.96199 0.47943 0.63094 0.0
C325 C 0.95275 0.4571 0.5466 0.0
C326 C 0.90639 0.42244 0.52062 0.0
C327 C 0.87155 0.40798 0.58313 0.0
C328 C 0.88298 0.42751 0.66841 0.0
C329 C 0.89153 0.52707 1.06117 0.0
C330 C 0.77999 0.42912 0.86618 0.0
C331 C 0.82521 0.37923 0.17153 0.0
C332 C 0.84989 0.38676 0.2584 0.0
C333 C 0.83557 0.35011 0.31762 0.0
C334 C 0.8574 0.35859 0.40177 0.0
C335 C 0.89194 0.40575 0.42855 0.0
C336 C 0.90858 0.44008 0.36659 0.0
C337 C 0.88841 0.4301 0.2823 0.0
C338 C 0.87393 0.32466 0.91362 0.0
C339 C 0.99113 0.4246 1.03883 0.0
O340 O 0.9076 0.51357 0.8226 0.0
O341 O 0.95992 0.44126 0.82617 0.0
O342 O 0.9334 0.5267 1.01554 0.0
O343 O 0.85661 0.49223 1.02247 0.0
O344 O 0.82346 0.45725 0.84874 0.0
O345 O 0.78189 0.40387 0.93792 0.0
O346 O 0.85135 0.34631 0.1198 0.0
O347 O 0.81149 0.42494 0.1373 0.0
O348 O 0.82552 0.33804 0.93624 0.0
O349 O 0.90683 0.36674 0.93869 0.0
O350 O 0.94862 0.3926 1.05732 0.0
O351 O 0.97945 0.46586 0.99393 0.0
H352 H 0.99657 0.50779 0.64846 0.0
H353 H 0.98203 0.4675 0.50206 0.0
H354 H 0.83494 0.38222 0.56693 0.0
H355 H 0.85683 0.41363 0.71514 0.0
H356 H 0.80591 0.31637 0.29939 0.0
H357 H 0.84517 0.32948 0.44593 0.0
H358 H 0.93546 0.47626 0.38275 0.0
H359 H 0.90167 0.45727 0.23624 0.0
La360 La 0.39925 0.12517 0.78576 0.0
La361 La 0.3411 0.16528 0.65471 0.0
C362 C 0.42562 0.08554 0.92293 0.0
C363 C 0.40759 0.10032 1.00885 0.0
C364 C 0.37746 0.06062 1.04755 0.0
C365 C 0.35895 0.07371 0.1282 0.0
C366 C 0.36888 0.12756 0.17113 0.0
C367 C 0.39723 0.16813 0.13039 0.0
C368 C 0.41678 0.15452 1.0504 0.0
C369 C 0.38283 0.05034 0.64484 0.0
C370 C 0.28378 0.15285 0.82564 0.0
C371 C 0.29716 0.17837 0.50961 0.0
C372 C 0.3153 0.16674 0.42319 0.0
C373 C 0.36243 0.19323 0.39789 0.0
C374 C 0.37992 0.18024 0.3165 0.0
C375 C 0.35018 0.14119 0.25805 0.0
C376 C 0.30314 0.11455 0.28416 0.0
C377 C 0.28648 0.12666 0.36627 0.0
C378 C 0.36595 0.25177 0.76754 0.0
C379 C 0.47464 0.1661 0.66526 0.0
O380 O 0.38734 0.06309 0.8682 0.0
O381 O 0.45561 0.12291 0.89043 0.0
O382 O 0.42846 0.06051 0.69007 0.0
O383 O 0.34853 0.0818 0.68031 0.0
O384 O 0.33356 0.15949 0.85826 0.0
O385 O 0.27589 0.1458 0.74108 0.0
O386 O 0.32397 0.21783 0.55854 0.0
O387 O 0.28797 0.13435 0.55007 0.0
O388 O 0.3175 0.23917 0.73248 0.0
O389 O 0.39606 0.2107 0.74804 0.0
O390 O 0.42908 0.15635 0.61335 0.0
O391 O 0.46879 0.16898 0.74729 0.0
H392 H 0.36809 1.01932 1.01517 0.0
H393 H 0.33757 0.04104 0.1569 0.0
H394 H 0.40397 0.21072 0.15955 0.0
H395 H 0.43856 0.18666 1.02096 0.0
H396 H 0.38651 0.22331 0.4412 0.0
H397 H 0.4174 0.20023 0.30039 0.0
H398 H 0.27852 0.08473 0.2413 0.0
H399 H 0.25095 0.10463 0.38542 0.0
La400 La 0.62212 0.63022 0.39325 0.0
La401 La 0.66405 0.66903 0.53029 0.0
C402 C 0.58249 0.58785 0.24955 0.0
C403 C 0.58548 0.61326 0.16717 0.0
C404 C 0.56194 0.58622 0.09082 0.0
C405 C 0.57194 0.60657 1.01228 0.0
C406 C 0.60761 0.65347 1.00741 0.0
C407 C 0.62617 0.68359 1.08552 0.0
C408 C 0.61502 0.66396 0.16377 0.0
C409 C 0.60875 0.55767 0.54875 0.0
C410 C 0.74067 0.65015 0.36928 0.0
C411 C 0.70335 0.68681 0.68418 0.0
C412 C 0.676 0.68341 0.7654 0.0
C413 C 0.69971 0.70931 0.84258 0.0
C414 C 0.67675 0.70138 0.9201 0.0
C415 C 0.62836 0.66817 0.92307 0.0
C416 C 0.6027 0.64602 0.84393 0.0
C417 C 0.62636 0.65317 0.76688 0.0
C418 C 0.63529 0.75713 0.44372 0.0
C419 C 0.53629 0.66966 0.50308 0.0
O420 O 0.62953 0.57389 0.28432 0.0
O421 O 0.55341 0.61442 0.30625 0.0
O422 O 0.6437 0.5769 0.49785 0.0
O423 O 0.6412 0.57842 0.49709 0.0
O424 O 0.69347 0.64505 0.32783 0.0
O425 O 0.74114 0.65817 0.45471 0.0
O426 O 0.68755 0.7262 0.63759 0.0
O427 O 0.70743 0.63973 0.63684 0.0
O428 O 0.62304 0.74896 0.51983 0.0
O429 O 0.65968 0.7137 0.41592 0.0
O430 O 0.57616 0.66041 0.55941 0.0
O431 O 0.5496 0.67321 0.42587 0.0
H432 H 0.53783 0.54785 0.09149 0.0
H433 H 0.55345 0.58322 0.95574 0.0
H434 H 0.6501 0.72221 0.08743 0.0
H435 H 0.6309 0.68796 0.2218 0.0
H436 H 0.7375 0.73375 0.84346 0.0
H437 H 0.69887 0.71988 0.9775 0.0
H438 H 0.56448 0.62233 0.84019 0.0
H439 H 0.60606 0.63402 0.70833 0.0
La440 La 0.15914 0.89508 0.12586 0.0
La441 La 0.12535 0.93938 0.25213 0.0
C442 C 0.20529 0.86586 0.99148 0.0
C443 C 0.18275 0.86054 0.90211 0.0
C444 C 0.21743 0.84695 0.83714 0.0
C445 C 0.20227 0.85745 0.75324 0.0
C446 C 0.15206 0.88242 0.73331 0.0
C447 C 0.11488 0.89072 0.79713 0.0
C448 C 0.13004 0.87958 0.88082 0.0
C449 C 0.23242 0.89762 0.2962 0.0
C450 C 0.12929 1.01013 0.09147 0.0
C451 C 0.10904 0.97155 0.40624 0.0
C452 C 0.12014 0.94882 0.49001 0.0
C453 C 0.07987 0.91627 0.52426 0.0
C454 C 0.09002 0.89443 0.60288 0.0
C455 C 0.14083 0.90433 0.64889 0.0
C456 C 0.18058 0.93785 0.61565 0.0
C457 C 0.17037 0.96002 0.53738 0.0
C458 C 0.03611 0.92152 0.14892 0.0
C459 C 0.12799 0.80301 0.22654 0.0
O460 O 0.20553 0.91729 1.0271 0.0
O461 O 0.1881 0.82997 1.04212 0.0
O462 O 0.2143 0.92867 0.23633 0.0
O463 O 0.21263 0.92579 0.23595 0.0
O464 O 0.12122 0.95934 1.05687 0.0
O465 O 0.1398 1.01461 0.17592 0.0
O466 O 0.07386 0.94314 0.35323 0.0
O467 O 0.15064 0.98846 0.36692 0.0
O468 O 0.05219 0.96935 0.18842 0.0
O469 O 0.07457 0.88747 0.15797 0.0
O470 O 0.13151 0.84783 0.28353 0.0
O471 O 0.13067 0.81304 0.1476 0.0
H472 H 0.2572 0.83094 0.85285 0.0
H473 H 0.23049 0.84807 0.70439 0.0
H474 H 0.07552 0.90911 0.78364 0.0
H475 H 0.10174 0.88897 0.9296 0.0
H476 H 0.04042 0.90743 0.49016 0.0
H477 H 0.05832 0.86937 0.62731 0.0
H478 H 0.21922 0.94803 0.65137 0.0
H479 H 0.2018 0.98603 0.51417 0.0
La480 La 0.91296 0.63641 0.28087 0.0
La481 La 0.84463 0.66275 0.1404 0.0
C482 C 0.9626 0.62091 0.42059 0.0
C483 C 0.94342 0.62067 0.50679 0.0
C484 C 0.90266 0.5823 0.52505 0.0
C485 C 0.88184 0.58566 0.60534 0.0
C486 C 0.89993 0.62868 0.66856 0.0
C487 C 0.94076 0.66715 0.64923 0.0
C488 C 0.96282 0.66251 0.56995 0.0
C489 C 0.89391 0.55186 0.1532 0.0
C490 C 0.78924 0.64963 0.31518 0.0
C491 C 0.80203 0.66418 0.99181 0.0
C492 C 0.82705 0.65373 0.91005 0.0
C493 C 0.88069 0.67297 0.90142 0.0
C494 C 0.90496 0.66256 0.82462 0.0
C495 C 0.87543 0.63475 0.75295 0.0
C496 C 0.8219 0.61432 0.7628 0.0
C497 C 0.79852 0.62269 0.84114 0.0
C498 C 0.8691 0.7545 0.24384 0.0
C499 C 0.97676 0.66756 0.13627 0.0
O500 O 0.94466 0.5801 0.36441 0.0
O501 O 0.96133 0.66955 0.38914 0.0
O502 O 0.94018 0.56474 0.19559 0.0
O503 O 0.8601 0.58522 0.1862 0.0
O504 O 0.83922 0.65162 0.35034 0.0
O505 O 0.78104 0.64683 0.23037 0.0
O506 O 0.81982 0.70933 1.03932 0.0
O507 O 0.79822 0.62077 1.03575 0.0
O508 O 0.82051 0.7395 0.21127 0.0
O509 O 0.90062 0.71477 0.22371 0.0
O510 O 0.9298 0.65163 0.09232 0.0
O511 O 0.97478 0.67927 0.21849 0.0
H512 H 0.88633 0.54985 0.47724 0.0
H513 H 0.85171 0.55414 0.61713 0.0
H514 H 0.95495 0.70223 0.69389 0.0
H515 H 0.99383 0.69298 0.55695 0.0
H516 H 0.90416 0.69622 0.95406 0.0
H517 H 0.94701 0.67667 0.82225 0.0
H518 H 0.79723 0.59271 0.71016 0.0
H519 H 0.7577 0.60591 0.84735 0.0
La520 La 0.11562 0.1208 0.8979 0.0
La521 La 0.16485 0.17893 1.04505 0.0
C522 C 0.08054 0.0891 0.74721 0.0
C523 C 0.0966 0.10819 0.66586 0.0
C524 C 0.07284 0.08326 0.58839 0.0
C525 C 0.08544 0.10363 0.51155 0.0
C526 C 0.12457 0.14777 0.50985 0.0
C527 C 0.14884 0.1721 0.5884 0.0
C528 C 0.13427 0.15322 0.66531 0.0
C529 C 0.12019 0.05771 1.03524 0.0
C530 C 0.23768 0.149 0.88229 0.0
C531 C 0.20709 0.20892 0.19268 0.0
C532 C 0.18499 0.19554 0.27378 0.0
C533 C 0.18449 0.23543 0.34473 0.0
C534 C 0.16386 0.22079 0.42085 0.0
C535 C 0.1421 0.16616 0.42702 0.0
C536 C 0.13879 0.12833 0.35299 0.0
C537 C 0.15974 0.14295 0.27795 0.0
C538 C 0.12824 0.25158 0.93841 0.0
C539 C 0.03847 0.16708 1.02333 0.0
O540 O 0.11745 0.06206 0.78995 0.0
O541 O 0.05734 0.1272 0.79659 0.0
O542 O 0.08251 0.05517 0.97344 0.0
O543 O 0.15654 0.0906 1.01297 0.0
O544 O 0.19462 0.12099 0.84766 0.0
O545 O 0.23677 0.176 0.96083 0.0
O546 O 0.17684 0.24129 0.14859 0.0
O547 O 0.22397 0.16634 0.14393 0.0
O548 O 0.1197 0.25321 1.01823 0.0
O549 O 0.15212 0.20587 0.91944 0.0
O550 O 0.08018 0.15937 1.07797 0.0
O551 O 0.04809 0.16818 0.94335 0.0
H552 H 0.04451 0.048 0.58721 0.0
H553 H 0.06413 0.08441 0.45376 0.0
H554 H 0.17982 0.20524 0.59111 0.0
H555 H 0.15268 0.17386 0.72444 0.0
H556 H 0.19907 0.27805 0.34131 0.0
H557 H 0.16457 0.25265 0.47426 0.0
H558 H 0.12135 0.08661 0.3525 0.0
H559 H 0.15665 0.11284 0.22268 0.0
La560 La 0.66569 0.39811 0.65242 0.0
La561 La 0.62001 0.45008 0.77834 0.0
C562 C 0.71223 0.37685 0.51657 0.0
C563 C 0.69668 0.39132 0.42984 0.0
C564 C 0.73375 0.4217 0.3869 0.0
C565 C 0.71962 0.43674 0.30527 0.0
C566 C 0.66728 0.42312 0.26563 0.0
C567 C 0.62909 0.39539 0.31124 0.0
C568 C 0.64363 0.37964 0.39231 0.0
C569 C 0.73446 0.41679 0.79641 0.0
C570 C 0.62583 0.51432 0.60985 0.0
C571 C 0.60264 0.48544 0.92883 0.0
C572 C 0.62059 0.46798 1.01315 0.0
C573 C 0.598 0.41962 1.04291 0.0
C574 C 0.61409 0.40451 0.12375 0.0
C575 C 0.65222 0.43807 0.17777 0.0
C576 C 0.67533 0.48609 0.14706 0.0
C577 C 0.66 0.50055 1.06551 0.0
C578 C 0.5368 0.42495 0.66885 0.0
C579 C 0.62579 0.31202 0.7564 0.0
O580 O 0.72563 0.41993 0.57132 0.0
O581 O 0.6805 0.3408 0.54845 0.0
O582 O 0.72827 0.37018 0.74811 0.0
O583 O 0.70428 0.45158 0.76135 0.0
O584 O 0.63231 0.46308 0.57774 0.0
O585 O 0.62368 0.52222 0.69448 0.0
O586 O 0.56932 0.45124 0.88032 0.0
O587 O 0.64037 0.50688 0.88594 0.0
O588 O 0.54726 0.47409 0.70855 0.0
O589 O 0.57808 0.39389 0.68146 0.0
O590 O 0.63078 0.35852 0.81143 0.0
O591 O 0.62829 0.31991 0.67618 0.0
H592 H 0.77364 0.43424 0.41689 0.0
H593 H 0.75016 0.45864 0.27347 0.0
H594 H 0.58756 0.38634 0.28514 0.0
H595 H 0.61317 0.35856 0.42565 0.0
H596 H 0.5678 0.39327 1.0039 0.0
H597 H 0.5966 0.36622 0.14343 0.0
H598 H 0.70424 0.51364 0.18645 0.0
H599 H 0.67797 0.53819 1.04424 0.0
La600 La 0.399 0.96014 0.41163 0.0
La601 La 0.35305 0.90449 0.52932 0.0
C602 C 0.44033 0.98525 0.27832 0.0
C603 C 0.43267 0.96509 0.18804 0.0
C604 C 0.47141 0.97983 0.13242 0.0
C605 C 0.46867 0.95574 1.04832 0.0
C606 C 0.42512 0.91853 1.01714 0.0
C607 C 0.38628 0.9039 1.07397 0.0
C608 C 0.39065 0.92618 0.15881 0.0
C609 C 0.3808 1.029 0.55157 0.0
C610 C 0.27637 0.91972 0.36319 0.0
C611 C 0.33259 0.88469 0.67742 0.0
C612 C 0.3671 0.88708 0.7573 0.0
C613 C 0.36081 0.84551 0.81221 0.0
C614 C 0.38443 0.85234 0.89526 0.0
C615 C 0.41509 0.9016 0.92432 0.0
C616 C 0.42856 0.9388 0.86431 0.0
C617 C 0.40453 0.93161 0.78146 0.0
C618 C 0.37129 0.82763 0.40835 0.0
C619 C 0.48503 0.92631 0.53996 0.0
O620 O 0.40065 1.01362 0.31255 0.0
O621 O 0.45838 0.94673 0.32563 0.0
O622 O 0.42266 1.03179 0.50647 0.0
O623 O 0.34916 0.99096 0.51312 0.0
O624 O 0.31974 0.94519 0.33887 0.0
O625 O 0.27771 0.90237 0.44122 0.0
O626 O 0.34366 0.84589 0.61847 0.0
O627 O 0.32313 0.93266 0.64666 0.0
O628 O 0.32381 0.83665 0.43868 0.0
O629 O 0.40356 0.87001 0.43475 0.0
O630 O 0.44394 0.89317 0.55777 0.0
O631 O 0.47324 0.9661 0.49162 0.0
H632 H 0.50379 1.01004 0.15421 0.0
H633 H 0.50002 0.9674 1.00762 0.0
H634 H 0.35121 0.87672 1.05286 0.0
H635 H 0.36092 0.91321 0.20117 0.0
H636 H 0.33482 0.80961 0.79187 0.0
H637 H 0.37592 0.82066 0.93769 0.0
H638 H 0.4543 0.97574 0.88214 0.0
H639 H 0.41317 0.96222 0.73783 0.0
loop_
_geom_bond_atom_site_label_1
_geom_bond_atom_site_label_2
_geom_bond_distance
_geom_bond_site_symmetry_2
_ccdc_geom_bond_type
La0 C2 2.928 1_554 S
La0 O20 2.521 1_554 S
La0 O21 2.628 1_554 S
La0 O22 2.554 . S
La0 O23 2.757 . S
La0 O24 2.470 . S
La0 O29 2.482 . S
La0 O31 2.503 . S
La1 C11 2.928 . S
La1 O23 2.482 . S
La1 O25 2.503 . S
La1 O26 2.521 . S
La1 O27 2.628 . S
La1 O28 2.554 . S
La1 O29 2.757 . S
La1 O30 2.470 . S
C2 La0 2.928 1_556 S
C2 C3 1.503 . S
C2 O20 1.261 . S
C2 O21 1.243 . S
C3 C2 1.503 . S
C3 C4 1.394 . S
C3 C8 1.373 . S
C4 C3 1.394 . S
C4 C5 1.380 . S
C4 H32 0.930 . S
C5 C4 1.380 . S
C5 C6 1.376 . S
C5 H33 0.930 . S
C6 C5 1.376 . S
C6 C7 1.370 . S
C7 C6 1.370 . S
C7 C8 1.396 . S
C7 H34 0.929 . S
C8 C3 1.373 . S
C8 C7 1.396 . S
C8 H35 0.929 . S
C9 O22 1.240 . S
C9 O23 1.289 . S
C10 O24 1.258 . S
C10 O25 1.256 . S
C11 La1 2.928 . S
C11 C12 1.503 . S
C11 O26 1.261 . S
C11 O27 1.243 . S
C12 C11 1.503 . S
C12 C13 1.394 . S
C12 C17 1.373 . S
C13 C12 1.394 . S
C13 C14 1.380 . S
C13 H36 0.930 . S
C14 C13 1.380 . S
C14 C15 1.376 . S
C14 H37 0.930 . S
C15 C14 1.376 . S
C15 C16 1.370 . S
C16 C15 1.370 . S
C16 C17 1.396 . S
C16 H38 0.929 . S
C17 C12 1.373 . S
C17 C16 1.396 . S
C17 H39 0.929 . S
C18 O28 1.240 . S
C18 O29 1.289 . S
C19 O30 1.258 . S
C19 O31 1.256 . S
O20 La0 2.521 1_556 S
O20 C2 1.261 . S
O21 La0 2.628 1_556 S
O21 C2 1.243 . S
O22 La0 2.554 . S
O22 C9 1.240 . S
O23 La0 2.757 . S
O23 La1 2.482 . S
O23 C9 1.289 . S
O24 La0 2.470 . S
O24 C10 1.258 . S
O25 La1 2.503 . S
O25 C10 1.256 . S
O26 La1 2.521 . S
O26 C11 1.261 . S
O27 La1 2.628 . S
O27 C11 1.243 . S
O28 La1 2.554 . S
O28 C18 1.240 . S
O29 La0 2.482 . S
O29 La1 2.757 . S
O29 C18 1.289 . S
O30 La1 2.470 . S
O30 C19 1.258 . S
O31 La0 2.503 . S
O31 C19 1.256 . S
H32 C4 0.930 . S
H33 C5 0.930 . S
H34 C7 0.929 . S
H35 C8 0.929 . S
H36 C13 0.930 . S
H37 C14 0.930 . S
H38 C16 0.929 . S
H39 C17 0.929 . S
La40 C42 2.928 . S
La40 O60 2.521 . S
La40 O61 2.628 . S
La40 O62 2.554 . S
La40 O63 2.757 . S
La40 O64 2.470 . S
La40 O69 2.482 . S
La40 O71 2.503 . S
La41 C51 2.928 . S
La41 O63 2.482 . S
La41 O65 2.503 . S
La41 O66 2.521 . S
La41 O67 2.628 . S
La41 O68 2.554 . S
La41 O69 2.757 . S
La41 O70 2.470 . S
C42 La40 2.928 . S
C42 C43 1.503 . S
C42 O60 1.261 . S
C42 O61 1.243 . S
C43 C42 1.503 . S
C43 C44 1.394 . S
C43 C48 1.373 . S
C44 C43 1.394 . S
C44 C45 1.380 . S
C44 H72 0.930 . S
C45 C44 1.380 . S
C45 C46 1.376 . S
C45 H73 0.930 . S
C46 C45 1.376 . S
C46 C47 1.370 . S
C47 C46 1.370 . S
C47 C48 1.396 . S
C47 H74 0.929 . S
C48 C43 1.373 . S
C48 C47 1.396 . S
C48 H75 0.929 . S
C49 O62 1.240 . S
C49 O63 1.289 . S
C50 O64 1.258 . S
C50 O65 1.256 . S
C51 La41 2.928 . S
C51 C52 1.503 . S
C51 O66 1.261 . S
C51 O67 1.243 . S
C52 C51 1.503 . S
C52 C53 1.394 . S
C52 C57 1.373 . S
C53 C52 1.394 . S
C53 C54 1.380 . S
C53 H76 0.930 . S
C54 C53 1.380 . S
C54 C55 1.376 1_554 S
C54 H77 0.930 1_554 S
C55 C54 1.376 1_556 S
C55 C56 1.377 . S
C56 C55 1.377 . S
C56 C57 1.383 1_556 S
C56 H78 0.935 . S
C57 C52 1.373 . S
C57 C56 1.383 1_554 S
C57 H79 0.929 . S
C58 O68 1.240 . S
C58 O69 1.289 . S
C59 O70 1.258 . S
C59 O71 1.256 . S
O60 La40 2.521 . S
O60 C42 1.261 . S
O61 La40 2.628 . S
O61 C42 1.243 . S
O62 La40 2.554 . S
O62 C49 1.240 . S
O63 La40 2.757 . S
O63 La41 2.482 . S
O63 C49 1.289 . S
O64 La40 2.470 . S
O64 C50 1.258 . S
O65 La41 2.503 . S
O65 C50 1.256 . S
O66 La41 2.521 . S
O66 C51 1.261 . S
O67 La41 2.628 . S
O67 C51 1.243 . S
O68 La41 2.554 . S
O68 C58 1.240 . S
O69 La40 2.482 . S
O69 La41 2.757 . S
O69 C58 1.289 . S
O70 La41 2.470 . S
O70 C59 1.258 . S
O71 La40 2.503 . S
O71 C59 1.256 . S
H72 C44 0.930 . S
H73 C45 0.930 . S
H74 C47 0.929 . S
H75 C48 0.929 . S
H76 C53 0.930 . S
H77 C54 0.930 1_556 S
H78 C56 0.935 . S
H79 C57 0.929 . S
La80 C82 2.928 . S
La80 O100 2.521 . S
La80 O101 2.628 . S
La80 O102 2.554 . S
La80 O103 2.757 . S
La80 O104 2.470 . S
La80 O109 2.482 . S
La80 O111 2.503 . S
La81 C91 2.928 . S
La81 O103 2.482 . S
La81 O105 2.503 . S
La81 O106 2.521 . S
La81 O107 2.628 . S
La81 O108 2.554 . S
La81 O109 2.757 . S
La81 O110 2.470 . S
C82 La80 2.928 . S
C82 C83 1.503 . S
C82 O100 1.261 . S
C82 O101 1.243 . S
C83 C82 1.503 . S
C83 C84 1.394 . S
C83 C88 1.373 . S
C84 C83 1.394 . S
C84 C85 1.380 1_556 S
C84 H112 0.930 . S
C85 C84 1.380 1_554 S
C85 C86 1.376 . S
C85 H113 0.930 . S
C86 C85 1.376 . S
C86 C87 1.370 . S
C87 C86 1.370 . S
C87 C88 1.396 1_554 S
C87 H114 0.929 . S
C88 C83 1.373 . S
C88 C87 1.396 1_556 S
C88 H115 0.929 . S
C89 O102 1.240 . S
C89 O103 1.289 . S
C90 O104 1.258 . S
C90 O105 1.256 . S
C91 La81 2.928 . S
C91 C92 1.503 . S
C91 O106 1.261 . S
C91 O107 1.243 . S
C92 C91 1.503 . S
C92 C93 1.394 . S
C92 C97 1.373 . S
C93 C92 1.394 . S
C93 C94 1.380 . S
C93 H116 0.930 . S
C94 C93 1.380 . S
C94 C95 1.376 . S
C94 H117 0.930 . S
C95 C94 1.376 . S
C95 C96 1.370 . S
C96 C95 1.370 . S
C96 C97 1.396 . S
C96 H118 0.929 . S
C97 C92 1.373 . S
C97 C96 1.396 . S
C97 H119 0.929 . S
C98 O108 1.240 . S
C98 O109 1.289 . S
C99 O110 1.258 . S
C99 O111 1.256 . S
O100 La80 2.521 . S
O100 C82 1.261 . S
O101 La80 2.628 . S
O101 C82 1.243 . S
O102 La80 2.554 . S
O102 C89 1.240 . S
O103 La80 2.757 . S
O103 La81 2.482 . S
O103 C89 1.289 . S
O104 La80 2.470 . S
O104 C90 1.258 . S
O105 La81 2.503 . S
O105 C90 1.256 . S
O106 La81 2.521 . S
O106 C91 1.261 . S
O107 La81 2.628 . S
O107 C91 1.243 . S
O108 La81 2.554 . S
O108 C98 1.240 . S
O109 La80 2.482 . S
O109 La81 2.757 . S
O109 C98 1.289 . S
O110 La81 2.470 . S
O110 C99 1.258 . S
O111 La80 2.503 . S
O111 C99 1.256 . S
H112 C84 0.930 . S
H113 C85 0.930 . S
H114 C87 0.929 . S
H115 C88 0.929 . S
H116 C93 0.930 . S
H117 C94 0.930 . S
H118 C96 0.929 . S
H119 C97 0.929 . S
La120 C122 2.928 . S
La120 O140 2.521 . S
La120 O141 2.628 . S
La120 O142 2.554 . S
La120 O143 2.757 . S
La120 O144 2.470 . S
La120 O149 2.482 . S
La120 O151 2.503 . S
La121 C131 2.928 . S
La121 O143 2.482 1_554 S
La121 O145 2.503 1_554 S
La121 O146 2.521 . S
La121 O147 2.628 . S
La121 O148 2.554 1_554 S
La121 O149 2.757 1_554 S
La121 O150 2.470 . S
C122 La120 2.928 . S
C122 C123 1.503 . S
C122 O140 1.261 . S
C122 O141 1.243 . S
C123 C122 1.503 . S
C123 C124 1.394 . S
C123 C128 1.373 . S
C124 C123 1.394 . S
C124 C125 1.380 . S
C124 H152 0.930 . S
C125 C124 1.380 . S
C125 C126 1.376 . S
C125 H153 0.930 . S
C126 C125 1.376 . S
C126 C127 1.370 . S
C127 C126 1.370 . S
C127 C128 1.396 . S
C127 H154 0.929 . S
C128 C123 1.373 . S
C128 C127 1.396 . S
C128 H155 0.929 . S
C129 O142 1.240 . S
C129 O143 1.289 . S
C130 O144 1.258 . S
C130 O145 1.256 . S
C131 La121 2.928 . S
C131 C132 1.503 . S
C131 O146 1.261 . S
C131 O147 1.243 . S
C132 C131 1.503 . S
C132 C133 1.394 . S
C132 C137 1.373 . S
C133 C132 1.394 . S
C133 C134 1.380 . S
C133 H156 0.930 . S
C134 C133 1.380 . S
C134 C135 1.376 . S
C134 H157 0.930 . S
C135 C134 1.376 . S
C135 C136 1.370 . S
C136 C135 1.370 . S
C136 C137 1.396 . S
C136 H158 0.929 . S
C137 C132 1.373 . S
C137 C136 1.396 . S
C137 H159 0.929 . S
C138 O148 1.240 . S
C138 O149 1.289 . S
C139 O150 1.258 1_556 S
C139 O151 1.256 . S
O140 La120 2.521 . S
O140 C122 1.261 . S
O141 La120 2.628 . S
O141 C122 1.243 . S
O142 La120 2.554 . S
O142 C129 1.240 . S
O143 La120 2.757 . S
O143 La121 2.482 1_556 S
O143 C129 1.289 . S
O144 La120 2.470 . S
O144 C130 1.258 . S
O145 La121 2.503 1_556 S
O145 C130 1.256 . S
O146 La121 2.521 . S
O146 C131 1.261 . S
O147 La121 2.628 . S
O147 C131 1.243 . S
O148 La121 2.554 1_556 S
O148 C138 1.240 . S
O149 La120 2.482 . S
O149 La121 2.757 1_556 S
O149 C138 1.289 . S
O150 La121 2.470 . S
O150 C139 1.258 1_554 S
O151 La120 2.503 . S
O151 C139 1.256 . S
H152 C124 0.930 . S
H153 C125 0.930 . S
H154 C127 0.929 . S
H155 C128 0.929 . S
H156 C133 0.930 . S
H157 C134 0.930 . S
H158 C136 0.929 . S
H159 C137 0.929 . S
La160 C162 2.928 1_556 S
La160 O180 2.521 1_556 S
La160 O181 2.628 1_556 S
La160 O182 2.554 . S
La160 O183 2.757 . S
La160 O184 2.470 . S
La160 O189 2.482 . S
La160 O191 2.503 . S
La161 C171 2.928 . S
La161 O183 2.482 . S
La161 O185 2.503 . S
La161 O186 2.521 . S
La161 O187 2.628 . S
La161 O188 2.554 . S
La161 O189 2.757 . S
La161 O190 2.470 . S
C162 La160 2.928 1_554 S
C162 C163 1.503 . S
C162 O180 1.261 . S
C162 O181 1.243 . S
C163 C162 1.503 . S
C163 C164 1.394 . S
C163 C168 1.373 . S
C164 C163 1.394 . S
C164 C165 1.380 . S
C164 H192 0.930 . S
C165 C164 1.380 . S
C165 C166 1.376 . S
C165 H193 0.930 . S
C166 C165 1.376 . S
C166 C167 1.370 . S
C167 C166 1.370 . S
C167 C168 1.396 . S
C167 H194 0.929 . S
C168 C163 1.373 . S
C168 C167 1.396 . S
C168 H195 0.929 . S
C169 O182 1.240 . S
C169 O183 1.289 . S
C170 O184 1.258 . S
C170 O185 1.256 . S
C171 La161 2.928 . S
C171 C172 1.503 . S
C171 O186 1.261 . S
C171 O187 1.243 . S
C172 C171 1.503 . S
C172 C173 1.394 . S
C172 C177 1.373 . S
C173 C172 1.394 . S
C173 C174 1.380 . S
C173 H196 0.930 . S
C174 C173 1.380 . S
C174 C175 1.376 . S
C174 H197 0.930 . S
C175 C174 1.376 . S
C175 C176 1.370 . S
C176 C175 1.370 . S
C176 C177 1.396 . S
C176 H198 0.929 . S
C177 C172 1.373 . S
C177 C176 1.396 . S
C177 H199 0.929 . S
C178 O188 1.240 . S
C178 O189 1.289 . S
C179 O190 1.258 . S
C179 O191 1.256 . S
O180 La160 2.521 1_554 S
O180 C162 1.261 . S
O181 La160 2.628 1_554 S
O181 C162 1.243 . S
O182 La160 2.554 . S
O182 C169 1.240 . S
O183 La160 2.757 . S
O183 La161 2.482 . S
O183 C169 1.289 . S
O184 La160 2.470 . S
O184 C170 1.258 . S
O185 La161 2.503 . S
O185 C170 1.256 . S
O186 La161 2.521 . S
O186 C171 1.261 . S
O187 La161 2.628 . S
O187 C171 1.243 . S
O188 La161 2.554 . S
O188 C178 1.240 . S
O189 La160 2.482 . S
O189 La161 2.757 . S
O189 C178 1.289 . S
O190 La161 2.470 . S
O190 C179 1.258 . S
O191 La160 2.503 . S
O191 C179 1.256 . S
H192 C164 0.930 . S
H193 C165 0.930 . S
H194 C167 0.929 . S
H195 C168 0.929 . S
H196 C173 0.930 . S
H197 C174 0.930 . S
H198 C176 0.929 . S
H199 C177 0.929 . S
La200 C202 2.928 1_554 S
La200 O220 2.521 1_554 S
La200 O221 2.628 1_554 S
La200 O222 2.554 . S
La200 O223 2.757 . S
La200 O224 2.470 . S
La200 O229 2.482 . S
La200 O231 2.503 . S
La201 C211 2.928 . S
La201 O223 2.482 . S
La201 O225 2.503 . S
La201 O226 2.521 . S
La201 O227 2.628 . S
La201 O228 2.554 1_565 S
La201 O229 2.757 . S
La201 O230 2.470 . S
C202 La200 2.928 1_556 S
C202 C203 1.503 . S
C202 O220 1.261 . S
C202 O221 1.243 . S
C203 C202 1.503 . S
C203 C204 1.394 . S
C203 C208 1.373 . S
C204 C203 1.394 . S
C204 C205 1.380 . S
C204 H232 0.930 . S
C205 C204 1.380 . S
C205 C206 1.376 . S
C205 H233 0.930 . S
C206 C205 1.376 . S
C206 C207 1.370 . S
C207 C206 1.370 . S
C207 C208 1.396 . S
C207 H234 0.929 . S
C208 C203 1.373 . S
C208 C207 1.396 . S
C208 H235 0.929 . S
C209 O222 1.240 . S
C209 O223 1.289 . S
C210 O224 1.258 . S
C210 O225 1.256 . S
C211 La201 2.928 . S
C211 C212 1.503 . S
C211 O226 1.261 . S
C211 O227 1.243 . S
C212 C211 1.503 . S
C212 C213 1.394 . S
C212 C217 1.373 . S
C213 C212 1.394 . S
C213 C214 1.380 . S
C213 H236 0.930 . S
C214 C213 1.380 . S
C214 C215 1.376 . S
C214 H237 0.930 1_565 S
C215 C214 1.376 . S
C215 C216 1.370 . S
C216 C215 1.370 . S
C216 C217 1.396 . S
C216 H238 0.929 . S
C217 C212 1.373 . S
C217 C216 1.396 . S
C217 H239 0.929 . S
C218 O228 1.240 . S
C218 O229 1.289 1_545 S
C219 O230 1.258 . S
C219 O231 1.256 . S
O220 La200 2.521 1_556 S
O220 C202 1.261 . S
O221 La200 2.628 1_556 S
O221 C202 1.243 . S
O222 La200 2.554 . S
O222 C209 1.240 . S
O223 La200 2.757 . S
O223 La201 2.482 . S
O223 C209 1.289 . S
O224 La200 2.470 . S
O224 C210 1.258 . S
O225 La201 2.503 . S
O225 C210 1.256 . S
O226 La201 2.521 . S
O226 C211 1.261 . S
O227 La201 2.628 . S
O227 C211 1.243 . S
O228 La201 2.554 1_545 S
O228 C218 1.240 . S
O229 La200 2.482 . S
O229 La201 2.757 . S
O229 C218 1.289 1_565 S
O230 La201 2.470 . S
O230 C219 1.258 . S
O231 La200 2.503 . S
O231 C219 1.256 . S
H232 C204 0.930 . S
H233 C205 0.930 . S
H234 C207 0.929 . S
H235 C208 0.929 . S
H236 C213 0.930 . S
H237 C214 0.930 1_545 S
H238 C216 0.929 . S
H239 C217 0.929 . S
La240 C242 2.928 . S
La240 O260 2.521 . S
La240 O261 2.628 . S
La240 O262 2.554 . S
La240 O263 2.757 . S
La240 O264 2.470 . S
La240 O269 2.482 . S
La240 O271 2.503 . S
La241 C251 2.928 . S
La241 O263 2.482 . S
La241 O265 2.503 . S
La241 O266 2.521 . S
La241 O267 2.628 . S
La241 O268 2.554 . S
La241 O269 2.757 . S
La241 O270 2.470 . S
C242 La240 2.928 . S
C242 C243 1.503 . S
C242 O260 1.261 . S
C242 O261 1.243 . S
C243 C242 1.503 . S
C243 C244 1.394 . S
C243 C248 1.373 . S
C244 C243 1.394 . S
C244 C245 1.380 1_554 S
C244 H272 0.930 . S
C245 C244 1.380 1_556 S
C245 C246 1.376 . S
C245 H273 0.930 . S
C246 C245 1.376 . S
C246 C247 1.370 . S
C247 C246 1.370 . S
C247 C248 1.396 1_556 S
C247 H274 0.929 . S
C248 C243 1.373 . S
C248 C247 1.396 1_554 S
C248 H275 0.929 . S
C249 O262 1.240 . S
C249 O263 1.289 . S
C250 O264 1.258 . S
C250 O265 1.256 . S
C251 La241 2.928 . S
C251 C252 1.503 . S
C251 O266 1.261 . S
C251 O267 1.243 . S
C252 C251 1.503 . S
C252 C253 1.394 . S
C252 C257 1.373 . S
C253 C252 1.394 . S
C253 C254 1.380 . S
C253 H276 0.930 . S
C254 C253 1.380 . S
C254 C255 1.376 . S
C254 H277 0.930 . S
C255 C254 1.376 . S
C255 C256 1.370 . S
C256 C255 1.370 . S
C256 C257 1.396 . S
C256 H278 0.929 . S
C257 C252 1.373 . S
C257 C256 1.396 . S
C257 H279 0.929 . S
C258 O268 1.240 . S
C258 O269 1.289 . S
C259 O270 1.258 . S
C259 O271 1.256 . S
O260 La240 2.521 . S
O260 C242 1.261 . S
O261 La240 2.628 . S
O261 C242 1.243 . S
O262 La240 2.554 . S
O262 C249 1.240 . S
O263 La240 2.757 . S
O263 La241 2.482 . S
O263 C249 1.289 . S
O264 La240 2.470 . S
O264 C250 1.258 . S
O265 La241 2.503 . S
O265 C250 1.256 . S
O266 La241 2.521 . S
O266 C251 1.261 . S
O267 La241 2.628 . S
O267 C251 1.243 . S
O268 La241 2.554 . S
O268 C258 1.240 . S
O269 La240 2.482 . S
O269 La241 2.757 . S
O269 C258 1.289 . S
O270 La241 2.470 . S
O270 C259 1.258 . S
O271 La240 2.503 . S
O271 C259 1.256 . S
H272 C244 0.930 . S
H273 C245 0.930 . S
H274 C247 0.929 . S
H275 C248 0.929 . S
H276 C253 0.930 . S
H277 C254 0.930 . S
H278 C256 0.929 . S
H279 C257 0.929 . S
La280 C282 2.928 . S
La280 O300 2.521 . S
La280 O301 2.628 . S
La280 O302 2.554 . S
La280 O303 2.757 . S
La280 O304 2.470 . S
La280 O309 2.482 . S
La280 O311 2.503 . S
La281 C291 2.928 . S
La281 O303 2.482 . S
La281 O305 2.503 . S
La281 O306 2.521 . S
La281 O307 2.628 . S
La281 O308 2.554 . S
La281 O309 2.757 . S
La281 O310 2.470 . S
C282 La280 2.928 . S
C282 C283 1.503 . S
C282 O300 1.261 . S
C282 O301 1.243 . S
C283 C282 1.503 . S
C283 C284 1.394 . S
C283 C288 1.373 . S
C284 C283 1.394 . S
C284 C285 1.380 . S
C284 H312 0.930 . S
C285 C284 1.380 . S
C285 C286 1.376 . S
C285 H313 0.930 . S
C286 C285 1.376 . S
C286 C287 1.370 . S
C287 C286 1.370 . S
C287 C288 1.396 . S
C287 H314 0.929 . S
C288 C283 1.373 . S
C288 C287 1.396 . S
C288 H315 0.929 . S
C289 O302 1.240 . S
C289 O303 1.289 . S
C290 O304 1.258 . S
C290 O305 1.256 . S
C291 La281 2.928 . S
C291 C292 1.503 . S
C291 O306 1.261 . S
C291 O307 1.243 . S
C292 C291 1.503 . S
C292 C293 1.394 . S
C292 C297 1.373 1_556 S
C293 C292 1.394 . S
C293 C294 1.380 1_556 S
C293 H316 0.930 . S
C294 C293 1.380 1_554 S
C294 C295 1.376 . S
C294 H317 0.930 . S
C295 C294 1.376 . S
C295 C296 1.370 . S
C296 C295 1.370 . S
C296 C297 1.396 . S
C296 H318 0.929 . S
C297 C292 1.373 1_554 S
C297 C296 1.396 . S
C297 H319 0.929 1_554 S
C298 O308 1.240 . S
C298 O309 1.289 . S
C299 O310 1.258 . S
C299 O311 1.256 . S
O300 La280 2.521 . S
O300 C282 1.261 . S
O301 La280 2.628 . S
O301 C282 1.243 . S
O302 La280 2.554 . S
O302 C289 1.240 . S
O303 La280 2.757 . S
O303 La281 2.482 . S
O303 C289 1.289 . S
O304 La280 2.470 . S
O304 C290 1.258 . S
O305 La281 2.503 . S
O305 C290 1.256 . S
O306 La281 2.521 . S
O306 C291 1.261 . S
O307 La281 2.628 . S
O307 C291 1.243 . S
O308 La281 2.554 . S
O308 C298 1.240 . S
O309 La280 2.482 . S
O309 La281 2.757 . S
O309 C298 1.289 . S
O310 La281 2.470 . S
O310 C299 1.258 . S
O311 La280 2.503 . S
O311 C299 1.256 . S
H312 C284 0.930 . S
H313 C285 0.930 . S
H314 C287 0.929 . S
H315 C288 0.929 . S
H316 C293 0.930 . S
H317 C294 0.930 . S
H318 C296 0.929 . S
H319 C297 0.929 1_556 S
La320 C322 2.928 . S
La320 O340 2.521 . S
La320 O341 2.628 . S
La320 O342 2.554 . S
La320 O343 2.757 . S
La320 O344 2.470 . S
La320 O349 2.482 . S
La320 O351 2.503 . S
La321 C331 2.928 1_556 S
La321 O343 2.482 . S
La321 O345 2.503 . S
La321 O346 2.521 1_556 S
La321 O347 2.628 1_556 S
La321 O348 2.554 . S
La321 O349 2.757 . S
La321 O350 2.470 . S
C322 La320 2.928 . S
C322 C323 1.503 . S
C322 O340 1.261 . S
C322 O341 1.243 . S
C323 C322 1.503 . S
C323 C324 1.394 . S
C323 C328 1.373 . S
C324 C323 1.394 . S
C324 C325 1.380 . S
C324 H352 0.930 . S
C325 C324 1.380 . S
C325 C326 1.376 . S
C325 H353 0.930 . S
C326 C325 1.376 . S
C326 C327 1.370 . S
C327 C326 1.370 . S
C327 C328 1.396 . S
C327 H354 0.929 . S
C328 C323 1.373 . S
C328 C327 1.396 . S
C328 H355 0.929 . S
C329 O342 1.240 . S
C329 O343 1.289 . S
C330 O344 1.258 . S
C330 O345 1.256 . S
C331 La321 2.928 1_554 S
C331 C332 1.503 . S
C331 O346 1.261 . S
C331 O347 1.243 . S
C332 C331 1.503 . S
C332 C333 1.394 . S
C332 C337 1.373 . S
C333 C332 1.394 . S
C333 C334 1.380 . S
C333 H356 0.930 . S
C334 C333 1.380 . S
C334 C335 1.376 . S
C334 H357 0.930 . S
C335 C334 1.376 . S
C335 C336 1.370 . S
C336 C335 1.370 . S
C336 C337 1.396 . S
C336 H358 0.929 . S
C337 C332 1.373 . S
C337 C336 1.396 . S
C337 H359 0.929 . S
C338 O348 1.240 . S
C338 O349 1.289 . S
C339 O350 1.258 . S
C339 O351 1.256 . S
O340 La320 2.521 . S
O340 C322 1.261 . S
O341 La320 2.628 . S
O341 C322 1.243 . S
O342 La320 2.554 . S
O342 C329 1.240 . S
O343 La320 2.757 . S
O343 La321 2.482 . S
O343 C329 1.289 . S
O344 La320 2.470 . S
O344 C330 1.258 . S
O345 La321 2.503 . S
O345 C330 1.256 . S
O346 La321 2.521 1_554 S
O346 C331 1.261 . S
O347 La321 2.628 1_554 S
O347 C331 1.243 . S
O348 La321 2.554 . S
O348 C338 1.240 . S
O349 La320 2.482 . S
O349 La321 2.757 . S
O349 C338 1.289 . S
O350 La321 2.470 . S
O350 C339 1.258 . S
O351 La320 2.503 . S
O351 C339 1.256 . S
H352 C324 0.930 . S
H353 C325 0.930 . S
H354 C327 0.929 . S
H355 C328 0.929 . S
H356 C333 0.930 . S
H357 C334 0.930 . S
H358 C336 0.929 . S
H359 C337 0.929 . S
La360 C362 2.928 . S
La360 O380 2.521 . S
La360 O381 2.628 . S
La360 O382 2.537 1_545 S
La360 O383 2.757 . S
La360 O384 2.470 . S
La360 O389 2.482 . S
La360 O391 2.503 . S
La361 C371 2.928 . S
La361 O383 2.482 . S
La361 O385 2.503 . S
La361 O386 2.521 . S
La361 O387 2.628 . S
La361 O388 2.554 . S
La361 O389 2.757 . S
La361 O390 2.470 . S
C362 La360 2.928 . S
C362 C363 1.503 . S
C362 O380 1.261 . S
C362 O381 1.243 . S
C363 C362 1.503 . S
C363 C364 1.394 . S
C363 C368 1.373 . S
C364 C363 1.394 . S
C364 C365 1.380 1_556 S
C364 H392 0.930 . S
C365 C364 1.380 1_554 S
C365 C366 1.376 . S
C365 H393 0.930 . S
C366 C365 1.376 . S
C366 C367 1.370 . S
C367 C366 1.370 . S
C367 C368 1.396 1_554 S
C367 H394 0.929 . S
C368 C363 1.373 . S
C368 C367 1.396 1_556 S
C368 H395 0.929 . S
C369 O382 1.235 1_545 S
C369 O383 1.289 . S
C370 O384 1.258 . S
C370 O385 1.256 . S
C371 La361 2.928 . S
C371 C372 1.503 . S
C371 O386 1.261 . S
C371 O387 1.243 . S
C372 C371 1.503 . S
C372 C373 1.394 . S
C372 C377 1.373 . S
C373 C372 1.394 . S
C373 C374 1.380 . S
C373 H396 0.930 . S
C374 C373 1.380 . S
C374 C375 1.376 . S
C374 H397 0.930 . S
C375 C374 1.376 . S
C375 C376 1.370 . S
C376 C375 1.370 . S
C376 C377 1.396 . S
C376 H398 0.929 . S
C377 C372 1.373 . S
C377 C376 1.396 . S
C377 H399 0.929 . S
C378 O388 1.240 . S
C378 O389 1.289 . S
C379 O390 1.258 . S
C379 O391 1.256 . S
O380 La360 2.521 . S
O380 C362 1.261 . S
O381 La360 2.628 . S
O381 C362 1.243 . S
O382 La360 2.537 1_565 S
O382 C369 1.235 1_565 S
O383 La360 2.757 . S
O383 La361 2.482 . S
O383 C369 1.289 . S
O384 La360 2.470 . S
O384 C370 1.258 . S
O385 La361 2.503 . S
O385 C370 1.256 . S
O386 La361 2.521 . S
O386 C371 1.261 . S
O387 La361 2.628 . S
O387 C371 1.243 . S
O388 La361 2.554 . S
O388 C378 1.240 . S
O389 La360 2.482 . S
O389 La361 2.757 . S
O389 C378 1.289 . S
O390 La361 2.470 . S
O390 C379 1.258 . S
O391 La360 2.503 . S
O391 C379 1.256 . S
H392 C364 0.930 . S
H393 C365 0.930 . S
H394 C367 0.929 . S
H395 C368 0.929 . S
H396 C373 0.930 . S
H397 C374 0.930 . S
H398 C376 0.929 . S
H399 C377 0.929 . S
La400 C402 2.928 . S
La400 O420 2.521 . S
La400 O421 2.628 . S
La400 O422 2.554 . S
La400 O423 2.757 . S
La400 O424 2.470 . S
La400 O429 2.482 . S
La400 O431 2.503 . S
La401 C411 2.928 . S
La401 O423 2.482 . S
La401 O425 2.503 . S
La401 O426 2.521 . S
La401 O427 2.628 . S
La401 O428 2.554 . S
La401 O429 2.757 . S
La401 O430 2.470 . S
C402 La400 2.928 . S
C402 C403 1.503 . S
C402 O420 1.261 . S
C402 O421 1.243 . S
C403 C402 1.503 . S
C403 C404 1.394 1_554 S
C403 C408 1.373 . S
C404 C403 1.394 1_556 S
C404 C405 1.380 . S
C404 H432 0.930 1_556 S
C405 C404 1.380 . S
C405 C406 1.376 . S
C405 H433 0.930 . S
C406 C405 1.376 . S
C406 C407 1.370 . S
C407 C406 1.370 . S
C407 C408 1.396 1_556 S
C407 H434 0.929 . S
C408 C403 1.373 . S
C408 C407 1.396 1_554 S
C408 H435 0.929 . S
C409 O422 1.240 . S
C409 O423 1.289 . S
C410 O424 1.258 . S
C410 O425 1.256 . S
C411 La401 2.928 . S
C411 C412 1.503 . S
C411 O426 1.261 . S
C411 O427 1.243 . S
C412 C411 1.503 . S
C412 C413 1.394 . S
C412 C417 1.373 . S
C413 C412 1.394 . S
C413 C414 1.380 . S
C413 H436 0.930 . S
C414 C413 1.380 . S
C414 C415 1.376 . S
C414 H437 0.930 . S
C415 C414 1.376 . S
C415 C416 1.370 . S
C416 C415 1.370 . S
C416 C417 1.396 . S
C416 H438 0.929 . S
C417 C412 1.373 . S
C417 C416 1.396 . S
C417 H439 0.929 . S
C418 O428 1.240 . S
C418 O429 1.289 . S
C419 O430 1.258 . S
C419 O431 1.256 . S
O420 La400 2.521 . S
O420 C402 1.261 . S
O421 La400 2.628 . S
O421 C402 1.243 . S
O422 La400 2.554 . S
O422 C409 1.240 . S
O423 La400 2.757 . S
O423 La401 2.482 . S
O423 C409 1.289 . S
O424 La400 2.470 . S
O424 C410 1.258 . S
O425 La401 2.503 . S
O425 C410 1.256 . S
O426 La401 2.521 . S
O426 C411 1.261 . S
O427 La401 2.628 . S
O427 C411 1.243 . S
O428 La401 2.554 . S
O428 C418 1.240 . S
O429 La400 2.482 . S
O429 La401 2.757 . S
O429 C418 1.289 . S
O430 La401 2.470 . S
O430 C419 1.258 . S
O431 La400 2.503 . S
O431 C419 1.256 . S
H432 C404 0.930 1_554 S
H433 C405 0.930 . S
H434 C407 0.929 . S
H435 C408 0.929 . S
H436 C413 0.930 . S
H437 C414 0.930 . S
H438 C416 0.929 . S
H439 C417 0.929 . S
La440 C442 2.928 . S
La440 O460 2.521 . S
La440 O461 2.628 . S
La440 O462 2.554 1_556 S
La440 O463 2.757 1_556 S
La440 O464 2.470 1_556 S
La440 O469 2.482 1_556 S
La440 O471 2.503 1_556 S
La441 C451 2.928 . S
La441 O463 2.482 . S
La441 O465 2.503 . S
La441 O466 2.521 . S
La441 O467 2.628 . S
La441 O468 2.554 . S
La441 O469 2.757 . S
La441 O470 2.470 . S
C442 La440 2.928 . S
C442 C443 1.503 . S
C442 O460 1.261 . S
C442 O461 1.243 . S
C443 C442 1.503 . S
C443 C444 1.394 . S
C443 C448 1.373 . S
C444 C443 1.394 . S
C444 C445 1.380 . S
C444 H472 0.930 . S
C445 C444 1.380 . S
C445 C446 1.376 . S
C445 H473 0.930 . S
C446 C445 1.376 . S
C446 C447 1.370 . S
C447 C446 1.370 . S
C447 C448 1.396 . S
C447 H474 0.929 . S
C448 C443 1.373 . S
C448 C447 1.396 . S
C448 H475 0.929 . S
C449 O462 1.240 . S
C449 O463 1.289 . S
C450 O464 1.258 . S
C450 O465 1.256 . S
C451 La441 2.928 . S
C451 C452 1.503 . S
C451 O466 1.261 . S
C451 O467 1.243 . S
C452 C451 1.503 . S
C452 C453 1.394 . S
C452 C457 1.373 . S
C453 C452 1.394 . S
C453 C454 1.380 . S
C453 H476 0.930 . S
C454 C453 1.380 . S
C454 C455 1.376 . S
C454 H477 0.930 . S
C455 C454 1.376 . S
C455 C456 1.370 . S
C456 C455 1.370 . S
C456 C457 1.396 . S
C456 H478 0.929 . S
C457 C452 1.373 . S
C457 C456 1.396 . S
C457 H479 0.929 . S
C458 O468 1.240 . S
C458 O469 1.289 . S
C459 O470 1.258 . S
C459 O471 1.256 . S
O460 La440 2.521 . S
O460 C442 1.261 . S
O461 La440 2.628 . S
O461 C442 1.243 . S
O462 La440 2.554 1_554 S
O462 C449 1.240 . S
O463 La440 2.757 1_554 S
O463 La441 2.482 . S
O463 C449 1.289 . S
O464 La440 2.470 1_554 S
O464 C450 1.258 . S
O465 La441 2.503 . S
O465 C450 1.256 . S
O466 La441 2.521 . S
O466 C451 1.261 . S
O467 La441 2.628 . S
O467 C451 1.243 . S
O468 La441 2.554 . S
O468 C458 1.240 . S
O469 La440 2.482 1_554 S
O469 La441 2.757 . S
O469 C458 1.289 . S
O470 La441 2.470 . S
O470 C459 1.258 . S
O471 La440 2.503 1_554 S
O471 C459 1.256 . S
H472 C444 0.930 . S
H473 C445 0.930 . S
H474 C447 0.929 . S
H475 C448 0.929 . S
H476 C453 0.930 . S
H477 C454 0.930 . S
H478 C456 0.929 . S
H479 C457 0.929 . S
La480 C482 2.928 . S
La480 O500 2.521 . S
La480 O501 2.628 . S
La480 O502 2.554 . S
La480 O503 2.757 . S
La480 O504 2.470 . S
La480 O509 2.482 . S
La480 O511 2.503 . S
La481 C491 2.928 . S
La481 O503 2.482 1_556 S
La481 O505 2.503 1_556 S
La481 O506 2.521 . S
La481 O507 2.628 . S
La481 O508 2.554 1_556 S
La481 O509 2.757 1_556 S
La481 O510 2.470 . S
C482 La480 2.928 . S
C482 C483 1.503 . S
C482 O500 1.261 . S
C482 O501 1.243 . S
C483 C482 1.503 . S
C483 C484 1.394 . S
C483 C488 1.373 . S
C484 C483 1.394 . S
C484 C485 1.380 . S
C484 H512 0.930 . S
C485 C484 1.380 . S
C485 C486 1.376 . S
C485 H513 0.930 . S
C486 C485 1.376 . S
C486 C487 1.370 . S
C487 C486 1.370 . S
C487 C488 1.396 . S
C487 H514 0.929 . S
C488 C483 1.373 . S
C488 C487 1.396 . S
C488 H515 0.929 . S
C489 O502 1.240 . S
C489 O503 1.289 . S
C490 O504 1.258 . S
C490 O505 1.256 . S
C491 La481 2.928 . S
C491 C492 1.503 . S
C491 O506 1.261 . S
C491 O507 1.243 . S
C492 C491 1.503 . S
C492 C493 1.394 . S
C492 C497 1.373 . S
C493 C492 1.394 . S
C493 C494 1.380 . S
C493 H516 0.930 . S
C494 C493 1.380 . S
C494 C495 1.376 . S
C494 H517 0.930 . S
C495 C494 1.376 . S
C495 C496 1.370 . S
C496 C495 1.370 . S
C496 C497 1.396 . S
C496 H518 0.929 . S
C497 C492 1.373 . S
C497 C496 1.396 . S
C497 H519 0.929 . S
C498 O508 1.240 . S
C498 O509 1.289 . S
C499 O510 1.258 1_554 S
C499 O511 1.256 . S
O500 La480 2.521 . S
O500 C482 1.261 . S
O501 La480 2.628 . S
O501 C482 1.243 . S
O502 La480 2.554 . S
O502 C489 1.240 . S
O503 La480 2.757 . S
O503 La481 2.482 1_554 S
O503 C489 1.289 . S
O504 La480 2.470 . S
O504 C490 1.258 . S
O505 La481 2.503 1_554 S
O505 C490 1.256 . S
O506 La481 2.521 . S
O506 C491 1.261 . S
O507 La481 2.628 . S
O507 C491 1.243 . S
O508 La481 2.554 1_554 S
O508 C498 1.240 . S
O509 La480 2.482 . S
O509 La481 2.757 1_554 S
O509 C498 1.289 . S
O510 La481 2.470 . S
O510 C499 1.258 1_556 S
O511 La480 2.503 . S
O511 C499 1.256 . S
H512 C484 0.930 . S
H513 C485 0.930 . S
H514 C487 0.929 . S
H515 C488 0.929 . S
H516 C493 0.930 . S
H517 C494 0.930 . S
H518 C496 0.929 . S
H519 C497 0.929 . S
La520 C522 2.928 . S
La520 O540 2.521 . S
La520 O541 2.628 . S
La520 O542 2.554 1_545 S
La520 O543 2.757 . S
La520 O544 2.470 . S
La520 O549 2.482 . S
La520 O551 2.503 . S
La521 C531 2.928 1_556 S
La521 O543 2.482 . S
La521 O545 2.503 . S
La521 O546 2.521 1_556 S
La521 O547 2.628 1_556 S
La521 O548 2.554 . S
La521 O549 2.757 . S
La521 O550 2.470 . S
C522 La520 2.928 . S
C522 C523 1.503 . S
C522 O540 1.261 . S
C522 O541 1.243 . S
C523 C522 1.503 . S
C523 C524 1.394 . S
C523 C528 1.373 . S
C524 C523 1.394 . S
C524 C525 1.380 . S
C524 H552 0.930 1_545 S
C525 C524 1.380 . S
C525 C526 1.376 . S
C525 H553 0.930 1_545 S
C526 C525 1.376 . S
C526 C527 1.370 . S
C527 C526 1.370 . S
C527 C528 1.396 . S
C527 H554 0.929 . S
C528 C523 1.373 . S
C528 C527 1.396 . S
C528 H555 0.929 . S
C529 O542 1.240 1_545 S
C529 O543 1.289 . S
C530 O544 1.258 . S
C530 O545 1.256 . S
C531 La521 2.928 1_554 S
C531 C532 1.503 . S
C531 O546 1.261 . S
C531 O547 1.243 . S
C532 C531 1.503 . S
C532 C533 1.394 . S
C532 C537 1.373 . S
C533 C532 1.394 . S
C533 C534 1.380 . S
C533 H556 0.930 . S
C534 C533 1.380 . S
C534 C535 1.376 . S
C534 H557 0.930 . S
C535 C534 1.376 . S
C535 C536 1.370 . S
C536 C535 1.370 . S
C536 C537 1.396 . S
C536 H558 0.929 . S
C537 C532 1.373 . S
C537 C536 1.396 . S
C537 H559 0.929 . S
C538 O548 1.240 . S
C538 O549 1.289 . S
C539 O550 1.258 . S
C539 O551 1.256 . S
O540 La520 2.521 . S
O540 C522 1.261 . S
O541 La520 2.628 . S
O541 C522 1.243 . S
O542 La520 2.554 1_565 S
O542 C529 1.240 1_565 S
O543 La520 2.757 . S
O543 La521 2.482 . S
O543 C529 1.289 . S
O544 La520 2.470 . S
O544 C530 1.258 . S
O545 La521 2.503 . S
O545 C530 1.256 . S
O546 La521 2.521 1_554 S
O546 C531 1.261 . S
O547 La521 2.628 1_554 S
O547 C531 1.243 . S
O548 La521 2.554 . S
O548 C538 1.240 . S
O549 La520 2.482 . S
O549 La521 2.757 . S
O549 C538 1.289 . S
O550 La521 2.470 . S
O550 C539 1.258 . S
O551 La520 2.503 . S
O551 C539 1.256 . S
H552 C524 0.930 1_565 S
H553 C525 0.930 1_565 S
H554 C527 0.929 . S
H555 C528 0.929 . S
H556 C533 0.930 . S
H557 C534 0.930 . S
H558 C536 0.929 . S
H559 C537 0.929 . S
La560 C562 2.928 . S
La560 O580 2.521 . S
La560 O581 2.628 . S
La560 O582 2.554 . S
La560 O583 2.757 . S
La560 O584 2.470 . S
La560 O589 2.482 . S
La560 O591 2.503 . S
La561 C571 2.928 . S
La561 O583 2.482 . S
La561 O585 2.503 . S
La561 O586 2.521 . S
La561 O587 2.628 . S
La561 O588 2.554 . S
La561 O589 2.757 . S
La561 O590 2.470 . S
C562 La560 2.928 . S
C562 C563 1.503 . S
C562 O580 1.261 . S
C562 O581 1.243 . S
C563 C562 1.503 . S
C563 C564 1.394 . S
C563 C568 1.373 . S
C564 C563 1.394 . S
C564 C565 1.380 . S
C564 H592 0.930 . S
C565 C564 1.380 . S
C565 C566 1.376 . S
C565 H593 0.930 . S
C566 C565 1.376 . S
C566 C567 1.370 . S
C567 C566 1.370 . S
C567 C568 1.396 . S
C567 H594 0.929 . S
C568 C563 1.373 . S
C568 C567 1.396 . S
C568 H595 0.929 . S
C569 O582 1.240 . S
C569 O583 1.289 . S
C570 O584 1.258 . S
C570 O585 1.256 . S
C571 La561 2.928 . S
C571 C572 1.503 . S
C571 O586 1.261 . S
C571 O587 1.243 . S
C572 C571 1.503 . S
C572 C573 1.394 . S
C572 C577 1.373 . S
C573 C572 1.394 . S
C573 C574 1.380 1_556 S
C573 H596 0.930 . S
C574 C573 1.380 1_554 S
C574 C575 1.376 . S
C574 H597 0.930 . S
C575 C574 1.376 . S
C575 C576 1.370 . S
C576 C575 1.370 . S
C576 C577 1.396 1_554 S
C576 H598 0.929 . S
C577 C572 1.373 . S
C577 C576 1.396 1_556 S
C577 H599 0.929 . S
C578 O588 1.240 . S
C578 O589 1.289 . S
C579 O590 1.258 . S
C579 O591 1.256 . S
O580 La560 2.521 . S
O580 C562 1.261 . S
O581 La560 2.628 . S
O581 C562 1.243 . S
O582 La560 2.554 . S
O582 C569 1.240 . S
O583 La560 2.757 . S
O583 La561 2.482 . S
O583 C569 1.289 . S
O584 La560 2.470 . S
O584 C570 1.258 . S
O585 La561 2.503 . S
O585 C570 1.256 . S
O586 La561 2.521 . S
O586 C571 1.261 . S
O587 La561 2.628 . S
O587 C571 1.243 . S
O588 La561 2.554 . S
O588 C578 1.240 . S
O589 La560 2.482 . S
O589 La561 2.757 . S
O589 C578 1.289 . S
O590 La561 2.470 . S
O590 C579 1.258 . S
O591 La560 2.503 . S
O591 C579 1.256 . S
H592 C564 0.930 . S
H593 C565 0.930 . S
H594 C567 0.929 . S
H595 C568 0.929 . S
H596 C573 0.930 . S
H597 C574 0.930 . S
H598 C576 0.929 . S
H599 C577 0.929 . S
La600 C602 2.928 . S
La600 O620 2.521 . S
La600 O621 2.628 . S
La600 O622 2.554 . S
La600 O623 2.757 . S
La600 O624 2.470 . S
La600 O629 2.482 . S
La600 O631 2.503 . S
La601 C611 2.928 . S
La601 O623 2.482 . S
La601 O625 2.503 . S
La601 O626 2.521 . S
La601 O627 2.628 . S
La601 O628 2.554 . S
La601 O629 2.757 . S
La601 O630 2.470 . S
C602 La600 2.928 . S
C602 C603 1.503 . S
C602 O620 1.261 . S
C602 O621 1.243 . S
C603 C602 1.503 . S
C603 C604 1.394 . S
C603 C608 1.373 . S
C604 C603 1.394 . S
C604 C605 1.380 1_554 S
C604 H632 0.930 . S
C605 C604 1.380 1_556 S
C605 C606 1.376 . S
C605 H633 0.930 . S
C606 C605 1.376 . S
C606 C607 1.370 . S
C607 C606 1.370 . S
C607 C608 1.396 1_556 S
C607 H634 0.929 . S
C608 C603 1.373 . S
C608 C607 1.396 1_554 S
C608 H635 0.929 . S
C609 O622 1.240 . S
C609 O623 1.289 . S
C610 O624 1.258 . S
C610 O625 1.256 . S
C611 La601 2.928 . S
C611 C612 1.503 . S
C611 O626 1.261 . S
C611 O627 1.243 . S
C612 C611 1.503 . S
C612 C613 1.394 . S
C612 C617 1.373 . S
C613 C612 1.394 . S
C613 C614 1.380 . S
C613 H636 0.930 . S
C614 C613 1.380 . S
C614 C615 1.376 . S
C614 H637 0.930 . S
C615 C614 1.376 . S
C615 C616 1.370 . S
C616 C615 1.370 . S
C616 C617 1.396 . S
C616 H638 0.929 . S
C617 C612 1.373 . S
C617 C616 1.396 . S
C617 H639 0.929 . S
C618 O628 1.240 . S
C618 O629 1.289 . S
C619 O630 1.258 . S
C619 O631 1.256 . S
O620 La600 2.521 . S
O620 C602 1.261 . S
O621 La600 2.628 . S
O621 C602 1.243 . S
O622 La600 2.554 . S
O622 C609 1.240 . S
O623 La600 2.757 . S
O623 La601 2.482 . S
O623 C609 1.289 . S
O624 La600 2.470 . S
O624 C610 1.258 . S
O625 La601 2.503 . S
O625 C610 1.256 . S
O626 La601 2.521 . S
O626 C611 1.261 . S
O627 La601 2.628 . S
O627 C611 1.243 . S
O628 La601 2.554 . S
O628 C618 1.240 . S
O629 La600 2.482 . S
O629 La601 2.757 . S
O629 C618 1.289 . S
O630 La601 2.470 . S
O630 C619 1.258 . S
O631 La600 2.503 . S
O631 C619 1.256 . S
H632 C604 0.930 . S
H633 C605 0.930 . S
H634 C607 0.929 . S
H635 C608 0.929 . S
H636 C613 0.930 . S
H637 C614 0.930 . S
H638 C616 0.929 . S
H639 C617 0.929 . S
C6 C15 2.527 . S
C55 C46 2.265 . S
C95 C86 3.875 . S
C126 C135 2.100 . S
C166 C175 2.099 . S
C206 C215 2.434 . S
C255 C246 2.300 . S
C295 C286 2.496 . S
C335 C326 2.787 . S
C375 C366 2.295 . S
C406 C415 2.750 . S
C455 C446 2.279 . S
C495 C486 2.071 . S
C526 C535 2.897 . S
C566 C575 2.107 . S
C606 C615 2.335 . S
C9 C459 1.613 . S
C50 C619 2.292 . S
C90 C378 2.008 . S
C129 C539 1.983 1_655 S
C169 C538 1.622 . S
C458 C210 2.051 1_455 S
C250 C618 1.677 . S
C290 C379 2.107 . S
C130 C338 1.598 . S
C49 C418 1.607 . S
C498 C209 1.574 . S
C289 C579 1.723 . S
C339 C170 2.129 1_655 S
C249 C419 2.062 . S
C89 C578 1.816 . S
C10 C499 2.227 1_455 S
C18 C178 3.104 1_554 S
C59 C219 3.486 . S
C99 C259 2.783 . S
C138 C299 3.394 . S
C489 C329 2.877 1_554 S
C530 C370 3.018 . S
C409 C570 3.650 . S
C610 C449 3.579 . S
C58 C298 3.068 1_565 S
C179 C98 3.896 . S
C218 C139 3.217 1_554 S
C19 C258 3.319 . S
C609 C369 3.277 1_565 S
C490 C410 3.518 . S
C529 C450 3.183 1_546 S
C569 C330 3.138 . S
