# Generated by pormake.
# Topology zfn, (5)-cn, num edge types: 1
# Building blocks:
#     Node 0, Type 0, BuildingBlock: XOMCOT_clean_sbu_1, # of connection points: 5
#     Node 1, Type 0, BuildingBlock: XOMCOT_clean_sbu_1, # of connection points: 5
#     Node 2, Type 0, BuildingBlock: XOMCOT_clean_sbu_1, # of connection points: 5
#     Node 3, Type 0, BuildingBlock: XOMCOT_clean_sbu_1, # of connection points: 5
#     Node 4, Type 0, BuildingBlock: XOMCOT_clean_sbu_1, # of connection points: 5
#     Node 5, Type 0, BuildingBlock: XOMCOT_clean_sbu_1, # of connection points: 5
#     Node 6, Type 0, BuildingBlock: XOMCOT_clean_sbu_1, # of connection points: 5
#     Node 7, Type 0, BuildingBlock: XOMCOT_clean_sbu_1, # of connection points: 5
#     Node 8, Type 0, BuildingBlock: XOMCOT_clean_sbu_1, # of connection points: 5
#     Node 9, Type 0, BuildingBlock: XOMCOT_clean_sbu_1, # of connection points: 5
#     Node 10, Type 0, BuildingBlock: XOMCOT_clean_sbu_1, # of connection points: 5
#     Node 11, Type 0, BuildingBlock: XOMCOT_clean_sbu_1, # of connection points: 5
#     Node 12, Type 0, BuildingBlock: XOMCOT_clean_sbu_1, # of connection points: 5
#     Node 13, Type 0, BuildingBlock: XOMCOT_clean_sbu_1, # of connection points: 5
#     Node 14, Type 0, BuildingBlock: XOMCOT_clean_sbu_1, # of connection points: 5
#     Node 15, Type 0, BuildingBlock: XOMCOT_clean_sbu_1, # of connection points: 5
#     Edge 16, Type (0, 0), BuildingBlock: EZIPEK_clean_linker_0, # of connection points: 2
#     Edge 17, Type (0, 0), BuildingBlock: EZIPEK_clean_linker_0, # of connection points: 2
#     Edge 18, Type (0, 0), BuildingBlock: EZIPEK_clean_linker_0, # of connection points: 2
#     Edge 19, Type (0, 0), BuildingBlock: EZIPEK_clean_linker_0, # of connection points: 2
#     Edge 20, Type (0, 0), BuildingBlock: EZIPEK_clean_linker_0, # of connection points: 2
#     Edge 21, Type (0, 0), BuildingBlock: EZIPEK_clean_linker_0, # of connection points: 2
#     Edge 22, Type (0, 0), BuildingBlock: EZIPEK_clean_linker_0, # of connection points: 2
#     Edge 23, Type (0, 0), BuildingBlock: EZIPEK_clean_linker_0, # of connection points: 2
#     Edge 24, Type (0, 0), BuildingBlock: EZIPEK_clean_linker_0, # of connection points: 2
#     Edge 25, Type (0, 0), BuildingBlock: EZIPEK_clean_linker_0, # of connection points: 2
#     Edge 26, Type (0, 0), BuildingBlock: EZIPEK_clean_linker_0, # of connection points: 2
#     Edge 27, Type (0, 0), BuildingBlock: EZIPEK_clean_linker_0, # of connection points: 2
#     Edge 28, Type (0, 0), BuildingBlock: EZIPEK_clean_linker_0, # of connection points: 2
#     Edge 29, Type (0, 0), BuildingBlock: EZIPEK_clean_linker_0, # of connection points: 2
#     Edge 30, Type (0, 0), BuildingBlock: EZIPEK_clean_linker_0, # of connection points: 2
#     Edge 31, Type (0, 0), BuildingBlock: EZIPEK_clean_linker_0, # of connection points: 2
#     Edge 32, Type (0, 0), BuildingBlock: EZIPEK_clean_linker_0, # of connection points: 2
#     Edge 33, Type (0, 0), BuildingBlock: EZIPEK_clean_linker_0, # of connection points: 2
#     Edge 34, Type (0, 0), BuildingBlock: EZIPEK_clean_linker_0, # of connection points: 2
#     Edge 35, Type (0, 0), BuildingBlock: EZIPEK_clean_linker_0, # of connection points: 2
#     Edge 36, Type (0, 0), BuildingBlock: EZIPEK_clean_linker_0, # of connection points: 2
#     Edge 37, Type (0, 0), BuildingBlock: EZIPEK_clean_linker_0, # of connection points: 2
#     Edge 38, Type (0, 0), BuildingBlock: EZIPEK_clean_linker_0, # of connection points: 2
#     Edge 39, Type (0, 0), BuildingBlock: EZIPEK_clean_linker_0, # of connection points: 2
#     Edge 40, Type (0, 0), BuildingBlock: EZIPEK_clean_linker_0, # of connection points: 2
#     Edge 41, Type (0, 0), BuildingBlock: EZIPEK_clean_linker_0, # of connection points: 2
#     Edge 42, Type (0, 0), BuildingBlock: EZIPEK_clean_linker_0, # of connection points: 2
#     Edge 43, Type (0, 0), BuildingBlock: EZIPEK_clean_linker_0, # of connection points: 2
#     Edge 44, Type (0, 0), BuildingBlock: EZIPEK_clean_linker_0, # of connection points: 2
#     Edge 45, Type (0, 0), BuildingBlock: EZIPEK_clean_linker_0, # of connection points: 2
#     Edge 46, Type (0, 0), BuildingBlock: EZIPEK_clean_linker_0, # of connection points: 2
#     Edge 47, Type (0, 0), BuildingBlock: EZIPEK_clean_linker_0, # of connection points: 2
#     Edge 48, Type (0, 0), BuildingBlock: EZIPEK_clean_linker_0, # of connection points: 2
#     Edge 49, Type (0, 0), BuildingBlock: EZIPEK_clean_linker_0, # of connection points: 2
#     Edge 50, Type (0, 0), BuildingBlock: EZIPEK_clean_linker_0, # of connection points: 2
#     Edge 51, Type (0, 0), BuildingBlock: EZIPEK_clean_linker_0, # of connection points: 2
#     Edge 52, Type (0, 0), BuildingBlock: EZIPEK_clean_linker_0, # of connection points: 2
#     Edge 53, Type (0, 0), BuildingBlock: EZIPEK_clean_linker_0, # of connection points: 2
#     Edge 54, Type (0, 0), BuildingBlock: EZIPEK_clean_linker_0, # of connection points: 2
#     Edge 55, Type (0, 0), BuildingBlock: EZIPEK_clean_linker_0, # of connection points: 2
# Relax obj value: 0.122
# Max RMSD: 0.125
# Mean RMSD: 0.125
data_MOF--net-zfn--node1-XOMCOT_clean_sbu_1--edge1-EZIPEK_clean_linker_0
_symmetry_space_group_name_H-M    P1
_symmetry_Int_Tables_number       1
_symmetry_cell_setting            triclinic
loop_
_symmetry_equiv_pos_as_xyz
'x, y, z'
_cell_length_a     56.589406
_cell_length_b     56.839589
_cell_length_c     13.508475
_cell_angle_alpha  90.046298
_cell_angle_beta   89.943695
_cell_angle_gamma 89.946729
loop_
_atom_site_label
_atom_site_type_symbol
_atom_site_fract_x
_atom_site_fract_y
_atom_site_fract_z
_atom_type_partial_charge
C0 C 0.99713 0.31307 0.01786 0.0
C1 C 0.99521 0.31116 0.91624 0.0
N2 N 0.01243 0.32424 0.87542 0.0
N3 N 0.01552 0.3272 0.04055 0.0
C4 C 0.02445 0.33369 0.95166 0.0
H5 H 0.98567 0.30489 0.07185 0.0
Co6 Co 0.02466 0.33574 0.16947 0.0
C7 C 0.05645 0.37658 0.12107 0.0
O8 O 0.04314 0.39028 0.17641 0.0
N9 N 0.03383 0.34335 0.30244 0.0
C10 C 0.05299 0.35499 0.43881 0.0
C11 C 0.05303 0.35497 0.33698 0.0
C12 C 0.02329 0.33524 0.38618 0.0
N13 N 0.03437 0.34237 0.46952 0.0
O14 O 0.04504 0.30902 0.17485 0.0
H15 H 0.06721 0.36194 0.29278 0.0
H16 H 0.00806 0.32377 0.38664 0.0
O17 O 0.05083 0.35488 0.11371 0.0
C18 C 0.03408 0.29143 0.21079 0.0
O19 O 0.01188 0.2939 0.2372 0.0
N20 N 0.00248 0.36075 0.16559 0.0
C21 C 0.96501 0.3927 0.16216 0.0
C22 C 0.98225 0.3931 0.0878 0.0
C23 C 0.00067 0.37666 0.08989 0.0
C24 C 0.98493 0.35945 0.23477 0.0
C25 C 0.96633 0.37554 0.23578 0.0
H26 H 0.01339 0.37675 0.03032 0.0
H27 H 0.98466 0.34533 0.28762 0.0
H28 H 0.03897 0.34571 0.94186 0.0
H29 H 0.98214 0.30121 0.87549 0.0
H30 H 0.06624 0.36267 0.48672 0.0
H31 H 0.98136 0.40587 0.02843 0.0
H32 H 0.95285 0.37434 0.29254 0.0
C33 C 0.18706 -0.0009 0.4612 0.0
C34 C 0.18758 0.99754 0.3593 0.0
N35 N 0.1735 0.01447 0.32284 0.0
N36 N 0.17297 0.01715 0.4887 0.0
C37 C 0.16466 0.02591 0.40214 0.0
H38 H 0.19601 0.9874 0.51177 0.0
Co39 Co 0.16488 0.0255 0.61925 0.0
C40 C 0.1617 0.07473 0.5416 0.0
O41 O 0.18458 0.07851 0.54458 0.0
N42 N 0.15641 0.0334 0.74981 0.0
C43 C 0.13692 0.04741 0.8808 0.0
C44 C 0.13817 0.04715 0.77889 0.0
C45 C 0.1658 0.02528 0.83544 0.0
N46 N 0.15435 0.03367 0.9158 0.0
O47 O 0.19588 0.03859 0.64011 0.0
H48 H 0.12607 0.05593 0.72926 0.0
H49 H 0.18045 0.01311 0.83934 0.0
O50 O 0.153 0.05539 0.57234 0.0
C51 C 0.21127 0.02413 0.67226 0.0
O52 O 0.20524 0.00207 0.68575 0.0
N53 N 0.13548 0.01132 0.60146 0.0
C54 C 0.09465 0.98455 0.58332 0.0
C55 C 0.095 0.00791 0.55053 0.0
C56 C 0.11575 0.02107 0.55977 0.0
C57 C 0.13534 0.98864 0.63363 0.0
C58 C 0.11507 0.97489 0.62528 0.0
H59 H 0.11574 0.03897 0.53317 0.0
H60 H 0.15118 0.98124 0.66592 0.0
H61 H 0.15176 0.03987 0.39667 0.0
H62 H 0.19725 0.98482 0.31538 0.0
H63 H 0.12407 0.05665 0.92579 0.0
H64 H 0.07941 0.01583 0.51813 0.0
H65 H 0.11526 0.95689 0.65161 0.0
C66 C 0.50164 0.16721 0.03447 0.0
C67 C 0.50353 0.1678 0.93268 0.0
N68 N 0.48174 0.16509 0.89478 0.0
N69 N 0.47879 0.16401 0.06 0.0
C70 C 0.46709 0.163 0.97291 0.0
H71 H 0.51608 0.1683 0.08666 0.0
Co72 Co 0.46788 0.15945 0.18916 0.0
C73 C 0.42771 0.12638 0.1656 0.0
O74 O 0.43689 0.11421 0.23896 0.0
N75 N 0.45701 0.15581 0.32192 0.0
C76 C 0.43307 0.15666 0.45377 0.0
C77 C 0.43418 0.15683 0.35214 0.0
C78 C 0.46941 0.15657 0.40783 0.0
N79 N 0.45527 0.15683 0.4885 0.0
O80 O 0.45323 0.1897 0.1886 0.0
H81 H 0.41914 0.15888 0.30371 0.0
H82 H 0.48834 0.15846 0.41239 0.0
O83 O 0.43865 0.14479 0.13641 0.0
C84 C 0.46771 0.20566 0.21493 0.0
O85 O 0.48994 0.19985 0.22906 0.0
N86 N 0.48434 0.13045 0.1914 0.0
C87 C 0.51487 0.09188 0.19094 0.0
C88 C 0.49511 0.09225 0.12873 0.0
C89 C 0.4804 0.11206 0.12797 0.0
C90 C 0.50428 0.13071 0.24795 0.0
C91 C 0.51956 0.11145 0.25032 0.0
H92 H 0.46641 0.11285 0.07381 0.0
H93 H 0.50918 0.14648 0.28715 0.0
H94 H 0.44835 0.16021 0.96602 0.0
H95 H 0.5196 0.16952 0.88978 0.0
H96 H 0.41727 0.15786 0.49878 0.0
H97 H 0.49163 0.07775 0.07873 0.0
H98 H 0.5353 0.11211 0.29582 0.0
C99 C 0.31351 0.49347 0.53838 0.0
C100 C 0.3121 0.49519 0.4365 0.0
N101 N 0.32561 0.47811 0.39715 0.0
N102 N 0.32778 0.47534 0.56302 0.0
C103 C 0.33491 0.46644 0.47467 0.0
H104 H 0.30491 0.50495 0.59111 0.0
Co105 Co 0.3359 0.46628 0.6934 0.0
C106 C 0.34467 0.41807 0.61063 0.0
O107 O 0.32258 0.41152 0.62117 0.0
N108 N 0.34385 0.45758 0.82422 0.0
C109 C 0.36274 0.44396 0.95727 0.0
C110 C 0.36214 0.44418 0.85512 0.0
C111 C 0.33394 0.46571 0.90902 0.0
N112 N 0.34492 0.45748 0.9906 0.0
O113 O 0.30602 0.45011 0.70637 0.0
H114 H 0.37496 0.43602 0.80679 0.0
H115 H 0.31958 0.47823 0.91137 0.0
O116 O 0.35153 0.43824 0.64097 0.0
C117 C 0.28904 0.46259 0.73966 0.0
O118 O 0.293 0.48471 0.76209 0.0
N119 N 0.36418 0.48355 0.68397 0.0
C120 C 0.40308 0.51375 0.67646 0.0
C121 C 0.40028 0.49585 0.60578 0.0
C122 C 0.38098 0.48052 0.6123 0.0
C123 C 0.36653 0.50104 0.75236 0.0
C124 C 0.38623 0.51574 0.75216 0.0
H125 H 0.37935 0.46668 0.55812 0.0
H126 H 0.35288 0.50381 0.80715 0.0
H127 H 0.34728 0.45215 0.46609 0.0
H128 H 0.30219 0.50807 0.39458 0.0
H129 H 0.37563 0.43517 1.00349 0.0
H130 H 0.41284 0.49383 0.5458 0.0
H131 H 0.38772 0.52932 0.80813 0.0
C132 C 0.00872 0.15108 0.45597 0.0
C133 C 0.00756 0.15177 0.55787 0.0
N134 N 0.02971 0.15372 0.59278 0.0
N135 N 0.03154 0.15225 0.42708 0.0
C136 C 0.04386 0.15445 0.5124 0.0
H137 H 0.9939 0.14893 0.40636 0.0
Co138 Co 0.0429 0.14857 0.29735 0.0
C139 C 0.08526 0.11723 0.32783 0.0
O140 O 0.07929 0.10412 0.25168 0.0
N141 N 0.05433 0.14574 0.16561 0.0
C142 C 0.07887 0.1491 0.03667 0.0
C143 C 0.07708 0.14903 0.13821 0.0
C144 C 0.04246 0.14512 0.07834 0.0
N145 N 0.057 0.14704 0.99925 0.0
O146 O 0.05634 0.17926 0.30165 0.0
H147 H 0.09134 0.15282 0.18881 0.0
H148 H 0.02346 0.14471 0.07179 0.0
O149 O 0.07247 0.13496 0.35146 0.0
C150 C 0.04069 0.19445 0.27924 0.0
O151 O 0.01885 0.18735 0.26508 0.0
N152 N 0.02721 0.11929 0.29036 0.0
C153 C 0.99389 0.08321 0.29854 0.0
C154 C 0.01526 0.0812 0.34972 0.0
C155 C 0.03158 0.09963 0.34585 0.0
C156 C 0.00641 0.12127 0.24016 0.0
C157 C 0.98963 0.10334 0.24209 0.0
H158 H 0.0468 0.09843 0.39255 0.0
H159 H 0.00187 0.13774 0.20525 0.0
H160 H 0.06291 0.1557 0.51614 0.0
H161 H 0.99183 0.15006 0.60299 0.0
H162 H 0.09474 0.15207 0.99361 0.0
H163 H 0.01869 0.06611 0.3965 0.0
H164 H 0.9729 0.10573 0.20446 0.0
C165 C 0.3121 0.0188 0.05695 0.0
C166 C 0.31057 0.01869 0.15859 0.0
N167 N 0.33225 0.01475 0.19469 0.0
N168 N 0.33476 0.01507 0.02792 0.0
C169 C 0.3464 0.01205 0.11504 0.0
H170 H 0.29738 0.02241 1.00904 0.0
Co171 Co 0.34815 0.01793 0.89724 0.0
C172 C 0.37806 0.06253 0.91702 0.0
O173 O 0.39015 0.05889 0.83538 0.0
N174 N 0.36135 0.02055 0.76483 0.0
C175 C 0.38276 0.01283 0.62858 0.0
C176 C 0.3823 0.01223 0.73012 0.0
C177 C 0.34979 0.02671 0.6803 0.0
N178 N 0.36213 0.02162 0.59739 0.0
O179 O 0.32012 0.03404 0.8516 0.0
H180 H 0.39621 0.00459 0.77333 0.0
H181 H 0.33212 0.03376 0.67766 0.0
O182 O 0.36194 0.04795 0.94216 0.0
C183 C 0.30411 0.01987 0.82161 0.0
O184 O 0.30755 0.99718 0.83397 0.0
N185 N 0.37447 -8e-05 0.93762 0.0
C186 C 0.41055 0.96679 0.94988 0.0
C187 C 0.41535 0.99064 0.96538 0.0
C188 C 0.39699 0.00704 0.95941 0.0
C189 C 0.36936 0.97657 0.92954 0.0
C190 C 0.38716 0.95963 0.93558 0.0
H191 H 0.40163 0.02531 0.96239 0.0
H192 H 0.3515 0.97121 0.91212 0.0
H193 H 0.36504 0.00838 0.12125 0.0
H194 H 0.295 0.02233 0.20267 0.0
H195 H 0.39645 0.00572 0.58111 0.0
H196 H 0.43334 0.99664 0.97589 0.0
H197 H 0.38294 0.94127 0.92336 0.0
C198 C 0.4961 0.3416 0.4847 0.0
C199 C 0.49779 0.34061 0.58651 0.0
N200 N 0.47584 0.34203 0.62417 0.0
N201 N 0.4732 0.34396 0.45843 0.0
C202 C 0.46126 0.34362 0.54544 0.0
H203 H 0.51075 0.3413 0.4333 0.0
Co204 Co 0.46184 0.34875 0.32906 0.0
C205 C 0.41911 0.38013 0.36479 0.0
O206 O 0.42302 0.39285 0.28522 0.0
N207 N 0.45065 0.35283 0.1976 0.0
C208 C 0.42753 0.34859 0.0649 0.0
C209 C 0.42826 0.34899 0.16683 0.0
C210 C 0.46328 0.35429 0.11225 0.0
N211 N 0.44959 0.35189 0.03097 0.0
O212 O 0.44719 0.3184 0.3322 0.0
H213 H 0.41369 0.34474 0.21533 0.0
H214 H 0.48231 0.35525 0.10885 0.0
O215 O 0.43298 0.36309 0.38602 0.0
C216 C 0.45958 0.30354 0.28405 0.0
O217 O 0.47936 0.31055 0.24263 0.0
N218 N 0.4787 0.37734 0.32348 0.0
C219 C 0.5132 0.4123 0.32823 0.0
C220 C 0.49106 0.41619 0.37139 0.0
C221 C 0.47399 0.3984 0.36844 0.0
C222 C 0.50018 0.3736 0.28039 0.0
C223 C 0.51759 0.39091 0.28073 0.0
H224 H 0.45768 0.40154 0.40621 0.0
H225 H 0.50435 0.35644 0.25057 0.0
H226 H 0.44226 0.34502 0.55172 0.0
H227 H 0.51387 0.3397 0.62968 0.0
H228 H 0.41231 0.34467 0.01933 0.0
H229 H 0.48735 0.43247 0.41015 0.0
H230 H 0.53475 0.38721 0.24864 0.0
C231 C 0.17303 0.49301 0.02615 0.0
C232 C 0.17428 0.49116 0.1273 0.0
N233 N 0.15943 0.47399 0.15607 0.0
N234 N 0.15704 0.47749 0.99153 0.0
C235 C 0.14963 0.46559 0.07232 0.0
H236 H 0.1825 0.50551 0.98068 0.0
Co237 Co 0.14769 0.47665 0.85998 0.0
C238 C 0.11349 0.43377 0.86059 0.0
O239 O 0.10735 0.43342 0.76687 0.0
N240 N 0.13959 0.47735 0.72547 0.0
C241 C 0.13361 0.49585 0.58256 0.0
C242 C 0.13453 0.49828 0.68274 0.0
C243 C 0.14256 0.46245 0.64805 0.0
N244 N 0.13886 0.47347 0.56053 0.0
O245 O 0.17445 0.45633 0.832 0.0
H246 H 0.1333 0.5149 0.72128 0.0
H247 H 0.14903 0.44462 0.655 0.0
O248 O 0.12813 0.44917 0.89178 0.0
C249 C 0.19255 0.46579 0.7925 0.0
O250 O 0.19162 0.48811 0.76794 0.0
N251 N 0.12184 0.49729 0.88811 0.0
C252 C 0.08621 0.53119 0.90126 0.0
C253 C 0.08144 0.50905 0.86129 0.0
C254 C 0.09956 0.49246 0.85425 0.0
C255 C 0.12662 0.51892 0.9276 0.0
C256 C 0.10897 0.53604 0.93586 0.0
H257 H 0.09586 0.47615 0.8168 0.0
H258 H 0.14442 0.52363 0.94743 0.0
H259 H 0.13664 0.45172 0.07132 0.0
H260 H 0.18473 0.50202 0.17644 0.0
H261 H 0.13121 0.50985 0.52914 0.0
H262 H 0.0641 0.50498 0.83202 0.0
H263 H 0.11329 0.55326 0.96508 0.0
C264 C 0.00807 0.67679 0.09925 0.0
C265 C 0.00888 0.67836 0.20074 0.0
N266 N 0.98679 0.68178 0.23383 0.0
N267 N 0.98543 0.67862 0.06768 0.0
C268 C 0.97309 0.68283 0.15205 0.0
H269 H 0.02336 0.67432 0.05293 0.0
Co270 Co 0.97341 0.67563 0.93564 0.0
C271 C 0.94086 0.64506 0.05416 0.0
O272 O 0.9592 0.63623 0.10062 0.0
N273 N 0.96179 0.67354 0.80628 0.0
C274 C 0.93779 0.67671 0.67636 0.0
C275 C 0.93904 0.67612 0.7781 0.0
C276 C 0.97411 0.67295 0.72038 0.0
N277 N 0.95988 0.67495 0.64054 0.0
O278 O 0.95908 0.70607 0.94412 0.0
H279 H 0.92435 0.6786 0.82832 0.0
H280 H 0.99319 0.67206 0.71634 0.0
O281 O 0.94401 0.66073 0.98719 0.0
C282 C 0.97282 0.72381 0.9428 0.0
O283 O 0.99478 0.72114 0.97221 0.0
N284 N 0.98909 0.64649 0.91804 0.0
C285 C 0.01815 0.60726 0.89748 0.0
C286 C 0.99361 0.60457 0.90407 0.0
C287 C 0.97926 0.62456 0.9113 0.0
C288 C 0.01256 0.64929 0.89877 0.0
C289 C 0.02758 0.62991 0.89094 0.0
H290 H 0.9604 0.6222 0.91149 0.0
H291 H 0.01975 0.66681 0.89112 0.0
H292 H 0.95426 0.68594 0.15373 0.0
H293 H 0.02433 0.67626 0.24708 0.0
H294 H 0.92206 0.67929 0.6321 0.0
H295 H 0.98571 0.58722 0.90399 0.0
H296 H 0.04639 0.63257 0.88102 0.0
C297 C 0.83419 0.00659 0.48506 0.0
C298 C 0.83251 0.00814 0.58688 0.0
N299 N 0.83574 0.9865 0.62498 0.0
N300 N 0.83862 0.98408 0.4591 0.0
C301 C 0.83889 0.9722 0.54618 0.0
H302 H 0.83342 0.02111 0.43346 0.0
Co303 Co 0.84577 0.97334 0.32996 0.0
C304 C 0.88064 0.93627 0.40347 0.0
O305 O 0.89922 0.94647 0.36429 0.0
N306 N 0.85199 0.96258 0.19822 0.0
C307 C 0.86651 0.94564 0.06168 0.0
C308 C 0.86726 0.94618 0.16361 0.0
C309 C 0.84195 0.9715 0.11486 0.0
N310 N 0.8506 0.9616 0.03127 0.0
O311 O 0.81567 0.95795 0.32489 0.0
H312 H 0.87881 0.93551 0.20788 0.0
H313 H 0.82928 0.98577 0.11516 0.0
O314 O 0.85989 0.94463 0.38942 0.0
C315 C 0.79922 0.97192 0.29857 0.0
O316 O 0.80433 0.99409 0.28184 0.0
N317 N 0.87476 0.9906 0.33212 0.0
C318 C 0.91493 0.01916 0.32949 0.0
C319 C 0.90915 0.00624 0.41404 0.0
C320 C 0.88871 0.99246 0.41441 0.0
C321 C 0.87968 0.00423 0.25134 0.0
C322 C 0.89989 0.01826 0.2477 0.0
H323 H 0.88412 0.98337 0.48114 0.0
H324 H 0.86763 0.00499 0.18984 0.0
H325 H 0.84235 0.95356 0.55278 0.0
H326 H 0.83033 0.02407 0.62991 0.0
H327 H 0.87731 0.93488 1.01337 0.0
H328 H 0.92008 0.00715 0.4797 0.0
H329 H 0.90346 0.02874 0.18244 0.0
C330 C 0.49814 0.82198 0.05522 0.0
C331 C 0.49679 0.8202 0.15666 0.0
N332 N 0.51887 0.82044 0.19267 0.0
N333 N 0.52099 0.82409 0.02644 0.0
C334 C 0.53312 0.82162 0.11249 0.0
H335 H 0.48305 0.8221 1.00673 0.0
Co336 Co 0.53234 0.83064 0.89449 0.0
C337 C 0.56421 0.86088 0.02073 0.0
O338 O 0.5459 0.86775 0.07305 0.0
N339 N 0.54302 0.83613 0.76476 0.0
C340 C 0.56644 0.83741 0.63213 0.0
C341 C 0.5657 0.83758 0.73407 0.0
C342 C 0.5303 0.83497 0.67997 0.0
N343 N 0.54419 0.83539 0.59839 0.0
O344 O 0.54821 0.80076 0.88987 0.0
H345 H 0.58092 0.83716 0.78232 0.0
H346 H 0.51135 0.8325 0.67807 0.0
O347 O 0.56136 0.84642 0.94861 0.0
C348 C 0.53413 0.78367 0.87342 0.0
O349 O 0.51132 0.78721 0.88419 0.0
N350 N 0.51493 0.85901 0.89002 0.0
C351 C 0.4833 0.8964 0.89655 0.0
C352 C 0.50765 0.90058 0.90003 0.0
C353 C 0.52328 0.88157 0.8931 0.0
C354 C 0.49151 0.85521 0.87306 0.0
C355 C 0.47523 0.87359 0.87858 0.0
H356 H 0.5419 0.88516 0.89112 0.0
H357 H 0.48537 0.83762 0.85689 0.0
H358 H 0.55206 0.82168 0.1172 0.0
H359 H 0.48084 0.81991 0.20096 0.0
H360 H 0.58215 0.83725 0.58634 0.0
H361 H 0.51444 0.91828 0.9083 0.0
H362 H 0.45654 0.87 0.87043 0.0
C363 C 0.66627 0.48163 0.52843 0.0
C364 C 0.66772 0.48019 0.63001 0.0
N365 N 0.67207 0.50187 0.66544 0.0
N366 N 0.66931 0.50421 0.50011 0.0
C367 C 0.67361 0.51598 0.58528 0.0
H368 H 0.66213 0.4673 0.47871 0.0
Co369 Co 0.66553 0.5156 0.37061 0.0
C370 C 0.63273 0.55656 0.3963 0.0
O371 O 0.62135 0.54949 0.31689 0.0
N372 N 0.66296 0.52678 0.23845 0.0
C373 C 0.66676 0.55076 0.1082 0.0
C374 C 0.66588 0.54942 0.20986 0.0
C375 C 0.66346 0.5146 0.15195 0.0
N376 N 0.66536 0.5288 0.07224 0.0
O377 O 0.6966 0.52889 0.37367 0.0
H378 H 0.66866 0.56399 0.25985 0.0
H379 H 0.664 0.49569 0.14636 0.0
O380 O 0.65122 0.54527 0.4244 0.0
C381 C 0.71229 0.51331 0.35637 0.0
O382 O 0.70571 0.49116 0.35216 0.0
N383 N 0.63557 0.50052 0.36493 0.0
C384 C 0.59435 0.47368 0.35694 0.0
C385 C 0.59607 0.49268 0.42229 0.0
C386 C 0.61715 0.50538 0.4275 0.0
C387 C 0.63452 0.48112 0.30562 0.0
C388 C 0.61394 0.46766 0.29913 0.0
H389 H 0.61877 0.5185 0.48439 0.0
H390 H 0.65011 0.47518 0.26724 0.0
H391 H 0.67684 0.53471 0.58906 0.0
H392 H 0.66455 0.46473 0.67483 0.0
H393 H 0.66947 0.56644 0.06423 0.0
H394 H 0.58157 0.49705 0.47141 0.0
H395 H 0.6135 0.45235 0.25136 0.0
C396 C 0.98732 0.82496 0.47386 0.0
C397 C 0.98617 0.82496 0.37234 0.0
N398 N 0.97052 0.84149 0.34416 0.0
N399 N 0.97244 0.84137 0.50982 0.0
C400 C 0.9623 0.85111 0.42891 0.0
H401 H 0.99977 0.81515 0.51816 0.0
Co402 Co 0.97341 0.85167 0.64021 0.0
C403 C 0.9224 0.85897 0.60303 0.0
O404 O 0.91775 0.83636 0.60676 0.0
N405 N 0.97568 0.86183 0.77204 0.0
C406 C 0.99464 0.87138 0.91047 0.0
C407 C 0.9963 0.86977 0.80968 0.0
C408 C 0.96162 0.85874 0.85226 0.0
N409 N 0.97299 0.86419 0.93754 0.0
O410 O 0.95894 0.8228 0.68355 0.0
H411 H 0.01228 0.87254 0.76752 0.0
H412 H 0.94425 0.85088 0.8492 0.0
O413 O 0.94304 0.8666 0.6229 0.0
C414 C 0.97314 0.80802 0.72176 0.0
O415 O 0.99569 0.81343 0.72579 0.0
N416 N 0.98879 0.87916 0.59852 0.0
C417 C 0.01829 0.91761 0.57011 0.0
C418 C 0.99466 0.92097 0.59785 0.0
C419 C 0.98014 0.90139 0.61257 0.0
C420 C 0.01131 0.87578 0.56556 0.0
C421 C 0.02639 0.89482 0.55073 0.0
H422 H 0.96254 0.90413 0.64145 0.0
H423 H 0.01815 0.85812 0.55748 0.0
H424 H 0.95069 0.86622 0.43128 0.0
H425 H 0.99695 0.81453 0.32261 0.0
H426 H 0.00883 0.87578 0.96092 0.0
H427 H 0.988 0.93843 0.61393 0.0
H428 H 0.04462 0.8917 0.52981 0.0
C429 C 0.65623 0.00601 0.05184 0.0
C430 C 0.65719 0.00721 0.95006 0.0
N431 N 0.65974 0.98521 0.91499 0.0
N432 N 0.6578 0.98331 0.08045 0.0
C433 C 0.66055 0.9711 0.99521 0.0
H434 H 0.65351 0.02067 0.10163 0.0
Co435 Co 0.65396 0.97224 0.21002 0.0
C436 C 0.62177 0.93076 0.18266 0.0
O437 O 0.60895 0.938 0.258 0.0
N438 N 0.65114 0.96115 0.34202 0.0
C439 C 0.65519 0.93678 0.47075 0.0
C440 C 0.6548 0.93854 0.36925 0.0
C441 C 0.65069 0.97299 0.42934 0.0
N442 N 0.65288 0.95854 0.50821 0.0
O443 O 0.68488 0.95871 0.20692 0.0
H444 H 0.65876 0.9244 0.31844 0.0
H445 H 0.65034 0.99189 0.43622 0.0
O446 O 0.64013 0.9425 0.15712 0.0
C447 C 0.70091 0.97386 0.2246 0.0
O448 O 0.69484 0.99611 0.23238 0.0
N449 N 0.62423 0.98777 0.21535 0.0
C450 C 0.58586 0.01871 0.20955 0.0
C451 C 0.58603 -0.00154 0.15088 0.0
C452 C 0.60557 0.98342 0.15362 0.0
C453 C 0.62446 0.0079 0.27047 0.0
C454 C 0.60527 0.02337 0.27033 0.0
H455 H 0.60605 0.96918 0.10169 0.0
H456 H 0.64033 0.013 0.30889 0.0
H457 H 0.66218 0.95216 0.99144 0.0
H458 H 0.65515 0.02283 0.90504 0.0
H459 H 0.65852 0.92105 0.51366 0.0
H460 H 0.57165 0.99488 0.10015 0.0
H461 H 0.60609 0.03946 0.31322 0.0
C462 C 0.50674 0.67546 0.50359 0.0
C463 C 0.50375 0.67752 0.40285 0.0
N464 N 0.51761 0.6614 0.35893 0.0
N465 N 0.52212 0.65786 0.52345 0.0
C466 C 0.52858 0.64984 0.43288 0.0
H467 H 0.49775 0.68579 0.55931 0.0
Co468 Co 0.5299 0.64927 0.65482 0.0
C469 C 0.56143 0.6132 0.56034 0.0
O470 O 0.54326 0.60089 0.52953 0.0
N471 N 0.53765 0.6425 0.78664 0.0
C472 C 0.55822 0.63804 0.92555 0.0
C473 C 0.55932 0.63786 0.82383 0.0
C474 C 0.52367 0.64538 0.86705 0.0
N475 N 0.53583 0.64279 0.95227 0.0
O476 O 0.54806 0.67784 0.66629 0.0
H477 H 0.57524 0.63588 0.78034 0.0
H478 H 0.50534 0.65077 0.86327 0.0
O479 O 0.55837 0.63233 0.60867 0.0
C480 C 0.5369 0.6937 0.714 0.0
O481 O 0.51522 0.68935 0.74343 0.0
N482 N 0.51025 0.6215 0.64798 0.0
C483 C 0.47791 0.584 0.65329 0.0
C484 C 0.474 0.60355 0.59269 0.0
C485 C 0.48973 0.62238 0.5944 0.0
C486 C 0.51482 0.60193 0.70424 0.0
C487 C 0.49869 0.58328 0.70953 0.0
H488 H 0.48461 0.63788 0.55446 0.0
H489 H 0.53079 0.60066 0.74733 0.0
H490 H 0.54081 0.63574 0.41933 0.0
H491 H 0.49237 0.68984 0.36468 0.0
H492 H 0.57292 0.63613 0.97612 0.0
H493 H 0.45807 0.60489 0.54864 0.0
H494 H 0.50231 0.56854 0.75796 0.0
C495 C 0.82385 0.53123 1.01253 0.0
C496 C 0.82366 0.53225 0.91063 0.0
N497 N 0.8456 0.5375 0.87985 0.0
N498 N 0.84597 0.53545 0.0462 0.0
C499 C 0.85874 0.53956 0.96281 0.0
H500 H 0.80866 0.52756 0.05821 0.0
Co501 Co 0.85728 0.53651 0.17869 0.0
C502 C 0.87599 0.57693 0.14213 0.0
O503 O 0.89242 0.56119 0.12399 0.0
N504 N 0.8691 0.53963 0.30917 0.0
C505 C 0.895 0.54132 0.43345 0.0
C506 C 0.89235 0.53942 0.33233 0.0
C507 C 0.85804 0.54222 0.39753 0.0
N508 N 0.87335 0.54286 0.47389 0.0
O509 O 0.82415 0.53522 0.22593 0.0
H510 H 0.90647 0.53708 0.27927 0.0
H511 H 0.8392 0.54253 0.4074 0.0
O512 O 0.85575 0.57003 0.17162 0.0
C513 C 0.81171 0.52088 0.27701 0.0
O514 O 0.82124 0.5019 0.31464 0.0
N515 N 0.86187 0.50206 0.18254 0.0
C516 C 0.88852 0.46042 0.17862 0.0
C517 C 0.8791 0.46958 0.09168 0.0
C518 C 0.86563 0.49015 0.09539 0.0
C519 C 0.86817 0.49091 0.26898 0.0
C520 C 0.88169 0.47033 0.26861 0.0
H521 H 0.85999 0.49684 0.02569 0.0
H522 H 0.86437 0.49835 0.34023 0.0
H523 H 0.87748 0.54321 0.96235 0.0
H524 H 0.80863 0.52927 0.86268 0.0
H525 H 0.91141 0.54057 0.47448 0.0
H526 H 0.88354 0.4619 0.02059 0.0
H527 H 0.88819 0.46323 0.33785 0.0
C528 C 0.92214 0.40299 0.13834 0.0
C529 C 0.94543 0.41013 0.1634 0.0
C530 C 0.93158 0.4505 0.1892 0.0
C531 C 0.90795 0.44286 0.17422 0.0
N532 N 0.88012 0.41152 0.14655 0.0
N533 N 0.97188 0.4396 0.2283 0.0
C534 C 0.90304 0.41899 0.15201 0.0
C535 C 0.95005 0.4336 0.19308 0.0
N536 N 0.91842 0.38117 0.09871 0.0
N537 N 0.93652 0.474 0.19624 0.0
H538 H 0.98596 0.42778 0.23197 0.0
H539 H 0.97551 0.45572 0.26169 0.0
H540 H 0.92358 0.48706 0.19355 0.0
H541 H 0.95363 0.48072 0.19584 0.0
H542 H 0.90229 0.37576 0.06951 0.0
H543 H 0.93201 0.36906 0.08723 0.0
H544 H 0.87531 0.3939 0.14101 0.0
H545 H 0.86576 0.42286 0.15545 0.0
C546 C 0.06058 0.9645 0.66543 0.0
C547 C 0.07283 0.97014 0.57704 0.0
C548 C 0.04529 0.94567 0.48194 0.0
C549 C 0.03543 0.93736 0.5719 0.0
N550 N 0.03573 0.9365 0.75087 0.0
N551 N 0.07843 0.96478 0.40134 0.0
C552 C 0.04345 0.94629 0.66421 0.0
C553 C 0.06549 0.96056 0.48496 0.0
N554 N 0.06518 0.97677 0.75035 0.0
N555 N 0.03516 0.93948 0.39389 0.0
H556 H 0.09325 0.97568 0.40045 0.0
H557 H 0.07555 0.95618 0.33435 0.0
H558 H 0.02035 0.9286 0.38958 0.0
H559 H 0.04007 0.94674 0.32617 0.0
H560 H 0.05514 0.9751 0.81462 0.0
H561 H 0.07759 0.99031 0.75371 0.0
H562 H 0.04306 0.94044 0.8196 0.0
H563 H 0.02335 0.92295 0.75396 0.0
C564 C 0.5687 0.05452 0.12818 0.0
C565 C 0.5666 0.03634 0.1997 0.0
C566 C 0.52991 0.05393 0.26267 0.0
C567 C 0.53173 0.07181 0.18972 0.0
N568 N 0.55043 0.08755 0.0437 0.0
N569 N 0.54389 0.01624 0.32441 0.0
C570 C 0.55039 0.07157 0.11939 0.0
C571 C 0.54675 0.03529 0.26376 0.0
N572 N 0.58861 0.05589 0.07091 0.0
N573 N 0.51242 0.05518 0.33243 0.0
H574 H 0.55616 0.00257 0.32843 0.0
H575 H 0.52868 0.01306 0.36561 0.0
H576 H 0.4992 0.06798 0.33125 0.0
H577 H 0.51162 0.0444 0.39455 0.0
H578 H 0.59267 0.07016 0.02586 0.0
H579 H 0.60202 0.04328 0.07255 0.0
H580 H 0.56193 0.08678 0.98365 0.0
H581 H 0.53781 0.10083 0.03685 0.0
C582 C 0.41725 0.55573 0.67016 0.0
C583 C 0.42267 0.53134 0.66886 0.0
C584 C 0.46452 0.5413 0.64554 0.0
C585 C 0.45929 0.56545 0.66237 0.0
N586 N 0.4308 0.59397 0.7218 0.0
N587 N 0.45276 0.50117 0.67892 0.0
C588 C 0.43568 0.57218 0.68418 0.0
C589 C 0.44671 0.52413 0.66334 0.0
N590 N 0.3947 0.56341 0.65395 0.0
N591 N 0.48603 0.53472 0.60885 0.0
H592 H 0.44045 0.48826 0.69727 0.0
H593 H 0.47026 0.49556 0.68419 0.0
H594 H 0.49916 0.54678 0.59023 0.0
H595 H 0.4898 0.51752 0.58713 0.0
H596 H 0.39048 0.58118 0.64655 0.0
H597 H 0.38086 0.55208 0.63598 0.0
H598 H 0.41397 0.5988 0.74586 0.0
H599 H 0.44395 0.60607 0.74002 0.0
C600 C 0.95627 0.02788 0.27266 0.0
C601 C 0.93602 0.03468 0.32783 0.0
C602 C 0.95578 0.07115 0.37766 0.0
C603 C 0.97477 0.06568 0.31285 0.0
N604 N 0.99259 0.04004 0.19184 0.0
N605 N 0.91503 0.06391 0.42333 0.0
C606 C 0.97496 0.04429 0.25879 0.0
C607 C 0.93541 0.05658 0.3783 0.0
N608 N 0.9578 0.00554 0.23548 0.0
N609 N 0.95747 0.09004 0.44004 0.0
H610 H 0.89972 0.05373 0.42592 0.0
H611 H 0.91264 0.08082 0.45133 0.0
H612 H 0.97211 0.10119 0.44153 0.0
H613 H 0.94537 0.09349 0.49636 0.0
H614 H 0.97305 -0.00133 0.20336 0.0
H615 H 0.9444 0.99312 0.24411 0.0
H616 H 0.99237 0.02606 0.142 0.0
H617 H 0.0068 0.05146 0.18134 0.0
C618 C 0.45746 0.92824 0.82812 0.0
C619 C 0.46608 0.91576 0.91133 0.0
C620 C 0.44035 0.93876 0.02154 0.0
C621 C 0.43017 0.94967 0.93736 0.0
N622 N 0.42732 0.95383 0.75987 0.0
N623 N 0.46512 0.90742 0.08626 0.0
C624 C 0.43832 0.9442 0.84039 0.0
C625 C 0.45744 0.92064 1.00799 0.0
N626 N 0.4679 0.92509 0.73767 0.0
N627 N 0.4338 0.94594 0.11426 0.0
H628 H 0.47824 0.8946 0.07978 0.0
H629 H 0.45765 0.90811 0.15662 0.0
H630 H 0.42074 0.95856 0.12669 0.0
H631 H 0.44227 0.94061 0.17881 0.0
H632 H 0.46432 0.93546 0.67605 0.0
H633 H 0.4816 0.91312 0.72565 0.0
H634 H 0.43039 0.94847 0.68731 0.0
H635 H 0.41385 0.96626 0.76547 0.0
C636 C 0.55603 0.46244 0.276 0.0
C637 C 0.57261 0.45907 0.3536 0.0
C638 C 0.54942 0.42595 0.41792 0.0
C639 C 0.53272 0.42947 0.34086 0.0
N640 N 0.5178 0.45254 0.20523 0.0
N641 N 0.58421 0.43989 0.5052 0.0
C642 C 0.53532 0.44823 0.27253 0.0
C643 C 0.56898 0.44152 0.42682 0.0
N644 N 0.56043 0.47891 0.20451 0.0
N645 N 0.54685 0.40724 0.48081 0.0
H646 H 0.59947 0.45005 0.51151 0.0
H647 H 0.58122 0.42946 0.56718 0.0
H648 H 0.5321 0.39625 0.48029 0.0
H649 H 0.5597 0.40177 0.53074 0.0
H650 H 0.55064 0.48059 0.13977 0.0
H651 H 0.5748 0.49037 0.20727 0.0
H652 H 0.51725 0.46726 0.15959 0.0
H653 H 0.50274 0.44206 0.19914 0.0
C654 C 0.04467 0.57904 0.80745 0.0
C655 C 0.03416 0.58654 0.89743 0.0
C656 C 0.05554 0.55571 0.98779 0.0
C657 C 0.06788 0.54991 0.89968 0.0
N658 N 0.07663 0.55776 0.72796 0.0
N659 N 0.03131 0.58416 0.07538 0.0
C660 C 0.06305 0.56198 0.80991 0.0
C661 C 0.03997 0.57538 0.98827 0.0
N662 N 0.03669 0.58791 0.71953 0.0
N663 N 0.05833 0.54208 0.07033 0.0
H664 H 0.01959 0.59831 0.0788 0.0
H665 H 0.03701 0.57856 0.14473 0.0
H666 H 0.06981 0.52771 0.07283 0.0
H667 H 0.04797 0.54379 0.13364 0.0
H668 H 0.04184 0.5814 0.65075 0.0
H669 H 0.0233 0.6005 0.71519 0.0
H670 H 0.07576 0.56783 0.66372 0.0
H671 H 0.09017 0.5453 0.72647 0.0
C672 C 0.08688 0.37787 0.97697 0.0
C673 C 0.07699 0.38737 0.06579 0.0
C674 C 0.09266 0.42604 0.02397 0.0
C675 C 0.10189 0.41738 0.93296 0.0
N676 N 0.11364 0.38346 0.83745 0.0
N677 N 0.08372 0.41626 0.19314 0.0
C678 C 0.10065 0.39277 0.91338 0.0
C679 C 0.08419 0.41008 0.09547 0.0
N680 N 0.0839 0.35469 0.95417 0.0
N681 N 0.09034 0.44954 0.04126 0.0
H682 H 0.0797 0.40417 0.24876 0.0
H683 H 0.09045 0.43221 0.21883 0.0
H684 H 0.09566 0.46229 0.99155 0.0
H685 H 0.08093 0.45614 0.10167 0.0
H686 H 0.08668 0.34781 0.88364 0.0
H687 H 0.07919 0.34212 1.00647 0.0
H688 H 0.11534 0.3655 0.82423 0.0
H689 H 0.12463 0.39361 0.7926 0.0
C690 C 0.14693 0.09431 0.38611 0.0
C691 C 0.14558 0.09128 0.49023 0.0
C692 C 0.10559 0.10766 0.49121 0.0
C693 C 0.10673 0.11083 0.38656 0.0
N694 N 0.13118 0.11335 0.24018 0.0
N695 N 0.12728 0.10195 0.64416 0.0
C696 C 0.12829 0.10613 0.33591 0.0
C697 C 0.12609 0.10034 0.54336 0.0
N698 N 0.16533 0.08481 0.33401 0.0
N699 N 0.08465 0.10977 0.54056 0.0
H700 H 0.14234 0.09699 0.68364 0.0
H701 H 0.11454 0.11046 0.68696 0.0
H702 H 0.06894 0.11427 0.50624 0.0
H703 H 0.0824 0.10491 0.61431 0.0
H704 H 0.16557 0.08362 0.25708 0.0
H705 H 0.17974 0.07669 0.36749 0.0
H706 H 0.14729 0.11268 0.20294 0.0
H707 H 0.1181 0.12218 0.20086 0.0
C708 C 0.39575 0.0965 0.15174 0.0
C709 C 0.4073 0.11593 0.1094 0.0
C710 C 0.39076 0.10485 0.94745 0.0
C711 C 0.38538 0.08206 0.98604 0.0
N712 N 0.38565 0.05615 0.12945 0.0
N713 N 0.40496 0.14471 0.98005 0.0
C714 C 0.38803 0.07803 0.08989 0.0
C715 C 0.40174 0.12205 1.01032 0.0
N716 N 0.39204 0.09585 0.25158 0.0
N717 N 0.38518 0.10998 0.85141 0.0
H718 H 0.4088 0.15812 0.03016 0.0
H719 H 0.40156 0.15088 0.9091 0.0
H720 H 0.37485 0.0989 0.80771 0.0
H721 H 0.39042 0.12515 0.81455 0.0
H722 H 0.38241 0.08262 0.28634 0.0
H723 H 0.39609 0.11015 0.2971 0.0
H724 H 0.38983 0.05215 0.20266 0.0
H725 H 0.38249 0.04146 0.08705 0.0
C726 C 0.3828 0.39633 0.59539 0.0
C727 C 0.36142 0.40361 0.5512 0.0
C728 C 0.37592 0.38924 0.39048 0.0
C729 C 0.39888 0.38633 0.43147 0.0
N730 N 0.42456 0.39046 0.57413 0.0
N731 N 0.33748 0.40774 0.4041 0.0
C732 C 0.40241 0.39046 0.53454 0.0
C733 C 0.35778 0.4 0.44817 0.0
N734 N 0.38419 0.39453 0.69603 0.0
N735 N 0.37123 0.38117 0.2972 0.0
H736 H 0.32343 0.41508 0.44323 0.0
H737 H 0.33522 0.40843 0.32765 0.0
H738 H 0.38386 0.37286 0.25327 0.0
H739 H 0.3543 0.38057 0.26714 0.0
H740 H 0.39867 0.38727 0.73258 0.0
H741 H 0.36964 0.39767 0.74176 0.0
H742 H 0.42813 0.39628 0.64571 0.0
H743 H 0.43965 0.38676 0.5335 0.0
C744 C 0.89477 0.61339 0.20381 0.0
C745 C 0.88221 0.60186 0.12793 0.0
C746 C 0.90275 0.62476 1.00164 0.0
C747 C 0.91712 0.63495 0.07702 0.0
N748 N 0.9211 0.64513 0.24978 0.0
N749 N 0.86721 0.60253 0.96293 0.0
C750 C 0.91106 0.63141 0.17832 0.0
C751 C 0.88366 0.60995 0.02969 0.0
N752 N 0.89217 0.60596 0.29933 0.0
N753 N 0.90843 0.62721 0.90395 0.0
H754 H 0.85329 0.59159 0.98417 0.0
H755 H 0.86595 0.60913 0.89121 0.0
H756 H 0.92232 0.63744 0.8787 0.0
H757 H 0.90028 0.61771 0.84757 0.0
H758 H 0.90299 0.61137 0.35732 0.0
H759 H 0.87942 0.59356 0.31928 0.0
H760 H 0.91626 0.64459 0.32411 0.0
H761 H 0.93271 0.65871 0.23286 0.0
C762 C 0.89664 0.87355 0.46254 0.0
C763 C 0.90508 0.87594 0.56143 0.0
C764 C 0.89198 0.91699 0.56455 0.0
C765 C 0.88434 0.91486 0.46475 0.0
N766 N 0.87212 0.88965 0.33156 0.0
N767 N 0.90428 0.89721 0.71524 0.0
C768 C 0.88414 0.89257 0.41829 0.0
C769 C 0.90051 0.89682 0.61528 0.0
N770 N 0.90201 0.85401 0.40786 0.0
N771 N 0.89192 0.93845 0.6098 0.0
H772 H 0.91024 0.88248 0.75409 0.0
H773 H 0.89936 0.91116 0.7608 0.0
H774 H 0.88435 0.95318 0.57756 0.0
H775 H 0.90012 0.94184 0.6773 0.0
H776 H 0.8991 0.85286 0.3319 0.0
H777 H 0.911 0.83951 0.43588 0.0
H778 H 0.86953 0.87333 0.2982 0.0
H779 H 0.86249 0.90324 0.29897 0.0
C780 C 0.60772 0.91022 0.02551 0.0
C781 C 0.61409 0.90914 0.12782 0.0
C782 C 0.59708 0.86937 0.13711 0.0
C783 C 0.58722 0.87248 0.0422 0.0
N784 N 0.59038 0.89058 0.88278 0.0
N785 N 0.61657 0.88661 0.27913 0.0
C786 C 0.59499 0.89121 0.98191 0.0
C787 C 0.60962 0.88818 0.18251 0.0
N788 N 0.61204 0.9301 0.97196 0.0
N789 N 0.5951 0.84791 0.18142 0.0
H790 H 0.6272 0.89918 0.31296 0.0
H791 H 0.61121 0.87335 0.32717 0.0
H792 H 0.58804 0.83359 0.14354 0.0
H793 H 0.60287 0.84345 0.2486 0.0
H794 H 0.6049 0.93346 0.90247 0.0
H795 H 0.62205 0.94393 0.99846 0.0
H796 H 0.59721 0.90244 0.83166 0.0
H797 H 0.58159 0.87653 0.84994 0.0
C798 C 0.61349 0.57154 0.55441 0.0
C799 C 0.6217 0.5759 0.45641 0.0
C800 C 0.59748 0.61193 0.45264 0.0
C801 C 0.58544 0.60412 0.5383 0.0
N802 N 0.58265 0.57772 0.67649 0.0
N803 N 0.62377 0.60207 0.3165 0.0
C804 C 0.59394 0.58452 0.59176 0.0
C805 C 0.61459 0.59691 0.40749 0.0
N806 N 0.62435 0.55527 0.61253 0.0
N807 N 0.59253 0.63368 0.4151 0.0
H808 H 0.63763 0.59247 0.28546 0.0
H809 H 0.61732 0.61534 0.27083 0.0
H810 H 0.58078 0.64516 0.44991 0.0
H811 H 0.60166 0.64128 0.35639 0.0
H812 H 0.62089 0.55332 0.68777 0.0
H813 H 0.63868 0.54559 0.58858 0.0
H814 H 0.58557 0.56164 0.71138 0.0
H815 H 0.56953 0.58791 0.70978 0.0
C816 C 0.0429 0.25226 0.13959 0.0
C817 C 0.04497 0.26791 0.22015 0.0
C818 C 0.05346 0.23489 0.33178 0.0
C819 C 0.04677 0.21916 0.25527 0.0
N820 N 0.03556 0.21238 0.08526 0.0
N821 N 0.05387 0.27532 0.39087 0.0
C822 C 0.04206 0.2277 0.15826 0.0
C823 C 0.05126 0.25956 0.31538 0.0
N824 N 0.04133 0.26102 0.04564 0.0
N825 N 0.06112 0.22623 0.42053 0.0
H826 H 0.05361 0.29342 0.37848 0.0
H827 H 0.05559 0.27065 0.46496 0.0
H828 H 0.06214 0.20828 0.43564 0.0
H829 H 0.06801 0.23665 0.47691 0.0
H830 H 0.04175 0.25061 0.98221 0.0
H831 H 0.04187 0.27903 0.03097 0.0
H832 H 0.02865 0.21762 0.01737 0.0
H833 H 0.03618 0.19418 0.09411 0.0
C834 C 0.27667 0.01697 0.67571 0.0
C835 C 0.28247 0.0278 0.76786 0.0
C836 C 0.24201 0.04333 0.78004 0.0
C837 C 0.23607 0.03105 0.69225 0.0
N838 N 0.24896 0.01414 0.53901 0.0
N839 N 0.2728 0.05744 0.89005 0.0
C840 C 0.25392 0.02056 0.63422 0.0
C841 C 0.26591 0.04321 0.81384 0.0
N842 N 0.29252 0.00249 0.62941 0.0
N843 N 0.22458 0.05398 0.83382 0.0
H844 H 0.29 0.05798 0.91686 0.0
H845 H 0.26205 0.07043 0.92062 0.0
H846 H 0.20729 0.05544 0.80802 0.0
H847 H 0.22702 0.06053 0.90504 0.0
H848 H 0.28823 0.99184 0.56932 0.0
H849 H 0.30977 5e-05 0.6538 0.0
H850 H 0.26164 0.00824 0.48891 0.0
H851 H 0.23247 0.01731 0.50715 0.0
C852 C 0.44334 0.26826 0.19856 0.0
C853 C 0.4542 0.2781 0.28327 0.0
C854 C 0.4665 0.23886 0.33661 0.0
C855 C 0.45979 0.22974 0.24256 0.0
N856 N 0.44252 0.23599 0.08119 0.0
N857 N 0.47538 0.27336 0.43605 0.0
C858 C 0.44789 0.24435 0.17336 0.0
C859 C 0.46523 0.26348 0.35412 0.0
N860 N 0.42877 0.28194 0.14232 0.0
N861 N 0.47389 0.22389 0.4094 0.0
H862 H 0.47343 0.29113 0.4537 0.0
H863 H 0.48647 0.2643 0.48424 0.0
H864 H 0.4744 0.2057 0.40009 0.0
H865 H 0.47738 0.22912 0.48176 0.0
H866 H 0.41871 0.2755 0.08378 0.0
H867 H 0.42507 0.29936 0.16112 0.0
H868 H 0.43639 0.24661 0.02393 0.0
H869 H 0.4458 0.21872 0.05915 0.0
C870 C 0.24956 0.44859 0.67633 0.0
C871 C 0.26497 0.45297 0.75691 0.0
C872 C 0.23119 0.45496 0.87039 0.0
C873 C 0.21584 0.45366 0.78798 0.0
N874 N 0.20971 0.43829 0.62526 0.0
N875 N 0.2713 0.45118 0.93238 0.0
C876 C 0.22485 0.44685 0.69474 0.0
C877 C 0.25599 0.45308 0.85491 0.0
N878 N 0.25827 0.4476 0.58214 0.0
N879 N 0.22203 0.45881 0.96244 0.0
H880 H 0.28929 0.44843 0.92086 0.0
H881 H 0.2661 0.44977 1.00606 0.0
H882 H 0.20394 0.45789 0.97609 0.0
H883 H 0.23216 0.463 0.02426 0.0
H884 H 0.24753 0.4472 0.51956 0.0
H885 H 0.27632 0.44822 0.56666 0.0
H886 H 0.21525 0.43123 0.55792 0.0
H887 H 0.19174 0.43621 0.64056 0.0
C888 C 0.97899 0.76483 0.7227 0.0
C889 C 0.96567 0.78427 0.75638 0.0
C890 C 0.95094 0.76095 0.89646 0.0
C891 C 0.96771 0.74323 0.87254 0.0
N892 N 0.99632 0.72687 0.75834 0.0
N893 N 0.93245 0.79817 0.85114 0.0
C894 C 0.98103 0.74458 0.78326 0.0
C895 C 0.94936 0.78143 0.83536 0.0
N896 N 0.98902 0.76574 0.63073 0.0
N897 N 0.93768 0.75874 0.98058 0.0
H898 H 0.93041 0.81266 0.80495 0.0
H899 H 0.91918 0.79689 0.90414 0.0
H900 H 0.93828 0.74379 0.02524 0.0
H901 H 0.92675 0.77186 1.00868 0.0
H902 H 0.99772 0.75176 0.59683 0.0
H903 H 0.98627 0.77997 0.58352 0.0
H904 H 0.00862 0.72794 0.7013 0.0
H905 H 0.99747 0.71112 0.79735 0.0
C906 C 0.76542 0.95588 0.19952 0.0
C907 C 0.77422 0.96442 0.29096 0.0
C908 C 0.73412 0.97336 0.34702 0.0
C909 C 0.72535 0.96684 0.25211 0.0
N910 N 0.73137 0.94763 0.09491 0.0
N911 N 0.76743 0.97473 0.46068 0.0
C912 C 0.74058 0.95639 0.18093 0.0
C913 C 0.75862 0.97095 0.3678 0.0
N914 N 0.78106 0.94833 0.12932 0.0
N915 N 0.71908 0.98268 0.41598 0.0
H916 H 0.78536 0.97285 0.47691 0.0
H917 H 0.75702 0.97762 0.52304 0.0
H918 H 0.70079 0.98289 0.407 0.0
H919 H 0.7246 0.99075 0.48111 0.0
H920 H 0.77654 0.94424 0.05679 0.0
H921 H 0.79903 0.9464 0.14438 0.0
H922 H 0.74104 0.93824 0.04266 0.0
H923 H 0.71347 0.94866 0.07741 0.0
C924 C 0.55669 0.74523 0.8634 0.0
C925 C 0.542 0.7624 0.81777 0.0
C926 C 0.53592 0.73596 0.67606 0.0
C927 C 0.54634 0.71765 0.73046 0.0
N928 N 0.57341 0.70554 0.85607 0.0
N929 N 0.51821 0.77455 0.67773 0.0
C930 C 0.55912 0.72262 0.81781 0.0
C931 C 0.53221 0.75806 0.72212 0.0
N932 N 0.56678 0.75002 0.95305 0.0
N933 N 0.5297 0.73193 0.57988 0.0
H934 H 0.51579 0.79134 0.70627 0.0
H935 H 0.50814 0.77137 0.61469 0.0
H936 H 0.53329 0.71587 0.54546 0.0
H937 H 0.5236 0.74488 0.53184 0.0
H938 H 0.57614 0.73782 0.99487 0.0
H939 H 0.56531 0.76639 0.98742 0.0
H940 H 0.58422 0.70774 0.91756 0.0
H941 H 0.57531 0.68923 0.82137 0.0
C942 C 0.77518 0.53846 0.35413 0.0
C943 C 0.78561 0.52337 0.28269 0.0
C944 C 0.74637 0.50846 0.24018 0.0
C945 C 0.7368 0.51954 0.32564 0.0
N946 N 0.74285 0.54403 0.46972 0.0
N947 N 0.78122 0.49263 0.16065 0.0
C948 C 0.75129 0.53458 0.38364 0.0
C949 C 0.7712 0.50806 0.22608 0.0
N950 N 0.78801 0.55651 0.39328 0.0
N951 N 0.73167 0.49888 0.17078 0.0
H952 H 0.7993 0.49221 0.14557 0.0
H953 H 0.77177 0.47918 0.12635 0.0
H954 H 0.71331 0.49989 0.17589 0.0
H955 H 0.7376 0.4925 0.10282 0.0
H956 H 0.78082 0.56918 0.44029 0.0
H957 H 0.80504 0.56039 0.369 0.0
H958 H 0.75349 0.55298 0.52008 0.0
H959 H 0.72569 0.54126 0.49516 0.0
C960 C 0.0036 0.34457 0.71786 0.0
C961 C 0.01708 0.32792 0.77159 0.0
C962 C 0.04242 0.32129 0.6268 0.0
C963 C 0.02818 0.33701 0.57093 0.0
N964 N 0.99444 0.36258 0.55915 0.0
N965 N 0.04699 0.29809 0.7768 0.0
C966 C 0.0084 0.34823 0.61529 0.0
C967 C 0.03586 0.31562 0.72574 0.0
N968 N 0.98692 0.35755 0.76667 0.0
N969 N 0.06251 0.3122 0.58572 0.0
H970 H 0.04252 0.29379 0.84951 0.0
H971 H 0.0593 0.28667 0.74552 0.0
H972 H 0.06745 0.31538 0.51271 0.0
H973 H 0.07507 0.30269 0.62519 0.0
H974 H 0.97782 0.3716 0.73542 0.0
H975 H 0.98316 0.35512 0.8416 0.0
H976 H 0.97837 0.36946 0.58304 0.0
H977 H 0.99845 0.36684 0.48598 0.0
C978 C 0.17607 0.04239 0.0701 0.0
C979 C 0.15927 0.02864 0.01841 0.0
C980 C 0.15057 0.00662 0.17053 0.0
C981 C 0.16864 0.01922 0.21999 0.0
N982 N 0.20083 0.04665 0.21588 0.0
N983 N 0.1319 0.99645 1.01396 0.0
C984 C 0.18205 0.03643 0.16931 0.0
C985 C 0.14688 0.01037 0.06728 0.0
N986 N 0.18566 0.06161 0.02487 0.0
N987 N 0.13671 0.9915 0.22339 0.0
H988 H 0.12873 -0.00083 0.93874 0.0
H989 H 0.12379 0.98145 0.04206 0.0
H990 H 0.13937 0.98835 0.29867 0.0
H991 H 0.12178 0.98326 0.19492 0.0
H992 H 0.1963 0.07382 0.06104 0.0
H993 H 0.18143 0.06629 0.95236 0.0
H994 H 0.21283 0.05768 0.18053 0.0
H995 H 0.20529 0.04277 0.28903 0.0
C996 C 0.46668 0.18303 0.74127 0.0
C997 C 0.47547 0.1631 0.79183 0.0
C998 C 0.47221 0.13942 0.6404 0.0
C999 C 0.46234 0.15908 0.59078 0.0
N1000 N 0.44761 0.19884 0.59485 0.0
N1001 N 0.48445 0.12188 0.7966 0.0
C1002 C 0.45882 0.1807 0.64163 0.0
C1003 C 0.47774 0.14115 0.74309 0.0
N1004 N 0.46646 0.20428 0.78861 0.0
N1005 N 0.47612 0.1191 0.5888 0.0
H1006 H 0.48869 0.12283 0.87165 0.0
H1007 H 0.4845 0.10478 0.76911 0.0
H1008 H 0.47092 0.11694 0.51532 0.0
H1009 H 0.48537 0.10474 0.6167 0.0
H1010 H 0.46254 0.22017 0.75412 0.0
H1011 H 0.47179 0.20623 0.86211 0.0
H1012 H 0.44221 0.21421 0.63009 0.0
H1013 H 0.44254 0.19809 0.52086 0.0
C1014 C 0.32279 0.44956 0.14511 0.0
C1015 C 0.33965 0.46311 0.09259 0.0
C1016 C 0.34782 0.48613 0.24279 0.0
C1017 C 0.32996 0.47349 0.29356 0.0
N1018 N 0.29839 0.44538 0.2925 0.0
N1019 N 0.36646 0.49573 0.08543 0.0
C1020 C 0.31683 0.45581 0.24431 0.0
C1021 C 0.35167 0.48186 0.13991 0.0
N1022 N 0.3131 0.43029 0.10052 0.0
N1023 N 0.36147 0.5017 0.29427 0.0
H1024 H 0.36979 0.49264 1.01054 0.0
H1025 H 0.37423 0.51106 0.11213 0.0
H1026 H 0.35875 0.50523 0.36925 0.0
H1027 H 0.37631 0.50997 0.26502 0.0
H1028 H 0.30235 0.41823 0.13687 0.0
H1029 H 0.31719 0.42551 0.02789 0.0
H1030 H 0.28658 0.43387 0.25879 0.0
H1031 H 0.294 0.44949 0.36555 0.0
C1032 C 0.03735 0.12975 0.74209 0.0
C1033 C 0.03698 0.15201 0.69481 0.0
C1034 C 0.05167 0.17076 0.84632 0.0
C1035 C 0.05036 0.14876 0.89615 0.0
N1036 N 0.04116 0.10753 0.89511 0.0
N1037 N 0.04124 0.1939 0.70123 0.0
C1038 C 0.04287 0.12831 0.84489 0.0
C1039 C 0.04355 0.17257 0.74679 0.0
N1040 N 0.03319 0.10999 0.68717 0.0
N1041 N 0.06102 0.1898 0.89388 0.0
H1042 H 0.03561 0.19554 0.62801 0.0
H1043 H 0.04331 0.20998 0.73711 0.0
H1044 H 0.06646 0.18931 0.96739 0.0
H1045 H 0.06475 0.20572 0.85934 0.0
H1046 H 0.03526 0.09294 0.71367 0.0
H1047 H 0.02923 0.11063 0.61183 0.0
H1048 H 0.03353 0.09238 0.86605 0.0
H1049 H 0.04649 0.10571 0.96859 0.0
C1050 C 0.34324 0.03911 0.33963 0.0
C1051 C 0.33938 0.01661 0.29694 0.0
C1052 C 0.34724 0.99791 0.45705 0.0
C1053 C 0.35315 0.02019 0.49752 0.0
N1054 N 0.35812 0.06182 0.47935 0.0
N1055 N 0.33908 0.97457 0.31001 0.0
C1056 C 0.35133 0.04081 0.43941 0.0
C1057 C 0.34178 0.99598 0.35447 0.0
N1058 N 0.33899 0.05877 0.28437 0.0
N1059 N 0.34608 0.9788 0.5181 0.0
H1060 H 0.33433 0.97284 0.23574 0.0
H1061 H 0.34289 0.95863 0.34435 0.0
H1062 H 0.34951 0.97985 0.5938 0.0
H1063 H 0.33984 0.9624 0.49611 0.0
H1064 H 0.33885 0.07576 0.31305 0.0
H1065 H 0.33447 0.058 0.20962 0.0
H1066 H 0.35911 0.07748 0.43985 0.0
H1067 H 0.36394 0.06334 0.55235 0.0
C1068 C 0.46591 0.3242 0.7859 0.0
C1069 C 0.46957 0.34451 0.72733 0.0
C1070 C 0.45988 0.36971 0.86963 0.0
C1071 C 0.45728 0.34944 0.92942 0.0
N1072 N 0.46081 0.30766 0.95068 0.0
N1073 N 0.47363 0.38644 0.71428 0.0
C1074 C 0.46116 0.3267 0.88913 0.0
C1075 C 0.46757 0.36726 0.76959 0.0
N1076 N 0.46661 0.30259 0.7417 0.0
N1077 N 0.45437 0.39122 0.90844 0.0
H1078 H 0.47895 0.38509 0.64052 0.0
H1079 H 0.4748 0.40342 0.74263 0.0
H1080 H 0.44922 0.39339 0.9821 0.0
H1081 H 0.45345 0.40659 0.86678 0.0
H1082 H 0.46203 0.287 0.77717 0.0
H1083 H 0.47046 0.30046 0.66664 0.0
H1084 H 0.4653 0.29068 0.92884 0.0
H1085 H 0.45764 0.30924 0.02642 0.0
C1086 C 0.17218 0.46373 0.32459 0.0
C1087 C 0.15364 0.46813 0.25695 0.0
C1088 C 0.12532 0.46518 0.39318 0.0
C1089 C 0.14412 0.46594 0.46155 0.0
N1090 N 0.18576 0.47137 0.49042 0.0
N1091 N 0.1125 0.47818 0.23217 0.0
C1092 C 0.16775 0.46623 0.42714 0.0
C1093 C 0.13 0.46975 0.29189 0.0
N1094 N 0.19408 0.45777 0.2906 0.0
N1095 N 0.10288 0.46165 0.42676 0.0
H1096 H 0.11553 0.48433 0.16076 0.0
H1097 H 0.09544 0.48162 0.25753 0.0
H1098 H 0.09931 0.45883 0.50171 0.0
H1099 H 0.08849 0.45933 0.37961 0.0
H1100 H 0.20784 0.4529 0.33768 0.0
H1101 H 0.19755 0.45533 0.21536 0.0
H1102 H 0.20305 0.47423 0.46656 0.0
H1103 H 0.18298 0.47488 0.56523 0.0
C1104 C 0.96686 0.69907 0.49066 0.0
C1105 C 0.96683 0.67679 0.53802 0.0
C1106 C 0.97814 0.65771 0.382 0.0
C1107 C 0.97922 0.6801 0.33567 0.0
N1108 N 0.97687 0.72214 0.34456 0.0
N1109 N 0.97347 0.63513 0.53385 0.0
C1110 C 0.97404 0.70082 0.38966 0.0
C1111 C 0.97279 0.65615 0.48488 0.0
N1112 N 0.95986 0.71847 0.54276 0.0
N1113 N 0.98171 0.63795 0.32632 0.0
H1114 H 0.96859 0.63345 0.60798 0.0
H1115 H 0.97985 0.61956 0.50338 0.0
H1116 H 0.98633 0.63862 0.25174 0.0
H1117 H 0.97895 0.6209 0.35162 0.0
H1118 H 0.95701 0.73492 0.51127 0.0
H1119 H 0.95589 0.71788 0.6181 0.0
H1120 H 0.97559 0.73823 0.38092 0.0
H1121 H 0.98184 0.72367 0.27043 0.0
C1122 C 0.8274 0.95829 0.8762 0.0
C1123 C 0.84628 0.96851 0.92984 0.0
C1124 C 0.85949 0.98881 0.77918 0.0
C1125 C 0.83923 0.98048 0.72812 0.0
N1126 N 0.8023 0.95973 0.73032 0.0
N1127 N 0.87884 0.99549 0.93725 0.0
C1128 C 0.82272 0.96585 0.77743 0.0
C1129 C 0.86186 0.98443 0.88259 0.0
N1130 N 0.81456 0.9407 0.91886 0.0
N1131 N 0.87702 -0.00017 0.72751 0.0
H1132 H 0.88123 0.99219 1.01253 0.0
H1133 H 0.88928 0.0091 0.91006 0.0
H1134 H 0.87616 0.00258 0.65132 0.0
H1135 H 0.8933 0.00429 0.75808 0.0
H1136 H 0.80189 0.9309 0.88122 0.0
H1137 H 0.81805 0.93467 0.99026 0.0
H1138 H 0.78844 0.95094 0.76489 0.0
H1139 H 0.79851 0.96515 0.6583 0.0
C1140 C 0.52725 0.84999 0.44127 0.0
C1141 C 0.53725 0.83136 0.49669 0.0
C1142 C 0.53431 0.80519 0.35166 0.0
C1143 C 0.52543 0.82415 0.29499 0.0
N1144 N 0.51559 0.86516 0.28028 0.0
N1145 N 0.55231 0.79182 0.50507 0.0
C1146 C 0.52241 0.84673 0.33852 0.0
C1147 C 0.54138 0.80909 0.4518 0.0
N1148 N 0.52235 0.8708 0.48775 0.0
N1149 N 0.53523 0.78331 0.30988 0.0
H1150 H 0.55662 0.79378 0.57961 0.0
H1151 H 0.55809 0.77597 0.47504 0.0
H1152 H 0.53041 0.78026 0.23643 0.0
H1153 H 0.53932 0.76804 0.34865 0.0
H1154 H 0.5129 0.8845 0.45559 0.0
H1155 H 0.52673 0.87391 0.56161 0.0
H1156 H 0.51521 0.88259 0.30376 0.0
H1157 H 0.51164 0.86325 0.20539 0.0
C1158 C 0.6896 0.52145 0.92231 0.0
C1159 C 0.6672 0.52185 0.96967 0.0
C1160 C 0.64796 0.51066 0.81376 0.0
C1161 C 0.67045 0.5091 0.76769 0.0
N1162 N 0.71269 0.51082 0.77657 0.0
N1163 N 0.62531 0.51546 0.96573 0.0
C1164 C 0.6913 0.51401 0.82162 0.0
C1165 C 0.64644 0.51598 0.9167 0.0
N1166 N 0.70911 0.52839 0.97405 0.0
N1167 N 0.62808 0.50777 0.75764 0.0
H1168 H 0.62363 0.52035 0.03985 0.0
H1169 H 0.60968 0.50913 0.93532 0.0
H1170 H 0.62872 0.50415 0.68199 0.0
H1171 H 0.61099 0.51062 0.78337 0.0
H1172 H 0.72577 0.5306 0.94289 0.0
H1173 H 0.70841 0.53302 0.04868 0.0
H1174 H 0.72886 0.51203 0.81271 0.0
H1175 H 0.7142 0.50561 0.70272 0.0
C1176 C 0.96051 0.83089 0.1728 0.0
C1177 C 0.966 0.8485 0.24315 0.0
C1178 C 0.9671 0.87747 0.10896 0.0
C1179 C 0.96651 0.85905 0.03852 0.0
N1180 N 0.96828 0.81729 1.00722 0.0
N1181 N 0.9788 0.88846 0.27458 0.0
C1182 C 0.96433 0.83545 0.07101 0.0
C1183 C 0.97006 0.87197 0.21089 0.0
N1184 N 0.95204 0.80967 0.20366 0.0
N1185 N 0.96561 0.90021 0.07747 0.0
H1186 H 0.98335 0.88478 0.34755 0.0
H1187 H 0.98404 0.90518 0.25187 0.0
H1188 H 0.96355 0.90444 1.00275 0.0
H1189 H 0.96407 0.91443 0.12582 0.0
H1190 H 0.94623 0.79675 0.15456 0.0
H1191 H 0.94851 0.80617 0.27807 0.0
H1192 H 0.96939 0.79984 0.03054 0.0
H1193 H 0.97314 0.81984 0.93373 0.0
C1194 C 0.6788 0.97249 0.75946 0.0
C1195 C 0.65803 0.978 0.81291 0.0
C1196 C 0.63401 0.97157 0.66393 0.0
C1197 C 0.6547 0.96517 0.61118 0.0
N1198 N 0.69641 0.95684 0.60908 0.0
N1199 N 0.61573 0.98026 0.82296 0.0
C1200 C 0.67702 0.96481 0.65926 0.0
C1201 C 0.63556 0.9769 0.76685 0.0
N1202 N 0.70022 0.97532 0.80446 0.0
N1203 N 0.61294 0.97252 0.61487 0.0
H1204 H 0.61645 0.98414 0.89839 0.0
H1205 H 0.5986 0.97769 0.79733 0.0
H1206 H 0.61117 0.96746 0.541 0.0
H1207 H 0.59744 0.97926 0.64518 0.0
H1208 H 0.71637 0.97388 0.76809 0.0
H1209 H 0.7018 0.98058 0.87819 0.0
H1210 H 0.71282 0.95395 0.64154 0.0
H1211 H 0.6958 0.95184 0.53497 0.0
C1212 C 0.51916 0.63018 0.11262 0.0
C1213 C 0.5281 0.64824 0.05127 0.0
C1214 C 0.53027 0.67496 0.19321 0.0
C1215 C 0.52035 0.65726 0.2542 0.0
N1216 N 0.50092 0.61983 0.26952 0.0
N1217 N 0.53691 0.68906 0.02619 0.0
C1218 C 0.51348 0.63533 0.21307 0.0
C1219 C 0.53193 0.67108 0.0896 0.0
N1220 N 0.51664 0.60805 0.07486 0.0
N1221 N 0.53927 0.6949 0.23511 0.0
H1222 H 0.53758 0.68654 0.94987 0.0
H1223 H 0.53795 0.70662 0.0479 0.0
H1224 H 0.53914 0.69787 0.31128 0.0
H1225 H 0.54878 0.70746 0.19561 0.0
H1226 H 0.51256 0.5934 0.11779 0.0
H1227 H 0.52 0.60419 1.00058 0.0
H1228 H 0.49365 0.60434 0.24195 0.0
H1229 H 0.49599 0.62351 0.34234 0.0
C1230 C 0.85824 0.56202 0.62551 0.0
C1231 C 0.86738 0.5418 0.57762 0.0
C1232 C 0.86397 0.51935 0.73209 0.0
C1233 C 0.85346 0.53915 0.77839 0.0
N1234 N 0.83764 0.57826 0.76804 0.0
N1235 N 0.87613 0.50041 0.57915 0.0
C1236 C 0.84978 0.56023 0.72463 0.0
C1237 C 0.86965 0.52025 0.62951 0.0
N1238 N 0.85824 0.583 0.5763 0.0
N1239 N 0.86839 0.49964 0.78664 0.0
H1240 H 0.88037 0.5005 0.50411 0.0
H1241 H 0.87575 0.48358 0.60931 0.0
H1242 H 0.86294 0.49796 0.85982 0.0
H1243 H 0.87847 0.48551 0.76154 0.0
H1244 H 0.85387 0.599 0.60905 0.0
H1245 H 0.86437 0.58459 0.50373 0.0
H1246 H 0.8323 0.59336 0.7307 0.0
H1247 H 0.83151 0.57739 0.84076 0.0
loop_
_geom_bond_atom_site_label_1
_geom_bond_atom_site_label_2
_geom_bond_distance
_geom_bond_site_symmetry_2
_ccdc_geom_bond_type
C0 C1 1.351 . S
C0 N3 1.368 . S
C0 H5 0.931 1_455 S
C1 C0 1.351 . S
C1 N2 1.373 . S
C1 H29 0.930 1_455 S
N2 C1 1.373 . S
N2 C4 1.340 . S
N3 C0 1.368 . S
N3 C4 1.321 . S
N3 Co6 2.135 1_556 S
C4 N2 1.340 . S
C4 N3 1.321 . S
C4 H28 0.930 . S
H5 C0 0.931 1_655 S
Co6 N3 2.135 1_554 S
Co6 N9 2.121 . S
Co6 O14 2.055 . S
Co6 O17 2.039 . S
Co6 N20 2.140 1_455 S
C7 O8 1.227 . S
C7 O17 1.265 . S
O8 C7 1.227 . S
N9 Co6 2.121 . S
N9 C11 1.375 . S
N9 C12 1.313 . S
C10 C11 1.338 . S
C10 N13 1.377 . S
C10 H30 0.930 . S
C11 N9 1.375 . S
C11 C10 1.338 . S
C11 H15 0.931 . S
C12 N9 1.313 . S
C12 N13 1.344 . S
C12 H16 0.930 . S
N13 C10 1.377 . S
N13 C12 1.344 . S
O14 Co6 2.055 . S
O14 C18 1.253 . S
H15 C11 0.931 . S
H16 C12 0.930 . S
O17 Co6 2.039 . S
O17 C7 1.265 . S
C18 O14 1.253 . S
C18 O19 1.232 . S
O19 C18 1.232 . S
N20 Co6 2.140 1_655 S
N20 C23 1.346 . S
N20 C24 1.345 . S
C21 C22 1.387 . S
C21 C25 1.391 . S
C22 C21 1.387 . S
C22 C23 1.369 . S
C22 H31 0.929 1_554 S
C23 N20 1.346 . S
C23 C22 1.369 . S
C23 H26 0.928 1_654 S
C24 N20 1.345 . S
C24 C25 1.371 . S
C24 H27 0.931 . S
C25 C21 1.391 . S
C25 C24 1.371 . S
C25 H32 0.930 . S
H26 C23 0.928 1_456 S
H27 C24 0.931 . S
H28 C4 0.930 . S
H29 C1 0.930 1_655 S
H30 C10 0.930 . S
H31 C22 0.929 1_556 S
H32 C25 0.930 . S
C33 C34 1.351 . S
C33 N36 1.368 . S
C33 H38 0.931 1_545 S
C34 C33 1.351 . S
C34 N35 1.373 . S
C34 H62 0.930 1_545 S
N35 C34 1.373 . S
N35 C37 1.340 . S
N36 C33 1.368 . S
N36 C37 1.321 . S
N36 Co39 2.135 . S
C37 N35 1.340 . S
C37 N36 1.321 . S
C37 H61 0.930 . S
H38 C33 0.931 1_565 S
Co39 N36 2.135 . S
Co39 N42 2.121 . S
Co39 O47 2.055 . S
Co39 O50 2.039 . S
Co39 N53 2.140 1_545 S
C40 O41 1.227 . S
C40 O50 1.265 . S
O41 C40 1.227 . S
N42 Co39 2.121 . S
N42 C44 1.375 . S
N42 C45 1.313 . S
C43 C44 1.338 . S
C43 N46 1.377 . S
C43 H63 0.930 . S
C44 N42 1.375 . S
C44 C43 1.338 . S
C44 H48 0.931 . S
C45 N42 1.313 . S
C45 N46 1.344 . S
C45 H49 0.930 . S
N46 C43 1.377 . S
N46 C45 1.344 . S
O47 Co39 2.055 . S
O47 C51 1.253 . S
H48 C44 0.931 . S
H49 C45 0.930 . S
O50 Co39 2.039 . S
O50 C40 1.265 . S
C51 O47 1.253 . S
C51 O52 1.232 . S
O52 C51 1.232 . S
N53 Co39 2.140 1_565 S
N53 C56 1.346 . S
N53 C57 1.345 . S
C54 C55 1.387 . S
C54 C58 1.391 . S
C55 C54 1.387 . S
C55 C56 1.369 . S
C55 H64 0.929 . S
C56 N53 1.346 . S
C56 C55 1.369 . S
C56 H59 0.928 1_565 S
C57 N53 1.345 . S
C57 C58 1.371 . S
C57 H60 0.931 . S
C58 C54 1.391 . S
C58 C57 1.371 . S
C58 H65 0.930 . S
H59 C56 0.928 1_545 S
H60 C57 0.931 . S
H61 C37 0.930 . S
H62 C34 0.930 1_565 S
H63 C43 0.930 . S
H64 C55 0.929 . S
H65 C58 0.930 . S
C66 C67 1.351 . S
C66 N69 1.368 . S
C66 H71 0.931 . S
C67 C66 1.351 . S
C67 N68 1.373 . S
C67 H95 0.930 . S
N68 C67 1.373 . S
N68 C70 1.340 . S
N69 C66 1.368 . S
N69 C70 1.321 . S
N69 Co72 2.135 1_556 S
C70 N68 1.340 . S
C70 N69 1.321 . S
C70 H94 0.930 . S
H71 C66 0.931 . S
Co72 N69 2.135 1_554 S
Co72 N75 2.121 . S
Co72 O80 2.055 . S
Co72 O83 2.039 . S
Co72 N86 2.140 . S
C73 O74 1.227 . S
C73 O83 1.265 . S
O74 C73 1.227 . S
N75 Co72 2.121 . S
N75 C77 1.375 . S
N75 C78 1.313 . S
C76 C77 1.338 . S
C76 N79 1.377 . S
C76 H96 0.930 . S
C77 N75 1.375 . S
C77 C76 1.338 . S
C77 H81 0.931 . S
C78 N75 1.313 . S
C78 N79 1.344 . S
C78 H82 0.930 . S
N79 C76 1.377 . S
N79 C78 1.344 . S
O80 Co72 2.055 . S
O80 C84 1.253 . S
H81 C77 0.931 . S
H82 C78 0.930 . S
O83 Co72 2.039 . S
O83 C73 1.265 . S
C84 O80 1.253 . S
C84 O85 1.227 . S
O85 C84 1.227 . S
N86 Co72 2.140 . S
N86 C89 1.346 . S
N86 C90 1.345 . S
C87 C88 1.387 . S
C87 C91 1.391 . S
C88 C87 1.387 . S
C88 C89 1.369 . S
C88 H97 0.929 1_554 S
C89 N86 1.346 . S
C89 C88 1.369 . S
C89 H92 0.928 1_554 S
C90 N86 1.345 . S
C90 C91 1.371 . S
C90 H93 0.931 . S
C91 C87 1.391 . S
C91 C90 1.371 . S
C91 H98 0.930 . S
H92 C89 0.928 1_556 S
H93 C90 0.931 . S
H94 C70 0.930 . S
H95 C67 0.930 . S
H96 C76 0.930 . S
H97 C88 0.929 1_556 S
H98 C91 0.930 . S
C99 C100 1.351 . S
C99 N102 1.368 . S
C99 H104 0.931 . S
C100 C99 1.351 . S
C100 N101 1.373 . S
C100 H128 0.930 . S
N101 C100 1.373 . S
N101 C103 1.340 . S
N102 C99 1.368 . S
N102 C103 1.321 . S
N102 Co105 2.135 . S
C103 N101 1.340 . S
C103 N102 1.321 . S
C103 H127 0.930 . S
H104 C99 0.931 . S
Co105 N102 2.135 . S
Co105 N108 2.121 . S
Co105 O113 2.055 . S
Co105 O116 2.039 . S
Co105 N119 2.140 . S
C106 O107 1.227 . S
C106 O116 1.265 . S
O107 C106 1.227 . S
N108 Co105 2.121 . S
N108 C110 1.375 . S
N108 C111 1.313 . S
C109 C110 1.338 . S
C109 N112 1.377 . S
C109 H129 0.930 . S
C110 N108 1.375 . S
C110 C109 1.338 . S
C110 H114 0.931 . S
C111 N108 1.313 . S
C111 N112 1.344 . S
C111 H115 0.930 . S
N112 C109 1.377 . S
N112 C111 1.344 . S
O113 Co105 2.055 . S
O113 C117 1.253 . S
H114 C110 0.931 . S
H115 C111 0.930 . S
O116 Co105 2.039 . S
O116 C106 1.265 . S
C117 O113 1.253 . S
C117 O118 1.227 . S
O118 C117 1.227 . S
N119 Co105 2.140 . S
N119 C122 1.346 . S
N119 C123 1.345 . S
C120 C121 1.387 . S
C120 C124 1.391 . S
C121 C120 1.387 . S
C121 C122 1.369 . S
C121 H130 0.929 . S
C122 N119 1.346 . S
C122 C121 1.369 . S
C122 H125 0.928 . S
C123 N119 1.345 . S
C123 C124 1.371 . S
C123 H126 0.931 . S
C124 C120 1.391 . S
C124 C123 1.371 . S
C124 H131 0.930 . S
H125 C122 0.928 . S
H126 C123 0.931 . S
H127 C103 0.930 . S
H128 C100 0.930 . S
H129 C109 0.930 . S
H130 C121 0.929 . S
H131 C124 0.930 . S
C132 C133 1.351 . S
C132 N135 1.368 . S
C132 H137 0.931 1_455 S
C133 C132 1.351 . S
C133 N134 1.373 . S
C133 H161 0.930 1_455 S
N134 C133 1.373 . S
N134 C136 1.340 . S
N135 C132 1.368 . S
N135 C136 1.321 . S
N135 Co138 2.135 . S
C136 N134 1.340 . S
C136 N135 1.321 . S
C136 H160 0.930 . S
H137 C132 0.931 1_655 S
Co138 N135 2.135 . S
Co138 N141 2.121 . S
Co138 O146 2.055 . S
Co138 O149 2.039 . S
Co138 N152 2.140 1_455 S
C139 O140 1.227 . S
C139 O149 1.265 . S
O140 C139 1.227 . S
N141 Co138 2.121 . S
N141 C143 1.375 . S
N141 C144 1.313 . S
C142 C143 1.338 . S
C142 N145 1.377 . S
C142 H162 0.930 . S
C143 N141 1.375 . S
C143 C142 1.338 . S
C143 H147 0.931 . S
C144 N141 1.313 . S
C144 N145 1.344 . S
C144 H148 0.930 . S
N145 C142 1.377 . S
N145 C144 1.344 . S
O146 Co138 2.055 . S
O146 C150 1.253 . S
H147 C143 0.931 . S
H148 C144 0.930 . S
O149 Co138 2.039 . S
O149 C139 1.265 . S
C150 O146 1.253 . S
C150 O151 1.232 . S
O151 C150 1.232 . S
N152 Co138 2.140 1_655 S
N152 C155 1.346 . S
N152 C156 1.345 . S
C153 C154 1.387 . S
C153 C157 1.391 . S
C154 C153 1.387 . S
C154 C155 1.369 . S
C154 H163 0.929 . S
C155 N152 1.346 . S
C155 C154 1.369 . S
C155 H158 0.928 1_655 S
C156 N152 1.345 . S
C156 C157 1.371 . S
C156 H159 0.931 . S
C157 C153 1.391 . S
C157 C156 1.371 . S
C157 H164 0.930 . S
H158 C155 0.928 1_455 S
H159 C156 0.931 . S
H160 C136 0.930 . S
H161 C133 0.930 1_655 S
H162 C142 0.930 . S
H163 C154 0.929 . S
H164 C157 0.930 . S
C165 C166 1.351 . S
C165 N168 1.368 . S
C165 H170 0.931 1_545 S
C166 C165 1.351 . S
C166 N167 1.373 . S
C166 H194 0.930 1_545 S
N167 C166 1.373 . S
N167 C169 1.340 . S
N168 C165 1.368 . S
N168 C169 1.321 . S
N168 Co171 2.135 1_554 S
C169 N167 1.340 . S
C169 N168 1.321 . S
C169 H193 0.930 . S
H170 C165 0.931 1_565 S
Co171 N168 2.135 1_556 S
Co171 N174 2.121 . S
Co171 O179 2.055 . S
Co171 O182 2.039 . S
Co171 N185 2.140 1_545 S
C172 O173 1.227 . S
C172 O182 1.265 . S
O173 C172 1.227 . S
N174 Co171 2.121 . S
N174 C176 1.375 . S
N174 C177 1.313 . S
C175 C176 1.338 . S
C175 N178 1.377 . S
C175 H195 0.930 . S
C176 N174 1.375 . S
C176 C175 1.338 . S
C176 H180 0.931 . S
C177 N174 1.313 . S
C177 N178 1.344 . S
C177 H181 0.930 . S
N178 C175 1.377 . S
N178 C177 1.344 . S
O179 Co171 2.055 . S
O179 C183 1.253 . S
H180 C176 0.931 . S
H181 C177 0.930 . S
O182 Co171 2.039 . S
O182 C172 1.265 . S
C183 O179 1.253 . S
C183 O184 1.232 . S
O184 C183 1.232 . S
N185 Co171 2.140 1_565 S
N185 C188 1.346 . S
N185 C189 1.345 . S
C186 C187 1.387 . S
C186 C190 1.391 . S
C187 C186 1.387 . S
C187 C188 1.369 . S
C187 H196 0.929 1_556 S
C188 N185 1.346 . S
C188 C187 1.369 . S
C188 H191 0.928 1_566 S
C189 N185 1.345 . S
C189 C190 1.371 . S
C189 H192 0.931 . S
C190 C186 1.391 . S
C190 C189 1.371 . S
C190 H197 0.930 . S
H191 C188 0.928 1_544 S
H192 C189 0.931 . S
H193 C169 0.930 . S
H194 C166 0.930 1_565 S
H195 C175 0.930 . S
H196 C187 0.929 1_554 S
H197 C190 0.930 . S
C198 C199 1.351 . S
C198 N201 1.368 . S
C198 H203 0.931 . S
C199 C198 1.351 . S
C199 N200 1.373 . S
C199 H227 0.930 . S
N200 C199 1.373 . S
N200 C202 1.340 . S
N201 C198 1.368 . S
N201 C202 1.321 . S
N201 Co204 2.135 . S
C202 N200 1.340 . S
C202 N201 1.321 . S
C202 H226 0.930 . S
H203 C198 0.931 . S
Co204 N201 2.135 . S
Co204 N207 2.121 . S
Co204 O212 2.055 . S
Co204 O215 2.039 . S
Co204 N218 2.140 . S
C205 O206 1.227 . S
C205 O215 1.265 . S
O206 C205 1.227 . S
N207 Co204 2.121 . S
N207 C209 1.375 . S
N207 C210 1.313 . S
C208 C209 1.338 . S
C208 N211 1.377 . S
C208 H228 0.930 . S
C209 N207 1.375 . S
C209 C208 1.338 . S
C209 H213 0.931 . S
C210 N207 1.313 . S
C210 N211 1.344 . S
C210 H214 0.930 . S
N211 C208 1.377 . S
N211 C210 1.344 . S
O212 Co204 2.055 . S
O212 C216 1.253 . S
H213 C209 0.931 . S
H214 C210 0.930 . S
O215 Co204 2.039 . S
O215 C205 1.265 . S
C216 O212 1.253 . S
C216 O217 1.227 . S
O217 C216 1.227 . S
N218 Co204 2.140 . S
N218 C221 1.346 . S
N218 C222 1.345 . S
C219 C220 1.387 . S
C219 C223 1.391 . S
C220 C219 1.387 . S
C220 C221 1.369 . S
C220 H229 0.929 . S
C221 N218 1.346 . S
C221 C220 1.369 . S
C221 H224 0.928 . S
C222 N218 1.345 . S
C222 C223 1.371 . S
C222 H225 0.931 . S
C223 C219 1.391 . S
C223 C222 1.371 . S
C223 H230 0.930 . S
H224 C221 0.928 . S
H225 C222 0.931 . S
H226 C202 0.930 . S
H227 C199 0.930 . S
H228 C208 0.930 . S
H229 C220 0.929 . S
H230 C223 0.930 . S
C231 C232 1.351 . S
C231 N234 1.368 . S
C231 H236 0.931 . S
C232 C231 1.351 . S
C232 N233 1.373 . S
C232 H260 0.930 . S
N233 C232 1.373 . S
N233 C235 1.340 . S
N234 C231 1.368 . S
N234 C235 1.321 . S
N234 Co237 2.135 1_554 S
C235 N233 1.340 . S
C235 N234 1.321 . S
C235 H259 0.930 . S
H236 C231 0.931 . S
Co237 N234 2.135 1_556 S
Co237 N240 2.121 . S
Co237 O245 2.055 . S
Co237 O248 2.039 . S
Co237 N251 2.140 . S
C238 O239 1.227 . S
C238 O248 1.265 . S
O239 C238 1.227 . S
N240 Co237 2.121 . S
N240 C242 1.375 . S
N240 C243 1.313 . S
C241 C242 1.338 . S
C241 N244 1.377 . S
C241 H261 0.930 . S
C242 N240 1.375 . S
C242 C241 1.338 . S
C242 H246 0.931 . S
C243 N240 1.313 . S
C243 N244 1.344 . S
C243 H247 0.930 . S
N244 C241 1.377 . S
N244 C243 1.344 . S
O245 Co237 2.055 . S
O245 C249 1.253 . S
H246 C242 0.931 . S
H247 C243 0.930 . S
O248 Co237 2.039 . S
O248 C238 1.265 . S
C249 O245 1.253 . S
C249 O250 1.227 . S
O250 C249 1.227 . S
N251 Co237 2.140 . S
N251 C254 1.346 . S
N251 C255 1.345 . S
C252 C253 1.387 . S
C252 C256 1.391 . S
C253 C252 1.387 . S
C253 C254 1.369 . S
C253 H262 0.929 1_556 S
C254 N251 1.346 . S
C254 C253 1.369 . S
C254 H257 0.928 1_556 S
C255 N251 1.345 . S
C255 C256 1.371 . S
C255 H258 0.931 . S
C256 C252 1.391 . S
C256 C255 1.371 . S
C256 H263 0.930 . S
H257 C254 0.928 1_554 S
H258 C255 0.931 . S
H259 C235 0.930 . S
H260 C232 0.930 . S
H261 C241 0.930 . S
H262 C253 0.929 1_554 S
H263 C256 0.930 . S
C264 C265 1.351 . S
C264 N267 1.368 . S
C264 H269 0.931 1_655 S
C265 C264 1.351 . S
C265 N266 1.373 . S
C265 H293 0.930 1_655 S
N266 C265 1.373 . S
N266 C268 1.340 . S
N267 C264 1.368 . S
N267 C268 1.321 . S
N267 Co270 2.135 1_554 S
C268 N266 1.340 . S
C268 N267 1.321 . S
C268 H292 0.930 . S
H269 C264 0.931 1_455 S
Co270 N267 2.135 1_556 S
Co270 N273 2.121 . S
Co270 O278 2.055 . S
Co270 O281 2.039 . S
Co270 N284 2.140 1_655 S
C271 O272 1.227 . S
C271 O281 1.265 . S
O272 C271 1.227 . S
N273 Co270 2.121 . S
N273 C275 1.375 . S
N273 C276 1.313 . S
C274 C275 1.338 . S
C274 N277 1.377 . S
C274 H294 0.930 . S
C275 N273 1.375 . S
C275 C274 1.338 . S
C275 H279 0.931 . S
C276 N273 1.313 . S
C276 N277 1.344 . S
C276 H280 0.930 . S
N277 C274 1.377 . S
N277 C276 1.344 . S
O278 Co270 2.055 . S
O278 C282 1.253 . S
H279 C275 0.931 . S
H280 C276 0.930 . S
O281 Co270 2.039 . S
O281 C271 1.265 . S
C282 O278 1.253 . S
C282 O283 1.232 . S
O283 C282 1.232 . S
N284 Co270 2.140 1_455 S
N284 C287 1.346 . S
N284 C288 1.345 . S
C285 C286 1.387 . S
C285 C289 1.391 . S
C286 C285 1.387 . S
C286 C287 1.369 . S
C286 H295 0.929 1_556 S
C287 N284 1.346 . S
C287 C286 1.369 . S
C287 H290 0.928 1_456 S
C288 N284 1.345 . S
C288 C289 1.371 . S
C288 H291 0.931 . S
C289 C285 1.391 . S
C289 C288 1.371 . S
C289 H296 0.930 . S
H290 C287 0.928 1_654 S
H291 C288 0.931 . S
H292 C268 0.930 . S
H293 C265 0.930 1_455 S
H294 C274 0.930 . S
H295 C286 0.929 1_554 S
H296 C289 0.930 . S
C297 C298 1.351 . S
C297 N300 1.368 . S
C297 H302 0.931 1_565 S
C298 C297 1.351 . S
C298 N299 1.373 . S
C298 H326 0.930 1_565 S
N299 C298 1.373 . S
N299 C301 1.340 . S
N300 C297 1.368 . S
N300 C301 1.321 . S
N300 Co303 2.135 . S
C301 N299 1.340 . S
C301 N300 1.321 . S
C301 H325 0.930 . S
H302 C297 0.931 1_545 S
Co303 N300 2.135 . S
Co303 N306 2.121 . S
Co303 O311 2.055 . S
Co303 O314 2.039 . S
Co303 N317 2.140 1_565 S
C304 O305 1.227 . S
C304 O314 1.265 . S
O305 C304 1.227 . S
N306 Co303 2.121 . S
N306 C308 1.375 . S
N306 C309 1.313 . S
C307 C308 1.338 . S
C307 N310 1.377 . S
C307 H327 0.930 . S
C308 N306 1.375 . S
C308 C307 1.338 . S
C308 H312 0.931 . S
C309 N306 1.313 . S
C309 N310 1.344 . S
C309 H313 0.930 . S
N310 C307 1.377 . S
N310 C309 1.344 . S
O311 Co303 2.055 . S
O311 C315 1.253 . S
H312 C308 0.931 . S
H313 C309 0.930 . S
O314 Co303 2.039 . S
O314 C304 1.265 . S
C315 O311 1.253 . S
C315 O316 1.232 . S
O316 C315 1.232 . S
N317 Co303 2.140 1_545 S
N317 C320 1.346 . S
N317 C321 1.345 . S
C318 C319 1.387 . S
C318 C322 1.391 . S
C319 C318 1.387 . S
C319 C320 1.369 . S
C319 H328 0.929 . S
C320 N317 1.346 . S
C320 C319 1.369 . S
C320 H323 0.928 1_545 S
C321 N317 1.345 . S
C321 C322 1.371 . S
C321 H324 0.931 . S
C322 C318 1.391 . S
C322 C321 1.371 . S
C322 H329 0.930 . S
H323 C320 0.928 1_565 S
H324 C321 0.931 . S
H325 C301 0.930 . S
H326 C298 0.930 1_545 S
H327 C307 0.930 . S
H328 C319 0.929 . S
H329 C322 0.930 . S
C330 C331 1.351 . S
C330 N333 1.368 . S
C330 H335 0.931 . S
C331 C330 1.351 . S
C331 N332 1.373 . S
C331 H359 0.930 . S
N332 C331 1.373 . S
N332 C334 1.340 . S
N333 C330 1.368 . S
N333 C334 1.321 . S
N333 Co336 2.135 1_554 S
C334 N332 1.340 . S
C334 N333 1.321 . S
C334 H358 0.930 . S
H335 C330 0.931 . S
Co336 N333 2.135 1_556 S
Co336 N339 2.121 . S
Co336 O344 2.055 . S
Co336 O347 2.039 . S
Co336 N350 2.140 . S
C337 O338 1.227 . S
C337 O347 1.265 . S
O338 C337 1.227 . S
N339 Co336 2.121 . S
N339 C341 1.375 . S
N339 C342 1.313 . S
C340 C341 1.338 . S
C340 N343 1.377 . S
C340 H360 0.930 . S
C341 N339 1.375 . S
C341 C340 1.338 . S
C341 H345 0.931 . S
C342 N339 1.313 . S
C342 N343 1.344 . S
C342 H346 0.930 . S
N343 C340 1.377 . S
N343 C342 1.344 . S
O344 Co336 2.055 . S
O344 C348 1.253 . S
H345 C341 0.931 . S
H346 C342 0.930 . S
O347 Co336 2.039 . S
O347 C337 1.265 . S
C348 O344 1.253 . S
C348 O349 1.227 . S
O349 C348 1.227 . S
N350 Co336 2.140 . S
N350 C353 1.346 . S
N350 C354 1.345 . S
C351 C352 1.387 . S
C351 C355 1.391 . S
C352 C351 1.387 . S
C352 C353 1.369 . S
C352 H361 0.929 1_556 S
C353 N350 1.346 . S
C353 C352 1.369 . S
C353 H356 0.928 1_556 S
C354 N350 1.345 . S
C354 C355 1.371 . S
C354 H357 0.931 . S
C355 C351 1.391 . S
C355 C354 1.371 . S
C355 H362 0.930 . S
H356 C353 0.928 1_554 S
H357 C354 0.931 . S
H358 C334 0.930 . S
H359 C331 0.930 . S
H360 C340 0.930 . S
H361 C352 0.929 1_554 S
H362 C355 0.930 . S
C363 C364 1.351 . S
C363 N366 1.368 . S
C363 H368 0.931 . S
C364 C363 1.351 . S
C364 N365 1.373 . S
C364 H392 0.930 . S
N365 C364 1.373 . S
N365 C367 1.340 . S
N366 C363 1.368 . S
N366 C367 1.321 . S
N366 Co369 2.135 . S
C367 N365 1.340 . S
C367 N366 1.321 . S
C367 H391 0.930 . S
H368 C363 0.931 . S
Co369 N366 2.135 . S
Co369 N372 2.121 . S
Co369 O377 2.055 . S
Co369 O380 2.039 . S
Co369 N383 2.140 . S
C370 O371 1.227 . S
C370 O380 1.265 . S
O371 C370 1.227 . S
N372 Co369 2.121 . S
N372 C374 1.375 . S
N372 C375 1.313 . S
C373 C374 1.338 . S
C373 N376 1.377 . S
C373 H393 0.930 . S
C374 N372 1.375 . S
C374 C373 1.338 . S
C374 H378 0.931 . S
C375 N372 1.313 . S
C375 N376 1.344 . S
C375 H379 0.930 . S
N376 C373 1.377 . S
N376 C375 1.344 . S
O377 Co369 2.055 . S
O377 C381 1.253 . S
H378 C374 0.931 . S
H379 C375 0.930 . S
O380 Co369 2.039 . S
O380 C370 1.265 . S
C381 O377 1.253 . S
C381 O382 1.227 . S
O382 C381 1.227 . S
N383 Co369 2.140 . S
N383 C386 1.346 . S
N383 C387 1.345 . S
C384 C385 1.387 . S
C384 C388 1.391 . S
C385 C384 1.387 . S
C385 C386 1.369 . S
C385 H394 0.929 . S
C386 N383 1.346 . S
C386 C385 1.369 . S
C386 H389 0.928 . S
C387 N383 1.345 . S
C387 C388 1.371 . S
C387 H390 0.931 . S
C388 C384 1.391 . S
C388 C387 1.371 . S
C388 H395 0.930 . S
H389 C386 0.928 . S
H390 C387 0.931 . S
H391 C367 0.930 . S
H392 C364 0.930 . S
H393 C373 0.930 . S
H394 C385 0.929 . S
H395 C388 0.930 . S
C396 C397 1.351 . S
C396 N399 1.368 . S
C396 H401 0.931 1_655 S
C397 C396 1.351 . S
C397 N398 1.373 . S
C397 H425 0.930 1_655 S
N398 C397 1.373 . S
N398 C400 1.340 . S
N399 C396 1.368 . S
N399 C400 1.321 . S
N399 Co402 2.135 . S
C400 N398 1.340 . S
C400 N399 1.321 . S
C400 H424 0.930 . S
H401 C396 0.931 1_455 S
Co402 N399 2.135 . S
Co402 N405 2.121 . S
Co402 O410 2.055 . S
Co402 O413 2.039 . S
Co402 N416 2.140 1_655 S
C403 O404 1.227 . S
C403 O413 1.265 . S
O404 C403 1.227 . S
N405 Co402 2.121 . S
N405 C407 1.375 . S
N405 C408 1.313 . S
C406 C407 1.338 . S
C406 N409 1.377 . S
C406 H426 0.930 . S
C407 N405 1.375 . S
C407 C406 1.338 . S
C407 H411 0.931 . S
C408 N405 1.313 . S
C408 N409 1.344 . S
C408 H412 0.930 . S
N409 C406 1.377 . S
N409 C408 1.344 . S
O410 Co402 2.055 . S
O410 C414 1.253 . S
H411 C407 0.931 . S
H412 C408 0.930 . S
O413 Co402 2.039 . S
O413 C403 1.265 . S
C414 O410 1.253 . S
C414 O415 1.232 . S
O415 C414 1.232 . S
N416 Co402 2.140 1_455 S
N416 C419 1.346 . S
N416 C420 1.345 . S
C417 C418 1.387 . S
C417 C421 1.391 . S
C418 C417 1.387 . S
C418 C419 1.369 . S
C418 H427 0.929 . S
C419 N416 1.346 . S
C419 C418 1.369 . S
C419 H422 0.928 1_455 S
C420 N416 1.345 . S
C420 C421 1.371 . S
C420 H423 0.931 . S
C421 C417 1.391 . S
C421 C420 1.371 . S
C421 H428 0.930 . S
H422 C419 0.928 1_655 S
H423 C420 0.931 . S
H424 C400 0.930 . S
H425 C397 0.930 1_455 S
H426 C406 0.930 . S
H427 C418 0.929 . S
H428 C421 0.930 . S
C429 C430 1.351 . S
C429 N432 1.368 . S
C429 H434 0.931 1_565 S
C430 C429 1.351 . S
C430 N431 1.373 . S
C430 H458 0.930 1_565 S
N431 C430 1.373 . S
N431 C433 1.340 . S
N432 C429 1.368 . S
N432 C433 1.321 . S
N432 Co435 2.135 1_556 S
C433 N431 1.340 . S
C433 N432 1.321 . S
C433 H457 0.930 . S
H434 C429 0.931 1_545 S
Co435 N432 2.135 1_554 S
Co435 N438 2.121 . S
Co435 O443 2.055 . S
Co435 O446 2.039 . S
Co435 N449 2.140 1_565 S
C436 O437 1.227 . S
C436 O446 1.265 . S
O437 C436 1.227 . S
N438 Co435 2.121 . S
N438 C440 1.375 . S
N438 C441 1.313 . S
C439 C440 1.338 . S
C439 N442 1.377 . S
C439 H459 0.930 . S
C440 N438 1.375 . S
C440 C439 1.338 . S
C440 H444 0.931 . S
C441 N438 1.313 . S
C441 N442 1.344 . S
C441 H445 0.930 . S
N442 C439 1.377 . S
N442 C441 1.344 . S
O443 Co435 2.055 . S
O443 C447 1.253 . S
H444 C440 0.931 . S
H445 C441 0.930 . S
O446 Co435 2.039 . S
O446 C436 1.265 . S
C447 O443 1.253 . S
C447 O448 1.232 . S
O448 C447 1.232 . S
N449 Co435 2.140 1_545 S
N449 C452 1.346 . S
N449 C453 1.345 . S
C450 C451 1.387 . S
C450 C454 1.391 . S
C451 C450 1.387 . S
C451 C452 1.369 . S
C451 H460 0.929 1_554 S
C452 N449 1.346 . S
C452 C451 1.369 . S
C452 H455 0.928 1_544 S
C453 N449 1.345 . S
C453 C454 1.371 . S
C453 H456 0.931 . S
C454 C450 1.391 . S
C454 C453 1.371 . S
C454 H461 0.930 . S
H455 C452 0.928 1_566 S
H456 C453 0.931 . S
H457 C433 0.930 . S
H458 C430 0.930 1_545 S
H459 C439 0.930 . S
H460 C451 0.929 1_556 S
H461 C454 0.930 . S
C462 C463 1.351 . S
C462 N465 1.368 . S
C462 H467 0.931 . S
C463 C462 1.351 . S
C463 N464 1.373 . S
C463 H491 0.930 . S
N464 C463 1.373 . S
N464 C466 1.340 . S
N465 C462 1.368 . S
N465 C466 1.321 . S
N465 Co468 2.135 . S
C466 N464 1.340 . S
C466 N465 1.321 . S
C466 H490 0.930 . S
H467 C462 0.931 . S
Co468 N465 2.135 . S
Co468 N471 2.121 . S
Co468 O476 2.055 . S
Co468 O479 2.039 . S
Co468 N482 2.140 . S
C469 O470 1.227 . S
C469 O479 1.265 . S
O470 C469 1.227 . S
N471 Co468 2.121 . S
N471 C473 1.375 . S
N471 C474 1.313 . S
C472 C473 1.338 . S
C472 N475 1.377 . S
C472 H492 0.930 . S
C473 N471 1.375 . S
C473 C472 1.338 . S
C473 H477 0.931 . S
C474 N471 1.313 . S
C474 N475 1.344 . S
C474 H478 0.930 . S
N475 C472 1.377 . S
N475 C474 1.344 . S
O476 Co468 2.055 . S
O476 C480 1.253 . S
H477 C473 0.931 . S
H478 C474 0.930 . S
O479 Co468 2.039 . S
O479 C469 1.265 . S
C480 O476 1.253 . S
C480 O481 1.227 . S
O481 C480 1.227 . S
N482 Co468 2.140 . S
N482 C485 1.346 . S
N482 C486 1.345 . S
C483 C484 1.387 . S
C483 C487 1.391 . S
C484 C483 1.387 . S
C484 C485 1.369 . S
C484 H493 0.929 . S
C485 N482 1.346 . S
C485 C484 1.369 . S
C485 H488 0.928 . S
C486 N482 1.345 . S
C486 C487 1.371 . S
C486 H489 0.931 . S
C487 C483 1.391 . S
C487 C486 1.371 . S
C487 H494 0.930 . S
H488 C485 0.928 . S
H489 C486 0.931 . S
H490 C466 0.930 . S
H491 C463 0.930 . S
H492 C472 0.930 . S
H493 C484 0.929 . S
H494 C487 0.930 . S
C495 C496 1.351 . S
C495 N498 1.368 . S
C495 H500 0.931 . S
C496 C495 1.351 . S
C496 N497 1.373 . S
C496 H524 0.930 . S
N497 C496 1.373 . S
N497 C499 1.340 . S
N498 C495 1.368 . S
N498 C499 1.321 . S
N498 Co501 2.135 1_556 S
C499 N497 1.340 . S
C499 N498 1.321 . S
C499 H523 0.930 . S
H500 C495 0.931 . S
Co501 N498 2.135 1_554 S
Co501 N504 2.121 . S
Co501 O509 2.055 . S
Co501 O512 2.039 . S
Co501 N515 2.140 . S
C502 O503 1.227 . S
C502 O512 1.265 . S
O503 C502 1.227 . S
N504 Co501 2.121 . S
N504 C506 1.375 . S
N504 C507 1.313 . S
C505 C506 1.338 . S
C505 N508 1.377 . S
C505 H525 0.930 . S
C506 N504 1.375 . S
C506 C505 1.338 . S
C506 H510 0.931 . S
C507 N504 1.313 . S
C507 N508 1.344 . S
C507 H511 0.930 . S
N508 C505 1.377 . S
N508 C507 1.344 . S
O509 Co501 2.055 . S
O509 C513 1.253 . S
H510 C506 0.931 . S
H511 C507 0.930 . S
O512 Co501 2.039 . S
O512 C502 1.265 . S
C513 O509 1.253 . S
C513 O514 1.227 . S
O514 C513 1.227 . S
N515 Co501 2.140 . S
N515 C518 1.346 . S
N515 C519 1.345 . S
C516 C517 1.387 . S
C516 C520 1.391 . S
C517 C516 1.387 . S
C517 C518 1.369 . S
C517 H526 0.929 1_554 S
C518 N515 1.346 . S
C518 C517 1.369 . S
C518 H521 0.928 1_554 S
C519 N515 1.345 . S
C519 C520 1.371 . S
C519 H522 0.931 . S
C520 C516 1.391 . S
C520 C519 1.371 . S
C520 H527 0.930 . S
H521 C518 0.928 1_556 S
H522 C519 0.931 . S
H523 C499 0.930 . S
H524 C496 0.930 . S
H525 C505 0.930 . S
H526 C517 0.929 1_556 S
H527 C520 0.930 . S
C528 C529 1.363 . S
C528 C534 1.379 . S
C528 N536 1.356 . S
C529 C528 1.363 . S
C529 C535 1.363 . S
C530 C531 1.363 . S
C530 C535 1.379 . S
C530 N537 1.356 1_554 S
C531 C530 1.363 . S
C531 C534 1.363 . S
N532 C534 1.356 . S
N532 H544 0.984 . S
N532 H545 0.985 . S
N533 C535 1.356 1_556 S
N533 H538 0.984 1_556 S
N533 H539 0.985 . S
C534 C528 1.379 . S
C534 C531 1.363 . S
C534 N532 1.356 . S
C535 C529 1.363 . S
C535 C530 1.379 . S
C535 N533 1.356 1_554 S
N536 C528 1.356 . S
N536 H542 0.984 . S
N536 H543 0.984 . S
N537 C530 1.356 1_556 S
N537 H540 0.984 1_556 S
N537 H541 0.985 . S
H538 N533 0.984 1_554 S
H539 N533 0.985 . S
H540 N537 0.984 1_554 S
H541 N537 0.985 . S
H542 N536 0.984 . S
H543 N536 0.984 . S
H544 N532 0.984 . S
H545 N532 0.985 . S
C546 C547 1.363 . S
C546 C552 1.379 . S
C546 N554 1.356 . S
C547 C546 1.363 . S
C547 C553 1.363 . S
C548 C549 1.363 . S
C548 C553 1.379 . S
C548 N555 1.356 . S
C549 C548 1.363 . S
C549 C552 1.363 . S
N550 C552 1.356 . S
N550 H562 0.984 . S
N550 H563 0.985 . S
N551 C553 1.356 . S
N551 H556 0.984 . S
N551 H557 0.985 . S
C552 C546 1.379 . S
C552 C549 1.363 . S
C552 N550 1.356 . S
C553 C547 1.363 . S
C553 C548 1.379 . S
C553 N551 1.356 . S
N554 C546 1.356 . S
N554 H560 0.984 . S
N554 H561 0.984 . S
N555 C548 1.356 . S
N555 H558 0.984 . S
N555 H559 0.985 . S
H556 N551 0.984 . S
H557 N551 0.985 . S
H558 N555 0.984 . S
H559 N555 0.985 . S
H560 N554 0.984 . S
H561 N554 0.984 . S
H562 N550 0.984 . S
H563 N550 0.985 . S
C564 C565 1.363 . S
C564 C570 1.379 . S
C564 N572 1.356 1_554 S
C565 C564 1.363 . S
C565 C571 1.363 . S
C566 C567 1.363 . S
C566 C571 1.379 . S
C566 N573 1.356 . S
C567 C566 1.363 . S
C567 C570 1.363 . S
N568 C570 1.356 1_556 S
N568 H580 0.984 . S
N568 H581 0.985 1_556 S
N569 C571 1.356 . S
N569 H574 0.984 . S
N569 H575 0.985 . S
C570 C564 1.379 . S
C570 C567 1.363 . S
C570 N568 1.356 1_554 S
C571 C565 1.363 . S
C571 C566 1.379 . S
C571 N569 1.356 . S
N572 C564 1.356 1_556 S
N572 H578 0.984 . S
N572 H579 0.984 1_556 S
N573 C566 1.356 . S
N573 H576 0.984 . S
N573 H577 0.985 . S
H574 N569 0.984 . S
H575 N569 0.985 . S
H576 N573 0.984 . S
H577 N573 0.985 . S
H578 N572 0.984 . S
H579 N572 0.984 1_554 S
H580 N568 0.984 . S
H581 N568 0.985 1_554 S
C582 C583 1.363 . S
C582 C588 1.379 . S
C582 N590 1.356 . S
C583 C582 1.363 . S
C583 C589 1.363 . S
C584 C585 1.363 . S
C584 C589 1.379 . S
C584 N591 1.356 . S
C585 C584 1.363 . S
C585 C588 1.363 . S
N586 C588 1.356 . S
N586 H598 0.984 . S
N586 H599 0.985 . S
N587 C589 1.356 . S
N587 H592 0.984 . S
N587 H593 0.985 . S
C588 C582 1.379 . S
C588 C585 1.363 . S
C588 N586 1.356 . S
C589 C583 1.363 . S
C589 C584 1.379 . S
C589 N587 1.356 . S
N590 C582 1.356 . S
N590 H596 0.984 . S
N590 H597 0.984 . S
N591 C584 1.356 . S
N591 H594 0.984 . S
N591 H595 0.985 . S
H592 N587 0.984 . S
H593 N587 0.985 . S
H594 N591 0.984 . S
H595 N591 0.985 . S
H596 N590 0.984 . S
H597 N590 0.984 . S
H598 N586 0.984 . S
H599 N586 0.985 . S
C600 C601 1.363 . S
C600 C606 1.379 . S
C600 N608 1.356 . S
C601 C600 1.363 . S
C601 C607 1.363 . S
C602 C603 1.363 . S
C602 C607 1.379 . S
C602 N609 1.356 . S
C603 C602 1.363 . S
C603 C606 1.363 . S
N604 C606 1.356 . S
N604 H616 0.984 . S
N604 H617 0.985 . S
N605 C607 1.356 . S
N605 H610 0.984 . S
N605 H611 0.985 . S
C606 C600 1.379 . S
C606 C603 1.363 . S
C606 N604 1.356 . S
C607 C601 1.363 . S
C607 C602 1.379 . S
C607 N605 1.356 . S
N608 C600 1.356 . S
N608 H614 0.984 . S
N608 H615 0.984 . S
N609 C602 1.356 . S
N609 H612 0.984 . S
N609 H613 0.985 . S
H610 N605 0.984 . S
H611 N605 0.985 . S
H612 N609 0.984 . S
H613 N609 0.985 . S
H614 N608 0.984 . S
H615 N608 0.984 . S
H616 N604 0.984 . S
H617 N604 0.985 . S
C618 C619 1.363 . S
C618 C624 1.379 . S
C618 N626 1.356 . S
C619 C618 1.363 . S
C619 C625 1.363 . S
C620 C621 1.363 . S
C620 C625 1.379 . S
C620 N627 1.356 1_556 S
C621 C620 1.363 . S
C621 C624 1.363 . S
N622 C624 1.356 . S
N622 H634 0.984 . S
N622 H635 0.985 . S
N623 C625 1.356 1_554 S
N623 H628 0.984 1_554 S
N623 H629 0.985 . S
C624 C618 1.379 . S
C624 C621 1.363 . S
C624 N622 1.356 . S
C625 C619 1.363 . S
C625 C620 1.379 . S
C625 N623 1.356 1_556 S
N626 C618 1.356 . S
N626 H632 0.984 . S
N626 H633 0.984 . S
N627 C620 1.356 1_554 S
N627 H630 0.984 1_554 S
N627 H631 0.985 . S
H628 N623 0.984 1_556 S
H629 N623 0.985 . S
H630 N627 0.984 1_556 S
H631 N627 0.985 . S
H632 N626 0.984 . S
H633 N626 0.984 . S
H634 N622 0.984 . S
H635 N622 0.985 . S
C636 C637 1.363 . S
C636 C642 1.379 . S
C636 N644 1.356 . S
C637 C636 1.363 . S
C637 C643 1.363 . S
C638 C639 1.363 . S
C638 C643 1.379 . S
C638 N645 1.356 . S
C639 C638 1.363 . S
C639 C642 1.363 . S
N640 C642 1.356 . S
N640 H652 0.984 . S
N640 H653 0.985 . S
N641 C643 1.356 . S
N641 H646 0.984 . S
N641 H647 0.985 . S
C642 C636 1.379 . S
C642 C639 1.363 . S
C642 N640 1.356 . S
C643 C637 1.363 . S
C643 C638 1.379 . S
C643 N641 1.356 . S
N644 C636 1.356 . S
N644 H650 0.984 . S
N644 H651 0.984 . S
N645 C638 1.356 . S
N645 H648 0.984 . S
N645 H649 0.985 . S
H646 N641 0.984 . S
H647 N641 0.985 . S
H648 N645 0.984 . S
H649 N645 0.985 . S
H650 N644 0.984 . S
H651 N644 0.984 . S
H652 N640 0.984 . S
H653 N640 0.985 . S
C654 C655 1.363 . S
C654 C660 1.379 . S
C654 N662 1.356 . S
C655 C654 1.363 . S
C655 C661 1.363 . S
C656 C657 1.363 . S
C656 C661 1.379 . S
C656 N663 1.356 1_556 S
C657 C656 1.363 . S
C657 C660 1.363 . S
N658 C660 1.356 . S
N658 H670 0.984 . S
N658 H671 0.985 . S
N659 C661 1.356 1_554 S
N659 H664 0.984 1_554 S
N659 H665 0.985 . S
C660 C654 1.379 . S
C660 C657 1.363 . S
C660 N658 1.356 . S
C661 C655 1.363 . S
C661 C656 1.379 . S
C661 N659 1.356 1_556 S
N662 C654 1.356 . S
N662 H668 0.984 . S
N662 H669 0.984 . S
N663 C656 1.356 1_554 S
N663 H666 0.984 1_554 S
N663 H667 0.985 . S
H664 N659 0.984 1_556 S
H665 N659 0.985 . S
H666 N663 0.984 1_556 S
H667 N663 0.985 . S
H668 N662 0.984 . S
H669 N662 0.984 . S
H670 N658 0.984 . S
H671 N658 0.985 . S
C672 C673 1.363 1_556 S
C672 C678 1.379 . S
C672 N680 1.356 . S
C673 C672 1.363 1_554 S
C673 C679 1.363 . S
C674 C675 1.363 1_554 S
C674 C679 1.379 . S
C674 N681 1.356 . S
C675 C674 1.363 1_556 S
C675 C678 1.363 . S
N676 C678 1.356 . S
N676 H688 0.984 . S
N676 H689 0.985 . S
N677 C679 1.356 . S
N677 H682 0.984 . S
N677 H683 0.985 . S
C678 C672 1.379 . S
C678 C675 1.363 . S
C678 N676 1.356 . S
C679 C673 1.363 . S
C679 C674 1.379 . S
C679 N677 1.356 . S
N680 C672 1.356 . S
N680 H686 0.984 . S
N680 H687 0.984 . S
N681 C674 1.356 . S
N681 H684 0.984 . S
N681 H685 0.985 . S
H682 N677 0.984 . S
H683 N677 0.985 . S
H684 N681 0.984 . S
H685 N681 0.985 . S
H686 N680 0.984 . S
H687 N680 0.984 . S
H688 N676 0.984 . S
H689 N676 0.985 . S
C690 C691 1.363 . S
C690 C696 1.379 . S
C690 N698 1.356 . S
C691 C690 1.363 . S
C691 C697 1.363 . S
C692 C693 1.363 . S
C692 C697 1.379 . S
C692 N699 1.356 . S
C693 C692 1.363 . S
C693 C696 1.363 . S
N694 C696 1.356 . S
N694 H706 0.984 . S
N694 H707 0.985 . S
N695 C697 1.356 . S
N695 H700 0.984 . S
N695 H701 0.985 . S
C696 C690 1.379 . S
C696 C693 1.363 . S
C696 N694 1.356 . S
C697 C691 1.363 . S
C697 C692 1.379 . S
C697 N695 1.356 . S
N698 C690 1.356 . S
N698 H704 0.984 . S
N698 H705 0.984 . S
N699 C692 1.356 . S
N699 H702 0.984 . S
N699 H703 0.985 . S
H700 N695 0.984 . S
H701 N695 0.985 . S
H702 N699 0.984 . S
H703 N699 0.985 . S
H704 N698 0.984 . S
H705 N698 0.984 . S
H706 N694 0.984 . S
H707 N694 0.985 . S
C708 C709 1.363 . S
C708 C714 1.379 . S
C708 N716 1.356 . S
C709 C708 1.363 . S
C709 C715 1.363 1_554 S
C710 C711 1.363 . S
C710 C715 1.379 . S
C710 N717 1.356 . S
C711 C710 1.363 . S
C711 C714 1.363 1_556 S
N712 C714 1.356 . S
N712 H724 0.984 . S
N712 H725 0.985 . S
N713 C715 1.356 . S
N713 H718 0.984 . S
N713 H719 0.985 . S
C714 C708 1.379 . S
C714 C711 1.363 1_554 S
C714 N712 1.356 . S
C715 C709 1.363 1_556 S
C715 C710 1.379 . S
C715 N713 1.356 . S
N716 C708 1.356 . S
N716 H722 0.984 . S
N716 H723 0.984 . S
N717 C710 1.356 . S
N717 H720 0.984 . S
N717 H721 0.985 . S
H718 N713 0.984 . S
H719 N713 0.985 . S
H720 N717 0.984 . S
H721 N717 0.985 . S
H722 N716 0.984 . S
H723 N716 0.984 . S
H724 N712 0.984 . S
H725 N712 0.985 . S
C726 C727 1.363 . S
C726 C732 1.379 . S
C726 N734 1.356 . S
C727 C726 1.363 . S
C727 C733 1.363 . S
C728 C729 1.363 . S
C728 C733 1.379 . S
C728 N735 1.356 . S
C729 C728 1.363 . S
C729 C732 1.363 . S
N730 C732 1.356 . S
N730 H742 0.984 . S
N730 H743 0.985 . S
N731 C733 1.356 . S
N731 H736 0.984 . S
N731 H737 0.985 . S
C732 C726 1.379 . S
C732 C729 1.363 . S
C732 N730 1.356 . S
C733 C727 1.363 . S
C733 C728 1.379 . S
C733 N731 1.356 . S
N734 C726 1.356 . S
N734 H740 0.984 . S
N734 H741 0.984 . S
N735 C728 1.356 . S
N735 H738 0.984 . S
N735 H739 0.985 . S
H736 N731 0.984 . S
H737 N731 0.985 . S
H738 N735 0.984 . S
H739 N735 0.985 . S
H740 N734 0.984 . S
H741 N734 0.984 . S
H742 N730 0.984 . S
H743 N730 0.985 . S
C744 C745 1.363 . S
C744 C750 1.379 . S
C744 N752 1.356 . S
C745 C744 1.363 . S
C745 C751 1.363 1_554 S
C746 C747 1.363 . S
C746 C751 1.379 . S
C746 N753 1.356 . S
C747 C746 1.363 . S
C747 C750 1.363 1_556 S
N748 C750 1.356 . S
N748 H760 0.984 . S
N748 H761 0.985 1_554 S
N749 C751 1.356 . S
N749 H754 0.984 1_556 S
N749 H755 0.985 . S
C750 C744 1.379 . S
C750 C747 1.363 1_554 S
C750 N748 1.356 . S
C751 C745 1.363 1_556 S
C751 C746 1.379 . S
C751 N749 1.356 . S
N752 C744 1.356 . S
N752 H758 0.984 . S
N752 H759 0.984 . S
N753 C746 1.356 . S
N753 H756 0.984 . S
N753 H757 0.985 . S
H754 N749 0.984 1_554 S
H755 N749 0.985 . S
H756 N753 0.984 . S
H757 N753 0.985 . S
H758 N752 0.984 . S
H759 N752 0.984 . S
H760 N748 0.984 . S
H761 N748 0.985 1_556 S
C762 C763 1.363 . S
C762 C768 1.379 . S
C762 N770 1.356 . S
C763 C762 1.363 . S
C763 C769 1.363 . S
C764 C765 1.363 . S
C764 C769 1.379 . S
C764 N771 1.356 . S
C765 C764 1.363 . S
C765 C768 1.363 . S
N766 C768 1.356 . S
N766 H778 0.984 . S
N766 H779 0.985 . S
N767 C769 1.356 . S
N767 H772 0.984 . S
N767 H773 0.985 . S
C768 C762 1.379 . S
C768 C765 1.363 . S
C768 N766 1.356 . S
C769 C763 1.363 . S
C769 C764 1.379 . S
C769 N767 1.356 . S
N770 C762 1.356 . S
N770 H776 0.984 . S
N770 H777 0.984 . S
N771 C764 1.356 . S
N771 H774 0.984 . S
N771 H775 0.985 . S
H772 N767 0.984 . S
H773 N767 0.985 . S
H774 N771 0.984 . S
H775 N771 0.985 . S
H776 N770 0.984 . S
H777 N770 0.984 . S
H778 N766 0.984 . S
H779 N766 0.985 . S
C780 C781 1.363 1_556 S
C780 C786 1.379 . S
C780 N788 1.356 . S
C781 C780 1.363 1_554 S
C781 C787 1.363 . S
C782 C783 1.363 1_554 S
C782 C787 1.379 . S
C782 N789 1.356 . S
C783 C782 1.363 1_556 S
C783 C786 1.363 . S
N784 C786 1.356 . S
N784 H796 0.984 . S
N784 H797 0.985 . S
N785 C787 1.356 . S
N785 H790 0.984 . S
N785 H791 0.985 . S
C786 C780 1.379 . S
C786 C783 1.363 . S
C786 N784 1.356 . S
C787 C781 1.363 . S
C787 C782 1.379 . S
C787 N785 1.356 . S
N788 C780 1.356 . S
N788 H794 0.984 . S
N788 H795 0.984 . S
N789 C782 1.356 . S
N789 H792 0.984 . S
N789 H793 0.985 . S
H790 N785 0.984 . S
H791 N785 0.985 . S
H792 N789 0.984 . S
H793 N789 0.985 . S
H794 N788 0.984 . S
H795 N788 0.984 . S
H796 N784 0.984 . S
H797 N784 0.985 . S
C798 C799 1.363 . S
C798 C804 1.379 . S
C798 N806 1.356 . S
C799 C798 1.363 . S
C799 C805 1.363 . S
C800 C801 1.363 . S
C800 C805 1.379 . S
C800 N807 1.356 . S
C801 C800 1.363 . S
C801 C804 1.363 . S
N802 C804 1.356 . S
N802 H814 0.984 . S
N802 H815 0.985 . S
N803 C805 1.356 . S
N803 H808 0.984 . S
N803 H809 0.985 . S
C804 C798 1.379 . S
C804 C801 1.363 . S
C804 N802 1.356 . S
C805 C799 1.363 . S
C805 C800 1.379 . S
C805 N803 1.356 . S
N806 C798 1.356 . S
N806 H812 0.984 . S
N806 H813 0.984 . S
N807 C800 1.356 . S
N807 H810 0.984 . S
N807 H811 0.985 . S
H808 N803 0.984 . S
H809 N803 0.985 . S
H810 N807 0.984 . S
H811 N807 0.985 . S
H812 N806 0.984 . S
H813 N806 0.984 . S
H814 N802 0.984 . S
H815 N802 0.985 . S
C816 C817 1.363 1_655 S
C816 C822 1.379 . S
C816 N824 1.356 . S
C817 C816 1.363 1_455 S
C817 C823 1.363 . S
C818 C819 1.363 . S
C818 C823 1.379 . S
C818 N825 1.356 . S
C819 C818 1.363 . S
C819 C822 1.363 1_455 S
N820 C822 1.356 . S
N820 H832 0.984 . S
N820 H833 0.985 . S
N821 C823 1.356 . S
N821 H826 0.984 . S
N821 H827 0.985 . S
C822 C816 1.379 . S
C822 C819 1.363 1_655 S
C822 N820 1.356 . S
C823 C817 1.363 . S
C823 C818 1.379 . S
C823 N821 1.356 . S
N824 C816 1.356 . S
N824 H830 0.984 . S
N824 H831 0.984 . S
N825 C818 1.356 . S
N825 H828 0.984 . S
N825 H829 0.985 . S
H826 N821 0.984 . S
H827 N821 0.985 . S
H828 N825 0.984 . S
H829 N825 0.985 . S
H830 N824 0.984 . S
H831 N824 0.984 . S
H832 N820 0.984 . S
H833 N820 0.985 . S
C834 C835 1.363 . S
C834 C840 1.379 . S
C834 N842 1.356 1_545 S
C835 C834 1.363 . S
C835 C841 1.363 . S
C836 C837 1.363 . S
C836 C841 1.379 . S
C836 N843 1.356 . S
C837 C836 1.363 . S
C837 C840 1.363 . S
N838 C840 1.356 1_565 S
N838 H850 0.984 . S
N838 H851 0.985 . S
N839 C841 1.356 . S
N839 H844 0.984 . S
N839 H845 0.985 . S
C840 C834 1.379 . S
C840 C837 1.363 . S
C840 N838 1.356 1_545 S
C841 C835 1.363 . S
C841 C836 1.379 . S
C841 N839 1.356 . S
N842 C834 1.356 1_565 S
N842 H848 0.984 . S
N842 H849 0.984 . S
N843 C836 1.356 . S
N843 H846 0.984 . S
N843 H847 0.985 . S
H844 N839 0.984 . S
H845 N839 0.985 . S
H846 N843 0.984 . S
H847 N843 0.985 . S
H848 N842 0.984 . S
H849 N842 0.984 . S
H850 N838 0.984 . S
H851 N838 0.985 . S
C852 C853 1.363 . S
C852 C858 1.379 . S
C852 N860 1.356 . S
C853 C852 1.363 . S
C853 C859 1.363 . S
C854 C855 1.363 . S
C854 C859 1.379 . S
C854 N861 1.356 . S
C855 C854 1.363 . S
C855 C858 1.363 . S
N856 C858 1.356 . S
N856 H868 0.984 . S
N856 H869 0.985 . S
N857 C859 1.356 . S
N857 H862 0.984 . S
N857 H863 0.985 . S
C858 C852 1.379 . S
C858 C855 1.363 . S
C858 N856 1.356 . S
C859 C853 1.363 . S
C859 C854 1.379 . S
C859 N857 1.356 . S
N860 C852 1.356 . S
N860 H866 0.984 . S
N860 H867 0.984 . S
N861 C854 1.356 . S
N861 H864 0.984 . S
N861 H865 0.985 . S
H862 N857 0.984 . S
H863 N857 0.985 . S
H864 N861 0.984 . S
H865 N861 0.985 . S
H866 N860 0.984 . S
H867 N860 0.984 . S
H868 N856 0.984 . S
H869 N856 0.985 . S
C870 C871 1.363 . S
C870 C876 1.379 . S
C870 N878 1.356 . S
C871 C870 1.363 . S
C871 C877 1.363 . S
C872 C873 1.363 . S
C872 C877 1.379 . S
C872 N879 1.356 . S
C873 C872 1.363 . S
C873 C876 1.363 . S
N874 C876 1.356 . S
N874 H886 0.984 . S
N874 H887 0.985 . S
N875 C877 1.356 . S
N875 H880 0.984 . S
N875 H881 0.985 . S
C876 C870 1.379 . S
C876 C873 1.363 . S
C876 N874 1.356 . S
C877 C871 1.363 . S
C877 C872 1.379 . S
C877 N875 1.356 . S
N878 C870 1.356 . S
N878 H884 0.984 . S
N878 H885 0.984 . S
N879 C872 1.356 . S
N879 H882 0.984 . S
N879 H883 0.985 . S
H880 N875 0.984 . S
H881 N875 0.985 . S
H882 N879 0.984 . S
H883 N879 0.985 . S
H884 N878 0.984 . S
H885 N878 0.984 . S
H886 N874 0.984 . S
H887 N874 0.985 . S
C888 C889 1.363 1_455 S
C888 C894 1.379 . S
C888 N896 1.356 . S
C889 C888 1.363 1_655 S
C889 C895 1.363 . S
C890 C891 1.363 . S
C890 C895 1.379 . S
C890 N897 1.356 . S
C891 C890 1.363 . S
C891 C894 1.363 1_655 S
N892 C894 1.356 . S
N892 H904 0.984 . S
N892 H905 0.985 . S
N893 C895 1.356 . S
N893 H898 0.984 . S
N893 H899 0.985 . S
C894 C888 1.379 . S
C894 C891 1.363 1_455 S
C894 N892 1.356 . S
C895 C889 1.363 . S
C895 C890 1.379 . S
C895 N893 1.356 . S
N896 C888 1.356 . S
N896 H902 0.984 . S
N896 H903 0.984 . S
N897 C890 1.356 . S
N897 H900 0.984 . S
N897 H901 0.985 . S
H898 N893 0.984 . S
H899 N893 0.985 . S
H900 N897 0.984 . S
H901 N897 0.985 . S
H902 N896 0.984 . S
H903 N896 0.984 . S
H904 N892 0.984 . S
H905 N892 0.985 . S
C906 C907 1.363 . S
C906 C912 1.379 . S
C906 N914 1.356 . S
C907 C906 1.363 . S
C907 C913 1.363 . S
C908 C909 1.363 . S
C908 C913 1.379 . S
C908 N915 1.356 1_565 S
C909 C908 1.363 . S
C909 C912 1.363 . S
N910 C912 1.356 . S
N910 H922 0.984 . S
N910 H923 0.985 . S
N911 C913 1.356 1_545 S
N911 H916 0.984 . S
N911 H917 0.985 . S
C912 C906 1.379 . S
C912 C909 1.363 . S
C912 N910 1.356 . S
C913 C907 1.363 . S
C913 C908 1.379 . S
C913 N911 1.356 1_565 S
N914 C906 1.356 . S
N914 H920 0.984 . S
N914 H921 0.984 . S
N915 C908 1.356 1_545 S
N915 H918 0.984 . S
N915 H919 0.985 . S
H916 N911 0.984 . S
H917 N911 0.985 . S
H918 N915 0.984 . S
H919 N915 0.985 . S
H920 N914 0.984 . S
H921 N914 0.984 . S
H922 N910 0.984 . S
H923 N910 0.985 . S
C924 C925 1.363 . S
C924 C930 1.379 . S
C924 N932 1.356 . S
C925 C924 1.363 . S
C925 C931 1.363 . S
C926 C927 1.363 . S
C926 C931 1.379 . S
C926 N933 1.356 . S
C927 C926 1.363 . S
C927 C930 1.363 . S
N928 C930 1.356 . S
N928 H940 0.984 . S
N928 H941 0.985 . S
N929 C931 1.356 . S
N929 H934 0.984 . S
N929 H935 0.985 . S
C930 C924 1.379 . S
C930 C927 1.363 . S
C930 N928 1.356 . S
C931 C925 1.363 . S
C931 C926 1.379 . S
C931 N929 1.356 . S
N932 C924 1.356 . S
N932 H938 0.984 . S
N932 H939 0.984 . S
N933 C926 1.356 . S
N933 H936 0.984 . S
N933 H937 0.985 . S
H934 N929 0.984 . S
H935 N929 0.985 . S
H936 N933 0.984 . S
H937 N933 0.985 . S
H938 N932 0.984 . S
H939 N932 0.984 . S
H940 N928 0.984 . S
H941 N928 0.985 . S
C942 C943 1.363 . S
C942 C948 1.379 . S
C942 N950 1.356 . S
C943 C942 1.363 . S
C943 C949 1.363 . S
C944 C945 1.363 . S
C944 C949 1.379 . S
C944 N951 1.356 . S
C945 C944 1.363 . S
C945 C948 1.363 . S
N946 C948 1.356 . S
N946 H958 0.984 . S
N946 H959 0.985 . S
N947 C949 1.356 . S
N947 H952 0.984 . S
N947 H953 0.985 . S
C948 C942 1.379 . S
C948 C945 1.363 . S
C948 N946 1.356 . S
C949 C943 1.363 . S
C949 C944 1.379 . S
C949 N947 1.356 . S
N950 C942 1.356 . S
N950 H956 0.984 . S
N950 H957 0.984 . S
N951 C944 1.356 . S
N951 H954 0.984 . S
N951 H955 0.985 . S
H952 N947 0.984 . S
H953 N947 0.985 . S
H954 N951 0.984 . S
H955 N951 0.985 . S
H956 N950 0.984 . S
H957 N950 0.984 . S
H958 N946 0.984 . S
H959 N946 0.985 . S
C960 C961 1.363 . S
C960 C966 1.379 . S
C960 N968 1.356 . S
C961 C960 1.363 . S
C961 C967 1.363 . S
C962 C963 1.363 . S
C962 C967 1.379 . S
C962 N969 1.356 . S
C963 C962 1.363 . S
C963 C966 1.363 . S
N964 C966 1.356 . S
N964 H976 0.984 . S
N964 H977 0.985 . S
N965 C967 1.356 . S
N965 H970 0.984 . S
N965 H971 0.985 . S
C966 C960 1.379 . S
C966 C963 1.363 . S
C966 N964 1.356 . S
C967 C961 1.363 . S
C967 C962 1.379 . S
C967 N965 1.356 . S
N968 C960 1.356 . S
N968 H974 0.984 1_455 S
N968 H975 0.984 . S
N969 C962 1.356 . S
N969 H972 0.984 . S
N969 H973 0.985 . S
H970 N965 0.984 . S
H971 N965 0.985 . S
H972 N969 0.984 . S
H973 N969 0.985 . S
H974 N968 0.984 1_655 S
H975 N968 0.984 . S
H976 N964 0.984 . S
H977 N964 0.985 . S
C978 C979 1.363 . S
C978 C984 1.379 . S
C978 N986 1.356 . S
C979 C978 1.363 . S
C979 C985 1.363 . S
C980 C981 1.363 . S
C980 C985 1.379 . S
C980 N987 1.356 1_545 S
C981 C980 1.363 . S
C981 C984 1.363 . S
N982 C984 1.356 . S
N982 H994 0.984 . S
N982 H995 0.985 . S
N983 C985 1.356 1_556 S
N983 H988 0.984 . S
N983 H989 0.985 1_545 S
C984 C978 1.379 . S
C984 C981 1.363 . S
C984 N982 1.356 . S
C985 C979 1.363 . S
C985 C980 1.379 . S
C985 N983 1.356 1_554 S
N986 C978 1.356 . S
N986 H992 0.984 . S
N986 H993 0.984 1_554 S
N987 C980 1.356 1_565 S
N987 H990 0.984 . S
N987 H991 0.985 . S
H988 N983 0.984 . S
H989 N983 0.985 1_565 S
H990 N987 0.984 . S
H991 N987 0.985 . S
H992 N986 0.984 . S
H993 N986 0.984 1_556 S
H994 N982 0.984 . S
H995 N982 0.985 . S
C996 C997 1.363 . S
C996 C1002 1.379 . S
C996 N1004 1.356 . S
C997 C996 1.363 . S
C997 C1003 1.363 . S
C998 C999 1.363 . S
C998 C1003 1.379 . S
C998 N1005 1.356 . S
C999 C998 1.363 . S
C999 C1002 1.363 . S
N1000 C1002 1.356 . S
N1000 H1012 0.984 . S
N1000 H1013 0.985 . S
N1001 C1003 1.356 . S
N1001 H1006 0.984 . S
N1001 H1007 0.985 . S
C1002 C996 1.379 . S
C1002 C999 1.363 . S
C1002 N1000 1.356 . S
C1003 C997 1.363 . S
C1003 C998 1.379 . S
C1003 N1001 1.356 . S
N1004 C996 1.356 . S
N1004 H1010 0.984 . S
N1004 H1011 0.984 . S
N1005 C998 1.356 . S
N1005 H1008 0.984 . S
N1005 H1009 0.985 . S
H1006 N1001 0.984 . S
H1007 N1001 0.985 . S
H1008 N1005 0.984 . S
H1009 N1005 0.985 . S
H1010 N1004 0.984 . S
H1011 N1004 0.984 . S
H1012 N1000 0.984 . S
H1013 N1000 0.985 . S
C1014 C1015 1.363 . S
C1014 C1020 1.379 . S
C1014 N1022 1.356 . S
C1015 C1014 1.363 . S
C1015 C1021 1.363 . S
C1016 C1017 1.363 . S
C1016 C1021 1.379 . S
C1016 N1023 1.356 . S
C1017 C1016 1.363 . S
C1017 C1020 1.363 . S
N1018 C1020 1.356 . S
N1018 H1030 0.984 . S
N1018 H1031 0.985 . S
N1019 C1021 1.356 1_556 S
N1019 H1024 0.984 . S
N1019 H1025 0.985 . S
C1020 C1014 1.379 . S
C1020 C1017 1.363 . S
C1020 N1018 1.356 . S
C1021 C1015 1.363 . S
C1021 C1016 1.379 . S
C1021 N1019 1.356 1_554 S
N1022 C1014 1.356 . S
N1022 H1028 0.984 . S
N1022 H1029 0.984 1_554 S
N1023 C1016 1.356 . S
N1023 H1026 0.984 . S
N1023 H1027 0.985 . S
H1024 N1019 0.984 . S
H1025 N1019 0.985 . S
H1026 N1023 0.984 . S
H1027 N1023 0.985 . S
H1028 N1022 0.984 . S
H1029 N1022 0.984 1_556 S
H1030 N1018 0.984 . S
H1031 N1018 0.985 . S
C1032 C1033 1.363 . S
C1032 C1038 1.379 . S
C1032 N1040 1.356 . S
C1033 C1032 1.363 . S
C1033 C1039 1.363 . S
C1034 C1035 1.363 . S
C1034 C1039 1.379 . S
C1034 N1041 1.356 1_556 S
C1035 C1034 1.363 . S
C1035 C1038 1.363 . S
N1036 C1038 1.365 . S
N1036 H1048 0.988 . S
N1036 H1049 0.973 1_556 S
N1037 C1039 1.356 . S
N1037 H1042 0.984 . S
N1037 H1043 0.985 . S
C1038 C1032 1.379 . S
C1038 C1035 1.363 . S
C1038 N1036 1.365 . S
C1039 C1033 1.363 . S
C1039 C1034 1.379 . S
C1039 N1037 1.356 . S
N1040 C1032 1.356 . S
N1040 H1046 1.003 . S
N1040 H1047 0.984 . S
N1041 C1034 1.356 1_554 S
N1041 H1044 0.984 . S
N1041 H1045 0.987 . S
H1042 N1037 0.984 . S
H1043 N1037 0.985 . S
H1044 N1041 0.984 . S
H1045 N1041 0.987 . S
H1046 N1040 1.003 . S
H1047 N1040 0.984 . S
H1048 N1036 0.988 . S
H1049 N1036 0.973 1_554 S
C1050 C1051 1.363 . S
C1050 C1056 1.379 . S
C1050 N1058 1.356 . S
C1051 C1050 1.363 . S
C1051 C1057 1.363 . S
C1052 C1053 1.363 . S
C1052 C1057 1.379 . S
C1052 N1059 1.356 . S
C1053 C1052 1.363 . S
C1053 C1056 1.363 . S
N1054 C1056 1.356 . S
N1054 H1066 0.984 . S
N1054 H1067 0.985 . S
N1055 C1057 1.356 1_565 S
N1055 H1060 0.984 . S
N1055 H1061 0.985 . S
C1056 C1050 1.379 . S
C1056 C1053 1.363 . S
C1056 N1054 1.356 . S
C1057 C1051 1.363 . S
C1057 C1052 1.379 . S
C1057 N1055 1.356 1_545 S
N1058 C1050 1.356 . S
N1058 H1064 0.984 . S
N1058 H1065 0.984 . S
N1059 C1052 1.356 . S
N1059 H1062 0.984 . S
N1059 H1063 0.985 1_545 S
H1060 N1055 0.984 . S
H1061 N1055 0.985 . S
H1062 N1059 0.984 . S
H1063 N1059 0.985 1_565 S
H1064 N1058 0.984 . S
H1065 N1058 0.984 . S
H1066 N1054 0.984 . S
H1067 N1054 0.985 . S
C1068 C1069 1.363 . S
C1068 C1074 1.379 . S
C1068 N1076 1.356 . S
C1069 C1068 1.363 . S
C1069 C1075 1.363 . S
C1070 C1071 1.363 . S
C1070 C1075 1.379 . S
C1070 N1077 1.356 1_556 S
C1071 C1070 1.363 . S
C1071 C1074 1.363 . S
N1072 C1074 1.356 1_554 S
N1072 H1084 0.984 1_554 S
N1072 H1085 0.985 . S
N1073 C1075 1.356 . S
N1073 H1078 0.984 . S
N1073 H1079 0.985 . S
C1074 C1068 1.379 . S
C1074 C1071 1.363 . S
C1074 N1072 1.356 1_556 S
C1075 C1069 1.363 . S
C1075 C1070 1.379 . S
C1075 N1073 1.356 . S
N1076 C1068 1.356 . S
N1076 H1082 0.984 . S
N1076 H1083 0.984 . S
N1077 C1070 1.356 1_554 S
N1077 H1080 0.984 . S
N1077 H1081 0.985 1_554 S
H1078 N1073 0.984 . S
H1079 N1073 0.985 . S
H1080 N1077 0.984 . S
H1081 N1077 0.985 1_556 S
H1082 N1076 0.984 . S
H1083 N1076 0.984 . S
H1084 N1072 0.984 1_556 S
H1085 N1072 0.985 . S
C1086 C1087 1.363 . S
C1086 C1092 1.379 . S
C1086 N1094 1.356 . S
C1087 C1086 1.363 . S
C1087 C1093 1.363 . S
C1088 C1089 1.363 . S
C1088 C1093 1.379 . S
C1088 N1095 1.356 . S
C1089 C1088 1.363 . S
C1089 C1092 1.363 . S
N1090 C1092 1.356 . S
N1090 H1102 0.984 . S
N1090 H1103 0.985 . S
N1091 C1093 1.356 . S
N1091 H1096 0.984 . S
N1091 H1097 0.985 . S
C1092 C1086 1.379 . S
C1092 C1089 1.363 . S
C1092 N1090 1.356 . S
C1093 C1087 1.363 . S
C1093 C1088 1.379 . S
C1093 N1091 1.356 . S
N1094 C1086 1.356 . S
N1094 H1100 0.984 . S
N1094 H1101 0.984 . S
N1095 C1088 1.356 . S
N1095 H1098 0.984 . S
N1095 H1099 0.985 . S
H1096 N1091 0.984 . S
H1097 N1091 0.985 . S
H1098 N1095 0.984 . S
H1099 N1095 0.985 . S
H1100 N1094 0.984 . S
H1101 N1094 0.984 . S
H1102 N1090 0.984 . S
H1103 N1090 0.985 . S
C1104 C1105 1.363 . S
C1104 C1110 1.379 . S
C1104 N1112 1.356 . S
C1105 C1104 1.363 . S
C1105 C1111 1.363 . S
C1106 C1107 1.363 . S
C1106 C1111 1.379 . S
C1106 N1113 1.356 . S
C1107 C1106 1.363 . S
C1107 C1110 1.363 . S
N1108 C1110 1.356 . S
N1108 H1120 0.984 . S
N1108 H1121 0.985 . S
N1109 C1111 1.356 . S
N1109 H1114 0.984 . S
N1109 H1115 1.002 . S
C1110 C1104 1.379 . S
C1110 C1107 1.363 . S
C1110 N1108 1.356 . S
C1111 C1105 1.363 . S
C1111 C1106 1.379 . S
C1111 N1109 1.356 . S
N1112 C1104 1.356 . S
N1112 H1118 0.984 . S
N1112 H1119 0.984 . S
N1113 C1106 1.356 . S
N1113 H1116 0.984 . S
N1113 H1117 0.985 1_655 S
H1114 N1109 0.984 . S
H1115 N1109 1.002 . S
H1116 N1113 0.984 . S
H1117 N1113 0.985 1_455 S
H1118 N1112 0.984 . S
H1119 N1112 0.984 . S
H1120 N1108 0.984 . S
H1121 N1108 0.985 . S
C1122 C1123 1.363 . S
C1122 C1128 1.379 . S
C1122 N1130 1.356 . S
C1123 C1122 1.363 . S
C1123 C1129 1.363 . S
C1124 C1125 1.363 . S
C1124 C1129 1.379 . S
C1124 N1131 1.356 1_565 S
C1125 C1124 1.363 . S
C1125 C1128 1.363 . S
N1126 C1128 1.356 . S
N1126 H1138 0.984 . S
N1126 H1139 0.985 . S
N1127 C1129 1.364 1_554 S
N1127 H1132 0.991 . S
N1127 H1133 0.970 1_565 S
C1128 C1122 1.379 . S
C1128 C1125 1.363 . S
C1128 N1126 1.356 . S
C1129 C1123 1.363 . S
C1129 C1124 1.379 . S
C1129 N1127 1.364 1_556 S
N1130 C1122 1.356 . S
N1130 H1136 0.984 . S
N1130 H1137 0.984 1_556 S
N1131 C1124 1.356 1_545 S
N1131 H1134 0.984 . S
N1131 H1135 0.985 . S
H1132 N1127 0.991 . S
H1133 N1127 0.970 1_545 S
H1134 N1131 0.984 . S
H1135 N1131 0.985 . S
H1136 N1130 0.984 . S
H1137 N1130 0.984 1_554 S
H1138 N1126 0.984 . S
H1139 N1126 0.985 . S
C1140 C1141 1.363 . S
C1140 C1146 1.379 . S
C1140 N1148 1.356 . S
C1141 C1140 1.363 . S
C1141 C1147 1.363 . S
C1142 C1143 1.363 . S
C1142 C1147 1.379 . S
C1142 N1149 1.356 . S
C1143 C1142 1.363 . S
C1143 C1146 1.363 . S
N1144 C1146 1.356 . S
N1144 H1156 0.984 . S
N1144 H1157 0.985 . S
N1145 C1147 1.356 . S
N1145 H1150 0.984 . S
N1145 H1151 0.985 . S
C1146 C1140 1.379 . S
C1146 C1143 1.363 . S
C1146 N1144 1.356 . S
C1147 C1141 1.363 . S
C1147 C1142 1.379 . S
C1147 N1145 1.356 . S
N1148 C1140 1.356 . S
N1148 H1154 0.984 . S
N1148 H1155 0.984 . S
N1149 C1142 1.356 . S
N1149 H1152 0.984 . S
N1149 H1153 0.985 . S
H1150 N1145 0.984 . S
H1151 N1145 0.985 . S
H1152 N1149 0.984 . S
H1153 N1149 0.985 . S
H1154 N1148 0.984 . S
H1155 N1148 0.984 . S
H1156 N1144 0.984 . S
H1157 N1144 0.985 . S
C1158 C1159 1.363 . S
C1158 C1164 1.379 . S
C1158 N1166 1.356 1_556 S
C1159 C1158 1.363 . S
C1159 C1165 1.363 . S
C1160 C1161 1.363 . S
C1160 C1165 1.379 . S
C1160 N1167 1.356 . S
C1161 C1160 1.363 . S
C1161 C1164 1.363 . S
N1162 C1164 1.356 . S
N1162 H1174 0.984 . S
N1162 H1175 0.985 . S
N1163 C1165 1.356 . S
N1163 H1168 0.984 1_556 S
N1163 H1169 0.985 . S
C1164 C1158 1.379 . S
C1164 C1161 1.363 . S
C1164 N1162 1.356 . S
C1165 C1159 1.363 . S
C1165 C1160 1.379 . S
C1165 N1163 1.356 . S
N1166 C1158 1.356 1_554 S
N1166 H1172 0.984 . S
N1166 H1173 0.984 . S
N1167 C1160 1.356 . S
N1167 H1170 0.984 . S
N1167 H1171 0.985 . S
H1168 N1163 0.984 1_554 S
H1169 N1163 0.985 . S
H1170 N1167 0.984 . S
H1171 N1167 0.985 . S
H1172 N1166 0.984 . S
H1173 N1166 0.984 . S
H1174 N1162 0.984 . S
H1175 N1162 0.985 . S
C1176 C1177 1.363 . S
C1176 C1182 1.379 . S
C1176 N1184 1.356 . S
C1177 C1176 1.363 . S
C1177 C1183 1.363 . S
C1178 C1179 1.363 . S
C1178 C1183 1.379 . S
C1178 N1185 1.356 . S
C1179 C1178 1.363 . S
C1179 C1182 1.363 . S
N1180 C1182 1.356 1_556 S
N1180 H1192 0.984 . S
N1180 H1193 0.985 . S
N1181 C1183 1.356 . S
N1181 H1186 0.984 . S
N1181 H1187 0.985 . S
C1182 C1176 1.379 . S
C1182 C1179 1.363 . S
C1182 N1180 1.356 1_554 S
C1183 C1177 1.363 . S
C1183 C1178 1.379 . S
C1183 N1181 1.356 . S
N1184 C1176 1.356 . S
N1184 H1190 0.984 1_655 S
N1184 H1191 0.984 . S
N1185 C1178 1.356 . S
N1185 H1188 0.984 1_554 S
N1185 H1189 0.985 . S
H1186 N1181 0.984 . S
H1187 N1181 0.985 . S
H1188 N1185 0.984 1_556 S
H1189 N1185 0.985 . S
H1190 N1184 0.984 1_455 S
H1191 N1184 0.984 . S
H1192 N1180 0.984 . S
H1193 N1180 0.985 . S
C1194 C1195 1.363 . S
C1194 C1200 1.379 . S
C1194 N1202 1.356 . S
C1195 C1194 1.363 . S
C1195 C1201 1.363 . S
C1196 C1197 1.363 . S
C1196 C1201 1.379 . S
C1196 N1203 1.356 . S
C1197 C1196 1.363 . S
C1197 C1200 1.363 . S
N1198 C1200 1.356 . S
N1198 H1210 0.984 . S
N1198 H1211 0.985 . S
N1199 C1201 1.356 1_545 S
N1199 H1204 0.988 . S
N1199 H1205 0.985 . S
C1200 C1194 1.379 . S
C1200 C1197 1.363 . S
C1200 N1198 1.356 . S
C1201 C1195 1.363 . S
C1201 C1196 1.379 . S
C1201 N1199 1.356 1_565 S
N1202 C1194 1.356 . S
N1202 H1208 0.984 . S
N1202 H1209 0.984 . S
N1203 C1196 1.356 . S
N1203 H1206 0.984 . S
N1203 H1207 0.985 1_565 S
H1204 N1199 0.988 . S
H1205 N1199 0.985 . S
H1206 N1203 0.984 . S
H1207 N1203 0.985 1_545 S
H1208 N1202 0.984 . S
H1209 N1202 0.984 . S
H1210 N1198 0.984 . S
H1211 N1198 0.985 . S
C1212 C1213 1.363 . S
C1212 C1218 1.379 . S
C1212 N1220 1.363 . S
C1213 C1212 1.363 . S
C1213 C1219 1.363 . S
C1214 C1215 1.363 . S
C1214 C1219 1.379 . S
C1214 N1221 1.356 . S
C1215 C1214 1.363 . S
C1215 C1218 1.363 . S
N1216 C1218 1.356 . S
N1216 H1228 0.984 . S
N1216 H1229 0.985 . S
N1217 C1219 1.356 1_556 S
N1217 H1222 0.984 . S
N1217 H1223 0.986 . S
C1218 C1212 1.379 . S
C1218 C1215 1.363 . S
C1218 N1216 1.356 . S
C1219 C1213 1.363 . S
C1219 C1214 1.379 . S
C1219 N1217 1.356 1_554 S
N1220 C1212 1.363 . S
N1220 H1226 0.987 . S
N1220 H1227 0.976 1_554 S
N1221 C1214 1.356 . S
N1221 H1224 0.984 . S
N1221 H1225 0.985 . S
H1222 N1217 0.984 . S
H1223 N1217 0.986 . S
H1224 N1221 0.984 . S
H1225 N1221 0.985 . S
H1226 N1220 0.987 . S
H1227 N1220 0.976 1_556 S
H1228 N1216 0.984 . S
H1229 N1216 0.985 . S
C1230 C1231 1.363 . S
C1230 C1236 1.379 . S
C1230 N1238 1.356 . S
C1231 C1230 1.363 . S
C1231 C1237 1.363 . S
C1232 C1233 1.363 . S
C1232 C1237 1.379 . S
C1232 N1239 1.356 . S
C1233 C1232 1.363 . S
C1233 C1236 1.363 . S
N1234 C1236 1.356 . S
N1234 H1246 0.984 . S
N1234 H1247 0.985 . S
N1235 C1237 1.356 . S
N1235 H1240 0.984 . S
N1235 H1241 0.985 . S
C1236 C1230 1.379 . S
C1236 C1233 1.363 . S
C1236 N1234 1.356 . S
C1237 C1231 1.363 . S
C1237 C1232 1.379 . S
C1237 N1235 1.356 . S
N1238 C1230 1.356 . S
N1238 H1244 0.984 . S
N1238 H1245 0.984 . S
N1239 C1232 1.356 . S
N1239 H1242 0.984 . S
N1239 H1243 0.985 . S
H1240 N1235 0.984 . S
H1241 N1235 0.985 . S
H1242 N1239 0.984 . S
H1243 N1239 0.985 . S
H1244 N1238 0.984 . S
H1245 N1238 0.984 . S
H1246 N1234 0.984 . S
H1247 N1234 0.985 . S
C529 C21 1.519 . S
C531 C516 1.519 . S
C547 C54 1.519 . S
C549 C417 1.519 . S
C565 C450 1.519 . S
C567 C87 1.519 . S
C583 C120 1.519 . S
C585 C483 1.519 . S
C601 C318 1.519 . S
C603 C153 1.519 . S
C619 C351 1.519 . S
C621 C186 1.519 . S
C637 C384 1.519 . S
C639 C219 1.519 . S
C655 C285 1.519 . S
C657 C252 1.519 . S
C673 C7 1.452 . S
C675 C238 1.452 . S
C691 C40 1.452 . S
C693 C139 1.452 . S
C709 C73 1.452 . S
C711 C172 1.452 . S
C727 C106 1.452 . S
C729 C205 1.452 . S
C745 C502 1.452 . S
C747 C271 1.452 . S
C763 C403 1.452 . S
C765 C304 1.452 . S
C781 C436 1.452 . S
C783 C337 1.452 . S
C799 C370 1.452 . S
C801 C469 1.452 . S
C817 C18 1.244 . S
C819 C150 1.244 . S
C835 C183 1.244 . S
C837 C51 1.244 . S
C853 C216 1.244 . S
C855 C84 1.244 . S
C871 C117 1.244 . S
C873 C249 1.244 . S
C889 C414 1.244 . S
C891 C282 1.244 . S
C907 C315 1.244 . S
C909 C447 1.244 . S
C925 C348 1.244 . S
C927 C480 1.244 . S
C943 C513 1.244 . S
C945 C381 1.244 . S
C961 N2 1.405 . S
C963 N13 1.406 . S
C979 N46 1.406 1_554 S
C981 N35 1.405 . S
C997 N68 1.405 . S
C999 N79 1.406 . S
C1015 N112 1.406 1_554 S
C1017 N101 1.405 . S
C1033 N134 1.405 . S
C1035 N145 1.406 1_556 S
C1051 N167 1.405 . S
C1053 N178 1.406 . S
C1069 N200 1.405 . S
C1071 N211 1.406 1_556 S
C1087 N233 1.405 . S
C1089 N244 1.406 . S
C1105 N277 1.406 . S
C1107 N266 1.405 . S
C1123 N310 1.406 1_556 S
C1125 N299 1.405 . S
C1141 N343 1.406 . S
C1143 N332 1.405 . S
C1159 N376 1.406 1_556 S
C1161 N365 1.405 . S
C1177 N398 1.405 . S
C1179 N409 1.406 1_554 S
C1195 N431 1.405 . S
C1197 N442 1.406 . S
C1213 N475 1.406 1_554 S
C1215 N464 1.405 . S
C1231 N508 1.406 . S
C1233 N497 1.405 . S
