# Generated by pormake.
# Topology zfe, (5)-cn, num edge types: 1
# Building blocks:
#     Node 0, Type 0, BuildingBlock: BEQFEK_clean_sbu_0, # of connection points: 5
#     Node 1, Type 0, BuildingBlock: BEQFEK_clean_sbu_0, # of connection points: 5
#     Node 2, Type 0, BuildingBlock: BEQFEK_clean_sbu_0, # of connection points: 5
#     Node 3, Type 0, BuildingBlock: BEQFEK_clean_sbu_0, # of connection points: 5
#     Node 4, Type 0, BuildingBlock: BEQFEK_clean_sbu_0, # of connection points: 5
#     Node 5, Type 0, BuildingBlock: BEQFEK_clean_sbu_0, # of connection points: 5
#     Node 6, Type 0, BuildingBlock: BEQFEK_clean_sbu_0, # of connection points: 5
#     Node 7, Type 0, BuildingBlock: BEQFEK_clean_sbu_0, # of connection points: 5
#     Node 8, Type 0, BuildingBlock: BEQFEK_clean_sbu_0, # of connection points: 5
#     Node 9, Type 0, BuildingBlock: BEQFEK_clean_sbu_0, # of connection points: 5
#     Node 10, Type 0, BuildingBlock: BEQFEK_clean_sbu_0, # of connection points: 5
#     Node 11, Type 0, BuildingBlock: BEQFEK_clean_sbu_0, # of connection points: 5
#     Node 12, Type 0, BuildingBlock: BEQFEK_clean_sbu_0, # of connection points: 5
#     Node 13, Type 0, BuildingBlock: BEQFEK_clean_sbu_0, # of connection points: 5
#     Node 14, Type 0, BuildingBlock: BEQFEK_clean_sbu_0, # of connection points: 5
#     Node 15, Type 0, BuildingBlock: BEQFEK_clean_sbu_0, # of connection points: 5
#     Edge 16, Type (0, 0), BuildingBlock: TEMPAE_clean_linker_10, # of connection points: 2
#     Edge 17, Type (0, 0), BuildingBlock: TEMPAE_clean_linker_10, # of connection points: 2
#     Edge 18, Type (0, 0), BuildingBlock: TEMPAE_clean_linker_10, # of connection points: 2
#     Edge 19, Type (0, 0), BuildingBlock: TEMPAE_clean_linker_10, # of connection points: 2
#     Edge 20, Type (0, 0), BuildingBlock: TEMPAE_clean_linker_10, # of connection points: 2
#     Edge 21, Type (0, 0), BuildingBlock: TEMPAE_clean_linker_10, # of connection points: 2
#     Edge 22, Type (0, 0), BuildingBlock: TEMPAE_clean_linker_10, # of connection points: 2
#     Edge 23, Type (0, 0), BuildingBlock: TEMPAE_clean_linker_10, # of connection points: 2
#     Edge 24, Type (0, 0), BuildingBlock: TEMPAE_clean_linker_10, # of connection points: 2
#     Edge 25, Type (0, 0), BuildingBlock: TEMPAE_clean_linker_10, # of connection points: 2
#     Edge 26, Type (0, 0), BuildingBlock: TEMPAE_clean_linker_10, # of connection points: 2
#     Edge 27, Type (0, 0), BuildingBlock: TEMPAE_clean_linker_10, # of connection points: 2
#     Edge 28, Type (0, 0), BuildingBlock: TEMPAE_clean_linker_10, # of connection points: 2
#     Edge 29, Type (0, 0), BuildingBlock: TEMPAE_clean_linker_10, # of connection points: 2
#     Edge 30, Type (0, 0), BuildingBlock: TEMPAE_clean_linker_10, # of connection points: 2
#     Edge 31, Type (0, 0), BuildingBlock: TEMPAE_clean_linker_10, # of connection points: 2
#     Edge 32, Type (0, 0), BuildingBlock: TEMPAE_clean_linker_10, # of connection points: 2
#     Edge 33, Type (0, 0), BuildingBlock: TEMPAE_clean_linker_10, # of connection points: 2
#     Edge 34, Type (0, 0), BuildingBlock: TEMPAE_clean_linker_10, # of connection points: 2
#     Edge 35, Type (0, 0), BuildingBlock: TEMPAE_clean_linker_10, # of connection points: 2
#     Edge 36, Type (0, 0), BuildingBlock: TEMPAE_clean_linker_10, # of connection points: 2
#     Edge 37, Type (0, 0), BuildingBlock: TEMPAE_clean_linker_10, # of connection points: 2
#     Edge 38, Type (0, 0), BuildingBlock: TEMPAE_clean_linker_10, # of connection points: 2
#     Edge 39, Type (0, 0), BuildingBlock: TEMPAE_clean_linker_10, # of connection points: 2
#     Edge 40, Type (0, 0), BuildingBlock: TEMPAE_clean_linker_10, # of connection points: 2
#     Edge 41, Type (0, 0), BuildingBlock: TEMPAE_clean_linker_10, # of connection points: 2
#     Edge 42, Type (0, 0), BuildingBlock: TEMPAE_clean_linker_10, # of connection points: 2
#     Edge 43, Type (0, 0), BuildingBlock: TEMPAE_clean_linker_10, # of connection points: 2
#     Edge 44, Type (0, 0), BuildingBlock: TEMPAE_clean_linker_10, # of connection points: 2
#     Edge 45, Type (0, 0), BuildingBlock: TEMPAE_clean_linker_10, # of connection points: 2
#     Edge 46, Type (0, 0), BuildingBlock: TEMPAE_clean_linker_10, # of connection points: 2
#     Edge 47, Type (0, 0), BuildingBlock: TEMPAE_clean_linker_10, # of connection points: 2
#     Edge 48, Type (0, 0), BuildingBlock: TEMPAE_clean_linker_10, # of connection points: 2
#     Edge 49, Type (0, 0), BuildingBlock: TEMPAE_clean_linker_10, # of connection points: 2
#     Edge 50, Type (0, 0), BuildingBlock: TEMPAE_clean_linker_10, # of connection points: 2
#     Edge 51, Type (0, 0), BuildingBlock: TEMPAE_clean_linker_10, # of connection points: 2
#     Edge 52, Type (0, 0), BuildingBlock: TEMPAE_clean_linker_10, # of connection points: 2
#     Edge 53, Type (0, 0), BuildingBlock: TEMPAE_clean_linker_10, # of connection points: 2
#     Edge 54, Type (0, 0), BuildingBlock: TEMPAE_clean_linker_10, # of connection points: 2
#     Edge 55, Type (0, 0), BuildingBlock: TEMPAE_clean_linker_10, # of connection points: 2
# Relax obj value: 0.096
# Max RMSD: 0.100
# Mean RMSD: 0.100
data_MOF--net-zfe--node1-BEQFEK_clean_sbu_0--edge1-TEMPAE_clean_linker_10
_symmetry_space_group_name_H-M    P1
_symmetry_Int_Tables_number       1
_symmetry_cell_setting            triclinic
loop_
_symmetry_equiv_pos_as_xyz
'x, y, z'
_cell_length_a     56.390854
_cell_length_b     56.374458
_cell_length_c     31.195983
_cell_angle_alpha  89.997278
_cell_angle_beta   90.004273
_cell_angle_gamma 90.058247
loop_
_atom_site_label
_atom_site_type_symbol
_atom_site_fract_x
_atom_site_fract_y
_atom_site_fract_z
_atom_type_partial_charge
Co0 Co 0.00616 0.18319 0.05611 0.0
Co1 Co 0.04377 0.2239 0.05138 0.0
C2 C 0.01296 0.22057 0.12628 0.0
O3 O 0.00303 0.20252 0.10931 0.0
O4 O 0.02978 0.23148 0.10744 0.0
C5 C 0.96928 0.15236 0.08559 0.0
O6 O 0.97876 0.15671 0.12326 0.0
C7 C 0.07213 0.26828 0.04764 0.0
C8 C 0.09481 0.26006 0.99172 0.0
C9 C 0.08986 0.2775 0.0216 0.0
N10 N 0.06677 0.24641 0.03338 0.0
N11 N 0.08049 0.2416 0.00017 0.0
C12 C 0.0596 0.28033 0.08382 0.0
H13 H 0.04045 0.27585 0.08303 0.0
H14 H 0.06188 0.29987 0.08217 0.0
H15 H 0.06696 0.2738 0.11462 0.0
C16 C 0.99756 0.20051 0.96794 0.0
N17 N 0.0073 0.20258 0.00709 0.0
N18 N 0.02017 0.22191 0.00856 0.0
C19 C 0.01749 0.234 0.97175 0.0
C20 C 0.00357 0.22056 0.94373 0.0
C21 C 0.98591 0.17809 0.95298 0.0
H22 H 0.99134 0.16295 0.97343 0.0
H23 H 0.96637 0.18004 0.95521 0.0
H24 H 0.99081 0.17406 0.91933 0.0
O25 O 0.03507 0.16424 0.05946 0.0
O26 O 0.06163 0.19325 0.05525 0.0
H27 H 0.04468 0.25826 0.95187 0.0
H28 H 0.01486 0.26883 0.94341 0.0
C29 C 0.02655 0.25876 0.9655 0.0
H30 H 0.02738 0.26811 0.99676 0.0
H31 H 0.07983 0.22576 0.98292 0.0
O32 O 0.97833 0.16181 0.05241 0.0
C33 C 0.05649 0.17128 0.05837 0.0
Co34 Co 0.80305 0.00035 0.04679 0.0
Co35 Co 0.77106 0.04581 0.04601 0.0
C36 C 0.76747 0.01077 0.11694 0.0
O37 O 0.78353 0.9983 0.09924 0.0
O38 O 0.76026 0.03 0.09985 0.0
C39 C 0.83072 0.9621 0.07422 0.0
O40 O 0.82843 0.97358 0.11063 0.0
C41 C 0.73075 0.08014 0.04183 0.0
C42 C 0.7481 0.10892 0.00527 0.0
C43 C 0.72678 0.10243 0.02394 0.0
N44 N 0.75329 0.07377 0.03337 0.0
N45 N 0.7635 0.09113 0.01169 0.0
C46 C 0.71385 0.06551 0.06771 0.0
H47 H 0.72354 0.05367 0.08986 0.0
H48 H 0.70313 0.05431 0.04576 0.0
H49 H 0.70172 0.07701 0.08645 0.0
C50 C 0.78378 0.99592 0.95931 0.0
N51 N 0.78414 0.00624 0.9982 0.0
N52 N 0.77015 0.0249 0.99801 0.0
C53 C 0.76017 0.02685 0.95889 0.0
C54 C 0.76857 0.00868 0.93298 0.0
C55 C 0.80014 0.97624 0.94655 0.0
H56 H 0.81845 0.98054 0.95703 0.0
H57 H 0.79468 0.95973 0.96322 0.0
H58 H 0.80007 0.97314 0.91145 0.0
O59 O 0.82694 0.02563 0.05345 0.0
O60 O 0.80405 0.05754 0.05451 0.0
H61 H 0.75378 0.06294 0.94149 0.0
H62 H 0.7344 0.04194 0.91538 0.0
C63 C 0.7436 0.04627 0.94584 0.0
H64 H 0.73017 0.04907 0.97125 0.0
H65 H 0.78102 0.09075 0.00099 0.0
O66 O 0.82062 0.97025 0.04093 0.0
C67 C 0.82447 0.04799 0.05643 0.0
Co68 Co 0.99793 0.8125 0.05312 0.0
Co69 Co 0.95711 0.77496 0.04568 0.0
C70 C 0.98878 0.77467 0.1207 0.0
O71 O -0.00029 0.79249 0.10513 0.0
O72 O 0.97143 0.76518 0.10093 0.0
C73 C 0.04733 0.82593 0.05089 0.0
O74 O 0.05131 0.80314 0.04589 0.0
C75 C 0.92706 0.73178 0.04059 0.0
C76 C 0.9005 0.74368 0.9931 0.0
C77 C 0.90712 0.72449 0.018 0.0
N78 N 0.93207 0.75423 0.02909 0.0
N79 N 0.916 0.76125 0.00103 0.0
C80 C 0.94188 0.71741 0.07068 0.0
H81 H 0.96086 0.72221 0.06697 0.0
H82 H 0.93946 0.69814 0.06488 0.0
H83 H 0.93653 0.7215 0.1041 0.0
C84 C 0.00711 0.79546 0.96454 0.0
N85 N 0.9962 0.79379 0.00285 0.0
N86 N 0.98018 0.7768 0.00109 0.0
C87 C 0.98118 0.76642 0.96218 0.0
C88 C 0.99807 0.77805 0.93767 0.0
C89 C 0.02448 0.81452 0.95291 0.0
H90 H 0.02001 0.83124 0.96977 0.0
H91 H 0.04249 0.80888 0.96283 0.0
H92 H 0.02498 0.81774 0.91788 0.0
O93 O 0.96989 0.83309 0.05643 0.0
O94 O 0.94126 0.80622 0.05286 0.0
H95 H 0.94748 0.75605 0.93722 0.0
H96 H 0.97161 0.73806 0.91871 0.0
C97 C 0.96442 0.74764 0.94687 0.0
H98 H 0.96099 0.7347 0.97285 0.0
H99 H 0.91579 0.77803 0.98689 0.0
O100 O 0.02616 0.83344 0.05377 0.0
C101 C 0.94799 0.8277 0.0562 0.0
Co102 Co 0.19616 0.9955 0.05008 0.0
Co103 Co 0.23297 0.95403 0.05052 0.0
C104 C 0.22977 0.98549 0.12504 0.0
O105 O 0.21277 0.99617 0.10631 0.0
O106 O 0.24071 0.9685 0.1068 0.0
C107 C 0.18006 0.04275 0.0689 0.0
O108 O 0.19679 0.04226 0.09817 0.0
C109 C 0.27548 0.92308 0.05029 0.0
C110 C 0.26414 0.89634 0.0026 0.0
C111 C 0.28289 0.90286 0.0287 0.0
N112 N 0.2534 0.92833 0.03708 0.0
N113 N 0.2467 0.91215 0.00891 0.0
C114 C 0.28952 0.93806 0.08066 0.0
H115 H 0.28463 0.957 0.07678 0.0
H116 H 0.30884 0.93578 0.0753 0.0
H117 H 0.28525 0.93269 0.114 0.0
C118 C 0.21811 0.00436 0.96609 0.0
N119 N 0.21774 0.99334 0.00434 0.0
N120 N 0.23395 0.97661 0.00498 0.0
C121 C 0.2457 0.97693 0.96732 0.0
C122 C 0.23587 0.99429 0.94115 0.0
C123 C 0.19938 0.02149 0.95193 0.0
H124 H 0.18175 0.0153 0.96311 0.0
H125 H 0.20287 0.03902 0.96685 0.0
H126 H 0.19892 0.02356 0.91661 0.0
O127 O 0.17446 0.96812 0.04809 0.0
O128 O 0.20092 0.93914 0.05405 0.0
H129 H 0.25787 0.94308 0.94582 0.0
H130 H 0.27606 0.96758 0.92874 0.0
C131 C 0.26541 0.96039 0.95571 0.0
H132 H 0.27714 0.95761 0.98375 0.0
H133 H 0.2303 0.91218 0.9934 0.0
O134 O 0.17698 0.02483 0.04478 0.0
C135 C 0.17953 0.94621 0.05148 0.0
Co136 Co 0.00293 0.80767 0.50364 0.0
Co137 Co 0.04734 0.77401 0.50649 0.0
C138 C 0.0142 0.77249 0.43292 0.0
O139 O 0.00183 0.78882 0.4501 0.0
O140 O 0.03267 0.76439 0.45132 0.0
C141 C 0.96258 0.83343 0.47525 0.0
O142 O 0.97206 0.82919 0.43757 0.0
C143 C 0.08002 0.73252 0.5125 0.0
C144 C 0.10923 0.74901 0.54924 0.0
C145 C 0.10202 0.72782 0.53095 0.0
N146 N 0.0745 0.75536 0.52028 0.0
N147 N 0.09211 0.76505 0.54209 0.0
C148 C 0.06487 0.71598 0.48682 0.0
H149 H 0.05324 0.72597 0.46472 0.0
H150 H 0.05344 0.70561 0.50891 0.0
H151 H 0.076 0.70349 0.46813 0.0
C152 C 0.99635 0.78766 0.59006 0.0
N153 N 0.00716 0.78777 0.5516 0.0
N154 N 0.02529 0.77311 0.55246 0.0
C155 C 0.02639 0.76296 0.59149 0.0
C156 C 0.00827 0.77198 0.61672 0.0
C157 C 0.97738 0.8049 0.60247 0.0
H158 H 0.98325 0.82318 0.59454 0.0
H159 H 0.96118 0.80117 0.58342 0.0
H160 H 0.97302 0.80388 0.63709 0.0
O161 O 0.02913 0.83096 0.50051 0.0
O162 O 0.06 0.80665 0.5006 0.0
H163 H 0.06227 0.75632 0.60994 0.0
H164 H 0.04084 0.73765 0.63655 0.0
C165 C 0.04549 0.74633 0.60574 0.0
H166 H 0.04822 0.73247 0.58106 0.0
H167 H 0.09235 0.78266 0.55237 0.0
O168 O 0.97283 0.82563 0.50869 0.0
C169 C 0.05142 0.82751 0.49918 0.0
Co170 Co 0.19144 0.00525 0.50932 0.0
Co171 Co 0.22301 0.05099 0.51071 0.0
C172 C 0.22586 0.01675 0.43813 0.0
O173 O 0.21017 0.00382 0.45596 0.0
O174 O 0.23309 0.03586 0.45574 0.0
C175 C 0.16259 0.96764 0.48213 0.0
O176 O 0.1645 0.97939 0.44591 0.0
C177 C 0.26481 0.08261 0.51455 0.0
C178 C 0.24975 0.11321 0.54948 0.0
C179 C 0.27054 0.10463 0.53168 0.0
N180 N 0.24173 0.07837 0.52231 0.0
N181 N 0.23282 0.09684 0.5428 0.0
C182 C 0.28118 0.06508 0.49414 0.0
H183 H 0.27473 0.04674 0.49989 0.0
H184 H 0.29947 0.0671 0.50677 0.0
H185 H 0.28149 0.0682 0.45902 0.0
C186 C 0.21261 0.99927 0.59504 0.0
N187 N 0.2112 0.01049 0.55709 0.0
N188 N 0.22477 0.02949 0.55789 0.0
C189 C 0.23539 0.03087 0.59659 0.0
C190 C 0.22796 0.0118 0.62144 0.0
C191 C 0.19844 0.9777 0.60634 0.0
H192 H 0.20071 0.96408 0.58101 0.0
H193 H 0.20394 0.97016 0.63765 0.0
H194 H 0.17936 0.98246 0.60758 0.0
O195 O 0.16764 0.03069 0.50496 0.0
O196 O 0.19003 0.063 0.50454 0.0
H197 H 0.25672 0.04917 0.6443 0.0
H198 H 0.26501 0.05421 0.58919 0.0
C199 C 0.24985 0.0516 0.61131 0.0
H200 H 0.23873 0.06779 0.61066 0.0
H201 H 0.21524 0.09803 0.55303 0.0
O202 O 0.17343 0.97531 0.51505 0.0
C203 C 0.16973 0.05312 0.50307 0.0
Co204 Co 0.98588 0.18493 0.50957 0.0
Co205 Co 0.94855 0.22581 0.51153 0.0
C206 C 0.97997 0.22205 0.43818 0.0
O207 O 0.98912 0.20376 0.45567 0.0
O208 O 0.96347 0.23361 0.4565 0.0
C209 C 0.02243 0.15404 0.48054 0.0
O210 O 0.01215 0.1576 0.44329 0.0
C211 C 0.92073 0.2704 0.51504 0.0
C212 C 0.89565 0.26116 0.56697 0.0
C213 C 0.90208 0.27925 0.53932 0.0
N214 N 0.92513 0.24811 0.52813 0.0
N215 N 0.91001 0.2427 0.55897 0.0
C216 C 0.93509 0.28319 0.48202 0.0
H217 H 0.95392 0.27759 0.484 0.0
H218 H 0.93385 0.3027 0.4863 0.0
H219 H 0.92837 0.27848 0.44969 0.0
C220 C 0.99342 0.20228 0.5975 0.0
N221 N 0.98442 0.20461 0.55787 0.0
N222 N 0.97132 0.22376 0.55609 0.0
C223 C 0.97312 0.2355 0.5935 0.0
C224 C 0.98671 0.22199 0.6219 0.0
C225 C 0.00471 0.17973 0.61268 0.0
H226 H -0.00055 0.16471 0.59177 0.0
H227 H 0.02428 0.18158 0.61132 0.0
H228 H -0.00068 0.17555 0.64604 0.0
O229 O 0.95707 0.16583 0.50771 0.0
O230 O 0.93075 0.19516 0.50563 0.0
H231 H 0.94475 0.2585 0.61239 0.0
H232 H 0.974 0.26984 0.62403 0.0
C233 C 0.9632 0.25984 0.60039 0.0
H234 H 0.96294 0.26974 0.56967 0.0
H235 H 0.90973 0.22645 0.57497 0.0
O236 O 0.0139 0.16392 0.51374 0.0
C237 C 0.93578 0.17311 0.50549 0.0
Co238 Co 0.80468 0.99308 0.49645 0.0
Co239 Co 0.76911 0.95085 0.50433 0.0
C240 C 0.76773 0.98217 0.42849 0.0
O241 O 0.78494 0.99383 0.44439 0.0
O242 O 0.75882 0.96452 0.44831 0.0
C243 C 0.81476 0.04287 0.49583 0.0
O244 O 0.79168 0.04526 0.49954 0.0
C245 C 0.72617 0.92091 0.51175 0.0
C246 C 0.73937 0.89298 0.5554 0.0
C247 C 0.7194 0.90051 0.53351 0.0
N248 N 0.74907 0.92529 0.52084 0.0
N249 N 0.75687 0.90841 0.5466 0.0
C250 C 0.71092 0.93689 0.48524 0.0
H251 H 0.71681 0.95557 0.48891 0.0
H252 H 0.69199 0.93522 0.49454 0.0
H253 H 0.71279 0.93191 0.45099 0.0
C254 C 0.78733 0.00224 0.58468 0.0
N255 N 0.78604 0.99095 0.54668 0.0
N256 N 0.76998 0.97404 0.54906 0.0
C257 C 0.75995 0.97461 0.58834 0.0
C258 C 0.77072 0.99236 0.61224 0.0
C259 C 0.80534 0.02089 0.59531 0.0
H260 H 0.82242 0.01684 0.57932 0.0
H261 H 0.7989 0.03827 0.58351 0.0
H262 H 0.80818 0.02253 0.63033 0.0
O263 O 0.82655 0.96599 0.49366 0.0
O264 O 0.80109 0.93611 0.49783 0.0
H265 H 0.75198 0.93979 0.61103 0.0
H266 H 0.73401 0.96257 0.63474 0.0
C267 C 0.74257 0.95667 0.6046 0.0
H268 H 0.72869 0.95349 0.58014 0.0
H269 H 0.7741 0.90766 0.55875 0.0
O270 O 0.82389 0.02229 0.49506 0.0
C271 C 0.82224 0.94385 0.49439 0.0
Co272 Co 0.50227 0.68852 0.55713 0.0
Co273 Co 0.54312 0.72635 0.55251 0.0
C274 C 0.51092 0.72529 0.62692 0.0
O275 O 0.50013 0.70773 0.61008 0.0
O276 O 0.52841 0.73513 0.60812 0.0
C277 C 0.45291 0.6749 0.5494 0.0
O278 O 0.44902 0.6974 0.54105 0.0
C279 C 0.57552 0.7686 0.54788 0.0
C280 C 0.60178 0.75428 0.50207 0.0
C281 C 0.59641 0.77416 0.52619 0.0
N282 N 0.56888 0.74651 0.53647 0.0
N283 N 0.58474 0.73815 0.50921 0.0
C284 C 0.56288 0.78332 0.58056 0.0
H285 H 0.55308 0.77192 0.60333 0.0
H286 H 0.54993 0.79497 0.56402 0.0
H287 H 0.57558 0.7946 0.59858 0.0
C288 C 0.4943 0.70672 0.4687 0.0
N289 N 0.50446 0.70806 0.50777 0.0
N290 N 0.52042 0.72515 0.50749 0.0
C291 C 0.52022 0.73575 0.4688 0.0
C292 C 0.50387 0.72433 0.44292 0.0
C293 C 0.47901 0.68656 0.454 0.0
H294 H 0.48226 0.67056 0.47379 0.0
H295 H 0.46011 0.69174 0.45689 0.0
H296 H 0.48248 0.68229 0.41984 0.0
O297 O 0.5302 0.66767 0.56025 0.0
O298 O 0.55857 0.69486 0.5578 0.0
H299 H 0.55379 0.74792 0.44584 0.0
H300 H 0.529 0.76525 0.42776 0.0
C301 C 0.53644 0.75543 0.45552 0.0
H302 H 0.53916 0.7679 0.48255 0.0
H303 H 0.58391 0.72128 0.49548 0.0
O304 O 0.47392 0.66774 0.55622 0.0
C305 C 0.55204 0.67329 0.5601 0.0
Co306 Co 0.30572 0.50379 0.54638 0.0
Co307 Co 0.26859 0.54501 0.5459 0.0
C308 C 0.27156 0.51368 0.62064 0.0
O309 O 0.28872 0.50305 0.60227 0.0
O310 O 0.2607 0.53068 0.6022 0.0
C311 C 0.32249 0.45692 0.56612 0.0
O312 O 0.3055 0.45726 0.59488 0.0
C313 C 0.2262 0.57621 0.54488 0.0
C314 C 0.23744 0.60199 0.49541 0.0
C315 C 0.21882 0.59608 0.52225 0.0
N316 N 0.24816 0.57055 0.53154 0.0
N317 N 0.2548 0.58617 0.50232 0.0
C318 C 0.21225 0.56192 0.57645 0.0
H319 H 0.21679 0.54285 0.57333 0.0
H320 H 0.19291 0.56445 0.57167 0.0
H321 H 0.21699 0.5677 0.60936 0.0
C322 C 0.28355 0.494 0.46268 0.0
N323 N 0.28421 0.50553 0.50043 0.0
N324 N 0.26789 0.52217 0.5008 0.0
C325 C 0.25583 0.52129 0.46351 0.0
C326 C 0.26552 0.50365 0.43785 0.0
C327 C 0.30202 0.47651 0.44892 0.0
H328 H 0.31982 0.48284 0.45895 0.0
H329 H 0.29867 0.45933 0.4652 0.0
H330 H 0.30197 0.47369 0.41375 0.0
O331 O 0.32717 0.5314 0.54453 0.0
O332 O 0.30045 0.56014 0.54966 0.0
H333 H 0.24302 0.55465 0.44072 0.0
H334 H 0.22491 0.5297 0.42566 0.0
C335 C 0.23579 0.53743 0.45183 0.0
H336 H 0.22436 0.54054 0.48016 0.0
H337 H 0.2711 0.58575 0.48651 0.0
O338 O 0.32539 0.47473 0.54168 0.0
C339 C 0.32192 0.55327 0.54755 0.0
Co340 Co 0.49345 0.31136 0.55185 0.0
Co341 Co 0.45333 0.27296 0.54383 0.0
C342 C 0.48561 0.27289 0.61868 0.0
O343 O 0.49605 0.29097 0.60306 0.0
O344 O 0.46826 0.26315 0.59918 0.0
C345 C 0.5425 0.32577 0.5507 0.0
O346 O 0.54698 0.30302 0.5466 0.0
C347 C 0.41935 0.23188 0.54065 0.0
C348 C 0.3966 0.24433 0.48749 0.0
C349 C 0.39948 0.22588 0.51629 0.0
N350 N 0.42787 0.25274 0.52614 0.0
N351 N 0.41404 0.26004 0.49461 0.0
C352 C 0.4287 0.21934 0.57939 0.0
H353 H 0.4362 0.23227 0.60241 0.0
H354 H 0.44302 0.20703 0.56945 0.0
H355 H 0.41452 0.20905 0.5956 0.0
C356 C 0.5026 0.29542 0.46264 0.0
N357 N 0.4918 0.29307 0.50094 0.0
N358 N 0.47622 0.27568 0.49876 0.0
C359 C 0.47743 0.26575 0.45944 0.0
C360 C 0.49388 0.27816 0.43506 0.0
C361 C 0.52003 0.31464 0.45215 0.0
H362 H 0.51482 0.3314 0.4682 0.0
H363 H 0.53777 0.30935 0.46404 0.0
H364 H 0.52163 0.31763 0.41719 0.0
O365 O 0.46514 0.33145 0.55671 0.0
O366 O 0.43715 0.304 0.55151 0.0
H367 H 0.44531 0.25423 0.42965 0.0
H368 H 0.47024 0.2356 0.41869 0.0
C369 C 0.46149 0.24632 0.44387 0.0
H370 H 0.45651 0.23444 0.47069 0.0
H371 H 0.4164 0.27601 0.47821 0.0
O372 O 0.52117 0.33289 0.55259 0.0
C373 C 0.44339 0.32556 0.55588 0.0
Co374 Co 0.69127 0.49606 0.54666 0.0
Co375 Co 0.72709 0.45349 0.54766 0.0
C376 C 0.72534 0.4861 0.6209 0.0
O377 O 0.70843 0.49708 0.60245 0.0
O378 O 0.7355 0.46854 0.60296 0.0
C379 C 0.67386 0.54264 0.56697 0.0
O380 O 0.68951 0.54155 0.59806 0.0
C381 C 0.76877 0.42083 0.54502 0.0
C382 C 0.75365 0.39259 0.50405 0.0
C383 C 0.77399 0.39917 0.52586 0.0
N384 N 0.74641 0.42679 0.5344 0.0
N385 N 0.73755 0.40979 0.51001 0.0
C386 C 0.78429 0.43513 0.57411 0.0
H387 H 0.77347 0.44576 0.59658 0.0
H388 H 0.79514 0.44749 0.55453 0.0
H389 H 0.79639 0.42346 0.5926 0.0
C390 C 0.71381 0.50402 0.46253 0.0
N391 N 0.71268 0.49292 0.50067 0.0
N392 N 0.72823 0.47556 0.50151 0.0
C393 C 0.74017 0.4754 0.4641 0.0
C394 C 0.73131 0.49324 0.43794 0.0
C395 C 0.69623 0.5223 0.44832 0.0
H396 H 0.67811 0.51671 0.45784 0.0
H397 H 0.70016 0.5393 0.4648 0.0
H398 H 0.69671 0.52515 0.41317 0.0
O399 O 0.66897 0.46907 0.54625 0.0
O400 O 0.6948 0.43962 0.55282 0.0
H401 H 0.75101 0.44062 0.44522 0.0
H402 H 0.76964 0.46408 0.42476 0.0
C403 C 0.75921 0.458 0.45287 0.0
H404 H 0.77131 0.45569 0.48052 0.0
H405 H 0.72044 0.40998 0.49729 0.0
O406 O 0.67214 0.52547 0.54073 0.0
C407 C 0.67357 0.44712 0.55052 0.0
Co408 Co 0.50859 0.31214 0.99888 0.0
Co409 Co 0.54914 0.27455 0.00506 0.0
C410 C 0.51734 0.27503 0.92987 0.0
O411 O 0.50651 0.29265 0.94626 0.0
O412 O 0.53475 0.26534 0.94915 0.0
C413 C 0.45939 0.32521 0.00402 0.0
O414 O 0.45581 0.30251 0.0111 0.0
C415 C 0.57902 0.2313 0.00912 0.0
C416 C 0.60551 0.24284 0.05711 0.0
C417 C 0.59887 0.22383 0.03173 0.0
N418 N 0.57407 0.25368 0.02107 0.0
N419 N 0.59011 0.26049 0.04941 0.0
C420 C 0.56423 0.21716 0.97862 0.0
H421 H 0.54526 0.22199 0.98225 0.0
H422 H 0.56654 0.19784 0.98407 0.0
H423 H 0.56969 0.22143 0.94533 0.0
C424 C 0.49952 0.2944 0.08738 0.0
N425 N 0.51021 0.29296 0.04877 0.0
N426 N 0.52624 0.276 0.04994 0.0
C427 C 0.52562 0.26562 0.08887 0.0
C428 C 0.50883 0.277 0.11385 0.0
C429 C 0.48368 0.31433 0.10097 0.0
H430 H 0.4874 0.33047 0.0818 0.0
H431 H 0.46493 0.30902 0.09607 0.0
H432 H 0.48608 0.31842 0.1355 0.0
O433 O 0.53667 0.33285 0.99585 0.0
O434 O 0.56516 0.30587 -0.00026 0.0
H435 H 0.55897 0.25389 0.11335 0.0
H436 H 0.53409 0.23657 0.13115 0.0
C437 C 0.54177 0.24616 0.10332 0.0
H438 H 0.54478 0.23343 0.07682 0.0
H439 H 0.59033 0.27716 0.06396 0.0
O440 O 0.48037 0.3329 0.99886 0.0
C441 C 0.55854 0.32739 0.99671 0.0
Co442 Co 0.69488 0.50734 0.00821 0.0
Co443 Co 0.72981 0.55093 0.00844 0.0
C444 C 0.72813 0.51859 0.93399 0.0
O445 O 0.71166 0.50693 0.95241 0.0
O446 O 0.7379 0.5363 0.95227 0.0
C447 C 0.67825 0.46031 0.98836 0.0
O448 O 0.69433 0.46132 0.958 0.0
C449 C 0.77187 0.58329 0.01187 0.0
C450 C 0.75616 0.61277 0.04891 0.0
C451 C 0.77696 0.60547 0.02939 0.0
N452 N 0.74917 0.57785 0.02118 0.0
N453 N 0.73998 0.5956 0.04323 0.0
C454 C 0.78781 0.56795 0.98544 0.0
H455 H 0.77736 0.55569 0.96517 0.0
H456 H 0.79909 0.55716 0.00709 0.0
H457 H 0.79949 0.57897 0.96483 0.0
C458 C 0.71736 0.49919 0.09176 0.0
N459 N 0.71644 0.51052 0.0539 0.0
N460 N 0.73119 0.52862 0.05448 0.0
C461 C 0.74211 0.52926 0.09298 0.0
C462 C 0.73353 0.51074 0.118 0.0
C463 C 0.70144 0.47897 0.10366 0.0
H464 H 0.70285 0.46485 0.07905 0.0
H465 H 0.70613 0.47144 0.13541 0.0
H466 H 0.68278 0.48521 0.10417 0.0
O467 O 0.6723 0.53405 0.00949 0.0
O468 O 0.69736 0.56431 0.00403 0.0
H469 H 0.74698 0.56554 0.11054 0.0
H470 H 0.76597 0.54539 0.13917 0.0
C471 C 0.75771 0.54915 0.10767 0.0
H472 H 0.77187 0.55224 0.08368 0.0
H473 H 0.72256 0.59596 0.05453 0.0
O474 O 0.67592 0.47773 0.0139 0.0
C475 C 0.67635 0.55617 0.00609 0.0
Co476 Co 0.49173 0.68492 0.00615 0.0
Co477 Co 0.45056 0.72203 0.01435 0.0
C478 C 0.48228 0.72239 0.93867 0.0
O479 O 0.49352 0.70481 0.95423 0.0
O480 O 0.46478 0.73154 0.95852 0.0
C481 C 0.54103 0.67231 0.00582 0.0
O482 O 0.54463 0.6953 0.00825 0.0
C483 C 0.42006 0.76522 0.02315 0.0
C484 C 0.39145 0.75005 0.06313 0.0
C485 C 0.39877 0.77079 0.04341 0.0
N486 N 0.42507 0.74227 0.03117 0.0
N487 N 0.40784 0.73341 0.055 0.0
C488 C 0.4348 0.78096 0.99518 0.0
H489 H 0.44567 0.77038 0.97275 0.0
H490 H 0.44695 0.79155 0.01563 0.0
H491 H 0.42339 0.79331 0.97668 0.0
C492 C 0.5013 0.70224 0.0945 0.0
N493 N 0.49006 0.70373 0.05647 0.0
N494 N 0.4736 0.72023 0.05884 0.0
C495 C 0.47429 0.73021 0.09809 0.0
C496 C 0.49173 0.71904 0.12208 0.0
C497 C 0.51984 0.6841 0.1049 0.0
H498 H 0.5151 0.66682 0.09022 0.0
H499 H 0.53703 0.69 0.09142 0.0
H500 H 0.5223 0.68187 0.13989 0.0
O501 O 0.46378 0.66399 0.00271 0.0
O502 O 0.43508 0.69065 0.00798 0.0
H503 H 0.43931 0.73866 0.1193 0.0
H504 H 0.46198 0.75597 0.14484 0.0
C505 C 0.45649 0.74779 0.11413 0.0
H506 H 0.45398 0.76197 0.08997 0.0
H507 H 0.40727 0.71589 0.06574 0.0
O508 O 0.52 0.66426 0.00547 0.0
C509 C 0.44187 0.66925 0.00404 0.0
Co510 Co 0.30489 0.48998 0.00787 0.0
Co511 Co 0.27058 0.44615 0.00666 0.0
C512 C 0.27156 0.47956 0.93354 0.0
O513 O 0.28796 0.49116 0.95221 0.0
O514 O 0.26211 0.46149 0.95122 0.0
C515 C 0.32179 0.53702 0.98947 0.0
O516 O 0.30612 0.53621 0.9584 0.0
C517 C 0.22802 0.41494 0.01131 0.0
C518 C 0.24423 0.38312 0.04053 0.0
C519 C 0.22291 0.39214 0.02578 0.0
N520 N 0.25127 0.4191 0.01776 0.0
N521 N 0.26077 0.39998 0.03516 0.0
C522 C 0.21151 0.43218 0.99042 0.0
H523 H 0.22147 0.44523 0.97093 0.0
H524 H 0.20169 0.44202 0.01559 0.0
H525 H 0.19848 0.42273 0.96991 0.0
C526 C 0.2825 0.49698 0.09197 0.0
N527 N 0.28353 0.48605 0.05373 0.0
N528 N 0.26917 0.46763 0.05389 0.0
C529 C 0.25853 0.46626 0.09259 0.0
C530 C 0.26673 0.48477 0.11807 0.0
C531 C 0.29778 0.51764 0.10415 0.0
H532 H 0.29623 0.53167 0.07939 0.0
H533 H 0.29263 0.52511 0.13571 0.0
H534 H 0.31658 0.51188 0.10526 0.0
O535 O 0.32774 0.46345 0.00777 0.0
O536 O 0.30303 0.43298 0.00152 0.0
H537 H 0.23739 0.44778 0.14033 0.0
H538 H 0.22814 0.44396 0.08541 0.0
C539 C 0.24369 0.44571 0.1069 0.0
H540 H 0.25427 0.4292 0.1047 0.0
H541 H 0.27862 0.39846 0.04355 0.0
O542 O 0.32373 0.51948 0.01484 0.0
C543 C 0.32396 0.44133 0.00369 0.0
C544 C 0.10906 0.31226 0.98748 0.0
C545 C 0.1029 0.30007 0.02498 0.0
C546 C 0.12554 0.33085 0.98844 0.0
C547 C 0.13641 0.33701 0.02778 0.0
C548 C 0.1289 0.32593 0.06624 0.0
C549 C 0.11214 0.30754 0.06438 0.0
C550 C 0.13278 0.34245 0.94682 0.0
C551 C 0.14016 0.33192 0.10879 0.0
C552 C 0.2011 0.35407 0.01994 0.0
C553 C 0.20033 0.37874 0.0252 0.0
C554 C 0.18041 0.3404 0.02102 0.0
C555 C 0.15828 0.35167 0.02743 0.0
C556 C 0.15727 0.37658 0.03279 0.0
C557 C 0.1784 0.38984 0.03197 0.0
C558 C 0.18229 0.31384 0.01528 0.0
C559 C 0.13396 0.38913 0.03968 0.0
H560 H 0.10179 0.3065 0.95702 0.0
H561 H 0.10766 0.29788 0.09331 0.0
H562 H 0.13416 0.36196 0.95072 0.0
H563 H 0.15051 0.33582 0.93714 0.0
H564 H 0.12005 0.33854 0.92057 0.0
H565 H 0.12971 0.32484 0.13616 0.0
H566 H 0.1582 0.32411 0.11012 0.0
H567 H 0.14205 0.35138 0.11263 0.0
H568 H 0.218 0.34537 0.01482 0.0
H569 H 0.1777 0.40875 0.03769 0.0
H570 H 0.17213 0.30825 0.98655 0.0
H571 H 0.17447 0.30462 0.04335 0.0
H572 H 0.20093 0.30784 0.0115 0.0
H573 H 0.1216 0.38503 0.013 0.0
H574 H 0.13612 0.40868 0.04185 0.0
H575 H 0.12554 0.38268 0.06964 0.0
C576 C 0.70791 0.14222 0.02469 0.0
C577 C 0.70526 0.1175 0.02456 0.0
C578 C 0.68818 0.15723 0.02429 0.0
C579 C 0.66512 0.14732 0.02401 0.0
C580 C 0.66222 0.12238 0.02338 0.0
C581 C 0.68238 0.10773 0.02317 0.0
C582 C 0.69206 0.18377 0.02458 0.0
C583 C 0.63788 0.11123 0.02312 0.0
C584 C 0.62042 0.19094 0.06719 0.0
C585 C 0.61186 0.20121 0.02938 0.0
C586 C 0.63634 0.17191 0.06588 0.0
C587 C 0.64427 0.16337 0.02572 0.0
C588 C 0.63458 0.17276 0.98741 0.0
C589 C 0.61834 0.19159 0.98972 0.0
C590 C 0.64595 0.16213 0.10746 0.0
C591 C 0.64276 0.16429 0.94397 0.0
H592 H 0.72554 0.14991 0.02545 0.0
H593 H 0.68013 0.08871 0.02114 0.0
H594 H 0.68283 0.19203 0.99695 0.0
H595 H 0.68441 0.19153 0.05419 0.0
H596 H 0.71114 0.18859 0.02303 0.0
H597 H 0.63865 0.09154 0.02277 0.0
H598 H 0.62781 0.11698 0.05185 0.0
H599 H 0.6278 0.11729 0.99462 0.0
H600 H 0.61528 0.19839 0.09788 0.0
H601 H 0.612 0.19979 0.96046 0.0
H602 H 0.6646 0.16797 0.11165 0.0
H603 H 0.64588 0.14245 0.10692 0.0
H604 H 0.63555 0.16826 0.1356 0.0
H605 H 0.66098 0.17097 0.93787 0.0
H606 H 0.63102 0.17069 0.91782 0.0
H607 H 0.64346 0.14465 0.94286 0.0
C608 C 0.82154 0.60961 0.02716 0.0
C609 C 0.7989 0.61994 0.02733 0.0
C610 C 0.84207 0.62378 0.02605 0.0
C611 C 0.83984 0.64879 0.02603 0.0
C612 C 0.81706 0.65926 0.02701 0.0
C613 C 0.79694 0.64473 0.02752 0.0
C614 C 0.86611 0.61205 0.02495 0.0
C615 C 0.81387 0.68588 0.02731 0.0
C616 C 0.88774 0.69203 0.0598 0.0
C617 C 0.89393 0.70193 0.02018 0.0
C618 C 0.87131 0.67334 0.06216 0.0
C619 C 0.86107 0.66438 0.02395 0.0
C620 C 0.86872 0.67315 0.98376 0.0
C621 C 0.88488 0.69202 0.9824 0.0
C622 C 0.86345 0.66462 0.10565 0.0
C623 C 0.85852 0.66385 0.94228 0.0
H624 H 0.82332 0.59054 0.02877 0.0
H625 H 0.77953 0.65287 0.02785 0.0
H626 H 0.87607 0.61798 0.9962 0.0
H627 H 0.8766 0.61743 0.05342 0.0
H628 H 0.86481 0.59238 0.02438 0.0
H629 H 0.79493 0.69115 0.02954 0.0
H630 H 0.82356 0.69375 0.05481 0.0
H631 H 0.82144 0.69363 0.99762 0.0
H632 H 0.89444 0.69994 0.08906 0.0
H633 H 0.88979 0.69966 0.95175 0.0
H634 H 0.86239 0.64498 0.10623 0.0
H635 H 0.84545 0.67155 0.11263 0.0
H636 H 0.87561 0.67059 0.13153 0.0
H637 H 0.8581 0.64418 0.9424 0.0
H638 H 0.86883 0.66993 0.91398 0.0
H639 H 0.83999 0.67014 0.93874 0.0
C640 C 0.31536 0.87985 0.99515 0.0
C641 C 0.30527 0.88954 0.03222 0.0
C642 C 0.33391 0.86343 0.99778 0.0
C643 C 0.34222 0.85625 0.03856 0.0
C644 C 0.33321 0.86723 0.07601 0.0
C645 C 0.31477 0.88385 0.07238 0.0
C646 C 0.34323 0.85238 0.95704 0.0
C647 C 0.34154 0.85997 0.12007 0.0
C648 C 0.36008 0.79172 0.04407 0.0
C649 C 0.38489 0.79307 0.04282 0.0
C650 C 0.34612 0.8122 0.0437 0.0
C651 C 0.35722 0.83471 0.04197 0.0
C652 C 0.38227 0.83631 0.04157 0.0
C653 C 0.39586 0.81542 0.04236 0.0
C654 C 0.31943 0.8097 0.0444 0.0
C655 C 0.39465 0.86004 0.0399 0.0
H656 H 0.30806 0.8844 0.96406 0.0
H657 H 0.30674 0.89107 0.10111 0.0
H658 H 0.36289 0.85161 0.95754 0.0
H659 H 0.33659 0.83389 0.95442 0.0
H660 H 0.33751 0.8623 0.92808 0.0
H661 H 0.33596 0.87287 0.14503 0.0
H662 H 0.33391 0.84239 0.12821 0.0
H663 H 0.36112 0.85823 0.12094 0.0
H664 H 0.35148 0.77451 0.0447 0.0
H665 H 0.41499 0.81667 0.04318 0.0
H666 H 0.31182 0.81698 0.01437 0.0
H667 H 0.31189 0.82001 0.07144 0.0
H668 H 0.31366 0.79093 0.04763 0.0
H669 H 0.38964 0.86952 0.01007 0.0
H670 H 0.41426 0.85827 0.04087 0.0
H671 H 0.3889 0.87125 0.0672 0.0
C672 C 0.1056 0.68327 0.53288 0.0
C673 C 0.11624 0.70576 0.53097 0.0
C674 C 0.11946 0.66256 0.53304 0.0
C675 C 0.14447 0.6645 0.53212 0.0
C676 C 0.15527 0.68717 0.53143 0.0
C677 C 0.14103 0.70747 0.53078 0.0
C678 C 0.10739 0.63866 0.53386 0.0
C679 C 0.18192 0.69003 0.53074 0.0
C680 C 0.18749 0.61637 0.56529 0.0
C681 C 0.19654 0.60959 0.52535 0.0
C682 C 0.16914 0.63312 0.56811 0.0
C683 C 0.15969 0.64307 0.53006 0.0
C684 C 0.16759 0.63483 0.48967 0.0
C685 C 0.1861 0.61834 0.48784 0.0
C686 C 0.1613 0.64157 0.61177 0.0
C687 C 0.15776 0.64474 0.44836 0.0
H688 H 0.08651 0.68177 0.53494 0.0
H689 H 0.14938 0.72479 0.52964 0.0
H690 H 0.11234 0.62838 0.50487 0.0
H691 H 0.11346 0.62834 0.56207 0.0
H692 H 0.08776 0.64019 0.53509 0.0
H693 H 0.18748 0.70893 0.53211 0.0
H694 H 0.18995 0.68054 0.5583 0.0
H695 H 0.18924 0.68205 0.50105 0.0
H696 H 0.19581 0.60987 0.59432 0.0
H697 H 0.19307 0.61295 0.45693 0.0
H698 H 0.14171 0.6431 0.61331 0.0
H699 H 0.16879 0.65946 0.61786 0.0
H700 H 0.16735 0.6295 0.6377 0.0
H701 H 0.13811 0.64534 0.44945 0.0
H702 H 0.16328 0.63412 0.42007 0.0
H703 H 0.16419 0.66319 0.44395 0.0
C704 C 0.39081 0.18287 0.53223 0.0
C705 C 0.38295 0.20554 0.52034 0.0
C706 C 0.37483 0.16376 0.53519 0.0
C707 C 0.3506 0.1674 0.52523 0.0
C708 C 0.34273 0.19013 0.51239 0.0
C709 C 0.35897 0.20887 0.51019 0.0
C710 C 0.3838 0.13974 0.54899 0.0
C711 C 0.31706 0.19477 0.50125 0.0
C712 C 0.30743 0.1186 0.49486 0.0
C713 C 0.29343 0.11737 0.53187 0.0
C714 C 0.3272 0.13375 0.49306 0.0
C715 C 0.33304 0.14783 0.52919 0.0
C716 C 0.3198 0.14545 0.56748 0.0
C717 C 0.30001 0.1304 0.56821 0.0
C718 C 0.34074 0.13596 0.45151 0.0
C719 C 0.32559 0.15991 0.60687 0.0
H720 H 0.40945 0.17993 0.53855 0.0
H721 H 0.35278 0.22631 0.50075 0.0
H722 H 0.37427 0.13385 0.57823 0.0
H723 H 0.38017 0.12644 0.52362 0.0
H724 H 0.40314 0.13986 0.55579 0.0
H725 H 0.31401 0.2133 0.49047 0.0
H726 H 0.31122 0.18255 0.47543 0.0
H727 H 0.30569 0.19131 0.5296 0.0
H728 H 0.30215 0.10886 0.46649 0.0
H729 H 0.28924 0.12933 0.59694 0.0
H730 H 0.36013 0.1357 0.45747 0.0
H731 H 0.33645 0.1532 0.4362 0.0
H732 H 0.33623 0.12152 0.42867 0.0
H733 H 0.34486 0.15913 0.6139 0.0
H734 H 0.31566 0.15371 0.63552 0.0
H735 H 0.321 0.17877 0.60102 0.0
C736 C 0.81837 0.39504 0.52792 0.0
C737 C 0.79575 0.38468 0.52826 0.0
C738 C 0.83887 0.38089 0.52895 0.0
C739 C 0.83654 0.35589 0.52984 0.0
C740 C 0.81372 0.34541 0.52967 0.0
C741 C 0.79365 0.35993 0.52882 0.0
C742 C 0.86294 0.3926 0.52888 0.0
C743 C 0.81046 0.31879 0.53062 0.0
C744 C 0.88323 0.31157 0.4965 0.0
C745 C 0.88971 0.3022 0.53637 0.0
C746 C 0.86729 0.33061 0.49381 0.0
C747 C 0.85769 0.34032 0.53193 0.0
C748 C 0.8657 0.33211 0.57225 0.0
C749 C 0.88151 0.31301 0.57397 0.0
C750 C 0.85915 0.33886 0.4502 0.0
C751 C 0.85607 0.34213 0.61363 0.0
H752 H 0.8201 0.41414 0.52594 0.0
H753 H 0.77619 0.35186 0.52891 0.0
H754 H 0.87314 0.38703 0.55757 0.0
H755 H 0.87315 0.38684 0.50034 0.0
H756 H 0.8617 0.41227 0.52867 0.0
H757 H 0.79148 0.31352 0.52958 0.0
H758 H 0.81967 0.31058 0.50293 0.0
H759 H 0.81848 0.31139 0.5602 0.0
H760 H 0.88922 0.30298 0.46738 0.0
H761 H 0.88665 0.3058 0.60483 0.0
H762 H 0.85818 0.3585 0.44891 0.0
H763 H 0.84108 0.33188 0.44387 0.0
H764 H 0.87111 0.33257 0.42428 0.0
H765 H 0.85574 0.36179 0.61252 0.0
H766 H 0.86669 0.33646 0.64181 0.0
H767 H 0.83755 0.33595 0.61822 0.0
C768 C 0.60192 0.81837 0.53355 0.0
C769 C 0.61155 0.79559 0.52863 0.0
C770 C 0.61666 0.83849 0.53475 0.0
C771 C 0.64148 0.8357 0.53019 0.0
C772 C 0.65119 0.81278 0.52455 0.0
C773 C 0.63613 0.79307 0.5239 0.0
C774 C 0.60574 0.86269 0.54079 0.0
C775 C 0.67758 0.80901 0.51939 0.0
C776 C 0.68442 0.88352 0.49506 0.0
C777 C 0.69646 0.88794 0.53349 0.0
C778 C 0.6651 0.8678 0.49392 0.0
C779 C 0.65773 0.85642 0.53218 0.0
C780 C 0.66874 0.86229 0.57155 0.0
C781 C 0.68815 0.87782 0.57164 0.0
C782 C 0.65394 0.86188 0.45126 0.0
C783 C 0.66122 0.85081 0.61312 0.0
H784 H 0.58289 0.82057 0.53562 0.0
H785 H 0.64369 0.77553 0.51992 0.0
H786 H 0.61338 0.87137 0.56958 0.0
H787 H 0.60998 0.87415 0.5129 0.0
H788 H 0.58617 0.86182 0.54447 0.0
H789 H 0.68217 0.79007 0.51412 0.0
H790 H 0.68429 0.81949 0.49184 0.0
H791 H 0.68702 0.8153 0.54845 0.0
H792 H 0.69106 0.89105 0.46543 0.0
H793 H 0.69741 0.88137 0.60142 0.0
H794 H 0.63434 0.86136 0.45392 0.0
H795 H 0.65989 0.84402 0.44094 0.0
H796 H 0.65894 0.87486 0.42603 0.0
H797 H 0.64162 0.8509 0.61623 0.0
H798 H 0.66901 0.85989 0.64144 0.0
H799 H 0.66707 0.83203 0.61341 0.0
C800 C 0.16188 0.07922 0.10018 0.0
C801 C 0.16394 0.06331 0.06583 0.0
C802 C 0.14537 0.0978 0.09905 0.0
C803 C 0.13087 0.10073 0.0624 0.0
C804 C 0.1335 0.08527 0.02697 0.0
C805 C 0.14988 0.0666 0.02925 0.0
C806 C 0.14285 0.11375 0.13767 0.0
C807 C 0.11861 0.08809 0.98705 0.0
C808 C 0.07101 0.13047 0.07489 0.0
C809 C 0.07575 0.15352 0.06028 0.0
C810 C 0.0889 0.11325 0.07626 0.0
C811 C 0.11201 0.1191 0.06207 0.0
C812 C 0.11695 0.14233 0.04731 0.0
C813 C 0.09879 0.15934 0.04691 0.0
C814 C 0.08303 0.08875 0.09281 0.0
C815 C 0.14133 0.1491 0.03142 0.0
H816 H 0.17266 0.0767 0.1286 0.0
H817 H 0.15157 0.05448 0.00244 0.0
H818 H 0.14472 0.1326 0.12807 0.0
H819 H 0.12489 0.11161 0.15169 0.0
H820 H 0.1562 0.10978 0.16285 0.0
H821 H 0.12406 0.07571 0.96116 0.0
H822 H 0.0997 0.08475 0.99477 0.0
H823 H 0.11994 0.10653 0.97483 0.0
H824 H 0.05329 0.12588 0.08556 0.0
H825 H 0.10253 0.17709 0.03534 0.0
H826 H 0.09491 0.08416 0.11993 0.0
H827 H 0.08604 0.07541 0.06725 0.0
H828 H 0.06435 0.08728 0.10383 0.0
H829 H 0.15467 0.14614 0.05699 0.0
H830 H 0.14228 0.16794 0.02111 0.0
H831 H 0.14633 0.13766 0.00393 0.0
C832 C 0.93697 0.12795 0.11858 0.0
C833 C 0.94816 0.13686 0.08178 0.0
C834 C 0.9168 0.11343 0.1154 0.0
C835 C 0.90768 0.10761 0.07445 0.0
C836 C 0.91894 0.11647 0.03718 0.0
C837 C 0.93901 0.13103 0.04129 0.0
C838 C 0.9052 0.10439 0.15587 0.0
C839 C 0.90978 0.11058 0.99294 0.0
C840 C 0.86848 0.05312 0.06325 0.0
C841 C 0.84575 0.06322 0.06172 0.0
C842 C 0.88878 0.06735 0.06758 0.0
C843 C 0.88631 0.09228 0.07053 0.0
C844 C 0.86344 0.10259 0.0693 0.0
C845 C 0.84345 0.08795 0.06488 0.0
C846 C 0.91289 0.05572 0.06872 0.0
C847 C 0.86011 0.12912 0.07244 0.0
H848 H 0.94388 0.13241 0.14999 0.0
H849 H 0.94756 0.13781 0.01267 0.0
H850 H 0.8865 0.11043 0.15725 0.0
H851 H 0.90496 0.08471 0.15581 0.0
H852 H 0.91448 0.11055 0.18525 0.0
H853 H 0.92065 0.11879 0.9672 0.0
H854 H 0.90968 0.09108 0.98822 0.0
H855 H 0.89122 0.11681 0.98953 0.0
H856 H 0.87048 0.03405 0.06086 0.0
H857 H 0.82599 0.09595 0.06375 0.0
H858 H 0.92219 0.06043 0.09887 0.0
H859 H 0.9239 0.06236 0.0418 0.0
H860 H 0.91176 0.03609 0.06644 0.0
H861 H 0.86804 0.13582 0.10266 0.0
H862 H 0.84112 0.13431 0.07156 0.0
H863 H 0.86944 0.13803 0.04559 0.0
C864 C 0.93693 0.87067 0.05855 0.0
C865 C 0.92999 0.84676 0.05922 0.0
C866 C 0.92009 0.88891 0.06075 0.0
C867 C 0.89573 0.88313 0.06394 0.0
C868 C 0.88857 0.85907 0.0648 0.0
C869 C 0.90578 0.84116 0.0623 0.0
C870 C 0.92838 0.91439 0.05957 0.0
C871 C 0.86274 0.85226 0.06845 0.0
C872 C 0.85575 0.93107 0.10905 0.0
C873 C 0.84608 0.9409 0.07163 0.0
C874 C 0.87148 0.91185 0.10706 0.0
C875 C 0.8778 0.90235 0.06667 0.0
C876 C 0.8677 0.91184 0.02883 0.0
C877 C 0.85187 0.93096 0.03177 0.0
C878 C 0.88174 0.90206 0.14813 0.0
C879 C 0.87409 0.90219 0.98517 0.0
H880 H 0.95556 0.87519 0.05603 0.0
H881 H 0.90023 0.82275 0.06289 0.0
H882 H 0.92008 0.92376 0.03213 0.0
H883 H 0.92276 0.9237 0.0892 0.0
H884 H 0.94796 0.91589 0.05658 0.0
H885 H 0.86012 0.83273 0.06878 0.0
H886 H 0.85511 0.85978 0.09828 0.0
H887 H 0.85261 0.85981 0.0412 0.0
H888 H 0.85124 0.93856 0.13999 0.0
H889 H 0.84446 0.93846 0.00272 0.0
H890 H 0.90123 0.90478 0.14849 0.0
H891 H 0.87851 0.88267 0.1501 0.0
H892 H 0.87407 0.91063 0.17703 0.0
H893 H 0.8933 0.90487 0.97916 0.0
H894 H 0.86395 0.91091 0.95902 0.0
H895 H 0.87068 0.88283 0.98392 0.0
C896 C 0.16224 0.90805 0.07715 0.0
C897 C 0.16026 0.9285 0.05188 0.0
C898 C 0.14402 0.89107 0.07801 0.0
C899 C 0.12378 0.89425 0.05176 0.0
C900 C 0.12193 0.9147 0.02556 0.0
C901 C 0.14003 0.9318 0.02653 0.0
C902 C 0.14628 0.86992 0.10743 0.0
C903 C 0.10098 0.91837 0.99617 0.0
C904 C 0.08702 0.83956 0.02557 0.0
C905 C 0.06717 0.84294 0.0518 0.0
C906 C 0.10549 0.85629 0.02481 0.0
C907 C 0.10438 0.87636 0.05209 0.0
C908 C 0.08459 0.87947 0.07945 0.0
C909 C 0.066 0.86293 0.07838 0.0
C910 C 0.12593 0.85275 0.99422 0.0
C911 C 0.0831 0.9002 0.10999 0.0
H912 H 0.17784 0.90558 0.09696 0.0
H913 H 0.13864 0.94751 0.00664 0.0
H914 H 0.13088 0.86922 0.12956 0.0
H915 H 0.14612 0.85329 0.08846 0.0
H916 H 0.16282 0.87045 0.12675 0.0
H917 H 0.10278 0.93465 0.97637 0.0
H918 H 0.09899 0.90288 0.97449 0.0
H919 H 0.08444 0.91972 0.01524 0.0
H920 H 0.08776 0.82419 0.00471 0.0
H921 H 0.05068 0.86541 0.09889 0.0
H922 H 0.14282 0.85147 0.01228 0.0
H923 H 0.12743 0.86829 0.97254 0.0
H924 H 0.12384 0.8365 0.97444 0.0
H925 H 0.09908 0.9007 0.13073 0.0
H926 H 0.06712 0.89934 0.13075 0.0
H927 H 0.08265 0.91707 0.09174 0.0
C928 C 0.13754 0.93649 0.44747 0.0
C929 C 0.1471 0.94649 0.48485 0.0
C930 C 0.12216 0.91696 0.44948 0.0
C931 C 0.11602 0.90733 0.48988 0.0
C932 C 0.12571 0.91723 0.52774 0.0
C933 C 0.14125 0.93663 0.52476 0.0
C934 C 0.11238 0.9067 0.40838 0.0
C935 C 0.11947 0.90749 0.5714 0.0
C936 C 0.05917 0.87133 0.49725 0.0
C937 C 0.06785 0.84801 0.49655 0.0
C938 C 0.07466 0.89081 0.49532 0.0
C939 C 0.09941 0.88689 0.49246 0.0
C940 C 0.10829 0.86343 0.49167 0.0
C941 C 0.09243 0.8443 0.49379 0.0
C942 C 0.06456 0.9156 0.49638 0.0
C943 C 0.13456 0.85855 0.48845 0.0
H944 H 0.14207 0.94394 0.4165 0.0
H945 H 0.14851 0.94431 0.5538 0.0
H946 H 0.11705 0.88763 0.40597 0.0
H947 H 0.09275 0.9079 0.4084 0.0
H948 H 0.11924 0.916 0.37953 0.0
H949 H 0.1286 0.91715 0.5977 0.0
H950 H 0.10004 0.90869 0.57659 0.0
H951 H 0.12433 0.88845 0.57331 0.0
H952 H 0.04024 0.8744 0.49947 0.0
H953 H 0.09936 0.82637 0.49324 0.0
H954 H 0.06959 0.92529 0.46678 0.0
H955 H 0.07209 0.92557 0.52387 0.0
H956 H 0.04492 0.91564 0.49916 0.0
H957 H 0.14178 0.86658 0.4587 0.0
H958 H 0.1386 0.83926 0.48825 0.0
H959 H 0.14399 0.86685 0.51582 0.0
C960 C 0.05408 0.1342 0.52381 0.0
C961 C 0.04393 0.13909 0.48371 0.0
C962 C 0.07458 0.12023 0.52725 0.0
C963 C 0.08522 0.11102 0.48968 0.0
C964 C 0.07508 0.11591 0.44912 0.0
C965 C 0.05452 0.12985 0.44663 0.0
C966 C 0.08483 0.11531 0.57108 0.0
C967 C 0.086 0.10646 0.40835 0.0
C968 C 0.14995 0.0927 0.49515 0.0
C969 C 0.14813 0.06797 0.49935 0.0
C970 C 0.12962 0.10692 0.4918 0.0
C971 C 0.10693 0.09618 0.49285 0.0
C972 C 0.10494 0.07127 0.49706 0.0
C973 C 0.12555 0.05746 0.50018 0.0
C974 C 0.13242 0.13344 0.48717 0.0
C975 C 0.08103 0.0592 0.49844 0.0
H976 H 0.046 0.14126 0.55264 0.0
H977 H 0.04684 0.13359 0.41552 0.0
H978 H 0.08542 0.0959 0.57687 0.0
H979 H 0.10333 0.12196 0.57278 0.0
H980 H 0.07438 0.12374 0.59713 0.0
H981 H 0.07601 0.11198 0.37933 0.0
H982 H 0.10455 0.11282 0.40538 0.0
H983 H 0.08658 0.08679 0.40937 0.0
H984 H 0.1673 0.101 0.49443 0.0
H985 H 0.12392 0.03839 0.50346 0.0
H986 H 0.12346 0.14259 0.51415 0.0
H987 H 0.12379 0.13952 0.45716 0.0
H988 H 0.15133 0.139 0.48656 0.0
H989 H 0.0705 0.06615 0.52572 0.0
H990 H 0.08254 0.03964 0.50184 0.0
H991 H 0.07098 0.06315 0.46872 0.0
C992 C 0.85034 0.0637 0.468 0.0
C993 C 0.8303 0.06379 0.49445 0.0
C994 C 0.86614 0.08288 0.46784 0.0
C995 C 0.86222 0.10216 0.49603 0.0
C996 C 0.84179 0.10245 0.52247 0.0
C997 C 0.8258 0.08337 0.5208 0.0
C998 C 0.88732 0.08226 0.43821 0.0
C999 C 0.83742 0.12234 0.55388 0.0
C1000 C 0.91817 0.13477 0.52833 0.0
C1001 C 0.9165 0.15554 0.50392 0.0
C1002 C 0.90013 0.11769 0.52724 0.0
C1003 C 0.8804 0.1211 0.49986 0.0
C1004 C 0.87866 0.14207 0.47503 0.0
C1005 C 0.89659 0.15929 0.47797 0.0
C1006 C 0.90228 0.0959 0.55517 0.0
C1007 C 0.85828 0.14594 0.44445 0.0
H1008 H 0.85363 0.04858 0.44735 0.0
H1009 H 0.81034 0.08326 0.54148 0.0
H1010 H 0.8886 0.09908 0.41988 0.0
H1011 H 0.90383 0.0805 0.45727 0.0
H1012 H 0.88642 0.06724 0.4152 0.0
H1013 H 0.82015 0.12044 0.5707 0.0
H1014 H 0.8518 0.12262 0.57817 0.0
H1015 H 0.83775 0.13971 0.5372 0.0
H1016 H 0.93348 0.13205 0.54878 0.0
H1017 H 0.89544 0.17535 0.45895 0.0
H1018 H 0.90423 0.07989 0.53481 0.0
H1019 H 0.88596 0.09356 0.57458 0.0
H1020 H 0.91775 0.09689 0.57717 0.0
H1021 H 0.85821 0.13174 0.41981 0.0
H1022 H 0.85933 0.1634 0.42804 0.0
H1023 H 0.84115 0.14484 0.46181 0.0
C1024 C 0.92827 0.85447 0.44166 0.0
C1025 C 0.94079 0.84795 0.47868 0.0
C1026 C 0.90822 0.86912 0.44411 0.0
C1027 C 0.90061 0.87761 0.48452 0.0
C1028 C 0.91288 0.87073 0.52211 0.0
C1029 C 0.93279 0.8559 0.51876 0.0
C1030 C 0.89545 0.87589 0.40335 0.0
C1031 C 0.90535 0.87951 0.56576 0.0
C1032 C 0.86555 0.93503 0.48653 0.0
C1033 C 0.84222 0.9268 0.49169 0.0
C1034 C 0.88467 0.91919 0.48426 0.0
C1035 C 0.88042 0.8945 0.48724 0.0
C1036 C 0.85696 0.88603 0.49245 0.0
C1037 C 0.83813 0.90228 0.4946 0.0
C1038 C 0.90946 0.92891 0.47864 0.0
C1039 C 0.85176 0.85981 0.49572 0.0
H1040 H 0.93423 0.84827 0.4106 0.0
H1041 H 0.94236 0.85093 0.54753 0.0
H1042 H 0.87635 0.87137 0.4059 0.0
H1043 H 0.89669 0.89534 0.39838 0.0
H1044 H 0.9029 0.86684 0.37473 0.0
H1045 H 0.91616 0.87173 0.59199 0.0
H1046 H 0.90702 0.89911 0.56712 0.0
H1047 H 0.88643 0.87512 0.57155 0.0
H1048 H 0.86893 0.95391 0.48422 0.0
H1049 H 0.8202 0.89572 0.49869 0.0
H1050 H 0.91739 0.92184 0.44871 0.0
H1051 H 0.92087 0.92306 0.5056 0.0
H1052 H 0.90977 0.94859 0.47718 0.0
H1053 H 0.85803 0.85061 0.46641 0.0
H1054 H 0.83254 0.85612 0.49987 0.0
H1055 H 0.86151 0.85208 0.52325 0.0
C1056 C 0.64332 0.56643 0.52786 0.0
C1057 C 0.65715 0.56278 0.56463 0.0
C1058 C 0.62658 0.58481 0.52619 0.0
C1059 C 0.6234 0.59963 0.56237 0.0
C1060 C 0.63747 0.59617 0.5994 0.0
C1061 C 0.65431 0.57789 0.59995 0.0
C1062 C 0.61215 0.58823 0.48589 0.0
C1063 C 0.63441 0.61147 0.63876 0.0
C1064 C 0.59368 0.65951 0.54878 0.0
C1065 C 0.5703 0.65447 0.56126 0.0
C1066 C 0.61109 0.64177 0.54858 0.0
C1067 C 0.60507 0.61853 0.5618 0.0
C1068 C 0.58157 0.61336 0.57482 0.0
C1069 C 0.56441 0.63136 0.57407 0.0
C1070 C 0.63589 0.64786 0.53394 0.0
C1071 C 0.57459 0.58884 0.58972 0.0
H1072 H 0.64555 0.55488 0.50037 0.0
H1073 H 0.66486 0.57509 0.62856 0.0
H1074 H 0.59307 0.58547 0.49297 0.0
H1075 H 0.61417 0.60667 0.47402 0.0
H1076 H 0.61746 0.57581 0.45997 0.0
H1077 H 0.64692 0.6066 0.66481 0.0
H1078 H 0.63719 0.6304 0.63047 0.0
H1079 H 0.61602 0.60975 0.65105 0.0
H1080 H 0.59833 0.67729 0.53849 0.0
H1081 H 0.5464 0.62738 0.58391 0.0
H1082 H 0.64099 0.63639 0.50655 0.0
H1083 H 0.64873 0.64442 0.56015 0.0
H1084 H 0.63758 0.66671 0.52397 0.0
H1085 H 0.57777 0.57577 0.56378 0.0
H1086 H 0.55564 0.58782 0.59934 0.0
H1087 H 0.58572 0.58352 0.61743 0.0
C1088 C 0.3382 0.5922 0.57163 0.0
C1089 C 0.34101 0.57119 0.54816 0.0
C1090 C 0.35619 0.60941 0.57263 0.0
C1091 C 0.37712 0.60583 0.54841 0.0
C1092 C 0.37985 0.58481 0.52405 0.0
C1093 C 0.3619 0.56754 0.5248 0.0
C1094 C 0.35295 0.63124 0.60005 0.0
C1095 C 0.40162 0.58066 0.49689 0.0
C1096 C 0.41413 0.66023 0.52136 0.0
C1097 C 0.43319 0.65773 0.54975 0.0
C1098 C 0.39585 0.64329 0.52017 0.0
C1099 C 0.39634 0.62392 0.5491 0.0
C1100 C 0.4153 0.6217 0.57857 0.0
C1101 C 0.43373 0.63843 0.57801 0.0
C1102 C 0.37629 0.64587 0.48746 0.0
C1103 C 0.41609 0.60172 0.61079 0.0
H1104 H 0.3221 0.59496 0.58993 0.0
H1105 H 0.36397 0.5514 0.50628 0.0
H1106 H 0.36767 0.63261 0.62354 0.0
H1107 H 0.35355 0.64739 0.57981 0.0
H1108 H 0.33587 0.63103 0.61781 0.0
H1109 H 0.40051 0.56389 0.4783 0.0
H1110 H 0.40406 0.59562 0.47418 0.0
H1111 H 0.41763 0.57997 0.51751 0.0
H1112 H 0.41388 0.67506 0.49922 0.0
H1113 H 0.44842 0.63662 0.60019 0.0
H1114 H 0.35889 0.64738 0.5038 0.0
H1115 H 0.37557 0.62982 0.46689 0.0
H1116 H 0.3788 0.66167 0.46666 0.0
H1117 H 0.39956 0.60157 0.63009 0.0
H1118 H 0.43148 0.60321 0.63287 0.0
H1119 H 0.41716 0.58443 0.59394 0.0
C1120 C 0.35356 0.43344 0.52795 0.0
C1121 C 0.33897 0.4366 0.56388 0.0
C1122 C 0.36997 0.41478 0.52624 0.0
C1123 C 0.37206 0.39916 0.56158 0.0
C1124 C 0.35722 0.40213 0.59776 0.0
C1125 C 0.3407 0.42071 0.59833 0.0
C1126 C 0.38524 0.41192 0.48681 0.0
C1127 C 0.35915 0.38599 0.63626 0.0
C1128 C 0.40174 0.33947 0.54485 0.0
C1129 C 0.42497 0.34416 0.55863 0.0
C1130 C 0.38433 0.35721 0.54558 0.0
C1131 C 0.39019 0.38006 0.5611 0.0
C1132 C 0.41348 0.38479 0.57578 0.0
C1133 C 0.43064 0.36683 0.57404 0.0
C1134 C 0.35976 0.35162 0.52913 0.0
C1135 C 0.42028 0.40886 0.59317 0.0
H1136 H 0.35216 0.44558 0.50111 0.0
H1137 H 0.32955 0.42315 0.62628 0.0
H1138 H 0.40418 0.41429 0.49541 0.0
H1139 H 0.38326 0.39374 0.47366 0.0
H1140 H 0.38066 0.42489 0.46132 0.0
H1141 H 0.34604 0.39047 0.66158 0.0
H1142 H 0.3564 0.36728 0.62648 0.0
H1143 H 0.37722 0.38727 0.65014 0.0
H1144 H 0.39727 0.32203 0.53262 0.0
H1145 H 0.44852 0.37053 0.58497 0.0
H1146 H 0.35538 0.3635 0.50191 0.0
H1147 H 0.34644 0.3549 0.55459 0.0
H1148 H 0.35806 0.33293 0.51823 0.0
H1149 H 0.41799 0.42254 0.56796 0.0
H1150 H 0.43893 0.40942 0.60459 0.0
H1151 H 0.40843 0.41371 0.62019 0.0
C1152 C 0.58203 0.34009 0.526 0.0
C1153 C 0.56195 0.34319 0.55175 0.0
C1154 C 0.60014 0.3572 0.52535 0.0
C1155 C 0.59843 0.37736 0.5523 0.0
C1156 C 0.5784 0.38021 0.57916 0.0
C1157 C 0.56017 0.36328 0.57795 0.0
C1158 C 0.62088 0.35392 0.49531 0.0
C1159 C 0.5763 0.40103 0.60938 0.0
C1160 C 0.65587 0.40957 0.5779 0.0
C1161 C 0.65402 0.42977 0.55194 0.0
C1162 C 0.63766 0.39261 0.57902 0.0
C1163 C 0.61757 0.39553 0.55233 0.0
C1164 C 0.61574 0.41581 0.52571 0.0
C1165 C 0.63384 0.43292 0.52642 0.0
C1166 C 0.63988 0.37165 0.6089 0.0
C1167 C 0.59492 0.41918 0.4959 0.0
H1168 H 0.58323 0.32464 0.50542 0.0
H1169 H 0.54466 0.36554 0.59809 0.0
H1170 H 0.62237 0.36948 0.47366 0.0
H1171 H 0.63763 0.35285 0.51383 0.0
H1172 H 0.61916 0.33764 0.47548 0.0
H1173 H 0.56011 0.40003 0.62959 0.0
H1174 H 0.59205 0.40181 0.63067 0.0
H1175 H 0.57584 0.41784 0.59093 0.0
H1176 H 0.67144 0.40723 0.59784 0.0
H1177 H 0.63255 0.44844 0.506 0.0
H1178 H 0.64033 0.35493 0.59018 0.0
H1179 H 0.62418 0.37074 0.63029 0.0
H1180 H 0.65612 0.37259 0.629 0.0
H1181 H 0.5934 0.40373 0.47403 0.0
H1182 H 0.59656 0.43556 0.47629 0.0
H1183 H 0.57822 0.42015 0.51457 0.0
C1184 C 0.64797 0.43613 0.02751 0.0
C1185 C 0.66194 0.4398 0.99093 0.0
C1186 C 0.63166 0.41733 0.02943 0.0
C1187 C 0.62905 0.40209 0.99366 0.0
C1188 C 0.64329 0.40555 0.95683 0.0
C1189 C 0.6597 0.42426 0.95604 0.0
C1190 C 0.61705 0.41394 0.06952 0.0
C1191 C 0.64081 0.38984 0.91787 0.0
C1192 C 0.60002 0.34182 0.00835 0.0
C1193 C 0.57665 0.3464 0.99529 0.0
C1194 C 0.61722 0.35982 0.00834 0.0
C1195 C 0.61099 0.38286 0.9943 0.0
C1196 C 0.58752 0.38755 0.98064 0.0
C1197 C 0.57058 0.3693 0.98161 0.0
C1198 C 0.642 0.35424 0.02368 0.0
C1199 C 0.58031 0.41182 0.96485 0.0
H1200 H 0.64975 0.44799 0.05468 0.0
H1201 H 0.67037 0.42707 0.92758 0.0
H1202 H 0.59797 0.41632 0.06201 0.0
H1203 H 0.61927 0.39561 0.08186 0.0
H1204 H 0.62201 0.42663 0.09525 0.0
H1205 H 0.65348 0.39468 0.89203 0.0
H1206 H 0.6438 0.37104 0.92682 0.0
H1207 H 0.62251 0.39114 0.90499 0.0
H1208 H 0.60481 0.32421 0.01928 0.0
H1209 H 0.55259 0.37295 0.97129 0.0
H1210 H 0.64672 0.36599 0.05092 0.0
H1211 H 0.65497 0.35772 0.9977 0.0
H1212 H 0.64388 0.3355 0.03412 0.0
H1213 H 0.58308 0.42516 0.99051 0.0
H1214 H 0.56144 0.41244 0.95469 0.0
H1215 H 0.59159 0.4171 0.93731 0.0
C1216 C 0.58124 0.65995 0.03011 0.0
C1217 C 0.56115 0.65574 0.00489 0.0
C1218 C 0.60003 0.64364 0.03092 0.0
C1219 C 0.59897 0.62317 0.00463 0.0
C1220 C 0.57891 0.61921 0.97826 0.0
C1221 C 0.56002 0.63535 0.97935 0.0
C1222 C 0.62078 0.64807 0.06047 0.0
C1223 C 0.57748 0.59804 0.94871 0.0
C1224 C 0.65737 0.59301 0.97871 0.0
C1225 C 0.65635 0.57293 0.00508 0.0
C1226 C 0.63859 0.6093 0.97762 0.0
C1227 C 0.61878 0.60582 0.00479 0.0
C1228 C 0.61785 0.5857 0.03196 0.0
C1229 C 0.63649 0.56923 0.03118 0.0
C1230 C 0.63986 0.63008 0.94715 0.0
C1231 C 0.59736 0.58179 0.06233 0.0
H1232 H 0.58193 0.67565 0.05017 0.0
H1233 H 0.54448 0.63225 0.95963 0.0
H1234 H 0.62299 0.6328 0.08258 0.0
H1235 H 0.63737 0.64964 0.04161 0.0
H1236 H 0.61852 0.66446 0.0798 0.0
H1237 H 0.56118 0.5982 0.92872 0.0
H1238 H 0.59316 0.59769 0.92721 0.0
H1239 H 0.57773 0.58141 0.96768 0.0
H1240 H 0.67271 0.59575 0.95833 0.0
H1241 H 0.63586 0.5538 0.05189 0.0
H1242 H 0.63969 0.64696 0.96538 0.0
H1243 H 0.62407 0.63012 0.92591 0.0
H1244 H 0.65605 0.62966 0.92689 0.0
H1245 H 0.5953 0.59743 0.08361 0.0
H1246 H 0.5998 0.56574 0.08253 0.0
H1247 H 0.58061 0.57985 0.04402 0.0
C1248 C 0.34076 0.57322 0.95866 0.0
C1249 C 0.3382 0.55738 0.993 0.0
C1250 C 0.35733 0.59176 0.96034 0.0
C1251 C 0.37143 0.59469 0.99751 0.0
C1252 C 0.36851 0.57912 0.03272 0.0
C1253 C 0.35202 0.56053 0.02994 0.0
C1254 C 0.36012 0.60789 0.922 0.0
C1255 C 0.38297 0.58195 0.07314 0.0
C1256 C 0.43 0.62744 0.98758 0.0
C1257 C 0.42387 0.65018 0.00198 0.0
C1258 C 0.41305 0.60924 0.98573 0.0
C1259 C 0.38952 0.61382 -0.00079 0.0
C1260 C 0.38325 0.63668 0.01405 0.0
C1261 C 0.40046 0.65464 0.01496 0.0
C1262 C 0.42028 0.58514 0.96916 0.0
C1263 C 0.35841 0.64213 0.0292 0.0
H1264 H 0.33021 0.57082 0.92994 0.0
H1265 H 0.35 0.54841 0.05668 0.0
H1266 H 0.35714 0.6266 0.93157 0.0
H1267 H 0.37849 0.60666 0.90945 0.0
H1268 H 0.34759 0.60338 0.89575 0.0
H1269 H 0.37787 0.56895 0.09827 0.0
H1270 H 0.40208 0.5796 0.06579 0.0
H1271 H 0.38075 0.60012 0.0862 0.0
H1272 H 0.44802 0.62391 0.97734 0.0
H1273 H 0.39562 0.67213 0.02644 0.0
H1274 H 0.40917 0.58024 0.94116 0.0
H1275 H 0.41729 0.5715 0.99421 0.0
H1276 H 0.43922 0.58457 0.95939 0.0
H1277 H 0.34557 0.63904 0.00285 0.0
H1278 H 0.35652 0.66073 0.04044 0.0
H1279 H 0.3535 0.63003 0.05583 0.0
C1280 C 0.44008 0.3617 0.976 0.0
C1281 C 0.43935 0.34193 0.00316 0.0
C1282 C 0.42125 0.37792 0.97482 0.0
C1283 C 0.40166 0.37466 0.00256 0.0
C1284 C 0.401 0.35484 0.03046 0.0
C1285 C 0.41972 0.33845 0.02989 0.0
C1286 C 0.42225 0.39841 0.94368 0.0
C1287 C 0.38072 0.35116 0.06136 0.0
C1288 C 0.36439 0.42905 0.02721 0.0
C1289 C 0.34414 0.42476 0.0024 0.0
C1290 C 0.38313 0.4127 0.02807 0.0
C1291 C 0.38185 0.39202 0.00237 0.0
C1292 C 0.36166 0.38794 0.97643 0.0
C1293 C 0.34284 0.40417 0.97734 0.0
C1294 C 0.40408 0.41731 0.05707 0.0
C1295 C 0.35998 0.3665 0.94755 0.0
H1296 H 0.45523 0.36426 0.95509 0.0
H1297 H 0.41932 0.32325 0.05119 0.0
H1298 H 0.40631 0.39823 0.92281 0.0
H1299 H 0.42218 0.41546 0.9614 0.0
H1300 H 0.4383 0.39783 0.92306 0.0
H1301 H 0.38326 0.33524 0.08185 0.0
H1302 H 0.37884 0.36694 0.08236 0.0
H1303 H 0.36384 0.34915 0.04348 0.0
H1304 H 0.36525 0.44486 0.04694 0.0
H1305 H 0.3272 0.40095 0.95796 0.0
H1306 H 0.42056 0.41866 0.03782 0.0
H1307 H 0.40639 0.40224 0.07958 0.0
H1308 H 0.40201 0.43388 0.07597 0.0
H1309 H 0.37548 0.36595 0.92565 0.0
H1310 H 0.34351 0.36648 0.928 0.0
H1311 H 0.36039 0.35004 0.96701 0.0
C1312 C 0.97507 0.246 0.37098 0.0
C1313 C 0.98724 0.22842 0.39404 0.0
C1314 C 0.97941 0.24948 0.3271 0.0
C1315 C 0.9962 0.23498 0.30596 0.0
C1316 C 0.00967 0.21838 0.32972 0.0
C1317 C 0.00508 0.21537 0.37347 0.0
C1318 C 0.96499 0.26763 0.30293 0.0
C1319 C 0.02785 0.20263 0.3084 0.0
C1320 C 0.98782 0.21525 0.19135 0.0
C1321 C 0.00617 0.22743 0.17042 0.0
C1322 C 0.98348 0.21868 0.23508 0.0
C1323 C 0.99775 0.23478 0.25847 0.0
C1324 C 0.01516 0.24842 0.23697 0.0
C1325 C 0.01922 0.24454 0.19311 0.0
C1326 C 0.96463 0.20387 0.25677 0.0
C1327 C 0.03046 0.26602 0.26075 0.0
H1328 H 0.96141 0.25636 0.38669 0.0
H1329 H 0.01483 0.20198 0.39109 0.0
H1330 H 0.9764 0.27794 0.28074 0.0
H1331 H 0.9514 0.25844 0.28327 0.0
H1332 H 0.9558 0.28012 0.32489 0.0
H1333 H 0.03825 0.19216 0.332 0.0
H1334 H 0.01878 0.19011 0.28636 0.0
H1335 H 0.0403 0.2134 0.28892 0.0
H1336 H 0.97741 0.20224 0.17401 0.0
H1337 H 0.0333 0.25421 0.17713 0.0
H1338 H 0.95267 0.21529 0.276 0.0
H1339 H 0.97314 0.19113 0.27911 0.0
H1340 H 0.95375 0.19369 0.23343 0.0
H1341 H 0.01958 0.27696 0.28279 0.0
H1342 H 0.0402 0.27796 0.23852 0.0
H1343 H 0.04363 0.25633 0.28052 0.0
C1344 C 0.77201 0.00589 0.36151 0.0
C1345 C 0.75992 0.98814 0.38432 0.0
C1346 C 0.76805 0.00943 0.31771 0.0
C1347 C 0.75117 0.99521 0.29608 0.0
C1348 C 0.73743 0.97863 0.31954 0.0
C1349 C 0.74213 0.97509 0.36341 0.0
C1350 C 0.78326 0.02722 0.29403 0.0
C1351 C 0.7187 0.96372 0.29792 0.0
C1352 C 0.74228 0.01742 0.18252 0.0
C1353 C 0.75928 0.00394 0.16046 0.0
C1354 C 0.73764 0.01331 0.22621 0.0
C1355 C 0.75066 0.99568 0.24838 0.0
C1356 C 0.76645 0.98087 0.22545 0.0
C1357 C 0.77037 0.98503 0.18178 0.0
C1358 C 0.72 0.02888 0.24919 0.0
C1359 C 0.78084 0.96193 0.24775 0.0
H1360 H 0.78559 0.01633 0.37733 0.0
H1361 H 0.73246 0.96155 0.38084 0.0
H1362 H 0.79497 0.01779 0.27107 0.0
H1363 H 0.77201 0.03954 0.27526 0.0
H1364 H 0.79457 0.03785 0.31601 0.0
H1365 H 0.70612 0.95599 0.32152 0.0
H1366 H 0.70857 0.97435 0.27423 0.0
H1367 H 0.7273 0.94894 0.28039 0.0
H1368 H 0.73332 0.03183 0.16621 0.0
H1369 H 0.78329 0.97424 0.16504 0.0
H1370 H 0.72961 0.04279 0.26739 0.0
H1371 H 0.70943 0.0184 0.27248 0.0
H1372 H 0.70774 0.03776 0.22641 0.0
H1373 H 0.79381 0.97043 0.26969 0.0
H1374 H 0.79073 0.95059 0.22476 0.0
H1375 H 0.76921 0.95042 0.26745 0.0
C1376 C 0.98233 0.74841 0.18485 0.0
C1377 C 0.99499 0.76671 0.16458 0.0
C1378 C 0.98568 0.74357 0.22865 0.0
C1379 C 0.00173 0.7576 0.25264 0.0
C1380 C 0.01575 0.77489 0.23162 0.0
C1381 C 0.01234 0.77908 0.18785 0.0
C1382 C 0.97098 0.72446 0.24969 0.0
C1383 C 0.03307 0.79031 0.25595 0.0
C1384 C 0.98963 0.77593 0.36675 0.0
C1385 C 0.00823 0.76479 0.38877 0.0
C1386 C 0.98629 0.77238 0.32277 0.0
C1387 C 0.00167 0.75696 0.30026 0.0
C1388 C 0.01906 0.74393 0.32296 0.0
C1389 C 0.02229 0.74815 0.367 0.0
C1390 C 0.96751 0.78669 0.29984 0.0
C1391 C 0.03529 0.72675 0.30032 0.0
H1392 H 0.96912 0.73851 0.16702 0.0
H1393 H 0.02249 0.79302 0.17245 0.0
H1394 H 0.98172 0.71427 0.27311 0.0
H1395 H 0.9561 0.73274 0.26746 0.0
H1396 H 0.96341 0.71198 0.22574 0.0
H1397 H 0.04387 0.80167 0.23433 0.0
H1398 H 0.02322 0.80198 0.27839 0.0
H1399 H 0.04524 0.77922 0.27535 0.0
H1400 H 0.97839 0.78854 0.38331 0.0
H1401 H 0.03649 0.73915 0.38384 0.0
H1402 H 0.95642 0.77502 0.27943 0.0
H1403 H 0.97616 0.79987 0.27852 0.0
H1404 H 0.95574 0.79632 0.32247 0.0
H1405 H 0.0254 0.71622 0.27616 0.0
H1406 H 0.04402 0.71443 0.3232 0.0
H1407 H 0.04932 0.73677 0.28316 0.0
C1408 C 0.22399 0.99048 0.3738 0.0
C1409 C 0.23378 0.01042 0.39421 0.0
C1410 C 0.2278 0.98623 0.33012 0.0
C1411 C 0.24203 0.00211 0.30617 0.0
C1412 C 0.25359 0.02114 0.32723 0.0
C1413 C 0.24921 0.02519 0.37103 0.0
C1414 C 0.21505 0.96574 0.30899 0.0
C1415 C 0.26937 0.03811 0.303 0.0
C1416 C 0.25404 0.98108 0.19238 0.0
C1417 C 0.23539 0.99199 0.17004 0.0
C1418 C 0.25752 0.98536 0.23639 0.0
C1419 C 0.24176 0.0006 0.25853 0.0
C1420 C 0.22369 0.01254 0.23565 0.0
C1421 C 0.22083 0.0082 0.19177 0.0
C1422 C 0.27733 0.97273 0.25951 0.0
C1423 C 0.20637 0.02884 0.25797 0.0
H1424 H 0.21228 0.97875 0.3914 0.0
H1425 H 0.2571 0.04047 0.38658 0.0
H1426 H 0.20118 0.97269 0.2871 0.0
H1427 H 0.22755 0.95513 0.2894 0.0
H1428 H 0.20643 0.95382 0.33271 0.0
H1429 H 0.28042 0.04902 0.32495 0.0
H1430 H 0.28119 0.02835 0.28071 0.0
H1431 H 0.25826 0.05023 0.28348 0.0
H1432 H 0.26554 0.9687 0.17582 0.0
H1433 H 0.20643 0.01685 0.17493 0.0
H1434 H 0.26984 0.95822 0.27937 0.0
H1435 H 0.28674 0.98507 0.28141 0.0
H1436 H 0.29036 0.96492 0.23685 0.0
H1437 H 0.19541 0.01845 0.28081 0.0
H1438 H 0.19433 0.03795 0.2351 0.0
H1439 H 0.21601 0.04248 0.27673 0.0
C1440 C 0.99299 0.79532 0.86511 0.0
C1441 C 0.0006 0.77648 0.8908 0.0
C1442 C 0.99414 0.79383 0.82036 0.0
C1443 C 0.00278 0.77282 0.80108 0.0
C1444 C 0.01031 0.75363 0.82702 0.0
C1445 C 0.00919 0.75574 0.87178 0.0
C1446 C 0.98614 0.81473 0.79376 0.0
C1447 C 0.01945 0.73091 0.80749 0.0
C1448 C 0.98632 0.76335 0.68436 0.0
C1449 C 0.00697 0.77105 0.66381 0.0
C1450 C 0.98488 0.76324 0.72928 0.0
C1451 C 0.00448 0.77127 0.75374 0.0
C1452 C 0.02543 0.77887 0.7329 0.0
C1453 C 0.02642 0.77862 0.68808 0.0
C1454 C 0.96232 0.75488 0.75052 0.0
C1455 C 0.04658 0.78781 0.75787 0.0
H1456 H 0.98592 0.81116 0.88013 0.0
H1457 H 0.01485 0.74116 0.89199 0.0
H1458 H 0.00093 0.82099 0.77321 0.0
H1459 H 0.97148 0.8093 0.77216 0.0
H1460 H 0.97996 0.82978 0.81384 0.0
H1461 H 0.02412 0.71749 0.83216 0.0
H1462 H 0.00586 0.72323 0.7858 0.0
H1463 H 0.03541 0.73464 0.78781 0.0
H1464 H 0.97135 0.75754 0.66525 0.0
H1465 H 0.04226 0.78484 0.67188 0.0
H1466 H 0.95413 0.76972 0.76856 0.0
H1467 H 0.96633 0.74064 0.77398 0.0
H1468 H 0.9492 0.74805 0.72699 0.0
H1469 H 0.04156 0.80385 0.77635 0.0
H1470 H 0.06179 0.79234 0.73675 0.0
H1471 H 0.05243 0.77421 0.78129 0.0
C1472 C 0.21134 0.00936 0.69506 0.0
C1473 C 0.23114 0.00883 0.66807 0.0
C1474 C 0.2139 0.0073 0.73957 0.0
C1475 C 0.23685 0.00459 0.75737 0.0
C1476 C 0.25693 0.00402 0.73013 0.0
C1477 C 0.25382 0.0062 0.68563 0.0
C1478 C 0.19205 0.00804 0.76754 0.0
C1479 C 0.28163 0.00103 0.74798 0.0
C1480 C 0.24165 0.01931 0.87581 0.0
C1481 C 0.23895 0.99685 0.89431 0.0
C1482 C 0.24194 0.02206 0.83108 0.0
C1483 C 0.23955 0.00183 0.80448 0.0
C1484 C 0.23781 0.97901 0.82315 0.0
C1485 C 0.23739 0.97683 0.86788 0.0
C1486 C 0.24378 0.04668 0.81232 0.0
C1487 C 0.23527 0.957 0.79593 0.0
H1488 H 0.19384 0.01168 0.68128 0.0
H1489 H 0.26907 0.0058 0.66448 0.0
H1490 H 0.19046 0.99127 0.78593 0.0
H1491 H 0.19357 0.02269 0.79113 0.0
H1492 H 0.17555 0.01061 0.74863 0.0
H1493 H 0.29538 0.00124 0.72249 0.0
H1494 H 0.28554 0.01543 0.77117 0.0
H1495 H 0.28287 0.984 0.76567 0.0
H1496 H 0.2429 0.03476 0.8964 0.0
H1497 H 0.23488 0.95948 0.88216 0.0
H1498 H 0.22692 0.05128 0.79598 0.0
H1499 H 0.25804 0.04735 0.78785 0.0
H1500 H 0.24745 0.06031 0.83717 0.0
H1501 H 0.21793 0.95732 0.77911 0.0
H1502 H 0.2363 0.94049 0.81527 0.0
H1503 H 0.24931 0.95649 0.77103 0.0
C1504 C 0.01633 0.23705 0.87238 0.0
C1505 C -0.0004 0.22461 0.89701 0.0
C1506 C 0.0134 0.24013 0.82819 0.0
C1507 C 0.9948 0.22805 0.8069 0.0
C1508 C 0.97796 0.21513 0.8314 0.0
C1509 C 0.97983 0.21487 0.87622 0.0
C1510 C 0.03081 0.25598 0.80501 0.0
C1511 C 0.95813 0.20098 0.81117 0.0
C1512 C 0.97251 0.23716 0.69334 0.0
C1513 C 0.98988 0.22555 0.66892 0.0
C1514 C 0.97484 0.23975 0.73778 0.0
C1515 C 0.9936 0.22805 0.75927 0.0
C1516 C 0.01098 0.21583 0.73491 0.0
C1517 C 0.00963 0.21607 0.69008 0.0
C1518 C 0.9567 0.25472 0.76094 0.0
C1519 C 0.03091 0.20191 0.7553 0.0
H1520 H 0.03217 0.24413 0.88693 0.0
H1521 H 0.96607 0.20624 0.89465 0.0
H1522 H 0.04798 0.24659 0.8016 0.0
H1523 H 0.0245 0.26157 0.77288 0.0
H1524 H 0.03433 0.27217 0.82431 0.0
H1525 H 0.95453 0.18463 0.82998 0.0
H1526 H 0.94165 0.21169 0.81164 0.0
H1527 H 0.96203 0.19572 0.77765 0.0
H1528 H 0.95668 0.24399 0.67835 0.0
H1529 H 0.02381 0.20803 0.67183 0.0
H1530 H 0.9625 0.26018 0.79345 0.0
H1531 H 0.93983 0.24467 0.76351 0.0
H1532 H 0.95279 0.27097 0.74208 0.0
H1533 H 0.04721 0.21293 0.75553 0.0
H1534 H 0.03494 0.18579 0.73615 0.0
H1535 H 0.02685 0.19628 0.78857 0.0
C1536 C 0.74816 0.00331 0.6781 0.0
C1537 C 0.7692 0.99549 0.65909 0.0
C1538 C 0.7464 0.00557 0.72282 0.0
C1539 C 0.76622 -0.00012 0.74877 0.0
C1540 C 0.78749 0.9919 0.72948 0.0
C1541 C 0.78866 0.98967 0.68481 0.0
C1542 C 0.72341 0.014 0.74231 0.0
C1543 C 0.80904 0.98576 0.75601 0.0
C1544 C 0.77236 0.02613 0.86007 0.0
C1545 C 0.76632 0.00677 0.88597 0.0
C1546 C 0.77179 0.02432 0.81528 0.0
C1547 C 0.76499 0.00261 0.79608 0.0
C1548 C 0.75833 0.98315 0.82221 0.0
C1549 C 0.75917 0.98545 0.867 0.0
C1550 C 0.7792 0.0454 0.78854 0.0
C1551 C 0.75086 0.95976 0.80286 0.0
H1552 H 0.7331 0.00762 0.65793 0.0
H1553 H 0.80478 0.98323 0.66986 0.0
H1554 H 0.71664 0.0006 0.76532 0.0
H1555 H 0.72646 0.03062 0.76055 0.0
H1556 H 0.70956 0.01733 0.7177 0.0
H1557 H 0.82421 0.97986 0.73597 0.0
H1558 H 0.81468 0.00141 0.77503 0.0
H1559 H 0.80461 0.97143 0.77904 0.0
H1560 H 0.77818 0.04253 0.87491 0.0
H1561 H 0.75447 0.97054 0.88726 0.0
H1562 H 0.76516 0.0498 0.76494 0.0
H1563 H 0.79545 0.04098 0.77017 0.0
H1564 H 0.78282 0.06135 0.8084 0.0
H1565 H 0.7363 0.96255 0.77949 0.0
H1566 H 0.74483 0.94688 0.82753 0.0
H1567 H 0.76596 0.95186 0.78509 0.0
C1568 C 0.50687 0.71922 0.8725 0.0
C1569 C 0.48849 0.73054 0.89487 0.0
C1570 C 0.51061 0.72346 0.82883 0.0
C1571 C 0.49584 0.73973 0.80693 0.0
C1572 C 0.47861 0.75278 0.83003 0.0
C1573 C 0.475 0.74791 0.87377 0.0
C1574 C 0.52919 0.70911 0.8055 0.0
C1575 C 0.46301 0.77079 0.80806 0.0
C1576 C 0.51699 0.75014 0.69306 0.0
C1577 C 0.50424 0.73255 0.67101 0.0
C1578 C 0.51309 0.75422 0.73698 0.0
C1579 C 0.49633 0.74014 0.75928 0.0
C1580 C 0.48224 0.72363 0.73646 0.0
C1581 C 0.48624 0.72018 0.69263 0.0
C1582 C 0.52794 0.7725 0.75995 0.0
C1583 C 0.46418 0.70819 0.75893 0.0
H1584 H 0.51767 0.70603 0.88855 0.0
H1585 H 0.46096 0.757 0.89087 0.0
H1586 H 0.5204 0.69667 0.78295 0.0
H1587 H 0.54084 0.72089 0.78632 0.0
H1588 H 0.54044 0.69864 0.82778 0.0
H1589 H 0.45434 0.78283 0.83146 0.0
H1590 H 0.47339 0.78158 0.78495 0.0
H1591 H 0.44894 0.76146 0.78976 0.0
H1592 H 0.53072 0.76004 0.67655 0.0
H1593 H 0.476 0.7068 0.67586 0.0
H1594 H 0.54232 0.76348 0.77789 0.0
H1595 H 0.51711 0.78251 0.78349 0.0
H1596 H 0.53619 0.78524 0.73721 0.0
H1597 H 0.47342 0.6957 0.78078 0.0
H1598 H 0.45331 0.69769 0.73605 0.0
H1599 H 0.45212 0.71918 0.77876 0.0
C1600 C 0.27669 0.50526 0.869 0.0
C1601 C 0.26499 0.48628 0.88906 0.0
C1602 C 0.27348 0.51003 0.82535 0.0
C1603 C 0.25805 0.49556 0.80094 0.0
C1604 C 0.24488 0.47741 0.82147 0.0
C1605 C 0.24858 0.4729 0.86534 0.0
C1606 C 0.28793 0.52956 0.80481 0.0
C1607 C 0.22793 0.46189 0.79666 0.0
C1608 C 0.24758 0.51882 0.68813 0.0
C1609 C 0.26548 0.50697 0.66534 0.0
C1610 C 0.2438 0.51422 0.73194 0.0
C1611 C 0.25839 0.49758 0.75338 0.0
C1612 C 0.27557 0.48468 0.72997 0.0
C1613 C 0.27884 0.48948 0.68635 0.0
C1614 C 0.22503 0.52803 0.75569 0.0
C1615 C 0.29158 0.46681 0.75153 0.0
H1616 H 0.28926 0.51588 0.88691 0.0
H1617 H 0.23926 0.45833 0.88056 0.0
H1618 H 0.3012 0.52167 0.78276 0.0
H1619 H 0.27637 0.54133 0.78547 0.0
H1620 H 0.29746 0.54054 0.82886 0.0
H1621 H 0.21615 0.45151 0.81819 0.0
H1622 H 0.21683 0.47274 0.77482 0.0
H1623 H 0.23815 0.44928 0.77657 0.0
H1624 H 0.23701 0.53222 0.67214 0.0
H1625 H 0.29262 0.48008 0.66917 0.0
H1626 H 0.23364 0.54154 0.77636 0.0
H1627 H 0.21461 0.51614 0.77688 0.0
H1628 H 0.21271 0.53725 0.73345 0.0
H1629 H 0.30348 0.47606 0.77444 0.0
H1630 H 0.30271 0.45694 0.72818 0.0
H1631 H 0.28094 0.45384 0.77011 0.0
C1632 C 0.52278 0.24901 0.86489 0.0
C1633 C 0.51064 0.26736 0.88594 0.0
C1634 C 0.51855 0.24414 0.82128 0.0
C1635 C 0.50213 0.25821 0.7982 0.0
C1636 C 0.48878 0.2757 0.82003 0.0
C1637 C 0.49306 0.27991 0.86357 0.0
C1638 C 0.53262 0.22486 0.79946 0.0
C1639 C 0.47114 0.29122 0.79674 0.0
C1640 C 0.51173 0.27606 0.68295 0.0
C1641 C 0.49253 0.265 0.66236 0.0
C1642 C 0.51607 0.27258 0.72668 0.0
C1643 C 0.50108 0.25736 0.75052 0.0
C1644 C 0.48305 0.24442 0.7292 0.0
C1645 C 0.47885 0.2485 0.68532 0.0
C1646 C 0.53553 0.28678 0.74799 0.0
C1647 C 0.46717 0.22747 0.75323 0.0
H1648 H 0.53618 0.23899 0.88198 0.0
H1649 H 0.48333 0.29393 0.87952 0.0
H1650 H 0.52127 0.21464 0.77699 0.0
H1651 H 0.54715 0.23297 0.78048 0.0
H1652 H 0.54061 0.21243 0.823 0.0
H1653 H 0.46099 0.3028 0.81894 0.0
H1654 H 0.48063 0.30267 0.77341 0.0
H1655 H 0.4584 0.28018 0.77841 0.0
H1656 H 0.52272 0.28852 0.66544 0.0
H1657 H 0.46416 0.23963 0.66965 0.0
H1658 H 0.5469 0.2751 0.76782 0.0
H1659 H 0.52752 0.30018 0.76966 0.0
H1660 H 0.54692 0.29616 0.72437 0.0
H1661 H 0.47751 0.21687 0.77664 0.0
H1662 H 0.45773 0.2152 0.73116 0.0
H1663 H 0.45371 0.23767 0.77144 0.0
C1664 C 0.75016 0.48126 0.68737 0.0
C1665 C 0.7319 0.49296 0.66528 0.0
C1666 C 0.7544 0.48585 0.73103 0.0
C1667 C 0.73989 0.50231 0.75305 0.0
C1668 C 0.72237 0.51513 0.73029 0.0
C1669 C 0.71866 0.51035 0.68678 0.0
C1670 C 0.77352 0.47215 0.75405 0.0
C1671 C 0.70643 0.53281 0.75251 0.0
C1672 C 0.72262 0.49349 0.86885 0.0
C1673 C 0.73436 0.51236 0.88916 0.0
C1674 C 0.72545 0.48918 0.82498 0.0
C1675 C 0.74054 0.50401 0.8006 0.0
C1676 C 0.75375 0.52208 0.82128 0.0
C1677 C 0.75043 0.52612 0.86539 0.0
C1678 C 0.71099 0.46971 0.80427 0.0
C1679 C 0.77034 0.53796 0.79645 0.0
H1680 H 0.76066 0.46796 0.671 0.0
H1681 H 0.70458 0.5196 0.67014 0.0
H1682 H 0.78397 0.48404 0.7752 0.0
H1683 H 0.76524 0.45841 0.77466 0.0
H1684 H 0.78577 0.46321 0.73132 0.0
H1685 H 0.69513 0.54277 0.72956 0.0
H1686 H 0.6947 0.52336 0.77544 0.0
H1687 H 0.71712 0.5457 0.77117 0.0
H1688 H 0.71032 0.48258 0.8868 0.0
H1689 H 0.75977 0.54062 0.8808 0.0
H1690 H 0.7225 0.45813 0.7845 0.0
H1691 H 0.69756 0.47767 0.78262 0.0
H1692 H 0.70164 0.45852 0.82825 0.0
H1693 H 0.78134 0.52742 0.77397 0.0
H1694 H 0.78223 0.54824 0.81796 0.0
H1695 H 0.75985 0.55067 0.77705 0.0
C1696 C 0.52614 0.28098 0.18662 0.0
C1697 C 0.50657 0.2756 0.16082 0.0
C1698 C 0.52426 0.28075 0.2314 0.0
C1699 C 0.50237 0.27458 0.25063 0.0
C1700 C 0.48265 0.2687 0.22452 0.0
C1701 C 0.48491 0.2696 0.17972 0.0
C1702 C 0.54552 0.28769 0.25807 0.0
C1703 C 0.45916 0.26161 0.24392 0.0
C1704 C 0.50435 0.25643 0.36788 0.0
C1705 C 0.49653 0.27717 0.388 0.0
C1706 C 0.5059 0.25512 0.32301 0.0
C1707 C 0.49994 0.27523 0.29802 0.0
C1708 C 0.49216 0.29627 0.31838 0.0
C1709 C 0.49022 0.29685 0.36314 0.0
C1710 C 0.51384 0.23226 0.30236 0.0
C1711 C 0.48606 0.31823 0.29294 0.0
H1712 H 0.54279 0.28591 0.17166 0.0
H1713 H 0.46985 0.2655 0.15942 0.0
H1714 H 0.5412 0.30352 0.27772 0.0
H1715 H 0.55016 0.27317 0.28052 0.0
H1716 H 0.5613 0.29181 0.23807 0.0
H1717 H 0.44603 0.25623 0.21921 0.0
H1718 H 0.46171 0.24667 0.2666 0.0
H1719 H 0.45172 0.27665 0.26248 0.0
H1720 H 0.50922 0.24124 0.38728 0.0
H1721 H 0.48371 0.31273 0.37883 0.0
H1722 H 0.53055 0.23521 0.28437 0.0
H1723 H 0.50033 0.22616 0.27895 0.0
H1724 H 0.51683 0.21795 0.32624 0.0
H1725 H 0.50154 0.32378 0.27339 0.0
H1726 H 0.48075 0.33329 0.3138 0.0
H1727 H 0.47133 0.31436 0.27044 0.0
C1728 C 0.74011 0.51837 0.37389 0.0
C1729 C 0.73526 0.49605 0.39142 0.0
C1730 C 0.74204 0.52137 0.32933 0.0
C1731 C 0.73896 0.50153 0.302 0.0
C1732 C 0.73478 0.47882 0.3198 0.0
C1733 C 0.73291 0.47638 0.36434 0.0
C1734 C 0.74653 0.54585 0.31147 0.0
C1735 C 0.73129 0.45726 0.29174 0.0
C1736 C 0.71493 0.51131 0.19007 0.0
C1737 C 0.73532 0.50858 0.16501 0.0
C1738 C 0.71599 0.5094 0.23477 0.0
C1739 C 0.73803 0.50474 0.25478 0.0
C1740 C 0.75877 0.50228 0.22956 0.0
C1741 C 0.75715 0.50423 0.18476 0.0
C1742 C 0.69346 0.51212 0.26051 0.0
C1743 C 0.78255 0.49732 0.24986 0.0
H1744 H 0.74198 0.53353 0.39503 0.0
H1745 H 0.7288 0.45917 0.37795 0.0
H1746 H 0.76159 0.54545 0.2886 0.0
H1747 H 0.7307 0.55194 0.29347 0.0
H1748 H 0.75049 0.55898 0.33704 0.0
H1749 H 0.73003 0.44063 0.31071 0.0
H1750 H 0.71476 0.45928 0.27277 0.0
H1751 H 0.74616 0.45556 0.26868 0.0
H1752 H 0.69811 0.515 0.17459 0.0
H1753 H 0.77287 0.50219 0.1651 0.0
H1754 H 0.69558 0.52648 0.28452 0.0
H1755 H 0.68975 0.4955 0.27836 0.0
H1756 H 0.67789 0.51627 0.24003 0.0
H1757 H 0.7867 0.51111 0.27409 0.0
H1758 H 0.7971 0.49681 0.22588 0.0
H1759 H 0.78198 0.48004 0.26684 0.0
C1760 C 0.52271 0.72137 0.37129 0.0
C1761 C 0.50242 0.72569 0.39589 0.0
C1762 C 0.52156 0.72111 0.32647 0.0
C1763 C 0.49963 0.7256 0.30599 0.0
C1764 C 0.47917 0.73049 0.33083 0.0
C1765 C 0.48077 0.73018 0.37572 0.0
C1766 C 0.54362 0.71531 0.30111 0.0
C1767 C 0.45558 0.73571 0.31001 0.0
C1768 C 0.50125 0.74208 0.18807 0.0
C1769 C 0.49482 0.72059 0.16891 0.0
C1770 C 0.50264 0.7441 0.23283 0.0
C1771 C 0.4979 0.72399 0.25864 0.0
C1772 C 0.49171 0.70215 0.23924 0.0
C1773 C 0.48994 0.70081 0.19454 0.0
C1774 C 0.50891 0.76776 0.25249 0.0
C1775 C 0.48692 0.68021 0.26567 0.0
H1776 H 0.53935 0.7175 0.38722 0.0
H1777 H 0.46514 0.73342 0.39509 0.0
H1778 H 0.54076 0.69876 0.28252 0.0
H1779 H 0.54743 0.72964 0.27775 0.0
H1780 H 0.5594 0.71289 0.32197 0.0
H1781 H 0.44181 0.74073 0.3338 0.0
H1782 H 0.45752 0.75033 0.28645 0.0
H1783 H 0.44932 0.71987 0.29218 0.0
H1784 H 0.50488 0.75736 0.16799 0.0
H1785 H 0.48449 0.68433 0.17954 0.0
H1786 H 0.52534 0.76612 0.2718 0.0
H1787 H 0.49458 0.77349 0.27455 0.0
H1788 H 0.51162 0.78177 0.22792 0.0
H1789 H 0.50246 0.6762 0.28624 0.0
H1790 H 0.48306 0.66444 0.24546 0.0
H1791 H 0.4716 0.68331 0.28724 0.0
C1792 C 0.28475 0.48548 0.19072 0.0
C1793 C 0.26447 0.48693 0.16503 0.0
C1794 C 0.28319 0.48746 0.23537 0.0
C1795 C 0.26074 0.49087 0.25472 0.0
C1796 C 0.24011 0.49201 0.22888 0.0
C1797 C 0.24224 0.49003 0.18415 0.0
C1798 C 0.30561 0.48616 0.26178 0.0
C1799 C 0.21591 0.49563 0.24844 0.0
C1800 C 0.25843 0.47774 0.37405 0.0
C1801 C 0.26186 0.5004 0.39131 0.0
C1802 C 0.25705 0.47441 0.32949 0.0
C1803 C 0.25921 0.49425 0.30187 0.0
C1804 C 0.26188 0.51726 0.31938 0.0
C1805 C 0.26324 0.52003 0.36392 0.0
C1806 C 0.25416 0.44963 0.31196 0.0
C1807 C 0.26435 0.53884 0.29103 0.0
H1808 H 0.30189 0.48273 0.17576 0.0
H1809 H 0.22659 0.49107 0.16404 0.0
H1810 H 0.3082 0.50305 0.27945 0.0
H1811 H 0.30412 0.47181 0.28597 0.0
H1812 H 0.32157 0.48283 0.2418 0.0
H1813 H 0.20155 0.49513 0.22406 0.0
H1814 H 0.21238 0.48174 0.27282 0.0
H1815 H 0.21529 0.513 0.26511 0.0
H1816 H 0.25732 0.46261 0.39541 0.0
H1817 H 0.26629 0.53752 0.37729 0.0
H1818 H 0.2705 0.44437 0.29462 0.0
H1819 H 0.23934 0.44903 0.28859 0.0
H1820 H 0.2507 0.43642 0.33765 0.0
H1821 H 0.28115 0.53773 0.27262 0.0
H1822 H 0.26442 0.55562 0.30972 0.0
H1823 H 0.24963 0.53953 0.26748 0.0
loop_
_geom_bond_atom_site_label_1
_geom_bond_atom_site_label_2
_geom_bond_distance
_geom_bond_site_symmetry_2
_ccdc_geom_bond_type
Co0 O3 1.970 . S
Co0 N17 1.989 . S
Co0 O25 1.967 . S
Co0 O32 1.920 1_455 S
Co1 O4 1.966 . S
Co1 N10 2.022 . S
Co1 N18 1.993 . S
Co1 O26 1.941 . S
C2 O3 1.258 . S
C2 O4 1.263 . S
O3 Co0 1.970 . S
O3 C2 1.258 . S
O4 Co1 1.966 . S
O4 C2 1.263 . S
C5 O6 1.235 . S
C5 O32 1.289 . S
O6 C5 1.235 . S
C7 C9 1.400 . S
C7 N10 1.351 . S
C7 C12 1.501 . S
C8 C9 1.387 . S
C8 N11 1.341 . S
C9 C7 1.400 . S
C9 C8 1.387 . S
N10 Co1 2.022 . S
N10 C7 1.351 . S
N10 N11 1.365 . S
N11 C8 1.341 . S
N11 N10 1.365 . S
N11 H31 0.862 1_554 S
C12 C7 1.501 . S
C12 H13 0.961 . S
C12 H14 0.961 . S
C12 H15 0.960 . S
H13 C12 0.961 . S
H14 C12 0.961 . S
H15 C12 0.960 . S
C16 N17 1.342 1_656 S
C16 C20 1.401 1_655 S
C16 C21 1.499 . S
N17 Co0 1.989 . S
N17 C16 1.342 1_454 S
N17 N18 1.388 . S
N18 Co1 1.993 . S
N18 N17 1.388 . S
N18 C19 1.346 1_554 S
C19 N18 1.346 1_556 S
C19 C20 1.396 . S
C19 C29 1.510 . S
C20 C16 1.401 1_455 S
C20 C19 1.396 . S
C21 C16 1.499 . S
C21 H22 0.959 . S
C21 H23 0.960 . S
C21 H24 0.961 . S
H22 C21 0.959 . S
H23 C21 0.960 . S
H24 C21 0.961 . S
O25 Co0 1.967 . S
O25 C33 1.258 . S
O26 Co1 1.941 . S
O26 C33 1.266 . S
H27 C29 0.959 . S
H28 C29 0.961 . S
C29 C19 1.510 . S
C29 H27 0.959 . S
C29 H28 0.961 . S
C29 H30 0.960 . S
H30 C29 0.960 . S
H31 N11 0.862 1_556 S
O32 Co0 1.920 1_655 S
O32 C5 1.289 . S
C33 O25 1.258 . S
C33 O26 1.266 . S
Co34 O37 1.970 . S
Co34 N51 1.989 . S
Co34 O59 1.967 . S
Co34 O66 1.920 1_545 S
Co35 O38 1.966 . S
Co35 N44 2.022 . S
Co35 N52 1.993 . S
Co35 O60 1.941 . S
C36 O37 1.258 . S
C36 O38 1.263 . S
O37 Co34 1.970 . S
O37 C36 1.258 . S
O38 Co35 1.966 . S
O38 C36 1.263 . S
C39 O40 1.235 . S
C39 O66 1.289 . S
O40 C39 1.235 . S
C41 C43 1.400 . S
C41 N44 1.351 . S
C41 C46 1.501 . S
C42 C43 1.387 . S
C42 N45 1.341 . S
C43 C41 1.400 . S
C43 C42 1.387 . S
N44 Co35 2.022 . S
N44 C41 1.351 . S
N44 N45 1.365 . S
N45 C42 1.341 . S
N45 N44 1.365 . S
N45 H65 0.862 1_554 S
C46 C41 1.501 . S
C46 H47 0.961 . S
C46 H48 0.961 . S
C46 H49 0.960 . S
H47 C46 0.961 . S
H48 C46 0.961 . S
H49 C46 0.960 . S
C50 N51 1.342 1_566 S
C50 C54 1.401 1_565 S
C50 C55 1.499 . S
N51 Co34 1.989 . S
N51 C50 1.342 1_544 S
N51 N52 1.388 . S
N52 Co35 1.993 . S
N52 N51 1.388 . S
N52 C53 1.346 1_554 S
C53 N52 1.346 1_556 S
C53 C54 1.396 . S
C53 C63 1.510 . S
C54 C50 1.401 1_545 S
C54 C53 1.396 . S
C55 C50 1.499 . S
C55 H56 0.959 . S
C55 H57 0.960 . S
C55 H58 0.961 . S
H56 C55 0.959 . S
H57 C55 0.960 . S
H58 C55 0.961 . S
O59 Co34 1.967 . S
O59 C67 1.258 . S
O60 Co35 1.941 . S
O60 C67 1.266 . S
H61 C63 0.959 . S
H62 C63 0.961 . S
C63 C53 1.510 . S
C63 H61 0.959 . S
C63 H62 0.961 . S
C63 H64 0.960 . S
H64 C63 0.960 . S
H65 N45 0.862 1_556 S
O66 Co34 1.920 1_565 S
O66 C39 1.289 . S
C67 O59 1.258 . S
C67 O60 1.266 . S
Co68 O71 1.970 . S
Co68 N85 1.989 . S
Co68 O93 1.967 . S
Co68 O100 1.920 1_655 S
Co69 O72 1.966 . S
Co69 N78 2.022 . S
Co69 N86 1.993 . S
Co69 O94 1.941 . S
C70 O71 1.258 . S
C70 O72 1.263 . S
O71 Co68 1.970 . S
O71 C70 1.258 . S
O72 Co69 1.966 . S
O72 C70 1.263 . S
C73 O74 1.235 . S
C73 O100 1.289 . S
O74 C73 1.235 . S
C75 C77 1.400 . S
C75 N78 1.351 . S
C75 C80 1.501 . S
C76 C77 1.387 . S
C76 N79 1.341 . S
C77 C75 1.400 . S
C77 C76 1.387 . S
N78 Co69 2.022 . S
N78 C75 1.351 . S
N78 N79 1.365 . S
N79 C76 1.341 . S
N79 N78 1.365 . S
N79 H99 0.862 1_554 S
C80 C75 1.501 . S
C80 H81 0.961 . S
C80 H82 0.961 . S
C80 H83 0.960 . S
H81 C80 0.961 . S
H82 C80 0.961 . S
H83 C80 0.960 . S
C84 N85 1.342 1_456 S
C84 C88 1.401 1_455 S
C84 C89 1.499 . S
N85 Co68 1.989 . S
N85 C84 1.342 1_654 S
N85 N86 1.388 . S
N86 Co69 1.993 . S
N86 N85 1.388 . S
N86 C87 1.346 1_554 S
C87 N86 1.346 1_556 S
C87 C88 1.396 . S
C87 C97 1.510 . S
C88 C84 1.401 1_655 S
C88 C87 1.396 . S
C89 C84 1.499 . S
C89 H90 0.959 . S
C89 H91 0.960 . S
C89 H92 0.961 . S
H90 C89 0.959 . S
H91 C89 0.960 . S
H92 C89 0.961 . S
O93 Co68 1.967 . S
O93 C101 1.258 . S
O94 Co69 1.941 . S
O94 C101 1.266 . S
H95 C97 0.959 . S
H96 C97 0.961 . S
C97 C87 1.510 . S
C97 H95 0.959 . S
C97 H96 0.961 . S
C97 H98 0.960 . S
H98 C97 0.960 . S
H99 N79 0.862 1_556 S
O100 Co68 1.920 1_455 S
O100 C73 1.289 . S
C101 O93 1.258 . S
C101 O94 1.266 . S
Co102 O105 1.970 . S
Co102 N119 1.989 . S
Co102 O127 1.967 . S
Co102 O134 1.920 1_565 S
Co103 O106 1.966 . S
Co103 N112 2.022 . S
Co103 N120 1.993 . S
Co103 O128 1.941 . S
C104 O105 1.258 . S
C104 O106 1.263 . S
O105 Co102 1.970 . S
O105 C104 1.258 . S
O106 Co103 1.966 . S
O106 C104 1.263 . S
C107 O108 1.235 . S
C107 O134 1.289 . S
O108 C107 1.235 . S
C109 C111 1.400 . S
C109 N112 1.351 . S
C109 C114 1.501 . S
C110 C111 1.387 . S
C110 N113 1.341 . S
C111 C109 1.400 . S
C111 C110 1.387 . S
N112 Co103 2.022 . S
N112 C109 1.351 . S
N112 N113 1.365 . S
N113 C110 1.341 . S
N113 N112 1.365 . S
N113 H133 0.862 1_554 S
C114 C109 1.501 . S
C114 H115 0.961 . S
C114 H116 0.961 . S
C114 H117 0.960 . S
H115 C114 0.961 . S
H116 C114 0.961 . S
H117 C114 0.960 . S
C118 N119 1.342 1_546 S
C118 C122 1.401 1_545 S
C118 C123 1.499 . S
N119 Co102 1.989 . S
N119 C118 1.342 1_564 S
N119 N120 1.388 . S
N120 Co103 1.993 . S
N120 N119 1.388 . S
N120 C121 1.346 1_554 S
C121 N120 1.346 1_556 S
C121 C122 1.396 . S
C121 C131 1.510 . S
C122 C118 1.401 1_565 S
C122 C121 1.396 . S
C123 C118 1.499 . S
C123 H124 0.959 . S
C123 H125 0.960 . S
C123 H126 0.961 . S
H124 C123 0.959 . S
H125 C123 0.960 . S
H126 C123 0.961 . S
O127 Co102 1.967 . S
O127 C135 1.258 . S
O128 Co103 1.941 . S
O128 C135 1.266 . S
H129 C131 0.959 . S
H130 C131 0.961 . S
C131 C121 1.510 . S
C131 H129 0.959 . S
C131 H130 0.961 . S
C131 H132 0.960 . S
H132 C131 0.960 . S
H133 N113 0.862 1_556 S
O134 Co102 1.920 1_545 S
O134 C107 1.289 . S
C135 O127 1.258 . S
C135 O128 1.266 . S
Co136 O139 1.970 . S
Co136 N153 1.989 . S
Co136 O161 1.967 . S
Co136 O168 1.920 1_455 S
Co137 O140 1.966 . S
Co137 N146 2.022 . S
Co137 N154 1.993 . S
Co137 O162 1.941 . S
C138 O139 1.258 . S
C138 O140 1.263 . S
O139 Co136 1.970 . S
O139 C138 1.258 . S
O140 Co137 1.966 . S
O140 C138 1.263 . S
C141 O142 1.235 . S
C141 O168 1.289 . S
O142 C141 1.235 . S
C143 C145 1.400 . S
C143 N146 1.351 . S
C143 C148 1.501 . S
C144 C145 1.387 . S
C144 N147 1.341 . S
C145 C143 1.400 . S
C145 C144 1.387 . S
N146 Co137 2.022 . S
N146 C143 1.351 . S
N146 N147 1.365 . S
N147 C144 1.341 . S
N147 N146 1.365 . S
N147 H167 0.862 . S
C148 C143 1.501 . S
C148 H149 0.961 . S
C148 H150 0.961 . S
C148 H151 0.960 . S
H149 C148 0.961 . S
H150 C148 0.961 . S
H151 C148 0.960 . S
C152 N153 1.342 1_655 S
C152 C156 1.401 1_655 S
C152 C157 1.499 . S
N153 Co136 1.989 . S
N153 C152 1.342 1_455 S
N153 N154 1.388 . S
N154 Co137 1.993 . S
N154 N153 1.388 . S
N154 C155 1.346 . S
C155 N154 1.346 . S
C155 C156 1.396 . S
C155 C165 1.510 . S
C156 C152 1.401 1_455 S
C156 C155 1.396 . S
C157 C152 1.499 . S
C157 H158 0.959 . S
C157 H159 0.960 . S
C157 H160 0.961 . S
H158 C157 0.959 . S
H159 C157 0.960 . S
H160 C157 0.961 . S
O161 Co136 1.967 . S
O161 C169 1.258 . S
O162 Co137 1.941 . S
O162 C169 1.266 . S
H163 C165 0.959 . S
H164 C165 0.961 . S
C165 C155 1.510 . S
C165 H163 0.959 . S
C165 H164 0.961 . S
C165 H166 0.960 . S
H166 C165 0.960 . S
H167 N147 0.862 . S
O168 Co136 1.920 1_655 S
O168 C141 1.289 . S
C169 O161 1.258 . S
C169 O162 1.266 . S
Co170 O173 1.970 . S
Co170 N187 1.989 . S
Co170 O195 1.967 . S
Co170 O202 1.920 1_545 S
Co171 O174 1.966 . S
Co171 N180 2.022 . S
Co171 N188 1.993 . S
Co171 O196 1.941 . S
C172 O173 1.258 . S
C172 O174 1.263 . S
O173 Co170 1.970 . S
O173 C172 1.258 . S
O174 Co171 1.966 . S
O174 C172 1.263 . S
C175 O176 1.235 . S
C175 O202 1.289 . S
O176 C175 1.235 . S
C177 C179 1.400 . S
C177 N180 1.351 . S
C177 C182 1.501 . S
C178 C179 1.387 . S
C178 N181 1.341 . S
C179 C177 1.400 . S
C179 C178 1.387 . S
N180 Co171 2.022 . S
N180 C177 1.351 . S
N180 N181 1.365 . S
N181 C178 1.341 . S
N181 N180 1.365 . S
N181 H201 0.862 . S
C182 C177 1.501 . S
C182 H183 0.961 . S
C182 H184 0.961 . S
C182 H185 0.960 . S
H183 C182 0.961 . S
H184 C182 0.961 . S
H185 C182 0.960 . S
C186 N187 1.342 1_565 S
C186 C190 1.401 1_565 S
C186 C191 1.499 . S
N187 Co170 1.989 . S
N187 C186 1.342 1_545 S
N187 N188 1.388 . S
N188 Co171 1.993 . S
N188 N187 1.388 . S
N188 C189 1.346 . S
C189 N188 1.346 . S
C189 C190 1.396 . S
C189 C199 1.510 . S
C190 C186 1.401 1_545 S
C190 C189 1.396 . S
C191 C186 1.499 . S
C191 H192 0.959 . S
C191 H193 0.960 . S
C191 H194 0.961 . S
H192 C191 0.959 . S
H193 C191 0.960 . S
H194 C191 0.961 . S
O195 Co170 1.967 . S
O195 C203 1.258 . S
O196 Co171 1.941 . S
O196 C203 1.266 . S
H197 C199 0.959 . S
H198 C199 0.961 . S
C199 C189 1.510 . S
C199 H197 0.959 . S
C199 H198 0.961 . S
C199 H200 0.960 . S
H200 C199 0.960 . S
H201 N181 0.862 . S
O202 Co170 1.920 1_565 S
O202 C175 1.289 . S
C203 O195 1.258 . S
C203 O196 1.266 . S
Co204 O207 1.970 . S
Co204 N221 1.989 . S
Co204 O229 1.967 . S
Co204 O236 1.920 1_655 S
Co205 O208 1.966 . S
Co205 N214 2.022 . S
Co205 N222 1.993 . S
Co205 O230 1.941 . S
C206 O207 1.258 . S
C206 O208 1.263 . S
O207 Co204 1.970 . S
O207 C206 1.258 . S
O208 Co205 1.966 . S
O208 C206 1.263 . S
C209 O210 1.235 . S
C209 O236 1.289 . S
O210 C209 1.235 . S
C211 C213 1.400 . S
C211 N214 1.351 . S
C211 C216 1.501 . S
C212 C213 1.387 . S
C212 N215 1.341 . S
C213 C211 1.400 . S
C213 C212 1.387 . S
N214 Co205 2.022 . S
N214 C211 1.351 . S
N214 N215 1.365 . S
N215 C212 1.341 . S
N215 N214 1.365 . S
N215 H235 0.862 . S
C216 C211 1.501 . S
C216 H217 0.961 . S
C216 H218 0.961 . S
C216 H219 0.960 . S
H217 C216 0.961 . S
H218 C216 0.961 . S
H219 C216 0.960 . S
C220 N221 1.342 1_455 S
C220 C224 1.401 1_455 S
C220 C225 1.499 . S
N221 Co204 1.989 . S
N221 C220 1.342 1_655 S
N221 N222 1.388 . S
N222 Co205 1.993 . S
N222 N221 1.388 . S
N222 C223 1.346 . S
C223 N222 1.346 . S
C223 C224 1.396 . S
C223 C233 1.510 . S
C224 C220 1.401 1_655 S
C224 C223 1.396 . S
C225 C220 1.499 . S
C225 H226 0.959 . S
C225 H227 0.960 . S
C225 H228 0.961 . S
H226 C225 0.959 . S
H227 C225 0.960 . S
H228 C225 0.961 . S
O229 Co204 1.967 . S
O229 C237 1.258 . S
O230 Co205 1.941 . S
O230 C237 1.266 . S
H231 C233 0.959 . S
H232 C233 0.961 . S
C233 C223 1.510 . S
C233 H231 0.959 . S
C233 H232 0.961 . S
C233 H234 0.960 . S
H234 C233 0.960 . S
H235 N215 0.862 . S
O236 Co204 1.920 1_455 S
O236 C209 1.289 . S
C237 O229 1.258 . S
C237 O230 1.266 . S
Co238 O241 1.970 . S
Co238 N255 1.989 . S
Co238 O263 1.967 . S
Co238 O270 1.920 1_565 S
Co239 O242 1.966 . S
Co239 N248 2.022 . S
Co239 N256 1.993 . S
Co239 O264 1.941 . S
C240 O241 1.258 . S
C240 O242 1.263 . S
O241 Co238 1.970 . S
O241 C240 1.258 . S
O242 Co239 1.966 . S
O242 C240 1.263 . S
C243 O244 1.235 . S
C243 O270 1.289 . S
O244 C243 1.235 . S
C245 C247 1.400 . S
C245 N248 1.351 . S
C245 C250 1.501 . S
C246 C247 1.387 . S
C246 N249 1.341 . S
C247 C245 1.400 . S
C247 C246 1.387 . S
N248 Co239 2.022 . S
N248 C245 1.351 . S
N248 N249 1.365 . S
N249 C246 1.341 . S
N249 N248 1.365 . S
N249 H269 0.862 . S
C250 C245 1.501 . S
C250 H251 0.961 . S
C250 H252 0.961 . S
C250 H253 0.960 . S
H251 C250 0.961 . S
H252 C250 0.961 . S
H253 C250 0.960 . S
C254 N255 1.342 1_545 S
C254 C258 1.401 1_545 S
C254 C259 1.499 . S
N255 Co238 1.989 . S
N255 C254 1.342 1_565 S
N255 N256 1.388 . S
N256 Co239 1.993 . S
N256 N255 1.388 . S
N256 C257 1.346 . S
C257 N256 1.346 . S
C257 C258 1.396 . S
C257 C267 1.510 . S
C258 C254 1.401 1_565 S
C258 C257 1.396 . S
C259 C254 1.499 . S
C259 H260 0.959 . S
C259 H261 0.960 . S
C259 H262 0.961 . S
H260 C259 0.959 . S
H261 C259 0.960 . S
H262 C259 0.961 . S
O263 Co238 1.967 . S
O263 C271 1.258 . S
O264 Co239 1.941 . S
O264 C271 1.266 . S
H265 C267 0.959 . S
H266 C267 0.961 . S
C267 C257 1.510 . S
C267 H265 0.959 . S
C267 H266 0.961 . S
C267 H268 0.960 . S
H268 C267 0.960 . S
H269 N249 0.862 . S
O270 Co238 1.920 1_545 S
O270 C243 1.289 . S
C271 O263 1.258 . S
C271 O264 1.266 . S
Co272 O275 1.970 . S
Co272 N289 1.989 . S
Co272 O297 1.967 . S
Co272 O304 1.920 . S
Co273 O276 1.966 . S
Co273 N282 2.022 . S
Co273 N290 1.993 . S
Co273 O298 1.941 . S
C274 O275 1.258 . S
C274 O276 1.263 . S
O275 Co272 1.970 . S
O275 C274 1.258 . S
O276 Co273 1.966 . S
O276 C274 1.263 . S
C277 O278 1.235 . S
C277 O304 1.289 . S
O278 C277 1.235 . S
C279 C281 1.400 . S
C279 N282 1.351 . S
C279 C284 1.501 . S
C280 C281 1.387 . S
C280 N283 1.341 . S
C281 C279 1.400 . S
C281 C280 1.387 . S
N282 Co273 2.022 . S
N282 C279 1.351 . S
N282 N283 1.365 . S
N283 C280 1.341 . S
N283 N282 1.365 . S
N283 H303 0.862 . S
C284 C279 1.501 . S
C284 H285 0.961 . S
C284 H286 0.961 . S
C284 H287 0.960 . S
H285 C284 0.961 . S
H286 C284 0.961 . S
H287 C284 0.960 . S
C288 N289 1.342 . S
C288 C292 1.401 . S
C288 C293 1.499 . S
N289 Co272 1.989 . S
N289 C288 1.342 . S
N289 N290 1.388 . S
N290 Co273 1.993 . S
N290 N289 1.388 . S
N290 C291 1.346 . S
C291 N290 1.346 . S
C291 C292 1.396 . S
C291 C301 1.510 . S
C292 C288 1.401 . S
C292 C291 1.396 . S
C293 C288 1.499 . S
C293 H294 0.959 . S
C293 H295 0.960 . S
C293 H296 0.961 . S
H294 C293 0.959 . S
H295 C293 0.960 . S
H296 C293 0.961 . S
O297 Co272 1.967 . S
O297 C305 1.258 . S
O298 Co273 1.941 . S
O298 C305 1.266 . S
H299 C301 0.959 . S
H300 C301 0.961 . S
C301 C291 1.510 . S
C301 H299 0.959 . S
C301 H300 0.961 . S
C301 H302 0.960 . S
H302 C301 0.960 . S
H303 N283 0.862 . S
O304 Co272 1.920 . S
O304 C277 1.289 . S
C305 O297 1.258 . S
C305 O298 1.266 . S
Co306 O309 1.970 . S
Co306 N323 1.989 . S
Co306 O331 1.967 . S
Co306 O338 1.920 . S
Co307 O310 1.966 . S
Co307 N316 2.022 . S
Co307 N324 1.993 . S
Co307 O332 1.941 . S
C308 O309 1.258 . S
C308 O310 1.263 . S
O309 Co306 1.970 . S
O309 C308 1.258 . S
O310 Co307 1.966 . S
O310 C308 1.263 . S
C311 O312 1.235 . S
C311 O338 1.289 . S
O312 C311 1.235 . S
C313 C315 1.400 . S
C313 N316 1.351 . S
C313 C318 1.501 . S
C314 C315 1.387 . S
C314 N317 1.341 . S
C315 C313 1.400 . S
C315 C314 1.387 . S
N316 Co307 2.022 . S
N316 C313 1.351 . S
N316 N317 1.365 . S
N317 C314 1.341 . S
N317 N316 1.365 . S
N317 H337 0.862 . S
C318 C313 1.501 . S
C318 H319 0.961 . S
C318 H320 0.961 . S
C318 H321 0.960 . S
H319 C318 0.961 . S
H320 C318 0.961 . S
H321 C318 0.960 . S
C322 N323 1.342 . S
C322 C326 1.401 . S
C322 C327 1.499 . S
N323 Co306 1.989 . S
N323 C322 1.342 . S
N323 N324 1.388 . S
N324 Co307 1.993 . S
N324 N323 1.388 . S
N324 C325 1.346 . S
C325 N324 1.346 . S
C325 C326 1.396 . S
C325 C335 1.510 . S
C326 C322 1.401 . S
C326 C325 1.396 . S
C327 C322 1.499 . S
C327 H328 0.959 . S
C327 H329 0.960 . S
C327 H330 0.961 . S
H328 C327 0.959 . S
H329 C327 0.960 . S
H330 C327 0.961 . S
O331 Co306 1.967 . S
O331 C339 1.258 . S
O332 Co307 1.941 . S
O332 C339 1.266 . S
H333 C335 0.959 . S
H334 C335 0.961 . S
C335 C325 1.510 . S
C335 H333 0.959 . S
C335 H334 0.961 . S
C335 H336 0.960 . S
H336 C335 0.960 . S
H337 N317 0.862 . S
O338 Co306 1.920 . S
O338 C311 1.289 . S
C339 O331 1.258 . S
C339 O332 1.266 . S
Co340 O343 1.970 . S
Co340 N357 1.989 . S
Co340 O365 1.967 . S
Co340 O372 1.920 . S
Co341 O344 1.966 . S
Co341 N350 2.022 . S
Co341 N358 1.993 . S
Co341 O366 1.941 . S
C342 O343 1.258 . S
C342 O344 1.263 . S
O343 Co340 1.970 . S
O343 C342 1.258 . S
O344 Co341 1.966 . S
O344 C342 1.263 . S
C345 O346 1.235 . S
C345 O372 1.289 . S
O346 C345 1.235 . S
C347 C349 1.400 . S
C347 N350 1.351 . S
C347 C352 1.501 . S
C348 C349 1.387 . S
C348 N351 1.341 . S
C349 C347 1.400 . S
C349 C348 1.387 . S
N350 Co341 2.022 . S
N350 C347 1.351 . S
N350 N351 1.365 . S
N351 C348 1.341 . S
N351 N350 1.365 . S
N351 H371 0.862 . S
C352 C347 1.501 . S
C352 H353 0.961 . S
C352 H354 0.961 . S
C352 H355 0.960 . S
H353 C352 0.961 . S
H354 C352 0.961 . S
H355 C352 0.960 . S
C356 N357 1.342 . S
C356 C360 1.401 . S
C356 C361 1.499 . S
N357 Co340 1.989 . S
N357 C356 1.342 . S
N357 N358 1.388 . S
N358 Co341 1.993 . S
N358 N357 1.388 . S
N358 C359 1.346 . S
C359 N358 1.346 . S
C359 C360 1.396 . S
C359 C369 1.510 . S
C360 C356 1.401 . S
C360 C359 1.396 . S
C361 C356 1.499 . S
C361 H362 0.959 . S
C361 H363 0.960 . S
C361 H364 0.961 . S
H362 C361 0.959 . S
H363 C361 0.960 . S
H364 C361 0.961 . S
O365 Co340 1.967 . S
O365 C373 1.258 . S
O366 Co341 1.941 . S
O366 C373 1.266 . S
H367 C369 0.959 . S
H368 C369 0.961 . S
C369 C359 1.510 . S
C369 H367 0.959 . S
C369 H368 0.961 . S
C369 H370 0.960 . S
H370 C369 0.960 . S
H371 N351 0.862 . S
O372 Co340 1.920 . S
O372 C345 1.289 . S
C373 O365 1.258 . S
C373 O366 1.266 . S
Co374 O377 1.970 . S
Co374 N391 1.989 . S
Co374 O399 1.967 . S
Co374 O406 1.920 . S
Co375 O378 1.966 . S
Co375 N384 2.022 . S
Co375 N392 1.993 . S
Co375 O400 1.941 . S
C376 O377 1.258 . S
C376 O378 1.263 . S
O377 Co374 1.970 . S
O377 C376 1.258 . S
O378 Co375 1.966 . S
O378 C376 1.263 . S
C379 O380 1.235 . S
C379 O406 1.289 . S
O380 C379 1.235 . S
C381 C383 1.400 . S
C381 N384 1.351 . S
C381 C386 1.501 . S
C382 C383 1.387 . S
C382 N385 1.341 . S
C383 C381 1.400 . S
C383 C382 1.387 . S
N384 Co375 2.022 . S
N384 C381 1.351 . S
N384 N385 1.365 . S
N385 C382 1.341 . S
N385 N384 1.365 . S
N385 H405 0.862 . S
C386 C381 1.501 . S
C386 H387 0.961 . S
C386 H388 0.961 . S
C386 H389 0.960 . S
H387 C386 0.961 . S
H388 C386 0.961 . S
H389 C386 0.960 . S
C390 N391 1.342 . S
C390 C394 1.401 . S
C390 C395 1.499 . S
N391 Co374 1.989 . S
N391 C390 1.342 . S
N391 N392 1.388 . S
N392 Co375 1.993 . S
N392 N391 1.388 . S
N392 C393 1.346 . S
C393 N392 1.346 . S
C393 C394 1.396 . S
C393 C403 1.510 . S
C394 C390 1.401 . S
C394 C393 1.396 . S
C395 C390 1.499 . S
C395 H396 0.959 . S
C395 H397 0.960 . S
C395 H398 0.961 . S
H396 C395 0.959 . S
H397 C395 0.960 . S
H398 C395 0.961 . S
O399 Co374 1.967 . S
O399 C407 1.258 . S
O400 Co375 1.941 . S
O400 C407 1.266 . S
H401 C403 0.959 . S
H402 C403 0.961 . S
C403 C393 1.510 . S
C403 H401 0.959 . S
C403 H402 0.961 . S
C403 H404 0.960 . S
H404 C403 0.960 . S
H405 N385 0.862 . S
O406 Co374 1.920 . S
O406 C379 1.289 . S
C407 O399 1.258 . S
C407 O400 1.266 . S
Co408 O411 1.970 1_554 S
Co408 N425 1.989 . S
Co408 O433 1.967 1_554 S
Co408 O440 1.920 . S
Co409 O412 1.966 1_554 S
Co409 N418 2.022 . S
Co409 N426 1.993 . S
Co409 O434 1.941 . S
C410 O411 1.258 . S
C410 O412 1.263 . S
O411 Co408 1.970 1_556 S
O411 C410 1.258 . S
O412 Co409 1.966 1_556 S
O412 C410 1.263 . S
C413 O414 1.235 . S
C413 O440 1.289 . S
O414 C413 1.235 . S
C415 C417 1.400 1_556 S
C415 N418 1.351 1_556 S
C415 C420 1.501 . S
C416 C417 1.387 . S
C416 N419 1.341 . S
C417 C415 1.400 1_554 S
C417 C416 1.387 . S
N418 Co409 2.022 . S
N418 C415 1.351 1_554 S
N418 N419 1.365 . S
N419 C416 1.341 . S
N419 N418 1.365 . S
N419 H439 0.862 . S
C420 C415 1.501 . S
C420 H421 0.961 . S
C420 H422 0.961 . S
C420 H423 0.960 . S
H421 C420 0.961 . S
H422 C420 0.961 . S
H423 C420 0.960 . S
C424 N425 1.342 . S
C424 C428 1.401 . S
C424 C429 1.499 . S
N425 Co408 1.989 . S
N425 C424 1.342 . S
N425 N426 1.388 . S
N426 Co409 1.993 . S
N426 N425 1.388 . S
N426 C427 1.346 . S
C427 N426 1.346 . S
C427 C428 1.396 . S
C427 C437 1.510 . S
C428 C424 1.401 . S
C428 C427 1.396 . S
C429 C424 1.499 . S
C429 H430 0.959 . S
C429 H431 0.960 . S
C429 H432 0.961 . S
H430 C429 0.959 . S
H431 C429 0.960 . S
H432 C429 0.961 . S
O433 Co408 1.967 1_556 S
O433 C441 1.258 . S
O434 Co409 1.941 . S
O434 C441 1.266 1_554 S
H435 C437 0.959 . S
H436 C437 0.961 . S
C437 C427 1.510 . S
C437 H435 0.959 . S
C437 H436 0.961 . S
C437 H438 0.960 . S
H438 C437 0.960 . S
H439 N419 0.862 . S
O440 Co408 1.920 . S
O440 C413 1.289 . S
C441 O433 1.258 . S
C441 O434 1.266 1_556 S
Co442 O445 1.970 1_554 S
Co442 N459 1.989 . S
Co442 O467 1.967 1_554 S
Co442 O474 1.920 . S
Co443 O446 1.966 1_554 S
Co443 N452 2.022 . S
Co443 N460 1.993 . S
Co443 O468 1.941 . S
C444 O445 1.258 . S
C444 O446 1.263 . S
O445 Co442 1.970 1_556 S
O445 C444 1.258 . S
O446 Co443 1.966 1_556 S
O446 C444 1.263 . S
C447 O448 1.235 . S
C447 O474 1.289 . S
O448 C447 1.235 . S
C449 C451 1.400 1_556 S
C449 N452 1.351 1_556 S
C449 C454 1.501 . S
C450 C451 1.387 . S
C450 N453 1.341 . S
C451 C449 1.400 1_554 S
C451 C450 1.387 . S
N452 Co443 2.022 . S
N452 C449 1.351 1_554 S
N452 N453 1.365 . S
N453 C450 1.341 . S
N453 N452 1.365 . S
N453 H473 0.862 . S
C454 C449 1.501 . S
C454 H455 0.961 . S
C454 H456 0.961 . S
C454 H457 0.960 . S
H455 C454 0.961 . S
H456 C454 0.961 . S
H457 C454 0.960 . S
C458 N459 1.342 . S
C458 C462 1.401 . S
C458 C463 1.499 . S
N459 Co442 1.989 . S
N459 C458 1.342 . S
N459 N460 1.388 . S
N460 Co443 1.993 . S
N460 N459 1.388 . S
N460 C461 1.346 . S
C461 N460 1.346 . S
C461 C462 1.396 . S
C461 C471 1.510 . S
C462 C458 1.401 . S
C462 C461 1.396 . S
C463 C458 1.499 . S
C463 H464 0.959 . S
C463 H465 0.960 . S
C463 H466 0.961 . S
H464 C463 0.959 . S
H465 C463 0.960 . S
H466 C463 0.961 . S
O467 Co442 1.967 1_556 S
O467 C475 1.258 . S
O468 Co443 1.941 . S
O468 C475 1.266 1_554 S
H469 C471 0.959 . S
H470 C471 0.961 . S
C471 C461 1.510 . S
C471 H469 0.959 . S
C471 H470 0.961 . S
C471 H472 0.960 . S
H472 C471 0.960 . S
H473 N453 0.862 . S
O474 Co442 1.920 . S
O474 C447 1.289 . S
C475 O467 1.258 . S
C475 O468 1.266 1_556 S
Co476 O479 1.970 1_554 S
Co476 N493 1.989 . S
Co476 O501 1.967 1_554 S
Co476 O508 1.920 . S
Co477 O480 1.966 1_554 S
Co477 N486 2.022 . S
Co477 N494 1.993 . S
Co477 O502 1.941 . S
C478 O479 1.258 . S
C478 O480 1.263 . S
O479 Co476 1.970 1_556 S
O479 C478 1.258 . S
O480 Co477 1.966 1_556 S
O480 C478 1.263 . S
C481 O482 1.235 . S
C481 O508 1.289 . S
O482 C481 1.235 . S
C483 C485 1.400 1_556 S
C483 N486 1.351 1_556 S
C483 C488 1.501 . S
C484 C485 1.387 . S
C484 N487 1.341 . S
C485 C483 1.400 1_554 S
C485 C484 1.387 . S
N486 Co477 2.022 . S
N486 C483 1.351 1_554 S
N486 N487 1.365 . S
N487 C484 1.341 . S
N487 N486 1.365 . S
N487 H507 0.862 . S
C488 C483 1.501 . S
C488 H489 0.961 . S
C488 H490 0.961 . S
C488 H491 0.960 . S
H489 C488 0.961 . S
H490 C488 0.961 . S
H491 C488 0.960 . S
C492 N493 1.342 . S
C492 C496 1.401 . S
C492 C497 1.499 . S
N493 Co476 1.989 . S
N493 C492 1.342 . S
N493 N494 1.388 . S
N494 Co477 1.993 . S
N494 N493 1.388 . S
N494 C495 1.346 . S
C495 N494 1.346 . S
C495 C496 1.396 . S
C495 C505 1.510 . S
C496 C492 1.401 . S
C496 C495 1.396 . S
C497 C492 1.499 . S
C497 H498 0.959 . S
C497 H499 0.960 . S
C497 H500 0.961 . S
H498 C497 0.959 . S
H499 C497 0.960 . S
H500 C497 0.961 . S
O501 Co476 1.967 1_556 S
O501 C509 1.258 . S
O502 Co477 1.941 . S
O502 C509 1.266 1_554 S
H503 C505 0.959 . S
H504 C505 0.961 . S
C505 C495 1.510 . S
C505 H503 0.959 . S
C505 H504 0.961 . S
C505 H506 0.960 . S
H506 C505 0.960 . S
H507 N487 0.862 . S
O508 Co476 1.920 . S
O508 C481 1.289 . S
C509 O501 1.258 . S
C509 O502 1.266 1_556 S
Co510 O513 1.970 1_554 S
Co510 N527 1.989 . S
Co510 O535 1.967 1_554 S
Co510 O542 1.920 . S
Co511 O514 1.966 1_554 S
Co511 N520 2.022 . S
Co511 N528 1.993 . S
Co511 O536 1.941 . S
C512 O513 1.258 . S
C512 O514 1.263 . S
O513 Co510 1.970 1_556 S
O513 C512 1.258 . S
O514 Co511 1.966 1_556 S
O514 C512 1.263 . S
C515 O516 1.235 . S
C515 O542 1.289 . S
O516 C515 1.235 . S
C517 C519 1.400 1_556 S
C517 N520 1.351 1_556 S
C517 C522 1.501 . S
C518 C519 1.387 . S
C518 N521 1.341 . S
C519 C517 1.400 1_554 S
C519 C518 1.387 . S
N520 Co511 2.022 . S
N520 C517 1.351 1_554 S
N520 N521 1.365 . S
N521 C518 1.341 . S
N521 N520 1.365 . S
N521 H541 0.862 . S
C522 C517 1.501 . S
C522 H523 0.961 . S
C522 H524 0.961 . S
C522 H525 0.960 . S
H523 C522 0.961 . S
H524 C522 0.961 . S
H525 C522 0.960 . S
C526 N527 1.342 . S
C526 C530 1.401 . S
C526 C531 1.499 . S
N527 Co510 1.989 . S
N527 C526 1.342 . S
N527 N528 1.388 . S
N528 Co511 1.993 . S
N528 N527 1.388 . S
N528 C529 1.346 . S
C529 N528 1.346 . S
C529 C530 1.396 . S
C529 C539 1.510 . S
C530 C526 1.401 . S
C530 C529 1.396 . S
C531 C526 1.499 . S
C531 H532 0.959 . S
C531 H533 0.960 . S
C531 H534 0.961 . S
H532 C531 0.959 . S
H533 C531 0.960 . S
H534 C531 0.961 . S
O535 Co510 1.967 1_556 S
O535 C543 1.258 . S
O536 Co511 1.941 . S
O536 C543 1.266 1_554 S
H537 C539 0.959 . S
H538 C539 0.961 . S
C539 C529 1.510 . S
C539 H537 0.959 . S
C539 H538 0.961 . S
C539 H540 0.960 . S
H540 C539 0.960 . S
H541 N521 0.862 . S
O542 Co510 1.920 . S
O542 C515 1.289 . S
C543 O535 1.258 . S
C543 O536 1.266 1_556 S
C544 C545 1.409 . S
C544 C546 1.392 1_554 S
C544 H560 0.915 1_554 S
C545 C544 1.409 . S
C545 C549 1.376 . S
C546 C544 1.392 1_556 S
C546 C547 1.369 1_556 S
C546 C550 1.531 . S
C547 C546 1.369 1_554 S
C547 C548 1.410 . S
C547 C555 1.503 . S
C548 C547 1.410 . S
C548 C549 1.392 . S
C548 C551 1.511 . S
C549 C545 1.376 . S
C549 C548 1.392 . S
C549 H561 0.929 . S
C550 C546 1.531 . S
C550 H562 0.960 . S
C550 H563 0.962 . S
C550 H564 0.960 . S
C551 C548 1.511 . S
C551 H565 0.961 . S
C551 H566 0.961 . S
C551 H567 0.961 . S
C552 C553 1.370 . S
C552 C554 1.363 . S
C552 H568 0.931 . S
C553 C552 1.370 . S
C553 C557 1.408 . S
C554 C552 1.363 . S
C554 C555 1.370 . S
C554 C558 1.524 . S
C555 C547 1.503 . S
C555 C554 1.370 . S
C555 C556 1.403 . S
C556 C555 1.403 . S
C556 C557 1.404 . S
C556 C559 1.539 . S
C557 C553 1.408 . S
C557 C556 1.404 . S
C557 H569 0.930 . S
C558 C554 1.524 . S
C558 H570 0.956 1_554 S
C558 H571 0.961 . S
C558 H572 0.961 . S
C559 C556 1.539 . S
C559 H573 0.958 . S
C559 H574 0.961 . S
C559 H575 0.960 . S
H560 C544 0.915 1_556 S
H561 C549 0.929 . S
H562 C550 0.960 . S
H563 C550 0.962 . S
H564 C550 0.960 . S
H565 C551 0.961 . S
H566 C551 0.961 . S
H567 C551 0.961 . S
H568 C552 0.931 . S
H569 C557 0.930 . S
H570 C558 0.956 1_556 S
H571 C558 0.961 . S
H572 C558 0.961 . S
H573 C559 0.958 . S
H574 C559 0.961 . S
H575 C559 0.960 . S
C576 C577 1.391 . S
C576 C578 1.394 . S
C576 H592 0.931 . S
C577 C576 1.391 . S
C577 C581 1.376 . S
C578 C576 1.394 . S
C578 C579 1.369 . S
C578 C582 1.531 1_554 S
C579 C578 1.369 . S
C579 C580 1.410 . S
C579 C587 1.503 . S
C580 C579 1.410 . S
C580 C581 1.392 . S
C580 C583 1.511 . S
C581 C577 1.376 . S
C581 C580 1.392 . S
C581 H593 0.929 . S
C582 C578 1.531 1_556 S
C582 H594 0.960 . S
C582 H595 0.962 1_556 S
C582 H596 0.960 . S
C583 C580 1.511 . S
C583 H597 0.961 . S
C583 H598 0.961 . S
C583 H599 0.961 . S
C584 C585 1.370 . S
C584 C586 1.363 . S
C584 H600 0.931 . S
C585 C584 1.370 . S
C585 C589 1.408 1_554 S
C586 C584 1.363 . S
C586 C587 1.370 . S
C586 C590 1.524 . S
C587 C579 1.503 . S
C587 C586 1.370 . S
C587 C588 1.403 1_554 S
C588 C587 1.403 1_556 S
C588 C589 1.404 . S
C588 C591 1.539 . S
C589 C585 1.408 1_556 S
C589 C588 1.404 . S
C589 H601 0.930 . S
C590 C586 1.524 . S
C590 H602 0.956 . S
C590 H603 0.961 . S
C590 H604 0.961 . S
C591 C588 1.539 . S
C591 H605 0.958 . S
C591 H606 0.961 . S
C591 H607 0.960 . S
H592 C576 0.931 . S
H593 C581 0.929 . S
H594 C582 0.960 . S
H595 C582 0.962 1_554 S
H596 C582 0.960 . S
H597 C583 0.961 . S
H598 C583 0.961 . S
H599 C583 0.961 . S
H600 C584 0.931 . S
H601 C589 0.930 . S
H602 C590 0.956 . S
H603 C590 0.961 . S
H604 C590 0.961 . S
H605 C591 0.958 . S
H606 C591 0.961 . S
H607 C591 0.960 . S
C608 C609 1.391 1_556 S
C608 C610 1.394 . S
C608 H624 0.931 . S
C609 C608 1.391 1_554 S
C609 C613 1.376 . S
C610 C608 1.394 . S
C610 C611 1.369 1_556 S
C610 C614 1.531 . S
C611 C610 1.369 1_554 S
C611 C612 1.410 . S
C611 C619 1.503 . S
C612 C611 1.410 . S
C612 C613 1.392 . S
C612 C615 1.511 . S
C613 C609 1.376 . S
C613 C612 1.392 . S
C613 H625 0.929 . S
C614 C610 1.531 . S
C614 H626 0.960 . S
C614 H627 0.962 . S
C614 H628 0.960 . S
C615 C612 1.511 . S
C615 H629 0.961 . S
C615 H630 0.961 . S
C615 H631 0.961 . S
C616 C617 1.370 . S
C616 C618 1.363 . S
C616 H632 0.931 . S
C617 C616 1.370 . S
C617 C621 1.408 . S
C618 C616 1.363 . S
C618 C619 1.370 . S
C618 C622 1.524 . S
C619 C611 1.503 . S
C619 C618 1.370 . S
C619 C620 1.403 1_554 S
C620 C619 1.403 1_556 S
C620 C621 1.404 1_556 S
C620 C623 1.539 . S
C621 C617 1.408 . S
C621 C620 1.404 1_554 S
C621 H633 0.930 1_554 S
C622 C618 1.524 . S
C622 H634 0.956 . S
C622 H635 0.961 . S
C622 H636 0.961 . S
C623 C620 1.539 . S
C623 H637 0.958 . S
C623 H638 0.961 . S
C623 H639 0.960 . S
H624 C608 0.931 . S
H625 C613 0.929 . S
H626 C614 0.960 . S
H627 C614 0.962 . S
H628 C614 0.960 . S
H629 C615 0.961 . S
H630 C615 0.961 . S
H631 C615 0.961 . S
H632 C616 0.931 . S
H633 C621 0.930 1_556 S
H634 C622 0.956 . S
H635 C622 0.961 . S
H636 C622 0.961 . S
H637 C623 0.958 . S
H638 C623 0.961 . S
H639 C623 0.960 . S
C640 C641 1.382 1_556 S
C640 C642 1.394 . S
C640 H656 0.939 . S
C641 C640 1.382 1_554 S
C641 C645 1.376 . S
C642 C640 1.394 . S
C642 C643 1.369 1_556 S
C642 C646 1.531 . S
C643 C642 1.369 1_554 S
C643 C644 1.410 . S
C643 C651 1.503 . S
C644 C643 1.410 . S
C644 C645 1.392 . S
C644 C647 1.511 . S
C645 C641 1.376 . S
C645 C644 1.392 . S
C645 H657 0.929 . S
C646 C642 1.531 . S
C646 H658 0.960 . S
C646 H659 0.962 . S
C646 H660 0.960 . S
C647 C644 1.511 . S
C647 H661 0.961 . S
C647 H662 0.961 . S
C647 H663 0.961 . S
C648 C649 1.370 . S
C648 C650 1.363 . S
C648 H664 0.931 . S
C649 C648 1.370 . S
C649 C653 1.408 . S
C650 C648 1.363 . S
C650 C651 1.370 . S
C650 C654 1.524 . S
C651 C643 1.503 . S
C651 C650 1.370 . S
C651 C652 1.403 . S
C652 C651 1.403 . S
C652 C653 1.404 . S
C652 C655 1.539 . S
C653 C649 1.408 . S
C653 C652 1.404 . S
C653 H665 0.930 . S
C654 C650 1.524 . S
C654 H666 0.956 1_554 S
C654 H667 0.961 . S
C654 H668 0.961 . S
C655 C652 1.539 . S
C655 H669 0.958 . S
C655 H670 0.961 . S
C655 H671 0.960 . S
H656 C640 0.939 . S
H657 C645 0.929 . S
H658 C646 0.960 . S
H659 C646 0.962 . S
H660 C646 0.960 . S
H661 C647 0.961 . S
H662 C647 0.961 . S
H663 C647 0.961 . S
H664 C648 0.931 . S
H665 C653 0.930 . S
H666 C654 0.956 1_556 S
H667 C654 0.961 . S
H668 C654 0.961 . S
H669 C655 0.958 . S
H670 C655 0.961 . S
H671 C655 0.960 . S
C672 C673 1.391 . S
C672 C674 1.394 . S
C672 H688 0.931 . S
C673 C672 1.391 . S
C673 C677 1.376 . S
C674 C672 1.394 . S
C674 C675 1.369 . S
C674 C678 1.531 . S
C675 C674 1.369 . S
C675 C676 1.410 . S
C675 C683 1.503 . S
C676 C675 1.410 . S
C676 C677 1.392 . S
C676 C679 1.511 . S
C677 C673 1.376 . S
C677 C676 1.392 . S
C677 H689 0.929 . S
C678 C674 1.531 . S
C678 H690 0.960 . S
C678 H691 0.962 . S
C678 H692 0.960 . S
C679 C676 1.511 . S
C679 H693 0.961 . S
C679 H694 0.961 . S
C679 H695 0.961 . S
C680 C681 1.370 . S
C680 C682 1.363 . S
C680 H696 0.931 . S
C681 C680 1.370 . S
C681 C685 1.408 . S
C682 C680 1.363 . S
C682 C683 1.370 . S
C682 C686 1.524 . S
C683 C675 1.503 . S
C683 C682 1.370 . S
C683 C684 1.403 . S
C684 C683 1.403 . S
C684 C685 1.404 . S
C684 C687 1.539 . S
C685 C681 1.408 . S
C685 C684 1.404 . S
C685 H697 0.930 . S
C686 C682 1.524 . S
C686 H698 0.956 . S
C686 H699 0.961 . S
C686 H700 0.961 . S
C687 C684 1.539 . S
C687 H701 0.958 . S
C687 H702 0.961 . S
C687 H703 0.960 . S
H688 C672 0.931 . S
H689 C677 0.929 . S
H690 C678 0.960 . S
H691 C678 0.962 . S
H692 C678 0.960 . S
H693 C679 0.961 . S
H694 C679 0.961 . S
H695 C679 0.961 . S
H696 C680 0.931 . S
H697 C685 0.930 . S
H698 C686 0.956 . S
H699 C686 0.961 . S
H700 C686 0.961 . S
H701 C687 0.958 . S
H702 C687 0.961 . S
H703 C687 0.960 . S
C704 C705 1.391 . S
C704 C706 1.394 . S
C704 H720 0.931 . S
C705 C704 1.391 . S
C705 C709 1.376 . S
C706 C704 1.394 . S
C706 C707 1.369 . S
C706 C710 1.531 . S
C707 C706 1.369 . S
C707 C708 1.410 . S
C707 C715 1.503 . S
C708 C707 1.410 . S
C708 C709 1.392 . S
C708 C711 1.511 . S
C709 C705 1.376 . S
C709 C708 1.392 . S
C709 H721 0.929 . S
C710 C706 1.531 . S
C710 H722 0.960 . S
C710 H723 0.962 . S
C710 H724 0.960 . S
C711 C708 1.511 . S
C711 H725 0.961 . S
C711 H726 0.961 . S
C711 H727 0.961 . S
C712 C713 1.370 . S
C712 C714 1.363 . S
C712 H728 0.931 . S
C713 C712 1.370 . S
C713 C717 1.408 . S
C714 C712 1.363 . S
C714 C715 1.370 . S
C714 C718 1.524 . S
C715 C707 1.503 . S
C715 C714 1.370 . S
C715 C716 1.403 . S
C716 C715 1.403 . S
C716 C717 1.404 . S
C716 C719 1.539 . S
C717 C713 1.408 . S
C717 C716 1.404 . S
C717 H729 0.930 . S
C718 C714 1.524 . S
C718 H730 0.956 . S
C718 H731 0.961 . S
C718 H732 0.961 . S
C719 C716 1.539 . S
C719 H733 0.958 . S
C719 H734 0.961 . S
C719 H735 0.960 . S
H720 C704 0.931 . S
H721 C709 0.929 . S
H722 C710 0.960 . S
H723 C710 0.962 . S
H724 C710 0.960 . S
H725 C711 0.961 . S
H726 C711 0.961 . S
H727 C711 0.961 . S
H728 C712 0.931 . S
H729 C717 0.930 . S
H730 C718 0.956 . S
H731 C718 0.961 . S
H732 C718 0.961 . S
H733 C719 0.958 . S
H734 C719 0.961 . S
H735 C719 0.960 . S
C736 C737 1.391 . S
C736 C738 1.394 . S
C736 H752 0.931 . S
C737 C736 1.391 . S
C737 C741 1.376 . S
C738 C736 1.394 . S
C738 C739 1.369 . S
C738 C742 1.531 . S
C739 C738 1.369 . S
C739 C740 1.410 . S
C739 C747 1.503 . S
C740 C739 1.410 . S
C740 C741 1.392 . S
C740 C743 1.511 . S
C741 C737 1.376 . S
C741 C740 1.392 . S
C741 H753 0.929 . S
C742 C738 1.531 . S
C742 H754 0.960 . S
C742 H755 0.962 . S
C742 H756 0.960 . S
C743 C740 1.511 . S
C743 H757 0.961 . S
C743 H758 0.961 . S
C743 H759 0.961 . S
C744 C745 1.370 . S
C744 C746 1.363 . S
C744 H760 0.931 . S
C745 C744 1.370 . S
C745 C749 1.408 . S
C746 C744 1.363 . S
C746 C747 1.370 . S
C746 C750 1.524 . S
C747 C739 1.503 . S
C747 C746 1.370 . S
C747 C748 1.403 . S
C748 C747 1.403 . S
C748 C749 1.404 . S
C748 C751 1.539 . S
C749 C745 1.408 . S
C749 C748 1.404 . S
C749 H761 0.930 . S
C750 C746 1.524 . S
C750 H762 0.956 . S
C750 H763 0.961 . S
C750 H764 0.961 . S
C751 C748 1.539 . S
C751 H765 0.958 . S
C751 H766 0.961 . S
C751 H767 0.960 . S
H752 C736 0.931 . S
H753 C741 0.929 . S
H754 C742 0.960 . S
H755 C742 0.962 . S
H756 C742 0.960 . S
H757 C743 0.961 . S
H758 C743 0.961 . S
H759 C743 0.961 . S
H760 C744 0.931 . S
H761 C749 0.930 . S
H762 C750 0.956 . S
H763 C750 0.961 . S
H764 C750 0.961 . S
H765 C751 0.958 . S
H766 C751 0.961 . S
H767 C751 0.960 . S
C768 C769 1.391 . S
C768 C770 1.394 . S
C768 H784 0.931 . S
C769 C768 1.391 . S
C769 C773 1.376 . S
C770 C768 1.394 . S
C770 C771 1.369 . S
C770 C774 1.531 . S
C771 C770 1.369 . S
C771 C772 1.410 . S
C771 C779 1.503 . S
C772 C771 1.410 . S
C772 C773 1.392 . S
C772 C775 1.511 . S
C773 C769 1.376 . S
C773 C772 1.392 . S
C773 H785 0.929 . S
C774 C770 1.531 . S
C774 H786 0.960 . S
C774 H787 0.962 . S
C774 H788 0.960 . S
C775 C772 1.511 . S
C775 H789 0.961 . S
C775 H790 0.961 . S
C775 H791 0.961 . S
C776 C777 1.370 . S
C776 C778 1.363 . S
C776 H792 0.931 . S
C777 C776 1.370 . S
C777 C781 1.408 . S
C778 C776 1.363 . S
C778 C779 1.370 . S
C778 C782 1.524 . S
C779 C771 1.503 . S
C779 C778 1.370 . S
C779 C780 1.403 . S
C780 C779 1.403 . S
C780 C781 1.404 . S
C780 C783 1.539 . S
C781 C777 1.408 . S
C781 C780 1.404 . S
C781 H793 0.930 . S
C782 C778 1.524 . S
C782 H794 0.956 . S
C782 H795 0.961 . S
C782 H796 0.961 . S
C783 C780 1.539 . S
C783 H797 0.958 . S
C783 H798 0.961 . S
C783 H799 0.960 . S
H784 C768 0.931 . S
H785 C773 0.929 . S
H786 C774 0.960 . S
H787 C774 0.962 . S
H788 C774 0.960 . S
H789 C775 0.961 . S
H790 C775 0.961 . S
H791 C775 0.961 . S
H792 C776 0.931 . S
H793 C781 0.930 . S
H794 C782 0.956 . S
H795 C782 0.961 . S
H796 C782 0.961 . S
H797 C783 0.958 . S
H798 C783 0.961 . S
H799 C783 0.960 . S
C800 C801 1.391 . S
C800 C802 1.394 . S
C800 H816 0.931 . S
C801 C800 1.391 . S
C801 C805 1.376 . S
C802 C800 1.394 . S
C802 C803 1.369 . S
C802 C806 1.531 . S
C803 C802 1.369 . S
C803 C804 1.410 . S
C803 C811 1.503 . S
C804 C803 1.410 . S
C804 C805 1.392 . S
C804 C807 1.511 1_554 S
C805 C801 1.376 . S
C805 C804 1.392 . S
C805 H817 0.929 1_554 S
C806 C802 1.531 . S
C806 H818 0.960 . S
C806 H819 0.962 . S
C806 H820 0.960 . S
C807 C804 1.511 1_556 S
C807 H821 0.961 . S
C807 H822 0.961 . S
C807 H823 0.961 . S
C808 C809 1.370 . S
C808 C810 1.363 . S
C808 H824 0.931 . S
C809 C808 1.370 . S
C809 C813 1.408 . S
C810 C808 1.363 . S
C810 C811 1.370 . S
C810 C814 1.524 . S
C811 C803 1.503 . S
C811 C810 1.370 . S
C811 C812 1.403 . S
C812 C811 1.403 . S
C812 C813 1.404 . S
C812 C815 1.539 . S
C813 C809 1.408 . S
C813 C812 1.404 . S
C813 H825 0.930 . S
C814 C810 1.524 . S
C814 H826 0.956 . S
C814 H827 0.961 . S
C814 H828 0.961 . S
C815 C812 1.539 . S
C815 H829 0.958 . S
C815 H830 0.961 . S
C815 H831 0.960 . S
H816 C800 0.931 . S
H817 C805 0.929 1_556 S
H818 C806 0.960 . S
H819 C806 0.962 . S
H820 C806 0.960 . S
H821 C807 0.961 . S
H822 C807 0.961 . S
H823 C807 0.961 . S
H824 C808 0.931 . S
H825 C813 0.930 . S
H826 C814 0.956 . S
H827 C814 0.961 . S
H828 C814 0.961 . S
H829 C815 0.958 . S
H830 C815 0.961 . S
H831 C815 0.960 . S
C832 C833 1.391 . S
C832 C834 1.394 . S
C832 H848 0.931 . S
C833 C832 1.391 . S
C833 C837 1.376 . S
C834 C832 1.394 . S
C834 C835 1.369 . S
C834 C838 1.531 . S
C835 C834 1.369 . S
C835 C836 1.410 . S
C835 C843 1.503 . S
C836 C835 1.410 . S
C836 C837 1.392 . S
C836 C839 1.511 . S
C837 C833 1.376 . S
C837 C836 1.392 . S
C837 H849 0.929 . S
C838 C834 1.531 . S
C838 H850 0.960 . S
C838 H851 0.962 . S
C838 H852 0.960 . S
C839 C836 1.511 . S
C839 H853 0.961 . S
C839 H854 0.961 . S
C839 H855 0.961 1_554 S
C840 C841 1.370 . S
C840 C842 1.363 . S
C840 H856 0.931 . S
C841 C840 1.370 . S
C841 C845 1.408 . S
C842 C840 1.363 . S
C842 C843 1.370 . S
C842 C846 1.524 . S
C843 C835 1.503 . S
C843 C842 1.370 . S
C843 C844 1.403 . S
C844 C843 1.403 . S
C844 C845 1.404 . S
C844 C847 1.539 1_554 S
C845 C841 1.408 . S
C845 C844 1.404 . S
C845 H857 0.930 . S
C846 C842 1.524 . S
C846 H858 0.956 . S
C846 H859 0.961 . S
C846 H860 0.961 . S
C847 C844 1.539 1_556 S
C847 H861 0.958 . S
C847 H862 0.961 . S
C847 H863 0.960 . S
H848 C832 0.931 . S
H849 C837 0.929 . S
H850 C838 0.960 . S
H851 C838 0.962 . S
H852 C838 0.960 . S
H853 C839 0.961 . S
H854 C839 0.961 . S
H855 C839 0.961 1_556 S
H856 C840 0.931 . S
H857 C845 0.930 . S
H858 C846 0.956 . S
H859 C846 0.961 . S
H860 C846 0.961 . S
H861 C847 0.958 . S
H862 C847 0.961 . S
H863 C847 0.960 . S
C864 C865 1.391 . S
C864 C866 1.394 . S
C864 H880 0.931 . S
C865 C864 1.391 . S
C865 C869 1.376 . S
C866 C864 1.394 . S
C866 C867 1.369 . S
C866 C870 1.531 . S
C867 C866 1.369 . S
C867 C868 1.410 . S
C867 C875 1.503 . S
C868 C867 1.410 . S
C868 C869 1.392 . S
C868 C871 1.511 . S
C869 C865 1.376 . S
C869 C868 1.392 . S
C869 H881 0.929 . S
C870 C866 1.531 . S
C870 H882 0.960 . S
C870 H883 0.962 . S
C870 H884 0.960 . S
C871 C868 1.511 . S
C871 H885 0.961 . S
C871 H886 0.961 . S
C871 H887 0.961 1_554 S
C872 C873 1.370 . S
C872 C874 1.363 . S
C872 H888 0.931 . S
C873 C872 1.370 . S
C873 C877 1.408 . S
C874 C872 1.363 . S
C874 C875 1.370 . S
C874 C878 1.524 . S
C875 C867 1.503 . S
C875 C874 1.370 . S
C875 C876 1.403 . S
C876 C875 1.403 . S
C876 C877 1.404 . S
C876 C879 1.539 1_554 S
C877 C873 1.408 . S
C877 C876 1.404 . S
C877 H889 0.930 1_554 S
C878 C874 1.524 . S
C878 H890 0.956 . S
C878 H891 0.961 . S
C878 H892 0.961 . S
C879 C876 1.539 1_556 S
C879 H893 0.958 . S
C879 H894 0.961 . S
C879 H895 0.960 . S
H880 C864 0.931 . S
H881 C869 0.929 . S
H882 C870 0.960 . S
H883 C870 0.962 . S
H884 C870 0.960 . S
H885 C871 0.961 . S
H886 C871 0.961 . S
H887 C871 0.961 1_556 S
H888 C872 0.931 . S
H889 C877 0.930 1_556 S
H890 C878 0.956 . S
H891 C878 0.961 . S
H892 C878 0.961 . S
H893 C879 0.958 . S
H894 C879 0.961 . S
H895 C879 0.960 . S
C896 C897 1.391 . S
C896 C898 1.394 . S
C896 H912 0.931 . S
C897 C896 1.391 . S
C897 C901 1.376 . S
C898 C896 1.394 . S
C898 C899 1.369 . S
C898 C902 1.531 . S
C899 C898 1.369 . S
C899 C900 1.410 . S
C899 C907 1.503 . S
C900 C899 1.410 . S
C900 C901 1.392 . S
C900 C903 1.511 1_554 S
C901 C897 1.376 . S
C901 C900 1.392 . S
C901 H913 0.929 . S
C902 C898 1.531 . S
C902 H914 0.960 . S
C902 H915 0.962 . S
C902 H916 0.960 . S
C903 C900 1.511 1_556 S
C903 H917 0.961 . S
C903 H918 0.961 . S
C903 H919 0.961 . S
C904 C905 1.370 . S
C904 C906 1.363 . S
C904 H920 0.931 . S
C905 C904 1.370 . S
C905 C909 1.408 . S
C906 C904 1.363 . S
C906 C907 1.370 . S
C906 C910 1.524 . S
C907 C899 1.503 . S
C907 C906 1.370 . S
C907 C908 1.403 . S
C908 C907 1.403 . S
C908 C909 1.404 . S
C908 C911 1.539 . S
C909 C905 1.408 . S
C909 C908 1.404 . S
C909 H921 0.930 . S
C910 C906 1.524 . S
C910 H922 0.956 . S
C910 H923 0.961 . S
C910 H924 0.961 . S
C911 C908 1.539 . S
C911 H925 0.958 . S
C911 H926 0.961 . S
C911 H927 0.960 . S
H912 C896 0.931 . S
H913 C901 0.929 . S
H914 C902 0.960 . S
H915 C902 0.962 . S
H916 C902 0.960 . S
H917 C903 0.961 . S
H918 C903 0.961 . S
H919 C903 0.961 . S
H920 C904 0.931 . S
H921 C909 0.930 . S
H922 C910 0.956 . S
H923 C910 0.961 . S
H924 C910 0.961 . S
H925 C911 0.958 . S
H926 C911 0.961 . S
H927 C911 0.960 . S
C928 C929 1.391 . S
C928 C930 1.394 . S
C928 H944 0.931 . S
C929 C928 1.391 . S
C929 C933 1.376 . S
C930 C928 1.394 . S
C930 C931 1.369 . S
C930 C934 1.531 . S
C931 C930 1.369 . S
C931 C932 1.410 . S
C931 C939 1.503 . S
C932 C931 1.410 . S
C932 C933 1.392 . S
C932 C935 1.511 . S
C933 C929 1.376 . S
C933 C932 1.392 . S
C933 H945 0.929 . S
C934 C930 1.531 . S
C934 H946 0.960 . S
C934 H947 0.962 . S
C934 H948 0.960 . S
C935 C932 1.511 . S
C935 H949 0.961 . S
C935 H950 0.961 . S
C935 H951 0.961 . S
C936 C937 1.370 . S
C936 C938 1.363 . S
C936 H952 0.931 . S
C937 C936 1.370 . S
C937 C941 1.408 . S
C938 C936 1.363 . S
C938 C939 1.370 . S
C938 C942 1.524 . S
C939 C931 1.503 . S
C939 C938 1.370 . S
C939 C940 1.403 . S
C940 C939 1.403 . S
C940 C941 1.404 . S
C940 C943 1.539 . S
C941 C937 1.408 . S
C941 C940 1.404 . S
C941 H953 0.930 . S
C942 C938 1.524 . S
C942 H954 0.956 . S
C942 H955 0.961 . S
C942 H956 0.961 . S
C943 C940 1.539 . S
C943 H957 0.958 . S
C943 H958 0.961 . S
C943 H959 0.960 . S
H944 C928 0.931 . S
H945 C933 0.929 . S
H946 C934 0.960 . S
H947 C934 0.962 . S
H948 C934 0.960 . S
H949 C935 0.961 . S
H950 C935 0.961 . S
H951 C935 0.961 . S
H952 C936 0.931 . S
H953 C941 0.930 . S
H954 C942 0.956 . S
H955 C942 0.961 . S
H956 C942 0.961 . S
H957 C943 0.958 . S
H958 C943 0.961 . S
H959 C943 0.960 . S
C960 C961 1.391 . S
C960 C962 1.394 . S
C960 H976 0.931 . S
C961 C960 1.391 . S
C961 C965 1.376 . S
C962 C960 1.394 . S
C962 C963 1.369 . S
C962 C966 1.531 . S
C963 C962 1.369 . S
C963 C964 1.410 . S
C963 C971 1.503 . S
C964 C963 1.410 . S
C964 C965 1.392 . S
C964 C967 1.511 . S
C965 C961 1.376 . S
C965 C964 1.392 . S
C965 H977 0.929 . S
C966 C962 1.531 . S
C966 H978 0.960 . S
C966 H979 0.962 . S
C966 H980 0.960 . S
C967 C964 1.511 . S
C967 H981 0.961 . S
C967 H982 0.961 . S
C967 H983 0.961 . S
C968 C969 1.370 . S
C968 C970 1.363 . S
C968 H984 0.931 . S
C969 C968 1.370 . S
C969 C973 1.408 . S
C970 C968 1.363 . S
C970 C971 1.370 . S
C970 C974 1.524 . S
C971 C963 1.503 . S
C971 C970 1.370 . S
C971 C972 1.403 . S
C972 C971 1.403 . S
C972 C973 1.404 . S
C972 C975 1.539 . S
C973 C969 1.408 . S
C973 C972 1.404 . S
C973 H985 0.930 . S
C974 C970 1.524 . S
C974 H986 0.956 . S
C974 H987 0.961 . S
C974 H988 0.961 . S
C975 C972 1.539 . S
C975 H989 0.958 . S
C975 H990 0.961 . S
C975 H991 0.960 . S
H976 C960 0.931 . S
H977 C965 0.929 . S
H978 C966 0.960 . S
H979 C966 0.962 . S
H980 C966 0.960 . S
H981 C967 0.961 . S
H982 C967 0.961 . S
H983 C967 0.961 . S
H984 C968 0.931 . S
H985 C973 0.930 . S
H986 C974 0.956 . S
H987 C974 0.961 . S
H988 C974 0.961 . S
H989 C975 0.958 . S
H990 C975 0.961 . S
H991 C975 0.960 . S
C992 C993 1.391 . S
C992 C994 1.394 . S
C992 H1008 0.931 . S
C993 C992 1.391 . S
C993 C997 1.376 . S
C994 C992 1.394 . S
C994 C995 1.369 . S
C994 C998 1.531 . S
C995 C994 1.369 . S
C995 C996 1.410 . S
C995 C1003 1.503 . S
C996 C995 1.410 . S
C996 C997 1.392 . S
C996 C999 1.511 . S
C997 C993 1.376 . S
C997 C996 1.392 . S
C997 H1009 0.929 . S
C998 C994 1.531 . S
C998 H1010 0.960 . S
C998 H1011 0.962 . S
C998 H1012 0.960 . S
C999 C996 1.511 . S
C999 H1013 0.961 . S
C999 H1014 0.961 . S
C999 H1015 0.961 . S
C1000 C1001 1.370 . S
C1000 C1002 1.363 . S
C1000 H1016 0.931 . S
C1001 C1000 1.370 . S
C1001 C1005 1.408 . S
C1002 C1000 1.363 . S
C1002 C1003 1.370 . S
C1002 C1006 1.524 . S
C1003 C995 1.503 . S
C1003 C1002 1.370 . S
C1003 C1004 1.403 . S
C1004 C1003 1.403 . S
C1004 C1005 1.404 . S
C1004 C1007 1.539 . S
C1005 C1001 1.408 . S
C1005 C1004 1.404 . S
C1005 H1017 0.930 . S
C1006 C1002 1.524 . S
C1006 H1018 0.956 . S
C1006 H1019 0.961 . S
C1006 H1020 0.961 . S
C1007 C1004 1.539 . S
C1007 H1021 0.958 . S
C1007 H1022 0.961 . S
C1007 H1023 0.960 . S
H1008 C992 0.931 . S
H1009 C997 0.929 . S
H1010 C998 0.960 . S
H1011 C998 0.962 . S
H1012 C998 0.960 . S
H1013 C999 0.961 . S
H1014 C999 0.961 . S
H1015 C999 0.961 . S
H1016 C1000 0.931 . S
H1017 C1005 0.930 . S
H1018 C1006 0.956 . S
H1019 C1006 0.961 . S
H1020 C1006 0.961 . S
H1021 C1007 0.958 . S
H1022 C1007 0.961 . S
H1023 C1007 0.960 . S
C1024 C1025 1.391 . S
C1024 C1026 1.394 . S
C1024 H1040 0.931 . S
C1025 C1024 1.391 . S
C1025 C1029 1.376 . S
C1026 C1024 1.394 . S
C1026 C1027 1.369 . S
C1026 C1030 1.531 . S
C1027 C1026 1.369 . S
C1027 C1028 1.410 . S
C1027 C1035 1.503 . S
C1028 C1027 1.410 . S
C1028 C1029 1.392 . S
C1028 C1031 1.511 . S
C1029 C1025 1.376 . S
C1029 C1028 1.392 . S
C1029 H1041 0.929 . S
C1030 C1026 1.531 . S
C1030 H1042 0.960 . S
C1030 H1043 0.962 . S
C1030 H1044 0.960 . S
C1031 C1028 1.511 . S
C1031 H1045 0.961 . S
C1031 H1046 0.961 . S
C1031 H1047 0.961 . S
C1032 C1033 1.370 . S
C1032 C1034 1.363 . S
C1032 H1048 0.931 . S
C1033 C1032 1.370 . S
C1033 C1037 1.408 . S
C1034 C1032 1.363 . S
C1034 C1035 1.370 . S
C1034 C1038 1.524 . S
C1035 C1027 1.503 . S
C1035 C1034 1.370 . S
C1035 C1036 1.403 . S
C1036 C1035 1.403 . S
C1036 C1037 1.404 . S
C1036 C1039 1.539 . S
C1037 C1033 1.408 . S
C1037 C1036 1.404 . S
C1037 H1049 0.930 . S
C1038 C1034 1.524 . S
C1038 H1050 0.956 . S
C1038 H1051 0.961 . S
C1038 H1052 0.961 . S
C1039 C1036 1.539 . S
C1039 H1053 0.958 . S
C1039 H1054 0.961 . S
C1039 H1055 0.960 . S
H1040 C1024 0.931 . S
H1041 C1029 0.929 . S
H1042 C1030 0.960 . S
H1043 C1030 0.962 . S
H1044 C1030 0.960 . S
H1045 C1031 0.961 . S
H1046 C1031 0.961 . S
H1047 C1031 0.961 . S
H1048 C1032 0.931 . S
H1049 C1037 0.930 . S
H1050 C1038 0.956 . S
H1051 C1038 0.961 . S
H1052 C1038 0.961 . S
H1053 C1039 0.958 . S
H1054 C1039 0.961 . S
H1055 C1039 0.960 . S
C1056 C1057 1.391 . S
C1056 C1058 1.394 . S
C1056 H1072 0.931 . S
C1057 C1056 1.391 . S
C1057 C1061 1.376 . S
C1058 C1056 1.394 . S
C1058 C1059 1.369 . S
C1058 C1062 1.531 . S
C1059 C1058 1.369 . S
C1059 C1060 1.410 . S
C1059 C1067 1.503 . S
C1060 C1059 1.410 . S
C1060 C1061 1.392 . S
C1060 C1063 1.511 . S
C1061 C1057 1.376 . S
C1061 C1060 1.392 . S
C1061 H1073 0.929 . S
C1062 C1058 1.531 . S
C1062 H1074 0.960 . S
C1062 H1075 0.962 . S
C1062 H1076 0.960 . S
C1063 C1060 1.511 . S
C1063 H1077 0.961 . S
C1063 H1078 0.961 . S
C1063 H1079 0.961 . S
C1064 C1065 1.370 . S
C1064 C1066 1.363 . S
C1064 H1080 0.931 . S
C1065 C1064 1.370 . S
C1065 C1069 1.408 . S
C1066 C1064 1.363 . S
C1066 C1067 1.370 . S
C1066 C1070 1.524 . S
C1067 C1059 1.503 . S
C1067 C1066 1.370 . S
C1067 C1068 1.403 . S
C1068 C1067 1.403 . S
C1068 C1069 1.404 . S
C1068 C1071 1.539 . S
C1069 C1065 1.408 . S
C1069 C1068 1.404 . S
C1069 H1081 0.930 . S
C1070 C1066 1.524 . S
C1070 H1082 0.956 . S
C1070 H1083 0.961 . S
C1070 H1084 0.961 . S
C1071 C1068 1.539 . S
C1071 H1085 0.958 . S
C1071 H1086 0.961 . S
C1071 H1087 0.960 . S
H1072 C1056 0.931 . S
H1073 C1061 0.929 . S
H1074 C1062 0.960 . S
H1075 C1062 0.962 . S
H1076 C1062 0.960 . S
H1077 C1063 0.961 . S
H1078 C1063 0.961 . S
H1079 C1063 0.961 . S
H1080 C1064 0.931 . S
H1081 C1069 0.930 . S
H1082 C1070 0.956 . S
H1083 C1070 0.961 . S
H1084 C1070 0.961 . S
H1085 C1071 0.958 . S
H1086 C1071 0.961 . S
H1087 C1071 0.960 . S
C1088 C1089 1.391 . S
C1088 C1090 1.394 . S
C1088 H1104 0.931 . S
C1089 C1088 1.391 . S
C1089 C1093 1.376 . S
C1090 C1088 1.394 . S
C1090 C1091 1.369 . S
C1090 C1094 1.531 . S
C1091 C1090 1.369 . S
C1091 C1092 1.410 . S
C1091 C1099 1.503 . S
C1092 C1091 1.410 . S
C1092 C1093 1.392 . S
C1092 C1095 1.511 . S
C1093 C1089 1.376 . S
C1093 C1092 1.392 . S
C1093 H1105 0.929 . S
C1094 C1090 1.531 . S
C1094 H1106 0.960 . S
C1094 H1107 0.962 . S
C1094 H1108 0.960 . S
C1095 C1092 1.511 . S
C1095 H1109 0.961 . S
C1095 H1110 0.961 . S
C1095 H1111 0.961 . S
C1096 C1097 1.370 . S
C1096 C1098 1.363 . S
C1096 H1112 0.931 . S
C1097 C1096 1.370 . S
C1097 C1101 1.408 . S
C1098 C1096 1.363 . S
C1098 C1099 1.370 . S
C1098 C1102 1.524 . S
C1099 C1091 1.503 . S
C1099 C1098 1.370 . S
C1099 C1100 1.403 . S
C1100 C1099 1.403 . S
C1100 C1101 1.404 . S
C1100 C1103 1.539 . S
C1101 C1097 1.408 . S
C1101 C1100 1.404 . S
C1101 H1113 0.930 . S
C1102 C1098 1.524 . S
C1102 H1114 0.956 . S
C1102 H1115 0.961 . S
C1102 H1116 0.961 . S
C1103 C1100 1.539 . S
C1103 H1117 0.958 . S
C1103 H1118 0.961 . S
C1103 H1119 0.960 . S
H1104 C1088 0.931 . S
H1105 C1093 0.929 . S
H1106 C1094 0.960 . S
H1107 C1094 0.962 . S
H1108 C1094 0.960 . S
H1109 C1095 0.961 . S
H1110 C1095 0.961 . S
H1111 C1095 0.961 . S
H1112 C1096 0.931 . S
H1113 C1101 0.930 . S
H1114 C1102 0.956 . S
H1115 C1102 0.961 . S
H1116 C1102 0.961 . S
H1117 C1103 0.958 . S
H1118 C1103 0.961 . S
H1119 C1103 0.960 . S
C1120 C1121 1.391 . S
C1120 C1122 1.394 . S
C1120 H1136 0.931 . S
C1121 C1120 1.391 . S
C1121 C1125 1.376 . S
C1122 C1120 1.394 . S
C1122 C1123 1.369 . S
C1122 C1126 1.531 . S
C1123 C1122 1.369 . S
C1123 C1124 1.410 . S
C1123 C1131 1.503 . S
C1124 C1123 1.410 . S
C1124 C1125 1.392 . S
C1124 C1127 1.511 . S
C1125 C1121 1.376 . S
C1125 C1124 1.392 . S
C1125 H1137 0.929 . S
C1126 C1122 1.531 . S
C1126 H1138 0.960 . S
C1126 H1139 0.962 . S
C1126 H1140 0.960 . S
C1127 C1124 1.511 . S
C1127 H1141 0.961 . S
C1127 H1142 0.961 . S
C1127 H1143 0.961 . S
C1128 C1129 1.370 . S
C1128 C1130 1.363 . S
C1128 H1144 0.931 . S
C1129 C1128 1.370 . S
C1129 C1133 1.408 . S
C1130 C1128 1.363 . S
C1130 C1131 1.370 . S
C1130 C1134 1.524 . S
C1131 C1123 1.503 . S
C1131 C1130 1.370 . S
C1131 C1132 1.403 . S
C1132 C1131 1.403 . S
C1132 C1133 1.404 . S
C1132 C1135 1.539 . S
C1133 C1129 1.408 . S
C1133 C1132 1.404 . S
C1133 H1145 0.930 . S
C1134 C1130 1.524 . S
C1134 H1146 0.956 . S
C1134 H1147 0.961 . S
C1134 H1148 0.961 . S
C1135 C1132 1.539 . S
C1135 H1149 0.958 . S
C1135 H1150 0.961 . S
C1135 H1151 0.960 . S
H1136 C1120 0.931 . S
H1137 C1125 0.929 . S
H1138 C1126 0.960 . S
H1139 C1126 0.962 . S
H1140 C1126 0.960 . S
H1141 C1127 0.961 . S
H1142 C1127 0.961 . S
H1143 C1127 0.961 . S
H1144 C1128 0.931 . S
H1145 C1133 0.930 . S
H1146 C1134 0.956 . S
H1147 C1134 0.961 . S
H1148 C1134 0.961 . S
H1149 C1135 0.958 . S
H1150 C1135 0.961 . S
H1151 C1135 0.960 . S
C1152 C1153 1.391 . S
C1152 C1154 1.394 . S
C1152 H1168 0.931 . S
C1153 C1152 1.391 . S
C1153 C1157 1.376 . S
C1154 C1152 1.394 . S
C1154 C1155 1.369 . S
C1154 C1158 1.531 . S
C1155 C1154 1.369 . S
C1155 C1156 1.410 . S
C1155 C1163 1.503 . S
C1156 C1155 1.410 . S
C1156 C1157 1.392 . S
C1156 C1159 1.511 . S
C1157 C1153 1.376 . S
C1157 C1156 1.392 . S
C1157 H1169 0.929 . S
C1158 C1154 1.531 . S
C1158 H1170 0.960 . S
C1158 H1171 0.962 . S
C1158 H1172 0.960 . S
C1159 C1156 1.511 . S
C1159 H1173 0.961 . S
C1159 H1174 0.961 . S
C1159 H1175 0.961 . S
C1160 C1161 1.370 . S
C1160 C1162 1.363 . S
C1160 H1176 0.931 . S
C1161 C1160 1.370 . S
C1161 C1165 1.408 . S
C1162 C1160 1.363 . S
C1162 C1163 1.370 . S
C1162 C1166 1.524 . S
C1163 C1155 1.503 . S
C1163 C1162 1.370 . S
C1163 C1164 1.403 . S
C1164 C1163 1.403 . S
C1164 C1165 1.404 . S
C1164 C1167 1.539 . S
C1165 C1161 1.408 . S
C1165 C1164 1.404 . S
C1165 H1177 0.930 . S
C1166 C1162 1.524 . S
C1166 H1178 0.956 . S
C1166 H1179 0.961 . S
C1166 H1180 0.961 . S
C1167 C1164 1.539 . S
C1167 H1181 0.958 . S
C1167 H1182 0.961 . S
C1167 H1183 0.960 . S
H1168 C1152 0.931 . S
H1169 C1157 0.929 . S
H1170 C1158 0.960 . S
H1171 C1158 0.962 . S
H1172 C1158 0.960 . S
H1173 C1159 0.961 . S
H1174 C1159 0.961 . S
H1175 C1159 0.961 . S
H1176 C1160 0.931 . S
H1177 C1165 0.930 . S
H1178 C1166 0.956 . S
H1179 C1166 0.961 . S
H1180 C1166 0.961 . S
H1181 C1167 0.958 . S
H1182 C1167 0.961 . S
H1183 C1167 0.960 . S
C1184 C1185 1.391 . S
C1184 C1186 1.394 . S
C1184 H1200 0.931 . S
C1185 C1184 1.391 . S
C1185 C1189 1.376 1_554 S
C1186 C1184 1.394 . S
C1186 C1187 1.369 1_554 S
C1186 C1190 1.531 . S
C1187 C1186 1.369 1_556 S
C1187 C1188 1.410 . S
C1187 C1195 1.503 . S
C1188 C1187 1.410 . S
C1188 C1189 1.392 . S
C1188 C1191 1.511 . S
C1189 C1185 1.376 1_556 S
C1189 C1188 1.392 . S
C1189 H1201 0.929 . S
C1190 C1186 1.531 . S
C1190 H1202 0.960 . S
C1190 H1203 0.962 . S
C1190 H1204 0.960 . S
C1191 C1188 1.511 . S
C1191 H1205 0.961 . S
C1191 H1206 0.961 . S
C1191 H1207 0.961 . S
C1192 C1193 1.370 1_554 S
C1192 C1194 1.363 . S
C1192 H1208 0.931 . S
C1193 C1192 1.370 1_556 S
C1193 C1197 1.408 . S
C1194 C1192 1.363 . S
C1194 C1195 1.370 1_554 S
C1194 C1198 1.524 . S
C1195 C1187 1.503 . S
C1195 C1194 1.370 1_556 S
C1195 C1196 1.403 . S
C1196 C1195 1.403 . S
C1196 C1197 1.404 . S
C1196 C1199 1.539 . S
C1197 C1193 1.408 . S
C1197 C1196 1.404 . S
C1197 H1209 0.930 . S
C1198 C1194 1.524 . S
C1198 H1210 0.956 . S
C1198 H1211 0.961 . S
C1198 H1212 0.961 . S
C1199 C1196 1.539 . S
C1199 H1213 0.958 . S
C1199 H1214 0.961 . S
C1199 H1215 0.960 . S
H1200 C1184 0.931 . S
H1201 C1189 0.929 . S
H1202 C1190 0.960 . S
H1203 C1190 0.962 . S
H1204 C1190 0.960 . S
H1205 C1191 0.961 . S
H1206 C1191 0.961 . S
H1207 C1191 0.961 . S
H1208 C1192 0.931 . S
H1209 C1197 0.930 . S
H1210 C1198 0.956 . S
H1211 C1198 0.961 . S
H1212 C1198 0.961 . S
H1213 C1199 0.958 . S
H1214 C1199 0.961 . S
H1215 C1199 0.960 . S
C1216 C1217 1.391 . S
C1216 C1218 1.394 . S
C1216 H1232 0.931 . S
C1217 C1216 1.391 . S
C1217 C1221 1.370 1_554 S
C1218 C1216 1.394 . S
C1218 C1219 1.369 . S
C1218 C1222 1.531 . S
C1219 C1218 1.369 . S
C1219 C1220 1.408 1_554 S
C1219 C1227 1.503 . S
C1220 C1219 1.408 1_556 S
C1220 C1221 1.392 . S
C1220 C1223 1.512 . S
C1221 C1217 1.370 1_556 S
C1221 C1220 1.392 . S
C1221 H1233 0.935 . S
C1222 C1218 1.531 . S
C1222 H1234 0.960 . S
C1222 H1235 0.962 . S
C1222 H1236 0.960 . S
C1223 C1220 1.512 . S
C1223 H1237 0.961 . S
C1223 H1238 0.961 . S
C1223 H1239 0.961 1_556 S
C1224 C1225 1.370 . S
C1224 C1226 1.363 . S
C1224 H1240 0.931 . S
C1225 C1224 1.370 . S
C1225 C1229 1.408 1_556 S
C1226 C1224 1.363 . S
C1226 C1227 1.370 1_556 S
C1226 C1230 1.524 . S
C1227 C1219 1.503 . S
C1227 C1226 1.370 1_554 S
C1227 C1228 1.403 . S
C1228 C1227 1.403 . S
C1228 C1229 1.404 . S
C1228 C1231 1.539 . S
C1229 C1225 1.408 1_554 S
C1229 C1228 1.404 . S
C1229 H1241 0.930 . S
C1230 C1226 1.524 . S
C1230 H1242 0.956 . S
C1230 H1243 0.961 . S
C1230 H1244 0.961 . S
C1231 C1228 1.539 . S
C1231 H1245 0.958 . S
C1231 H1246 0.961 . S
C1231 H1247 0.960 . S
H1232 C1216 0.931 . S
H1233 C1221 0.935 . S
H1234 C1222 0.960 . S
H1235 C1222 0.962 . S
H1236 C1222 0.960 . S
H1237 C1223 0.961 . S
H1238 C1223 0.961 . S
H1239 C1223 0.961 1_554 S
H1240 C1224 0.931 . S
H1241 C1229 0.930 . S
H1242 C1230 0.956 . S
H1243 C1230 0.961 . S
H1244 C1230 0.961 . S
H1245 C1231 0.958 . S
H1246 C1231 0.961 . S
H1247 C1231 0.960 . S
C1248 C1249 1.391 . S
C1248 C1250 1.394 . S
C1248 H1264 0.931 . S
C1249 C1248 1.391 . S
C1249 C1253 1.376 . S
C1250 C1248 1.394 . S
C1250 C1251 1.369 . S
C1250 C1254 1.531 . S
C1251 C1250 1.369 . S
C1251 C1252 1.410 . S
C1251 C1259 1.503 . S
C1252 C1251 1.410 . S
C1252 C1253 1.392 . S
C1252 C1255 1.511 . S
C1253 C1249 1.376 . S
C1253 C1252 1.392 . S
C1253 H1265 0.929 . S
C1254 C1250 1.531 . S
C1254 H1266 0.960 . S
C1254 H1267 0.962 1_554 S
C1254 H1268 0.960 . S
C1255 C1252 1.511 . S
C1255 H1269 0.961 1_554 S
C1255 H1270 0.961 1_554 S
C1255 H1271 0.961 . S
C1256 C1257 1.370 . S
C1256 C1258 1.363 . S
C1256 H1272 0.931 . S
C1257 C1256 1.370 . S
C1257 C1261 1.408 1_556 S
C1258 C1256 1.363 . S
C1258 C1259 1.370 1_556 S
C1258 C1262 1.524 . S
C1259 C1251 1.503 . S
C1259 C1258 1.370 1_554 S
C1259 C1260 1.403 . S
C1260 C1259 1.403 . S
C1260 C1261 1.404 . S
C1260 C1263 1.539 . S
C1261 C1257 1.408 1_554 S
C1261 C1260 1.404 . S
C1261 H1273 0.930 . S
C1262 C1258 1.524 . S
C1262 H1274 0.956 . S
C1262 H1275 0.961 . S
C1262 H1276 0.961 . S
C1263 C1260 1.539 . S
C1263 H1277 0.958 . S
C1263 H1278 0.961 . S
C1263 H1279 0.960 . S
H1264 C1248 0.931 . S
H1265 C1253 0.929 . S
H1266 C1254 0.960 . S
H1267 C1254 0.962 1_556 S
H1268 C1254 0.960 . S
H1269 C1255 0.961 1_556 S
H1270 C1255 0.961 1_556 S
H1271 C1255 0.961 . S
H1272 C1256 0.931 . S
H1273 C1261 0.930 . S
H1274 C1262 0.956 . S
H1275 C1262 0.961 . S
H1276 C1262 0.961 . S
H1277 C1263 0.958 . S
H1278 C1263 0.961 . S
H1279 C1263 0.960 . S
C1280 C1281 1.391 1_556 S
C1280 C1282 1.394 . S
C1280 H1296 0.931 . S
C1281 C1280 1.391 1_554 S
C1281 C1285 1.376 . S
C1282 C1280 1.394 . S
C1282 C1283 1.369 . S
C1282 C1286 1.531 . S
C1283 C1282 1.369 . S
C1283 C1284 1.410 . S
C1283 C1291 1.503 . S
C1284 C1283 1.410 . S
C1284 C1285 1.392 1_556 S
C1284 C1287 1.511 . S
C1285 C1281 1.376 . S
C1285 C1284 1.392 1_554 S
C1285 H1297 0.929 . S
C1286 C1282 1.531 . S
C1286 H1298 0.960 . S
C1286 H1299 0.962 1_556 S
C1286 H1300 0.960 . S
C1287 C1284 1.511 . S
C1287 H1301 0.961 1_556 S
C1287 H1302 0.961 1_556 S
C1287 H1303 0.961 . S
C1288 C1289 1.370 1_554 S
C1288 C1290 1.363 . S
C1288 H1304 0.931 . S
C1289 C1288 1.370 1_556 S
C1289 C1293 1.408 . S
C1290 C1288 1.363 . S
C1290 C1291 1.370 1_554 S
C1290 C1294 1.524 . S
C1291 C1283 1.503 . S
C1291 C1290 1.370 1_556 S
C1291 C1292 1.403 . S
C1292 C1291 1.403 . S
C1292 C1293 1.404 . S
C1292 C1295 1.539 . S
C1293 C1289 1.408 . S
C1293 C1292 1.404 . S
C1293 H1305 0.930 . S
C1294 C1290 1.524 . S
C1294 H1306 0.956 . S
C1294 H1307 0.961 . S
C1294 H1308 0.961 . S
C1295 C1292 1.539 . S
C1295 H1309 0.958 . S
C1295 H1310 0.961 . S
C1295 H1311 0.960 . S
H1296 C1280 0.931 . S
H1297 C1285 0.929 . S
H1298 C1286 0.960 . S
H1299 C1286 0.962 1_554 S
H1300 C1286 0.960 . S
H1301 C1287 0.961 1_554 S
H1302 C1287 0.961 1_554 S
H1303 C1287 0.961 . S
H1304 C1288 0.931 . S
H1305 C1293 0.930 . S
H1306 C1294 0.956 . S
H1307 C1294 0.961 . S
H1308 C1294 0.961 . S
H1309 C1295 0.958 . S
H1310 C1295 0.961 . S
H1311 C1295 0.960 . S
C1312 C1313 1.391 . S
C1312 C1314 1.394 . S
C1312 H1328 0.931 . S
C1313 C1312 1.391 . S
C1313 C1317 1.376 1_655 S
C1314 C1312 1.394 . S
C1314 C1315 1.360 1_655 S
C1314 C1318 1.531 . S
C1315 C1314 1.360 1_455 S
C1315 C1316 1.416 . S
C1315 C1323 1.505 . S
C1316 C1315 1.416 . S
C1316 C1317 1.392 . S
C1316 C1319 1.511 . S
C1317 C1313 1.376 1_455 S
C1317 C1316 1.392 . S
C1317 H1329 0.929 . S
C1318 C1314 1.531 . S
C1318 H1330 0.960 . S
C1318 H1331 0.962 . S
C1318 H1332 0.960 . S
C1319 C1316 1.511 . S
C1319 H1333 0.961 . S
C1319 H1334 0.961 . S
C1319 H1335 0.961 . S
C1320 C1321 1.370 1_655 S
C1320 C1322 1.363 . S
C1320 H1336 0.931 . S
C1321 C1320 1.370 1_455 S
C1321 C1325 1.408 . S
C1322 C1320 1.363 . S
C1322 C1323 1.370 1_655 S
C1322 C1326 1.524 . S
C1323 C1315 1.505 . S
C1323 C1322 1.370 1_455 S
C1323 C1324 1.403 . S
C1324 C1323 1.403 . S
C1324 C1325 1.404 . S
C1324 C1327 1.539 . S
C1325 C1321 1.408 . S
C1325 C1324 1.404 . S
C1325 H1337 0.930 . S
C1326 C1322 1.524 . S
C1326 H1338 0.956 . S
C1326 H1339 0.961 . S
C1326 H1340 0.961 . S
C1327 C1324 1.539 . S
C1327 H1341 0.958 . S
C1327 H1342 0.961 . S
C1327 H1343 0.960 . S
H1328 C1312 0.931 . S
H1329 C1317 0.929 . S
H1330 C1318 0.960 . S
H1331 C1318 0.962 . S
H1332 C1318 0.960 . S
H1333 C1319 0.961 . S
H1334 C1319 0.961 . S
H1335 C1319 0.961 . S
H1336 C1320 0.931 . S
H1337 C1325 0.930 . S
H1338 C1326 0.956 . S
H1339 C1326 0.961 . S
H1340 C1326 0.961 . S
H1341 C1327 0.958 . S
H1342 C1327 0.961 . S
H1343 C1327 0.960 . S
C1344 C1345 1.391 . S
C1344 C1346 1.394 . S
C1344 H1360 0.931 . S
C1345 C1344 1.391 . S
C1345 C1349 1.376 . S
C1346 C1344 1.394 . S
C1346 C1347 1.369 . S
C1346 C1350 1.531 . S
C1347 C1346 1.369 . S
C1347 C1348 1.410 . S
C1347 C1355 1.503 . S
C1348 C1347 1.410 . S
C1348 C1349 1.392 . S
C1348 C1351 1.511 1_565 S
C1349 C1345 1.376 . S
C1349 C1348 1.392 . S
C1349 H1361 0.929 . S
C1350 C1346 1.531 . S
C1350 H1362 0.960 . S
C1350 H1363 0.962 . S
C1350 H1364 0.960 . S
C1351 C1348 1.511 1_545 S
C1351 H1365 0.961 . S
C1351 H1366 0.961 . S
C1351 H1367 0.961 1_545 S
C1352 C1353 1.370 . S
C1352 C1354 1.363 . S
C1352 H1368 0.931 . S
C1353 C1352 1.370 . S
C1353 C1357 1.408 1_545 S
C1354 C1352 1.363 . S
C1354 C1355 1.370 1_545 S
C1354 C1358 1.524 . S
C1355 C1347 1.503 . S
C1355 C1354 1.370 1_565 S
C1355 C1356 1.403 . S
C1356 C1355 1.403 . S
C1356 C1357 1.404 . S
C1356 C1359 1.539 . S
C1357 C1353 1.408 1_565 S
C1357 C1356 1.404 . S
C1357 H1369 0.930 . S
C1358 C1354 1.524 . S
C1358 H1370 0.956 . S
C1358 H1371 0.961 . S
C1358 H1372 0.961 . S
C1359 C1356 1.539 . S
C1359 H1373 0.958 . S
C1359 H1374 0.961 . S
C1359 H1375 0.960 . S
H1360 C1344 0.931 . S
H1361 C1349 0.929 . S
H1362 C1350 0.960 . S
H1363 C1350 0.962 . S
H1364 C1350 0.960 . S
H1365 C1351 0.961 . S
H1366 C1351 0.961 . S
H1367 C1351 0.961 1_565 S
H1368 C1352 0.931 . S
H1369 C1357 0.930 . S
H1370 C1358 0.956 . S
H1371 C1358 0.961 . S
H1372 C1358 0.961 . S
H1373 C1359 0.958 . S
H1374 C1359 0.961 . S
H1375 C1359 0.960 . S
C1376 C1377 1.391 1_455 S
C1376 C1378 1.394 . S
C1376 H1392 0.931 . S
C1377 C1376 1.391 1_655 S
C1377 C1381 1.376 . S
C1378 C1376 1.394 . S
C1378 C1379 1.369 . S
C1378 C1382 1.531 . S
C1379 C1378 1.369 . S
C1379 C1380 1.410 1_455 S
C1379 C1387 1.503 . S
C1380 C1379 1.410 1_655 S
C1380 C1381 1.392 . S
C1380 C1383 1.511 . S
C1381 C1377 1.376 . S
C1381 C1380 1.392 . S
C1381 H1393 0.929 . S
C1382 C1378 1.531 . S
C1382 H1394 0.960 . S
C1382 H1395 0.962 . S
C1382 H1396 0.960 . S
C1383 C1380 1.511 . S
C1383 H1397 0.961 . S
C1383 H1398 0.961 . S
C1383 H1399 0.961 . S
C1384 C1385 1.370 1_655 S
C1384 C1386 1.363 . S
C1384 H1400 0.931 . S
C1385 C1384 1.370 1_455 S
C1385 C1389 1.408 . S
C1386 C1384 1.363 . S
C1386 C1387 1.370 1_655 S
C1386 C1390 1.524 . S
C1387 C1379 1.503 . S
C1387 C1386 1.370 1_455 S
C1387 C1388 1.403 . S
C1388 C1387 1.403 . S
C1388 C1389 1.404 . S
C1388 C1391 1.539 . S
C1389 C1385 1.408 . S
C1389 C1388 1.404 . S
C1389 H1401 0.930 . S
C1390 C1386 1.524 . S
C1390 H1402 0.956 . S
C1390 H1403 0.961 . S
C1390 H1404 0.961 . S
C1391 C1388 1.539 . S
C1391 H1405 0.958 . S
C1391 H1406 0.961 . S
C1391 H1407 0.960 . S
H1392 C1376 0.931 . S
H1393 C1381 0.929 . S
H1394 C1382 0.960 . S
H1395 C1382 0.962 . S
H1396 C1382 0.960 . S
H1397 C1383 0.961 . S
H1398 C1383 0.961 . S
H1399 C1383 0.961 . S
H1400 C1384 0.931 . S
H1401 C1389 0.930 . S
H1402 C1390 0.956 . S
H1403 C1390 0.961 . S
H1404 C1390 0.961 . S
H1405 C1391 0.958 . S
H1406 C1391 0.961 . S
H1407 C1391 0.960 . S
C1408 C1409 1.391 1_565 S
C1408 C1410 1.394 . S
C1408 H1424 0.931 . S
C1409 C1408 1.391 1_545 S
C1409 C1413 1.376 . S
C1410 C1408 1.394 . S
C1410 C1411 1.369 . S
C1410 C1414 1.531 . S
C1411 C1410 1.369 . S
C1411 C1412 1.410 1_565 S
C1411 C1419 1.503 . S
C1412 C1411 1.410 1_545 S
C1412 C1413 1.392 . S
C1412 C1415 1.511 . S
C1413 C1409 1.376 . S
C1413 C1412 1.392 . S
C1413 H1425 0.929 . S
C1414 C1410 1.531 . S
C1414 H1426 0.960 . S
C1414 H1427 0.962 . S
C1414 H1428 0.960 . S
C1415 C1412 1.511 . S
C1415 H1429 0.961 . S
C1415 H1430 0.961 . S
C1415 H1431 0.961 . S
C1416 C1417 1.370 1_545 S
C1416 C1418 1.363 . S
C1416 H1432 0.931 . S
C1417 C1416 1.370 1_565 S
C1417 C1421 1.408 . S
C1418 C1416 1.363 . S
C1418 C1419 1.370 1_545 S
C1418 C1422 1.524 . S
C1419 C1411 1.503 . S
C1419 C1418 1.370 1_565 S
C1419 C1420 1.403 . S
C1420 C1419 1.403 . S
C1420 C1421 1.404 . S
C1420 C1423 1.539 . S
C1421 C1417 1.408 . S
C1421 C1420 1.404 . S
C1421 H1433 0.930 . S
C1422 C1418 1.524 . S
C1422 H1434 0.956 . S
C1422 H1435 0.961 . S
C1422 H1436 0.961 . S
C1423 C1420 1.539 . S
C1423 H1437 0.958 . S
C1423 H1438 0.961 . S
C1423 H1439 0.960 . S
H1424 C1408 0.931 . S
H1425 C1413 0.929 . S
H1426 C1414 0.960 . S
H1427 C1414 0.962 . S
H1428 C1414 0.960 . S
H1429 C1415 0.961 . S
H1430 C1415 0.961 . S
H1431 C1415 0.961 . S
H1432 C1416 0.931 . S
H1433 C1421 0.930 . S
H1434 C1422 0.956 . S
H1435 C1422 0.961 . S
H1436 C1422 0.961 . S
H1437 C1423 0.958 . S
H1438 C1423 0.961 . S
H1439 C1423 0.960 . S
C1440 C1441 1.391 . S
C1440 C1442 1.394 . S
C1440 H1456 0.931 . S
C1441 C1440 1.391 . S
C1441 C1445 1.376 1_655 S
C1442 C1440 1.394 . S
C1442 C1443 1.369 1_655 S
C1442 C1446 1.531 . S
C1443 C1442 1.369 1_455 S
C1443 C1444 1.410 . S
C1443 C1451 1.503 . S
C1444 C1443 1.410 . S
C1444 C1445 1.392 . S
C1444 C1447 1.511 . S
C1445 C1441 1.376 1_455 S
C1445 C1444 1.392 . S
C1445 H1457 0.929 . S
C1446 C1442 1.531 . S
C1446 H1458 0.960 . S
C1446 H1459 0.962 . S
C1446 H1460 0.960 . S
C1447 C1444 1.511 . S
C1447 H1461 0.961 . S
C1447 H1462 0.961 . S
C1447 H1463 0.961 . S
C1448 C1449 1.370 1_655 S
C1448 C1450 1.363 . S
C1448 H1464 0.931 . S
C1449 C1448 1.370 1_455 S
C1449 C1453 1.408 . S
C1450 C1448 1.363 . S
C1450 C1451 1.370 1_655 S
C1450 C1454 1.524 . S
C1451 C1443 1.503 . S
C1451 C1450 1.370 1_455 S
C1451 C1452 1.403 . S
C1452 C1451 1.403 . S
C1452 C1453 1.404 . S
C1452 C1455 1.539 . S
C1453 C1449 1.408 . S
C1453 C1452 1.404 . S
C1453 H1465 0.930 . S
C1454 C1450 1.524 . S
C1454 H1466 0.956 . S
C1454 H1467 0.961 . S
C1454 H1468 0.961 . S
C1455 C1452 1.539 . S
C1455 H1469 0.958 . S
C1455 H1470 0.961 . S
C1455 H1471 0.960 . S
H1456 C1440 0.931 . S
H1457 C1445 0.929 . S
H1458 C1446 0.960 . S
H1459 C1446 0.962 . S
H1460 C1446 0.960 . S
H1461 C1447 0.961 . S
H1462 C1447 0.961 . S
H1463 C1447 0.961 . S
H1464 C1448 0.931 . S
H1465 C1453 0.930 . S
H1466 C1454 0.956 . S
H1467 C1454 0.961 . S
H1468 C1454 0.961 . S
H1469 C1455 0.958 . S
H1470 C1455 0.961 . S
H1471 C1455 0.960 . S
C1472 C1473 1.391 1_565 S
C1472 C1474 1.394 . S
C1472 H1488 0.931 . S
C1473 C1472 1.391 1_545 S
C1473 C1477 1.376 . S
C1474 C1472 1.394 . S
C1474 C1475 1.369 . S
C1474 C1478 1.531 . S
C1475 C1474 1.369 . S
C1475 C1476 1.410 1_565 S
C1475 C1483 1.503 . S
C1476 C1475 1.410 1_545 S
C1476 C1477 1.392 . S
C1476 C1479 1.511 . S
C1477 C1473 1.376 . S
C1477 C1476 1.392 . S
C1477 H1489 0.929 . S
C1478 C1474 1.531 . S
C1478 H1490 0.960 . S
C1478 H1491 0.962 . S
C1478 H1492 0.960 . S
C1479 C1476 1.511 . S
C1479 H1493 0.961 . S
C1479 H1494 0.961 . S
C1479 H1495 0.951 1_545 S
C1480 C1481 1.370 1_545 S
C1480 C1482 1.363 . S
C1480 H1496 0.931 . S
C1481 C1480 1.370 1_565 S
C1481 C1485 1.408 . S
C1482 C1480 1.363 . S
C1482 C1483 1.370 1_545 S
C1482 C1486 1.524 . S
C1483 C1475 1.503 . S
C1483 C1482 1.370 1_565 S
C1483 C1484 1.403 . S
C1484 C1483 1.403 . S
C1484 C1485 1.404 . S
C1484 C1487 1.539 . S
C1485 C1481 1.408 . S
C1485 C1484 1.404 . S
C1485 H1497 0.930 . S
C1486 C1482 1.524 . S
C1486 H1498 0.956 . S
C1486 H1499 0.961 . S
C1486 H1500 0.961 . S
C1487 C1484 1.539 . S
C1487 H1501 0.958 . S
C1487 H1502 0.961 . S
C1487 H1503 0.960 . S
H1488 C1472 0.931 . S
H1489 C1477 0.929 . S
H1490 C1478 0.960 . S
H1491 C1478 0.962 . S
H1492 C1478 0.960 . S
H1493 C1479 0.961 . S
H1494 C1479 0.961 . S
H1495 C1479 0.951 1_565 S
H1496 C1480 0.931 . S
H1497 C1485 0.930 . S
H1498 C1486 0.956 . S
H1499 C1486 0.961 . S
H1500 C1486 0.961 . S
H1501 C1487 0.958 . S
H1502 C1487 0.961 . S
H1503 C1487 0.960 . S
C1504 C1505 1.391 . S
C1504 C1506 1.394 . S
C1504 H1520 0.931 . S
C1505 C1504 1.391 . S
C1505 C1509 1.376 1_455 S
C1506 C1504 1.394 . S
C1506 C1507 1.369 . S
C1506 C1510 1.531 . S
C1507 C1506 1.369 . S
C1507 C1508 1.410 1_455 S
C1507 C1515 1.503 . S
C1508 C1507 1.410 1_655 S
C1508 C1509 1.392 . S
C1508 C1511 1.511 . S
C1509 C1505 1.376 1_655 S
C1509 C1508 1.392 . S
C1509 H1521 0.929 . S
C1510 C1506 1.531 . S
C1510 H1522 0.960 . S
C1510 H1523 0.962 . S
C1510 H1524 0.960 . S
C1511 C1508 1.511 . S
C1511 H1525 0.961 . S
C1511 H1526 0.961 . S
C1511 H1527 0.961 . S
C1512 C1513 1.370 . S
C1512 C1514 1.363 . S
C1512 H1528 0.931 . S
C1513 C1512 1.370 . S
C1513 C1517 1.408 1_655 S
C1514 C1512 1.363 . S
C1514 C1515 1.370 1_655 S
C1514 C1518 1.524 . S
C1515 C1507 1.503 . S
C1515 C1514 1.370 1_455 S
C1515 C1516 1.403 . S
C1516 C1515 1.403 . S
C1516 C1517 1.404 . S
C1516 C1519 1.539 . S
C1517 C1513 1.408 1_455 S
C1517 C1516 1.404 . S
C1517 H1529 0.930 . S
C1518 C1514 1.524 . S
C1518 H1530 0.956 . S
C1518 H1531 0.961 . S
C1518 H1532 0.961 . S
C1519 C1516 1.539 . S
C1519 H1533 0.958 . S
C1519 H1534 0.961 . S
C1519 H1535 0.960 . S
H1520 C1504 0.931 . S
H1521 C1509 0.929 . S
H1522 C1510 0.960 . S
H1523 C1510 0.962 . S
H1524 C1510 0.960 . S
H1525 C1511 0.961 . S
H1526 C1511 0.961 . S
H1527 C1511 0.961 . S
H1528 C1512 0.931 . S
H1529 C1517 0.930 . S
H1530 C1518 0.956 . S
H1531 C1518 0.961 . S
H1532 C1518 0.961 . S
H1533 C1519 0.958 . S
H1534 C1519 0.961 . S
H1535 C1519 0.960 . S
C1536 C1537 1.391 . S
C1536 C1538 1.394 . S
C1536 H1552 0.933 . S
C1537 C1536 1.391 . S
C1537 C1541 1.376 . S
C1538 C1536 1.394 . S
C1538 C1539 1.369 . S
C1538 C1542 1.531 1_565 S
C1539 C1538 1.369 . S
C1539 C1540 1.410 . S
C1539 C1547 1.503 . S
C1540 C1539 1.410 . S
C1540 C1541 1.392 . S
C1540 C1543 1.511 . S
C1541 C1537 1.376 . S
C1541 C1540 1.392 . S
C1541 H1553 0.929 . S
C1542 C1538 1.531 1_545 S
C1542 H1554 0.960 1_545 S
C1542 H1555 0.962 . S
C1542 H1556 0.960 1_545 S
C1543 C1540 1.511 . S
C1543 H1557 0.961 . S
C1543 H1558 0.961 . S
C1543 H1559 0.961 . S
C1544 C1545 1.370 . S
C1544 C1546 1.363 . S
C1544 H1560 0.931 . S
C1545 C1544 1.370 . S
C1545 C1549 1.408 1_545 S
C1546 C1544 1.363 . S
C1546 C1547 1.370 1_545 S
C1546 C1550 1.524 . S
C1547 C1539 1.503 . S
C1547 C1546 1.370 1_565 S
C1547 C1548 1.403 . S
C1548 C1547 1.403 . S
C1548 C1549 1.404 . S
C1548 C1551 1.539 . S
C1549 C1545 1.408 1_565 S
C1549 C1548 1.404 . S
C1549 H1561 0.930 . S
C1550 C1546 1.524 . S
C1550 H1562 0.956 . S
C1550 H1563 0.961 . S
C1550 H1564 0.961 . S
C1551 C1548 1.539 . S
C1551 H1565 0.958 . S
C1551 H1566 0.961 . S
C1551 H1567 0.960 . S
H1552 C1536 0.933 . S
H1553 C1541 0.929 . S
H1554 C1542 0.960 1_565 S
H1555 C1542 0.962 . S
H1556 C1542 0.960 1_565 S
H1557 C1543 0.961 . S
H1558 C1543 0.961 . S
H1559 C1543 0.961 . S
H1560 C1544 0.931 . S
H1561 C1549 0.930 . S
H1562 C1550 0.956 . S
H1563 C1550 0.961 . S
H1564 C1550 0.961 . S
H1565 C1551 0.958 . S
H1566 C1551 0.961 . S
H1567 C1551 0.960 . S
C1568 C1569 1.391 . S
C1568 C1570 1.394 . S
C1568 H1584 0.931 . S
C1569 C1568 1.391 . S
C1569 C1573 1.376 . S
C1570 C1568 1.394 . S
C1570 C1571 1.369 . S
C1570 C1574 1.531 . S
C1571 C1570 1.369 . S
C1571 C1572 1.410 . S
C1571 C1579 1.503 . S
C1572 C1571 1.410 . S
C1572 C1573 1.392 . S
C1572 C1575 1.511 . S
C1573 C1569 1.376 . S
C1573 C1572 1.392 . S
C1573 H1585 0.929 . S
C1574 C1570 1.531 . S
C1574 H1586 0.960 . S
C1574 H1587 0.962 . S
C1574 H1588 0.960 . S
C1575 C1572 1.511 . S
C1575 H1589 0.961 . S
C1575 H1590 0.961 . S
C1575 H1591 0.961 . S
C1576 C1577 1.370 . S
C1576 C1578 1.363 . S
C1576 H1592 0.931 . S
C1577 C1576 1.370 . S
C1577 C1581 1.408 . S
C1578 C1576 1.363 . S
C1578 C1579 1.370 . S
C1578 C1582 1.524 . S
C1579 C1571 1.503 . S
C1579 C1578 1.370 . S
C1579 C1580 1.403 . S
C1580 C1579 1.403 . S
C1580 C1581 1.404 . S
C1580 C1583 1.539 . S
C1581 C1577 1.408 . S
C1581 C1580 1.404 . S
C1581 H1593 0.930 . S
C1582 C1578 1.524 . S
C1582 H1594 0.956 . S
C1582 H1595 0.961 . S
C1582 H1596 0.961 . S
C1583 C1580 1.539 . S
C1583 H1597 0.958 . S
C1583 H1598 0.961 . S
C1583 H1599 0.960 . S
H1584 C1568 0.931 . S
H1585 C1573 0.929 . S
H1586 C1574 0.960 . S
H1587 C1574 0.962 . S
H1588 C1574 0.960 . S
H1589 C1575 0.961 . S
H1590 C1575 0.961 . S
H1591 C1575 0.961 . S
H1592 C1576 0.931 . S
H1593 C1581 0.930 . S
H1594 C1582 0.956 . S
H1595 C1582 0.961 . S
H1596 C1582 0.961 . S
H1597 C1583 0.958 . S
H1598 C1583 0.961 . S
H1599 C1583 0.960 . S
C1600 C1601 1.391 . S
C1600 C1602 1.394 . S
C1600 H1616 0.931 . S
C1601 C1600 1.391 . S
C1601 C1605 1.376 . S
C1602 C1600 1.394 . S
C1602 C1603 1.369 . S
C1602 C1606 1.531 . S
C1603 C1602 1.369 . S
C1603 C1604 1.410 . S
C1603 C1611 1.503 . S
C1604 C1603 1.410 . S
C1604 C1605 1.392 . S
C1604 C1607 1.511 . S
C1605 C1601 1.376 . S
C1605 C1604 1.392 . S
C1605 H1617 0.929 . S
C1606 C1602 1.531 . S
C1606 H1618 0.960 . S
C1606 H1619 0.962 . S
C1606 H1620 0.960 . S
C1607 C1604 1.511 . S
C1607 H1621 0.961 . S
C1607 H1622 0.961 . S
C1607 H1623 0.961 . S
C1608 C1609 1.370 . S
C1608 C1610 1.363 . S
C1608 H1624 0.931 . S
C1609 C1608 1.370 . S
C1609 C1613 1.408 . S
C1610 C1608 1.363 . S
C1610 C1611 1.370 . S
C1610 C1614 1.524 . S
C1611 C1603 1.503 . S
C1611 C1610 1.370 . S
C1611 C1612 1.403 . S
C1612 C1611 1.403 . S
C1612 C1613 1.404 . S
C1612 C1615 1.539 . S
C1613 C1609 1.408 . S
C1613 C1612 1.404 . S
C1613 H1625 0.930 . S
C1614 C1610 1.524 . S
C1614 H1626 0.956 . S
C1614 H1627 0.961 . S
C1614 H1628 0.961 . S
C1615 C1612 1.539 . S
C1615 H1629 0.958 . S
C1615 H1630 0.961 . S
C1615 H1631 0.960 . S
H1616 C1600 0.931 . S
H1617 C1605 0.929 . S
H1618 C1606 0.960 . S
H1619 C1606 0.962 . S
H1620 C1606 0.960 . S
H1621 C1607 0.961 . S
H1622 C1607 0.961 . S
H1623 C1607 0.961 . S
H1624 C1608 0.931 . S
H1625 C1613 0.930 . S
H1626 C1614 0.956 . S
H1627 C1614 0.961 . S
H1628 C1614 0.961 . S
H1629 C1615 0.958 . S
H1630 C1615 0.961 . S
H1631 C1615 0.960 . S
C1632 C1633 1.391 . S
C1632 C1634 1.394 . S
C1632 H1648 0.931 . S
C1633 C1632 1.391 . S
C1633 C1637 1.376 . S
C1634 C1632 1.394 . S
C1634 C1635 1.369 . S
C1634 C1638 1.531 . S
C1635 C1634 1.369 . S
C1635 C1636 1.410 . S
C1635 C1643 1.503 . S
C1636 C1635 1.410 . S
C1636 C1637 1.392 . S
C1636 C1639 1.511 . S
C1637 C1633 1.376 . S
C1637 C1636 1.392 . S
C1637 H1649 0.929 . S
C1638 C1634 1.531 . S
C1638 H1650 0.960 . S
C1638 H1651 0.962 . S
C1638 H1652 0.960 . S
C1639 C1636 1.511 . S
C1639 H1653 0.961 . S
C1639 H1654 0.961 . S
C1639 H1655 0.961 . S
C1640 C1641 1.370 . S
C1640 C1642 1.363 . S
C1640 H1656 0.931 . S
C1641 C1640 1.370 . S
C1641 C1645 1.408 . S
C1642 C1640 1.363 . S
C1642 C1643 1.370 . S
C1642 C1646 1.524 . S
C1643 C1635 1.503 . S
C1643 C1642 1.370 . S
C1643 C1644 1.403 . S
C1644 C1643 1.403 . S
C1644 C1645 1.404 . S
C1644 C1647 1.539 . S
C1645 C1641 1.408 . S
C1645 C1644 1.404 . S
C1645 H1657 0.930 . S
C1646 C1642 1.524 . S
C1646 H1658 0.956 . S
C1646 H1659 0.961 . S
C1646 H1660 0.961 . S
C1647 C1644 1.539 . S
C1647 H1661 0.958 . S
C1647 H1662 0.961 . S
C1647 H1663 0.960 . S
H1648 C1632 0.931 . S
H1649 C1637 0.929 . S
H1650 C1638 0.960 . S
H1651 C1638 0.962 . S
H1652 C1638 0.960 . S
H1653 C1639 0.961 . S
H1654 C1639 0.961 . S
H1655 C1639 0.961 . S
H1656 C1640 0.931 . S
H1657 C1645 0.930 . S
H1658 C1646 0.956 . S
H1659 C1646 0.961 . S
H1660 C1646 0.961 . S
H1661 C1647 0.958 . S
H1662 C1647 0.961 . S
H1663 C1647 0.960 . S
C1664 C1665 1.391 . S
C1664 C1666 1.394 . S
C1664 H1680 0.931 . S
C1665 C1664 1.391 . S
C1665 C1669 1.376 . S
C1666 C1664 1.394 . S
C1666 C1667 1.369 . S
C1666 C1670 1.531 . S
C1667 C1666 1.369 . S
C1667 C1668 1.410 . S
C1667 C1675 1.503 . S
C1668 C1667 1.410 . S
C1668 C1669 1.392 . S
C1668 C1671 1.511 . S
C1669 C1665 1.376 . S
C1669 C1668 1.392 . S
C1669 H1681 0.929 . S
C1670 C1666 1.531 . S
C1670 H1682 0.960 . S
C1670 H1683 0.962 . S
C1670 H1684 0.960 . S
C1671 C1668 1.511 . S
C1671 H1685 0.961 . S
C1671 H1686 0.961 . S
C1671 H1687 0.961 . S
C1672 C1673 1.370 . S
C1672 C1674 1.363 . S
C1672 H1688 0.931 . S
C1673 C1672 1.370 . S
C1673 C1677 1.408 . S
C1674 C1672 1.363 . S
C1674 C1675 1.370 . S
C1674 C1678 1.524 . S
C1675 C1667 1.503 . S
C1675 C1674 1.370 . S
C1675 C1676 1.403 . S
C1676 C1675 1.403 . S
C1676 C1677 1.404 . S
C1676 C1679 1.539 . S
C1677 C1673 1.408 . S
C1677 C1676 1.404 . S
C1677 H1689 0.930 . S
C1678 C1674 1.524 . S
C1678 H1690 0.956 . S
C1678 H1691 0.961 . S
C1678 H1692 0.961 . S
C1679 C1676 1.539 . S
C1679 H1693 0.958 . S
C1679 H1694 0.961 . S
C1679 H1695 0.960 . S
H1680 C1664 0.931 . S
H1681 C1669 0.929 . S
H1682 C1670 0.960 . S
H1683 C1670 0.962 . S
H1684 C1670 0.960 . S
H1685 C1671 0.961 . S
H1686 C1671 0.961 . S
H1687 C1671 0.961 . S
H1688 C1672 0.931 . S
H1689 C1677 0.930 . S
H1690 C1678 0.956 . S
H1691 C1678 0.961 . S
H1692 C1678 0.961 . S
H1693 C1679 0.958 . S
H1694 C1679 0.961 . S
H1695 C1679 0.960 . S
C1696 C1697 1.391 . S
C1696 C1698 1.394 . S
C1696 H1712 0.931 . S
C1697 C1696 1.391 . S
C1697 C1701 1.376 . S
C1698 C1696 1.394 . S
C1698 C1699 1.369 . S
C1698 C1702 1.531 . S
C1699 C1698 1.369 . S
C1699 C1700 1.410 . S
C1699 C1707 1.503 . S
C1700 C1699 1.410 . S
C1700 C1701 1.392 . S
C1700 C1703 1.511 . S
C1701 C1697 1.376 . S
C1701 C1700 1.392 . S
C1701 H1713 0.929 . S
C1702 C1698 1.531 . S
C1702 H1714 0.960 . S
C1702 H1715 0.962 . S
C1702 H1716 0.960 . S
C1703 C1700 1.511 . S
C1703 H1717 0.961 . S
C1703 H1718 0.961 . S
C1703 H1719 0.961 . S
C1704 C1705 1.370 . S
C1704 C1706 1.363 . S
C1704 H1720 0.931 . S
C1705 C1704 1.370 . S
C1705 C1709 1.408 . S
C1706 C1704 1.363 . S
C1706 C1707 1.370 . S
C1706 C1710 1.524 . S
C1707 C1699 1.503 . S
C1707 C1706 1.370 . S
C1707 C1708 1.403 . S
C1708 C1707 1.403 . S
C1708 C1709 1.404 . S
C1708 C1711 1.539 . S
C1709 C1705 1.408 . S
C1709 C1708 1.404 . S
C1709 H1721 0.930 . S
C1710 C1706 1.524 . S
C1710 H1722 0.956 . S
C1710 H1723 0.961 . S
C1710 H1724 0.961 . S
C1711 C1708 1.539 . S
C1711 H1725 0.958 . S
C1711 H1726 0.961 . S
C1711 H1727 0.960 . S
H1712 C1696 0.931 . S
H1713 C1701 0.929 . S
H1714 C1702 0.960 . S
H1715 C1702 0.962 . S
H1716 C1702 0.960 . S
H1717 C1703 0.961 . S
H1718 C1703 0.961 . S
H1719 C1703 0.961 . S
H1720 C1704 0.931 . S
H1721 C1709 0.930 . S
H1722 C1710 0.956 . S
H1723 C1710 0.961 . S
H1724 C1710 0.961 . S
H1725 C1711 0.958 . S
H1726 C1711 0.961 . S
H1727 C1711 0.960 . S
C1728 C1729 1.391 . S
C1728 C1730 1.394 . S
C1728 H1744 0.931 . S
C1729 C1728 1.391 . S
C1729 C1733 1.376 . S
C1730 C1728 1.394 . S
C1730 C1731 1.369 . S
C1730 C1734 1.531 . S
C1731 C1730 1.369 . S
C1731 C1732 1.410 . S
C1731 C1739 1.503 . S
C1732 C1731 1.410 . S
C1732 C1733 1.392 . S
C1732 C1735 1.511 . S
C1733 C1729 1.376 . S
C1733 C1732 1.392 . S
C1733 H1745 0.929 . S
C1734 C1730 1.531 . S
C1734 H1746 0.960 . S
C1734 H1747 0.962 . S
C1734 H1748 0.960 . S
C1735 C1732 1.511 . S
C1735 H1749 0.961 . S
C1735 H1750 0.961 . S
C1735 H1751 0.961 . S
C1736 C1737 1.370 . S
C1736 C1738 1.363 . S
C1736 H1752 0.931 . S
C1737 C1736 1.370 . S
C1737 C1741 1.408 . S
C1738 C1736 1.363 . S
C1738 C1739 1.370 . S
C1738 C1742 1.524 . S
C1739 C1731 1.503 . S
C1739 C1738 1.370 . S
C1739 C1740 1.403 . S
C1740 C1739 1.403 . S
C1740 C1741 1.404 . S
C1740 C1743 1.539 . S
C1741 C1737 1.408 . S
C1741 C1740 1.404 . S
C1741 H1753 0.930 . S
C1742 C1738 1.524 . S
C1742 H1754 0.956 . S
C1742 H1755 0.961 . S
C1742 H1756 0.961 . S
C1743 C1740 1.539 . S
C1743 H1757 0.958 . S
C1743 H1758 0.961 . S
C1743 H1759 0.960 . S
H1744 C1728 0.931 . S
H1745 C1733 0.929 . S
H1746 C1734 0.960 . S
H1747 C1734 0.962 . S
H1748 C1734 0.960 . S
H1749 C1735 0.961 . S
H1750 C1735 0.961 . S
H1751 C1735 0.961 . S
H1752 C1736 0.931 . S
H1753 C1741 0.930 . S
H1754 C1742 0.956 . S
H1755 C1742 0.961 . S
H1756 C1742 0.961 . S
H1757 C1743 0.958 . S
H1758 C1743 0.961 . S
H1759 C1743 0.960 . S
C1760 C1761 1.391 . S
C1760 C1762 1.394 . S
C1760 H1776 0.931 . S
C1761 C1760 1.391 . S
C1761 C1765 1.376 . S
C1762 C1760 1.394 . S
C1762 C1763 1.369 . S
C1762 C1766 1.531 . S
C1763 C1762 1.369 . S
C1763 C1764 1.410 . S
C1763 C1771 1.503 . S
C1764 C1763 1.410 . S
C1764 C1765 1.392 . S
C1764 C1767 1.511 . S
C1765 C1761 1.376 . S
C1765 C1764 1.392 . S
C1765 H1777 0.929 . S
C1766 C1762 1.531 . S
C1766 H1778 0.960 . S
C1766 H1779 0.962 . S
C1766 H1780 0.960 . S
C1767 C1764 1.511 . S
C1767 H1781 0.961 . S
C1767 H1782 0.961 . S
C1767 H1783 0.961 . S
C1768 C1769 1.370 . S
C1768 C1770 1.363 . S
C1768 H1784 0.931 . S
C1769 C1768 1.370 . S
C1769 C1773 1.408 . S
C1770 C1768 1.363 . S
C1770 C1771 1.370 . S
C1770 C1774 1.524 . S
C1771 C1763 1.503 . S
C1771 C1770 1.370 . S
C1771 C1772 1.403 . S
C1772 C1771 1.403 . S
C1772 C1773 1.404 . S
C1772 C1775 1.539 . S
C1773 C1769 1.408 . S
C1773 C1772 1.404 . S
C1773 H1785 0.930 . S
C1774 C1770 1.524 . S
C1774 H1786 0.956 . S
C1774 H1787 0.961 . S
C1774 H1788 0.961 . S
C1775 C1772 1.539 . S
C1775 H1789 0.958 . S
C1775 H1790 0.961 . S
C1775 H1791 0.960 . S
H1776 C1760 0.931 . S
H1777 C1765 0.929 . S
H1778 C1766 0.960 . S
H1779 C1766 0.962 . S
H1780 C1766 0.960 . S
H1781 C1767 0.961 . S
H1782 C1767 0.961 . S
H1783 C1767 0.961 . S
H1784 C1768 0.931 . S
H1785 C1773 0.930 . S
H1786 C1774 0.956 . S
H1787 C1774 0.961 . S
H1788 C1774 0.961 . S
H1789 C1775 0.958 . S
H1790 C1775 0.961 . S
H1791 C1775 0.960 . S
C1792 C1793 1.391 . S
C1792 C1794 1.394 . S
C1792 H1808 0.931 . S
C1793 C1792 1.391 . S
C1793 C1797 1.376 . S
C1794 C1792 1.394 . S
C1794 C1795 1.369 . S
C1794 C1798 1.531 . S
C1795 C1794 1.369 . S
C1795 C1796 1.410 . S
C1795 C1803 1.503 . S
C1796 C1795 1.410 . S
C1796 C1797 1.392 . S
C1796 C1799 1.511 . S
C1797 C1793 1.376 . S
C1797 C1796 1.392 . S
C1797 H1809 0.929 . S
C1798 C1794 1.531 . S
C1798 H1810 0.960 . S
C1798 H1811 0.962 . S
C1798 H1812 0.960 . S
C1799 C1796 1.511 . S
C1799 H1813 0.961 . S
C1799 H1814 0.961 . S
C1799 H1815 0.961 . S
C1800 C1801 1.370 . S
C1800 C1802 1.363 . S
C1800 H1816 0.931 . S
C1801 C1800 1.370 . S
C1801 C1805 1.408 . S
C1802 C1800 1.363 . S
C1802 C1803 1.370 . S
C1802 C1806 1.524 . S
C1803 C1795 1.503 . S
C1803 C1802 1.370 . S
C1803 C1804 1.403 . S
C1804 C1803 1.403 . S
C1804 C1805 1.404 . S
C1804 C1807 1.539 . S
C1805 C1801 1.408 . S
C1805 C1804 1.404 . S
C1805 H1817 0.930 . S
C1806 C1802 1.524 . S
C1806 H1818 0.956 . S
C1806 H1819 0.961 . S
C1806 H1820 0.961 . S
C1807 C1804 1.539 . S
C1807 H1821 0.958 . S
C1807 H1822 0.961 . S
C1807 H1823 0.960 . S
H1808 C1792 0.931 . S
H1809 C1797 0.929 . S
H1810 C1798 0.960 . S
H1811 C1798 0.962 . S
H1812 C1798 0.960 . S
H1813 C1799 0.961 . S
H1814 C1799 0.961 . S
H1815 C1799 0.961 . S
H1816 C1800 0.931 . S
H1817 C1805 0.930 . S
H1818 C1806 0.956 . S
H1819 C1806 0.961 . S
H1820 C1806 0.961 . S
H1821 C1807 0.958 . S
H1822 C1807 0.961 . S
H1823 C1807 0.960 . S
C545 C9 1.439 . S
C553 C519 1.416 . S
C577 C43 1.399 . S
C585 C417 1.417 . S
C609 C451 1.391 . S
C617 C77 1.388 . S
C641 C111 1.438 . S
C649 C485 1.417 . S
C673 C145 1.418 . S
C681 C315 1.396 . S
C705 C349 1.388 . S
C713 C179 1.388 . S
C737 C383 1.398 . S
C745 C213 1.389 . S
C769 C281 1.431 . S
C777 C247 1.403 . S
C801 C107 1.510 . S
C809 C33 1.523 . S
C833 C5 1.521 . S
C841 C67 1.522 . S
C865 C101 1.515 . S
C873 C39 1.528 . S
C897 C135 1.531 . S
C905 C73 1.530 . S
C929 C175 1.528 . S
C937 C169 1.523 . S
C961 C209 1.533 . S
C969 C203 1.529 . S
C993 C243 1.513 . S
C1001 C237 1.529 . S
C1025 C141 1.519 . S
C1033 C271 1.522 . S
C1057 C379 1.523 . S
C1065 C305 1.531 . S
C1089 C339 1.533 . S
C1097 C277 1.526 . S
C1121 C311 1.525 . S
C1129 C373 1.531 . S
C1153 C345 1.533 . S
C1161 C407 1.527 . S
C1185 C447 1.522 . S
C1193 C441 1.531 . S
C1217 C481 1.530 . S
C1225 C475 1.524 . S
C1249 C515 1.527 . S
C1257 C509 1.523 . S
C1281 C413 1.515 . S
C1289 C543 1.529 . S
C1313 C206 1.391 . S
C1321 C2 1.391 . S
C1345 C240 1.391 . S
C1353 C36 1.387 . S
C1377 C70 1.368 . S
C1385 C138 1.381 . S
C1409 C172 1.366 . S
C1417 C104 1.380 . S
C1441 C88 1.494 . S
C1449 C156 1.500 . S
C1473 C190 1.511 . S
C1481 C122 1.507 . S
C1505 C20 1.488 . S
C1513 C224 1.501 . S
C1537 C258 1.499 . S
C1545 C54 1.507 . S
C1569 C478 1.365 . S
C1577 C274 1.378 . S
C1601 C512 1.391 . S
C1609 C308 1.387 . S
C1633 C410 1.388 . S
C1641 C342 1.389 . S
C1665 C376 1.382 . S
C1673 C444 1.387 . S
C1697 C428 1.492 . S
C1705 C360 1.499 . S
C1729 C394 1.516 . S
C1737 C462 1.510 . S
C1761 C292 1.491 . S
C1769 C496 1.499 . S
C1793 C530 1.510 . S
C1801 C326 1.506 . S
