# Generated by pormake.
# Topology umz, (4)-cn, num edge types: 1
# Building blocks:
#     Node 0, Type 0, BuildingBlock: AZAVOO_clean_sbu_0, # of connection points: 4
#     Node 1, Type 0, BuildingBlock: AZAVOO_clean_sbu_0, # of connection points: 4
#     Node 2, Type 0, BuildingBlock: AZAVOO_clean_sbu_0, # of connection points: 4
#     Node 3, Type 0, BuildingBlock: AZAVOO_clean_sbu_0, # of connection points: 4
#     Node 4, Type 0, BuildingBlock: AZAVOO_clean_sbu_0, # of connection points: 4
#     Node 5, Type 0, BuildingBlock: AZAVOO_clean_sbu_0, # of connection points: 4
#     Node 6, Type 0, BuildingBlock: AZAVOO_clean_sbu_0, # of connection points: 4
#     Node 7, Type 0, BuildingBlock: AZAVOO_clean_sbu_0, # of connection points: 4
#     Node 8, Type 0, BuildingBlock: AZAVOO_clean_sbu_0, # of connection points: 4
#     Node 9, Type 0, BuildingBlock: AZAVOO_clean_sbu_0, # of connection points: 4
#     Node 10, Type 0, BuildingBlock: AZAVOO_clean_sbu_0, # of connection points: 4
#     Node 11, Type 0, BuildingBlock: AZAVOO_clean_sbu_0, # of connection points: 4
#     Node 12, Type 0, BuildingBlock: AZAVOO_clean_sbu_0, # of connection points: 4
#     Node 13, Type 0, BuildingBlock: AZAVOO_clean_sbu_0, # of connection points: 4
#     Node 14, Type 0, BuildingBlock: AZAVOO_clean_sbu_0, # of connection points: 4
#     Node 15, Type 0, BuildingBlock: AZAVOO_clean_sbu_0, # of connection points: 4
#     Edge 16, Type (0, 0), BuildingBlock: OJICUG_clean_linker_0, # of connection points: 2
#     Edge 17, Type (0, 0), BuildingBlock: OJICUG_clean_linker_0, # of connection points: 2
#     Edge 18, Type (0, 0), BuildingBlock: OJICUG_clean_linker_0, # of connection points: 2
#     Edge 19, Type (0, 0), BuildingBlock: OJICUG_clean_linker_0, # of connection points: 2
#     Edge 20, Type (0, 0), BuildingBlock: OJICUG_clean_linker_0, # of connection points: 2
#     Edge 21, Type (0, 0), BuildingBlock: OJICUG_clean_linker_0, # of connection points: 2
#     Edge 22, Type (0, 0), BuildingBlock: OJICUG_clean_linker_0, # of connection points: 2
#     Edge 23, Type (0, 0), BuildingBlock: OJICUG_clean_linker_0, # of connection points: 2
#     Edge 24, Type (0, 0), BuildingBlock: OJICUG_clean_linker_0, # of connection points: 2
#     Edge 25, Type (0, 0), BuildingBlock: OJICUG_clean_linker_0, # of connection points: 2
#     Edge 26, Type (0, 0), BuildingBlock: OJICUG_clean_linker_0, # of connection points: 2
#     Edge 27, Type (0, 0), BuildingBlock: OJICUG_clean_linker_0, # of connection points: 2
#     Edge 28, Type (0, 0), BuildingBlock: OJICUG_clean_linker_0, # of connection points: 2
#     Edge 29, Type (0, 0), BuildingBlock: OJICUG_clean_linker_0, # of connection points: 2
#     Edge 30, Type (0, 0), BuildingBlock: OJICUG_clean_linker_0, # of connection points: 2
#     Edge 31, Type (0, 0), BuildingBlock: OJICUG_clean_linker_0, # of connection points: 2
#     Edge 32, Type (0, 0), BuildingBlock: OJICUG_clean_linker_0, # of connection points: 2
#     Edge 33, Type (0, 0), BuildingBlock: OJICUG_clean_linker_0, # of connection points: 2
#     Edge 34, Type (0, 0), BuildingBlock: OJICUG_clean_linker_0, # of connection points: 2
#     Edge 35, Type (0, 0), BuildingBlock: OJICUG_clean_linker_0, # of connection points: 2
#     Edge 36, Type (0, 0), BuildingBlock: OJICUG_clean_linker_0, # of connection points: 2
#     Edge 37, Type (0, 0), BuildingBlock: OJICUG_clean_linker_0, # of connection points: 2
#     Edge 38, Type (0, 0), BuildingBlock: OJICUG_clean_linker_0, # of connection points: 2
#     Edge 39, Type (0, 0), BuildingBlock: OJICUG_clean_linker_0, # of connection points: 2
#     Edge 40, Type (0, 0), BuildingBlock: OJICUG_clean_linker_0, # of connection points: 2
#     Edge 41, Type (0, 0), BuildingBlock: OJICUG_clean_linker_0, # of connection points: 2
#     Edge 42, Type (0, 0), BuildingBlock: OJICUG_clean_linker_0, # of connection points: 2
#     Edge 43, Type (0, 0), BuildingBlock: OJICUG_clean_linker_0, # of connection points: 2
#     Edge 44, Type (0, 0), BuildingBlock: OJICUG_clean_linker_0, # of connection points: 2
#     Edge 45, Type (0, 0), BuildingBlock: OJICUG_clean_linker_0, # of connection points: 2
#     Edge 46, Type (0, 0), BuildingBlock: OJICUG_clean_linker_0, # of connection points: 2
#     Edge 47, Type (0, 0), BuildingBlock: OJICUG_clean_linker_0, # of connection points: 2
# Relax obj value: 0.264
# Max RMSD: 0.177
# Mean RMSD: 0.177
data_MOF--net-umz--node1-AZAVOO_clean_sbu_0--edge1-OJICUG_clean_linker_0
_symmetry_space_group_name_H-M    P1
_symmetry_Int_Tables_number       1
_symmetry_cell_setting            triclinic
loop_
_symmetry_equiv_pos_as_xyz
'x, y, z'
_cell_length_a     45.87221
_cell_length_b     45.648958
_cell_length_c     14.641371
_cell_angle_alpha  90.346421
_cell_angle_beta   90.267552
_cell_angle_gamma 89.83178
loop_
_atom_site_label
_atom_site_type_symbol
_atom_site_fract_x
_atom_site_fract_y
_atom_site_fract_z
_atom_type_partial_charge
Mg0 Mg -0.00566 0.6435 0.03767 0.0
O1 O 0.02782 0.61694 0.12122 0.0
O2 O 0.0734 0.62156 0.06835 0.0
Mg3 Mg 0.07012 0.66364 0.98605 0.0
C4 C 0.05476 0.60956 0.12098 0.0
C5 C 0.94184 0.60658 0.10125 0.0
O6 O 0.94383 0.59859 0.01517 0.0
O7 O -0.00028 0.68548 0.12372 0.0
O8 O 0.04557 0.67672 0.11304 0.0
O9 O -0.00161 0.60956 0.93016 0.0
O10 O 0.02671 0.64871 0.9328 0.0
C11 C 0.02525 0.69549 0.11306 0.0
C12 C 0.02031 0.62363 0.89691 0.0
O13 O 0.95877 0.62643 0.13152 0.0
Mg14 Mg 0.86609 0.00322 0.52612 0.0
O15 O 0.88311 0.03915 0.62249 0.0
O16 O 0.87012 0.08316 0.57104 0.0
Mg17 Mg 0.845 0.07563 0.43743 0.0
C18 C 0.88295 0.06702 0.62966 0.0
C19 C 0.88304 0.94318 0.61496 0.0
O20 O 0.88007 0.93457 0.52965 0.0
O21 O 0.81879 0.00856 0.57309 0.0
O22 O 0.80828 0.05168 0.50806 0.0
O23 O 0.90625 0.00837 0.4379 0.0
O24 O 0.86474 0.03211 0.41911 0.0
C25 C 0.80077 0.02899 0.55261 0.0
C26 C 0.89088 0.02736 0.39303 0.0
O27 O 0.87762 0.96973 0.63549 0.0
Mg28 Mg 0.47555 0.8517 0.05124 0.0
O29 O 0.43954 0.87312 0.13974 0.0
O30 O 0.39487 0.86336 0.08448 0.0
Mg31 Mg 0.40298 0.82382 0.99131 0.0
C32 C 0.41186 0.87696 0.1398 0.0
C33 C 0.5312 0.88364 0.12221 0.0
O34 O 0.53294 0.89076 0.03561 0.0
O35 O 0.4751 0.80814 0.12623 0.0
O36 O 0.42816 0.80966 0.11626 0.0
O37 O 0.46811 0.88698 0.95022 0.0
O38 O 0.44434 0.84483 0.94562 0.0
C39 C 0.45128 0.79443 0.11671 0.0
C40 C 0.44802 0.87079 0.91353 0.0
O41 O 0.51001 0.86818 0.1491 0.0
Mg42 Mg 0.63779 0.48858 0.53897 0.0
O43 O 0.61509 0.45403 0.62941 0.0
O44 O 0.62243 0.40826 0.57745 0.0
Mg45 Mg 0.66253 0.41356 0.48727 0.0
C46 C 0.6098 0.42649 0.63113 0.0
C47 C 0.59327 0.52788 0.63636 0.0
O48 O 0.57676 0.51086 0.58538 0.0
O49 O 0.68161 0.48708 0.61521 0.0
O50 O 0.67625 0.44033 0.60948 0.0
O51 O 0.60269 0.48135 0.43696 0.0
O52 O 0.64361 0.45558 0.43549 0.0
C53 C 0.69331 0.46202 0.60618 0.0
C54 C 0.61783 0.46001 0.40285 0.0
O55 O 0.62076 0.52463 0.6332 0.0
Mg56 Mg 0.00693 0.84149 0.92865 0.0
O57 O 0.04103 0.86982 0.85421 0.0
O58 O 0.0864 0.8621 0.9072 0.0
Mg59 Mg 0.0827 0.81984 0.98919 0.0
C60 C 0.06829 0.87588 0.85623 0.0
C61 C 0.95135 0.87576 0.86925 0.0
O62 O 0.9518 0.88195 0.95698 0.0
O63 O 0.01477 0.80308 0.83103 0.0
O64 O 0.06076 0.80562 0.85776 0.0
O65 O 0.00882 0.87268 0.04464 0.0
O66 O 0.03846 0.83448 0.03488 0.0
C67 C 0.03781 0.79025 0.85763 0.0
C68 C 0.03103 0.85838 0.07628 0.0
O69 O 0.97093 0.85904 0.83641 0.0
Mg70 Mg 0.62186 -0.00344 0.49923 0.0
O71 O 0.60723 0.03432 0.40462 0.0
O72 O 0.61664 0.07949 0.45844 0.0
Mg73 Mg 0.64836 0.0727 0.5795 0.0
C74 C 0.60495 0.06223 0.39947 0.0
C75 C 0.60105 0.93809 0.40085 0.0
O76 O 0.60662 0.92573 0.47985 0.0
O77 O 0.66913 -0.00841 0.444 0.0
O78 O 0.66096 0.03327 0.50449 0.0
O79 O 0.58398 0.00787 0.5884 0.0
O80 O 0.62701 0.02881 0.60743 0.0
C81 C 0.67951 0.01472 0.47884 0.0
C82 C 0.60029 0.02647 0.63179 0.0
O83 O 0.6053 0.96531 0.39122 0.0
Mg84 Mg 0.47859 0.62723 0.9963 0.0
O85 O 0.44237 0.60738 0.90774 0.0
O86 O 0.39751 0.61717 0.95974 0.0
Mg87 Mg 0.40647 0.65788 0.04647 0.0
C88 C 0.41482 0.60348 0.90595 0.0
C89 C 0.53768 0.60628 0.89372 0.0
O90 O 0.55248 0.62129 0.95501 0.0
O91 O 0.48015 0.67088 0.91988 0.0
O92 O 0.43331 0.66804 0.92218 0.0
O93 O 0.46847 0.59266 0.09624 0.0
O94 O 0.44688 0.63612 0.10039 0.0
C95 C 0.45576 0.68404 0.92268 0.0
C96 C 0.44875 0.60973 0.13091 0.0
O97 O 0.51004 0.60595 0.89677 0.0
Mg98 Mg 0.85488 0.47685 0.43899 0.0
O99 O 0.87399 0.43686 0.36078 0.0
O100 O 0.8624 0.39394 0.42519 0.0
Mg101 Mg 0.82413 0.40692 0.51655 0.0
C102 C 0.87641 0.40894 0.36637 0.0
C103 C 0.87958 0.53411 0.35609 0.0
O104 O 0.87481 0.54281 0.44043 0.0
O105 O 0.81053 0.47638 0.36557 0.0
O106 O 0.8118 0.42979 0.38636 0.0
O107 O 0.88976 0.47061 0.54319 0.0
O108 O 0.84667 0.44909 0.55213 0.0
C109 C 0.79676 0.45302 0.38292 0.0
C110 C 0.87254 0.45273 0.58494 0.0
O111 O 0.87358 0.50787 0.33357 0.0
Mg112 Mg 0.97108 0.33751 0.9413 0.0
O113 O 0.93889 0.36936 0.87243 0.0
O114 O 0.89291 0.3625 0.91929 0.0
Mg115 Mg 0.89393 0.31924 0.99722 0.0
C116 C 0.91187 0.37646 0.87277 0.0
C117 C 0.02251 0.37671 0.88245 0.0
O118 O 0.01682 0.38739 0.9639 0.0
O119 O 0.95989 0.3031 0.83347 0.0
O120 O 0.91412 0.30417 0.86368 0.0
O121 O 0.97135 0.36588 0.06409 0.0
O122 O 0.9389 0.33066 0.04533 0.0
C123 C 0.93774 0.2897 0.86314 0.0
C124 C 0.94792 0.35306 0.09154 0.0
O125 O 0.00789 0.35497 0.8531 0.0
Mg126 Mg 0.1296 0.97638 0.42972 0.0
O127 O 0.10851 0.93786 0.3498 0.0
O128 O 0.11834 0.89409 0.41219 0.0
Mg129 Mg 0.1577 0.9046 0.50261 0.0
C130 C 0.1048 0.91008 0.35423 0.0
C131 C 0.10325 0.03386 0.35001 0.0
O132 O 0.10557 0.0416 0.43632 0.0
O133 O 0.17338 0.97425 0.35439 0.0
O134 O 0.17024 0.92776 0.37352 0.0
O135 O 0.09491 0.9711 0.53381 0.0
O136 O 0.13709 0.94753 0.54148 0.0
C137 C 0.1862 0.95029 0.37211 0.0
C138 C 0.11142 0.95204 0.57419 0.0
O139 O 0.11149 0.0084 0.32572 0.0
Mg140 Mg 0.49327 0.12933 1.00201 0.0
O141 O 0.52853 0.11012 0.90878 0.0
O142 O 0.5737 0.11826 0.96191 0.0
Mg143 Mg 0.56591 0.15793 0.05403 0.0
C144 C 0.55602 0.10567 0.90645 0.0
C145 C 0.43606 0.09981 0.91829 0.0
O146 O 0.42802 0.09782 1.00402 0.0
O147 O 0.49206 0.1743 0.93468 0.0
O148 O 0.53903 0.17081 0.93124 0.0
O149 O 0.5038 0.09298 0.09715 0.0
O150 O 0.5256 0.13611 0.10578 0.0
C151 C 0.51662 0.187 0.93404 0.0
C152 C 0.52374 0.10945 0.13353 0.0
O153 O 0.4602 0.11182 0.89938 0.0
Mg154 Mg 0.3462 0.49995 0.49012 0.0
O155 O 0.36432 0.53631 0.3994 0.0
O156 O 0.35551 0.58146 0.45261 0.0
Mg157 Mg 0.32533 0.57595 0.57567 0.0
C158 C 0.36716 0.56408 0.39453 0.0
C159 C 0.37526 0.44393 0.40118 0.0
O160 O 0.37904 0.43658 0.48706 0.0
O161 O 0.30013 0.50114 0.42576 0.0
O162 O 0.30054 0.54252 0.49885 0.0
O163 O 0.38425 0.5067 0.58563 0.0
O164 O 0.34296 0.53105 0.60001 0.0
C165 C 0.28635 0.52344 0.45499 0.0
C166 C 0.36893 0.52626 0.62831 0.0
O167 O 0.36164 0.46741 0.38258 0.0
Mg168 Mg 0.98757 0.14308 0.03091 0.0
O169 O 0.95648 0.11626 0.12044 0.0
O170 O 0.91038 0.12036 0.07018 0.0
Mg171 Mg 0.91113 0.16318 0.99184 0.0
C172 C 0.92978 0.10828 0.12072 0.0
C173 C 0.04019 0.10536 0.09215 0.0
O174 O 0.03631 0.09567 0.00832 0.0
O175 O 0.98368 0.18531 0.11661 0.0
O176 O 0.93786 0.17592 0.11533 0.0
O177 O 0.98117 0.10852 0.92599 0.0
O178 O 0.95316 0.14803 0.93125 0.0
C179 C 0.95775 0.19502 0.11322 0.0
C180 C 0.95846 0.12251 0.89664 0.0
O181 O 0.02459 0.12652 0.12066 0.0
Mg182 Mg 0.3428 0.9807 0.5541 0.0
O183 O 0.36466 0.94444 0.6403 0.0
O184 O 0.35717 0.89948 0.58213 0.0
Mg185 Mg 0.3177 0.90695 0.48935 0.0
C186 C 0.36968 0.91683 0.63896 0.0
C187 C 0.37743 0.03392 0.6348 0.0
O188 O 0.38652 0.03501 0.54994 0.0
O189 O 0.29855 0.97858 0.62637 0.0
O190 O 0.30341 0.93189 0.61436 0.0
O191 O 0.37854 0.97435 0.45368 0.0
O192 O 0.33717 0.94962 0.4456 0.0
C193 C 0.28666 0.95393 0.61208 0.0
C194 C 0.36308 0.95403 0.41497 0.0
O195 O 0.35902 0.01451 0.6569 0.0
Mg196 Mg 0.50199 0.36316 0.03753 0.0
O197 O 0.53902 0.38028 0.13051 0.0
O198 O 0.58313 0.36991 0.07345 0.0
Mg199 Mg 0.57267 0.3329 0.97325 0.0
C200 C 0.56679 0.38295 0.13147 0.0
C201 C 0.44519 0.3913 0.11815 0.0
O202 O 0.43994 0.39585 0.03108 0.0
O203 O 0.50117 0.31737 0.09609 0.0
O204 O 0.54873 0.31525 0.09692 0.0
O205 O 0.51127 0.40034 0.94431 0.0
O206 O 0.53226 0.35678 0.93179 0.0
C207 C 0.52438 0.30213 0.09663 0.0
C208 C 0.53013 0.38344 0.90432 0.0
O209 O 0.46876 0.37874 0.14167 0.0
Mg210 Mg 0.11157 0.50122 0.537 0.0
O211 O 0.09505 0.54043 0.62462 0.0
O212 O 0.10664 0.58398 0.56477 0.0
Mg213 Mg 0.14438 0.57099 0.47171 0.0
C214 C 0.093 0.56844 0.62306 0.0
C215 C 0.09196 0.44279 0.63041 0.0
O216 O 0.10276 0.43118 0.55548 0.0
O217 O 0.15692 0.49759 0.60188 0.0
O218 O 0.15519 0.54471 0.59652 0.0
O219 O 0.07587 0.5115 0.43948 0.0
O220 O 0.12008 0.53058 0.42824 0.0
C221 C 0.17044 0.52162 0.59482 0.0
C222 C 0.09361 0.52918 0.39889 0.0
O223 O 0.09261 0.47039 0.6414 0.0
C224 C 0.00388 0.73659 0.02178 0.0
C225 C 0.02853 0.7217 0.05513 0.0
H226 H 0.98735 0.76961 0.93281 0.0
C227 C 0.05637 0.73101 0.02809 0.0
H228 H 0.98211 0.73022 0.04185 0.0
C229 C 0.05941 0.75376 0.96551 0.0
C230 C 0.03468 0.76776 0.92912 0.0
H231 H 0.07582 0.72021 0.05348 0.0
H232 H 0.08109 0.75987 0.94384 0.0
C233 C 0.0069 0.7592 0.95897 0.0
C234 C 0.72888 -0.00703 0.50779 0.0
C235 C 0.71036 0.01753 0.5057 0.0
H236 H 0.77235 0.97711 0.52985 0.0
C237 C 0.72103 0.04478 0.53529 0.0
H238 H 0.72099 0.97156 0.48739 0.0
C239 C 0.75017 0.04786 0.56075 0.0
C240 C 0.76919 0.02372 0.5577 0.0
H241 H 0.7071 0.06399 0.53591 0.0
H242 H 0.75826 0.06952 0.57762 0.0
C243 C 0.75806 -0.004 0.53434 0.0
C244 C 0.42638 0.75253 0.03732 0.0
C245 C 0.45219 0.7662 0.06686 0.0
H246 H 0.4073 0.71598 0.96721 0.0
C247 C 0.47913 0.75306 0.04612 0.0
H248 H 0.40529 0.76215 0.05201 0.0
C249 C 0.4803 0.72687 0.99698 0.0
C250 C 0.45453 0.71293 0.96854 0.0
H251 H 0.49947 0.763 0.06767 0.0
H252 H 0.50146 0.71735 0.98265 0.0
C253 C 0.42755 0.72615 0.9885 0.0
C254 C 0.73166 0.43217 0.52701 0.0
C255 C 0.72013 0.45974 0.55066 0.0
H256 H 0.76468 0.40843 0.45462 0.0
C257 C 0.73397 0.48507 0.51834 0.0
H258 H 0.72157 0.41224 0.55102 0.0
C259 C 0.7585 0.48289 0.46266 0.0
C260 C 0.77006 0.45533 0.43899 0.0
H261 H 0.72571 0.50668 0.53524 0.0
H262 H 0.7685 0.50288 0.43879 0.0
C263 C 0.75634 0.42999 0.47168 0.0
C264 C 0.91909 0.25342 0.97583 0.0
C265 C 0.94271 0.26827 0.93689 0.0
H266 H 0.90533 0.21888 0.06369 0.0
C267 C 0.97121 0.2608 0.96403 0.0
H268 H 0.89689 0.2587 0.95631 0.0
C269 C 0.97604 0.23806 0.02539 0.0
C270 C 0.95252 0.22196 0.05993 0.0
H271 H -0.01006 0.27191 0.93593 0.0
H272 H -0.00168 0.23234 0.04259 0.0
C273 C 0.92394 0.23055 0.03704 0.0
C274 C 0.2477 0.97912 0.52077 0.0
C275 C 0.26064 0.95305 0.55198 0.0
H276 H 0.21456 -0.00121 0.4383 0.0
C277 C 0.249 0.92609 0.52298 0.0
H278 H 0.25608 0.00029 0.54172 0.0
C279 C 0.22507 0.92523 0.46364 0.0
C280 C 0.21221 0.9513 0.43223 0.0
H281 H 0.25841 0.90562 0.54597 0.0
H282 H 0.2166 0.90411 0.44249 0.0
C283 C 0.22391 0.97826 0.46107 0.0
C284 C 0.49341 0.23161 1.002 0.0
C285 C 0.51873 0.21648 0.97546 0.0
H286 H 0.47536 0.26999 0.0637 0.0
C287 C 0.54608 0.22922 0.9928 0.0
H288 H 0.47199 0.2224 0.9899 0.0
C289 C 0.54803 0.25659 0.03553 0.0
C290 C 0.52265 0.2718 0.06135 0.0
H291 H 0.56601 0.21809 0.9733 0.0
H292 H 0.5694 0.26603 0.04663 0.0
C293 C 0.49535 0.25885 0.04494 0.0
C294 C 0.23921 0.49681 0.47326 0.0
C295 C 0.25453 0.52332 0.46778 0.0
H296 H 0.20067 0.47525 0.51988 0.0
C297 C 0.24094 0.54934 0.4972 0.0
H298 H 0.24929 0.47638 0.45232 0.0
C299 C 0.21354 0.54865 0.53742 0.0
C300 C 0.1989 0.52198 0.54826 0.0
H301 H 0.25231 0.5701 0.49446 0.0
H302 H 0.20426 0.56896 0.56287 0.0
C303 C 0.21162 0.49613 0.5136 0.0
C304 C 0.06001 0.62629 0.77959 0.0
C305 C 0.03882 0.60997 0.82592 0.0
H306 H 0.09358 0.62608 0.67808 0.0
C307 C 0.0354 0.58017 0.80409 0.0
H308 H 0.0631 0.64933 0.79485 0.0
C309 C 0.05296 0.56684 0.73822 0.0
C310 C 0.07415 0.58306 0.69158 0.0
H311 H 0.01931 0.56696 0.83861 0.0
H312 H 0.04981 0.54377 0.72359 0.0
C313 C 0.07737 0.61301 0.7125 0.0
C314 C 0.89127 0.07777 0.19186 0.0
C315 C 0.92081 0.08512 0.18475 0.0
H316 H 0.85905 0.05342 0.26232 0.0
C317 C 0.94126 0.07106 0.24207 0.0
H318 H 0.87494 0.08786 0.1485 0.0
C319 C 0.93204 0.05102 0.30802 0.0
C320 C 0.90227 0.04503 0.31763 0.0
H321 H 0.96427 0.07608 0.23766 0.0
H322 H 0.94794 0.04122 0.35351 0.0
C323 C 0.88215 0.05801 0.25744 0.0
C324 C 0.40957 0.86361 0.79369 0.0
C325 C 0.42853 0.88239 0.84167 0.0
H326 H 0.37631 0.85965 0.69127 0.0
C327 C 0.42855 0.91236 0.82071 0.0
H328 H 0.40918 0.84036 0.808 0.0
C329 C 0.4096 0.92344 0.75438 0.0
C330 C 0.39044 0.90473 0.70678 0.0
H331 H 0.44295 0.92737 0.85636 0.0
H332 H 0.40998 0.94672 0.74049 0.0
C333 C 0.39084 0.87464 0.72651 0.0
C334 C 0.61017 0.40118 0.22048 0.0
C335 C 0.58014 0.40244 0.20113 0.0
H336 H 0.64565 0.41823 0.30031 0.0
C337 C 0.56273 0.4227 0.24899 0.0
H338 H 0.62416 0.38576 0.18503 0.0
C339 C 0.57505 0.44141 0.31414 0.0
C340 C 0.60501 0.44008 0.3338 0.0
H341 H 0.53954 0.42436 0.23555 0.0
H342 H 0.561 0.45682 0.34943 0.0
C343 C 0.62246 0.4197 0.28668 0.0
C344 C 0.08778 0.86631 0.264 0.0
C345 C 0.0848 0.89609 0.28751 0.0
H346 H 0.07331 0.83104 0.17767 0.0
C347 C 0.06331 0.91291 0.24337 0.0
H348 H 0.10422 0.85281 0.29657 0.0
C349 C 0.04548 0.9004 0.17632 0.0
C350 C 0.04902 0.87089 0.15078 0.0
H351 H 0.06035 0.93586 0.26026 0.0
H352 H 0.02934 0.91409 0.1431 0.0
C353 C 0.07021 0.85388 0.19564 0.0
C354 C 0.54803 0.06809 0.7837 0.0
C355 C 0.56737 0.08505 0.83704 0.0
H356 H 0.54325 0.03611 0.677 0.0
C357 C 0.59746 0.08222 0.82276 0.0
H358 H 0.52468 0.06965 0.79322 0.0
C359 C 0.60798 0.06307 0.7561 0.0
C360 C 0.58866 0.04629 0.70248 0.0
H361 H 0.61292 0.09492 0.86257 0.0
H362 H 0.63134 0.06136 0.74697 0.0
C363 C 0.5586 0.04881 0.71723 0.0
C364 C 0.40492 0.55706 0.27348 0.0
C365 C 0.38671 0.57606 0.32348 0.0
H366 H 0.43885 0.55276 0.17473 0.0
C367 C 0.38865 0.60639 0.30799 0.0
H368 H 0.40415 0.53359 0.28366 0.0
C369 C 0.40858 0.6174 0.24465 0.0
C370 C 0.42719 0.59833 0.19647 0.0
H371 H 0.37497 0.62165 0.34526 0.0
H372 H 0.40972 0.64085 0.23452 0.0
C373 C 0.425 0.56806 0.21124 0.0
C374 C 0.87182 0.40226 0.78851 0.0
C375 C 0.90171 0.39913 0.80786 0.0
H376 H 0.83928 0.42142 0.70238 0.0
C377 C 0.92186 0.41553 0.75719 0.0
H378 H 0.85567 0.39002 0.82603 0.0
C379 C 0.91238 0.43363 0.68621 0.0
C380 C 0.88262 0.43547 0.66401 0.0
H381 H 0.94505 0.41373 0.77044 0.0
H382 H 0.92845 0.44542 0.64691 0.0
C383 C 0.86241 0.4201 0.71706 0.0
C384 C 0.9359 0.39533 0.19331 0.0
C385 C 0.93037 0.36635 0.16554 0.0
H386 H 0.92316 0.43144 0.27789 0.0
C387 C 0.90764 0.35087 0.2073 0.0
H388 H 0.95323 0.40789 0.16246 0.0
C389 C 0.8906 0.36433 0.27494 0.0
C390 C 0.89565 0.39366 0.3005 0.0
H391 H 0.90296 0.32847 0.18746 0.0
H392 H 0.87297 0.35207 0.30526 0.0
C393 C 0.91861 0.4089 0.25935 0.0
C394 C 0.10957 0.89908 0.7718 0.0
C395 C 0.07959 0.89773 0.79089 0.0
H396 H 0.14304 0.91709 0.6879 0.0
C397 C 0.06033 0.91577 0.7414 0.0
H398 H 0.12504 0.8855 0.80842 0.0
C399 C 0.07072 0.93399 0.67242 0.0
C400 C 0.10052 0.93432 0.65089 0.0
H401 H 0.03712 0.91538 0.7546 0.0
H402 H 0.05528 0.94721 0.63438 0.0
C403 C 0.11989 0.91705 0.70223 0.0
C404 C 0.58401 0.10484 0.31169 0.0
C405 C 0.58564 0.0745 0.32724 0.0
H406 H 0.56327 0.13966 0.238 0.0
C407 C 0.56724 0.05582 0.2764 0.0
H408 H 0.59783 0.11988 0.34944 0.0
C409 C 0.54724 0.06717 0.21356 0.0
C410 C 0.54532 0.09747 0.19904 0.0
H411 H 0.56775 0.03234 0.28652 0.0
H412 H 0.53319 0.05214 0.1766 0.0
C413 C 0.56417 0.11618 0.24786 0.0
C414 C 0.36196 0.56213 0.75483 0.0
C415 C 0.38093 0.54478 0.70184 0.0
H416 H 0.35768 0.59418 0.86094 0.0
C417 C 0.41097 0.54602 0.71866 0.0
H418 H 0.33859 0.56137 0.74413 0.0
C419 C 0.42191 0.56487 0.7859 0.0
C420 C 0.40296 0.58265 0.83788 0.0
H421 H 0.42603 0.53288 0.67889 0.0
H422 H 0.44528 0.56563 0.79655 0.0
C423 C 0.37285 0.58084 0.82221 0.0
C424 C 0.89824 0.11133 0.72125 0.0
C425 C 0.90034 0.08104 0.70367 0.0
H426 H 0.91481 0.1482 0.79667 0.0
C427 C 0.92076 0.06446 0.75347 0.0
H428 H 0.88267 0.12474 0.68444 0.0
C429 C 0.9394 0.07797 0.8165 0.0
C430 C 0.93783 0.10831 0.8323 0.0
H431 H 0.92302 0.04111 0.74191 0.0
H432 H 0.95522 0.06459 0.85239 0.0
C433 C 0.91665 0.12479 0.78546 0.0
C434 C 0.35746 0.91541 0.29417 0.0
C435 C 0.37544 0.93495 0.34288 0.0
H436 H 0.35473 0.882 0.19134 0.0
C437 C 0.40532 0.93586 0.32253 0.0
H438 H 0.33431 0.91431 0.30793 0.0
C439 C 0.41707 0.91721 0.25609 0.0
C440 C 0.39915 0.89745 0.20783 0.0
H441 H 0.41973 0.95071 0.35875 0.0
H442 H 0.44024 0.91826 0.2427 0.0
C443 C 0.36915 0.89697 0.22703 0.0
C444 C 0.55143 0.42461 0.81396 0.0
C445 C 0.54997 0.39456 0.83329 0.0
H446 H 0.57145 0.45828 0.73508 0.0
C447 C 0.5678 0.37501 0.78412 0.0
H448 H 0.53791 0.4402 0.85053 0.0
C449 C 0.58687 0.3853 0.71754 0.0
C450 C 0.58872 0.41541 0.6991 0.0
H451 H 0.56705 0.35168 0.79693 0.0
H452 H 0.60044 0.36964 0.68149 0.0
C453 C 0.57069 0.43494 0.74785 0.0
C454 C 0.10393 0.5648 0.27471 0.0
C455 C 0.0836 0.54865 0.32508 0.0
H456 H 0.11085 0.59641 0.16996 0.0
C457 C 0.05381 0.55154 0.30476 0.0
H458 H 0.12708 0.56284 0.28834 0.0
C459 C 0.04448 0.57087 0.237 0.0
C460 C 0.06479 0.58749 0.18771 0.0
H461 H 0.03765 0.53928 0.34224 0.0
H462 H 0.0213 0.573 0.22399 0.0
C463 C 0.09464 0.58392 0.20644 0.0
C464 C 0.89522 0.54594 0.19699 0.0
C465 C 0.89319 0.55406 0.28944 0.0
H466 H 0.91172 0.55636 0.06488 0.0
C467 C 0.90528 0.58089 0.31803 0.0
H468 H 0.88591 0.52554 0.17259 0.0
C469 C 0.92025 0.59855 0.25624 0.0
C470 C 0.92319 0.58986 0.16447 0.0
H471 H 0.90396 0.58786 0.38873 0.0
H472 H 0.9301 0.61865 0.2809 0.0
C473 C 0.90993 0.5637 0.13512 0.0
C474 C 0.89951 0.9327 0.77494 0.0
C475 C 0.89674 0.92365 0.68335 0.0
H476 H 0.91868 0.92446 0.90584 0.0
C477 C 0.90956 0.89699 0.65615 0.0
H478 H 0.88971 0.95301 0.7983 0.0
C479 C 0.92644 0.88078 0.71762 0.0
C480 C 0.9305 0.8907 0.80778 0.0
H481 H 0.90768 0.88927 0.5863 0.0
H482 H 0.93698 0.86091 0.69376 0.0
C483 C 0.91608 0.9163 0.83665 0.0
C484 C 0.56854 0.92038 0.16996 0.0
C485 C 0.55217 0.8953 0.18957 0.0
H486 H 0.59694 0.95362 0.22201 0.0
C487 C 0.55457 0.88254 0.27645 0.0
H488 H 0.56721 0.93059 0.10347 0.0
C489 C 0.57188 0.8955 0.34408 0.0
C490 C 0.58669 0.92168 0.32629 0.0
H491 H 0.54245 0.86295 0.29296 0.0
H492 H 0.57251 0.88579 0.41138 0.0
C493 C 0.58549 0.93357 0.23793 0.0
C494 C 0.59655 0.56568 0.76174 0.0
C495 C 0.57971 0.54949 0.69885 0.0
H496 H 0.59653 0.59652 0.87296 0.0
C497 C 0.54935 0.55339 0.69771 0.0
H498 H 0.62003 0.56319 0.76408 0.0
C499 C 0.53599 0.5724 0.75949 0.0
C500 C 0.55262 0.58799 0.82433 0.0
H501 H 0.53573 0.54144 0.64981 0.0
H502 H 0.51246 0.57446 0.75722 0.0
C503 C 0.58311 0.58477 0.82403 0.0
C504 C 0.06886 0.39552 0.67756 0.0
C505 C 0.07705 0.42444 0.69851 0.0
H506 H 0.04502 0.35762 0.71948 0.0
C507 C 0.06931 0.43644 0.78361 0.0
H508 H 0.07464 0.38562 0.61269 0.0
C509 C 0.05266 0.42037 0.84488 0.0
C510 C 0.04309 0.39204 0.82201 0.0
H511 H 0.07554 0.45857 0.8022 0.0
H512 H 0.04639 0.43063 0.90875 0.0
C513 C 0.05186 0.37951 0.73858 0.0
C514 C 0.07352 0.06344 0.12724 0.0
C515 C 0.05917 0.08907 0.15622 0.0
H516 H 0.09868 0.02594 0.16559 0.0
C517 C 0.06121 0.09751 0.24854 0.0
H518 H 0.07247 0.05633 0.05659 0.0
C519 C 0.07629 0.08004 0.31118 0.0
C520 C 0.08955 0.05374 0.28279 0.0
H521 H 0.05043 0.11716 0.27307 0.0
H522 H 0.07682 0.08674 0.38226 0.0
C523 C 0.08849 0.04594 0.18985 0.0
C524 C 0.38033 0.05238 0.79622 0.0
C525 C 0.3904 0.05319 0.70567 0.0
H526 H 0.38665 0.0667 0.93442 0.0
C527 C 0.41407 0.07134 0.68462 0.0
H528 H 0.36199 0.03878 0.81456 0.0
C529 C 0.42822 0.08729 0.7533 0.0
C530 C 0.41896 0.08551 0.84457 0.0
H531 H 0.42229 0.07258 0.61552 0.0
H532 H 0.44694 0.10039 0.73507 0.0
C533 C 0.39444 0.06843 0.86495 0.0
C534 C 0.40383 0.42354 0.16707 0.0
C535 C 0.42494 0.40234 0.18874 0.0
H536 H 0.37147 0.45329 0.21726 0.0
C537 C 0.42751 0.39281 0.27956 0.0
H538 H 0.40123 0.43124 0.09766 0.0
C539 C 0.41027 0.40525 0.34811 0.0
C540 C 0.39031 0.42767 0.32732 0.0
H541 H 0.44334 0.37619 0.29813 0.0
H542 H 0.41341 0.39805 0.41783 0.0
C543 C 0.38677 0.43618 0.23571 0.0
loop_
_geom_bond_atom_site_label_1
_geom_bond_atom_site_label_2
_geom_bond_distance
_geom_bond_site_symmetry_2
_ccdc_geom_bond_type
Mg0 O1 2.028 . S
Mg0 O7 1.986 . S
Mg0 O9 2.114 1_554 S
Mg0 O10 2.251 1_554 S
Mg0 O13 2.010 1_455 S
O1 Mg0 2.028 . S
O1 C4 1.250 . S
O2 Mg3 2.028 . S
O2 C4 1.248 . S
Mg3 O2 2.028 . S
Mg3 O8 2.032 . S
Mg3 O10 2.079 1_554 S
C4 O1 1.250 . S
C4 O2 1.248 . S
C5 O6 1.264 . S
C5 O13 1.249 . S
O6 C5 1.264 . S
O7 Mg0 1.986 . S
O7 C11 1.246 . S
O8 Mg3 2.032 . S
O8 C11 1.259 . S
O9 Mg0 2.114 1_556 S
O9 C12 1.252 . S
O10 Mg0 2.251 1_556 S
O10 Mg3 2.079 1_556 S
O10 C12 1.273 . S
C11 O7 1.246 . S
C11 O8 1.259 . S
C12 O9 1.252 . S
C12 O10 1.273 . S
O13 Mg0 2.010 1_655 S
O13 C5 1.249 . S
Mg14 O15 2.028 . S
Mg14 O21 1.986 . S
Mg14 O23 2.114 . S
Mg14 O24 2.251 . S
Mg14 O27 2.010 1_545 S
O15 Mg14 2.028 . S
O15 C18 1.250 . S
O16 Mg17 2.028 . S
O16 C18 1.248 . S
Mg17 O16 2.028 . S
Mg17 O22 2.032 . S
Mg17 O24 2.079 . S
C18 O15 1.250 . S
C18 O16 1.248 . S
C19 O20 1.264 . S
C19 O27 1.249 . S
O20 C19 1.264 . S
O21 Mg14 1.986 . S
O21 C25 1.246 . S
O22 Mg17 2.032 . S
O22 C25 1.259 . S
O23 Mg14 2.114 . S
O23 C26 1.252 . S
O24 Mg14 2.251 . S
O24 Mg17 2.079 . S
O24 C26 1.273 . S
C25 O21 1.246 . S
C25 O22 1.259 . S
C26 O23 1.252 . S
C26 O24 1.273 . S
O27 Mg14 2.010 1_565 S
O27 C19 1.249 . S
Mg28 O29 2.028 . S
Mg28 O35 1.986 . S
Mg28 O37 2.114 1_554 S
Mg28 O38 2.251 1_554 S
Mg28 O41 2.010 . S
O29 Mg28 2.028 . S
O29 C32 1.250 . S
O30 Mg31 2.028 . S
O30 C32 1.248 . S
Mg31 O30 2.028 . S
Mg31 O36 2.032 . S
Mg31 O38 2.079 1_554 S
C32 O29 1.250 . S
C32 O30 1.248 . S
C33 O34 1.264 . S
C33 O41 1.249 . S
O34 C33 1.264 . S
O35 Mg28 1.986 . S
O35 C39 1.246 . S
O36 Mg31 2.032 . S
O36 C39 1.259 . S
O37 Mg28 2.114 1_556 S
O37 C40 1.252 . S
O38 Mg28 2.251 1_556 S
O38 Mg31 2.079 1_556 S
O38 C40 1.273 . S
C39 O35 1.246 . S
C39 O36 1.259 . S
C40 O37 1.252 . S
C40 O38 1.273 . S
O41 Mg28 2.010 . S
O41 C33 1.249 . S
Mg42 O43 2.028 . S
Mg42 O49 1.986 . S
Mg42 O51 2.114 . S
Mg42 O52 2.251 . S
Mg42 O55 2.010 . S
O43 Mg42 2.028 . S
O43 C46 1.250 . S
O44 Mg45 2.028 . S
O44 C46 1.248 . S
Mg45 O44 2.028 . S
Mg45 O50 2.032 . S
Mg45 O52 2.079 . S
C46 O43 1.250 . S
C46 O44 1.248 . S
C47 O48 1.264 . S
C47 O55 1.249 . S
O48 C47 1.264 . S
O49 Mg42 1.986 . S
O49 C53 1.246 . S
O50 Mg45 2.032 . S
O50 C53 1.259 . S
O51 Mg42 2.114 . S
O51 C54 1.252 . S
O52 Mg42 2.251 . S
O52 Mg45 2.079 . S
O52 C54 1.273 . S
C53 O49 1.246 . S
C53 O50 1.259 . S
C54 O51 1.252 . S
C54 O52 1.273 . S
O55 Mg42 2.010 . S
O55 C47 1.249 . S
Mg56 O57 2.028 . S
Mg56 O63 1.986 . S
Mg56 O65 2.114 1_556 S
Mg56 O66 2.251 1_556 S
Mg56 O69 2.010 1_455 S
O57 Mg56 2.028 . S
O57 C60 1.250 . S
O58 Mg59 2.028 . S
O58 C60 1.248 . S
Mg59 O58 2.028 . S
Mg59 O64 2.032 . S
Mg59 O66 2.079 1_556 S
C60 O57 1.250 . S
C60 O58 1.248 . S
C61 O62 1.264 . S
C61 O69 1.249 . S
O62 C61 1.264 . S
O63 Mg56 1.986 . S
O63 C67 1.246 . S
O64 Mg59 2.032 . S
O64 C67 1.259 . S
O65 Mg56 2.114 1_554 S
O65 C68 1.252 . S
O66 Mg56 2.251 1_554 S
O66 Mg59 2.079 1_554 S
O66 C68 1.273 . S
C67 O63 1.246 . S
C67 O64 1.259 . S
C68 O65 1.252 . S
C68 O66 1.273 . S
O69 Mg56 2.010 1_655 S
O69 C61 1.249 . S
Mg70 O71 2.028 . S
Mg70 O77 1.986 . S
Mg70 O79 2.114 . S
Mg70 O80 2.251 . S
Mg70 O83 2.010 1_545 S
O71 Mg70 2.028 . S
O71 C74 1.250 . S
O72 Mg73 2.028 . S
O72 C74 1.248 . S
Mg73 O72 2.028 . S
Mg73 O78 2.032 . S
Mg73 O80 2.079 . S
C74 O71 1.250 . S
C74 O72 1.248 . S
C75 O76 1.264 . S
C75 O83 1.249 . S
O76 C75 1.264 . S
O77 Mg70 1.986 . S
O77 C81 1.246 . S
O78 Mg73 2.032 . S
O78 C81 1.259 . S
O79 Mg70 2.114 . S
O79 C82 1.252 . S
O80 Mg70 2.251 . S
O80 Mg73 2.079 . S
O80 C82 1.273 . S
C81 O77 1.246 . S
C81 O78 1.259 . S
C82 O79 1.252 . S
C82 O80 1.273 . S
O83 Mg70 2.010 1_565 S
O83 C75 1.249 . S
Mg84 O85 2.028 . S
Mg84 O91 1.986 . S
Mg84 O93 2.114 1_556 S
Mg84 O94 2.251 1_556 S
Mg84 O97 2.010 . S
O85 Mg84 2.028 . S
O85 C88 1.250 . S
O86 Mg87 2.028 . S
O86 C88 1.248 . S
Mg87 O86 2.028 . S
Mg87 O92 2.032 . S
Mg87 O94 2.079 1_556 S
C88 O85 1.250 . S
C88 O86 1.248 . S
C89 O90 1.264 . S
C89 O97 1.249 . S
O90 C89 1.264 . S
O91 Mg84 1.986 . S
O91 C95 1.246 . S
O92 Mg87 2.032 . S
O92 C95 1.259 . S
O93 Mg84 2.114 1_554 S
O93 C96 1.252 . S
O94 Mg84 2.251 1_554 S
O94 Mg87 2.079 1_554 S
O94 C96 1.273 . S
C95 O91 1.246 . S
C95 O92 1.259 . S
C96 O93 1.252 . S
C96 O94 1.273 . S
O97 Mg84 2.010 . S
O97 C89 1.249 . S
Mg98 O99 2.028 . S
Mg98 O105 1.986 . S
Mg98 O107 2.114 . S
Mg98 O108 2.251 . S
Mg98 O111 2.010 . S
O99 Mg98 2.028 . S
O99 C102 1.250 . S
O100 Mg101 2.028 . S
O100 C102 1.248 . S
Mg101 O100 2.028 . S
Mg101 O106 2.032 . S
Mg101 O108 2.079 . S
C102 O99 1.250 . S
C102 O100 1.248 . S
C103 O104 1.264 . S
C103 O111 1.249 . S
O104 C103 1.264 . S
O105 Mg98 1.986 . S
O105 C109 1.246 . S
O106 Mg101 2.032 . S
O106 C109 1.259 . S
O107 Mg98 2.114 . S
O107 C110 1.252 . S
O108 Mg98 2.251 . S
O108 Mg101 2.079 . S
O108 C110 1.273 . S
C109 O105 1.246 . S
C109 O106 1.259 . S
C110 O107 1.252 . S
C110 O108 1.273 . S
O111 Mg98 2.010 . S
O111 C103 1.249 . S
Mg112 O113 2.028 . S
Mg112 O119 1.986 . S
Mg112 O121 2.114 1_556 S
Mg112 O122 2.251 1_556 S
Mg112 O125 2.010 1_655 S
O113 Mg112 2.028 . S
O113 C116 1.250 . S
O114 Mg115 2.028 . S
O114 C116 1.248 . S
Mg115 O114 2.028 . S
Mg115 O120 2.032 . S
Mg115 O122 2.079 1_556 S
C116 O113 1.250 . S
C116 O114 1.248 . S
C117 O118 1.264 . S
C117 O125 1.249 . S
O118 C117 1.264 . S
O119 Mg112 1.986 . S
O119 C123 1.246 . S
O120 Mg115 2.032 . S
O120 C123 1.259 . S
O121 Mg112 2.114 1_554 S
O121 C124 1.252 . S
O122 Mg112 2.251 1_554 S
O122 Mg115 2.079 1_554 S
O122 C124 1.273 . S
C123 O119 1.246 . S
C123 O120 1.259 . S
C124 O121 1.252 . S
C124 O122 1.273 . S
O125 Mg112 2.010 1_455 S
O125 C117 1.249 . S
Mg126 O127 2.028 . S
Mg126 O133 1.986 . S
Mg126 O135 2.114 . S
Mg126 O136 2.251 . S
Mg126 O139 2.010 1_565 S
O127 Mg126 2.028 . S
O127 C130 1.250 . S
O128 Mg129 2.028 . S
O128 C130 1.248 . S
Mg129 O128 2.028 . S
Mg129 O134 2.032 . S
Mg129 O136 2.079 . S
C130 O127 1.250 . S
C130 O128 1.248 . S
C131 O132 1.264 . S
C131 O139 1.249 . S
O132 C131 1.264 . S
O133 Mg126 1.986 . S
O133 C137 1.246 . S
O134 Mg129 2.032 . S
O134 C137 1.259 . S
O135 Mg126 2.114 . S
O135 C138 1.252 . S
O136 Mg126 2.251 . S
O136 Mg129 2.079 . S
O136 C138 1.273 . S
C137 O133 1.246 . S
C137 O134 1.259 . S
C138 O135 1.252 . S
C138 O136 1.273 . S
O139 Mg126 2.010 1_545 S
O139 C131 1.249 . S
Mg140 O141 2.028 . S
Mg140 O147 1.986 . S
Mg140 O149 2.114 1_556 S
Mg140 O150 2.251 1_556 S
Mg140 O153 2.010 . S
O141 Mg140 2.028 . S
O141 C144 1.250 . S
O142 Mg143 2.028 . S
O142 C144 1.248 . S
Mg143 O142 2.028 . S
Mg143 O148 2.032 . S
Mg143 O150 2.079 1_556 S
C144 O141 1.250 . S
C144 O142 1.248 . S
C145 O146 1.264 . S
C145 O153 1.249 . S
O146 C145 1.264 . S
O147 Mg140 1.986 . S
O147 C151 1.246 . S
O148 Mg143 2.032 . S
O148 C151 1.259 . S
O149 Mg140 2.114 1_554 S
O149 C152 1.252 . S
O150 Mg140 2.251 1_554 S
O150 Mg143 2.079 1_554 S
O150 C152 1.273 . S
C151 O147 1.246 . S
C151 O148 1.259 . S
C152 O149 1.252 . S
C152 O150 1.273 . S
O153 Mg140 2.010 . S
O153 C145 1.249 . S
Mg154 O155 2.028 . S
Mg154 O161 1.986 . S
Mg154 O163 2.114 . S
Mg154 O164 2.251 . S
Mg154 O167 2.010 . S
O155 Mg154 2.028 . S
O155 C158 1.250 . S
O156 Mg157 2.028 . S
O156 C158 1.248 . S
Mg157 O156 2.028 . S
Mg157 O162 2.032 . S
Mg157 O164 2.079 . S
C158 O155 1.250 . S
C158 O156 1.248 . S
C159 O160 1.264 . S
C159 O167 1.249 . S
O160 C159 1.264 . S
O161 Mg154 1.986 . S
O161 C165 1.246 . S
O162 Mg157 2.032 . S
O162 C165 1.259 . S
O163 Mg154 2.114 . S
O163 C166 1.252 . S
O164 Mg154 2.251 . S
O164 Mg157 2.079 . S
O164 C166 1.273 . S
C165 O161 1.246 . S
C165 O162 1.259 . S
C166 O163 1.252 . S
C166 O164 1.273 . S
O167 Mg154 2.010 . S
O167 C159 1.249 . S
Mg168 O169 2.028 . S
Mg168 O175 1.986 . S
Mg168 O177 2.114 1_554 S
Mg168 O178 2.251 1_554 S
Mg168 O181 2.010 1_655 S
O169 Mg168 2.028 . S
O169 C172 1.250 . S
O170 Mg171 2.028 . S
O170 C172 1.248 . S
Mg171 O170 2.028 . S
Mg171 O176 2.032 . S
Mg171 O178 2.079 1_554 S
C172 O169 1.250 . S
C172 O170 1.248 . S
C173 O174 1.264 . S
C173 O181 1.249 . S
O174 C173 1.264 . S
O175 Mg168 1.986 . S
O175 C179 1.246 . S
O176 Mg171 2.032 . S
O176 C179 1.259 . S
O177 Mg168 2.114 1_556 S
O177 C180 1.252 . S
O178 Mg168 2.251 1_556 S
O178 Mg171 2.079 1_556 S
O178 C180 1.273 . S
C179 O175 1.246 . S
C179 O176 1.259 . S
C180 O177 1.252 . S
C180 O178 1.273 . S
O181 Mg168 2.010 1_455 S
O181 C173 1.249 . S
Mg182 O183 2.028 . S
Mg182 O189 1.986 . S
Mg182 O191 2.114 . S
Mg182 O192 2.251 . S
Mg182 O195 2.010 1_565 S
O183 Mg182 2.028 . S
O183 C186 1.250 . S
O184 Mg185 2.028 . S
O184 C186 1.248 . S
Mg185 O184 2.028 . S
Mg185 O190 2.032 . S
Mg185 O192 2.079 . S
C186 O183 1.250 . S
C186 O184 1.248 . S
C187 O188 1.264 . S
C187 O195 1.249 . S
O188 C187 1.264 . S
O189 Mg182 1.986 . S
O189 C193 1.246 . S
O190 Mg185 2.032 . S
O190 C193 1.259 . S
O191 Mg182 2.114 . S
O191 C194 1.252 . S
O192 Mg182 2.251 . S
O192 Mg185 2.079 . S
O192 C194 1.273 . S
C193 O189 1.246 . S
C193 O190 1.259 . S
C194 O191 1.252 . S
C194 O192 1.273 . S
O195 Mg182 2.010 1_545 S
O195 C187 1.249 . S
Mg196 O197 2.028 . S
Mg196 O203 1.986 . S
Mg196 O205 2.114 1_554 S
Mg196 O206 2.251 1_554 S
Mg196 O209 2.010 . S
O197 Mg196 2.028 . S
O197 C200 1.250 . S
O198 Mg199 2.028 . S
O198 C200 1.248 . S
Mg199 O198 2.028 . S
Mg199 O204 2.032 . S
Mg199 O206 2.079 1_554 S
C200 O197 1.250 . S
C200 O198 1.248 . S
C201 O202 1.264 . S
C201 O209 1.249 . S
O202 C201 1.264 . S
O203 Mg196 1.986 . S
O203 C207 1.246 . S
O204 Mg199 2.032 . S
O204 C207 1.259 . S
O205 Mg196 2.114 1_556 S
O205 C208 1.252 . S
O206 Mg196 2.251 1_556 S
O206 Mg199 2.079 1_556 S
O206 C208 1.273 . S
C207 O203 1.246 . S
C207 O204 1.259 . S
C208 O205 1.252 . S
C208 O206 1.273 . S
O209 Mg196 2.010 . S
O209 C201 1.249 . S
Mg210 O211 2.028 . S
Mg210 O217 1.986 . S
Mg210 O219 2.114 . S
Mg210 O220 2.251 . S
Mg210 O223 2.010 . S
O211 Mg210 2.028 . S
O211 C214 1.250 . S
O212 Mg213 2.028 . S
O212 C214 1.248 . S
Mg213 O212 2.028 . S
Mg213 O218 2.032 . S
Mg213 O220 2.079 . S
C214 O211 1.250 . S
C214 O212 1.248 . S
C215 O216 1.264 . S
C215 O223 1.249 . S
O216 C215 1.264 . S
O217 Mg210 1.986 . S
O217 C221 1.246 . S
O218 Mg213 2.032 . S
O218 C221 1.259 . S
O219 Mg210 2.114 . S
O219 C222 1.252 . S
O220 Mg210 2.251 . S
O220 Mg213 2.079 . S
O220 C222 1.273 . S
C221 O217 1.246 . S
C221 O218 1.259 . S
C222 O219 1.252 . S
C222 O220 1.273 . S
O223 Mg210 2.010 . S
O223 C215 1.249 . S
C224 C225 1.387 1_655 S
C224 H228 0.950 . S
C224 C233 1.390 1_554 S
C225 C224 1.387 1_455 S
C225 C227 1.387 . S
H226 C233 0.950 . S
C227 C225 1.387 . S
C227 C229 1.390 1_554 S
C227 H231 0.950 . S
H228 C224 0.950 . S
C229 C227 1.390 1_556 S
C229 C230 1.387 . S
C229 H232 0.950 . S
C230 C229 1.387 . S
C230 C233 1.387 1_455 S
H231 C227 0.950 . S
H232 C229 0.950 . S
C233 C224 1.390 1_556 S
C233 H226 0.950 . S
C233 C230 1.387 1_655 S
C234 C235 1.387 1_565 S
C234 H238 0.950 . S
C234 C243 1.390 . S
C235 C234 1.387 1_545 S
C235 C237 1.387 . S
H236 C243 0.950 . S
C237 C235 1.387 . S
C237 C239 1.390 . S
C237 H241 0.950 . S
H238 C234 0.950 . S
C239 C237 1.390 . S
C239 C240 1.387 . S
C239 H242 0.950 . S
C240 C239 1.387 . S
C240 C243 1.387 1_545 S
H241 C237 0.950 . S
H242 C239 0.950 . S
C243 C234 1.390 . S
C243 H236 0.950 . S
C243 C240 1.387 1_565 S
C244 C245 1.387 . S
C244 H248 0.950 . S
C244 C253 1.390 1_554 S
C245 C244 1.387 . S
C245 C247 1.387 . S
H246 C253 0.950 . S
C247 C245 1.387 . S
C247 C249 1.390 1_554 S
C247 H251 0.950 . S
H248 C244 0.950 . S
C249 C247 1.390 1_556 S
C249 C250 1.387 . S
C249 H252 0.950 . S
C250 C249 1.387 . S
C250 C253 1.387 . S
H251 C247 0.950 . S
H252 C249 0.950 . S
C253 C244 1.390 1_556 S
C253 H246 0.950 . S
C253 C250 1.387 . S
C254 C255 1.387 . S
C254 H258 0.950 . S
C254 C263 1.390 . S
C255 C254 1.387 . S
C255 C257 1.387 . S
H256 C263 0.950 . S
C257 C255 1.387 . S
C257 C259 1.390 . S
C257 H261 0.950 . S
H258 C254 0.950 . S
C259 C257 1.390 . S
C259 C260 1.387 . S
C259 H262 0.950 . S
C260 C259 1.387 . S
C260 C263 1.387 . S
H261 C257 0.950 . S
H262 C259 0.950 . S
C263 C254 1.390 . S
C263 H256 0.950 . S
C263 C260 1.387 . S
C264 C265 1.387 . S
C264 H268 0.950 . S
C264 C273 1.390 1_556 S
C265 C264 1.387 . S
C265 C267 1.387 1_655 S
H266 C273 0.950 . S
C267 C265 1.387 1_455 S
C267 C269 1.390 1_556 S
C267 H271 0.950 . S
H268 C264 0.950 . S
C269 C267 1.390 1_554 S
C269 C270 1.387 1_455 S
C269 H272 0.950 . S
C270 C269 1.387 1_655 S
C270 C273 1.387 . S
H271 C267 0.950 . S
H272 C269 0.950 . S
C273 C264 1.390 1_554 S
C273 H266 0.950 . S
C273 C270 1.387 . S
C274 C275 1.387 1_545 S
C274 H278 0.950 . S
C274 C283 1.390 . S
C275 C274 1.387 1_565 S
C275 C277 1.387 . S
H276 C283 0.950 . S
C277 C275 1.387 . S
C277 C279 1.390 . S
C277 H281 0.950 . S
H278 C274 0.950 . S
C279 C277 1.390 . S
C279 C280 1.387 . S
C279 H282 0.950 . S
C280 C279 1.387 . S
C280 C283 1.387 1_565 S
H281 C277 0.950 . S
H282 C279 0.950 . S
C283 C274 1.390 . S
C283 H276 0.950 . S
C283 C280 1.387 1_545 S
C284 C285 1.387 . S
C284 H288 0.950 . S
C284 C293 1.390 1_556 S
C285 C284 1.387 . S
C285 C287 1.387 . S
H286 C293 0.950 . S
C287 C285 1.387 . S
C287 C289 1.390 1_556 S
C287 H291 0.950 . S
H288 C284 0.950 . S
C289 C287 1.390 1_554 S
C289 C290 1.387 . S
C289 H292 0.950 . S
C290 C289 1.387 . S
C290 C293 1.387 . S
H291 C287 0.950 . S
H292 C289 0.950 . S
C293 C284 1.390 1_554 S
C293 H286 0.950 . S
C293 C290 1.387 . S
C294 C295 1.387 . S
C294 H298 0.950 . S
C294 C303 1.390 . S
C295 C294 1.387 . S
C295 C297 1.387 . S
H296 C303 0.950 . S
C297 C295 1.387 . S
C297 C299 1.390 . S
C297 H301 0.950 . S
H298 C294 0.950 . S
C299 C297 1.390 . S
C299 C300 1.387 . S
C299 H302 0.950 . S
C300 C299 1.387 . S
C300 C303 1.387 . S
H301 C297 0.950 . S
H302 C299 0.950 . S
C303 C294 1.390 . S
C303 H296 0.950 . S
C303 C300 1.387 . S
C304 C305 1.387 . S
C304 H308 0.950 . S
C304 C313 1.390 . S
C305 C304 1.387 . S
C305 C307 1.387 . S
H306 C313 0.950 . S
C307 C305 1.387 . S
C307 C309 1.390 . S
C307 H311 0.950 . S
H308 C304 0.950 . S
C309 C307 1.390 . S
C309 C310 1.387 . S
C309 H312 0.950 . S
C310 C309 1.387 . S
C310 C313 1.387 . S
H311 C307 0.950 . S
H312 C309 0.950 . S
C313 C304 1.390 . S
C313 H306 0.950 . S
C313 C310 1.387 . S
C314 C315 1.387 . S
C314 H318 0.950 . S
C314 C323 1.390 . S
C315 C314 1.387 . S
C315 C317 1.387 . S
H316 C323 0.950 . S
C317 C315 1.387 . S
C317 C319 1.390 . S
C317 H321 0.950 . S
H318 C314 0.950 . S
C319 C317 1.390 . S
C319 C320 1.387 . S
C319 H322 0.950 . S
C320 C319 1.387 . S
C320 C323 1.387 . S
H321 C317 0.950 . S
H322 C319 0.950 . S
C323 C314 1.390 . S
C323 H316 0.950 . S
C323 C320 1.387 . S
C324 C325 1.387 . S
C324 H328 0.950 . S
C324 C333 1.390 . S
C325 C324 1.387 . S
C325 C327 1.387 . S
H326 C333 0.950 . S
C327 C325 1.387 . S
C327 C329 1.390 . S
C327 H331 0.950 . S
H328 C324 0.950 . S
C329 C327 1.390 . S
C329 C330 1.387 . S
C329 H332 0.950 . S
C330 C329 1.387 . S
C330 C333 1.387 . S
H331 C327 0.950 . S
H332 C329 0.950 . S
C333 C324 1.390 . S
C333 H326 0.950 . S
C333 C330 1.387 . S
C334 C335 1.387 . S
C334 H338 0.950 . S
C334 C343 1.390 . S
C335 C334 1.387 . S
C335 C337 1.387 . S
H336 C343 0.950 . S
C337 C335 1.387 . S
C337 C339 1.390 . S
C337 H341 0.950 . S
H338 C334 0.950 . S
C339 C337 1.390 . S
C339 C340 1.387 . S
C339 H342 0.950 . S
C340 C339 1.387 . S
C340 C343 1.387 . S
H341 C337 0.950 . S
H342 C339 0.950 . S
C343 C334 1.390 . S
C343 H336 0.950 . S
C343 C340 1.387 . S
C344 C345 1.387 . S
C344 H348 0.950 . S
C344 C353 1.390 . S
C345 C344 1.387 . S
C345 C347 1.387 . S
H346 C353 0.950 . S
C347 C345 1.387 . S
C347 C349 1.390 . S
C347 H351 0.950 . S
H348 C344 0.950 . S
C349 C347 1.390 . S
C349 C350 1.387 . S
C349 H352 0.950 . S
C350 C349 1.387 . S
C350 C353 1.387 . S
H351 C347 0.950 . S
H352 C349 0.950 . S
C353 C344 1.390 . S
C353 H346 0.950 . S
C353 C350 1.387 . S
C354 C355 1.387 . S
C354 H358 0.950 . S
C354 C363 1.390 . S
C355 C354 1.387 . S
C355 C357 1.387 . S
H356 C363 0.950 . S
C357 C355 1.387 . S
C357 C359 1.390 . S
C357 H361 0.950 . S
H358 C354 0.950 . S
C359 C357 1.390 . S
C359 C360 1.387 . S
C359 H362 0.950 . S
C360 C359 1.387 . S
C360 C363 1.387 . S
H361 C357 0.950 . S
H362 C359 0.950 . S
C363 C354 1.390 . S
C363 H356 0.950 . S
C363 C360 1.387 . S
C364 C365 1.387 . S
C364 H368 0.950 . S
C364 C373 1.390 . S
C365 C364 1.387 . S
C365 C367 1.387 . S
H366 C373 0.950 . S
C367 C365 1.387 . S
C367 C369 1.390 . S
C367 H371 0.950 . S
H368 C364 0.950 . S
C369 C367 1.390 . S
C369 C370 1.387 . S
C369 H372 0.950 . S
C370 C369 1.387 . S
C370 C373 1.387 . S
H371 C367 0.950 . S
H372 C369 0.950 . S
C373 C364 1.390 . S
C373 H366 0.950 . S
C373 C370 1.387 . S
C374 C375 1.387 . S
C374 H378 0.950 . S
C374 C383 1.390 . S
C375 C374 1.387 . S
C375 C377 1.387 . S
H376 C383 0.950 . S
C377 C375 1.387 . S
C377 C379 1.390 . S
C377 H381 0.950 . S
H378 C374 0.950 . S
C379 C377 1.390 . S
C379 C380 1.387 . S
C379 H382 0.950 . S
C380 C379 1.387 . S
C380 C383 1.387 . S
H381 C377 0.950 . S
H382 C379 0.950 . S
C383 C374 1.390 . S
C383 H376 0.950 . S
C383 C380 1.387 . S
C384 C385 1.387 . S
C384 H388 0.950 . S
C384 C393 1.390 . S
C385 C384 1.387 . S
C385 C387 1.387 . S
H386 C393 0.950 . S
C387 C385 1.387 . S
C387 C389 1.390 . S
C387 H391 0.950 . S
H388 C384 0.950 . S
C389 C387 1.390 . S
C389 C390 1.387 . S
C389 H392 0.950 . S
C390 C389 1.387 . S
C390 C393 1.387 . S
H391 C387 0.950 . S
H392 C389 0.950 . S
C393 C384 1.390 . S
C393 H386 0.950 . S
C393 C390 1.387 . S
C394 C395 1.387 . S
C394 H398 0.950 . S
C394 C403 1.390 . S
C395 C394 1.387 . S
C395 C397 1.387 . S
H396 C403 0.950 . S
C397 C395 1.387 . S
C397 C399 1.390 . S
C397 H401 0.950 . S
H398 C394 0.950 . S
C399 C397 1.390 . S
C399 C400 1.387 . S
C399 H402 0.950 . S
C400 C399 1.387 . S
C400 C403 1.387 . S
H401 C397 0.950 . S
H402 C399 0.950 . S
C403 C394 1.390 . S
C403 H396 0.950 . S
C403 C400 1.387 . S
C404 C405 1.387 . S
C404 H408 0.950 . S
C404 C413 1.390 . S
C405 C404 1.387 . S
C405 C407 1.387 . S
H406 C413 0.950 . S
C407 C405 1.387 . S
C407 C409 1.390 . S
C407 H411 0.950 . S
H408 C404 0.950 . S
C409 C407 1.390 . S
C409 C410 1.387 . S
C409 H412 0.950 . S
C410 C409 1.387 . S
C410 C413 1.387 . S
H411 C407 0.950 . S
H412 C409 0.950 . S
C413 C404 1.390 . S
C413 H406 0.950 . S
C413 C410 1.387 . S
C414 C415 1.387 . S
C414 H418 0.950 . S
C414 C423 1.390 . S
C415 C414 1.387 . S
C415 C417 1.387 . S
H416 C423 0.950 . S
C417 C415 1.387 . S
C417 C419 1.390 . S
C417 H421 0.950 . S
H418 C414 0.950 . S
C419 C417 1.390 . S
C419 C420 1.387 . S
C419 H422 0.950 . S
C420 C419 1.387 . S
C420 C423 1.387 . S
H421 C417 0.950 . S
H422 C419 0.950 . S
C423 C414 1.390 . S
C423 H416 0.950 . S
C423 C420 1.387 . S
C424 C425 1.387 . S
C424 H428 0.950 . S
C424 C433 1.390 . S
C425 C424 1.387 . S
C425 C427 1.387 . S
H426 C433 0.950 . S
C427 C425 1.387 . S
C427 C429 1.390 . S
C427 H431 0.950 . S
H428 C424 0.950 . S
C429 C427 1.390 . S
C429 C430 1.387 . S
C429 H432 0.950 . S
C430 C429 1.387 . S
C430 C433 1.387 . S
H431 C427 0.950 . S
H432 C429 0.950 . S
C433 C424 1.390 . S
C433 H426 0.950 . S
C433 C430 1.387 . S
C434 C435 1.387 . S
C434 H438 0.950 . S
C434 C443 1.390 . S
C435 C434 1.387 . S
C435 C437 1.387 . S
H436 C443 0.950 . S
C437 C435 1.387 . S
C437 C439 1.390 . S
C437 H441 0.950 . S
H438 C434 0.950 . S
C439 C437 1.390 . S
C439 C440 1.387 . S
C439 H442 0.950 . S
C440 C439 1.387 . S
C440 C443 1.387 . S
H441 C437 0.950 . S
H442 C439 0.950 . S
C443 C434 1.390 . S
C443 H436 0.950 . S
C443 C440 1.387 . S
C444 C445 1.387 . S
C444 H448 0.950 . S
C444 C453 1.390 . S
C445 C444 1.387 . S
C445 C447 1.387 . S
H446 C453 0.950 . S
C447 C445 1.387 . S
C447 C449 1.390 . S
C447 H451 0.950 . S
H448 C444 0.950 . S
C449 C447 1.390 . S
C449 C450 1.387 . S
C449 H452 0.950 . S
C450 C449 1.387 . S
C450 C453 1.387 . S
H451 C447 0.950 . S
H452 C449 0.950 . S
C453 C444 1.390 . S
C453 H446 0.950 . S
C453 C450 1.387 . S
C454 C455 1.387 . S
C454 H458 0.950 . S
C454 C463 1.390 . S
C455 C454 1.387 . S
C455 C457 1.387 . S
H456 C463 0.950 . S
C457 C455 1.387 . S
C457 C459 1.390 . S
C457 H461 0.950 . S
H458 C454 0.950 . S
C459 C457 1.390 . S
C459 C460 1.387 . S
C459 H462 0.950 . S
C460 C459 1.387 . S
C460 C463 1.387 . S
H461 C457 0.950 . S
H462 C459 0.950 . S
C463 C454 1.390 . S
C463 H456 0.950 . S
C463 C460 1.387 . S
C464 C465 1.387 . S
C464 H468 0.950 . S
C464 C473 1.390 . S
C465 C464 1.387 . S
C465 C467 1.387 . S
H466 C473 0.950 . S
C467 C465 1.387 . S
C467 C469 1.390 . S
C467 H471 0.950 . S
H468 C464 0.950 . S
C469 C467 1.390 . S
C469 C470 1.387 . S
C469 H472 0.950 . S
C470 C469 1.387 . S
C470 C473 1.387 . S
H471 C467 0.950 . S
H472 C469 0.950 . S
C473 C464 1.390 . S
C473 H466 0.950 . S
C473 C470 1.387 . S
C474 C475 1.387 . S
C474 H478 0.950 . S
C474 C483 1.390 . S
C475 C474 1.387 . S
C475 C477 1.387 . S
H476 C483 0.950 . S
C477 C475 1.387 . S
C477 C479 1.390 . S
C477 H481 0.950 . S
H478 C474 0.950 . S
C479 C477 1.390 . S
C479 C480 1.387 . S
C479 H482 0.950 . S
C480 C479 1.387 . S
C480 C483 1.387 . S
H481 C477 0.950 . S
H482 C479 0.950 . S
C483 C474 1.390 . S
C483 H476 0.950 . S
C483 C480 1.387 . S
C484 C485 1.387 . S
C484 H488 0.950 . S
C484 C493 1.390 . S
C485 C484 1.387 . S
C485 C487 1.387 . S
H486 C493 0.950 . S
C487 C485 1.387 . S
C487 C489 1.390 . S
C487 H491 0.950 . S
H488 C484 0.950 . S
C489 C487 1.390 . S
C489 C490 1.387 . S
C489 H492 0.950 . S
C490 C489 1.387 . S
C490 C493 1.387 . S
H491 C487 0.950 . S
H492 C489 0.950 . S
C493 C484 1.390 . S
C493 H486 0.950 . S
C493 C490 1.387 . S
C494 C495 1.387 . S
C494 H498 0.950 . S
C494 C503 1.390 . S
C495 C494 1.387 . S
C495 C497 1.387 . S
H496 C503 0.950 . S
C497 C495 1.387 . S
C497 C499 1.390 . S
C497 H501 0.950 . S
H498 C494 0.950 . S
C499 C497 1.390 . S
C499 C500 1.387 . S
C499 H502 0.950 . S
C500 C499 1.387 . S
C500 C503 1.387 . S
H501 C497 0.950 . S
H502 C499 0.950 . S
C503 C494 1.390 . S
C503 H496 0.950 . S
C503 C500 1.387 . S
C504 C505 1.387 . S
C504 H508 0.950 . S
C504 C513 1.390 . S
C505 C504 1.387 . S
C505 C507 1.387 . S
H506 C513 0.950 . S
C507 C505 1.387 . S
C507 C509 1.390 . S
C507 H511 0.950 . S
H508 C504 0.950 . S
C509 C507 1.390 . S
C509 C510 1.387 . S
C509 H512 0.950 . S
C510 C509 1.387 . S
C510 C513 1.387 . S
H511 C507 0.950 . S
H512 C509 0.950 . S
C513 C504 1.390 . S
C513 H506 0.950 . S
C513 C510 1.387 . S
C514 C515 1.387 . S
C514 H518 0.950 . S
C514 C523 1.390 . S
C515 C514 1.387 . S
C515 C517 1.387 . S
H516 C523 0.950 . S
C517 C515 1.387 . S
C517 C519 1.390 . S
C517 H521 0.950 . S
H518 C514 0.950 . S
C519 C517 1.390 . S
C519 C520 1.387 . S
C519 H522 0.950 . S
C520 C519 1.387 . S
C520 C523 1.387 . S
H521 C517 0.950 . S
H522 C519 0.950 . S
C523 C514 1.390 . S
C523 H516 0.950 . S
C523 C520 1.387 . S
C524 C525 1.387 . S
C524 H528 0.950 . S
C524 C533 1.390 . S
C525 C524 1.387 . S
C525 C527 1.387 . S
H526 C533 0.950 . S
C527 C525 1.387 . S
C527 C529 1.390 . S
C527 H531 0.950 . S
H528 C524 0.950 . S
C529 C527 1.390 . S
C529 C530 1.387 . S
C529 H532 0.950 . S
C530 C529 1.387 . S
C530 C533 1.387 . S
H531 C527 0.950 . S
H532 C529 0.950 . S
C533 C524 1.390 . S
C533 H526 0.950 . S
C533 C530 1.387 . S
C534 C535 1.387 . S
C534 H538 0.950 . S
C534 C543 1.390 . S
C535 C534 1.387 . S
C535 C537 1.387 . S
H536 C543 0.950 . S
C537 C535 1.387 . S
C537 C539 1.390 . S
C537 H541 0.950 . S
H538 C534 0.950 . S
C539 C537 1.390 . S
C539 C540 1.387 . S
C539 H542 0.950 . S
C540 C539 1.387 . S
C540 C543 1.387 . S
H541 C537 0.950 . S
H542 C539 0.950 . S
C543 C534 1.390 . S
C543 H536 0.950 . S
C543 C540 1.387 . S
C225 C11 1.187 . S
C230 C67 1.187 . S
C235 C81 1.187 . S
C240 C25 1.187 . S
C245 C39 1.190 . S
C250 C95 1.190 . S
C255 C53 1.190 . S
C260 C109 1.190 . S
C265 C123 1.187 . S
C270 C179 1.187 . S
C275 C193 1.190 . S
C280 C137 1.190 . S
C285 C151 1.190 . S
C290 C207 1.190 . S
C295 C165 1.190 . S
C300 C221 1.190 . S
C305 C12 1.278 . S
C310 C214 1.264 . S
C315 C172 1.262 . S
C320 C26 1.278 . S
C325 C40 1.278 . S
C330 C186 1.264 . S
C335 C200 1.264 . S
C340 C54 1.278 . S
C345 C130 1.263 . S
C350 C68 1.278 . S
C355 C144 1.262 . S
C360 C82 1.277 . S
C365 C158 1.261 . S
C370 C96 1.276 . S
C375 C116 1.263 . S
C380 C110 1.278 . S
C385 C124 1.279 . S
C390 C102 1.264 . S
C395 C60 1.262 . S
C400 C138 1.277 . S
C405 C74 1.261 . S
C410 C152 1.277 . S
C415 C166 1.277 . S
C420 C88 1.262 . S
C425 C18 1.261 . S
C430 C180 1.277 . S
C435 C194 1.278 . S
C440 C32 1.262 . S
C445 C208 1.278 . S
C450 C46 1.264 . S
C455 C222 1.277 . S
C460 C4 1.261 . S
C465 C103 1.468 . S
C470 C5 1.466 . S
C475 C19 1.468 . S
C480 C61 1.466 . S
C485 C33 1.466 . S
C490 C75 1.468 . S
C495 C47 1.469 . S
C500 C89 1.469 . S
C505 C215 1.467 . S
C510 C117 1.466 . S
C515 C173 1.469 . S
C520 C131 1.468 . S
C525 C187 1.466 . S
C530 C145 1.468 . S
C535 C201 1.470 . S
C540 C159 1.468 . S
