# Generated by pormake.
# Topology ske, (6)-cn, num edge types: 1
# Building blocks:
#     Node 0, Type 0, BuildingBlock: INOVEN_clean_sbu_0, # of connection points: 6
#     Node 1, Type 0, BuildingBlock: INOVEN_clean_sbu_0, # of connection points: 6
#     Node 2, Type 0, BuildingBlock: INOVEN_clean_sbu_0, # of connection points: 6
#     Node 3, Type 0, BuildingBlock: INOVEN_clean_sbu_0, # of connection points: 6
#     Node 4, Type 0, BuildingBlock: INOVEN_clean_sbu_0, # of connection points: 6
#     Node 5, Type 0, BuildingBlock: INOVEN_clean_sbu_0, # of connection points: 6
#     Node 6, Type 0, BuildingBlock: INOVEN_clean_sbu_0, # of connection points: 6
#     Node 7, Type 0, BuildingBlock: INOVEN_clean_sbu_0, # of connection points: 6
#     Edge 8, Type (0, 0), BuildingBlock: AJUNOK_clean_linker_0, # of connection points: 2
#     Edge 9, Type (0, 0), BuildingBlock: AJUNOK_clean_linker_0, # of connection points: 2
#     Edge 10, Type (0, 0), BuildingBlock: AJUNOK_clean_linker_0, # of connection points: 2
#     Edge 11, Type (0, 0), BuildingBlock: AJUNOK_clean_linker_0, # of connection points: 2
#     Edge 12, Type (0, 0), BuildingBlock: AJUNOK_clean_linker_0, # of connection points: 2
#     Edge 13, Type (0, 0), BuildingBlock: AJUNOK_clean_linker_0, # of connection points: 2
#     Edge 14, Type (0, 0), BuildingBlock: AJUNOK_clean_linker_0, # of connection points: 2
#     Edge 15, Type (0, 0), BuildingBlock: AJUNOK_clean_linker_0, # of connection points: 2
#     Edge 16, Type (0, 0), BuildingBlock: AJUNOK_clean_linker_0, # of connection points: 2
#     Edge 17, Type (0, 0), BuildingBlock: AJUNOK_clean_linker_0, # of connection points: 2
#     Edge 18, Type (0, 0), BuildingBlock: AJUNOK_clean_linker_0, # of connection points: 2
#     Edge 19, Type (0, 0), BuildingBlock: AJUNOK_clean_linker_0, # of connection points: 2
#     Edge 20, Type (0, 0), BuildingBlock: AJUNOK_clean_linker_0, # of connection points: 2
#     Edge 21, Type (0, 0), BuildingBlock: AJUNOK_clean_linker_0, # of connection points: 2
#     Edge 22, Type (0, 0), BuildingBlock: AJUNOK_clean_linker_0, # of connection points: 2
#     Edge 23, Type (0, 0), BuildingBlock: AJUNOK_clean_linker_0, # of connection points: 2
#     Edge 24, Type (0, 0), BuildingBlock: AJUNOK_clean_linker_0, # of connection points: 2
#     Edge 25, Type (0, 0), BuildingBlock: AJUNOK_clean_linker_0, # of connection points: 2
#     Edge 26, Type (0, 0), BuildingBlock: AJUNOK_clean_linker_0, # of connection points: 2
#     Edge 27, Type (0, 0), BuildingBlock: AJUNOK_clean_linker_0, # of connection points: 2
#     Edge 28, Type (0, 0), BuildingBlock: AJUNOK_clean_linker_0, # of connection points: 2
#     Edge 29, Type (0, 0), BuildingBlock: AJUNOK_clean_linker_0, # of connection points: 2
#     Edge 30, Type (0, 0), BuildingBlock: AJUNOK_clean_linker_0, # of connection points: 2
#     Edge 31, Type (0, 0), BuildingBlock: AJUNOK_clean_linker_0, # of connection points: 2
# Relax obj value: 0.198
# Max RMSD: 0.214
# Mean RMSD: 0.207
data_MOF--net-ske--node1-INOVEN_clean_sbu_0--edge1-AJUNOK_clean_linker_0
_symmetry_space_group_name_H-M    P1
_symmetry_Int_Tables_number       1
_symmetry_cell_setting            triclinic
loop_
_symmetry_equiv_pos_as_xyz
'x, y, z'
_cell_length_a     87.812947
_cell_length_b     21.202615
_cell_length_c     11.555298
_cell_angle_alpha  90.160584
_cell_angle_beta   89.963259
_cell_angle_gamma 82.607662
loop_
_atom_site_label
_atom_site_type_symbol
_atom_site_fract_x
_atom_site_fract_y
_atom_site_fract_z
_atom_type_partial_charge
Gd0 Gd 0.16106 0.25852 0.53904 0.0
Gd1 Gd 0.12714 0.26087 0.54882 0.0
C2 C 0.14443 0.25375 0.7897 0.0
C3 C 0.18932 0.28231 0.55228 0.0
C4 C 0.20412 0.2742 0.61606 0.0
C5 C 0.2135 0.21521 0.61983 0.0
C6 C 0.20991 0.32816 0.6602 0.0
C7 C 0.23438 0.26512 0.70559 0.0
C8 C 0.22484 0.3237 0.70451 0.0
C9 C 0.22846 0.21075 0.66409 0.0
C10 C 0.15174 0.14083 0.52669 0.0
C11 C 0.1437 0.26169 0.29747 0.0
C12 C 0.09882 0.23786 0.54248 0.0
C13 C 0.08292 0.24488 0.49706 0.0
C14 C 0.07379 0.30436 0.49182 0.0
C15 C 0.07604 0.1897 0.47633 0.0
C16 C 0.05094 0.25261 0.45625 0.0
C17 C 0.06023 0.19347 0.45648 0.0
C18 C 0.05795 0.30817 0.47126 0.0
C19 C 0.13659 0.37909 0.557 0.0
O20 O 0.15632 0.2707 0.73256 0.0
O21 O 0.13274 0.23561 0.73291 0.0
O22 O 0.18513 0.23306 0.49846 0.0
O23 O 0.17772 0.31982 0.59598 0.0
O24 O 0.16363 0.15681 0.47352 0.0
O25 O 0.14608 0.18581 0.59176 0.0
O26 O 0.13173 0.24729 0.35677 0.0
O27 O 0.15577 0.27876 0.35148 0.0
O28 O 0.10342 0.28513 0.59984 0.0
O29 O 0.10987 0.20352 0.48605 0.0
O30 O 0.12502 0.36256 0.61369 0.0
O31 O 0.14209 0.3333 0.49307 0.0
H32 H 0.20951 0.1728 0.58493 0.0
H33 H 0.20305 0.37441 0.65686 0.0
H34 H 0.22903 0.36639 0.73631 0.0
H35 H 0.23559 0.16512 0.66164 0.0
H36 H 0.07873 0.34771 0.50875 0.0
H37 H 0.08278 0.14323 0.4812 0.0
H38 H 0.05518 0.1499 0.44475 0.0
H39 H 0.05107 0.35439 0.47313 0.0
Gd40 Gd 0.8722 0.26535 0.53828 0.0
Gd41 Gd 0.90856 0.26118 0.54155 0.0
C42 C 0.88974 0.26555 0.78738 0.0
C43 C 0.84415 0.23909 0.54928 0.0
C44 C 0.82942 0.24479 0.6137 0.0
C45 C 0.82019 0.30363 0.62809 0.0
C46 C 0.8236 0.18914 0.64867 0.0
C47 C 0.7994 0.25048 0.70682 0.0
C48 C 0.80878 0.1919 0.69468 0.0
C49 C 0.80534 0.30638 0.6741 0.0
C50 C 0.88289 0.38016 0.52108 0.0
C51 C 0.89058 0.26116 0.29678 0.0
C52 C 0.93574 0.29613 0.54963 0.0
C53 C 0.9519 0.28607 0.51031 0.0
C54 C 0.9602 0.22509 0.49974 0.0
C55 C 0.9596 0.33944 0.49486 0.0
C56 C 0.98389 0.27152 0.46553 0.0
C57 C 0.9754 0.33235 0.47322 0.0
C58 C 0.97605 0.21792 0.47752 0.0
C59 C 0.90054 0.14058 0.5143 0.0
O60 O 0.87658 0.2627 0.732 0.0
O61 O 0.90285 0.26858 0.73197 0.0
O62 O 0.84807 0.28974 0.49853 0.0
O63 O 0.8559 0.20184 0.59098 0.0
O64 O 0.8699 0.36795 0.47868 0.0
O65 O 0.88868 0.33347 0.58168 0.0
O66 O 0.90245 0.27875 0.35363 0.0
O67 O 0.87868 0.2425 0.35195 0.0
O68 O 0.93109 0.2538 0.6194 0.0
O69 O 0.92518 0.3201 0.47624 0.0
O70 O 0.91462 0.15326 0.51604 0.0
O71 O 0.89205 0.19292 0.52409 0.0
H72 H 0.82425 0.34738 0.60101 0.0
H73 H 0.83034 0.14306 0.63651 0.0
H74 H 0.80447 0.14786 0.71676 0.0
H75 H 0.7984 0.35224 0.68277 0.0
H76 H 0.95453 0.18311 0.51177 0.0
H77 H 0.95347 0.38693 0.50409 0.0
H78 H 0.98107 0.37467 0.46755 0.0
H79 H 0.98223 0.1704 0.47182 0.0
Gd80 Gd 0.12754 0.76034 0.51192 0.0
Gd81 Gd 0.16155 0.75772 0.521 0.0
C82 C 0.14436 0.76387 0.76285 0.0
C83 C 0.09922 0.7368 0.5205 0.0
C84 C 0.08332 0.74499 0.56741 0.0
C85 C 0.0733 0.80149 0.54961 0.0
C86 C 0.07729 0.69194 0.61267 0.0
C87 C 0.05136 0.74939 0.60953 0.0
C88 C 0.06151 0.69414 0.63385 0.0
C89 C 0.05751 0.8037 0.57097 0.0
C90 C 0.13686 0.87864 0.5039 0.0
C91 C 0.14497 0.75564 0.27059 0.0
C92 C 0.19001 0.77937 0.50664 0.0
C93 C 0.20472 0.77233 0.44095 0.0
C94 C 0.21435 0.71394 0.43616 0.0
C95 C 0.21022 0.82675 0.39637 0.0
C96 C 0.23488 0.76532 0.34835 0.0
C97 C 0.2251 0.82333 0.35063 0.0
C98 C 0.22924 0.71052 0.39039 0.0
C99 C 0.15187 0.64059 0.53363 0.0
O100 O 0.13229 0.74847 0.70545 0.0
O101 O 0.15627 0.78065 0.70669 0.0
O102 O 0.10381 0.78291 0.46028 0.0
O103 O 0.11034 0.70344 0.57746 0.0
O104 O 0.12511 0.86217 0.44957 0.0
O105 O 0.14258 0.83289 0.56669 0.0
O106 O 0.15678 0.77154 0.32969 0.0
O107 O 0.13306 0.7376 0.32503 0.0
O108 O 0.1857 0.72916 0.55602 0.0
O109 O 0.17844 0.81877 0.46805 0.0
O110 O 0.16356 0.65677 0.58926 0.0
O111 O 0.14647 0.68532 0.46761 0.0
H112 H 0.07751 0.84313 0.51385 0.0
H113 H 0.08467 0.64758 0.62634 0.0
H114 H 0.05717 0.65189 0.66578 0.0
H115 H 0.05001 0.84699 0.55138 0.0
H116 H 0.21059 0.67115 0.47097 0.0
H117 H 0.20323 0.87267 0.40103 0.0
H118 H 0.22914 0.86671 0.32133 0.0
H119 H 0.23645 0.66506 0.3895 0.0
Gd120 Gd 0.90814 0.75937 0.50883 0.0
Gd121 Gd 0.87401 0.76249 0.51639 0.0
C122 C 0.89129 0.75933 0.75906 0.0
C123 C 0.93633 0.78406 0.51639 0.0
C124 C 0.95225 0.77718 0.56067 0.0
C125 C 0.96 0.71837 0.59636 0.0
C126 C 0.96045 0.82958 0.55258 0.0
C127 C 0.98427 0.76357 0.60469 0.0
C128 C 0.97625 0.82294 0.57421 0.0
C129 C 0.97585 0.71176 0.61903 0.0
C130 C 0.89875 0.6412 0.50248 0.0
C131 C 0.89099 0.7635 0.26671 0.0
C132 C 0.84563 0.7398 0.50233 0.0
C133 C 0.83074 0.74831 0.43914 0.0
C134 C 0.82064 0.80539 0.44701 0.0
C135 C 0.82557 0.69582 0.38395 0.0
C136 C 0.80041 0.75639 0.34973 0.0
C137 C 0.81062 0.69979 0.3397 0.0
C138 C 0.80567 0.80934 0.40283 0.0
C139 C 0.88364 0.88053 0.52126 0.0
O140 O 0.9033 0.77362 0.70027 0.0
O141 O 0.87915 0.74309 0.70466 0.0
O142 O 0.93189 0.73704 0.45734 0.0
O143 O 0.92524 0.81667 0.5753 0.0
O144 O 0.91065 0.65697 0.44904 0.0
O145 O 0.89293 0.6876 0.56405 0.0
O146 O 0.87894 0.74789 0.3238 0.0
O147 O 0.90267 0.78193 0.32326 0.0
O148 O 0.84992 0.78859 0.55704 0.0
O149 O 0.85719 0.70225 0.45812 0.0
O150 O 0.87165 0.86574 0.57503 0.0
O151 O 0.88925 0.83352 0.46072 0.0
H152 H 0.95393 0.67719 0.60323 0.0
H153 H 0.95474 0.87528 0.52416 0.0
H154 H 0.98231 0.86379 0.5618 0.0
H155 H 0.98156 0.66574 0.64536 0.0
H156 H 0.82411 0.84656 0.49041 0.0
H157 H 0.83292 0.65075 0.37882 0.0
H158 H 0.80687 0.65769 0.30161 0.0
H159 H 0.79811 0.85367 0.41167 0.0
Gd160 Gd 0.66228 0.76553 0.04492 0.0
Gd161 Gd 0.6277 0.76773 0.05183 0.0
C162 C 0.64533 0.76055 0.29381 0.0
C163 C 0.69049 0.79019 0.05904 0.0
C164 C 0.70548 0.77953 0.12053 0.0
C165 C 0.71513 0.72128 0.11227 0.0
C166 C 0.71114 0.83104 0.17532 0.0
C167 C 0.7361 0.76788 0.20453 0.0
C168 C 0.72623 0.82522 0.21729 0.0
C169 C 0.73023 0.71551 0.15416 0.0
C170 C 0.65291 0.64797 0.0328 0.0
C171 C 0.64487 0.76608 0.80275 0.0
C172 C 0.59941 0.74377 0.04337 0.0
C173 C 0.58304 0.76139 1.01126 0.0
C174 C 0.57442 0.81706 0.05433 0.0
C175 C 0.57532 0.71673 0.95284 0.0
C176 C 0.55056 0.77937 0.99255 0.0
C177 C 0.55927 0.72571 0.94311 0.0
C178 C 0.55836 0.82599 0.04477 0.0
C179 C 0.63713 0.88547 0.05878 0.0
O180 O 0.65726 0.7778 0.23762 0.0
O181 O 0.63372 0.74192 0.23619 0.0
O182 O 0.68625 0.74355 0.99772 0.0
O183 O 0.67894 0.82493 0.1092 0.0
O184 O 0.6655 0.66248 0.98782 0.0
O185 O 0.64687 0.69375 0.09444 0.0
O186 O 0.63311 0.7494 0.86185 0.0
O187 O 0.65669 0.78549 0.85706 0.0
O188 O 0.60501 0.7759 0.12625 0.0
O189 O 0.60957 0.724 0.964 0.0
O190 O 0.62459 0.87178 0.10538 0.0
O191 O 0.64303 0.83882 0.99901 0.0
H192 H 0.71119 0.68062 0.07028 0.0
H193 H 0.70408 0.87674 0.18174 0.0
H194 H 0.73038 0.86647 0.25557 0.0
H195 H 0.73741 0.67023 0.14539 0.0
H196 H 0.57999 0.85245 0.09996 0.0
H197 H 0.58164 0.67309 0.91996 0.0
H198 H 0.55362 0.68894 0.90235 0.0
H199 H 0.552 0.86852 0.0815 0.0
Gd200 Gd 0.37274 0.75405 0.03191 0.0
Gd201 Gd 0.40643 0.75217 0.04162 0.0
C202 C 0.38947 0.76237 0.2824 0.0
C203 C 0.34449 0.7301 0.04949 0.0
C204 C 0.32964 0.74014 0.11301 0.0
C205 C 0.3206 0.79996 0.11689 0.0
C206 C 0.32345 0.68719 0.15714 0.0
C207 C 0.29912 0.75252 0.19974 0.0
C208 C 0.30842 0.69332 0.20041 0.0
C209 C 0.30553 0.80607 0.16013 0.0
C210 C 0.38157 0.87242 1.01805 0.0
C211 C 0.38985 0.7518 0.7904 0.0
C212 C 0.43528 0.76496 1.02581 0.0
C213 C 0.45196 0.77076 1.01994 0.0
C214 C 0.46227 0.73516 0.09535 0.0
C215 C 0.4578 0.81091 0.939 0.0
C216 C 0.4839 0.77997 1.01002 0.0
C217 C 0.47363 0.81515 0.9336 0.0
C218 C 0.47802 0.73972 0.09047 0.0
C219 C 0.39675 0.6352 0.05442 0.0
O220 O 0.37776 0.74361 0.22526 0.0
O221 O 0.4011 0.78102 0.22522 0.0
O222 O 0.34865 0.77749 0.9904 0.0
O223 O 0.35612 0.69431 0.09611 0.0
O224 O 0.36979 0.85473 0.96588 0.0
O225 O 0.38756 0.82824 0.08329 0.0
O226 O 0.40158 0.76774 0.85044 0.0
O227 O 0.37798 0.73282 0.84411 0.0
O228 O 0.4301 0.72066 0.08703 0.0
O229 O 0.42468 0.80289 0.97189 0.0
O230 O 0.40762 0.65322 0.11644 0.0
O231 O 0.39165 0.67905 0.98596 0.0
H232 H 0.32496 0.84179 0.08338 0.0
H233 H 0.33005 0.64038 0.15401 0.0
H234 H 0.30385 0.65111 0.23013 0.0
H235 H 0.29882 0.85264 0.1609 0.0
H236 H 0.45818 0.7036 0.15847 0.0
H237 H 0.45016 0.83877 0.87945 0.0
H238 H 0.47783 0.84646 0.87054 0.0
H239 H 0.48564 0.71105 0.14898 0.0
Gd240 Gd 0.6286 0.2695 1.02917 0.0
Gd241 Gd 0.6624 0.26288 0.03654 0.0
C242 C 0.64562 0.26799 0.27831 0.0
C243 C 0.59962 0.25981 0.04541 0.0
C244 C 0.58284 0.25703 0.05342 0.0
C245 C 0.57242 0.31182 0.03181 0.0
C246 C 0.57704 0.19999 0.07968 0.0
C247 C 0.55072 0.25248 0.05992 0.0
C248 C 0.56114 0.19777 0.08323 0.0
C249 C 0.55657 0.30958 0.03511 0.0
C250 C 0.63907 0.38515 1.01752 0.0
C251 C 0.64539 0.26185 0.78563 0.0
C252 C 0.6908 0.28394 1.01838 0.0
C253 C 0.70542 0.27462 0.95264 0.0
C254 C 0.71398 0.21426 0.93918 0.0
C255 C 0.71184 0.3284 0.91521 0.0
C256 C 0.73556 0.26247 0.86036 0.0
C257 C 0.7267 0.32241 0.86921 0.0
C258 C 0.72888 0.20827 0.89309 0.0
C259 C 0.65252 0.14657 0.05277 0.0
O260 O 0.63366 0.25215 0.22052 0.0
O261 O 0.65734 0.28649 0.22236 0.0
O262 O 0.60501 0.31348 1.02758 0.0
O263 O 0.61011 0.21042 0.05661 0.0
O264 O 0.62786 0.36876 0.9564 0.0
O265 O 0.64415 0.33982 0.08334 0.0
O266 O 0.6577 0.27275 0.84446 0.0
O267 O 0.63278 0.25065 0.83974 0.0
O268 O 0.68651 0.2356 0.07411 0.0
O269 O 0.67927 0.32163 0.97494 0.0
O270 O 0.66428 0.1634 0.10665 0.0
O271 O 0.64697 0.19098 0.98588 0.0
H272 H 0.57648 0.35654 1.01096 0.0
H273 H 0.58477 0.15704 0.09715 0.0
H274 H 0.557 0.15331 0.10493 0.0
H275 H 0.54888 0.35245 1.01616 0.0
H276 H 0.70938 0.17185 0.96729 0.0
H277 H 0.70557 0.37554 0.92577 0.0
H278 H 0.73151 0.36507 0.84498 0.0
H279 H 0.73529 0.16128 0.8849 0.0
Gd280 Gd 0.40578 0.24868 1.02072 0.0
Gd281 Gd 0.37171 0.26018 1.02863 0.0
C282 C 0.38851 0.25375 0.26879 0.0
C283 C 0.43491 0.25404 0.03952 0.0
C284 C 0.45171 0.25507 0.05129 0.0
C285 C 0.46131 0.19959 0.08326 0.0
C286 C 0.45842 0.31013 1.02569 0.0
C287 C 0.48402 0.25331 0.05906 0.0
C288 C 0.47441 0.30931 1.02997 0.0
C289 C 0.47726 0.19875 0.08722 0.0
C290 C 0.39431 0.13611 0.99821 0.0
C291 C 0.3889 0.25719 0.77665 0.0
C292 C 0.34279 0.24599 1.01471 0.0
C293 C 0.32841 0.2517 0.94567 0.0
C294 C 0.31842 0.30918 0.94242 0.0
C295 C 0.32344 0.19692 0.89736 0.0
C296 C 0.29841 0.25567 0.85299 0.0
C297 C 0.30865 0.19894 0.85114 0.0
C298 C 0.30363 0.31119 0.89598 0.0
C299 C 0.38299 0.37291 0.05246 0.0
O300 O 0.4003 0.27087 0.21055 0.0
O301 O 0.37683 0.23486 0.21306 0.0
O302 O 0.4285 0.20386 0.06696 0.0
O303 O 0.42534 0.30269 1.00425 0.0
O304 O 0.40608 0.15103 0.94189 0.0
O305 O 0.38952 0.18033 0.06776 0.0
O306 O 0.37619 0.25204 0.83567 0.0
O307 O 0.40197 0.26235 0.82998 0.0
O308 O 0.34774 0.29774 0.05309 0.0
O309 O 0.35394 0.20144 0.98718 0.0
O310 O 0.37139 0.35715 0.1098 0.0
O311 O 0.38783 0.32931 0.98161 0.0
H312 H 0.45653 0.15637 0.1038 0.0
H313 H 0.45134 0.35358 1.00065 0.0
H314 H 0.47929 0.35212 1.0079 0.0
H315 H 0.48433 0.15528 0.11232 0.0
H316 H 0.32178 0.35214 0.98008 0.0
H317 H 0.33076 0.15173 0.89945 0.0
H318 H 0.30508 0.15567 0.81637 0.0
H319 H 0.29601 0.35563 0.89852 0.0
C320 C 0.26002 0.30622 0.70434 0.0
C321 C 0.25068 0.26159 0.74472 0.0
C322 C 0.27542 0.30381 0.73899 0.0
C323 C 0.28214 0.25653 0.8151 0.0
H324 H 0.25544 0.34298 0.6443 0.0
H325 H 0.28216 0.33894 0.70508 0.0
S326 S 0.26237 0.13152 0.95307 0.0
N327 N 0.24912 0.17072 0.86986 0.0
N328 N 0.27801 0.16606 0.93463 0.0
C329 C 0.2729 0.21201 0.85705 0.0
C330 C 0.25721 0.21454 0.82196 0.0
C331 C 0.75583 0.29024 0.72228 0.0
C332 C 0.75188 0.25731 0.8213 0.0
C333 C 0.77119 0.28807 0.68646 0.0
C334 C 0.78323 0.25296 0.74824 0.0
H335 H 0.74697 0.31762 0.67153 0.0
H336 H 0.77362 0.31351 0.60882 0.0
S337 S 0.77919 0.16244 1.0185 0.0
N338 N 0.76141 0.19118 0.98391 0.0
N339 N 0.7902 0.18704 0.9165 0.0
C340 C 0.77946 0.22033 0.84799 0.0
C341 C 0.76383 0.22251 0.88447 0.0
C342 C 0.27863 0.72842 0.33982 0.0
C343 C 0.28267 0.75754 0.23681 0.0
C344 C 0.26321 0.73091 0.37466 0.0
C345 C 0.25115 0.7625 0.30791 0.0
H346 H 0.28747 0.7039 0.39464 0.0
H347 H 0.26074 0.70854 0.4555 0.0
S348 S 0.25542 0.84203 1.02614 0.0
N349 N 0.27321 0.81617 0.06534 0.0
N350 N 0.24432 0.82079 0.13069 0.0
C351 C 0.25502 0.79122 0.20408 0.0
C352 C 0.27072 0.78875 0.16864 0.0
C353 C 0.75655 0.78697 0.3489 0.0
C354 C 0.75258 0.7637 0.24021 0.0
C355 C 0.77198 0.78475 0.38314 0.0
C356 C 0.78411 0.75931 0.31006 0.0
H357 H 0.74765 0.80651 0.40861 0.0
H358 H 0.77442 0.80236 0.46834 0.0
S359 S 0.77998 0.69732 1.01259 0.0
N360 N 0.76215 0.71773 0.05704 0.0
N361 N 0.79105 0.7136 0.12127 0.0
C362 C 0.78031 0.7367 0.20055 0.0
C363 C 0.7646 0.73889 0.16572 0.0
C364 C 0.15082 0.96447 0.59384 0.0
C365 C 0.14053 0.94583 0.51038 0.0
C366 C 0.15413 0.02797 0.60103 0.0
C367 C 0.14732 0.07524 0.52497 0.0
H368 H 0.15635 0.92982 0.65417 0.0
H369 H 0.16221 0.04 0.66572 0.0
S370 S 0.12019 0.05171 0.28813 0.0
N371 N 0.12384 0.98086 0.34857 0.0
N372 N 0.13031 0.0987 0.36156 0.0
C373 C 0.13719 0.05725 0.44082 0.0
C374 C 0.13373 0.99304 0.43376 0.0
C375 C 0.88065 0.49322 0.5953 0.0
C376 C 0.88775 0.44514 0.52134 0.0
C377 C 0.88418 0.55644 0.58923 0.0
C378 C 0.89493 0.57417 0.50861 0.0
H379 H 0.87218 0.48201 0.65754 0.0
H380 H 0.87841 0.59165 0.64794 0.0
S381 S 0.91589 0.46667 0.29033 0.0
N382 N 0.90533 0.42052 0.36123 0.0
N383 N 0.91223 0.5377 0.3507 0.0
C384 C 0.90197 0.5263 0.43374 0.0
C385 C 0.89831 0.46234 0.43974 0.0
C386 C 0.87844 0.9983 0.5653 0.0
C387 C 0.88791 0.94682 0.51404 0.0
C388 C 0.88227 0.06102 0.56195 0.0
C389 C 0.89585 0.07504 0.50868 0.0
H390 H 0.86798 0.99012 0.60926 0.0
H391 H 0.87478 0.09833 0.60495 0.0
S392 S 0.92452 0.9583 0.35943 0.0
N393 N 0.91132 0.91528 0.405 0.0
N394 N 0.91871 0.03193 0.40198 0.0
C395 C 0.90538 0.02413 0.45669 0.0
C396 C 0.90136 0.96052 0.45835 0.0
C397 C 0.15348 0.52832 0.45615 0.0
C398 C 0.14728 0.57528 0.53562 0.0
C399 C 0.15012 0.46494 0.46357 0.0
C400 C 0.14033 0.44616 0.55039 0.0
H401 H 0.16117 0.54045 0.38877 0.0
H402 H 0.1552 0.43049 0.4007 0.0
S403 S 0.12152 0.55135 0.78117 0.0
N404 N 0.1313 0.59837 0.70521 0.0
N405 N 0.12467 0.48078 0.71836 0.0
C406 C 0.13408 0.49309 0.63011 0.0
C407 C 0.13764 0.55715 0.62302 0.0
C408 C 0.63565 0.56602 0.9851 0.0
C409 C 0.64905 0.58175 0.03816 0.0
C410 C 0.63257 0.50244 0.97876 0.0
C411 C 0.64262 0.45213 1.02742 0.0
H412 H 0.6277 0.60286 0.94509 0.0
H413 H 0.62221 0.4927 0.9351 0.0
S414 S 0.679 0.46909 0.18092 0.0
N415 N 0.67239 0.54235 0.14133 0.0
N416 N 0.66629 0.4237 0.13475 0.0
C417 C 0.65586 0.46776 0.08363 0.0
C418 C 0.65917 0.53228 0.08746 0.0
C419 C 0.37424 0.98807 0.97243 0.0
C420 C 0.38498 0.93961 1.01928 0.0
C421 C 0.37715 0.05178 0.96873 0.0
C422 C 0.39103 0.06947 1.00992 0.0
H423 H 0.36345 0.97677 0.93783 0.0
H424 H 0.36864 0.08708 0.9306 0.0
S425 S 0.42302 0.96191 0.1408 0.0
N426 N 0.40999 0.91475 0.10982 0.0
N427 N 0.41567 0.03391 0.09896 0.0
C428 C 0.40189 0.02183 0.05688 0.0
C429 C 0.39881 0.95711 0.06276 0.0
C430 C 0.38878 0.47164 0.94827 0.0
C431 C 0.38711 0.43877 0.0524 0.0
C432 C 0.39137 0.53604 0.94873 0.0
C433 C 0.39288 0.56896 0.05336 0.0
H434 H 0.3877 0.44794 0.86605 0.0
H435 H 0.39252 0.55978 0.86689 0.0
S436 S 0.38969 0.50402 0.34872 0.0
N437 N 0.38695 0.44436 0.26219 0.0
N438 N 0.39263 0.56356 0.26311 0.0
C439 C 0.39147 0.53618 0.15754 0.0
C440 C 0.38836 0.47159 0.15705 0.0
C441 C 0.638 0.05945 0.97447 0.0
C442 C 0.64859 0.07982 0.0536 0.0
C443 C 0.63451 0.99613 0.97466 0.0
C444 C 0.6415 0.95092 0.05383 0.0
H445 H 0.63237 0.09256 0.91191 0.0
H446 H 0.62623 0.98256 0.91299 0.0
S447 S 0.66932 0.97982 0.28242 0.0
N448 N 0.66566 0.04884 0.21552 0.0
N449 N 0.65888 0.93135 0.21593 0.0
C450 C 0.65189 0.97072 0.13386 0.0
C451 C 0.6555 0.0347 0.13367 0.0
C452 C 0.15614 0.27601 0.10427 0.0
C453 C 0.14355 0.25945 0.16819 0.0
C454 C 0.15641 0.27353 0.98259 0.0
C455 C 0.14412 0.25426 0.91912 0.0
H456 H 0.16594 0.29113 0.14835 0.0
H457 H 0.16635 0.28711 0.93814 0.0
S458 S 0.10838 0.20526 0.04443 0.0
N459 N 0.11847 0.22261 0.15782 0.0
N460 N 0.11892 0.21793 0.93069 0.0
C461 C 0.13146 0.23732 0.98205 0.0
C462 C 0.13119 0.23992 0.10587 0.0
C463 C 0.8784 0.24224 0.10326 0.0
C464 C 0.89054 0.26312 0.16689 0.0
C465 C 0.87808 0.24401 0.98129 0.0
C466 C 0.88993 0.26644 0.91709 0.0
H467 H 0.86903 0.22405 0.14778 0.0
H468 H 0.86856 0.22671 0.93705 0.0
S469 S 0.92396 0.33025 0.04064 0.0
N470 N 0.91448 0.30936 0.15462 0.0
N471 N 0.91386 0.31274 0.92742 0.0
C472 C 0.90203 0.28831 0.97955 0.0
C473 C 0.90234 0.28665 0.10353 0.0
C474 C 0.13286 0.73861 0.07693 0.0
C475 C 0.14514 0.75768 0.14127 0.0
C476 C 0.13262 0.74119 0.95523 0.0
C477 C 0.14462 0.76313 0.89226 0.0
H478 H 0.1233 0.7214 0.1207 0.0
H479 H 0.12294 0.7255 0.91036 0.0
S480 S 0.17946 0.81952 1.01883 0.0
N481 N 0.16962 0.79976 0.13176 0.0
N482 N 0.16918 0.80485 0.90477 0.0
C483 C 0.15697 0.78257 0.95563 0.0
C484 C 0.15722 0.77979 0.07938 0.0
C485 C 0.87835 0.75036 0.95207 0.0
C486 C 0.89156 0.75999 0.88837 0.0
C487 C 0.87823 0.75155 0.07381 0.0
C488 C 0.89131 0.76255 0.13744 0.0
H489 H 0.86792 0.7421 0.90773 0.0
H490 H 0.86774 0.74405 0.11817 0.0
S491 S 0.92912 0.78829 1.01305 0.0
N492 N 0.91825 0.77943 0.89933 0.0
N493 N 0.91805 0.78165 0.12659 0.0
C494 C 0.90465 0.77177 0.07483 0.0
C495 C 0.90477 0.7705 0.95099 0.0
C496 C 0.65779 0.77536 0.48731 0.0
C497 C 0.64502 0.76073 0.42348 0.0
C498 C 0.65763 0.77702 0.60916 0.0
C499 C 0.64468 0.76423 0.67311 0.0
H500 H 0.66805 0.78573 0.44299 0.0
H501 H 0.6678 0.78837 0.65339 0.0
S502 S 0.60802 0.72487 0.54839 0.0
N503 N 0.61888 0.73412 0.43473 0.0
N504 N 0.61861 0.73722 0.66206 0.0
C505 C 0.63181 0.7497 0.61037 0.0
C506 C 0.63197 0.74797 0.48636 0.0
C507 C 0.3781 0.73411 0.5957 0.0
C508 C 0.39004 0.75516 0.66104 0.0
C509 C 0.37791 0.73734 0.47406 0.0
C510 C 0.38963 0.76192 0.41191 0.0
H511 H 0.36878 0.71464 0.63861 0.0
H512 H 0.36851 0.71986 0.42856 0.0
S513 S 0.4234 0.82517 0.54113 0.0
N514 N 0.41382 0.8027 0.65335 0.0
N515 N 0.41346 0.80885 0.42622 0.0
C516 C 0.4016 0.78368 0.47619 0.0
C517 C 0.4018 0.78027 0.60003 0.0
C518 C 0.63257 0.25654 0.47006 0.0
C519 C 0.64585 0.26603 0.40744 0.0
C520 C 0.63255 0.2548 0.59175 0.0
C521 C 0.64583 0.26223 0.65634 0.0
H522 H 0.62203 0.25085 0.42494 0.0
H523 H 0.62197 0.24795 0.63532 0.0
S524 S 0.68391 0.28536 0.5342 0.0
N525 N 0.67285 0.28094 0.41994 0.0
N526 N 0.67282 0.2776 0.64713 0.0
C527 C 0.65926 0.27091 0.59463 0.0
C528 C 0.65927 0.27284 0.47085 0.0
C529 C 0.40163 0.26415 0.46072 0.0
C530 C 0.3883 0.25555 0.39804 0.0
C531 C 0.4017 0.26483 0.5825 0.0
C532 C 0.38843 0.25732 0.64723 0.0
H533 H 0.41217 0.26981 0.41554 0.0
H534 H 0.41232 0.27113 0.62602 0.0
S535 S 0.35024 0.23614 0.52501 0.0
N536 N 0.36126 0.24135 0.4107 0.0
N537 N 0.3614 0.24264 0.63798 0.0
C538 C 0.37494 0.24959 0.58545 0.0
C539 C 0.37488 0.24869 0.46158 0.0
C540 C 0.02626 0.21779 0.52554 0.0
C541 C 0.03388 0.25567 0.4507 0.0
C542 C 1.01017 0.22208 0.52748 0.0
C543 C 1.00099 0.26429 0.45432 0.0
H544 H 0.03277 0.18579 0.58571 0.0
H545 H 1.00487 0.19344 0.58949 0.0
S546 S 1.01539 0.36891 0.23326 0.0
N547 N 0.0311 0.33358 0.29603 0.0
N548 N 1.00088 0.34113 0.29825 0.0
C549 C 1.00851 0.30095 0.37631 0.0
C550 C 0.02491 0.2968 0.37489 0.0
C551 C 1.00886 0.80232 0.67095 0.0
C552 C 1.00143 0.75579 0.61431 0.0
C553 C 0.02497 0.79925 0.67148 0.0
C554 C 0.03435 0.74929 0.61606 0.0
H555 H 1.00216 0.84197 0.71424 0.0
H556 H 0.03011 0.83661 0.7149 0.0
S557 S 0.02076 0.61682 0.45106 0.0
N558 N 1.00486 0.65905 0.49842 0.0
N559 N 0.035 0.65295 0.50076 0.0
C560 C 0.02711 0.702 0.56049 0.0
C561 C 1.01072 0.70527 0.55938 0.0
C562 C 0.52494 0.77393 0.8965 0.0
C563 C 0.53343 0.78408 0.99678 0.0
C564 C 0.50889 0.77457 0.90062 0.0
C565 C 0.50074 0.78428 1.00554 0.0
H566 H 0.53076 0.76511 0.81426 0.0
H567 H 0.50288 0.76562 0.82164 0.0
S568 S 0.51746 0.81391 0.29238 0.0
N569 N 0.53236 0.80469 0.20392 0.0
N570 N 0.50233 0.80622 0.21134 0.0
C571 C 0.50906 0.79532 0.10599 0.0
C572 C 0.52535 0.79519 0.10168 0.0
C573 C 0.50793 0.29919 0.11709 0.0
C574 C 0.50106 0.25165 0.0592 0.0
C575 C 0.52395 0.29863 0.11802 0.0
C576 C 0.53377 0.25061 0.06079 0.0
H577 H 0.50087 0.33685 0.16301 0.0
H578 H 0.52869 0.33599 0.16459 0.0
S579 S 0.52147 0.11801 0.88874 0.0
N580 N 0.50528 0.15692 0.9385 0.0
N581 N 0.53532 0.15608 0.93964 0.0
C582 C 0.52703 0.20312 1.00165 0.0
C583 C 0.51072 0.20362 1.00094 0.0
loop_
_geom_bond_atom_site_label_1
_geom_bond_atom_site_label_2
_geom_bond_distance
_geom_bond_site_symmetry_2
_ccdc_geom_bond_type
Gd0 C3 2.818 . S
Gd0 O20 2.377 . S
Gd0 O22 2.448 . S
Gd0 O23 2.506 . S
Gd0 O24 2.435 . S
Gd0 O25 2.717 . S
Gd0 O27 2.395 . S
Gd0 O31 2.327 . S
Gd1 C12 2.818 . S
Gd1 O21 2.395 . S
Gd1 O25 2.327 . S
Gd1 O26 2.377 . S
Gd1 O28 2.448 . S
Gd1 O29 2.506 . S
Gd1 O30 2.435 . S
Gd1 O31 2.717 . S
C2 O20 1.240 . S
C2 O21 1.240 . S
C3 Gd0 2.818 . S
C3 C4 1.510 . S
C3 O22 1.249 . S
C3 O23 1.252 . S
C4 C3 1.510 . S
C4 C5 1.404 . S
C4 C6 1.352 . S
C5 C4 1.404 . S
C5 C9 1.389 . S
C5 H32 0.930 . S
C6 C4 1.352 . S
C6 C8 1.374 . S
C6 H33 0.931 . S
C7 C8 1.359 . S
C7 C9 1.364 . S
C8 C6 1.374 . S
C8 C7 1.359 . S
C8 H34 0.931 . S
C9 C5 1.389 . S
C9 C7 1.364 . S
C9 H35 0.931 . S
C10 O24 1.256 . S
C10 O25 1.257 . S
C11 O26 1.240 . S
C11 O27 1.240 . S
C12 Gd1 2.818 . S
C12 C13 1.510 . S
C12 O28 1.249 . S
C12 O29 1.252 . S
C13 C12 1.510 . S
C13 C14 1.404 . S
C13 C15 1.352 . S
C14 C13 1.404 . S
C14 C18 1.389 . S
C14 H36 0.930 . S
C15 C13 1.352 . S
C15 C17 1.374 . S
C15 H37 0.931 . S
C16 C17 1.359 . S
C16 C18 1.364 . S
C17 C15 1.374 . S
C17 C16 1.359 . S
C17 H38 0.931 . S
C18 C14 1.389 . S
C18 C16 1.364 . S
C18 H39 0.931 . S
C19 O30 1.256 . S
C19 O31 1.257 . S
O20 Gd0 2.377 . S
O20 C2 1.240 . S
O21 Gd1 2.395 . S
O21 C2 1.240 . S
O22 Gd0 2.448 . S
O22 C3 1.249 . S
O23 Gd0 2.506 . S
O23 C3 1.252 . S
O24 Gd0 2.435 . S
O24 C10 1.256 . S
O25 Gd0 2.717 . S
O25 Gd1 2.327 . S
O25 C10 1.257 . S
O26 Gd1 2.377 . S
O26 C11 1.240 . S
O27 Gd0 2.395 . S
O27 C11 1.240 . S
O28 Gd1 2.448 . S
O28 C12 1.249 . S
O29 Gd1 2.506 . S
O29 C12 1.252 . S
O30 Gd1 2.435 . S
O30 C19 1.256 . S
O31 Gd0 2.327 . S
O31 Gd1 2.717 . S
O31 C19 1.257 . S
H32 C5 0.930 . S
H33 C6 0.931 . S
H34 C8 0.931 . S
H35 C9 0.931 . S
H36 C14 0.930 . S
H37 C15 0.931 . S
H38 C17 0.931 . S
H39 C18 0.931 . S
Gd40 C43 2.818 . S
Gd40 O60 2.377 . S
Gd40 O62 2.448 . S
Gd40 O63 2.506 . S
Gd40 O64 2.435 . S
Gd40 O65 2.717 . S
Gd40 O67 2.395 . S
Gd40 O71 2.327 . S
Gd41 C52 2.818 . S
Gd41 O61 2.395 . S
Gd41 O65 2.327 . S
Gd41 O66 2.377 . S
Gd41 O68 2.448 . S
Gd41 O69 2.506 . S
Gd41 O70 2.435 . S
Gd41 O71 2.717 . S
C42 O60 1.240 . S
C42 O61 1.240 . S
C43 Gd40 2.818 . S
C43 C44 1.510 . S
C43 O62 1.249 . S
C43 O63 1.252 . S
C44 C43 1.510 . S
C44 C45 1.404 . S
C44 C46 1.352 . S
C45 C44 1.404 . S
C45 C49 1.389 . S
C45 H72 0.930 . S
C46 C44 1.352 . S
C46 C48 1.374 . S
C46 H73 0.931 . S
C47 C48 1.359 . S
C47 C49 1.364 . S
C48 C46 1.374 . S
C48 C47 1.359 . S
C48 H74 0.931 . S
C49 C45 1.389 . S
C49 C47 1.364 . S
C49 H75 0.931 . S
C50 O64 1.256 . S
C50 O65 1.257 . S
C51 O66 1.240 . S
C51 O67 1.240 . S
C52 Gd41 2.818 . S
C52 C53 1.510 . S
C52 O68 1.249 . S
C52 O69 1.252 . S
C53 C52 1.510 . S
C53 C54 1.404 . S
C53 C55 1.352 . S
C54 C53 1.404 . S
C54 C58 1.389 . S
C54 H76 0.930 . S
C55 C53 1.352 . S
C55 C57 1.374 . S
C55 H77 0.931 . S
C56 C57 1.359 . S
C56 C58 1.364 . S
C57 C55 1.374 . S
C57 C56 1.359 . S
C57 H78 0.931 . S
C58 C54 1.389 . S
C58 C56 1.364 . S
C58 H79 0.931 . S
C59 O70 1.256 . S
C59 O71 1.257 . S
O60 Gd40 2.377 . S
O60 C42 1.240 . S
O61 Gd41 2.395 . S
O61 C42 1.240 . S
O62 Gd40 2.448 . S
O62 C43 1.249 . S
O63 Gd40 2.506 . S
O63 C43 1.252 . S
O64 Gd40 2.435 . S
O64 C50 1.256 . S
O65 Gd40 2.717 . S
O65 Gd41 2.327 . S
O65 C50 1.257 . S
O66 Gd41 2.377 . S
O66 C51 1.240 . S
O67 Gd40 2.395 . S
O67 C51 1.240 . S
O68 Gd41 2.448 . S
O68 C52 1.249 . S
O69 Gd41 2.506 . S
O69 C52 1.252 . S
O70 Gd41 2.435 . S
O70 C59 1.256 . S
O71 Gd40 2.327 . S
O71 Gd41 2.717 . S
O71 C59 1.257 . S
H72 C45 0.930 . S
H73 C46 0.931 . S
H74 C48 0.931 . S
H75 C49 0.931 . S
H76 C54 0.930 . S
H77 C55 0.931 . S
H78 C57 0.931 . S
H79 C58 0.931 . S
Gd80 C83 2.818 . S
Gd80 O100 2.377 . S
Gd80 O102 2.448 . S
Gd80 O103 2.506 . S
Gd80 O104 2.435 . S
Gd80 O105 2.717 . S
Gd80 O107 2.395 . S
Gd80 O111 2.327 . S
Gd81 C92 2.818 . S
Gd81 O101 2.395 . S
Gd81 O105 2.327 . S
Gd81 O106 2.377 . S
Gd81 O108 2.448 . S
Gd81 O109 2.506 . S
Gd81 O110 2.435 . S
Gd81 O111 2.717 . S
C82 O100 1.240 . S
C82 O101 1.240 . S
C83 Gd80 2.818 . S
C83 C84 1.510 . S
C83 O102 1.249 . S
C83 O103 1.252 . S
C84 C83 1.510 . S
C84 C85 1.404 . S
C84 C86 1.352 . S
C85 C84 1.404 . S
C85 C89 1.389 . S
C85 H112 0.930 . S
C86 C84 1.352 . S
C86 C88 1.374 . S
C86 H113 0.931 . S
C87 C88 1.359 . S
C87 C89 1.364 . S
C88 C86 1.374 . S
C88 C87 1.359 . S
C88 H114 0.931 . S
C89 C85 1.389 . S
C89 C87 1.364 . S
C89 H115 0.931 . S
C90 O104 1.256 . S
C90 O105 1.257 . S
C91 O106 1.240 . S
C91 O107 1.240 . S
C92 Gd81 2.818 . S
C92 C93 1.510 . S
C92 O108 1.249 . S
C92 O109 1.252 . S
C93 C92 1.510 . S
C93 C94 1.404 . S
C93 C95 1.352 . S
C94 C93 1.404 . S
C94 C98 1.389 . S
C94 H116 0.930 . S
C95 C93 1.352 . S
C95 C97 1.374 . S
C95 H117 0.931 . S
C96 C97 1.359 . S
C96 C98 1.364 . S
C97 C95 1.374 . S
C97 C96 1.359 . S
C97 H118 0.931 . S
C98 C94 1.389 . S
C98 C96 1.364 . S
C98 H119 0.931 . S
C99 O110 1.256 . S
C99 O111 1.257 . S
O100 Gd80 2.377 . S
O100 C82 1.240 . S
O101 Gd81 2.395 . S
O101 C82 1.240 . S
O102 Gd80 2.448 . S
O102 C83 1.249 . S
O103 Gd80 2.506 . S
O103 C83 1.252 . S
O104 Gd80 2.435 . S
O104 C90 1.256 . S
O105 Gd80 2.717 . S
O105 Gd81 2.327 . S
O105 C90 1.257 . S
O106 Gd81 2.377 . S
O106 C91 1.240 . S
O107 Gd80 2.395 . S
O107 C91 1.240 . S
O108 Gd81 2.448 . S
O108 C92 1.249 . S
O109 Gd81 2.506 . S
O109 C92 1.252 . S
O110 Gd81 2.435 . S
O110 C99 1.256 . S
O111 Gd80 2.327 . S
O111 Gd81 2.717 . S
O111 C99 1.257 . S
H112 C85 0.930 . S
H113 C86 0.931 . S
H114 C88 0.931 . S
H115 C89 0.931 . S
H116 C94 0.930 . S
H117 C95 0.931 . S
H118 C97 0.931 . S
H119 C98 0.931 . S
Gd120 C123 2.818 . S
Gd120 O140 2.377 . S
Gd120 O142 2.448 . S
Gd120 O143 2.506 . S
Gd120 O144 2.435 . S
Gd120 O145 2.717 . S
Gd120 O147 2.395 . S
Gd120 O151 2.327 . S
Gd121 C132 2.818 . S
Gd121 O141 2.395 . S
Gd121 O145 2.327 . S
Gd121 O146 2.377 . S
Gd121 O148 2.448 . S
Gd121 O149 2.506 . S
Gd121 O150 2.435 . S
Gd121 O151 2.717 . S
C122 O140 1.240 . S
C122 O141 1.240 . S
C123 Gd120 2.818 . S
C123 C124 1.510 . S
C123 O142 1.249 . S
C123 O143 1.252 . S
C124 C123 1.510 . S
C124 C125 1.404 . S
C124 C126 1.352 . S
C125 C124 1.404 . S
C125 C129 1.389 . S
C125 H152 0.930 . S
C126 C124 1.352 . S
C126 C128 1.374 . S
C126 H153 0.931 . S
C127 C128 1.359 . S
C127 C129 1.364 . S
C128 C126 1.374 . S
C128 C127 1.359 . S
C128 H154 0.931 . S
C129 C125 1.389 . S
C129 C127 1.364 . S
C129 H155 0.931 . S
C130 O144 1.256 . S
C130 O145 1.257 . S
C131 O146 1.240 . S
C131 O147 1.240 . S
C132 Gd121 2.818 . S
C132 C133 1.510 . S
C132 O148 1.249 . S
C132 O149 1.252 . S
C133 C132 1.510 . S
C133 C134 1.404 . S
C133 C135 1.352 . S
C134 C133 1.404 . S
C134 C138 1.389 . S
C134 H156 0.930 . S
C135 C133 1.352 . S
C135 C137 1.374 . S
C135 H157 0.931 . S
C136 C137 1.359 . S
C136 C138 1.364 . S
C137 C135 1.374 . S
C137 C136 1.359 . S
C137 H158 0.931 . S
C138 C134 1.389 . S
C138 C136 1.364 . S
C138 H159 0.931 . S
C139 O150 1.256 . S
C139 O151 1.257 . S
O140 Gd120 2.377 . S
O140 C122 1.240 . S
O141 Gd121 2.395 . S
O141 C122 1.240 . S
O142 Gd120 2.448 . S
O142 C123 1.249 . S
O143 Gd120 2.506 . S
O143 C123 1.252 . S
O144 Gd120 2.435 . S
O144 C130 1.256 . S
O145 Gd120 2.717 . S
O145 Gd121 2.327 . S
O145 C130 1.257 . S
O146 Gd121 2.377 . S
O146 C131 1.240 . S
O147 Gd120 2.395 . S
O147 C131 1.240 . S
O148 Gd121 2.448 . S
O148 C132 1.249 . S
O149 Gd121 2.506 . S
O149 C132 1.252 . S
O150 Gd121 2.435 . S
O150 C139 1.256 . S
O151 Gd120 2.327 . S
O151 Gd121 2.717 . S
O151 C139 1.257 . S
H152 C125 0.930 . S
H153 C126 0.931 . S
H154 C128 0.931 . S
H155 C129 0.931 . S
H156 C134 0.930 . S
H157 C135 0.931 . S
H158 C137 0.931 . S
H159 C138 0.931 . S
Gd160 C163 2.818 1_556 S
Gd160 O180 2.377 1_556 S
Gd160 O182 2.448 1_556 S
Gd160 O183 2.506 1_556 S
Gd160 O184 2.435 . S
Gd160 O185 2.717 . S
Gd160 O187 2.395 . S
Gd160 O191 2.327 1_556 S
Gd161 C172 2.818 1_554 S
Gd161 O181 2.395 . S
Gd161 O185 2.327 1_554 S
Gd161 O186 2.377 1_554 S
Gd161 O188 2.448 1_554 S
Gd161 O189 2.506 1_554 S
Gd161 O190 2.435 . S
Gd161 O191 2.717 . S
C162 O180 1.240 . S
C162 O181 1.240 . S
C163 Gd160 2.818 1_554 S
C163 C164 1.510 . S
C163 O182 1.249 . S
C163 O183 1.252 . S
C164 C163 1.510 . S
C164 C165 1.404 . S
C164 C166 1.352 . S
C165 C164 1.404 . S
C165 C169 1.389 . S
C165 H192 0.930 . S
C166 C164 1.352 . S
C166 C168 1.374 . S
C166 H193 0.931 . S
C167 C168 1.359 . S
C167 C169 1.364 . S
C168 C166 1.374 . S
C168 C167 1.359 . S
C168 H194 0.931 . S
C169 C165 1.389 . S
C169 C167 1.364 . S
C169 H195 0.931 . S
C170 O184 1.256 . S
C170 O185 1.257 . S
C171 O186 1.240 . S
C171 O187 1.240 . S
C172 Gd161 2.818 1_556 S
C172 C173 1.510 . S
C172 O188 1.249 . S
C172 O189 1.252 . S
C173 C172 1.510 . S
C173 C174 1.404 . S
C173 C175 1.352 . S
C174 C173 1.404 . S
C174 C178 1.389 . S
C174 H196 0.930 . S
C175 C173 1.352 . S
C175 C177 1.374 . S
C175 H197 0.931 . S
C176 C177 1.359 . S
C176 C178 1.364 . S
C177 C175 1.374 . S
C177 C176 1.359 . S
C177 H198 0.931 . S
C178 C174 1.389 . S
C178 C176 1.364 . S
C178 H199 0.931 . S
C179 O190 1.256 . S
C179 O191 1.257 . S
O180 Gd160 2.377 1_554 S
O180 C162 1.240 . S
O181 Gd161 2.395 . S
O181 C162 1.240 . S
O182 Gd160 2.448 1_554 S
O182 C163 1.249 . S
O183 Gd160 2.506 1_554 S
O183 C163 1.252 . S
O184 Gd160 2.435 . S
O184 C170 1.256 . S
O185 Gd160 2.717 . S
O185 Gd161 2.327 1_556 S
O185 C170 1.257 . S
O186 Gd161 2.377 1_556 S
O186 C171 1.240 . S
O187 Gd160 2.395 . S
O187 C171 1.240 . S
O188 Gd161 2.448 1_556 S
O188 C172 1.249 . S
O189 Gd161 2.506 1_556 S
O189 C172 1.252 . S
O190 Gd161 2.435 . S
O190 C179 1.256 . S
O191 Gd160 2.327 1_554 S
O191 Gd161 2.717 . S
O191 C179 1.257 . S
H192 C165 0.930 . S
H193 C166 0.931 . S
H194 C168 0.931 . S
H195 C169 0.931 . S
H196 C174 0.930 . S
H197 C175 0.931 . S
H198 C177 0.931 . S
H199 C178 0.931 . S
Gd200 C203 2.818 1_556 S
Gd200 O220 2.377 1_556 S
Gd200 O222 2.448 1_556 S
Gd200 O223 2.506 1_556 S
Gd200 O224 2.435 . S
Gd200 O225 2.717 . S
Gd200 O227 2.395 . S
Gd200 O231 2.327 1_556 S
Gd201 C212 2.818 1_554 S
Gd201 O221 2.395 . S
Gd201 O225 2.327 1_554 S
Gd201 O226 2.377 1_554 S
Gd201 O228 2.448 1_554 S
Gd201 O229 2.506 1_554 S
Gd201 O230 2.435 . S
Gd201 O231 2.717 . S
C202 O220 1.240 . S
C202 O221 1.240 . S
C203 Gd200 2.818 1_554 S
C203 C204 1.510 . S
C203 O222 1.249 . S
C203 O223 1.252 . S
C204 C203 1.510 . S
C204 C205 1.404 . S
C204 C206 1.352 . S
C205 C204 1.404 . S
C205 C209 1.389 . S
C205 H232 0.930 . S
C206 C204 1.352 . S
C206 C208 1.374 . S
C206 H233 0.931 . S
C207 C208 1.359 . S
C207 C209 1.364 . S
C208 C206 1.374 . S
C208 C207 1.359 . S
C208 H234 0.931 . S
C209 C205 1.389 . S
C209 C207 1.364 . S
C209 H235 0.931 . S
C210 O224 1.256 . S
C210 O225 1.257 . S
C211 O226 1.240 . S
C211 O227 1.240 . S
C212 Gd201 2.818 1_556 S
C212 C213 1.510 . S
C212 O228 1.249 . S
C212 O229 1.252 . S
C213 C212 1.510 . S
C213 C214 1.404 . S
C213 C215 1.352 . S
C214 C213 1.404 . S
C214 C218 1.389 . S
C214 H236 0.930 . S
C215 C213 1.352 . S
C215 C217 1.374 . S
C215 H237 0.931 . S
C216 C217 1.359 . S
C216 C218 1.364 . S
C217 C215 1.374 . S
C217 C216 1.359 . S
C217 H238 0.931 . S
C218 C214 1.389 . S
C218 C216 1.364 . S
C218 H239 0.931 . S
C219 O230 1.256 . S
C219 O231 1.257 . S
O220 Gd200 2.377 1_554 S
O220 C202 1.240 . S
O221 Gd201 2.395 . S
O221 C202 1.240 . S
O222 Gd200 2.448 1_554 S
O222 C203 1.249 . S
O223 Gd200 2.506 1_554 S
O223 C203 1.252 . S
O224 Gd200 2.435 . S
O224 C210 1.256 . S
O225 Gd200 2.717 . S
O225 Gd201 2.327 1_556 S
O225 C210 1.257 . S
O226 Gd201 2.377 1_556 S
O226 C211 1.240 . S
O227 Gd200 2.395 . S
O227 C211 1.240 . S
O228 Gd201 2.448 1_556 S
O228 C212 1.249 . S
O229 Gd201 2.506 1_556 S
O229 C212 1.252 . S
O230 Gd201 2.435 . S
O230 C219 1.256 . S
O231 Gd200 2.327 1_554 S
O231 Gd201 2.717 . S
O231 C219 1.257 . S
H232 C205 0.930 . S
H233 C206 0.931 . S
H234 C208 0.931 . S
H235 C209 0.931 . S
H236 C214 0.930 . S
H237 C215 0.931 . S
H238 C217 0.931 . S
H239 C218 0.931 . S
Gd240 C243 2.818 1_556 S
Gd240 O260 2.377 1_556 S
Gd240 O262 2.448 1_556 S
Gd240 O263 2.506 1_556 S
Gd240 O264 2.435 . S
Gd240 O265 2.717 . S
Gd240 O267 2.395 . S
Gd240 O271 2.327 1_556 S
Gd241 C252 2.818 1_554 S
Gd241 O261 2.395 . S
Gd241 O265 2.327 1_554 S
Gd241 O266 2.377 1_554 S
Gd241 O268 2.448 1_554 S
Gd241 O269 2.506 1_554 S
Gd241 O270 2.435 . S
Gd241 O271 2.717 . S
C242 O260 1.240 . S
C242 O261 1.240 . S
C243 Gd240 2.818 1_554 S
C243 C244 1.510 . S
C243 O262 1.249 . S
C243 O263 1.252 . S
C244 C243 1.510 . S
C244 C245 1.404 . S
C244 C246 1.352 . S
C245 C244 1.404 . S
C245 C249 1.389 . S
C245 H272 0.930 . S
C246 C244 1.352 . S
C246 C248 1.374 . S
C246 H273 0.931 . S
C247 C248 1.359 . S
C247 C249 1.364 . S
C248 C246 1.374 . S
C248 C247 1.359 . S
C248 H274 0.931 . S
C249 C245 1.389 . S
C249 C247 1.364 . S
C249 H275 0.931 . S
C250 O264 1.256 . S
C250 O265 1.257 . S
C251 O266 1.240 . S
C251 O267 1.240 . S
C252 Gd241 2.818 1_556 S
C252 C253 1.510 . S
C252 O268 1.249 . S
C252 O269 1.252 . S
C253 C252 1.510 . S
C253 C254 1.404 . S
C253 C255 1.352 . S
C254 C253 1.404 . S
C254 C258 1.389 . S
C254 H276 0.930 . S
C255 C253 1.352 . S
C255 C257 1.374 . S
C255 H277 0.931 . S
C256 C257 1.359 . S
C256 C258 1.364 . S
C257 C255 1.374 . S
C257 C256 1.359 . S
C257 H278 0.931 . S
C258 C254 1.389 . S
C258 C256 1.364 . S
C258 H279 0.931 . S
C259 O270 1.256 . S
C259 O271 1.257 . S
O260 Gd240 2.377 1_554 S
O260 C242 1.240 . S
O261 Gd241 2.395 . S
O261 C242 1.240 . S
O262 Gd240 2.448 1_554 S
O262 C243 1.249 . S
O263 Gd240 2.506 1_554 S
O263 C243 1.252 . S
O264 Gd240 2.435 . S
O264 C250 1.256 . S
O265 Gd240 2.717 . S
O265 Gd241 2.327 1_556 S
O265 C250 1.257 . S
O266 Gd241 2.377 1_556 S
O266 C251 1.240 . S
O267 Gd240 2.395 . S
O267 C251 1.240 . S
O268 Gd241 2.448 1_556 S
O268 C252 1.249 . S
O269 Gd241 2.506 1_556 S
O269 C252 1.252 . S
O270 Gd241 2.435 . S
O270 C259 1.256 . S
O271 Gd240 2.327 1_554 S
O271 Gd241 2.717 . S
O271 C259 1.257 . S
H272 C245 0.930 . S
H273 C246 0.931 . S
H274 C248 0.931 . S
H275 C249 0.931 . S
H276 C254 0.930 . S
H277 C255 0.931 . S
H278 C257 0.931 . S
H279 C258 0.931 . S
Gd280 C283 2.818 1_556 S
Gd280 O300 2.377 1_556 S
Gd280 O302 2.448 1_556 S
Gd280 O303 2.506 1_556 S
Gd280 O304 2.435 . S
Gd280 O305 2.717 . S
Gd280 O307 2.395 . S
Gd280 O311 2.327 1_556 S
Gd281 C292 2.818 1_554 S
Gd281 O301 2.395 . S
Gd281 O305 2.327 1_554 S
Gd281 O306 2.377 1_554 S
Gd281 O308 2.448 1_554 S
Gd281 O309 2.506 1_554 S
Gd281 O310 2.435 . S
Gd281 O311 2.717 . S
C282 O300 1.240 . S
C282 O301 1.240 . S
C283 Gd280 2.818 1_554 S
C283 C284 1.510 . S
C283 O302 1.249 . S
C283 O303 1.252 . S
C284 C283 1.510 . S
C284 C285 1.404 . S
C284 C286 1.352 . S
C285 C284 1.404 . S
C285 C289 1.389 . S
C285 H312 0.930 . S
C286 C284 1.352 . S
C286 C288 1.374 . S
C286 H313 0.931 . S
C287 C288 1.359 . S
C287 C289 1.364 . S
C288 C286 1.374 . S
C288 C287 1.359 . S
C288 H314 0.931 . S
C289 C285 1.389 . S
C289 C287 1.364 . S
C289 H315 0.931 . S
C290 O304 1.256 . S
C290 O305 1.257 . S
C291 O306 1.240 . S
C291 O307 1.240 . S
C292 Gd281 2.818 1_556 S
C292 C293 1.510 . S
C292 O308 1.249 . S
C292 O309 1.252 . S
C293 C292 1.510 . S
C293 C294 1.404 . S
C293 C295 1.352 . S
C294 C293 1.404 . S
C294 C298 1.389 . S
C294 H316 0.930 . S
C295 C293 1.352 . S
C295 C297 1.374 . S
C295 H317 0.931 . S
C296 C297 1.359 . S
C296 C298 1.364 . S
C297 C295 1.374 . S
C297 C296 1.359 . S
C297 H318 0.931 . S
C298 C294 1.389 . S
C298 C296 1.364 . S
C298 H319 0.931 . S
C299 O310 1.256 . S
C299 O311 1.257 . S
O300 Gd280 2.377 1_554 S
O300 C282 1.240 . S
O301 Gd281 2.395 . S
O301 C282 1.240 . S
O302 Gd280 2.448 1_554 S
O302 C283 1.249 . S
O303 Gd280 2.506 1_554 S
O303 C283 1.252 . S
O304 Gd280 2.435 . S
O304 C290 1.256 . S
O305 Gd280 2.717 . S
O305 Gd281 2.327 1_556 S
O305 C290 1.257 . S
O306 Gd281 2.377 1_556 S
O306 C291 1.240 . S
O307 Gd280 2.395 . S
O307 C291 1.240 . S
O308 Gd281 2.448 1_556 S
O308 C292 1.249 . S
O309 Gd281 2.506 1_556 S
O309 C292 1.252 . S
O310 Gd281 2.435 . S
O310 C299 1.256 . S
O311 Gd280 2.327 1_554 S
O311 Gd281 2.717 . S
O311 C299 1.257 . S
H312 C285 0.930 . S
H313 C286 0.931 . S
H314 C288 0.931 . S
H315 C289 0.931 . S
H316 C294 0.930 . S
H317 C295 0.931 . S
H318 C297 0.931 . S
H319 C298 0.931 . S
C320 C321 1.369 . S
C320 C322 1.419 . S
C320 H324 0.930 . S
C321 C320 1.369 . S
C321 C330 1.429 . S
C322 C320 1.419 . S
C322 C323 1.363 . S
C322 H325 0.929 . S
C323 C322 1.363 . S
C323 C329 1.428 . S
H324 C320 0.930 . S
H325 C322 0.929 . S
S326 N327 1.613 . S
S326 N328 1.610 . S
N327 S326 1.613 . S
N327 C330 1.350 . S
N328 S326 1.610 . S
N328 C329 1.351 . S
C329 C323 1.428 . S
C329 N328 1.351 . S
C329 C330 1.434 . S
C330 C321 1.429 . S
C330 N327 1.350 . S
C330 C329 1.434 . S
C331 C332 1.369 . S
C331 C333 1.419 . S
C331 H335 0.930 . S
C332 C331 1.369 . S
C332 C341 1.429 . S
C333 C331 1.419 . S
C333 C334 1.363 . S
C333 H336 0.929 . S
C334 C333 1.363 . S
C334 C340 1.428 . S
H335 C331 0.930 . S
H336 C333 0.929 . S
S337 N338 1.613 . S
S337 N339 1.610 . S
N338 S337 1.613 . S
N338 C341 1.350 . S
N339 S337 1.610 . S
N339 C340 1.351 . S
C340 C334 1.428 . S
C340 N339 1.351 . S
C340 C341 1.434 . S
C341 C332 1.429 . S
C341 N338 1.350 . S
C341 C340 1.434 . S
C342 C343 1.369 . S
C342 C344 1.419 . S
C342 H346 0.930 . S
C343 C342 1.369 . S
C343 C352 1.429 . S
C344 C342 1.419 . S
C344 C345 1.363 . S
C344 H347 0.929 . S
C345 C344 1.363 . S
C345 C351 1.428 . S
H346 C342 0.930 . S
H347 C344 0.929 . S
S348 N349 1.613 . S
S348 N350 1.610 . S
N349 S348 1.613 . S
N349 C352 1.350 . S
N350 S348 1.610 . S
N350 C351 1.351 . S
C351 C345 1.428 . S
C351 N350 1.351 . S
C351 C352 1.434 . S
C352 C343 1.429 . S
C352 N349 1.350 . S
C352 C351 1.434 . S
C353 C354 1.369 . S
C353 C355 1.419 . S
C353 H357 0.930 . S
C354 C353 1.369 . S
C354 C363 1.429 . S
C355 C353 1.419 . S
C355 C356 1.363 . S
C355 H358 0.929 . S
C356 C355 1.363 . S
C356 C362 1.428 . S
H357 C353 0.930 . S
H358 C355 0.929 . S
S359 N360 1.613 . S
S359 N361 1.610 . S
N360 S359 1.613 . S
N360 C363 1.350 . S
N361 S359 1.610 . S
N361 C362 1.351 . S
C362 C356 1.428 . S
C362 N361 1.351 . S
C362 C363 1.434 . S
C363 C354 1.429 . S
C363 N360 1.350 . S
C363 C362 1.434 . S
C364 C365 1.369 . S
C364 C366 1.419 1_565 S
C364 H368 0.930 . S
C365 C364 1.369 . S
C365 C374 1.429 . S
C366 C364 1.419 1_545 S
C366 C367 1.363 . S
C366 H369 0.929 . S
C367 C366 1.363 . S
C367 C373 1.428 . S
H368 C364 0.930 . S
H369 C366 0.929 . S
S370 N371 1.613 . S
S370 N372 1.610 1_565 S
N371 S370 1.613 . S
N371 C374 1.350 . S
N372 S370 1.610 1_545 S
N372 C373 1.351 . S
C373 C367 1.428 . S
C373 N372 1.351 . S
C373 C374 1.434 1_545 S
C374 C365 1.429 . S
C374 N371 1.350 . S
C374 C373 1.434 1_565 S
C375 C376 1.369 . S
C375 C377 1.419 . S
C375 H379 0.930 . S
C376 C375 1.369 . S
C376 C385 1.429 . S
C377 C375 1.419 . S
C377 C378 1.363 . S
C377 H380 0.929 . S
C378 C377 1.363 . S
C378 C384 1.428 . S
H379 C375 0.930 . S
H380 C377 0.929 . S
S381 N382 1.613 . S
S381 N383 1.610 . S
N382 S381 1.613 . S
N382 C385 1.350 . S
N383 S381 1.610 . S
N383 C384 1.351 . S
C384 C378 1.428 . S
C384 N383 1.351 . S
C384 C385 1.434 . S
C385 C376 1.429 . S
C385 N382 1.350 . S
C385 C384 1.434 . S
C386 C387 1.369 . S
C386 C388 1.419 1_565 S
C386 H390 0.930 . S
C387 C386 1.369 . S
C387 C396 1.429 . S
C388 C386 1.419 1_545 S
C388 C389 1.363 . S
C388 H391 0.929 . S
C389 C388 1.363 . S
C389 C395 1.428 . S
H390 C386 0.930 . S
H391 C388 0.929 . S
S392 N393 1.613 . S
S392 N394 1.610 1_565 S
N393 S392 1.613 . S
N393 C396 1.350 . S
N394 S392 1.610 1_545 S
N394 C395 1.351 . S
C395 C389 1.428 . S
C395 N394 1.351 . S
C395 C396 1.434 1_545 S
C396 C387 1.429 . S
C396 N393 1.350 . S
C396 C395 1.434 1_565 S
C397 C398 1.369 . S
C397 C399 1.419 . S
C397 H401 0.930 . S
C398 C397 1.369 . S
C398 C407 1.429 . S
C399 C397 1.419 . S
C399 C400 1.363 . S
C399 H402 0.929 . S
C400 C399 1.363 . S
C400 C406 1.428 . S
H401 C397 0.930 . S
H402 C399 0.929 . S
S403 N404 1.613 . S
S403 N405 1.610 . S
N404 S403 1.613 . S
N404 C407 1.350 . S
N405 S403 1.610 . S
N405 C406 1.351 . S
C406 C400 1.428 . S
C406 N405 1.351 . S
C406 C407 1.434 . S
C407 C398 1.429 . S
C407 N404 1.350 . S
C407 C406 1.434 . S
C408 C409 1.369 . S
C408 C410 1.419 . S
C408 H412 0.930 . S
C409 C408 1.369 . S
C409 C418 1.429 1_556 S
C410 C408 1.419 . S
C410 C411 1.363 . S
C410 H413 0.929 . S
C411 C410 1.363 . S
C411 C417 1.428 1_556 S
H412 C408 0.930 . S
H413 C410 0.929 . S
S414 N415 1.613 . S
S414 N416 1.610 . S
N415 S414 1.613 . S
N415 C418 1.350 . S
N416 S414 1.610 . S
N416 C417 1.351 . S
C417 C411 1.428 1_554 S
C417 N416 1.351 . S
C417 C418 1.434 . S
C418 C409 1.429 1_554 S
C418 N415 1.350 . S
C418 C417 1.434 . S
C419 C420 1.369 1_554 S
C419 C421 1.419 1_565 S
C419 H423 0.931 . S
C420 C419 1.369 1_556 S
C420 C429 1.429 . S
C421 C419 1.419 1_545 S
C421 C422 1.363 1_554 S
C421 H424 0.929 . S
C422 C421 1.363 1_556 S
C422 C428 1.428 . S
H423 C419 0.931 . S
H424 C421 0.929 . S
S425 N426 1.613 . S
S425 N427 1.610 1_565 S
N426 S425 1.613 . S
N426 C429 1.350 . S
N427 S425 1.610 1_545 S
N427 C428 1.351 . S
C428 C422 1.428 . S
C428 N427 1.351 . S
C428 C429 1.434 1_545 S
C429 C420 1.429 . S
C429 N426 1.350 . S
C429 C428 1.434 1_565 S
C430 C431 1.369 1_556 S
C430 C432 1.419 . S
C430 H434 0.930 . S
C431 C430 1.369 1_554 S
C431 C440 1.429 . S
C432 C430 1.419 . S
C432 C433 1.363 1_556 S
C432 H435 0.929 . S
C433 C432 1.363 1_554 S
C433 C439 1.428 . S
H434 C430 0.930 . S
H435 C432 0.929 . S
S436 N437 1.613 . S
S436 N438 1.610 . S
N437 S436 1.613 . S
N437 C440 1.350 . S
N438 S436 1.610 . S
N438 C439 1.351 . S
C439 C433 1.428 . S
C439 N438 1.351 . S
C439 C440 1.434 . S
C440 C431 1.429 . S
C440 N437 1.350 . S
C440 C439 1.434 . S
C441 C442 1.369 1_556 S
C441 C443 1.419 1_545 S
C441 H445 0.930 . S
C442 C441 1.369 1_554 S
C442 C451 1.429 . S
C443 C441 1.419 1_565 S
C443 C444 1.363 1_556 S
C443 H446 0.929 . S
C444 C443 1.363 1_554 S
C444 C450 1.428 . S
H445 C441 0.930 . S
H446 C443 0.929 . S
S447 N448 1.613 1_565 S
S447 N449 1.610 . S
N448 S447 1.613 1_545 S
N448 C451 1.350 . S
N449 S447 1.610 . S
N449 C450 1.351 . S
C450 C444 1.428 . S
C450 N449 1.351 . S
C450 C451 1.434 1_565 S
C451 C442 1.429 . S
C451 N448 1.350 . S
C451 C450 1.434 1_545 S
C452 C453 1.369 1_556 S
C452 C454 1.419 . S
C452 H456 0.930 1_556 S
C453 C452 1.369 1_554 S
C453 C462 1.429 1_554 S
C454 C452 1.419 . S
C454 C455 1.363 . S
C454 H457 0.929 . S
C455 C454 1.363 . S
C455 C461 1.428 . S
H456 C452 0.930 1_554 S
H457 C454 0.929 . S
S458 N459 1.613 . S
S458 N460 1.610 . S
N459 S458 1.613 . S
N459 C462 1.350 . S
N460 S458 1.610 . S
N460 C461 1.351 . S
C461 C455 1.428 . S
C461 N460 1.351 . S
C461 C462 1.434 . S
C462 C453 1.429 1_556 S
C462 N459 1.350 . S
C462 C461 1.434 . S
C463 C464 1.369 1_556 S
C463 C465 1.419 . S
C463 H467 0.930 1_556 S
C464 C463 1.369 1_554 S
C464 C473 1.429 1_554 S
C465 C463 1.419 . S
C465 C466 1.363 . S
C465 H468 0.929 . S
C466 C465 1.363 . S
C466 C472 1.428 . S
H467 C463 0.930 1_554 S
H468 C465 0.929 . S
S469 N470 1.613 1_556 S
S469 N471 1.610 . S
N470 S469 1.613 1_554 S
N470 C473 1.350 1_554 S
N471 S469 1.610 . S
N471 C472 1.351 . S
C472 C466 1.428 . S
C472 N471 1.351 . S
C472 C473 1.434 . S
C473 C464 1.429 1_556 S
C473 N470 1.350 1_556 S
C473 C472 1.434 . S
C474 C475 1.369 . S
C474 C476 1.419 . S
C474 H478 0.930 . S
C475 C474 1.369 . S
C475 C484 1.429 . S
C476 C474 1.419 . S
C476 C477 1.363 1_554 S
C476 H479 0.929 . S
C477 C476 1.363 1_556 S
C477 C483 1.428 1_556 S
H478 C474 0.930 . S
H479 C476 0.929 . S
S480 N481 1.613 . S
S480 N482 1.610 1_554 S
N481 S480 1.613 . S
N481 C484 1.350 . S
N482 S480 1.610 1_556 S
N482 C483 1.351 1_556 S
C483 C477 1.428 1_554 S
C483 N482 1.351 1_554 S
C483 C484 1.434 . S
C484 C475 1.429 . S
C484 N481 1.350 . S
C484 C483 1.434 . S
C485 C486 1.369 1_554 S
C485 C487 1.419 . S
C485 H489 0.930 1_554 S
C486 C485 1.369 1_556 S
C486 C495 1.429 1_556 S
C487 C485 1.419 . S
C487 C488 1.363 . S
C487 H490 0.929 . S
C488 C487 1.363 . S
C488 C494 1.428 . S
H489 C485 0.930 1_556 S
H490 C487 0.929 . S
S491 N492 1.613 . S
S491 N493 1.610 . S
N492 S491 1.613 . S
N492 C495 1.350 . S
N493 S491 1.610 . S
N493 C494 1.351 . S
C494 C488 1.428 . S
C494 N493 1.351 . S
C494 C495 1.434 . S
C495 C486 1.429 1_554 S
C495 N492 1.350 . S
C495 C494 1.434 . S
C496 C497 1.369 . S
C496 C498 1.419 . S
C496 H500 0.930 . S
C497 C496 1.369 . S
C497 C506 1.429 . S
C498 C496 1.419 . S
C498 C499 1.363 . S
C498 H501 0.929 . S
C499 C498 1.363 . S
C499 C505 1.428 . S
H500 C496 0.930 . S
H501 C498 0.929 . S
S502 N503 1.613 . S
S502 N504 1.610 . S
N503 S502 1.613 . S
N503 C506 1.350 . S
N504 S502 1.610 . S
N504 C505 1.351 . S
C505 C499 1.428 . S
C505 N504 1.351 . S
C505 C506 1.434 . S
C506 C497 1.429 . S
C506 N503 1.350 . S
C506 C505 1.434 . S
C507 C508 1.369 . S
C507 C509 1.419 . S
C507 H511 0.930 . S
C508 C507 1.369 . S
C508 C517 1.429 . S
C509 C507 1.419 . S
C509 C510 1.363 . S
C509 H512 0.929 . S
C510 C509 1.363 . S
C510 C516 1.428 . S
H511 C507 0.930 . S
H512 C509 0.929 . S
S513 N514 1.613 . S
S513 N515 1.610 . S
N514 S513 1.613 . S
N514 C517 1.350 . S
N515 S513 1.610 . S
N515 C516 1.351 . S
C516 C510 1.428 . S
C516 N515 1.351 . S
C516 C517 1.434 . S
C517 C508 1.429 . S
C517 N514 1.350 . S
C517 C516 1.434 . S
C518 C519 1.369 . S
C518 C520 1.419 . S
C518 H522 0.930 . S
C519 C518 1.369 . S
C519 C528 1.429 . S
C520 C518 1.419 . S
C520 C521 1.363 . S
C520 H523 0.929 . S
C521 C520 1.363 . S
C521 C527 1.428 . S
H522 C518 0.930 . S
H523 C520 0.929 . S
S524 N525 1.613 . S
S524 N526 1.610 . S
N525 S524 1.613 . S
N525 C528 1.350 . S
N526 S524 1.610 . S
N526 C527 1.351 . S
C527 C521 1.428 . S
C527 N526 1.351 . S
C527 C528 1.434 . S
C528 C519 1.429 . S
C528 N525 1.350 . S
C528 C527 1.434 . S
C529 C530 1.369 . S
C529 C531 1.419 . S
C529 H533 0.930 . S
C530 C529 1.369 . S
C530 C539 1.429 . S
C531 C529 1.419 . S
C531 C532 1.363 . S
C531 H534 0.929 . S
C532 C531 1.363 . S
C532 C538 1.428 . S
H533 C529 0.930 . S
H534 C531 0.929 . S
S535 N536 1.613 . S
S535 N537 1.610 . S
N536 S535 1.613 . S
N536 C539 1.350 . S
N537 S535 1.610 . S
N537 C538 1.351 . S
C538 C532 1.428 . S
C538 N537 1.351 . S
C538 C539 1.434 . S
C539 C530 1.429 . S
C539 N536 1.350 . S
C539 C538 1.434 . S
C540 C541 1.369 . S
C540 C542 1.419 1_455 S
C540 H544 0.930 . S
C541 C540 1.369 . S
C541 C550 1.429 . S
C542 C540 1.419 1_655 S
C542 C543 1.363 . S
C542 H545 0.929 . S
C543 C542 1.363 . S
C543 C549 1.428 . S
H544 C540 0.930 . S
H545 C542 0.929 . S
S546 N547 1.613 1_655 S
S546 N548 1.610 . S
N547 S546 1.613 1_455 S
N547 C550 1.350 . S
N548 S546 1.610 . S
N548 C549 1.351 . S
C549 C543 1.428 . S
C549 N548 1.351 . S
C549 C550 1.434 1_655 S
C550 C541 1.429 . S
C550 N547 1.350 . S
C550 C549 1.434 1_455 S
C551 C552 1.369 . S
C551 C553 1.419 1_655 S
C551 H555 0.930 . S
C552 C551 1.369 . S
C552 C561 1.429 . S
C553 C551 1.419 1_455 S
C553 C554 1.363 . S
C553 H556 0.929 . S
C554 C553 1.363 . S
C554 C560 1.428 . S
H555 C551 0.930 . S
H556 C553 0.929 . S
S557 N558 1.613 1_455 S
S557 N559 1.610 . S
N558 S557 1.613 1_655 S
N558 C561 1.350 . S
N559 S557 1.610 . S
N559 C560 1.351 . S
C560 C554 1.428 . S
C560 N559 1.351 . S
C560 C561 1.434 1_455 S
C561 C552 1.429 . S
C561 N558 1.350 . S
C561 C560 1.434 1_655 S
C562 C563 1.369 . S
C562 C564 1.419 . S
C562 H566 0.930 . S
C563 C562 1.369 . S
C563 C572 1.429 . S
C564 C562 1.419 . S
C564 C565 1.363 . S
C564 H567 0.929 . S
C565 C564 1.363 . S
C565 C571 1.428 . S
H566 C562 0.930 . S
H567 C564 0.929 . S
S568 N569 1.613 . S
S568 N570 1.610 . S
N569 S568 1.613 . S
N569 C572 1.350 . S
N570 S568 1.610 . S
N570 C571 1.351 . S
C571 C565 1.428 . S
C571 N570 1.351 . S
C571 C572 1.434 . S
C572 C563 1.429 . S
C572 N569 1.350 . S
C572 C571 1.434 . S
C573 C574 1.369 . S
C573 C575 1.419 . S
C573 H577 0.930 . S
C574 C573 1.369 . S
C574 C583 1.429 . S
C575 C573 1.419 . S
C575 C576 1.363 . S
C575 H578 0.929 . S
C576 C575 1.363 . S
C576 C582 1.428 . S
H577 C573 0.930 . S
H578 C575 0.929 . S
S579 N580 1.613 . S
S579 N581 1.610 . S
N580 S579 1.613 . S
N580 C583 1.350 . S
N581 S579 1.610 . S
N581 C582 1.351 . S
C582 C576 1.428 . S
C582 N581 1.351 . S
C582 C583 1.434 . S
C583 C574 1.429 . S
C583 N580 1.350 . S
C583 C582 1.434 . S
C321 C7 1.705 . S
C323 C296 1.699 . S
C332 C256 1.699 . S
C334 C47 1.704 . S
C343 C207 1.700 . S
C345 C96 1.703 . S
C354 C167 1.699 . S
C356 C136 1.703 . S
C365 C90 1.621 . S
C367 C10 1.639 . S
C376 C50 1.639 . S
C378 C130 1.623 . S
C387 C139 1.638 . S
C389 C59 1.623 . S
C398 C99 1.639 . S
C400 C19 1.621 . S
C409 C170 1.441 . S
C411 C250 1.448 . S
C420 C210 1.449 . S
C422 C290 1.442 . S
C431 C299 1.444 . S
C433 C219 1.447 . S
C442 C259 1.442 . S
C444 C179 1.448 . S
C453 C11 2.089 . S
C455 C2 2.083 . S
C464 C51 2.085 . S
C466 C42 2.086 . S
C475 C91 2.088 . S
C477 C82 2.084 . S
C486 C122 2.087 . S
C488 C131 2.085 . S
C497 C162 2.083 . S
C499 C171 2.087 . S
C508 C211 2.087 . S
C510 C202 2.083 . S
C519 C242 2.083 . S
C521 C251 2.087 . S
C530 C282 2.082 . S
C532 C291 2.087 . S
C541 C16 2.246 . S
C543 C56 2.246 . S
C552 C127 2.246 . S
C554 C87 2.245 . S
C563 C176 2.246 . S
C565 C216 2.246 . S
C574 C287 2.247 . S
C576 C247 2.247 . S
