# Generated by pormake.
# Topology vmi, (6)-cn, num edge types: 1
# Building blocks:
#     Node 0, Type 0, BuildingBlock: IZENUY_clean_sbu_0, # of connection points: 6
#     Node 1, Type 0, BuildingBlock: IZENUY_clean_sbu_0, # of connection points: 6
#     Node 2, Type 0, BuildingBlock: IZENUY_clean_sbu_0, # of connection points: 6
#     Node 3, Type 0, BuildingBlock: IZENUY_clean_sbu_0, # of connection points: 6
#     Node 4, Type 0, BuildingBlock: IZENUY_clean_sbu_0, # of connection points: 6
#     Node 5, Type 0, BuildingBlock: IZENUY_clean_sbu_0, # of connection points: 6
#     Node 6, Type 0, BuildingBlock: IZENUY_clean_sbu_0, # of connection points: 6
#     Node 7, Type 0, BuildingBlock: IZENUY_clean_sbu_0, # of connection points: 6
#     Edge 8, Type (0, 0), BuildingBlock: EYOCIG_clean_linker_4, # of connection points: 2
#     Edge 9, Type (0, 0), BuildingBlock: EYOCIG_clean_linker_4, # of connection points: 2
#     Edge 10, Type (0, 0), BuildingBlock: EYOCIG_clean_linker_4, # of connection points: 2
#     Edge 11, Type (0, 0), BuildingBlock: EYOCIG_clean_linker_4, # of connection points: 2
#     Edge 12, Type (0, 0), BuildingBlock: EYOCIG_clean_linker_4, # of connection points: 2
#     Edge 13, Type (0, 0), BuildingBlock: EYOCIG_clean_linker_4, # of connection points: 2
#     Edge 14, Type (0, 0), BuildingBlock: EYOCIG_clean_linker_4, # of connection points: 2
#     Edge 15, Type (0, 0), BuildingBlock: EYOCIG_clean_linker_4, # of connection points: 2
#     Edge 16, Type (0, 0), BuildingBlock: EYOCIG_clean_linker_4, # of connection points: 2
#     Edge 17, Type (0, 0), BuildingBlock: EYOCIG_clean_linker_4, # of connection points: 2
#     Edge 18, Type (0, 0), BuildingBlock: EYOCIG_clean_linker_4, # of connection points: 2
#     Edge 19, Type (0, 0), BuildingBlock: EYOCIG_clean_linker_4, # of connection points: 2
#     Edge 20, Type (0, 0), BuildingBlock: EYOCIG_clean_linker_4, # of connection points: 2
#     Edge 21, Type (0, 0), BuildingBlock: EYOCIG_clean_linker_4, # of connection points: 2
#     Edge 22, Type (0, 0), BuildingBlock: EYOCIG_clean_linker_4, # of connection points: 2
#     Edge 23, Type (0, 0), BuildingBlock: EYOCIG_clean_linker_4, # of connection points: 2
#     Edge 24, Type (0, 0), BuildingBlock: EYOCIG_clean_linker_4, # of connection points: 2
#     Edge 25, Type (0, 0), BuildingBlock: EYOCIG_clean_linker_4, # of connection points: 2
#     Edge 26, Type (0, 0), BuildingBlock: EYOCIG_clean_linker_4, # of connection points: 2
#     Edge 27, Type (0, 0), BuildingBlock: EYOCIG_clean_linker_4, # of connection points: 2
#     Edge 28, Type (0, 0), BuildingBlock: EYOCIG_clean_linker_4, # of connection points: 2
#     Edge 29, Type (0, 0), BuildingBlock: EYOCIG_clean_linker_4, # of connection points: 2
#     Edge 30, Type (0, 0), BuildingBlock: EYOCIG_clean_linker_4, # of connection points: 2
#     Edge 31, Type (0, 0), BuildingBlock: EYOCIG_clean_linker_4, # of connection points: 2
# Relax obj value: 0.332
# Max RMSD: 0.290
# Mean RMSD: 0.290
data_MOF--net-vmi--node1-IZENUY_clean_sbu_0--edge1-EYOCIG_clean_linker_4
_symmetry_space_group_name_H-M    P1
_symmetry_Int_Tables_number       1
_symmetry_cell_setting            triclinic
loop_
_symmetry_equiv_pos_as_xyz
'x, y, z'
_cell_length_a     21.598181
_cell_length_b     35.671491
_cell_length_c     23.641757
_cell_angle_alpha  90.018483
_cell_angle_beta   109.17328
_cell_angle_gamma 90.034102
loop_
_atom_site_label
_atom_site_type_symbol
_atom_site_fract_x
_atom_site_fract_y
_atom_site_fract_z
_atom_type_partial_charge
Fe0 Fe 0.18294 0.0491 0.2506 0.0
Fe1 Fe 0.13874 0.12087 0.17729 0.0
O2 O 0.20247 0.09413 0.22853 0.0
Fe3 Fe 0.28408 0.11153 0.25677 0.0
O4 O 0.31945 0.0698 0.23555 0.0
O5 O 0.2637 0.02764 0.26533 0.0
O6 O 0.16011 0.03214 0.17368 0.0
C7 C 0.11547 0.04786 0.13177 0.0
C8 C 0.25549 0.08116 0.35744 0.0
O9 O 0.09433 0.07997 0.13815 0.0
C10 C 0.21986 0.17841 0.2478 0.0
O11 O 0.09802 0.06064 0.24192 0.0
O12 O 0.09063 0.12163 0.22837 0.0
O13 O 0.29608 0.09448 0.33381 0.0
O14 O 0.2039 0.06428 0.32725 0.0
C15 C 0.24017 0.12873 0.13167 0.0
O16 O 0.17255 0.16725 0.20382 0.0
O17 O 0.25971 0.15565 0.28091 0.0
C18 C 0.0698 0.09134 0.24366 0.0
O19 O 0.18091 0.12098 0.12306 0.0
O20 O 0.28249 0.13104 0.18375 0.0
C21 C 0.31158 0.03661 0.24921 0.0
Fe22 Fe 0.39694 0.12086 0.82647 0.0
Fe23 Fe 0.25154 0.11131 0.74718 0.0
O24 O 0.33318 0.09403 0.77532 0.0
Fe25 Fe 0.35269 0.049 0.75323 0.0
O26 O 0.37557 0.03211 0.83015 0.0
O27 O 0.44136 0.08002 0.86565 0.0
O28 O 0.35489 0.12102 0.88078 0.0
C29 C 0.29563 0.12869 0.87225 0.0
C30 C 0.46582 0.0913 0.76007 0.0
O31 O 0.25322 0.13088 0.8202 0.0
C32 C 0.28004 0.08097 0.64645 0.0
O33 O 0.36308 0.16719 0.79985 0.0
O34 O 0.27577 0.15544 0.72293 0.0
O35 O 0.4376 0.06059 0.76187 0.0
O36 O 0.44498 0.12159 0.77532 0.0
C37 C 0.22414 0.03638 0.75478 0.0
O38 O 0.23945 0.0942 0.67014 0.0
O39 O 0.33167 0.06416 0.67659 0.0
C40 C 0.31567 0.17826 0.75593 0.0
O41 O 0.21631 0.06955 0.76853 0.0
O42 O 0.27194 0.02747 0.73852 0.0
C43 C 0.42023 0.04788 0.87204 0.0
Fe44 Fe 0.85279 0.98733 0.75342 0.0
Fe45 Fe 0.75139 0.925 0.74697 0.0
O46 O 0.83308 0.94227 0.77525 0.0
Fe47 Fe 0.89671 0.91538 0.82631 0.0
O48 O 0.94136 0.95615 0.86564 0.0
O49 O 0.87577 1.00411 0.83045 0.0
O50 O 0.77216 1.0089 0.73886 0.0
C51 C 0.72422 0.99994 0.7549 0.0
C52 C 0.96569 0.94497 0.76 0.0
O53 O 0.71621 0.96674 0.76838 0.0
C54 C 0.81528 0.85804 0.75558 0.0
O55 O 0.8317 0.97232 0.67666 0.0
O56 O 0.73945 0.94216 0.66998 0.0
O57 O 0.94475 0.91467 0.77515 0.0
O58 O 0.93764 0.97569 0.76197 0.0
C59 C 0.7953 0.90759 0.87202 0.0
O60 O 0.77551 0.88088 0.72261 0.0
O61 O 0.86268 0.86908 0.79957 0.0
C62 C 0.78006 0.95552 0.64639 0.0
O63 O 0.75293 0.90541 0.81994 0.0
O64 O 0.85462 0.91521 0.88061 0.0
C65 C 0.92035 0.98826 0.87225 0.0
Fe66 Fe 0.78397 0.92492 0.25659 0.0
Fe67 Fe 0.6385 0.91522 0.17751 0.0
O68 O 0.70228 0.94215 0.22845 0.0
Fe69 Fe 0.68275 0.98725 0.25029 0.0
O70 O 0.76342 1.00881 0.26483 0.0
O71 O 0.81914 0.96665 0.23511 0.0
O72 O 0.78225 0.90529 0.18358 0.0
C73 C 0.73975 0.90736 0.13156 0.0
C74 C 0.75549 0.95549 0.35725 0.0
O75 O 0.68045 0.91491 0.1231 0.0
C76 C 0.56972 0.94499 0.24384 0.0
O77 O 0.7599 0.8808 0.28101 0.0
O78 O 0.67241 0.86893 0.20433 0.0
O79 O 0.70387 0.97228 0.32705 0.0
O80 O 0.79604 0.94213 0.33361 0.0
C81 C 0.61512 0.98807 0.13148 0.0
O82 O 0.59054 0.91464 0.22875 0.0
O83 O 0.59788 0.97568 0.2418 0.0
C84 C 0.71994 0.85793 0.2482 0.0
O85 O 0.594 0.95598 0.13813 0.0
O86 O 0.65977 1.00395 0.17325 0.0
C87 C 0.81127 0.99986 0.24868 0.0
Fe88 Fe 0.63857 0.62077 0.67793 0.0
Fe89 Fe 0.78412 0.61139 0.75681 0.0
O90 O 0.70247 0.59401 0.72893 0.0
Fe91 Fe 0.68308 0.54898 0.75112 0.0
O92 O 0.65982 0.53204 0.67417 0.0
O93 O 0.59397 0.57989 0.63892 0.0
O94 O 0.68032 0.62088 0.62338 0.0
C95 C 0.73955 0.62859 0.63171 0.0
C96 C 0.57014 0.59124 0.74475 0.0
O97 O 0.78211 0.63089 0.68368 0.0
C98 C 0.75615 0.58102 0.85779 0.0
O99 O 0.67251 0.66714 0.70437 0.0
O100 O 0.75999 0.65552 0.78113 0.0
O101 O 0.59828 0.56054 0.74285 0.0
O102 O 0.59087 0.62153 0.72936 0.0
C103 C 0.81146 0.53646 0.74908 0.0
O104 O 0.79654 0.59434 0.83393 0.0
O105 O 0.70447 0.56415 0.8278 0.0
C106 C 0.72 0.67828 0.7482 0.0
O107 O 0.81926 0.56965 0.73536 0.0
O108 O 0.76376 0.5275 0.76547 0.0
C109 C 0.61502 0.54777 0.63242 0.0
Fe110 Fe 0.89706 0.62093 0.32693 0.0
Fe111 Fe 0.75183 0.61128 0.24732 0.0
O112 O 0.83348 0.59403 0.27568 0.0
Fe113 Fe 0.8532 0.54901 0.25373 0.0
O114 O 0.8761 0.53216 0.33068 0.0
O115 O 0.94167 0.58015 0.36615 0.0
O116 O 0.85481 0.62095 0.3811 0.0
C117 C 0.79549 0.62857 0.37241 0.0
C118 C 0.96616 0.5915 0.26062 0.0
O119 O 0.75325 0.63082 0.32029 0.0
C120 C 0.78066 0.58088 0.14678 0.0
O121 O 0.86307 0.66724 0.30035 0.0
O122 O 0.77611 0.65543 0.22316 0.0
O123 O 0.93807 0.56074 0.2624 0.0
O124 O 0.94523 0.62176 0.27589 0.0
C125 C 0.72453 0.53631 0.25501 0.0
O126 O 0.73999 0.59417 0.17032 0.0
O127 O 0.83223 0.56407 0.17704 0.0
C128 C 0.81579 0.67828 0.25631 0.0
O129 O 0.71652 0.56951 0.26853 0.0
O130 O 0.77252 0.52738 0.23904 0.0
C131 C 0.92071 0.54798 0.37255 0.0
Fe132 Fe 0.35282 0.48743 0.25378 0.0
Fe133 Fe 0.25137 0.42515 0.24736 0.0
O134 O 0.33311 0.44237 0.27558 0.0
Fe135 Fe 0.39676 0.41544 0.32656 0.0
O136 O 0.4413 0.45622 0.366 0.0
O137 O 0.37569 0.50418 0.33082 0.0
O138 O 0.27217 0.509 0.23913 0.0
C139 C 0.22432 0.50009 0.25532 0.0
C140 C 0.46578 0.44515 0.26038 0.0
O141 O 0.21634 0.46691 0.2689 0.0
C142 C 0.31523 0.35817 0.2557 0.0
O143 O 0.33179 0.4724 0.17704 0.0
O144 O 0.23943 0.44236 0.1704 0.0
O145 O 0.44481 0.41483 0.2754 0.0
O146 O 0.43771 0.47586 0.26242 0.0
C147 C 0.29539 0.40757 0.37234 0.0
O148 O 0.27534 0.38103 0.22289 0.0
O149 O 0.36274 0.36917 0.29963 0.0
C150 C 0.2801 0.45563 0.1468 0.0
O151 O 0.25293 0.40551 0.32029 0.0
O152 O 0.3547 0.41516 0.38088 0.0
C153 C 0.42019 0.4883 0.37265 0.0
Fe154 Fe 0.28407 0.4248 0.75704 0.0
Fe155 Fe 0.13873 0.41529 0.67756 0.0
O156 O 0.20246 0.44211 0.72877 0.0
Fe157 Fe 0.18294 0.48716 0.75076 0.0
O158 O 0.26372 0.50866 0.76562 0.0
O159 O 0.31945 0.46654 0.73581 0.0
O160 O 0.28254 0.40524 0.68404 0.0
C161 C 0.2402 0.40743 0.63195 0.0
C162 C 0.25537 0.45524 0.85766 0.0
O163 O 0.18092 0.41508 0.62335 0.0
C164 C 0.06971 0.44494 0.74375 0.0
O165 O 0.25973 0.38067 0.78121 0.0
O166 O 0.17248 0.36895 0.70422 0.0
O167 O 0.20379 0.47206 0.82742 0.0
O168 O 0.29599 0.44192 0.83407 0.0
C169 C 0.1157 0.48823 0.63188 0.0
O170 O 0.09055 0.41462 0.72859 0.0
O171 O 0.09798 0.47563 0.74197 0.0
C172 C 0.21985 0.35787 0.74817 0.0
O173 O 0.09443 0.45614 0.63831 0.0
O174 O 0.16027 0.50402 0.67382 0.0
C175 C 0.31162 0.49972 0.74953 0.0
C176 C 0.45508 0.96225 0.25084 0.0
C177 C 0.50476 0.94812 0.24762 0.0
C178 C 0.40234 0.98598 0.25104 0.0
C179 C 0.36052 1.00874 0.25043 0.0
C180 C 0.08045 0.96206 0.75308 0.0
C181 C 0.03068 0.94802 0.75628 0.0
C182 C 0.13331 0.98573 0.75291 0.0
C183 C 0.17518 1.00849 0.75352 0.0
C184 C 0.6335 0.05055 0.75319 0.0
C185 C 0.67534 0.02782 0.75373 0.0
C186 C 0.58065 0.07419 0.75338 0.0
C187 C 0.53087 0.08821 0.75651 0.0
C188 C 0.90207 0.05049 0.25044 0.0
C189 C 0.86022 0.02773 0.24987 0.0
C190 C 0.95493 0.07417 0.25029 0.0
C191 C 1.00473 0.08822 0.24718 0.0
C192 C 0.95491 0.46215 0.75042 0.0
C193 C 1.00465 0.44806 0.7473 0.0
C194 C 0.90214 0.48585 0.75063 0.0
C195 C 0.86036 0.5086 0.75016 0.0
C196 C 0.63361 0.48573 0.2532 0.0
C197 C 0.67557 0.50841 0.25376 0.0
C198 C 0.58061 0.46218 0.25343 0.0
C199 C 0.53078 0.44822 0.25664 0.0
C200 C 0.08096 0.57448 0.25383 0.0
C201 C 0.0312 0.5885 0.257 0.0
C202 C 0.13373 0.55078 0.25363 0.0
C203 C 0.17549 0.528 0.25416 0.0
C204 C 0.4554 0.57405 0.75163 0.0
C205 C 0.50515 0.58812 0.74844 0.0
C206 C 0.40255 0.55035 0.75169 0.0
C207 C 0.36065 0.52759 0.75093 0.0
C208 C 0.04203 0.02053 0.03018 0.0
C209 C 0.08042 0.02841 0.07828 0.0
C210 C 0.99393 1.01535 0.97399 0.0
C211 C 0.95551 1.00756 0.92586 0.0
C212 C 0.54167 1.0152 0.02975 0.0
C213 C 0.58 1.00734 0.07787 0.0
C214 C 0.49364 0.02052 0.97358 0.0
C215 C 0.4553 0.02847 0.92551 0.0
C216 C 0.54136 0.52049 0.53086 0.0
C217 C 0.57982 0.52837 0.57893 0.0
C218 C 0.49336 0.5153 0.47463 0.0
C219 C 0.45513 0.50753 0.4264 0.0
C220 C 0.04254 0.51545 0.53016 0.0
C221 C 0.0808 0.50759 0.57831 0.0
C222 C 0.99446 0.52069 0.474 0.0
C223 C 0.95598 0.52858 0.42597 0.0
C224 C 0.27019 0.13803 0.97285 0.0
C225 C 0.27688 0.1344 0.92447 0.0
C226 C 0.26576 0.13805 0.03115 0.0
C227 C 0.25902 0.13444 0.07951 0.0
C228 C 0.76968 0.89826 0.97257 0.0
C229 C 0.77647 0.90189 0.92422 0.0
C230 C 0.76516 0.8982 0.03087 0.0
C231 C 0.75846 0.90176 0.07927 0.0
C232 C 0.76953 0.63778 0.47279 0.0
C233 C 0.77649 0.63421 0.42451 0.0
C234 C 0.76487 0.63779 0.53101 0.0
C235 C 0.75812 0.63421 0.57937 0.0
C236 C 0.26569 0.39816 0.53134 0.0
C237 C 0.25903 0.40175 0.57975 0.0
C238 C 0.27001 0.3982 0.47298 0.0
C239 C 0.27664 0.40185 0.42457 0.0
C240 C 0.26868 0.08614 0.47226 0.0
C241 C 0.26697 0.0852 0.42066 0.0
C242 C 0.2668 0.08608 0.53164 0.0
C243 C 0.26854 0.08507 0.58325 0.0
C244 C 0.76689 0.95063 0.53153 0.0
C245 C 0.76861 0.95154 0.58315 0.0
C246 C 0.76874 0.95062 0.47213 0.0
C247 C 0.76699 0.95152 0.4205 0.0
C248 C 0.76972 0.58601 0.97268 0.0
C249 C 0.76792 0.58509 0.92105 0.0
C250 C 0.76778 0.58595 0.03204 0.0
C251 C 0.76937 0.58495 0.08361 0.0
C252 C 0.26863 0.45047 0.97253 0.0
C253 C 0.26686 0.45133 0.9209 0.0
C254 C 0.26684 0.45057 0.03195 0.0
C255 C 0.26863 0.45158 0.08358 0.0
C256 C 0.25611 0.24964 0.25166 0.0
C257 C 0.23926 0.21719 0.24963 0.0
C258 C 0.27882 0.28694 0.25135 0.0
C259 C 0.29572 0.3194 0.25358 0.0
C260 C 0.27921 0.24944 0.75191 0.0
C261 C 0.29621 0.21702 0.75406 0.0
C262 C 0.2563 0.28669 0.75217 0.0
C263 C 0.23931 0.31911 0.75003 0.0
C264 C 0.75617 0.74953 0.75198 0.0
C265 C 0.73936 0.71707 0.74999 0.0
C266 C 0.77883 0.78683 0.75153 0.0
C267 C 0.79571 0.81928 0.75359 0.0
C268 C 0.77919 0.74945 0.25229 0.0
C269 C 0.79619 0.71703 0.2544 0.0
C270 C 0.75633 0.78672 0.25251 0.0
C271 C 0.73938 0.81916 0.25024 0.0
loop_
_geom_bond_atom_site_label_1
_geom_bond_atom_site_label_2
_geom_bond_distance
_geom_bond_site_symmetry_2
_ccdc_geom_bond_type
Fe0 O2 1.918 . S
Fe0 O5 1.997 . S
Fe0 O6 2.002 . S
Fe0 O11 1.976 . S
Fe0 O14 1.996 . S
Fe1 O2 1.918 . S
Fe1 O9 1.997 . S
Fe1 O12 1.996 . S
Fe1 O16 1.976 . S
Fe1 O19 2.002 . S
O2 Fe0 1.918 . S
O2 Fe1 1.918 . S
O2 Fe3 1.918 . S
Fe3 O2 1.918 . S
Fe3 O4 2.002 . S
Fe3 O13 1.976 . S
Fe3 O17 1.996 . S
Fe3 O20 1.997 . S
O4 Fe3 2.002 . S
O4 C21 1.295 . S
O5 Fe0 1.997 . S
O5 C21 1.235 . S
O6 Fe0 2.002 . S
O6 C7 1.295 . S
C7 O6 1.295 . S
C7 O9 1.235 . S
C8 O13 1.287 . S
C8 O14 1.255 . S
O9 Fe1 1.997 . S
O9 C7 1.235 . S
C10 O16 1.287 . S
C10 O17 1.255 . S
O11 Fe0 1.976 . S
O11 C18 1.287 . S
O12 Fe1 1.996 . S
O12 C18 1.255 . S
O13 Fe3 1.976 . S
O13 C8 1.287 . S
O14 Fe0 1.996 . S
O14 C8 1.255 . S
C15 O19 1.295 . S
C15 O20 1.235 . S
O16 Fe1 1.976 . S
O16 C10 1.287 . S
O17 Fe3 1.996 . S
O17 C10 1.255 . S
C18 O11 1.287 . S
C18 O12 1.255 . S
O19 Fe1 2.002 . S
O19 C15 1.295 . S
O20 Fe3 1.997 . S
O20 C15 1.235 . S
C21 O4 1.295 . S
C21 O5 1.235 . S
Fe22 O24 1.918 . S
Fe22 O27 1.997 . S
Fe22 O28 2.002 . S
Fe22 O33 1.976 . S
Fe22 O36 1.996 . S
Fe23 O24 1.918 . S
Fe23 O31 1.997 . S
Fe23 O34 1.996 . S
Fe23 O38 1.976 . S
Fe23 O41 2.002 . S
O24 Fe22 1.918 . S
O24 Fe23 1.918 . S
O24 Fe25 1.918 . S
Fe25 O24 1.918 . S
Fe25 O26 2.002 . S
Fe25 O35 1.976 . S
Fe25 O39 1.996 . S
Fe25 O42 1.997 . S
O26 Fe25 2.002 . S
O26 C43 1.295 . S
O27 Fe22 1.997 . S
O27 C43 1.235 . S
O28 Fe22 2.002 . S
O28 C29 1.295 . S
C29 O28 1.295 . S
C29 O31 1.235 . S
C30 O35 1.287 . S
C30 O36 1.255 . S
O31 Fe23 1.997 . S
O31 C29 1.235 . S
C32 O38 1.287 . S
C32 O39 1.255 . S
O33 Fe22 1.976 . S
O33 C40 1.287 . S
O34 Fe23 1.996 . S
O34 C40 1.255 . S
O35 Fe25 1.976 . S
O35 C30 1.287 . S
O36 Fe22 1.996 . S
O36 C30 1.255 . S
C37 O41 1.295 . S
C37 O42 1.235 . S
O38 Fe23 1.976 . S
O38 C32 1.287 . S
O39 Fe25 1.996 . S
O39 C32 1.255 . S
C40 O33 1.287 . S
C40 O34 1.255 . S
O41 Fe23 2.002 . S
O41 C37 1.295 . S
O42 Fe25 1.997 . S
O42 C37 1.235 . S
C43 O26 1.295 . S
C43 O27 1.235 . S
Fe44 O46 1.918 . S
Fe44 O49 1.997 . S
Fe44 O50 2.002 . S
Fe44 O55 1.976 . S
Fe44 O58 1.996 . S
Fe45 O46 1.918 . S
Fe45 O53 1.997 . S
Fe45 O56 1.996 . S
Fe45 O60 1.976 . S
Fe45 O63 2.002 . S
O46 Fe44 1.918 . S
O46 Fe45 1.918 . S
O46 Fe47 1.918 . S
Fe47 O46 1.918 . S
Fe47 O48 2.002 . S
Fe47 O57 1.976 . S
Fe47 O61 1.996 . S
Fe47 O64 1.997 . S
O48 Fe47 2.002 . S
O48 C65 1.295 . S
O49 Fe44 1.997 . S
O49 C65 1.235 . S
O50 Fe44 2.002 . S
O50 C51 1.295 . S
C51 O50 1.295 . S
C51 O53 1.235 . S
C52 O57 1.287 . S
C52 O58 1.255 . S
O53 Fe45 1.997 . S
O53 C51 1.235 . S
C54 O60 1.287 . S
C54 O61 1.255 . S
O55 Fe44 1.976 . S
O55 C62 1.287 . S
O56 Fe45 1.996 . S
O56 C62 1.255 . S
O57 Fe47 1.976 . S
O57 C52 1.287 . S
O58 Fe44 1.996 . S
O58 C52 1.255 . S
C59 O63 1.295 . S
C59 O64 1.235 . S
O60 Fe45 1.976 . S
O60 C54 1.287 . S
O61 Fe47 1.996 . S
O61 C54 1.255 . S
C62 O55 1.287 . S
C62 O56 1.255 . S
O63 Fe45 2.002 . S
O63 C59 1.295 . S
O64 Fe47 1.997 . S
O64 C59 1.235 . S
C65 O48 1.295 . S
C65 O49 1.235 . S
Fe66 O68 1.918 . S
Fe66 O71 1.997 . S
Fe66 O72 2.002 . S
Fe66 O77 1.976 . S
Fe66 O80 1.996 . S
Fe67 O68 1.918 . S
Fe67 O75 1.997 . S
Fe67 O78 1.996 . S
Fe67 O82 1.976 . S
Fe67 O85 2.002 . S
O68 Fe66 1.918 . S
O68 Fe67 1.918 . S
O68 Fe69 1.918 . S
Fe69 O68 1.918 . S
Fe69 O70 2.002 . S
Fe69 O79 1.976 . S
Fe69 O83 1.996 . S
Fe69 O86 1.997 . S
O70 Fe69 2.002 . S
O70 C87 1.295 . S
O71 Fe66 1.997 . S
O71 C87 1.235 . S
O72 Fe66 2.002 . S
O72 C73 1.295 . S
C73 O72 1.295 . S
C73 O75 1.235 . S
C74 O79 1.287 . S
C74 O80 1.255 . S
O75 Fe67 1.997 . S
O75 C73 1.235 . S
C76 O82 1.287 . S
C76 O83 1.255 . S
O77 Fe66 1.976 . S
O77 C84 1.287 . S
O78 Fe67 1.996 . S
O78 C84 1.255 . S
O79 Fe69 1.976 . S
O79 C74 1.287 . S
O80 Fe66 1.996 . S
O80 C74 1.255 . S
C81 O85 1.295 . S
C81 O86 1.235 . S
O82 Fe67 1.976 . S
O82 C76 1.287 . S
O83 Fe69 1.996 . S
O83 C76 1.255 . S
C84 O77 1.287 . S
C84 O78 1.255 . S
O85 Fe67 2.002 . S
O85 C81 1.295 . S
O86 Fe69 1.997 . S
O86 C81 1.235 . S
C87 O70 1.295 . S
C87 O71 1.235 . S
Fe88 O90 1.918 . S
Fe88 O93 1.997 . S
Fe88 O94 2.002 . S
Fe88 O99 1.976 . S
Fe88 O102 1.996 . S
Fe89 O90 1.918 . S
Fe89 O97 1.997 . S
Fe89 O100 1.996 . S
Fe89 O104 1.976 . S
Fe89 O107 2.002 . S
O90 Fe88 1.918 . S
O90 Fe89 1.918 . S
O90 Fe91 1.918 . S
Fe91 O90 1.918 . S
Fe91 O92 2.002 . S
Fe91 O101 1.976 . S
Fe91 O105 1.996 . S
Fe91 O108 1.997 . S
O92 Fe91 2.002 . S
O92 C109 1.295 . S
O93 Fe88 1.997 . S
O93 C109 1.235 . S
O94 Fe88 2.002 . S
O94 C95 1.295 . S
C95 O94 1.295 . S
C95 O97 1.235 . S
C96 O101 1.287 . S
C96 O102 1.255 . S
O97 Fe89 1.997 . S
O97 C95 1.235 . S
C98 O104 1.287 . S
C98 O105 1.255 . S
O99 Fe88 1.976 . S
O99 C106 1.287 . S
O100 Fe89 1.996 . S
O100 C106 1.255 . S
O101 Fe91 1.976 . S
O101 C96 1.287 . S
O102 Fe88 1.996 . S
O102 C96 1.255 . S
C103 O107 1.295 . S
C103 O108 1.235 . S
O104 Fe89 1.976 . S
O104 C98 1.287 . S
O105 Fe91 1.996 . S
O105 C98 1.255 . S
C106 O99 1.287 . S
C106 O100 1.255 . S
O107 Fe89 2.002 . S
O107 C103 1.295 . S
O108 Fe91 1.997 . S
O108 C103 1.235 . S
C109 O92 1.295 . S
C109 O93 1.235 . S
Fe110 O112 1.918 . S
Fe110 O115 1.997 . S
Fe110 O116 2.002 . S
Fe110 O121 1.976 . S
Fe110 O124 1.996 . S
Fe111 O112 1.918 . S
Fe111 O119 1.997 . S
Fe111 O122 1.996 . S
Fe111 O126 1.976 . S
Fe111 O129 2.002 . S
O112 Fe110 1.918 . S
O112 Fe111 1.918 . S
O112 Fe113 1.918 . S
Fe113 O112 1.918 . S
Fe113 O114 2.002 . S
Fe113 O123 1.976 . S
Fe113 O127 1.996 . S
Fe113 O130 1.997 . S
O114 Fe113 2.002 . S
O114 C131 1.295 . S
O115 Fe110 1.997 . S
O115 C131 1.235 . S
O116 Fe110 2.002 . S
O116 C117 1.295 . S
C117 O116 1.295 . S
C117 O119 1.235 . S
C118 O123 1.287 . S
C118 O124 1.255 . S
O119 Fe111 1.997 . S
O119 C117 1.235 . S
C120 O126 1.287 . S
C120 O127 1.255 . S
O121 Fe110 1.976 . S
O121 C128 1.287 . S
O122 Fe111 1.996 . S
O122 C128 1.255 . S
O123 Fe113 1.976 . S
O123 C118 1.287 . S
O124 Fe110 1.996 . S
O124 C118 1.255 . S
C125 O129 1.295 . S
C125 O130 1.235 . S
O126 Fe111 1.976 . S
O126 C120 1.287 . S
O127 Fe113 1.996 . S
O127 C120 1.255 . S
C128 O121 1.287 . S
C128 O122 1.255 . S
O129 Fe111 2.002 . S
O129 C125 1.295 . S
O130 Fe113 1.997 . S
O130 C125 1.235 . S
C131 O114 1.295 . S
C131 O115 1.235 . S
Fe132 O134 1.918 . S
Fe132 O137 1.997 . S
Fe132 O138 2.002 . S
Fe132 O143 1.976 . S
Fe132 O146 1.996 . S
Fe133 O134 1.918 . S
Fe133 O141 1.997 . S
Fe133 O144 1.996 . S
Fe133 O148 1.976 . S
Fe133 O151 2.002 . S
O134 Fe132 1.918 . S
O134 Fe133 1.918 . S
O134 Fe135 1.918 . S
Fe135 O134 1.918 . S
Fe135 O136 2.002 . S
Fe135 O145 1.976 . S
Fe135 O149 1.996 . S
Fe135 O152 1.997 . S
O136 Fe135 2.002 . S
O136 C153 1.295 . S
O137 Fe132 1.997 . S
O137 C153 1.235 . S
O138 Fe132 2.002 . S
O138 C139 1.295 . S
C139 O138 1.295 . S
C139 O141 1.235 . S
C140 O145 1.287 . S
C140 O146 1.255 . S
O141 Fe133 1.997 . S
O141 C139 1.235 . S
C142 O148 1.287 . S
C142 O149 1.255 . S
O143 Fe132 1.976 . S
O143 C150 1.287 . S
O144 Fe133 1.996 . S
O144 C150 1.255 . S
O145 Fe135 1.976 . S
O145 C140 1.287 . S
O146 Fe132 1.996 . S
O146 C140 1.255 . S
C147 O151 1.295 . S
C147 O152 1.235 . S
O148 Fe133 1.976 . S
O148 C142 1.287 . S
O149 Fe135 1.996 . S
O149 C142 1.255 . S
C150 O143 1.287 . S
C150 O144 1.255 . S
O151 Fe133 2.002 . S
O151 C147 1.295 . S
O152 Fe135 1.997 . S
O152 C147 1.235 . S
C153 O136 1.295 . S
C153 O137 1.235 . S
Fe154 O156 1.918 . S
Fe154 O159 1.997 . S
Fe154 O160 2.002 . S
Fe154 O165 1.976 . S
Fe154 O168 1.996 . S
Fe155 O156 1.918 . S
Fe155 O163 1.997 . S
Fe155 O166 1.996 . S
Fe155 O170 1.976 . S
Fe155 O173 2.002 . S
O156 Fe154 1.918 . S
O156 Fe155 1.918 . S
O156 Fe157 1.918 . S
Fe157 O156 1.918 . S
Fe157 O158 2.002 . S
Fe157 O167 1.976 . S
Fe157 O171 1.996 . S
Fe157 O174 1.997 . S
O158 Fe157 2.002 . S
O158 C175 1.295 . S
O159 Fe154 1.997 . S
O159 C175 1.235 . S
O160 Fe154 2.002 . S
O160 C161 1.295 . S
C161 O160 1.295 . S
C161 O163 1.235 . S
C162 O167 1.287 . S
C162 O168 1.255 . S
O163 Fe155 1.997 . S
O163 C161 1.235 . S
C164 O170 1.287 . S
C164 O171 1.255 . S
O165 Fe154 1.976 . S
O165 C172 1.287 . S
O166 Fe155 1.996 . S
O166 C172 1.255 . S
O167 Fe157 1.976 . S
O167 C162 1.287 . S
O168 Fe154 1.996 . S
O168 C162 1.255 . S
C169 O173 1.295 . S
C169 O174 1.235 . S
O170 Fe155 1.976 . S
O170 C164 1.287 . S
O171 Fe157 1.996 . S
O171 C164 1.255 . S
C172 O165 1.287 . S
C172 O166 1.255 . S
O173 Fe155 2.002 . S
O173 C169 1.295 . S
O174 Fe157 1.997 . S
O174 C169 1.235 . S
C175 O158 1.295 . S
C175 O159 1.235 . S
C176 C177 1.170 . S
C176 C178 1.380 . S
C177 C176 1.170 . S
C178 C176 1.380 . S
C178 C179 1.157 1_565 S
C179 C178 1.157 1_545 S
C180 C181 1.170 . S
C180 C182 1.380 . S
C181 C180 1.170 . S
C182 C180 1.380 . S
C182 C183 1.170 . S
C183 C182 1.170 . S
C184 C185 1.170 . S
C184 C186 1.380 . S
C185 C184 1.170 . S
C186 C184 1.380 . S
C186 C187 1.170 . S
C187 C186 1.170 . S
C188 C189 1.170 . S
C188 C190 1.380 . S
C189 C188 1.170 . S
C190 C188 1.380 . S
C190 C191 1.170 . S
C191 C190 1.170 . S
C192 C193 1.170 . S
C192 C194 1.380 . S
C193 C192 1.170 . S
C194 C192 1.380 . S
C194 C195 1.170 . S
C195 C194 1.170 . S
C196 C197 1.170 . S
C196 C198 1.380 . S
C197 C196 1.170 . S
C198 C196 1.380 . S
C198 C199 1.170 . S
C199 C198 1.170 . S
C200 C201 1.170 . S
C200 C202 1.380 . S
C201 C200 1.170 . S
C202 C200 1.380 . S
C202 C203 1.170 . S
C203 C202 1.170 . S
C204 C205 1.170 . S
C204 C206 1.380 . S
C205 C204 1.170 . S
C206 C204 1.380 . S
C206 C207 1.170 . S
C207 C206 1.170 . S
C208 C209 1.170 . S
C208 C210 1.381 1_454 S
C209 C208 1.170 . S
C210 C208 1.381 1_656 S
C210 C211 1.170 1_545 S
C211 C210 1.170 1_565 S
C212 C213 1.167 1_545 S
C212 C214 1.383 1_554 S
C213 C212 1.167 1_565 S
C214 C212 1.383 1_556 S
C214 C215 1.170 . S
C215 C214 1.170 . S
C216 C217 1.170 . S
C216 C218 1.380 . S
C217 C216 1.170 . S
C218 C216 1.380 . S
C218 C219 1.170 . S
C219 C218 1.170 . S
C220 C221 1.170 . S
C220 C222 1.380 1_455 S
C221 C220 1.170 . S
C222 C220 1.380 1_655 S
C222 C223 1.170 . S
C223 C222 1.170 . S
C224 C225 1.170 . S
C224 C226 1.380 1_556 S
C225 C224 1.170 . S
C226 C224 1.380 1_554 S
C226 C227 1.170 . S
C227 C226 1.170 . S
C228 C229 1.170 . S
C228 C230 1.380 1_556 S
C229 C228 1.170 . S
C230 C228 1.380 1_554 S
C230 C231 1.170 . S
C231 C230 1.170 . S
C232 C233 1.170 . S
C232 C234 1.380 . S
C233 C232 1.170 . S
C234 C232 1.380 . S
C234 C235 1.170 . S
C235 C234 1.170 . S
C236 C237 1.170 . S
C236 C238 1.380 . S
C237 C236 1.170 . S
C238 C236 1.380 . S
C238 C239 1.170 . S
C239 C238 1.170 . S
C240 C241 1.170 . S
C240 C242 1.380 . S
C241 C240 1.170 . S
C242 C240 1.380 . S
C242 C243 1.170 . S
C243 C242 1.170 . S
C244 C245 1.170 . S
C244 C246 1.380 . S
C245 C244 1.170 . S
C246 C244 1.380 . S
C246 C247 1.170 . S
C247 C246 1.170 . S
C248 C249 1.170 . S
C248 C250 1.380 1_556 S
C249 C248 1.170 . S
C250 C248 1.380 1_554 S
C250 C251 1.170 . S
C251 C250 1.170 . S
C252 C253 1.170 . S
C252 C254 1.380 1_556 S
C253 C252 1.170 . S
C254 C252 1.380 1_554 S
C254 C255 1.170 . S
C255 C254 1.170 . S
C256 C257 1.170 . S
C256 C258 1.380 . S
C257 C256 1.170 . S
C258 C256 1.380 . S
C258 C259 1.170 . S
C259 C258 1.170 . S
C260 C261 1.170 . S
C260 C262 1.380 . S
C261 C260 1.170 . S
C262 C260 1.380 . S
C262 C263 1.170 . S
C263 C262 1.170 . S
C264 C265 1.170 . S
C264 C266 1.380 . S
C265 C264 1.170 . S
C266 C264 1.380 . S
C266 C267 1.170 . S
C267 C266 1.170 . S
C268 C269 1.170 . S
C268 C270 1.380 . S
C269 C268 1.170 . S
C270 C268 1.380 . S
C270 C271 1.170 . S
C271 C270 1.170 . S
C177 C76 1.373 . S
C179 C21 1.484 . S
C181 C52 1.411 1_455 S
C183 C37 1.476 1_565 S
C185 C51 1.488 1_545 S
C187 C30 1.398 . S
C189 C87 1.488 1_545 S
C191 C18 1.399 1_655 S
C193 C164 1.376 1_655 S
C195 C103 1.469 . S
C197 C125 1.474 . S
C199 C140 1.399 . S
C201 C118 1.419 1_455 S
C203 C139 1.490 . S
C205 C96 1.420 . S
C207 C175 1.483 . S
C209 C7 1.256 . S
C211 C65 1.299 . S
C213 C81 1.302 . S
C215 C43 1.261 . S
C217 C109 1.258 . S
C219 C153 1.289 . S
C221 C169 1.298 . S
C223 C131 1.256 . S
C225 C29 1.148 . S
C227 C15 1.164 . S
C229 C59 1.167 . S
C231 C73 1.145 . S
C233 C117 1.146 . S
C235 C95 1.138 . S
C237 C161 1.149 . S
C239 C147 1.167 . S
C241 C8 1.449 . S
C243 C32 1.426 . S
C245 C62 1.476 . S
C247 C74 1.448 . S
C249 C98 1.455 . S
C251 C120 1.423 . S
C253 C162 1.449 . S
C255 C150 1.477 . S
C257 C10 1.687 . S
C259 C142 1.744 . S
C261 C40 1.727 . S
C263 C172 1.701 . S
C265 C106 1.729 . S
C267 C54 1.703 . S
C269 C128 1.688 . S
C271 C84 1.744 . S
