# Generated by pormake.
# Topology vbv, (6)-cn, num edge types: 1
# Building blocks:
#     Node 0, Type 0, BuildingBlock: OJICUG_clean_sbu_0, # of connection points: 6
#     Node 1, Type 0, BuildingBlock: OJICUG_clean_sbu_0, # of connection points: 6
#     Node 2, Type 0, BuildingBlock: OJICUG_clean_sbu_0, # of connection points: 6
#     Node 3, Type 0, BuildingBlock: OJICUG_clean_sbu_0, # of connection points: 6
#     Node 4, Type 0, BuildingBlock: OJICUG_clean_sbu_0, # of connection points: 6
#     Node 5, Type 0, BuildingBlock: OJICUG_clean_sbu_0, # of connection points: 6
#     Node 6, Type 0, BuildingBlock: OJICUG_clean_sbu_0, # of connection points: 6
#     Node 7, Type 0, BuildingBlock: OJICUG_clean_sbu_0, # of connection points: 6
#     Node 8, Type 0, BuildingBlock: OJICUG_clean_sbu_0, # of connection points: 6
#     Node 9, Type 0, BuildingBlock: OJICUG_clean_sbu_0, # of connection points: 6
#     Node 10, Type 0, BuildingBlock: OJICUG_clean_sbu_0, # of connection points: 6
#     Node 11, Type 0, BuildingBlock: OJICUG_clean_sbu_0, # of connection points: 6
#     Node 12, Type 0, BuildingBlock: OJICUG_clean_sbu_0, # of connection points: 6
#     Node 13, Type 0, BuildingBlock: OJICUG_clean_sbu_0, # of connection points: 6
#     Node 14, Type 0, BuildingBlock: OJICUG_clean_sbu_0, # of connection points: 6
#     Node 15, Type 0, BuildingBlock: OJICUG_clean_sbu_0, # of connection points: 6
#     Edge 16, Type (0, 0), None
#     Edge 17, Type (0, 0), None
#     Edge 18, Type (0, 0), None
#     Edge 19, Type (0, 0), None
#     Edge 20, Type (0, 0), None
#     Edge 21, Type (0, 0), None
#     Edge 22, Type (0, 0), None
#     Edge 23, Type (0, 0), None
#     Edge 24, Type (0, 0), None
#     Edge 25, Type (0, 0), None
#     Edge 26, Type (0, 0), None
#     Edge 27, Type (0, 0), None
#     Edge 28, Type (0, 0), None
#     Edge 29, Type (0, 0), None
#     Edge 30, Type (0, 0), None
#     Edge 31, Type (0, 0), None
#     Edge 32, Type (0, 0), None
#     Edge 33, Type (0, 0), None
#     Edge 34, Type (0, 0), None
#     Edge 35, Type (0, 0), None
#     Edge 36, Type (0, 0), None
#     Edge 37, Type (0, 0), None
#     Edge 38, Type (0, 0), None
#     Edge 39, Type (0, 0), None
#     Edge 40, Type (0, 0), None
#     Edge 41, Type (0, 0), None
#     Edge 42, Type (0, 0), None
#     Edge 43, Type (0, 0), None
#     Edge 44, Type (0, 0), None
#     Edge 45, Type (0, 0), None
#     Edge 46, Type (0, 0), None
#     Edge 47, Type (0, 0), None
#     Edge 48, Type (0, 0), None
#     Edge 49, Type (0, 0), None
#     Edge 50, Type (0, 0), None
#     Edge 51, Type (0, 0), None
#     Edge 52, Type (0, 0), None
#     Edge 53, Type (0, 0), None
#     Edge 54, Type (0, 0), None
#     Edge 55, Type (0, 0), None
#     Edge 56, Type (0, 0), None
#     Edge 57, Type (0, 0), None
#     Edge 58, Type (0, 0), None
#     Edge 59, Type (0, 0), None
#     Edge 60, Type (0, 0), None
#     Edge 61, Type (0, 0), None
#     Edge 62, Type (0, 0), None
#     Edge 63, Type (0, 0), None
# Relax obj value: 0.217
# Max RMSD: 0.236
# Mean RMSD: 0.236
data_MOF--net-vbv--node1-OJICUG_clean_sbu_0--edge1-none
_symmetry_space_group_name_H-M    P1
_symmetry_Int_Tables_number       1
_symmetry_cell_setting            triclinic
loop_
_symmetry_equiv_pos_as_xyz
'x, y, z'
_cell_length_a     25.08018
_cell_length_b     14.274507
_cell_length_c     23.052492
_cell_angle_alpha  90.000577
_cell_angle_beta   89.999632
_cell_angle_gamma 90.001504
loop_
_atom_site_label
_atom_site_type_symbol
_atom_site_fract_x
_atom_site_fract_y
_atom_site_fract_z
_atom_type_partial_charge
Sc0 Sc 0.14564 0.41015 0.12424 0.0
Sc1 Sc 0.23947 0.24813 0.10596 0.0
Sc2 Sc 0.15507 0.29561 0.99162 0.0
O3 O 0.17716 0.31232 0.0763 0.0
C4 C 0.05886 0.28336 0.06695 0.0
C5 C 0.17824 0.25248 0.2192 0.0
C6 C 0.1678 0.09827 0.02511 0.0
C7 C 0.26865 0.45562 0.14561 0.0
C8 C 0.15963 0.50479 0.99959 0.0
C9 C 0.27309 0.27401 0.9943 0.0
O10 O 0.07484 0.31908 0.11492 0.0
O11 O 0.20184 0.19861 0.18333 0.0
O12 O 0.13565 0.15807 0.00632 0.0
O13 O 0.22213 0.48703 0.13237 0.0
O14 O 0.17765 0.43502 0.97298 0.0
O15 O 0.26548 0.32652 0.03549 0.0
O16 O 0.13075 0.49573 0.04559 0.0
O17 O 0.27681 0.36749 0.15113 0.0
O18 O 0.23334 0.25291 0.96324 0.0
O19 O 0.162 0.33482 0.2057 0.0
O20 O 0.07426 0.32078 0.01929 0.0
O21 O 0.20893 0.11979 0.05684 0.0
Sc22 Sc 0.42978 0.68145 0.99161 0.0
Sc23 Sc 0.34537 0.72894 0.10595 0.0
Sc24 Sc 0.4392 0.56693 0.12424 0.0
O25 O 0.40769 0.66475 0.07629 0.0
C26 C 0.42522 0.47227 0.9996 0.0
C27 C 0.31176 0.70305 0.99429 0.0
C28 C 0.3162 0.52146 0.14561 0.0
C29 C 0.41704 0.87879 0.0251 0.0
C30 C 0.52599 0.69371 0.06694 0.0
C31 C 0.40659 0.7246 0.21919 0.0
O32 O 0.4072 0.54205 0.97298 0.0
O33 O 0.31937 0.65054 0.03548 0.0
O34 O 0.36272 0.49004 0.13237 0.0
O35 O 0.44919 0.819 0.00631 0.0
O36 O 0.51 0.65801 0.11492 0.0
O37 O 0.383 0.77847 0.18332 0.0
O38 O 0.51059 0.65628 0.01928 0.0
O39 O 0.37591 0.85728 0.05682 0.0
O40 O 0.42284 0.64226 0.2057 0.0
O41 O 0.35151 0.72415 0.96323 0.0
O42 O 0.45409 0.48134 0.04559 0.0
O43 O 0.30803 0.60959 0.15112 0.0
Sc44 Sc 0.64561 0.56692 0.3753 0.0
Sc45 Sc 0.73944 0.72893 0.3936 0.0
Sc46 Sc 0.65504 0.68144 0.50793 0.0
O47 O 0.67713 0.66474 0.42325 0.0
C48 C 0.55883 0.69371 0.4326 0.0
C49 C 0.67823 0.7246 0.28035 0.0
C50 C 0.66777 0.87878 0.47444 0.0
C51 C 0.76863 0.52145 0.35394 0.0
C52 C 0.65959 0.47226 0.49994 0.0
C53 C 0.77305 0.70304 0.50526 0.0
O54 O 0.57481 0.658 0.38462 0.0
O55 O 0.70183 0.77846 0.31623 0.0
O56 O 0.63562 0.81898 0.49324 0.0
O57 O 0.7221 0.49004 0.36717 0.0
O58 O 0.67761 0.54203 0.52656 0.0
O59 O 0.76544 0.65053 0.46407 0.0
O60 O 0.63072 0.48133 0.45395 0.0
O61 O 0.7768 0.60958 0.34843 0.0
O62 O 0.7333 0.72414 0.53632 0.0
O63 O 0.66198 0.64226 0.29384 0.0
O64 O 0.57422 0.65627 0.48026 0.0
O65 O 0.7089 0.85727 0.44272 0.0
Sc66 Sc 0.93918 0.41014 0.37531 0.0
Sc67 Sc 0.84535 0.24812 0.39358 0.0
Sc68 Sc 0.92975 0.2956 0.50793 0.0
O69 O 0.90766 0.31231 0.42325 0.0
C70 C 1.02596 0.28335 0.43261 0.0
C71 C 0.90658 0.25248 0.28034 0.0
C72 C 0.91701 0.09826 0.47443 0.0
C73 C 0.81617 0.4556 0.35393 0.0
C74 C 0.92519 0.50478 0.49996 0.0
C75 C 0.81173 0.27399 0.50524 0.0
O76 O 1.00998 0.31907 0.38463 0.0
O77 O 0.88298 0.1986 0.31621 0.0
O78 O 0.94916 0.15806 0.49322 0.0
O79 O 0.8627 0.48702 0.36718 0.0
O80 O 0.90717 0.435 0.52657 0.0
O81 O 0.81934 0.32651 0.46405 0.0
O82 O 0.95407 0.49572 0.45397 0.0
O83 O 0.808 0.36748 0.34842 0.0
O84 O 0.85147 0.25289 0.5363 0.0
O85 O 0.92283 0.33482 0.29384 0.0
O86 O 1.01056 0.32077 0.48027 0.0
O87 O 0.87588 0.11978 0.4427 0.0
Sc88 Sc 0.93921 0.56692 0.8753 0.0
Sc89 Sc 0.84538 0.72892 0.8936 0.0
Sc90 Sc 0.92979 0.68144 0.00793 0.0
O91 O 0.9077 0.66474 0.92325 0.0
C92 C 0.92523 0.47226 -6e-05 0.0
C93 C 0.8162 0.52145 0.85393 0.0
C94 C 0.81178 0.70301 0.00524 0.0
C95 C 0.90659 0.7246 0.78035 0.0
C96 C 1.026 0.6937 0.9326 0.0
C97 C 0.91705 0.87877 0.97447 0.0
O98 O 0.9541 0.48132 0.95395 0.0
O99 O 0.80803 0.60957 0.84843 0.0
O100 O 0.85152 0.72415 0.03631 0.0
O101 O 0.92284 0.64227 0.79384 0.0
O102 O 1.0106 0.65627 0.98026 0.0
O103 O 0.87592 0.85725 0.94273 0.0
O104 O 1.01001 0.65799 0.88462 0.0
O105 O 0.88299 0.77846 0.81623 0.0
O106 O 0.94921 0.81898 0.99324 0.0
O107 O 0.86272 0.49003 0.86716 0.0
O108 O 0.90721 0.54203 0.02656 0.0
O109 O 0.81942 0.65046 0.96407 0.0
Sc110 Sc 0.64564 0.41014 0.87531 0.0
Sc111 Sc 0.73947 0.24813 0.89357 0.0
Sc112 Sc 0.65508 0.29558 0.00792 0.0
O113 O 0.67716 0.3123 0.92324 0.0
C114 C 0.65963 0.50477 -4e-05 0.0
C115 C 0.76865 0.45561 0.85392 0.0
C116 C 0.77309 0.27399 0.00521 0.0
C117 C 0.67824 0.25247 0.78034 0.0
C118 C 0.55886 0.28335 0.93261 0.0
C119 C 0.66782 0.09826 0.97444 0.0
O120 O 0.63076 0.49572 0.95397 0.0
O121 O 0.77682 0.36748 0.84841 0.0
O122 O 0.73335 0.25285 0.03628 0.0
O123 O 0.66199 0.33481 0.79384 0.0
O124 O 0.57426 0.32077 0.98027 0.0
O125 O 0.70894 0.11978 0.9427 0.0
O126 O 0.57484 0.31907 0.88463 0.0
O127 O 0.70185 0.1986 0.81621 0.0
O128 O 0.63565 0.15805 0.9932 0.0
O129 O 0.72213 0.48702 0.86717 0.0
O130 O 0.67766 0.43499 0.02657 0.0
O131 O 0.76546 0.32655 0.96405 0.0
Sc132 Sc 0.42975 0.2956 0.49162 0.0
Sc133 Sc 0.34535 0.24814 0.60596 0.0
Sc134 Sc 0.43918 0.41015 0.62423 0.0
O135 O 0.40767 0.31231 0.57629 0.0
C136 C 0.52596 0.28336 0.56693 0.0
C137 C 0.41701 0.09827 0.5251 0.0
C138 C 0.40658 0.25248 0.7192 0.0
C139 C 0.31174 0.27401 0.49433 0.0
C140 C 0.42519 0.50478 0.49958 0.0
C141 C 0.31617 0.45561 0.64561 0.0
O142 O 0.51056 0.32078 0.51927 0.0
O143 O 0.37588 0.11979 0.55683 0.0
O144 O 0.42283 0.33482 0.7057 0.0
O145 O 0.35147 0.25287 0.46325 0.0
O146 O 0.45406 0.49573 0.54557 0.0
O147 O 0.308 0.36749 0.65112 0.0
O148 O 0.40717 0.435 0.47297 0.0
O149 O 0.31938 0.32656 0.53548 0.0
O150 O 0.3627 0.48703 0.63237 0.0
O151 O 0.44917 0.15807 0.50632 0.0
O152 O 0.50998 0.31908 0.61491 0.0
O153 O 0.38297 0.19861 0.68333 0.0
Sc154 Sc 0.14561 0.56693 0.62424 0.0
Sc155 Sc 0.23944 0.72893 0.60594 0.0
Sc156 Sc 0.15503 0.68145 0.49161 0.0
O157 O 0.17712 0.66475 0.57629 0.0
C158 C 0.15959 0.47227 0.4996 0.0
C159 C 0.26862 0.52146 0.64561 0.0
C160 C 0.27304 0.70303 0.49431 0.0
C161 C 0.17823 0.7246 0.71919 0.0
C162 C 0.05882 0.69371 0.56694 0.0
C163 C 0.16778 0.87878 0.52508 0.0
O164 O 0.13072 0.48133 0.54559 0.0
O165 O 0.2768 0.60958 0.65111 0.0
O166 O 0.23331 0.72417 0.46324 0.0
O167 O 0.16198 0.64227 0.7057 0.0
O168 O 0.07422 0.65628 0.51928 0.0
O169 O 0.20891 0.85726 0.55682 0.0
O170 O 0.07481 0.658 0.61492 0.0
O171 O 0.20184 0.77847 0.68332 0.0
O172 O 0.13562 0.81899 0.50631 0.0
O173 O 0.2221 0.49004 0.63238 0.0
O174 O 0.17761 0.54205 0.47298 0.0
O175 O 0.2654 0.65048 0.53547 0.0
Sc176 Sc 0.64564 0.91014 0.12421 0.0
Sc177 Sc 0.73948 0.74814 0.10592 0.0
Sc178 Sc 0.65505 0.79557 0.9916 0.0
O179 O 0.67716 0.81231 0.07626 0.0
C180 C 0.55885 0.78334 0.06693 0.0
C181 C 0.67822 0.75244 0.21914 0.0
C182 C 0.66781 0.59826 0.0251 0.0
C183 C 0.76865 0.95561 0.14558 0.0
C184 C 0.65961 0.00476 0.99955 0.0
C185 C 0.77308 0.77413 0.99424 0.0
O186 O 0.57484 0.81906 0.1149 0.0
O187 O 0.70183 0.69858 0.18327 0.0
O188 O 0.63564 0.65803 0.00633 0.0
O189 O 0.72213 0.98703 0.13233 0.0
O190 O 0.67761 0.93498 0.97293 0.0
O191 O 0.76552 0.82658 0.03547 0.0
O192 O 0.63075 -0.00429 0.04555 0.0
O193 O 0.77681 0.86748 0.15112 0.0
O194 O 0.73332 0.75288 0.96323 0.0
O195 O 0.66201 0.83481 0.20566 0.0
O196 O 0.57424 0.82075 0.01926 0.0
O197 O 0.70897 0.6198 0.05678 0.0
Sc198 Sc 0.92982 0.18145 0.99159 0.0
Sc199 Sc 0.84538 0.2289 0.1059 0.0
Sc200 Sc 0.93921 0.06692 0.12422 0.0
O201 O 0.90771 0.16473 0.07626 0.0
C202 C 0.92526 0.97227 0.99957 0.0
C203 C 0.8118 0.20288 0.99422 0.0
C204 C 0.81621 0.02145 0.14559 0.0
C205 C 0.91705 0.37877 0.02508 0.0
C206 C 1.02601 0.19372 0.06694 0.0
C207 C 0.90661 0.22464 0.21913 0.0
O208 O 0.90726 0.04204 0.97294 0.0
O209 O 0.81936 0.15043 0.03545 0.0
O210 O 0.86273 -0.00998 0.13234 0.0
O211 O 0.94923 0.31899 0.00631 0.0
O212 O 1.01002 0.158 0.11491 0.0
O213 O 0.883 0.27848 0.18325 0.0
O214 O 1.01063 0.15629 0.01927 0.0
O215 O 0.87589 0.35722 0.05675 0.0
O216 O 0.92283 0.14227 0.20567 0.0
O217 O 0.85155 0.22413 0.96321 0.0
O218 O 0.95412 0.98133 0.04557 0.0
O219 O 0.80804 0.10957 0.1511 0.0
Sc220 Sc 0.14561 0.06693 0.37533 0.0
Sc221 Sc 0.23945 0.22891 0.39364 0.0
Sc222 Sc 0.15501 0.18146 0.50796 0.0
O223 O 0.17712 0.16474 0.42329 0.0
C224 C 0.05881 0.19372 0.43261 0.0
C225 C 0.17821 0.22464 0.28041 0.0
C226 C 0.16778 0.37878 0.47446 0.0
C227 C 0.26863 0.02145 0.35397 0.0
C228 C 0.15957 0.97228 0.49998 0.0
C229 C 0.27303 0.20289 0.50532 0.0
O230 O 0.07481 0.15801 0.38464 0.0
O231 O 0.20183 0.27849 0.31629 0.0
O232 O 0.1356 0.319 0.49323 0.0
O233 O 0.2221 -0.00997 0.36721 0.0
O234 O 0.17757 0.04206 0.52661 0.0
O235 O 0.26547 0.15044 0.46409 0.0
O236 O 0.13071 0.98134 0.45398 0.0
O237 O 0.27679 0.10958 0.34845 0.0
O238 O 0.23328 0.22415 0.53634 0.0
O239 O 0.16199 0.14227 0.29388 0.0
O240 O 0.0742 0.1563 0.48028 0.0
O241 O 0.20894 0.35724 0.44279 0.0
Sc242 Sc 0.43919 0.91015 0.37534 0.0
Sc243 Sc 0.34534 0.74815 0.39362 0.0
Sc244 Sc 0.42978 0.79559 0.50795 0.0
O245 O 0.40767 0.81232 0.42328 0.0
C246 C 0.52598 0.78334 0.43261 0.0
C247 C 0.40661 0.75244 0.2804 0.0
C248 C 0.41701 0.59827 0.47444 0.0
C249 C 0.31618 0.95561 0.35396 0.0
C250 C 0.42522 0.00477 0.49999 0.0
C251 C 0.31175 0.77415 0.5053 0.0
O252 O 0.50999 0.81907 0.38464 0.0
O253 O 0.38299 0.69859 0.31628 0.0
O254 O 0.44918 0.65805 0.49322 0.0
O255 O 0.3627 0.98704 0.36721 0.0
O256 O 0.40722 0.93499 0.52662 0.0
O257 O 0.31931 0.8266 0.46407 0.0
O258 O 0.45408 -0.00428 0.45399 0.0
O259 O 0.30801 0.86749 0.34843 0.0
O260 O 0.35151 0.75289 0.53632 0.0
O261 O 0.42282 0.83481 0.29388 0.0
O262 O 0.51059 0.82075 0.48028 0.0
O263 O 0.37585 0.61981 0.44277 0.0
Sc264 Sc 0.43921 0.06693 0.87533 0.0
Sc265 Sc 0.34537 0.2289 0.89364 0.0
Sc266 Sc 0.42981 0.18148 0.00795 0.0
O267 O 0.4077 0.16475 0.92328 0.0
C268 C 0.42525 0.97229 -2e-05 0.0
C269 C 0.31619 0.02145 0.85396 0.0
C270 C 0.3118 0.20289 0.00529 0.0
C271 C 0.40661 0.22465 0.78041 0.0
C272 C 0.52601 0.19372 0.93261 0.0
C273 C 0.41703 0.37878 0.97447 0.0
O274 O 0.4541 0.98134 0.95398 0.0
O275 O 0.30803 0.10958 0.84844 0.0
O276 O 0.35154 0.22419 0.03632 0.0
O277 O 0.42283 0.14228 0.79388 0.0
O278 O 0.51062 0.1563 0.98028 0.0
O279 O 0.37588 0.35724 0.94279 0.0
O280 O 0.51001 0.158 0.88464 0.0
O281 O 0.38299 0.27849 0.81629 0.0
O282 O 0.44922 0.31901 0.99322 0.0
O283 O 0.36272 -0.00996 0.8672 0.0
O284 O 0.40725 0.04207 0.02661 0.0
O285 O 0.31937 0.1504 0.96409 0.0
Sc286 Sc 0.14563 0.91015 0.87533 0.0
Sc287 Sc 0.23947 0.74817 0.89363 0.0
Sc288 Sc 0.15503 0.79559 0.00795 0.0
O289 O 0.17714 0.81233 0.92328 0.0
C290 C 0.1596 0.00478 -1e-05 0.0
C291 C 0.26864 0.95562 0.85395 0.0
C292 C 0.27305 0.77417 0.00528 0.0
C293 C 0.17822 0.75244 0.7804 0.0
C294 C 0.05884 0.78334 0.93261 0.0
C295 C 0.16781 0.59829 0.97446 0.0
O296 O 0.13074 -0.00427 0.95399 0.0
O297 O 0.2768 0.8675 0.84843 0.0
O298 O 0.23331 0.75288 0.03631 0.0
O299 O 0.162 0.8348 0.79388 0.0
O300 O 0.07422 0.82076 0.98028 0.0
O301 O 0.20896 0.61983 0.94278 0.0
O302 O 0.07483 0.81908 0.88464 0.0
O303 O 0.20184 0.69859 0.81628 0.0
O304 O 0.13562 0.65805 0.99321 0.0
O305 O 0.22212 0.98704 0.86721 0.0
O306 O 0.1776 0.93499 0.02661 0.0
O307 O 0.26547 0.82666 0.96408 0.0
Sc308 Sc 0.92978 0.79557 0.4916 0.0
Sc309 Sc 0.84534 0.74816 0.60592 0.0
Sc310 Sc 0.93918 0.91015 0.62421 0.0
O311 O 0.90767 0.81232 0.57626 0.0
C312 C 1.02598 0.78334 0.56693 0.0
C313 C 0.917 0.59827 0.52509 0.0
C314 C 0.90659 0.75244 0.71914 0.0
C315 C 0.81176 0.77415 0.49426 0.0
C316 C 0.92521 0.00476 0.49955 0.0
C317 C 0.81617 0.95562 0.64558 0.0
O318 O 1.01059 0.82075 0.51926 0.0
O319 O 0.87585 0.61982 0.55677 0.0
O320 O 0.92282 0.8348 0.70566 0.0
O321 O 0.8515 0.75286 0.46324 0.0
O322 O 0.95408 -0.00428 0.54555 0.0
O323 O 0.80801 0.86749 0.65111 0.0
O324 O 0.90722 0.93498 0.47293 0.0
O325 O 0.81934 0.82665 0.53546 0.0
O326 O 0.86269 0.98703 0.63233 0.0
O327 O 0.94919 0.65804 0.50634 0.0
O328 O 1.00999 0.81907 0.6149 0.0
O329 O 0.88297 0.69859 0.68327 0.0
Sc330 Sc 0.6456 0.06692 0.62421 0.0
Sc331 Sc 0.73945 0.22889 0.60589 0.0
Sc332 Sc 0.655 0.18147 0.49159 0.0
O333 O 0.67711 0.16474 0.57625 0.0
C334 C 0.65957 0.97228 0.49956 0.0
C335 C 0.76861 0.02145 0.64558 0.0
C336 C 0.77302 0.20287 0.49424 0.0
C337 C 0.67821 0.22464 0.71913 0.0
C338 C 0.55881 0.19372 0.56693 0.0
C339 C 0.66778 0.37877 0.52506 0.0
O340 O 0.6307 0.98133 0.54556 0.0
O341 O 0.77678 0.10957 0.65109 0.0
O342 O 0.73328 0.22417 0.46322 0.0
O343 O 0.66198 0.14228 0.70566 0.0
O344 O 0.57419 0.1563 0.51926 0.0
O345 O 0.70893 0.35723 0.55675 0.0
O346 O 0.5748 0.158 0.6149 0.0
O347 O 0.70183 0.27848 0.68325 0.0
O348 O 0.6356 0.319 0.50631 0.0
O349 O 0.72209 -0.00997 0.63233 0.0
O350 O 0.67756 0.04206 0.47293 0.0
O351 O 0.76543 0.15038 0.53544 0.0
loop_
_geom_bond_atom_site_label_1
_geom_bond_atom_site_label_2
_geom_bond_distance
_geom_bond_site_symmetry_2
_ccdc_geom_bond_type
Sc0 O3 2.025 . S
Sc0 O10 2.105 . S
Sc0 O13 2.105 . S
Sc0 O16 2.105 . S
Sc0 O19 2.105 . S
Sc1 O3 2.025 . S
Sc1 O11 2.105 . S
Sc1 O15 2.105 . S
Sc1 O17 2.105 . S
Sc1 O21 2.105 . S
Sc2 O3 2.038 . S
Sc2 O12 2.107 . S
Sc2 O14 2.101 1_554 S
Sc2 O18 2.099 1_554 S
Sc2 O20 2.110 . S
O3 Sc0 2.025 . S
O3 Sc1 2.025 . S
O3 Sc2 2.038 . S
C4 O10 1.268 . S
C4 O20 1.268 . S
C5 O11 1.268 . S
C5 O19 1.268 . S
C6 O12 1.268 . S
C6 O21 1.268 . S
C7 O13 1.268 . S
C7 O17 1.268 . S
C8 O14 1.268 1_554 S
C8 O16 1.268 . S
C9 O15 1.268 1_556 S
C9 O18 1.268 . S
O10 Sc0 2.105 . S
O10 C4 1.268 . S
O11 Sc1 2.105 . S
O11 C5 1.268 . S
O12 Sc2 2.107 . S
O12 C6 1.268 . S
O13 Sc0 2.105 . S
O13 C7 1.268 . S
O14 Sc2 2.101 1_556 S
O14 C8 1.268 1_556 S
O15 Sc1 2.105 . S
O15 C9 1.268 1_554 S
O16 Sc0 2.105 . S
O16 C8 1.268 . S
O17 Sc1 2.105 . S
O17 C7 1.268 . S
O18 Sc2 2.099 1_556 S
O18 C9 1.268 . S
O19 Sc0 2.105 . S
O19 C5 1.268 . S
O20 Sc2 2.110 . S
O20 C4 1.268 . S
O21 Sc1 2.105 . S
O21 C6 1.268 . S
Sc22 O25 2.038 . S
Sc22 O32 2.101 1_554 S
Sc22 O35 2.107 . S
Sc22 O38 2.110 . S
Sc22 O41 2.099 1_554 S
Sc23 O25 2.025 . S
Sc23 O33 2.105 . S
Sc23 O37 2.105 . S
Sc23 O39 2.105 . S
Sc23 O43 2.105 . S
Sc24 O25 2.025 . S
Sc24 O34 2.105 . S
Sc24 O36 2.105 . S
Sc24 O40 2.105 . S
Sc24 O42 2.105 . S
O25 Sc22 2.038 . S
O25 Sc23 2.025 . S
O25 Sc24 2.025 . S
C26 O32 1.268 1_554 S
C26 O42 1.268 . S
C27 O33 1.268 1_556 S
C27 O41 1.268 . S
C28 O34 1.268 . S
C28 O43 1.268 . S
C29 O35 1.268 . S
C29 O39 1.268 . S
C30 O36 1.268 . S
C30 O38 1.268 . S
C31 O37 1.268 . S
C31 O40 1.268 . S
O32 Sc22 2.101 1_556 S
O32 C26 1.268 1_556 S
O33 Sc23 2.105 . S
O33 C27 1.268 1_554 S
O34 Sc24 2.105 . S
O34 C28 1.268 . S
O35 Sc22 2.107 . S
O35 C29 1.268 . S
O36 Sc24 2.105 . S
O36 C30 1.268 . S
O37 Sc23 2.105 . S
O37 C31 1.268 . S
O38 Sc22 2.110 . S
O38 C30 1.268 . S
O39 Sc23 2.105 . S
O39 C29 1.268 . S
O40 Sc24 2.105 . S
O40 C31 1.268 . S
O41 Sc22 2.099 1_556 S
O41 C27 1.268 . S
O42 Sc24 2.105 . S
O42 C26 1.268 . S
O43 Sc23 2.105 . S
O43 C28 1.268 . S
Sc44 O47 2.025 . S
Sc44 O54 2.105 . S
Sc44 O57 2.105 . S
Sc44 O60 2.105 . S
Sc44 O63 2.105 . S
Sc45 O47 2.025 . S
Sc45 O55 2.105 . S
Sc45 O59 2.105 . S
Sc45 O61 2.105 . S
Sc45 O65 2.105 . S
Sc46 O47 2.025 . S
Sc46 O56 2.105 . S
Sc46 O58 2.105 . S
Sc46 O62 2.105 . S
Sc46 O64 2.105 . S
O47 Sc44 2.025 . S
O47 Sc45 2.025 . S
O47 Sc46 2.025 . S
C48 O54 1.268 . S
C48 O64 1.268 . S
C49 O55 1.268 . S
C49 O63 1.268 . S
C50 O56 1.268 . S
C50 O65 1.268 . S
C51 O57 1.268 . S
C51 O61 1.268 . S
C52 O58 1.268 . S
C52 O60 1.268 . S
C53 O59 1.268 . S
C53 O62 1.268 . S
O54 Sc44 2.105 . S
O54 C48 1.268 . S
O55 Sc45 2.105 . S
O55 C49 1.268 . S
O56 Sc46 2.105 . S
O56 C50 1.268 . S
O57 Sc44 2.105 . S
O57 C51 1.268 . S
O58 Sc46 2.105 . S
O58 C52 1.268 . S
O59 Sc45 2.105 . S
O59 C53 1.268 . S
O60 Sc44 2.105 . S
O60 C52 1.268 . S
O61 Sc45 2.105 . S
O61 C51 1.268 . S
O62 Sc46 2.105 . S
O62 C53 1.268 . S
O63 Sc44 2.105 . S
O63 C49 1.268 . S
O64 Sc46 2.105 . S
O64 C48 1.268 . S
O65 Sc45 2.105 . S
O65 C50 1.268 . S
Sc66 O69 2.025 . S
Sc66 O76 2.105 . S
Sc66 O79 2.105 . S
Sc66 O82 2.105 . S
Sc66 O85 2.105 . S
Sc67 O69 2.025 . S
Sc67 O77 2.105 . S
Sc67 O81 2.105 . S
Sc67 O83 2.105 . S
Sc67 O87 2.105 . S
Sc68 O69 2.025 . S
Sc68 O78 2.105 . S
Sc68 O80 2.105 . S
Sc68 O84 2.105 . S
Sc68 O86 2.105 . S
O69 Sc66 2.025 . S
O69 Sc67 2.025 . S
O69 Sc68 2.025 . S
C70 O76 1.268 . S
C70 O86 1.268 . S
C71 O77 1.268 . S
C71 O85 1.268 . S
C72 O78 1.268 . S
C72 O87 1.268 . S
C73 O79 1.268 . S
C73 O83 1.268 . S
C74 O80 1.268 . S
C74 O82 1.268 . S
C75 O81 1.268 . S
C75 O84 1.268 . S
O76 Sc66 2.105 . S
O76 C70 1.268 . S
O77 Sc67 2.105 . S
O77 C71 1.268 . S
O78 Sc68 2.105 . S
O78 C72 1.268 . S
O79 Sc66 2.105 . S
O79 C73 1.268 . S
O80 Sc68 2.105 . S
O80 C74 1.268 . S
O81 Sc67 2.105 . S
O81 C75 1.268 . S
O82 Sc66 2.105 . S
O82 C74 1.268 . S
O83 Sc67 2.105 . S
O83 C73 1.268 . S
O84 Sc68 2.105 . S
O84 C75 1.268 . S
O85 Sc66 2.105 . S
O85 C71 1.268 . S
O86 Sc68 2.105 . S
O86 C70 1.268 . S
O87 Sc67 2.105 . S
O87 C72 1.268 . S
Sc88 O91 2.025 . S
Sc88 O98 2.105 . S
Sc88 O101 2.105 . S
Sc88 O104 2.105 . S
Sc88 O107 2.105 . S
Sc89 O91 2.025 . S
Sc89 O99 2.105 . S
Sc89 O103 2.105 . S
Sc89 O105 2.105 . S
Sc89 O109 2.105 . S
Sc90 O91 2.038 . S
Sc90 O100 2.099 1_556 S
Sc90 O102 2.110 . S
Sc90 O106 2.107 . S
Sc90 O108 2.101 1_556 S
O91 Sc88 2.025 . S
O91 Sc89 2.025 . S
O91 Sc90 2.038 . S
C92 O98 1.268 . S
C92 O108 1.268 1_556 S
C93 O99 1.268 . S
C93 O107 1.268 . S
C94 O100 1.268 . S
C94 O109 1.268 1_554 S
C95 O101 1.268 . S
C95 O105 1.268 . S
C96 O102 1.268 . S
C96 O104 1.268 . S
C97 O103 1.268 . S
C97 O106 1.268 . S
O98 Sc88 2.105 . S
O98 C92 1.268 . S
O99 Sc89 2.105 . S
O99 C93 1.268 . S
O100 Sc90 2.099 1_554 S
O100 C94 1.268 . S
O101 Sc88 2.105 . S
O101 C95 1.268 . S
O102 Sc90 2.110 . S
O102 C96 1.268 . S
O103 Sc89 2.105 . S
O103 C97 1.268 . S
O104 Sc88 2.105 . S
O104 C96 1.268 . S
O105 Sc89 2.105 . S
O105 C95 1.268 . S
O106 Sc90 2.107 . S
O106 C97 1.268 . S
O107 Sc88 2.105 . S
O107 C93 1.268 . S
O108 Sc90 2.101 1_554 S
O108 C92 1.268 1_554 S
O109 Sc89 2.105 . S
O109 C94 1.268 1_556 S
Sc110 O113 2.025 . S
Sc110 O120 2.105 . S
Sc110 O123 2.105 . S
Sc110 O126 2.105 . S
Sc110 O129 2.105 . S
Sc111 O113 2.025 . S
Sc111 O121 2.105 . S
Sc111 O125 2.105 . S
Sc111 O127 2.105 . S
Sc111 O131 2.105 . S
Sc112 O113 2.038 . S
Sc112 O122 2.099 1_556 S
Sc112 O124 2.110 . S
Sc112 O128 2.107 . S
Sc112 O130 2.101 1_556 S
O113 Sc110 2.025 . S
O113 Sc111 2.025 . S
O113 Sc112 2.038 . S
C114 O120 1.268 . S
C114 O130 1.268 1_556 S
C115 O121 1.268 . S
C115 O129 1.268 . S
C116 O122 1.268 . S
C116 O131 1.268 1_554 S
C117 O123 1.268 . S
C117 O127 1.268 . S
C118 O124 1.268 . S
C118 O126 1.268 . S
C119 O125 1.268 . S
C119 O128 1.268 . S
O120 Sc110 2.105 . S
O120 C114 1.268 . S
O121 Sc111 2.105 . S
O121 C115 1.268 . S
O122 Sc112 2.099 1_554 S
O122 C116 1.268 . S
O123 Sc110 2.105 . S
O123 C117 1.268 . S
O124 Sc112 2.110 . S
O124 C118 1.268 . S
O125 Sc111 2.105 . S
O125 C119 1.268 . S
O126 Sc110 2.105 . S
O126 C118 1.268 . S
O127 Sc111 2.105 . S
O127 C117 1.268 . S
O128 Sc112 2.107 . S
O128 C119 1.268 . S
O129 Sc110 2.105 . S
O129 C115 1.268 . S
O130 Sc112 2.101 1_554 S
O130 C114 1.268 1_554 S
O131 Sc111 2.105 . S
O131 C116 1.268 1_556 S
Sc132 O135 2.025 . S
Sc132 O142 2.105 . S
Sc132 O145 2.105 . S
Sc132 O148 2.105 . S
Sc132 O151 2.105 . S
Sc133 O135 2.025 . S
Sc133 O143 2.105 . S
Sc133 O147 2.105 . S
Sc133 O149 2.105 . S
Sc133 O153 2.105 . S
Sc134 O135 2.025 . S
Sc134 O144 2.105 . S
Sc134 O146 2.105 . S
Sc134 O150 2.105 . S
Sc134 O152 2.105 . S
O135 Sc132 2.025 . S
O135 Sc133 2.025 . S
O135 Sc134 2.025 . S
C136 O142 1.268 . S
C136 O152 1.268 . S
C137 O143 1.268 . S
C137 O151 1.268 . S
C138 O144 1.268 . S
C138 O153 1.268 . S
C139 O145 1.268 . S
C139 O149 1.268 . S
C140 O146 1.268 . S
C140 O148 1.268 . S
C141 O147 1.268 . S
C141 O150 1.268 . S
O142 Sc132 2.105 . S
O142 C136 1.268 . S
O143 Sc133 2.105 . S
O143 C137 1.268 . S
O144 Sc134 2.105 . S
O144 C138 1.268 . S
O145 Sc132 2.105 . S
O145 C139 1.268 . S
O146 Sc134 2.105 . S
O146 C140 1.268 . S
O147 Sc133 2.105 . S
O147 C141 1.268 . S
O148 Sc132 2.105 . S
O148 C140 1.268 . S
O149 Sc133 2.105 . S
O149 C139 1.268 . S
O150 Sc134 2.105 . S
O150 C141 1.268 . S
O151 Sc132 2.105 . S
O151 C137 1.268 . S
O152 Sc134 2.105 . S
O152 C136 1.268 . S
O153 Sc133 2.105 . S
O153 C138 1.268 . S
Sc154 O157 2.025 . S
Sc154 O164 2.105 . S
Sc154 O167 2.105 . S
Sc154 O170 2.105 . S
Sc154 O173 2.105 . S
Sc155 O157 2.025 . S
Sc155 O165 2.105 . S
Sc155 O169 2.105 . S
Sc155 O171 2.105 . S
Sc155 O175 2.105 . S
Sc156 O157 2.025 . S
Sc156 O166 2.105 . S
Sc156 O168 2.105 . S
Sc156 O172 2.105 . S
Sc156 O174 2.105 . S
O157 Sc154 2.025 . S
O157 Sc155 2.025 . S
O157 Sc156 2.025 . S
C158 O164 1.268 . S
C158 O174 1.268 . S
C159 O165 1.268 . S
C159 O173 1.268 . S
C160 O166 1.268 . S
C160 O175 1.268 . S
C161 O167 1.268 . S
C161 O171 1.268 . S
C162 O168 1.268 . S
C162 O170 1.268 . S
C163 O169 1.268 . S
C163 O172 1.268 . S
O164 Sc154 2.105 . S
O164 C158 1.268 . S
O165 Sc155 2.105 . S
O165 C159 1.268 . S
O166 Sc156 2.105 . S
O166 C160 1.268 . S
O167 Sc154 2.105 . S
O167 C161 1.268 . S
O168 Sc156 2.105 . S
O168 C162 1.268 . S
O169 Sc155 2.105 . S
O169 C163 1.268 . S
O170 Sc154 2.105 . S
O170 C162 1.268 . S
O171 Sc155 2.105 . S
O171 C161 1.268 . S
O172 Sc156 2.105 . S
O172 C163 1.268 . S
O173 Sc154 2.105 . S
O173 C159 1.268 . S
O174 Sc156 2.105 . S
O174 C158 1.268 . S
O175 Sc155 2.105 . S
O175 C160 1.268 . S
Sc176 O179 2.025 . S
Sc176 O186 2.105 . S
Sc176 O189 2.105 . S
Sc176 O192 2.105 1_565 S
Sc176 O195 2.105 . S
Sc177 O179 2.025 . S
Sc177 O187 2.105 . S
Sc177 O191 2.105 . S
Sc177 O193 2.105 . S
Sc177 O197 2.105 . S
Sc178 O179 2.038 . S
Sc178 O188 2.107 . S
Sc178 O190 2.101 1_554 S
Sc178 O194 2.099 1_554 S
Sc178 O196 2.110 . S
O179 Sc176 2.025 . S
O179 Sc177 2.025 . S
O179 Sc178 2.038 . S
C180 O186 1.268 . S
C180 O196 1.268 . S
C181 O187 1.268 . S
C181 O195 1.268 . S
C182 O188 1.268 . S
C182 O197 1.268 . S
C183 O189 1.268 . S
C183 O193 1.268 . S
C184 O190 1.268 1_554 S
C184 O192 1.268 1_565 S
C185 O191 1.268 1_556 S
C185 O194 1.268 . S
O186 Sc176 2.105 . S
O186 C180 1.268 . S
O187 Sc177 2.105 . S
O187 C181 1.268 . S
O188 Sc178 2.107 . S
O188 C182 1.268 . S
O189 Sc176 2.105 . S
O189 C183 1.268 . S
O190 Sc178 2.101 1_556 S
O190 C184 1.268 1_556 S
O191 Sc177 2.105 . S
O191 C185 1.268 1_554 S
O192 Sc176 2.105 1_545 S
O192 C184 1.268 1_545 S
O193 Sc177 2.105 . S
O193 C183 1.268 . S
O194 Sc178 2.099 1_556 S
O194 C185 1.268 . S
O195 Sc176 2.105 . S
O195 C181 1.268 . S
O196 Sc178 2.110 . S
O196 C180 1.268 . S
O197 Sc177 2.105 . S
O197 C182 1.268 . S
Sc198 O201 2.038 . S
Sc198 O208 2.101 1_554 S
Sc198 O211 2.107 . S
Sc198 O214 2.110 . S
Sc198 O217 2.099 1_554 S
Sc199 O201 2.025 . S
Sc199 O209 2.105 . S
Sc199 O213 2.105 . S
Sc199 O215 2.105 . S
Sc199 O219 2.105 . S
Sc200 O201 2.025 . S
Sc200 O210 2.105 . S
Sc200 O212 2.105 . S
Sc200 O216 2.105 . S
Sc200 O218 2.105 1_545 S
O201 Sc198 2.038 . S
O201 Sc199 2.025 . S
O201 Sc200 2.025 . S
C202 O208 1.268 1_554 S
C202 O218 1.268 1_545 S
C203 O209 1.268 1_556 S
C203 O217 1.268 . S
C204 O210 1.268 . S
C204 O219 1.268 . S
C205 O211 1.268 . S
C205 O215 1.268 . S
C206 O212 1.268 . S
C206 O214 1.268 . S
C207 O213 1.268 . S
C207 O216 1.268 . S
O208 Sc198 2.101 1_556 S
O208 C202 1.268 1_556 S
O209 Sc199 2.105 . S
O209 C203 1.268 1_554 S
O210 Sc200 2.105 . S
O210 C204 1.268 . S
O211 Sc198 2.107 . S
O211 C205 1.268 . S
O212 Sc200 2.105 . S
O212 C206 1.268 . S
O213 Sc199 2.105 . S
O213 C207 1.268 . S
O214 Sc198 2.110 . S
O214 C206 1.268 . S
O215 Sc199 2.105 . S
O215 C205 1.268 . S
O216 Sc200 2.105 . S
O216 C207 1.268 . S
O217 Sc198 2.099 1_556 S
O217 C203 1.268 . S
O218 Sc200 2.105 1_565 S
O218 C202 1.268 1_565 S
O219 Sc199 2.105 . S
O219 C204 1.268 . S
Sc220 O223 2.025 . S
Sc220 O230 2.105 . S
Sc220 O233 2.105 . S
Sc220 O236 2.105 1_545 S
Sc220 O239 2.105 . S
Sc221 O223 2.025 . S
Sc221 O231 2.105 . S
Sc221 O235 2.105 . S
Sc221 O237 2.105 . S
Sc221 O241 2.105 . S
Sc222 O223 2.025 . S
Sc222 O232 2.105 . S
Sc222 O234 2.105 . S
Sc222 O238 2.105 . S
Sc222 O240 2.105 . S
O223 Sc220 2.025 . S
O223 Sc221 2.025 . S
O223 Sc222 2.025 . S
C224 O230 1.268 . S
C224 O240 1.268 . S
C225 O231 1.268 . S
C225 O239 1.268 . S
C226 O232 1.268 . S
C226 O241 1.268 . S
C227 O233 1.268 . S
C227 O237 1.268 . S
C228 O234 1.268 . S
C228 O236 1.268 1_545 S
C229 O235 1.268 . S
C229 O238 1.268 . S
O230 Sc220 2.105 . S
O230 C224 1.268 . S
O231 Sc221 2.105 . S
O231 C225 1.268 . S
O232 Sc222 2.105 . S
O232 C226 1.268 . S
O233 Sc220 2.105 . S
O233 C227 1.268 . S
O234 Sc222 2.105 . S
O234 C228 1.268 . S
O235 Sc221 2.105 . S
O235 C229 1.268 . S
O236 Sc220 2.105 1_565 S
O236 C228 1.268 1_565 S
O237 Sc221 2.105 . S
O237 C227 1.268 . S
O238 Sc222 2.105 . S
O238 C229 1.268 . S
O239 Sc220 2.105 . S
O239 C225 1.268 . S
O240 Sc222 2.105 . S
O240 C224 1.268 . S
O241 Sc221 2.105 . S
O241 C226 1.268 . S
Sc242 O245 2.025 . S
Sc242 O252 2.105 . S
Sc242 O255 2.105 . S
Sc242 O258 2.105 1_565 S
Sc242 O261 2.105 . S
Sc243 O245 2.025 . S
Sc243 O253 2.105 . S
Sc243 O257 2.105 . S
Sc243 O259 2.105 . S
Sc243 O263 2.105 . S
Sc244 O245 2.025 . S
Sc244 O254 2.105 . S
Sc244 O256 2.105 . S
Sc244 O260 2.105 . S
Sc244 O262 2.105 . S
O245 Sc242 2.025 . S
O245 Sc243 2.025 . S
O245 Sc244 2.025 . S
C246 O252 1.268 . S
C246 O262 1.268 . S
C247 O253 1.268 . S
C247 O261 1.268 . S
C248 O254 1.268 . S
C248 O263 1.268 . S
C249 O255 1.268 . S
C249 O259 1.268 . S
C250 O256 1.268 . S
C250 O258 1.268 1_565 S
C251 O257 1.268 . S
C251 O260 1.268 . S
O252 Sc242 2.105 . S
O252 C246 1.268 . S
O253 Sc243 2.105 . S
O253 C247 1.268 . S
O254 Sc244 2.105 . S
O254 C248 1.268 . S
O255 Sc242 2.105 . S
O255 C249 1.268 . S
O256 Sc244 2.105 . S
O256 C250 1.268 . S
O257 Sc243 2.105 . S
O257 C251 1.268 . S
O258 Sc242 2.105 1_545 S
O258 C250 1.268 1_545 S
O259 Sc243 2.105 . S
O259 C249 1.268 . S
O260 Sc244 2.105 . S
O260 C251 1.268 . S
O261 Sc242 2.105 . S
O261 C247 1.268 . S
O262 Sc244 2.105 . S
O262 C246 1.268 . S
O263 Sc243 2.105 . S
O263 C248 1.268 . S
Sc264 O267 2.025 . S
Sc264 O274 2.105 1_545 S
Sc264 O277 2.105 . S
Sc264 O280 2.105 . S
Sc264 O283 2.105 . S
Sc265 O267 2.025 . S
Sc265 O275 2.105 . S
Sc265 O279 2.105 . S
Sc265 O281 2.105 . S
Sc265 O285 2.105 . S
Sc266 O267 2.038 . S
Sc266 O276 2.099 1_556 S
Sc266 O278 2.110 . S
Sc266 O282 2.107 . S
Sc266 O284 2.101 1_556 S
O267 Sc264 2.025 . S
O267 Sc265 2.025 . S
O267 Sc266 2.038 . S
C268 O274 1.268 1_545 S
C268 O284 1.268 1_556 S
C269 O275 1.268 . S
C269 O283 1.268 . S
C270 O276 1.268 . S
C270 O285 1.268 1_554 S
C271 O277 1.268 . S
C271 O281 1.268 . S
C272 O278 1.268 . S
C272 O280 1.268 . S
C273 O279 1.268 . S
C273 O282 1.268 . S
O274 Sc264 2.105 1_565 S
O274 C268 1.268 1_565 S
O275 Sc265 2.105 . S
O275 C269 1.268 . S
O276 Sc266 2.099 1_554 S
O276 C270 1.268 . S
O277 Sc264 2.105 . S
O277 C271 1.268 . S
O278 Sc266 2.110 . S
O278 C272 1.268 . S
O279 Sc265 2.105 . S
O279 C273 1.268 . S
O280 Sc264 2.105 . S
O280 C272 1.268 . S
O281 Sc265 2.105 . S
O281 C271 1.268 . S
O282 Sc266 2.107 . S
O282 C273 1.268 . S
O283 Sc264 2.105 . S
O283 C269 1.268 . S
O284 Sc266 2.101 1_554 S
O284 C268 1.268 1_554 S
O285 Sc265 2.105 . S
O285 C270 1.268 1_556 S
Sc286 O289 2.025 . S
Sc286 O296 2.105 1_565 S
Sc286 O299 2.105 . S
Sc286 O302 2.105 . S
Sc286 O305 2.105 . S
Sc287 O289 2.025 . S
Sc287 O297 2.105 . S
Sc287 O301 2.105 . S
Sc287 O303 2.105 . S
Sc287 O307 2.105 . S
Sc288 O289 2.038 . S
Sc288 O298 2.099 1_556 S
Sc288 O300 2.110 . S
Sc288 O304 2.107 . S
Sc288 O306 2.101 1_556 S
O289 Sc286 2.025 . S
O289 Sc287 2.025 . S
O289 Sc288 2.038 . S
C290 O296 1.268 1_565 S
C290 O306 1.268 1_556 S
C291 O297 1.268 . S
C291 O305 1.268 . S
C292 O298 1.268 . S
C292 O307 1.268 1_554 S
C293 O299 1.268 . S
C293 O303 1.268 . S
C294 O300 1.268 . S
C294 O302 1.268 . S
C295 O301 1.268 . S
C295 O304 1.268 . S
O296 Sc286 2.105 1_545 S
O296 C290 1.268 1_545 S
O297 Sc287 2.105 . S
O297 C291 1.268 . S
O298 Sc288 2.099 1_554 S
O298 C292 1.268 . S
O299 Sc286 2.105 . S
O299 C293 1.268 . S
O300 Sc288 2.110 . S
O300 C294 1.268 . S
O301 Sc287 2.105 . S
O301 C295 1.268 . S
O302 Sc286 2.105 . S
O302 C294 1.268 . S
O303 Sc287 2.105 . S
O303 C293 1.268 . S
O304 Sc288 2.107 . S
O304 C295 1.268 . S
O305 Sc286 2.105 . S
O305 C291 1.268 . S
O306 Sc288 2.101 1_554 S
O306 C290 1.268 1_554 S
O307 Sc287 2.105 . S
O307 C292 1.268 1_556 S
Sc308 O311 2.025 . S
Sc308 O318 2.105 . S
Sc308 O321 2.105 . S
Sc308 O324 2.105 . S
Sc308 O327 2.105 . S
Sc309 O311 2.025 . S
Sc309 O319 2.105 . S
Sc309 O323 2.105 . S
Sc309 O325 2.105 . S
Sc309 O329 2.105 . S
Sc310 O311 2.025 . S
Sc310 O320 2.105 . S
Sc310 O322 2.105 1_565 S
Sc310 O326 2.105 . S
Sc310 O328 2.105 . S
O311 Sc308 2.025 . S
O311 Sc309 2.025 . S
O311 Sc310 2.025 . S
C312 O318 1.268 . S
C312 O328 1.268 . S
C313 O319 1.268 . S
C313 O327 1.268 . S
C314 O320 1.268 . S
C314 O329 1.268 . S
C315 O321 1.268 . S
C315 O325 1.268 . S
C316 O322 1.268 1_565 S
C316 O324 1.268 . S
C317 O323 1.268 . S
C317 O326 1.268 . S
O318 Sc308 2.105 . S
O318 C312 1.268 . S
O319 Sc309 2.105 . S
O319 C313 1.268 . S
O320 Sc310 2.105 . S
O320 C314 1.268 . S
O321 Sc308 2.105 . S
O321 C315 1.268 . S
O322 Sc310 2.105 1_545 S
O322 C316 1.268 1_545 S
O323 Sc309 2.105 . S
O323 C317 1.268 . S
O324 Sc308 2.105 . S
O324 C316 1.268 . S
O325 Sc309 2.105 . S
O325 C315 1.268 . S
O326 Sc310 2.105 . S
O326 C317 1.268 . S
O327 Sc308 2.105 . S
O327 C313 1.268 . S
O328 Sc310 2.105 . S
O328 C312 1.268 . S
O329 Sc309 2.105 . S
O329 C314 1.268 . S
Sc330 O333 2.025 . S
Sc330 O340 2.105 1_545 S
Sc330 O343 2.105 . S
Sc330 O346 2.105 . S
Sc330 O349 2.105 . S
Sc331 O333 2.025 . S
Sc331 O341 2.105 . S
Sc331 O345 2.105 . S
Sc331 O347 2.105 . S
Sc331 O351 2.105 . S
Sc332 O333 2.025 . S
Sc332 O342 2.105 . S
Sc332 O344 2.105 . S
Sc332 O348 2.105 . S
Sc332 O350 2.105 . S
O333 Sc330 2.025 . S
O333 Sc331 2.025 . S
O333 Sc332 2.025 . S
C334 O340 1.268 1_545 S
C334 O350 1.268 . S
C335 O341 1.268 . S
C335 O349 1.268 . S
C336 O342 1.268 . S
C336 O351 1.268 . S
C337 O343 1.268 . S
C337 O347 1.268 . S
C338 O344 1.268 . S
C338 O346 1.268 . S
C339 O345 1.268 . S
C339 O348 1.268 . S
O340 Sc330 2.105 1_565 S
O340 C334 1.268 1_565 S
O341 Sc331 2.105 . S
O341 C335 1.268 . S
O342 Sc332 2.105 . S
O342 C336 1.268 . S
O343 Sc330 2.105 . S
O343 C337 1.268 . S
O344 Sc332 2.105 . S
O344 C338 1.268 . S
O345 Sc331 2.105 . S
O345 C339 1.268 . S
O346 Sc330 2.105 . S
O346 C338 1.268 . S
O347 Sc331 2.105 . S
O347 C337 1.268 . S
O348 Sc332 2.105 . S
O348 C339 1.268 . S
O349 Sc330 2.105 . S
O349 C335 1.268 . S
O350 Sc332 2.105 . S
O350 C334 1.268 . S
O351 Sc331 2.105 . S
O351 C336 1.268 . S
C6 C290 1.812 1_544 S
C268 C29 1.812 1_546 S
C334 C50 1.812 1_545 S
C316 C72 1.812 1_565 S
C202 C97 1.812 1_544 S
C119 C184 1.812 1_546 S
C250 C137 1.812 1_565 S
C163 C228 1.812 1_565 S
C114 C182 1.812 1_556 S
C205 C92 1.812 1_554 S
C158 C226 1.812 . S
C140 C248 1.812 . S
C273 C26 1.812 1_556 S
C8 C295 1.812 1_554 S
C313 C74 1.812 . S
C52 C339 1.812 . S
C225 C5 1.414 . S
C31 C247 1.414 . S
C181 C49 1.414 . S
C207 C71 1.414 . S
C314 C95 1.414 . S
C117 C337 1.414 . S
C138 C271 1.414 . S
C293 C161 1.414 . S
C7 C28 1.987 . S
C51 C73 1.987 . S
C93 C115 1.987 . S
C159 C141 1.987 . S
C204 C183 1.987 1_545 S
C227 C249 1.987 1_545 S
C291 C269 1.987 1_565 S
C317 C335 1.987 1_565 S
C270 C9 1.631 1_554 S
C27 C292 1.631 1_556 S
C53 C315 1.631 . S
C75 C336 1.631 . S
C94 C185 1.631 1_554 S
C116 C203 1.631 1_554 S
C139 C229 1.631 . S
C251 C160 1.631 . S
C4 C206 1.951 1_455 S
C30 C180 1.951 . S
C246 C48 1.951 . S
C224 C70 1.951 1_455 S
C96 C294 1.951 1_655 S
C118 C272 1.951 . S
C338 C136 1.951 . S
C162 C312 1.951 1_455 S
