# Generated by pormake.
# Topology wje, (4)-cn, num edge types: 1
# Building blocks:
#     Node 0, Type 0, BuildingBlock: UXUYUI_clean_sbu_0, # of connection points: 4
#     Node 1, Type 0, BuildingBlock: UXUYUI_clean_sbu_0, # of connection points: 4
#     Node 2, Type 0, BuildingBlock: UXUYUI_clean_sbu_0, # of connection points: 4
#     Node 3, Type 0, BuildingBlock: UXUYUI_clean_sbu_0, # of connection points: 4
#     Node 4, Type 0, BuildingBlock: UXUYUI_clean_sbu_0, # of connection points: 4
#     Node 5, Type 0, BuildingBlock: UXUYUI_clean_sbu_0, # of connection points: 4
#     Node 6, Type 0, BuildingBlock: UXUYUI_clean_sbu_0, # of connection points: 4
#     Node 7, Type 0, BuildingBlock: UXUYUI_clean_sbu_0, # of connection points: 4
#     Node 8, Type 0, BuildingBlock: UXUYUI_clean_sbu_0, # of connection points: 4
#     Node 9, Type 0, BuildingBlock: UXUYUI_clean_sbu_0, # of connection points: 4
#     Node 10, Type 0, BuildingBlock: UXUYUI_clean_sbu_0, # of connection points: 4
#     Node 11, Type 0, BuildingBlock: UXUYUI_clean_sbu_0, # of connection points: 4
#     Edge 12, Type (0, 0), BuildingBlock: UVAHIK_clean_linker_0, # of connection points: 2
#     Edge 13, Type (0, 0), BuildingBlock: UVAHIK_clean_linker_0, # of connection points: 2
#     Edge 14, Type (0, 0), BuildingBlock: UVAHIK_clean_linker_0, # of connection points: 2
#     Edge 15, Type (0, 0), BuildingBlock: UVAHIK_clean_linker_0, # of connection points: 2
#     Edge 16, Type (0, 0), BuildingBlock: UVAHIK_clean_linker_0, # of connection points: 2
#     Edge 17, Type (0, 0), BuildingBlock: UVAHIK_clean_linker_0, # of connection points: 2
#     Edge 18, Type (0, 0), BuildingBlock: UVAHIK_clean_linker_0, # of connection points: 2
#     Edge 19, Type (0, 0), BuildingBlock: UVAHIK_clean_linker_0, # of connection points: 2
#     Edge 20, Type (0, 0), BuildingBlock: UVAHIK_clean_linker_0, # of connection points: 2
#     Edge 21, Type (0, 0), BuildingBlock: UVAHIK_clean_linker_0, # of connection points: 2
#     Edge 22, Type (0, 0), BuildingBlock: UVAHIK_clean_linker_0, # of connection points: 2
#     Edge 23, Type (0, 0), BuildingBlock: UVAHIK_clean_linker_0, # of connection points: 2
#     Edge 24, Type (0, 0), BuildingBlock: UVAHIK_clean_linker_0, # of connection points: 2
#     Edge 25, Type (0, 0), BuildingBlock: UVAHIK_clean_linker_0, # of connection points: 2
#     Edge 26, Type (0, 0), BuildingBlock: UVAHIK_clean_linker_0, # of connection points: 2
#     Edge 27, Type (0, 0), BuildingBlock: UVAHIK_clean_linker_0, # of connection points: 2
#     Edge 28, Type (0, 0), BuildingBlock: UVAHIK_clean_linker_0, # of connection points: 2
#     Edge 29, Type (0, 0), BuildingBlock: UVAHIK_clean_linker_0, # of connection points: 2
#     Edge 30, Type (0, 0), BuildingBlock: UVAHIK_clean_linker_0, # of connection points: 2
#     Edge 31, Type (0, 0), BuildingBlock: UVAHIK_clean_linker_0, # of connection points: 2
#     Edge 32, Type (0, 0), BuildingBlock: UVAHIK_clean_linker_0, # of connection points: 2
#     Edge 33, Type (0, 0), BuildingBlock: UVAHIK_clean_linker_0, # of connection points: 2
#     Edge 34, Type (0, 0), BuildingBlock: UVAHIK_clean_linker_0, # of connection points: 2
#     Edge 35, Type (0, 0), BuildingBlock: UVAHIK_clean_linker_0, # of connection points: 2
# Relax obj value: 0.245
# Max RMSD: 0.179
# Mean RMSD: 0.178
data_MOF--net-wje--node1-UXUYUI_clean_sbu_0--edge1-UVAHIK_clean_linker_0
_symmetry_space_group_name_H-M    P1
_symmetry_Int_Tables_number       1
_symmetry_cell_setting            triclinic
loop_
_symmetry_equiv_pos_as_xyz
'x, y, z'
_cell_length_a     74.560679
_cell_length_b     74.577926
_cell_length_c     57.992736
_cell_angle_alpha  89.981335
_cell_angle_beta   90.010285
_cell_angle_gamma 119.97933
loop_
_atom_site_label
_atom_site_type_symbol
_atom_site_fract_x
_atom_site_fract_y
_atom_site_fract_z
_atom_type_partial_charge
Li0 Li 0.33909 -0.00043 0.25893 0.0
Li1 Li 0.32623 0.01189 0.29228 0.0
Li2 Li 0.30219 0.98613 0.26562 0.0
Li3 Li 0.32172 0.02085 0.25381 0.0
C4 C 0.31254 0.96519 0.29522 0.0
N5 N 0.29021 0.92572 0.31325 0.0
C6 C 0.2996 0.96138 0.31423 0.0
C7 C 0.31427 0.94897 0.28548 0.0
C8 C 0.28838 0.9413 0.32304 0.0
C9 C 0.30283 0.92912 0.29485 0.0
C10 C 0.36453 0.04228 0.2831 0.0
C11 C 0.37911 0.07067 0.31013 0.0
N12 N 0.3966 0.0693 0.31133 0.0
C13 C 0.38273 0.04127 0.28447 0.0
C14 C 0.36277 0.05721 0.29589 0.0
C15 C 0.39873 0.05502 0.29889 0.0
C16 C 0.36928 -0.001 0.22906 0.0
N17 N 0.36049 0.99428 0.25035 0.0
C18 C 0.38414 0.98357 0.26293 0.0
C19 C 0.36749 0.98665 0.26715 0.0
C20 C 0.3937 0.98833 0.24115 0.0
C21 C 0.38597 0.99603 0.22402 0.0
H22 H 0.36347 0.00524 0.21611 0.0
H23 H 0.36048 0.9835 0.28408 0.0
C24 C 0.31391 0.01693 0.33616 0.0
N25 N 0.33002 0.01777 0.32433 0.0
C26 C 0.31407 0.01725 0.36021 0.0
C27 C 0.34789 0.02028 0.35944 0.0
C28 C 0.34686 0.01946 0.3354 0.0
C29 C 0.33108 0.01859 0.37227 0.0
H30 H 0.30038 0.01482 0.32696 0.0
H31 H 0.35916 0.01939 0.32562 0.0
C32 C 0.30555 0.97983 0.22163 0.0
N33 N 0.28112 0.94696 0.19292 0.0
C34 C 0.28622 0.97647 0.2144 0.0
C35 C 0.31247 0.96649 0.2142 0.0
C36 C 0.27408 0.95974 0.19992 0.0
C37 C 0.2999 0.94997 0.19968 0.0
C38 C 0.29186 0.02138 0.27575 0.0
C39 C 0.27471 0.01435 0.26119 0.0
C40 C 0.29981 0.04063 0.28653 0.0
C41 C 0.26595 0.02686 0.25741 0.0
C42 C 0.29065 0.0527 0.28227 0.0
N43 N 0.27407 0.04563 0.2679 0.0
C44 C 0.26153 0.96233 0.2805 0.0
C45 C 0.27246 0.94268 0.25864 0.0
C46 C 0.24326 0.94449 0.28654 0.0
N47 N 0.27581 0.96116 0.267 0.0
C48 C 0.25434 0.92437 0.26432 0.0
C49 C 0.23965 0.92512 0.27885 0.0
H50 H 0.26482 0.97699 0.28775 0.0
H51 H 0.28429 0.94195 0.24866 0.0
C52 C 0.33659 0.06241 0.24105 0.0
N53 N 0.32216 0.04257 0.23591 0.0
C54 C 0.33648 0.07886 0.22975 0.0
C55 C 0.30693 0.05417 0.20761 0.0
C56 C 0.30771 0.03819 0.21926 0.0
C57 C 0.32131 0.07487 0.21299 0.0
H58 H 0.34806 0.06549 0.25415 0.0
H59 H 0.29641 0.0223 0.21548 0.0
O60 O 0.32316 0.9846 0.28591 0.0
O61 O 0.34865 0.02887 0.26914 0.0
O62 O 0.31774 0.9962 0.23567 0.0
O63 O 0.30098 0.00959 0.27921 0.0
H64 H 0.29798 0.97373 0.32185 0.0
H65 H 0.32406 0.95162 0.27061 0.0
H66 H 0.27816 0.93808 0.33761 0.0
H67 H 0.3039 0.91638 0.2874 0.0
H68 H 0.37786 0.08218 0.32025 0.0
H69 H 0.38455 0.03006 0.27448 0.0
H70 H 0.34884 0.05825 0.29506 0.0
H71 H 0.41287 0.05436 0.30016 0.0
H72 H 0.38984 0.97811 0.27687 0.0
H73 H 0.39276 -0.00021 0.20696 0.0
H74 H 0.30051 0.01539 0.36916 0.0
H75 H 0.36148 0.02165 0.36783 0.0
H76 H 0.28049 0.98645 0.22017 0.0
H77 H 0.32731 0.96875 0.2197 0.0
H78 H 0.25904 0.95689 0.19432 0.0
H79 H 0.30504 0.9395 0.19385 0.0
H80 H 0.26837 -0.00049 0.25267 0.0
H81 H 0.31297 0.04624 0.29798 0.0
H82 H 0.25277 0.02168 0.24604 0.0
H83 H 0.29674 0.06769 0.29037 0.0
H84 H 0.23263 0.94579 0.29822 0.0
H85 H 0.25217 0.90975 0.25801 0.0
H86 H 0.34815 0.09454 0.23413 0.0
H87 H 0.29483 0.05034 0.19499 0.0
Li88 Li 0.33632 0.33895 0.59461 0.0
Li89 Li 0.31223 0.32761 0.62839 0.0
Li90 Li 0.31416 0.30115 0.6049 0.0
Li91 Li 0.29875 0.31996 0.59069 0.0
C92 C 0.34608 0.31551 0.63425 0.0
N93 N 0.36398 0.29536 0.65599 0.0
C94 C 0.33935 0.30695 0.65616 0.0
C95 C 0.36195 0.31388 0.62342 0.0
C96 C 0.3486 0.29682 0.66687 0.0
C97 C 0.3708 0.30362 0.6347 0.0
C98 C 0.31785 0.3638 0.61665 0.0
C99 C 0.30207 0.37851 0.64065 0.0
N100 N 0.321 0.39545 0.64424 0.0
C101 C 0.33713 0.38142 0.62044 0.0
C102 C 0.30014 0.36238 0.62669 0.0
C103 C 0.33841 0.39723 0.63449 0.0
C104 C 0.36505 0.37149 0.56537 0.0
N105 N 0.36259 0.3605 0.585 0.0
C106 C 0.39747 0.3837 0.59625 0.0
C107 C 0.37836 0.36611 0.6002 0.0
C108 C 0.40034 0.39588 0.57662 0.0
C109 C 0.384 0.38933 0.56074 0.0
H110 H 0.35209 0.36693 0.55385 0.0
H111 H 0.37584 0.35743 0.61595 0.0
C112 C 0.2943 0.3221 0.67271 0.0
N113 N 0.31115 0.33439 0.6596 0.0
C114 C 0.29526 0.32434 0.69666 0.0
C115 C 0.33057 0.35238 0.69293 0.0
C116 C 0.32896 0.34954 0.66911 0.0
C117 C 0.3138 0.33925 0.7071 0.0
H118 H 0.28057 0.30977 0.66472 0.0
H119 H 0.34229 0.35867 0.65828 0.0
C120 C 0.31037 0.30743 0.55344 0.0
N121 N 0.29108 0.2932 0.51136 0.0
C122 C 0.29976 0.28623 0.54867 0.0
C123 C 0.31134 0.32142 0.53677 0.0
C124 C 0.29009 0.27934 0.52728 0.0
C125 C 0.30141 0.31391 0.51562 0.0
C126 C 0.26883 0.28915 0.61491 0.0
C127 C 0.26018 0.26912 0.60596 0.0
C128 C 0.25594 0.29699 0.62104 0.0
C129 C 0.23874 0.25735 0.60301 0.0
C130 C 0.23459 0.28475 0.61776 0.0
N131 N 0.2265 0.26535 0.60889 0.0
C132 C 0.30385 0.26518 0.62808 0.0
C133 C 0.32664 0.27087 0.59687 0.0
C134 C 0.30568 0.24849 0.63569 0.0
N135 N 0.31445 0.27612 0.60922 0.0
C136 C 0.32896 0.25419 0.60393 0.0
C137 C 0.31862 0.24297 0.62382 0.0
H138 H 0.29477 0.27012 0.63793 0.0
H139 H 0.33524 0.28018 0.58222 0.0
C140 C 0.27562 0.33585 0.56949 0.0
N141 N 0.27678 0.31832 0.57181 0.0
C142 C 0.25947 0.33557 0.55702 0.0
C143 C 0.24614 0.29927 0.54914 0.0
C144 C 0.26262 0.30029 0.56163 0.0
C145 C 0.24433 0.31704 0.54688 0.0
H146 H 0.28711 0.35004 0.57754 0.0
H147 H 0.26397 0.28661 0.56336 0.0
O148 O 0.33671 0.32484 0.62311 0.0
O149 O 0.31628 0.34798 0.60325 0.0
O150 O 0.31986 0.31443 0.5743 0.0
O151 O 0.28978 0.30092 0.61789 0.0
H152 H 0.3269 0.30781 0.66469 0.0
H153 H 0.36715 0.32019 0.60633 0.0
H154 H 0.34346 0.29001 0.68376 0.0
H155 H 0.383 0.30212 0.62646 0.0
H156 H 0.28851 0.37756 0.64863 0.0
H157 H 0.35099 0.38284 0.61277 0.0
H158 H 0.28509 0.34892 0.62382 0.0
H159 H 0.35324 0.4109 0.63767 0.0
H160 H 0.40973 0.38805 0.6088 0.0
H161 H 0.38551 0.3984 0.54552 0.0
H162 H 0.28206 0.31368 0.70692 0.0
H163 H 0.34507 0.3642 0.70024 0.0
H164 H 0.29885 0.2752 0.56142 0.0
H165 H 0.31941 0.33787 0.54026 0.0
H166 H 0.28173 0.26296 0.52338 0.0
H167 H 0.30188 0.32453 0.50261 0.0
H168 H 0.26993 0.26284 0.60101 0.0
H169 H 0.26236 0.3124 0.62811 0.0
H170 H 0.23185 0.24188 0.59595 0.0
H171 H 0.22444 0.29067 0.62227 0.0
H172 H 0.29779 0.24063 0.65138 0.0
H173 H 0.33904 0.2504 0.59424 0.0
H174 H 0.25857 0.34959 0.55583 0.0
H175 H 0.23496 0.28475 0.54131 0.0
Li176 Li 0.99474 0.34407 0.92505 0.0
Li177 Li 0.99029 0.32602 0.96096 0.0
Li178 Li 0.0148 0.32794 0.93162 0.0
Li179 Li 0.97734 0.30609 0.92495 0.0
C180 C 0.02245 0.37115 0.95214 0.0
N181 N 0.03531 0.41278 0.956 0.0
C182 C 0.01343 0.37793 0.96855 0.0
C183 C 0.03805 0.38555 0.93774 0.0
C184 C 0.02016 0.39905 0.97023 0.0
C185 C 0.04431 0.40652 0.93994 0.0
C186 C 0.94876 0.31256 0.94969 0.0
C187 C 0.92308 0.28145 0.96866 0.0
N188 N 0.90935 0.28837 0.96735 0.0
C189 C 0.93435 0.31931 0.9484 0.0
C190 C 0.94305 0.29345 0.9598 0.0
C191 C 0.91452 0.30689 0.95749 0.0
C192 C 0.00604 0.37795 0.89396 0.0
N193 N 0.99413 0.36721 0.91229 0.0
C194 C 0.98154 0.39083 0.91625 0.0
C195 C 0.98193 0.37319 0.92335 0.0
C196 C 0.994 0.40254 0.89772 0.0
C197 C 0.00633 0.39591 0.88644 0.0
H198 H 0.01567 0.37288 0.88557 0.0
H199 H 0.97295 0.36455 0.93814 0.0
C200 C 0.00683 0.33351 0.00418 0.0
N201 N 0.98832 0.32717 0.9937 0.0
C202 C 0.00851 0.33491 0.02807 0.0
C203 C 0.97228 0.32473 0.0302 0.0
C204 C 0.97121 0.32316 0.00612 0.0
C205 C 0.99107 0.33035 0.04137 0.0
H206 H 0.02042 0.33765 0.99388 0.0
H207 H 0.95681 0.31894 0.99752 0.0
C208 C 0.01096 0.32363 0.88731 0.0
N209 N 0.03614 0.31853 0.85625 0.0
C210 C 0.00441 0.30428 0.87733 0.0
C211 C 0.03024 0.34043 0.8814 0.0
C212 C 0.01738 0.30201 0.86167 0.0
C213 C 0.04277 0.33752 0.8657 0.0
C214 C -0.0023 0.29265 0.96621 0.0
C215 C 0.01711 0.30129 0.9768 0.0
C216 C 0.98194 0.27312 0.97327 0.0
C217 C 0.02035 0.29048 0.99445 0.0
C218 C 0.98578 0.26278 0.99098 0.0
N219 N 0.00474 0.27161 0.00114 0.0
C220 C 0.05722 0.34613 0.93931 0.0
C221 C 0.04243 0.31282 0.92236 0.0
C222 C 0.07563 0.34619 0.94356 0.0
N223 N 0.04095 0.32942 0.92943 0.0
C224 C 0.0607 0.31232 0.92605 0.0
C225 C 0.0774 0.32887 0.93754 0.0
H226 H 0.05542 0.35878 0.94551 0.0
H227 H 0.02905 0.2995 0.9151 0.0
C228 C 0.94091 0.28329 0.8998 0.0
N229 N 0.95582 0.28168 0.9115 0.0
C230 C 0.92418 0.26574 0.89025 0.0
C231 C 0.93862 0.24523 0.90476 0.0
C232 C 0.95514 0.26323 0.91395 0.0
C233 C 0.92276 0.24632 0.89283 0.0
H234 H 0.94198 0.29823 0.89805 0.0
H235 H 0.96737 0.2625 0.92315 0.0
O236 O 0.01561 0.35047 0.94971 0.0
O237 O 0.96806 0.32432 0.94033 0.0
O238 O -0.00142 0.32611 0.90287 0.0
O239 O 0.99423 0.30295 0.94872 0.0
H240 H 0.00117 0.36701 0.97964 0.0
H241 H 0.04498 0.38054 0.9247 0.0
H242 H 0.01324 0.4045 0.98277 0.0
H243 H 0.05625 0.41781 0.92879 0.0
H244 H 0.91851 0.26664 0.97658 0.0
H245 H 0.93838 0.33394 0.94035 0.0
H246 H 0.95396 0.288 0.96085 0.0
H247 H 0.90323 0.31193 0.95663 0.0
H248 H 0.97211 0.39565 0.92565 0.0
H249 H 0.01612 0.40455 0.87206 0.0
H250 H 0.02339 0.33981 0.03607 0.0
H251 H 0.95856 0.32133 0.03999 0.0
H252 H 0.98952 0.29113 0.88169 0.0
H253 H 0.03563 0.35546 0.88914 0.0
H254 H 0.01255 0.28711 0.85386 0.0
H255 H 0.0578 0.35033 0.8611 0.0
H256 H 0.02954 0.31632 0.97173 0.0
H257 H 0.96689 0.26589 0.96514 0.0
H258 H 0.03527 0.29711 0.00286 0.0
H259 H 0.97369 0.24771 0.99662 0.0
H260 H 0.08777 0.35912 0.95292 0.0
H261 H 0.0614 0.29874 0.92084 0.0
H262 H 0.91256 0.26741 0.88083 0.0
H263 H 0.9381 0.2306 0.90734 0.0
Li264 Li 0.6471 0.98976 0.26735 0.0
Li265 Li 0.66115 0.97888 0.3008 0.0
Li266 Li 0.68437 0.00595 0.27484 0.0
Li267 Li 0.66741 0.97147 0.26252 0.0
C268 C 0.67056 0.02388 0.30531 0.0
N269 N 0.68883 0.06218 0.32642 0.0
C270 C 0.68406 0.02809 0.32387 0.0
C271 C 0.66622 0.03905 0.29758 0.0
C272 C 0.6932 0.04759 0.33426 0.0
C273 C 0.67563 0.05833 0.30848 0.0
C274 C 0.62445 0.94659 0.29109 0.0
C275 C 0.61237 0.91907 0.31917 0.0
N276 N 0.59349 0.9177 0.31914 0.0
C277 C 0.60484 0.94474 0.29118 0.0
C278 C 0.62818 0.9335 0.30502 0.0
C279 C 0.58943 0.9301 0.30554 0.0
C280 C 0.61657 0.98866 0.2367 0.0
N281 N 0.6241 0.9924 0.2586 0.0
C282 C 0.59576 0.99601 0.27174 0.0
C283 C 0.61433 0.99636 0.27594 0.0
C284 C 0.58737 0.9918 0.24943 0.0
C285 C 0.59816 0.98854 0.23163 0.0
H286 H 0.62457 0.98526 0.22335 0.0
H287 H 0.62056 -0.00104 0.29324 0.0
C288 C 0.67223 0.97335 0.34549 0.0
N289 N 0.65677 0.973 0.33276 0.0
C290 C 0.67142 0.9735 0.36951 0.0
C291 C 0.63842 0.97219 0.36685 0.0
C292 C 0.63995 0.97222 0.34287 0.0
C293 C 0.65458 0.97343 0.38052 0.0
H294 H 0.68582 0.97483 0.33701 0.0
H295 H 0.62819 0.97259 0.33229 0.0
C296 C 0.68096 0.01284 0.23141 0.0
N297 N 0.70388 0.04775 0.20475 0.0
C298 C 0.70074 0.01791 0.22381 0.0
C299 C 0.67283 0.02551 0.22539 0.0
C300 C 0.7121 0.03564 0.21039 0.0
C301 C 0.68465 0.04308 0.21189 0.0
C302 C 0.69793 0.973 0.28421 0.0
C303 C 0.71413 0.9807 0.26823 0.0
C304 C 0.69208 0.9543 0.29546 0.0
C305 C 0.72405 0.9694 0.26357 0.0
C306 C 0.70238 0.94346 0.29033 0.0
N307 N 0.71799 0.95116 0.27459 0.0
C308 C 0.72492 0.03202 0.28915 0.0
C309 C 0.7106 0.05033 0.27064 0.0
C310 C 0.74209 0.05048 0.29614 0.0
N311 N 0.70943 0.0322 0.27699 0.0
C312 C 0.72754 0.06924 0.27734 0.0
C313 C 0.74326 0.0694 0.29086 0.0
H314 H 0.72346 0.01751 0.29462 0.0
H315 H 0.69781 0.05016 0.26171 0.0
C316 C 0.65849 0.93108 0.25149 0.0
N317 N 0.66897 0.95106 0.24418 0.0
C318 C 0.65963 0.91566 0.23912 0.0
C319 C 0.68218 0.94158 0.2117 0.0
C320 C 0.68055 0.95652 0.22461 0.0
C321 C 0.67162 0.92082 0.21894 0.0
H322 H 0.64943 0.92716 0.26709 0.0
H323 H 0.68864 0.97249 0.21911 0.0
O324 O 0.66193 0.00511 0.29447 0.0
O325 O 0.63978 0.96094 0.27721 0.0
O326 O 0.66957 0.99552 0.24454 0.0
O327 O 0.68763 0.98355 0.28848 0.0
H328 H 0.68772 0.01657 0.32991 0.0
H329 H 0.65591 0.03605 0.28312 0.0
H330 H 0.70383 0.05114 0.3485 0.0
H331 H 0.67252 0.07028 0.30261 0.0
H332 H 0.61514 0.90901 0.3302 0.0
H333 H 0.60146 0.95436 0.28016 0.0
H334 H 0.64322 0.93469 0.30524 0.0
H335 H 0.57421 0.92857 0.30581 0.0
H336 H 0.58783 -0.00135 0.28585 0.0
H337 H 0.59201 0.9851 0.21426 0.0
H338 H 0.68444 0.9749 0.37927 0.0
H339 H 0.62507 0.97192 0.37458 0.0
H340 H 0.70735 0.00839 0.22839 0.0
H341 H 0.65766 0.02198 0.23127 0.0
H342 H 0.72746 0.0398 0.2045 0.0
H343 H 0.67857 0.05305 0.20718 0.0
H344 H 0.71887 0.99514 0.25936 0.0
H345 H 0.67959 0.94809 0.30787 0.0
H346 H 0.73651 0.97511 0.25112 0.0
H347 H 0.69791 0.9289 0.29879 0.0
H348 H 0.75398 0.04991 0.3063 0.0
H349 H 0.72772 0.08348 0.27315 0.0
H350 H 0.65146 0.89991 0.24551 0.0
H351 H 0.6914 0.94619 0.19611 0.0
Li352 Li 0.67307 0.66799 0.62764 0.0
Li353 Li 0.65255 0.65063 0.59333 0.0
Li354 Li 0.69011 0.67012 0.59159 0.0
Li355 Li 0.67007 0.68764 0.59569 0.0
C356 C 0.6813 0.63345 0.60586 0.0
N357 N 0.70086 0.61139 0.59501 0.0
C358 C 0.67445 0.61978 0.58718 0.0
C359 C 0.698 0.63582 0.61911 0.0
C360 C 0.68456 0.60878 0.58197 0.0
C361 C 0.70772 0.62456 0.61331 0.0
C362 C 0.62755 0.65567 0.62049 0.0
C363 C 0.59186 0.6416 0.6092 0.0
N364 N 0.58582 0.62921 0.62816 0.0
C365 C 0.62098 0.64284 0.63991 0.0
C366 C 0.61288 0.65512 0.60505 0.0
C367 C 0.59982 0.62957 0.64347 0.0
C368 C 0.67157 0.68219 0.67145 0.0
N369 N 0.67343 0.66716 0.66033 0.0
C370 C 0.67385 0.6516 0.6962 0.0
C371 C 0.67445 0.65192 0.67209 0.0
C372 C 0.67247 0.66728 0.70805 0.0
C373 C 0.6714 0.68274 0.69544 0.0
H374 H 0.67013 0.69372 0.66159 0.0
H375 H 0.67547 0.63991 0.66276 0.0
C376 C 0.61741 0.62403 0.56486 0.0
N377 N 0.62833 0.62593 0.58438 0.0
C378 C 0.59872 0.60577 0.56063 0.0
C379 C 0.60341 0.5918 0.5963 0.0
C380 C 0.6219 0.61019 0.59979 0.0
C381 C 0.59137 0.58951 0.57672 0.0
H382 H 0.62292 0.63682 0.5529 0.0
H383 H 0.63097 0.61217 0.61512 0.0
C384 C 0.70682 0.70461 0.63075 0.0
N385 N 0.72833 0.72699 0.66915 0.0
C386 C 0.7066 0.72264 0.63688 0.0
C387 C 0.71804 0.69802 0.64415 0.0
C388 C 0.71758 0.73374 0.65634 0.0
C389 C 0.72877 0.70952 0.66351 0.0
C390 C 0.67123 0.68312 0.55175 0.0
C391 C 0.69028 0.69586 0.5411 0.0
C392 C 0.65378 0.68414 0.54495 0.0
C393 C 0.69156 0.70948 0.52378 0.0
C394 C 0.65571 0.69799 0.5276 0.0
N395 N 0.67439 0.71026 0.51746 0.0
C396 C 0.71036 0.66067 0.55695 0.0
C397 C 0.73218 0.68002 0.58794 0.0
C398 C 0.72665 0.65974 0.54626 0.0
N399 N 0.71338 0.6706 0.57744 0.0
C400 C 0.74887 0.67936 0.57796 0.0
C401 C 0.74623 0.66907 0.55684 0.0
H402 H 0.69522 0.65335 0.54898 0.0
H403 H 0.7342 0.68785 0.60417 0.0
C404 C 0.65272 0.7132 0.59888 0.0
N405 N 0.66914 0.71227 0.59016 0.0
C406 C 0.65317 0.73207 0.60015 0.0
C407 C 0.68704 0.74859 0.58242 0.0
C408 C 0.68592 0.72933 0.58145 0.0
C409 C 0.67079 0.75022 0.59259 0.0
H410 H 0.63985 0.69955 0.60627 0.0
H411 H 0.69899 0.72824 0.57517 0.0
O412 O 0.67202 0.64484 0.6108 0.0
O413 O 0.64824 0.6683 0.61628 0.0
O414 O 0.69591 0.69336 0.61192 0.0
O415 O 0.66972 0.6699 0.56897 0.0
H416 H 0.66167 0.61792 0.57662 0.0
H417 H 0.70355 0.64641 0.63355 0.0
H418 H 0.67952 0.59824 0.56748 0.0
H419 H 0.72076 0.62633 0.62332 0.0
H420 H 0.58036 0.6409 0.5973 0.0
H421 H 0.63208 0.64291 0.65195 0.0
H422 H 0.61769 0.66477 0.58979 0.0
H423 H 0.59452 0.61948 0.65836 0.0
H424 H 0.6746 0.63939 0.70548 0.0
H425 H 0.66999 0.69487 0.70406 0.0
H426 H 0.58985 0.60463 0.54536 0.0
H427 H 0.59852 0.57951 0.60892 0.0
H428 H 0.69788 0.72792 0.62692 0.0
H429 H 0.71806 0.68391 0.63997 0.0
H430 H 0.71748 0.74766 0.66131 0.0
H431 H 0.73736 0.70449 0.67412 0.0
H432 H 0.70398 0.69541 0.5463 0.0
H433 H 0.63897 0.67454 0.55318 0.0
H434 H 0.70621 0.71949 0.51544 0.0
H435 H 0.64236 0.69903 0.52224 0.0
H436 H 0.72394 0.65193 0.52982 0.0
H437 H 0.76358 0.68654 0.58691 0.0
H438 H 0.64045 0.7326 0.6085 0.0
H439 H 0.70087 0.76219 0.5763 0.0
Li440 Li 0.0044 0.65681 0.92724 0.0
Li441 Li 0.00851 0.67436 0.96385 0.0
Li442 Li 0.98268 0.6705 0.93551 0.0
Li443 Li 0.01841 0.69438 0.9267 0.0
C444 C 0.97822 0.62855 0.95511 0.0
N445 N 0.96659 0.58719 0.9584 0.0
C446 C 0.98858 0.62223 0.97025 0.0
C447 C 0.96182 0.61384 0.94181 0.0
C448 C 0.98248 0.60124 0.97163 0.0
C449 C 0.95621 0.59301 0.94367 0.0
C450 C 0.04996 0.6918 0.95004 0.0
C451 C 0.0733 0.7231 0.97044 0.0
N452 N 0.08912 0.71944 0.96617 0.0
C453 C 0.06645 0.68837 0.94581 0.0
C454 C 0.05339 0.70932 0.96243 0.0
C455 C 0.08613 0.7025 0.95414 0.0
C456 C 0.99415 0.62379 0.89592 0.0
N457 N 0.00636 0.6346 0.91401 0.0
C458 C 0.01941 0.61126 0.91708 0.0
C459 C 0.01914 0.62896 0.92435 0.0
C460 C 0.00637 0.5993 0.899 0.0
C461 C 0.99387 0.60595 0.88811 0.0
H462 H 0.98417 0.62866 0.88801 0.0
H463 H 0.02854 0.63778 0.93885 0.0
C464 C 0.99399 0.66845 0.00765 0.0
N465 N 0.01182 0.67367 0.99622 0.0
C466 C 0.99332 0.66748 0.03161 0.0
C467 C 0.02925 0.67633 0.03176 0.0
C468 C 0.02923 0.67719 0.00764 0.0
C469 C 0.01117 0.6717 0.04402 0.0
H470 H 0.98019 0.66494 0.99803 0.0
H471 H 0.04306 0.68064 0.99817 0.0
C472 C 0.98402 0.67359 0.89017 0.0
N473 N 0.95689 0.67444 0.85832 0.0
C474 C 0.98917 0.69189 0.87838 0.0
C475 C 0.96516 0.65568 0.88564 0.0
C476 C 0.97522 0.69202 0.86238 0.0
C477 C 0.95163 0.65644 0.86952 0.0
C478 C 0.99202 0.7068 0.95432 0.0
C479 C 0.99244 0.71918 0.936 0.0
C480 C 0.98038 0.70495 0.97399 0.0
C481 C 0.98112 0.72945 0.93761 0.0
C482 C 0.96918 0.71537 0.9749 0.0
N483 N 0.96979 0.72731 0.95684 0.0
C484 C 0.94307 0.65256 0.95306 0.0
C485 C 0.9483 0.67703 0.92398 0.0
C486 C 0.92402 0.65054 0.95878 0.0
N487 N 0.95496 0.66589 0.93622 0.0
C488 C 0.92929 0.67554 0.92922 0.0
C489 C 0.91711 0.66249 0.9472 0.0
H490 H 0.94885 0.64428 0.96301 0.0
H491 H 0.95812 0.68788 0.91101 0.0
C492 C 0.04732 0.71757 0.89287 0.0
N493 N 0.03862 0.71932 0.91268 0.0
C494 C 0.06313 0.73516 0.88222 0.0
C495 C 0.06063 0.75605 0.91256 0.0
C496 C 0.04494 0.73802 0.92268 0.0
C497 C 0.07004 0.75476 0.89209 0.0
H498 H 0.04216 0.70242 0.88555 0.0
H499 H 0.03796 0.73891 0.93866 0.0
O500 O 0.9844 0.64908 0.95292 0.0
O501 O 0.03072 0.67827 0.94154 0.0
O502 O -0.00241 0.67313 0.90569 0.0
O503 O 0.00268 0.69629 0.95284 0.0
H504 H 0.00139 0.63345 0.98056 0.0
H505 H 0.95368 0.61852 0.92999 0.0
H506 H 0.99045 0.59613 0.98315 0.0
H507 H 0.94366 0.58147 0.93335 0.0
H508 H 0.07617 0.73671 0.98006 0.0
H509 H 0.06407 0.67494 0.93612 0.0
H510 H 0.04085 0.71224 0.96594 0.0
H511 H 0.09904 0.70004 0.951 0.0
H512 H 0.02905 0.60654 0.92617 0.0
H513 H 0.98376 0.59728 0.87397 0.0
H514 H 0.97891 0.6633 0.04034 0.0
H515 H 0.0433 0.67957 0.04071 0.0
H516 H 0.00375 0.70586 0.88156 0.0
H517 H 0.96087 0.64142 0.89472 0.0
H518 H 0.97896 0.70608 0.85318 0.0
H519 H 0.93692 0.64274 0.86596 0.0
H520 H 0.00108 0.72057 0.9205 0.0
H521 H 0.97988 0.69551 0.98837 0.0
H522 H 0.98121 0.73897 0.92349 0.0
H523 H 0.96 0.71396 0.98995 0.0
H524 H 0.91539 0.6406 0.97306 0.0
H525 H 0.9245 0.68498 0.9198 0.0
H526 H 0.07017 0.73335 0.86673 0.0
H527 H 0.06531 0.77081 0.92068 0.0
Li528 Li 0.00924 0.6872 0.39882 0.0
Li529 Li 0.97369 0.6666 0.40895 0.0
Li530 Li -0.00233 0.65149 0.40677 0.0
Li531 Li 0.98715 0.66346 0.37108 0.0
C532 C 0.01062 0.68593 0.44455 0.0
N533 N 0.03654 0.71408 0.47695 0.0
C534 C 0.00926 0.70356 0.44942 0.0
C535 C 0.02498 0.68246 0.45629 0.0
C536 C 0.02258 0.71766 0.46581 0.0
C537 C 0.03798 0.69692 0.4726 0.0
C538 C 0.96958 0.68874 0.37395 0.0
C539 C 0.93583 0.67267 0.35615 0.0
N540 N 0.93722 0.69151 0.35442 0.0
C541 C 0.97067 0.70795 0.37199 0.0
C542 C 0.95201 0.67096 0.36598 0.0
C543 C 0.95416 0.70902 0.36207 0.0
C544 C 0.03157 0.72753 0.38352 0.0
N545 N 0.03278 0.71465 0.39922 0.0
C546 C 0.06839 0.73928 0.40642 0.0
C547 C 0.05061 0.72031 0.41103 0.0
C548 C 0.06773 0.75246 0.38954 0.0
C549 C 0.04885 0.74658 0.37847 0.0
H550 H 0.0175 0.72248 0.37381 0.0
H551 H 0.05147 0.70964 0.42294 0.0
C552 C 0.93548 0.64685 0.4331 0.0
N553 N 0.95085 0.6652 0.42486 0.0
C554 C 0.91838 0.64589 0.44421 0.0
C555 C 0.93346 0.68275 0.43829 0.0
C556 C 0.95031 0.68302 0.42753 0.0
C557 C 0.91716 0.66399 0.44667 0.0
H558 H 0.93645 0.63296 0.43092 0.0
H559 H 0.96295 0.69746 0.4212 0.0
C560 C 0.03474 0.67973 0.37473 0.0
N561 N 0.07606 0.70506 0.36389 0.0
C562 C 0.04039 0.69208 0.35494 0.0
C563 C 0.05011 0.68017 0.38893 0.0
C564 C 0.06136 0.70483 0.34981 0.0
C565 C 0.07091 0.69306 0.38314 0.0
C566 C 0.9564 0.62167 0.38435 0.0
C567 C 0.96444 0.60908 0.37768 0.0
C568 C 0.93514 0.61422 0.38242 0.0
C569 C 0.95111 0.58933 0.36893 0.0
C570 C 0.92231 0.59439 0.37358 0.0
N571 N 0.9305 0.58246 0.36707 0.0
C572 C 0.9925 0.62 0.43775 0.0
C573 C 0.01585 0.62637 0.40695 0.0
C574 C 0.99485 0.60354 0.4455 0.0
N575 N 0.00283 0.63087 0.4187 0.0
C576 C 0.01877 0.61018 0.41415 0.0
C577 C 0.00803 0.59837 0.43351 0.0
H578 H 0.98209 0.62385 0.4466 0.0
H579 H 0.02341 0.6349 0.39148 0.0
C580 C 0.9883 0.6776 0.32641 0.0
N581 N 0.98354 0.66011 0.33842 0.0
C582 C 0.9895 0.67784 0.30244 0.0
C583 C 0.98062 0.64195 0.30335 0.0
C584 C 0.97955 0.64239 0.3274 0.0
C585 C 0.98612 0.66001 0.29061 0.0
H586 H 0.99219 0.69173 0.33548 0.0
H587 H 0.97655 0.6289 0.33721 0.0
O588 O -0.00228 0.67192 0.42865 0.0
O589 O 0.98555 0.68749 0.38403 0.0
O590 O 0.01429 0.6675 0.38033 0.0
O591 O 0.96913 0.64089 0.39345 0.0
H592 H -0.00183 0.70638 0.44048 0.0
H593 H 0.02612 0.66882 0.45274 0.0
H594 H 0.02181 0.73145 0.46966 0.0
H595 H 0.04925 0.69451 0.48177 0.0
H596 H 0.92217 0.65901 0.34988 0.0
H597 H 0.98407 0.72187 0.37825 0.0
H598 H 0.95092 0.65602 0.36719 0.0
H599 H 0.95479 0.72378 0.36051 0.0
H600 H 0.08265 0.74324 0.41536 0.0
H601 H 0.04771 0.75601 0.36499 0.0
H602 H 0.90609 0.63112 0.4504 0.0
H603 H 0.93327 0.6971 0.4402 0.0
H604 H 0.02873 0.69202 0.34382 0.0
H605 H 0.04604 0.67099 0.40453 0.0
H606 H 0.06595 0.7146 0.33466 0.0
H607 H 0.08296 0.69367 0.39407 0.0
H608 H 0.98085 0.61461 0.37885 0.0
H609 H 0.92857 0.62363 0.38773 0.0
H610 H 0.95717 0.5795 0.36357 0.0
H611 H 0.90584 0.58846 0.37194 0.0
H612 H 0.98633 0.59483 0.46053 0.0
H613 H 0.02873 0.60645 0.40413 0.0
H614 H 0.99361 0.69206 0.29331 0.0
H615 H 0.97818 0.62794 0.29493 0.0
Li616 Li 0.3232 0.00863 0.72726 0.0
Li617 Li 0.30216 0.97319 0.73728 0.0
Li618 Li 0.34076 0.98869 0.73041 0.0
Li619 Li 0.31565 0.98294 0.69797 0.0
C620 C 0.33225 0.01054 0.77101 0.0
N621 N 0.34454 0.04248 0.80236 0.0
C622 C 0.31791 0.01574 0.77958 0.0
C623 C 0.35283 0.02157 0.7784 0.0
C624 C 0.32444 0.03196 0.79539 0.0
C625 C 0.35874 0.03765 0.79428 0.0
C626 C 0.27503 0.9791 0.7125 0.0
C627 C 0.24292 0.95281 0.69584 0.0
N628 N 0.23235 0.9592 0.70949 0.0
C629 C 0.26387 0.98558 0.72613 0.0
C630 C 0.2645 0.96273 0.69704 0.0
C631 C 0.24229 0.97526 0.72445 0.0
C632 C 0.31149 0.03775 0.71812 0.0
N633 N 0.32652 0.03586 0.72918 0.0
C634 C 0.34586 0.07245 0.73562 0.0
C635 C 0.34346 0.0527 0.7381 0.0
C636 C 0.33061 0.07477 0.72398 0.0
C637 C 0.31314 0.05705 0.71546 0.0
H638 H 0.29857 0.02439 0.7104 0.0
H639 H 0.35552 0.051 0.74629 0.0
C640 C 0.27504 0.9331 0.75451 0.0
N641 N 0.27958 0.95315 0.75531 0.0
C642 C 0.25826 0.91789 0.76686 0.0
C643 C 0.25155 0.94433 0.7814 0.0
C644 C 0.26845 0.95902 0.76872 0.0
C645 C 0.24616 0.9234 0.78045 0.0
H646 H 0.28442 0.92886 0.74427 0.0
H647 H 0.27261 0.97509 0.76954 0.0
C648 C 0.35673 0.02737 0.70049 0.0
N649 N 0.38405 0.06869 0.69168 0.0
C650 C 0.35226 0.03776 0.68338 0.0
C651 C 0.37516 0.03794 0.71301 0.0
C652 C 0.36623 0.05868 0.67925 0.0
C653 C 0.38877 0.05883 0.70829 0.0
C654 C 0.31341 0.94531 0.70552 0.0
C655 C 0.32972 0.94181 0.70034 0.0
C656 C 0.29352 0.93157 0.69736 0.0
C657 C 0.3259 0.92477 0.68679 0.0
C658 C 0.29034 0.91472 0.68385 0.0
N659 N 0.30647 0.91171 0.67887 0.0
C660 C 0.36838 0.98304 0.75935 0.0
C661 C 0.37796 0.99029 0.71998 0.0
C662 C 0.38584 0.98128 0.76394 0.0
N663 N 0.36484 0.98747 0.73765 0.0
C664 C 0.39534 0.98829 0.72369 0.0
C665 C 0.39937 0.98364 0.74587 0.0
H666 H 0.35752 0.98066 0.77301 0.0
H667 H 0.37462 0.99368 0.70289 0.0
C668 C 0.30449 0.9913 0.65601 0.0
N669 N 0.31158 0.97937 0.66555 0.0
C670 C 0.304 0.99313 0.63214 0.0
C671 C 0.3171 0.96946 0.62818 0.0
C672 C 0.31774 0.96842 0.65222 0.0
C673 C 0.31066 0.98237 0.61799 0.0
H674 H 0.30009 0.00017 0.66702 0.0
H675 H 0.32402 0.95964 0.66009 0.0
O676 O 0.32615 0.99467 0.75559 0.0
O677 O 0.29617 0.98899 0.71404 0.0
O678 O 0.34305 0.00702 0.70514 0.0
O679 O 0.31687 0.96193 0.71878 0.0
H680 H 0.30201 0.00757 0.77383 0.0
H681 H 0.36419 0.01792 0.7718 0.0
H682 H 0.31354 0.03622 0.80205 0.0
H683 H 0.37463 0.04636 0.8001 0.0
H684 H 0.23458 0.94007 0.68402 0.0
H685 H 0.27178 -0.00165 0.73806 0.0
H686 H 0.27286 0.9578 0.68598 0.0
H687 H 0.23346 0.98 0.73505 0.0
H688 H 0.35961 0.08577 0.74235 0.0
H689 H 0.30127 0.05817 0.70587 0.0
H690 H 0.25464 0.90195 0.76549 0.0
H691 H 0.24293 0.94937 0.792 0.0
H692 H 0.33803 0.02984 0.67361 0.0
H693 H 0.37878 0.03018 0.72644 0.0
H694 H 0.36289 0.06697 0.6662 0.0
H695 H 0.40303 0.06724 0.71793 0.0
H696 H 0.34515 0.9521 0.70669 0.0
H697 H 0.28064 0.93376 0.70157 0.0
H698 H 0.3384 0.92193 0.68258 0.0
H699 H 0.27503 0.904 0.67739 0.0
H700 H 0.38846 0.97757 0.78123 0.0
H701 H 0.40554 0.99034 0.70938 0.0
H702 H 0.29897 0.00326 0.62481 0.0
H703 H 0.32262 0.96119 0.61771 0.0
Li704 Li 0.30906 0.32878 0.06269 0.0
Li705 Li 0.32431 0.30672 0.07032 0.0
Li706 Li 0.34515 0.34456 0.06973 0.0
Li707 Li 0.33157 0.3263 0.03399 0.0
C708 C 0.30796 0.32472 0.10697 0.0
N709 N 0.27722 0.3199 0.13718 0.0
C710 C 0.29494 0.30544 0.11699 0.0
C711 C 0.30543 0.34159 0.1124 0.0
C712 C 0.27948 0.30332 0.13221 0.0
C713 C 0.28977 0.33882 0.12768 0.0
C714 C 0.29183 0.29431 0.02757 0.0
C715 C 0.27481 0.2657 0.00103 0.0
N716 N 0.26665 0.27596 0.98971 0.0
C717 C 0.28318 0.30449 0.01571 0.0
C718 C 0.28754 0.2747 0.02021 0.0
C719 C 0.27054 0.29499 0.99661 0.0
C720 C 0.28509 0.34714 0.05387 0.0
N721 N 0.28442 0.33042 0.06404 0.0
C722 C 0.24751 0.3133 0.06627 0.0
C723 C 0.2662 0.31381 0.0707 0.0
C724 C 0.24764 0.32985 0.05443 0.0
C725 C 0.26685 0.34719 0.04887 0.0
H726 H 0.29968 0.35978 0.04797 0.0
H727 H 0.26609 0.30048 0.07821 0.0
C728 C 0.33734 0.2849 0.0979 0.0
N729 N 0.3212 0.28259 0.08486 0.0
C730 C 0.33676 0.26774 0.10823 0.0
C731 C 0.30277 0.24614 0.09177 0.0
C732 C 0.30398 0.26378 0.08182 0.0
C733 C 0.3194 0.24797 0.10503 0.0
H734 H 0.35079 0.30011 0.10003 0.0
H735 H 0.29133 0.26248 0.07145 0.0
C736 C 0.34505 0.37176 0.04258 0.0
N737 N 0.37404 0.41337 0.03916 0.0
C738 C 0.36125 0.37854 0.02668 0.0
C739 C 0.34359 0.38616 0.05672 0.0
C740 C 0.37573 0.39964 0.0252 0.0
C741 C 0.35841 0.40712 0.05474 0.0
C742 C 0.35918 0.31259 0.0451 0.0
C743 C 0.38049 0.32041 0.04296 0.0
C744 C 0.34542 0.29232 0.0381 0.0
C745 C 0.38766 0.30786 0.03368 0.0
C746 C 0.35318 0.28023 0.02897 0.0
N747 N 0.37397 0.28819 0.02695 0.0
C748 C 0.36714 0.37797 0.10129 0.0
C749 C 0.38712 0.37427 0.07184 0.0
C750 C 0.38442 0.39614 0.10902 0.0
N751 N 0.36877 0.36769 0.08278 0.0
C752 C 0.40478 0.39223 0.07908 0.0
C753 C 0.4035 0.40356 0.09771 0.0
H754 H 0.35233 0.37239 0.10962 0.0
H755 H 0.38784 0.36596 0.05694 0.0
C756 C 0.32592 0.33753 0.99087 0.0
N757 N 0.33405 0.32675 0.00105 0.0
C758 C 0.32479 0.33829 0.96699 0.0
C759 C 0.34106 0.31735 0.96408 0.0
C760 C 0.34182 0.31694 0.98818 0.0
C761 C 0.33214 0.32788 0.95324 0.0
H762 H 0.31988 0.34527 0.00138 0.0
H763 H 0.34834 0.30855 0.9964 0.0
O764 O 0.32302 0.32706 0.0918 0.0
O765 O 0.30449 0.30348 0.04619 0.0
O766 O 0.33107 0.35109 0.04478 0.0
O767 O 0.35198 0.32451 0.05484 0.0
H768 H 0.29668 0.29223 0.11299 0.0
H769 H 0.31524 0.35657 0.10461 0.0
H770 H 0.26924 0.28847 0.14005 0.0
H771 H 0.28753 0.3517 0.13191 0.0
H772 H 0.27141 0.25056 0.99514 0.0
H773 H 0.28648 0.31974 0.02087 0.0
H774 H 0.29393 0.26644 0.02916 0.0
H775 H 0.26389 0.3028 0.98721 0.0
H776 H 0.23313 0.29971 0.07116 0.0
H777 H 0.26787 0.36012 0.03928 0.0
H778 H 0.34976 0.26997 0.11866 0.0
H779 H 0.28916 0.23121 0.08869 0.0
H780 H 0.36284 0.3676 0.01586 0.0
H781 H 0.33136 0.38117 0.06939 0.0
H782 H 0.38841 0.40508 0.01305 0.0
H783 H 0.35756 0.41841 0.0657 0.0
H784 H 0.3914 0.33598 0.04852 0.0
H785 H 0.32894 0.28605 0.03949 0.0
H786 H 0.40411 0.31373 0.0319 0.0
H787 H 0.34268 0.26453 0.02345 0.0
H788 H 0.38284 0.4044 0.12352 0.0
H789 H 0.4191 0.3976 0.06964 0.0
H790 H 0.31816 0.34694 0.95938 0.0
H791 H 0.34688 0.30909 0.95407 0.0
Li792 Li 0.01698 0.3236 0.40351 0.0
Li793 Li 0.98149 0.31072 0.39516 0.0
Li794 Li 0.00892 0.33303 0.36617 0.0
Li795 Li 0.00323 0.34655 0.40363 0.0
C796 C 0.00858 0.29174 0.37583 0.0
N797 N 0.02419 0.26513 0.37226 0.0
C798 C 0.00483 0.27732 0.39324 0.0
C799 C 0.02025 0.29258 0.35655 0.0
C800 C 0.01288 0.26403 0.39115 0.0
C801 C 0.028 0.279 0.35507 0.0
C802 C 0.98038 0.30904 0.43871 0.0
C803 C 0.94664 0.29578 0.456 0.0
N804 N 0.9483 0.28 0.4655 0.0
C805 C 0.98174 0.29268 0.44867 0.0
C806 C 0.9627 0.31062 0.44245 0.0
C807 C 0.96537 0.27817 0.46216 0.0
C808 C 0.03895 0.31959 0.44123 0.0
N809 N 0.03783 0.31944 0.41783 0.0
C810 C 0.06833 0.31664 0.41484 0.0
C811 C 0.05224 0.31822 0.4046 0.0
C812 C 0.06977 0.31654 0.43898 0.0
C813 C 0.05475 0.31798 0.45222 0.0
H814 H 0.02783 0.32144 0.45139 0.0
H815 H 0.05164 0.3191 0.38606 0.0
C816 C 0.93926 0.29072 0.38418 0.0
N817 N 0.95385 0.28766 0.3946 0.0
C818 C 0.91971 0.274 0.3793 0.0
C819 C 0.93019 0.25123 0.39668 0.0
C820 C 0.94958 0.26843 0.40124 0.0
C821 C 0.91516 0.25385 0.38496 0.0
H822 H 0.94308 0.30602 0.37861 0.0
H823 H 0.96145 0.26628 0.40916 0.0
C824 C 0.04938 0.36137 0.39523 0.0
N825 N 0.09017 0.38008 0.4093 0.0
C826 C 0.05477 0.36903 0.41767 0.0
C827 C 0.0647 0.36338 0.37986 0.0
C828 C 0.07549 0.37839 0.42448 0.0
C829 C 0.08525 0.37286 0.38732 0.0
C830 C 0.97856 0.34924 0.37396 0.0
C831 C 0.98843 0.36466 0.35729 0.0
C832 C 0.96358 0.34953 0.38821 0.0
C833 C 0.98329 0.38023 0.35528 0.0
C834 C 0.95889 0.36538 0.38569 0.0
N835 N 0.96878 0.38028 0.36943 0.0
C836 C 0.00192 0.32071 0.32074 0.0
C837 C 0.02822 0.35582 0.32501 0.0
C838 C 0.00351 0.32238 0.29683 0.0
N839 N 0.01417 0.33726 0.33423 0.0
C840 C 0.03001 0.35832 0.30106 0.0
C841 C 0.01751 0.34141 0.28675 0.0
H842 H 0.9907 0.30625 0.32865 0.0
H843 H 0.03758 0.36877 0.33624 0.0
C844 C 0.99528 0.37151 0.4352 0.0
N845 N 0.00586 0.3713 0.4162 0.0
C846 C -0.00315 0.39005 0.44272 0.0
C847 C 0.02073 0.4078 0.41148 0.0
C848 C 0.01859 0.38896 0.40451 0.0
C849 C 0.00963 0.40849 0.4307 0.0
H850 H 0.98545 0.3573 0.44434 0.0
H851 H 0.02676 0.38829 0.38942 0.0
O852 O 0.00089 0.30494 0.37758 0.0
O853 O 0.99613 0.32329 0.42518 0.0
O854 O 0.02912 0.35166 0.38845 0.0
O855 O 0.98391 0.33426 0.37671 0.0
H856 H 0.99617 0.27666 0.40843 0.0
H857 H 0.02353 0.30376 0.343 0.0
H858 H 0.01021 0.25291 0.40459 0.0
H859 H 0.03711 0.27954 0.34029 0.0
H860 H 0.93283 0.29677 0.4589 0.0
H861 H 0.99514 0.291 0.44585 0.0
H862 H 0.96122 0.32298 0.4347 0.0
H863 H 0.9662 0.2654 0.46988 0.0
H864 H 0.07986 0.31615 0.40393 0.0
H865 H 0.05522 0.31795 0.47088 0.0
H866 H 0.90851 0.27676 0.3705 0.0
H867 H 0.92745 0.23595 0.40113 0.0
H868 H 0.04304 0.36752 0.42977 0.0
H869 H 0.06071 0.35744 0.36246 0.0
H870 H 0.0799 0.38425 0.44184 0.0
H871 H 0.09727 0.3744 0.37568 0.0
H872 H 0.0001 0.36478 0.34618 0.0
H873 H 0.95581 0.33781 0.40127 0.0
H874 H 0.99091 0.39232 0.34253 0.0
H875 H 0.94745 0.36587 0.39673 0.0
H876 H 0.99344 0.3091 0.2863 0.0
H877 H 0.04094 0.37323 0.29378 0.0
H878 H 0.98818 0.38998 0.45774 0.0
H879 H 0.03051 0.42159 0.40153 0.0
Li880 Li 0.69644 0.02087 0.74016 0.0
Li881 Li 0.68293 0.98718 0.72561 0.0
Li882 Li 0.6839 0.0142 0.70164 0.0
Li883 Li 0.6581 -0.00117 0.73398 0.0
C884 C 0.72799 0.02396 0.7187 0.0
N885 N 0.76935 0.04833 0.73 0.0
C886 C 0.73787 0.01587 0.7321 0.0
C887 C 0.73921 0.0444 0.71088 0.0
C888 C 0.75878 0.02844 0.73765 0.0
C889 C 0.76008 0.05649 0.71684 0.0
C890 C 0.67229 0.97759 0.76894 0.0
C891 C 0.64841 0.946 0.78855 0.0
N892 N 0.66442 0.94304 0.79434 0.0
C893 C 0.68852 0.97427 0.77517 0.0
C894 C 0.65207 0.96336 0.77572 0.0
C895 C 0.68422 0.95669 0.78797 0.0
C896 C 0.72155 0.06163 0.75666 0.0
N897 N 0.71665 0.04163 0.75986 0.0
C898 C 0.7426 0.05175 0.789 0.0
C899 C 0.72651 0.03642 0.77595 0.0
C900 C 0.74833 0.07259 0.78567 0.0
C901 C 0.7374 0.07744 0.76948 0.0
H902 H 0.71343 0.06536 0.74384 0.0
H903 H 0.72226 0.02042 0.77824 0.0
C904 C 0.70074 0.96456 0.70872 0.0
N905 N 0.68474 0.96261 0.7218 0.0
C906 C 0.7008 0.94705 0.70043 0.0
C907 C 0.66812 0.92572 0.71967 0.0
C908 C 0.66876 0.94367 0.72772 0.0
C909 C 0.68404 0.92733 0.70533 0.0
H910 H 0.71279 0.9797 0.70334 0.0
H911 H 0.65579 0.94245 0.73732 0.0
C912 C 0.67398 0.04215 0.71247 0.0
N913 N 0.66776 0.06852 0.68438 0.0
C914 C 0.65419 0.03965 0.7101 0.0
C915 C 0.69064 0.05826 0.70076 0.0
C916 C 0.65135 0.0531 0.69578 0.0
C917 C 0.68717 0.07136 0.68658 0.0
C918 C 0.65342 0.96856 0.69283 0.0
C919 C 0.66511 0.96823 0.67415 0.0
C920 C 0.63481 0.95074 0.69844 0.0
C921 C 0.65802 0.95 0.66146 0.0
C922 C 0.62824 0.93283 0.6853 0.0
N923 N 0.6399 0.93283 0.66725 0.0
C924 C 0.70276 0.02636 0.65785 0.0
C925 C 0.66775 0.01837 0.65976 0.0
C926 C 0.70232 0.02686 0.63381 0.0
N927 N 0.68549 0.02174 0.6702 0.0
C928 C 0.66665 0.01881 0.63577 0.0
C929 C 0.68388 0.0224 0.62248 0.0
H930 H 0.71643 0.02829 0.66655 0.0
H931 H 0.65407 0.01402 0.67002 0.0
C932 C 0.62611 0.99498 0.76418 0.0
N933 N 0.63085 0.99167 0.74254 0.0
C934 C 0.60604 0.99074 0.76932 0.0
C935 C 0.5963 0.97987 0.72981 0.0
C936 C 0.61645 0.9842 0.72549 0.0
C937 C 0.59084 0.98321 0.75194 0.0
H938 H 0.63799 0.00113 0.77733 0.0
H939 H 0.62082 0.98224 0.70831 0.0
O940 O 0.70737 0.01206 0.71359 0.0
O941 O 0.67617 0.99474 0.75646 0.0
O942 O 0.67702 0.02897 0.7262 0.0
O943 O 0.66043 0.98605 0.70593 0.0
H944 H 0.72943 0.00014 0.73844 0.0
H945 H 0.73185 0.05094 0.70051 0.0
H946 H 0.76657 0.02242 0.74814 0.0
H947 H 0.7689 0.07237 0.71105 0.0
H948 H 0.63283 0.93483 0.79384 0.0
H949 H 0.70422 0.98497 0.76992 0.0
H950 H 0.6393 0.96558 0.77098 0.0
H951 H 0.69662 0.95388 0.79278 0.0
H952 H 0.75051 0.04736 0.8015 0.0
H953 H 0.74145 0.09334 0.76629 0.0
H954 H 0.71317 0.949 0.68906 0.0
H955 H 0.65491 0.91078 0.72384 0.0
H956 H 0.64116 0.02751 0.71924 0.0
H957 H 0.70605 0.06047 0.70238 0.0
H958 H 0.63611 0.05127 0.69373 0.0
H959 H 0.6999 0.08377 0.67728 0.0
H960 H 0.67969 0.98177 0.66977 0.0
H961 H 0.62572 0.95064 0.71303 0.0
H962 H 0.66699 0.94948 0.64708 0.0
H963 H 0.61395 0.91889 0.68953 0.0
H964 H 0.71595 0.02976 0.62417 0.0
H965 H 0.65205 0.01497 0.62772 0.0
H966 H 0.6025 0.99343 0.78665 0.0
H967 H 0.58532 0.97461 0.7157 0.0
Li968 Li 0.6725 0.69336 0.07105 0.0
Li969 Li 0.68656 0.67056 0.06334 0.0
Li970 Li 0.66547 0.67553 0.03468 0.0
Li971 Li 0.6502 0.65606 0.07025 0.0
C972 C 0.70328 0.70715 0.02828 0.0
N973 N 0.72336 0.72718 0.98819 0.0
C974 C 0.71923 0.70449 0.01937 0.0
C975 C 0.69765 0.72009 0.01684 0.0
C976 C 0.72918 0.71474 -0.00091 0.0
C977 C 0.70794 0.73004 0.99657 0.0
C978 C 0.68683 0.67332 0.10783 0.0
C979 C 0.70279 0.65694 0.12864 0.0
N980 N 0.71618 0.67544 0.13851 0.0
C981 C 0.70073 0.69216 0.11817 0.0
C982 C 0.68782 0.65555 0.11312 0.0
C983 C 0.71545 0.69291 0.13365 0.0
C984 C 0.66664 0.71545 0.10646 0.0
N985 N 0.6766 0.71778 0.08611 0.0
C986 C 0.68962 0.75426 0.08664 0.0
C987 C 0.68826 0.73671 0.0763 0.0
C988 C 0.67888 0.75222 0.10726 0.0
C989 C 0.6675 0.73253 0.11735 0.0
H990 H 0.65765 0.7002 0.11397 0.0
H991 H 0.6962 0.73817 0.06025 0.0
C992 C 0.70864 0.65028 0.0541 0.0
N993 N 0.7101 0.66711 0.06489 0.0
C994 C 0.72632 0.64889 0.05008 0.0
C995 C 0.74665 0.68182 0.06925 0.0
C996 C 0.72851 0.68258 0.07289 0.0
C997 C 0.74575 0.66509 0.05706 0.0
H998 H 0.69394 0.63853 0.04729 0.0
H999 H 0.7293 0.69606 0.08085 0.0
C1000 C 0.63581 0.68795 0.06094 0.0
N1001 N 0.61815 0.71118 0.07446 0.0
C1002 C 0.62296 0.68214 0.08031 0.0
C1003 C 0.63956 0.70546 0.04834 0.0
C1004 C 0.61418 0.6941 0.08688 0.0
C1005 C 0.63054 0.71704 0.0555 0.0
C1006 C 0.64948 0.62927 0.04116 0.0
C1007 C 0.63424 0.62401 0.02431 0.0
C1008 C 0.64927 0.61377 0.05492 0.0
C1009 C 0.61897 0.60328 0.02156 0.0
C1010 C 0.63372 0.59323 0.05166 0.0
N1011 N 0.61902 0.58846 0.0352 0.0
C1012 C 0.67533 0.67171 0.98991 0.0
C1013 C 0.6486 0.68015 0.99175 0.0
C1014 C 0.67523 0.67225 0.96594 0.0
N1015 N 0.66248 0.67606 0.00226 0.0
C1016 C 0.64762 0.68036 0.96765 0.0
C1017 C 0.66129 0.67664 0.9546 0.0
H1018 H 0.68581 0.668 0.9988 0.0
H1019 H 0.63833 0.6832 0.00204 0.0
C1020 C 0.62617 0.62204 0.10044 0.0
N1021 N 0.62569 0.63322 0.08218 0.0
C1022 C 0.60806 0.60443 0.1077 0.0
C1023 C 0.58929 0.61071 0.07774 0.0
C1024 C 0.60776 0.62801 0.07092 0.0
C1025 C 0.58934 0.59856 0.09621 0.0
H1026 H 0.64065 0.62654 0.10906 0.0
H1027 H 0.60791 0.63712 0.05632 0.0
O1028 O 0.69306 0.69692 0.0479 0.0
O1029 O 0.67244 0.67231 0.09245 0.0
O1030 O 0.64501 0.67677 0.05461 0.0
O1031 O 0.66414 0.64955 0.04465 0.0
H1032 H 0.72374 0.69444 0.02782 0.0
H1033 H 0.68519 0.72215 0.02328 0.0
H1034 H 0.74147 0.71274 0.99196 0.0
H1035 H 0.7036 0.73995 0.98745 0.0
H1036 H 0.70382 0.64334 0.13279 0.0
H1037 H 0.70029 0.7061 0.11418 0.0
H1038 H 0.67737 0.6409 0.10502 0.0
H1039 H 0.72635 0.70739 0.14174 0.0
H1040 H 0.69847 0.76913 0.07822 0.0
H1041 H 0.65927 0.73032 0.13343 0.0
H1042 H 0.72489 0.6359 0.04024 0.0
H1043 H 0.76129 0.69458 0.07504 0.0
H1044 H 0.62005 0.66875 0.0904 0.0
H1045 H 0.6495 0.71019 0.03334 0.0
H1046 H 0.60432 0.68988 0.10192 0.0
H1047 H 0.63342 0.73072 0.04601 0.0
H1048 H 0.63402 0.6358 0.01367 0.0
H1049 H 0.66079 0.61761 0.06824 0.0
H1050 H 0.60703 0.59899 0.00867 0.0
H1051 H 0.63327 0.5811 0.06231 0.0
H1052 H 0.68576 0.66904 0.95633 0.0
H1053 H 0.6366 0.68367 0.95931 0.0
H1054 H 0.60868 0.59549 0.12209 0.0
H1055 H 0.57524 0.60652 0.06822 0.0
C1056 C 0.31539 0.09122 0.178 0.0
C1057 C 0.32034 0.09221 0.20154 0.0
C1058 C 0.31461 0.10763 0.16732 0.0
C1059 C 0.33458 0.16346 0.17276 0.0
H1060 H 0.28978 0.1536 0.1312 0.0
C1061 C 0.33688 0.22784 0.11585 0.0
C1062 C 0.31887 0.22943 0.11529 0.0
C1063 C 0.33664 0.21075 0.126 0.0
C1064 C 0.30233 0.15657 0.14284 0.0
H1065 H 0.32775 0.11104 0.23244 0.0
H1066 H 0.32674 0.13975 0.21369 0.0
H1067 H 0.28997 0.1243 0.14998 0.0
H1068 H 0.2864 0.21411 0.12485 0.0
H1069 H 0.28595 0.18408 0.14231 0.0
H1070 H 0.34692 0.19569 0.16575 0.0
C1071 C 0.32369 0.12637 0.20346 0.0
C1072 C 0.30254 0.13982 0.15342 0.0
C1073 C 0.32434 0.10993 0.21417 0.0
C1074 C 0.30049 0.21328 0.12474 0.0
C1075 C 0.30022 0.19609 0.13478 0.0
C1076 C 0.33447 0.18017 0.16205 0.0
C1077 C 0.31889 0.12543 0.17992 0.0
C1078 C 0.31864 0.14311 0.16853 0.0
C1079 C 0.31835 0.19475 0.13568 0.0
C1080 C 0.31835 0.17691 0.147 0.0
H1081 H 0.31247 0.07793 0.16769 0.0
H1082 H 0.31109 0.10658 0.14908 0.0
H1083 H 0.34729 0.16646 0.18416 0.0
H1084 H 0.35119 0.23974 0.10828 0.0
H1085 H 0.35076 0.20996 0.1261 0.0
C1086 C 0.20633 0.29961 0.53824 0.0
C1087 C 0.22648 0.31617 0.53453 0.0
C1088 C 0.1894 0.2992 0.52737 0.0
C1089 C 0.17351 0.33364 0.49939 0.0
H1090 H 0.1274 0.28202 0.47746 0.0
C1091 C 0.09699 0.32777 0.46979 0.0
C1092 C 0.08725 0.31567 0.45021 0.0
C1093 C 0.11379 0.32742 0.47996 0.0
C1094 C 0.14022 0.2966 0.48331 0.0
H1095 H 0.24477 0.34496 0.516 0.0
H1096 H 0.21527 0.34413 0.49676 0.0
H1097 H 0.15742 0.28223 0.49437 0.0
H1098 H 0.08736 0.29339 0.42624 0.0
H1099 H 0.11702 0.2932 0.44361 0.0
H1100 H 0.15657 0.34811 0.48781 0.0
C1101 C 0.21247 0.33168 0.50847 0.0
C1102 C 0.15733 0.29668 0.49326 0.0
C1103 C 0.22939 0.33214 0.51944 0.0
C1104 C 0.09464 0.30308 0.44116 0.0
C1105 C 0.11149 0.30278 0.45129 0.0
C1106 C 0.15644 0.33357 0.48937 0.0
C1107 C 0.19225 0.31529 0.51245 0.0
C1108 C 0.17417 0.3152 0.50147 0.0
C1109 C 0.12134 0.31502 0.47075 0.0
C1110 C 0.13955 0.31504 0.48128 0.0
H1111 H 0.20358 0.28723 0.55003 0.0
H1112 H 0.17403 0.2865 0.53111 0.0
H1113 H 0.18607 0.34815 0.50578 0.0
H1114 H 0.09188 0.33784 0.47706 0.0
H1115 H 0.12082 0.33683 0.49512 0.0
C1116 C 0.76448 0.10571 0.8082 0.0
C1117 C 0.76598 0.08924 0.79853 0.0
C1118 C 0.78136 0.12173 0.81967 0.0
C1119 C 0.83795 0.1481 0.8226 0.0
H1120 H 0.83076 0.16975 0.88049 0.0
C1121 C 0.90742 0.21175 0.87301 0.0
C1122 C 0.90478 0.22737 0.88322 0.0
C1123 C 0.89052 0.19411 0.86368 0.0
C1124 C 0.83301 0.16404 0.86421 0.0
H1125 H 0.78631 0.07663 0.79321 0.0
H1126 H 0.81583 0.10466 0.8133 0.0
H1127 H 0.80109 0.14044 0.86233 0.0
H1128 H 0.88211 0.23639 0.89208 0.0
H1129 H 0.85285 0.20608 0.87513 0.0
H1130 H 0.86973 0.17192 0.82412 0.0
C1131 C 0.80159 0.10516 0.81198 0.0
C1132 C 0.81601 0.14722 0.85385 0.0
C1133 C 0.78465 0.08904 0.80069 0.0
C1134 C 0.88479 0.22483 0.88404 0.0
C1135 C 0.86793 0.20727 0.87461 0.0
C1136 C 0.85493 0.16501 0.83286 0.0
C1137 C 0.80014 0.12171 0.82152 0.0
C1138 C 0.81829 0.13914 0.8329 0.0
C1139 C 0.87058 0.19171 0.86425 0.0
C1140 C 0.85265 0.17327 0.85374 0.0
H1141 H 0.75023 0.10618 0.80692 0.0
H1142 H 0.77985 0.13437 0.82668 0.0
H1143 H 0.84012 0.14236 0.80629 0.0
H1144 H 0.92262 0.21326 0.87188 0.0
H1145 H 0.8931 0.18233 0.85609 0.0
C1146 C 0.6606 0.76859 0.12665 0.0
C1147 C 0.67899 0.7704 0.11785 0.0
C1148 C 0.66052 0.78567 0.13635 0.0
C1149 C 0.69449 0.83644 0.16293 0.0
H1150 H 0.6487 0.84565 0.14992 0.0
C1151 C 0.69206 0.90827 0.19655 0.0
C1152 C 0.67303 0.90457 0.20562 0.0
C1153 C 0.69342 0.89269 0.18461 0.0
C1154 C 0.66151 0.8432 0.15387 0.0
H1155 H 0.71176 0.79152 0.11248 0.0
H1156 H 0.71157 0.82148 0.12925 0.0
H1157 H 0.64996 0.81693 0.13151 0.0
H1158 H 0.64041 0.88181 0.20881 0.0
H1159 H 0.64283 0.85458 0.18838 0.0
H1160 H 0.70591 0.8626 0.1855 0.0
C1161 C 0.69725 0.80678 0.12877 0.0
C1162 C 0.66223 0.82675 0.14333 0.0
C1163 C 0.69732 0.78968 0.11898 0.0
C1164 C 0.65535 0.88508 0.20225 0.0
C1165 C 0.65669 0.86955 0.1903 0.0
C1166 C 0.69376 0.85291 0.17351 0.0
C1167 C 0.67882 0.80497 0.1375 0.0
C1168 C 0.67861 0.82305 0.14792 0.0
C1169 C 0.67575 0.87313 0.18142 0.0
C1170 C 0.67714 0.85634 0.16928 0.0
H1171 H 0.64617 0.75401 0.12578 0.0
H1172 H 0.64612 0.7837 0.14318 0.0
H1173 H 0.7072 0.83387 0.16702 0.0
H1174 H 0.706 0.92307 0.19903 0.0
H1175 H 0.70829 0.896 0.1778 0.0
C1176 C 0.88978 0.67404 0.44785 0.0
C1177 C 0.89899 0.66344 0.4578 0.0
C1178 C 0.87302 0.67406 0.45855 0.0
C1179 C 0.83221 0.64675 0.50273 0.0
H1180 H 0.82957 0.69735 0.50106 0.0
C1181 C 0.76047 0.65011 0.53435 0.0
C1182 C 0.76378 0.66809 0.54591 0.0
C1183 C 0.77691 0.64929 0.52387 0.0
C1184 C 0.83015 0.68315 0.50192 0.0
H1185 H 0.89791 0.64453 0.48672 0.0
H1186 H 0.86886 0.64486 0.50572 0.0
H1187 H 0.8584 0.6964 0.48279 0.0
H1188 H 0.7871 0.69935 0.55541 0.0
H1189 H 0.81583 0.69765 0.53791 0.0
H1190 H 0.8043 0.63373 0.52256 0.0
C1191 C 0.8743 0.65283 0.48939 0.0
C1192 C 0.84655 0.6825 0.49112 0.0
C1193 C 0.89097 0.65266 0.47856 0.0
C1194 C 0.78399 0.68516 0.54689 0.0
C1195 C 0.80045 0.68428 0.53655 0.0
C1196 C 0.81586 0.64744 0.51368 0.0
C1197 C 0.86518 0.66363 0.47958 0.0
C1198 C 0.84776 0.66428 0.4913 0.0
C1199 C 0.79712 0.66638 0.5248 0.0
C1200 C 0.8146 0.66564 0.51337 0.0
H1201 H 0.89543 0.6822 0.43166 0.0
H1202 H 0.86612 0.68215 0.45022 0.0
H1203 H 0.83252 0.63239 0.50303 0.0
H1204 H 0.74517 0.63656 0.53352 0.0
H1205 H 0.77371 0.63532 0.51476 0.0
C1206 C 0.22876 0.89092 0.80423 0.0
C1207 C 0.22798 0.90739 0.7934 0.0
C1208 C 0.2115 0.87554 0.81583 0.0
C1209 C 0.15464 0.85196 0.81937 0.0
H1210 H 0.16157 0.82763 0.87535 0.0
C1211 C 0.0891 0.77574 0.85729 0.0
C1212 C 0.08733 0.77362 0.8814 0.0
C1213 C 0.10584 0.79302 0.84723 0.0
C1214 C 0.15929 0.83441 0.85989 0.0
H1215 H 0.20838 0.9206 0.7864 0.0
H1216 H 0.17846 0.89408 0.80721 0.0
H1217 H 0.19163 0.85637 0.85724 0.0
H1218 H 0.10178 0.78822 0.91383 0.0
H1219 H 0.13058 0.81864 0.8963 0.0
H1220 H 0.12224 0.83028 0.82229 0.0
C1221 C 0.19234 0.89289 0.80642 0.0
C1222 C 0.1766 0.85071 0.84933 0.0
C1223 C 0.20959 0.90825 0.79474 0.0
C1224 C 0.10251 0.78942 0.89521 0.0
C1225 C 0.1192 0.80675 0.88515 0.0
C1226 C 0.13732 0.83571 0.83 0.0
C1227 C 0.19304 0.87628 0.817 0.0
C1228 C 0.17451 0.85956 0.82881 0.0
C1229 C 0.12118 0.80867 0.86103 0.0
C1230 C 0.13945 0.8266 0.85028 0.0
H1231 H 0.24275 0.88992 0.8038 0.0
H1232 H 0.21253 0.86286 0.82354 0.0
H1233 H 0.15247 0.85827 0.80347 0.0
H1234 H 0.07755 0.76402 0.84613 0.0
H1235 H 0.10697 0.79385 0.8286 0.0
C1236 C 0.42919 0.00115 0.22428 0.0
C1237 C 0.4122 0.98613 0.23697 0.0
C1238 C 0.44746 0.00028 0.22267 0.0
C1239 C 0.47694 0.98307 0.25624 0.0
H1240 H 0.50837 0.98986 0.20045 0.0
C1241 C 0.54998 0.97623 0.25904 0.0
C1242 C 0.56685 0.9897 0.24527 0.0
C1243 C 0.5307 0.97468 0.25603 0.0
C1244 C 0.49993 0.98822 0.21623 0.0
H1245 H 0.40066 0.9576 0.25645 0.0
H1246 H 0.43271 0.95646 0.25413 0.0
H1247 H 0.47525 0.98918 0.19819 0.0
H1248 H 0.5769 0.01182 0.21729 0.0
H1249 H 0.54331 0.0098 0.21252 0.0
H1250 H 0.50164 0.98292 0.27454 0.0
C1251 C 0.4319 0.96898 0.24564 0.0
C1252 C 0.48093 0.98772 0.21488 0.0
C1253 C 0.4136 0.96971 0.24704 0.0
C1254 C 0.56404 0.0013 0.22808 0.0
C1255 C 0.54478 3e-05 0.2253 0.0
C1256 C 0.49598 0.98387 0.25765 0.0
C1257 C 0.44914 0.98449 0.23388 0.0
C1258 C 0.46921 0.98497 0.23488 0.0
C1259 C 0.52792 0.98687 0.23947 0.0
C1260 C 0.50769 0.98627 0.23767 0.0
H1261 H 0.42874 0.01412 0.21648 0.0
H1262 H 0.4606 0.01248 0.2136 0.0
H1263 H 0.46839 0.98135 0.27198 0.0
H1264 H 0.55172 0.96685 0.27215 0.0
H1265 H 0.51799 0.96392 0.26681 0.0
C1266 C 0.55789 0.56161 0.59274 0.0
C1267 C 0.57108 0.57037 0.57368 0.0
C1268 C 0.5395 0.54281 0.59067 0.0
C1269 C 0.50063 0.50639 0.55002 0.0
H1270 H 0.48979 0.46724 0.59949 0.0
C1271 C 0.42969 0.42234 0.55226 0.0
C1272 C 0.4198 0.41595 0.57379 0.0
C1273 C 0.4484 0.44107 0.55019 0.0
C1274 C 0.49251 0.47804 0.58562 0.0
H1275 H 0.5749 0.56671 0.53724 0.0
H1276 H 0.54246 0.53364 0.53359 0.0
H1277 H 0.52182 0.50036 0.59949 0.0
H1278 H 0.42113 0.42475 0.60968 0.0
H1279 H 0.45355 0.45716 0.6061 0.0
H1280 H 0.47102 0.48397 0.53636 0.0
C1281 C 0.54649 0.54143 0.55012 0.0
C1282 C 0.51085 0.49701 0.58562 0.0
C1283 C 0.56501 0.56033 0.55221 0.0
C1284 C 0.42865 0.42892 0.59299 0.0
C1285 C 0.44723 0.44753 0.59094 0.0
C1286 C 0.48215 0.48731 0.55003 0.0
C1287 C 0.53379 0.53229 0.56948 0.0
C1288 C 0.51494 0.51158 0.56812 0.0
C1289 C 0.45749 0.4537 0.56962 0.0
C1290 C 0.47773 0.47314 0.56813 0.0
H1291 H 0.56186 0.56924 0.60937 0.0
H1292 H 0.52977 0.53641 0.60576 0.0
H1293 H 0.50339 0.51735 0.53632 0.0
H1294 H 0.42323 0.41264 0.53717 0.0
H1295 H 0.45599 0.44543 0.53356 0.0
C1296 C 0.98536 0.56167 0.88903 0.0
C1297 C 0.00484 0.57931 0.89266 0.0
C1298 C 0.98366 0.54239 0.88524 0.0
C1299 C 0.01302 0.5162 0.86971 0.0
H1300 H 0.9716 0.47165 0.90715 0.0
C1301 C 0.01377 0.44037 0.88833 0.0
C1302 C 0.9947 0.42205 0.8911 0.0
C1303 C 0.01446 0.45925 0.88482 0.0
C1304 C 0.98299 0.48376 0.8962 0.0
H1305 H 0.03787 0.59074 0.89409 0.0
H1306 H 0.03487 0.55697 0.88773 0.0
H1307 H 0.97378 0.50524 0.90747 0.0
H1308 H 0.9614 0.40884 0.89093 0.0
H1309 H 0.96252 0.44168 0.88431 0.0
H1310 H 0.02238 0.49469 0.85868 0.0
C1311 C 0.02094 0.55809 0.8877 0.0
C1312 C 0.98425 0.50305 0.89643 0.0
C1313 C 0.02264 0.57738 0.89158 0.0
C1314 C 0.97632 0.4228 0.88919 0.0
C1315 C 0.97698 0.44161 0.88549 0.0
C1316 C 0.01169 0.49681 0.86939 0.0
C1317 C 0.00139 0.54033 0.88495 0.0
C1318 C -0.00062 0.51954 0.88336 0.0
C1319 C 0.99606 0.46015 0.88387 0.0
C1320 C 0.99677 0.48041 0.88281 0.0
H1321 H 0.97134 0.56259 0.88997 0.0
H1322 H 0.9684 0.52901 0.88293 0.0
H1323 H 0.02471 0.52858 0.85929 0.0
H1324 H 0.02819 0.44024 0.88995 0.0
H1325 H 0.02942 0.47323 0.8839 0.0
C1326 C 0.02899 0.58096 0.43967 0.0
C1327 C 0.00971 0.58005 0.44012 0.0
C1328 C 0.0303 0.56314 0.44324 0.0
C1329 C 0.00112 0.50863 0.46367 0.0
H1330 H 0.03564 0.50095 0.41935 0.0
C1331 C 0.99285 0.42897 0.4427 0.0
C1332 C 0.01089 0.42827 0.43744 0.0
C1333 C 0.99382 0.44792 0.44672 0.0
C1334 C 0.02621 0.50296 0.43215 0.0
H1335 H 0.97677 0.55987 0.44547 0.0
H1336 H 0.97901 0.5287 0.45155 0.0
H1337 H 0.03545 0.5334 0.42005 0.0
H1338 H 0.04422 0.44671 0.43367 0.0
H1339 H 0.04594 0.47975 0.44085 0.0
H1340 H 0.99154 0.47786 0.47536 0.0
C1341 C 0.99317 0.54324 0.44874 0.0
C1342 C 0.0261 0.5216 0.43256 0.0
C1343 C 0.99187 0.56111 0.44524 0.0
C1344 C 0.03001 0.44681 0.43727 0.0
C1345 C 0.03099 0.46572 0.44136 0.0
C1346 C 0.00123 0.48992 0.46326 0.0
C1347 C 0.01235 0.54397 0.44725 0.0
C1348 C 0.01343 0.52461 0.44817 0.0
C1349 C 0.01286 0.46655 0.44562 0.0
C1350 C 0.01364 0.48681 0.44733 0.0
H1351 H 0.04305 0.59542 0.43614 0.0
H1352 H 0.04536 0.5643 0.44245 0.0
H1353 H 0.99136 0.51055 0.47608 0.0
H1354 H 0.97787 0.41496 0.44272 0.0
H1355 H 0.97953 0.44803 0.4497 0.0
C1356 C 0.5524 0.96339 0.74546 0.0
C1357 C 0.5697 0.97983 0.75625 0.0
C1358 C 0.53293 0.96168 0.74707 0.0
C1359 C 0.501 0.97785 0.7792 0.0
H1360 H 0.47546 0.97384 0.71975 0.0
C1361 C 0.43184 0.99195 0.76722 0.0
C1362 C 0.41742 0.98087 0.74982 0.0
C1363 C 0.44961 0.99029 0.76979 0.0
C1364 C 0.48207 0.97454 0.73658 0.0
H1365 H 0.57979 0.00679 0.77817 0.0
H1366 H 0.5456 0.00347 0.78134 0.0
H1367 H 0.5075 0.97291 0.72183 0.0
H1368 H 0.40952 0.95854 0.72232 0.0
H1369 H 0.44 0.95494 0.72728 0.0
H1370 H 0.47542 0.97924 0.79402 0.0
C1371 C 0.54723 0.99198 0.7716 0.0
C1372 C 0.50052 0.97409 0.73772 0.0
C1373 C 0.5668 0.99383 0.76981 0.0
C1374 C 0.42062 0.9675 0.73563 0.0
C1375 C 0.43816 0.96556 0.73842 0.0
C1376 C 0.48232 0.97802 0.77811 0.0
C1377 C 0.53026 0.97621 0.75972 0.0
C1378 C 0.51021 0.97582 0.759 0.0
C1379 C 0.45313 0.97725 0.75521 0.0
C1380 C 0.47266 0.97645 0.75674 0.0
H1381 H 0.55397 0.95204 0.73535 0.0
H1382 H 0.52001 0.94918 0.73804 0.0
H1383 H 0.50815 0.97913 0.79584 0.0
H1384 H 0.42971 0.00243 0.77831 0.0
H1385 H 0.46087 -0.00028 0.78272 0.0
C1386 C 0.41974 0.4411 0.10805 0.0
C1387 C 0.42176 0.42358 0.1043 0.0
C1388 C 0.43725 0.46046 0.11179 0.0
C1389 C 0.49288 0.48687 0.12698 0.0
H1390 H 0.4963 0.53089 0.08831 0.0
C1391 C 0.57011 0.56081 0.10601 0.0
C1392 C 0.57005 0.57943 0.1027 0.0
C1393 C 0.55159 0.54235 0.10995 0.0
C1394 C 0.49551 0.51895 0.09961 0.0
H1395 H 0.44353 0.41237 0.1027 0.0
H1396 H 0.47413 0.44621 0.10911 0.0
H1397 H 0.46453 0.49758 0.08904 0.0
H1398 H 0.55081 0.59361 0.10214 0.0
H1399 H 0.51851 0.56149 0.10947 0.0
H1400 H 0.52399 0.50821 0.13734 0.0
C1401 C 0.45903 0.44498 0.10922 0.0
C1402 C 0.47726 0.49981 0.09999 0.0
C1403 C 0.44154 0.42565 0.10533 0.0
C1404 C 0.55124 0.5794 0.10431 0.0
C1405 C 0.53276 0.561 0.10843 0.0
C1406 C 0.51112 0.50609 0.12672 0.0
C1407 C 0.45711 0.46267 0.112 0.0
C1408 C 0.47585 0.48348 0.11341 0.0
C1409 C 0.53264 0.54217 0.11082 0.0
C1410 C 0.51276 0.52227 0.11275 0.0
H1411 H 0.40471 0.44 0.10718 0.0
H1412 H 0.43529 0.4738 0.11409 0.0
H1413 H 0.49214 0.47462 0.13769 0.0
H1414 H 0.58436 0.56035 0.10461 0.0
H1415 H 0.55208 0.52812 0.11138 0.0
C1416 C 0.08631 0.78928 0.37585 0.0
C1417 C 0.08682 0.77125 0.38171 0.0
C1418 C 0.10332 0.80589 0.36529 0.0
C1419 C 0.15918 0.82933 0.35396 0.0
H1420 H 0.14669 0.85182 0.29994 0.0
C1421 C 0.22373 0.88917 0.29502 0.0
C1422 C 0.22152 0.90591 0.28763 0.0
C1423 C 0.20726 0.87203 0.30567 0.0
C1424 C 0.15046 0.84588 0.31511 0.0
H1425 H 0.1059 0.75684 0.38183 0.0
H1426 H 0.13576 0.78604 0.3637 0.0
H1427 H 0.11857 0.82423 0.32184 0.0
H1428 H 0.20003 0.9174 0.28475 0.0
H1429 H 0.17151 0.8878 0.30375 0.0
H1430 H 0.19106 0.85118 0.34744 0.0
C1431 C 0.12219 0.7873 0.36734 0.0
C1432 C 0.13433 0.83008 0.32767 0.0
C1433 C 0.10511 0.77062 0.37782 0.0
C1434 C 0.20228 0.90484 0.29044 0.0
C1435 C 0.18586 0.88776 0.30115 0.0
C1436 C 0.17533 0.84525 0.34147 0.0
C1437 C 0.12126 0.80488 0.36045 0.0
C1438 C 0.13851 0.82171 0.34728 0.0
C1439 C 0.18824 0.87128 0.30921 0.0
C1440 C 0.17115 0.85377 0.32194 0.0
H1441 H 0.07256 0.79036 0.37895 0.0
H1442 H 0.10233 0.81942 0.36058 0.0
H1443 H 0.16284 0.82326 0.36909 0.0
H1444 H 0.23841 0.88961 0.29335 0.0
H1445 H 0.20952 0.85946 0.31136 0.0
C1446 C 0.34208 0.22892 0.63389 0.0
C1447 C 0.32208 0.22641 0.6332 0.0
C1448 C 0.34558 0.21429 0.64504 0.0
C1449 C 0.32382 0.17519 0.69074 0.0
H1450 H 0.35452 0.15162 0.66255 0.0
C1451 C 0.31624 0.09862 0.72097 0.0
C1452 C 0.33324 0.09546 0.71913 0.0
C1453 C 0.31762 0.11693 0.71308 0.0
C1454 C 0.34628 0.15836 0.6709 0.0
H1455 H 0.28995 0.20602 0.64257 0.0
H1456 H 0.29612 0.18073 0.6622 0.0
H1457 H 0.35154 0.17882 0.64247 0.0
H1458 H 0.36535 0.10942 0.70861 0.0
H1459 H 0.36794 0.14174 0.69525 0.0
H1460 H 0.3184 0.15477 0.71908 0.0
C1461 C 0.30912 0.19416 0.65446 0.0
C1462 C 0.34451 0.17386 0.65933 0.0
C1463 C 0.30559 0.20863 0.64319 0.0
C1464 C 0.35203 0.11148 0.71037 0.0
C1465 C 0.35343 0.12986 0.70246 0.0
C1466 C 0.32573 0.15986 0.70238 0.0
C1467 C 0.32918 0.19701 0.65585 0.0
C1468 C 0.33281 0.18203 0.66889 0.0
C1469 C 0.33608 0.13259 0.70323 0.0
C1470 C 0.33653 0.15087 0.69235 0.0
H1471 H 0.35516 0.24257 0.62662 0.0
H1472 H 0.3612 0.21686 0.6459 0.0
H1473 H 0.31508 0.18156 0.69872 0.0
H1474 H 0.30162 0.08662 0.72785 0.0
H1475 H 0.30388 0.11837 0.71376 0.0
C1476 C 0.21201 0.30929 0.03718 0.0
C1477 C 0.22814 0.32828 0.04556 0.0
C1478 C 0.19501 0.30836 0.02586 0.0
C1479 C 0.18211 0.33903 0.98906 0.0
H1480 H 0.12478 0.30171 0.00531 0.0
C1481 C 0.11523 0.34516 0.94736 0.0
C1482 C 0.09557 0.32735 0.94558 0.0
C1483 C 0.13149 0.34436 0.95833 0.0
C1484 C 0.14067 0.31193 0.00017 0.0
H1485 H 0.23817 0.3609 0.04983 0.0
H1486 H 0.20887 0.35929 0.02921 0.0
H1487 H 0.15232 0.30189 0.02821 0.0
H1488 H 0.07807 0.2944 0.95295 0.0
H1489 H 0.1067 0.29275 0.97062 0.0
H1490 H 0.17077 0.34865 0.9606 0.0
C1491 C 0.20955 0.34521 0.03145 0.0
C1492 C 0.15641 0.31214 0.01347 0.0
C1493 C 0.22634 0.3461 0.04316 0.0
C1494 C 0.09299 0.30844 0.95377 0.0
C1495 C 0.10937 0.30757 0.96438 0.0
C1496 C 0.16641 0.33855 0.97547 0.0
C1497 C 0.19396 0.32641 0.02235 0.0
C1498 C 0.17723 0.32587 0.00818 0.0
C1499 C 0.12867 0.32563 0.96743 0.0
C1500 C 0.14545 0.32518 0.98099 0.0
H1501 H 0.21293 0.29528 0.03832 0.0
H1502 H 0.18317 0.29369 0.0189 0.0
H1503 H 0.19811 0.34953 0.98446 0.0
H1504 H 0.11796 0.35993 0.94088 0.0
H1505 H 0.14602 0.35867 0.96042 0.0
C1506 C 0.88486 0.21799 0.3908 0.0
C1507 C 0.89564 0.23564 0.37686 0.0
C1508 C 0.86731 0.20041 0.38238 0.0
C1509 C 0.82759 0.18218 0.33618 0.0
H1510 H 0.82317 0.12898 0.34824 0.0
C1511 C 0.77005 0.10719 0.28777 0.0
C1512 C 0.76001 0.08893 0.3009 0.0
C1513 C 0.78595 0.12541 0.29747 0.0
C1514 C 0.82403 0.14368 0.34493 0.0
H1515 H 0.89642 0.24862 0.34312 0.0
H1516 H 0.8659 0.21806 0.32852 0.0
H1517 H 0.85163 0.16017 0.36499 0.0
H1518 H 0.75813 0.07573 0.33477 0.0
H1519 H 0.78579 0.10739 0.35159 0.0
H1520 H 0.80005 0.16563 0.31592 0.0
C1521 C 0.87075 0.21789 0.34609 0.0
C1522 C 0.84033 0.16156 0.35458 0.0
C1523 C 0.88826 0.23544 0.35449 0.0
C1524 C 0.76592 0.08939 0.32401 0.0
C1525 C 0.78176 0.10755 0.33367 0.0
C1526 C 0.81128 0.16427 0.3265 0.0
C1527 C 0.86019 0.20009 0.35983 0.0
C1528 C 0.84234 0.18103 0.35028 0.0
C1529 C 0.79208 0.12573 0.32049 0.0
C1530 C 0.80934 0.14483 0.33074 0.0
H1531 H 0.89002 0.21774 0.40819 0.0
H1532 H 0.85933 0.18703 0.39352 0.0
H1533 H 0.82857 0.19692 0.33276 0.0
H1534 H 0.76587 0.10728 0.2699 0.0
H1535 H 0.79374 0.13913 0.2868 0.0
C1536 C 0.65607 0.77387 0.59685 0.0
C1537 C 0.67312 0.77072 0.59814 0.0
C1538 C 0.65735 0.79187 0.60581 0.0
C1539 C 0.65986 0.82182 0.64277 0.0
H1540 H 0.7084 0.87641 0.6378 0.0
C1541 C 0.66354 0.89426 0.68342 0.0
C1542 C 0.68232 0.90883 0.69369 0.0
C1543 C 0.66226 0.87773 0.67077 0.0
C1544 C 0.69482 0.86121 0.63955 0.0
H1545 H 0.70517 0.78444 0.60901 0.0
H1546 H 0.70744 0.81585 0.62437 0.0
H1547 H 0.70664 0.84772 0.6157 0.0
H1548 H 0.71432 0.91724 0.69924 0.0
H1549 H 0.71203 0.88817 0.67742 0.0
H1550 H 0.64816 0.83514 0.6669 0.0
C1551 C 0.69312 0.80449 0.6163 0.0
C1552 C 0.69379 0.84482 0.62682 0.0
C1553 C 0.69183 0.78649 0.6074 0.0
C1554 C 0.69969 0.90633 0.69137 0.0
C1555 C 0.6984 0.88975 0.67877 0.0
C1556 C 0.66091 0.83819 0.65555 0.0
C1557 C 0.67572 0.80711 0.61619 0.0
C1558 C 0.67634 0.82491 0.6284 0.0
C1559 C 0.67971 0.87537 0.66813 0.0
C1560 C 0.67846 0.85805 0.65421 0.0
H1561 H 0.64153 0.76215 0.58952 0.0
H1562 H 0.64379 0.79364 0.60509 0.0
H1563 H 0.64637 0.80658 0.64471 0.0
H1564 H 0.64999 0.89601 0.68451 0.0
H1565 H 0.64772 0.86711 0.66254 0.0
C1566 C 0.78166 0.68383 0.04063 0.0
C1567 C 0.76492 0.66545 0.04928 0.0
C1568 C 0.79851 0.68368 0.03031 0.0
C1569 C 0.8113 0.64869 -0.00051 0.0
H1570 H 0.86818 0.69201 0.00886 0.0
C1571 C 0.8809 0.64415 0.96285 0.0
C1572 C 0.89831 0.66258 0.95544 0.0
C1573 C 0.86431 0.64458 0.97348 0.0
C1574 C 0.85235 0.67996 0.00577 0.0
H1575 H 0.75337 0.63274 0.05508 0.0
H1576 H 0.78278 0.63248 0.03693 0.0
H1577 H 0.84054 0.69263 0.03068 0.0
H1578 H 0.91165 0.69586 0.95272 0.0
H1579 H 0.8824 0.69652 0.97058 0.0
H1580 H 0.823 0.63611 0.97442 0.0
C1581 C 0.78266 0.64693 0.03783 0.0
C1582 C 0.83654 0.68027 0.01838 0.0
C1583 C 0.76586 0.6471 0.04825 0.0
C1584 C 0.89838 0.68135 0.95801 0.0
C1585 C 0.88175 0.68177 0.96858 0.0
C1586 C 0.82708 0.64843 0.9868 0.0
C1587 C 0.79896 0.66514 0.02833 0.0
C1588 C 0.81586 0.66461 0.01541 0.0
C1589 C 0.86471 0.66344 0.97687 0.0
C1590 C 0.84781 0.66404 0.98981 0.0
H1591 H 0.78131 0.69818 0.04077 0.0
H1592 H 0.81075 0.69792 0.02297 0.0
H1593 H 0.79545 0.63661 0.99651 0.0
H1594 H 0.88029 0.62941 0.96091 0.0
H1595 H 0.85151 0.63018 0.97977 0.0
C1596 C 0.3201 0.02419 0.41149 0.0
C1597 C 0.33054 0.01666 0.39789 0.0
C1598 C 0.3181 0.02078 0.43528 0.0
C1599 C 0.32207 0.98737 0.48055 0.0
H1600 H 0.31974 0.02713 0.52157 0.0
C1601 C 0.30292 0.9695 0.57728 0.0
C1602 C 0.31249 0.98603 0.59285 0.0
C1603 C 0.30476 0.97323 0.55352 0.0
C1604 C 0.32064 0.01593 0.51047 0.0
H1605 H 0.3474 -0.00012 0.39913 0.0
H1606 H 0.34517 0.99526 0.44054 0.0
H1607 H 0.32518 0.03457 0.48069 0.0
H1608 H 0.33194 0.01923 0.59611 0.0
H1609 H 0.33604 0.02576 0.55482 0.0
H1610 H 0.31874 0.96929 0.51049 0.0
C1611 C 0.33785 0.00317 0.43275 0.0
C1612 C 0.3234 0.02006 0.48685 0.0
C1613 C 0.33951 0.00623 0.40892 0.0
C1614 C 0.32417 0.00627 0.58437 0.0
C1615 C 0.32638 0.00998 0.56067 0.0
C1616 C 0.31971 0.98342 0.50423 0.0
C1617 C 0.32681 0.01008 0.44624 0.0
C1618 C 0.32412 0.00582 0.47152 0.0
C1619 C 0.3166 0.99354 0.54487 0.0
C1620 C 0.31892 0.99763 0.51955 0.0
H1621 H 0.31327 0.0326 0.40377 0.0
H1622 H 0.30928 0.02617 0.44494 0.0
H1623 H 0.32212 0.97579 0.46934 0.0
H1624 H 0.29376 0.95376 0.58351 0.0
H1625 H 0.29669 0.96019 0.54198 0.0
C1626 C 0.34659 0.33103 0.91333 0.0
C1627 C 0.33017 0.32796 0.92779 0.0
C1628 C 0.34497 0.33224 0.88941 0.0
C1629 C 0.31632 0.34361 0.84535 0.0
H1630 H 0.33661 0.31722 0.80353 0.0
C1631 C 0.30004 0.33686 0.74728 0.0
C1632 C 0.31625 0.33977 0.73255 0.0
C1633 C 0.302 0.33594 0.77117 0.0
C1634 C 0.3311 0.32489 0.81498 0.0
H1635 H 0.29883 0.32276 0.92845 0.0
H1636 H 0.29601 0.32482 0.88683 0.0
H1637 H 0.33952 0.31411 0.84505 0.0
H1638 H 0.34723 0.34399 0.73143 0.0
H1639 H 0.35082 0.34293 0.77301 0.0
H1640 H 0.30789 0.35439 0.8153 0.0
C1641 C 0.31031 0.32678 0.89396 0.0
C1642 C 0.33275 0.32309 0.83876 0.0
C1643 C 0.31193 0.32558 0.9178 0.0
C1644 C 0.33456 0.34205 0.74227 0.0
C1645 C 0.33651 0.34113 0.76611 0.0
C1646 C 0.31467 0.34542 0.82157 0.0
C1647 C 0.32689 0.33036 0.8795 0.0
C1648 C 0.32533 0.33239 0.85422 0.0
C1649 C 0.32019 0.33786 0.78083 0.0
C1650 C 0.32203 0.33607 0.80612 0.0
H1651 H 0.36091 0.33309 0.92054 0.0
H1652 H 0.35808 0.33518 0.87874 0.0
H1653 H 0.31076 0.35124 0.85681 0.0
H1654 H 0.28579 0.33516 0.74034 0.0
H1655 H 0.28908 0.33325 0.78204 0.0
C1656 C 0.02031 0.32933 0.2475 0.0
C1657 C 0.01821 0.34357 0.2614 0.0
C1658 C 0.01893 0.33003 0.22355 0.0
C1659 C 0.99421 0.34384 0.17887 0.0
H1660 H 0.03349 0.34047 0.13789 0.0
C1661 C 0.98669 0.34375 0.07933 0.0
C1662 C 0.99284 0.33166 0.06677 0.0
C1663 C 0.9902 0.34639 0.10312 0.0
C1664 C 0.02219 0.3411 0.14907 0.0
H1665 H 0.01331 0.36986 0.26139 0.0
H1666 H 0.01052 0.37086 0.21929 0.0
H1667 H 0.03977 0.34354 0.17932 0.0
H1668 H 0.00655 0.31209 0.06911 0.0
H1669 H 0.01192 0.31591 0.11062 0.0
H1670 H 0.97614 0.34056 0.14885 0.0
C1671 C 0.01339 0.3593 0.22699 0.0
C1672 C 0.02591 0.34303 0.17277 0.0
C1673 C 0.01515 0.35882 0.25096 0.0
C1674 C 0.0019 0.32169 0.07843 0.0
C1675 C 0.00513 0.32406 0.10218 0.0
C1676 C 0.9903 0.3416 0.15516 0.0
C1677 C 0.01508 0.34477 0.21311 0.0
C1678 C 0.01188 0.34425 0.18789 0.0
C1679 C -0.00031 0.33675 0.1148 0.0
C1680 C 0.00414 0.33998 0.13996 0.0
H1681 H 0.02269 0.31744 0.25521 0.0
H1682 H 0.02015 0.31858 0.21323 0.0
H1683 H 0.98304 0.34452 0.19023 0.0
H1684 H 0.97983 0.35173 0.07063 0.0
H1685 H 0.98599 0.35643 0.11219 0.0
C1686 C 0.66308 0.96762 0.42084 0.0
C1687 C 0.65488 0.97655 0.40587 0.0
C1688 C 0.66517 0.97222 0.44438 0.0
C1689 C 0.66913 0.01216 0.48517 0.0
H1690 H 0.6608 0.97098 0.53118 0.0
C1691 C 0.6711 0.02641 0.58376 0.0
C1692 C 0.68184 0.01912 0.59718 0.0
C1693 C 0.66768 0.02162 0.56028 0.0
C1694 C 0.66334 0.98268 0.51849 0.0
H1695 H 0.64212 0.99708 0.40413 0.0
H1696 H 0.64505 0.00444 0.44522 0.0
H1697 H 0.65392 0.96096 0.49073 0.0
H1698 H 0.69743 0.00114 0.59648 0.0
H1699 H 0.69165 0.993 0.55552 0.0
H1700 H 0.67841 0.03382 0.51308 0.0
C1701 C 0.65024 0.99419 0.4387 0.0
C1702 C 0.65942 0.97696 0.49531 0.0
C1703 C 0.64825 0.98969 0.41515 0.0
C1704 C 0.68937 0.00725 0.58655 0.0
C1705 C 0.68582 0.00234 0.56316 0.0
C1706 C 0.67292 0.01785 0.50839 0.0
C1707 C 0.65903 0.98578 0.45355 0.0
C1708 C 0.66241 0.99166 0.47834 0.0
C1709 C 0.67474 0.00927 0.54984 0.0
C1710 C 0.67023 0.0032 0.52526 0.0
H1711 H 0.66815 0.95728 0.41432 0.0
H1712 H 0.67217 0.96559 0.45527 0.0
H1713 H 0.67193 0.02397 0.47253 0.0
H1714 H 0.66517 0.03562 0.59149 0.0
H1715 H 0.65902 0.02709 0.55043 0.0
C1716 C 0.67923 0.69087 0.91726 0.0
C1717 C 0.66117 0.67714 0.9292 0.0
C1718 C 0.67994 0.69012 0.89325 0.0
C1719 C 0.64684 0.66771 0.84094 0.0
H1720 H 0.69897 0.67887 0.81377 0.0
C1721 C 0.6565 0.65027 0.74558 0.0
C1722 C 0.67173 0.66747 0.73348 0.0
C1723 C 0.65492 0.65109 0.76954 0.0
C1724 C 0.68435 0.67577 0.82117 0.0
H1725 H 0.62963 0.65203 0.9258 0.0
H1726 H 0.63098 0.65003 0.88383 0.0
H1727 H 0.69638 0.68113 0.8554 0.0
H1728 H 0.69755 0.69872 0.7367 0.0
H1729 H 0.69522 0.69992 0.77876 0.0
H1730 H 0.63477 0.66164 0.80646 0.0
C1731 C 0.64447 0.66184 0.89278 0.0
C1732 C 0.68286 0.67723 0.84501 0.0
C1733 C 0.64365 0.6629 0.91681 0.0
C1734 C 0.68568 0.68529 0.74572 0.0
C1735 C 0.68438 0.68595 0.76969 0.0
C1736 C 0.64826 0.66588 0.8171 0.0
C1737 C 0.66274 0.67527 0.88069 0.0
C1738 C 0.66414 0.67343 0.85524 0.0
C1739 C 0.66884 0.66895 0.78176 0.0
C1740 C 0.66707 0.67006 0.80703 0.0
H1741 H 0.69288 0.70206 0.92656 0.0
H1742 H 0.69409 0.70111 0.8846 0.0
H1743 H 0.63226 0.66497 0.84806 0.0
H1744 H 0.64549 0.63643 0.73643 0.0
H1745 H 0.64289 0.63777 0.77854 0.0
C1746 C 0.97629 0.64426 0.25098 0.0
C1747 C 0.98966 0.66076 0.26534 0.0
C1748 C 0.97971 0.6453 0.22717 0.0
C1749 C 0.00554 0.68316 0.18049 0.0
H1750 H -0.00214 0.63552 0.14551 0.0
C1751 C 0.00068 0.68024 0.08155 0.0
C1752 C 0.01068 0.67134 0.06959 0.0
C1753 C -0.00075 0.67918 0.10554 0.0
C1754 C 0.00025 0.64901 0.15508 0.0
H1755 H 0.0176 0.69087 0.26608 0.0
H1756 H 0.02347 0.6927 0.22468 0.0
H1757 H 0.99315 0.63283 0.18733 0.0
H1758 H 0.02726 0.65452 0.07342 0.0
H1759 H 0.02496 0.65284 0.11556 0.0
H1760 H 0.0128 0.6994 0.14837 0.0
C1761 C 0.01011 0.67916 0.23171 0.0
C1762 C -0.00268 0.6474 0.17898 0.0
C1763 C 0.0067 0.67812 0.25544 0.0
C1764 C 0.01956 0.66163 0.08219 0.0
C1765 C 0.01806 0.66048 0.10626 0.0
C1766 C 0.00842 0.68475 0.15665 0.0
C1767 C 0.99658 0.66285 0.21727 0.0
C1768 C -0.00013 0.66445 0.19193 0.0
C1769 C 0.0078 0.66918 0.11817 0.0
C1770 C 0.00569 0.66767 0.14365 0.0
H1771 H 0.96297 0.63073 0.25809 0.0
H1772 H 0.96888 0.63257 0.21646 0.0
H1773 H 0.00744 0.69653 0.18992 0.0
H1774 H 0.99389 0.68803 0.07234 0.0
H1775 H 0.99108 0.68586 0.11416 0.0
loop_
_geom_bond_atom_site_label_1
_geom_bond_atom_site_label_2
_geom_bond_distance
_geom_bond_site_symmetry_2
_ccdc_geom_bond_type
Li0 N17 1.990 . S
Li0 O60 1.956 . S
Li0 O61 1.970 1_565 S
Li0 O62 1.961 . S
Li1 N25 1.990 . S
Li1 O60 1.970 1_545 S
Li1 O61 1.956 . S
Li1 O63 1.961 . S
Li2 N47 1.990 . S
Li2 O60 1.961 . S
Li2 O62 1.956 . S
Li2 O63 1.970 1_565 S
Li3 N53 1.990 . S
Li3 O61 1.961 . S
Li3 O62 1.970 1_545 S
Li3 O63 1.956 . S
C4 C6 1.348 . S
C4 C7 1.356 . S
C4 O60 1.325 . S
N5 C8 1.314 . S
N5 C9 1.279 . S
C6 C4 1.348 . S
C6 C8 1.353 . S
C6 H64 0.929 . S
C7 C4 1.356 . S
C7 C9 1.358 . S
C7 H65 0.930 . S
C8 N5 1.314 . S
C8 C6 1.353 . S
C8 H66 0.930 . S
C9 N5 1.279 . S
C9 C7 1.358 . S
C9 H67 0.930 . S
C10 C13 1.348 . S
C10 C14 1.356 . S
C10 O61 1.325 . S
C11 N12 1.279 . S
C11 C14 1.358 . S
C11 H68 0.930 . S
N12 C11 1.279 . S
N12 C15 1.314 . S
C13 C10 1.348 . S
C13 C15 1.353 . S
C13 H69 0.929 . S
C14 C10 1.356 . S
C14 C11 1.358 . S
C14 H70 0.930 . S
C15 N12 1.314 . S
C15 C13 1.353 . S
C15 H71 0.930 . S
C16 N17 1.314 1_545 S
C16 C21 1.353 . S
C16 H22 0.930 . S
N17 Li0 1.990 . S
N17 C16 1.314 1_565 S
N17 C19 1.279 . S
C18 C19 1.358 . S
C18 C20 1.356 . S
C18 H72 0.930 . S
C19 N17 1.279 . S
C19 C18 1.358 . S
C19 H23 0.930 . S
C20 C18 1.356 . S
C20 C21 1.348 1_565 S
C21 C16 1.353 . S
C21 C20 1.348 1_545 S
C21 H73 0.929 . S
H22 C16 0.930 . S
H23 C19 0.930 . S
C24 N25 1.314 . S
C24 C26 1.353 . S
C24 H30 0.930 1_545 S
N25 Li1 1.990 . S
N25 C24 1.314 . S
N25 C28 1.279 . S
C26 C24 1.353 . S
C26 C29 1.348 . S
C26 H74 0.929 . S
C27 C28 1.358 . S
C27 C29 1.356 . S
C27 H75 0.930 . S
C28 N25 1.279 . S
C28 C27 1.358 . S
C28 H31 0.930 . S
C29 C26 1.348 . S
C29 C27 1.356 . S
H30 C24 0.930 1_565 S
H31 C28 0.930 . S
C32 C34 1.348 . S
C32 C35 1.356 . S
C32 O62 1.325 . S
N33 C36 1.314 . S
N33 C37 1.279 . S
C34 C32 1.348 . S
C34 C36 1.353 . S
C34 H76 0.929 1_565 S
C35 C32 1.356 . S
C35 C37 1.358 . S
C35 H77 0.930 . S
C36 N33 1.314 . S
C36 C34 1.353 . S
C36 H78 0.930 . S
C37 N33 1.279 . S
C37 C35 1.358 . S
C37 H79 0.930 . S
C38 C39 1.348 1_545 S
C38 C40 1.356 . S
C38 O63 1.325 . S
C39 C38 1.348 1_565 S
C39 C41 1.353 . S
C39 H80 0.929 . S
C40 C38 1.356 . S
C40 C42 1.358 . S
C40 H81 0.930 . S
C41 C39 1.353 . S
C41 N43 1.314 1_565 S
C41 H82 0.930 . S
C42 C40 1.358 . S
C42 N43 1.279 . S
C42 H83 0.930 . S
N43 C41 1.314 1_545 S
N43 C42 1.279 . S
C44 C46 1.353 . S
C44 N47 1.314 . S
C44 H50 0.930 . S
C45 N47 1.279 . S
C45 C48 1.358 . S
C45 H51 0.930 . S
C46 C44 1.353 . S
C46 C49 1.348 . S
C46 H84 0.929 . S
N47 Li2 1.990 . S
N47 C44 1.314 . S
N47 C45 1.279 . S
C48 C45 1.358 . S
C48 C49 1.356 . S
C48 H85 0.930 . S
C49 C46 1.348 . S
C49 C48 1.356 . S
H50 C44 0.930 . S
H51 C45 0.930 . S
C52 N53 1.314 . S
C52 C54 1.353 . S
C52 H58 0.930 . S
N53 Li3 1.990 . S
N53 C52 1.314 . S
N53 C56 1.279 . S
C54 C52 1.353 . S
C54 C57 1.348 . S
C54 H86 0.929 . S
C55 C56 1.358 . S
C55 C57 1.356 . S
C55 H87 0.930 . S
C56 N53 1.279 . S
C56 C55 1.358 . S
C56 H59 0.930 . S
C57 C54 1.348 . S
C57 C55 1.356 . S
H58 C52 0.930 . S
H59 C56 0.930 . S
O60 Li0 1.956 . S
O60 Li1 1.970 1_565 S
O60 Li2 1.961 . S
O60 C4 1.325 . S
O61 Li0 1.970 1_545 S
O61 Li1 1.956 . S
O61 Li3 1.961 . S
O61 C10 1.325 . S
O62 Li0 1.961 . S
O62 Li2 1.956 . S
O62 Li3 1.970 1_565 S
O62 C32 1.325 . S
O63 Li1 1.961 . S
O63 Li2 1.970 1_545 S
O63 Li3 1.956 . S
O63 C38 1.325 . S
H64 C6 0.929 . S
H65 C7 0.930 . S
H66 C8 0.930 . S
H67 C9 0.930 . S
H68 C11 0.930 . S
H69 C13 0.929 . S
H70 C14 0.930 . S
H71 C15 0.930 . S
H72 C18 0.930 . S
H73 C21 0.929 . S
H74 C26 0.929 . S
H75 C27 0.930 . S
H76 C34 0.929 1_545 S
H77 C35 0.930 . S
H78 C36 0.930 . S
H79 C37 0.930 . S
H80 C39 0.929 . S
H81 C40 0.930 . S
H82 C41 0.930 . S
H83 C42 0.930 . S
H84 C46 0.929 . S
H85 C48 0.930 . S
H86 C54 0.929 . S
H87 C55 0.930 . S
Li88 N105 1.990 . S
Li88 O148 1.956 . S
Li88 O149 1.970 . S
Li88 O150 1.961 . S
Li89 N113 1.990 . S
Li89 O148 1.970 . S
Li89 O149 1.956 . S
Li89 O151 1.961 . S
Li90 N135 1.990 . S
Li90 O148 1.961 . S
Li90 O150 1.956 . S
Li90 O151 1.970 . S
Li91 N141 1.990 . S
Li91 O149 1.961 . S
Li91 O150 1.970 . S
Li91 O151 1.956 . S
C92 C94 1.348 . S
C92 C95 1.356 . S
C92 O148 1.325 . S
N93 C96 1.314 . S
N93 C97 1.279 . S
C94 C92 1.348 . S
C94 C96 1.353 . S
C94 H152 0.929 . S
C95 C92 1.356 . S
C95 C97 1.358 . S
C95 H153 0.930 . S
C96 N93 1.314 . S
C96 C94 1.353 . S
C96 H154 0.930 . S
C97 N93 1.279 . S
C97 C95 1.358 . S
C97 H155 0.930 . S
C98 C101 1.348 . S
C98 C102 1.356 . S
C98 O149 1.325 . S
C99 N100 1.279 . S
C99 C102 1.358 . S
C99 H156 0.930 . S
N100 C99 1.279 . S
N100 C103 1.314 . S
C101 C98 1.348 . S
C101 C103 1.353 . S
C101 H157 0.929 . S
C102 C98 1.356 . S
C102 C99 1.358 . S
C102 H158 0.930 . S
C103 N100 1.314 . S
C103 C101 1.353 . S
C103 H159 0.930 . S
C104 N105 1.314 . S
C104 C109 1.353 . S
C104 H110 0.930 . S
N105 Li88 1.990 . S
N105 C104 1.314 . S
N105 C107 1.279 . S
C106 C107 1.358 . S
C106 C108 1.356 . S
C106 H160 0.930 . S
C107 N105 1.279 . S
C107 C106 1.358 . S
C107 H111 0.930 . S
C108 C106 1.356 . S
C108 C109 1.348 . S
C109 C104 1.353 . S
C109 C108 1.348 . S
C109 H161 0.929 . S
H110 C104 0.930 . S
H111 C107 0.930 . S
C112 N113 1.314 . S
C112 C114 1.353 . S
C112 H118 0.930 . S
N113 Li89 1.990 . S
N113 C112 1.314 . S
N113 C116 1.279 . S
C114 C112 1.353 . S
C114 C117 1.348 . S
C114 H162 0.929 . S
C115 C116 1.358 . S
C115 C117 1.356 . S
C115 H163 0.930 . S
C116 N113 1.279 . S
C116 C115 1.358 . S
C116 H119 0.930 . S
C117 C114 1.348 . S
C117 C115 1.356 . S
H118 C112 0.930 . S
H119 C116 0.930 . S
C120 C122 1.348 . S
C120 C123 1.356 . S
C120 O150 1.325 . S
N121 C124 1.314 . S
N121 C125 1.279 . S
C122 C120 1.348 . S
C122 C124 1.353 . S
C122 H164 0.929 . S
C123 C120 1.356 . S
C123 C125 1.358 . S
C123 H165 0.930 . S
C124 N121 1.314 . S
C124 C122 1.353 . S
C124 H166 0.930 . S
C125 N121 1.279 . S
C125 C123 1.358 . S
C125 H167 0.930 . S
C126 C127 1.348 . S
C126 C128 1.356 . S
C126 O151 1.325 . S
C127 C126 1.348 . S
C127 C129 1.353 . S
C127 H168 0.929 . S
C128 C126 1.356 . S
C128 C130 1.358 . S
C128 H169 0.930 . S
C129 C127 1.353 . S
C129 N131 1.314 . S
C129 H170 0.930 . S
C130 C128 1.358 . S
C130 N131 1.279 . S
C130 H171 0.930 . S
N131 C129 1.314 . S
N131 C130 1.279 . S
C132 C134 1.353 . S
C132 N135 1.314 . S
C132 H138 0.930 . S
C133 N135 1.279 . S
C133 C136 1.358 . S
C133 H139 0.930 . S
C134 C132 1.353 . S
C134 C137 1.348 . S
C134 H172 0.929 . S
N135 Li90 1.990 . S
N135 C132 1.314 . S
N135 C133 1.279 . S
C136 C133 1.358 . S
C136 C137 1.356 . S
C136 H173 0.930 . S
C137 C134 1.348 . S
C137 C136 1.356 . S
H138 C132 0.930 . S
H139 C133 0.930 . S
C140 N141 1.314 . S
C140 C142 1.353 . S
C140 H146 0.930 . S
N141 Li91 1.990 . S
N141 C140 1.314 . S
N141 C144 1.279 . S
C142 C140 1.353 . S
C142 C145 1.348 . S
C142 H174 0.929 . S
C143 C144 1.358 . S
C143 C145 1.356 . S
C143 H175 0.930 . S
C144 N141 1.279 . S
C144 C143 1.358 . S
C144 H147 0.930 . S
C145 C142 1.348 . S
C145 C143 1.356 . S
H146 C140 0.930 . S
H147 C144 0.930 . S
O148 Li88 1.956 . S
O148 Li89 1.970 . S
O148 Li90 1.961 . S
O148 C92 1.325 . S
O149 Li88 1.970 . S
O149 Li89 1.956 . S
O149 Li91 1.961 . S
O149 C98 1.325 . S
O150 Li88 1.961 . S
O150 Li90 1.956 . S
O150 Li91 1.970 . S
O150 C120 1.325 . S
O151 Li89 1.961 . S
O151 Li90 1.970 . S
O151 Li91 1.956 . S
O151 C126 1.325 . S
H152 C94 0.929 . S
H153 C95 0.930 . S
H154 C96 0.930 . S
H155 C97 0.930 . S
H156 C99 0.930 . S
H157 C101 0.929 . S
H158 C102 0.930 . S
H159 C103 0.930 . S
H160 C106 0.930 . S
H161 C109 0.929 . S
H162 C114 0.929 . S
H163 C115 0.930 . S
H164 C122 0.929 . S
H165 C123 0.930 . S
H166 C124 0.930 . S
H167 C125 0.930 . S
H168 C127 0.929 . S
H169 C128 0.930 . S
H170 C129 0.930 . S
H171 C130 0.930 . S
H172 C134 0.929 . S
H173 C136 0.930 . S
H174 C142 0.929 . S
H175 C143 0.930 . S
Li176 N193 1.990 . S
Li176 O236 1.956 . S
Li176 O237 1.970 1_455 S
Li176 O238 1.961 . S
Li177 N201 1.990 1_556 S
Li177 O236 1.970 1_655 S
Li177 O237 1.956 . S
Li177 O239 1.961 . S
Li178 N223 1.990 . S
Li178 O236 1.961 . S
Li178 O238 1.956 . S
Li178 O239 1.970 1_455 S
Li179 N229 1.990 . S
Li179 O237 1.961 . S
Li179 O238 1.970 1_655 S
Li179 O239 1.956 . S
C180 C182 1.348 1_556 S
C180 C183 1.356 . S
C180 O236 1.325 . S
N181 C184 1.314 . S
N181 C185 1.279 1_554 S
C182 C180 1.348 1_554 S
C182 C184 1.353 . S
C182 H240 0.929 . S
C183 C180 1.356 . S
C183 C185 1.358 . S
C183 H241 0.930 . S
C184 N181 1.314 . S
C184 C182 1.353 . S
C184 H242 0.930 . S
C185 N181 1.279 1_556 S
C185 C183 1.358 . S
C185 H243 0.930 . S
C186 C189 1.348 . S
C186 C190 1.356 . S
C186 O237 1.325 . S
C187 N188 1.279 . S
C187 C190 1.358 . S
C187 H244 0.930 . S
N188 C187 1.279 . S
N188 C191 1.314 . S
C189 C186 1.348 . S
C189 C191 1.353 . S
C189 H245 0.929 . S
C190 C186 1.356 . S
C190 C187 1.358 . S
C190 H246 0.930 . S
C191 N188 1.314 . S
C191 C189 1.353 . S
C191 H247 0.930 . S
C192 N193 1.314 1_655 S
C192 C197 1.353 . S
C192 H198 0.930 . S
N193 Li176 1.990 . S
N193 C192 1.314 1_455 S
N193 C195 1.279 . S
C194 C195 1.358 . S
C194 C196 1.356 . S
C194 H248 0.930 . S
C195 N193 1.279 . S
C195 C194 1.358 . S
C195 H199 0.930 . S
C196 C194 1.356 . S
C196 C197 1.348 1_455 S
C197 C192 1.353 . S
C197 C196 1.348 1_655 S
C197 H249 0.929 . S
H198 C192 0.930 . S
H199 C195 0.930 . S
C200 N201 1.314 . S
C200 C202 1.353 . S
C200 H206 0.930 1_655 S
N201 Li177 1.990 1_554 S
N201 C200 1.314 . S
N201 C204 1.279 . S
C202 C200 1.353 . S
C202 C205 1.348 . S
C202 H250 0.929 . S
C203 C204 1.358 . S
C203 C205 1.356 . S
C203 H251 0.930 . S
C204 N201 1.279 . S
C204 C203 1.358 . S
C204 H207 0.930 . S
C205 C202 1.348 . S
C205 C203 1.356 . S
H206 C200 0.930 1_455 S
H207 C204 0.930 . S
C208 C210 1.348 . S
C208 C211 1.356 . S
C208 O238 1.325 . S
N209 C212 1.314 . S
N209 C213 1.279 . S
C210 C208 1.348 . S
C210 C212 1.353 . S
C210 H252 0.929 1_455 S
C211 C208 1.356 . S
C211 C213 1.358 . S
C211 H253 0.930 . S
C212 N209 1.314 . S
C212 C210 1.353 . S
C212 H254 0.930 . S
C213 N209 1.279 . S
C213 C211 1.358 . S
C213 H255 0.930 . S
C214 C215 1.348 1_655 S
C214 C216 1.356 . S
C214 O239 1.325 . S
C215 C214 1.348 1_455 S
C215 C217 1.353 . S
C215 H256 0.929 . S
C216 C214 1.356 . S
C216 C218 1.358 . S
C216 H257 0.930 . S
C217 C215 1.353 . S
C217 N219 1.314 1_455 S
C217 H258 0.930 . S
C218 C216 1.358 . S
C218 N219 1.279 . S
C218 H259 0.930 . S
N219 C217 1.314 1_655 S
N219 C218 1.279 . S
C220 C222 1.353 . S
C220 N223 1.314 . S
C220 H226 0.930 . S
C221 N223 1.279 . S
C221 C224 1.358 . S
C221 H227 0.930 . S
C222 C220 1.353 . S
C222 C225 1.348 . S
C222 H260 0.929 . S
N223 Li178 1.990 . S
N223 C220 1.314 . S
N223 C221 1.279 . S
C224 C221 1.358 . S
C224 C225 1.356 . S
C224 H261 0.930 . S
C225 C222 1.348 . S
C225 C224 1.356 . S
H226 C220 0.930 . S
H227 C221 0.930 . S
C228 N229 1.314 . S
C228 C230 1.353 . S
C228 H234 0.930 . S
N229 Li179 1.990 . S
N229 C228 1.314 . S
N229 C232 1.279 . S
C230 C228 1.353 . S
C230 C233 1.348 . S
C230 H262 0.929 . S
C231 C232 1.358 . S
C231 C233 1.356 . S
C231 H263 0.930 . S
C232 N229 1.279 . S
C232 C231 1.358 . S
C232 H235 0.930 . S
C233 C230 1.348 . S
C233 C231 1.356 . S
H234 C228 0.930 . S
H235 C232 0.930 . S
O236 Li176 1.956 . S
O236 Li177 1.970 1_455 S
O236 Li178 1.961 . S
O236 C180 1.325 . S
O237 Li176 1.970 1_655 S
O237 Li177 1.956 . S
O237 Li179 1.961 . S
O237 C186 1.325 . S
O238 Li176 1.961 . S
O238 Li178 1.956 . S
O238 Li179 1.970 1_455 S
O238 C208 1.325 . S
O239 Li177 1.961 . S
O239 Li178 1.970 1_655 S
O239 Li179 1.956 . S
O239 C214 1.325 . S
H240 C182 0.929 . S
H241 C183 0.930 . S
H242 C184 0.930 . S
H243 C185 0.930 . S
H244 C187 0.930 . S
H245 C189 0.929 . S
H246 C190 0.930 . S
H247 C191 0.930 . S
H248 C194 0.930 . S
H249 C197 0.929 . S
H250 C202 0.929 . S
H251 C203 0.930 . S
H252 C210 0.929 1_655 S
H253 C211 0.930 . S
H254 C212 0.930 . S
H255 C213 0.930 . S
H256 C215 0.929 . S
H257 C216 0.930 . S
H258 C217 0.930 . S
H259 C218 0.930 . S
H260 C222 0.929 . S
H261 C224 0.930 . S
H262 C230 0.929 . S
H263 C231 0.930 . S
Li264 N281 1.990 . S
Li264 O324 1.956 . S
Li264 O325 1.970 1_545 S
Li264 O326 1.961 . S
Li265 N289 1.990 . S
Li265 O324 1.970 1_565 S
Li265 O325 1.956 . S
Li265 O327 1.961 . S
Li266 N311 1.990 . S
Li266 O324 1.961 . S
Li266 O326 1.956 . S
Li266 O327 1.970 1_545 S
Li267 N317 1.990 . S
Li267 O325 1.961 . S
Li267 O326 1.970 1_565 S
Li267 O327 1.956 . S
C268 C270 1.348 . S
C268 C271 1.356 . S
C268 O324 1.325 . S
N269 C272 1.314 . S
N269 C273 1.279 . S
C270 C268 1.348 . S
C270 C272 1.353 . S
C270 H328 0.929 . S
C271 C268 1.356 . S
C271 C273 1.358 . S
C271 H329 0.930 . S
C272 N269 1.314 . S
C272 C270 1.353 . S
C272 H330 0.930 . S
C273 N269 1.279 . S
C273 C271 1.358 . S
C273 H331 0.930 . S
C274 C277 1.348 . S
C274 C278 1.356 . S
C274 O325 1.325 . S
C275 N276 1.279 . S
C275 C278 1.358 . S
C275 H332 0.930 . S
N276 C275 1.279 . S
N276 C279 1.314 . S
C277 C274 1.348 . S
C277 C279 1.353 . S
C277 H333 0.929 . S
C278 C274 1.356 . S
C278 C275 1.358 . S
C278 H334 0.930 . S
C279 N276 1.314 . S
C279 C277 1.353 . S
C279 H335 0.930 . S
C280 N281 1.314 1_565 S
C280 C285 1.353 . S
C280 H286 0.930 . S
N281 Li264 1.990 . S
N281 C280 1.314 1_545 S
N281 C283 1.279 . S
C282 C283 1.358 . S
C282 C284 1.356 . S
C282 H336 0.930 . S
C283 N281 1.279 . S
C283 C282 1.358 . S
C283 H287 0.930 . S
C284 C282 1.356 . S
C284 C285 1.348 1_545 S
C285 C280 1.353 . S
C285 C284 1.348 1_565 S
C285 H337 0.929 . S
H286 C280 0.930 . S
H287 C283 0.930 . S
C288 N289 1.314 . S
C288 C290 1.353 . S
C288 H294 0.930 1_565 S
N289 Li265 1.990 . S
N289 C288 1.314 . S
N289 C292 1.279 . S
C290 C288 1.353 . S
C290 C293 1.348 . S
C290 H338 0.929 . S
C291 C292 1.358 . S
C291 C293 1.356 . S
C291 H339 0.930 . S
C292 N289 1.279 . S
C292 C291 1.358 . S
C292 H295 0.930 . S
C293 C290 1.348 . S
C293 C291 1.356 . S
H294 C288 0.930 1_545 S
H295 C292 0.930 . S
C296 C298 1.348 . S
C296 C299 1.356 . S
C296 O326 1.325 . S
N297 C300 1.314 . S
N297 C301 1.279 . S
C298 C296 1.348 . S
C298 C300 1.353 . S
C298 H340 0.929 1_545 S
C299 C296 1.356 . S
C299 C301 1.358 . S
C299 H341 0.930 . S
C300 N297 1.314 . S
C300 C298 1.353 . S
C300 H342 0.930 . S
C301 N297 1.279 . S
C301 C299 1.358 . S
C301 H343 0.930 . S
C302 C303 1.348 1_565 S
C302 C304 1.356 . S
C302 O327 1.325 . S
C303 C302 1.348 1_545 S
C303 C305 1.353 . S
C303 H344 0.929 . S
C304 C302 1.356 . S
C304 C306 1.358 . S
C304 H345 0.930 . S
C305 C303 1.353 . S
C305 N307 1.314 1_545 S
C305 H346 0.930 . S
C306 C304 1.358 . S
C306 N307 1.279 . S
C306 H347 0.930 . S
N307 C305 1.314 1_565 S
N307 C306 1.279 . S
C308 C310 1.353 . S
C308 N311 1.314 . S
C308 H314 0.930 . S
C309 N311 1.279 . S
C309 C312 1.358 . S
C309 H315 0.930 . S
C310 C308 1.353 . S
C310 C313 1.348 . S
C310 H348 0.929 . S
N311 Li266 1.990 . S
N311 C308 1.314 . S
N311 C309 1.279 . S
C312 C309 1.358 . S
C312 C313 1.356 . S
C312 H349 0.930 . S
C313 C310 1.348 . S
C313 C312 1.356 . S
H314 C308 0.930 . S
H315 C309 0.930 . S
C316 N317 1.314 . S
C316 C318 1.353 . S
C316 H322 0.930 . S
N317 Li267 1.990 . S
N317 C316 1.314 . S
N317 C320 1.279 . S
C318 C316 1.353 . S
C318 C321 1.348 . S
C318 H350 0.929 . S
C319 C320 1.358 . S
C319 C321 1.356 . S
C319 H351 0.930 . S
C320 N317 1.279 . S
C320 C319 1.358 . S
C320 H323 0.930 . S
C321 C318 1.348 . S
C321 C319 1.356 . S
H322 C316 0.930 . S
H323 C320 0.930 . S
O324 Li264 1.956 . S
O324 Li265 1.970 1_545 S
O324 Li266 1.961 . S
O324 C268 1.325 . S
O325 Li264 1.970 1_565 S
O325 Li265 1.956 . S
O325 Li267 1.961 . S
O325 C274 1.325 . S
O326 Li264 1.961 . S
O326 Li266 1.956 . S
O326 Li267 1.970 1_545 S
O326 C296 1.325 . S
O327 Li265 1.961 . S
O327 Li266 1.970 1_565 S
O327 Li267 1.956 . S
O327 C302 1.325 . S
H328 C270 0.929 . S
H329 C271 0.930 . S
H330 C272 0.930 . S
H331 C273 0.930 . S
H332 C275 0.930 . S
H333 C277 0.929 . S
H334 C278 0.930 . S
H335 C279 0.930 . S
H336 C282 0.930 . S
H337 C285 0.929 . S
H338 C290 0.929 . S
H339 C291 0.930 . S
H340 C298 0.929 1_565 S
H341 C299 0.930 . S
H342 C300 0.930 . S
H343 C301 0.930 . S
H344 C303 0.929 . S
H345 C304 0.930 . S
H346 C305 0.930 . S
H347 C306 0.930 . S
H348 C310 0.929 . S
H349 C312 0.930 . S
H350 C318 0.929 . S
H351 C319 0.930 . S
Li352 N369 1.990 . S
Li352 O412 1.956 . S
Li352 O413 1.970 . S
Li352 O414 1.961 . S
Li353 N377 1.990 . S
Li353 O412 1.970 . S
Li353 O413 1.956 . S
Li353 O415 1.961 . S
Li354 N399 1.990 . S
Li354 O412 1.961 . S
Li354 O414 1.956 . S
Li354 O415 1.970 . S
Li355 N405 1.990 . S
Li355 O413 1.961 . S
Li355 O414 1.970 . S
Li355 O415 1.956 . S
C356 C358 1.348 . S
C356 C359 1.356 . S
C356 O412 1.325 . S
N357 C360 1.314 . S
N357 C361 1.279 . S
C358 C356 1.348 . S
C358 C360 1.353 . S
C358 H416 0.929 . S
C359 C356 1.356 . S
C359 C361 1.358 . S
C359 H417 0.930 . S
C360 N357 1.314 . S
C360 C358 1.353 . S
C360 H418 0.930 . S
C361 N357 1.279 . S
C361 C359 1.358 . S
C361 H419 0.930 . S
C362 C365 1.348 . S
C362 C366 1.356 . S
C362 O413 1.325 . S
C363 N364 1.279 . S
C363 C366 1.358 . S
C363 H420 0.930 . S
N364 C363 1.279 . S
N364 C367 1.314 . S
C365 C362 1.348 . S
C365 C367 1.353 . S
C365 H421 0.929 . S
C366 C362 1.356 . S
C366 C363 1.358 . S
C366 H422 0.930 . S
C367 N364 1.314 . S
C367 C365 1.353 . S
C367 H423 0.930 . S
C368 N369 1.314 . S
C368 C373 1.353 . S
C368 H374 0.930 . S
N369 Li352 1.990 . S
N369 C368 1.314 . S
N369 C371 1.279 . S
C370 C371 1.358 . S
C370 C372 1.356 . S
C370 H424 0.930 . S
C371 N369 1.279 . S
C371 C370 1.358 . S
C371 H375 0.930 . S
C372 C370 1.356 . S
C372 C373 1.348 . S
C373 C368 1.353 . S
C373 C372 1.348 . S
C373 H425 0.929 . S
H374 C368 0.930 . S
H375 C371 0.930 . S
C376 N377 1.314 . S
C376 C378 1.353 . S
C376 H382 0.930 . S
N377 Li353 1.990 . S
N377 C376 1.314 . S
N377 C380 1.279 . S
C378 C376 1.353 . S
C378 C381 1.348 . S
C378 H426 0.929 . S
C379 C380 1.358 . S
C379 C381 1.356 . S
C379 H427 0.930 . S
C380 N377 1.279 . S
C380 C379 1.358 . S
C380 H383 0.930 . S
C381 C378 1.348 . S
C381 C379 1.356 . S
H382 C376 0.930 . S
H383 C380 0.930 . S
C384 C386 1.348 . S
C384 C387 1.356 . S
C384 O414 1.325 . S
N385 C388 1.314 . S
N385 C389 1.279 . S
C386 C384 1.348 . S
C386 C388 1.353 . S
C386 H428 0.929 . S
C387 C384 1.356 . S
C387 C389 1.358 . S
C387 H429 0.930 . S
C388 N385 1.314 . S
C388 C386 1.353 . S
C388 H430 0.930 . S
C389 N385 1.279 . S
C389 C387 1.358 . S
C389 H431 0.930 . S
C390 C391 1.348 . S
C390 C392 1.356 . S
C390 O415 1.325 . S
C391 C390 1.348 . S
C391 C393 1.353 . S
C391 H432 0.929 . S
C392 C390 1.356 . S
C392 C394 1.358 . S
C392 H433 0.930 . S
C393 C391 1.353 . S
C393 N395 1.314 . S
C393 H434 0.930 . S
C394 C392 1.358 . S
C394 N395 1.279 . S
C394 H435 0.930 . S
N395 C393 1.314 . S
N395 C394 1.279 . S
C396 C398 1.353 . S
C396 N399 1.314 . S
C396 H402 0.930 . S
C397 N399 1.279 . S
C397 C400 1.358 . S
C397 H403 0.930 . S
C398 C396 1.353 . S
C398 C401 1.348 . S
C398 H436 0.929 . S
N399 Li354 1.990 . S
N399 C396 1.314 . S
N399 C397 1.279 . S
C400 C397 1.358 . S
C400 C401 1.356 . S
C400 H437 0.930 . S
C401 C398 1.348 . S
C401 C400 1.356 . S
H402 C396 0.930 . S
H403 C397 0.930 . S
C404 N405 1.314 . S
C404 C406 1.353 . S
C404 H410 0.930 . S
N405 Li355 1.990 . S
N405 C404 1.314 . S
N405 C408 1.279 . S
C406 C404 1.353 . S
C406 C409 1.348 . S
C406 H438 0.929 . S
C407 C408 1.358 . S
C407 C409 1.356 . S
C407 H439 0.930 . S
C408 N405 1.279 . S
C408 C407 1.358 . S
C408 H411 0.930 . S
C409 C406 1.348 . S
C409 C407 1.356 . S
H410 C404 0.930 . S
H411 C408 0.930 . S
O412 Li352 1.956 . S
O412 Li353 1.970 . S
O412 Li354 1.961 . S
O412 C356 1.325 . S
O413 Li352 1.970 . S
O413 Li353 1.956 . S
O413 Li355 1.961 . S
O413 C362 1.325 . S
O414 Li352 1.961 . S
O414 Li354 1.956 . S
O414 Li355 1.970 . S
O414 C384 1.325 . S
O415 Li353 1.961 . S
O415 Li354 1.970 . S
O415 Li355 1.956 . S
O415 C390 1.325 . S
H416 C358 0.929 . S
H417 C359 0.930 . S
H418 C360 0.930 . S
H419 C361 0.930 . S
H420 C363 0.930 . S
H421 C365 0.929 . S
H422 C366 0.930 . S
H423 C367 0.930 . S
H424 C370 0.930 . S
H425 C373 0.929 . S
H426 C378 0.929 . S
H427 C379 0.930 . S
H428 C386 0.929 . S
H429 C387 0.930 . S
H430 C388 0.930 . S
H431 C389 0.930 . S
H432 C391 0.929 . S
H433 C392 0.930 . S
H434 C393 0.930 . S
H435 C394 0.930 . S
H436 C398 0.929 . S
H437 C400 0.930 . S
H438 C406 0.929 . S
H439 C407 0.930 . S
Li440 N457 1.990 . S
Li440 O500 1.956 . S
Li440 O501 1.970 1_655 S
Li440 O502 1.961 . S
Li441 N465 1.990 1_556 S
Li441 O500 1.970 1_455 S
Li441 O501 1.956 . S
Li441 O503 1.961 . S
Li442 N487 1.990 . S
Li442 O500 1.961 . S
Li442 O502 1.956 . S
Li442 O503 1.970 1_655 S
Li443 N493 1.990 . S
Li443 O501 1.961 . S
Li443 O502 1.970 1_455 S
Li443 O503 1.956 . S
C444 C446 1.348 1_556 S
C444 C447 1.356 . S
C444 O500 1.325 . S
N445 C448 1.314 . S
N445 C449 1.279 1_554 S
C446 C444 1.348 1_554 S
C446 C448 1.353 . S
C446 H504 0.929 . S
C447 C444 1.356 . S
C447 C449 1.358 . S
C447 H505 0.930 . S
C448 N445 1.314 . S
C448 C446 1.353 . S
C448 H506 0.930 . S
C449 N445 1.279 1_556 S
C449 C447 1.358 . S
C449 H507 0.930 . S
C450 C453 1.348 . S
C450 C454 1.356 . S
C450 O501 1.325 . S
C451 N452 1.279 . S
C451 C454 1.358 . S
C451 H508 0.930 . S
N452 C451 1.279 . S
N452 C455 1.314 . S
C453 C450 1.348 . S
C453 C455 1.353 . S
C453 H509 0.929 . S
C454 C450 1.356 . S
C454 C451 1.358 . S
C454 H510 0.930 . S
C455 N452 1.314 . S
C455 C453 1.353 . S
C455 H511 0.930 . S
C456 N457 1.314 1_455 S
C456 C461 1.353 . S
C456 H462 0.930 . S
N457 Li440 1.990 . S
N457 C456 1.314 1_655 S
N457 C459 1.279 . S
C458 C459 1.358 . S
C458 C460 1.356 . S
C458 H512 0.930 . S
C459 N457 1.279 . S
C459 C458 1.358 . S
C459 H463 0.930 . S
C460 C458 1.356 . S
C460 C461 1.348 1_655 S
C461 C456 1.353 . S
C461 C460 1.348 1_455 S
C461 H513 0.929 . S
H462 C456 0.930 . S
H463 C459 0.930 . S
C464 N465 1.314 . S
C464 C466 1.353 . S
C464 H470 0.930 1_455 S
N465 Li441 1.990 1_554 S
N465 C464 1.314 . S
N465 C468 1.279 . S
C466 C464 1.353 . S
C466 C469 1.348 . S
C466 H514 0.929 . S
C467 C468 1.358 . S
C467 C469 1.356 . S
C467 H515 0.930 . S
C468 N465 1.279 . S
C468 C467 1.358 . S
C468 H471 0.930 . S
C469 C466 1.348 . S
C469 C467 1.356 . S
H470 C464 0.930 1_655 S
H471 C468 0.930 . S
C472 C474 1.348 . S
C472 C475 1.356 . S
C472 O502 1.325 . S
N473 C476 1.314 . S
N473 C477 1.279 . S
C474 C472 1.348 . S
C474 C476 1.353 . S
C474 H516 0.929 1_655 S
C475 C472 1.356 . S
C475 C477 1.358 . S
C475 H517 0.930 . S
C476 N473 1.314 . S
C476 C474 1.353 . S
C476 H518 0.930 . S
C477 N473 1.279 . S
C477 C475 1.358 . S
C477 H519 0.930 . S
C478 C479 1.348 1_455 S
C478 C480 1.356 . S
C478 O503 1.325 . S
C479 C478 1.348 1_655 S
C479 C481 1.353 . S
C479 H520 0.929 . S
C480 C478 1.356 . S
C480 C482 1.358 . S
C480 H521 0.930 . S
C481 C479 1.353 . S
C481 N483 1.314 1_655 S
C481 H522 0.930 . S
C482 C480 1.358 . S
C482 N483 1.279 . S
C482 H523 0.930 . S
N483 C481 1.314 1_455 S
N483 C482 1.279 . S
C484 C486 1.353 . S
C484 N487 1.314 . S
C484 H490 0.930 . S
C485 N487 1.279 . S
C485 C488 1.358 . S
C485 H491 0.930 . S
C486 C484 1.353 . S
C486 C489 1.348 . S
C486 H524 0.929 . S
N487 Li442 1.990 . S
N487 C484 1.314 . S
N487 C485 1.279 . S
C488 C485 1.358 . S
C488 C489 1.356 . S
C488 H525 0.930 . S
C489 C486 1.348 . S
C489 C488 1.356 . S
H490 C484 0.930 . S
H491 C485 0.930 . S
C492 N493 1.314 . S
C492 C494 1.353 . S
C492 H498 0.930 . S
N493 Li443 1.990 . S
N493 C492 1.314 . S
N493 C496 1.279 . S
C494 C492 1.353 . S
C494 C497 1.348 . S
C494 H526 0.929 . S
C495 C496 1.358 . S
C495 C497 1.356 . S
C495 H527 0.930 . S
C496 N493 1.279 . S
C496 C495 1.358 . S
C496 H499 0.930 . S
C497 C494 1.348 . S
C497 C495 1.356 . S
H498 C492 0.930 . S
H499 C496 0.930 . S
O500 Li440 1.956 . S
O500 Li441 1.970 1_655 S
O500 Li442 1.961 . S
O500 C444 1.325 . S
O501 Li440 1.970 1_455 S
O501 Li441 1.956 . S
O501 Li443 1.961 . S
O501 C450 1.325 . S
O502 Li440 1.961 . S
O502 Li442 1.956 . S
O502 Li443 1.970 1_655 S
O502 C472 1.325 . S
O503 Li441 1.961 . S
O503 Li442 1.970 1_455 S
O503 Li443 1.956 . S
O503 C478 1.325 . S
H504 C446 0.929 . S
H505 C447 0.930 . S
H506 C448 0.930 . S
H507 C449 0.930 . S
H508 C451 0.930 . S
H509 C453 0.929 . S
H510 C454 0.930 . S
H511 C455 0.930 . S
H512 C458 0.930 . S
H513 C461 0.929 . S
H514 C466 0.929 . S
H515 C467 0.930 . S
H516 C474 0.929 1_455 S
H517 C475 0.930 . S
H518 C476 0.930 . S
H519 C477 0.930 . S
H520 C479 0.929 . S
H521 C480 0.930 . S
H522 C481 0.930 . S
H523 C482 0.930 . S
H524 C486 0.929 . S
H525 C488 0.930 . S
H526 C494 0.929 . S
H527 C495 0.930 . S
Li528 N545 1.990 . S
Li528 O588 1.956 . S
Li528 O589 1.970 1_455 S
Li528 O590 1.961 . S
Li529 N553 1.990 . S
Li529 O588 1.970 1_655 S
Li529 O589 1.956 . S
Li529 O591 1.961 . S
Li530 N575 1.990 . S
Li530 O588 1.961 . S
Li530 O590 1.956 . S
Li530 O591 1.970 1_455 S
Li531 N581 1.990 . S
Li531 O589 1.961 . S
Li531 O590 1.970 1_655 S
Li531 O591 1.956 . S
C532 C534 1.348 . S
C532 C535 1.356 . S
C532 O588 1.325 . S
N533 C536 1.314 . S
N533 C537 1.279 . S
C534 C532 1.348 . S
C534 C536 1.353 . S
C534 H592 0.929 1_455 S
C535 C532 1.356 . S
C535 C537 1.358 . S
C535 H593 0.930 . S
C536 N533 1.314 . S
C536 C534 1.353 . S
C536 H594 0.930 . S
C537 N533 1.279 . S
C537 C535 1.358 . S
C537 H595 0.930 . S
C538 C541 1.348 1_655 S
C538 C542 1.356 . S
C538 O589 1.325 . S
C539 N540 1.279 . S
C539 C542 1.358 . S
C539 H596 0.930 . S
N540 C539 1.279 . S
N540 C543 1.314 1_655 S
C541 C538 1.348 1_455 S
C541 C543 1.353 . S
C541 H597 0.929 . S
C542 C538 1.356 . S
C542 C539 1.358 . S
C542 H598 0.930 . S
C543 N540 1.314 1_455 S
C543 C541 1.353 . S
C543 H599 0.930 . S
C544 N545 1.314 . S
C544 C549 1.353 . S
C544 H550 0.930 . S
N545 Li528 1.990 . S
N545 C544 1.314 . S
N545 C547 1.279 . S
C546 C547 1.358 . S
C546 C548 1.356 . S
C546 H600 0.930 . S
C547 N545 1.279 . S
C547 C546 1.358 . S
C547 H551 0.930 . S
C548 C546 1.356 . S
C548 C549 1.348 . S
C549 C544 1.353 . S
C549 C548 1.348 . S
C549 H601 0.929 . S
H550 C544 0.930 . S
H551 C547 0.930 . S
C552 N553 1.314 . S
C552 C554 1.353 . S
C552 H558 0.930 . S
N553 Li529 1.990 . S
N553 C552 1.314 . S
N553 C556 1.279 . S
C554 C552 1.353 . S
C554 C557 1.348 . S
C554 H602 0.929 . S
C555 C556 1.358 . S
C555 C557 1.356 . S
C555 H603 0.930 . S
C556 N553 1.279 . S
C556 C555 1.358 . S
C556 H559 0.930 . S
C557 C554 1.348 . S
C557 C555 1.356 . S
H558 C552 0.930 . S
H559 C556 0.930 . S
C560 C562 1.348 . S
C560 C563 1.356 . S
C560 O590 1.325 . S
N561 C564 1.314 . S
N561 C565 1.279 . S
C562 C560 1.348 . S
C562 C564 1.353 . S
C562 H604 0.929 . S
C563 C560 1.356 . S
C563 C565 1.358 . S
C563 H605 0.930 . S
C564 N561 1.314 . S
C564 C562 1.353 . S
C564 H606 0.930 . S
C565 N561 1.279 . S
C565 C563 1.358 . S
C565 H607 0.930 . S
C566 C567 1.348 . S
C566 C568 1.356 . S
C566 O591 1.325 . S
C567 C566 1.348 . S
C567 C569 1.353 . S
C567 H608 0.929 . S
C568 C566 1.356 . S
C568 C570 1.358 . S
C568 H609 0.930 . S
C569 C567 1.353 . S
C569 N571 1.314 . S
C569 H610 0.930 . S
C570 C568 1.358 . S
C570 N571 1.279 . S
C570 H611 0.930 . S
N571 C569 1.314 . S
N571 C570 1.279 . S
C572 C574 1.353 . S
C572 N575 1.314 1_655 S
C572 H578 0.930 . S
C573 N575 1.279 . S
C573 C576 1.358 . S
C573 H579 0.930 . S
C574 C572 1.353 . S
C574 C577 1.348 1_655 S
C574 H612 0.929 . S
N575 Li530 1.990 . S
N575 C572 1.314 1_455 S
N575 C573 1.279 . S
C576 C573 1.358 . S
C576 C577 1.356 . S
C576 H613 0.930 . S
C577 C574 1.348 1_455 S
C577 C576 1.356 . S
H578 C572 0.930 . S
H579 C573 0.930 . S
C580 N581 1.314 . S
C580 C582 1.353 . S
C580 H586 0.930 1_655 S
N581 Li531 1.990 . S
N581 C580 1.314 . S
N581 C584 1.279 . S
C582 C580 1.353 . S
C582 C585 1.348 . S
C582 H614 0.929 . S
C583 C584 1.358 . S
C583 C585 1.356 . S
C583 H615 0.930 . S
C584 N581 1.279 . S
C584 C583 1.358 . S
C584 H587 0.930 . S
C585 C582 1.348 . S
C585 C583 1.356 . S
H586 C580 0.930 1_455 S
H587 C584 0.930 . S
O588 Li528 1.956 . S
O588 Li529 1.970 1_455 S
O588 Li530 1.961 . S
O588 C532 1.325 . S
O589 Li528 1.970 1_655 S
O589 Li529 1.956 . S
O589 Li531 1.961 . S
O589 C538 1.325 . S
O590 Li528 1.961 . S
O590 Li530 1.956 . S
O590 Li531 1.970 1_455 S
O590 C560 1.325 . S
O591 Li529 1.961 . S
O591 Li530 1.970 1_655 S
O591 Li531 1.956 . S
O591 C566 1.325 . S
H592 C534 0.929 1_655 S
H593 C535 0.930 . S
H594 C536 0.930 . S
H595 C537 0.930 . S
H596 C539 0.930 . S
H597 C541 0.929 . S
H598 C542 0.930 . S
H599 C543 0.930 . S
H600 C546 0.930 . S
H601 C549 0.929 . S
H602 C554 0.929 . S
H603 C555 0.930 . S
H604 C562 0.929 . S
H605 C563 0.930 . S
H606 C564 0.930 . S
H607 C565 0.930 . S
H608 C567 0.929 . S
H609 C568 0.930 . S
H610 C569 0.930 . S
H611 C570 0.930 . S
H612 C574 0.929 . S
H613 C576 0.930 . S
H614 C582 0.929 . S
H615 C583 0.930 . S
Li616 N633 1.990 . S
Li616 O676 1.956 . S
Li616 O677 1.970 1_545 S
Li616 O678 1.961 . S
Li617 N641 1.990 . S
Li617 O676 1.970 1_565 S
Li617 O677 1.956 . S
Li617 O679 1.961 . S
Li618 N663 1.990 . S
Li618 O676 1.961 . S
Li618 O678 1.956 . S
Li618 O679 1.970 1_545 S
Li619 N669 1.990 . S
Li619 O677 1.961 . S
Li619 O678 1.970 1_565 S
Li619 O679 1.956 . S
C620 C622 1.348 . S
C620 C623 1.356 . S
C620 O676 1.325 . S
N621 C624 1.314 . S
N621 C625 1.279 . S
C622 C620 1.348 . S
C622 C624 1.353 . S
C622 H680 0.929 1_545 S
C623 C620 1.356 . S
C623 C625 1.358 . S
C623 H681 0.930 . S
C624 N621 1.314 . S
C624 C622 1.353 . S
C624 H682 0.930 . S
C625 N621 1.279 . S
C625 C623 1.358 . S
C625 H683 0.930 . S
C626 C629 1.348 1_565 S
C626 C630 1.356 . S
C626 O677 1.325 . S
C627 N628 1.279 . S
C627 C630 1.358 . S
C627 H684 0.930 . S
N628 C627 1.279 . S
N628 C631 1.314 1_565 S
C629 C626 1.348 1_545 S
C629 C631 1.353 . S
C629 H685 0.929 . S
C630 C626 1.356 . S
C630 C627 1.358 . S
C630 H686 0.930 . S
C631 N628 1.314 1_545 S
C631 C629 1.353 . S
C631 H687 0.930 . S
C632 N633 1.314 . S
C632 C637 1.353 . S
C632 H638 0.930 . S
N633 Li616 1.990 . S
N633 C632 1.314 . S
N633 C635 1.279 . S
C634 C635 1.358 . S
C634 C636 1.356 . S
C634 H688 0.930 . S
C635 N633 1.279 . S
C635 C634 1.358 . S
C635 H639 0.930 . S
C636 C634 1.356 . S
C636 C637 1.348 . S
C637 C632 1.353 . S
C637 C636 1.348 . S
C637 H689 0.929 . S
H638 C632 0.930 . S
H639 C635 0.930 . S
C640 N641 1.314 . S
C640 C642 1.353 . S
C640 H646 0.930 . S
N641 Li617 1.990 . S
N641 C640 1.314 . S
N641 C644 1.279 . S
C642 C640 1.353 . S
C642 C645 1.348 . S
C642 H690 0.929 . S
C643 C644 1.358 . S
C643 C645 1.356 . S
C643 H691 0.930 . S
C644 N641 1.279 . S
C644 C643 1.358 . S
C644 H647 0.930 . S
C645 C642 1.348 . S
C645 C643 1.356 . S
H646 C640 0.930 . S
H647 C644 0.930 . S
C648 C650 1.348 . S
C648 C651 1.356 . S
C648 O678 1.325 . S
N649 C652 1.314 . S
N649 C653 1.279 . S
C650 C648 1.348 . S
C650 C652 1.353 . S
C650 H692 0.929 . S
C651 C648 1.356 . S
C651 C653 1.358 . S
C651 H693 0.930 . S
C652 N649 1.314 . S
C652 C650 1.353 . S
C652 H694 0.930 . S
C653 N649 1.279 . S
C653 C651 1.358 . S
C653 H695 0.930 . S
C654 C655 1.348 . S
C654 C656 1.356 . S
C654 O679 1.325 . S
C655 C654 1.348 . S
C655 C657 1.353 . S
C655 H696 0.929 . S
C656 C654 1.356 . S
C656 C658 1.358 . S
C656 H697 0.930 . S
C657 C655 1.353 . S
C657 N659 1.314 . S
C657 H698 0.930 . S
C658 C656 1.358 . S
C658 N659 1.279 . S
C658 H699 0.930 . S
N659 C657 1.314 . S
N659 C658 1.279 . S
C660 C662 1.353 . S
C660 N663 1.314 1_565 S
C660 H666 0.930 . S
C661 N663 1.279 . S
C661 C664 1.358 . S
C661 H667 0.930 . S
C662 C660 1.353 . S
C662 C665 1.348 1_565 S
C662 H700 0.929 . S
N663 Li618 1.990 . S
N663 C660 1.314 1_545 S
N663 C661 1.279 . S
C664 C661 1.358 . S
C664 C665 1.356 . S
C664 H701 0.930 . S
C665 C662 1.348 1_545 S
C665 C664 1.356 . S
H666 C660 0.930 . S
H667 C661 0.930 . S
C668 N669 1.314 . S
C668 C670 1.353 . S
C668 H674 0.930 1_565 S
N669 Li619 1.990 . S
N669 C668 1.314 . S
N669 C672 1.279 . S
C670 C668 1.353 . S
C670 C673 1.348 . S
C670 H702 0.929 . S
C671 C672 1.358 . S
C671 C673 1.356 . S
C671 H703 0.930 . S
C672 N669 1.279 . S
C672 C671 1.358 . S
C672 H675 0.930 . S
C673 C670 1.348 . S
C673 C671 1.356 . S
H674 C668 0.930 1_545 S
H675 C672 0.930 . S
O676 Li616 1.956 . S
O676 Li617 1.970 1_545 S
O676 Li618 1.961 . S
O676 C620 1.325 . S
O677 Li616 1.970 1_565 S
O677 Li617 1.956 . S
O677 Li619 1.961 . S
O677 C626 1.325 . S
O678 Li616 1.961 . S
O678 Li618 1.956 . S
O678 Li619 1.970 1_545 S
O678 C648 1.325 . S
O679 Li617 1.961 . S
O679 Li618 1.970 1_565 S
O679 Li619 1.956 . S
O679 C654 1.325 . S
H680 C622 0.929 1_565 S
H681 C623 0.930 . S
H682 C624 0.930 . S
H683 C625 0.930 . S
H684 C627 0.930 . S
H685 C629 0.929 . S
H686 C630 0.930 . S
H687 C631 0.930 . S
H688 C634 0.930 . S
H689 C637 0.929 . S
H690 C642 0.929 . S
H691 C643 0.930 . S
H692 C650 0.929 . S
H693 C651 0.930 . S
H694 C652 0.930 . S
H695 C653 0.930 . S
H696 C655 0.929 . S
H697 C656 0.930 . S
H698 C657 0.930 . S
H699 C658 0.930 . S
H700 C662 0.929 . S
H701 C664 0.930 . S
H702 C670 0.929 . S
H703 C671 0.930 . S
Li704 N721 1.990 . S
Li704 O764 1.956 . S
Li704 O765 1.970 . S
Li704 O766 1.961 . S
Li705 N729 1.990 . S
Li705 O764 1.970 . S
Li705 O765 1.956 . S
Li705 O767 1.961 . S
Li706 N751 1.990 . S
Li706 O764 1.961 . S
Li706 O766 1.956 . S
Li706 O767 1.970 . S
Li707 N757 1.990 1_554 S
Li707 O765 1.961 . S
Li707 O766 1.970 . S
Li707 O767 1.956 . S
C708 C710 1.348 . S
C708 C711 1.356 . S
C708 O764 1.325 . S
N709 C712 1.314 . S
N709 C713 1.279 . S
C710 C708 1.348 . S
C710 C712 1.353 . S
C710 H768 0.929 . S
C711 C708 1.356 . S
C711 C713 1.358 . S
C711 H769 0.930 . S
C712 N709 1.314 . S
C712 C710 1.353 . S
C712 H770 0.930 . S
C713 N709 1.279 . S
C713 C711 1.358 . S
C713 H771 0.930 . S
C714 C717 1.348 . S
C714 C718 1.356 . S
C714 O765 1.325 . S
C715 N716 1.279 . S
C715 C718 1.358 . S
C715 H772 0.930 . S
N716 C715 1.279 . S
N716 C719 1.314 . S
C717 C714 1.348 . S
C717 C719 1.353 . S
C717 H773 0.929 . S
C718 C714 1.356 . S
C718 C715 1.358 . S
C718 H774 0.930 . S
C719 N716 1.314 . S
C719 C717 1.353 . S
C719 H775 0.930 . S
C720 N721 1.314 . S
C720 C725 1.353 . S
C720 H726 0.930 . S
N721 Li704 1.990 . S
N721 C720 1.314 . S
N721 C723 1.279 . S
C722 C723 1.358 . S
C722 C724 1.356 . S
C722 H776 0.930 . S
C723 N721 1.279 . S
C723 C722 1.358 . S
C723 H727 0.930 . S
C724 C722 1.356 . S
C724 C725 1.348 . S
C725 C720 1.353 . S
C725 C724 1.348 . S
C725 H777 0.929 . S
H726 C720 0.930 . S
H727 C723 0.930 . S
C728 N729 1.314 . S
C728 C730 1.353 . S
C728 H734 0.930 . S
N729 Li705 1.990 . S
N729 C728 1.314 . S
N729 C732 1.279 . S
C730 C728 1.353 . S
C730 C733 1.348 . S
C730 H778 0.929 . S
C731 C732 1.358 . S
C731 C733 1.356 . S
C731 H779 0.930 . S
C732 N729 1.279 . S
C732 C731 1.358 . S
C732 H735 0.930 . S
C733 C730 1.348 . S
C733 C731 1.356 . S
H734 C728 0.930 . S
H735 C732 0.930 . S
C736 C738 1.348 1_554 S
C736 C739 1.356 . S
C736 O766 1.325 . S
N737 C740 1.314 . S
N737 C741 1.279 1_556 S
C738 C736 1.348 1_556 S
C738 C740 1.353 . S
C738 H780 0.929 . S
C739 C736 1.356 . S
C739 C741 1.358 . S
C739 H781 0.930 . S
C740 N737 1.314 . S
C740 C738 1.353 . S
C740 H782 0.930 . S
C741 N737 1.279 1_554 S
C741 C739 1.358 . S
C741 H783 0.930 . S
C742 C743 1.348 . S
C742 C744 1.356 . S
C742 O767 1.325 . S
C743 C742 1.348 . S
C743 C745 1.353 . S
C743 H784 0.929 . S
C744 C742 1.356 . S
C744 C746 1.358 . S
C744 H785 0.930 . S
C745 C743 1.353 . S
C745 N747 1.314 . S
C745 H786 0.930 . S
C746 C744 1.358 . S
C746 N747 1.279 . S
C746 H787 0.930 . S
N747 C745 1.314 . S
N747 C746 1.279 . S
C748 C750 1.353 . S
C748 N751 1.314 . S
C748 H754 0.930 . S
C749 N751 1.279 . S
C749 C752 1.358 . S
C749 H755 0.930 . S
C750 C748 1.353 . S
C750 C753 1.348 . S
C750 H788 0.929 . S
N751 Li706 1.990 . S
N751 C748 1.314 . S
N751 C749 1.279 . S
C752 C749 1.358 . S
C752 C753 1.356 . S
C752 H789 0.930 . S
C753 C750 1.348 . S
C753 C752 1.356 . S
H754 C748 0.930 . S
H755 C749 0.930 . S
C756 N757 1.314 . S
C756 C758 1.353 . S
C756 H762 0.930 . S
N757 Li707 1.990 1_556 S
N757 C756 1.314 . S
N757 C760 1.279 . S
C758 C756 1.353 . S
C758 C761 1.348 . S
C758 H790 0.929 . S
C759 C760 1.358 . S
C759 C761 1.356 . S
C759 H791 0.930 . S
C760 N757 1.279 . S
C760 C759 1.358 . S
C760 H763 0.930 . S
C761 C758 1.348 . S
C761 C759 1.356 . S
H762 C756 0.930 . S
H763 C760 0.930 . S
O764 Li704 1.956 . S
O764 Li705 1.970 . S
O764 Li706 1.961 . S
O764 C708 1.325 . S
O765 Li704 1.970 . S
O765 Li705 1.956 . S
O765 Li707 1.961 . S
O765 C714 1.325 . S
O766 Li704 1.961 . S
O766 Li706 1.956 . S
O766 Li707 1.970 . S
O766 C736 1.325 . S
O767 Li705 1.961 . S
O767 Li706 1.970 . S
O767 Li707 1.956 . S
O767 C742 1.325 . S
H768 C710 0.929 . S
H769 C711 0.930 . S
H770 C712 0.930 . S
H771 C713 0.930 . S
H772 C715 0.930 . S
H773 C717 0.929 . S
H774 C718 0.930 . S
H775 C719 0.930 . S
H776 C722 0.930 . S
H777 C725 0.929 . S
H778 C730 0.929 . S
H779 C731 0.930 . S
H780 C738 0.929 . S
H781 C739 0.930 . S
H782 C740 0.930 . S
H783 C741 0.930 . S
H784 C743 0.929 . S
H785 C744 0.930 . S
H786 C745 0.930 . S
H787 C746 0.930 . S
H788 C750 0.929 . S
H789 C752 0.930 . S
H790 C758 0.929 . S
H791 C759 0.930 . S
Li792 N809 1.990 . S
Li792 O852 1.956 . S
Li792 O853 1.970 1_455 S
Li792 O854 1.961 . S
Li793 N817 1.990 . S
Li793 O852 1.970 1_655 S
Li793 O853 1.956 . S
Li793 O855 1.961 . S
Li794 N839 1.990 . S
Li794 O852 1.961 . S
Li794 O854 1.956 . S
Li794 O855 1.970 1_455 S
Li795 N845 1.990 . S
Li795 O853 1.961 . S
Li795 O854 1.970 1_655 S
Li795 O855 1.956 . S
C796 C798 1.348 1_455 S
C796 C799 1.356 . S
C796 O852 1.325 . S
N797 C800 1.314 1_455 S
N797 C801 1.279 . S
C798 C796 1.348 1_655 S
C798 C800 1.353 . S
C798 H856 0.929 . S
C799 C796 1.356 . S
C799 C801 1.358 . S
C799 H857 0.930 . S
C800 N797 1.314 1_655 S
C800 C798 1.353 . S
C800 H858 0.930 . S
C801 N797 1.279 . S
C801 C799 1.358 . S
C801 H859 0.930 . S
C802 C805 1.348 . S
C802 C806 1.356 . S
C802 O853 1.325 . S
C803 N804 1.279 . S
C803 C806 1.358 . S
C803 H860 0.930 . S
N804 C803 1.279 . S
N804 C807 1.314 . S
C805 C802 1.348 . S
C805 C807 1.353 . S
C805 H861 0.929 1_655 S
C806 C802 1.356 . S
C806 C803 1.358 . S
C806 H862 0.930 . S
C807 N804 1.314 . S
C807 C805 1.353 . S
C807 H863 0.930 . S
C808 N809 1.314 . S
C808 C813 1.353 . S
C808 H814 0.930 . S
N809 Li792 1.990 . S
N809 C808 1.314 . S
N809 C811 1.279 . S
C810 C811 1.358 . S
C810 C812 1.356 . S
C810 H864 0.930 . S
C811 N809 1.279 . S
C811 C810 1.358 . S
C811 H815 0.930 . S
C812 C810 1.356 . S
C812 C813 1.348 . S
C813 C808 1.353 . S
C813 C812 1.348 . S
C813 H865 0.929 . S
H814 C808 0.930 . S
H815 C811 0.930 . S
C816 N817 1.314 . S
C816 C818 1.353 . S
C816 H822 0.930 . S
N817 Li793 1.990 . S
N817 C816 1.314 . S
N817 C820 1.279 . S
C818 C816 1.353 . S
C818 C821 1.348 . S
C818 H866 0.929 . S
C819 C820 1.358 . S
C819 C821 1.356 . S
C819 H867 0.930 . S
C820 N817 1.279 . S
C820 C819 1.358 . S
C820 H823 0.930 . S
C821 C818 1.348 . S
C821 C819 1.356 . S
H822 C816 0.930 . S
H823 C820 0.930 . S
C824 C826 1.348 . S
C824 C827 1.356 . S
C824 O854 1.325 . S
N825 C828 1.314 . S
N825 C829 1.279 . S
C826 C824 1.348 . S
C826 C828 1.353 . S
C826 H868 0.929 . S
C827 C824 1.356 . S
C827 C829 1.358 . S
C827 H869 0.930 . S
C828 N825 1.314 . S
C828 C826 1.353 . S
C828 H870 0.930 . S
C829 N825 1.279 . S
C829 C827 1.358 . S
C829 H871 0.930 . S
C830 C831 1.348 . S
C830 C832 1.356 . S
C830 O855 1.325 . S
C831 C830 1.348 . S
C831 C833 1.353 . S
C831 H872 0.929 . S
C832 C830 1.356 . S
C832 C834 1.358 . S
C832 H873 0.930 . S
C833 C831 1.353 . S
C833 N835 1.314 . S
C833 H874 0.930 . S
C834 C832 1.358 . S
C834 N835 1.279 . S
C834 H875 0.930 . S
N835 C833 1.314 . S
N835 C834 1.279 . S
C836 C838 1.353 . S
C836 N839 1.314 . S
C836 H842 0.930 1_455 S
C837 N839 1.279 . S
C837 C840 1.358 . S
C837 H843 0.930 . S
C838 C836 1.353 . S
C838 C841 1.348 . S
C838 H876 0.929 . S
N839 Li794 1.990 . S
N839 C836 1.314 . S
N839 C837 1.279 . S
C840 C837 1.358 . S
C840 C841 1.356 . S
C840 H877 0.930 . S
C841 C838 1.348 . S
C841 C840 1.356 . S
H842 C836 0.930 1_655 S
H843 C837 0.930 . S
C844 N845 1.314 1_455 S
C844 C846 1.353 . S
C844 H850 0.930 . S
N845 Li795 1.990 . S
N845 C844 1.314 1_655 S
N845 C848 1.279 . S
C846 C844 1.353 . S
C846 C849 1.348 1_455 S
C846 H878 0.929 . S
C847 C848 1.358 . S
C847 C849 1.356 . S
C847 H879 0.930 . S
C848 N845 1.279 . S
C848 C847 1.358 . S
C848 H851 0.930 . S
C849 C846 1.348 1_655 S
C849 C847 1.356 . S
H850 C844 0.930 . S
H851 C848 0.930 . S
O852 Li792 1.956 . S
O852 Li793 1.970 1_455 S
O852 Li794 1.961 . S
O852 C796 1.325 . S
O853 Li792 1.970 1_655 S
O853 Li793 1.956 . S
O853 Li795 1.961 . S
O853 C802 1.325 . S
O854 Li792 1.961 . S
O854 Li794 1.956 . S
O854 Li795 1.970 1_455 S
O854 C824 1.325 . S
O855 Li793 1.961 . S
O855 Li794 1.970 1_655 S
O855 Li795 1.956 . S
O855 C830 1.325 . S
H856 C798 0.929 . S
H857 C799 0.930 . S
H858 C800 0.930 . S
H859 C801 0.930 . S
H860 C803 0.930 . S
H861 C805 0.929 1_455 S
H862 C806 0.930 . S
H863 C807 0.930 . S
H864 C810 0.930 . S
H865 C813 0.929 . S
H866 C818 0.929 . S
H867 C819 0.930 . S
H868 C826 0.929 . S
H869 C827 0.930 . S
H870 C828 0.930 . S
H871 C829 0.930 . S
H872 C831 0.929 . S
H873 C832 0.930 . S
H874 C833 0.930 . S
H875 C834 0.930 . S
H876 C838 0.929 . S
H877 C840 0.930 . S
H878 C846 0.929 . S
H879 C847 0.930 . S
Li880 N897 1.990 . S
Li880 O940 1.956 . S
Li880 O941 1.970 1_545 S
Li880 O942 1.961 . S
Li881 N905 1.990 . S
Li881 O940 1.970 1_565 S
Li881 O941 1.956 . S
Li881 O943 1.961 . S
Li882 N927 1.990 . S
Li882 O940 1.961 . S
Li882 O942 1.956 . S
Li882 O943 1.970 1_545 S
Li883 N933 1.990 . S
Li883 O941 1.961 . S
Li883 O942 1.970 1_565 S
Li883 O943 1.956 . S
C884 C886 1.348 1_545 S
C884 C887 1.356 . S
C884 O940 1.325 . S
N885 C888 1.314 1_545 S
N885 C889 1.279 . S
C886 C884 1.348 1_565 S
C886 C888 1.353 . S
C886 H944 0.929 . S
C887 C884 1.356 . S
C887 C889 1.358 . S
C887 H945 0.930 . S
C888 N885 1.314 1_565 S
C888 C886 1.353 . S
C888 H946 0.930 . S
C889 N885 1.279 . S
C889 C887 1.358 . S
C889 H947 0.930 . S
C890 C893 1.348 . S
C890 C894 1.356 . S
C890 O941 1.325 . S
C891 N892 1.279 . S
C891 C894 1.358 . S
C891 H948 0.930 . S
N892 C891 1.279 . S
N892 C895 1.314 . S
C893 C890 1.348 . S
C893 C895 1.353 . S
C893 H949 0.929 1_565 S
C894 C890 1.356 . S
C894 C891 1.358 . S
C894 H950 0.930 . S
C895 N892 1.314 . S
C895 C893 1.353 . S
C895 H951 0.930 . S
C896 N897 1.314 . S
C896 C901 1.353 . S
C896 H902 0.930 . S
N897 Li880 1.990 . S
N897 C896 1.314 . S
N897 C899 1.279 . S
C898 C899 1.358 . S
C898 C900 1.356 . S
C898 H952 0.930 . S
C899 N897 1.279 . S
C899 C898 1.358 . S
C899 H903 0.930 . S
C900 C898 1.356 . S
C900 C901 1.348 . S
C901 C896 1.353 . S
C901 C900 1.348 . S
C901 H953 0.929 . S
H902 C896 0.930 . S
H903 C899 0.930 . S
C904 N905 1.314 . S
C904 C906 1.353 . S
C904 H910 0.930 . S
N905 Li881 1.990 . S
N905 C904 1.314 . S
N905 C908 1.279 . S
C906 C904 1.353 . S
C906 C909 1.348 . S
C906 H954 0.929 . S
C907 C908 1.358 . S
C907 C909 1.356 . S
C907 H955 0.930 . S
C908 N905 1.279 . S
C908 C907 1.358 . S
C908 H911 0.930 . S
C909 C906 1.348 . S
C909 C907 1.356 . S
H910 C904 0.930 . S
H911 C908 0.930 . S
C912 C914 1.348 . S
C912 C915 1.356 . S
C912 O942 1.325 . S
N913 C916 1.314 . S
N913 C917 1.279 . S
C914 C912 1.348 . S
C914 C916 1.353 . S
C914 H956 0.929 . S
C915 C912 1.356 . S
C915 C917 1.358 . S
C915 H957 0.930 . S
C916 N913 1.314 . S
C916 C914 1.353 . S
C916 H958 0.930 . S
C917 N913 1.279 . S
C917 C915 1.358 . S
C917 H959 0.930 . S
C918 C919 1.348 . S
C918 C920 1.356 . S
C918 O943 1.325 . S
C919 C918 1.348 . S
C919 C921 1.353 . S
C919 H960 0.929 . S
C920 C918 1.356 . S
C920 C922 1.358 . S
C920 H961 0.930 . S
C921 C919 1.353 . S
C921 N923 1.314 . S
C921 H962 0.930 . S
C922 C920 1.358 . S
C922 N923 1.279 . S
C922 H963 0.930 . S
N923 C921 1.314 . S
N923 C922 1.279 . S
C924 C926 1.353 . S
C924 N927 1.314 . S
C924 H930 0.930 1_545 S
C925 N927 1.279 . S
C925 C928 1.358 . S
C925 H931 0.930 . S
C926 C924 1.353 . S
C926 C929 1.348 . S
C926 H964 0.929 . S
N927 Li882 1.990 . S
N927 C924 1.314 . S
N927 C925 1.279 . S
C928 C925 1.358 . S
C928 C929 1.356 . S
C928 H965 0.930 . S
C929 C926 1.348 . S
C929 C928 1.356 . S
H930 C924 0.930 1_565 S
H931 C925 0.930 . S
C932 N933 1.314 1_545 S
C932 C934 1.353 . S
C932 H938 0.930 . S
N933 Li883 1.990 . S
N933 C932 1.314 1_565 S
N933 C936 1.279 . S
C934 C932 1.353 . S
C934 C937 1.348 1_545 S
C934 H966 0.929 . S
C935 C936 1.358 . S
C935 C937 1.356 . S
C935 H967 0.930 . S
C936 N933 1.279 . S
C936 C935 1.358 . S
C936 H939 0.930 . S
C937 C934 1.348 1_565 S
C937 C935 1.356 . S
H938 C932 0.930 . S
H939 C936 0.930 . S
O940 Li880 1.956 . S
O940 Li881 1.970 1_545 S
O940 Li882 1.961 . S
O940 C884 1.325 . S
O941 Li880 1.970 1_565 S
O941 Li881 1.956 . S
O941 Li883 1.961 . S
O941 C890 1.325 . S
O942 Li880 1.961 . S
O942 Li882 1.956 . S
O942 Li883 1.970 1_545 S
O942 C912 1.325 . S
O943 Li881 1.961 . S
O943 Li882 1.970 1_565 S
O943 Li883 1.956 . S
O943 C918 1.325 . S
H944 C886 0.929 . S
H945 C887 0.930 . S
H946 C888 0.930 . S
H947 C889 0.930 . S
H948 C891 0.930 . S
H949 C893 0.929 1_545 S
H950 C894 0.930 . S
H951 C895 0.930 . S
H952 C898 0.930 . S
H953 C901 0.929 . S
H954 C906 0.929 . S
H955 C907 0.930 . S
H956 C914 0.929 . S
H957 C915 0.930 . S
H958 C916 0.930 . S
H959 C917 0.930 . S
H960 C919 0.929 . S
H961 C920 0.930 . S
H962 C921 0.930 . S
H963 C922 0.930 . S
H964 C926 0.929 . S
H965 C928 0.930 . S
H966 C934 0.929 . S
H967 C935 0.930 . S
Li968 N985 1.990 . S
Li968 O1028 1.956 . S
Li968 O1029 1.970 . S
Li968 O1030 1.961 . S
Li969 N993 1.990 . S
Li969 O1028 1.970 . S
Li969 O1029 1.956 . S
Li969 O1031 1.961 . S
Li970 N1015 1.990 1_554 S
Li970 O1028 1.961 . S
Li970 O1030 1.956 . S
Li970 O1031 1.970 . S
Li971 N1021 1.990 . S
Li971 O1029 1.961 . S
Li971 O1030 1.970 . S
Li971 O1031 1.956 . S
C972 C974 1.348 . S
C972 C975 1.356 . S
C972 O1028 1.325 . S
N973 C976 1.314 . S
N973 C977 1.279 . S
C974 C972 1.348 . S
C974 C976 1.353 . S
C974 H1032 0.929 . S
C975 C972 1.356 . S
C975 C977 1.358 . S
C975 H1033 0.930 . S
C976 N973 1.314 . S
C976 C974 1.353 . S
C976 H1034 0.930 . S
C977 N973 1.279 . S
C977 C975 1.358 . S
C977 H1035 0.930 . S
C978 C981 1.348 . S
C978 C982 1.356 . S
C978 O1029 1.325 . S
C979 N980 1.279 . S
C979 C982 1.358 . S
C979 H1036 0.930 . S
N980 C979 1.279 . S
N980 C983 1.314 . S
C981 C978 1.348 . S
C981 C983 1.353 . S
C981 H1037 0.929 . S
C982 C978 1.356 . S
C982 C979 1.358 . S
C982 H1038 0.930 . S
C983 N980 1.314 . S
C983 C981 1.353 . S
C983 H1039 0.930 . S
C984 N985 1.314 . S
C984 C989 1.353 . S
C984 H990 0.930 . S
N985 Li968 1.990 . S
N985 C984 1.314 . S
N985 C987 1.279 . S
C986 C987 1.358 . S
C986 C988 1.356 . S
C986 H1040 0.930 . S
C987 N985 1.279 . S
C987 C986 1.358 . S
C987 H991 0.930 . S
C988 C986 1.356 . S
C988 C989 1.348 . S
C989 C984 1.353 . S
C989 C988 1.348 . S
C989 H1041 0.929 . S
H990 C984 0.930 . S
H991 C987 0.930 . S
C992 N993 1.314 . S
C992 C994 1.353 . S
C992 H998 0.930 . S
N993 Li969 1.990 . S
N993 C992 1.314 . S
N993 C996 1.279 . S
C994 C992 1.353 . S
C994 C997 1.348 . S
C994 H1042 0.929 . S
C995 C996 1.358 . S
C995 C997 1.356 . S
C995 H1043 0.930 . S
C996 N993 1.279 . S
C996 C995 1.358 . S
C996 H999 0.930 . S
C997 C994 1.348 . S
C997 C995 1.356 . S
H998 C992 0.930 . S
H999 C996 0.930 . S
C1000 C1002 1.348 . S
C1000 C1003 1.356 . S
C1000 O1030 1.325 . S
N1001 C1004 1.314 . S
N1001 C1005 1.279 . S
C1002 C1000 1.348 . S
C1002 C1004 1.353 . S
C1002 H1044 0.929 . S
C1003 C1000 1.356 . S
C1003 C1005 1.358 . S
C1003 H1045 0.930 . S
C1004 N1001 1.314 . S
C1004 C1002 1.353 . S
C1004 H1046 0.930 . S
C1005 N1001 1.279 . S
C1005 C1003 1.358 . S
C1005 H1047 0.930 . S
C1006 C1007 1.348 1_554 S
C1006 C1008 1.356 . S
C1006 O1031 1.325 . S
C1007 C1006 1.348 1_556 S
C1007 C1009 1.353 . S
C1007 H1048 0.929 . S
C1008 C1006 1.356 . S
C1008 C1010 1.358 . S
C1008 H1049 0.930 . S
C1009 C1007 1.353 . S
C1009 N1011 1.314 . S
C1009 H1050 0.930 . S
C1010 C1008 1.358 . S
C1010 N1011 1.279 1_554 S
C1010 H1051 0.930 . S
N1011 C1009 1.314 . S
N1011 C1010 1.279 1_556 S
C1012 C1014 1.353 . S
C1012 N1015 1.314 . S
C1012 H1018 0.930 . S
C1013 N1015 1.279 . S
C1013 C1016 1.358 . S
C1013 H1019 0.930 . S
C1014 C1012 1.353 . S
C1014 C1017 1.348 . S
C1014 H1052 0.929 . S
N1015 Li970 1.990 1_556 S
N1015 C1012 1.314 . S
N1015 C1013 1.279 . S
C1016 C1013 1.358 . S
C1016 C1017 1.356 . S
C1016 H1053 0.930 . S
C1017 C1014 1.348 . S
C1017 C1016 1.356 . S
H1018 C1012 0.930 . S
H1019 C1013 0.930 . S
C1020 N1021 1.314 . S
C1020 C1022 1.353 . S
C1020 H1026 0.930 . S
N1021 Li971 1.990 . S
N1021 C1020 1.314 . S
N1021 C1024 1.279 . S
C1022 C1020 1.353 . S
C1022 C1025 1.348 . S
C1022 H1054 0.929 . S
C1023 C1024 1.358 . S
C1023 C1025 1.356 . S
C1023 H1055 0.930 . S
C1024 N1021 1.279 . S
C1024 C1023 1.358 . S
C1024 H1027 0.930 . S
C1025 C1022 1.348 . S
C1025 C1023 1.356 . S
H1026 C1020 0.930 . S
H1027 C1024 0.930 . S
O1028 Li968 1.956 . S
O1028 Li969 1.970 . S
O1028 Li970 1.961 . S
O1028 C972 1.325 . S
O1029 Li968 1.970 . S
O1029 Li969 1.956 . S
O1029 Li971 1.961 . S
O1029 C978 1.325 . S
O1030 Li968 1.961 . S
O1030 Li970 1.956 . S
O1030 Li971 1.970 . S
O1030 C1000 1.325 . S
O1031 Li969 1.961 . S
O1031 Li970 1.970 . S
O1031 Li971 1.956 . S
O1031 C1006 1.325 . S
H1032 C974 0.929 . S
H1033 C975 0.930 . S
H1034 C976 0.930 . S
H1035 C977 0.930 . S
H1036 C979 0.930 . S
H1037 C981 0.929 . S
H1038 C982 0.930 . S
H1039 C983 0.930 . S
H1040 C986 0.930 . S
H1041 C989 0.929 . S
H1042 C994 0.929 . S
H1043 C995 0.930 . S
H1044 C1002 0.929 . S
H1045 C1003 0.930 . S
H1046 C1004 0.930 . S
H1047 C1005 0.930 . S
H1048 C1007 0.929 . S
H1049 C1008 0.930 . S
H1050 C1009 0.930 . S
H1051 C1010 0.930 . S
H1052 C1014 0.929 . S
H1053 C1016 0.930 . S
H1054 C1022 0.929 . S
H1055 C1023 0.930 . S
C1056 C1057 1.349 . S
C1056 C1058 1.327 . S
C1056 H1081 0.950 . S
C1057 C1056 1.349 . S
C1057 C1073 1.349 . S
C1058 C1056 1.327 . S
C1058 C1077 1.429 . S
C1058 H1082 0.950 . S
C1059 C1076 1.574 . S
C1059 C1078 1.368 . S
C1059 H1083 0.949 . S
H1060 C1064 0.949 . S
C1061 C1062 1.349 . S
C1061 C1063 1.327 . S
C1061 H1084 0.950 . S
C1062 C1061 1.349 . S
C1062 C1074 1.349 . S
C1063 C1061 1.327 . S
C1063 C1079 1.429 . S
C1063 H1085 0.950 . S
C1064 H1060 0.949 . S
C1064 C1072 1.574 . S
C1064 C1080 1.368 . S
H1065 C1073 0.950 . S
H1066 C1071 0.950 . S
H1067 C1072 0.949 . S
H1068 C1074 0.950 . S
H1069 C1075 0.950 . S
H1070 C1076 0.949 . S
C1071 H1066 0.950 . S
C1071 C1073 1.327 . S
C1071 C1077 1.429 . S
C1072 C1064 1.574 . S
C1072 H1067 0.949 . S
C1072 C1078 1.368 . S
C1073 C1057 1.349 . S
C1073 H1065 0.950 . S
C1073 C1071 1.327 . S
C1074 C1062 1.349 . S
C1074 H1068 0.950 . S
C1074 C1075 1.327 . S
C1075 H1069 0.950 . S
C1075 C1074 1.327 . S
C1075 C1079 1.429 . S
C1076 C1059 1.574 . S
C1076 H1070 0.949 . S
C1076 C1080 1.368 . S
C1077 C1058 1.429 . S
C1077 C1071 1.429 . S
C1077 C1078 1.523 . S
C1078 C1059 1.368 . S
C1078 C1072 1.368 . S
C1078 C1077 1.523 . S
C1079 C1063 1.429 . S
C1079 C1075 1.429 . S
C1079 C1080 1.523 . S
C1080 C1064 1.368 . S
C1080 C1076 1.368 . S
C1080 C1079 1.523 . S
H1081 C1056 0.950 . S
H1082 C1058 0.950 . S
H1083 C1059 0.949 . S
H1084 C1061 0.950 . S
H1085 C1063 0.950 . S
C1086 C1087 1.349 . S
C1086 C1088 1.327 . S
C1086 H1111 0.950 . S
C1087 C1086 1.349 . S
C1087 C1103 1.349 . S
C1088 C1086 1.327 . S
C1088 C1107 1.429 . S
C1088 H1112 0.950 . S
C1089 C1106 1.574 . S
C1089 C1108 1.368 . S
C1089 H1113 0.949 . S
H1090 C1094 0.949 . S
C1091 C1092 1.349 . S
C1091 C1093 1.327 . S
C1091 H1114 0.950 . S
C1092 C1091 1.349 . S
C1092 C1104 1.349 . S
C1093 C1091 1.327 . S
C1093 C1109 1.429 . S
C1093 H1115 0.950 . S
C1094 H1090 0.949 . S
C1094 C1102 1.574 . S
C1094 C1110 1.368 . S
H1095 C1103 0.950 . S
H1096 C1101 0.950 . S
H1097 C1102 0.949 . S
H1098 C1104 0.950 . S
H1099 C1105 0.950 . S
H1100 C1106 0.949 . S
C1101 H1096 0.950 . S
C1101 C1103 1.327 . S
C1101 C1107 1.429 . S
C1102 C1094 1.574 . S
C1102 H1097 0.949 . S
C1102 C1108 1.368 . S
C1103 C1087 1.349 . S
C1103 H1095 0.950 . S
C1103 C1101 1.327 . S
C1104 C1092 1.349 . S
C1104 H1098 0.950 . S
C1104 C1105 1.327 . S
C1105 H1099 0.950 . S
C1105 C1104 1.327 . S
C1105 C1109 1.429 . S
C1106 C1089 1.574 . S
C1106 H1100 0.949 . S
C1106 C1110 1.368 . S
C1107 C1088 1.429 . S
C1107 C1101 1.429 . S
C1107 C1108 1.523 . S
C1108 C1089 1.368 . S
C1108 C1102 1.368 . S
C1108 C1107 1.523 . S
C1109 C1093 1.429 . S
C1109 C1105 1.429 . S
C1109 C1110 1.523 . S
C1110 C1094 1.368 . S
C1110 C1106 1.368 . S
C1110 C1109 1.523 . S
H1111 C1086 0.950 . S
H1112 C1088 0.950 . S
H1113 C1089 0.949 . S
H1114 C1091 0.950 . S
H1115 C1093 0.950 . S
C1116 C1117 1.349 . S
C1116 C1118 1.327 . S
C1116 H1141 0.950 . S
C1117 C1116 1.349 . S
C1117 C1133 1.349 . S
C1118 C1116 1.327 . S
C1118 C1137 1.429 . S
C1118 H1142 0.950 . S
C1119 C1136 1.574 . S
C1119 C1138 1.368 . S
C1119 H1143 0.949 . S
H1120 C1124 0.949 . S
C1121 C1122 1.349 . S
C1121 C1123 1.327 . S
C1121 H1144 0.950 . S
C1122 C1121 1.349 . S
C1122 C1134 1.349 . S
C1123 C1121 1.327 . S
C1123 C1139 1.429 . S
C1123 H1145 0.950 . S
C1124 H1120 0.949 . S
C1124 C1132 1.574 . S
C1124 C1140 1.368 . S
H1125 C1133 0.950 . S
H1126 C1131 0.950 . S
H1127 C1132 0.949 . S
H1128 C1134 0.950 . S
H1129 C1135 0.950 . S
H1130 C1136 0.949 . S
C1131 H1126 0.950 . S
C1131 C1133 1.327 . S
C1131 C1137 1.429 . S
C1132 C1124 1.574 . S
C1132 H1127 0.949 . S
C1132 C1138 1.368 . S
C1133 C1117 1.349 . S
C1133 H1125 0.950 . S
C1133 C1131 1.327 . S
C1134 C1122 1.349 . S
C1134 H1128 0.950 . S
C1134 C1135 1.327 . S
C1135 H1129 0.950 . S
C1135 C1134 1.327 . S
C1135 C1139 1.429 . S
C1136 C1119 1.574 . S
C1136 H1130 0.949 . S
C1136 C1140 1.368 . S
C1137 C1118 1.429 . S
C1137 C1131 1.429 . S
C1137 C1138 1.523 . S
C1138 C1119 1.368 . S
C1138 C1132 1.368 . S
C1138 C1137 1.523 . S
C1139 C1123 1.429 . S
C1139 C1135 1.429 . S
C1139 C1140 1.523 . S
C1140 C1124 1.368 . S
C1140 C1136 1.368 . S
C1140 C1139 1.523 . S
H1141 C1116 0.950 . S
H1142 C1118 0.950 . S
H1143 C1119 0.949 . S
H1144 C1121 0.950 . S
H1145 C1123 0.950 . S
C1146 C1147 1.349 . S
C1146 C1148 1.327 . S
C1146 H1171 0.950 . S
C1147 C1146 1.349 . S
C1147 C1163 1.349 . S
C1148 C1146 1.327 . S
C1148 C1167 1.429 . S
C1148 H1172 0.950 . S
C1149 C1166 1.574 . S
C1149 C1168 1.368 . S
C1149 H1173 0.949 . S
H1150 C1154 0.949 . S
C1151 C1152 1.349 . S
C1151 C1153 1.327 . S
C1151 H1174 0.950 . S
C1152 C1151 1.349 . S
C1152 C1164 1.349 . S
C1153 C1151 1.327 . S
C1153 C1169 1.429 . S
C1153 H1175 0.950 . S
C1154 H1150 0.949 . S
C1154 C1162 1.574 . S
C1154 C1170 1.368 . S
H1155 C1163 0.950 . S
H1156 C1161 0.950 . S
H1157 C1162 0.949 . S
H1158 C1164 0.950 . S
H1159 C1165 0.950 . S
H1160 C1166 0.949 . S
C1161 H1156 0.950 . S
C1161 C1163 1.327 . S
C1161 C1167 1.429 . S
C1162 C1154 1.574 . S
C1162 H1157 0.949 . S
C1162 C1168 1.368 . S
C1163 C1147 1.349 . S
C1163 H1155 0.950 . S
C1163 C1161 1.327 . S
C1164 C1152 1.349 . S
C1164 H1158 0.950 . S
C1164 C1165 1.327 . S
C1165 H1159 0.950 . S
C1165 C1164 1.327 . S
C1165 C1169 1.429 . S
C1166 C1149 1.574 . S
C1166 H1160 0.949 . S
C1166 C1170 1.368 . S
C1167 C1148 1.429 . S
C1167 C1161 1.429 . S
C1167 C1168 1.523 . S
C1168 C1149 1.368 . S
C1168 C1162 1.368 . S
C1168 C1167 1.523 . S
C1169 C1153 1.429 . S
C1169 C1165 1.429 . S
C1169 C1170 1.523 . S
C1170 C1154 1.368 . S
C1170 C1166 1.368 . S
C1170 C1169 1.523 . S
H1171 C1146 0.950 . S
H1172 C1148 0.950 . S
H1173 C1149 0.949 . S
H1174 C1151 0.950 . S
H1175 C1153 0.950 . S
C1176 C1177 1.349 . S
C1176 C1178 1.327 . S
C1176 H1201 0.950 . S
C1177 C1176 1.349 . S
C1177 C1193 1.349 . S
C1178 C1176 1.327 . S
C1178 C1197 1.429 . S
C1178 H1202 0.950 . S
C1179 C1196 1.574 . S
C1179 C1198 1.368 . S
C1179 H1203 0.949 . S
H1180 C1184 0.949 . S
C1181 C1182 1.349 . S
C1181 C1183 1.327 . S
C1181 H1204 0.950 . S
C1182 C1181 1.349 . S
C1182 C1194 1.349 . S
C1183 C1181 1.327 . S
C1183 C1199 1.429 . S
C1183 H1205 0.950 . S
C1184 H1180 0.949 . S
C1184 C1192 1.574 . S
C1184 C1200 1.368 . S
H1185 C1193 0.950 . S
H1186 C1191 0.950 . S
H1187 C1192 0.949 . S
H1188 C1194 0.950 . S
H1189 C1195 0.950 . S
H1190 C1196 0.949 . S
C1191 H1186 0.950 . S
C1191 C1193 1.327 . S
C1191 C1197 1.429 . S
C1192 C1184 1.574 . S
C1192 H1187 0.949 . S
C1192 C1198 1.368 . S
C1193 C1177 1.349 . S
C1193 H1185 0.950 . S
C1193 C1191 1.327 . S
C1194 C1182 1.349 . S
C1194 H1188 0.950 . S
C1194 C1195 1.327 . S
C1195 H1189 0.950 . S
C1195 C1194 1.327 . S
C1195 C1199 1.429 . S
C1196 C1179 1.574 . S
C1196 H1190 0.949 . S
C1196 C1200 1.368 . S
C1197 C1178 1.429 . S
C1197 C1191 1.429 . S
C1197 C1198 1.523 . S
C1198 C1179 1.368 . S
C1198 C1192 1.368 . S
C1198 C1197 1.523 . S
C1199 C1183 1.429 . S
C1199 C1195 1.429 . S
C1199 C1200 1.523 . S
C1200 C1184 1.368 . S
C1200 C1196 1.368 . S
C1200 C1199 1.523 . S
H1201 C1176 0.950 . S
H1202 C1178 0.950 . S
H1203 C1179 0.949 . S
H1204 C1181 0.950 . S
H1205 C1183 0.950 . S
C1206 C1207 1.349 . S
C1206 C1208 1.327 . S
C1206 H1231 0.950 . S
C1207 C1206 1.349 . S
C1207 C1223 1.349 . S
C1208 C1206 1.327 . S
C1208 C1227 1.429 . S
C1208 H1232 0.950 . S
C1209 C1226 1.574 . S
C1209 C1228 1.368 . S
C1209 H1233 0.949 . S
H1210 C1214 0.949 . S
C1211 C1212 1.349 . S
C1211 C1213 1.327 . S
C1211 H1234 0.950 . S
C1212 C1211 1.349 . S
C1212 C1224 1.349 . S
C1213 C1211 1.327 . S
C1213 C1229 1.429 . S
C1213 H1235 0.950 . S
C1214 H1210 0.949 . S
C1214 C1222 1.574 . S
C1214 C1230 1.368 . S
H1215 C1223 0.950 . S
H1216 C1221 0.950 . S
H1217 C1222 0.949 . S
H1218 C1224 0.950 . S
H1219 C1225 0.950 . S
H1220 C1226 0.949 . S
C1221 H1216 0.950 . S
C1221 C1223 1.327 . S
C1221 C1227 1.429 . S
C1222 C1214 1.574 . S
C1222 H1217 0.949 . S
C1222 C1228 1.368 . S
C1223 C1207 1.349 . S
C1223 H1215 0.950 . S
C1223 C1221 1.327 . S
C1224 C1212 1.349 . S
C1224 H1218 0.950 . S
C1224 C1225 1.327 . S
C1225 H1219 0.950 . S
C1225 C1224 1.327 . S
C1225 C1229 1.429 . S
C1226 C1209 1.574 . S
C1226 H1220 0.949 . S
C1226 C1230 1.368 . S
C1227 C1208 1.429 . S
C1227 C1221 1.429 . S
C1227 C1228 1.523 . S
C1228 C1209 1.368 . S
C1228 C1222 1.368 . S
C1228 C1227 1.523 . S
C1229 C1213 1.429 . S
C1229 C1225 1.429 . S
C1229 C1230 1.523 . S
C1230 C1214 1.368 . S
C1230 C1226 1.368 . S
C1230 C1229 1.523 . S
H1231 C1206 0.950 . S
H1232 C1208 0.950 . S
H1233 C1209 0.949 . S
H1234 C1211 0.950 . S
H1235 C1213 0.950 . S
C1236 C1237 1.349 1_545 S
C1236 C1238 1.327 . S
C1236 H1261 0.950 . S
C1237 C1236 1.349 1_565 S
C1237 C1253 1.349 . S
C1238 C1236 1.327 . S
C1238 C1257 1.429 1_545 S
C1238 H1262 0.950 . S
C1239 C1256 1.574 . S
C1239 C1258 1.368 . S
C1239 H1263 0.949 . S
H1240 C1244 0.949 . S
C1241 C1242 1.349 1_565 S
C1241 C1243 1.327 . S
C1241 H1264 0.950 . S
C1242 C1241 1.349 1_545 S
C1242 C1254 1.349 . S
C1243 C1241 1.327 . S
C1243 C1259 1.429 1_565 S
C1243 H1265 0.950 . S
C1244 H1240 0.949 . S
C1244 C1252 1.574 . S
C1244 C1260 1.368 . S
H1245 C1253 0.950 . S
H1246 C1251 0.950 . S
H1247 C1252 0.949 . S
H1248 C1254 0.950 . S
H1249 C1255 0.950 . S
H1250 C1256 0.949 . S
C1251 H1246 0.950 . S
C1251 C1253 1.327 . S
C1251 C1257 1.429 . S
C1252 C1244 1.574 . S
C1252 H1247 0.949 . S
C1252 C1258 1.368 1_545 S
C1253 C1237 1.349 . S
C1253 H1245 0.950 . S
C1253 C1251 1.327 . S
C1254 C1242 1.349 . S
C1254 H1248 0.950 . S
C1254 C1255 1.327 . S
C1255 H1249 0.950 . S
C1255 C1254 1.327 . S
C1255 C1259 1.429 . S
C1256 C1239 1.574 . S
C1256 H1250 0.949 . S
C1256 C1260 1.368 1_565 S
C1257 C1238 1.429 1_565 S
C1257 C1251 1.429 . S
C1257 C1258 1.523 . S
C1258 C1239 1.368 . S
C1258 C1252 1.368 1_565 S
C1258 C1257 1.523 . S
C1259 C1243 1.429 1_545 S
C1259 C1255 1.429 . S
C1259 C1260 1.523 . S
C1260 C1244 1.368 . S
C1260 C1256 1.368 1_545 S
C1260 C1259 1.523 . S
H1261 C1236 0.950 . S
H1262 C1238 0.950 . S
H1263 C1239 0.949 . S
H1264 C1241 0.950 . S
H1265 C1243 0.950 . S
C1266 C1267 1.349 . S
C1266 C1268 1.327 . S
C1266 H1291 0.950 . S
C1267 C1266 1.349 . S
C1267 C1283 1.349 . S
C1268 C1266 1.327 . S
C1268 C1287 1.429 . S
C1268 H1292 0.950 . S
C1269 C1286 1.574 . S
C1269 C1288 1.368 . S
C1269 H1293 0.949 . S
H1270 C1274 0.949 . S
C1271 C1272 1.349 . S
C1271 C1273 1.327 . S
C1271 H1294 0.950 . S
C1272 C1271 1.349 . S
C1272 C1284 1.349 . S
C1273 C1271 1.327 . S
C1273 C1289 1.429 . S
C1273 H1295 0.950 . S
C1274 H1270 0.949 . S
C1274 C1282 1.574 . S
C1274 C1290 1.368 . S
H1275 C1283 0.950 . S
H1276 C1281 0.950 . S
H1277 C1282 0.949 . S
H1278 C1284 0.950 . S
H1279 C1285 0.950 . S
H1280 C1286 0.949 . S
C1281 H1276 0.950 . S
C1281 C1283 1.327 . S
C1281 C1287 1.429 . S
C1282 C1274 1.574 . S
C1282 H1277 0.949 . S
C1282 C1288 1.368 . S
C1283 C1267 1.349 . S
C1283 H1275 0.950 . S
C1283 C1281 1.327 . S
C1284 C1272 1.349 . S
C1284 H1278 0.950 . S
C1284 C1285 1.327 . S
C1285 H1279 0.950 . S
C1285 C1284 1.327 . S
C1285 C1289 1.429 . S
C1286 C1269 1.574 . S
C1286 H1280 0.949 . S
C1286 C1290 1.368 . S
C1287 C1268 1.429 . S
C1287 C1281 1.429 . S
C1287 C1288 1.523 . S
C1288 C1269 1.368 . S
C1288 C1282 1.368 . S
C1288 C1287 1.523 . S
C1289 C1273 1.429 . S
C1289 C1285 1.429 . S
C1289 C1290 1.523 . S
C1290 C1274 1.368 . S
C1290 C1286 1.368 . S
C1290 C1289 1.523 . S
H1291 C1266 0.950 . S
H1292 C1268 0.950 . S
H1293 C1269 0.949 . S
H1294 C1271 0.950 . S
H1295 C1273 0.950 . S
C1296 C1297 1.349 . S
C1296 C1298 1.327 . S
C1296 H1321 0.950 . S
C1297 C1296 1.349 . S
C1297 C1313 1.349 1_655 S
C1298 C1296 1.327 . S
C1298 C1317 1.429 . S
C1298 H1322 0.950 . S
C1299 C1316 1.574 . S
C1299 C1318 1.368 1_455 S
C1299 H1323 0.949 . S
H1300 C1304 0.949 . S
C1301 C1302 1.349 . S
C1301 C1303 1.327 . S
C1301 H1324 0.950 . S
C1302 C1301 1.349 . S
C1302 C1314 1.349 1_455 S
C1303 C1301 1.327 . S
C1303 C1319 1.429 . S
C1303 H1325 0.950 . S
C1304 H1300 0.949 . S
C1304 C1312 1.574 . S
C1304 C1320 1.368 1_655 S
H1305 C1313 0.950 . S
H1306 C1311 0.950 . S
H1307 C1312 0.949 . S
H1308 C1314 0.950 . S
H1309 C1315 0.950 . S
H1310 C1316 0.949 . S
C1311 H1306 0.950 . S
C1311 C1313 1.327 . S
C1311 C1317 1.429 1_455 S
C1312 C1304 1.574 . S
C1312 H1307 0.949 . S
C1312 C1318 1.368 . S
C1313 C1297 1.349 1_455 S
C1313 H1305 0.950 . S
C1313 C1311 1.327 . S
C1314 C1302 1.349 1_655 S
C1314 H1308 0.950 . S
C1314 C1315 1.327 . S
C1315 H1309 0.950 . S
C1315 C1314 1.327 . S
C1315 C1319 1.429 1_655 S
C1316 C1299 1.574 . S
C1316 H1310 0.949 . S
C1316 C1320 1.368 . S
C1317 C1298 1.429 . S
C1317 C1311 1.429 1_655 S
C1317 C1318 1.523 . S
C1318 C1299 1.368 1_655 S
C1318 C1312 1.368 . S
C1318 C1317 1.523 . S
C1319 C1303 1.429 . S
C1319 C1315 1.429 1_455 S
C1319 C1320 1.523 . S
C1320 C1304 1.368 1_455 S
C1320 C1316 1.368 . S
C1320 C1319 1.523 . S
H1321 C1296 0.950 . S
H1322 C1298 0.950 . S
H1323 C1299 0.949 . S
H1324 C1301 0.950 . S
H1325 C1303 0.950 . S
C1326 C1327 1.349 . S
C1326 C1328 1.327 . S
C1326 H1351 0.950 . S
C1327 C1326 1.349 . S
C1327 C1343 1.349 1_455 S
C1328 C1326 1.327 . S
C1328 C1347 1.429 . S
C1328 H1352 0.950 . S
C1329 C1346 1.574 . S
C1329 C1348 1.368 1_655 S
C1329 H1353 0.949 . S
H1330 C1334 0.949 . S
C1331 C1332 1.349 . S
C1331 C1333 1.327 . S
C1331 H1354 0.950 . S
C1332 C1331 1.349 . S
C1332 C1344 1.349 1_655 S
C1333 C1331 1.327 . S
C1333 C1349 1.429 . S
C1333 H1355 0.950 . S
C1334 H1330 0.949 . S
C1334 C1342 1.574 . S
C1334 C1350 1.368 1_455 S
H1335 C1343 0.950 . S
H1336 C1341 0.950 . S
H1337 C1342 0.949 . S
H1338 C1344 0.950 . S
H1339 C1345 0.950 . S
H1340 C1346 0.949 . S
C1341 H1336 0.950 . S
C1341 C1343 1.327 . S
C1341 C1347 1.429 1_655 S
C1342 C1334 1.574 . S
C1342 H1337 0.949 . S
C1342 C1348 1.368 . S
C1343 C1327 1.349 1_655 S
C1343 H1335 0.950 . S
C1343 C1341 1.327 . S
C1344 C1332 1.349 1_455 S
C1344 H1338 0.950 . S
C1344 C1345 1.327 . S
C1345 H1339 0.950 . S
C1345 C1344 1.327 . S
C1345 C1349 1.429 1_455 S
C1346 C1329 1.574 . S
C1346 H1340 0.949 . S
C1346 C1350 1.368 . S
C1347 C1328 1.429 . S
C1347 C1341 1.429 1_455 S
C1347 C1348 1.523 . S
C1348 C1329 1.368 1_455 S
C1348 C1342 1.368 . S
C1348 C1347 1.523 . S
C1349 C1333 1.429 . S
C1349 C1345 1.429 1_655 S
C1349 C1350 1.523 . S
C1350 C1334 1.368 1_655 S
C1350 C1346 1.368 . S
C1350 C1349 1.523 . S
H1351 C1326 0.950 . S
H1352 C1328 0.950 . S
H1353 C1329 0.949 . S
H1354 C1331 0.950 . S
H1355 C1333 0.950 . S
C1356 C1357 1.349 . S
C1356 C1358 1.327 . S
C1356 H1381 0.950 . S
C1357 C1356 1.349 . S
C1357 C1373 1.349 1_565 S
C1358 C1356 1.327 . S
C1358 C1377 1.429 . S
C1358 H1382 0.950 . S
C1359 C1376 1.574 . S
C1359 C1378 1.368 1_545 S
C1359 H1383 0.949 . S
H1360 C1364 0.949 . S
C1361 C1362 1.349 . S
C1361 C1363 1.327 . S
C1361 H1384 0.950 . S
C1362 C1361 1.349 . S
C1362 C1374 1.349 1_545 S
C1363 C1361 1.327 . S
C1363 C1379 1.429 . S
C1363 H1385 0.950 . S
C1364 H1360 0.949 . S
C1364 C1372 1.574 . S
C1364 C1380 1.368 1_565 S
H1365 C1373 0.950 . S
H1366 C1371 0.950 . S
H1367 C1372 0.949 . S
H1368 C1374 0.950 . S
H1369 C1375 0.950 . S
H1370 C1376 0.949 . S
C1371 H1366 0.950 . S
C1371 C1373 1.327 . S
C1371 C1377 1.429 1_545 S
C1372 C1364 1.574 . S
C1372 H1367 0.949 . S
C1372 C1378 1.368 . S
C1373 C1357 1.349 1_545 S
C1373 H1365 0.950 . S
C1373 C1371 1.327 . S
C1374 C1362 1.349 1_565 S
C1374 H1368 0.950 . S
C1374 C1375 1.327 . S
C1375 H1369 0.950 . S
C1375 C1374 1.327 . S
C1375 C1379 1.429 1_565 S
C1376 C1359 1.574 . S
C1376 H1370 0.949 . S
C1376 C1380 1.368 . S
C1377 C1358 1.429 . S
C1377 C1371 1.429 1_565 S
C1377 C1378 1.523 . S
C1378 C1359 1.368 1_565 S
C1378 C1372 1.368 . S
C1378 C1377 1.523 . S
C1379 C1363 1.429 . S
C1379 C1375 1.429 1_545 S
C1379 C1380 1.523 . S
C1380 C1364 1.368 1_545 S
C1380 C1376 1.368 . S
C1380 C1379 1.523 . S
H1381 C1356 0.950 . S
H1382 C1358 0.950 . S
H1383 C1359 0.949 . S
H1384 C1361 0.950 . S
H1385 C1363 0.950 . S
C1386 C1387 1.349 . S
C1386 C1388 1.327 . S
C1386 H1411 0.950 . S
C1387 C1386 1.349 . S
C1387 C1403 1.349 . S
C1388 C1386 1.327 . S
C1388 C1407 1.429 . S
C1388 H1412 0.950 . S
C1389 C1406 1.574 . S
C1389 C1408 1.368 . S
C1389 H1413 0.949 . S
H1390 C1394 0.949 . S
C1391 C1392 1.349 . S
C1391 C1393 1.327 . S
C1391 H1414 0.950 . S
C1392 C1391 1.349 . S
C1392 C1404 1.349 . S
C1393 C1391 1.327 . S
C1393 C1409 1.429 . S
C1393 H1415 0.950 . S
C1394 H1390 0.949 . S
C1394 C1402 1.574 . S
C1394 C1410 1.368 . S
H1395 C1403 0.950 . S
H1396 C1401 0.950 . S
H1397 C1402 0.949 . S
H1398 C1404 0.950 . S
H1399 C1405 0.950 . S
H1400 C1406 0.949 . S
C1401 H1396 0.950 . S
C1401 C1403 1.327 . S
C1401 C1407 1.429 . S
C1402 C1394 1.574 . S
C1402 H1397 0.949 . S
C1402 C1408 1.368 . S
C1403 C1387 1.349 . S
C1403 H1395 0.950 . S
C1403 C1401 1.327 . S
C1404 C1392 1.349 . S
C1404 H1398 0.950 . S
C1404 C1405 1.327 . S
C1405 H1399 0.950 . S
C1405 C1404 1.327 . S
C1405 C1409 1.429 . S
C1406 C1389 1.574 . S
C1406 H1400 0.949 . S
C1406 C1410 1.368 . S
C1407 C1388 1.429 . S
C1407 C1401 1.429 . S
C1407 C1408 1.523 . S
C1408 C1389 1.368 . S
C1408 C1402 1.368 . S
C1408 C1407 1.523 . S
C1409 C1393 1.429 . S
C1409 C1405 1.429 . S
C1409 C1410 1.523 . S
C1410 C1394 1.368 . S
C1410 C1406 1.368 . S
C1410 C1409 1.523 . S
H1411 C1386 0.950 . S
H1412 C1388 0.950 . S
H1413 C1389 0.949 . S
H1414 C1391 0.950 . S
H1415 C1393 0.950 . S
C1416 C1417 1.349 . S
C1416 C1418 1.327 . S
C1416 H1441 0.950 . S
C1417 C1416 1.349 . S
C1417 C1433 1.349 . S
C1418 C1416 1.327 . S
C1418 C1437 1.429 . S
C1418 H1442 0.950 . S
C1419 C1436 1.574 . S
C1419 C1438 1.368 . S
C1419 H1443 0.949 . S
H1420 C1424 0.949 . S
C1421 C1422 1.349 . S
C1421 C1423 1.327 . S
C1421 H1444 0.950 . S
C1422 C1421 1.349 . S
C1422 C1434 1.349 . S
C1423 C1421 1.327 . S
C1423 C1439 1.429 . S
C1423 H1445 0.950 . S
C1424 H1420 0.949 . S
C1424 C1432 1.574 . S
C1424 C1440 1.368 . S
H1425 C1433 0.950 . S
H1426 C1431 0.950 . S
H1427 C1432 0.949 . S
H1428 C1434 0.950 . S
H1429 C1435 0.950 . S
H1430 C1436 0.949 . S
C1431 H1426 0.950 . S
C1431 C1433 1.327 . S
C1431 C1437 1.429 . S
C1432 C1424 1.574 . S
C1432 H1427 0.949 . S
C1432 C1438 1.368 . S
C1433 C1417 1.349 . S
C1433 H1425 0.950 . S
C1433 C1431 1.327 . S
C1434 C1422 1.349 . S
C1434 H1428 0.950 . S
C1434 C1435 1.327 . S
C1435 H1429 0.950 . S
C1435 C1434 1.327 . S
C1435 C1439 1.429 . S
C1436 C1419 1.574 . S
C1436 H1430 0.949 . S
C1436 C1440 1.368 . S
C1437 C1418 1.429 . S
C1437 C1431 1.429 . S
C1437 C1438 1.523 . S
C1438 C1419 1.368 . S
C1438 C1432 1.368 . S
C1438 C1437 1.523 . S
C1439 C1423 1.429 . S
C1439 C1435 1.429 . S
C1439 C1440 1.523 . S
C1440 C1424 1.368 . S
C1440 C1436 1.368 . S
C1440 C1439 1.523 . S
H1441 C1416 0.950 . S
H1442 C1418 0.950 . S
H1443 C1419 0.949 . S
H1444 C1421 0.950 . S
H1445 C1423 0.950 . S
C1446 C1447 1.349 . S
C1446 C1448 1.327 . S
C1446 H1471 0.950 . S
C1447 C1446 1.349 . S
C1447 C1463 1.349 . S
C1448 C1446 1.327 . S
C1448 C1467 1.429 . S
C1448 H1472 0.950 . S
C1449 C1466 1.574 . S
C1449 C1468 1.368 . S
C1449 H1473 0.949 . S
H1450 C1454 0.949 . S
C1451 C1452 1.349 . S
C1451 C1453 1.327 . S
C1451 H1474 0.950 . S
C1452 C1451 1.349 . S
C1452 C1464 1.349 . S
C1453 C1451 1.327 . S
C1453 C1469 1.429 . S
C1453 H1475 0.950 . S
C1454 H1450 0.949 . S
C1454 C1462 1.574 . S
C1454 C1470 1.368 . S
H1455 C1463 0.950 . S
H1456 C1461 0.950 . S
H1457 C1462 0.949 . S
H1458 C1464 0.950 . S
H1459 C1465 0.950 . S
H1460 C1466 0.949 . S
C1461 H1456 0.950 . S
C1461 C1463 1.327 . S
C1461 C1467 1.429 . S
C1462 C1454 1.574 . S
C1462 H1457 0.949 . S
C1462 C1468 1.368 . S
C1463 C1447 1.349 . S
C1463 H1455 0.950 . S
C1463 C1461 1.327 . S
C1464 C1452 1.349 . S
C1464 H1458 0.950 . S
C1464 C1465 1.327 . S
C1465 H1459 0.950 . S
C1465 C1464 1.327 . S
C1465 C1469 1.429 . S
C1466 C1449 1.574 . S
C1466 H1460 0.949 . S
C1466 C1470 1.368 . S
C1467 C1448 1.429 . S
C1467 C1461 1.429 . S
C1467 C1468 1.523 . S
C1468 C1449 1.368 . S
C1468 C1462 1.368 . S
C1468 C1467 1.523 . S
C1469 C1453 1.429 . S
C1469 C1465 1.429 . S
C1469 C1470 1.523 . S
C1470 C1454 1.368 . S
C1470 C1466 1.368 . S
C1470 C1469 1.523 . S
H1471 C1446 0.950 . S
H1472 C1448 0.950 . S
H1473 C1449 0.949 . S
H1474 C1451 0.950 . S
H1475 C1453 0.950 . S
C1476 C1477 1.349 . S
C1476 C1478 1.327 . S
C1476 H1501 0.950 . S
C1477 C1476 1.349 . S
C1477 C1493 1.349 . S
C1478 C1476 1.327 . S
C1478 C1497 1.429 . S
C1478 H1502 0.950 . S
C1479 C1496 1.574 . S
C1479 C1498 1.368 1_556 S
C1479 H1503 0.949 . S
H1480 C1484 0.949 . S
C1481 C1482 1.349 . S
C1481 C1483 1.327 . S
C1481 H1504 0.950 . S
C1482 C1481 1.349 . S
C1482 C1494 1.349 . S
C1483 C1481 1.327 . S
C1483 C1499 1.429 . S
C1483 H1505 0.950 . S
C1484 H1480 0.949 . S
C1484 C1492 1.574 . S
C1484 C1500 1.368 1_554 S
H1485 C1493 0.950 . S
H1486 C1491 0.950 . S
H1487 C1492 0.949 . S
H1488 C1494 0.950 . S
H1489 C1495 0.950 . S
H1490 C1496 0.949 . S
C1491 H1486 0.950 . S
C1491 C1493 1.327 . S
C1491 C1497 1.429 . S
C1492 C1484 1.574 . S
C1492 H1487 0.949 . S
C1492 C1498 1.368 . S
C1493 C1477 1.349 . S
C1493 H1485 0.950 . S
C1493 C1491 1.327 . S
C1494 C1482 1.349 . S
C1494 H1488 0.950 . S
C1494 C1495 1.327 . S
C1495 H1489 0.950 . S
C1495 C1494 1.327 . S
C1495 C1499 1.429 . S
C1496 C1479 1.574 . S
C1496 H1490 0.949 . S
C1496 C1500 1.368 . S
C1497 C1478 1.429 . S
C1497 C1491 1.429 . S
C1497 C1498 1.523 . S
C1498 C1479 1.368 1_554 S
C1498 C1492 1.368 . S
C1498 C1497 1.523 . S
C1499 C1483 1.429 . S
C1499 C1495 1.429 . S
C1499 C1500 1.523 . S
C1500 C1484 1.368 1_556 S
C1500 C1496 1.368 . S
C1500 C1499 1.523 . S
H1501 C1476 0.950 . S
H1502 C1478 0.950 . S
H1503 C1479 0.949 . S
H1504 C1481 0.950 . S
H1505 C1483 0.950 . S
C1506 C1507 1.349 . S
C1506 C1508 1.327 . S
C1506 H1531 0.950 . S
C1507 C1506 1.349 . S
C1507 C1523 1.349 . S
C1508 C1506 1.327 . S
C1508 C1527 1.429 . S
C1508 H1532 0.950 . S
C1509 C1526 1.574 . S
C1509 C1528 1.368 . S
C1509 H1533 0.949 . S
H1510 C1514 0.949 . S
C1511 C1512 1.349 . S
C1511 C1513 1.327 . S
C1511 H1534 0.950 . S
C1512 C1511 1.349 . S
C1512 C1524 1.349 . S
C1513 C1511 1.327 . S
C1513 C1529 1.429 . S
C1513 H1535 0.950 . S
C1514 H1510 0.949 . S
C1514 C1522 1.574 . S
C1514 C1530 1.368 . S
H1515 C1523 0.950 . S
H1516 C1521 0.950 . S
H1517 C1522 0.949 . S
H1518 C1524 0.950 . S
H1519 C1525 0.950 . S
H1520 C1526 0.949 . S
C1521 H1516 0.950 . S
C1521 C1523 1.327 . S
C1521 C1527 1.429 . S
C1522 C1514 1.574 . S
C1522 H1517 0.949 . S
C1522 C1528 1.368 . S
C1523 C1507 1.349 . S
C1523 H1515 0.950 . S
C1523 C1521 1.327 . S
C1524 C1512 1.349 . S
C1524 H1518 0.950 . S
C1524 C1525 1.327 . S
C1525 H1519 0.950 . S
C1525 C1524 1.327 . S
C1525 C1529 1.429 . S
C1526 C1509 1.574 . S
C1526 H1520 0.949 . S
C1526 C1530 1.368 . S
C1527 C1508 1.429 . S
C1527 C1521 1.429 . S
C1527 C1528 1.523 . S
C1528 C1509 1.368 . S
C1528 C1522 1.368 . S
C1528 C1527 1.523 . S
C1529 C1513 1.429 . S
C1529 C1525 1.429 . S
C1529 C1530 1.523 . S
C1530 C1514 1.368 . S
C1530 C1526 1.368 . S
C1530 C1529 1.523 . S
H1531 C1506 0.950 . S
H1532 C1508 0.950 . S
H1533 C1509 0.949 . S
H1534 C1511 0.950 . S
H1535 C1513 0.950 . S
C1536 C1537 1.349 . S
C1536 C1538 1.327 . S
C1536 H1561 0.950 . S
C1537 C1536 1.349 . S
C1537 C1553 1.349 . S
C1538 C1536 1.327 . S
C1538 C1557 1.429 . S
C1538 H1562 0.950 . S
C1539 C1556 1.574 . S
C1539 C1558 1.368 . S
C1539 H1563 0.949 . S
H1540 C1544 0.949 . S
C1541 C1542 1.349 . S
C1541 C1543 1.327 . S
C1541 H1564 0.950 . S
C1542 C1541 1.349 . S
C1542 C1554 1.349 . S
C1543 C1541 1.327 . S
C1543 C1559 1.429 . S
C1543 H1565 0.950 . S
C1544 H1540 0.949 . S
C1544 C1552 1.574 . S
C1544 C1560 1.368 . S
H1545 C1553 0.950 . S
H1546 C1551 0.950 . S
H1547 C1552 0.949 . S
H1548 C1554 0.950 . S
H1549 C1555 0.950 . S
H1550 C1556 0.949 . S
C1551 H1546 0.950 . S
C1551 C1553 1.327 . S
C1551 C1557 1.429 . S
C1552 C1544 1.574 . S
C1552 H1547 0.949 . S
C1552 C1558 1.368 . S
C1553 C1537 1.349 . S
C1553 H1545 0.950 . S
C1553 C1551 1.327 . S
C1554 C1542 1.349 . S
C1554 H1548 0.950 . S
C1554 C1555 1.327 . S
C1555 H1549 0.950 . S
C1555 C1554 1.327 . S
C1555 C1559 1.429 . S
C1556 C1539 1.574 . S
C1556 H1550 0.949 . S
C1556 C1560 1.368 . S
C1557 C1538 1.429 . S
C1557 C1551 1.429 . S
C1557 C1558 1.523 . S
C1558 C1539 1.368 . S
C1558 C1552 1.368 . S
C1558 C1557 1.523 . S
C1559 C1543 1.429 . S
C1559 C1555 1.429 . S
C1559 C1560 1.523 . S
C1560 C1544 1.368 . S
C1560 C1556 1.368 . S
C1560 C1559 1.523 . S
H1561 C1536 0.950 . S
H1562 C1538 0.950 . S
H1563 C1539 0.949 . S
H1564 C1541 0.950 . S
H1565 C1543 0.950 . S
C1566 C1567 1.349 . S
C1566 C1568 1.327 . S
C1566 H1591 0.950 . S
C1567 C1566 1.349 . S
C1567 C1583 1.349 . S
C1568 C1566 1.327 . S
C1568 C1587 1.429 . S
C1568 H1592 0.950 . S
C1569 C1586 1.574 . S
C1569 C1588 1.368 1_556 S
C1569 H1593 0.949 . S
H1570 C1574 0.949 . S
C1571 C1572 1.349 . S
C1571 C1573 1.327 . S
C1571 H1594 0.950 . S
C1572 C1571 1.349 . S
C1572 C1584 1.349 . S
C1573 C1571 1.327 . S
C1573 C1589 1.429 . S
C1573 H1595 0.950 . S
C1574 H1570 0.949 . S
C1574 C1582 1.574 . S
C1574 C1590 1.368 1_554 S
H1575 C1583 0.950 . S
H1576 C1581 0.950 . S
H1577 C1582 0.949 . S
H1578 C1584 0.950 . S
H1579 C1585 0.950 . S
H1580 C1586 0.949 . S
C1581 H1576 0.950 . S
C1581 C1583 1.327 . S
C1581 C1587 1.429 . S
C1582 C1574 1.574 . S
C1582 H1577 0.949 . S
C1582 C1588 1.368 . S
C1583 C1567 1.349 . S
C1583 H1575 0.950 . S
C1583 C1581 1.327 . S
C1584 C1572 1.349 . S
C1584 H1578 0.950 . S
C1584 C1585 1.327 . S
C1585 H1579 0.950 . S
C1585 C1584 1.327 . S
C1585 C1589 1.429 . S
C1586 C1569 1.574 . S
C1586 H1580 0.949 . S
C1586 C1590 1.368 . S
C1587 C1568 1.429 . S
C1587 C1581 1.429 . S
C1587 C1588 1.523 . S
C1588 C1569 1.368 1_554 S
C1588 C1582 1.368 . S
C1588 C1587 1.523 . S
C1589 C1573 1.429 . S
C1589 C1585 1.429 . S
C1589 C1590 1.523 . S
C1590 C1574 1.368 1_556 S
C1590 C1586 1.368 . S
C1590 C1589 1.523 . S
H1591 C1566 0.950 . S
H1592 C1568 0.950 . S
H1593 C1569 0.949 . S
H1594 C1571 0.950 . S
H1595 C1573 0.950 . S
C1596 C1597 1.349 . S
C1596 C1598 1.327 . S
C1596 H1621 0.950 . S
C1597 C1596 1.349 . S
C1597 C1613 1.349 . S
C1598 C1596 1.327 . S
C1598 C1617 1.429 . S
C1598 H1622 0.950 . S
C1599 C1616 1.574 . S
C1599 C1618 1.368 1_565 S
C1599 H1623 0.949 . S
H1600 C1604 0.949 . S
C1601 C1602 1.349 . S
C1601 C1603 1.327 . S
C1601 H1624 0.950 . S
C1602 C1601 1.349 . S
C1602 C1614 1.349 . S
C1603 C1601 1.327 . S
C1603 C1619 1.429 . S
C1603 H1625 0.950 . S
C1604 H1600 0.949 . S
C1604 C1612 1.574 . S
C1604 C1620 1.368 1_545 S
H1605 C1613 0.950 . S
H1606 C1611 0.950 1_565 S
H1607 C1612 0.949 . S
H1608 C1614 0.950 . S
H1609 C1615 0.950 1_545 S
H1610 C1616 0.949 . S
C1611 H1606 0.950 1_545 S
C1611 C1613 1.327 . S
C1611 C1617 1.429 . S
C1612 C1604 1.574 . S
C1612 H1607 0.949 . S
C1612 C1618 1.368 . S
C1613 C1597 1.349 . S
C1613 H1605 0.950 . S
C1613 C1611 1.327 . S
C1614 C1602 1.349 . S
C1614 H1608 0.950 . S
C1614 C1615 1.327 . S
C1615 H1609 0.950 1_565 S
C1615 C1614 1.327 . S
C1615 C1619 1.429 . S
C1616 C1599 1.574 . S
C1616 H1610 0.949 . S
C1616 C1620 1.368 . S
C1617 C1598 1.429 . S
C1617 C1611 1.429 . S
C1617 C1618 1.523 . S
C1618 C1599 1.368 1_545 S
C1618 C1612 1.368 . S
C1618 C1617 1.523 . S
C1619 C1603 1.429 . S
C1619 C1615 1.429 . S
C1619 C1620 1.523 . S
C1620 C1604 1.368 1_565 S
C1620 C1616 1.368 . S
C1620 C1619 1.523 . S
H1621 C1596 0.950 . S
H1622 C1598 0.950 . S
H1623 C1599 0.949 . S
H1624 C1601 0.950 . S
H1625 C1603 0.950 . S
C1626 C1627 1.349 . S
C1626 C1628 1.327 . S
C1626 H1651 0.950 . S
C1627 C1626 1.349 . S
C1627 C1643 1.349 . S
C1628 C1626 1.327 . S
C1628 C1647 1.429 . S
C1628 H1652 0.950 . S
C1629 C1646 1.574 . S
C1629 C1648 1.368 . S
C1629 H1653 0.949 . S
H1630 C1634 0.949 . S
C1631 C1632 1.349 . S
C1631 C1633 1.327 . S
C1631 H1654 0.950 . S
C1632 C1631 1.349 . S
C1632 C1644 1.349 . S
C1633 C1631 1.327 . S
C1633 C1649 1.429 . S
C1633 H1655 0.950 . S
C1634 H1630 0.949 . S
C1634 C1642 1.574 . S
C1634 C1650 1.368 . S
H1635 C1643 0.950 . S
H1636 C1641 0.950 . S
H1637 C1642 0.949 . S
H1638 C1644 0.950 . S
H1639 C1645 0.950 . S
H1640 C1646 0.949 . S
C1641 H1636 0.950 . S
C1641 C1643 1.327 . S
C1641 C1647 1.429 . S
C1642 C1634 1.574 . S
C1642 H1637 0.949 . S
C1642 C1648 1.368 . S
C1643 C1627 1.349 . S
C1643 H1635 0.950 . S
C1643 C1641 1.327 . S
C1644 C1632 1.349 . S
C1644 H1638 0.950 . S
C1644 C1645 1.327 . S
C1645 H1639 0.950 . S
C1645 C1644 1.327 . S
C1645 C1649 1.429 . S
C1646 C1629 1.574 . S
C1646 H1640 0.949 . S
C1646 C1650 1.368 . S
C1647 C1628 1.429 . S
C1647 C1641 1.429 . S
C1647 C1648 1.523 . S
C1648 C1629 1.368 . S
C1648 C1642 1.368 . S
C1648 C1647 1.523 . S
C1649 C1633 1.429 . S
C1649 C1645 1.429 . S
C1649 C1650 1.523 . S
C1650 C1634 1.368 . S
C1650 C1646 1.368 . S
C1650 C1649 1.523 . S
H1651 C1626 0.950 . S
H1652 C1628 0.950 . S
H1653 C1629 0.949 . S
H1654 C1631 0.950 . S
H1655 C1633 0.950 . S
C1656 C1657 1.349 . S
C1656 C1658 1.327 . S
C1656 H1681 0.950 . S
C1657 C1656 1.349 . S
C1657 C1673 1.349 . S
C1658 C1656 1.327 . S
C1658 C1677 1.429 . S
C1658 H1682 0.950 . S
C1659 C1676 1.574 . S
C1659 C1678 1.368 1_655 S
C1659 H1683 0.949 . S
H1660 C1664 0.949 . S
C1661 C1662 1.349 . S
C1661 C1663 1.327 . S
C1661 H1684 0.950 . S
C1662 C1661 1.349 . S
C1662 C1674 1.349 . S
C1663 C1661 1.327 . S
C1663 C1679 1.429 . S
C1663 H1685 0.950 . S
C1664 H1660 0.949 . S
C1664 C1672 1.574 . S
C1664 C1680 1.368 1_455 S
H1665 C1673 0.950 . S
H1666 C1671 0.950 . S
H1667 C1672 0.949 . S
H1668 C1674 0.950 . S
H1669 C1675 0.950 . S
H1670 C1676 0.949 . S
C1671 H1666 0.950 . S
C1671 C1673 1.327 . S
C1671 C1677 1.429 . S
C1672 C1664 1.574 . S
C1672 H1667 0.949 . S
C1672 C1678 1.368 . S
C1673 C1657 1.349 . S
C1673 H1665 0.950 . S
C1673 C1671 1.327 . S
C1674 C1662 1.349 . S
C1674 H1668 0.950 . S
C1674 C1675 1.327 . S
C1675 H1669 0.950 . S
C1675 C1674 1.327 . S
C1675 C1679 1.429 . S
C1676 C1659 1.574 . S
C1676 H1670 0.949 . S
C1676 C1680 1.368 . S
C1677 C1658 1.429 . S
C1677 C1671 1.429 . S
C1677 C1678 1.523 . S
C1678 C1659 1.368 1_455 S
C1678 C1672 1.368 . S
C1678 C1677 1.523 . S
C1679 C1663 1.429 . S
C1679 C1675 1.429 . S
C1679 C1680 1.523 . S
C1680 C1664 1.368 1_655 S
C1680 C1676 1.368 . S
C1680 C1679 1.523 . S
H1681 C1656 0.950 . S
H1682 C1658 0.950 . S
H1683 C1659 0.949 . S
H1684 C1661 0.950 . S
H1685 C1663 0.950 . S
C1686 C1687 1.349 . S
C1686 C1688 1.327 . S
C1686 H1711 0.950 . S
C1687 C1686 1.349 . S
C1687 C1703 1.349 . S
C1688 C1686 1.327 . S
C1688 C1707 1.429 . S
C1688 H1712 0.950 . S
C1689 C1706 1.574 . S
C1689 C1708 1.368 1_545 S
C1689 H1713 0.949 . S
H1690 C1694 0.949 . S
C1691 C1692 1.349 . S
C1691 C1693 1.327 . S
C1691 H1714 0.950 . S
C1692 C1691 1.349 . S
C1692 C1704 1.349 . S
C1693 C1691 1.327 . S
C1693 C1709 1.429 . S
C1693 H1715 0.950 . S
C1694 H1690 0.949 . S
C1694 C1702 1.574 . S
C1694 C1710 1.368 1_565 S
H1695 C1703 0.950 . S
H1696 C1701 0.950 1_545 S
H1697 C1702 0.949 . S
H1698 C1704 0.950 . S
H1699 C1705 0.950 1_565 S
H1700 C1706 0.949 . S
C1701 H1696 0.950 1_565 S
C1701 C1703 1.327 . S
C1701 C1707 1.429 . S
C1702 C1694 1.574 . S
C1702 H1697 0.949 . S
C1702 C1708 1.368 . S
C1703 C1687 1.349 . S
C1703 H1695 0.950 . S
C1703 C1701 1.327 . S
C1704 C1692 1.349 . S
C1704 H1698 0.950 . S
C1704 C1705 1.327 . S
C1705 H1699 0.950 1_545 S
C1705 C1704 1.327 . S
C1705 C1709 1.429 . S
C1706 C1689 1.574 . S
C1706 H1700 0.949 . S
C1706 C1710 1.368 . S
C1707 C1688 1.429 . S
C1707 C1701 1.429 . S
C1707 C1708 1.523 . S
C1708 C1689 1.368 1_565 S
C1708 C1702 1.368 . S
C1708 C1707 1.523 . S
C1709 C1693 1.429 . S
C1709 C1705 1.429 . S
C1709 C1710 1.523 . S
C1710 C1694 1.368 1_545 S
C1710 C1706 1.368 . S
C1710 C1709 1.523 . S
H1711 C1686 0.950 . S
H1712 C1688 0.950 . S
H1713 C1689 0.949 . S
H1714 C1691 0.950 . S
H1715 C1693 0.950 . S
C1716 C1717 1.349 . S
C1716 C1718 1.327 . S
C1716 H1741 0.950 . S
C1717 C1716 1.349 . S
C1717 C1733 1.349 . S
C1718 C1716 1.327 . S
C1718 C1737 1.429 . S
C1718 H1742 0.950 . S
C1719 C1736 1.574 . S
C1719 C1738 1.368 . S
C1719 H1743 0.949 . S
H1720 C1724 0.949 . S
C1721 C1722 1.349 . S
C1721 C1723 1.327 . S
C1721 H1744 0.950 . S
C1722 C1721 1.349 . S
C1722 C1734 1.349 . S
C1723 C1721 1.327 . S
C1723 C1739 1.429 . S
C1723 H1745 0.950 . S
C1724 H1720 0.949 . S
C1724 C1732 1.574 . S
C1724 C1740 1.368 . S
H1725 C1733 0.950 . S
H1726 C1731 0.950 . S
H1727 C1732 0.949 . S
H1728 C1734 0.950 . S
H1729 C1735 0.950 . S
H1730 C1736 0.949 . S
C1731 H1726 0.950 . S
C1731 C1733 1.327 . S
C1731 C1737 1.429 . S
C1732 C1724 1.574 . S
C1732 H1727 0.949 . S
C1732 C1738 1.368 . S
C1733 C1717 1.349 . S
C1733 H1725 0.950 . S
C1733 C1731 1.327 . S
C1734 C1722 1.349 . S
C1734 H1728 0.950 . S
C1734 C1735 1.327 . S
C1735 H1729 0.950 . S
C1735 C1734 1.327 . S
C1735 C1739 1.429 . S
C1736 C1719 1.574 . S
C1736 H1730 0.949 . S
C1736 C1740 1.368 . S
C1737 C1718 1.429 . S
C1737 C1731 1.429 . S
C1737 C1738 1.523 . S
C1738 C1719 1.368 . S
C1738 C1732 1.368 . S
C1738 C1737 1.523 . S
C1739 C1723 1.429 . S
C1739 C1735 1.429 . S
C1739 C1740 1.523 . S
C1740 C1724 1.368 . S
C1740 C1736 1.368 . S
C1740 C1739 1.523 . S
H1741 C1716 0.950 . S
H1742 C1718 0.950 . S
H1743 C1719 0.949 . S
H1744 C1721 0.950 . S
H1745 C1723 0.950 . S
C1746 C1747 1.349 . S
C1746 C1748 1.327 . S
C1746 H1771 0.950 . S
C1747 C1746 1.349 . S
C1747 C1763 1.349 . S
C1748 C1746 1.327 . S
C1748 C1767 1.429 . S
C1748 H1772 0.950 . S
C1749 C1766 1.574 . S
C1749 C1768 1.368 1_455 S
C1749 H1773 0.949 . S
H1750 C1754 0.949 . S
C1751 C1752 1.349 . S
C1751 C1753 1.327 . S
C1751 H1774 0.950 . S
C1752 C1751 1.349 . S
C1752 C1764 1.349 . S
C1753 C1751 1.327 . S
C1753 C1769 1.429 . S
C1753 H1775 0.950 . S
C1754 H1750 0.949 . S
C1754 C1762 1.574 . S
C1754 C1770 1.368 1_655 S
H1755 C1763 0.950 1_455 S
H1756 C1761 0.930 1_455 S
H1757 C1762 0.949 . S
H1758 C1764 0.950 1_655 S
H1759 C1765 0.926 1_655 S
H1760 C1766 0.949 . S
C1761 H1756 0.930 1_655 S
C1761 C1763 1.336 . S
C1761 C1767 1.440 . S
C1762 C1754 1.574 . S
C1762 H1757 0.949 . S
C1762 C1768 1.368 . S
C1763 C1747 1.349 . S
C1763 H1755 0.950 1_655 S
C1763 C1761 1.336 . S
C1764 C1752 1.349 . S
C1764 H1758 0.950 1_455 S
C1764 C1765 1.338 . S
C1765 H1759 0.926 1_455 S
C1765 C1764 1.338 . S
C1765 C1769 1.442 . S
C1766 C1749 1.574 . S
C1766 H1760 0.949 . S
C1766 C1770 1.368 . S
C1767 C1748 1.429 . S
C1767 C1761 1.440 . S
C1767 C1768 1.523 . S
C1768 C1749 1.368 1_655 S
C1768 C1762 1.368 . S
C1768 C1767 1.523 . S
C1769 C1753 1.429 . S
C1769 C1765 1.442 . S
C1769 C1770 1.523 . S
C1770 C1754 1.368 1_455 S
C1770 C1766 1.368 . S
C1770 C1769 1.523 . S
H1771 C1746 0.950 . S
H1772 C1748 0.950 . S
H1773 C1749 0.949 . S
H1774 C1751 0.950 . S
H1775 C1753 0.950 . S
C1057 C57 2.013 . S
C1062 C733 2.006 . S
C1087 C145 2.012 . S
C1092 C812 2.006 . S
C1117 C900 1.946 . S
C1122 C233 1.940 . S
C1147 C988 2.012 . S
C1152 C321 2.006 . S
C1177 C557 2.013 . S
C1182 C401 2.006 . S
C1207 C645 1.946 . S
C1212 C497 1.940 . S
C1237 C20 1.487 . S
C1242 C284 1.494 . S
C1267 C381 1.469 . S
C1272 C108 1.469 . S
C1297 C460 1.421 . S
C1302 C196 1.414 . S
C1327 C577 1.487 . S
C1332 C849 1.494 . S
C1357 C937 1.421 . S
C1362 C665 1.414 . S
C1387 C753 1.469 . S
C1392 C1025 1.469 . S
C1417 C548 1.085 . S
C1422 C49 1.092 . S
C1447 C137 1.035 . S
C1452 C636 1.042 . S
C1477 C724 1.035 . S
C1482 C225 1.042 . S
C1507 C821 1.085 . S
C1512 C313 1.092 . S
C1537 C409 1.035 . S
C1542 C909 1.042 . S
C1567 C997 1.035 . S
C1572 C489 1.042 . S
C1597 C29 0.499 . S
C1602 C673 0.494 . S
C1627 C761 0.491 . S
C1632 C117 0.491 . S
C1657 C841 0.499 . S
C1662 C205 0.494 . S
C1687 C293 0.499 . S
C1692 C929 0.494 . S
C1717 C1017 0.491 . S
C1722 C372 0.491 . S
C1747 C585 0.499 . S
C1752 C469 0.494 . S
