# Generated by pormake.
# Topology upc, (4)-cn, num edge types: 1
# Building blocks:
#     Node 0, Type 0, BuildingBlock: ICAMEG_clean_sbu_1, # of connection points: 4
#     Node 1, Type 0, BuildingBlock: ICAMEG_clean_sbu_1, # of connection points: 4
#     Node 2, Type 0, BuildingBlock: ICAMEG_clean_sbu_1, # of connection points: 4
#     Node 3, Type 0, BuildingBlock: ICAMEG_clean_sbu_1, # of connection points: 4
#     Node 4, Type 0, BuildingBlock: ICAMEG_clean_sbu_1, # of connection points: 4
#     Node 5, Type 0, BuildingBlock: ICAMEG_clean_sbu_1, # of connection points: 4
#     Node 6, Type 0, BuildingBlock: ICAMEG_clean_sbu_1, # of connection points: 4
#     Node 7, Type 0, BuildingBlock: ICAMEG_clean_sbu_1, # of connection points: 4
#     Node 8, Type 0, BuildingBlock: ICAMEG_clean_sbu_1, # of connection points: 4
#     Node 9, Type 0, BuildingBlock: ICAMEG_clean_sbu_1, # of connection points: 4
#     Node 10, Type 0, BuildingBlock: ICAMEG_clean_sbu_1, # of connection points: 4
#     Node 11, Type 0, BuildingBlock: ICAMEG_clean_sbu_1, # of connection points: 4
#     Node 12, Type 0, BuildingBlock: ICAMEG_clean_sbu_1, # of connection points: 4
#     Node 13, Type 0, BuildingBlock: ICAMEG_clean_sbu_1, # of connection points: 4
#     Node 14, Type 0, BuildingBlock: ICAMEG_clean_sbu_1, # of connection points: 4
#     Node 15, Type 0, BuildingBlock: ICAMEG_clean_sbu_1, # of connection points: 4
#     Edge 16, Type (0, 0), BuildingBlock: XIVTED_clean_linker_0, # of connection points: 2
#     Edge 17, Type (0, 0), BuildingBlock: XIVTED_clean_linker_0, # of connection points: 2
#     Edge 18, Type (0, 0), BuildingBlock: XIVTED_clean_linker_0, # of connection points: 2
#     Edge 19, Type (0, 0), BuildingBlock: XIVTED_clean_linker_0, # of connection points: 2
#     Edge 20, Type (0, 0), BuildingBlock: XIVTED_clean_linker_0, # of connection points: 2
#     Edge 21, Type (0, 0), BuildingBlock: XIVTED_clean_linker_0, # of connection points: 2
#     Edge 22, Type (0, 0), BuildingBlock: XIVTED_clean_linker_0, # of connection points: 2
#     Edge 23, Type (0, 0), BuildingBlock: XIVTED_clean_linker_0, # of connection points: 2
#     Edge 24, Type (0, 0), BuildingBlock: XIVTED_clean_linker_0, # of connection points: 2
#     Edge 25, Type (0, 0), BuildingBlock: XIVTED_clean_linker_0, # of connection points: 2
#     Edge 26, Type (0, 0), BuildingBlock: XIVTED_clean_linker_0, # of connection points: 2
#     Edge 27, Type (0, 0), BuildingBlock: XIVTED_clean_linker_0, # of connection points: 2
#     Edge 28, Type (0, 0), BuildingBlock: XIVTED_clean_linker_0, # of connection points: 2
#     Edge 29, Type (0, 0), BuildingBlock: XIVTED_clean_linker_0, # of connection points: 2
#     Edge 30, Type (0, 0), BuildingBlock: XIVTED_clean_linker_0, # of connection points: 2
#     Edge 31, Type (0, 0), BuildingBlock: XIVTED_clean_linker_0, # of connection points: 2
#     Edge 32, Type (0, 0), BuildingBlock: XIVTED_clean_linker_0, # of connection points: 2
#     Edge 33, Type (0, 0), BuildingBlock: XIVTED_clean_linker_0, # of connection points: 2
#     Edge 34, Type (0, 0), BuildingBlock: XIVTED_clean_linker_0, # of connection points: 2
#     Edge 35, Type (0, 0), BuildingBlock: XIVTED_clean_linker_0, # of connection points: 2
#     Edge 36, Type (0, 0), BuildingBlock: XIVTED_clean_linker_0, # of connection points: 2
#     Edge 37, Type (0, 0), BuildingBlock: XIVTED_clean_linker_0, # of connection points: 2
#     Edge 38, Type (0, 0), BuildingBlock: XIVTED_clean_linker_0, # of connection points: 2
#     Edge 39, Type (0, 0), BuildingBlock: XIVTED_clean_linker_0, # of connection points: 2
#     Edge 40, Type (0, 0), BuildingBlock: XIVTED_clean_linker_0, # of connection points: 2
#     Edge 41, Type (0, 0), BuildingBlock: XIVTED_clean_linker_0, # of connection points: 2
#     Edge 42, Type (0, 0), BuildingBlock: XIVTED_clean_linker_0, # of connection points: 2
#     Edge 43, Type (0, 0), BuildingBlock: XIVTED_clean_linker_0, # of connection points: 2
#     Edge 44, Type (0, 0), BuildingBlock: XIVTED_clean_linker_0, # of connection points: 2
#     Edge 45, Type (0, 0), BuildingBlock: XIVTED_clean_linker_0, # of connection points: 2
#     Edge 46, Type (0, 0), BuildingBlock: XIVTED_clean_linker_0, # of connection points: 2
#     Edge 47, Type (0, 0), BuildingBlock: XIVTED_clean_linker_0, # of connection points: 2
# Relax obj value: 0.215
# Max RMSD: 0.209
# Mean RMSD: 0.209
data_MOF--net-upc--node1-ICAMEG_clean_sbu_1--edge1-XIVTED_clean_linker_0
_symmetry_space_group_name_H-M    P1
_symmetry_Int_Tables_number       1
_symmetry_cell_setting            triclinic
loop_
_symmetry_equiv_pos_as_xyz
'x, y, z'
_cell_length_a     35.503632
_cell_length_b     35.504013
_cell_length_c     47.361141
_cell_angle_alpha  89.995123
_cell_angle_beta   89.969473
_cell_angle_gamma 90.002803
loop_
_atom_site_label
_atom_site_type_symbol
_atom_site_fract_x
_atom_site_fract_y
_atom_site_fract_z
_atom_type_partial_charge
Co0 Co 0.13353 0.59647 0.14479 0.0
Co1 Co 0.06532 0.64926 0.1109 0.0
O2 O 0.0863 0.60216 0.12452 0.0
C3 C 0.07456 0.57044 0.1827 0.0
O4 O 0.05798 0.6019 0.17531 0.0
C5 C 0.07059 0.59737 0.06213 0.0
O6 O 0.10586 0.59181 0.06931 0.0
O7 O 0.11505 0.6649 0.09493 0.0
O8 O 0.15955 0.63126 0.11778 0.0
H9 H 0.06132 0.78921 0.09536 0.0
H10 H 0.09108 0.52875 0.1265 0.0
O11 O 0.10695 0.56251 0.17262 0.0
H12 H 0.21423 0.52029 0.07871 0.0
H13 H 0.2303 0.52234 0.1989 0.0
H14 H 0.19573 0.6475 0.16191 0.0
H15 H 0.20021 0.57312 0.11091 0.0
H16 H 0.1714 0.53116 0.17203 0.0
O17 O 0.05128 0.62252 0.07485 0.0
H18 H 0.08751 0.72971 0.11373 0.0
H19 H 0.99727 0.66842 0.07699 0.0
H20 H 0.255 0.63991 0.18847 0.0
H21 H 0.10393 0.47539 0.09455 0.0
H22 H 0.27257 0.57698 0.20722 0.0
H23 H 0.16585 0.47099 0.07034 0.0
O24 O 0.12248 0.64053 0.16934 0.0
H25 H 0.95921 0.55944 0.13149 0.0
H26 H 0.00777 0.68805 0.14626 0.0
H27 H 0.94748 0.66944 0.16807 0.0
H28 H 0.92281 0.60471 0.16071 0.0
H29 H 0.01952 0.57906 0.11034 0.0
H30 H 0.97021 0.72722 0.05804 0.0
H31 H 0.00225 0.78819 0.06727 0.0
O32 O 0.07839 0.67553 0.14733 0.0
C33 C 0.14945 0.65691 0.10036 0.0
C34 C 0.04706 0.76283 0.09123 0.0
C35 C 0.99597 0.72803 0.07025 0.0
N36 N 0.0439 0.69567 0.09648 0.0
C37 C 0.06172 0.72907 0.10163 0.0
C38 C 0.01148 0.69482 0.08095 0.0
C39 C 0.01394 0.76223 0.07545 0.0
C40 C 0.11824 0.52679 0.11628 0.0
N41 N 0.14497 0.55384 0.1207 0.0
C42 C 0.1253 0.4966 0.09813 0.0
C43 C 0.16002 0.4942 0.08451 0.0
C44 C 0.18717 0.52186 0.08918 0.0
C45 C 0.17908 0.55171 0.10741 0.0
C46 C 0.22297 0.54989 0.1908 0.0
C47 C 0.20333 0.61997 0.16982 0.0
C48 C 0.18965 0.55506 0.17562 0.0
N49 N 0.1803 0.58974 0.16527 0.0
C50 C 0.23686 0.61587 0.18492 0.0
C51 C 0.24669 0.58056 0.19545 0.0
C52 C 0.10102 0.66928 0.16784 0.0
C53 C 0.9696 0.58776 0.13477 0.0
C54 C 0.99725 0.65982 0.143 0.0
C55 C 0.96306 0.64947 0.15535 0.0
C56 C 0.94922 0.61316 0.1512 0.0
N57 N 0.01709 0.63476 0.12691 0.0
C58 C 0.00367 0.59911 0.12272 0.0
Co59 Co 0.90178 0.13489 0.14291 0.0
Co60 Co 0.849 0.06604 0.10979 0.0
O61 O 0.89601 0.08692 0.12368 0.0
C62 C 0.92539 0.07745 0.18297 0.0
O63 O 0.89426 0.06069 0.17509 0.0
C64 C 0.902 0.06938 0.06162 0.0
O65 O 0.90761 0.1048 0.06835 0.0
O66 O 0.83431 0.11538 0.09266 0.0
O67 O 0.86836 0.16028 0.11467 0.0
H68 H 0.70946 0.06327 0.09227 0.0
H69 H 0.9694 0.09067 0.12696 0.0
O70 O 0.93431 0.10909 0.17203 0.0
H71 H 0.98143 0.21146 0.07635 0.0
H72 H 0.97562 0.23304 0.19585 0.0
H73 H 0.85111 0.19843 0.15771 0.0
H74 H 0.92733 0.1997 0.10788 0.0
H75 H 0.96677 0.17306 0.17034 0.0
O76 O 0.87649 0.05054 0.07434 0.0
H77 H 0.76882 0.08938 0.11096 0.0
H78 H 0.82985 0.99704 0.07696 0.0
H79 H 0.85873 0.25877 0.18288 0.0
H80 H 0.02401 0.10127 0.09572 0.0
H81 H 0.92135 0.27639 0.20218 0.0
H82 H 0.0302 0.16199 0.07009 0.0
O83 O 0.85679 0.12553 0.16692 0.0
H84 H 0.93711 0.95975 0.13363 0.0
H85 H 0.80866 0.01011 0.14562 0.0
H86 H 0.82607 0.95045 0.16889 0.0
H87 H 0.89071 0.92489 0.16294 0.0
H88 H 0.91866 0.01947 0.11102 0.0
H89 H 0.77119 0.97004 0.05772 0.0
H90 H 0.71043 0.00318 0.06542 0.0
O91 O 0.82203 0.08059 0.14567 0.0
C92 C 0.84289 0.14986 0.09723 0.0
C93 C 0.73574 0.04853 0.08883 0.0
C94 C 0.7704 0.99624 0.06939 0.0
N95 N 0.80271 0.04469 0.09514 0.0
C96 C 0.76942 0.06313 0.09942 0.0
C97 C 0.80354 0.01172 0.08026 0.0
C98 C 0.73631 0.01483 0.07374 0.0
C99 C 0.97214 0.11732 0.11612 0.0
N100 N 0.94538 0.14464 0.11937 0.0
C101 C 0.00303 0.1231 0.09837 0.0
C102 C 0.00645 0.15715 0.08396 0.0
C103 C 0.97908 0.18491 0.08744 0.0
C104 C 0.94851 0.17809 0.1053 0.0
C105 C 0.94821 0.22571 0.18749 0.0
C106 C 0.8785 0.20603 0.16587 0.0
C107 C 0.94303 0.19178 0.17308 0.0
N108 N 0.90854 0.18243 0.16239 0.0
C109 C 0.88262 0.24018 0.18018 0.0
C110 C 0.91775 0.25003 0.19103 0.0
C111 C 0.82797 0.10412 0.16568 0.0
C112 C 0.90882 0.97054 0.13632 0.0
C113 C 0.83686 0.9992 0.14298 0.0
C114 C 0.84653 0.96536 0.15615 0.0
C115 C 0.88279 0.95103 0.15279 0.0
N116 N 0.86254 0.01821 0.12686 0.0
C117 C 0.89814 0.00427 0.12344 0.0
Co118 Co 0.37118 0.90614 0.14374 0.0
Co119 Co 0.43723 0.85167 0.10908 0.0
O120 O 0.41724 0.8996 0.12212 0.0
C121 C 0.4315 0.9371 0.17805 0.0
O122 O 0.44864 0.90549 0.17178 0.0
C123 C 0.4321 0.90225 0.05962 0.0
O124 O 0.39674 0.90772 0.06663 0.0
O125 O 0.3872 0.83673 0.09356 0.0
O126 O 0.34428 0.86833 0.1195 0.0
H127 H 0.43861 0.71132 0.09544 0.0
H128 H 0.41038 0.97302 0.12043 0.0
O129 O 0.39835 0.94322 0.16873 0.0
H130 H 0.28406 0.97407 0.0772 0.0
H131 H 0.27555 0.9825 0.19733 0.0
H132 H 0.31214 0.85511 0.16617 0.0
H133 H 0.30167 0.92464 0.11136 0.0
H134 H 0.3329 0.97285 0.16875 0.0
O135 O 0.45142 0.87739 0.07262 0.0
H136 H 0.41354 0.77172 0.11303 0.0
H137 H 0.50466 0.83048 0.07511 0.0
H138 H 0.25441 0.86349 0.19451 0.0
H139 H 0.39392 0.02307 0.08648 0.0
H140 H 0.23583 0.92756 0.21033 0.0
H141 H 0.33039 0.02372 0.06455 0.0
O142 O 0.38549 0.86514 0.17009 0.0
H143 H 0.54641 0.939 0.12645 0.0
H144 H 0.49378 0.81295 0.14539 0.0
H145 H 0.55509 0.83053 0.16598 0.0
H146 H 0.58185 0.89392 0.15647 0.0
H147 H 0.48499 0.92052 0.10663 0.0
H148 H 0.53059 0.77075 0.05693 0.0
H149 H 0.49754 0.71059 0.06715 0.0
O150 O 0.42398 0.82633 0.14594 0.0
C151 C 0.35326 0.84355 0.10104 0.0
C152 C 0.4533 0.73733 0.09089 0.0
C153 C 0.50489 0.7707 0.06923 0.0
N154 N 0.45766 0.80455 0.09517 0.0
C155 C 0.43928 0.77161 0.10084 0.0
C156 C 0.49001 0.80444 0.0795 0.0
C157 C 0.48635 0.73695 0.07499 0.0
C158 C 0.38254 0.97338 0.11122 0.0
N159 N 0.35693 0.9461 0.11798 0.0
C160 C 0.37343 0.00169 0.09192 0.0
C161 C 0.33781 0.00199 0.07957 0.0
C162 C 0.31181 0.97412 0.08664 0.0
C163 C 0.32194 0.94618 0.10597 0.0
C164 C 0.2833 0.95446 0.19051 0.0
C165 C 0.30405 0.88311 0.17277 0.0
C166 C 0.31576 0.94883 0.17437 0.0
N167 N 0.32563 0.91351 0.16561 0.0
C168 C 0.27141 0.88766 0.1889 0.0
C169 C 0.26102 0.92362 0.19779 0.0
C170 C 0.40515 0.83521 0.16803 0.0
C171 C 0.53513 0.91123 0.13063 0.0
C172 C 0.50517 0.84063 0.14121 0.0
C173 C 0.53995 0.8504 0.15288 0.0
C174 C 0.55497 0.88595 0.14752 0.0
N175 N 0.48591 0.86555 0.12461 0.0
C176 C 0.50043 0.90051 0.11933 0.0
Co177 Co 0.59951 0.36603 0.1429 0.0
Co178 Co 0.65095 0.43642 0.11028 0.0
O179 O 0.60427 0.41446 0.12406 0.0
C180 C 0.57508 0.42189 0.18398 0.0
O181 O 0.60526 0.44009 0.17576 0.0
C182 C 0.59815 0.43276 0.06196 0.0
O183 O 0.59249 0.39734 0.06868 0.0
O184 O 0.66682 0.38755 0.09296 0.0
O185 O 0.63319 0.34179 0.1143 0.0
H186 H 0.79054 0.4423 0.09331 0.0
H187 H 0.53089 0.40913 0.12778 0.0
O188 O 0.56669 0.39049 0.17248 0.0
H189 H 0.52091 0.28911 0.07592 0.0
H190 H 0.52792 0.26527 0.19489 0.0
H191 H 0.65159 0.30337 0.15699 0.0
H192 H 0.57504 0.30139 0.10727 0.0
H193 H 0.53541 0.32594 0.17007 0.0
O194 O 0.62349 0.45164 0.07481 0.0
H195 H 0.7316 0.41482 0.11169 0.0
H196 H 0.66889 0.50604 0.07774 0.0
H197 H 0.64532 0.24236 0.18146 0.0
H198 H 0.47622 0.39799 0.09675 0.0
H199 H 0.58313 0.22298 0.20064 0.0
H200 H 0.47105 0.33765 0.07049 0.0
O201 O 0.64441 0.37594 0.16689 0.0
H202 H 0.56056 0.54084 0.13405 0.0
H203 H 0.68988 0.49301 0.14639 0.0
H204 H 0.67116 0.55227 0.16963 0.0
H205 H 0.60608 0.57659 0.16348 0.0
H206 H 0.58031 0.48149 0.11148 0.0
H207 H 0.72711 0.5344 0.05882 0.0
H208 H 0.7885 0.50252 0.06664 0.0
O209 O 0.67794 0.42221 0.14615 0.0
C210 C 0.65867 0.35288 0.09711 0.0
C211 C 0.76397 0.4565 0.08981 0.0
C212 C 0.72836 0.50815 0.07041 0.0
N213 N 0.69689 0.45885 0.09586 0.0
C214 C 0.73053 0.44111 0.10021 0.0
C215 C 0.69548 0.4919 0.08109 0.0
C216 C 0.7628 0.49026 0.07482 0.0
C217 C 0.52861 0.38265 0.11665 0.0
N218 N 0.55596 0.35584 0.11945 0.0
C219 C 0.49768 0.37656 0.09903 0.0
C220 C 0.49484 0.34272 0.08426 0.0
C221 C 0.52282 0.31548 0.08728 0.0
C222 C 0.55341 0.3226 0.10503 0.0
C223 C 0.55515 0.27337 0.18658 0.0
C224 C 0.62438 0.29501 0.16509 0.0
C225 C 0.55956 0.3077 0.17256 0.0
N226 N 0.59383 0.31802 0.16191 0.0
C227 C 0.62103 0.26049 0.17901 0.0
C228 C 0.58613 0.24965 0.18979 0.0
C229 C 0.67259 0.39822 0.16594 0.0
C230 C 0.58903 0.53058 0.13683 0.0
C231 C 0.66149 0.50334 0.14369 0.0
C232 C 0.65107 0.53696 0.15684 0.0
C233 C 0.61456 0.5506 0.15337 0.0
N234 N 0.6363 0.48384 0.1275 0.0
C235 C 0.60045 0.49707 0.12398 0.0
Co236 Co 0.13079 0.90517 0.36341 0.0
Co237 Co 0.06432 0.85153 0.39851 0.0
O238 O 0.08419 0.89886 0.38436 0.0
C239 C 0.07055 0.9304 0.32637 0.0
O240 O 0.05447 0.89873 0.3339 0.0
C241 C 0.07015 0.90393 0.44689 0.0
O242 O 0.10521 0.90968 0.43922 0.0
O243 O 0.11471 0.83668 0.41378 0.0
O244 O 0.15795 0.87099 0.39012 0.0
H245 H 0.06251 0.71161 0.41447 0.0
H246 H 0.08778 0.97229 0.38223 0.0
O247 O 0.10312 0.93862 0.33594 0.0
H248 H 0.21202 0.98291 0.42805 0.0
H249 H 0.22526 0.98038 0.30777 0.0
H250 H 0.19328 0.85494 0.34556 0.0
H251 H 0.198 0.92974 0.39618 0.0
H252 H 0.1671 0.97087 0.33544 0.0
O253 O 0.05081 0.8784 0.43464 0.0
H254 H 0.08742 0.77134 0.3955 0.0
H255 H 0.99753 0.83168 0.43364 0.0
H256 H 0.25184 0.86322 0.31821 0.0
H257 H 0.10062 0.02597 0.41385 0.0
H258 H 0.26812 0.9263 0.29905 0.0
H259 H 0.16309 0.03146 0.43707 0.0
O260 O 0.11973 0.86085 0.33914 0.0
H261 H 0.95634 0.93959 0.37919 0.0
H262 H 0.00645 0.81162 0.3642 0.0
H263 H 0.94533 0.82914 0.34326 0.0
H264 H 0.91987 0.89354 0.35073 0.0
H265 H 0.01748 0.92106 0.39948 0.0
H266 H 0.97177 0.77265 0.45319 0.0
H267 H 0.00428 0.71204 0.44357 0.0
O268 O 0.07686 0.82522 0.36198 0.0
C269 C 0.1488 0.8453 0.4078 0.0
C270 C 0.04807 0.73783 0.41879 0.0
C271 C 0.99717 0.7721 0.44056 0.0
N272 N 0.04394 0.80493 0.41343 0.0
C273 C 0.06201 0.77172 0.40806 0.0
C274 C 0.01197 0.80545 0.42951 0.0
C275 C 0.01541 0.7381 0.43513 0.0
C276 C 0.11518 0.97472 0.392 0.0
N277 N 0.14221 0.94808 0.38722 0.0
C278 C 0.12223 0.00509 0.40998 0.0
C279 C 0.15726 0.00811 0.42305 0.0
C280 C 0.18472 0.98087 0.41801 0.0
C281 C 0.17662 0.95082 0.39997 0.0
C282 C 0.2185 0.95277 0.31604 0.0
C283 C 0.20031 0.88253 0.33747 0.0
C284 C 0.18559 0.94721 0.33166 0.0
N285 N 0.17696 0.91245 0.34224 0.0
C286 C 0.23345 0.88702 0.32193 0.0
C287 C 0.24255 0.92242 0.31117 0.0
C288 C 0.09878 0.83175 0.34107 0.0
C289 C 0.96707 0.91141 0.37587 0.0
C290 C 0.9956 0.83971 0.36751 0.0
C291 C 0.96093 0.84945 0.35564 0.0
C292 C 0.94665 0.88557 0.35987 0.0
N293 N 0.01547 0.86519 0.38318 0.0
C294 C 0.00162 0.90067 0.38743 0.0
Co295 Co 0.59869 0.13476 0.36513 0.0
Co296 Co 0.65046 0.06499 0.39814 0.0
O297 O 0.60371 0.08647 0.38412 0.0
C298 C 0.5754 0.07854 0.324 0.0
O299 O 0.60554 0.06059 0.33257 0.0
C300 C 0.59714 0.06844 0.44624 0.0
O301 O 0.59115 0.10376 0.43939 0.0
O302 O 0.66586 0.11412 0.41531 0.0
O303 O 0.63177 0.15944 0.39386 0.0
H304 H 0.79 0.06021 0.41548 0.0
H305 H 0.53032 0.09104 0.37993 0.0
O306 O 0.5665 0.10988 0.33539 0.0
H307 H 0.51855 0.21112 0.43151 0.0
H308 H 0.52674 0.23465 0.31254 0.0
H309 H 0.65032 0.19788 0.35124 0.0
H310 H 0.57316 0.19928 0.40049 0.0
H311 H 0.53453 0.17412 0.33751 0.0
O312 O 0.62285 0.04979 0.43359 0.0
H313 H 0.73099 0.08713 0.39682 0.0
H314 H 0.66869 0.99579 0.43107 0.0
H315 H 0.64374 0.25877 0.32664 0.0
H316 H 0.47518 0.10172 0.41063 0.0
H317 H 0.5816 0.27747 0.30706 0.0
H318 H 0.46912 0.16209 0.43674 0.0
O319 O 0.64397 0.12522 0.34142 0.0
H320 H 0.56108 0.95967 0.37451 0.0
H321 H 0.69011 0.00847 0.3624 0.0
H322 H 0.67203 0.94888 0.33934 0.0
H323 H 0.6071 0.92408 0.34537 0.0
H324 H 0.58019 0.01934 0.39689 0.0
H325 H 0.72699 0.968 0.45028 0.0
H326 H 0.78821 1.00023 0.44244 0.0
O327 O 0.6776 0.07916 0.36229 0.0
C328 C 0.65733 0.14868 0.41109 0.0
C329 C 0.76351 0.04587 0.41899 0.0
C330 C 0.72813 0.99416 0.43857 0.0
N331 N 0.69647 0.04302 0.4128 0.0
C332 C 0.73002 0.06095 0.40843 0.0
C333 C 0.6952 0.01009 0.42773 0.0
C334 C 0.76248 0.01224 0.43415 0.0
C335 C 0.52765 0.11753 0.39099 0.0
N336 N 0.55477 0.1446 0.38831 0.0
C337 C 0.49646 0.12336 0.40843 0.0
C338 C 0.49311 0.15721 0.42312 0.0
C339 C 0.52085 0.18473 0.42021 0.0
C340 C 0.55171 0.17786 0.40264 0.0
C341 C 0.55394 0.22685 0.32102 0.0
C342 C 0.62313 0.20596 0.34296 0.0
C343 C 0.55853 0.1926 0.33513 0.0
N344 N 0.59277 0.18265 0.34599 0.0
C345 C 0.6196 0.24041 0.32897 0.0
C346 C 0.58473 0.25087 0.31797 0.0
C347 C 0.67226 0.1031 0.34247 0.0
C348 C 0.58948 0.97014 0.37178 0.0
C349 C 0.66178 0.99792 0.36505 0.0
C350 C 0.65173 0.96412 0.352 0.0
C351 C 0.6153 0.95021 0.3554 0.0
N352 N 0.63631 0.01733 0.38108 0.0
C353 C 0.60054 0.00384 0.38452 0.0
Co354 Co 0.37161 0.59679 0.36297 0.0
Co355 Co 0.43672 0.65162 0.39819 0.0
O356 O 0.41744 0.60355 0.38484 0.0
C357 C 0.43247 0.56599 0.32906 0.0
O358 O 0.44933 0.59778 0.33523 0.0
C359 C 0.43259 0.6004 0.44736 0.0
O360 O 0.39737 0.5942 0.44034 0.0
O361 O 0.38653 0.6654 0.41393 0.0
O362 O 0.34423 0.6346 0.38698 0.0
H363 H 0.43511 0.79166 0.4134 0.0
H364 H 0.41063 0.52997 0.3865 0.0
O365 O 0.39924 0.55974 0.33822 0.0
H366 H 0.2838 0.52869 0.42897 0.0
H367 H 0.2769 0.51999 0.30888 0.0
H368 H 0.31271 0.64758 0.34007 0.0
H369 H 0.30179 0.57825 0.39501 0.0
H370 H 0.33386 0.5299 0.33781 0.0
O371 O 0.4514 0.62574 0.43444 0.0
H372 H 0.41121 0.73105 0.39531 0.0
H373 H 0.50405 0.67363 0.43193 0.0
H374 H 0.25538 0.63895 0.31137 0.0
H375 H 0.39378 0.47977 0.42023 0.0
H376 H 0.23719 0.57477 0.29553 0.0
H377 H 0.32998 0.479 0.44178 0.0
O378 O 0.38613 0.63775 0.33669 0.0
H379 H 0.54749 0.56652 0.38026 0.0
H380 H 0.49252 0.69173 0.362 0.0
H381 H 0.55415 0.67548 0.34128 0.0
H382 H 0.58209 0.61253 0.35046 0.0
H383 H 0.4857 0.58363 0.40017 0.0
H384 H 0.52884 0.73358 0.4506 0.0
H385 H 0.49434 0.79316 0.44128 0.0
O386 O 0.42304 0.67729 0.36152 0.0
C387 C 0.35277 0.65886 0.40594 0.0
C388 C 0.45045 0.7659 0.41754 0.0
C389 C 0.50302 0.73329 0.43846 0.0
N390 N 0.45632 0.6989 0.41243 0.0
C391 C 0.43711 0.73152 0.40728 0.0
C392 C 0.4888 0.69942 0.4279 0.0
C393 C 0.48366 0.76672 0.43321 0.0
C394 C 0.38268 0.52956 0.39555 0.0
N395 N 0.35714 0.55685 0.38868 0.0
C396 C 0.37335 0.50117 0.41472 0.0
C397 C 0.33758 0.5008 0.42685 0.0
C398 C 0.31166 0.52869 0.41969 0.0
C399 C 0.32202 0.55671 0.40049 0.0
C400 C 0.28449 0.54807 0.3157 0.0
C401 C 0.30479 0.61954 0.33346 0.0
C402 C 0.31671 0.55385 0.33205 0.0
N403 N 0.32636 0.58923 0.34081 0.0
C404 C 0.27238 0.61484 0.31713 0.0
C405 C 0.26221 0.57883 0.30823 0.0
C406 C 0.40503 0.6681 0.33913 0.0
C407 C 0.53569 0.59411 0.37623 0.0
C408 C 0.50441 0.66421 0.36601 0.0
C409 C 0.53937 0.65521 0.35428 0.0
C410 C 0.55505 0.61991 0.35946 0.0
N411 N 0.4856 0.63878 0.38248 0.0
C412 C 0.50077 0.60405 0.38758 0.0
Co413 Co 0.903 0.3662 0.36484 0.0
Co414 Co 0.84951 0.43406 0.39849 0.0
O415 O 0.89674 0.41377 0.38452 0.0
C416 C 0.92658 0.42469 0.32563 0.0
O417 O 0.89503 0.44078 0.33337 0.0
C418 C 0.90229 0.43033 0.44671 0.0
O419 O 0.90797 0.39499 0.43977 0.0
O420 O 0.83515 0.38436 0.41519 0.0
O421 O 0.86954 0.3401 0.39273 0.0
H422 H 0.70988 0.43561 0.4158 0.0
H423 H 0.97014 0.41065 0.38154 0.0
O424 O 0.93562 0.39282 0.33613 0.0
H425 H 0.98263 0.28903 0.43095 0.0
H426 H 0.97794 0.26954 0.31119 0.0
H427 H 0.85293 0.30251 0.34931 0.0
H428 H 0.92875 0.30095 0.39928 0.0
H429 H 0.96845 0.32903 0.33721 0.0
O430 O 0.87678 0.44926 0.43408 0.0
H431 H 0.7695 0.41018 0.397 0.0
H432 H 0.82975 0.50244 0.43185 0.0
H433 H 0.86119 0.24264 0.32363 0.0
H434 H 0.02452 0.39991 0.41293 0.0
H435 H 0.92407 0.22585 0.30434 0.0
H436 H 0.03094 0.33877 0.43796 0.0
O437 O 0.8581 0.37565 0.34079 0.0
H438 H 0.93696 0.54127 0.37548 0.0
H439 H 0.80889 0.49019 0.36304 0.0
H440 H 0.82598 0.55023 0.34017 0.0
H441 H 0.89044 0.57614 0.34634 0.0
H442 H 0.91884 0.48118 0.39771 0.0
H443 H 0.77083 0.52876 0.4512 0.0
H444 H 0.71032 0.49533 0.44313 0.0
O445 O 0.82278 0.4198 0.36247 0.0
C446 C 0.84397 0.35003 0.41027 0.0
C447 C 0.73605 0.45048 0.41941 0.0
C448 C 0.77027 0.50273 0.43932 0.0
N449 N 0.80301 0.45487 0.41325 0.0
C450 C 0.76987 0.43626 0.40876 0.0
C451 C 0.80355 0.48763 0.42839 0.0
C452 C 0.73633 0.48397 0.43477 0.0
C453 C 0.97299 0.38382 0.39211 0.0
N454 N 0.94648 0.35636 0.38845 0.0
C455 C 0.00374 0.37796 0.40995 0.0
C456 C 0.00729 0.34367 0.42403 0.0
C457 C 0.98018 0.31576 0.42012 0.0
C458 C 0.94973 0.32267 0.40218 0.0
C459 C 0.95043 0.27652 0.31954 0.0
C460 C 0.88043 0.29527 0.34116 0.0
C461 C 0.94488 0.31017 0.33424 0.0
N462 N 0.91025 0.31907 0.34492 0.0
C463 C 0.88491 0.26139 0.32656 0.0
C464 C 0.92019 0.252 0.31571 0.0
C465 C 0.82904 0.3967 0.34223 0.0
C466 C 0.90876 0.53032 0.3727 0.0
C467 C 0.837 0.50127 0.36579 0.0
C468 C 0.8465 0.53531 0.35284 0.0
C469 C 0.88266 0.54984 0.35632 0.0
N470 N 0.86275 0.48224 0.38181 0.0
C471 C 0.89825 0.49638 0.38537 0.0
Co472 Co 0.86793 0.40485 0.86501 0.0
Co473 Co 0.93655 0.35139 0.8978 0.0
O474 O 0.91559 0.3987 0.8846 0.0
C475 C 0.92632 0.43045 0.8265 0.0
O476 O 0.94263 0.39875 0.83361 0.0
C477 C 0.93248 0.40295 0.94677 0.0
O478 O 0.89704 0.40845 0.94002 0.0
O479 O 0.8871 0.33606 0.91439 0.0
O480 O 0.84228 0.3702 0.89235 0.0
H481 H 0.93971 0.21139 0.91309 0.0
H482 H 0.91141 0.47213 0.88286 0.0
O483 O 0.89416 0.43868 0.83688 0.0
H484 H 0.78952 0.48149 0.93234 0.0
H485 H 0.77036 0.47999 0.81252 0.0
H486 H 0.80493 0.35439 0.84865 0.0
H487 H 0.80228 0.42867 0.89984 0.0
H488 H 0.82993 0.47056 0.83844 0.0
O489 O 0.95157 0.3779 0.93375 0.0
H490 H 0.91354 0.27118 0.89523 0.0
H491 H 0.0053 0.33156 0.93068 0.0
H492 H 0.74499 0.36257 0.82306 0.0
H493 H 0.89982 0.52546 0.91509 0.0
H494 H 0.7274 0.42574 0.80476 0.0
H495 H 0.83853 0.53031 0.94015 0.0
O496 O 0.87801 0.36081 0.84022 0.0
H497 H 0.04283 0.44057 0.87615 0.0
H498 H 0.99304 0.31239 0.86161 0.0
H499 H 0.05297 0.33069 0.83911 0.0
H500 H 0.07826 0.3952 0.84636 0.0
H501 H 0.98285 0.42126 0.89799 0.0
H502 H 0.03236 0.27247 0.94911 0.0
H503 H 0.99955 0.21181 0.94026 0.0
O504 O 0.92248 0.32539 0.86141 0.0
C505 C 0.85263 0.34442 0.90958 0.0
C506 C 0.95432 0.23762 0.91703 0.0
C507 C 0.00628 0.27192 0.93729 0.0
N508 N 0.95795 0.30477 0.91182 0.0
C509 C 0.93968 0.27155 0.90691 0.0
C510 C 0.99077 0.3053 0.92688 0.0
C511 C 0.98787 0.23789 0.9323 0.0
C512 C 0.88452 0.47429 0.89345 0.0
N513 N 0.85745 0.44749 0.88934 0.0
C514 C 0.87818 0.50446 0.91176 0.0
C515 C 0.84381 0.50712 0.92586 0.0
C516 C 0.81631 0.47972 0.9215 0.0
C517 C 0.82369 0.44988 0.90309 0.0
C518 C 0.77768 0.45234 0.82043 0.0
C519 C 0.79733 0.38201 0.84093 0.0
C520 C 0.81139 0.44683 0.83507 0.0
N521 N 0.82072 0.41203 0.8452 0.0
C522 C 0.76342 0.38645 0.82638 0.0
C523 C 0.75358 0.4219 0.81609 0.0
C524 C 0.89936 0.33194 0.84124 0.0
C525 C 0.03217 0.41234 0.87292 0.0
C526 C 0.00383 0.34052 0.86482 0.0
C527 C 0.03782 0.3507 0.85207 0.0
C528 C 0.05201 0.38689 0.85617 0.0
N529 N 0.98452 0.36563 0.88122 0.0
C530 C 0.99829 0.40117 0.88535 0.0
Co531 Co 0.09567 0.87062 0.86289 0.0
Co532 Co 0.15009 0.93456 0.89969 0.0
O533 O 0.10239 0.91615 0.88505 0.0
C534 C 0.06868 0.93216 0.82787 0.0
O535 O 0.10037 0.9483 0.83528 0.0
C536 C 0.09705 0.9297 0.94773 0.0
O537 O 0.09094 0.89469 0.94008 0.0
O538 O 0.16299 0.88382 0.91507 0.0
O539 O 0.13112 0.84229 0.8881 0.0
H540 H 0.28967 0.93214 0.91718 0.0
H541 H 0.02881 0.91169 0.88434 0.0
O542 O 0.06096 0.89922 0.83695 0.0
H543 H 0.02122 0.78497 0.92659 0.0
H544 H 0.01949 0.77805 0.80628 0.0
H545 H 0.14605 0.81021 0.84174 0.0
H546 H 0.07307 0.80135 0.89411 0.0
H547 H 0.0293 0.83479 0.83548 0.0
O548 O 0.12291 0.9487 0.93556 0.0
H549 H 0.2296 0.90896 0.89765 0.0
H550 H 0.17122 1.00071 0.93501 0.0
H551 H 0.13748 0.75304 0.81282 0.0
H552 H 0.9764 0.8965 0.91661 0.0
H553 H 0.07383 0.73669 0.79484 0.0
H554 H 0.97244 0.83277 0.93804 0.0
O555 O 0.13866 0.88388 0.83796 0.0
H556 H 0.06628 0.04589 0.88044 0.0
H557 H 0.19214 0.99075 0.86518 0.0
H558 H 0.17705 0.05263 0.8444 0.0
H559 H 0.11374 0.08061 0.85202 0.0
H560 H 0.08237 0.98396 0.90058 0.0
H561 H 0.23062 0.02475 0.95514 0.0
H562 H 0.29042 0.99043 0.94619 0.0
O563 O 0.17691 0.92131 0.86347 0.0
C564 C 0.15534 0.85021 0.90721 0.0
C565 C 0.26381 0.94737 0.9212 0.0
C566 C 0.23066 0.99931 0.94255 0.0
N567 N 0.19698 0.95349 0.91515 0.0
C568 C 0.22973 0.93442 0.91015 0.0
C569 C 0.1971 0.98549 0.93118 0.0
C570 C 0.26421 0.98006 0.9375 0.0
C571 C 0.02703 0.88377 0.89334 0.0
N572 N 0.05382 0.85736 0.88724 0.0
C573 C 0.99738 0.87538 0.91168 0.0
C574 C 0.99523 0.83964 0.92375 0.0
C575 C 0.0226 0.81282 0.91735 0.0
C576 C 0.05191 0.82226 0.89898 0.0
C577 C 0.04734 0.78483 0.81404 0.0
C578 C 0.11822 0.80309 0.83418 0.0
C579 C 0.05307 0.81694 0.83053 0.0
N580 N 0.08814 0.82557 0.84048 0.0
C581 C 0.11356 0.77077 0.81774 0.0
C582 C 0.07785 0.76163 0.80764 0.0
C583 C 0.16891 0.90281 0.84104 0.0
C584 C 0.09402 0.03406 0.87708 0.0
C585 C 0.16452 0.00272 0.86858 0.0
C586 C 0.15615 0.0378 0.85679 0.0
C587 C 0.12064 0.0535 0.86109 0.0
N588 N 0.13828 0.98384 0.88428 0.0
C589 C 0.10338 0.99907 0.88857 0.0
Co590 Co 0.63572 0.09992 0.86432 0.0
Co591 Co 0.56614 0.1515 0.89774 0.0
O592 O 0.58775 0.10484 0.88375 0.0
C593 C 0.57857 0.07552 0.82436 0.0
O594 O 0.56122 0.10618 0.83259 0.0
C595 C 0.57034 0.09843 0.94586 0.0
O596 O 0.6058 0.09318 0.93905 0.0
O597 O 0.61532 0.16703 0.91472 0.0
O598 O 0.66064 0.1337 0.89254 0.0
H599 H 0.56097 0.29101 0.91515 0.0
H600 H 0.59273 0.0315 0.88027 0.0
O601 O 0.61038 0.06703 0.83518 0.0
H602 H 0.71387 0.02151 0.93062 0.0
H603 H 0.73496 0.02784 0.81111 0.0
H604 H 0.6983 0.15171 0.8494 0.0
H605 H 0.70108 0.07543 0.89916 0.0
H606 H 0.6749 0.03563 0.83673 0.0
O607 O 0.55122 0.12378 0.93321 0.0
H608 H 0.58802 0.23209 0.89641 0.0
H609 H 0.49701 0.16948 0.93084 0.0
H610 H 0.75871 0.14514 0.82412 0.0
H611 H 0.60436 0.97706 0.91145 0.0
H612 H 0.77736 0.08285 0.80474 0.0
H613 H 0.66526 0.97189 0.93694 0.0
O614 O 0.62547 0.14479 0.84039 0.0
H615 H 0.46128 0.06157 0.87413 0.0
H616 H 0.50932 0.19089 0.86214 0.0
H617 H 0.4499 0.17246 0.83901 0.0
H618 H 0.4255 0.10736 0.84496 0.0
H619 H 0.52077 0.08104 0.8966 0.0
H620 H 0.46908 0.22768 0.95013 0.0
H621 H 0.50107 0.28902 0.94224 0.0
O622 O 0.58007 0.17871 0.86185 0.0
C623 C 0.6499 0.15902 0.91001 0.0
C624 C 0.54673 0.26447 0.91868 0.0
C625 C 0.49519 0.22891 0.93836 0.0
N626 N 0.54407 0.19743 0.91246 0.0
C627 C 0.56187 0.23103 0.90807 0.0
C628 C 0.5112 0.19604 0.92747 0.0
C629 C 0.51314 0.26332 0.93391 0.0
C630 C 0.61946 0.02921 0.89105 0.0
N631 N 0.6463 0.05644 0.88777 0.0
C632 C 0.62582 0.99841 0.90877 0.0
C633 C 0.65997 0.99557 0.92311 0.0
C634 C 0.68725 0.02342 0.91958 0.0
C635 C 0.67985 0.05388 0.90176 0.0
C636 C 0.72718 0.05511 0.8195 0.0
C637 C 0.70635 0.12445 0.84121 0.0
C638 C 0.69319 0.05969 0.83397 0.0
N639 N 0.68328 0.09401 0.84471 0.0
C640 C 0.74054 0.12093 0.82684 0.0
C641 C 0.75096 0.08598 0.81594 0.0
C642 C 0.60356 0.17322 0.84174 0.0
C643 C 0.47157 0.09004 0.87144 0.0
C644 C 0.49893 0.16251 0.86478 0.0
C645 C 0.46522 0.15225 0.85168 0.0
C646 C 0.45154 0.11573 0.85504 0.0
N647 N 0.51846 0.13715 0.88081 0.0
C648 C 0.50516 0.10131 0.88424 0.0
Co649 Co 0.40191 0.63118 0.86369 0.0
Co650 Co 0.34936 0.56296 0.89781 0.0
O651 O 0.39639 0.58394 0.88402 0.0
C652 C 0.42824 0.57221 0.82598 0.0
O653 O 0.39661 0.55574 0.83313 0.0
C654 C 0.40169 0.56755 0.94635 0.0
O655 O 0.40753 0.60281 0.93926 0.0
O656 O 0.33412 0.61257 0.9141 0.0
O657 O 0.36691 0.65711 0.89061 0.0
H658 H 0.20964 0.55978 0.91451 0.0
H659 H 0.46987 0.58917 0.88206 0.0
O660 O 0.43607 0.60466 0.83598 0.0
H661 H 0.47761 0.7125 0.92959 0.0
H662 H 0.47576 0.72822 0.80955 0.0
H663 H 0.35065 0.69312 0.84641 0.0
H664 H 0.4248 0.69803 0.89751 0.0
H665 H 0.46711 0.66929 0.83644 0.0
O666 O 0.37633 0.54852 0.93366 0.0
H667 H 0.26909 0.58583 0.89589 0.0
H668 H 0.33018 0.49452 0.93133 0.0
H669 H 0.35806 0.75242 0.81985 0.0
H670 H 0.52324 0.60249 0.91386 0.0
H671 H 0.42097 0.77027 0.80117 0.0
H672 H 0.52728 0.6645 0.93794 0.0
O673 O 0.35799 0.61988 0.83912 0.0
H674 H 0.43863 0.45669 0.87641 0.0
H675 H 0.31004 0.50572 0.8625 0.0
H676 H 0.32824 0.4455 0.84042 0.0
H677 H 0.39295 0.42058 0.84737 0.0
H678 H 0.41942 0.51697 0.8978 0.0
H679 H 0.27143 0.46759 0.95051 0.0
H680 H 0.21059 0.50024 0.94205 0.0
O681 O 0.32275 0.57636 0.86156 0.0
C682 C 0.3417 0.64698 0.9084 0.0
C683 C 0.23595 0.54524 0.91827 0.0
C684 C 0.27064 0.49354 0.93852 0.0
N685 N 0.30301 0.54162 0.91241 0.0
C686 C 0.26969 0.5598 0.90772 0.0
C687 C 0.30383 0.50897 0.92768 0.0
C688 C 0.23651 0.51185 0.93375 0.0
C689 C 0.47167 0.61637 0.89222 0.0
N690 N 0.44442 0.6429 0.8878 0.0
C691 C 0.50186 0.62369 0.9103 0.0
C692 C 0.50407 0.65847 0.92384 0.0
C693 C 0.4762 0.6854 0.91918 0.0
C694 C 0.44635 0.67705 0.90103 0.0
C695 C 0.44822 0.72078 0.81762 0.0
C696 C 0.37817 0.70084 0.83853 0.0
C697 C 0.44315 0.68743 0.8328 0.0
N698 N 0.40848 0.67794 0.84313 0.0
C699 C 0.38217 0.73439 0.82343 0.0
C700 C 0.41747 0.74437 0.81293 0.0
C701 C 0.32908 0.59867 0.84085 0.0
C702 C 0.41032 0.46718 0.87331 0.0
C703 C 0.33827 0.49512 0.86555 0.0
C704 C 0.3484 0.46095 0.85306 0.0
C705 C 0.38469 0.44697 0.85698 0.0
N706 N 0.36355 0.5148 0.88154 0.0
C707 C 0.3992 0.50124 0.88549 0.0
Co708 Co 0.86905 0.10204 0.64275 0.0
Co709 Co 0.93735 0.15423 0.60842 0.0
O710 O 0.91664 0.10743 0.62291 0.0
C711 C 0.92715 0.07898 0.68244 0.0
O712 O 0.94405 0.10974 0.6739 0.0
C713 C 0.93274 0.10065 0.56067 0.0
O714 O 0.89748 0.09514 0.56794 0.0
O715 O 0.88765 0.16901 0.5919 0.0
O716 O 0.8432 0.13498 0.61447 0.0
H717 H 0.94049 0.29362 0.5902 0.0
H718 H 0.91287 0.0341 0.62699 0.0
O719 O 0.89529 0.06999 0.67193 0.0
H720 H 0.79114 0.0214 0.57782 0.0
H721 H 0.77169 0.02925 0.69738 0.0
H722 H 0.80587 0.15307 0.65773 0.0
H723 H 0.80355 0.07599 0.60869 0.0
H724 H 0.83126 0.03758 0.67122 0.0
O725 O 0.95188 0.12633 0.57293 0.0
H726 H 0.91453 0.23456 0.60958 0.0
H727 H 0.00557 0.17272 0.57444 0.0
H728 H 0.74592 0.14596 0.68353 0.0
H729 H 0.90163 0.979 0.59639 0.0
H730 H 0.72853 0.08369 0.7036 0.0
H731 H 0.84043 0.97247 0.57149 0.0
O732 O 0.87896 0.14739 0.66623 0.0
H733 H 0.0438 0.06585 0.63132 0.0
H734 H 0.99433 0.19465 0.64322 0.0
H735 H 0.05444 0.17718 0.66578 0.0
H736 H 0.07955 0.11236 0.65987 0.0
H737 H 0.98364 0.08436 0.60941 0.0
H738 H 0.0324 0.23106 0.5545 0.0
H739 H 0.99984 0.29208 0.56242 0.0
O740 O 0.9238 0.18158 0.64434 0.0
C741 C 0.85327 0.16038 0.59685 0.0
C742 C 0.95497 0.26722 0.58664 0.0
C743 C 0.00652 0.23209 0.56657 0.0
N744 N 0.95856 0.20028 0.5932 0.0
C745 C 0.94045 0.23371 0.59761 0.0
C746 C 0.99113 0.19914 0.57783 0.0
C747 C 0.98825 0.26633 0.57104 0.0
C748 C 0.88602 0.03122 0.61647 0.0
N749 N 0.8588 0.05807 0.61975 0.0
C750 C 0.87988 1.00005 0.59908 0.0
C751 C 0.84555 0.99644 0.58507 0.0
C752 C 0.81789 0.0239 0.58859 0.0
C753 C 0.82508 0.05475 0.60608 0.0
C754 C 0.77893 0.05651 0.6887 0.0
C755 C 0.79836 0.12583 0.66622 0.0
C756 C 0.81263 0.0614 0.67391 0.0
N757 N 0.82186 0.0957 0.6628 0.0
C758 C 0.76444 0.122 0.68089 0.0
C759 C 0.75472 0.08706 0.69217 0.0
C760 C 0.90058 0.17602 0.66462 0.0
C761 C 0.0332 0.09421 0.63398 0.0
C762 C 0.00505 0.16638 0.64059 0.0
C763 C 0.03913 0.15667 0.65337 0.0
C764 C 0.05322 0.1203 0.65003 0.0
N765 N 0.98554 0.14064 0.6249 0.0
C766 C 0.99922 0.10493 0.62149 0.0
Co767 Co 0.40705 0.8684 0.64445 0.0
Co768 Co 0.35139 0.93481 0.61129 0.0
O769 O 0.39966 0.91505 0.62372 0.0
C770 C 0.43659 0.92823 0.67989 0.0
O771 O 0.40457 0.94471 0.67385 0.0
C772 C 0.40153 0.93151 0.56147 0.0
O773 O 0.40763 0.89611 0.56804 0.0
O774 O 0.33692 0.88504 0.59512 0.0
O775 O 0.36975 0.84162 0.61967 0.0
H776 H 0.21092 0.93464 0.59836 0.0
H777 H 0.47325 0.90962 0.62201 0.0
O778 O 0.44357 0.89553 0.67 0.0
H779 H 0.47675 0.78486 0.57633 0.0
H780 H 0.48523 0.77251 0.69621 0.0
H781 H 0.35718 0.80758 0.66565 0.0
H782 H 0.42686 0.80042 0.6107 0.0
H783 H 0.47446 0.83065 0.66879 0.0
O784 O 0.37655 0.95021 0.57488 0.0
H785 H 0.27181 0.90991 0.61524 0.0
H786 H 0.32901 0.00288 0.57853 0.0
H787 H 0.36668 0.74906 0.69283 0.0
H788 H 0.52375 0.89521 0.58788 0.0
H789 H 0.43109 0.73124 0.70834 0.0
H790 H 0.52564 0.83247 0.56472 0.0
O791 O 0.36575 0.88095 0.67104 0.0
H792 H 0.43769 0.04444 0.62986 0.0
H793 H 0.31237 0.98999 0.64863 0.0
H794 H 0.3295 0.05092 0.67007 0.0
H795 H 0.39252 0.07859 0.66066 0.0
H796 H 0.41966 0.98339 0.60916 0.0
H797 H 0.26877 0.0285 0.56107 0.0
H798 H 0.20916 0.99435 0.57105 0.0
O799 O 0.32657 0.92036 0.64813 0.0
C800 C 0.3445 0.85093 0.60167 0.0
C801 C 0.2367 0.94982 0.59393 0.0
C802 C 0.26917 0.00247 0.57296 0.0
N803 N 0.30388 0.95501 0.59796 0.0
C804 C 0.27124 0.936 0.60349 0.0
C805 C 0.3032 0.98777 0.58282 0.0
C806 C 0.23573 0.98331 0.57858 0.0
C807 C 0.47415 0.88211 0.61225 0.0
N808 N 0.44731 0.8558 0.61845 0.0
C809 C 0.50271 0.87417 0.59286 0.0
C810 C 0.5037 0.83899 0.57983 0.0
C811 C 0.47626 0.81227 0.58631 0.0
C812 C 0.44806 0.82125 0.60575 0.0
C813 C 0.45705 0.77994 0.68952 0.0
C814 C 0.38532 0.79983 0.67213 0.0
C815 C 0.45078 0.81283 0.67403 0.0
N816 N 0.41529 0.82227 0.66544 0.0
C817 C 0.39051 0.76674 0.68759 0.0
C818 C 0.42666 0.75678 0.69631 0.0
C819 C 0.33572 0.90057 0.66968 0.0
C820 C 0.41008 0.03277 0.634 0.0
C821 C 0.33989 0.00179 0.64448 0.0
C822 C 0.34939 0.03634 0.65664 0.0
C823 C 0.38474 0.05187 0.65132 0.0
N824 N 0.36485 0.98324 0.62745 0.0
C825 C 0.39961 0.99827 0.62221 0.0
Co826 Co 0.63507 0.4048 0.64311 0.0
Co827 Co 0.56679 0.35137 0.60989 0.0
O828 O 0.58727 0.39862 0.62371 0.0
C829 C 0.57719 0.42841 0.68282 0.0
O830 O 0.56069 0.3971 0.675 0.0
C831 C 0.56982 0.40423 0.56161 0.0
O832 O 0.60513 0.41039 0.56841 0.0
O833 O 0.61633 0.33691 0.59295 0.0
O834 O 0.66082 0.37139 0.61505 0.0
H835 H 0.56494 0.21168 0.59292 0.0
H836 H 0.5906 0.4721 0.6268 0.0
O837 O 0.60889 0.4374 0.67203 0.0
H838 H 0.71171 0.48452 0.57663 0.0
H839 H 0.73249 0.47951 0.69612 0.0
H840 H 0.69881 0.35459 0.65824 0.0
H841 H 0.69998 0.4305 0.60823 0.0
H842 H 0.67269 0.47017 0.67049 0.0
O843 O 0.5513 0.37849 0.57432 0.0
H844 H 0.59058 0.27133 0.61146 0.0
H845 H 0.49813 0.33156 0.57689 0.0
H846 H 0.75899 0.36271 0.68353 0.0
H847 H 0.60117 0.52664 0.59551 0.0
H848 H 0.77613 0.42554 0.7027 0.0
H849 H 0.66205 0.53303 0.5701 0.0
O850 O 0.6258 0.3599 0.66724 0.0
H851 H 0.45977 0.43893 0.63313 0.0
H852 H 0.51088 0.31089 0.64567 0.0
H853 H 0.45096 0.32804 0.66868 0.0
H854 H 0.42502 0.39248 0.66246 0.0
H855 H 0.51976 0.42074 0.61077 0.0
H856 H 0.4716 0.27261 0.5578 0.0
H857 H 0.50503 0.2121 0.56585 0.0
O858 O 0.58129 0.32473 0.64589 0.0
C859 C 0.65071 0.34577 0.59762 0.0
C860 C 0.55008 0.23785 0.58931 0.0
C861 C 0.49772 0.27206 0.56956 0.0
N862 N 0.54582 0.30484 0.59533 0.0
C863 C 0.56442 0.2717 0.59981 0.0
C864 C 0.51294 0.30537 0.58034 0.0
C865 C 0.51648 0.23811 0.57411 0.0
C866 C 0.61732 0.47492 0.61606 0.0
N867 N 0.64474 0.44831 0.61947 0.0
C868 C 0.62308 0.50577 0.59828 0.0
C869 C 0.65723 0.5093 0.58399 0.0
C870 C 0.68509 0.48208 0.58763 0.0
C871 C 0.67829 0.45155 0.60552 0.0
C872 C 0.72536 0.45202 0.68782 0.0
C873 C 0.70621 0.38207 0.66634 0.0
C874 C 0.69153 0.44655 0.67335 0.0
N875 N 0.68244 0.41195 0.66272 0.0
C876 C 0.74026 0.38647 0.68072 0.0
C877 C 0.74985 0.42172 0.6915 0.0
C878 C 0.6046 0.33094 0.66598 0.0
C879 C 0.47073 0.41073 0.63594 0.0
C880 C 0.49981 0.33899 0.6429 0.0
C881 C 0.46583 0.34853 0.65594 0.0
C882 C 0.45128 0.38468 0.65242 0.0
N883 N 0.51876 0.3647 0.62678 0.0
C884 C 0.50462 0.40019 0.6232 0.0
Co885 Co 0.09672 0.63341 0.64275 0.0
Co886 Co 0.14916 0.56418 0.60968 0.0
O887 O 0.10214 0.58578 0.62297 0.0
C888 C 0.07042 0.57545 0.68136 0.0
O889 O 0.10152 0.55835 0.67382 0.0
C890 C 0.09759 0.56915 0.56073 0.0
O891 O 0.09222 0.60455 0.56764 0.0
O892 O 0.16542 0.61353 0.59339 0.0
O893 O 0.13167 0.65865 0.61547 0.0
H894 H 0.2892 0.55858 0.59478 0.0
H895 H 0.02872 0.59106 0.62498 0.0
O896 O 0.06263 0.60767 0.67092 0.0
H897 H 0.02108 0.71323 0.57577 0.0
H898 H 0.02321 0.73186 0.69568 0.0
H899 H 0.14818 0.69557 0.65922 0.0
H900 H 0.07382 0.69954 0.60812 0.0
H901 H 0.03165 0.67231 0.66953 0.0
O902 O 0.12256 0.54985 0.57364 0.0
H903 H 0.22981 0.58561 0.61269 0.0
H904 H 0.16793 0.49547 0.57636 0.0
H905 H 0.14098 0.75547 0.68505 0.0
H906 H 0.97545 0.60358 0.5929 0.0
H907 H 0.07813 0.77392 0.70352 0.0
H908 H 0.97146 0.66501 0.56798 0.0
O909 O 0.14069 0.62256 0.66743 0.0
H910 H 0.05817 0.45926 0.63082 0.0
H911 H 0.18715 0.50679 0.64564 0.0
H912 H 0.16779 0.44706 0.66793 0.0
H913 H 0.10287 0.42292 0.66055 0.0
H914 H 0.07854 0.51901 0.6092 0.0
H915 H 0.22661 0.46757 0.55788 0.0
H916 H 0.28782 0.49913 0.56713 0.0
O917 O 0.17527 0.57753 0.64612 0.0
C918 C 0.15751 0.64808 0.59836 0.0
C919 C 0.26271 0.54453 0.59064 0.0
C920 C 0.22758 0.49349 0.56989 0.0
N921 N 0.19548 0.54211 0.59562 0.0
C922 C 0.22901 0.55967 0.60078 0.0
C923 C 0.19443 0.50948 0.58033 0.0
C924 C 0.26191 0.51119 0.57511 0.0
C925 C 0.02694 0.61801 0.61445 0.0
N926 N 0.05417 0.64464 0.61854 0.0
C927 C 0.9968 0.62488 0.59622 0.0
C928 C 0.99463 0.65932 0.5822 0.0
C929 C 0.02247 0.68638 0.58655 0.0
C930 C 0.05227 0.67848 0.60487 0.0
C931 C 0.05072 0.72415 0.6877 0.0
C932 C 0.12069 0.70354 0.66701 0.0
C933 C 0.05567 0.69046 0.67293 0.0
N934 N 0.09031 0.68064 0.66271 0.0
C935 C 0.11681 0.73743 0.6817 0.0
C936 C 0.08155 0.74775 0.69208 0.0
C937 C 0.16918 0.60071 0.66632 0.0
C938 C 0.08657 0.46942 0.63412 0.0
C939 C 0.15885 0.4965 0.64237 0.0
C940 C 0.14806 0.46262 0.655 0.0
C941 C 0.11165 0.44908 0.65083 0.0
N942 N 0.1341 0.51632 0.62601 0.0
C943 C 0.09835 0.50317 0.6218 0.0
H944 H 0.14092 0.72781 0.07814 0.0
H945 H 0.361 0.77387 0.07658 0.0
H946 H 0.22601 0.64514 0.09824 0.0
H947 H 0.27657 0.85445 0.10225 0.0
H948 H 0.31124 0.72744 0.06855 0.0
H949 H 0.19052 0.77457 0.07077 0.0
C950 C 0.16999 0.71912 0.08035 0.0
C951 C 0.17917 0.68246 0.08927 0.0
C952 C 0.30368 0.75552 0.07546 0.0
C953 C 0.23602 0.73601 0.08055 0.0
C954 C 0.33202 0.78218 0.07996 0.0
C955 C 0.3231 0.81811 0.09053 0.0
C956 C 0.26606 0.76503 0.08095 0.0
C957 C 0.28487 0.82706 0.09438 0.0
C958 C 0.19824 0.74598 0.07628 0.0
C959 C 0.21751 0.67309 0.09167 0.0
N960 N 0.25778 0.80064 0.08974 0.0
N961 N 0.24451 0.69975 0.08753 0.0
H962 H 0.77315 0.14149 0.07296 0.0
H963 H 0.72936 0.36221 0.0746 0.0
H964 H 0.8556 0.2262 0.09441 0.0
H965 H 0.64614 0.27672 0.09238 0.0
H966 H 0.77568 0.31269 0.06553 0.0
H967 H 0.72731 0.19137 0.06375 0.0
C968 C 0.78202 0.17053 0.07508 0.0
C969 C 0.81826 0.17953 0.08498 0.0
C970 C 0.74706 0.30487 0.07086 0.0
C971 C 0.76575 0.23674 0.07425 0.0
C972 C 0.72045 0.33311 0.07591 0.0
C973 C 0.68381 0.32373 0.08475 0.0
C974 C 0.73686 0.26695 0.0742 0.0
C975 C 0.67411 0.28536 0.08596 0.0
C976 C 0.75568 0.19896 0.06994 0.0
C977 C 0.82793 0.21783 0.08717 0.0
N978 N 0.70055 0.25841 0.08102 0.0
N979 N 0.80173 0.24499 0.08212 0.0
H980 H 0.22451 0.86044 0.41058 0.0
H981 H 0.36016 0.72445 0.43627 0.0
H982 H 0.14316 0.77318 0.42818 0.0
H983 H 0.27608 0.65168 0.3993 0.0
H984 H 0.31142 0.77157 0.44507 0.0
H985 H 0.27507 0.81489 0.41813 0.0
C986 C 0.21725 0.83196 0.41675 0.0
C987 C 0.17941 0.82069 0.4186 0.0
C988 C 0.30367 0.74519 0.43519 0.0
C989 C 0.23729 0.76817 0.42699 0.0
C990 C 0.33142 0.71803 0.43036 0.0
C991 C 0.32246 0.68415 0.41649 0.0
C992 C 0.26657 0.73838 0.42633 0.0
C993 C 0.2845 0.67751 0.40967 0.0
C994 C 0.2462 0.80595 0.42116 0.0
C995 C 0.17183 0.78324 0.42648 0.0
N996 N 0.25801 0.70448 0.4145 0.0
N997 N 0.20046 0.75812 0.4297 0.0
H998 H 0.85764 0.27388 0.41274 0.0
H999 H 0.64371 0.22458 0.41593 0.0
H1000 H 0.77392 0.35729 0.43428 0.0
H1001 H 0.72849 0.14042 0.43293 0.0
H1002 H 0.69037 0.2737 0.42512 0.0
H1003 H 0.81153 0.22439 0.42247 0.0
C1004 C 0.82985 0.28184 0.42007 0.0
C1005 C 0.81962 0.31996 0.4223 0.0
C1006 C 0.69855 0.24448 0.42742 0.0
C1007 C 0.76639 0.26331 0.43287 0.0
C1008 C 0.67188 0.21637 0.4222 0.0
C1009 C 0.6822 0.17818 0.42327 0.0
C1010 C 0.73606 0.23443 0.43314 0.0
C1011 C 0.7192 0.16939 0.4316 0.0
C1012 C 0.80351 0.25351 0.42563 0.0
C1013 C 0.78312 0.3284 0.43201 0.0
N1014 N 0.74498 0.19725 0.43557 0.0
N1015 N 0.75762 0.30037 0.43631 0.0
H1016 H 0.86128 0.27437 0.93327 0.0
H1017 H 0.64082 0.22942 0.93303 0.0
H1018 H 0.77614 0.3565 0.91207 0.0
H1019 H 0.72625 0.14687 0.91347 0.0
H1020 H 0.69032 0.2759 0.94164 0.0
H1021 H 0.81166 0.22816 0.94225 0.0
C1022 C 0.8322 0.28308 0.93114 0.0
C1023 C 0.82301 0.31937 0.92142 0.0
C1024 C 0.69814 0.24738 0.936 0.0
C1025 C 0.7661 0.26643 0.93193 0.0
C1026 C 0.66993 0.22068 0.93122 0.0
C1027 C 0.67926 0.18418 0.92203 0.0
C1028 C 0.73602 0.23741 0.93209 0.0
C1029 C 0.71764 0.17471 0.92019 0.0
C1030 C 0.80392 0.25653 0.93616 0.0
C1031 C 0.78466 0.3288 0.9192 0.0
N1032 N 0.74458 0.20124 0.92491 0.0
N1033 N 0.75764 0.30242 0.92416 0.0
H1034 H 0.27391 0.63762 0.93557 0.0
H1035 H 0.14097 0.77427 0.90582 0.0
H1036 H 0.35018 0.72399 0.90626 0.0
H1037 H 0.22502 0.85484 0.93206 0.0
H1038 H 0.18586 0.72351 0.91471 0.0
H1039 H 0.22597 0.68583 0.94354 0.0
C1040 C 0.28093 0.66674 0.93127 0.0
C1041 C 0.31606 0.67654 0.91963 0.0
C1042 C 0.19415 0.75221 0.9193 0.0
C1043 C 0.26091 0.7318 0.92845 0.0
C1044 C 0.16854 0.78128 0.91409 0.0
C1045 C 0.1792 0.81901 0.91803 0.0
C1046 C 0.23096 0.7609 0.92804 0.0
C1047 C 0.21549 0.82627 0.92864 0.0
C1048 C 0.25332 0.69419 0.93558 0.0
C1049 C 0.3234 0.71494 0.91484 0.0
N1050 N 0.24034 0.79757 0.93262 0.0
N1051 N 0.29596 0.74111 0.91905 0.0
H1052 H 0.7267 0.35985 0.59418 0.0
H1053 H 0.7773 0.1463 0.59352 0.0
H1054 H 0.6434 0.27524 0.57449 0.0
H1055 H 0.86052 0.23105 0.57394 0.0
H1056 H 0.72768 0.19242 0.58431 0.0
H1057 H 0.77628 0.31381 0.58455 0.0
C1058 C 0.71878 0.33187 0.58726 0.0
C1059 C 0.68068 0.32138 0.58553 0.0
C1060 C 0.7568 0.20069 0.58145 0.0
C1061 C 0.73744 0.26824 0.57511 0.0
C1062 C 0.78519 0.17433 0.5867 0.0
C1063 C 0.82328 0.18483 0.58488 0.0
C1064 C 0.76648 0.23808 0.57496 0.0
C1065 C 0.83165 0.22164 0.57586 0.0
C1066 C 0.74715 0.30556 0.58177 0.0
C1067 C 0.67228 0.28464 0.57635 0.0
N1068 N 0.80354 0.24715 0.57187 0.0
N1069 N 0.70037 0.25919 0.57212 0.0
H1070 H 0.22894 0.63889 0.57724 0.0
H1071 H 0.27541 0.85892 0.57638 0.0
H1072 H 0.14598 0.72456 0.59517 0.0
H1073 H 0.35548 0.77418 0.60238 0.0
H1074 H 0.22925 0.80929 0.56733 0.0
H1075 H 0.27612 0.68821 0.57031 0.0
C1076 C 0.22029 0.66802 0.57904 0.0
C1077 C 0.18341 0.67746 0.58726 0.0
C1078 C 0.25716 0.80163 0.57455 0.0
C1079 C 0.23743 0.73399 0.57908 0.0
C1080 C 0.28368 0.8299 0.57963 0.0
C1081 C 0.31937 0.82086 0.5906 0.0
C1082 C 0.26654 0.76394 0.57991 0.0
C1083 C 0.32826 0.78258 0.59423 0.0
C1084 C 0.24739 0.69612 0.57523 0.0
C1085 C 0.17409 0.71586 0.58916 0.0
N1086 N 0.30195 0.75555 0.58907 0.0
N1087 N 0.20098 0.7427 0.58532 0.0
H1088 H 0.91387 0.49322 0.30267 0.0
H1089 H 0.10068 0.50596 0.20938 0.0
H1090 H 0.99389 0.40154 0.30135 0.0
H1091 H 0.003 0.57771 0.20138 0.0
H1092 H 0.0661 0.46791 0.24452 0.0
H1093 H 0.95094 0.52605 0.26789 0.0
C1094 C 0.93932 0.47982 0.29501 0.0
C1095 C 0.95058 0.44433 0.30483 0.0
C1096 C 0.05244 0.49194 0.23487 0.0
C1097 C 0.99365 0.48227 0.26446 0.0
C1098 C 0.07207 0.51359 0.21488 0.0
C1099 C 0.05486 0.5453 0.20267 0.0
C1100 C 0.01563 0.50239 0.24255 0.0
C1101 C 0.01773 0.55388 0.21041 0.0
C1102 C 0.96056 0.49869 0.27498 0.0
C1103 C 0.98415 0.42881 0.29419 0.0
N1104 N 0.99959 0.53273 0.22984 0.0
N1105 N 0.00464 0.44793 0.27445 0.0
H1106 H 0.99444 0.0997 0.20466 0.0
H1107 H 0.99733 0.92511 0.31131 0.0
H1108 H 0.90965 0.01278 0.21073 0.0
H1109 H 0.09644 0.99332 0.29771 0.0
H1110 H 0.96325 0.96337 0.27785 0.0
H1111 H 0.03129 0.0666 0.24123 0.0
C1112 C 0.98359 0.07383 0.21365 0.0
C1113 C 0.94889 0.05904 0.20467 0.0
C1114 C 0.99247 0.97016 0.282 0.0
C1115 C 0.99042 0.02155 0.24624 0.0
C1116 C 0.01204 0.94823 0.30122 0.0
C1117 C 0.04999 0.9557 0.30706 0.0
C1118 C 0.01078 0.99996 0.26821 0.0
C1119 C 0.06723 0.98651 0.29362 0.0
C1120 C 0.00458 0.05502 0.23442 0.0
C1121 C 0.93614 0.02543 0.21692 0.0
N1122 N 0.0475 0.00751 0.27457 0.0
N1123 N 0.95681 0.00802 0.23699 0.0
H1124 H 0.59842 0.02416 0.28813 0.0
H1125 H 0.40197 0.99575 0.20953 0.0
H1126 H 0.5032 0.09596 0.3061 0.0
H1127 H 0.50626 0.94027 0.18794 0.0
H1128 H 0.43673 0.03521 0.24357 0.0
H1129 H 0.56341 0.99497 0.2504 0.0
C1130 C 0.56997 0.03385 0.28412 0.0
C1131 C 0.5536 0.06238 0.30045 0.0
C1132 C 0.45188 0.01462 0.23109 0.0
C1133 C 0.51284 0.02866 0.25684 0.0
C1134 C 0.43213 0.99223 0.21169 0.0
C1135 C 0.45123 0.96436 0.19625 0.0
C1136 C 0.49077 0.00892 0.23479 0.0
C1137 C 0.49024 0.96092 0.19972 0.0
C1138 C 0.54994 0.0172 0.26237 0.0
C1139 C 0.51676 0.07395 0.29397 0.0
N1140 N 0.50854 0.98269 0.21867 0.0
N1141 N 0.49735 0.05675 0.27272 0.0
H1142 H 0.50338 0.40241 0.20191 0.0
H1143 H 0.50758 0.56191 0.32115 0.0
H1144 H 0.5958 0.47809 0.21911 0.0
H1145 H 0.40373 0.50773 0.2968 0.0
H1146 H 0.54163 0.52208 0.28854 0.0
H1147 H 0.46734 0.43271 0.2403 0.0
C1148 C 0.5161 0.42515 0.2138 0.0
C1149 C 0.55251 0.43793 0.20721 0.0
C1150 C 0.5114 0.51864 0.29023 0.0
C1151 C 0.512 0.47207 0.2509 0.0
C1152 C 0.4919 0.54143 0.30895 0.0
C1153 C 0.4527 0.53851 0.31136 0.0
C1154 C 0.49169 0.49281 0.27336 0.0
C1155 C 0.43399 0.51095 0.29536 0.0
C1156 C 0.49558 0.44237 0.23559 0.0
C1157 C 0.56775 0.46743 0.2232 0.0
N1158 N 0.45366 0.48932 0.27666 0.0
N1159 N 0.54746 0.48337 0.24418 0.0
H1160 H 0.00482 0.60172 0.70651 0.0
H1161 H 0.99856 0.42412 0.80938 0.0
H1162 H 0.08004 0.50612 0.70376 0.0
H1163 H 0.9 0.49401 0.79861 0.0
H1164 H 0.03149 0.46157 0.77483 0.0
H1165 H 0.96753 0.56896 0.74311 0.0
C1166 C 0.0134 0.57397 0.71348 0.0
C1167 C 0.04581 0.55681 0.70226 0.0
C1168 C 0.00261 0.46886 0.77982 0.0
C1169 C 0.00387 0.51977 0.74384 0.0
C1170 C 0.9837 0.44743 0.7997 0.0
C1171 C 0.9462 0.45557 0.80663 0.0
C1172 C 0.98414 0.49888 0.76648 0.0
C1173 C 0.92885 0.48667 0.79365 0.0
C1174 C 0.99218 0.55538 0.73428 0.0
C1175 C 0.05561 0.52079 0.7119 0.0
N1176 N 0.94796 0.50724 0.77395 0.0
N1177 N 0.0349 0.50372 0.73212 0.0
H1178 H 0.00626 0.90557 0.79913 0.0
H1179 H 0.99174 0.09551 0.71004 0.0
H1180 H 0.0734 0.00541 0.81261 0.0
H1181 H 0.90485 0.01056 0.70514 0.0
H1182 H 0.0228 0.05953 0.74638 0.0
H1183 H 0.96862 0.94065 0.76416 0.0
C1184 C 0.01287 0.93483 0.79492 0.0
C1185 C 0.04329 0.95248 0.8085 0.0
C1186 C 0.99686 0.0486 0.73758 0.0
C1187 C 1.00081 0.99231 0.76881 0.0
C1188 C 0.97905 0.06919 0.71664 0.0
C1189 C 0.9455 0.05611 0.70452 0.0
C1190 C 0.98135 0.01432 0.74662 0.0
C1191 C 0.93065 0.02166 0.71401 0.0
C1192 C 0.99146 0.95474 0.77501 0.0
C1193 C 0.05062 0.9904 0.8024 0.0
N1194 N 0.9488 0.00176 0.73455 0.0
N1195 N 0.02973 0.00884 0.78297 0.0
H1196 H 0.51502 0.092 0.79555 0.0
H1197 H 0.49754 0.90008 0.70978 0.0
H1198 H 0.60105 0.00645 0.80267 0.0
H1199 H 0.43609 0.00237 0.69222 0.0
H1200 H 0.53602 0.93515 0.74438 0.0
H1201 H 0.4847 0.05569 0.75914 0.0
C1202 C 0.5277 0.06547 0.78942 0.0
C1203 C 0.56078 0.05234 0.80219 0.0
C1204 C 0.5143 0.94976 0.73265 0.0
C1205 C 0.52576 0.01013 0.75993 0.0
C1206 C 0.49246 0.92986 0.71295 0.0
C1207 C 0.46323 0.94824 0.69846 0.0
C1208 C 0.50655 0.98802 0.73767 0.0
C1209 C 0.45782 0.9868 0.70321 0.0
C1210 C 0.51032 0.04469 0.76841 0.0
C1211 C 0.5756 0.0176 0.79326 0.0
N1212 N 0.47902 0.0052 0.72245 0.0
N1213 N 0.55784 0.99746 0.77264 0.0
H1214 H 0.59955 0.49711 0.70515 0.0
H1215 H 0.42377 0.49912 0.8106 0.0
H1216 H 0.51149 0.41329 0.70939 0.0
H1217 H 0.49121 0.5989 0.79764 0.0
H1218 H 0.46243 0.46562 0.77712 0.0
H1219 H 0.56599 0.53386 0.74159 0.0
C1220 C 0.57332 0.48647 0.7137 0.0
C1221 C 0.5584 0.45202 0.70429 0.0
C1222 C 0.46897 0.49486 0.7814 0.0
C1223 C 0.52041 0.49342 0.7457 0.0
C1224 C 0.4468 0.51412 0.80065 0.0
C1225 C 0.45392 0.55209 0.80667 0.0
C1226 C 0.49866 0.51351 0.76774 0.0
C1227 C 0.48467 0.56966 0.79339 0.0
C1228 C 0.55426 0.5074 0.7344 0.0
C1229 C 0.52431 0.43954 0.71596 0.0
N1230 N 0.50592 0.55023 0.77429 0.0
N1231 N 0.50669 0.46012 0.73598 0.0
H1232 H 0.16034 0.68724 0.20162 0.0
H1233 H 0.04013 0.78921 0.32063 0.0
H1234 H 0.04178 0.70907 0.19032 0.0
H1235 H 0.157 0.81582 0.30557 0.0
H1236 H 0.04003 0.75049 0.27756 0.0
H1237 H 0.15955 0.72603 0.24431 0.0
C1238 C 0.13417 0.70038 0.20806 0.0
C1239 C 0.10111 0.69514 0.19232 0.0
C1240 C 0.06564 0.76479 0.28383 0.0
C1241 C 0.09987 0.73878 0.2415 0.0
C1242 C 0.06584 0.78653 0.30849 0.0
C1243 C 0.09864 0.8057 0.31668 0.0
C1244 C 0.0987 0.76158 0.2677 0.0
C1245 C 0.13107 0.80162 0.29997 0.0
C1246 C 0.13376 0.72248 0.2324 0.0
C1247 C 0.06796 0.71276 0.20167 0.0
N1248 N 0.13036 0.77984 0.2764 0.0
N1249 N 0.06806 0.73351 0.22587 0.0
H1250 H 0.81022 0.16422 0.19882 0.0
H1251 H 0.71261 0.04407 0.32029 0.0
H1252 H 0.78855 0.04537 0.18919 0.0
H1253 H 0.68914 0.16215 0.30786 0.0
H1254 H 0.74917 0.04396 0.27624 0.0
H1255 H 0.77323 0.16402 0.24242 0.0
C1256 C 0.79738 0.13813 0.20578 0.0
C1257 C 0.80224 0.1048 0.19026 0.0
C1258 C 0.7361 0.06986 0.28329 0.0
C1259 C 0.76072 0.1042 0.24053 0.0
C1260 C 0.71562 0.07006 0.30855 0.0
C1261 C 0.69789 0.1032 0.3178 0.0
C1262 C 0.73946 0.1032 0.26751 0.0
C1263 C 0.70228 0.13596 0.3015 0.0
C1264 C 0.77634 0.13804 0.23066 0.0
C1265 C 0.78511 0.07176 0.20032 0.0
N1266 N 0.72276 0.13518 0.27726 0.0
N1267 N 0.76543 0.07218 0.22502 0.0
H1268 H 0.3959 0.64779 0.28403 0.0
H1269 H 0.3937 0.85538 0.22296 0.0
H1270 H 0.41984 0.74421 0.33656 0.0
H1271 H 0.42209 0.75961 0.17098 0.0
H1272 H 0.39638 0.8151 0.26474 0.0
H1273 H 0.39861 0.68823 0.24236 0.0
C1274 C 0.40164 0.67753 0.28683 0.0
C1275 C 0.40741 0.6927 0.3139 0.0
C1276 C 0.40217 0.80295 0.24421 0.0
C1277 C 0.41031 0.73914 0.26613 0.0
C1278 C 0.40041 0.82582 0.2203 0.0
C1279 C 0.40745 0.81077 0.19335 0.0
C1280 C 0.41031 0.76452 0.24122 0.0
C1281 C 0.41644 0.77237 0.19131 0.0
C1282 C 0.40342 0.7005 0.26298 0.0
C1283 C 0.41519 0.73135 0.31613 0.0
N1284 N 0.41721 0.75045 0.21491 0.0
N1285 N 0.416 0.75335 0.29256 0.0
H1286 H 0.71269 0.45731 0.18827 0.0
H1287 H 0.81184 0.33687 0.30868 0.0
H1288 H 0.68967 0.33908 0.20039 0.0
H1289 H 0.78897 0.45535 0.31924 0.0
H1290 H 0.77457 0.33722 0.26524 0.0
H1291 H 0.74944 0.45729 0.2322 0.0
C1292 C 0.71581 0.43126 0.19992 0.0
C1293 C 0.69817 0.39812 0.19062 0.0
C1294 C 0.77749 0.36307 0.27718 0.0
C1295 C 0.73998 0.39797 0.24076 0.0
C1296 C 0.7987 0.36291 0.30196 0.0
C1297 C 0.80329 0.39609 0.31769 0.0
C1298 C 0.76144 0.39686 0.26761 0.0
C1299 C 0.78575 0.42907 0.30794 0.0
C1300 C 0.73641 0.43139 0.22511 0.0
C1301 C 0.70273 0.36528 0.2068 0.0
N1302 N 0.76591 0.42874 0.28332 0.0
N1303 N 0.72333 0.36598 0.23097 0.0
H1304 H 0.95981 0.21637 0.68652 0.0
H1305 H 0.83968 0.31537 0.8074 0.0
H1306 H 0.84161 0.19358 0.69902 0.0
H1307 H 0.95814 0.29233 0.81785 0.0
H1308 H 0.84007 0.27866 0.7637 0.0
H1309 H 0.96001 0.25337 0.7304 0.0
C1310 C 0.93382 0.21964 0.69822 0.0
C1311 C 0.90061 0.20197 0.68908 0.0
C1312 C 0.86593 0.28144 0.77565 0.0
C1313 C 0.90071 0.24403 0.73912 0.0
C1314 C 0.86574 0.30234 0.80059 0.0
C1315 C 0.89889 0.30669 0.81638 0.0
C1316 C 0.8997 0.26544 0.76601 0.0
C1317 C 0.93188 0.28928 0.8065 0.0
C1318 C 0.93406 0.24036 0.72338 0.0
C1319 C 0.86784 0.20667 0.70532 0.0
N1320 N 0.93157 0.26972 0.78174 0.0
N1321 N 0.86867 0.22738 0.72943 0.0
H1322 H 0.35663 0.88412 0.7237 0.0
H1323 H 0.24375 0.92302 0.84049 0.0
H1324 H 0.26092 0.92074 0.67464 0.0
H1325 H 0.15336 0.88742 0.78568 0.0
H1326 H 0.28599 0.92473 0.79953 0.0
H1327 H 0.31813 0.88671 0.76626 0.0
C1328 C 0.32747 0.89277 0.72184 0.0
C1329 C 0.31198 0.9022 0.69545 0.0
C1330 C 0.25698 0.91619 0.79658 0.0
C1331 C 0.26781 0.9057 0.74443 0.0
C1332 C 0.23281 0.91546 0.81991 0.0
C1333 C 0.19508 0.90454 0.81663 0.0
C1334 C 0.2432 0.90636 0.76972 0.0
C1335 C 0.18237 0.89543 0.78932 0.0
C1336 C 0.30565 0.89467 0.74628 0.0
C1337 C 0.27405 0.91335 0.69451 0.0
N1338 N 0.20632 0.89673 0.76693 0.0
N1339 N 0.25311 0.91437 0.71864 0.0
H1340 H 0.54449 0.21388 0.81993 0.0
H1341 H 0.6645 0.3138 0.69951 0.0
H1342 H 0.6625 0.19041 0.80714 0.0
H1343 H 0.54601 0.29087 0.68909 0.0
H1344 H 0.66426 0.27636 0.7429 0.0
H1345 H 0.54438 0.25115 0.7762 0.0
C1346 C 0.57046 0.21701 0.80818 0.0
C1347 C 0.60358 0.19908 0.81721 0.0
C1348 C 0.63837 0.27932 0.731 0.0
C1349 C 0.6036 0.2415 0.76734 0.0
C1350 C 0.63848 0.30063 0.70625 0.0
C1351 C 0.60527 0.30523 0.69057 0.0
C1352 C 0.60462 0.26319 0.74058 0.0
C1353 C 0.57231 0.28765 0.70035 0.0
C1354 C 0.57027 0.23791 0.78311 0.0
C1355 C 0.63633 0.20368 0.80092 0.0
N1356 N 0.5727 0.26771 0.72494 0.0
N1357 N 0.63557 0.22457 0.77689 0.0
H1358 H 0.2869 0.53997 0.82003 0.0
H1359 H 0.18713 0.66024 0.69992 0.0
H1360 H 0.31314 0.65703 0.80549 0.0
H1361 H 0.20825 0.54141 0.68939 0.0
H1362 H 0.22514 0.65955 0.74298 0.0
H1363 H 0.24882 0.53986 0.77667 0.0
C1364 C 0.28426 0.56572 0.80795 0.0
C1365 C 0.30317 0.59857 0.81638 0.0
C1366 C 0.22162 0.63368 0.73116 0.0
C1367 C 0.25979 0.59861 0.76702 0.0
C1368 C 0.19996 0.63403 0.7066 0.0
C1369 C 0.19474 0.60087 0.69097 0.0
C1370 C 0.23748 0.59974 0.74059 0.0
C1371 C 0.21195 0.56767 0.70065 0.0
C1372 C 0.26288 0.56552 0.78312 0.0
C1373 C 0.29914 0.63106 0.79973 0.0
N1374 N 0.23226 0.56784 0.72504 0.0
N1375 N 0.27774 0.63032 0.77597 0.0
H1376 H 0.10066 0.53537 0.03577 0.0
H1377 H 0.90263 0.46465 0.97356 0.0
H1378 H 0.99635 0.59644 0.04571 0.0
H1379 H 0.00704 0.40411 0.96249 0.0
H1380 H 0.93634 0.51259 1.00058 0.0
H1381 H 0.0671 0.48739 0.00861 0.0
C1382 C 0.07079 0.53899 0.03197 0.0
C1383 C 0.05141 0.57022 0.043 0.0
C1384 C 0.95188 0.48872 0.9924 0.0
C1385 C 0.01258 0.51484 0.01214 0.0
C1386 C 0.93257 0.46113 0.97707 0.0
C1387 C 0.95191 0.43006 0.96578 0.0
C1388 C 0.99095 0.48542 0.99652 0.0
C1389 C 0.99084 0.4274 0.97087 0.0
C1390 C 0.05158 0.51139 0.01657 0.0
C1391 C 0.01258 0.57303 0.03756 0.0
N1392 N 0.00903 0.45471 0.98577 0.0
N1393 N 0.9945 0.5457 0.02263 0.0
H1394 H 0.03419 0.90021 0.97332 0.0
H1395 H 0.96459 0.09864 0.0356 0.0
H1396 H 0.09678 0.0038 0.96457 0.0
H1397 H 0.90277 0.99482 0.04581 0.0
H1398 H 0.01269 0.06453 0.00899 0.0
H1399 H 0.98612 0.93413 1.00017 0.0
C1400 C 0.03812 0.92999 0.97731 0.0
C1401 C 0.0698 0.94906 0.9667 0.0
C1402 C 0.98851 0.04921 0.0169 0.0
C1403 C 0.01434 0.98833 0.99722 0.0
C1404 C 0.96084 0.06875 0.03199 0.0
C1405 C 0.92934 0.04969 0.04291 0.0
C1406 C 0.98487 0.0102 0.01263 0.0
C1407 C 0.92639 0.01081 0.03771 0.0
C1408 C 0.01048 0.94942 0.99254 0.0
C1409 C 0.07301 0.9878 0.9724 0.0
N1410 N 0.95378 0.99239 0.02303 0.0
N1411 N 0.04563 0.0061 0.98714 0.0
H1412 H 0.40192 0.96379 0.03275 0.0
H1413 H 0.60026 0.03626 0.97203 0.0
H1414 H 0.5066 0.90372 0.04378 0.0
H1415 H 0.49573 0.09672 0.96142 0.0
H1416 H 0.56655 0.98776 0.99856 0.0
H1417 H 0.43554 0.01208 0.00592 0.0
C1418 C 0.43189 0.96044 0.02926 0.0
C1419 C 0.45135 0.92942 0.04052 0.0
C1420 C 0.55099 0.01173 0.99058 0.0
C1421 C 0.49025 0.98516 0.01002 0.0
C1422 C 0.5703 0.03963 0.97554 0.0
C1423 C 0.55092 0.07086 0.96453 0.0
C1424 C 0.5119 0.01486 0.99467 0.0
C1425 C 0.51196 0.07332 0.96959 0.0
C1426 C 0.45114 0.98823 0.01405 0.0
C1427 C 0.49031 0.92696 0.03544 0.0
N1428 N 0.49378 0.0457 0.98419 0.0
N1429 N 0.50842 0.95446 0.02068 0.0
H1430 H 0.40131 0.49348 0.96315 0.0
H1431 H 0.59833 0.50704 0.04563 0.0
H1432 H 0.46455 0.59662 0.97222 0.0
H1433 H 0.53535 0.40384 0.03598 0.0
H1434 H 0.55 0.54018 0.0185 0.0
H1435 H 0.4496 0.46047 0.99036 0.0
C1436 C 0.42511 0.50933 0.97111 0.0
C1437 C 0.42867 0.54802 0.96542 0.0
C1438 C 0.54684 0.51024 0.02218 0.0
C1439 C 0.48456 0.51009 0.99638 0.0
C1440 C 0.57458 0.49121 0.03756 0.0
C1441 C 0.57111 0.45246 0.04305 0.0
C1442 C 0.51519 0.49052 0.0122 0.0
C1443 C 0.53944 0.43363 0.03218 0.0
C1444 C 0.45284 0.49037 0.98654 0.0
C1445 C 0.4604 0.56687 0.97617 0.0
N1446 N 0.51274 0.45282 0.0174 0.0
N1447 N 0.4871 0.54774 0.99101 0.0
H1448 H 0.10025 0.96663 0.47224 0.0
H1449 H 0.90285 0.03781 0.53543 0.0
H1450 H 0.99614 0.90479 0.46402 0.0
H1451 H 0.00699 0.0995 0.54408 0.0
H1452 H 0.93639 0.98927 0.50885 0.0
H1453 H 0.06683 0.01507 0.49904 0.0
C1454 C 0.07046 0.96293 0.47635 0.0
C1455 C 0.05109 0.93135 0.4659 0.0
C1456 C 0.9519 0.01351 0.51641 0.0
C1457 C 0.0124 0.98727 0.49636 0.0
C1458 C 0.93269 0.04144 0.53148 0.0
C1459 C 0.95201 0.07303 0.54196 0.0
C1460 C 0.99085 0.01699 0.51174 0.0
C1461 C 0.99081 0.07582 0.53634 0.0
C1462 C 0.05132 0.9908 0.49154 0.0
C1463 C 0.01236 0.92847 0.47173 0.0
N1464 N 0.0089 0.04817 0.52171 0.0
N1465 N 0.99434 0.95606 0.48645 0.0
H1466 H 0.59758 0.99407 0.4623 0.0
H1467 H 0.40113 0.00611 0.54589 0.0
H1468 H 0.53408 0.0969 0.47226 0.0
H1469 H 0.46356 0.90294 0.53423 0.0
H1470 H 0.44914 0.03971 0.51871 0.0
H1471 H 0.54932 0.96052 0.48923 0.0
C1472 C 0.57373 0.00974 0.4704 0.0
C1473 C 0.5701 0.04851 0.46505 0.0
C1474 C 0.45224 0.00968 0.52194 0.0
C1475 C 0.51424 0.00996 0.49569 0.0
C1476 C 0.42467 0.99038 0.53735 0.0
C1477 C 0.42811 0.95151 0.54232 0.0
C1478 C 0.48369 0.9901 0.51144 0.0
C1479 C 0.45952 0.93283 0.53087 0.0
C1480 C 0.54601 0.99047 0.48566 0.0
C1481 C 0.53829 0.06711 0.47595 0.0
N1482 N 0.48607 0.95228 0.5161 0.0
N1483 N 0.51163 0.04769 0.49064 0.0
H1484 H 0.49539 0.4036 0.54567 0.0
H1485 H 0.50683 0.6012 0.46369 0.0
H1486 H 0.59803 0.46744 0.53572 0.0
H1487 H 0.40407 0.53756 0.47363 0.0
H1488 H 0.54041 0.55302 0.49061 0.0
H1489 H 0.46163 0.45195 0.51899 0.0
C1490 C 0.51097 0.42754 0.53762 0.0
C1491 C 0.54975 0.43124 0.5429 0.0
C1492 C 0.51048 0.54967 0.48706 0.0
C1493 C 0.51097 0.48719 0.51258 0.0
C1494 C 0.49118 0.57735 0.4718 0.0
C1495 C 0.45243 0.57363 0.46641 0.0
C1496 C 0.49103 0.51784 0.49702 0.0
C1497 C 0.43385 0.54183 0.47733 0.0
C1498 C 0.49158 0.4553 0.5225 0.0
C1499 C 0.56823 0.46316 0.53208 0.0
N1500 N 0.45331 0.51517 0.49198 0.0
N1501 N 0.5487 0.48987 0.51756 0.0
H1502 H 0.9645 0.40073 0.47294 0.0
H1503 H 0.03557 0.5991 0.53435 0.0
H1504 H 0.90341 0.50491 0.46243 0.0
H1505 H 0.09649 0.49477 0.54464 0.0
H1506 H 0.98741 0.56538 0.50748 0.0
H1507 H 0.01267 0.43461 0.4996 0.0
C1508 C 0.96092 0.43065 0.4765 0.0
C1509 C 0.92961 0.44989 0.46548 0.0
C1510 C 0.01142 0.54988 0.51546 0.0
C1511 C 0.98524 0.48911 0.4958 0.0
C1512 C 0.03912 0.56919 0.53069 0.0
C1513 C 0.07036 0.54985 0.54173 0.0
C1514 C 0.01478 0.51084 0.51121 0.0
C1515 C 0.07308 0.51097 0.53647 0.0
C1516 C 0.98864 0.45006 0.49162 0.0
C1517 C 0.92687 0.4888 0.47062 0.0
N1518 N 0.04565 0.4928 0.5217 0.0
N1519 N 0.95432 0.50708 0.4853 0.0
loop_
_geom_bond_atom_site_label_1
_geom_bond_atom_site_label_2
_geom_bond_distance
_geom_bond_site_symmetry_2
_ccdc_geom_bond_type
Co0 O2 2.143 . S
Co0 O8 2.074 . S
Co0 O11 2.093 . S
Co0 O24 2.097 . S
Co0 N41 2.151 . S
Co0 N49 2.214 . S
Co1 O2 2.160 . S
Co1 O7 2.058 . S
Co1 O17 2.057 . S
Co1 O32 2.037 . S
Co1 N36 2.145 . S
Co1 N57 2.257 1_455 S
O2 Co0 2.143 . S
O2 Co1 2.160 . S
C3 O4 1.278 1_455 S
C3 O11 1.224 . S
O4 C3 1.278 1_655 S
C5 O6 1.245 . S
C5 O17 1.232 . S
O6 C5 1.245 . S
O7 Co1 2.058 . S
O7 C33 1.269 . S
O8 Co0 2.074 . S
O8 C33 1.257 . S
H9 C34 0.930 . S
H10 C40 0.930 . S
O11 Co0 2.093 . S
O11 C3 1.224 . S
H12 C44 0.929 . S
H13 C46 0.930 . S
H14 C47 0.930 . S
H15 C45 0.929 . S
H16 C48 0.928 . S
O17 Co1 2.057 . S
O17 C5 1.232 . S
H18 C37 0.929 . S
H19 C38 0.929 . S
H20 C50 0.931 . S
H21 C42 0.929 . S
H22 C51 0.930 . S
H23 C43 0.931 . S
O24 Co0 2.097 . S
O24 C52 1.214 . S
H25 C53 0.929 . S
H26 C54 0.929 . S
H27 C55 0.930 . S
H28 C56 0.929 . S
H29 C58 0.930 . S
H30 C35 0.930 . S
H31 C39 0.930 . S
O32 Co1 2.037 . S
O32 C52 1.234 . S
C33 O7 1.269 . S
C33 O8 1.257 . S
C34 H9 0.930 . S
C34 C37 1.388 . S
C34 C39 1.418 . S
C35 H30 0.930 . S
C35 C38 1.404 . S
C35 C39 1.353 . S
N36 Co1 2.145 . S
N36 C37 1.397 . S
N36 C38 1.334 . S
C37 H18 0.929 . S
C37 C34 1.388 . S
C37 N36 1.397 . S
C38 H19 0.929 . S
C38 C35 1.404 . S
C38 N36 1.334 . S
C39 H31 0.930 . S
C39 C34 1.418 . S
C39 C35 1.353 . S
C40 H10 0.930 . S
C40 N41 1.330 . S
C40 C42 1.446 . S
N41 Co0 2.151 . S
N41 C40 1.330 . S
N41 C45 1.418 . S
C42 H21 0.929 . S
C42 C40 1.446 . S
C42 C43 1.332 . S
C43 H23 0.931 . S
C43 C42 1.332 . S
C43 C44 1.267 . S
C44 H12 0.929 . S
C44 C43 1.267 . S
C44 C45 1.251 . S
C45 H15 0.929 . S
C45 N41 1.418 . S
C45 C44 1.251 . S
C46 H13 0.930 . S
C46 C48 1.406 . S
C46 C51 1.261 . S
C47 H14 0.930 . S
C47 N49 1.325 . S
C47 C50 1.357 . S
C48 H16 0.928 . S
C48 C46 1.406 . S
C48 N49 1.261 . S
N49 Co0 2.214 . S
N49 C47 1.325 . S
N49 C48 1.261 . S
C50 H20 0.931 . S
C50 C47 1.357 . S
C50 C51 1.312 . S
C51 H22 0.930 . S
C51 C46 1.261 . S
C51 C50 1.312 . S
C52 O24 1.214 . S
C52 O32 1.234 . S
C53 H25 0.929 . S
C53 C56 1.391 . S
C53 C58 1.391 . S
C54 H26 0.929 . S
C54 C55 1.390 . S
C54 N57 1.391 . S
C55 H27 0.930 . S
C55 C54 1.390 . S
C55 C56 1.392 . S
C56 H28 0.929 . S
C56 C53 1.391 . S
C56 C55 1.392 . S
N57 Co1 2.257 1_655 S
N57 C54 1.391 . S
N57 C58 1.388 . S
C58 H29 0.930 . S
C58 C53 1.391 . S
C58 N57 1.388 . S
Co59 O61 2.143 . S
Co59 O67 2.074 . S
Co59 O70 2.093 . S
Co59 O83 2.097 . S
Co59 N100 2.151 . S
Co59 N108 2.214 . S
Co60 O61 2.160 . S
Co60 O66 2.058 . S
Co60 O76 2.057 . S
Co60 O91 2.037 . S
Co60 N95 2.145 . S
Co60 N116 2.257 1_545 S
O61 Co59 2.143 . S
O61 Co60 2.160 . S
C62 O63 1.278 1_545 S
C62 O70 1.224 . S
O63 C62 1.278 1_565 S
C64 O65 1.245 . S
C64 O76 1.232 . S
O65 C64 1.245 . S
O66 Co60 2.058 . S
O66 C92 1.269 . S
O67 Co59 2.074 . S
O67 C92 1.257 . S
H68 C93 0.930 . S
H69 C99 0.930 . S
O70 Co59 2.093 . S
O70 C62 1.224 . S
H71 C103 0.929 . S
H72 C105 0.930 . S
H73 C106 0.930 . S
H74 C104 0.929 . S
H75 C107 0.928 . S
O76 Co60 2.057 . S
O76 C64 1.232 . S
H77 C96 0.929 . S
H78 C97 0.929 . S
H79 C109 0.931 . S
H80 C101 0.929 1_455 S
H81 C110 0.930 . S
H82 C102 0.931 1_455 S
O83 Co59 2.097 . S
O83 C111 1.214 . S
H84 C112 0.929 . S
H85 C113 0.929 . S
H86 C114 0.930 . S
H87 C115 0.929 . S
H88 C117 0.930 . S
H89 C94 0.930 . S
H90 C98 0.930 . S
O91 Co60 2.037 . S
O91 C111 1.234 . S
C92 O66 1.269 . S
C92 O67 1.257 . S
C93 H68 0.930 . S
C93 C96 1.388 . S
C93 C98 1.418 . S
C94 H89 0.930 . S
C94 C97 1.404 . S
C94 C98 1.353 . S
N95 Co60 2.145 . S
N95 C96 1.397 . S
N95 C97 1.334 . S
C96 H77 0.929 . S
C96 C93 1.388 . S
C96 N95 1.397 . S
C97 H78 0.929 . S
C97 C94 1.404 . S
C97 N95 1.334 . S
C98 H90 0.930 . S
C98 C93 1.418 . S
C98 C94 1.353 . S
C99 H69 0.930 . S
C99 N100 1.330 . S
C99 C101 1.446 . S
N100 Co59 2.151 . S
N100 C99 1.330 . S
N100 C104 1.418 . S
C101 H80 0.929 1_655 S
C101 C99 1.446 . S
C101 C102 1.332 . S
C102 H82 0.931 1_655 S
C102 C101 1.332 . S
C102 C103 1.267 . S
C103 H71 0.929 . S
C103 C102 1.267 . S
C103 C104 1.251 . S
C104 H74 0.929 . S
C104 N100 1.418 . S
C104 C103 1.251 . S
C105 H72 0.930 . S
C105 C107 1.406 . S
C105 C110 1.261 . S
C106 H73 0.930 . S
C106 N108 1.325 . S
C106 C109 1.357 . S
C107 H75 0.928 . S
C107 C105 1.406 . S
C107 N108 1.261 . S
N108 Co59 2.214 . S
N108 C106 1.325 . S
N108 C107 1.261 . S
C109 H79 0.931 . S
C109 C106 1.357 . S
C109 C110 1.312 . S
C110 H81 0.930 . S
C110 C105 1.261 . S
C110 C109 1.312 . S
C111 O83 1.214 . S
C111 O91 1.234 . S
C112 H84 0.929 . S
C112 C115 1.391 . S
C112 C117 1.391 . S
C113 H85 0.929 . S
C113 C114 1.390 . S
C113 N116 1.391 . S
C114 H86 0.930 . S
C114 C113 1.390 . S
C114 C115 1.392 . S
C115 H87 0.929 . S
C115 C112 1.391 . S
C115 C114 1.392 . S
N116 Co60 2.257 1_565 S
N116 C113 1.391 . S
N116 C117 1.388 . S
C117 H88 0.930 . S
C117 C112 1.391 . S
C117 N116 1.388 . S
Co118 O120 2.143 . S
Co118 O126 2.074 . S
Co118 O129 2.093 . S
Co118 O142 2.097 . S
Co118 N159 2.151 . S
Co118 N167 2.214 . S
Co119 O120 2.160 . S
Co119 O125 2.058 . S
Co119 O135 2.057 . S
Co119 O150 2.037 . S
Co119 N154 2.145 . S
Co119 N175 2.257 . S
O120 Co118 2.143 . S
O120 Co119 2.160 . S
C121 O122 1.278 . S
C121 O129 1.224 . S
O122 C121 1.278 . S
C123 O124 1.245 . S
C123 O135 1.232 . S
O124 C123 1.245 . S
O125 Co119 2.058 . S
O125 C151 1.269 . S
O126 Co118 2.074 . S
O126 C151 1.257 . S
H127 C152 0.930 . S
H128 C158 0.930 . S
O129 Co118 2.093 . S
O129 C121 1.224 . S
H130 C162 0.929 . S
H131 C164 0.930 . S
H132 C165 0.930 . S
H133 C163 0.929 . S
H134 C166 0.928 . S
O135 Co119 2.057 . S
O135 C123 1.232 . S
H136 C155 0.929 . S
H137 C156 0.929 . S
H138 C168 0.931 . S
H139 C160 0.929 1_545 S
H140 C169 0.930 . S
H141 C161 0.931 1_545 S
O142 Co118 2.097 . S
O142 C170 1.214 . S
H143 C171 0.929 . S
H144 C172 0.929 . S
H145 C173 0.930 . S
H146 C174 0.929 . S
H147 C176 0.930 . S
H148 C153 0.930 . S
H149 C157 0.930 . S
O150 Co119 2.037 . S
O150 C170 1.234 . S
C151 O125 1.269 . S
C151 O126 1.257 . S
C152 H127 0.930 . S
C152 C155 1.388 . S
C152 C157 1.418 . S
C153 H148 0.930 . S
C153 C156 1.404 . S
C153 C157 1.353 . S
N154 Co119 2.145 . S
N154 C155 1.397 . S
N154 C156 1.334 . S
C155 H136 0.929 . S
C155 C152 1.388 . S
C155 N154 1.397 . S
C156 H137 0.929 . S
C156 C153 1.404 . S
C156 N154 1.334 . S
C157 H149 0.930 . S
C157 C152 1.418 . S
C157 C153 1.353 . S
C158 H128 0.930 . S
C158 N159 1.330 . S
C158 C160 1.446 . S
N159 Co118 2.151 . S
N159 C158 1.330 . S
N159 C163 1.418 . S
C160 H139 0.929 1_565 S
C160 C158 1.446 . S
C160 C161 1.332 . S
C161 H141 0.931 1_565 S
C161 C160 1.332 . S
C161 C162 1.267 . S
C162 H130 0.929 . S
C162 C161 1.267 . S
C162 C163 1.251 . S
C163 H133 0.929 . S
C163 N159 1.418 . S
C163 C162 1.251 . S
C164 H131 0.930 . S
C164 C166 1.406 . S
C164 C169 1.261 . S
C165 H132 0.930 . S
C165 N167 1.325 . S
C165 C168 1.357 . S
C166 H134 0.928 . S
C166 C164 1.406 . S
C166 N167 1.261 . S
N167 Co118 2.214 . S
N167 C165 1.325 . S
N167 C166 1.261 . S
C168 H138 0.931 . S
C168 C165 1.357 . S
C168 C169 1.312 . S
C169 H140 0.930 . S
C169 C164 1.261 . S
C169 C168 1.312 . S
C170 O142 1.214 . S
C170 O150 1.234 . S
C171 H143 0.929 . S
C171 C174 1.391 . S
C171 C176 1.391 . S
C172 H144 0.929 . S
C172 C173 1.390 . S
C172 N175 1.391 . S
C173 H145 0.930 . S
C173 C172 1.390 . S
C173 C174 1.392 . S
C174 H146 0.929 . S
C174 C171 1.391 . S
C174 C173 1.392 . S
N175 Co119 2.257 . S
N175 C172 1.391 . S
N175 C176 1.388 . S
C176 H147 0.930 . S
C176 C171 1.391 . S
C176 N175 1.388 . S
Co177 O179 2.143 . S
Co177 O185 2.074 . S
Co177 O188 2.093 . S
Co177 O201 2.097 . S
Co177 N218 2.151 . S
Co177 N226 2.214 . S
Co178 O179 2.160 . S
Co178 O184 2.058 . S
Co178 O194 2.057 . S
Co178 O209 2.037 . S
Co178 N213 2.145 . S
Co178 N234 2.257 . S
O179 Co177 2.143 . S
O179 Co178 2.160 . S
C180 O181 1.278 . S
C180 O188 1.224 . S
O181 C180 1.278 . S
C182 O183 1.245 . S
C182 O194 1.232 . S
O183 C182 1.245 . S
O184 Co178 2.058 . S
O184 C210 1.269 . S
O185 Co177 2.074 . S
O185 C210 1.257 . S
H186 C211 0.930 . S
H187 C217 0.930 . S
O188 Co177 2.093 . S
O188 C180 1.224 . S
H189 C221 0.929 . S
H190 C223 0.930 . S
H191 C224 0.930 . S
H192 C222 0.929 . S
H193 C225 0.928 . S
O194 Co178 2.057 . S
O194 C182 1.232 . S
H195 C214 0.929 . S
H196 C215 0.929 . S
H197 C227 0.931 . S
H198 C219 0.929 . S
H199 C228 0.930 . S
H200 C220 0.931 . S
O201 Co177 2.097 . S
O201 C229 1.214 . S
H202 C230 0.929 . S
H203 C231 0.929 . S
H204 C232 0.930 . S
H205 C233 0.929 . S
H206 C235 0.930 . S
H207 C212 0.930 . S
H208 C216 0.930 . S
O209 Co178 2.037 . S
O209 C229 1.234 . S
C210 O184 1.269 . S
C210 O185 1.257 . S
C211 H186 0.930 . S
C211 C214 1.388 . S
C211 C216 1.418 . S
C212 H207 0.930 . S
C212 C215 1.404 . S
C212 C216 1.353 . S
N213 Co178 2.145 . S
N213 C214 1.397 . S
N213 C215 1.334 . S
C214 H195 0.929 . S
C214 C211 1.388 . S
C214 N213 1.397 . S
C215 H196 0.929 . S
C215 C212 1.404 . S
C215 N213 1.334 . S
C216 H208 0.930 . S
C216 C211 1.418 . S
C216 C212 1.353 . S
C217 H187 0.930 . S
C217 N218 1.330 . S
C217 C219 1.446 . S
N218 Co177 2.151 . S
N218 C217 1.330 . S
N218 C222 1.418 . S
C219 H198 0.929 . S
C219 C217 1.446 . S
C219 C220 1.332 . S
C220 H200 0.931 . S
C220 C219 1.332 . S
C220 C221 1.267 . S
C221 H189 0.929 . S
C221 C220 1.267 . S
C221 C222 1.251 . S
C222 H192 0.929 . S
C222 N218 1.418 . S
C222 C221 1.251 . S
C223 H190 0.930 . S
C223 C225 1.406 . S
C223 C228 1.261 . S
C224 H191 0.930 . S
C224 N226 1.325 . S
C224 C227 1.357 . S
C225 H193 0.928 . S
C225 C223 1.406 . S
C225 N226 1.261 . S
N226 Co177 2.214 . S
N226 C224 1.325 . S
N226 C225 1.261 . S
C227 H197 0.931 . S
C227 C224 1.357 . S
C227 C228 1.312 . S
C228 H199 0.930 . S
C228 C223 1.261 . S
C228 C227 1.312 . S
C229 O201 1.214 . S
C229 O209 1.234 . S
C230 H202 0.929 . S
C230 C233 1.391 . S
C230 C235 1.391 . S
C231 H203 0.929 . S
C231 C232 1.390 . S
C231 N234 1.391 . S
C232 H204 0.930 . S
C232 C231 1.390 . S
C232 C233 1.392 . S
C233 H205 0.929 . S
C233 C230 1.391 . S
C233 C232 1.392 . S
N234 Co178 2.257 . S
N234 C231 1.391 . S
N234 C235 1.388 . S
C235 H206 0.930 . S
C235 C230 1.391 . S
C235 N234 1.388 . S
Co236 O238 2.143 . S
Co236 O244 2.074 . S
Co236 O247 2.093 . S
Co236 O260 2.097 . S
Co236 N277 2.151 . S
Co236 N285 2.214 . S
Co237 O238 2.160 . S
Co237 O243 2.058 . S
Co237 O253 2.057 . S
Co237 O268 2.037 . S
Co237 N272 2.145 . S
Co237 N293 2.257 1_455 S
O238 Co236 2.143 . S
O238 Co237 2.160 . S
C239 O240 1.278 1_455 S
C239 O247 1.224 . S
O240 C239 1.278 1_655 S
C241 O242 1.245 . S
C241 O253 1.232 . S
O242 C241 1.245 . S
O243 Co237 2.058 . S
O243 C269 1.269 . S
O244 Co236 2.074 . S
O244 C269 1.257 . S
H245 C270 0.930 . S
H246 C276 0.930 . S
O247 Co236 2.093 . S
O247 C239 1.224 . S
H248 C280 0.929 . S
H249 C282 0.930 . S
H250 C283 0.930 . S
H251 C281 0.929 . S
H252 C284 0.928 . S
O253 Co237 2.057 . S
O253 C241 1.232 . S
H254 C273 0.929 . S
H255 C274 0.929 . S
H256 C286 0.931 . S
H257 C278 0.929 1_545 S
H258 C287 0.930 . S
H259 C279 0.931 1_545 S
O260 Co236 2.097 . S
O260 C288 1.214 . S
H261 C289 0.929 . S
H262 C290 0.929 . S
H263 C291 0.930 . S
H264 C292 0.929 . S
H265 C294 0.930 . S
H266 C271 0.930 . S
H267 C275 0.930 . S
O268 Co237 2.037 . S
O268 C288 1.234 . S
C269 O243 1.269 . S
C269 O244 1.257 . S
C270 H245 0.930 . S
C270 C273 1.388 . S
C270 C275 1.418 . S
C271 H266 0.930 . S
C271 C274 1.404 . S
C271 C275 1.353 . S
N272 Co237 2.145 . S
N272 C273 1.397 . S
N272 C274 1.334 . S
C273 H254 0.929 . S
C273 C270 1.388 . S
C273 N272 1.397 . S
C274 H255 0.929 . S
C274 C271 1.404 . S
C274 N272 1.334 . S
C275 H267 0.930 . S
C275 C270 1.418 . S
C275 C271 1.353 . S
C276 H246 0.930 . S
C276 N277 1.330 . S
C276 C278 1.446 . S
N277 Co236 2.151 . S
N277 C276 1.330 . S
N277 C281 1.418 . S
C278 H257 0.929 1_565 S
C278 C276 1.446 . S
C278 C279 1.332 . S
C279 H259 0.931 1_565 S
C279 C278 1.332 . S
C279 C280 1.267 . S
C280 H248 0.929 . S
C280 C279 1.267 . S
C280 C281 1.251 . S
C281 H251 0.929 . S
C281 N277 1.418 . S
C281 C280 1.251 . S
C282 H249 0.930 . S
C282 C284 1.406 . S
C282 C287 1.261 . S
C283 H250 0.930 . S
C283 N285 1.325 . S
C283 C286 1.357 . S
C284 H252 0.928 . S
C284 C282 1.406 . S
C284 N285 1.261 . S
N285 Co236 2.214 . S
N285 C283 1.325 . S
N285 C284 1.261 . S
C286 H256 0.931 . S
C286 C283 1.357 . S
C286 C287 1.312 . S
C287 H258 0.930 . S
C287 C282 1.261 . S
C287 C286 1.312 . S
C288 O260 1.214 . S
C288 O268 1.234 . S
C289 H261 0.929 . S
C289 C292 1.391 . S
C289 C294 1.391 . S
C290 H262 0.929 . S
C290 C291 1.390 . S
C290 N293 1.391 . S
C291 H263 0.930 . S
C291 C290 1.390 . S
C291 C292 1.392 . S
C292 H264 0.929 . S
C292 C289 1.391 . S
C292 C291 1.392 . S
N293 Co237 2.257 1_655 S
N293 C290 1.391 . S
N293 C294 1.388 . S
C294 H265 0.930 . S
C294 C289 1.391 . S
C294 N293 1.388 . S
Co295 O297 2.143 . S
Co295 O303 2.074 . S
Co295 O306 2.093 . S
Co295 O319 2.097 . S
Co295 N336 2.151 . S
Co295 N344 2.214 . S
Co296 O297 2.160 . S
Co296 O302 2.058 . S
Co296 O312 2.057 . S
Co296 O327 2.037 . S
Co296 N331 2.145 . S
Co296 N352 2.257 1_545 S
O297 Co295 2.143 . S
O297 Co296 2.160 . S
C298 O299 1.278 1_545 S
C298 O306 1.224 . S
O299 C298 1.278 1_565 S
C300 O301 1.245 . S
C300 O312 1.232 . S
O301 C300 1.245 . S
O302 Co296 2.058 . S
O302 C328 1.269 . S
O303 Co295 2.074 . S
O303 C328 1.257 . S
H304 C329 0.930 . S
H305 C335 0.930 . S
O306 Co295 2.093 . S
O306 C298 1.224 . S
H307 C339 0.929 . S
H308 C341 0.930 . S
H309 C342 0.930 . S
H310 C340 0.929 . S
H311 C343 0.928 . S
O312 Co296 2.057 . S
O312 C300 1.232 . S
H313 C332 0.929 . S
H314 C333 0.929 . S
H315 C345 0.931 . S
H316 C337 0.929 . S
H317 C346 0.930 . S
H318 C338 0.931 . S
O319 Co295 2.097 . S
O319 C347 1.214 . S
H320 C348 0.929 . S
H321 C349 0.929 . S
H322 C350 0.930 . S
H323 C351 0.929 . S
H324 C353 0.930 . S
H325 C330 0.930 . S
H326 C334 0.930 . S
O327 Co296 2.037 . S
O327 C347 1.234 . S
C328 O302 1.269 . S
C328 O303 1.257 . S
C329 H304 0.930 . S
C329 C332 1.388 . S
C329 C334 1.418 . S
C330 H325 0.930 . S
C330 C333 1.404 . S
C330 C334 1.353 . S
N331 Co296 2.145 . S
N331 C332 1.397 . S
N331 C333 1.334 . S
C332 H313 0.929 . S
C332 C329 1.388 . S
C332 N331 1.397 . S
C333 H314 0.929 . S
C333 C330 1.404 . S
C333 N331 1.334 . S
C334 H326 0.930 . S
C334 C329 1.418 . S
C334 C330 1.353 . S
C335 H305 0.930 . S
C335 N336 1.330 . S
C335 C337 1.446 . S
N336 Co295 2.151 . S
N336 C335 1.330 . S
N336 C340 1.418 . S
C337 H316 0.929 . S
C337 C335 1.446 . S
C337 C338 1.332 . S
C338 H318 0.931 . S
C338 C337 1.332 . S
C338 C339 1.267 . S
C339 H307 0.929 . S
C339 C338 1.267 . S
C339 C340 1.251 . S
C340 H310 0.929 . S
C340 N336 1.418 . S
C340 C339 1.251 . S
C341 H308 0.930 . S
C341 C343 1.406 . S
C341 C346 1.261 . S
C342 H309 0.930 . S
C342 N344 1.325 . S
C342 C345 1.357 . S
C343 H311 0.928 . S
C343 C341 1.406 . S
C343 N344 1.261 . S
N344 Co295 2.214 . S
N344 C342 1.325 . S
N344 C343 1.261 . S
C345 H315 0.931 . S
C345 C342 1.357 . S
C345 C346 1.312 . S
C346 H317 0.930 . S
C346 C341 1.261 . S
C346 C345 1.312 . S
C347 O319 1.214 . S
C347 O327 1.234 . S
C348 H320 0.929 . S
C348 C351 1.391 . S
C348 C353 1.391 . S
C349 H321 0.929 . S
C349 C350 1.390 . S
C349 N352 1.391 . S
C350 H322 0.930 . S
C350 C349 1.390 . S
C350 C351 1.392 . S
C351 H323 0.929 . S
C351 C348 1.391 . S
C351 C350 1.392 . S
N352 Co296 2.257 1_565 S
N352 C349 1.391 . S
N352 C353 1.388 . S
C353 H324 0.930 . S
C353 C348 1.391 . S
C353 N352 1.388 . S
Co354 O356 2.143 . S
Co354 O362 2.074 . S
Co354 O365 2.093 . S
Co354 O378 2.097 . S
Co354 N395 2.151 . S
Co354 N403 2.214 . S
Co355 O356 2.160 . S
Co355 O361 2.058 . S
Co355 O371 2.057 . S
Co355 O386 2.037 . S
Co355 N390 2.145 . S
Co355 N411 2.257 . S
O356 Co354 2.143 . S
O356 Co355 2.160 . S
C357 O358 1.278 . S
C357 O365 1.224 . S
O358 C357 1.278 . S
C359 O360 1.245 . S
C359 O371 1.232 . S
O360 C359 1.245 . S
O361 Co355 2.058 . S
O361 C387 1.269 . S
O362 Co354 2.074 . S
O362 C387 1.257 . S
H363 C388 0.930 . S
H364 C394 0.930 . S
O365 Co354 2.093 . S
O365 C357 1.224 . S
H366 C398 0.929 . S
H367 C400 0.930 . S
H368 C401 0.930 . S
H369 C399 0.929 . S
H370 C402 0.928 . S
O371 Co355 2.057 . S
O371 C359 1.232 . S
H372 C391 0.929 . S
H373 C392 0.929 . S
H374 C404 0.931 . S
H375 C396 0.929 . S
H376 C405 0.930 . S
H377 C397 0.931 . S
O378 Co354 2.097 . S
O378 C406 1.214 . S
H379 C407 0.929 . S
H380 C408 0.929 . S
H381 C409 0.930 . S
H382 C410 0.929 . S
H383 C412 0.930 . S
H384 C389 0.930 . S
H385 C393 0.930 . S
O386 Co355 2.037 . S
O386 C406 1.234 . S
C387 O361 1.269 . S
C387 O362 1.257 . S
C388 H363 0.930 . S
C388 C391 1.388 . S
C388 C393 1.418 . S
C389 H384 0.930 . S
C389 C392 1.404 . S
C389 C393 1.353 . S
N390 Co355 2.145 . S
N390 C391 1.397 . S
N390 C392 1.334 . S
C391 H372 0.929 . S
C391 C388 1.388 . S
C391 N390 1.397 . S
C392 H373 0.929 . S
C392 C389 1.404 . S
C392 N390 1.334 . S
C393 H385 0.930 . S
C393 C388 1.418 . S
C393 C389 1.353 . S
C394 H364 0.930 . S
C394 N395 1.330 . S
C394 C396 1.446 . S
N395 Co354 2.151 . S
N395 C394 1.330 . S
N395 C399 1.418 . S
C396 H375 0.929 . S
C396 C394 1.446 . S
C396 C397 1.332 . S
C397 H377 0.931 . S
C397 C396 1.332 . S
C397 C398 1.267 . S
C398 H366 0.929 . S
C398 C397 1.267 . S
C398 C399 1.251 . S
C399 H369 0.929 . S
C399 N395 1.418 . S
C399 C398 1.251 . S
C400 H367 0.930 . S
C400 C402 1.406 . S
C400 C405 1.261 . S
C401 H368 0.930 . S
C401 N403 1.325 . S
C401 C404 1.357 . S
C402 H370 0.928 . S
C402 C400 1.406 . S
C402 N403 1.261 . S
N403 Co354 2.214 . S
N403 C401 1.325 . S
N403 C402 1.261 . S
C404 H374 0.931 . S
C404 C401 1.357 . S
C404 C405 1.312 . S
C405 H376 0.930 . S
C405 C400 1.261 . S
C405 C404 1.312 . S
C406 O378 1.214 . S
C406 O386 1.234 . S
C407 H379 0.929 . S
C407 C410 1.391 . S
C407 C412 1.391 . S
C408 H380 0.929 . S
C408 C409 1.390 . S
C408 N411 1.391 . S
C409 H381 0.930 . S
C409 C408 1.390 . S
C409 C410 1.392 . S
C410 H382 0.929 . S
C410 C407 1.391 . S
C410 C409 1.392 . S
N411 Co355 2.257 . S
N411 C408 1.391 . S
N411 C412 1.388 . S
C412 H383 0.930 . S
C412 C407 1.391 . S
C412 N411 1.388 . S
Co413 O415 2.143 . S
Co413 O421 2.074 . S
Co413 O424 2.093 . S
Co413 O437 2.097 . S
Co413 N454 2.151 . S
Co413 N462 2.214 . S
Co414 O415 2.160 . S
Co414 O420 2.058 . S
Co414 O430 2.057 . S
Co414 O445 2.037 . S
Co414 N449 2.145 . S
Co414 N470 2.257 . S
O415 Co413 2.143 . S
O415 Co414 2.160 . S
C416 O417 1.278 . S
C416 O424 1.224 . S
O417 C416 1.278 . S
C418 O419 1.245 . S
C418 O430 1.232 . S
O419 C418 1.245 . S
O420 Co414 2.058 . S
O420 C446 1.269 . S
O421 Co413 2.074 . S
O421 C446 1.257 . S
H422 C447 0.930 . S
H423 C453 0.930 . S
O424 Co413 2.093 . S
O424 C416 1.224 . S
H425 C457 0.929 . S
H426 C459 0.930 . S
H427 C460 0.930 . S
H428 C458 0.929 . S
H429 C461 0.928 . S
O430 Co414 2.057 . S
O430 C418 1.232 . S
H431 C450 0.929 . S
H432 C451 0.929 . S
H433 C463 0.931 . S
H434 C455 0.929 1_455 S
H435 C464 0.930 . S
H436 C456 0.931 1_455 S
O437 Co413 2.097 . S
O437 C465 1.214 . S
H438 C466 0.929 . S
H439 C467 0.929 . S
H440 C468 0.930 . S
H441 C469 0.929 . S
H442 C471 0.930 . S
H443 C448 0.930 . S
H444 C452 0.930 . S
O445 Co414 2.037 . S
O445 C465 1.234 . S
C446 O420 1.269 . S
C446 O421 1.257 . S
C447 H422 0.930 . S
C447 C450 1.388 . S
C447 C452 1.418 . S
C448 H443 0.930 . S
C448 C451 1.404 . S
C448 C452 1.353 . S
N449 Co414 2.145 . S
N449 C450 1.397 . S
N449 C451 1.334 . S
C450 H431 0.929 . S
C450 C447 1.388 . S
C450 N449 1.397 . S
C451 H432 0.929 . S
C451 C448 1.404 . S
C451 N449 1.334 . S
C452 H444 0.930 . S
C452 C447 1.418 . S
C452 C448 1.353 . S
C453 H423 0.930 . S
C453 N454 1.330 . S
C453 C455 1.446 . S
N454 Co413 2.151 . S
N454 C453 1.330 . S
N454 C458 1.418 . S
C455 H434 0.929 1_655 S
C455 C453 1.446 . S
C455 C456 1.332 . S
C456 H436 0.931 1_655 S
C456 C455 1.332 . S
C456 C457 1.267 . S
C457 H425 0.929 . S
C457 C456 1.267 . S
C457 C458 1.251 . S
C458 H428 0.929 . S
C458 N454 1.418 . S
C458 C457 1.251 . S
C459 H426 0.930 . S
C459 C461 1.406 . S
C459 C464 1.261 . S
C460 H427 0.930 . S
C460 N462 1.325 . S
C460 C463 1.357 . S
C461 H429 0.928 . S
C461 C459 1.406 . S
C461 N462 1.261 . S
N462 Co413 2.214 . S
N462 C460 1.325 . S
N462 C461 1.261 . S
C463 H433 0.931 . S
C463 C460 1.357 . S
C463 C464 1.312 . S
C464 H435 0.930 . S
C464 C459 1.261 . S
C464 C463 1.312 . S
C465 O437 1.214 . S
C465 O445 1.234 . S
C466 H438 0.929 . S
C466 C469 1.391 . S
C466 C471 1.391 . S
C467 H439 0.929 . S
C467 C468 1.390 . S
C467 N470 1.391 . S
C468 H440 0.930 . S
C468 C467 1.390 . S
C468 C469 1.392 . S
C469 H441 0.929 . S
C469 C466 1.391 . S
C469 C468 1.392 . S
N470 Co414 2.257 . S
N470 C467 1.391 . S
N470 C471 1.388 . S
C471 H442 0.930 . S
C471 C466 1.391 . S
C471 N470 1.388 . S
Co472 O474 2.143 . S
Co472 O480 2.074 . S
Co472 O483 2.093 . S
Co472 O496 2.097 . S
Co472 N513 2.151 . S
Co472 N521 2.214 . S
Co473 O474 2.160 . S
Co473 O479 2.058 . S
Co473 O489 2.057 . S
Co473 O504 2.037 . S
Co473 N508 2.145 . S
Co473 N529 2.257 1_655 S
O474 Co472 2.143 . S
O474 Co473 2.160 . S
C475 O476 1.278 1_655 S
C475 O483 1.224 . S
O476 C475 1.278 1_455 S
C477 O478 1.245 . S
C477 O489 1.232 . S
O478 C477 1.245 . S
O479 Co473 2.058 . S
O479 C505 1.269 . S
O480 Co472 2.074 . S
O480 C505 1.257 . S
H481 C506 0.930 . S
H482 C512 0.930 . S
O483 Co472 2.093 . S
O483 C475 1.224 . S
H484 C516 0.929 . S
H485 C518 0.930 . S
H486 C519 0.930 . S
H487 C517 0.929 . S
H488 C520 0.928 . S
O489 Co473 2.057 . S
O489 C477 1.232 . S
H490 C509 0.929 . S
H491 C510 0.929 . S
H492 C522 0.931 . S
H493 C514 0.929 . S
H494 C523 0.930 . S
H495 C515 0.931 . S
O496 Co472 2.097 . S
O496 C524 1.214 . S
H497 C525 0.929 . S
H498 C526 0.929 . S
H499 C527 0.930 . S
H500 C528 0.929 . S
H501 C530 0.930 . S
H502 C507 0.930 . S
H503 C511 0.930 . S
O504 Co473 2.037 . S
O504 C524 1.234 . S
C505 O479 1.269 . S
C505 O480 1.257 . S
C506 H481 0.930 . S
C506 C509 1.388 . S
C506 C511 1.418 . S
C507 H502 0.930 . S
C507 C510 1.404 . S
C507 C511 1.353 . S
N508 Co473 2.145 . S
N508 C509 1.397 . S
N508 C510 1.334 . S
C509 H490 0.929 . S
C509 C506 1.388 . S
C509 N508 1.397 . S
C510 H491 0.929 . S
C510 C507 1.404 . S
C510 N508 1.334 . S
C511 H503 0.930 . S
C511 C506 1.418 . S
C511 C507 1.353 . S
C512 H482 0.930 . S
C512 N513 1.330 . S
C512 C514 1.446 . S
N513 Co472 2.151 . S
N513 C512 1.330 . S
N513 C517 1.418 . S
C514 H493 0.929 . S
C514 C512 1.446 . S
C514 C515 1.332 . S
C515 H495 0.931 . S
C515 C514 1.332 . S
C515 C516 1.267 . S
C516 H484 0.929 . S
C516 C515 1.267 . S
C516 C517 1.251 . S
C517 H487 0.929 . S
C517 N513 1.418 . S
C517 C516 1.251 . S
C518 H485 0.930 . S
C518 C520 1.406 . S
C518 C523 1.261 . S
C519 H486 0.930 . S
C519 N521 1.325 . S
C519 C522 1.357 . S
C520 H488 0.928 . S
C520 C518 1.406 . S
C520 N521 1.261 . S
N521 Co472 2.214 . S
N521 C519 1.325 . S
N521 C520 1.261 . S
C522 H492 0.931 . S
C522 C519 1.357 . S
C522 C523 1.312 . S
C523 H494 0.930 . S
C523 C518 1.261 . S
C523 C522 1.312 . S
C524 O496 1.214 . S
C524 O504 1.234 . S
C525 H497 0.929 . S
C525 C528 1.391 . S
C525 C530 1.391 . S
C526 H498 0.929 . S
C526 C527 1.390 . S
C526 N529 1.391 . S
C527 H499 0.930 . S
C527 C526 1.390 . S
C527 C528 1.392 . S
C528 H500 0.929 . S
C528 C525 1.391 . S
C528 C527 1.392 . S
N529 Co473 2.257 1_455 S
N529 C526 1.391 . S
N529 C530 1.388 . S
C530 H501 0.930 . S
C530 C525 1.391 . S
C530 N529 1.388 . S
Co531 O533 2.143 . S
Co531 O539 2.074 . S
Co531 O542 2.093 . S
Co531 O555 2.097 . S
Co531 N572 2.151 . S
Co531 N580 2.214 . S
Co532 O533 2.160 . S
Co532 O538 2.058 . S
Co532 O548 2.057 . S
Co532 O563 2.037 . S
Co532 N567 2.145 . S
Co532 N588 2.257 1_565 S
O533 Co531 2.143 . S
O533 Co532 2.160 . S
C534 O535 1.278 1_565 S
C534 O542 1.224 . S
O535 C534 1.278 1_545 S
C536 O537 1.245 . S
C536 O548 1.232 . S
O537 C536 1.245 . S
O538 Co532 2.058 . S
O538 C564 1.269 . S
O539 Co531 2.074 . S
O539 C564 1.257 . S
H540 C565 0.930 . S
H541 C571 0.930 . S
O542 Co531 2.093 . S
O542 C534 1.224 . S
H543 C575 0.929 . S
H544 C577 0.930 . S
H545 C578 0.930 . S
H546 C576 0.929 . S
H547 C579 0.928 . S
O548 Co532 2.057 . S
O548 C536 1.232 . S
H549 C568 0.929 . S
H550 C569 0.929 . S
H551 C581 0.931 . S
H552 C573 0.929 1_655 S
H553 C582 0.930 . S
H554 C574 0.931 1_655 S
O555 Co531 2.097 . S
O555 C583 1.214 . S
H556 C584 0.929 . S
H557 C585 0.929 . S
H558 C586 0.930 . S
H559 C587 0.929 . S
H560 C589 0.930 . S
H561 C566 0.930 . S
H562 C570 0.930 . S
O563 Co532 2.037 . S
O563 C583 1.234 . S
C564 O538 1.269 . S
C564 O539 1.257 . S
C565 H540 0.930 . S
C565 C568 1.388 . S
C565 C570 1.418 . S
C566 H561 0.930 . S
C566 C569 1.404 . S
C566 C570 1.353 . S
N567 Co532 2.145 . S
N567 C568 1.397 . S
N567 C569 1.334 . S
C568 H549 0.929 . S
C568 C565 1.388 . S
C568 N567 1.397 . S
C569 H550 0.929 . S
C569 C566 1.404 . S
C569 N567 1.334 . S
C570 H562 0.930 . S
C570 C565 1.418 . S
C570 C566 1.353 . S
C571 H541 0.930 . S
C571 N572 1.330 . S
C571 C573 1.446 . S
N572 Co531 2.151 . S
N572 C571 1.330 . S
N572 C576 1.418 . S
C573 H552 0.929 1_455 S
C573 C571 1.446 . S
C573 C574 1.332 . S
C574 H554 0.931 1_455 S
C574 C573 1.332 . S
C574 C575 1.267 . S
C575 H543 0.929 . S
C575 C574 1.267 . S
C575 C576 1.251 . S
C576 H546 0.929 . S
C576 N572 1.418 . S
C576 C575 1.251 . S
C577 H544 0.930 . S
C577 C579 1.406 . S
C577 C582 1.261 . S
C578 H545 0.930 . S
C578 N580 1.325 . S
C578 C581 1.357 . S
C579 H547 0.928 . S
C579 C577 1.406 . S
C579 N580 1.261 . S
N580 Co531 2.214 . S
N580 C578 1.325 . S
N580 C579 1.261 . S
C581 H551 0.931 . S
C581 C578 1.357 . S
C581 C582 1.312 . S
C582 H553 0.930 . S
C582 C577 1.261 . S
C582 C581 1.312 . S
C583 O555 1.214 . S
C583 O563 1.234 . S
C584 H556 0.929 . S
C584 C587 1.391 . S
C584 C589 1.391 . S
C585 H557 0.929 . S
C585 C586 1.390 . S
C585 N588 1.391 . S
C586 H558 0.930 . S
C586 C585 1.390 . S
C586 C587 1.392 . S
C587 H559 0.929 . S
C587 C584 1.391 . S
C587 C586 1.392 . S
N588 Co532 2.257 1_545 S
N588 C585 1.391 . S
N588 C589 1.388 . S
C589 H560 0.930 . S
C589 C584 1.391 . S
C589 N588 1.388 . S
Co590 O592 2.143 . S
Co590 O598 2.074 . S
Co590 O601 2.093 . S
Co590 O614 2.097 . S
Co590 N631 2.151 . S
Co590 N639 2.214 . S
Co591 O592 2.160 . S
Co591 O597 2.058 . S
Co591 O607 2.057 . S
Co591 O622 2.037 . S
Co591 N626 2.145 . S
Co591 N647 2.257 . S
O592 Co590 2.143 . S
O592 Co591 2.160 . S
C593 O594 1.278 . S
C593 O601 1.224 . S
O594 C593 1.278 . S
C595 O596 1.245 . S
C595 O607 1.232 . S
O596 C595 1.245 . S
O597 Co591 2.058 . S
O597 C623 1.269 . S
O598 Co590 2.074 . S
O598 C623 1.257 . S
H599 C624 0.930 . S
H600 C630 0.930 . S
O601 Co590 2.093 . S
O601 C593 1.224 . S
H602 C634 0.929 . S
H603 C636 0.930 . S
H604 C637 0.930 . S
H605 C635 0.929 . S
H606 C638 0.928 . S
O607 Co591 2.057 . S
O607 C595 1.232 . S
H608 C627 0.929 . S
H609 C628 0.929 . S
H610 C640 0.931 . S
H611 C632 0.929 1_565 S
H612 C641 0.930 . S
H613 C633 0.931 1_565 S
O614 Co590 2.097 . S
O614 C642 1.214 . S
H615 C643 0.929 . S
H616 C644 0.929 . S
H617 C645 0.930 . S
H618 C646 0.929 . S
H619 C648 0.930 . S
H620 C625 0.930 . S
H621 C629 0.930 . S
O622 Co591 2.037 . S
O622 C642 1.234 . S
C623 O597 1.269 . S
C623 O598 1.257 . S
C624 H599 0.930 . S
C624 C627 1.388 . S
C624 C629 1.418 . S
C625 H620 0.930 . S
C625 C628 1.404 . S
C625 C629 1.353 . S
N626 Co591 2.145 . S
N626 C627 1.397 . S
N626 C628 1.334 . S
C627 H608 0.929 . S
C627 C624 1.388 . S
C627 N626 1.397 . S
C628 H609 0.929 . S
C628 C625 1.404 . S
C628 N626 1.334 . S
C629 H621 0.930 . S
C629 C624 1.418 . S
C629 C625 1.353 . S
C630 H600 0.930 . S
C630 N631 1.330 . S
C630 C632 1.446 . S
N631 Co590 2.151 . S
N631 C630 1.330 . S
N631 C635 1.418 . S
C632 H611 0.929 1_545 S
C632 C630 1.446 . S
C632 C633 1.332 . S
C633 H613 0.931 1_545 S
C633 C632 1.332 . S
C633 C634 1.267 . S
C634 H602 0.929 . S
C634 C633 1.267 . S
C634 C635 1.251 . S
C635 H605 0.929 . S
C635 N631 1.418 . S
C635 C634 1.251 . S
C636 H603 0.930 . S
C636 C638 1.406 . S
C636 C641 1.261 . S
C637 H604 0.930 . S
C637 N639 1.325 . S
C637 C640 1.357 . S
C638 H606 0.928 . S
C638 C636 1.406 . S
C638 N639 1.261 . S
N639 Co590 2.214 . S
N639 C637 1.325 . S
N639 C638 1.261 . S
C640 H610 0.931 . S
C640 C637 1.357 . S
C640 C641 1.312 . S
C641 H612 0.930 . S
C641 C636 1.261 . S
C641 C640 1.312 . S
C642 O614 1.214 . S
C642 O622 1.234 . S
C643 H615 0.929 . S
C643 C646 1.391 . S
C643 C648 1.391 . S
C644 H616 0.929 . S
C644 C645 1.390 . S
C644 N647 1.391 . S
C645 H617 0.930 . S
C645 C644 1.390 . S
C645 C646 1.392 . S
C646 H618 0.929 . S
C646 C643 1.391 . S
C646 C645 1.392 . S
N647 Co591 2.257 . S
N647 C644 1.391 . S
N647 C648 1.388 . S
C648 H619 0.930 . S
C648 C643 1.391 . S
C648 N647 1.388 . S
Co649 O651 2.143 . S
Co649 O657 2.074 . S
Co649 O660 2.093 . S
Co649 O673 2.097 . S
Co649 N690 2.151 . S
Co649 N698 2.214 . S
Co650 O651 2.160 . S
Co650 O656 2.058 . S
Co650 O666 2.057 . S
Co650 O681 2.037 . S
Co650 N685 2.145 . S
Co650 N706 2.257 . S
O651 Co649 2.143 . S
O651 Co650 2.160 . S
C652 O653 1.278 . S
C652 O660 1.224 . S
O653 C652 1.278 . S
C654 O655 1.245 . S
C654 O666 1.232 . S
O655 C654 1.245 . S
O656 Co650 2.058 . S
O656 C682 1.269 . S
O657 Co649 2.074 . S
O657 C682 1.257 . S
H658 C683 0.930 . S
H659 C689 0.930 . S
O660 Co649 2.093 . S
O660 C652 1.224 . S
H661 C693 0.929 . S
H662 C695 0.930 . S
H663 C696 0.930 . S
H664 C694 0.929 . S
H665 C697 0.928 . S
O666 Co650 2.057 . S
O666 C654 1.232 . S
H667 C686 0.929 . S
H668 C687 0.929 . S
H669 C699 0.931 . S
H670 C691 0.929 . S
H671 C700 0.930 . S
H672 C692 0.931 . S
O673 Co649 2.097 . S
O673 C701 1.214 . S
H674 C702 0.929 . S
H675 C703 0.929 . S
H676 C704 0.930 . S
H677 C705 0.929 . S
H678 C707 0.930 . S
H679 C684 0.930 . S
H680 C688 0.930 . S
O681 Co650 2.037 . S
O681 C701 1.234 . S
C682 O656 1.269 . S
C682 O657 1.257 . S
C683 H658 0.930 . S
C683 C686 1.388 . S
C683 C688 1.418 . S
C684 H679 0.930 . S
C684 C687 1.404 . S
C684 C688 1.353 . S
N685 Co650 2.145 . S
N685 C686 1.397 . S
N685 C687 1.334 . S
C686 H667 0.929 . S
C686 C683 1.388 . S
C686 N685 1.397 . S
C687 H668 0.929 . S
C687 C684 1.404 . S
C687 N685 1.334 . S
C688 H680 0.930 . S
C688 C683 1.418 . S
C688 C684 1.353 . S
C689 H659 0.930 . S
C689 N690 1.330 . S
C689 C691 1.446 . S
N690 Co649 2.151 . S
N690 C689 1.330 . S
N690 C694 1.418 . S
C691 H670 0.929 . S
C691 C689 1.446 . S
C691 C692 1.332 . S
C692 H672 0.931 . S
C692 C691 1.332 . S
C692 C693 1.267 . S
C693 H661 0.929 . S
C693 C692 1.267 . S
C693 C694 1.251 . S
C694 H664 0.929 . S
C694 N690 1.418 . S
C694 C693 1.251 . S
C695 H662 0.930 . S
C695 C697 1.406 . S
C695 C700 1.261 . S
C696 H663 0.930 . S
C696 N698 1.325 . S
C696 C699 1.357 . S
C697 H665 0.928 . S
C697 C695 1.406 . S
C697 N698 1.261 . S
N698 Co649 2.214 . S
N698 C696 1.325 . S
N698 C697 1.261 . S
C699 H669 0.931 . S
C699 C696 1.357 . S
C699 C700 1.312 . S
C700 H671 0.930 . S
C700 C695 1.261 . S
C700 C699 1.312 . S
C701 O673 1.214 . S
C701 O681 1.234 . S
C702 H674 0.929 . S
C702 C705 1.391 . S
C702 C707 1.391 . S
C703 H675 0.929 . S
C703 C704 1.390 . S
C703 N706 1.391 . S
C704 H676 0.930 . S
C704 C703 1.390 . S
C704 C705 1.392 . S
C705 H677 0.929 . S
C705 C702 1.391 . S
C705 C704 1.392 . S
N706 Co650 2.257 . S
N706 C703 1.391 . S
N706 C707 1.388 . S
C707 H678 0.930 . S
C707 C702 1.391 . S
C707 N706 1.388 . S
Co708 O710 2.143 . S
Co708 O716 2.074 . S
Co708 O719 2.093 . S
Co708 O732 2.097 . S
Co708 N749 2.151 . S
Co708 N757 2.214 . S
Co709 O710 2.160 . S
Co709 O715 2.058 . S
Co709 O725 2.057 . S
Co709 O740 2.037 . S
Co709 N744 2.145 . S
Co709 N765 2.257 1_655 S
O710 Co708 2.143 . S
O710 Co709 2.160 . S
C711 O712 1.278 1_655 S
C711 O719 1.224 . S
O712 C711 1.278 1_455 S
C713 O714 1.245 . S
C713 O725 1.232 . S
O714 C713 1.245 . S
O715 Co709 2.058 . S
O715 C741 1.269 . S
O716 Co708 2.074 . S
O716 C741 1.257 . S
H717 C742 0.930 . S
H718 C748 0.930 . S
O719 Co708 2.093 . S
O719 C711 1.224 . S
H720 C752 0.929 . S
H721 C754 0.930 . S
H722 C755 0.930 . S
H723 C753 0.929 . S
H724 C756 0.928 . S
O725 Co709 2.057 . S
O725 C713 1.232 . S
H726 C745 0.929 . S
H727 C746 0.929 . S
H728 C758 0.931 . S
H729 C750 0.929 1_565 S
H730 C759 0.930 . S
H731 C751 0.931 1_565 S
O732 Co708 2.097 . S
O732 C760 1.214 . S
H733 C761 0.929 . S
H734 C762 0.929 . S
H735 C763 0.930 . S
H736 C764 0.929 . S
H737 C766 0.930 . S
H738 C743 0.930 . S
H739 C747 0.930 . S
O740 Co709 2.037 . S
O740 C760 1.234 . S
C741 O715 1.269 . S
C741 O716 1.257 . S
C742 H717 0.930 . S
C742 C745 1.388 . S
C742 C747 1.418 . S
C743 H738 0.930 . S
C743 C746 1.404 . S
C743 C747 1.353 . S
N744 Co709 2.145 . S
N744 C745 1.397 . S
N744 C746 1.334 . S
C745 H726 0.929 . S
C745 C742 1.388 . S
C745 N744 1.397 . S
C746 H727 0.929 . S
C746 C743 1.404 . S
C746 N744 1.334 . S
C747 H739 0.930 . S
C747 C742 1.418 . S
C747 C743 1.353 . S
C748 H718 0.930 . S
C748 N749 1.330 . S
C748 C750 1.446 . S
N749 Co708 2.151 . S
N749 C748 1.330 . S
N749 C753 1.418 . S
C750 H729 0.929 1_545 S
C750 C748 1.446 . S
C750 C751 1.332 . S
C751 H731 0.931 1_545 S
C751 C750 1.332 . S
C751 C752 1.267 . S
C752 H720 0.929 . S
C752 C751 1.267 . S
C752 C753 1.251 . S
C753 H723 0.929 . S
C753 N749 1.418 . S
C753 C752 1.251 . S
C754 H721 0.930 . S
C754 C756 1.406 . S
C754 C759 1.261 . S
C755 H722 0.930 . S
C755 N757 1.325 . S
C755 C758 1.357 . S
C756 H724 0.928 . S
C756 C754 1.406 . S
C756 N757 1.261 . S
N757 Co708 2.214 . S
N757 C755 1.325 . S
N757 C756 1.261 . S
C758 H728 0.931 . S
C758 C755 1.357 . S
C758 C759 1.312 . S
C759 H730 0.930 . S
C759 C754 1.261 . S
C759 C758 1.312 . S
C760 O732 1.214 . S
C760 O740 1.234 . S
C761 H733 0.929 . S
C761 C764 1.391 . S
C761 C766 1.391 . S
C762 H734 0.929 . S
C762 C763 1.390 . S
C762 N765 1.391 . S
C763 H735 0.930 . S
C763 C762 1.390 . S
C763 C764 1.392 . S
C764 H736 0.929 . S
C764 C761 1.391 . S
C764 C763 1.392 . S
N765 Co709 2.257 1_455 S
N765 C762 1.391 . S
N765 C766 1.388 . S
C766 H737 0.930 . S
C766 C761 1.391 . S
C766 N765 1.388 . S
Co767 O769 2.143 . S
Co767 O775 2.074 . S
Co767 O778 2.093 . S
Co767 O791 2.097 . S
Co767 N808 2.151 . S
Co767 N816 2.214 . S
Co768 O769 2.160 . S
Co768 O774 2.058 . S
Co768 O784 2.057 . S
Co768 O799 2.037 . S
Co768 N803 2.145 . S
Co768 N824 2.257 1_565 S
O769 Co767 2.143 . S
O769 Co768 2.160 . S
C770 O771 1.278 1_565 S
C770 O778 1.224 . S
O771 C770 1.278 1_545 S
C772 O773 1.245 . S
C772 O784 1.232 . S
O773 C772 1.245 . S
O774 Co768 2.058 . S
O774 C800 1.269 . S
O775 Co767 2.074 . S
O775 C800 1.257 . S
H776 C801 0.930 . S
H777 C807 0.930 . S
O778 Co767 2.093 . S
O778 C770 1.224 . S
H779 C811 0.929 . S
H780 C813 0.930 . S
H781 C814 0.930 . S
H782 C812 0.929 . S
H783 C815 0.928 . S
O784 Co768 2.057 . S
O784 C772 1.232 . S
H785 C804 0.929 . S
H786 C805 0.929 . S
H787 C817 0.931 . S
H788 C809 0.929 . S
H789 C818 0.930 . S
H790 C810 0.931 . S
O791 Co767 2.097 . S
O791 C819 1.214 . S
H792 C820 0.929 . S
H793 C821 0.929 . S
H794 C822 0.930 . S
H795 C823 0.929 . S
H796 C825 0.930 . S
H797 C802 0.930 . S
H798 C806 0.930 . S
O799 Co768 2.037 . S
O799 C819 1.234 . S
C800 O774 1.269 . S
C800 O775 1.257 . S
C801 H776 0.930 . S
C801 C804 1.388 . S
C801 C806 1.418 . S
C802 H797 0.930 . S
C802 C805 1.404 . S
C802 C806 1.353 . S
N803 Co768 2.145 . S
N803 C804 1.397 . S
N803 C805 1.334 . S
C804 H785 0.929 . S
C804 C801 1.388 . S
C804 N803 1.397 . S
C805 H786 0.929 . S
C805 C802 1.404 . S
C805 N803 1.334 . S
C806 H798 0.930 . S
C806 C801 1.418 . S
C806 C802 1.353 . S
C807 H777 0.930 . S
C807 N808 1.330 . S
C807 C809 1.446 . S
N808 Co767 2.151 . S
N808 C807 1.330 . S
N808 C812 1.418 . S
C809 H788 0.929 . S
C809 C807 1.446 . S
C809 C810 1.332 . S
C810 H790 0.931 . S
C810 C809 1.332 . S
C810 C811 1.267 . S
C811 H779 0.929 . S
C811 C810 1.267 . S
C811 C812 1.251 . S
C812 H782 0.929 . S
C812 N808 1.418 . S
C812 C811 1.251 . S
C813 H780 0.930 . S
C813 C815 1.406 . S
C813 C818 1.261 . S
C814 H781 0.930 . S
C814 N816 1.325 . S
C814 C817 1.357 . S
C815 H783 0.928 . S
C815 C813 1.406 . S
C815 N816 1.261 . S
N816 Co767 2.214 . S
N816 C814 1.325 . S
N816 C815 1.261 . S
C817 H787 0.931 . S
C817 C814 1.357 . S
C817 C818 1.312 . S
C818 H789 0.930 . S
C818 C813 1.261 . S
C818 C817 1.312 . S
C819 O791 1.214 . S
C819 O799 1.234 . S
C820 H792 0.929 . S
C820 C823 1.391 . S
C820 C825 1.391 . S
C821 H793 0.929 . S
C821 C822 1.390 . S
C821 N824 1.391 . S
C822 H794 0.930 . S
C822 C821 1.390 . S
C822 C823 1.392 . S
C823 H795 0.929 . S
C823 C820 1.391 . S
C823 C822 1.392 . S
N824 Co768 2.257 1_545 S
N824 C821 1.391 . S
N824 C825 1.388 . S
C825 H796 0.930 . S
C825 C820 1.391 . S
C825 N824 1.388 . S
Co826 O828 2.143 . S
Co826 O834 2.074 . S
Co826 O837 2.093 . S
Co826 O850 2.097 . S
Co826 N867 2.151 . S
Co826 N875 2.214 . S
Co827 O828 2.160 . S
Co827 O833 2.058 . S
Co827 O843 2.057 . S
Co827 O858 2.037 . S
Co827 N862 2.145 . S
Co827 N883 2.257 . S
O828 Co826 2.143 . S
O828 Co827 2.160 . S
C829 O830 1.278 . S
C829 O837 1.224 . S
O830 C829 1.278 . S
C831 O832 1.245 . S
C831 O843 1.232 . S
O832 C831 1.245 . S
O833 Co827 2.058 . S
O833 C859 1.269 . S
O834 Co826 2.074 . S
O834 C859 1.257 . S
H835 C860 0.930 . S
H836 C866 0.930 . S
O837 Co826 2.093 . S
O837 C829 1.224 . S
H838 C870 0.929 . S
H839 C872 0.930 . S
H840 C873 0.930 . S
H841 C871 0.929 . S
H842 C874 0.928 . S
O843 Co827 2.057 . S
O843 C831 1.232 . S
H844 C863 0.929 . S
H845 C864 0.929 . S
H846 C876 0.931 . S
H847 C868 0.929 . S
H848 C877 0.930 . S
H849 C869 0.931 . S
O850 Co826 2.097 . S
O850 C878 1.214 . S
H851 C879 0.929 . S
H852 C880 0.929 . S
H853 C881 0.930 . S
H854 C882 0.929 . S
H855 C884 0.930 . S
H856 C861 0.930 . S
H857 C865 0.930 . S
O858 Co827 2.037 . S
O858 C878 1.234 . S
C859 O833 1.269 . S
C859 O834 1.257 . S
C860 H835 0.930 . S
C860 C863 1.388 . S
C860 C865 1.418 . S
C861 H856 0.930 . S
C861 C864 1.404 . S
C861 C865 1.353 . S
N862 Co827 2.145 . S
N862 C863 1.397 . S
N862 C864 1.334 . S
C863 H844 0.929 . S
C863 C860 1.388 . S
C863 N862 1.397 . S
C864 H845 0.929 . S
C864 C861 1.404 . S
C864 N862 1.334 . S
C865 H857 0.930 . S
C865 C860 1.418 . S
C865 C861 1.353 . S
C866 H836 0.930 . S
C866 N867 1.330 . S
C866 C868 1.446 . S
N867 Co826 2.151 . S
N867 C866 1.330 . S
N867 C871 1.418 . S
C868 H847 0.929 . S
C868 C866 1.446 . S
C868 C869 1.332 . S
C869 H849 0.931 . S
C869 C868 1.332 . S
C869 C870 1.267 . S
C870 H838 0.929 . S
C870 C869 1.267 . S
C870 C871 1.251 . S
C871 H841 0.929 . S
C871 N867 1.418 . S
C871 C870 1.251 . S
C872 H839 0.930 . S
C872 C874 1.406 . S
C872 C877 1.261 . S
C873 H840 0.930 . S
C873 N875 1.325 . S
C873 C876 1.357 . S
C874 H842 0.928 . S
C874 C872 1.406 . S
C874 N875 1.261 . S
N875 Co826 2.214 . S
N875 C873 1.325 . S
N875 C874 1.261 . S
C876 H846 0.931 . S
C876 C873 1.357 . S
C876 C877 1.312 . S
C877 H848 0.930 . S
C877 C872 1.261 . S
C877 C876 1.312 . S
C878 O850 1.214 . S
C878 O858 1.234 . S
C879 H851 0.929 . S
C879 C882 1.391 . S
C879 C884 1.391 . S
C880 H852 0.929 . S
C880 C881 1.390 . S
C880 N883 1.391 . S
C881 H853 0.930 . S
C881 C880 1.390 . S
C881 C882 1.392 . S
C882 H854 0.929 . S
C882 C879 1.391 . S
C882 C881 1.392 . S
N883 Co827 2.257 . S
N883 C880 1.391 . S
N883 C884 1.388 . S
C884 H855 0.930 . S
C884 C879 1.391 . S
C884 N883 1.388 . S
Co885 O887 2.143 . S
Co885 O893 2.074 . S
Co885 O896 2.093 . S
Co885 O909 2.097 . S
Co885 N926 2.151 . S
Co885 N934 2.214 . S
Co886 O887 2.160 . S
Co886 O892 2.058 . S
Co886 O902 2.057 . S
Co886 O917 2.037 . S
Co886 N921 2.145 . S
Co886 N942 2.257 . S
O887 Co885 2.143 . S
O887 Co886 2.160 . S
C888 O889 1.278 . S
C888 O896 1.224 . S
O889 C888 1.278 . S
C890 O891 1.245 . S
C890 O902 1.232 . S
O891 C890 1.245 . S
O892 Co886 2.058 . S
O892 C918 1.269 . S
O893 Co885 2.074 . S
O893 C918 1.257 . S
H894 C919 0.930 . S
H895 C925 0.930 . S
O896 Co885 2.093 . S
O896 C888 1.224 . S
H897 C929 0.929 . S
H898 C931 0.930 . S
H899 C932 0.930 . S
H900 C930 0.929 . S
H901 C933 0.928 . S
O902 Co886 2.057 . S
O902 C890 1.232 . S
H903 C922 0.929 . S
H904 C923 0.929 . S
H905 C935 0.931 . S
H906 C927 0.929 1_655 S
H907 C936 0.930 . S
H908 C928 0.931 1_655 S
O909 Co885 2.097 . S
O909 C937 1.214 . S
H910 C938 0.929 . S
H911 C939 0.929 . S
H912 C940 0.930 . S
H913 C941 0.929 . S
H914 C943 0.930 . S
H915 C920 0.930 . S
H916 C924 0.930 . S
O917 Co886 2.037 . S
O917 C937 1.234 . S
C918 O892 1.269 . S
C918 O893 1.257 . S
C919 H894 0.930 . S
C919 C922 1.388 . S
C919 C924 1.418 . S
C920 H915 0.930 . S
C920 C923 1.404 . S
C920 C924 1.353 . S
N921 Co886 2.145 . S
N921 C922 1.397 . S
N921 C923 1.334 . S
C922 H903 0.929 . S
C922 C919 1.388 . S
C922 N921 1.397 . S
C923 H904 0.929 . S
C923 C920 1.404 . S
C923 N921 1.334 . S
C924 H916 0.930 . S
C924 C919 1.418 . S
C924 C920 1.353 . S
C925 H895 0.930 . S
C925 N926 1.330 . S
C925 C927 1.446 . S
N926 Co885 2.151 . S
N926 C925 1.330 . S
N926 C930 1.418 . S
C927 H906 0.929 1_455 S
C927 C925 1.446 . S
C927 C928 1.332 . S
C928 H908 0.931 1_455 S
C928 C927 1.332 . S
C928 C929 1.267 . S
C929 H897 0.929 . S
C929 C928 1.267 . S
C929 C930 1.251 . S
C930 H900 0.929 . S
C930 N926 1.418 . S
C930 C929 1.251 . S
C931 H898 0.930 . S
C931 C933 1.406 . S
C931 C936 1.261 . S
C932 H899 0.930 . S
C932 N934 1.325 . S
C932 C935 1.357 . S
C933 H901 0.928 . S
C933 C931 1.406 . S
C933 N934 1.261 . S
N934 Co885 2.214 . S
N934 C932 1.325 . S
N934 C933 1.261 . S
C935 H905 0.931 . S
C935 C932 1.357 . S
C935 C936 1.312 . S
C936 H907 0.930 . S
C936 C931 1.261 . S
C936 C935 1.312 . S
C937 O909 1.214 . S
C937 O917 1.234 . S
C938 H910 0.929 . S
C938 C941 1.391 . S
C938 C943 1.391 . S
C939 H911 0.929 . S
C939 C940 1.390 . S
C939 N942 1.391 . S
C940 H912 0.930 . S
C940 C939 1.390 . S
C940 C941 1.392 . S
C941 H913 0.929 . S
C941 C938 1.391 . S
C941 C940 1.392 . S
N942 Co886 2.257 . S
N942 C939 1.391 . S
N942 C943 1.388 . S
C943 H914 0.930 . S
C943 C938 1.391 . S
C943 N942 1.388 . S
H944 C950 0.930 . S
H945 C954 0.930 . S
H946 C959 0.929 . S
H947 C957 0.929 . S
H948 C952 0.929 . S
H949 C958 0.929 . S
C950 H944 0.930 . S
C950 C951 1.367 . S
C950 C958 1.378 . S
C951 C950 1.367 . S
C951 C959 1.433 . S
C952 H948 0.929 . S
C952 C954 1.378 . S
C952 C956 1.350 . S
C953 C956 1.463 . S
C953 C958 1.350 . S
C953 N961 1.427 . S
C954 H945 0.930 . S
C954 C952 1.378 . S
C954 C955 1.367 . S
C955 C954 1.367 . S
C955 C957 1.433 . S
C956 C952 1.350 . S
C956 C953 1.463 . S
C956 N960 1.427 . S
C957 H947 0.929 . S
C957 C955 1.433 . S
C957 N960 1.384 . S
C958 H949 0.929 . S
C958 C950 1.378 . S
C958 C953 1.350 . S
C959 H946 0.929 . S
C959 C951 1.433 . S
C959 N961 1.384 . S
N960 C956 1.427 . S
N960 C957 1.384 . S
N961 C953 1.427 . S
N961 C959 1.384 . S
H962 C968 0.930 . S
H963 C972 0.930 . S
H964 C977 0.929 . S
H965 C975 0.929 . S
H966 C970 0.929 . S
H967 C976 0.929 . S
C968 H962 0.930 . S
C968 C969 1.367 . S
C968 C976 1.378 . S
C969 C968 1.367 . S
C969 C977 1.433 . S
C970 H966 0.929 . S
C970 C972 1.378 . S
C970 C974 1.350 . S
C971 C974 1.463 . S
C971 C976 1.350 . S
C971 N979 1.427 . S
C972 H963 0.930 . S
C972 C970 1.378 . S
C972 C973 1.367 . S
C973 C972 1.367 . S
C973 C975 1.433 . S
C974 C970 1.350 . S
C974 C971 1.463 . S
C974 N978 1.427 . S
C975 H965 0.929 . S
C975 C973 1.433 . S
C975 N978 1.384 . S
C976 H967 0.929 . S
C976 C968 1.378 . S
C976 C971 1.350 . S
C977 H964 0.929 . S
C977 C969 1.433 . S
C977 N979 1.384 . S
N978 C974 1.427 . S
N978 C975 1.384 . S
N979 C971 1.427 . S
N979 C977 1.384 . S
H980 C986 0.930 . S
H981 C990 0.930 . S
H982 C995 0.929 . S
H983 C993 0.929 . S
H984 C988 0.929 . S
H985 C994 0.929 . S
C986 H980 0.930 . S
C986 C987 1.367 . S
C986 C994 1.378 . S
C987 C986 1.367 . S
C987 C995 1.433 . S
C988 H984 0.929 . S
C988 C990 1.378 . S
C988 C992 1.350 . S
C989 C992 1.463 . S
C989 C994 1.350 . S
C989 N997 1.427 . S
C990 H981 0.930 . S
C990 C988 1.378 . S
C990 C991 1.367 . S
C991 C990 1.367 . S
C991 C993 1.433 . S
C992 C988 1.350 . S
C992 C989 1.463 . S
C992 N996 1.427 . S
C993 H983 0.929 . S
C993 C991 1.433 . S
C993 N996 1.384 . S
C994 H985 0.929 . S
C994 C986 1.378 . S
C994 C989 1.350 . S
C995 H982 0.929 . S
C995 C987 1.433 . S
C995 N997 1.384 . S
N996 C992 1.427 . S
N996 C993 1.384 . S
N997 C989 1.427 . S
N997 C995 1.384 . S
H998 C1004 0.930 . S
H999 C1008 0.930 . S
H1000 C1013 0.929 . S
H1001 C1011 0.929 . S
H1002 C1006 0.929 . S
H1003 C1012 0.929 . S
C1004 H998 0.930 . S
C1004 C1005 1.367 . S
C1004 C1012 1.378 . S
C1005 C1004 1.367 . S
C1005 C1013 1.433 . S
C1006 H1002 0.929 . S
C1006 C1008 1.378 . S
C1006 C1010 1.350 . S
C1007 C1010 1.463 . S
C1007 C1012 1.350 . S
C1007 N1015 1.427 . S
C1008 H999 0.930 . S
C1008 C1006 1.378 . S
C1008 C1009 1.367 . S
C1009 C1008 1.367 . S
C1009 C1011 1.433 . S
C1010 C1006 1.350 . S
C1010 C1007 1.463 . S
C1010 N1014 1.427 . S
C1011 H1001 0.929 . S
C1011 C1009 1.433 . S
C1011 N1014 1.384 . S
C1012 H1003 0.929 . S
C1012 C1004 1.378 . S
C1012 C1007 1.350 . S
C1013 H1000 0.929 . S
C1013 C1005 1.433 . S
C1013 N1015 1.384 . S
N1014 C1010 1.427 . S
N1014 C1011 1.384 . S
N1015 C1007 1.427 . S
N1015 C1013 1.384 . S
H1016 C1022 0.930 . S
H1017 C1026 0.930 . S
H1018 C1031 0.929 . S
H1019 C1029 0.929 . S
H1020 C1024 0.929 . S
H1021 C1030 0.929 . S
C1022 H1016 0.930 . S
C1022 C1023 1.367 . S
C1022 C1030 1.378 . S
C1023 C1022 1.367 . S
C1023 C1031 1.433 . S
C1024 H1020 0.929 . S
C1024 C1026 1.378 . S
C1024 C1028 1.350 . S
C1025 C1028 1.463 . S
C1025 C1030 1.350 . S
C1025 N1033 1.427 . S
C1026 H1017 0.930 . S
C1026 C1024 1.378 . S
C1026 C1027 1.367 . S
C1027 C1026 1.367 . S
C1027 C1029 1.433 . S
C1028 C1024 1.350 . S
C1028 C1025 1.463 . S
C1028 N1032 1.427 . S
C1029 H1019 0.929 . S
C1029 C1027 1.433 . S
C1029 N1032 1.384 . S
C1030 H1021 0.929 . S
C1030 C1022 1.378 . S
C1030 C1025 1.350 . S
C1031 H1018 0.929 . S
C1031 C1023 1.433 . S
C1031 N1033 1.384 . S
N1032 C1028 1.427 . S
N1032 C1029 1.384 . S
N1033 C1025 1.427 . S
N1033 C1031 1.384 . S
H1034 C1040 0.930 . S
H1035 C1044 0.930 . S
H1036 C1049 0.929 . S
H1037 C1047 0.929 . S
H1038 C1042 0.929 . S
H1039 C1048 0.929 . S
C1040 H1034 0.930 . S
C1040 C1041 1.367 . S
C1040 C1048 1.378 . S
C1041 C1040 1.367 . S
C1041 C1049 1.433 . S
C1042 H1038 0.929 . S
C1042 C1044 1.378 . S
C1042 C1046 1.350 . S
C1043 C1046 1.463 . S
C1043 C1048 1.350 . S
C1043 N1051 1.427 . S
C1044 H1035 0.930 . S
C1044 C1042 1.378 . S
C1044 C1045 1.367 . S
C1045 C1044 1.367 . S
C1045 C1047 1.433 . S
C1046 C1042 1.350 . S
C1046 C1043 1.463 . S
C1046 N1050 1.427 . S
C1047 H1037 0.929 . S
C1047 C1045 1.433 . S
C1047 N1050 1.384 . S
C1048 H1039 0.929 . S
C1048 C1040 1.378 . S
C1048 C1043 1.350 . S
C1049 H1036 0.929 . S
C1049 C1041 1.433 . S
C1049 N1051 1.384 . S
N1050 C1046 1.427 . S
N1050 C1047 1.384 . S
N1051 C1043 1.427 . S
N1051 C1049 1.384 . S
H1052 C1058 0.930 . S
H1053 C1062 0.930 . S
H1054 C1067 0.929 . S
H1055 C1065 0.929 . S
H1056 C1060 0.929 . S
H1057 C1066 0.929 . S
C1058 H1052 0.930 . S
C1058 C1059 1.367 . S
C1058 C1066 1.378 . S
C1059 C1058 1.367 . S
C1059 C1067 1.433 . S
C1060 H1056 0.929 . S
C1060 C1062 1.378 . S
C1060 C1064 1.350 . S
C1061 C1064 1.463 . S
C1061 C1066 1.350 . S
C1061 N1069 1.427 . S
C1062 H1053 0.930 . S
C1062 C1060 1.378 . S
C1062 C1063 1.367 . S
C1063 C1062 1.367 . S
C1063 C1065 1.433 . S
C1064 C1060 1.350 . S
C1064 C1061 1.463 . S
C1064 N1068 1.427 . S
C1065 H1055 0.929 . S
C1065 C1063 1.433 . S
C1065 N1068 1.384 . S
C1066 H1057 0.929 . S
C1066 C1058 1.378 . S
C1066 C1061 1.350 . S
C1067 H1054 0.929 . S
C1067 C1059 1.433 . S
C1067 N1069 1.384 . S
N1068 C1064 1.427 . S
N1068 C1065 1.384 . S
N1069 C1061 1.427 . S
N1069 C1067 1.384 . S
H1070 C1076 0.930 . S
H1071 C1080 0.930 . S
H1072 C1085 0.929 . S
H1073 C1083 0.929 . S
H1074 C1078 0.929 . S
H1075 C1084 0.929 . S
C1076 H1070 0.930 . S
C1076 C1077 1.367 . S
C1076 C1084 1.378 . S
C1077 C1076 1.367 . S
C1077 C1085 1.433 . S
C1078 H1074 0.929 . S
C1078 C1080 1.378 . S
C1078 C1082 1.350 . S
C1079 C1082 1.463 . S
C1079 C1084 1.350 . S
C1079 N1087 1.427 . S
C1080 H1071 0.930 . S
C1080 C1078 1.378 . S
C1080 C1081 1.367 . S
C1081 C1080 1.367 . S
C1081 C1083 1.433 . S
C1082 C1078 1.350 . S
C1082 C1079 1.463 . S
C1082 N1086 1.427 . S
C1083 H1073 0.929 . S
C1083 C1081 1.433 . S
C1083 N1086 1.384 . S
C1084 H1075 0.929 . S
C1084 C1076 1.378 . S
C1084 C1079 1.350 . S
C1085 H1072 0.929 . S
C1085 C1077 1.433 . S
C1085 N1087 1.384 . S
N1086 C1082 1.427 . S
N1086 C1083 1.384 . S
N1087 C1079 1.427 . S
N1087 C1085 1.384 . S
H1088 C1094 0.930 . S
H1089 C1098 0.930 . S
H1090 C1103 0.929 . S
H1091 C1101 0.929 . S
H1092 C1096 0.929 . S
H1093 C1102 0.929 . S
C1094 H1088 0.930 . S
C1094 C1095 1.367 . S
C1094 C1102 1.378 . S
C1095 C1094 1.367 . S
C1095 C1103 1.433 . S
C1096 H1092 0.929 . S
C1096 C1098 1.378 . S
C1096 C1100 1.350 . S
C1097 C1100 1.463 . S
C1097 C1102 1.350 . S
C1097 N1105 1.427 . S
C1098 H1089 0.930 . S
C1098 C1096 1.378 . S
C1098 C1099 1.367 1_655 S
C1099 C1098 1.367 1_455 S
C1099 C1101 1.433 . S
C1100 C1096 1.350 . S
C1100 C1097 1.463 . S
C1100 N1104 1.427 . S
C1101 H1091 0.929 . S
C1101 C1099 1.433 . S
C1101 N1104 1.384 1_455 S
C1102 H1093 0.929 . S
C1102 C1094 1.378 . S
C1102 C1097 1.350 . S
C1103 H1090 0.929 . S
C1103 C1095 1.433 . S
C1103 N1105 1.384 . S
N1104 C1100 1.427 . S
N1104 C1101 1.384 1_655 S
N1105 C1097 1.427 . S
N1105 C1103 1.384 . S
H1106 C1112 0.930 . S
H1107 C1116 0.930 . S
H1108 C1121 0.929 . S
H1109 C1119 0.929 . S
H1110 C1114 0.929 . S
H1111 C1120 0.927 1_445 S
C1112 H1106 0.930 . S
C1112 C1113 1.367 . S
C1112 C1120 1.378 1_545 S
C1113 C1112 1.367 . S
C1113 C1121 1.433 1_545 S
C1114 H1110 0.929 . S
C1114 C1116 1.378 . S
C1114 C1118 1.350 . S
C1115 C1118 1.463 . S
C1115 C1120 1.350 . S
C1115 N1123 1.427 . S
C1116 H1107 0.930 . S
C1116 C1114 1.378 . S
C1116 C1117 1.367 1_655 S
C1117 C1116 1.367 1_455 S
C1117 C1119 1.433 . S
C1118 C1114 1.350 . S
C1118 C1115 1.463 . S
C1118 N1122 1.427 1_655 S
C1119 H1109 0.929 . S
C1119 C1117 1.433 . S
C1119 N1122 1.384 . S
C1120 H1111 0.927 1_665 S
C1120 C1112 1.378 1_565 S
C1120 C1115 1.350 . S
C1121 H1108 0.929 . S
C1121 C1113 1.433 1_565 S
C1121 N1123 1.384 . S
N1122 C1118 1.427 1_455 S
N1122 C1119 1.384 . S
N1123 C1115 1.427 . S
N1123 C1121 1.384 . S
H1124 C1130 0.930 . S
H1125 C1134 0.930 . S
H1126 C1139 0.929 . S
H1127 C1137 0.929 . S
H1128 C1132 0.929 . S
H1129 C1138 0.929 . S
C1130 H1124 0.930 . S
C1130 C1131 1.367 1_565 S
C1130 C1138 1.378 . S
C1131 C1130 1.367 1_545 S
C1131 C1139 1.433 . S
C1132 H1128 0.929 . S
C1132 C1134 1.378 . S
C1132 C1136 1.350 . S
C1133 C1136 1.463 . S
C1133 C1138 1.350 . S
C1133 N1141 1.427 . S
C1134 H1125 0.930 . S
C1134 C1132 1.378 . S
C1134 C1135 1.367 . S
C1135 C1134 1.367 . S
C1135 C1137 1.433 . S
C1136 C1132 1.350 . S
C1136 C1133 1.463 . S
C1136 N1140 1.427 . S
C1137 H1127 0.929 . S
C1137 C1135 1.433 . S
C1137 N1140 1.384 . S
C1138 H1129 0.929 . S
C1138 C1130 1.378 . S
C1138 C1133 1.350 . S
C1139 H1126 0.929 . S
C1139 C1131 1.433 . S
C1139 N1141 1.384 1_545 S
N1140 C1136 1.427 . S
N1140 C1137 1.384 . S
N1141 C1133 1.427 . S
N1141 C1139 1.384 1_565 S
H1142 C1148 0.930 . S
H1143 C1152 0.930 . S
H1144 C1157 0.929 . S
H1145 C1155 0.929 . S
H1146 C1150 0.929 . S
H1147 C1156 0.929 . S
C1148 H1142 0.930 . S
C1148 C1149 1.367 . S
C1148 C1156 1.378 . S
C1149 C1148 1.367 . S
C1149 C1157 1.433 . S
C1150 H1146 0.929 . S
C1150 C1152 1.378 . S
C1150 C1154 1.350 . S
C1151 C1154 1.463 . S
C1151 C1156 1.350 . S
C1151 N1159 1.427 . S
C1152 H1143 0.930 . S
C1152 C1150 1.378 . S
C1152 C1153 1.367 . S
C1153 C1152 1.367 . S
C1153 C1155 1.433 . S
C1154 C1150 1.350 . S
C1154 C1151 1.463 . S
C1154 N1158 1.427 . S
C1155 H1145 0.929 . S
C1155 C1153 1.433 . S
C1155 N1158 1.384 . S
C1156 H1147 0.929 . S
C1156 C1148 1.378 . S
C1156 C1151 1.350 . S
C1157 H1144 0.929 . S
C1157 C1149 1.433 . S
C1157 N1159 1.384 . S
N1158 C1154 1.427 . S
N1158 C1155 1.384 . S
N1159 C1151 1.427 . S
N1159 C1157 1.384 . S
H1160 C1166 0.930 . S
H1161 C1170 0.930 . S
H1162 C1175 0.929 . S
H1163 C1173 0.929 . S
H1164 C1168 0.929 . S
H1165 C1174 0.929 . S
C1166 H1160 0.930 . S
C1166 C1167 1.367 . S
C1166 C1174 1.378 . S
C1167 C1166 1.367 . S
C1167 C1175 1.433 . S
C1168 H1164 0.929 . S
C1168 C1170 1.378 . S
C1168 C1172 1.350 . S
C1169 C1172 1.463 . S
C1169 C1174 1.350 . S
C1169 N1177 1.427 . S
C1170 H1161 0.930 . S
C1170 C1168 1.378 . S
C1170 C1171 1.367 1_455 S
C1171 C1170 1.367 1_655 S
C1171 C1173 1.433 . S
C1172 C1168 1.350 . S
C1172 C1169 1.463 . S
C1172 N1176 1.433 . S
C1173 H1163 0.929 . S
C1173 C1171 1.433 . S
C1173 N1176 1.380 1_655 S
C1174 H1165 0.929 . S
C1174 C1166 1.378 . S
C1174 C1169 1.350 . S
C1175 H1162 0.929 . S
C1175 C1167 1.433 . S
C1175 N1177 1.384 . S
N1176 C1172 1.433 . S
N1176 C1173 1.380 1_455 S
N1177 C1169 1.427 . S
N1177 C1175 1.384 . S
H1178 C1184 0.930 . S
H1179 C1188 0.930 . S
H1180 C1193 0.929 . S
H1181 C1191 0.929 . S
H1182 C1186 0.929 . S
H1183 C1192 0.929 . S
C1184 H1178 0.930 . S
C1184 C1185 1.367 1_545 S
C1184 C1192 1.378 . S
C1185 C1184 1.367 1_565 S
C1185 C1193 1.433 . S
C1186 H1182 0.929 . S
C1186 C1188 1.378 . S
C1186 C1190 1.350 . S
C1187 C1190 1.463 . S
C1187 C1192 1.350 . S
C1187 N1195 1.444 . S
C1188 H1179 0.930 . S
C1188 C1186 1.378 . S
C1188 C1189 1.367 1_455 S
C1189 C1188 1.367 1_655 S
C1189 C1191 1.433 . S
C1190 C1186 1.350 . S
C1190 C1187 1.463 . S
C1190 N1194 1.427 1_455 S
C1191 H1181 0.929 . S
C1191 C1189 1.433 . S
C1191 N1194 1.384 . S
C1192 H1183 0.929 . S
C1192 C1184 1.378 . S
C1192 C1187 1.350 . S
C1193 H1180 0.929 . S
C1193 C1185 1.433 . S
C1193 N1195 1.374 1_565 S
N1194 C1190 1.427 1_655 S
N1194 C1191 1.384 . S
N1195 C1187 1.444 . S
N1195 C1193 1.374 1_545 S
H1196 C1202 0.930 . S
H1197 C1206 0.930 . S
H1198 C1211 0.929 . S
H1199 C1209 0.929 . S
H1200 C1204 0.929 . S
H1201 C1210 0.929 . S
C1202 H1196 0.930 . S
C1202 C1203 1.367 . S
C1202 C1210 1.378 . S
C1203 C1202 1.367 . S
C1203 C1211 1.433 . S
C1204 H1200 0.929 . S
C1204 C1206 1.378 . S
C1204 C1208 1.350 1_565 S
C1205 C1208 1.463 . S
C1205 C1210 1.350 . S
C1205 N1213 1.427 . S
C1206 H1197 0.930 . S
C1206 C1204 1.378 . S
C1206 C1207 1.367 . S
C1207 C1206 1.367 . S
C1207 C1209 1.433 1_565 S
C1208 C1204 1.350 1_545 S
C1208 C1205 1.463 . S
C1208 N1212 1.427 . S
C1209 H1199 0.929 . S
C1209 C1207 1.433 1_545 S
C1209 N1212 1.384 . S
C1210 H1201 0.929 . S
C1210 C1202 1.378 . S
C1210 C1205 1.350 . S
C1211 H1198 0.929 . S
C1211 C1203 1.433 . S
C1211 N1213 1.384 . S
N1212 C1208 1.427 . S
N1212 C1209 1.384 . S
N1213 C1205 1.427 . S
N1213 C1211 1.384 . S
H1214 C1220 0.930 . S
H1215 C1224 0.930 . S
H1216 C1229 0.929 . S
H1217 C1227 0.929 . S
H1218 C1222 0.929 . S
H1219 C1228 0.929 . S
C1220 H1214 0.930 . S
C1220 C1221 1.367 . S
C1220 C1228 1.378 . S
C1221 C1220 1.367 . S
C1221 C1229 1.433 . S
C1222 H1218 0.929 . S
C1222 C1224 1.378 . S
C1222 C1226 1.350 . S
C1223 C1226 1.463 . S
C1223 C1228 1.350 . S
C1223 N1231 1.427 . S
C1224 H1215 0.930 . S
C1224 C1222 1.378 . S
C1224 C1225 1.367 . S
C1225 C1224 1.367 . S
C1225 C1227 1.433 . S
C1226 C1222 1.350 . S
C1226 C1223 1.463 . S
C1226 N1230 1.427 . S
C1227 H1217 0.929 . S
C1227 C1225 1.433 . S
C1227 N1230 1.384 . S
C1228 H1219 0.929 . S
C1228 C1220 1.378 . S
C1228 C1223 1.350 . S
C1229 H1216 0.929 . S
C1229 C1221 1.433 . S
C1229 N1231 1.384 . S
N1230 C1226 1.427 . S
N1230 C1227 1.384 . S
N1231 C1223 1.427 . S
N1231 C1229 1.384 . S
H1232 C1238 0.930 . S
H1233 C1242 0.930 . S
H1234 C1247 0.929 . S
H1235 C1245 0.929 . S
H1236 C1240 0.929 . S
H1237 C1246 0.929 . S
C1238 H1232 0.930 . S
C1238 C1239 1.367 . S
C1238 C1246 1.378 . S
C1239 C1238 1.367 . S
C1239 C1247 1.433 . S
C1240 H1236 0.929 . S
C1240 C1242 1.378 . S
C1240 C1244 1.350 . S
C1241 C1244 1.463 . S
C1241 C1246 1.350 . S
C1241 N1249 1.427 . S
C1242 H1233 0.930 . S
C1242 C1240 1.378 . S
C1242 C1243 1.367 . S
C1243 C1242 1.367 . S
C1243 C1245 1.433 . S
C1244 C1240 1.350 . S
C1244 C1241 1.463 . S
C1244 N1248 1.427 . S
C1245 H1235 0.929 . S
C1245 C1243 1.433 . S
C1245 N1248 1.384 . S
C1246 H1237 0.929 . S
C1246 C1238 1.378 . S
C1246 C1241 1.350 . S
C1247 H1234 0.929 . S
C1247 C1239 1.433 . S
C1247 N1249 1.384 . S
N1248 C1244 1.427 . S
N1248 C1245 1.384 . S
N1249 C1241 1.427 . S
N1249 C1247 1.384 . S
H1250 C1256 0.930 . S
H1251 C1260 0.930 1_565 S
H1252 C1265 0.929 1_565 S
H1253 C1263 0.929 . S
H1254 C1258 0.929 1_565 S
H1255 C1264 0.929 . S
C1256 H1250 0.930 . S
C1256 C1257 1.367 . S
C1256 C1264 1.378 . S
C1257 C1256 1.367 . S
C1257 C1265 1.433 . S
C1258 H1254 0.929 1_545 S
C1258 C1260 1.378 . S
C1258 C1262 1.350 . S
C1259 C1262 1.463 . S
C1259 C1264 1.350 . S
C1259 N1267 1.427 . S
C1260 H1251 0.930 1_545 S
C1260 C1258 1.378 . S
C1260 C1261 1.367 . S
C1261 C1260 1.367 . S
C1261 C1263 1.433 . S
C1262 C1258 1.350 . S
C1262 C1259 1.463 . S
C1262 N1266 1.427 . S
C1263 H1253 0.929 . S
C1263 C1261 1.433 . S
C1263 N1266 1.384 . S
C1264 H1255 0.929 . S
C1264 C1256 1.378 . S
C1264 C1259 1.350 . S
C1265 H1252 0.929 1_545 S
C1265 C1257 1.433 . S
C1265 N1267 1.384 . S
N1266 C1262 1.427 . S
N1266 C1263 1.384 . S
N1267 C1259 1.427 . S
N1267 C1265 1.384 . S
H1268 C1274 0.930 . S
H1269 C1278 0.930 . S
H1270 C1283 0.929 . S
H1271 C1281 0.929 . S
H1272 C1276 0.929 . S
H1273 C1282 0.929 . S
C1274 H1268 0.930 . S
C1274 C1275 1.367 . S
C1274 C1282 1.378 . S
C1275 C1274 1.367 . S
C1275 C1283 1.433 . S
C1276 H1272 0.929 . S
C1276 C1278 1.378 . S
C1276 C1280 1.350 . S
C1277 C1280 1.463 . S
C1277 C1282 1.350 . S
C1277 N1285 1.427 . S
C1278 H1269 0.930 . S
C1278 C1276 1.378 . S
C1278 C1279 1.367 . S
C1279 C1278 1.367 . S
C1279 C1281 1.433 . S
C1280 C1276 1.350 . S
C1280 C1277 1.463 . S
C1280 N1284 1.427 . S
C1281 H1271 0.929 . S
C1281 C1279 1.433 . S
C1281 N1284 1.384 . S
C1282 H1273 0.929 . S
C1282 C1274 1.378 . S
C1282 C1277 1.350 . S
C1283 H1270 0.929 . S
C1283 C1275 1.433 . S
C1283 N1285 1.384 . S
N1284 C1280 1.427 . S
N1284 C1281 1.384 . S
N1285 C1277 1.427 . S
N1285 C1283 1.384 . S
H1286 C1292 0.930 . S
H1287 C1296 0.930 . S
H1288 C1301 0.929 . S
H1289 C1299 0.929 . S
H1290 C1294 0.929 . S
H1291 C1300 0.929 . S
C1292 H1286 0.930 . S
C1292 C1293 1.367 . S
C1292 C1300 1.378 . S
C1293 C1292 1.367 . S
C1293 C1301 1.433 . S
C1294 H1290 0.929 . S
C1294 C1296 1.378 . S
C1294 C1298 1.350 . S
C1295 C1298 1.463 . S
C1295 C1300 1.350 . S
C1295 N1303 1.427 . S
C1296 H1287 0.930 . S
C1296 C1294 1.378 . S
C1296 C1297 1.367 . S
C1297 C1296 1.367 . S
C1297 C1299 1.433 . S
C1298 C1294 1.350 . S
C1298 C1295 1.463 . S
C1298 N1302 1.427 . S
C1299 H1289 0.929 . S
C1299 C1297 1.433 . S
C1299 N1302 1.384 . S
C1300 H1291 0.929 . S
C1300 C1292 1.378 . S
C1300 C1295 1.350 . S
C1301 H1288 0.929 . S
C1301 C1293 1.433 . S
C1301 N1303 1.384 . S
N1302 C1298 1.427 . S
N1302 C1299 1.384 . S
N1303 C1295 1.427 . S
N1303 C1301 1.384 . S
H1304 C1310 0.930 . S
H1305 C1314 0.930 . S
H1306 C1319 0.929 . S
H1307 C1317 0.929 . S
H1308 C1312 0.929 . S
H1309 C1318 0.929 . S
C1310 H1304 0.930 . S
C1310 C1311 1.367 . S
C1310 C1318 1.378 . S
C1311 C1310 1.367 . S
C1311 C1319 1.433 . S
C1312 H1308 0.929 . S
C1312 C1314 1.378 . S
C1312 C1316 1.350 . S
C1313 C1316 1.463 . S
C1313 C1318 1.350 . S
C1313 N1321 1.427 . S
C1314 H1305 0.930 . S
C1314 C1312 1.378 . S
C1314 C1315 1.367 . S
C1315 C1314 1.367 . S
C1315 C1317 1.433 . S
C1316 C1312 1.350 . S
C1316 C1313 1.463 . S
C1316 N1320 1.427 . S
C1317 H1307 0.929 . S
C1317 C1315 1.433 . S
C1317 N1320 1.384 . S
C1318 H1309 0.929 . S
C1318 C1310 1.378 . S
C1318 C1313 1.350 . S
C1319 H1306 0.929 . S
C1319 C1311 1.433 . S
C1319 N1321 1.384 . S
N1320 C1316 1.427 . S
N1320 C1317 1.384 . S
N1321 C1313 1.427 . S
N1321 C1319 1.384 . S
H1322 C1328 0.930 . S
H1323 C1332 0.930 . S
H1324 C1337 0.929 . S
H1325 C1335 0.929 . S
H1326 C1330 0.929 . S
H1327 C1336 0.929 . S
C1328 H1322 0.930 . S
C1328 C1329 1.367 . S
C1328 C1336 1.378 . S
C1329 C1328 1.367 . S
C1329 C1337 1.433 . S
C1330 H1326 0.929 . S
C1330 C1332 1.378 . S
C1330 C1334 1.350 . S
C1331 C1334 1.463 . S
C1331 C1336 1.350 . S
C1331 N1339 1.427 . S
C1332 H1323 0.930 . S
C1332 C1330 1.378 . S
C1332 C1333 1.367 . S
C1333 C1332 1.367 . S
C1333 C1335 1.433 . S
C1334 C1330 1.350 . S
C1334 C1331 1.463 . S
C1334 N1338 1.427 . S
C1335 H1325 0.929 . S
C1335 C1333 1.433 . S
C1335 N1338 1.384 . S
C1336 H1327 0.929 . S
C1336 C1328 1.378 . S
C1336 C1331 1.350 . S
C1337 H1324 0.929 . S
C1337 C1329 1.433 . S
C1337 N1339 1.384 . S
N1338 C1334 1.427 . S
N1338 C1335 1.384 . S
N1339 C1331 1.427 . S
N1339 C1337 1.384 . S
H1340 C1346 0.930 . S
H1341 C1350 0.930 . S
H1342 C1355 0.929 . S
H1343 C1353 0.929 . S
H1344 C1348 0.929 . S
H1345 C1354 0.929 . S
C1346 H1340 0.930 . S
C1346 C1347 1.367 . S
C1346 C1354 1.378 . S
C1347 C1346 1.367 . S
C1347 C1355 1.433 . S
C1348 H1344 0.929 . S
C1348 C1350 1.378 . S
C1348 C1352 1.350 . S
C1349 C1352 1.463 . S
C1349 C1354 1.350 . S
C1349 N1357 1.427 . S
C1350 H1341 0.930 . S
C1350 C1348 1.378 . S
C1350 C1351 1.367 . S
C1351 C1350 1.367 . S
C1351 C1353 1.433 . S
C1352 C1348 1.350 . S
C1352 C1349 1.463 . S
C1352 N1356 1.427 . S
C1353 H1343 0.929 . S
C1353 C1351 1.433 . S
C1353 N1356 1.384 . S
C1354 H1345 0.929 . S
C1354 C1346 1.378 . S
C1354 C1349 1.350 . S
C1355 H1342 0.929 . S
C1355 C1347 1.433 . S
C1355 N1357 1.384 . S
N1356 C1352 1.427 . S
N1356 C1353 1.384 . S
N1357 C1349 1.427 . S
N1357 C1355 1.384 . S
H1358 C1364 0.930 . S
H1359 C1368 0.930 . S
H1360 C1373 0.929 . S
H1361 C1371 0.929 . S
H1362 C1366 0.929 . S
H1363 C1372 0.929 . S
C1364 H1358 0.930 . S
C1364 C1365 1.367 . S
C1364 C1372 1.378 . S
C1365 C1364 1.367 . S
C1365 C1373 1.433 . S
C1366 H1362 0.929 . S
C1366 C1368 1.378 . S
C1366 C1370 1.350 . S
C1367 C1370 1.463 . S
C1367 C1372 1.350 . S
C1367 N1375 1.427 . S
C1368 H1359 0.930 . S
C1368 C1366 1.378 . S
C1368 C1369 1.367 . S
C1369 C1368 1.367 . S
C1369 C1371 1.433 . S
C1370 C1366 1.350 . S
C1370 C1367 1.463 . S
C1370 N1374 1.427 . S
C1371 H1361 0.929 . S
C1371 C1369 1.433 . S
C1371 N1374 1.384 . S
C1372 H1363 0.929 . S
C1372 C1364 1.378 . S
C1372 C1367 1.350 . S
C1373 H1360 0.929 . S
C1373 C1365 1.433 . S
C1373 N1375 1.384 . S
N1374 C1370 1.427 . S
N1374 C1371 1.384 . S
N1375 C1367 1.427 . S
N1375 C1373 1.384 . S
H1376 C1382 0.921 1_655 S
H1377 C1386 0.921 1_455 S
H1378 C1391 0.929 . S
H1379 C1389 0.929 . S
H1380 C1384 0.929 . S
H1381 C1390 0.929 . S
C1382 H1376 0.921 1_455 S
C1382 C1383 1.383 . S
C1382 C1390 1.371 1_455 S
C1383 C1382 1.383 . S
C1383 C1391 1.433 . S
C1384 H1380 0.929 . S
C1384 C1386 1.371 1_455 S
C1384 C1388 1.350 1_455 S
C1385 C1388 1.463 1_454 S
C1385 C1390 1.350 1_455 S
C1385 N1393 1.427 1_554 S
C1386 H1377 0.921 1_655 S
C1386 C1384 1.371 1_655 S
C1386 C1387 1.383 . S
C1387 C1386 1.383 . S
C1387 C1389 1.433 . S
C1388 C1384 1.350 1_655 S
C1388 C1385 1.463 1_656 S
C1388 N1392 1.427 1_556 S
C1389 H1379 0.929 . S
C1389 C1387 1.433 . S
C1389 N1392 1.384 1_556 S
C1390 H1381 0.929 . S
C1390 C1382 1.371 1_655 S
C1390 C1385 1.350 1_655 S
C1391 H1378 0.929 . S
C1391 C1383 1.433 . S
C1391 N1393 1.384 1_554 S
N1392 C1388 1.427 1_554 S
N1392 C1389 1.384 1_554 S
N1393 C1385 1.427 1_556 S
N1393 C1391 1.384 1_556 S
H1394 C1400 0.930 . S
H1395 C1404 0.930 . S
H1396 C1409 0.929 . S
H1397 C1407 0.929 . S
H1398 C1402 0.929 . S
H1399 C1408 0.929 . S
C1400 H1394 0.930 . S
C1400 C1401 1.367 1_545 S
C1400 C1408 1.378 . S
C1401 C1400 1.367 1_565 S
C1401 C1409 1.433 . S
C1402 H1398 0.929 . S
C1402 C1404 1.378 . S
C1402 C1406 1.350 1_565 S
C1403 C1406 1.463 1_466 S
C1403 C1408 1.350 1_565 S
C1403 N1411 1.427 1_556 S
C1404 H1395 0.930 . S
C1404 C1402 1.378 . S
C1404 C1405 1.367 1_565 S
C1405 C1404 1.367 1_545 S
C1405 C1407 1.433 . S
C1406 C1402 1.350 1_545 S
C1406 C1403 1.463 1_644 S
C1406 N1410 1.427 1_554 S
C1407 H1397 0.929 . S
C1407 C1405 1.433 . S
C1407 N1410 1.384 1_554 S
C1408 H1399 0.929 . S
C1408 C1400 1.378 . S
C1408 C1403 1.350 1_545 S
C1409 H1396 0.929 . S
C1409 C1401 1.433 . S
C1409 N1411 1.384 1_556 S
N1410 C1406 1.427 1_556 S
N1410 C1407 1.384 1_556 S
N1411 C1403 1.427 1_554 S
N1411 C1409 1.384 1_554 S
H1412 C1418 0.930 . S
H1413 C1422 0.930 . S
H1414 C1427 0.929 . S
H1415 C1425 0.929 . S
H1416 C1420 0.929 1_554 S
H1417 C1426 0.929 1_556 S
C1418 H1412 0.930 . S
C1418 C1419 1.367 . S
C1418 C1426 1.378 . S
C1419 C1418 1.367 . S
C1419 C1427 1.433 . S
C1420 H1416 0.929 1_556 S
C1420 C1422 1.378 . S
C1420 C1424 1.350 . S
C1421 C1424 1.463 1_564 S
C1421 C1426 1.350 . S
C1421 N1429 1.427 . S
C1422 H1413 0.930 . S
C1422 C1420 1.378 . S
C1422 C1423 1.367 . S
C1423 C1422 1.367 . S
C1423 C1425 1.433 . S
C1424 C1420 1.350 . S
C1424 C1421 1.463 1_546 S
C1424 N1428 1.427 . S
C1425 H1415 0.929 . S
C1425 C1423 1.433 . S
C1425 N1428 1.384 . S
C1426 H1417 0.929 1_554 S
C1426 C1418 1.378 . S
C1426 C1421 1.350 . S
C1427 H1414 0.929 . S
C1427 C1419 1.433 . S
C1427 N1429 1.384 . S
N1428 C1424 1.427 . S
N1428 C1425 1.384 . S
N1429 C1421 1.427 . S
N1429 C1427 1.384 . S
H1430 C1436 0.930 . S
H1431 C1440 0.930 . S
H1432 C1445 0.929 . S
H1433 C1443 0.929 . S
H1434 C1438 0.929 . S
H1435 C1444 0.929 . S
C1436 H1430 0.930 . S
C1436 C1437 1.367 . S
C1436 C1444 1.378 1_556 S
C1437 C1436 1.367 . S
C1437 C1445 1.433 . S
C1438 H1434 0.929 . S
C1438 C1440 1.378 1_556 S
C1438 C1442 1.350 1_556 S
C1439 C1442 1.463 1_556 S
C1439 C1444 1.350 1_556 S
C1439 N1447 1.427 . S
C1440 H1431 0.930 . S
C1440 C1438 1.378 1_554 S
C1440 C1441 1.367 . S
C1441 C1440 1.367 . S
C1441 C1443 1.433 . S
C1442 C1438 1.350 1_554 S
C1442 C1439 1.463 1_554 S
C1442 N1446 1.427 . S
C1443 H1433 0.929 . S
C1443 C1441 1.433 . S
C1443 N1446 1.384 . S
C1444 H1435 0.929 . S
C1444 C1436 1.378 1_554 S
C1444 C1439 1.350 1_554 S
C1445 H1432 0.929 . S
C1445 C1437 1.433 . S
C1445 N1447 1.384 . S
N1446 C1442 1.427 . S
N1446 C1443 1.384 . S
N1447 C1439 1.427 . S
N1447 C1445 1.384 . S
H1448 C1454 0.930 . S
H1449 C1458 0.930 . S
H1450 C1463 0.929 . S
H1451 C1461 0.929 . S
H1452 C1456 0.929 . S
H1453 C1462 0.929 . S
C1454 H1448 0.930 . S
C1454 C1455 1.367 1_655 S
C1454 C1462 1.378 . S
C1455 C1454 1.367 1_455 S
C1455 C1463 1.433 . S
C1456 H1452 0.929 . S
C1456 C1458 1.378 . S
C1456 C1460 1.350 1_455 S
C1457 C1460 1.463 1_465 S
C1457 C1462 1.350 1_455 S
C1457 N1465 1.427 . S
C1458 H1449 0.930 . S
C1458 C1456 1.378 . S
C1458 C1459 1.367 1_455 S
C1459 C1458 1.367 1_655 S
C1459 C1461 1.433 . S
C1460 C1456 1.350 1_655 S
C1460 C1457 1.463 1_645 S
C1460 N1464 1.427 . S
C1461 H1451 0.929 . S
C1461 C1459 1.433 . S
C1461 N1464 1.384 . S
C1462 H1453 0.929 . S
C1462 C1454 1.378 . S
C1462 C1457 1.350 1_655 S
C1463 H1450 0.929 . S
C1463 C1455 1.433 . S
C1463 N1465 1.384 . S
N1464 C1460 1.427 . S
N1464 C1461 1.384 . S
N1465 C1457 1.427 . S
N1465 C1463 1.384 . S
H1466 C1472 0.930 . S
H1467 C1476 0.930 . S
H1468 C1481 0.929 . S
H1469 C1479 0.929 . S
H1470 C1474 0.929 . S
H1471 C1480 0.929 . S
C1472 H1466 0.930 . S
C1472 C1473 1.367 1_565 S
C1472 C1480 1.378 . S
C1473 C1472 1.367 1_545 S
C1473 C1481 1.433 . S
C1474 H1470 0.929 . S
C1474 C1476 1.378 . S
C1474 C1478 1.350 1_545 S
C1475 C1478 1.463 1_545 S
C1475 C1480 1.350 1_545 S
C1475 N1483 1.427 . S
C1476 H1467 0.930 . S
C1476 C1474 1.378 . S
C1476 C1477 1.367 1_545 S
C1477 C1476 1.367 1_565 S
C1477 C1479 1.433 . S
C1478 C1474 1.350 1_565 S
C1478 C1475 1.463 1_565 S
C1478 N1482 1.427 . S
C1479 H1469 0.929 . S
C1479 C1477 1.433 . S
C1479 N1482 1.384 . S
C1480 H1471 0.929 . S
C1480 C1472 1.378 . S
C1480 C1475 1.350 1_565 S
C1481 H1468 0.929 . S
C1481 C1473 1.433 . S
C1481 N1483 1.384 . S
N1482 C1478 1.427 . S
N1482 C1479 1.384 . S
N1483 C1475 1.427 . S
N1483 C1481 1.384 . S
H1484 C1490 0.930 . S
H1485 C1494 0.930 . S
H1486 C1499 0.929 . S
H1487 C1497 0.929 . S
H1488 C1492 0.929 . S
H1489 C1498 0.929 . S
C1490 H1484 0.930 . S
C1490 C1491 1.367 . S
C1490 C1498 1.378 . S
C1491 C1490 1.367 . S
C1491 C1499 1.433 . S
C1492 H1488 0.929 . S
C1492 C1494 1.378 . S
C1492 C1496 1.350 . S
C1493 C1496 1.463 . S
C1493 C1498 1.350 . S
C1493 N1501 1.427 . S
C1494 H1485 0.930 . S
C1494 C1492 1.378 . S
C1494 C1495 1.367 . S
C1495 C1494 1.367 . S
C1495 C1497 1.433 . S
C1496 C1492 1.350 . S
C1496 C1493 1.463 . S
C1496 N1500 1.427 . S
C1497 H1487 0.929 . S
C1497 C1495 1.433 . S
C1497 N1500 1.384 . S
C1498 H1489 0.929 . S
C1498 C1490 1.378 . S
C1498 C1493 1.350 . S
C1499 H1486 0.929 . S
C1499 C1491 1.433 . S
C1499 N1501 1.384 . S
N1500 C1496 1.427 . S
N1500 C1497 1.384 . S
N1501 C1493 1.427 . S
N1501 C1499 1.384 . S
H1502 C1508 0.930 . S
H1503 C1512 0.930 . S
H1504 C1517 0.929 . S
H1505 C1515 0.929 . S
H1506 C1510 0.929 . S
H1507 C1516 0.929 . S
C1508 H1502 0.930 . S
C1508 C1509 1.367 . S
C1508 C1516 1.378 . S
C1509 C1508 1.367 . S
C1509 C1517 1.433 . S
C1510 H1506 0.929 . S
C1510 C1512 1.378 . S
C1510 C1514 1.350 . S
C1511 C1514 1.463 1_655 S
C1511 C1516 1.350 . S
C1511 N1519 1.427 . S
C1512 H1503 0.930 . S
C1512 C1510 1.378 . S
C1512 C1513 1.367 . S
C1513 C1512 1.367 . S
C1513 C1515 1.433 . S
C1514 C1510 1.350 . S
C1514 C1511 1.463 1_455 S
C1514 N1518 1.427 . S
C1515 H1505 0.929 . S
C1515 C1513 1.433 . S
C1515 N1518 1.384 . S
C1516 H1507 0.929 . S
C1516 C1508 1.378 . S
C1516 C1511 1.350 . S
C1517 H1504 0.929 . S
C1517 C1509 1.433 . S
C1517 N1519 1.384 . S
N1518 C1514 1.427 . S
N1518 C1515 1.384 . S
N1519 C1511 1.427 . S
N1519 C1517 1.384 . S
C951 C33 1.674 . S
C955 C151 1.670 . S
C969 C92 1.675 . S
C973 C210 1.670 . S
C987 C269 1.672 . S
C991 C387 1.677 . S
C1005 C446 1.674 . S
C1009 C328 1.678 . S
C1023 C505 1.670 . S
C1027 C623 1.672 . S
C1041 C682 1.676 . S
C1045 C564 1.671 . S
C1059 C859 1.675 . S
C1063 C741 1.678 . S
C1077 C918 1.670 . S
C1081 C800 1.672 . S
C1095 C416 0.882 . S
C1099 C3 0.885 . S
C1113 C62 0.882 . S
C1117 C239 0.871 . S
C1131 C298 0.861 . S
C1135 C121 0.873 . S
C1149 C180 0.862 . S
C1153 C357 0.859 . S
C1167 C888 0.875 . S
C1171 C475 0.863 . S
C1185 C534 0.884 . S
C1189 C711 0.883 . S
C1203 C593 0.860 . S
C1207 C770 0.860 . S
C1221 C829 0.885 . S
C1225 C652 0.882 . S
C1239 C52 1.005 . S
C1243 C288 1.007 . S
C1257 C111 1.025 . S
C1261 C347 1.028 . S
C1275 C406 1.004 . S
C1279 C170 1.005 . S
C1293 C229 1.008 . S
C1297 C465 1.006 . S
C1311 C760 1.009 . S
C1315 C524 1.007 . S
C1329 C819 1.034 . S
C1333 C583 1.034 . S
C1347 C642 1.031 . S
C1351 C878 1.029 . S
C1365 C701 1.022 . S
C1369 C937 1.019 . S
C1383 C5 1.856 . S
C1387 C477 1.856 . S
C1401 C536 1.857 . S
C1405 C64 1.857 . S
C1419 C123 1.860 . S
C1423 C595 1.860 . S
C1437 C654 1.865 . S
C1441 C182 1.865 . S
C1455 C241 1.856 . S
C1459 C713 1.856 . S
C1473 C300 1.858 . S
C1477 C772 1.858 . S
C1491 C831 1.864 . S
C1495 C359 1.864 . S
C1509 C418 1.862 . S
C1513 C890 1.862 . S
