# Generated by pormake.
# Topology uog, (4)-cn, num edge types: 1
# Building blocks:
#     Node 0, Type 0, BuildingBlock: ICAMEG_clean_sbu_1, # of connection points: 4
#     Node 1, Type 0, BuildingBlock: ICAMEG_clean_sbu_1, # of connection points: 4
#     Node 2, Type 0, BuildingBlock: ICAMEG_clean_sbu_1, # of connection points: 4
#     Node 3, Type 0, BuildingBlock: ICAMEG_clean_sbu_1, # of connection points: 4
#     Node 4, Type 0, BuildingBlock: ICAMEG_clean_sbu_1, # of connection points: 4
#     Node 5, Type 0, BuildingBlock: ICAMEG_clean_sbu_1, # of connection points: 4
#     Edge 6, Type (0, 0), BuildingBlock: XUDNAN_clean_linker_2, # of connection points: 2
#     Edge 7, Type (0, 0), BuildingBlock: XUDNAN_clean_linker_2, # of connection points: 2
#     Edge 8, Type (0, 0), BuildingBlock: XUDNAN_clean_linker_2, # of connection points: 2
#     Edge 9, Type (0, 0), BuildingBlock: XUDNAN_clean_linker_2, # of connection points: 2
#     Edge 10, Type (0, 0), BuildingBlock: XUDNAN_clean_linker_2, # of connection points: 2
#     Edge 11, Type (0, 0), BuildingBlock: XUDNAN_clean_linker_2, # of connection points: 2
#     Edge 12, Type (0, 0), BuildingBlock: XUDNAN_clean_linker_2, # of connection points: 2
#     Edge 13, Type (0, 0), BuildingBlock: XUDNAN_clean_linker_2, # of connection points: 2
#     Edge 14, Type (0, 0), BuildingBlock: XUDNAN_clean_linker_2, # of connection points: 2
#     Edge 15, Type (0, 0), BuildingBlock: XUDNAN_clean_linker_2, # of connection points: 2
#     Edge 16, Type (0, 0), BuildingBlock: XUDNAN_clean_linker_2, # of connection points: 2
#     Edge 17, Type (0, 0), BuildingBlock: XUDNAN_clean_linker_2, # of connection points: 2
# Relax obj value: 0.054
# Max RMSD: 0.119
# Mean RMSD: 0.119
data_MOF--net-uog--node1-ICAMEG_clean_sbu_1--edge1-XUDNAN_clean_linker_2
_symmetry_space_group_name_H-M    P1
_symmetry_Int_Tables_number       1
_symmetry_cell_setting            triclinic
loop_
_symmetry_equiv_pos_as_xyz
'x, y, z'
_cell_length_a     30.139817
_cell_length_b     30.124517
_cell_length_c     45.187815
_cell_angle_alpha  89.983272
_cell_angle_beta   90.014755
_cell_angle_gamma 120.22733
loop_
_atom_site_label
_atom_site_type_symbol
_atom_site_fract_x
_atom_site_fract_y
_atom_site_fract_z
_atom_type_partial_charge
Co0 Co 0.65284 0.36399 0.16794 0.0
Co1 Co 0.54282 0.26105 0.19353 0.0
O2 O 0.60117 0.29129 0.16662 0.0
C3 C 0.62892 0.34284 0.10352 0.0
O4 O 0.57984 0.32356 0.10907 0.0
C5 C 0.54804 0.16839 0.21279 0.0
O6 O 0.55675 0.18486 0.24025 0.0
O7 O 0.59073 0.28695 0.2281 0.0
O8 O 0.64643 0.36625 0.21189 0.0
H9 H 0.44316 0.25822 0.28327 0.0
H10 H 0.67525 0.28849 0.13974 0.0
O11 O 0.66187 0.36274 0.1242 0.0
H12 H 0.80899 0.37491 0.21594 0.0
H13 H 0.81742 0.52154 0.13707 0.0
H14 H 0.66214 0.45495 0.19902 0.0
H15 H 0.74314 0.39934 0.2082 0.0
H16 H 0.75304 0.42906 0.13732 0.0
O17 O 0.54516 0.19583 0.19227 0.0
H18 H 0.51485 0.29666 0.24765 0.0
H19 H 0.44703 0.15822 0.19796 0.0
H20 H 0.72559 0.54765 0.19951 0.0
H21 H 0.74074 0.26326 0.14649 0.0
H22 H 0.80396 0.5815 0.16838 0.0
H23 H 0.8082 0.30651 0.18486 0.0
O24 O 0.59846 0.38248 0.16279 0.0
H25 H 0.48534 0.18052 0.09305 0.0
H26 H 0.44561 0.25893 0.17702 0.0
H27 H 0.38906 0.23065 0.1333 0.0
H28 H 0.40872 0.19093 0.0909 0.0
H29 H 0.54124 0.21013 0.13704 0.0
H30 H 0.37474 0.11816 0.23311 0.0
H31 H 0.37244 0.16832 0.27611 0.0
O32 O 0.53837 0.32551 0.19374 0.0
C33 C 0.62702 0.33295 0.23256 0.0
C34 C 0.44368 0.23599 0.26459 0.0
C35 C 0.40531 0.15737 0.23646 0.0
N36 N 0.48512 0.22976 0.22072 0.0
C37 C 0.48414 0.25757 0.24433 0.0
C38 C 0.44641 0.18021 0.21667 0.0
C39 C 0.40404 0.18554 0.26058 0.0
C40 C 0.70461 0.30771 0.15639 0.0
N41 N 0.70539 0.34547 0.17351 0.0
C42 C 0.74154 0.29316 0.16015 0.0
C43 C 0.77935 0.31741 0.18169 0.0
C44 C 0.7798 0.35576 0.19915 0.0
C45 C 0.74228 0.36932 0.19475 0.0
C46 C 0.78348 0.50724 0.15076 0.0
C47 C 0.69624 0.46934 0.18552 0.0
C48 C 0.74683 0.45493 0.15094 0.0
N49 N 0.70401 0.43657 0.16831 0.0
C50 C 0.73199 0.52189 0.18584 0.0
C51 C 0.77591 0.54086 0.16835 0.0
C52 C 0.55766 0.3666 0.17819 0.0
C53 C 0.47637 0.19781 0.11136 0.0
C54 C 0.45483 0.24245 0.15854 0.0
C55 C 0.42245 0.2261 0.1339 0.0
C56 C 0.43344 0.20373 0.11015 0.0
N57 N 0.497 0.23675 0.15956 0.0
C58 C 0.50784 0.21458 0.13639 0.0
Co59 Co 0.27796 0.63185 0.49111 0.0
Co60 Co 0.26776 0.52338 0.52366 0.0
O61 O 0.29594 0.57827 0.49429 0.0
C62 C 0.25563 0.58508 0.43162 0.0
O63 O 0.22689 0.54055 0.4446 0.0
C64 C 0.37998 0.57363 0.53164 0.0
O65 O 0.38078 0.6176 0.53209 0.0
O66 O 0.28212 0.57342 0.55631 0.0
O67 O 0.2781 0.63876 0.53503 0.0
H68 H 0.16042 0.4267 0.61154 0.0
H69 H 0.36747 0.64172 0.45793 0.0
O70 O 0.2782 0.62607 0.44694 0.0
H71 H 0.43755 0.79344 0.52314 0.0
H72 H 0.28805 0.78906 0.44534 0.0
H73 H 0.20615 0.65597 0.52238 0.0
H74 H 0.34478 0.73024 0.52293 0.0
H75 H 0.31123 0.72177 0.45102 0.0
O76 O 0.3375 0.5317 0.52894 0.0
H77 H 0.19455 0.49478 0.57354 0.0
H78 H 0.28398 0.43555 0.53689 0.0
H79 H 0.18194 0.72258 0.51755 0.0
H80 H 0.46039 0.70421 0.45724 0.0
H81 H 0.22305 0.7898 0.47881 0.0
H82 H 0.49603 0.78064 0.4901 0.0
O83 O 0.20316 0.58014 0.49245 0.0
H84 H 0.31019 0.45976 0.43118 0.0
H85 H 0.17783 0.42225 0.50669 0.0
H86 H 0.15862 0.3614 0.46556 0.0
H87 H 0.22515 0.38 0.42744 0.0
H88 H 0.32749 0.51976 0.47253 0.0
H89 H 0.25112 0.36704 0.57461 0.0
H90 H 0.18874 0.36222 0.61222 0.0
O91 O 0.19746 0.51375 0.51855 0.0
C92 C 0.28203 0.6157 0.5577 0.0
C93 C 0.18743 0.42827 0.5952 0.0
C94 C 0.23839 0.39484 0.5745 0.0
N95 N 0.24084 0.46884 0.55289 0.0
C96 C 0.20674 0.46662 0.57358 0.0
C97 C 0.25694 0.43377 0.55324 0.0
C98 C 0.20338 0.39215 0.59559 0.0
C99 C 0.38259 0.67516 0.47206 0.0
N100 N 0.35067 0.68246 0.49032 0.0
C101 C 0.43528 0.7103 0.47167 0.0
C102 C 0.45526 0.75313 0.49014 0.0
C103 C 0.42247 0.76032 0.5087 0.0
C104 C 0.36999 0.72435 0.50852 0.0
C105 C 0.26994 0.76004 0.46234 0.0
C106 C 0.2244 0.68524 0.50557 0.0
C107 C 0.28286 0.72181 0.46563 0.0
N108 N 0.26031 0.68521 0.48715 0.0
C109 C 0.21045 0.72279 0.5029 0.0
C110 C 0.23348 0.76045 0.48114 0.0
C111 C 0.17721 0.53679 0.50543 0.0
C112 C 0.28089 0.45121 0.44765 0.0
C113 C 0.20676 0.43077 0.49007 0.0
C114 C 0.19579 0.39607 0.4669 0.0
C115 C 0.23315 0.4065 0.44555 0.0
N116 N 0.25362 0.47457 0.49196 0.0
C117 C 0.2905 0.48498 0.47116 0.0
Co118 Co 0.65782 0.29648 0.83863 0.0
Co119 Co 0.74214 0.25253 0.8493 0.0
O120 O 0.72277 0.29874 0.8306 0.0
C121 C 0.66195 0.29234 0.77304 0.0
O122 O 0.67071 0.25403 0.77581 0.0
C123 C 0.83321 0.35625 0.86019 0.0
O124 O 0.80192 0.37279 0.86762 0.0
O125 O 0.7288 0.27163 0.88893 0.0
O126 O 0.66069 0.28178 0.88173 0.0
H127 H 0.72134 0.11631 0.92131 0.0
H128 H 0.74244 0.3873 0.80861 0.0
O129 O 0.65434 0.31239 0.79591 0.0
H130 H 0.70677 0.45478 0.89937 0.0
H131 H 0.53065 0.35714 0.82724 0.0
H132 H 0.56455 0.22892 0.87363 0.0
H133 H 0.65639 0.36246 0.88752 0.0
H134 H 0.61262 0.35951 0.81849 0.0
O135 O 0.81537 0.30984 0.85197 0.0
H136 H 0.69671 0.17358 0.89633 0.0
H137 H 0.831 0.2354 0.84317 0.0
H138 H 0.48227 0.22543 0.88322 0.0
H139 H 0.79339 0.48 0.81948 0.0
H140 H 0.46491 0.28987 0.85993 0.0
H141 H 0.7758 0.51428 0.8652 0.0
O142 O 0.61821 0.22155 0.82982 0.0
H143 H 0.81337 0.29073 0.74603 0.0
H144 H 0.71347 0.15382 0.81859 0.0
H145 H 0.72721 0.13058 0.7685 0.0
H146 H 0.77747 0.19931 0.73181 0.0
H147 H 0.7984 0.31225 0.79635 0.0
H148 H 0.85732 0.17912 0.86771 0.0
H149 H 0.80219 0.1189 0.90702 0.0
O150 O 0.66983 0.19343 0.84687 0.0
C151 C 0.69291 0.27844 0.89857 0.0
C152 C 0.7456 0.14226 0.90415 0.0
C153 C 0.82195 0.17756 0.87409 0.0
N154 N 0.76217 0.20747 0.86818 0.0
C155 C 0.73177 0.17466 0.88988 0.0
C156 C 0.80691 0.20941 0.86032 0.0
C157 C 0.79099 0.14377 0.89614 0.0
C158 C 0.73418 0.40198 0.82839 0.0
N159 N 0.69635 0.36948 0.84734 0.0
C160 C 0.76331 0.45449 0.83449 0.0
C161 C 0.75348 0.47368 0.86018 0.0
C162 C 0.71479 0.44032 0.87937 0.0
C163 C 0.68647 0.38803 0.87257 0.0
C164 C 0.5378 0.3289 0.83756 0.0
C165 C 0.55738 0.25728 0.86356 0.0
C166 C 0.58408 0.32998 0.83262 0.0
N167 N 0.59346 0.29462 0.84572 0.0
C168 C 0.51067 0.25502 0.86901 0.0
C169 C 0.50094 0.29116 0.85591 0.0
C170 C 0.62691 0.18571 0.83695 0.0
C171 C 0.79155 0.26045 0.76185 0.0
C172 C 0.7354 0.18397 0.80276 0.0
C173 C 0.74312 0.17056 0.77444 0.0
C174 C 0.77133 0.20914 0.75387 0.0
N175 N 0.75527 0.23438 0.81041 0.0
C176 C 0.78312 0.27241 0.7904 0.0
Co177 Co 0.35626 0.64503 0.15761 0.0
Co178 Co 0.47197 0.72361 0.19285 0.0
O179 O 0.42053 0.7099 0.1624 0.0
C180 C 0.40615 0.66396 0.09883 0.0
O181 O 0.44793 0.67141 0.11235 0.0
C182 C 0.44299 0.80242 0.20073 0.0
O183 O 0.39535 0.76452 0.19893 0.0
O184 O 0.41846 0.6942 0.22445 0.0
O185 O 0.34566 0.63744 0.20133 0.0
H186 H 0.54586 0.68135 0.28082 0.0
H187 H 0.37094 0.73635 0.12411 0.0
O188 O 0.36565 0.65176 0.11364 0.0
H189 H 0.21767 0.68362 0.18605 0.0
H190 H 0.18837 0.52618 0.1073 0.0
H191 H 0.30596 0.54419 0.18827 0.0
H192 H 0.26401 0.63564 0.18787 0.0
H193 H 0.26929 0.60788 0.11489 0.0
O194 O 0.47989 0.7933 0.19956 0.0
H195 H 0.48179 0.66357 0.24176 0.0
H196 H 0.57196 0.81563 0.20893 0.0
H197 H 0.22531 0.46187 0.18161 0.0
H198 H 0.32491 0.78453 0.12102 0.0
H199 H 0.16584 0.45247 0.14086 0.0
H200 H 0.2479 0.75847 0.1523 0.0
O201 O 0.39297 0.60563 0.15968 0.0
H202 H 0.55995 0.83223 0.10362 0.0
H203 H 0.56009 0.71 0.17618 0.0
H204 H 0.62484 0.74342 0.13636 0.0
H205 H 0.62507 0.80506 0.09975 0.0
H206 H 0.4956 0.79748 0.14365 0.0
H207 H 0.63689 0.8352 0.24773 0.0
H208 H 0.62408 0.76772 0.28397 0.0
O209 O 0.46491 0.6544 0.18628 0.0
C210 C 0.37128 0.65892 0.22469 0.0
C211 C 0.55197 0.71102 0.26509 0.0
C212 C 0.60303 0.79739 0.24655 0.0
N213 N 0.52338 0.73839 0.22297 0.0
C214 C 0.51591 0.70112 0.24288 0.0
C215 C 0.56611 0.78612 0.22466 0.0
C216 C 0.59582 0.7595 0.26687 0.0
C217 C 0.33706 0.72431 0.1375 0.0
N218 N 0.32003 0.68302 0.15601 0.0
C219 C 0.31128 0.7519 0.13575 0.0
C220 C 0.26813 0.73731 0.15335 0.0
C221 C 0.25119 0.69536 0.17232 0.0
C222 C 0.27774 0.66849 0.17335 0.0
C223 C 0.21397 0.52977 0.12513 0.0
C224 C 0.2803 0.5404 0.17052 0.0
C225 C 0.25995 0.5759 0.12948 0.0
N226 N 0.29237 0.58079 0.15202 0.0
C227 C 0.23468 0.49369 0.16684 0.0
C228 C 0.20134 0.48844 0.14397 0.0
C229 C 0.43387 0.61308 0.1726 0.0
C230 C 0.56034 0.80551 0.11949 0.0
C231 C 0.55988 0.73671 0.16029 0.0
C232 C 0.5967 0.7556 0.13783 0.0
C233 C 0.59682 0.7902 0.11731 0.0
N234 N 0.52424 0.75194 0.1623 0.0
C235 C 0.52413 0.78587 0.14227 0.0
Co236 Co 0.6981 0.37018 0.50412 0.0
Co237 Co 0.75772 0.49949 0.52147 0.0
O238 O 0.70905 0.43937 0.49905 0.0
C239 C 0.7298 0.3985 0.44251 0.0
O240 O 0.76827 0.44017 0.45393 0.0
C241 C 0.65759 0.49264 0.53097 0.0
O242 O 0.63861 0.44336 0.53576 0.0
O243 O 0.73279 0.46084 0.55922 0.0
O244 O 0.69877 0.3768 0.54841 0.0
H245 H 0.89322 0.59408 0.59861 0.0
H246 H 0.62815 0.38745 0.46576 0.0
O247 O 0.69737 0.36352 0.45964 0.0
H248 H 0.51793 0.26846 0.54375 0.0
H249 H 0.61782 0.18305 0.47779 0.0
H250 H 0.73947 0.32126 0.54385 0.0
H251 H 0.61066 0.2986 0.54251 0.0
H252 H 0.63245 0.27105 0.47298 0.0
O253 O 0.7051 0.52126 0.525 0.0
H254 H 0.83211 0.51842 0.56953 0.0
H255 H 0.7851 0.60941 0.522 0.0
H256 H 0.72567 0.23376 0.54964 0.0
H257 H 0.53558 0.35805 0.46609 0.0
H258 H 0.66448 0.16394 0.51643 0.0
H259 H 0.47984 0.29831 0.50538 0.0
O260 O 0.77343 0.39604 0.50476 0.0
H261 H 0.73535 0.55469 0.42032 0.0
H262 H 0.86089 0.56878 0.49513 0.0
H263 H 0.89172 0.61312 0.44723 0.0
H264 H 0.82868 0.60617 0.40941 0.0
H265 H 0.70627 0.5106 0.46843 0.0
H266 H 0.8453 0.68595 0.55078 0.0
H267 H 0.90007 0.67859 0.5893 0.0
O268 O 0.81125 0.47912 0.51824 0.0
C269 C 0.7119 0.41366 0.56678 0.0
C270 C 0.86969 0.59782 0.58182 0.0
C271 C 0.84274 0.64936 0.555 0.0
N272 N 0.80544 0.55963 0.54393 0.0
C273 C 0.83515 0.55516 0.56522 0.0
C274 C 0.80864 0.60588 0.53883 0.0
C275 C 0.87348 0.64521 0.5766 0.0
C276 C 0.60406 0.36097 0.48272 0.0
N277 N 0.62475 0.34453 0.50398 0.0
C278 C 0.5517 0.34464 0.48288 0.0
C279 C 0.52046 0.31118 0.50495 0.0
C280 C 0.54181 0.29445 0.5265 0.0
C281 C 0.59436 0.31169 0.5257 0.0
C282 C 0.64451 0.21313 0.49242 0.0
C283 C 0.71252 0.29099 0.52947 0.0
C284 C 0.65303 0.26302 0.48976 0.0
N285 N 0.68647 0.30109 0.50827 0.0
C286 C 0.70499 0.24156 0.53278 0.0
C287 C 0.67069 0.20242 0.51412 0.0
C288 C 0.813 0.43892 0.51141 0.0
C289 C 0.76318 0.55808 0.43663 0.0
C290 C 0.83328 0.56542 0.47875 0.0
C291 C 0.85094 0.59076 0.4517 0.0
C292 C 0.81556 0.58689 0.43051 0.0
N293 N 0.78186 0.53706 0.48455 0.0
C294 C 0.74695 0.53335 0.46395 0.0
Co295 Co 0.35139 0.70756 0.82458 0.0
Co296 Co 0.26888 0.73901 0.85912 0.0
O297 O 0.28432 0.70095 0.82999 0.0
C298 C 0.324 0.72749 0.76548 0.0
O299 O 0.31389 0.76035 0.77849 0.0
C300 C 0.19674 0.6298 0.87088 0.0
O301 O 0.2378 0.62526 0.87174 0.0
O302 O 0.30257 0.72123 0.89121 0.0
O303 O 0.36372 0.71215 0.86832 0.0
H304 H 0.30706 0.86203 0.94328 0.0
H305 H 0.2598 0.62063 0.79666 0.0
O306 O 0.3401 0.70279 0.78067 0.0
H307 H 0.33069 0.54089 0.86239 0.0
H308 H 0.47651 0.66599 0.77617 0.0
H309 H 0.45464 0.77309 0.85067 0.0
H310 H 0.37323 0.63517 0.85797 0.0
H311 H 0.39155 0.65716 0.78462 0.0
O312 O 0.20167 0.6741 0.86731 0.0
H313 H 0.32757 0.81551 0.9058 0.0
H314 H 0.17347 0.7399 0.87508 0.0
H315 H 0.54021 0.78289 0.84313 0.0
H316 H 0.21626 0.52619 0.80026 0.0
H317 H 0.55153 0.72908 0.80565 0.0
H318 H 0.25161 0.48574 0.8334 0.0
O319 O 0.38415 0.78343 0.82234 0.0
H320 H 0.15343 0.70233 0.77111 0.0
H321 H 0.275 0.83634 0.83929 0.0
H322 H 0.23593 0.86005 0.79884 0.0
H323 H 0.17463 0.79277 0.76442 0.0
H324 H 0.1937 0.68037 0.81169 0.0
H325 H 0.15113 0.78528 0.91238 0.0
H326 H 0.21826 0.84699 0.94673 0.0
O327 O 0.33582 0.80419 0.85077 0.0
C328 C 0.34126 0.71473 0.89165 0.0
C329 C 0.27752 0.83538 0.92836 0.0
C330 C 0.18998 0.79225 0.91105 0.0
N331 N 0.25186 0.77543 0.88814 0.0
C332 C 0.28895 0.80907 0.90704 0.0
C333 C 0.20281 0.7666 0.89002 0.0
C334 C 0.22767 0.82688 0.93031 0.0
C335 C 0.27575 0.6033 0.81087 0.0
N336 N 0.31916 0.63337 0.82696 0.0
C337 C 0.2508 0.54981 0.81292 0.0
C338 C 0.27061 0.52714 0.83156 0.0
C339 C 0.31495 0.55807 0.84785 0.0
C340 C 0.33883 0.61143 0.84529 0.0
C341 C 0.47204 0.68956 0.79262 0.0
C342 C 0.45923 0.7493 0.83447 0.0
C343 C 0.42406 0.68479 0.79746 0.0
N344 N 0.41811 0.71425 0.81831 0.0
C345 C 0.50778 0.75513 0.83023 0.0
C346 C 0.51411 0.72496 0.80917 0.0
C347 C 0.37549 0.81631 0.83486 0.0
C348 C 0.17996 0.73196 0.78602 0.0
C349 C 0.24842 0.80685 0.82438 0.0
C350 C 0.22635 0.8205 0.80155 0.0
C351 C 0.19193 0.78273 0.78225 0.0
N352 N 0.23643 0.75696 0.82795 0.0
C353 C 0.20272 0.71972 0.80913 0.0
H354 H 0.5723 0.10184 0.24147 0.0
H355 H 0.48366 0.11168 0.16854 0.0
H356 H 0.44778 0.01992 0.15831 0.0
H357 H 0.60264 0.01251 0.20316 0.0
H358 H 0.59893 0.9776 0.23636 0.0
H359 H 0.61809 0.04465 0.2385 0.0
H360 H 0.54534 0.02293 0.27629 0.0
H361 H 0.52575 0.95581 0.27412 0.0
H362 H 0.48005 0.97632 0.26667 0.0
H363 H 0.41532 0.9267 0.15832 0.0
H364 H 0.39723 0.83769 0.164 0.0
H365 H 0.51257 0.88675 0.23293 0.0
C366 C 0.54562 0.0846 0.22326 0.0
C367 C 0.53064 0.11398 0.20593 0.0
C368 C 0.49593 0.09019 0.18212 0.0
C369 C 0.47506 0.03792 0.17616 0.0
C370 C 0.49004 0.00991 0.19375 0.0
C371 C 0.52532 0.03235 0.21639 0.0
C372 C 0.53579 0.99314 0.23108 0.0
C373 C 0.59222 0.00786 0.22702 0.0
C374 C 0.52083 0.98668 0.26399 0.0
C375 C 0.50009 0.94523 0.21349 0.0
C376 C 0.47363 0.95594 0.19237 0.0
C377 C 0.43629 0.91787 0.17445 0.0
C378 C 0.42603 0.86744 0.17795 0.0
C379 C 0.45365 0.85568 0.19873 0.0
C380 C 0.49138 0.89508 0.21666 0.0
H381 H 0.39109 0.48881 0.53378 0.0
H382 H 0.47844 0.65561 0.53198 0.0
H383 H 0.55913 0.65307 0.53238 0.0
H384 H 0.47605 0.47127 0.58249 0.0
H385 H 0.4673 0.41489 0.56339 0.0
H386 H 0.41659 0.43002 0.56349 0.0
H387 H 0.41504 0.42827 0.50615 0.0
H388 H 0.46582 0.41326 0.50587 0.0
H389 H 0.4734 0.4685 0.48594 0.0
H390 H 0.63018 0.63213 0.53141 0.0
H391 H 0.68646 0.59456 0.53038 0.0
H392 H 0.55231 0.44146 0.53345 0.0
C393 C 0.42714 0.52489 0.53362 0.0
C394 C 0.42844 0.57246 0.53293 0.0
C395 C 0.47647 0.61872 0.53265 0.0
C396 C 0.5225 0.61766 0.53283 0.0
C397 C 0.51979 0.57008 0.53336 0.0
C398 C 0.47335 0.52455 0.53386 0.0
C399 C 0.48092 0.47851 0.53413 0.0
C400 C 0.45892 0.44682 0.56257 0.0
C401 C 0.4574 0.44519 0.50637 0.0
C402 C 0.53895 0.50525 0.53362 0.0
C403 C 0.56065 0.55805 0.53311 0.0
C404 C 0.61363 0.59085 0.53196 0.0
C405 C 0.64526 0.56912 0.53133 0.0
C406 C 0.62382 0.51507 0.53198 0.0
C407 C 0.56992 0.4829 0.5332 0.0
H408 H 0.88849 0.46225 0.86502 0.0
H409 H 0.90587 0.32778 0.85998 0.0
H410 H 0.99963 0.38313 0.86371 0.0
H411 H 0.99982 0.54413 0.82064 0.0
H412 H 0.01754 0.60126 0.84194 0.0
H413 H 0.95122 0.55116 0.83977 0.0
H414 H 0.94658 0.5455 0.89698 0.0
H415 H 0.01295 0.5955 0.89932 0.0
H416 H 0.99188 0.53442 0.91699 0.0
H417 H 0.09087 0.45173 0.86822 0.0
H418 H 0.17539 0.53048 0.87061 0.0
H419 H 0.10133 0.62245 0.8713 0.0
C420 C 0.91206 0.44451 0.86483 0.0
C421 C 0.88966 0.39055 0.86229 0.0
C422 C 0.92194 0.36892 0.86182 0.0
C423 C 0.97534 0.40004 0.86404 0.0
C424 C 0.99617 0.45291 0.86652 0.0
C425 C 0.96577 0.47519 0.86672 0.0
C426 C 0.99854 0.53333 0.8687 0.0
C427 C 0.99135 0.55897 0.84112 0.0
C428 C 0.98678 0.55335 0.8972 0.0
C429 C 0.05197 0.54004 0.86964 0.0
C430 C 0.04947 0.493 0.86855 0.0
C431 C 0.09339 0.48883 0.8691 0.0
C432 C 0.14131 0.53393 0.87054 0.0
C433 C 0.1452 0.58281 0.87124 0.0
C434 C 0.09972 0.58572 0.87089 0.0
H435 H 0.11875 0.58268 0.49905 0.0
H436 H 0.1072 0.43468 0.51319 0.0
H437 H 0.01289 0.3932 0.51477 0.0
H438 H 0.0184 0.56091 0.54946 0.0
H439 H 0.99501 0.59484 0.52752 0.0
H440 H 0.06162 0.61259 0.5255 0.0
H441 H 0.05375 0.59928 0.4687 0.0
H442 H 0.9871 0.58153 0.47051 0.0
H443 H 0.00509 0.53856 0.45378 0.0
H444 H 0.91942 0.36751 0.51434 0.0
H445 H 0.83416 0.36063 0.51535 0.0
H446 H 0.90726 0.52606 0.50511 0.0
C447 C 0.0964 0.54147 0.50215 0.0
C448 C 0.12048 0.51187 0.50562 0.0
C449 C 0.08977 0.45817 0.51027 0.0
C450 C 0.03608 0.4342 0.51117 0.0
C451 C 0.01361 0.46451 0.50783 0.0
C452 C 0.04278 0.51704 0.50369 0.0
C453 C 0.00922 0.54116 0.50227 0.0
C454 C 0.02182 0.57964 0.52771 0.0
C455 C 0.01409 0.56663 0.47201 0.0
C456 C 0.95668 0.49395 0.50618 0.0
C457 C 0.95996 0.45004 0.509 0.0
C458 C 0.91637 0.40167 0.51227 0.0
C459 C 0.86812 0.39813 0.51276 0.0
C460 C 0.86394 0.44279 0.51043 0.0
C461 C 0.90901 0.49122 0.50715 0.0
H462 H 0.3982 0.89998 0.8704 0.0
H463 H 0.43782 0.857 0.78703 0.0
H464 H 0.50181 0.94762 0.77744 0.0
H465 H 0.41491 0.02344 0.84636 0.0
H466 H 0.44364 0.05547 0.88071 0.0
H467 H 0.39808 0.98747 0.88045 0.0
H468 H 0.46462 0.97 0.90612 0.0
H469 H 0.5103 0.03789 0.90653 0.0
H470 H 0.52707 0.99414 0.88961 0.0
H471 H 0.56317 0.04153 0.7771 0.0
H472 H 0.62191 0.13371 0.78753 0.0
H473 H 0.54619 0.11765 0.87161 0.0
C474 C 0.41999 0.90983 0.85 0.0
C475 C 0.41286 0.87136 0.82941 0.0
C476 C 0.4427 0.88568 0.80319 0.0
C477 C 0.479 0.93713 0.79744 0.0
C478 C 0.48546 0.97403 0.8182 0.0
C479 C 0.45715 0.96121 0.84407 0.0
C480 C 0.47417 0.00833 0.86341 0.0
C481 C 0.43006 0.01932 0.86799 0.0
C482 C 0.4953 1.00221 0.89318 0.0
C483 C 0.51648 0.04942 0.84438 0.0
C484 C 0.52189 0.02866 0.81828 0.0
C485 C 0.55913 0.05833 0.79735 0.0
C486 C 0.59222 0.11051 0.8034 0.0
C487 C 0.58793 0.13236 0.83012 0.0
C488 C 0.54945 0.10166 0.85081 0.0
H489 H 0.52473 0.61457 0.16204 0.0
H490 H 0.36492 0.51409 0.18551 0.0
H491 H 0.38001 0.44121 0.18986 0.0
H492 H 0.53386 0.51942 0.11647 0.0
H493 H 0.59913 0.54033 0.12709 0.0
H494 H 0.57656 0.5855 0.12663 0.0
H495 H 0.60377 0.60835 0.18141 0.0
H496 H 0.62623 0.56309 0.18208 0.0
H497 H 0.57942 0.55794 0.20877 0.0
H498 H 0.41329 0.38161 0.19583 0.0
H499 H 0.4595 0.33407 0.19623 0.0
H500 H 0.59612 0.46862 0.16269 0.0
C501 C 0.49309 0.57714 0.16807 0.0
C502 C 0.44365 0.56981 0.17362 0.0
C503 C 0.40291 0.52034 0.18106 0.0
C504 C 0.4112 0.47881 0.18373 0.0
C505 C 0.46026 0.48715 0.17825 0.0
C506 C 0.50038 0.5347 0.17 0.0
C507 C 0.54869 0.53212 0.16411 0.0
C508 C 0.56554 0.5451 0.13164 0.0
C509 C 0.59209 0.56748 0.18537 0.0
C510 C 0.52942 0.47587 0.17075 0.0
C511 C 0.47852 0.45111 0.17931 0.0
C512 C 0.45279 0.40012 0.18843 0.0
C513 C 0.47946 0.37329 0.18842 0.0
C514 C 0.53105 0.39681 0.17851 0.0
C515 C 0.55636 0.44905 0.16968 0.0
H516 H 0.61345 0.27594 0.93041 0.0
H517 H 0.76743 0.29954 0.93963 0.0
H518 H 0.76713 0.31929 0.99244 0.0
H519 H 0.62915 0.37592 0.97918 0.0
H520 H 0.56576 0.34029 0.99501 0.0
H521 H 0.57701 0.32686 0.95779 0.0
H522 H 0.5405 0.23118 0.97144 0.0
H523 H 0.52879 0.24417 0.00866 0.0
H524 H 0.5673 0.21475 1.00236 0.0
H525 H 0.75301 0.34119 0.04295 0.0
H526 H 0.72287 0.35607 0.0903 0.0
H527 H 0.57581 0.31454 0.05027 0.0
C528 C 0.64696 0.28487 0.94359 0.0
C529 C 0.69051 0.28617 0.93079 0.0
C530 C 0.73349 0.29796 0.94886 0.0
C531 C 0.73383 0.3095 0.97889 0.0
C532 C 0.69069 0.30856 0.99067 0.0
C533 C 0.64773 0.29587 0.9738 0.0
C534 C 0.60628 0.29713 0.99229 0.0
C535 C 0.59383 0.33746 0.98035 0.0
C536 C 0.55785 0.24362 0.99377 0.0
C537 C 0.63298 0.31299 0.02211 0.0
C538 C 0.6818 0.31975 0.02044 0.0
C539 C 0.71472 0.33563 0.04464 0.0
C540 C 0.69718 0.34422 0.07146 0.0
C541 C 0.64683 0.33643 0.07412 0.0
C542 C 0.61438 0.32068 0.04899 0.0
H543 H 0.40334 0.70428 0.27954 0.0
H544 H 0.27882 0.57217 0.2353 0.0
H545 H 0.23575 0.53947 0.2832 0.0
H546 H 0.40666 0.63896 0.34475 0.0
H547 H 0.41892 0.69086 0.36949 0.0
H548 H 0.44021 0.70436 0.33162 0.0
H549 H 0.39025 0.75284 0.32451 0.0
H550 H 0.36887 0.73954 0.36239 0.0
H551 H 0.3226 0.72064 0.33287 0.0
H552 H 0.20812 0.51841 0.33612 0.0
H553 H 0.1949 0.51405 0.39028 0.0
H554 H 0.33445 0.66181 0.39993 0.0
C555 C 0.36696 0.66855 0.27989 0.0
C556 C 0.34472 0.64075 0.25356 0.0
C557 C 0.29682 0.59428 0.25506 0.0
C558 C 0.27199 0.57525 0.28221 0.0
C559 C 0.29511 0.60335 0.30771 0.0
C560 C 0.34121 0.64927 0.3068 0.0
C561 C 0.35739 0.67221 0.33747 0.0
C562 C 0.40884 0.67685 0.34635 0.0
C563 C 0.35991 0.7244 0.33941 0.0
C564 C 0.31341 0.63173 0.35573 0.0
C565 C 0.2781 0.59215 0.33815 0.0
C566 C 0.23521 0.54943 0.3501 0.0
C567 C 0.22808 0.54721 0.38086 0.0
C568 C 0.26332 0.58776 0.39923 0.0
C569 C 0.30643 0.63055 0.38639 0.0
H570 H 0.67354 0.25891 0.7181 0.0
H571 H 0.65709 0.37864 0.7614 0.0
H572 H 0.66595 0.42057 0.71333 0.0
H573 H 0.7678 0.33975 0.66536 0.0
H574 H 0.74225 0.29405 0.63544 0.0
H575 H 0.73294 0.27183 0.67317 0.0
H576 H 0.63456 0.22009 0.66479 0.0
H577 H 0.64363 0.24213 0.627 0.0
H578 H 0.60216 0.25257 0.65116 0.0
H579 H 0.68149 0.45268 0.66172 0.0
H580 H 0.69827 0.47085 0.60849 0.0
H581 H 0.70143 0.32929 0.59717 0.0
C582 C 0.67134 0.29368 0.71742 0.0
C583 C 0.66452 0.31536 0.74362 0.0
C584 C 0.66206 0.36106 0.74173 0.0
C585 C 0.66714 0.3853 0.7145 0.0
C586 C 0.67423 0.36328 0.68921 0.0
C587 C 0.6759 0.3183 0.69027 0.0
C588 C 0.68439 0.30325 0.65961 0.0
C589 C 0.73485 0.30218 0.65833 0.0
C590 C 0.63844 0.25143 0.65008 0.0
C591 C 0.68778 0.34714 0.64132 0.0
C592 C 0.682 0.38135 0.65897 0.0
C593 C 0.68563 0.42599 0.64759 0.0
C594 C 0.6954 0.43607 0.61733 0.0
C595 C 0.70102 0.40146 0.59863 0.0
C596 C 0.69677 0.35619 0.61084 0.0
H597 H 0.29549 0.70074 0.94618 0.0
H598 H 0.43061 0.71444 0.90299 0.0
H599 H 0.46227 0.70336 0.95119 0.0
H600 H 0.35814 0.7682 0.01303 0.0
H601 H 0.30503 0.72636 0.03654 0.0
H602 H 0.29356 0.73639 0.99867 0.0
H603 H 0.24612 0.63809 0.98957 0.0
H604 H 0.25755 0.62777 0.0274 0.0
H605 H 0.27835 0.60275 0.99762 0.0
H606 H 0.47979 0.69168 1.00453 0.0
H607 H 0.48013 0.67766 0.05846 0.0
H608 H 0.33236 0.66901 0.06609 0.0
C609 C 0.33187 0.70167 0.9468 0.0
C610 C 0.36059 0.70869 0.92071 0.0
C611 C 0.40782 0.70917 0.9226 0.0
C612 C 0.42621 0.70295 0.94991 0.0
C613 C 0.39686 0.69599 0.97515 0.0
C614 C 0.3506 0.69511 0.9738 0.0
C615 C 0.32595 0.68603 1.00407 0.0
C616 C 0.32036 0.73199 0.01363 0.0
C617 C 0.27392 0.63566 1.00469 0.0
C618 C 0.36558 0.68199 0.02264 0.0
C619 C 0.40635 0.68809 1.00562 0.0
C620 C 0.44796 0.68663 0.01806 0.0
C621 C 0.44783 0.67866 0.0487 0.0
C622 C 0.40617 0.67186 0.06648 0.0
C623 C 0.36461 0.67357 0.05311 0.0
H624 H 0.65551 0.31782 0.40914 0.0
H625 H 0.78713 0.47232 0.4022 0.0
H626 H 0.77423 0.47088 0.34855 0.0
H627 H 0.67906 0.27038 0.33996 0.0
H628 H 0.61201 0.23202 0.33055 0.0
H629 H 0.63133 0.24403 0.36882 0.0
H630 H 0.57123 0.2811 0.37712 0.0
H631 H 0.5519 0.26942 0.33885 0.0
H632 H 0.57809 0.33306 0.35408 0.0
H633 H 0.74642 0.45587 0.29685 0.0
H634 H 0.70783 0.4262 0.24804 0.0
H635 H 0.59479 0.27926 0.28583 0.0
C636 C 0.68177 0.35113 0.39626 0.0
C637 C 0.72245 0.39516 0.40999 0.0
C638 C 0.75585 0.43804 0.39234 0.0
C639 C 0.74881 0.43771 0.36177 0.0
C640 C 0.70835 0.39413 0.34898 0.0
C641 C 0.67551 0.3514 0.36544 0.0
C642 C 0.63513 0.30975 0.34567 0.0
C643 C 0.63967 0.26117 0.34629 0.0
C644 C 0.58087 0.29763 0.35446 0.0
C645 C 0.65051 0.33611 0.31567 0.0
C646 C 0.69272 0.38483 0.31838 0.0
C647 C 0.71368 0.41759 0.29432 0.0
C648 C 0.6913 0.40013 0.26656 0.0
C649 C 0.64849 0.34994 0.26277 0.0
C650 C 0.62773 0.31758 0.28783 0.0
H651 H 0.3285 0.65322 0.7325 0.0
H652 H 0.30123 0.78136 0.72553 0.0
H653 H 0.28805 0.76676 0.67171 0.0
H654 H 0.39683 0.67493 0.66384 0.0
H655 H 0.36851 0.60759 0.65532 0.0
H656 H 0.37632 0.62834 0.69331 0.0
H657 H 0.27906 0.56736 0.70241 0.0
H658 H 0.27093 0.54645 0.66445 0.0
H659 H 0.23307 0.5723 0.6792 0.0
H660 H 0.27896 0.7392 0.6188 0.0
H661 H 0.27182 0.69903 0.57031 0.0
H662 H 0.30287 0.58712 0.61163 0.0
C663 C 0.31991 0.67834 0.71966 0.0
C664 C 0.31613 0.71864 0.73322 0.0
C665 C 0.3044 0.75032 0.71565 0.0
C666 C 0.29688 0.74236 0.68506 0.0
C667 C 0.30093 0.70238 0.6724 0.0
C668 C 0.31193 0.67072 0.68912 0.0
C669 C 0.31335 0.63003 0.67007 0.0
C670 C 0.36694 0.63558 0.67068 0.0
C671 C 0.27161 0.57583 0.67961 0.0
C672 C 0.3016 0.64391 0.64 0.0
C673 C 0.29476 0.68587 0.64187 0.0
C674 C 0.28409 0.70624 0.61706 0.0
C675 C 0.28017 0.68308 0.58956 0.0
C676 C 0.28666 0.63973 0.58703 0.0
C677 C 0.29749 0.62002 0.61273 0.0
loop_
_geom_bond_atom_site_label_1
_geom_bond_atom_site_label_2
_geom_bond_distance
_geom_bond_site_symmetry_2
_ccdc_geom_bond_type
Co0 O2 2.143 . S
Co0 O8 2.074 . S
Co0 O11 2.093 . S
Co0 O24 2.097 . S
Co0 N41 2.151 . S
Co0 N49 2.214 . S
Co1 O2 2.160 . S
Co1 O7 2.058 . S
Co1 O17 2.057 . S
Co1 O32 2.037 . S
Co1 N36 2.145 . S
Co1 N57 2.257 . S
O2 Co0 2.143 . S
O2 Co1 2.160 . S
C3 O4 1.278 . S
C3 O11 1.224 . S
O4 C3 1.278 . S
C5 O6 1.245 . S
C5 O17 1.232 . S
O6 C5 1.245 . S
O7 Co1 2.058 . S
O7 C33 1.269 . S
O8 Co0 2.074 . S
O8 C33 1.257 . S
H9 C34 0.930 . S
H10 C40 0.930 . S
O11 Co0 2.093 . S
O11 C3 1.224 . S
H12 C44 0.929 . S
H13 C46 0.930 . S
H14 C47 0.930 . S
H15 C45 0.929 . S
H16 C48 0.928 . S
O17 Co1 2.057 . S
O17 C5 1.232 . S
H18 C37 0.929 . S
H19 C38 0.929 . S
H20 C50 0.931 . S
H21 C42 0.929 . S
H22 C51 0.930 . S
H23 C43 0.931 . S
O24 Co0 2.097 . S
O24 C52 1.214 . S
H25 C53 0.929 . S
H26 C54 0.929 . S
H27 C55 0.930 . S
H28 C56 0.929 . S
H29 C58 0.930 . S
H30 C35 0.930 . S
H31 C39 0.930 . S
O32 Co1 2.037 . S
O32 C52 1.234 . S
C33 O7 1.269 . S
C33 O8 1.257 . S
C34 H9 0.930 . S
C34 C37 1.388 . S
C34 C39 1.418 . S
C35 H30 0.930 . S
C35 C38 1.404 . S
C35 C39 1.353 . S
N36 Co1 2.145 . S
N36 C37 1.397 . S
N36 C38 1.334 . S
C37 H18 0.929 . S
C37 C34 1.388 . S
C37 N36 1.397 . S
C38 H19 0.929 . S
C38 C35 1.404 . S
C38 N36 1.334 . S
C39 H31 0.930 . S
C39 C34 1.418 . S
C39 C35 1.353 . S
C40 H10 0.930 . S
C40 N41 1.330 . S
C40 C42 1.446 . S
N41 Co0 2.151 . S
N41 C40 1.330 . S
N41 C45 1.418 . S
C42 H21 0.929 . S
C42 C40 1.446 . S
C42 C43 1.332 . S
C43 H23 0.931 . S
C43 C42 1.332 . S
C43 C44 1.267 . S
C44 H12 0.929 . S
C44 C43 1.267 . S
C44 C45 1.251 . S
C45 H15 0.929 . S
C45 N41 1.418 . S
C45 C44 1.251 . S
C46 H13 0.930 . S
C46 C48 1.406 . S
C46 C51 1.261 . S
C47 H14 0.930 . S
C47 N49 1.325 . S
C47 C50 1.357 . S
C48 H16 0.928 . S
C48 C46 1.406 . S
C48 N49 1.261 . S
N49 Co0 2.214 . S
N49 C47 1.325 . S
N49 C48 1.261 . S
C50 H20 0.931 . S
C50 C47 1.357 . S
C50 C51 1.312 . S
C51 H22 0.930 . S
C51 C46 1.261 . S
C51 C50 1.312 . S
C52 O24 1.214 . S
C52 O32 1.234 . S
C53 H25 0.929 . S
C53 C56 1.391 . S
C53 C58 1.391 . S
C54 H26 0.929 . S
C54 C55 1.390 . S
C54 N57 1.391 . S
C55 H27 0.930 . S
C55 C54 1.390 . S
C55 C56 1.392 . S
C56 H28 0.929 . S
C56 C53 1.391 . S
C56 C55 1.392 . S
N57 Co1 2.257 . S
N57 C54 1.391 . S
N57 C58 1.388 . S
C58 H29 0.930 . S
C58 C53 1.391 . S
C58 N57 1.388 . S
Co59 O61 2.143 . S
Co59 O67 2.074 . S
Co59 O70 2.093 . S
Co59 O83 2.097 . S
Co59 N100 2.151 . S
Co59 N108 2.214 . S
Co60 O61 2.160 . S
Co60 O66 2.058 . S
Co60 O76 2.057 . S
Co60 O91 2.037 . S
Co60 N95 2.145 . S
Co60 N116 2.257 . S
O61 Co59 2.143 . S
O61 Co60 2.160 . S
C62 O63 1.278 . S
C62 O70 1.224 . S
O63 C62 1.278 . S
C64 O65 1.245 . S
C64 O76 1.232 . S
O65 C64 1.245 . S
O66 Co60 2.058 . S
O66 C92 1.269 . S
O67 Co59 2.074 . S
O67 C92 1.257 . S
H68 C93 0.930 . S
H69 C99 0.930 . S
O70 Co59 2.093 . S
O70 C62 1.224 . S
H71 C103 0.929 . S
H72 C105 0.930 . S
H73 C106 0.930 . S
H74 C104 0.929 . S
H75 C107 0.928 . S
O76 Co60 2.057 . S
O76 C64 1.232 . S
H77 C96 0.929 . S
H78 C97 0.929 . S
H79 C109 0.931 . S
H80 C101 0.929 . S
H81 C110 0.930 . S
H82 C102 0.931 . S
O83 Co59 2.097 . S
O83 C111 1.214 . S
H84 C112 0.929 . S
H85 C113 0.929 . S
H86 C114 0.930 . S
H87 C115 0.929 . S
H88 C117 0.930 . S
H89 C94 0.930 . S
H90 C98 0.930 . S
O91 Co60 2.037 . S
O91 C111 1.234 . S
C92 O66 1.269 . S
C92 O67 1.257 . S
C93 H68 0.930 . S
C93 C96 1.388 . S
C93 C98 1.418 . S
C94 H89 0.930 . S
C94 C97 1.404 . S
C94 C98 1.353 . S
N95 Co60 2.145 . S
N95 C96 1.397 . S
N95 C97 1.334 . S
C96 H77 0.929 . S
C96 C93 1.388 . S
C96 N95 1.397 . S
C97 H78 0.929 . S
C97 C94 1.404 . S
C97 N95 1.334 . S
C98 H90 0.930 . S
C98 C93 1.418 . S
C98 C94 1.353 . S
C99 H69 0.930 . S
C99 N100 1.330 . S
C99 C101 1.446 . S
N100 Co59 2.151 . S
N100 C99 1.330 . S
N100 C104 1.418 . S
C101 H80 0.929 . S
C101 C99 1.446 . S
C101 C102 1.332 . S
C102 H82 0.931 . S
C102 C101 1.332 . S
C102 C103 1.267 . S
C103 H71 0.929 . S
C103 C102 1.267 . S
C103 C104 1.251 . S
C104 H74 0.929 . S
C104 N100 1.418 . S
C104 C103 1.251 . S
C105 H72 0.930 . S
C105 C107 1.406 . S
C105 C110 1.261 . S
C106 H73 0.930 . S
C106 N108 1.325 . S
C106 C109 1.357 . S
C107 H75 0.928 . S
C107 C105 1.406 . S
C107 N108 1.261 . S
N108 Co59 2.214 . S
N108 C106 1.325 . S
N108 C107 1.261 . S
C109 H79 0.931 . S
C109 C106 1.357 . S
C109 C110 1.312 . S
C110 H81 0.930 . S
C110 C105 1.261 . S
C110 C109 1.312 . S
C111 O83 1.214 . S
C111 O91 1.234 . S
C112 H84 0.929 . S
C112 C115 1.391 . S
C112 C117 1.391 . S
C113 H85 0.929 . S
C113 C114 1.390 . S
C113 N116 1.391 . S
C114 H86 0.930 . S
C114 C113 1.390 . S
C114 C115 1.392 . S
C115 H87 0.929 . S
C115 C112 1.391 . S
C115 C114 1.392 . S
N116 Co60 2.257 . S
N116 C113 1.391 . S
N116 C117 1.388 . S
C117 H88 0.930 . S
C117 C112 1.391 . S
C117 N116 1.388 . S
Co118 O120 2.143 . S
Co118 O126 2.074 . S
Co118 O129 2.093 . S
Co118 O142 2.097 . S
Co118 N159 2.151 . S
Co118 N167 2.214 . S
Co119 O120 2.160 . S
Co119 O125 2.058 . S
Co119 O135 2.057 . S
Co119 O150 2.037 . S
Co119 N154 2.145 . S
Co119 N175 2.257 . S
O120 Co118 2.143 . S
O120 Co119 2.160 . S
C121 O122 1.278 . S
C121 O129 1.224 . S
O122 C121 1.278 . S
C123 O124 1.245 . S
C123 O135 1.232 . S
O124 C123 1.245 . S
O125 Co119 2.058 . S
O125 C151 1.269 . S
O126 Co118 2.074 . S
O126 C151 1.257 . S
H127 C152 0.930 . S
H128 C158 0.930 . S
O129 Co118 2.093 . S
O129 C121 1.224 . S
H130 C162 0.929 . S
H131 C164 0.930 . S
H132 C165 0.930 . S
H133 C163 0.929 . S
H134 C166 0.928 . S
O135 Co119 2.057 . S
O135 C123 1.232 . S
H136 C155 0.929 . S
H137 C156 0.929 . S
H138 C168 0.931 . S
H139 C160 0.929 . S
H140 C169 0.930 . S
H141 C161 0.931 . S
O142 Co118 2.097 . S
O142 C170 1.214 . S
H143 C171 0.929 . S
H144 C172 0.929 . S
H145 C173 0.930 . S
H146 C174 0.929 . S
H147 C176 0.930 . S
H148 C153 0.930 . S
H149 C157 0.930 . S
O150 Co119 2.037 . S
O150 C170 1.234 . S
C151 O125 1.269 . S
C151 O126 1.257 . S
C152 H127 0.930 . S
C152 C155 1.388 . S
C152 C157 1.418 . S
C153 H148 0.930 . S
C153 C156 1.404 . S
C153 C157 1.353 . S
N154 Co119 2.145 . S
N154 C155 1.397 . S
N154 C156 1.334 . S
C155 H136 0.929 . S
C155 C152 1.388 . S
C155 N154 1.397 . S
C156 H137 0.929 . S
C156 C153 1.404 . S
C156 N154 1.334 . S
C157 H149 0.930 . S
C157 C152 1.418 . S
C157 C153 1.353 . S
C158 H128 0.930 . S
C158 N159 1.330 . S
C158 C160 1.446 . S
N159 Co118 2.151 . S
N159 C158 1.330 . S
N159 C163 1.418 . S
C160 H139 0.929 . S
C160 C158 1.446 . S
C160 C161 1.332 . S
C161 H141 0.931 . S
C161 C160 1.332 . S
C161 C162 1.267 . S
C162 H130 0.929 . S
C162 C161 1.267 . S
C162 C163 1.251 . S
C163 H133 0.929 . S
C163 N159 1.418 . S
C163 C162 1.251 . S
C164 H131 0.930 . S
C164 C166 1.406 . S
C164 C169 1.261 . S
C165 H132 0.930 . S
C165 N167 1.325 . S
C165 C168 1.357 . S
C166 H134 0.928 . S
C166 C164 1.406 . S
C166 N167 1.261 . S
N167 Co118 2.214 . S
N167 C165 1.325 . S
N167 C166 1.261 . S
C168 H138 0.931 . S
C168 C165 1.357 . S
C168 C169 1.312 . S
C169 H140 0.930 . S
C169 C164 1.261 . S
C169 C168 1.312 . S
C170 O142 1.214 . S
C170 O150 1.234 . S
C171 H143 0.929 . S
C171 C174 1.391 . S
C171 C176 1.391 . S
C172 H144 0.929 . S
C172 C173 1.390 . S
C172 N175 1.391 . S
C173 H145 0.930 . S
C173 C172 1.390 . S
C173 C174 1.392 . S
C174 H146 0.929 . S
C174 C171 1.391 . S
C174 C173 1.392 . S
N175 Co119 2.257 . S
N175 C172 1.391 . S
N175 C176 1.388 . S
C176 H147 0.930 . S
C176 C171 1.391 . S
C176 N175 1.388 . S
Co177 O179 2.143 . S
Co177 O185 2.074 . S
Co177 O188 2.093 . S
Co177 O201 2.097 . S
Co177 N218 2.151 . S
Co177 N226 2.214 . S
Co178 O179 2.160 . S
Co178 O184 2.058 . S
Co178 O194 2.057 . S
Co178 O209 2.037 . S
Co178 N213 2.145 . S
Co178 N234 2.257 . S
O179 Co177 2.143 . S
O179 Co178 2.160 . S
C180 O181 1.278 . S
C180 O188 1.224 . S
O181 C180 1.278 . S
C182 O183 1.245 . S
C182 O194 1.232 . S
O183 C182 1.245 . S
O184 Co178 2.058 . S
O184 C210 1.269 . S
O185 Co177 2.074 . S
O185 C210 1.257 . S
H186 C211 0.930 . S
H187 C217 0.930 . S
O188 Co177 2.093 . S
O188 C180 1.224 . S
H189 C221 0.929 . S
H190 C223 0.930 . S
H191 C224 0.930 . S
H192 C222 0.929 . S
H193 C225 0.928 . S
O194 Co178 2.057 . S
O194 C182 1.232 . S
H195 C214 0.929 . S
H196 C215 0.929 . S
H197 C227 0.931 . S
H198 C219 0.929 . S
H199 C228 0.930 . S
H200 C220 0.931 . S
O201 Co177 2.097 . S
O201 C229 1.214 . S
H202 C230 0.929 . S
H203 C231 0.929 . S
H204 C232 0.930 . S
H205 C233 0.929 . S
H206 C235 0.930 . S
H207 C212 0.930 . S
H208 C216 0.930 . S
O209 Co178 2.037 . S
O209 C229 1.234 . S
C210 O184 1.269 . S
C210 O185 1.257 . S
C211 H186 0.930 . S
C211 C214 1.388 . S
C211 C216 1.418 . S
C212 H207 0.930 . S
C212 C215 1.404 . S
C212 C216 1.353 . S
N213 Co178 2.145 . S
N213 C214 1.397 . S
N213 C215 1.334 . S
C214 H195 0.929 . S
C214 C211 1.388 . S
C214 N213 1.397 . S
C215 H196 0.929 . S
C215 C212 1.404 . S
C215 N213 1.334 . S
C216 H208 0.930 . S
C216 C211 1.418 . S
C216 C212 1.353 . S
C217 H187 0.930 . S
C217 N218 1.330 . S
C217 C219 1.446 . S
N218 Co177 2.151 . S
N218 C217 1.330 . S
N218 C222 1.418 . S
C219 H198 0.929 . S
C219 C217 1.446 . S
C219 C220 1.332 . S
C220 H200 0.931 . S
C220 C219 1.332 . S
C220 C221 1.267 . S
C221 H189 0.929 . S
C221 C220 1.267 . S
C221 C222 1.251 . S
C222 H192 0.929 . S
C222 N218 1.418 . S
C222 C221 1.251 . S
C223 H190 0.930 . S
C223 C225 1.406 . S
C223 C228 1.261 . S
C224 H191 0.930 . S
C224 N226 1.325 . S
C224 C227 1.357 . S
C225 H193 0.928 . S
C225 C223 1.406 . S
C225 N226 1.261 . S
N226 Co177 2.214 . S
N226 C224 1.325 . S
N226 C225 1.261 . S
C227 H197 0.931 . S
C227 C224 1.357 . S
C227 C228 1.312 . S
C228 H199 0.930 . S
C228 C223 1.261 . S
C228 C227 1.312 . S
C229 O201 1.214 . S
C229 O209 1.234 . S
C230 H202 0.929 . S
C230 C233 1.391 . S
C230 C235 1.391 . S
C231 H203 0.929 . S
C231 C232 1.390 . S
C231 N234 1.391 . S
C232 H204 0.930 . S
C232 C231 1.390 . S
C232 C233 1.392 . S
C233 H205 0.929 . S
C233 C230 1.391 . S
C233 C232 1.392 . S
N234 Co178 2.257 . S
N234 C231 1.391 . S
N234 C235 1.388 . S
C235 H206 0.930 . S
C235 C230 1.391 . S
C235 N234 1.388 . S
Co236 O238 2.143 . S
Co236 O244 2.074 . S
Co236 O247 2.093 . S
Co236 O260 2.097 . S
Co236 N277 2.151 . S
Co236 N285 2.214 . S
Co237 O238 2.160 . S
Co237 O243 2.058 . S
Co237 O253 2.057 . S
Co237 O268 2.037 . S
Co237 N272 2.145 . S
Co237 N293 2.257 . S
O238 Co236 2.143 . S
O238 Co237 2.160 . S
C239 O240 1.278 . S
C239 O247 1.224 . S
O240 C239 1.278 . S
C241 O242 1.245 . S
C241 O253 1.232 . S
O242 C241 1.245 . S
O243 Co237 2.058 . S
O243 C269 1.269 . S
O244 Co236 2.074 . S
O244 C269 1.257 . S
H245 C270 0.930 . S
H246 C276 0.930 . S
O247 Co236 2.093 . S
O247 C239 1.224 . S
H248 C280 0.929 . S
H249 C282 0.930 . S
H250 C283 0.930 . S
H251 C281 0.929 . S
H252 C284 0.928 . S
O253 Co237 2.057 . S
O253 C241 1.232 . S
H254 C273 0.929 . S
H255 C274 0.929 . S
H256 C286 0.931 . S
H257 C278 0.929 . S
H258 C287 0.930 . S
H259 C279 0.931 . S
O260 Co236 2.097 . S
O260 C288 1.214 . S
H261 C289 0.929 . S
H262 C290 0.929 . S
H263 C291 0.930 . S
H264 C292 0.929 . S
H265 C294 0.930 . S
H266 C271 0.930 . S
H267 C275 0.930 . S
O268 Co237 2.037 . S
O268 C288 1.234 . S
C269 O243 1.269 . S
C269 O244 1.257 . S
C270 H245 0.930 . S
C270 C273 1.388 . S
C270 C275 1.418 . S
C271 H266 0.930 . S
C271 C274 1.404 . S
C271 C275 1.353 . S
N272 Co237 2.145 . S
N272 C273 1.397 . S
N272 C274 1.334 . S
C273 H254 0.929 . S
C273 C270 1.388 . S
C273 N272 1.397 . S
C274 H255 0.929 . S
C274 C271 1.404 . S
C274 N272 1.334 . S
C275 H267 0.930 . S
C275 C270 1.418 . S
C275 C271 1.353 . S
C276 H246 0.930 . S
C276 N277 1.330 . S
C276 C278 1.446 . S
N277 Co236 2.151 . S
N277 C276 1.330 . S
N277 C281 1.418 . S
C278 H257 0.929 . S
C278 C276 1.446 . S
C278 C279 1.332 . S
C279 H259 0.931 . S
C279 C278 1.332 . S
C279 C280 1.267 . S
C280 H248 0.929 . S
C280 C279 1.267 . S
C280 C281 1.251 . S
C281 H251 0.929 . S
C281 N277 1.418 . S
C281 C280 1.251 . S
C282 H249 0.930 . S
C282 C284 1.406 . S
C282 C287 1.261 . S
C283 H250 0.930 . S
C283 N285 1.325 . S
C283 C286 1.357 . S
C284 H252 0.928 . S
C284 C282 1.406 . S
C284 N285 1.261 . S
N285 Co236 2.214 . S
N285 C283 1.325 . S
N285 C284 1.261 . S
C286 H256 0.931 . S
C286 C283 1.357 . S
C286 C287 1.312 . S
C287 H258 0.930 . S
C287 C282 1.261 . S
C287 C286 1.312 . S
C288 O260 1.214 . S
C288 O268 1.234 . S
C289 H261 0.929 . S
C289 C292 1.391 . S
C289 C294 1.391 . S
C290 H262 0.929 . S
C290 C291 1.390 . S
C290 N293 1.391 . S
C291 H263 0.930 . S
C291 C290 1.390 . S
C291 C292 1.392 . S
C292 H264 0.929 . S
C292 C289 1.391 . S
C292 C291 1.392 . S
N293 Co237 2.257 . S
N293 C290 1.391 . S
N293 C294 1.388 . S
C294 H265 0.930 . S
C294 C289 1.391 . S
C294 N293 1.388 . S
Co295 O297 2.143 . S
Co295 O303 2.074 . S
Co295 O306 2.093 . S
Co295 O319 2.097 . S
Co295 N336 2.151 . S
Co295 N344 2.214 . S
Co296 O297 2.160 . S
Co296 O302 2.058 . S
Co296 O312 2.057 . S
Co296 O327 2.037 . S
Co296 N331 2.145 . S
Co296 N352 2.257 . S
O297 Co295 2.143 . S
O297 Co296 2.160 . S
C298 O299 1.278 . S
C298 O306 1.224 . S
O299 C298 1.278 . S
C300 O301 1.245 . S
C300 O312 1.232 . S
O301 C300 1.245 . S
O302 Co296 2.058 . S
O302 C328 1.269 . S
O303 Co295 2.074 . S
O303 C328 1.257 . S
H304 C329 0.930 . S
H305 C335 0.930 . S
O306 Co295 2.093 . S
O306 C298 1.224 . S
H307 C339 0.929 . S
H308 C341 0.930 . S
H309 C342 0.930 . S
H310 C340 0.929 . S
H311 C343 0.928 . S
O312 Co296 2.057 . S
O312 C300 1.232 . S
H313 C332 0.929 . S
H314 C333 0.929 . S
H315 C345 0.931 . S
H316 C337 0.929 . S
H317 C346 0.930 . S
H318 C338 0.931 . S
O319 Co295 2.097 . S
O319 C347 1.214 . S
H320 C348 0.929 . S
H321 C349 0.929 . S
H322 C350 0.930 . S
H323 C351 0.929 . S
H324 C353 0.930 . S
H325 C330 0.930 . S
H326 C334 0.930 . S
O327 Co296 2.037 . S
O327 C347 1.234 . S
C328 O302 1.269 . S
C328 O303 1.257 . S
C329 H304 0.930 . S
C329 C332 1.388 . S
C329 C334 1.418 . S
C330 H325 0.930 . S
C330 C333 1.404 . S
C330 C334 1.353 . S
N331 Co296 2.145 . S
N331 C332 1.397 . S
N331 C333 1.334 . S
C332 H313 0.929 . S
C332 C329 1.388 . S
C332 N331 1.397 . S
C333 H314 0.929 . S
C333 C330 1.404 . S
C333 N331 1.334 . S
C334 H326 0.930 . S
C334 C329 1.418 . S
C334 C330 1.353 . S
C335 H305 0.930 . S
C335 N336 1.330 . S
C335 C337 1.446 . S
N336 Co295 2.151 . S
N336 C335 1.330 . S
N336 C340 1.418 . S
C337 H316 0.929 . S
C337 C335 1.446 . S
C337 C338 1.332 . S
C338 H318 0.931 . S
C338 C337 1.332 . S
C338 C339 1.267 . S
C339 H307 0.929 . S
C339 C338 1.267 . S
C339 C340 1.251 . S
C340 H310 0.929 . S
C340 N336 1.418 . S
C340 C339 1.251 . S
C341 H308 0.930 . S
C341 C343 1.406 . S
C341 C346 1.261 . S
C342 H309 0.930 . S
C342 N344 1.325 . S
C342 C345 1.357 . S
C343 H311 0.928 . S
C343 C341 1.406 . S
C343 N344 1.261 . S
N344 Co295 2.214 . S
N344 C342 1.325 . S
N344 C343 1.261 . S
C345 H315 0.931 . S
C345 C342 1.357 . S
C345 C346 1.312 . S
C346 H317 0.930 . S
C346 C341 1.261 . S
C346 C345 1.312 . S
C347 O319 1.214 . S
C347 O327 1.234 . S
C348 H320 0.929 . S
C348 C351 1.391 . S
C348 C353 1.391 . S
C349 H321 0.929 . S
C349 C350 1.390 . S
C349 N352 1.391 . S
C350 H322 0.930 . S
C350 C349 1.390 . S
C350 C351 1.392 . S
C351 H323 0.929 . S
C351 C348 1.391 . S
C351 C350 1.392 . S
N352 Co296 2.257 . S
N352 C349 1.391 . S
N352 C353 1.388 . S
C353 H324 0.930 . S
C353 C348 1.391 . S
C353 N352 1.388 . S
H354 C366 0.930 . S
H355 C368 0.930 . S
H356 C369 0.930 . S
H357 C373 0.959 . S
H358 C373 0.959 1_565 S
H359 C373 0.961 . S
H360 C374 0.960 1_545 S
H361 C374 0.961 . S
H362 C374 0.959 . S
H363 C377 0.929 . S
H364 C378 0.931 . S
H365 C380 0.930 . S
C366 H354 0.930 . S
C366 C367 1.399 . S
C366 C371 1.399 . S
C367 C366 1.399 . S
C367 C368 1.376 . S
C368 H355 0.930 . S
C368 C367 1.376 . S
C368 C369 1.388 . S
C369 H356 0.930 . S
C369 C368 1.388 . S
C369 C370 1.390 . S
C370 C369 1.390 . S
C370 C371 1.394 . S
C370 C376 1.465 1_545 S
C371 C366 1.399 . S
C371 C370 1.394 . S
C371 C372 1.516 . S
C372 C371 1.516 . S
C372 C373 1.502 . S
C372 C374 1.561 1_545 S
C372 C375 1.526 1_545 S
C373 H357 0.959 . S
C373 H358 0.959 1_545 S
C373 H359 0.961 . S
C373 C372 1.502 . S
C374 H360 0.960 1_565 S
C374 H361 0.961 . S
C374 H362 0.959 . S
C374 C372 1.561 1_565 S
C375 C372 1.526 1_565 S
C375 C376 1.396 . S
C375 C380 1.390 . S
C376 C370 1.465 1_565 S
C376 C375 1.396 . S
C376 C377 1.399 . S
C377 H363 0.929 . S
C377 C376 1.399 . S
C377 C378 1.385 . S
C378 H364 0.931 . S
C378 C377 1.385 . S
C378 C379 1.389 . S
C379 C378 1.389 . S
C379 C380 1.387 . S
C380 H365 0.930 . S
C380 C375 1.390 . S
C380 C379 1.387 . S
H381 C393 0.930 . S
H382 C395 0.930 . S
H383 C396 0.930 . S
H384 C400 0.959 . S
H385 C400 0.959 . S
H386 C400 0.961 . S
H387 C401 0.960 . S
H388 C401 0.961 . S
H389 C401 0.959 . S
H390 C404 0.929 . S
H391 C405 0.931 . S
H392 C407 0.930 . S
C393 H381 0.930 . S
C393 C394 1.399 . S
C393 C398 1.399 . S
C394 C393 1.399 . S
C394 C395 1.376 . S
C395 H382 0.930 . S
C395 C394 1.376 . S
C395 C396 1.388 . S
C396 H383 0.930 . S
C396 C395 1.388 . S
C396 C397 1.390 . S
C397 C396 1.390 . S
C397 C398 1.394 . S
C397 C403 1.465 . S
C398 C393 1.399 . S
C398 C397 1.394 . S
C398 C399 1.516 . S
C399 C398 1.516 . S
C399 C400 1.502 . S
C399 C401 1.561 . S
C399 C402 1.526 . S
C400 H384 0.959 . S
C400 H385 0.959 . S
C400 H386 0.961 . S
C400 C399 1.502 . S
C401 H387 0.960 . S
C401 H388 0.961 . S
C401 H389 0.959 . S
C401 C399 1.561 . S
C402 C399 1.526 . S
C402 C403 1.396 . S
C402 C407 1.390 . S
C403 C397 1.465 . S
C403 C402 1.396 . S
C403 C404 1.399 . S
C404 H390 0.929 . S
C404 C403 1.399 . S
C404 C405 1.385 . S
C405 H391 0.931 . S
C405 C404 1.385 . S
C405 C406 1.389 . S
C406 C405 1.389 . S
C406 C407 1.387 . S
C407 H392 0.930 . S
C407 C402 1.390 . S
C407 C406 1.387 . S
H408 C420 0.930 . S
H409 C422 0.930 . S
H410 C423 0.930 . S
H411 C427 0.959 . S
H412 C427 0.959 1_455 S
H413 C427 0.961 . S
H414 C428 0.960 1_655 S
H415 C428 0.961 . S
H416 C428 0.959 . S
H417 C431 0.929 . S
H418 C432 0.931 . S
H419 C434 0.930 . S
C420 H408 0.930 . S
C420 C421 1.399 . S
C420 C425 1.399 . S
C421 C420 1.399 . S
C421 C422 1.376 . S
C422 H409 0.930 . S
C422 C421 1.376 . S
C422 C423 1.388 . S
C423 H410 0.930 . S
C423 C422 1.388 . S
C423 C424 1.390 . S
C424 C423 1.390 . S
C424 C425 1.394 . S
C424 C430 1.465 1_655 S
C425 C420 1.399 . S
C425 C424 1.394 . S
C425 C426 1.516 . S
C426 C425 1.516 . S
C426 C427 1.502 . S
C426 C428 1.561 1_655 S
C426 C429 1.526 1_655 S
C427 H411 0.959 . S
C427 H412 0.959 1_655 S
C427 H413 0.961 . S
C427 C426 1.502 . S
C428 H414 0.960 1_455 S
C428 H415 0.961 . S
C428 H416 0.959 . S
C428 C426 1.561 1_455 S
C429 C426 1.526 1_455 S
C429 C430 1.396 . S
C429 C434 1.390 . S
C430 C424 1.465 1_455 S
C430 C429 1.396 . S
C430 C431 1.399 . S
C431 H417 0.929 . S
C431 C430 1.399 . S
C431 C432 1.385 . S
C432 H418 0.931 . S
C432 C431 1.385 . S
C432 C433 1.389 . S
C433 C432 1.389 . S
C433 C434 1.387 . S
C434 H419 0.930 . S
C434 C429 1.390 . S
C434 C433 1.387 . S
H435 C447 0.930 . S
H436 C449 0.930 . S
H437 C450 0.930 . S
H438 C454 0.959 . S
H439 C454 0.959 1_655 S
H440 C454 0.961 . S
H441 C455 0.960 1_455 S
H442 C455 0.961 . S
H443 C455 0.959 . S
H444 C458 0.929 . S
H445 C459 0.931 . S
H446 C461 0.930 . S
C447 H435 0.930 . S
C447 C448 1.399 . S
C447 C452 1.399 . S
C448 C447 1.399 . S
C448 C449 1.376 . S
C449 H436 0.930 . S
C449 C448 1.376 . S
C449 C450 1.388 . S
C450 H437 0.930 . S
C450 C449 1.388 . S
C450 C451 1.390 . S
C451 C450 1.390 . S
C451 C452 1.394 . S
C451 C457 1.465 1_455 S
C452 C447 1.399 . S
C452 C451 1.394 . S
C452 C453 1.516 . S
C453 C452 1.516 . S
C453 C454 1.502 . S
C453 C455 1.561 1_455 S
C453 C456 1.526 1_455 S
C454 H438 0.959 . S
C454 H439 0.959 1_455 S
C454 H440 0.961 . S
C454 C453 1.502 . S
C455 H441 0.960 1_655 S
C455 H442 0.961 . S
C455 H443 0.959 . S
C455 C453 1.561 1_655 S
C456 C453 1.526 1_655 S
C456 C457 1.396 . S
C456 C461 1.390 . S
C457 C451 1.465 1_655 S
C457 C456 1.396 . S
C457 C458 1.399 . S
C458 H444 0.929 . S
C458 C457 1.399 . S
C458 C459 1.385 . S
C459 H445 0.931 . S
C459 C458 1.385 . S
C459 C460 1.389 . S
C460 C459 1.389 . S
C460 C461 1.387 . S
C461 H446 0.930 . S
C461 C456 1.390 . S
C461 C460 1.387 . S
H462 C474 0.930 . S
H463 C476 0.930 . S
H464 C477 0.930 . S
H465 C481 0.959 . S
H466 C481 0.959 . S
H467 C481 0.961 1_565 S
H468 C482 0.960 . S
H469 C482 0.961 1_545 S
H470 C482 0.959 . S
H471 C485 0.929 . S
H472 C486 0.931 . S
H473 C488 0.930 . S
C474 H462 0.930 . S
C474 C475 1.399 . S
C474 C479 1.399 . S
C475 C474 1.399 . S
C475 C476 1.376 . S
C476 H463 0.930 . S
C476 C475 1.376 . S
C476 C477 1.388 . S
C477 H464 0.930 . S
C477 C476 1.388 . S
C477 C478 1.390 . S
C478 C477 1.390 . S
C478 C479 1.394 . S
C478 C484 1.465 1_565 S
C479 C474 1.399 . S
C479 C478 1.394 . S
C479 C480 1.516 1_565 S
C480 C479 1.516 1_545 S
C480 C481 1.502 . S
C480 C482 1.561 1_545 S
C480 C483 1.526 . S
C481 H465 0.959 . S
C481 H466 0.959 . S
C481 H467 0.961 1_545 S
C481 C480 1.502 . S
C482 H468 0.960 . S
C482 H469 0.961 1_565 S
C482 H470 0.959 . S
C482 C480 1.561 1_565 S
C483 C480 1.526 . S
C483 C484 1.396 . S
C483 C488 1.390 . S
C484 C478 1.465 1_545 S
C484 C483 1.396 . S
C484 C485 1.399 . S
C485 H471 0.929 . S
C485 C484 1.399 . S
C485 C486 1.385 . S
C486 H472 0.931 . S
C486 C485 1.385 . S
C486 C487 1.389 . S
C487 C486 1.389 . S
C487 C488 1.387 . S
C488 H473 0.930 . S
C488 C483 1.390 . S
C488 C487 1.387 . S
H489 C501 0.930 . S
H490 C503 0.930 . S
H491 C504 0.930 . S
H492 C508 0.959 . S
H493 C508 0.959 . S
H494 C508 0.961 . S
H495 C509 0.960 . S
H496 C509 0.961 . S
H497 C509 0.959 . S
H498 C512 0.929 . S
H499 C513 0.931 . S
H500 C515 0.930 . S
C501 H489 0.930 . S
C501 C502 1.399 . S
C501 C506 1.399 . S
C502 C501 1.399 . S
C502 C503 1.376 . S
C503 H490 0.930 . S
C503 C502 1.376 . S
C503 C504 1.388 . S
C504 H491 0.930 . S
C504 C503 1.388 . S
C504 C505 1.390 . S
C505 C504 1.390 . S
C505 C506 1.394 . S
C505 C511 1.465 . S
C506 C501 1.399 . S
C506 C505 1.394 . S
C506 C507 1.516 . S
C507 C506 1.516 . S
C507 C508 1.502 . S
C507 C509 1.561 . S
C507 C510 1.526 . S
C508 H492 0.959 . S
C508 H493 0.959 . S
C508 H494 0.961 . S
C508 C507 1.502 . S
C509 H495 0.960 . S
C509 H496 0.961 . S
C509 H497 0.959 . S
C509 C507 1.561 . S
C510 C507 1.526 . S
C510 C511 1.396 . S
C510 C515 1.390 . S
C511 C505 1.465 . S
C511 C510 1.396 . S
C511 C512 1.399 . S
C512 H498 0.929 . S
C512 C511 1.399 . S
C512 C513 1.385 . S
C513 H499 0.931 . S
C513 C512 1.385 . S
C513 C514 1.389 . S
C514 C513 1.389 . S
C514 C515 1.387 . S
C515 H500 0.930 . S
C515 C510 1.390 . S
C515 C514 1.387 . S
H516 C528 0.930 . S
H517 C530 0.930 . S
H518 C531 0.930 . S
H519 C535 0.959 . S
H520 C535 0.959 1_554 S
H521 C535 0.961 . S
H522 C536 0.960 . S
H523 C536 0.961 1_554 S
H524 C536 0.959 1_554 S
H525 C539 0.929 . S
H526 C540 0.931 . S
H527 C542 0.930 . S
C528 H516 0.930 . S
C528 C529 1.399 . S
C528 C533 1.399 . S
C529 C528 1.399 . S
C529 C530 1.376 . S
C530 H517 0.930 . S
C530 C529 1.376 . S
C530 C531 1.388 . S
C531 H518 0.930 . S
C531 C530 1.388 . S
C531 C532 1.390 . S
C532 C531 1.390 . S
C532 C533 1.394 . S
C532 C538 1.465 1_556 S
C533 C528 1.399 . S
C533 C532 1.394 . S
C533 C534 1.516 . S
C534 C533 1.516 . S
C534 C535 1.502 . S
C534 C536 1.561 . S
C534 C537 1.526 1_556 S
C535 H519 0.959 . S
C535 H520 0.959 1_556 S
C535 H521 0.961 . S
C535 C534 1.502 . S
C536 H522 0.960 . S
C536 H523 0.961 1_556 S
C536 H524 0.959 1_556 S
C536 C534 1.561 . S
C537 C534 1.526 1_554 S
C537 C538 1.396 . S
C537 C542 1.390 . S
C538 C532 1.465 1_554 S
C538 C537 1.396 . S
C538 C539 1.399 . S
C539 H525 0.929 . S
C539 C538 1.399 . S
C539 C540 1.385 . S
C540 H526 0.931 . S
C540 C539 1.385 . S
C540 C541 1.389 . S
C541 C540 1.389 . S
C541 C542 1.387 . S
C542 H527 0.930 . S
C542 C537 1.390 . S
C542 C541 1.387 . S
H543 C555 0.930 . S
H544 C557 0.930 . S
H545 C558 0.930 . S
H546 C562 0.959 . S
H547 C562 0.959 . S
H548 C562 0.961 . S
H549 C563 0.960 . S
H550 C563 0.961 . S
H551 C563 0.959 . S
H552 C566 0.929 . S
H553 C567 0.931 . S
H554 C569 0.930 . S
C555 H543 0.930 . S
C555 C556 1.399 . S
C555 C560 1.399 . S
C556 C555 1.399 . S
C556 C557 1.376 . S
C557 H544 0.930 . S
C557 C556 1.376 . S
C557 C558 1.388 . S
C558 H545 0.930 . S
C558 C557 1.388 . S
C558 C559 1.390 . S
C559 C558 1.390 . S
C559 C560 1.394 . S
C559 C565 1.465 . S
C560 C555 1.399 . S
C560 C559 1.394 . S
C560 C561 1.516 . S
C561 C560 1.516 . S
C561 C562 1.502 . S
C561 C563 1.561 . S
C561 C564 1.526 . S
C562 H546 0.959 . S
C562 H547 0.959 . S
C562 H548 0.961 . S
C562 C561 1.502 . S
C563 H549 0.960 . S
C563 H550 0.961 . S
C563 H551 0.959 . S
C563 C561 1.561 . S
C564 C561 1.526 . S
C564 C565 1.396 . S
C564 C569 1.390 . S
C565 C559 1.465 . S
C565 C564 1.396 . S
C565 C566 1.399 . S
C566 H552 0.929 . S
C566 C565 1.399 . S
C566 C567 1.385 . S
C567 H553 0.931 . S
C567 C566 1.385 . S
C567 C568 1.389 . S
C568 C567 1.389 . S
C568 C569 1.387 . S
C569 H554 0.930 . S
C569 C564 1.390 . S
C569 C568 1.387 . S
H570 C582 0.930 . S
H571 C584 0.930 . S
H572 C585 0.930 . S
H573 C589 0.959 . S
H574 C589 0.959 . S
H575 C589 0.961 . S
H576 C590 0.960 . S
H577 C590 0.961 . S
H578 C590 0.959 . S
H579 C593 0.929 . S
H580 C594 0.931 . S
H581 C596 0.930 . S
C582 H570 0.930 . S
C582 C583 1.399 . S
C582 C587 1.399 . S
C583 C582 1.399 . S
C583 C584 1.376 . S
C584 H571 0.930 . S
C584 C583 1.376 . S
C584 C585 1.388 . S
C585 H572 0.930 . S
C585 C584 1.388 . S
C585 C586 1.390 . S
C586 C585 1.390 . S
C586 C587 1.394 . S
C586 C592 1.465 . S
C587 C582 1.399 . S
C587 C586 1.394 . S
C587 C588 1.516 . S
C588 C587 1.516 . S
C588 C589 1.502 . S
C588 C590 1.561 . S
C588 C591 1.526 . S
C589 H573 0.959 . S
C589 H574 0.959 . S
C589 H575 0.961 . S
C589 C588 1.502 . S
C590 H576 0.960 . S
C590 H577 0.961 . S
C590 H578 0.959 . S
C590 C588 1.561 . S
C591 C588 1.526 . S
C591 C592 1.396 . S
C591 C596 1.390 . S
C592 C586 1.465 . S
C592 C591 1.396 . S
C592 C593 1.399 . S
C593 H579 0.929 . S
C593 C592 1.399 . S
C593 C594 1.385 . S
C594 H580 0.931 . S
C594 C593 1.385 . S
C594 C595 1.389 . S
C595 C594 1.389 . S
C595 C596 1.387 . S
C596 H581 0.930 . S
C596 C591 1.390 . S
C596 C595 1.387 . S
H597 C609 0.930 . S
H598 C611 0.930 . S
H599 C612 0.930 . S
H600 C616 0.959 . S
H601 C616 0.959 1_554 S
H602 C616 0.961 . S
H603 C617 0.960 . S
H604 C617 0.961 1_554 S
H605 C617 0.959 . S
H606 C620 0.929 . S
H607 C621 0.931 . S
H608 C623 0.930 . S
C609 H597 0.930 . S
C609 C610 1.399 . S
C609 C614 1.399 . S
C610 C609 1.399 . S
C610 C611 1.376 . S
C611 H598 0.930 . S
C611 C610 1.376 . S
C611 C612 1.388 . S
C612 H599 0.930 . S
C612 C611 1.388 . S
C612 C613 1.390 . S
C613 C612 1.390 . S
C613 C614 1.394 . S
C613 C619 1.465 1_556 S
C614 C609 1.399 . S
C614 C613 1.394 . S
C614 C615 1.516 . S
C615 C614 1.516 . S
C615 C616 1.502 . S
C615 C617 1.561 . S
C615 C618 1.526 1_556 S
C616 H600 0.959 . S
C616 H601 0.959 1_556 S
C616 H602 0.961 . S
C616 C615 1.502 . S
C617 H603 0.960 . S
C617 H604 0.961 1_556 S
C617 H605 0.959 . S
C617 C615 1.561 . S
C618 C615 1.526 1_554 S
C618 C619 1.396 . S
C618 C623 1.390 . S
C619 C613 1.465 1_554 S
C619 C618 1.396 . S
C619 C620 1.399 . S
C620 H606 0.929 . S
C620 C619 1.399 . S
C620 C621 1.385 . S
C621 H607 0.931 . S
C621 C620 1.385 . S
C621 C622 1.389 . S
C622 C621 1.389 . S
C622 C623 1.387 . S
C623 H608 0.930 . S
C623 C618 1.390 . S
C623 C622 1.387 . S
H624 C636 0.930 . S
H625 C638 0.930 . S
H626 C639 0.930 . S
H627 C643 0.959 . S
H628 C643 0.959 . S
H629 C643 0.961 . S
H630 C644 0.960 . S
H631 C644 0.961 . S
H632 C644 0.959 . S
H633 C647 0.929 . S
H634 C648 0.931 . S
H635 C650 0.930 . S
C636 H624 0.930 . S
C636 C637 1.399 . S
C636 C641 1.399 . S
C637 C636 1.399 . S
C637 C638 1.376 . S
C638 H625 0.930 . S
C638 C637 1.376 . S
C638 C639 1.388 . S
C639 H626 0.930 . S
C639 C638 1.388 . S
C639 C640 1.390 . S
C640 C639 1.390 . S
C640 C641 1.394 . S
C640 C646 1.465 . S
C641 C636 1.399 . S
C641 C640 1.394 . S
C641 C642 1.516 . S
C642 C641 1.516 . S
C642 C643 1.502 . S
C642 C644 1.561 . S
C642 C645 1.526 . S
C643 H627 0.959 . S
C643 H628 0.959 . S
C643 H629 0.961 . S
C643 C642 1.502 . S
C644 H630 0.960 . S
C644 H631 0.961 . S
C644 H632 0.959 . S
C644 C642 1.561 . S
C645 C642 1.526 . S
C645 C646 1.396 . S
C645 C650 1.390 . S
C646 C640 1.465 . S
C646 C645 1.396 . S
C646 C647 1.399 . S
C647 H633 0.929 . S
C647 C646 1.399 . S
C647 C648 1.385 . S
C648 H634 0.931 . S
C648 C647 1.385 . S
C648 C649 1.389 . S
C649 C648 1.389 . S
C649 C650 1.387 . S
C650 H635 0.930 . S
C650 C645 1.390 . S
C650 C649 1.387 . S
H651 C663 0.930 . S
H652 C665 0.930 . S
H653 C666 0.930 . S
H654 C670 0.959 . S
H655 C670 0.959 . S
H656 C670 0.961 . S
H657 C671 0.960 . S
H658 C671 0.961 . S
H659 C671 0.959 . S
H660 C674 0.929 . S
H661 C675 0.931 . S
H662 C677 0.930 . S
C663 H651 0.930 . S
C663 C664 1.399 . S
C663 C668 1.399 . S
C664 C663 1.399 . S
C664 C665 1.376 . S
C665 H652 0.930 . S
C665 C664 1.376 . S
C665 C666 1.388 . S
C666 H653 0.930 . S
C666 C665 1.388 . S
C666 C667 1.390 . S
C667 C666 1.390 . S
C667 C668 1.394 . S
C667 C673 1.465 . S
C668 C663 1.399 . S
C668 C667 1.394 . S
C668 C669 1.516 . S
C669 C668 1.516 . S
C669 C670 1.502 . S
C669 C671 1.561 . S
C669 C672 1.526 . S
C670 H654 0.959 . S
C670 H655 0.959 . S
C670 H656 0.961 . S
C670 C669 1.502 . S
C671 H657 0.960 . S
C671 H658 0.961 . S
C671 H659 0.959 . S
C671 C669 1.561 . S
C672 C669 1.526 . S
C672 C673 1.396 . S
C672 C677 1.390 . S
C673 C667 1.465 . S
C673 C672 1.396 . S
C673 C674 1.399 . S
C674 H660 0.929 . S
C674 C673 1.399 . S
C674 C675 1.385 . S
C675 H661 0.931 . S
C675 C674 1.385 . S
C675 C676 1.389 . S
C676 C675 1.389 . S
C676 C677 1.387 . S
C677 H662 0.930 . S
C677 C672 1.390 . S
C677 C676 1.387 . S
C367 C5 1.190 . S
C379 C182 1.185 . S
C394 C64 1.186 . S
C406 C241 1.191 . S
C421 C123 1.192 . S
C433 C300 1.184 . S
C448 C111 1.848 . S
C460 C288 1.852 . S
C475 C347 1.844 . S
C487 C170 1.839 . S
C502 C229 1.852 . S
C514 C52 1.851 . S
C529 C151 1.331 . S
C541 C3 1.366 . S
C556 C210 1.377 . S
C568 C62 1.312 . S
C583 C121 1.373 . S
C595 C269 1.327 . S
C610 C328 1.369 . S
C622 C180 1.325 . S
C637 C239 1.330 . S
C649 C33 1.363 . S
C664 C298 1.312 . S
C676 C92 1.378 . S
