# Generated by pormake.
# Topology zfm, (5)-cn, num edge types: 1
# Building blocks:
#     Node 0, Type 0, BuildingBlock: BEQFEK_clean_sbu_0, # of connection points: 5
#     Node 1, Type 0, BuildingBlock: BEQFEK_clean_sbu_0, # of connection points: 5
#     Node 2, Type 0, BuildingBlock: BEQFEK_clean_sbu_0, # of connection points: 5
#     Node 3, Type 0, BuildingBlock: BEQFEK_clean_sbu_0, # of connection points: 5
#     Node 4, Type 0, BuildingBlock: BEQFEK_clean_sbu_0, # of connection points: 5
#     Node 5, Type 0, BuildingBlock: BEQFEK_clean_sbu_0, # of connection points: 5
#     Node 6, Type 0, BuildingBlock: BEQFEK_clean_sbu_0, # of connection points: 5
#     Node 7, Type 0, BuildingBlock: BEQFEK_clean_sbu_0, # of connection points: 5
#     Node 8, Type 0, BuildingBlock: BEQFEK_clean_sbu_0, # of connection points: 5
#     Node 9, Type 0, BuildingBlock: BEQFEK_clean_sbu_0, # of connection points: 5
#     Node 10, Type 0, BuildingBlock: BEQFEK_clean_sbu_0, # of connection points: 5
#     Node 11, Type 0, BuildingBlock: BEQFEK_clean_sbu_0, # of connection points: 5
#     Node 12, Type 0, BuildingBlock: BEQFEK_clean_sbu_0, # of connection points: 5
#     Node 13, Type 0, BuildingBlock: BEQFEK_clean_sbu_0, # of connection points: 5
#     Node 14, Type 0, BuildingBlock: BEQFEK_clean_sbu_0, # of connection points: 5
#     Node 15, Type 0, BuildingBlock: BEQFEK_clean_sbu_0, # of connection points: 5
#     Edge 16, Type (0, 0), BuildingBlock: EZIPEK_clean_linker_0, # of connection points: 2
#     Edge 17, Type (0, 0), BuildingBlock: EZIPEK_clean_linker_0, # of connection points: 2
#     Edge 18, Type (0, 0), BuildingBlock: EZIPEK_clean_linker_0, # of connection points: 2
#     Edge 19, Type (0, 0), BuildingBlock: EZIPEK_clean_linker_0, # of connection points: 2
#     Edge 20, Type (0, 0), BuildingBlock: EZIPEK_clean_linker_0, # of connection points: 2
#     Edge 21, Type (0, 0), BuildingBlock: EZIPEK_clean_linker_0, # of connection points: 2
#     Edge 22, Type (0, 0), BuildingBlock: EZIPEK_clean_linker_0, # of connection points: 2
#     Edge 23, Type (0, 0), BuildingBlock: EZIPEK_clean_linker_0, # of connection points: 2
#     Edge 24, Type (0, 0), BuildingBlock: EZIPEK_clean_linker_0, # of connection points: 2
#     Edge 25, Type (0, 0), BuildingBlock: EZIPEK_clean_linker_0, # of connection points: 2
#     Edge 26, Type (0, 0), BuildingBlock: EZIPEK_clean_linker_0, # of connection points: 2
#     Edge 27, Type (0, 0), BuildingBlock: EZIPEK_clean_linker_0, # of connection points: 2
#     Edge 28, Type (0, 0), BuildingBlock: EZIPEK_clean_linker_0, # of connection points: 2
#     Edge 29, Type (0, 0), BuildingBlock: EZIPEK_clean_linker_0, # of connection points: 2
#     Edge 30, Type (0, 0), BuildingBlock: EZIPEK_clean_linker_0, # of connection points: 2
#     Edge 31, Type (0, 0), BuildingBlock: EZIPEK_clean_linker_0, # of connection points: 2
#     Edge 32, Type (0, 0), BuildingBlock: EZIPEK_clean_linker_0, # of connection points: 2
#     Edge 33, Type (0, 0), BuildingBlock: EZIPEK_clean_linker_0, # of connection points: 2
#     Edge 34, Type (0, 0), BuildingBlock: EZIPEK_clean_linker_0, # of connection points: 2
#     Edge 35, Type (0, 0), BuildingBlock: EZIPEK_clean_linker_0, # of connection points: 2
#     Edge 36, Type (0, 0), BuildingBlock: EZIPEK_clean_linker_0, # of connection points: 2
#     Edge 37, Type (0, 0), BuildingBlock: EZIPEK_clean_linker_0, # of connection points: 2
#     Edge 38, Type (0, 0), BuildingBlock: EZIPEK_clean_linker_0, # of connection points: 2
#     Edge 39, Type (0, 0), BuildingBlock: EZIPEK_clean_linker_0, # of connection points: 2
#     Edge 40, Type (0, 0), BuildingBlock: EZIPEK_clean_linker_0, # of connection points: 2
#     Edge 41, Type (0, 0), BuildingBlock: EZIPEK_clean_linker_0, # of connection points: 2
#     Edge 42, Type (0, 0), BuildingBlock: EZIPEK_clean_linker_0, # of connection points: 2
#     Edge 43, Type (0, 0), BuildingBlock: EZIPEK_clean_linker_0, # of connection points: 2
#     Edge 44, Type (0, 0), BuildingBlock: EZIPEK_clean_linker_0, # of connection points: 2
#     Edge 45, Type (0, 0), BuildingBlock: EZIPEK_clean_linker_0, # of connection points: 2
#     Edge 46, Type (0, 0), BuildingBlock: EZIPEK_clean_linker_0, # of connection points: 2
#     Edge 47, Type (0, 0), BuildingBlock: EZIPEK_clean_linker_0, # of connection points: 2
#     Edge 48, Type (0, 0), BuildingBlock: EZIPEK_clean_linker_0, # of connection points: 2
#     Edge 49, Type (0, 0), BuildingBlock: EZIPEK_clean_linker_0, # of connection points: 2
#     Edge 50, Type (0, 0), BuildingBlock: EZIPEK_clean_linker_0, # of connection points: 2
#     Edge 51, Type (0, 0), BuildingBlock: EZIPEK_clean_linker_0, # of connection points: 2
#     Edge 52, Type (0, 0), BuildingBlock: EZIPEK_clean_linker_0, # of connection points: 2
#     Edge 53, Type (0, 0), BuildingBlock: EZIPEK_clean_linker_0, # of connection points: 2
#     Edge 54, Type (0, 0), BuildingBlock: EZIPEK_clean_linker_0, # of connection points: 2
#     Edge 55, Type (0, 0), BuildingBlock: EZIPEK_clean_linker_0, # of connection points: 2
# Relax obj value: 0.118
# Max RMSD: 0.191
# Mean RMSD: 0.191
data_MOF--net-zfm--node1-BEQFEK_clean_sbu_0--edge1-EZIPEK_clean_linker_0
_symmetry_space_group_name_H-M    P1
_symmetry_Int_Tables_number       1
_symmetry_cell_setting            triclinic
loop_
_symmetry_equiv_pos_as_xyz
'x, y, z'
_cell_length_a     21.26477
_cell_length_b     21.277315
_cell_length_c     60.639922
_cell_angle_alpha  89.998984
_cell_angle_beta   90.068895
_cell_angle_gamma 89.980699
loop_
_atom_site_label
_atom_site_type_symbol
_atom_site_fract_x
_atom_site_fract_y
_atom_site_fract_z
_atom_type_partial_charge
Co0 Co 0.45157 0.10298 0.16398 0.0
Co1 Co 0.44639 0.09775 0.11189 0.0
C2 C 0.37899 0.00486 0.14144 0.0
O3 O 0.40798 0.02189 0.15881 0.0
O4 O 0.39095 0.0293 0.12273 0.0
C5 C 0.46995 0.06392 0.20873 0.0
O6 O 0.47582 0.00877 0.1992 0.0
C7 C 0.46024 0.03915 0.06818 0.0
C8 C 0.46942 0.12221 0.04652 0.0
C9 C 0.46867 0.0572 0.04644 0.0
N10 N 0.45638 0.09121 0.08066 0.0
N11 N 0.46154 0.14069 0.06759 0.0
C12 C 0.45648 0.97365 0.077 0.0
H13 H 0.40637 0.95926 0.07771 0.0
H14 H 0.47596 0.9718 0.09398 0.0
H15 H 0.48201 0.94031 0.06614 0.0
C16 C 0.58869 0.1062 0.15444 0.0
N17 N 0.52811 0.10765 0.14792 0.0
N18 N 0.52599 0.10293 0.12628 0.0
C19 C 0.58523 0.0979 0.11851 0.0
C20 C 0.62693 0.09932 0.1361 0.0
C21 C 0.60968 0.10528 0.17791 0.0
H22 H 0.5962 0.15061 0.18552 0.0
H23 H 0.58587 0.06661 0.18681 0.0
H24 H 0.6614 0.09944 0.17935 0.0
O25 O 0.38934 0.16712 0.15424 0.0
O26 O 0.39435 0.17221 0.11758 0.0
H27 H 0.58073 0.11815 0.08402 0.0
H28 H 0.65305 0.08094 0.0926 0.0
C29 C 0.6014 0.08241 0.09516 0.0
H30 H 0.58118 0.03592 0.09095 0.0
H31 H 0.46033 0.18714 0.07309 0.0
O32 O 0.46224 0.11247 0.19675 0.0
C33 C 0.37096 0.18971 0.13588 0.0
Co34 Co 0.37503 0.43659 0.65985 0.0
Co35 Co 0.39025 0.4472 0.60782 0.0
C36 C 0.47143 0.36221 0.63401 0.0
O37 O 0.44375 0.3776 0.65182 0.0
O38 O 0.45792 0.38772 0.61562 0.0
C39 C 0.42103 0.44035 0.70457 0.0
O40 O 0.47539 0.44419 0.69437 0.0
C41 C 0.44486 0.46818 0.56384 0.0
C42 C 0.36059 0.4915 0.54408 0.0
C43 C 0.42513 0.48427 0.54283 0.0
N44 N 0.39422 0.46605 0.57706 0.0
N45 N 0.34396 0.47966 0.56511 0.0
C46 C 0.51076 0.45579 0.57127 0.0
H47 H 0.51981 0.40447 0.57048 0.0
H48 H 0.51706 0.47126 0.58861 0.0
H49 H 0.5451 0.48003 0.56043 0.0
C50 C 0.39135 0.57603 0.65505 0.0
N51 N 0.38537 0.51768 0.64658 0.0
N52 N 0.39192 0.52119 0.625 0.0
C53 C 0.40227 0.58143 0.61921 0.0
C54 C 0.40236 0.61807 0.63803 0.0
C55 C 0.3897 0.59131 0.67904 0.0
H56 H 0.42463 0.56226 0.68796 0.0
H57 H 0.39961 0.64179 0.6821 0.0
H58 H 0.34215 0.58016 0.68536 0.0
O59 O 0.29868 0.39375 0.64856 0.0
O60 O 0.31185 0.40054 0.61245 0.0
H61 H 0.37925 0.59078 0.58505 0.0
H62 H 0.42625 0.65439 0.59573 0.0
C63 C 0.41827 0.60288 0.5964 0.0
H64 H 0.46134 0.57841 0.59075 0.0
H65 H 0.29829 0.48137 0.57136 0.0
O66 O 0.37081 0.43876 0.6931 0.0
C67 C 0.28073 0.38121 0.62896 0.0
Co68 Co 0.06075 0.41468 0.16456 0.0
Co69 Co 0.05056 0.40915 0.11282 0.0
C70 C 0.12291 0.50852 0.13347 0.0
O71 O 0.11423 0.48335 0.1523 0.0
O72 O 0.09112 0.49191 0.11667 0.0
C73 C 0.09752 0.4456 0.2089 0.0
O74 O 0.14748 0.46926 0.19927 0.0
C75 C 0.0212 0.43975 0.0668 0.0
C76 C 0.01889 0.34612 0.05103 0.0
C77 C 0.01144 0.40965 0.04688 0.0
N78 N 0.03368 0.39612 0.08221 0.0
N79 N 0.03241 0.34021 0.07267 0.0
C80 C 0.01886 0.50893 0.07107 0.0
H81 H 0.00034 0.51824 0.08785 0.0
H82 H 0.98935 0.53317 0.05858 0.0
H83 H 0.0673 0.52813 0.07014 0.0
C84 C 0.92145 0.41271 0.15956 0.0
N85 N 0.97999 0.40775 0.1512 0.0
N86 N 0.97613 0.40239 0.12964 0.0
C87 C 0.91511 0.40298 0.12365 0.0
C88 C 0.8783 0.41041 0.14232 0.0
C89 C 0.90778 0.42911 0.18304 0.0
H90 H 0.93083 0.39444 0.19407 0.0
H91 H 0.92791 0.47603 0.18676 0.0
H92 H 0.85642 0.42975 0.1863 0.0
O93 O 0.11305 0.34053 0.15853 0.0
O94 O 0.11607 0.34814 0.12192 0.0
H95 H 0.84038 0.40065 0.0994 0.0
H96 H 0.90598 0.45095 0.09284 0.0
C97 C 0.89231 0.40544 0.10031 0.0
H98 H 0.91415 0.36696 0.09068 0.0
H99 H 0.04056 0.29799 0.08096 0.0
O100 O 0.05391 0.42169 0.19724 0.0
C101 C 0.13631 0.3252 0.13996 0.0
Co102 Co 0.0816 0.06638 0.66231 0.0
Co103 Co 0.06225 0.05542 0.61108 0.0
C104 C 0.97184 0.12264 0.63499 0.0
O105 O 0.00747 0.11762 0.65187 0.0
O106 O 0.97817 0.08623 0.61856 0.0
C107 C 0.03629 0.05376 0.70765 0.0
O108 O 0.98215 0.04053 0.69828 0.0
C109 C 0.02442 0.03176 0.56512 0.0
C110 C 0.11675 0.02265 0.54866 0.0
C111 C 0.05261 0.0205 0.54496 0.0
N112 N 0.06988 0.04 0.58024 0.0
N113 N 0.12494 0.03477 0.57028 0.0
C114 C 0.9555 0.03466 0.5699 0.0
H115 H 0.94508 0.0094 0.58547 0.0
H116 H 0.9275 0.01424 0.55621 0.0
H117 H 0.94161 0.08453 0.57215 0.0
C118 C 0.09806 0.92692 0.65622 0.0
N119 N 0.08946 0.98563 0.6484 0.0
N120 N 0.08039 0.98204 0.62697 0.0
C121 C 0.08066 0.92134 0.62067 0.0
C122 C 0.09196 0.88418 0.63898 0.0
C123 C 0.10798 0.91157 0.67995 0.0
H124 H 0.0669 0.92801 0.6896 0.0
H125 H 0.11462 0.86036 0.68256 0.0
H126 H 0.15048 0.93682 0.68574 0.0
O127 O 0.14996 0.12235 0.65317 0.0
O128 O 0.11971 0.12654 0.61809 0.0
H129 H 0.09977 0.91243 0.58625 0.0
H130 H 0.0561 0.84735 0.59753 0.0
C131 C 0.06251 0.89905 0.59812 0.0
H132 H 0.01812 0.92209 0.593 0.0
H133 H 0.16818 0.03901 0.5783 0.0
O134 O 0.08408 0.06388 0.69554 0.0
C135 C 0.15144 0.14803 0.63423 0.0
Co136 Co 0.43573 0.39379 0.84545 0.0
Co137 Co 0.44038 0.40724 0.89762 0.0
C138 C 0.36136 0.49166 0.87028 0.0
O139 O 0.38352 0.4697 0.85229 0.0
O140 O 0.38189 0.47426 0.88903 0.0
C141 C 0.44508 0.43391 0.79999 0.0
O142 O 0.45086 0.48961 0.80911 0.0
C143 C 0.46065 0.46074 0.94211 0.0
C144 C 0.48575 0.37595 0.96126 0.0
C145 C 0.4782 0.44036 0.96294 0.0
N146 N 0.45805 0.41059 0.92862 0.0
N147 N 0.47269 0.36004 0.94024 0.0
C148 C 0.44843 0.52691 0.935 0.0
H149 H 0.46258 0.53345 0.91754 0.0
H150 H 0.47391 0.5607 0.94572 0.0
H151 H 0.39727 0.53653 0.93628 0.0
C152 C 0.57357 0.38818 0.85226 0.0
N153 N 0.51459 0.39419 0.85994 0.0
N154 N 0.51676 0.40682 0.88115 0.0
C155 C 0.57747 0.41354 0.88727 0.0
C156 C 0.61581 0.40181 0.86914 0.0
C157 C 0.58879 0.36831 0.82926 0.0
H158 H 0.55685 0.32954 0.82434 0.0
H159 H 0.58081 0.4085 0.81796 0.0
H160 H 0.63834 0.35246 0.82782 0.0
O161 O 0.38357 0.32426 0.85597 0.0
O162 O 0.38699 0.33191 0.89227 0.0
H163 H 0.59203 0.3954 0.92153 0.0
H164 H 0.64792 0.4498 0.90979 0.0
C165 C 0.59802 0.43466 0.90968 0.0
H166 H 0.56825 0.47439 0.91517 0.0
H167 H 0.47476 0.31471 0.9337 0.0
O168 O 0.44113 0.38569 0.81235 0.0
C169 C 0.36562 0.30572 0.87489 0.0
Co170 Co 0.12444 0.43384 0.34931 0.0
Co171 Co 0.10613 0.44134 0.40112 0.0
C172 C 0.02487 0.3593 0.37397 0.0
O173 O 0.05444 0.37585 0.35667 0.0
O174 O 0.03723 0.38297 0.3928 0.0
C175 C 0.0799 0.4338 0.30435 0.0
O176 O 0.0259 0.41948 0.31355 0.0
C177 C 0.05557 0.46449 0.44594 0.0
C178 C 0.14278 0.48571 0.46437 0.0
C179 C 0.07823 0.48103 0.46657 0.0
N180 N 0.1046 0.45966 0.43204 0.0
N181 N 0.15658 0.47196 0.44324 0.0
C182 C 0.98839 0.45506 0.43949 0.0
H183 H 0.97469 0.40593 0.4433 0.0
H184 H 0.98207 0.46315 0.42154 0.0
H185 H 0.95734 0.48699 0.44903 0.0
C186 C 0.11129 0.57221 0.35449 0.0
N187 N 0.11568 0.51378 0.36298 0.0
N188 N 0.10598 0.5166 0.38439 0.0
C189 C 0.09425 0.57671 0.39006 0.0
C190 C 0.0969 0.61389 0.37133 0.0
C191 C 0.11374 0.58703 0.33043 0.0
H192 H 0.06942 0.57116 0.32263 0.0
H193 H 0.11911 0.63833 0.32764 0.0
H194 H 0.15339 0.56152 0.32263 0.0
O195 O 0.19999 0.38838 0.36004 0.0
O196 O 0.18365 0.39261 0.396 0.0
H197 H 0.11296 0.5857 0.4245 0.0
H198 H 0.06647 0.64901 0.41326 0.0
C199 C 0.07515 0.59761 0.41262 0.0
H200 H 0.03181 0.57245 0.4176 0.0
H201 H 0.20152 0.47191 0.43635 0.0
O202 O 0.1282 0.44229 0.31644 0.0
C203 C 0.21595 0.37375 0.37968 0.0
Co204 Co 0.04335 0.11596 0.84806 0.0
Co205 Co 0.04751 0.11391 0.90047 0.0
C206 C 0.12325 0.02411 0.87316 0.0
O207 O 0.10228 0.04626 0.85507 0.0
O208 O 0.1034 0.04343 0.89179 0.0
C209 C 0.03339 0.06938 0.80342 0.0
O210 O 0.03829 0.01475 0.81338 0.0
C211 C 0.02995 0.06229 0.94503 0.0
C212 C 0.03022 0.1478 0.9657 0.0
C213 C 0.02471 0.08305 0.96657 0.0
N214 N 0.03788 0.11249 0.93185 0.0
N215 N 0.03826 0.16347 0.94434 0.0
C216 C 0.02766 0.99578 0.93714 0.0
H217 H 0.0747 0.97412 0.93943 0.0
H218 H 0.01517 0.99398 0.91937 0.0
H219 H 0.99322 0.96832 0.94694 0.0
C220 C 0.90609 0.10254 0.85785 0.0
N221 N 0.96629 0.11111 0.86423 0.0
N222 N 0.96831 0.11205 0.88596 0.0
C223 C 0.90947 0.10515 0.89389 0.0
C224 C 0.86824 0.09837 0.87639 0.0
C225 C 0.88552 0.09315 0.83455 0.0
H226 H 0.91865 0.06133 0.82598 0.0
H227 H 0.83725 0.0735 0.83361 0.0
H228 H 0.88579 0.13948 0.82621 0.0
O229 O 0.09374 0.19041 0.85641 0.0
O230 O 0.09675 0.1893 0.89281 0.0
H231 H 0.91669 0.13639 0.92737 0.0
H232 H 0.84145 0.10256 0.92031 0.0
C233 C 0.89301 0.09898 0.91775 0.0
H234 H 0.90902 0.05257 0.92386 0.0
H235 H 0.04374 0.20903 0.93827 0.0
O236 O 0.03172 0.11924 0.81504 0.0
C237 C 0.11381 0.21326 0.87452 0.0
Co238 Co 0.42242 0.05599 0.34919 0.0
Co239 Co 0.43441 0.04912 0.401 0.0
C240 C 0.52811 0.11559 0.37576 0.0
O241 O 0.49561 0.10786 0.35833 0.0
O242 O 0.51803 0.08289 0.39295 0.0
C243 C 0.4673 0.05118 0.30424 0.0
O244 O 0.52289 0.04916 0.3137 0.0
C245 C 0.48044 0.01847 0.44564 0.0
C246 C 0.39538 0.03183 0.46598 0.0
C247 C 0.45834 0.0156 0.4671 0.0
N248 N 0.43269 0.03536 0.43231 0.0
N249 N 0.38196 0.04327 0.44461 0.0
C250 C 0.54615 0.00646 0.438 0.0
H251 H 0.57204 0.05172 0.43759 0.0
H252 H 0.54574 0.98657 0.42108 0.0
H253 H 0.57095 0.97409 0.44944 0.0
C254 C 0.4168 0.91602 0.35595 0.0
N255 N 0.41765 0.97577 0.36348 0.0
N256 N 0.41616 0.97449 0.38519 0.0
C257 C 0.41164 0.91442 0.39201 0.0
C258 C 0.41275 0.87519 0.37374 0.0
C259 C 0.42672 0.89771 0.33245 0.0
H260 H 0.45824 0.93187 0.32426 0.0
H261 H 0.44726 0.84988 0.33115 0.0
H262 H 0.38048 0.89748 0.32399 0.0
O263 O 0.35286 0.11209 0.35815 0.0
O264 O 0.37544 0.11865 0.39392 0.0
H265 H 0.3791 0.92337 0.42529 0.0
H266 H 0.39902 0.84401 0.41734 0.0
C267 C 0.41236 0.89421 0.41565 0.0
H268 H 0.46026 0.90076 0.4225 0.0
H269 H 0.33821 0.05687 0.43842 0.0
O270 O 0.4183 0.05171 0.31624 0.0
C271 C 0.34679 0.13866 0.37686 0.0
Co272 Co 0.54979 0.89213 0.84992 0.0
Co273 Co 0.54104 0.88839 0.9018 0.0
C274 C 0.62367 0.98043 0.87848 0.0
O275 O 0.60701 0.9599 0.85966 0.0
O276 O 0.59969 0.9594 0.89626 0.0
C277 C 0.55377 0.94394 0.80604 0.0
O278 O 0.56365 0.99751 0.81623 0.0
C279 C 0.51561 0.93343 0.94656 0.0
C280 C 0.50585 0.84494 0.96533 0.0
C281 C 0.5045 0.90968 0.96741 0.0
N282 N 0.52305 0.885 0.9326 0.0
N283 N 0.51717 0.83218 0.94392 0.0
C284 C 0.52015 0.00107 0.9401 0.0
H285 H 0.56926 0.01722 0.94261 0.0
H286 H 0.50782 0.00711 0.92244 0.0
H287 H 0.48885 0.03035 0.95054 0.0
C288 C 0.41157 0.90343 0.85482 0.0
N289 N 0.46955 0.89523 0.86333 0.0
N290 N 0.46567 0.89337 0.88498 0.0
C291 C 0.40495 0.90033 0.89087 0.0
C292 C 0.36872 0.9073 0.87199 0.0
C293 C 0.39861 0.91571 0.83099 0.0
H294 H 0.41873 0.96203 0.8265 0.0
H295 H 0.34734 0.91599 0.82751 0.0
H296 H 0.42186 0.87931 0.82076 0.0
O297 O 0.59511 0.81498 0.858 0.0
O298 O 0.59059 0.81271 0.89436 0.0
H299 H 0.40061 0.86723 0.92417 0.0
H300 H 0.33022 0.90694 0.91494 0.0
C301 C 0.38237 0.90674 0.91411 0.0
H302 H 0.40031 0.95134 0.92116 0.0
H303 H 0.52111 0.7874 0.93704 0.0
O304 O 0.54477 0.89412 0.81719 0.0
C305 C 0.60975 0.78924 0.87626 0.0
Co306 Co 0.58559 0.55411 0.34471 0.0
Co307 Co 0.58083 0.54972 0.3963 0.0
C308 C 0.48344 0.61402 0.37287 0.0
O309 O 0.51396 0.60739 0.35495 0.0
O310 O 0.49493 0.57933 0.38944 0.0
C311 C 0.53619 0.54689 0.30018 0.0
O312 O 0.48114 0.54521 0.30998 0.0
C313 C 0.54216 0.52345 0.44167 0.0
C314 C 0.62879 0.54322 0.46061 0.0
C315 C 0.56652 0.52535 0.46281 0.0
N316 N 0.58787 0.53937 0.42746 0.0
N317 N 0.63962 0.55101 0.43887 0.0
C318 C 0.47588 0.50914 0.43513 0.0
H319 H 0.44929 0.55389 0.43388 0.0
H320 H 0.47492 0.4858 0.41877 0.0
H321 H 0.4526 0.47889 0.4476 0.0
C322 C 0.59364 0.41407 0.35258 0.0
N323 N 0.59368 0.47448 0.35946 0.0
N324 N 0.59953 0.47497 0.38107 0.0
C325 C 0.60641 0.41573 0.38843 0.0
C326 C 0.60184 0.37488 0.3707 0.0
C327 C 0.57845 0.39359 0.32965 0.0
H328 H 0.54641 0.42789 0.32173 0.0
H329 H 0.55633 0.34634 0.32954 0.0
H330 H 0.62284 0.39083 0.32012 0.0
O331 O 0.65635 0.61091 0.35192 0.0
O332 O 0.63606 0.61958 0.38773 0.0
H333 H 0.6252 0.34807 0.41422 0.0
H334 H 0.56333 0.40362 0.41999 0.0
C335 C 0.61018 0.39773 0.41226 0.0
H336 H 0.64413 0.42864 0.42091 0.0
H337 H 0.68208 0.56519 0.43184 0.0
O338 O 0.5859 0.54786 0.31184 0.0
C339 C 0.66301 0.63898 0.37033 0.0
Co340 Co 0.93535 0.59323 0.84816 0.0
Co341 Co 0.9271 0.57251 0.89978 0.0
C342 C 0.86915 0.48048 0.86892 0.0
O343 O 0.88791 0.51372 0.8527 0.0
O344 O 0.88315 0.49617 0.88862 0.0
C345 C 0.95913 0.55803 0.80324 0.0
O346 O 0.96204 0.50183 0.81214 0.0
C347 C 0.94682 0.51854 0.94421 0.0
C348 C 0.94213 0.6035 0.96511 0.0
C349 C 0.95136 0.5392 0.9658 0.0
N350 N 0.93542 0.56848 0.93119 0.0
N351 N 0.93233 0.61903 0.94384 0.0
C352 C 0.95454 0.45264 0.93613 0.0
H353 H 0.96636 0.45218 0.91832 0.0
H354 H 0.9917 0.42813 0.94572 0.0
H355 H 0.90972 0.42692 0.93863 0.0
C356 C 0.07102 0.59958 0.85894 0.0
N357 N 0.01032 0.59571 0.86503 0.0
N358 N 0.00755 0.58566 0.88643 0.0
C359 C 0.06683 0.58239 0.89441 0.0
C360 C 0.10898 0.59044 0.87718 0.0
C361 C 0.09286 0.60724 0.83577 0.0
H362 H 0.07498 0.65292 0.82965 0.0
H363 H 0.07359 0.56881 0.82547 0.0
H364 H 0.14494 0.60714 0.83458 0.0
O365 O 0.8765 0.65876 0.85749 0.0
O366 O 0.86774 0.64238 0.89326 0.0
H367 H 0.05919 0.5969 0.92908 0.0
H368 H 0.13491 0.56748 0.92038 0.0
C369 C 0.08342 0.5647 0.91752 0.0
H370 H 0.06739 0.51606 0.9208 0.0
H371 H 0.92453 0.66439 0.9379 0.0
O372 O 0.94984 0.60533 0.81564 0.0
C373 C 0.85182 0.67246 0.87595 0.0
Co374 Co 0.88101 0.9365 0.34549 0.0
Co375 Co 0.89697 0.93917 0.39731 0.0
C376 C 0.97818 0.85802 0.37014 0.0
O377 O 0.94951 0.87599 0.35279 0.0
O378 O 0.96559 0.88103 0.38901 0.0
C379 C 0.93049 0.94709 0.30198 0.0
O380 O 0.98342 0.95197 0.31305 0.0
C381 C 0.9459 0.95816 0.44235 0.0
C382 C 0.85793 0.97327 0.46103 0.0
C383 C 0.9226 0.97065 0.46319 0.0
N384 N 0.89711 0.95365 0.42834 0.0
N385 N 0.84466 0.96231 0.43965 0.0
C386 C 0.01339 0.95175 0.43586 0.0
H387 H 0.01937 0.96137 0.418 0.0
H388 H 0.04316 0.98415 0.44572 0.0
H389 H 0.02904 0.90295 0.43927 0.0
C390 C 0.89583 0.07538 0.35264 0.0
N391 N 0.89093 0.01573 0.36004 0.0
N392 N 0.8986 0.01593 0.38159 0.0
C393 C 0.90891 0.07528 0.38843 0.0
C394 C 0.90776 0.11487 0.37036 0.0
C395 C 0.89275 0.09412 0.32897 0.0
H396 H 0.93068 0.07022 0.31969 0.0
H397 H 0.89758 0.14575 0.32694 0.0
H398 H 0.84676 0.07899 0.32222 0.0
O399 O 0.8038 0.89253 0.3552 0.0
O400 O 0.81963 0.89234 0.39117 0.0
H401 H 0.88603 0.07831 0.42267 0.0
H402 H 0.93055 0.1452 0.41328 0.0
C403 C 0.92448 0.09361 0.4116 0.0
H404 H 0.96852 0.06994 0.41674 0.0
H405 H 0.79975 0.96158 0.4327 0.0
O406 O 0.879 0.94306 0.31255 0.0
C407 C 0.78712 0.87622 0.37456 0.0
Co408 Co 0.55292 0.61374 0.16078 0.0
Co409 Co 0.55531 0.61029 0.10856 0.0
C410 C 0.63007 0.51969 0.13561 0.0
O411 O 0.61059 0.54385 0.15354 0.0
O412 O 0.60852 0.53687 0.11692 0.0
C413 C 0.53939 0.5648 0.20457 0.0
O414 O 0.53806 0.51102 0.19392 0.0
C415 C 0.53253 0.56131 0.06381 0.0
C416 C 0.53922 0.64717 0.04346 0.0
C417 C 0.52861 0.5831 0.04234 0.0
N418 N 0.54463 0.6103 0.07717 0.0
N419 N 0.54875 0.66148 0.06486 0.0
C420 C 0.52507 0.49496 0.07145 0.0
H421 H 0.51415 0.49354 0.08934 0.0
H422 H 0.48736 0.47118 0.06191 0.0
H423 H 0.56969 0.46925 0.06851 0.0
C424 C 0.41449 0.60603 0.15156 0.0
N425 N 0.47499 0.61095 0.14502 0.0
N426 N 0.47645 0.6126 0.1233 0.0
C427 C 0.41703 0.61064 0.11552 0.0
C428 C 0.3759 0.60564 0.13314 0.0
C429 C 0.39363 0.59762 0.17486 0.0
H430 H 0.42637 0.56612 0.18371 0.0
H431 H 0.34541 0.57787 0.17577 0.0
H432 H 0.3934 0.64429 0.18297 0.0
O433 O 0.60456 0.68727 0.15261 0.0
O434 O 0.60822 0.68326 0.11625 0.0
H435 H 0.34833 0.61733 0.08934 0.0
H436 H 0.41129 0.56228 0.08473 0.0
C437 C 0.39947 0.60901 0.09164 0.0
H438 H 0.42607 0.64543 0.08252 0.0
H439 H 0.55791 0.70627 0.07109 0.0
O440 O 0.54292 0.61567 0.19361 0.0
C441 C 0.62586 0.70792 0.13437 0.0
Co442 Co 0.93348 0.55683 0.66324 0.0
Co443 Co 0.91375 0.56528 0.61251 0.0
C444 C 0.02346 0.62308 0.6391 0.0
O445 O 0.01777 0.58652 0.65549 0.0
O446 O 0.98716 0.61807 0.62244 0.0
C447 C 0.97458 0.54575 0.70821 0.0
O448 O 0.03088 0.54154 0.69944 0.0
C449 C 0.9619 0.53748 0.56811 0.0
C450 C 0.87997 0.5603 0.54713 0.0
C451 C 0.94143 0.53904 0.54644 0.0
N452 N 0.91459 0.55668 0.58115 0.0
N453 N 0.86573 0.57022 0.56849 0.0
C454 C 0.02557 0.51884 0.57626 0.0
H455 H 0.06014 0.55541 0.57144 0.0
H456 H 0.02554 0.51376 0.59448 0.0
H457 H 0.04017 0.474 0.56842 0.0
C458 C 0.91662 0.4208 0.65415 0.0
N459 N 0.91566 0.48172 0.64807 0.0
N460 N 0.90543 0.48538 0.62672 0.0
C461 C 0.89655 0.42685 0.61876 0.0
C462 C 0.90415 0.38393 0.63584 0.0
C463 C 0.93764 0.39762 0.67622 0.0
H464 H 0.96725 0.43323 0.68452 0.0
H465 H 0.96458 0.35315 0.67461 0.0
H466 H 0.89554 0.38783 0.68643 0.0
O467 O 0.87511 0.6272 0.65529 0.0
O468 O 0.84426 0.62116 0.62035 0.0
H469 H 0.86742 0.36336 0.59296 0.0
H470 H 0.93231 0.41422 0.58623 0.0
C471 C 0.88661 0.41155 0.59495 0.0
H472 H 0.85394 0.44603 0.58741 0.0
H473 H 0.82264 0.5864 0.57444 0.0
O474 O 0.92661 0.54897 0.69575 0.0
C475 C 0.8428 0.64777 0.63913 0.0
Co476 Co 0.94943 0.88918 0.16247 0.0
Co477 Co 0.95105 0.89836 0.1103 0.0
C478 C 0.8743 0.98598 0.13773 0.0
O479 O 0.8962 0.96372 0.15568 0.0
O480 O 0.89343 0.967 0.119 0.0
C481 C 0.95879 0.93389 0.20691 0.0
O482 O 0.96322 0.98837 0.19684 0.0
C483 C 0.97012 0.95296 0.06618 0.0
C484 C 0.98677 0.86844 0.04582 0.0
C485 C 0.98336 0.93332 0.04492 0.0
N486 N 0.96602 0.90197 0.07921 0.0
N487 N 0.97571 0.85158 0.06689 0.0
C488 C 0.96235 0.01909 0.07405 0.0
H489 H 0.9118 0.03186 0.07325 0.0
H490 H 0.97807 0.02332 0.09144 0.0
H491 H 0.98909 0.05219 0.06346 0.0
C492 C 0.08731 0.89203 0.15532 0.0
N493 N 0.02787 0.89077 0.1477 0.0
N494 N 0.02874 0.89761 0.12613 0.0
C495 C 0.08894 0.90508 0.11953 0.0
C496 C 0.12806 0.90191 0.13784 0.0
C497 C 0.10462 0.88795 0.17911 0.0
H498 H 0.08416 0.84421 0.18595 0.0
H499 H 0.08443 0.92871 0.18803 0.0
H500 H 0.15638 0.88722 0.18149 0.0
O501 O 0.89744 0.81794 0.15266 0.0
O502 O 0.89864 0.82334 0.11629 0.0
H503 H 0.09295 0.88372 0.08515 0.0
H504 H 0.15992 0.92742 0.09515 0.0
C505 C 0.10824 0.92147 0.09654 0.0
H506 H 0.08483 0.96579 0.09154 0.0
H507 H 0.97542 0.80565 0.07294 0.0
O508 O 0.95622 0.88387 0.19543 0.0
C509 C 0.87867 0.79794 0.13398 0.0
Co510 Co 0.60061 0.94552 0.66649 0.0
Co511 Co 0.61491 0.93792 0.61455 0.0
C512 C 0.51825 0.86291 0.63953 0.0
O513 O 0.5323 0.88788 0.65793 0.0
O514 O 0.54581 0.87847 0.62171 0.0
C515 C 0.57316 0.91847 0.71126 0.0
O516 O 0.55678 0.86412 0.70276 0.0
C517 C 0.57093 0.95422 0.56881 0.0
C518 C 0.65977 0.95731 0.55002 0.0
C519 C 0.59509 0.96116 0.54774 0.0
N520 N 0.61903 0.94669 0.58301 0.0
N521 N 0.67203 0.94816 0.57162 0.0
C522 C 0.50323 0.95624 0.57537 0.0
H523 H 0.48186 0.90947 0.5723 0.0
H524 H 0.4986 0.96761 0.59316 0.0
H525 H 0.47743 0.99136 0.56528 0.0
C526 C 0.58875 0.08013 0.65624 0.0
N527 N 0.59938 0.02038 0.65002 0.0
N528 N 0.60578 0.01805 0.62844 0.0
C529 C 0.59998 0.07685 0.62035 0.0
C530 C 0.58853 0.11789 0.63765 0.0
C531 C 0.57193 0.09934 0.67921 0.0
H532 H 0.52767 0.07556 0.68408 0.0
H533 H 0.56577 0.151 0.68057 0.0
H534 H 0.60945 0.08386 0.69072 0.0
O535 O 0.67927 0.89869 0.66148 0.0
O536 O 0.69128 0.89366 0.62526 0.0
H537 H 0.6395 0.06961 0.58801 0.0
H538 H 0.60395 0.14492 0.59398 0.0
C539 C 0.59982 0.09337 0.5964 0.0
H540 H 0.55512 0.0773 0.58887 0.0
H541 H 0.71666 0.94385 0.57864 0.0
O542 O 0.5936 0.96182 0.69873 0.0
C543 C 0.70993 0.88012 0.64472 0.0
C544 C 0.41978 0.02779 0.24383 0.0
C545 C 0.46405 0.06733 0.23318 0.0
C546 C 0.49785 0.10692 0.26934 0.0
C547 C 0.46238 0.05897 0.27986 0.0
N548 N 0.39248 0.9698 0.27664 0.0
N549 N 0.54864 0.14259 0.236 0.0
C550 C 0.42366 0.01863 0.267 0.0
C551 C 0.50371 0.10681 0.24597 0.0
N552 N 0.37225 0.00086 0.2319 0.0
N553 N 0.52364 0.15436 0.28159 0.0
H554 H 0.55321 0.14553 0.219 0.0
H555 H 0.58405 0.16587 0.24463 0.0
H556 H 0.51792 0.15788 0.29862 0.0
H557 H 0.54459 0.19391 0.27464 0.0
H558 H 0.33491 0.97676 0.23911 0.0
H559 H 0.36614 0.00864 0.21505 0.0
H560 H 0.37026 0.93437 0.26769 0.0
H561 H 0.39281 0.9618 0.29352 0.0
C562 C 0.47218 0.39057 0.76213 0.0
C563 C 0.43377 0.42904 0.77572 0.0
C564 C 0.382 0.47199 0.74271 0.0
C565 C 0.41983 0.43279 0.7291 0.0
N566 N 0.4856 0.34066 0.72655 0.0
N567 N 0.33912 0.49076 0.77913 0.0
C568 C 0.46035 0.38782 0.73904 0.0
C569 C 0.38476 0.4651 0.76605 0.0
N570 N 0.52162 0.35845 0.77102 0.0
N571 N 0.34525 0.51768 0.73357 0.0
H572 H 0.33803 0.48472 0.7962 0.0
H573 H 0.29869 0.51199 0.77289 0.0
H574 H 0.33978 0.52327 0.71668 0.0
H575 H 0.32349 0.55283 0.74277 0.0
H576 H 0.55585 0.33614 0.76156 0.0
H577 H 0.53115 0.35806 0.78782 0.0
H578 H 0.51048 0.303 0.73323 0.0
H579 H 0.47557 0.33515 0.70981 0.0
C580 C 0.04567 0.47968 0.26794 0.0
C581 C 0.08478 0.43746 0.2799 0.0
C582 C 0.13548 0.40439 0.24539 0.0
C583 C 0.09357 0.4435 0.23333 0.0
N584 N 0.00443 0.51354 0.23253 0.0
N585 N 0.15806 0.35083 0.27979 0.0
C586 C 0.04719 0.47951 0.24445 0.0
C587 C 0.12769 0.39774 0.26859 0.0
N588 N 0.00905 0.522 0.27904 0.0
N589 N 0.18251 0.373 0.23465 0.0
H590 H 0.15227 0.3429 0.29663 0.0
H591 H 0.18444 0.31586 0.27214 0.0
H592 H 0.187 0.37222 0.21753 0.0
H593 H 0.21948 0.35066 0.24274 0.0
H594 H 0.98542 0.559 0.27146 0.0
H595 H 0.00576 0.52334 0.29616 0.0
H596 H 0.96444 0.53395 0.23936 0.0
H597 H 0.00681 0.5186 0.21545 0.0
C598 C 0.08819 0.04129 0.76816 0.0
C599 C 0.03765 0.07235 0.77886 0.0
C600 C 0.99602 0.10346 0.7426 0.0
C601 C 0.0398 0.06286 0.73209 0.0
N602 N 0.125 0.98824 0.73547 0.0
N603 N 0.94015 0.12999 0.77604 0.0
C604 C 0.08555 0.03082 0.74502 0.0
C605 C 0.99087 0.10307 0.76602 0.0
N606 N 0.14019 0.02398 0.77999 0.0
N607 N 0.96126 0.14463 0.73028 0.0
H608 H 0.93537 0.13234 0.79305 0.0
H609 H 0.90078 0.1459 0.76745 0.0
H610 H 0.96564 0.14847 0.7132 0.0
H611 H 0.93332 0.17972 0.73717 0.0
H612 H 0.18119 0.00702 0.77273 0.0
H613 H 0.14517 0.03318 0.7968 0.0
H614 H 0.15356 0.95778 0.74447 0.0
H615 H 0.1256 0.97975 0.71865 0.0
C616 C 0.60873 0.9025 0.77257 0.0
C617 C 0.56019 0.94011 0.78173 0.0
C618 C 0.52553 0.97024 0.74454 0.0
C619 C 0.57009 0.92778 0.73546 0.0
N620 N 0.65101 0.84945 0.7405 0.0
N621 N 0.46869 0.00563 0.77694 0.0
C622 C 0.61064 0.89258 0.7494 0.0
C623 C 0.51794 0.97344 0.76786 0.0
N624 N 0.65499 0.87891 0.78594 0.0
N625 N 0.49017 0.00721 0.73086 0.0
H626 H 0.46203 0.00976 0.7939 0.0
H627 H 0.43188 0.02474 0.76782 0.0
H628 H 0.49089 0.00299 0.71374 0.0
H629 H 0.46268 0.04456 0.73632 0.0
H630 H 0.69536 0.85689 0.78007 0.0
H631 H 0.65627 0.88636 0.80293 0.0
H632 H 0.67557 0.81647 0.74982 0.0
H633 H 0.65749 0.844 0.72358 0.0
C634 C 0.50504 0.60237 0.26522 0.0
C635 C 0.54012 0.55416 0.27578 0.0
C636 C 0.58531 0.52482 0.24 0.0
C637 C 0.54196 0.56507 0.22914 0.0
N638 N 0.45533 0.63843 0.23172 0.0
N639 N 0.60875 0.46404 0.27258 0.0
C640 C 0.50057 0.60313 0.24182 0.0
C641 C 0.57918 0.51403 0.26301 0.0
N642 N 0.47848 0.64942 0.27743 0.0
N643 N 0.63432 0.49904 0.22855 0.0
H644 H 0.60574 0.45428 0.28932 0.0
H645 H 0.63163 0.42917 0.26358 0.0
H646 H 0.64262 0.50843 0.21193 0.0
H647 H 0.67083 0.47442 0.2361 0.0
H648 H 0.45797 0.68918 0.27043 0.0
H649 H 0.48312 0.65251 0.29452 0.0
H650 H 0.41909 0.66056 0.24028 0.0
H651 H 0.45094 0.64175 0.21472 0.0
C652 C 0.00242 0.59997 0.7437 0.0
C653 C 0.9674 0.55303 0.7324 0.0
C654 C 0.91411 0.52675 0.76687 0.0
C655 C 0.95771 0.56389 0.77876 0.0
N656 N 0.04479 0.63656 0.77836 0.0
N657 N 0.89394 0.46638 0.73399 0.0
C658 C 0.00207 0.60111 0.76714 0.0
C659 C 0.92405 0.51509 0.74416 0.0
N660 N 0.03333 0.64555 0.73207 0.0
N661 N 0.86118 0.50543 0.7771 0.0
H662 H 0.90047 0.45534 0.71745 0.0
H663 H 0.86703 0.43345 0.74251 0.0
H664 H 0.85008 0.51909 0.79312 0.0
H665 H 0.8249 0.48227 0.76888 0.0
H666 H 0.0542 0.68454 0.73945 0.0
H667 H 0.03244 0.64831 0.71491 0.0
H668 H 0.0837 0.65746 0.77095 0.0
H669 H 0.04272 0.64268 0.79529 0.0
C670 C 0.89496 0.97751 0.26345 0.0
C671 C 0.93226 0.93929 0.27755 0.0
C672 C 0.9865 0.89558 0.24529 0.0
C673 C 0.9477 0.93208 0.23116 0.0
N674 N 0.85246 0.99262 0.22677 0.0
N675 N 0.99888 0.84797 0.28128 0.0
C676 C 0.89816 0.96858 0.24024 0.0
C677 C 0.97371 0.89412 0.26828 0.0
N678 N 0.85828 0.02413 0.27201 0.0
N679 N 0.0372 0.86421 0.23701 0.0
H680 H 0.98823 0.84327 0.29798 0.0
H681 H 0.02441 0.81021 0.275 0.0
H682 H 0.04806 0.86378 0.22033 0.0
H683 H 0.07131 0.84314 0.2469 0.0
H684 H 0.83641 0.05826 0.26235 0.0
H685 H 0.85357 0.03183 0.28883 0.0
H686 H 0.81184 0.01414 0.2327 0.0
H687 H 0.8515 0.98491 0.20979 0.0
C688 C 0.4248 0.00286 0.01311 0.0
C689 C 0.47718 0.01661 0.02681 0.0
C690 C 0.54765 0.96176 1.00121 0.0
C691 C 0.49492 0.94559 0.98804 0.0
N692 N 0.38287 0.94346 0.98217 0.0
N693 N 0.58684 0.00345 0.03584 0.0
C694 C 0.43328 0.96405 0.99421 0.0
C695 C 0.53817 0.99425 0.02143 0.0
N696 N 0.36726 0.02808 0.01796 0.0
N697 N 0.60697 0.94774 0.99399 0.0
H698 H 0.5823 0.02937 0.05032 0.0
H699 H 0.63066 0.98214 0.03428 0.0
H700 H 0.61569 0.92249 0.97957 0.0
H701 H 0.64782 0.96444 1.00141 0.0
H702 H 0.32866 0.02621 0.00742 0.0
H703 H 0.3587 0.05429 0.03218 0.0
H704 H 0.33628 0.94942 0.98695 0.0
H705 H 0.38751 0.91654 0.96789 0.0
C706 C 0.51259 0.56674 0.49655 0.0
C707 C 0.53245 0.51455 0.48376 0.0
C708 C 0.48093 0.44223 0.50954 0.0
C709 C 0.46419 0.49423 0.52295 0.0
N710 N 0.47255 0.6045 0.53156 0.0
N711 N 0.54433 0.40263 0.47929 0.0
C712 C 0.48259 0.55611 0.51714 0.0
C713 C 0.51915 0.4522 0.49061 0.0
N714 N 0.52021 0.62641 0.48859 0.0
N715 N 0.45879 0.38363 0.51458 0.0
H716 H 0.57188 0.40823 0.4652 0.0
H717 H 0.54204 0.35625 0.48468 0.0
H718 H 0.43219 0.37431 0.52865 0.0
H719 H 0.46308 0.34498 0.50418 0.0
H720 H 0.50044 0.66601 0.49591 0.0
H721 H 0.54227 0.63619 0.47363 0.0
H722 H 0.49107 0.64938 0.52945 0.0
H723 H 0.44982 0.59864 0.54665 0.0
C724 C 0.91865 0.47225 0.99779 0.0
C725 C 0.96731 0.50214 0.98575 0.0
C726 C 0.04575 0.46653 0.0128 0.0
C727 C 0.9966 0.43899 0.02533 0.0
N728 N 0.8863 0.42023 0.03159 0.0
N729 N 0.0773 0.5227 0.97966 0.0
C730 C 0.93305 0.44256 0.01822 0.0
C731 C 0.03101 0.49795 0.99269 0.0
N732 N 0.85891 0.4712 0.98938 0.0
N733 N 0.10621 0.46391 0.02055 0.0
H734 H 0.06792 0.54685 0.96508 0.0
H735 H 0.12522 0.51743 0.98246 0.0
H736 H 0.11891 0.43903 0.03469 0.0
H737 H 0.14404 0.48763 0.01363 0.0
H738 H 0.82236 0.4447 0.99596 0.0
H739 H 0.84643 0.4938 0.97475 0.0
H740 H 0.8386 0.42758 0.02879 0.0
H741 H 0.89509 0.39724 0.04647 0.0
C742 C 0.01041 0.94442 0.51715 0.0
C743 C 0.02137 0.00761 0.52363 0.0
C744 C 0.97051 0.04632 0.48996 0.0
C745 C 0.95845 0.98319 0.48366 0.0
N746 N 0.97229 0.87193 0.48914 0.0
N747 N 0.00775 0.11888 0.51802 0.0
C748 C 0.97995 0.93209 0.49667 0.0
C749 C 0.00054 0.05867 0.51047 0.0
N750 N 0.02681 0.89651 0.53109 0.0
N751 N 0.95528 0.0942 0.47585 0.0
H752 H 0.03157 0.12982 0.53257 0.0
H753 H 0.98746 0.15813 0.51067 0.0
H754 H 0.93245 0.08695 0.46086 0.0
H755 H 0.96856 0.14078 0.47813 0.0
H756 H 0.01475 0.84967 0.52868 0.0
H757 H 0.05013 0.9038 0.546 0.0
H758 H 0.9921 0.83247 0.49649 0.0
H759 H 0.94846 0.86123 0.47457 0.0
C760 C 0.45246 0.53895 0.01472 0.0
C761 C 0.51544 0.54644 0.02205 0.0
C762 C 0.55388 0.4906 0.98934 0.0
C763 C 0.49078 0.47876 0.98291 0.0
N764 N 0.37967 0.48472 0.99039 0.0
N765 N 0.62581 0.52313 0.01827 0.0
C766 C 0.43989 0.50124 0.99581 0.0
C767 C 0.56611 0.52044 0.0099 0.0
N768 N 0.40481 0.56882 0.02565 0.0
N769 N 0.60204 0.47521 0.97542 0.0
H770 H 0.6368 0.54594 0.03301 0.0
H771 H 0.66376 0.49893 0.01153 0.0
H772 H 0.59492 0.4533 0.96024 0.0
H773 H 0.64854 0.48867 0.97797 0.0
H774 H 0.35883 0.57127 0.01982 0.0
H775 H 0.41197 0.59502 0.03997 0.0
H776 H 0.34094 0.49343 1.00041 0.0
H777 H 0.36863 0.45818 0.97645 0.0
C778 C 0.00257 0.57317 0.51328 0.0
C779 C 0.97742 0.52372 0.52623 0.0
C780 C 0.02084 0.44584 0.50055 0.0
C781 C 0.04187 0.49546 0.48679 0.0
N782 N 0.04464 0.6059 0.47795 0.0
N783 N 0.95437 0.41366 0.53105 0.0
C784 C 0.03046 0.55906 0.49257 0.0
C785 C 0.98433 0.46014 0.51957 0.0
N786 N 0.00142 0.63346 0.5211 0.0
N787 N 0.0372 0.38521 0.49575 0.0
H788 H 0.92781 0.42237 0.54516 0.0
H789 H 0.95181 0.3672 0.52575 0.0
H790 H 0.06258 0.37288 0.48168 0.0
H791 H 0.0296 0.3476 0.50639 0.0
H792 H 0.02501 0.67063 0.51361 0.0
H793 H 0.98107 0.64567 0.53615 0.0
H794 H 0.03104 0.65251 0.48008 0.0
H795 H 0.06563 0.59744 0.46271 0.0
C796 C 0.06615 0.02552 0.99962 0.0
C797 C 0.01404 0.04477 0.98665 0.0
C798 C 0.942 0.98853 0.01134 0.0
C799 C 0.9937 0.9727 0.02507 0.0
N800 N 0.10361 0.98215 0.03425 0.0
N801 N 0.902 0.05217 0.98119 0.0
C802 C 0.05545 0.99296 0.01977 0.0
C803 C 0.95178 0.02834 0.99279 0.0
N804 N 0.12593 0.03687 0.99232 0.0
N805 N 0.8838 0.96432 0.0158 0.0
H806 H 0.90742 0.08045 0.96728 0.0
H807 H 0.85536 0.04778 0.98612 0.0
H808 H 0.87445 0.9368 0.02966 0.0
H809 H 0.84561 0.96787 1.00513 0.0
H810 H 0.16603 0.0181 0.99966 0.0
H811 H 0.13553 0.06159 0.97786 0.0
H812 H 0.14818 0.00184 0.03268 0.0
H813 H 0.09791 0.95684 0.04883 0.0
C814 C 0.53335 0.92461 0.51471 0.0
C815 C 0.56021 0.97477 0.52699 0.0
C816 C 0.52216 0.05113 0.49961 0.0
C817 C 0.49429 0.00124 0.48754 0.0
N818 N 0.47703 0.89066 0.48175 0.0
N819 N 0.57448 0.08575 0.5331 0.0
C820 C 0.50075 0.93792 0.49463 0.0
C821 C 0.55329 0.03804 0.51991 0.0
N822 N 0.53798 0.86454 0.52263 0.0
N823 N 0.52068 0.11081 0.4912 0.0
H824 H 0.59907 0.07804 0.54773 0.0
H825 H 0.56456 0.13302 0.53045 0.0
H826 H 0.49728 0.12241 0.47663 0.0
H827 H 0.5459 0.14838 0.49769 0.0
H828 H 0.51563 0.82577 0.51576 0.0
H829 H 0.56285 0.85319 0.53692 0.0
H830 H 0.48386 0.84302 0.48466 0.0
H831 H 0.45202 0.899 0.46724 0.0
C832 C 0.74472 0.10988 0.13249 0.0
C833 C 0.69106 0.07174 0.13632 0.0
C834 C 0.75833 0.98099 0.14371 0.0
C835 C 0.81229 0.01779 0.13848 0.0
N836 N 0.85733 0.11458 0.12541 0.0
N837 N 0.64567 0.96856 0.14107 0.0
C838 C 0.80562 0.08158 0.13209 0.0
C839 C 0.69757 0.00668 0.1407 0.0
N840 N 0.73733 0.17316 0.12963 0.0
N841 N 0.76472 0.92116 0.15167 0.0
H842 H 0.59978 0.98495 0.1393 0.0
H843 H 0.6481 0.91967 0.14111 0.0
H844 H 0.80733 0.89761 0.15273 0.0
H845 H 0.72798 0.89604 0.15881 0.0
H846 H 0.7746 0.20474 0.12884 0.0
H847 H 0.69327 0.19476 0.12934 0.0
H848 H 0.8552 0.15914 0.11837 0.0
H849 H 0.90262 0.0957 0.12581 0.0
C850 C 0.42099 0.79599 0.63627 0.0
C851 C 0.48642 0.80134 0.64015 0.0
C852 C 0.49633 0.68685 0.64279 0.0
C853 C 0.43039 0.6815 0.63997 0.0
N854 N 0.32813 0.72955 0.63756 0.0
N855 N 0.58494 0.75367 0.65112 0.0
C856 C 0.39207 0.73574 0.63777 0.0
C857 C 0.5236 0.74727 0.64465 0.0
N858 N 0.38706 0.84817 0.63068 0.0
N859 N 0.53337 0.63419 0.64291 0.0
H860 H 0.60799 0.79673 0.65192 0.0
H861 H 0.61184 0.71688 0.6574 0.0
H862 H 0.51556 0.58859 0.64247 0.0
H863 H 0.58222 0.63547 0.64185 0.0
H864 H 0.34046 0.8467 0.62542 0.0
H865 H 0.40701 0.89295 0.62998 0.0
H866 H 0.29743 0.76752 0.63857 0.0
H867 H 0.30573 0.68595 0.63822 0.0
C868 C 0.80702 0.5019 0.1367 0.0
C869 C 0.814 0.43763 0.14223 0.0
C870 C 0.69909 0.42607 0.14418 0.0
C871 C 0.69242 0.48852 0.13633 0.0
N872 N 0.7406 0.58343 0.12202 0.0
N873 N 0.76841 0.3364 0.14978 0.0
C874 C 0.74655 0.52559 0.13164 0.0
C875 C 0.76045 0.39901 0.14563 0.0
N876 N 0.85811 0.54105 0.1369 0.0
N877 N 0.64691 0.39312 0.15041 0.0
H878 H 0.81271 0.3159 0.15159 0.0
H879 H 0.7316 0.30422 0.15029 0.0
H880 H 0.60146 0.41096 0.14863 0.0
H881 H 0.64863 0.34984 0.15838 0.0
H882 H 0.85472 0.5898 0.13586 0.0
H883 H 0.90373 0.52589 0.14025 0.0
H884 H 0.77839 0.60863 0.11563 0.0
H885 H 0.69768 0.60445 0.11858 0.0
C886 C 0.01957 0.72929 0.65636 0.0
C887 C 0.05235 0.68571 0.64275 0.0
C888 C 0.11972 0.77167 0.62967 0.0
C889 C 0.08019 0.81549 0.64067 0.0
N890 N 0.98128 0.83545 0.659 0.0
N891 N 0.13148 0.66541 0.61535 0.0
C892 C 0.02713 0.79424 0.65256 0.0
C893 C 0.10208 0.70693 0.62908 0.0
N894 N 0.98073 0.70951 0.67289 0.0
N895 N 0.17379 0.79199 0.61986 0.0
H896 H 0.12155 0.61736 0.61552 0.0
H897 H 0.16332 0.6788 0.6032 0.0
H898 H 0.18779 0.83899 0.62009 0.0
H899 H 0.2068 0.76195 0.61284 0.0
H900 H 0.9607 0.74035 0.68426 0.0
H901 H 0.97423 0.66277 0.67718 0.0
H902 H 0.93825 0.82083 0.66545 0.0
H903 H 0.98257 0.8834 0.65553 0.0
C904 C 0.72738 0.37893 0.88223 0.0
C905 C 0.68545 0.40986 0.8674 0.0
C906 C 0.77621 0.44696 0.84699 0.0
C907 C 0.81572 0.43548 0.86522 0.0
N908 N 0.83195 0.37704 0.89869 0.0
N909 N 0.67398 0.48616 0.83788 0.0
C910 C 0.79228 0.39682 0.88244 0.0
C911 C 0.71083 0.44716 0.85023 0.0
N912 N 0.70577 0.33185 0.89549 0.0
N913 N 0.80065 0.45637 0.82656 0.0
H914 H 0.69292 0.51637 0.82606 0.0
H915 H 0.62656 0.49387 0.84126 0.0
H916 H 0.84836 0.44915 0.82344 0.0
H917 H 0.772 0.46145 0.81268 0.0
H918 H 0.73497 0.30452 0.90541 0.0
H919 H 0.65927 0.31631 0.89497 0.0
H920 H 0.81668 0.35519 0.91309 0.0
H921 H 0.88053 0.38336 0.89756 0.0
C922 C 0.10608 0.732 0.37132 0.0
C923 C 0.06848 0.67724 0.36898 0.0
C924 C 0.97308 0.74135 0.36829 0.0
C925 C 0.01062 0.79655 0.36935 0.0
N926 N 0.11218 0.84615 0.36925 0.0
N927 N 0.96773 0.62961 0.36131 0.0
C928 C 0.07709 0.79242 0.3701 0.0
C929 C 0.00248 0.68195 0.36618 0.0
N930 N 0.16909 0.72599 0.37526 0.0
N931 N 0.90912 0.74539 0.37043 0.0
H932 H 0.98669 0.58452 0.3604 0.0
H933 H 0.92085 0.63133 0.35636 0.0
H934 H 0.88515 0.78782 0.37193 0.0
H935 H 0.88001 0.70657 0.37265 0.0
H936 H 0.19817 0.76338 0.37954 0.0
H937 H 0.1919 0.68256 0.37541 0.0
H938 H 0.16089 0.84662 0.36759 0.0
H939 H 0.09187 0.8908 0.36874 0.0
C940 C 0.79981 0.00374 0.8805 0.0
C941 C 0.80473 0.06965 0.87751 0.0
C942 C 0.68966 0.07849 0.87537 0.0
C943 C 0.68488 0.01323 0.87977 0.0
N944 N 0.73442 0.91474 0.88972 0.0
N945 N 0.75614 0.17156 0.87463 0.0
C946 C 0.73969 0.97629 0.8834 0.0
C947 C 0.75008 0.10766 0.87568 0.0
N948 N 0.85252 0.96683 0.87962 0.0
N949 N 0.6366 0.11204 0.87053 0.0
H950 H 0.79976 0.194 0.87442 0.0
H951 H 0.71836 0.20257 0.87537 0.0
H952 H 0.59173 0.09221 0.87102 0.0
H953 H 0.63702 0.15826 0.86492 0.0
H954 H 0.85128 0.91798 0.87874 0.0
H955 H 0.89789 0.98465 0.87789 0.0
H956 H 0.77209 0.88788 0.89536 0.0
H957 H 0.69171 0.8912 0.891 0.0
C958 C 0.48347 0.7863 0.38402 0.0
C959 C 0.42728 0.80677 0.37382 0.0
C960 C 0.4025 0.69731 0.36421 0.0
C961 C 0.45523 0.67699 0.3767 0.0
N962 N 0.53325 0.70384 0.40455 0.0
N963 N 0.32817 0.78153 0.35663 0.0
C964 C 0.49143 0.72185 0.38864 0.0
C965 C 0.38502 0.76215 0.36463 0.0
N966 N 0.53093 0.82788 0.38838 0.0
N967 N 0.3698 0.65482 0.35183 0.0
H968 H 0.31438 0.8286 0.35663 0.0
H969 H 0.29314 0.75067 0.35147 0.0
H970 H 0.37961 0.60675 0.35224 0.0
H971 H 0.33523 0.66753 0.34049 0.0
H972 H 0.57529 0.81373 0.39379 0.0
H973 H 0.52871 0.87531 0.38411 0.0
H974 H 0.55674 0.73601 0.41458 0.0
H975 H 0.5386 0.65785 0.40994 0.0
C976 C 0.19039 0.92739 0.86781 0.0
C977 C 0.18521 0.99236 0.87263 0.0
C978 C 0.30018 0.00218 0.87365 0.0
C979 C 0.30533 0.93625 0.87103 0.0
N980 N 0.25722 0.83453 0.86692 0.0
N981 N 0.23457 0.09099 0.88254 0.0
C982 C 0.2509 0.89831 0.86839 0.0
C983 C 0.23996 0.02951 0.87622 0.0
N984 N 0.13761 0.89399 0.86252 0.0
N985 N 0.35289 0.03911 0.87303 0.0
H986 H 0.19186 0.11442 0.88357 0.0
H987 H 0.27202 0.11785 0.88834 0.0
H988 H 0.39837 0.02126 0.87176 0.0
H989 H 0.35159 0.08792 0.87187 0.0
H990 H 0.1383 0.84794 0.85675 0.0
H991 H 0.09275 0.9139 0.86266 0.0
H992 H 0.2195 0.80342 0.86703 0.0
H993 H 0.30093 0.81223 0.86673 0.0
C994 C 0.60905 0.19575 0.3644 0.0
C995 C 0.55818 0.17814 0.37823 0.0
C996 C 0.53193 0.28874 0.38385 0.0
C997 C 0.58644 0.30683 0.37213 0.0
N998 N 0.68195 0.27799 0.35332 0.0
N999 N 0.48379 0.21001 0.40656 0.0
C1000 C 0.62676 0.2604 0.36302 0.0
C1001 C 0.52404 0.22519 0.38983 0.0
N1002 N 0.63958 0.1508 0.35243 0.0
N1003 N 0.48577 0.33167 0.38834 0.0
H1004 H 0.47791 0.16481 0.41266 0.0
H1005 H 0.46211 0.24383 0.41641 0.0
H1006 H 0.48772 0.37829 0.38308 0.0
H1007 H 0.44227 0.31923 0.39493 0.0
H1008 H 0.67241 0.16102 0.34021 0.0
H1009 H 0.62973 0.10299 0.35416 0.0
H1010 H 0.71582 0.24612 0.34798 0.0
H1011 H 0.6957 0.32489 0.35193 0.0
C1012 C 0.22628 0.60676 0.88019 0.0
C1013 C 0.17443 0.56638 0.87618 0.0
C1014 C 0.24544 0.48258 0.86439 0.0
C1015 C 0.29808 0.52104 0.86994 0.0
N1016 N 0.33937 0.61686 0.88532 0.0
N1017 N 0.13456 0.46209 0.86906 0.0
C1018 C 0.28868 0.5824 0.87853 0.0
C1019 C 0.18401 0.50331 0.86957 0.0
N1020 N 0.2157 0.66845 0.88522 0.0
N1021 N 0.25344 0.42594 0.85407 0.0
H1022 H 0.08823 0.4749 0.87235 0.0
H1023 H 0.13998 0.41364 0.86744 0.0
H1024 H 0.29671 0.4054 0.85096 0.0
H1025 H 0.21666 0.40098 0.84685 0.0
H1026 H 0.25114 0.70199 0.88635 0.0
H1027 H 0.17058 0.68695 0.88715 0.0
H1028 H 0.33577 0.65896 0.89396 0.0
H1029 H 0.3856 0.60156 0.8832 0.0
C1030 C 0.03049 0.24286 0.37297 0.0
C1031 C 0.99257 0.29785 0.37322 0.0
C1032 C 0.89747 0.23288 0.37162 0.0
C1033 C 0.93588 0.17857 0.3696 0.0
N1034 N 0.0385 0.13229 0.36435 0.0
N1035 N 0.89105 0.34709 0.37053 0.0
C1036 C 0.00225 0.18377 0.36901 0.0
C1037 C 0.9262 0.29348 0.3719 0.0
N1038 N 0.09345 0.2468 0.37745 0.0
N1039 N 0.83388 0.22625 0.37382 0.0
H1040 H 0.91104 0.39184 0.37128 0.0
H1041 H 0.84295 0.34738 0.36731 0.0
H1042 H 0.81143 0.18273 0.37286 0.0
H1043 H 0.80388 0.26314 0.37786 0.0
H1044 H 0.12204 0.20779 0.38013 0.0
H1045 H 0.11628 0.28909 0.38061 0.0
H1046 H 0.0865 0.13485 0.36109 0.0
H1047 H 0.02009 0.08748 0.36181 0.0
C1048 C 0.19721 0.59883 0.14028 0.0
C1049 C 0.18411 0.54043 0.12995 0.0
C1050 C 0.29661 0.5234 0.12379 0.0
C1051 C 0.30949 0.58408 0.13219 0.0
N1052 N 0.27249 0.68324 0.14627 0.0
N1053 N 0.22121 0.45448 0.10691 0.0
C1054 C 0.25981 0.62309 0.13977 0.0
C1055 C 0.2336 0.5054 0.11997 0.0
N1056 N 0.14999 0.63041 0.15078 0.0
N1057 N 0.34433 0.4811 0.12073 0.0
H1058 H 0.17639 0.43812 0.10334 0.0
H1059 H 0.25564 0.43212 0.09754 0.0
H1060 H 0.39132 0.49098 0.1242 0.0
H1061 H 0.33662 0.43382 0.11716 0.0
H1062 H 0.15732 0.66963 0.16071 0.0
H1063 H 0.10329 0.61535 0.15031 0.0
H1064 H 0.23792 0.71584 0.15035 0.0
H1065 H 0.31784 0.70196 0.14621 0.0
C1066 C 0.89402 0.20664 0.64559 0.0
C1067 C 0.94247 0.18517 0.63141 0.0
C1068 C 0.96741 0.29372 0.62145 0.0
C1069 C 0.91555 0.31518 0.63393 0.0
N1070 N 0.82333 0.29191 0.65551 0.0
N1071 N 0.01173 0.20888 0.60055 0.0
C1072 C 0.8767 0.27148 0.64525 0.0
C1073 C 0.9743 0.22871 0.61749 0.0
N1074 N 0.86552 0.16525 0.65959 0.0
N1075 N 0.01297 0.33473 0.61463 0.0
H1076 H 0.01769 0.16218 0.59609 0.0
H1077 H 0.03103 0.23977 0.58905 0.0
H1078 H 0.01227 0.3826 0.61826 0.0
H1079 H 0.0553 0.31999 0.60768 0.0
H1080 H 0.835 0.17886 0.67213 0.0
H1081 H 0.87493 0.1171 0.65922 0.0
H1082 H 0.79059 0.26186 0.66268 0.0
H1083 H 0.80944 0.33895 0.65544 0.0
C1084 C 0.24492 0.8888 0.13162 0.0
C1085 C 0.19376 0.92536 0.13946 0.0
C1086 C 0.26678 0.00427 0.15369 0.0
C1087 C 0.31792 0.97163 0.14369 0.0
N1088 N 0.3558 0.88523 0.12179 0.0
N1089 N 0.15522 0.02505 0.15279 0.0
C1090 C 0.30698 0.91442 0.13225 0.0
C1091 C 0.20446 0.98488 0.14917 0.0
N1092 N 0.23412 0.82954 0.12381 0.0
N1093 N 0.27682 0.05465 0.16727 0.0
H1094 H 0.1087 0.01414 0.14894 0.0
H1095 H 0.16105 0.07197 0.15726 0.0
H1096 H 0.32053 0.07418 0.17055 0.0
H1097 H 0.2415 0.07427 0.17698 0.0
H1098 H 0.2697 0.79828 0.11952 0.0
H1099 H 0.18917 0.81003 0.12291 0.0
H1100 H 0.35022 0.84746 0.11106 0.0
H1101 H 0.40217 0.90088 0.12313 0.0
C1102 C 0.46776 0.24658 0.6287 0.0
C1103 C 0.50399 0.30097 0.6336 0.0
C1104 C 0.59781 0.23569 0.63868 0.0
C1105 C 0.56012 0.18124 0.63587 0.0
N1106 N 0.45787 0.13358 0.63119 0.0
N1107 N 0.60126 0.34853 0.64505 0.0
C1108 C 0.49475 0.18631 0.63162 0.0
C1109 C 0.56854 0.29595 0.63907 0.0
N1110 N 0.40755 0.2525 0.62097 0.0
N1111 N 0.66158 0.2297 0.64051 0.0
H1112 H 0.58133 0.39336 0.64479 0.0
H1113 H 0.64667 0.34749 0.65148 0.0
H1114 H 0.68418 0.18615 0.64075 0.0
H1115 H 0.69238 0.26767 0.64011 0.0
H1116 H 0.38179 0.21528 0.61445 0.0
H1117 H 0.38459 0.29547 0.61937 0.0
H1118 H 0.40893 0.1348 0.63107 0.0
H1119 H 0.47557 0.0881 0.6327 0.0
C1120 C 0.25212 0.31875 0.1472 0.0
C1121 C 0.19593 0.2896 0.13938 0.0
C1122 C 0.25541 0.19629 0.12845 0.0
C1123 C 0.31181 0.22613 0.13564 0.0
N1124 N 0.36648 0.31756 0.14876 0.0
N1125 N 0.14419 0.20545 0.11997 0.0
C1126 C 0.31086 0.28785 0.14425 0.0
C1127 C 0.19771 0.22986 0.12915 0.0
N1128 N 0.24937 0.37618 0.15733 0.0
N1129 N 0.25654 0.13481 0.12184 0.0
H1130 H 0.10018 0.22667 0.1215 0.0
H1131 H 0.14358 0.16612 0.10978 0.0
H1132 H 0.29762 0.1085 0.12064 0.0
H1133 H 0.21647 0.10805 0.1189 0.0
H1134 H 0.28689 0.39668 0.16567 0.0
H1135 H 0.20855 0.40297 0.15836 0.0
H1136 H 0.37029 0.36478 0.15298 0.0
H1137 H 0.41012 0.29595 0.14664 0.0
C1138 C 0.15624 0.26254 0.64425 0.0
C1139 C 0.17991 0.21103 0.6317 0.0
C1140 C 0.24108 0.28458 0.60955 0.0
C1141 C 0.23159 0.33185 0.62577 0.0
N1142 N 0.17017 0.37066 0.6561 0.0
N1143 N 0.24777 0.17284 0.60278 0.0
C1144 C 0.18569 0.32229 0.64234 0.0
C1145 C 0.22298 0.22204 0.61437 0.0
N1146 N 0.1039 0.25531 0.65708 0.0
N1147 N 0.2641 0.29949 0.58921 0.0
H1148 H 0.23639 0.12608 0.60608 0.0
H1149 H 0.28398 0.17827 0.59137 0.0
H1150 H 0.26859 0.34573 0.5838 0.0
H1151 H 0.2685 0.26673 0.57653 0.0
H1152 H 0.08049 0.29257 0.66459 0.0
H1153 H 0.08004 0.21288 0.65868 0.0
H1154 H 0.14372 0.3651 0.67041 0.0
H1155 H 0.18509 0.41667 0.65318 0.0
C1156 C 0.27532 0.25252 0.85596 0.0
C1157 C 0.30545 0.26871 0.87604 0.0
C1158 C 0.20273 0.2669 0.89455 0.0
C1159 C 0.17293 0.25197 0.87426 0.0
N1160 N 0.17989 0.2616 0.83473 0.0
N1161 N 0.29932 0.26437 0.91569 0.0
C1162 C 0.20891 0.25398 0.85463 0.0
C1163 C 0.26957 0.26846 0.89579 0.0
N1164 N 0.31014 0.23247 0.83844 0.0
N1165 N 0.16685 0.28308 0.91231 0.0
H1166 H 0.34764 0.2566 0.91692 0.0
H1167 H 0.2755 0.25924 0.93058 0.0
H1168 H 0.1181 0.28796 0.9111 0.0
H1169 H 0.18572 0.29945 0.9271 0.0
H1170 H 0.28991 0.21575 0.82391 0.0
H1171 H 0.35847 0.22457 0.83974 0.0
H1172 H 0.20468 0.26776 0.82006 0.0
H1173 H 0.13189 0.27126 0.8335 0.0
C1174 C 0.3405 0.25243 0.3655 0.0
C1175 C 0.31643 0.20133 0.37819 0.0
C1176 C 0.25261 0.27554 0.39918 0.0
C1177 C 0.26362 0.32265 0.38298 0.0
N1178 N 0.3271 0.35992 0.35289 0.0
N1179 N 0.24461 0.16396 0.406 0.0
C1180 C 0.3105 0.31219 0.36677 0.0
C1181 C 0.27108 0.21285 0.39474 0.0
N1182 N 0.39399 0.24506 0.35326 0.0
N1183 N 0.22818 0.2907 0.4193 0.0
H1184 H 0.25623 0.1171 0.40295 0.0
H1185 H 0.20673 0.16978 0.41671 0.0
H1186 H 0.224 0.33692 0.42475 0.0
H1187 H 0.22262 0.25794 0.43193 0.0
H1188 H 0.41747 0.28208 0.34565 0.0
H1189 H 0.41882 0.20302 0.35233 0.0
H1190 H 0.35398 0.35351 0.33873 0.0
H1191 H 0.31286 0.40626 0.35556 0.0
C1192 C 0.69517 0.73128 0.85646 0.0
C1193 C 0.66389 0.74401 0.87655 0.0
C1194 C 0.76166 0.72241 0.89666 0.0
C1195 C 0.79348 0.71234 0.87638 0.0
N1196 N 0.7941 0.73778 0.83748 0.0
N1197 N 0.66149 0.72328 0.91557 0.0
C1198 C 0.76138 0.72535 0.85633 0.0
C1199 C 0.69541 0.73126 0.89668 0.0
N1200 N 0.6613 0.72208 0.83761 0.0
N1201 N 0.79538 0.72878 0.9157 0.0
H1202 H 0.61244 0.72181 0.91545 0.0
H1203 H 0.68151 0.70916 0.93046 0.0
H1204 H 0.84441 0.73071 0.91572 0.0
H1205 H 0.77515 0.74121 0.93072 0.0
H1206 H 0.68186 0.70809 0.8228 0.0
H1207 H 0.61224 0.71989 0.83775 0.0
H1208 H 0.77227 0.75147 0.82284 0.0
H1209 H 0.84264 0.74471 0.83747 0.0
C1210 C 0.69533 0.81305 0.36012 0.0
C1211 C 0.73965 0.82487 0.3771 0.0
C1212 C 0.73536 0.71501 0.38848 0.0
C1213 C 0.69238 0.70196 0.37127 0.0
N1214 N 0.61512 0.74359 0.34566 0.0
N1215 N 0.76967 0.7942 0.41412 0.0
C1216 C 0.66753 0.75236 0.35838 0.0
C1217 C 0.74986 0.77821 0.39345 0.0
N1218 N 0.67889 0.86027 0.346 0.0
N1219 N 0.76301 0.66719 0.39998 0.0
H1220 H 0.77073 0.84064 0.41958 0.0
H1221 H 0.77442 0.76147 0.42681 0.0
H1222 H 0.75479 0.61991 0.39642 0.0
H1223 H 0.79886 0.6748 0.41143 0.0
H1224 H 0.65383 0.85296 0.33145 0.0
H1225 H 0.69136 0.907 0.3489 0.0
H1226 H 0.59101 0.78017 0.33799 0.0
H1227 H 0.59174 0.70081 0.34435 0.0
C1228 C 0.72116 0.74907 0.1543 0.0
C1229 C 0.68603 0.74504 0.13446 0.0
C1230 C 0.78381 0.75725 0.11336 0.0
C1231 C 0.81874 0.76047 0.13328 0.0
N1232 N 0.82172 0.72985 0.1715 0.0
N1233 N 0.68236 0.7716 0.09591 0.0
C1234 C 0.78768 0.74734 0.15343 0.0
C1235 C 0.71699 0.75686 0.11416 0.0
N1236 N 0.69127 0.75928 0.17387 0.0
N1237 N 0.81447 0.74965 0.09378 0.0
H1238 H 0.63375 0.77807 0.09671 0.0
H1239 H 0.70239 0.78556 0.08102 0.0
H1240 H 0.86286 0.74167 0.09306 0.0
H1241 H 0.79127 0.74212 0.07887 0.0
H1242 H 0.71538 0.76706 0.1886 0.0
H1243 H 0.64332 0.76949 0.17465 0.0
H1244 H 0.80088 0.71527 0.18619 0.0
H1245 H 0.87007 0.72165 0.17063 0.0
C1246 C 0.835 0.76189 0.6286 0.0
C1247 C 0.81296 0.7103 0.64146 0.0
C1248 C 0.75149 0.78338 0.66372 0.0
C1249 C 0.75944 0.83063 0.6474 0.0
N1250 N 0.81849 0.86936 0.61643 0.0
N1251 N 0.74625 0.67169 0.67062 0.0
C1252 C 0.80448 0.82121 0.63048 0.0
C1253 C 0.77016 0.72101 0.65889 0.0
N1254 N 0.88694 0.75524 0.61553 0.0
N1255 N 0.72969 0.79823 0.68423 0.0
H1256 H 0.75805 0.62502 0.66732 0.0
H1257 H 0.71019 0.67691 0.68211 0.0
H1258 H 0.72555 0.84448 0.68965 0.0
H1259 H 0.72637 0.76547 0.69696 0.0
H1260 H 0.90924 0.79272 0.60774 0.0
H1261 H 0.91162 0.71322 0.61399 0.0
H1262 H 0.84397 0.86361 0.60191 0.0
H1263 H 0.80341 0.91533 0.61932 0.0
loop_
_geom_bond_atom_site_label_1
_geom_bond_atom_site_label_2
_geom_bond_distance
_geom_bond_site_symmetry_2
_ccdc_geom_bond_type
Co0 O3 1.970 . S
Co0 N17 1.989 . S
Co0 O25 1.967 . S
Co0 O32 1.920 . S
Co1 O4 1.966 . S
Co1 N10 2.022 . S
Co1 N18 1.993 . S
Co1 O26 1.941 . S
C2 O3 1.258 . S
C2 O4 1.263 . S
O3 Co0 1.970 . S
O3 C2 1.258 . S
O4 Co1 1.966 . S
O4 C2 1.263 . S
C5 O6 1.235 1_545 S
C5 O32 1.289 . S
O6 C5 1.235 1_565 S
C7 C9 1.400 . S
C7 N10 1.351 . S
C7 C12 1.501 1_545 S
C8 C9 1.387 . S
C8 N11 1.341 . S
C9 C7 1.400 . S
C9 C8 1.387 . S
N10 Co1 2.022 . S
N10 C7 1.351 . S
N10 N11 1.365 . S
N11 C8 1.341 . S
N11 N10 1.365 . S
N11 H31 0.862 . S
C12 C7 1.501 1_565 S
C12 H13 0.961 . S
C12 H14 0.961 . S
C12 H15 0.960 . S
H13 C12 0.961 . S
H14 C12 0.961 . S
H15 C12 0.960 . S
C16 N17 1.342 . S
C16 C20 1.401 . S
C16 C21 1.499 . S
N17 Co0 1.989 . S
N17 C16 1.342 . S
N17 N18 1.388 . S
N18 Co1 1.993 . S
N18 N17 1.388 . S
N18 C19 1.346 . S
C19 N18 1.346 . S
C19 C20 1.396 . S
C19 C29 1.510 . S
C20 C16 1.401 . S
C20 C19 1.396 . S
C21 C16 1.499 . S
C21 H22 0.959 . S
C21 H23 0.960 . S
C21 H24 0.961 . S
H22 C21 0.959 . S
H23 C21 0.960 . S
H24 C21 0.961 . S
O25 Co0 1.967 . S
O25 C33 1.258 . S
O26 Co1 1.941 . S
O26 C33 1.266 . S
H27 C29 0.959 . S
H28 C29 0.961 1_565 S
C29 C19 1.510 . S
C29 H27 0.959 . S
C29 H28 0.961 1_545 S
C29 H30 0.960 . S
H30 C29 0.960 . S
H31 N11 0.862 . S
O32 Co0 1.920 . S
O32 C5 1.289 . S
C33 O25 1.258 . S
C33 O26 1.266 . S
Co34 O37 1.970 . S
Co34 N51 1.989 . S
Co34 O59 1.967 . S
Co34 O66 1.920 . S
Co35 O38 1.966 . S
Co35 N44 2.022 . S
Co35 N52 1.993 . S
Co35 O60 1.941 . S
C36 O37 1.258 . S
C36 O38 1.263 . S
O37 Co34 1.970 . S
O37 C36 1.258 . S
O38 Co35 1.966 . S
O38 C36 1.263 . S
C39 O40 1.235 . S
C39 O66 1.289 . S
O40 C39 1.235 . S
C41 C43 1.400 . S
C41 N44 1.351 . S
C41 C46 1.501 . S
C42 C43 1.387 . S
C42 N45 1.341 . S
C43 C41 1.400 . S
C43 C42 1.387 . S
N44 Co35 2.022 . S
N44 C41 1.351 . S
N44 N45 1.365 . S
N45 C42 1.341 . S
N45 N44 1.365 . S
N45 H65 0.862 . S
C46 C41 1.501 . S
C46 H47 0.961 . S
C46 H48 0.961 . S
C46 H49 0.960 . S
H47 C46 0.961 . S
H48 C46 0.961 . S
H49 C46 0.960 . S
C50 N51 1.342 . S
C50 C54 1.401 . S
C50 C55 1.499 . S
N51 Co34 1.989 . S
N51 C50 1.342 . S
N51 N52 1.388 . S
N52 Co35 1.993 . S
N52 N51 1.388 . S
N52 C53 1.346 . S
C53 N52 1.346 . S
C53 C54 1.396 . S
C53 C63 1.510 . S
C54 C50 1.401 . S
C54 C53 1.396 . S
C55 C50 1.499 . S
C55 H56 0.959 . S
C55 H57 0.960 . S
C55 H58 0.961 . S
H56 C55 0.959 . S
H57 C55 0.960 . S
H58 C55 0.961 . S
O59 Co34 1.967 . S
O59 C67 1.258 . S
O60 Co35 1.941 . S
O60 C67 1.266 . S
H61 C63 0.959 . S
H62 C63 0.961 . S
C63 C53 1.510 . S
C63 H61 0.959 . S
C63 H62 0.961 . S
C63 H64 0.960 . S
H64 C63 0.960 . S
H65 N45 0.862 . S
O66 Co34 1.920 . S
O66 C39 1.289 . S
C67 O59 1.258 . S
C67 O60 1.266 . S
Co68 O71 1.970 . S
Co68 N85 1.989 . S
Co68 O93 1.967 . S
Co68 O100 1.920 . S
Co69 O72 1.966 . S
Co69 N78 2.022 . S
Co69 N86 1.993 . S
Co69 O94 1.941 . S
C70 O71 1.258 . S
C70 O72 1.263 . S
O71 Co68 1.970 . S
O71 C70 1.258 . S
O72 Co69 1.966 . S
O72 C70 1.263 . S
C73 O74 1.235 . S
C73 O100 1.289 . S
O74 C73 1.235 . S
C75 C77 1.400 . S
C75 N78 1.351 . S
C75 C80 1.501 . S
C76 C77 1.387 . S
C76 N79 1.341 . S
C77 C75 1.400 . S
C77 C76 1.387 . S
N78 Co69 2.022 . S
N78 C75 1.351 . S
N78 N79 1.365 . S
N79 C76 1.341 . S
N79 N78 1.365 . S
N79 H99 0.862 . S
C80 C75 1.501 . S
C80 H81 0.961 . S
C80 H82 0.961 . S
C80 H83 0.960 . S
H81 C80 0.961 . S
H82 C80 0.961 . S
H83 C80 0.960 . S
C84 N85 1.342 1_655 S
C84 C88 1.401 . S
C84 C89 1.499 . S
N85 Co68 1.989 . S
N85 C84 1.342 1_455 S
N85 N86 1.388 . S
N86 Co69 1.993 . S
N86 N85 1.388 . S
N86 C87 1.346 1_455 S
C87 N86 1.346 1_655 S
C87 C88 1.396 . S
C87 C97 1.510 . S
C88 C84 1.401 . S
C88 C87 1.396 . S
C89 C84 1.499 . S
C89 H90 0.959 . S
C89 H91 0.960 . S
C89 H92 0.961 . S
H90 C89 0.959 . S
H91 C89 0.960 . S
H92 C89 0.961 . S
O93 Co68 1.967 . S
O93 C101 1.258 . S
O94 Co69 1.941 . S
O94 C101 1.266 . S
H95 C97 0.959 . S
H96 C97 0.961 . S
C97 C87 1.510 . S
C97 H95 0.959 . S
C97 H96 0.961 . S
C97 H98 0.960 . S
H98 C97 0.960 . S
H99 N79 0.862 . S
O100 Co68 1.920 . S
O100 C73 1.289 . S
C101 O93 1.258 . S
C101 O94 1.266 . S
Co102 O105 1.970 . S
Co102 N119 1.989 . S
Co102 O127 1.967 . S
Co102 O134 1.920 . S
Co103 O106 1.966 . S
Co103 N112 2.022 . S
Co103 N120 1.993 . S
Co103 O128 1.941 . S
C104 O105 1.258 . S
C104 O106 1.263 . S
O105 Co102 1.970 . S
O105 C104 1.258 . S
O106 Co103 1.966 . S
O106 C104 1.263 . S
C107 O108 1.235 1_455 S
C107 O134 1.289 . S
O108 C107 1.235 1_655 S
C109 C111 1.400 . S
C109 N112 1.351 . S
C109 C114 1.501 1_455 S
C110 C111 1.387 . S
C110 N113 1.341 . S
C111 C109 1.400 . S
C111 C110 1.387 . S
N112 Co103 2.022 . S
N112 C109 1.351 . S
N112 N113 1.365 . S
N113 C110 1.341 . S
N113 N112 1.365 . S
N113 H133 0.862 . S
C114 C109 1.501 1_655 S
C114 H115 0.961 . S
C114 H116 0.961 . S
C114 H117 0.960 . S
H115 C114 0.961 . S
H116 C114 0.961 . S
H117 C114 0.960 . S
C118 N119 1.342 1_565 S
C118 C122 1.401 . S
C118 C123 1.499 . S
N119 Co102 1.989 . S
N119 C118 1.342 1_545 S
N119 N120 1.388 . S
N120 Co103 1.993 . S
N120 N119 1.388 . S
N120 C121 1.346 1_545 S
C121 N120 1.346 1_565 S
C121 C122 1.396 . S
C121 C131 1.510 . S
C122 C118 1.401 . S
C122 C121 1.396 . S
C123 C118 1.499 . S
C123 H124 0.959 . S
C123 H125 0.960 . S
C123 H126 0.961 . S
H124 C123 0.959 . S
H125 C123 0.960 . S
H126 C123 0.961 . S
O127 Co102 1.967 . S
O127 C135 1.258 . S
O128 Co103 1.941 . S
O128 C135 1.266 . S
H129 C131 0.959 . S
H130 C131 0.961 1_655 S
C131 C121 1.510 . S
C131 H129 0.959 . S
C131 H130 0.961 1_455 S
C131 H132 0.960 . S
H132 C131 0.960 . S
H133 N113 0.862 . S
O134 Co102 1.920 . S
O134 C107 1.289 . S
C135 O127 1.258 . S
C135 O128 1.266 . S
Co136 O139 1.970 . S
Co136 N153 1.989 . S
Co136 O161 1.967 . S
Co136 O168 1.920 . S
Co137 O140 1.966 . S
Co137 N146 2.022 . S
Co137 N154 1.993 . S
Co137 O162 1.941 . S
C138 O139 1.258 . S
C138 O140 1.263 . S
O139 Co136 1.970 . S
O139 C138 1.258 . S
O140 Co137 1.966 . S
O140 C138 1.263 . S
C141 O142 1.235 . S
C141 O168 1.289 . S
O142 C141 1.235 . S
C143 C145 1.400 . S
C143 N146 1.351 . S
C143 C148 1.501 . S
C144 C145 1.387 . S
C144 N147 1.341 . S
C145 C143 1.400 . S
C145 C144 1.387 . S
N146 Co137 2.022 . S
N146 C143 1.351 . S
N146 N147 1.365 . S
N147 C144 1.341 . S
N147 N146 1.365 . S
N147 H167 0.862 . S
C148 C143 1.501 . S
C148 H149 0.961 . S
C148 H150 0.961 . S
C148 H151 0.960 . S
H149 C148 0.961 . S
H150 C148 0.961 . S
H151 C148 0.960 . S
C152 N153 1.342 . S
C152 C156 1.401 . S
C152 C157 1.499 . S
N153 Co136 1.989 . S
N153 C152 1.342 . S
N153 N154 1.388 . S
N154 Co137 1.993 . S
N154 N153 1.388 . S
N154 C155 1.346 . S
C155 N154 1.346 . S
C155 C156 1.396 . S
C155 C165 1.510 . S
C156 C152 1.401 . S
C156 C155 1.396 . S
C157 C152 1.499 . S
C157 H158 0.959 . S
C157 H159 0.960 . S
C157 H160 0.961 . S
H158 C157 0.959 . S
H159 C157 0.960 . S
H160 C157 0.961 . S
O161 Co136 1.967 . S
O161 C169 1.258 . S
O162 Co137 1.941 . S
O162 C169 1.266 . S
H163 C165 0.959 . S
H164 C165 0.961 . S
C165 C155 1.510 . S
C165 H163 0.959 . S
C165 H164 0.961 . S
C165 H166 0.960 . S
H166 C165 0.960 . S
H167 N147 0.862 . S
O168 Co136 1.920 . S
O168 C141 1.289 . S
C169 O161 1.258 . S
C169 O162 1.266 . S
Co170 O173 1.970 . S
Co170 N187 1.989 . S
Co170 O195 1.967 . S
Co170 O202 1.920 . S
Co171 O174 1.966 . S
Co171 N180 2.022 . S
Co171 N188 1.993 . S
Co171 O196 1.941 . S
C172 O173 1.258 . S
C172 O174 1.263 . S
O173 Co170 1.970 . S
O173 C172 1.258 . S
O174 Co171 1.966 . S
O174 C172 1.263 . S
C175 O176 1.235 1_455 S
C175 O202 1.289 . S
O176 C175 1.235 1_655 S
C177 C179 1.400 . S
C177 N180 1.351 . S
C177 C182 1.501 1_455 S
C178 C179 1.387 . S
C178 N181 1.341 . S
C179 C177 1.400 . S
C179 C178 1.387 . S
N180 Co171 2.022 . S
N180 C177 1.351 . S
N180 N181 1.365 . S
N181 C178 1.341 . S
N181 N180 1.365 . S
N181 H201 0.862 . S
C182 C177 1.501 1_655 S
C182 H183 0.961 . S
C182 H184 0.961 . S
C182 H185 0.960 . S
H183 C182 0.961 . S
H184 C182 0.961 . S
H185 C182 0.960 . S
C186 N187 1.342 . S
C186 C190 1.401 . S
C186 C191 1.499 . S
N187 Co170 1.989 . S
N187 C186 1.342 . S
N187 N188 1.388 . S
N188 Co171 1.993 . S
N188 N187 1.388 . S
N188 C189 1.346 . S
C189 N188 1.346 . S
C189 C190 1.396 . S
C189 C199 1.510 . S
C190 C186 1.401 . S
C190 C189 1.396 . S
C191 C186 1.499 . S
C191 H192 0.959 . S
C191 H193 0.960 . S
C191 H194 0.961 . S
H192 C191 0.959 . S
H193 C191 0.960 . S
H194 C191 0.961 . S
O195 Co170 1.967 . S
O195 C203 1.258 . S
O196 Co171 1.941 . S
O196 C203 1.266 . S
H197 C199 0.959 . S
H198 C199 0.961 1_655 S
C199 C189 1.510 . S
C199 H197 0.959 . S
C199 H198 0.961 1_455 S
C199 H200 0.960 . S
H200 C199 0.960 . S
H201 N181 0.862 . S
O202 Co170 1.920 . S
O202 C175 1.289 . S
C203 O195 1.258 . S
C203 O196 1.266 . S
Co204 O207 1.970 . S
Co204 N221 1.989 . S
Co204 O229 1.967 . S
Co204 O236 1.920 . S
Co205 O208 1.966 . S
Co205 N214 2.022 . S
Co205 N222 1.993 . S
Co205 O230 1.941 . S
C206 O207 1.258 . S
C206 O208 1.263 . S
O207 Co204 1.970 . S
O207 C206 1.258 . S
O208 Co205 1.966 . S
O208 C206 1.263 . S
C209 O210 1.235 1_545 S
C209 O236 1.289 . S
O210 C209 1.235 1_565 S
C211 C213 1.400 . S
C211 N214 1.351 . S
C211 C216 1.501 1_545 S
C212 C213 1.387 . S
C212 N215 1.341 . S
C213 C211 1.400 . S
C213 C212 1.387 . S
N214 Co205 2.022 . S
N214 C211 1.351 . S
N214 N215 1.365 . S
N215 C212 1.341 . S
N215 N214 1.365 . S
N215 H235 0.862 . S
C216 C211 1.501 1_565 S
C216 H217 0.961 . S
C216 H218 0.961 . S
C216 H219 0.960 . S
H217 C216 0.961 . S
H218 C216 0.961 . S
H219 C216 0.960 . S
C220 N221 1.342 1_655 S
C220 C224 1.401 . S
C220 C225 1.499 . S
N221 Co204 1.989 . S
N221 C220 1.342 1_455 S
N221 N222 1.388 . S
N222 Co205 1.993 . S
N222 N221 1.388 . S
N222 C223 1.346 1_455 S
C223 N222 1.346 1_655 S
C223 C224 1.396 . S
C223 C233 1.510 . S
C224 C220 1.401 . S
C224 C223 1.396 . S
C225 C220 1.499 . S
C225 H226 0.959 . S
C225 H227 0.960 . S
C225 H228 0.961 . S
H226 C225 0.959 . S
H227 C225 0.960 . S
H228 C225 0.961 . S
O229 Co204 1.967 . S
O229 C237 1.258 . S
O230 Co205 1.941 . S
O230 C237 1.266 . S
H231 C233 0.959 . S
H232 C233 0.961 1_565 S
C233 C223 1.510 . S
C233 H231 0.959 . S
C233 H232 0.961 1_545 S
C233 H234 0.960 . S
H234 C233 0.960 . S
H235 N215 0.862 . S
O236 Co204 1.920 . S
O236 C209 1.289 . S
C237 O229 1.258 . S
C237 O230 1.266 . S
Co238 O241 1.970 . S
Co238 N255 1.989 . S
Co238 O263 1.967 . S
Co238 O270 1.920 . S
Co239 O242 1.966 . S
Co239 N248 2.022 . S
Co239 N256 1.993 . S
Co239 O264 1.941 . S
C240 O241 1.258 . S
C240 O242 1.263 . S
O241 Co238 1.970 . S
O241 C240 1.258 . S
O242 Co239 1.966 . S
O242 C240 1.263 . S
C243 O244 1.235 . S
C243 O270 1.289 . S
O244 C243 1.235 . S
C245 C247 1.400 . S
C245 N248 1.351 . S
C245 C250 1.501 . S
C246 C247 1.387 . S
C246 N249 1.341 . S
C247 C245 1.400 . S
C247 C246 1.387 . S
N248 Co239 2.022 . S
N248 C245 1.351 . S
N248 N249 1.365 . S
N249 C246 1.341 . S
N249 N248 1.365 . S
N249 H269 0.862 . S
C250 C245 1.501 . S
C250 H251 0.961 . S
C250 H252 0.961 . S
C250 H253 0.960 . S
H251 C250 0.961 . S
H252 C250 0.961 . S
H253 C250 0.960 . S
C254 N255 1.342 1_565 S
C254 C258 1.401 . S
C254 C259 1.499 . S
N255 Co238 1.989 . S
N255 C254 1.342 1_545 S
N255 N256 1.388 . S
N256 Co239 1.993 . S
N256 N255 1.388 . S
N256 C257 1.346 1_545 S
C257 N256 1.346 1_565 S
C257 C258 1.396 . S
C257 C267 1.510 . S
C258 C254 1.401 . S
C258 C257 1.396 . S
C259 C254 1.499 . S
C259 H260 0.959 . S
C259 H261 0.960 . S
C259 H262 0.961 . S
H260 C259 0.959 . S
H261 C259 0.960 . S
H262 C259 0.961 . S
O263 Co238 1.967 . S
O263 C271 1.258 . S
O264 Co239 1.941 . S
O264 C271 1.266 . S
H265 C267 0.959 . S
H266 C267 0.961 . S
C267 C257 1.510 . S
C267 H265 0.959 . S
C267 H266 0.961 . S
C267 H268 0.960 . S
H268 C267 0.960 . S
H269 N249 0.862 . S
O270 Co238 1.920 . S
O270 C243 1.289 . S
C271 O263 1.258 . S
C271 O264 1.266 . S
Co272 O275 1.970 . S
Co272 N289 1.989 . S
Co272 O297 1.967 . S
Co272 O304 1.920 . S
Co273 O276 1.966 . S
Co273 N282 2.022 . S
Co273 N290 1.993 . S
Co273 O298 1.941 . S
C274 O275 1.258 . S
C274 O276 1.263 . S
O275 Co272 1.970 . S
O275 C274 1.258 . S
O276 Co273 1.966 . S
O276 C274 1.263 . S
C277 O278 1.235 1_565 S
C277 O304 1.289 . S
O278 C277 1.235 1_545 S
C279 C281 1.400 . S
C279 N282 1.351 . S
C279 C284 1.501 1_565 S
C280 C281 1.387 . S
C280 N283 1.341 . S
C281 C279 1.400 . S
C281 C280 1.387 . S
N282 Co273 2.022 . S
N282 C279 1.351 . S
N282 N283 1.365 . S
N283 C280 1.341 . S
N283 N282 1.365 . S
N283 H303 0.862 . S
C284 C279 1.501 1_545 S
C284 H285 0.961 . S
C284 H286 0.961 . S
C284 H287 0.960 . S
H285 C284 0.961 . S
H286 C284 0.961 . S
H287 C284 0.960 . S
C288 N289 1.342 . S
C288 C292 1.401 . S
C288 C293 1.499 . S
N289 Co272 1.989 . S
N289 C288 1.342 . S
N289 N290 1.388 . S
N290 Co273 1.993 . S
N290 N289 1.388 . S
N290 C291 1.346 . S
C291 N290 1.346 . S
C291 C292 1.396 . S
C291 C301 1.510 . S
C292 C288 1.401 . S
C292 C291 1.396 . S
C293 C288 1.499 . S
C293 H294 0.959 . S
C293 H295 0.960 . S
C293 H296 0.961 . S
H294 C293 0.959 . S
H295 C293 0.960 . S
H296 C293 0.961 . S
O297 Co272 1.967 . S
O297 C305 1.258 . S
O298 Co273 1.941 . S
O298 C305 1.266 . S
H299 C301 0.959 . S
H300 C301 0.961 1_545 S
C301 C291 1.510 . S
C301 H299 0.959 . S
C301 H300 0.961 1_565 S
C301 H302 0.960 . S
H302 C301 0.960 . S
H303 N283 0.862 . S
O304 Co272 1.920 . S
O304 C277 1.289 . S
C305 O297 1.258 . S
C305 O298 1.266 . S
Co306 O309 1.970 . S
Co306 N323 1.989 . S
Co306 O331 1.967 . S
Co306 O338 1.920 . S
Co307 O310 1.966 . S
Co307 N316 2.022 . S
Co307 N324 1.993 . S
Co307 O332 1.941 . S
C308 O309 1.258 . S
C308 O310 1.263 . S
O309 Co306 1.970 . S
O309 C308 1.258 . S
O310 Co307 1.966 . S
O310 C308 1.263 . S
C311 O312 1.235 . S
C311 O338 1.289 . S
O312 C311 1.235 . S
C313 C315 1.400 . S
C313 N316 1.351 . S
C313 C318 1.501 . S
C314 C315 1.387 . S
C314 N317 1.341 . S
C315 C313 1.400 . S
C315 C314 1.387 . S
N316 Co307 2.022 . S
N316 C313 1.351 . S
N316 N317 1.365 . S
N317 C314 1.341 . S
N317 N316 1.365 . S
N317 H337 0.862 . S
C318 C313 1.501 . S
C318 H319 0.961 . S
C318 H320 0.961 . S
C318 H321 0.960 . S
H319 C318 0.961 . S
H320 C318 0.961 . S
H321 C318 0.960 . S
C322 N323 1.342 . S
C322 C326 1.401 . S
C322 C327 1.499 . S
N323 Co306 1.989 . S
N323 C322 1.342 . S
N323 N324 1.388 . S
N324 Co307 1.993 . S
N324 N323 1.388 . S
N324 C325 1.346 . S
C325 N324 1.346 . S
C325 C326 1.396 . S
C325 C335 1.510 . S
C326 C322 1.401 . S
C326 C325 1.396 . S
C327 C322 1.499 . S
C327 H328 0.959 . S
C327 H329 0.960 . S
C327 H330 0.961 . S
H328 C327 0.959 . S
H329 C327 0.960 . S
H330 C327 0.961 . S
O331 Co306 1.967 . S
O331 C339 1.258 . S
O332 Co307 1.941 . S
O332 C339 1.266 . S
H333 C335 0.959 . S
H334 C335 0.961 . S
C335 C325 1.510 . S
C335 H333 0.959 . S
C335 H334 0.961 . S
C335 H336 0.960 . S
H336 C335 0.960 . S
H337 N317 0.862 . S
O338 Co306 1.920 . S
O338 C311 1.289 . S
C339 O331 1.258 . S
C339 O332 1.266 . S
Co340 O343 1.970 . S
Co340 N357 1.989 . S
Co340 O365 1.967 . S
Co340 O372 1.920 . S
Co341 O344 1.966 . S
Co341 N350 2.022 . S
Co341 N358 1.993 . S
Co341 O366 1.941 . S
C342 O343 1.258 . S
C342 O344 1.263 . S
O343 Co340 1.970 . S
O343 C342 1.258 . S
O344 Co341 1.966 . S
O344 C342 1.263 . S
C345 O346 1.235 . S
C345 O372 1.289 . S
O346 C345 1.235 . S
C347 C349 1.400 . S
C347 N350 1.351 . S
C347 C352 1.501 . S
C348 C349 1.387 . S
C348 N351 1.341 . S
C349 C347 1.400 . S
C349 C348 1.387 . S
N350 Co341 2.022 . S
N350 C347 1.351 . S
N350 N351 1.365 . S
N351 C348 1.341 . S
N351 N350 1.365 . S
N351 H371 0.862 . S
C352 C347 1.501 . S
C352 H353 0.961 . S
C352 H354 0.961 . S
C352 H355 0.960 . S
H353 C352 0.961 . S
H354 C352 0.961 . S
H355 C352 0.960 . S
C356 N357 1.342 1_455 S
C356 C360 1.401 . S
C356 C361 1.499 . S
N357 Co340 1.989 . S
N357 C356 1.342 1_655 S
N357 N358 1.388 . S
N358 Co341 1.993 . S
N358 N357 1.388 . S
N358 C359 1.346 1_655 S
C359 N358 1.346 1_455 S
C359 C360 1.396 . S
C359 C369 1.510 . S
C360 C356 1.401 . S
C360 C359 1.396 . S
C361 C356 1.499 . S
C361 H362 0.959 . S
C361 H363 0.960 . S
C361 H364 0.961 . S
H362 C361 0.959 . S
H363 C361 0.960 . S
H364 C361 0.961 . S
O365 Co340 1.967 . S
O365 C373 1.258 . S
O366 Co341 1.941 . S
O366 C373 1.266 . S
H367 C369 0.959 . S
H368 C369 0.961 . S
C369 C359 1.510 . S
C369 H367 0.959 . S
C369 H368 0.961 . S
C369 H370 0.960 . S
H370 C369 0.960 . S
H371 N351 0.862 . S
O372 Co340 1.920 . S
O372 C345 1.289 . S
C373 O365 1.258 . S
C373 O366 1.266 . S
Co374 O377 1.970 . S
Co374 N391 1.989 . S
Co374 O399 1.967 . S
Co374 O406 1.920 . S
Co375 O378 1.966 . S
Co375 N384 2.022 . S
Co375 N392 1.993 . S
Co375 O400 1.941 . S
C376 O377 1.258 . S
C376 O378 1.263 . S
O377 Co374 1.970 . S
O377 C376 1.258 . S
O378 Co375 1.966 . S
O378 C376 1.263 . S
C379 O380 1.235 1_655 S
C379 O406 1.289 . S
O380 C379 1.235 1_455 S
C381 C383 1.400 . S
C381 N384 1.351 . S
C381 C386 1.501 1_655 S
C382 C383 1.387 . S
C382 N385 1.341 . S
C383 C381 1.400 . S
C383 C382 1.387 . S
N384 Co375 2.022 . S
N384 C381 1.351 . S
N384 N385 1.365 . S
N385 C382 1.341 . S
N385 N384 1.365 . S
N385 H405 0.862 . S
C386 C381 1.501 1_455 S
C386 H387 0.961 . S
C386 H388 0.961 . S
C386 H389 0.960 . S
H387 C386 0.961 . S
H388 C386 0.961 . S
H389 C386 0.960 . S
C390 N391 1.342 1_545 S
C390 C394 1.401 . S
C390 C395 1.499 . S
N391 Co374 1.989 . S
N391 C390 1.342 1_565 S
N391 N392 1.388 . S
N392 Co375 1.993 . S
N392 N391 1.388 . S
N392 C393 1.346 1_565 S
C393 N392 1.346 1_545 S
C393 C394 1.396 . S
C393 C403 1.510 . S
C394 C390 1.401 . S
C394 C393 1.396 . S
C395 C390 1.499 . S
C395 H396 0.959 . S
C395 H397 0.960 . S
C395 H398 0.961 . S
H396 C395 0.959 . S
H397 C395 0.960 . S
H398 C395 0.961 . S
O399 Co374 1.967 . S
O399 C407 1.258 . S
O400 Co375 1.941 . S
O400 C407 1.266 . S
H401 C403 0.959 . S
H402 C403 0.961 1_455 S
C403 C393 1.510 . S
C403 H401 0.959 . S
C403 H402 0.961 1_655 S
C403 H404 0.960 . S
H404 C403 0.960 . S
H405 N385 0.862 . S
O406 Co374 1.920 . S
O406 C379 1.289 . S
C407 O399 1.258 . S
C407 O400 1.266 . S
Co408 O411 1.970 . S
Co408 N425 1.989 . S
Co408 O433 1.967 . S
Co408 O440 1.920 . S
Co409 O412 1.966 . S
Co409 N418 2.022 . S
Co409 N426 1.993 . S
Co409 O434 1.941 . S
C410 O411 1.258 . S
C410 O412 1.263 . S
O411 Co408 1.970 . S
O411 C410 1.258 . S
O412 Co409 1.966 . S
O412 C410 1.263 . S
C413 O414 1.235 . S
C413 O440 1.289 . S
O414 C413 1.235 . S
C415 C417 1.400 . S
C415 N418 1.351 . S
C415 C420 1.501 . S
C416 C417 1.387 . S
C416 N419 1.341 . S
C417 C415 1.400 . S
C417 C416 1.387 . S
N418 Co409 2.022 . S
N418 C415 1.351 . S
N418 N419 1.365 . S
N419 C416 1.341 . S
N419 N418 1.365 . S
N419 H439 0.862 . S
C420 C415 1.501 . S
C420 H421 0.961 . S
C420 H422 0.961 . S
C420 H423 0.960 . S
H421 C420 0.961 . S
H422 C420 0.961 . S
H423 C420 0.960 . S
C424 N425 1.342 . S
C424 C428 1.401 . S
C424 C429 1.499 . S
N425 Co408 1.989 . S
N425 C424 1.342 . S
N425 N426 1.388 . S
N426 Co409 1.993 . S
N426 N425 1.388 . S
N426 C427 1.346 . S
C427 N426 1.346 . S
C427 C428 1.396 . S
C427 C437 1.510 . S
C428 C424 1.401 . S
C428 C427 1.396 . S
C429 C424 1.499 . S
C429 H430 0.959 . S
C429 H431 0.960 . S
C429 H432 0.961 . S
H430 C429 0.959 . S
H431 C429 0.960 . S
H432 C429 0.961 . S
O433 Co408 1.967 . S
O433 C441 1.258 . S
O434 Co409 1.941 . S
O434 C441 1.266 . S
H435 C437 0.959 . S
H436 C437 0.961 . S
C437 C427 1.510 . S
C437 H435 0.959 . S
C437 H436 0.961 . S
C437 H438 0.960 . S
H438 C437 0.960 . S
H439 N419 0.862 . S
O440 Co408 1.920 . S
O440 C413 1.289 . S
C441 O433 1.258 . S
C441 O434 1.266 . S
Co442 O445 1.970 . S
Co442 N459 1.989 . S
Co442 O467 1.967 . S
Co442 O474 1.920 . S
Co443 O446 1.966 . S
Co443 N452 2.022 . S
Co443 N460 1.993 . S
Co443 O468 1.941 . S
C444 O445 1.258 . S
C444 O446 1.263 . S
O445 Co442 1.970 . S
O445 C444 1.258 . S
O446 Co443 1.966 . S
O446 C444 1.263 . S
C447 O448 1.235 1_655 S
C447 O474 1.289 . S
O448 C447 1.235 1_455 S
C449 C451 1.400 . S
C449 N452 1.351 . S
C449 C454 1.501 1_655 S
C450 C451 1.387 . S
C450 N453 1.341 . S
C451 C449 1.400 . S
C451 C450 1.387 . S
N452 Co443 2.022 . S
N452 C449 1.351 . S
N452 N453 1.365 . S
N453 C450 1.341 . S
N453 N452 1.365 . S
N453 H473 0.862 . S
C454 C449 1.501 1_455 S
C454 H455 0.961 . S
C454 H456 0.961 . S
C454 H457 0.960 . S
H455 C454 0.961 . S
H456 C454 0.961 . S
H457 C454 0.960 . S
C458 N459 1.342 . S
C458 C462 1.401 . S
C458 C463 1.499 . S
N459 Co442 1.989 . S
N459 C458 1.342 . S
N459 N460 1.388 . S
N460 Co443 1.993 . S
N460 N459 1.388 . S
N460 C461 1.346 . S
C461 N460 1.346 . S
C461 C462 1.396 . S
C461 C471 1.510 . S
C462 C458 1.401 . S
C462 C461 1.396 . S
C463 C458 1.499 . S
C463 H464 0.959 . S
C463 H465 0.960 . S
C463 H466 0.961 . S
H464 C463 0.959 . S
H465 C463 0.960 . S
H466 C463 0.961 . S
O467 Co442 1.967 . S
O467 C475 1.258 . S
O468 Co443 1.941 . S
O468 C475 1.266 . S
H469 C471 0.959 . S
H470 C471 0.961 1_455 S
C471 C461 1.510 . S
C471 H469 0.959 . S
C471 H470 0.961 1_655 S
C471 H472 0.960 . S
H472 C471 0.960 . S
H473 N453 0.862 . S
O474 Co442 1.920 . S
O474 C447 1.289 . S
C475 O467 1.258 . S
C475 O468 1.266 . S
Co476 O479 1.970 . S
Co476 N493 1.989 . S
Co476 O501 1.967 . S
Co476 O508 1.920 . S
Co477 O480 1.966 . S
Co477 N486 2.022 . S
Co477 N494 1.993 . S
Co477 O502 1.941 . S
C478 O479 1.258 . S
C478 O480 1.263 . S
O479 Co476 1.970 . S
O479 C478 1.258 . S
O480 Co477 1.966 . S
O480 C478 1.263 . S
C481 O482 1.235 1_565 S
C481 O508 1.289 . S
O482 C481 1.235 1_545 S
C483 C485 1.400 . S
C483 N486 1.351 . S
C483 C488 1.501 1_565 S
C484 C485 1.387 . S
C484 N487 1.341 . S
C485 C483 1.400 . S
C485 C484 1.387 . S
N486 Co477 2.022 . S
N486 C483 1.351 . S
N486 N487 1.365 . S
N487 C484 1.341 . S
N487 N486 1.365 . S
N487 H507 0.862 . S
C488 C483 1.501 1_545 S
C488 H489 0.961 . S
C488 H490 0.961 . S
C488 H491 0.960 . S
H489 C488 0.961 . S
H490 C488 0.961 . S
H491 C488 0.960 . S
C492 N493 1.342 1_455 S
C492 C496 1.401 . S
C492 C497 1.499 . S
N493 Co476 1.989 . S
N493 C492 1.342 1_655 S
N493 N494 1.388 . S
N494 Co477 1.993 . S
N494 N493 1.388 . S
N494 C495 1.346 1_655 S
C495 N494 1.346 1_455 S
C495 C496 1.396 . S
C495 C505 1.510 . S
C496 C492 1.401 . S
C496 C495 1.396 . S
C497 C492 1.499 . S
C497 H498 0.959 . S
C497 H499 0.960 . S
C497 H500 0.961 . S
H498 C497 0.959 . S
H499 C497 0.960 . S
H500 C497 0.961 . S
O501 Co476 1.967 . S
O501 C509 1.258 . S
O502 Co477 1.941 . S
O502 C509 1.266 . S
H503 C505 0.959 . S
H504 C505 0.961 1_545 S
C505 C495 1.510 . S
C505 H503 0.959 . S
C505 H504 0.961 1_565 S
C505 H506 0.960 . S
H506 C505 0.960 . S
H507 N487 0.862 . S
O508 Co476 1.920 . S
O508 C481 1.289 . S
C509 O501 1.258 . S
C509 O502 1.266 . S
Co510 O513 1.970 . S
Co510 N527 1.989 . S
Co510 O535 1.967 . S
Co510 O542 1.920 . S
Co511 O514 1.966 . S
Co511 N520 2.022 . S
Co511 N528 1.993 . S
Co511 O536 1.941 . S
C512 O513 1.258 . S
C512 O514 1.263 . S
O513 Co510 1.970 . S
O513 C512 1.258 . S
O514 Co511 1.966 . S
O514 C512 1.263 . S
C515 O516 1.235 . S
C515 O542 1.289 . S
O516 C515 1.235 . S
C517 C519 1.400 . S
C517 N520 1.351 . S
C517 C522 1.501 . S
C518 C519 1.387 . S
C518 N521 1.341 . S
C519 C517 1.400 . S
C519 C518 1.387 . S
N520 Co511 2.022 . S
N520 C517 1.351 . S
N520 N521 1.365 . S
N521 C518 1.341 . S
N521 N520 1.365 . S
N521 H541 0.862 . S
C522 C517 1.501 . S
C522 H523 0.961 . S
C522 H524 0.961 . S
C522 H525 0.960 . S
H523 C522 0.961 . S
H524 C522 0.961 . S
H525 C522 0.960 . S
C526 N527 1.342 1_545 S
C526 C530 1.401 . S
C526 C531 1.499 . S
N527 Co510 1.989 . S
N527 C526 1.342 1_565 S
N527 N528 1.388 . S
N528 Co511 1.993 . S
N528 N527 1.388 . S
N528 C529 1.346 1_565 S
C529 N528 1.346 1_545 S
C529 C530 1.396 . S
C529 C539 1.510 . S
C530 C526 1.401 . S
C530 C529 1.396 . S
C531 C526 1.499 . S
C531 H532 0.959 . S
C531 H533 0.960 . S
C531 H534 0.961 . S
H532 C531 0.959 . S
H533 C531 0.960 . S
H534 C531 0.961 . S
O535 Co510 1.967 . S
O535 C543 1.258 . S
O536 Co511 1.941 . S
O536 C543 1.266 . S
H537 C539 0.959 . S
H538 C539 0.961 . S
C539 C529 1.510 . S
C539 H537 0.959 . S
C539 H538 0.961 . S
C539 H540 0.960 . S
H540 C539 0.960 . S
H541 N521 0.862 . S
O542 Co510 1.920 . S
O542 C515 1.289 . S
C543 O535 1.258 . S
C543 O536 1.266 . S
C544 C545 1.363 . S
C544 C550 1.379 . S
C544 N552 1.356 1_545 S
C545 C544 1.363 . S
C545 C551 1.363 . S
C546 C547 1.363 . S
C546 C551 1.379 . S
C546 N553 1.356 . S
C547 C546 1.363 . S
C547 C550 1.363 . S
N548 C550 1.356 . S
N548 H560 0.984 1_545 S
N548 H561 0.985 . S
N549 C551 1.356 . S
N549 H554 0.984 . S
N549 H555 0.985 . S
C550 C544 1.379 . S
C550 C547 1.363 . S
C550 N548 1.356 . S
C551 C545 1.363 . S
C551 C546 1.379 . S
C551 N549 1.356 . S
N552 C544 1.356 1_565 S
N552 H558 0.984 . S
N552 H559 0.984 . S
N553 C546 1.356 . S
N553 H556 0.984 . S
N553 H557 0.985 . S
H554 N549 0.984 . S
H555 N549 0.985 . S
H556 N553 0.984 . S
H557 N553 0.985 . S
H558 N552 0.984 . S
H559 N552 0.984 . S
H560 N548 0.984 1_565 S
H561 N548 0.985 . S
C562 C563 1.363 . S
C562 C568 1.379 . S
C562 N570 1.356 . S
C563 C562 1.363 . S
C563 C569 1.363 . S
C564 C565 1.363 . S
C564 C569 1.379 . S
C564 N571 1.356 . S
C565 C564 1.363 . S
C565 C568 1.363 . S
N566 C568 1.356 . S
N566 H578 0.984 . S
N566 H579 0.985 . S
N567 C569 1.356 . S
N567 H572 0.984 . S
N567 H573 0.985 . S
C568 C562 1.379 . S
C568 C565 1.363 . S
C568 N566 1.356 . S
C569 C563 1.363 . S
C569 C564 1.379 . S
C569 N567 1.356 . S
N570 C562 1.356 . S
N570 H576 0.984 . S
N570 H577 0.984 . S
N571 C564 1.356 . S
N571 H574 0.984 . S
N571 H575 0.985 . S
H572 N567 0.984 . S
H573 N567 0.985 . S
H574 N571 0.984 . S
H575 N571 0.985 . S
H576 N570 0.984 . S
H577 N570 0.984 . S
H578 N566 0.984 . S
H579 N566 0.985 . S
C580 C581 1.363 . S
C580 C586 1.379 . S
C580 N588 1.356 1_455 S
C581 C580 1.363 . S
C581 C587 1.363 . S
C582 C583 1.363 . S
C582 C587 1.379 . S
C582 N589 1.356 . S
C583 C582 1.363 . S
C583 C586 1.363 . S
N584 C586 1.356 1_655 S
N584 H596 0.984 . S
N584 H597 0.985 1_655 S
N585 C587 1.356 . S
N585 H590 0.984 . S
N585 H591 0.985 . S
C586 C580 1.379 . S
C586 C583 1.363 . S
C586 N584 1.356 1_455 S
C587 C581 1.363 . S
C587 C582 1.379 . S
C587 N585 1.356 . S
N588 C580 1.356 1_655 S
N588 H594 0.984 . S
N588 H595 0.984 . S
N589 C582 1.356 . S
N589 H592 0.984 . S
N589 H593 0.985 . S
H590 N585 0.984 . S
H591 N585 0.985 . S
H592 N589 0.984 . S
H593 N589 0.985 . S
H594 N588 0.984 . S
H595 N588 0.984 . S
H596 N584 0.984 . S
H597 N584 0.985 1_455 S
C598 C599 1.363 . S
C598 C604 1.379 . S
C598 N606 1.356 1_545 S
C599 C598 1.363 . S
C599 C605 1.363 . S
C600 C601 1.363 . S
C600 C605 1.379 . S
C600 N607 1.356 . S
C601 C600 1.363 . S
C601 C604 1.363 . S
N602 C604 1.356 . S
N602 H614 0.984 1_545 S
N602 H615 0.985 . S
N603 C605 1.356 . S
N603 H608 0.984 . S
N603 H609 0.985 1_455 S
C604 C598 1.379 . S
C604 C601 1.363 . S
C604 N602 1.356 . S
C605 C599 1.363 . S
C605 C600 1.379 . S
C605 N603 1.356 . S
N606 C598 1.356 1_565 S
N606 H612 0.984 . S
N606 H613 0.984 . S
N607 C600 1.356 . S
N607 H610 0.984 . S
N607 H611 0.985 1_455 S
H608 N603 0.984 . S
H609 N603 0.985 1_655 S
H610 N607 0.984 . S
H611 N607 0.985 1_655 S
H612 N606 0.984 . S
H613 N606 0.984 . S
H614 N602 0.984 1_565 S
H615 N602 0.985 . S
C616 C617 1.363 . S
C616 C622 1.379 . S
C616 N624 1.356 . S
C617 C616 1.363 . S
C617 C623 1.363 . S
C618 C619 1.363 . S
C618 C623 1.379 . S
C618 N625 1.356 . S
C619 C618 1.363 . S
C619 C622 1.363 . S
N620 C622 1.356 . S
N620 H632 0.984 . S
N620 H633 0.985 . S
N621 C623 1.356 1_545 S
N621 H626 0.984 . S
N621 H627 0.985 . S
C622 C616 1.379 . S
C622 C619 1.363 . S
C622 N620 1.356 . S
C623 C617 1.363 . S
C623 C618 1.379 . S
C623 N621 1.356 1_565 S
N624 C616 1.356 . S
N624 H630 0.984 . S
N624 H631 0.984 . S
N625 C618 1.356 . S
N625 H628 0.984 . S
N625 H629 0.985 1_565 S
H626 N621 0.984 . S
H627 N621 0.985 . S
H628 N625 0.984 . S
H629 N625 0.985 1_545 S
H630 N624 0.984 . S
H631 N624 0.984 . S
H632 N620 0.984 . S
H633 N620 0.985 . S
C634 C635 1.363 . S
C634 C640 1.379 . S
C634 N642 1.356 . S
C635 C634 1.363 . S
C635 C641 1.363 . S
C636 C637 1.363 . S
C636 C641 1.379 . S
C636 N643 1.356 . S
C637 C636 1.363 . S
C637 C640 1.363 . S
N638 C640 1.356 . S
N638 H650 0.984 . S
N638 H651 0.985 . S
N639 C641 1.356 . S
N639 H644 0.984 . S
N639 H645 0.985 . S
C640 C634 1.379 . S
C640 C637 1.363 . S
C640 N638 1.356 . S
C641 C635 1.363 . S
C641 C636 1.379 . S
C641 N639 1.356 . S
N642 C634 1.356 . S
N642 H648 0.984 . S
N642 H649 0.984 . S
N643 C636 1.356 . S
N643 H646 0.984 . S
N643 H647 0.985 . S
H644 N639 0.984 . S
H645 N639 0.985 . S
H646 N643 0.984 . S
H647 N643 0.985 . S
H648 N642 0.984 . S
H649 N642 0.984 . S
H650 N638 0.984 . S
H651 N638 0.985 . S
C652 C653 1.363 . S
C652 C658 1.379 . S
C652 N660 1.356 . S
C653 C652 1.363 . S
C653 C659 1.363 . S
C654 C655 1.363 . S
C654 C659 1.379 . S
C654 N661 1.356 . S
C655 C654 1.363 . S
C655 C658 1.363 . S
N656 C658 1.356 . S
N656 H668 0.984 . S
N656 H669 0.985 . S
N657 C659 1.356 . S
N657 H662 0.984 . S
N657 H663 0.985 . S
C658 C652 1.379 . S
C658 C655 1.363 . S
C658 N656 1.356 . S
C659 C653 1.363 . S
C659 C654 1.379 . S
C659 N657 1.356 . S
N660 C652 1.356 . S
N660 H666 0.984 1_655 S
N660 H667 0.984 . S
N661 C654 1.356 . S
N661 H664 0.984 . S
N661 H665 0.985 . S
H662 N657 0.984 . S
H663 N657 0.985 . S
H664 N661 0.984 . S
H665 N661 0.985 . S
H666 N660 0.984 1_455 S
H667 N660 0.984 . S
H668 N656 0.984 . S
H669 N656 0.985 . S
C670 C671 1.363 . S
C670 C676 1.379 . S
C670 N678 1.356 . S
C671 C670 1.363 . S
C671 C677 1.363 . S
C672 C673 1.363 . S
C672 C677 1.379 . S
C672 N679 1.356 . S
C673 C672 1.363 . S
C673 C676 1.363 . S
N674 C676 1.356 1_545 S
N674 H686 0.984 . S
N674 H687 0.985 . S
N675 C677 1.356 . S
N675 H680 0.984 . S
N675 H681 0.985 1_655 S
C676 C670 1.379 . S
C676 C673 1.363 . S
C676 N674 1.356 1_565 S
C677 C671 1.363 . S
C677 C672 1.379 . S
C677 N675 1.356 . S
N678 C670 1.356 . S
N678 H684 0.984 1_565 S
N678 H685 0.984 . S
N679 C672 1.356 . S
N679 H682 0.984 . S
N679 H683 0.985 . S
H680 N675 0.984 . S
H681 N675 0.985 1_455 S
H682 N679 0.984 . S
H683 N679 0.985 . S
H684 N678 0.984 1_545 S
H685 N678 0.984 . S
H686 N674 0.984 . S
H687 N674 0.985 . S
C688 C689 1.363 . S
C688 C694 1.379 1_554 S
C688 N696 1.356 . S
C689 C688 1.363 . S
C689 C695 1.363 1_545 S
C690 C691 1.363 . S
C690 C695 1.379 1_556 S
C690 N697 1.356 . S
C691 C690 1.363 . S
C691 C694 1.363 1_565 S
N692 C694 1.356 . S
N692 H704 0.984 . S
N692 H705 0.985 . S
N693 C695 1.356 . S
N693 H698 0.984 . S
N693 H699 0.985 . S
C694 C688 1.379 1_556 S
C694 C691 1.363 1_545 S
C694 N692 1.356 . S
C695 C689 1.363 1_565 S
C695 C690 1.379 1_554 S
C695 N693 1.356 . S
N696 C688 1.356 . S
N696 H702 0.984 . S
N696 H703 0.984 . S
N697 C690 1.356 . S
N697 H700 0.984 . S
N697 H701 0.985 . S
H698 N693 0.984 . S
H699 N693 0.985 . S
H700 N697 0.984 . S
H701 N697 0.985 . S
H702 N696 0.984 . S
H703 N696 0.984 . S
H704 N692 0.984 . S
H705 N692 0.985 . S
C706 C707 1.363 . S
C706 C712 1.379 . S
C706 N714 1.356 . S
C707 C706 1.363 . S
C707 C713 1.363 . S
C708 C709 1.363 . S
C708 C713 1.379 . S
C708 N715 1.356 . S
C709 C708 1.363 . S
C709 C712 1.363 . S
N710 C712 1.356 . S
N710 H722 0.984 . S
N710 H723 0.985 . S
N711 C713 1.356 . S
N711 H716 0.984 . S
N711 H717 0.985 . S
C712 C706 1.379 . S
C712 C709 1.363 . S
C712 N710 1.356 . S
C713 C707 1.363 . S
C713 C708 1.379 . S
C713 N711 1.356 . S
N714 C706 1.356 . S
N714 H720 0.984 . S
N714 H721 0.984 . S
N715 C708 1.356 . S
N715 H718 0.984 . S
N715 H719 0.985 . S
H716 N711 0.984 . S
H717 N711 0.985 . S
H718 N715 0.984 . S
H719 N715 0.985 . S
H720 N714 0.984 . S
H721 N714 0.984 . S
H722 N710 0.984 . S
H723 N710 0.985 . S
C724 C725 1.363 . S
C724 C730 1.379 1_556 S
C724 N732 1.356 . S
C725 C724 1.363 . S
C725 C731 1.363 1_655 S
C726 C727 1.363 . S
C726 C731 1.379 1_554 S
C726 N733 1.356 . S
C727 C726 1.363 . S
C727 C730 1.363 1_455 S
N728 C730 1.356 . S
N728 H740 0.984 . S
N728 H741 0.985 1_655 S
N729 C731 1.356 . S
N729 H734 0.984 1_455 S
N729 H735 0.985 . S
C730 C724 1.379 1_554 S
C730 C727 1.363 1_655 S
C730 N728 1.356 . S
C731 C725 1.363 1_455 S
C731 C726 1.379 1_556 S
C731 N729 1.356 . S
N732 C724 1.356 . S
N732 H738 0.984 . S
N732 H739 0.984 . S
N733 C726 1.356 . S
N733 H736 0.984 . S
N733 H737 0.985 . S
H734 N729 0.984 1_655 S
H735 N729 0.985 . S
H736 N733 0.984 . S
H737 N733 0.985 . S
H738 N732 0.984 . S
H739 N732 0.984 . S
H740 N728 0.984 . S
H741 N728 0.985 1_455 S
C742 C743 1.363 1_565 S
C742 C748 1.379 . S
C742 N750 1.356 . S
C743 C742 1.363 1_545 S
C743 C749 1.363 1_455 S
C744 C745 1.363 1_545 S
C744 C749 1.379 . S
C744 N751 1.356 . S
C745 C744 1.363 1_565 S
C745 C748 1.363 1_655 S
N746 C748 1.356 . S
N746 H758 0.984 . S
N746 H759 0.985 . S
N747 C749 1.356 . S
N747 H752 0.984 . S
N747 H753 0.985 . S
C748 C742 1.379 . S
C748 C745 1.363 1_455 S
C748 N746 1.356 . S
C749 C743 1.363 1_655 S
C749 C744 1.379 . S
C749 N747 1.356 . S
N750 C742 1.356 . S
N750 H756 0.984 . S
N750 H757 0.984 . S
N751 C744 1.356 . S
N751 H754 0.984 . S
N751 H755 0.985 . S
H752 N747 0.984 . S
H753 N747 0.985 . S
H754 N751 0.984 . S
H755 N751 0.985 . S
H756 N750 0.984 . S
H757 N750 0.984 . S
H758 N746 0.984 . S
H759 N746 0.985 . S
C760 C761 1.363 . S
C760 C766 1.379 1_554 S
C760 N768 1.356 . S
C761 C760 1.363 . S
C761 C767 1.363 . S
C762 C763 1.363 . S
C762 C767 1.379 1_556 S
C762 N769 1.356 . S
C763 C762 1.363 . S
C763 C766 1.363 . S
N764 C766 1.356 . S
N764 H776 0.984 . S
N764 H777 0.985 . S
N765 C767 1.356 . S
N765 H770 0.984 . S
N765 H771 0.985 . S
C766 C760 1.379 1_556 S
C766 C763 1.363 . S
C766 N764 1.356 . S
C767 C761 1.363 . S
C767 C762 1.379 1_554 S
C767 N765 1.356 . S
N768 C760 1.356 . S
N768 H774 0.984 . S
N768 H775 0.984 . S
N769 C762 1.356 . S
N769 H772 0.984 . S
N769 H773 0.985 . S
H770 N765 0.984 . S
H771 N765 0.985 . S
H772 N769 0.984 . S
H773 N769 0.985 . S
H774 N768 0.984 . S
H775 N768 0.984 . S
H776 N764 0.984 . S
H777 N764 0.985 . S
C778 C779 1.363 . S
C778 C784 1.379 . S
C778 N786 1.356 . S
C779 C778 1.363 . S
C779 C785 1.363 1_655 S
C780 C781 1.363 . S
C780 C785 1.379 . S
C780 N787 1.356 . S
C781 C780 1.363 . S
C781 C784 1.363 1_455 S
N782 C784 1.356 . S
N782 H794 0.984 . S
N782 H795 0.985 . S
N783 C785 1.356 . S
N783 H788 0.984 . S
N783 H789 0.985 . S
C784 C778 1.379 . S
C784 C781 1.363 1_655 S
C784 N782 1.356 . S
C785 C779 1.363 1_455 S
C785 C780 1.379 . S
C785 N783 1.356 . S
N786 C778 1.356 . S
N786 H792 0.984 . S
N786 H793 0.984 . S
N787 C780 1.356 . S
N787 H790 0.984 . S
N787 H791 0.985 . S
H788 N783 0.984 . S
H789 N783 0.985 . S
H790 N787 0.984 . S
H791 N787 0.985 . S
H792 N786 0.984 . S
H793 N786 0.984 . S
H794 N782 0.984 . S
H795 N782 0.985 . S
C796 C797 1.363 . S
C796 C802 1.379 1_556 S
C796 N804 1.356 . S
C797 C796 1.363 . S
C797 C803 1.363 1_445 S
C798 C799 1.363 . S
C798 C803 1.379 1_554 S
C798 N805 1.356 . S
C799 C798 1.363 . S
C799 C802 1.363 1_665 S
N800 C802 1.356 . S
N800 H812 0.984 . S
N800 H813 0.985 1_455 S
N801 C803 1.356 . S
N801 H806 0.984 1_655 S
N801 H807 0.985 . S
C802 C796 1.379 1_554 S
C802 C799 1.363 1_445 S
C802 N800 1.356 . S
C803 C797 1.363 1_665 S
C803 C798 1.379 1_556 S
C803 N801 1.356 . S
N804 C796 1.356 . S
N804 H810 0.984 . S
N804 H811 0.984 . S
N805 C798 1.356 . S
N805 H808 0.984 . S
N805 H809 0.985 . S
H806 N801 0.984 1_455 S
H807 N801 0.985 . S
H808 N805 0.984 . S
H809 N805 0.985 . S
H810 N804 0.984 . S
H811 N804 0.984 . S
H812 N800 0.984 . S
H813 N800 0.985 1_655 S
C814 C815 1.363 . S
C814 C820 1.379 . S
C814 N822 1.356 . S
C815 C814 1.363 . S
C815 C821 1.363 1_565 S
C816 C817 1.363 . S
C816 C821 1.379 . S
C816 N823 1.356 . S
C817 C816 1.363 . S
C817 C820 1.363 1_545 S
N818 C820 1.356 . S
N818 H830 0.984 . S
N818 H831 0.985 . S
N819 C821 1.356 . S
N819 H824 0.984 . S
N819 H825 0.985 . S
C820 C814 1.379 . S
C820 C817 1.363 1_565 S
C820 N818 1.356 . S
C821 C815 1.363 1_545 S
C821 C816 1.379 . S
C821 N819 1.356 . S
N822 C814 1.356 . S
N822 H828 0.984 . S
N822 H829 0.984 . S
N823 C816 1.356 . S
N823 H826 0.984 . S
N823 H827 0.985 . S
H824 N819 0.984 . S
H825 N819 0.985 . S
H826 N823 0.984 . S
H827 N823 0.985 . S
H828 N822 0.984 . S
H829 N822 0.984 . S
H830 N818 0.984 . S
H831 N818 0.985 . S
C832 C833 1.363 . S
C832 C838 1.379 . S
C832 N840 1.356 . S
C833 C832 1.363 . S
C833 C839 1.363 1_545 S
C834 C835 1.363 1_565 S
C834 C839 1.379 . S
C834 N841 1.356 . S
C835 C834 1.363 1_545 S
C835 C838 1.363 . S
N836 C838 1.356 . S
N836 H848 0.984 . S
N836 H849 0.985 . S
N837 C839 1.356 . S
N837 H842 0.984 . S
N837 H843 0.985 . S
C838 C832 1.379 . S
C838 C835 1.363 . S
C838 N836 1.356 . S
C839 C833 1.363 1_565 S
C839 C834 1.379 . S
C839 N837 1.356 . S
N840 C832 1.356 . S
N840 H846 0.984 . S
N840 H847 0.984 . S
N841 C834 1.356 . S
N841 H844 0.984 . S
N841 H845 0.985 . S
H842 N837 0.984 . S
H843 N837 0.985 . S
H844 N841 0.984 . S
H845 N841 0.985 . S
H846 N840 0.984 . S
H847 N840 0.984 . S
H848 N836 0.984 . S
H849 N836 0.985 . S
C850 C851 1.363 . S
C850 C856 1.379 . S
C850 N858 1.356 . S
C851 C850 1.363 . S
C851 C857 1.363 . S
C852 C853 1.363 . S
C852 C857 1.379 . S
C852 N859 1.356 . S
C853 C852 1.363 . S
C853 C856 1.363 . S
N854 C856 1.356 . S
N854 H866 0.984 . S
N854 H867 0.985 . S
N855 C857 1.356 . S
N855 H860 0.984 . S
N855 H861 0.985 . S
C856 C850 1.379 . S
C856 C853 1.363 . S
C856 N854 1.356 . S
C857 C851 1.363 . S
C857 C852 1.379 . S
C857 N855 1.356 . S
N858 C850 1.356 . S
N858 H864 0.984 . S
N858 H865 0.984 . S
N859 C852 1.356 . S
N859 H862 0.984 . S
N859 H863 0.985 . S
H860 N855 0.984 . S
H861 N855 0.985 . S
H862 N859 0.984 . S
H863 N859 0.985 . S
H864 N858 0.984 . S
H865 N858 0.984 . S
H866 N854 0.984 . S
H867 N854 0.985 . S
C868 C869 1.363 . S
C868 C874 1.379 . S
C868 N876 1.356 . S
C869 C868 1.363 . S
C869 C875 1.363 . S
C870 C871 1.363 . S
C870 C875 1.379 . S
C870 N877 1.356 . S
C871 C870 1.363 . S
C871 C874 1.363 . S
N872 C874 1.356 . S
N872 H884 0.984 . S
N872 H885 0.985 . S
N873 C875 1.356 . S
N873 H878 0.984 . S
N873 H879 0.985 . S
C874 C868 1.379 . S
C874 C871 1.363 . S
C874 N872 1.356 . S
C875 C869 1.363 . S
C875 C870 1.379 . S
C875 N873 1.356 . S
N876 C868 1.356 . S
N876 H882 0.984 . S
N876 H883 0.984 . S
N877 C870 1.356 . S
N877 H880 0.984 . S
N877 H881 0.985 . S
H878 N873 0.984 . S
H879 N873 0.985 . S
H880 N877 0.984 . S
H881 N877 0.985 . S
H882 N876 0.984 . S
H883 N876 0.984 . S
H884 N872 0.984 . S
H885 N872 0.985 . S
C886 C887 1.363 1_655 S
C886 C892 1.376 1_655 S
C886 N894 1.356 . S
C887 C886 1.363 1_455 S
C887 C893 1.363 . S
C888 C889 1.363 . S
C888 C893 1.379 . S
C888 N895 1.356 . S
C889 C888 1.363 . S
C889 C892 1.370 . S
N890 C892 1.354 1_655 S
N890 H902 0.984 . S
N890 H903 0.985 1_655 S
N891 C893 1.356 . S
N891 H896 0.984 . S
N891 H897 0.985 . S
C892 C886 1.376 1_455 S
C892 C889 1.370 . S
C892 N890 1.354 1_455 S
C893 C887 1.363 . S
C893 C888 1.379 . S
C893 N891 1.356 . S
N894 C886 1.356 . S
N894 H900 0.984 . S
N894 H901 0.984 . S
N895 C888 1.356 . S
N895 H898 0.984 . S
N895 H899 0.985 . S
H896 N891 0.984 . S
H897 N891 0.985 . S
H898 N895 0.984 . S
H899 N895 0.985 . S
H900 N894 0.984 . S
H901 N894 0.984 . S
H902 N890 0.984 . S
H903 N890 0.985 1_455 S
C904 C905 1.363 . S
C904 C910 1.379 . S
C904 N912 1.356 . S
C905 C904 1.363 . S
C905 C911 1.363 . S
C906 C907 1.363 . S
C906 C911 1.379 . S
C906 N913 1.356 . S
C907 C906 1.363 . S
C907 C910 1.363 . S
N908 C910 1.356 . S
N908 H920 0.984 . S
N908 H921 0.985 . S
N909 C911 1.356 . S
N909 H914 0.984 . S
N909 H915 0.985 . S
C910 C904 1.379 . S
C910 C907 1.363 . S
C910 N908 1.356 . S
C911 C905 1.363 . S
C911 C906 1.379 . S
C911 N909 1.356 . S
N912 C904 1.356 . S
N912 H918 0.984 . S
N912 H919 0.984 . S
N913 C906 1.356 . S
N913 H916 0.984 . S
N913 H917 0.985 . S
H914 N909 0.984 . S
H915 N909 0.985 . S
H916 N913 0.984 . S
H917 N913 0.985 . S
H918 N912 0.984 . S
H919 N912 0.984 . S
H920 N908 0.984 . S
H921 N908 0.985 . S
C922 C923 1.363 . S
C922 C928 1.379 . S
C922 N930 1.356 . S
C923 C922 1.363 . S
C923 C929 1.363 . S
C924 C925 1.363 1_655 S
C924 C929 1.379 1_655 S
C924 N931 1.356 . S
C925 C924 1.363 1_455 S
C925 C928 1.363 . S
N926 C928 1.356 . S
N926 H938 0.984 . S
N926 H939 0.985 . S
N927 C929 1.356 1_655 S
N927 H932 0.984 1_655 S
N927 H933 0.985 . S
C928 C922 1.379 . S
C928 C925 1.363 . S
C928 N926 1.356 . S
C929 C923 1.363 . S
C929 C924 1.379 1_455 S
C929 N927 1.356 1_455 S
N930 C922 1.356 . S
N930 H936 0.984 . S
N930 H937 0.984 . S
N931 C924 1.356 . S
N931 H934 0.984 . S
N931 H935 0.985 . S
H932 N927 0.984 1_455 S
H933 N927 0.985 . S
H934 N931 0.984 . S
H935 N931 0.985 . S
H936 N930 0.984 . S
H937 N930 0.984 . S
H938 N926 0.984 . S
H939 N926 0.985 . S
C940 C941 1.363 . S
C940 C946 1.379 1_545 S
C940 N948 1.356 1_545 S
C941 C940 1.363 . S
C941 C947 1.363 . S
C942 C943 1.363 . S
C942 C947 1.379 . S
C942 N949 1.356 . S
C943 C942 1.363 . S
C943 C946 1.363 1_545 S
N944 C946 1.356 . S
N944 H956 0.984 . S
N944 H957 0.985 . S
N945 C947 1.356 . S
N945 H950 0.984 . S
N945 H951 0.985 . S
C946 C940 1.379 1_565 S
C946 C943 1.363 1_565 S
C946 N944 1.356 . S
C947 C941 1.363 . S
C947 C942 1.379 . S
C947 N945 1.356 . S
N948 C940 1.356 1_565 S
N948 H954 0.984 . S
N948 H955 0.984 1_565 S
N949 C942 1.356 . S
N949 H952 0.984 . S
N949 H953 0.985 . S
H950 N945 0.984 . S
H951 N945 0.985 . S
H952 N949 0.984 . S
H953 N949 0.985 . S
H954 N948 0.984 . S
H955 N948 0.984 1_545 S
H956 N944 0.984 . S
H957 N944 0.985 . S
C958 C959 1.363 . S
C958 C964 1.379 . S
C958 N966 1.356 . S
C959 C958 1.363 . S
C959 C965 1.363 . S
C960 C961 1.363 . S
C960 C965 1.379 . S
C960 N967 1.356 . S
C961 C960 1.363 . S
C961 C964 1.363 . S
N962 C964 1.356 . S
N962 H974 0.984 . S
N962 H975 0.985 . S
N963 C965 1.356 . S
N963 H968 0.984 . S
N963 H969 0.985 . S
C964 C958 1.379 . S
C964 C961 1.363 . S
C964 N962 1.356 . S
C965 C959 1.363 . S
C965 C960 1.379 . S
C965 N963 1.356 . S
N966 C958 1.356 . S
N966 H972 0.984 . S
N966 H973 0.984 . S
N967 C960 1.356 . S
N967 H970 0.984 . S
N967 H971 0.985 . S
H968 N963 0.984 . S
H969 N963 0.985 . S
H970 N967 0.984 . S
H971 N967 0.985 . S
H972 N966 0.984 . S
H973 N966 0.984 . S
H974 N962 0.984 . S
H975 N962 0.985 . S
C976 C977 1.363 . S
C976 C982 1.379 . S
C976 N984 1.356 . S
C977 C976 1.363 . S
C977 C983 1.363 1_565 S
C978 C979 1.363 1_545 S
C978 C983 1.379 . S
C978 N985 1.356 . S
C979 C978 1.363 1_565 S
C979 C982 1.363 . S
N980 C982 1.356 . S
N980 H992 0.984 . S
N980 H993 0.985 . S
N981 C983 1.356 . S
N981 H986 0.984 . S
N981 H987 0.985 . S
C982 C976 1.379 . S
C982 C979 1.363 . S
C982 N980 1.356 . S
C983 C977 1.363 1_545 S
C983 C978 1.379 . S
C983 N981 1.356 . S
N984 C976 1.356 . S
N984 H990 0.984 . S
N984 H991 0.984 . S
N985 C978 1.356 . S
N985 H988 0.984 . S
N985 H989 0.985 . S
H986 N981 0.984 . S
H987 N981 0.985 . S
H988 N985 0.984 . S
H989 N985 0.985 . S
H990 N984 0.984 . S
H991 N984 0.984 . S
H992 N980 0.984 . S
H993 N980 0.985 . S
C994 C995 1.363 . S
C994 C1000 1.379 . S
C994 N1002 1.356 . S
C995 C994 1.363 . S
C995 C1001 1.363 . S
C996 C997 1.363 . S
C996 C1001 1.379 . S
C996 N1003 1.356 . S
C997 C996 1.363 . S
C997 C1000 1.363 . S
N998 C1000 1.356 . S
N998 H1010 0.984 . S
N998 H1011 0.985 . S
N999 C1001 1.356 . S
N999 H1004 0.984 . S
N999 H1005 0.985 . S
C1000 C994 1.379 . S
C1000 C997 1.363 . S
C1000 N998 1.356 . S
C1001 C995 1.363 . S
C1001 C996 1.379 . S
C1001 N999 1.356 . S
N1002 C994 1.356 . S
N1002 H1008 0.984 . S
N1002 H1009 0.984 . S
N1003 C996 1.356 . S
N1003 H1006 0.984 . S
N1003 H1007 0.985 . S
H1004 N999 0.984 . S
H1005 N999 0.985 . S
H1006 N1003 0.984 . S
H1007 N1003 0.985 . S
H1008 N1002 0.984 . S
H1009 N1002 0.984 . S
H1010 N998 0.984 . S
H1011 N998 0.985 . S
C1012 C1013 1.363 . S
C1012 C1018 1.379 . S
C1012 N1020 1.356 . S
C1013 C1012 1.363 . S
C1013 C1019 1.363 . S
C1014 C1015 1.363 . S
C1014 C1019 1.379 . S
C1014 N1021 1.356 . S
C1015 C1014 1.363 . S
C1015 C1018 1.363 . S
N1016 C1018 1.356 . S
N1016 H1028 0.984 . S
N1016 H1029 0.985 . S
N1017 C1019 1.356 . S
N1017 H1022 0.984 . S
N1017 H1023 0.985 . S
C1018 C1012 1.379 . S
C1018 C1015 1.363 . S
C1018 N1016 1.356 . S
C1019 C1013 1.363 . S
C1019 C1014 1.379 . S
C1019 N1017 1.356 . S
N1020 C1012 1.356 . S
N1020 H1026 0.984 . S
N1020 H1027 0.984 . S
N1021 C1014 1.356 . S
N1021 H1024 0.984 . S
N1021 H1025 0.985 . S
H1022 N1017 0.984 . S
H1023 N1017 0.985 . S
H1024 N1021 0.984 . S
H1025 N1021 0.985 . S
H1026 N1020 0.984 . S
H1027 N1020 0.984 . S
H1028 N1016 0.984 . S
H1029 N1016 0.985 . S
C1030 C1031 1.363 1_455 S
C1030 C1036 1.379 . S
C1030 N1038 1.356 . S
C1031 C1030 1.363 1_655 S
C1031 C1037 1.363 . S
C1032 C1033 1.363 . S
C1032 C1037 1.379 . S
C1032 N1039 1.356 . S
C1033 C1032 1.363 . S
C1033 C1036 1.363 1_655 S
N1034 C1036 1.356 . S
N1034 H1046 0.984 . S
N1034 H1047 0.985 . S
N1035 C1037 1.356 . S
N1035 H1040 0.984 . S
N1035 H1041 0.985 . S
C1036 C1030 1.379 . S
C1036 C1033 1.363 1_455 S
C1036 N1034 1.356 . S
C1037 C1031 1.363 . S
C1037 C1032 1.379 . S
C1037 N1035 1.356 . S
N1038 C1030 1.356 . S
N1038 H1044 0.984 . S
N1038 H1045 0.984 . S
N1039 C1032 1.356 . S
N1039 H1042 0.984 . S
N1039 H1043 0.985 . S
H1040 N1035 0.984 . S
H1041 N1035 0.985 . S
H1042 N1039 0.984 . S
H1043 N1039 0.985 . S
H1044 N1038 0.984 . S
H1045 N1038 0.984 . S
H1046 N1034 0.984 . S
H1047 N1034 0.985 . S
C1048 C1049 1.363 . S
C1048 C1054 1.379 . S
C1048 N1056 1.356 . S
C1049 C1048 1.363 . S
C1049 C1055 1.363 . S
C1050 C1051 1.363 . S
C1050 C1055 1.379 . S
C1050 N1057 1.356 . S
C1051 C1050 1.363 . S
C1051 C1054 1.363 . S
N1052 C1054 1.356 . S
N1052 H1064 0.984 . S
N1052 H1065 0.985 . S
N1053 C1055 1.356 . S
N1053 H1058 0.984 . S
N1053 H1059 0.985 . S
C1054 C1048 1.379 . S
C1054 C1051 1.363 . S
C1054 N1052 1.356 . S
C1055 C1049 1.363 . S
C1055 C1050 1.379 . S
C1055 N1053 1.356 . S
N1056 C1048 1.356 . S
N1056 H1062 0.984 . S
N1056 H1063 0.984 . S
N1057 C1050 1.356 . S
N1057 H1060 0.984 . S
N1057 H1061 0.985 . S
H1058 N1053 0.984 . S
H1059 N1053 0.985 . S
H1060 N1057 0.984 . S
H1061 N1057 0.985 . S
H1062 N1056 0.984 . S
H1063 N1056 0.984 . S
H1064 N1052 0.984 . S
H1065 N1052 0.985 . S
C1066 C1067 1.363 . S
C1066 C1072 1.379 . S
C1066 N1074 1.356 . S
C1067 C1066 1.363 . S
C1067 C1073 1.363 1_655 S
C1068 C1069 1.363 . S
C1068 C1073 1.379 1_655 S
C1068 N1075 1.356 . S
C1069 C1068 1.363 . S
C1069 C1072 1.363 . S
N1070 C1072 1.356 . S
N1070 H1082 0.984 . S
N1070 H1083 0.985 . S
N1071 C1073 1.356 . S
N1071 H1076 0.984 . S
N1071 H1077 0.985 . S
C1072 C1066 1.379 . S
C1072 C1069 1.363 . S
C1072 N1070 1.356 . S
C1073 C1067 1.363 1_455 S
C1073 C1068 1.379 1_455 S
C1073 N1071 1.356 . S
N1074 C1066 1.356 . S
N1074 H1080 0.984 . S
N1074 H1081 0.984 . S
N1075 C1068 1.356 . S
N1075 H1078 0.984 . S
N1075 H1079 0.985 1_655 S
H1076 N1071 0.984 . S
H1077 N1071 0.985 . S
H1078 N1075 0.984 . S
H1079 N1075 0.985 1_455 S
H1080 N1074 0.984 . S
H1081 N1074 0.984 . S
H1082 N1070 0.984 . S
H1083 N1070 0.985 . S
C1084 C1085 1.363 . S
C1084 C1090 1.379 . S
C1084 N1092 1.356 . S
C1085 C1084 1.363 . S
C1085 C1091 1.363 1_565 S
C1086 C1087 1.363 1_545 S
C1086 C1091 1.379 . S
C1086 N1093 1.356 . S
C1087 C1086 1.363 1_565 S
C1087 C1090 1.363 . S
N1088 C1090 1.356 . S
N1088 H1100 0.984 . S
N1088 H1101 0.985 . S
N1089 C1091 1.356 . S
N1089 H1094 0.984 1_545 S
N1089 H1095 0.985 . S
C1090 C1084 1.379 . S
C1090 C1087 1.363 . S
C1090 N1088 1.356 . S
C1091 C1085 1.363 1_545 S
C1091 C1086 1.379 . S
C1091 N1089 1.356 . S
N1092 C1084 1.356 . S
N1092 H1098 0.984 . S
N1092 H1099 0.984 . S
N1093 C1086 1.356 . S
N1093 H1096 0.984 . S
N1093 H1097 0.985 . S
H1094 N1089 0.984 1_565 S
H1095 N1089 0.985 . S
H1096 N1093 0.984 . S
H1097 N1093 0.985 . S
H1098 N1092 0.984 . S
H1099 N1092 0.984 . S
H1100 N1088 0.984 . S
H1101 N1088 0.985 . S
C1102 C1103 1.363 . S
C1102 C1108 1.379 . S
C1102 N1110 1.356 . S
C1103 C1102 1.363 . S
C1103 C1109 1.363 . S
C1104 C1105 1.363 . S
C1104 C1109 1.379 . S
C1104 N1111 1.356 . S
C1105 C1104 1.363 . S
C1105 C1108 1.363 . S
N1106 C1108 1.356 . S
N1106 H1118 0.984 . S
N1106 H1119 0.985 . S
N1107 C1109 1.356 . S
N1107 H1112 0.984 . S
N1107 H1113 0.985 . S
C1108 C1102 1.379 . S
C1108 C1105 1.363 . S
C1108 N1106 1.356 . S
C1109 C1103 1.363 . S
C1109 C1104 1.379 . S
C1109 N1107 1.356 . S
N1110 C1102 1.356 . S
N1110 H1116 0.984 . S
N1110 H1117 0.984 . S
N1111 C1104 1.356 . S
N1111 H1114 0.984 . S
N1111 H1115 0.985 . S
H1112 N1107 0.984 . S
H1113 N1107 0.985 . S
H1114 N1111 0.984 . S
H1115 N1111 0.985 . S
H1116 N1110 0.984 . S
H1117 N1110 0.984 . S
H1118 N1106 0.984 . S
H1119 N1106 0.985 . S
C1120 C1121 1.363 . S
C1120 C1126 1.379 . S
C1120 N1128 1.356 . S
C1121 C1120 1.363 . S
C1121 C1127 1.363 . S
C1122 C1123 1.363 . S
C1122 C1127 1.379 . S
C1122 N1129 1.356 . S
C1123 C1122 1.363 . S
C1123 C1126 1.363 . S
N1124 C1126 1.356 . S
N1124 H1136 0.984 . S
N1124 H1137 0.985 . S
N1125 C1127 1.356 . S
N1125 H1130 0.984 . S
N1125 H1131 0.985 . S
C1126 C1120 1.379 . S
C1126 C1123 1.363 . S
C1126 N1124 1.356 . S
C1127 C1121 1.363 . S
C1127 C1122 1.379 . S
C1127 N1125 1.356 . S
N1128 C1120 1.356 . S
N1128 H1134 0.984 . S
N1128 H1135 0.984 . S
N1129 C1122 1.356 . S
N1129 H1132 0.984 . S
N1129 H1133 0.985 . S
H1130 N1125 0.984 . S
H1131 N1125 0.985 . S
H1132 N1129 0.984 . S
H1133 N1129 0.985 . S
H1134 N1128 0.984 . S
H1135 N1128 0.984 . S
H1136 N1124 0.984 . S
H1137 N1124 0.985 . S
C1138 C1139 1.363 . S
C1138 C1144 1.379 . S
C1138 N1146 1.356 . S
C1139 C1138 1.363 . S
C1139 C1145 1.363 . S
C1140 C1141 1.363 . S
C1140 C1145 1.379 . S
C1140 N1147 1.356 . S
C1141 C1140 1.363 . S
C1141 C1144 1.363 . S
N1142 C1144 1.356 . S
N1142 H1154 0.984 . S
N1142 H1155 0.985 . S
N1143 C1145 1.356 . S
N1143 H1148 0.984 . S
N1143 H1149 0.985 . S
C1144 C1138 1.379 . S
C1144 C1141 1.363 . S
C1144 N1142 1.356 . S
C1145 C1139 1.363 . S
C1145 C1140 1.379 . S
C1145 N1143 1.356 . S
N1146 C1138 1.356 . S
N1146 H1152 0.984 . S
N1146 H1153 0.984 . S
N1147 C1140 1.356 . S
N1147 H1150 0.984 . S
N1147 H1151 0.985 . S
H1148 N1143 0.984 . S
H1149 N1143 0.985 . S
H1150 N1147 0.984 . S
H1151 N1147 0.985 . S
H1152 N1146 0.984 . S
H1153 N1146 0.984 . S
H1154 N1142 0.984 . S
H1155 N1142 0.985 . S
C1156 C1157 1.363 . S
C1156 C1162 1.379 . S
C1156 N1164 1.356 . S
C1157 C1156 1.363 . S
C1157 C1163 1.363 . S
C1158 C1159 1.363 . S
C1158 C1163 1.379 . S
C1158 N1165 1.356 . S
C1159 C1158 1.363 . S
C1159 C1162 1.363 . S
N1160 C1162 1.356 . S
N1160 H1172 0.984 . S
N1160 H1173 0.985 . S
N1161 C1163 1.356 . S
N1161 H1166 0.984 . S
N1161 H1167 0.985 . S
C1162 C1156 1.379 . S
C1162 C1159 1.363 . S
C1162 N1160 1.356 . S
C1163 C1157 1.363 . S
C1163 C1158 1.379 . S
C1163 N1161 1.356 . S
N1164 C1156 1.356 . S
N1164 H1170 0.984 . S
N1164 H1171 0.984 . S
N1165 C1158 1.356 . S
N1165 H1168 0.984 . S
N1165 H1169 0.985 . S
H1166 N1161 0.984 . S
H1167 N1161 0.985 . S
H1168 N1165 0.984 . S
H1169 N1165 0.985 . S
H1170 N1164 0.984 . S
H1171 N1164 0.984 . S
H1172 N1160 0.984 . S
H1173 N1160 0.985 . S
C1174 C1175 1.363 . S
C1174 C1180 1.379 . S
C1174 N1182 1.356 . S
C1175 C1174 1.363 . S
C1175 C1181 1.363 . S
C1176 C1177 1.363 . S
C1176 C1181 1.379 . S
C1176 N1183 1.356 . S
C1177 C1176 1.363 . S
C1177 C1180 1.363 . S
N1178 C1180 1.356 . S
N1178 H1190 0.984 . S
N1178 H1191 0.985 . S
N1179 C1181 1.356 . S
N1179 H1184 0.984 . S
N1179 H1185 0.985 . S
C1180 C1174 1.379 . S
C1180 C1177 1.363 . S
C1180 N1178 1.356 . S
C1181 C1175 1.363 . S
C1181 C1176 1.379 . S
C1181 N1179 1.356 . S
N1182 C1174 1.356 . S
N1182 H1188 0.984 . S
N1182 H1189 0.984 . S
N1183 C1176 1.356 . S
N1183 H1186 0.984 . S
N1183 H1187 0.985 . S
H1184 N1179 0.984 . S
H1185 N1179 0.985 . S
H1186 N1183 0.984 . S
H1187 N1183 0.985 . S
H1188 N1182 0.984 . S
H1189 N1182 0.984 . S
H1190 N1178 0.984 . S
H1191 N1178 0.985 . S
C1192 C1193 1.363 . S
C1192 C1198 1.379 . S
C1192 N1200 1.356 . S
C1193 C1192 1.363 . S
C1193 C1199 1.363 . S
C1194 C1195 1.363 . S
C1194 C1199 1.379 . S
C1194 N1201 1.356 . S
C1195 C1194 1.363 . S
C1195 C1198 1.363 . S
N1196 C1198 1.356 . S
N1196 H1208 0.984 . S
N1196 H1209 0.985 . S
N1197 C1199 1.356 . S
N1197 H1202 0.984 . S
N1197 H1203 0.985 . S
C1198 C1192 1.379 . S
C1198 C1195 1.363 . S
C1198 N1196 1.356 . S
C1199 C1193 1.363 . S
C1199 C1194 1.379 . S
C1199 N1197 1.356 . S
N1200 C1192 1.356 . S
N1200 H1206 0.984 . S
N1200 H1207 0.984 . S
N1201 C1194 1.356 . S
N1201 H1204 0.984 . S
N1201 H1205 0.985 . S
H1202 N1197 0.984 . S
H1203 N1197 0.985 . S
H1204 N1201 0.984 . S
H1205 N1201 0.985 . S
H1206 N1200 0.984 . S
H1207 N1200 0.984 . S
H1208 N1196 0.984 . S
H1209 N1196 0.985 . S
C1210 C1211 1.363 . S
C1210 C1216 1.379 . S
C1210 N1218 1.356 . S
C1211 C1210 1.363 . S
C1211 C1217 1.363 . S
C1212 C1213 1.363 . S
C1212 C1217 1.379 . S
C1212 N1219 1.356 . S
C1213 C1212 1.363 . S
C1213 C1216 1.363 . S
N1214 C1216 1.356 . S
N1214 H1226 0.984 . S
N1214 H1227 0.985 . S
N1215 C1217 1.356 . S
N1215 H1220 0.984 . S
N1215 H1221 0.985 . S
C1216 C1210 1.379 . S
C1216 C1213 1.363 . S
C1216 N1214 1.356 . S
C1217 C1211 1.363 . S
C1217 C1212 1.379 . S
C1217 N1215 1.356 . S
N1218 C1210 1.356 . S
N1218 H1224 0.984 . S
N1218 H1225 0.984 . S
N1219 C1212 1.356 . S
N1219 H1222 0.984 . S
N1219 H1223 0.985 . S
H1220 N1215 0.984 . S
H1221 N1215 0.985 . S
H1222 N1219 0.984 . S
H1223 N1219 0.985 . S
H1224 N1218 0.984 . S
H1225 N1218 0.984 . S
H1226 N1214 0.984 . S
H1227 N1214 0.985 . S
C1228 C1229 1.363 . S
C1228 C1234 1.379 . S
C1228 N1236 1.356 . S
C1229 C1228 1.363 . S
C1229 C1235 1.363 . S
C1230 C1231 1.363 . S
C1230 C1235 1.379 . S
C1230 N1237 1.356 . S
C1231 C1230 1.363 . S
C1231 C1234 1.363 . S
N1232 C1234 1.356 . S
N1232 H1244 0.984 . S
N1232 H1245 0.985 . S
N1233 C1235 1.356 . S
N1233 H1238 0.984 . S
N1233 H1239 0.985 . S
C1234 C1228 1.379 . S
C1234 C1231 1.363 . S
C1234 N1232 1.356 . S
C1235 C1229 1.363 . S
C1235 C1230 1.379 . S
C1235 N1233 1.356 . S
N1236 C1228 1.356 . S
N1236 H1242 0.984 . S
N1236 H1243 0.984 . S
N1237 C1230 1.356 . S
N1237 H1240 0.984 . S
N1237 H1241 0.985 . S
H1238 N1233 0.984 . S
H1239 N1233 0.985 . S
H1240 N1237 0.984 . S
H1241 N1237 0.985 . S
H1242 N1236 0.984 . S
H1243 N1236 0.984 . S
H1244 N1232 0.984 . S
H1245 N1232 0.985 . S
C1246 C1247 1.363 . S
C1246 C1252 1.379 . S
C1246 N1254 1.356 . S
C1247 C1246 1.363 . S
C1247 C1253 1.363 . S
C1248 C1249 1.363 . S
C1248 C1253 1.379 . S
C1248 N1255 1.356 . S
C1249 C1248 1.363 . S
C1249 C1252 1.363 . S
N1250 C1252 1.356 . S
N1250 H1262 0.984 . S
N1250 H1263 0.985 . S
N1251 C1253 1.356 . S
N1251 H1256 0.984 . S
N1251 H1257 0.985 . S
C1252 C1246 1.379 . S
C1252 C1249 1.363 . S
C1252 N1250 1.356 . S
C1253 C1247 1.363 . S
C1253 C1248 1.379 . S
C1253 N1251 1.356 . S
N1254 C1246 1.356 . S
N1254 H1260 0.984 . S
N1254 H1261 0.984 . S
N1255 C1248 1.356 . S
N1255 H1258 0.984 . S
N1255 H1259 0.985 . S
H1256 N1251 0.984 . S
H1257 N1251 0.985 . S
H1258 N1255 0.984 . S
H1259 N1255 0.985 . S
H1260 N1254 0.984 . S
H1261 N1254 0.984 . S
H1262 N1250 0.984 . S
H1263 N1250 0.985 . S
C545 C5 1.548 . S
C547 C243 1.548 . S
C563 C141 1.548 . S
C565 C39 1.548 . S
C581 C175 1.548 . S
C583 C73 1.548 . S
C599 C209 1.548 . S
C601 C107 1.548 . S
C617 C277 1.548 . S
C619 C515 1.548 . S
C635 C311 1.548 . S
C637 C413 1.548 . S
C653 C447 1.548 . S
C655 C345 1.548 . S
C671 C379 1.548 . S
C673 C481 1.548 . S
C689 C9 1.510 . S
C691 C281 1.510 . S
C707 C315 1.510 . S
C709 C43 1.510 . S
C725 C349 1.510 . S
C727 C77 1.510 . S
C743 C111 1.510 . S
C745 C383 1.510 . S
C761 C417 1.510 . S
C763 C145 1.510 . S
C779 C451 1.510 . S
C781 C179 1.510 . S
C797 C213 1.510 . S
C799 C485 1.510 . S
C815 C519 1.510 . S
C817 C247 1.510 . S
C833 C20 1.120 . S
C835 C478 1.117 1_545 S
C851 C512 1.117 . S
C853 C54 1.120 . S
C869 C88 1.120 . S
C871 C410 1.117 . S
C887 C444 1.117 1_455 S
C889 C122 1.120 . S
C905 C156 1.120 . S
C907 C342 1.117 . S
C923 C190 1.120 . S
C925 C376 1.117 1_455 S
C941 C224 1.120 . S
C943 C274 1.117 1_545 S
C959 C258 1.120 . S
C961 C308 1.117 . S
C977 C206 1.117 1_565 S
C979 C292 1.120 . S
C995 C240 1.117 . S
C997 C326 1.120 . S
C1013 C360 1.120 . S
C1015 C138 1.117 . S
C1031 C172 1.117 1_655 S
C1033 C394 1.120 . S
C1049 C70 1.117 . S
C1051 C428 1.120 . S
C1067 C104 1.117 1_655 S
C1069 C462 1.120 . S
C1085 C496 1.120 . S
C1087 C2 1.117 1_565 S
C1103 C36 1.117 . S
C1105 C530 1.120 . S
C1121 C101 1.438 . S
C1123 C33 1.438 . S
C1139 C135 1.437 . S
C1141 C67 1.437 . S
C1157 C169 1.437 . S
C1159 C237 1.437 . S
C1175 C271 1.438 . S
C1177 C203 1.438 . S
C1193 C305 1.438 . S
C1195 C373 1.438 . S
C1211 C407 1.437 . S
C1213 C339 1.437 . S
C1229 C441 1.437 . S
C1231 C509 1.437 . S
C1247 C475 1.438 . S
C1249 C543 1.438 . S
