# Generated by pormake.
# Topology ume, (4)-cn, num edge types: 1
# Building blocks:
#     Node 0, Type 0, BuildingBlock: MUDLON_clean_sbu_0, # of connection points: 4
#     Node 1, Type 0, BuildingBlock: MUDLON_clean_sbu_0, # of connection points: 4
#     Node 2, Type 0, BuildingBlock: MUDLON_clean_sbu_0, # of connection points: 4
#     Node 3, Type 0, BuildingBlock: MUDLON_clean_sbu_0, # of connection points: 4
#     Node 4, Type 0, BuildingBlock: MUDLON_clean_sbu_0, # of connection points: 4
#     Node 5, Type 0, BuildingBlock: MUDLON_clean_sbu_0, # of connection points: 4
#     Node 6, Type 0, BuildingBlock: MUDLON_clean_sbu_0, # of connection points: 4
#     Node 7, Type 0, BuildingBlock: MUDLON_clean_sbu_0, # of connection points: 4
#     Node 8, Type 0, BuildingBlock: MUDLON_clean_sbu_0, # of connection points: 4
#     Node 9, Type 0, BuildingBlock: MUDLON_clean_sbu_0, # of connection points: 4
#     Node 10, Type 0, BuildingBlock: MUDLON_clean_sbu_0, # of connection points: 4
#     Node 11, Type 0, BuildingBlock: MUDLON_clean_sbu_0, # of connection points: 4
#     Node 12, Type 0, BuildingBlock: MUDLON_clean_sbu_0, # of connection points: 4
#     Node 13, Type 0, BuildingBlock: MUDLON_clean_sbu_0, # of connection points: 4
#     Node 14, Type 0, BuildingBlock: MUDLON_clean_sbu_0, # of connection points: 4
#     Node 15, Type 0, BuildingBlock: MUDLON_clean_sbu_0, # of connection points: 4
#     Edge 16, Type (0, 0), BuildingBlock: ZUJKAS_clean_linker_0, # of connection points: 2
#     Edge 17, Type (0, 0), BuildingBlock: ZUJKAS_clean_linker_0, # of connection points: 2
#     Edge 18, Type (0, 0), BuildingBlock: ZUJKAS_clean_linker_0, # of connection points: 2
#     Edge 19, Type (0, 0), BuildingBlock: ZUJKAS_clean_linker_0, # of connection points: 2
#     Edge 20, Type (0, 0), BuildingBlock: ZUJKAS_clean_linker_0, # of connection points: 2
#     Edge 21, Type (0, 0), BuildingBlock: ZUJKAS_clean_linker_0, # of connection points: 2
#     Edge 22, Type (0, 0), BuildingBlock: ZUJKAS_clean_linker_0, # of connection points: 2
#     Edge 23, Type (0, 0), BuildingBlock: ZUJKAS_clean_linker_0, # of connection points: 2
#     Edge 24, Type (0, 0), BuildingBlock: ZUJKAS_clean_linker_0, # of connection points: 2
#     Edge 25, Type (0, 0), BuildingBlock: ZUJKAS_clean_linker_0, # of connection points: 2
#     Edge 26, Type (0, 0), BuildingBlock: ZUJKAS_clean_linker_0, # of connection points: 2
#     Edge 27, Type (0, 0), BuildingBlock: ZUJKAS_clean_linker_0, # of connection points: 2
#     Edge 28, Type (0, 0), BuildingBlock: ZUJKAS_clean_linker_0, # of connection points: 2
#     Edge 29, Type (0, 0), BuildingBlock: ZUJKAS_clean_linker_0, # of connection points: 2
#     Edge 30, Type (0, 0), BuildingBlock: ZUJKAS_clean_linker_0, # of connection points: 2
#     Edge 31, Type (0, 0), BuildingBlock: ZUJKAS_clean_linker_0, # of connection points: 2
#     Edge 32, Type (0, 0), BuildingBlock: ZUJKAS_clean_linker_0, # of connection points: 2
#     Edge 33, Type (0, 0), BuildingBlock: ZUJKAS_clean_linker_0, # of connection points: 2
#     Edge 34, Type (0, 0), BuildingBlock: ZUJKAS_clean_linker_0, # of connection points: 2
#     Edge 35, Type (0, 0), BuildingBlock: ZUJKAS_clean_linker_0, # of connection points: 2
#     Edge 36, Type (0, 0), BuildingBlock: ZUJKAS_clean_linker_0, # of connection points: 2
#     Edge 37, Type (0, 0), BuildingBlock: ZUJKAS_clean_linker_0, # of connection points: 2
#     Edge 38, Type (0, 0), BuildingBlock: ZUJKAS_clean_linker_0, # of connection points: 2
#     Edge 39, Type (0, 0), BuildingBlock: ZUJKAS_clean_linker_0, # of connection points: 2
#     Edge 40, Type (0, 0), BuildingBlock: ZUJKAS_clean_linker_0, # of connection points: 2
#     Edge 41, Type (0, 0), BuildingBlock: ZUJKAS_clean_linker_0, # of connection points: 2
#     Edge 42, Type (0, 0), BuildingBlock: ZUJKAS_clean_linker_0, # of connection points: 2
#     Edge 43, Type (0, 0), BuildingBlock: ZUJKAS_clean_linker_0, # of connection points: 2
#     Edge 44, Type (0, 0), BuildingBlock: ZUJKAS_clean_linker_0, # of connection points: 2
#     Edge 45, Type (0, 0), BuildingBlock: ZUJKAS_clean_linker_0, # of connection points: 2
#     Edge 46, Type (0, 0), BuildingBlock: ZUJKAS_clean_linker_0, # of connection points: 2
#     Edge 47, Type (0, 0), BuildingBlock: ZUJKAS_clean_linker_0, # of connection points: 2
# Relax obj value: 0.086
# Max RMSD: 0.264
# Mean RMSD: 0.264
data_MOF--net-ume--node1-MUDLON_clean_sbu_0--edge1-ZUJKAS_clean_linker_0
_symmetry_space_group_name_H-M    P1
_symmetry_Int_Tables_number       1
_symmetry_cell_setting            triclinic
loop_
_symmetry_equiv_pos_as_xyz
'x, y, z'
_cell_length_a     37.246656
_cell_length_b     37.42031
_cell_length_c     150.9953
_cell_angle_alpha  89.932087
_cell_angle_beta   90.009195
_cell_angle_gamma 90.025108
loop_
_atom_site_label
_atom_site_type_symbol
_atom_site_fract_x
_atom_site_fract_y
_atom_site_fract_z
_atom_type_partial_charge
Mg0 Mg 0.25965 0.10772 0.32807 0.0
C1 C 0.33737 0.0968 0.32771 0.0
O2 O 0.33314 0.13138 0.32882 0.0
C3 C 0.1821 0.09373 0.32964 0.0
O4 O 0.18543 0.12745 0.33193 0.0
C5 C 0.25514 0.12629 0.30934 0.0
O6 O 0.24897 0.09173 0.30967 0.0
O7 O 0.26004 0.14293 0.31659 0.0
O8 O 0.30945 0.07733 0.32709 0.0
O9 O 0.26095 0.13357 0.34101 0.0
C10 C 0.27064 0.11242 0.34717 0.0
O11 O 0.2787 0.0793 0.34507 0.0
O12 O 0.21028 0.07643 0.32756 0.0
Mg13 Mg 0.90949 0.75908 0.57947 0.0
C14 C 0.9073 0.76842 0.59861 0.0
O15 O 0.94076 0.77473 0.59633 0.0
C16 C 0.88334 0.74661 0.56111 0.0
O17 O 0.91426 0.72974 0.56109 0.0
C18 C 0.92306 0.68096 0.57933 0.0
O19 O 0.88804 0.6826 0.58032 0.0
O20 O 0.94067 0.71001 0.57873 0.0
O21 O 0.88493 0.76044 0.59256 0.0
O22 O 0.94217 0.80724 0.57855 0.0
C23 C 0.92604 0.83548 0.57606 0.0
O24 O 0.89195 0.83337 0.57388 0.0
O25 O 0.87255 0.76083 0.56828 0.0
Mg26 Mg 0.26413 0.4092 0.82912 0.0
C27 C 0.18721 0.42346 0.83009 0.0
O28 O 0.19073 0.38928 0.83191 0.0
C29 C 0.3283 0.45939 0.83262 0.0
O30 O 0.30978 0.46835 0.83967 0.0
C31 C 0.26337 0.38625 0.81064 0.0
O32 O 0.27219 0.42024 0.81034 0.0
O33 O 0.25874 0.37177 0.81818 0.0
O34 O 0.21541 0.44151 0.82842 0.0
O35 O 0.26477 0.38496 0.84228 0.0
C36 C 0.25253 0.40482 0.84842 0.0
O37 O 0.2409 0.43689 0.84633 0.0
O38 O 0.3149 0.43728 0.82714 0.0
Mg39 Mg 0.60717 0.75888 0.08054 0.0
C40 C 0.63304 0.78899 0.09819 0.0
O41 O 0.61772 0.81786 0.09501 0.0
C42 C 0.62968 0.76243 0.06174 0.0
O43 O 0.5965 0.77431 0.06149 0.0
C44 C 0.59269 0.83588 0.07658 0.0
O45 O 0.62748 0.83374 0.07524 0.0
O46 O 0.57572 0.80774 0.07883 0.0
O47 O 0.63426 0.76103 0.09341 0.0
O48 O 0.57448 0.71038 0.08035 0.0
C49 C 0.58165 0.68581 0.08592 0.0
O50 O 0.60688 0.69147 0.09183 0.0
O51 O 0.64315 0.75405 0.06921 0.0
Mg52 Mg 0.26303 0.41242 0.95988 0.0
C53 C 0.33998 0.42528 0.95724 0.0
O54 O 0.33568 0.39132 0.9553 0.0
C55 C 0.18666 0.42894 0.96436 0.0
O56 O 0.18978 0.39601 0.96729 0.0
C57 C 0.26593 0.39497 0.97881 0.0
O58 O 0.26053 0.42966 0.97862 0.0
O59 O 0.26764 0.37823 0.97149 0.0
O60 O 0.31252 0.44337 0.95949 0.0
O61 O 0.25975 0.38471 0.94721 0.0
C62 C 0.24507 0.40295 0.94108 0.0
O63 O 0.23262 0.43485 0.94301 0.0
O64 O 0.21416 0.44424 0.96109 0.0
Mg65 Mg 0.6138 0.7566 0.20975 0.0
C66 C 0.64543 0.78469 0.19262 0.0
O67 O 0.63917 0.81521 0.19663 0.0
C68 C 0.64116 0.74442 0.22811 0.0
O69 O 0.61047 0.72713 0.22832 0.0
C70 C 0.60084 0.67843 0.21065 0.0
O71 O 0.63595 0.68037 0.20993 0.0
O72 O 0.58286 0.70734 0.21079 0.0
O73 O 0.6394 0.75571 0.19678 0.0
O74 O 0.58069 0.80474 0.21028 0.0
C75 C 0.59301 0.83166 0.21445 0.0
O76 O 0.62395 0.82866 0.21855 0.0
O77 O 0.65109 0.75883 0.22088 0.0
Mg78 Mg 0.25831 0.10967 0.45935 0.0
C79 C 0.18333 0.08929 0.45631 0.0
O80 O 0.18619 0.12163 0.45299 0.0
C81 C 0.3196 0.05212 0.46077 0.0
O82 O 0.2944 0.02785 0.45983 0.0
C83 C 0.25839 0.12918 0.478 0.0
O84 O 0.26793 0.09538 0.47778 0.0
O85 O 0.25222 0.14502 0.47069 0.0
O86 O 0.21125 0.07477 0.4596 0.0
O87 O 0.25902 0.13505 0.44635 0.0
C88 C 0.26762 0.11331 0.44023 0.0
O89 O 0.27499 0.08012 0.44243 0.0
O90 O 0.3111 0.08502 0.46086 0.0
Mg91 Mg 0.91202 0.7552 0.71093 0.0
C92 C 0.90908 0.76631 0.69182 0.0
O93 O 0.94274 0.772 0.69402 0.0
C94 C 0.86061 0.72354 0.72439 0.0
O95 O 0.8646 0.69554 0.71924 0.0
C96 C 0.92622 0.83289 0.71171 0.0
O97 O 0.89134 0.83131 0.71044 0.0
O98 O 0.94369 0.80379 0.71234 0.0
O99 O 0.88688 0.75831 0.69791 0.0
O100 O 0.94442 0.70666 0.71122 0.0
C101 C 0.93348 0.68016 0.70668 0.0
O102 O 0.90442 0.6839 0.70183 0.0
O103 O 0.87556 0.75279 0.72219 0.0
Mg104 Mg 0.765 0.61113 0.8316 0.0
C105 C 0.82971 0.56681 0.83697 0.0
O106 O 0.82052 0.57884 0.84482 0.0
C107 C 0.7024 0.55658 0.82883 0.0
O108 O 0.72639 0.53653 0.82484 0.0
C109 C 0.76114 0.62725 0.8126 0.0
O110 O 0.75157 0.59355 0.8132 0.0
O111 O 0.76811 0.64415 0.81971 0.0
O112 O 0.80982 0.57402 0.83035 0.0
O113 O 0.77232 0.63988 0.84404 0.0
C114 C 0.7453 0.64683 0.8489 0.0
O115 O 0.713 0.63997 0.84584 0.0
O116 O 0.71184 0.58648 0.83208 0.0
Mg117 Mg 0.40739 0.25792 0.08085 0.0
C118 C 0.383 0.22937 0.09874 0.0
O119 O 0.40165 0.20169 0.09604 0.0
C120 C 0.38785 0.25749 0.06194 0.0
O121 O 0.42145 0.24679 0.06196 0.0
C122 C 0.42128 0.18083 0.07708 0.0
O123 O 0.38637 0.18306 0.07594 0.0
O124 O 0.43855 0.20896 0.07917 0.0
O125 O 0.37926 0.25598 0.09356 0.0
O126 O 0.44032 0.30619 0.08091 0.0
C127 C 0.4288 0.33244 0.08545 0.0
O128 O 0.39926 0.32835 0.09009 0.0
O129 O 0.37267 0.2637 0.06933 0.0
Mg130 Mg 0.7586 0.90501 0.32853 0.0
C131 C 0.70102 0.96578 0.32786 0.0
O132 O 0.72728 0.98755 0.33002 0.0
C133 C 0.82485 0.94757 0.33374 0.0
O134 O 0.81296 0.93955 0.34168 0.0
C135 C 0.77146 0.87546 0.31051 0.0
O136 O 0.78628 0.90723 0.30989 0.0
O137 O 0.75864 0.86563 0.31793 0.0
O138 O 0.70756 0.93271 0.32682 0.0
O139 O 0.759 0.88135 0.34179 0.0
C140 C 0.73978 0.89657 0.34764 0.0
O141 O 0.72034 0.92431 0.34532 0.0
O142 O 0.80651 0.93816 0.32702 0.0
Mg143 Mg 0.10956 0.25893 0.57914 0.0
C144 C 0.11335 0.27023 0.59828 0.0
O145 O 0.07993 0.27753 0.59616 0.0
C146 C 0.16082 0.22901 0.56535 0.0
O147 O 0.1569 0.20014 0.57021 0.0
C148 C 0.09506 0.33634 0.5775 0.0
O149 O 0.13031 0.33492 0.57768 0.0
O150 O 0.07746 0.30724 0.57788 0.0
O151 O 0.13493 0.26129 0.59214 0.0
O152 O 0.07753 0.2102 0.57869 0.0
C153 C 0.08937 0.18319 0.58291 0.0
O154 O 0.11908 0.18656 0.58752 0.0
O155 O 0.14588 0.25785 0.56784 0.0
Mg156 Mg 0.75857 0.90478 0.45976 0.0
C157 C 0.82629 0.94254 0.45399 0.0
O158 O 0.81912 0.9239 0.44684 0.0
C159 C 0.69561 0.96005 0.46128 0.0
O160 O 0.72001 0.9847 0.4598 0.0
C161 C 0.75475 0.87685 0.47811 0.0
O162 O 0.73686 0.90702 0.47864 0.0
O163 O 0.76708 0.86733 0.47061 0.0
O164 O 0.80409 0.94177 0.46041 0.0
O165 O 0.75834 0.87961 0.4467 0.0
C166 C 0.73875 0.89456 0.44086 0.0
O167 O 0.71955 0.92249 0.44315 0.0
O168 O 0.70502 0.92742 0.46169 0.0
Mg169 Mg 0.11319 0.25526 0.70953 0.0
C170 C 0.14296 0.28128 0.69199 0.0
O171 O 0.13194 0.31191 0.69525 0.0
C172 C 0.13352 0.24976 0.72838 0.0
O173 O 0.09976 0.23954 0.72834 0.0
C174 C 0.09901 0.1775 0.7113 0.0
O175 O 0.13424 0.17902 0.71161 0.0
O176 O 0.08149 0.2065 0.71048 0.0
O177 O 0.14056 0.25334 0.69677 0.0
O178 O 0.08037 0.3036 0.70987 0.0
C179 C 0.09376 0.33103 0.71361 0.0
O180 O 0.12567 0.32846 0.71725 0.0
O181 O 0.14842 0.25729 0.72103 0.0
Mg182 Mg 0.76188 0.61334 0.96043 0.0
C183 C 0.69926 0.56762 0.9544 0.0
O184 O 0.71238 0.57629 0.94661 0.0
C185 C 0.8274 0.56766 0.95568 0.0
O186 O 0.81024 0.56426 0.94813 0.0
C187 C 0.76882 0.64057 0.97891 0.0
O188 O 0.7873 0.61071 0.97931 0.0
O189 O 0.75566 0.65011 0.9715 0.0
O190 O 0.71574 0.57775 0.96134 0.0
O191 O 0.75889 0.63905 0.94748 0.0
C192 C 0.78628 0.6479 0.94294 0.0
O193 O 0.81838 0.6445 0.94645 0.0
O194 O 0.813 0.58554 0.9619 0.0
Mg195 Mg 0.41288 0.25688 0.20951 0.0
C196 C 0.36282 0.24881 0.19296 0.0
O197 O 0.34201 0.22916 0.19804 0.0
C198 C 0.35844 0.22654 0.22245 0.0
O199 O 0.36402 0.19773 0.21768 0.0
C200 C 0.42838 0.33383 0.21166 0.0
O201 O 0.39323 0.33298 0.21091 0.0
O202 O 0.44555 0.30444 0.21148 0.0
O203 O 0.39112 0.26266 0.19619 0.0
O204 O 0.44413 0.20746 0.21026 0.0
C205 C 0.43456 0.18098 0.20553 0.0
O206 O 0.40735 0.18486 0.20009 0.0
O207 O 0.37365 0.25558 0.22019 0.0
H208 H 0.86201 0.95951 0.31831 0.0
H209 H 0.92345 0.98201 0.31674 0.0
H210 H 0.93047 0.99564 0.34504 0.0
H211 H 0.86946 0.97264 0.34669 0.0
H212 H 0.95436 0.04569 0.32124 0.0
H213 H 0.01882 0.93561 0.33991 0.0
H214 H 0.97276 0.93357 0.33623 0.0
H215 H 0.98432 0.95763 0.34614 0.0
C216 C 0.87657 0.96742 0.3242 0.0
C217 C 0.86087 0.964 0.33264 0.0
C218 C 0.91173 0.98022 0.32329 0.0
C219 C 0.93189 0.98973 0.33078 0.0
C220 C 0.91582 0.98753 0.33918 0.0
H221 H 0.11865 0.12351 0.33473 0.0
H222 H 0.05895 0.09694 0.33435 0.0
C223 C 0.88078 0.97464 0.3401 0.0
C224 C 0.96956 1.00238 0.32985 0.0
H225 H 0.05518 0.98703 0.33706 0.0
C226 C 0.97644 0.0327 0.32464 0.0
C227 C 0.99855 0.98501 0.33414 0.0
C228 C 0.99337 0.95093 0.33934 0.0
C229 C 0.01124 0.04691 0.32388 0.0
C230 C 0.03984 0.03078 0.3286 0.0
C231 C 0.03321 0.99965 0.33353 0.0
C232 C 0.07646 0.04661 0.32879 0.0
C233 C 0.01702 0.07902 0.31799 0.0
C234 C 0.10652 0.02675 0.32607 0.0
C235 C 0.14099 0.04181 0.32636 0.0
C236 C 0.14598 0.07696 0.32942 0.0
C237 C 0.11583 0.09649 0.33226 0.0
C238 C 0.08154 0.08143 0.33198 0.0
H239 H 0.99586 0.08103 0.31283 0.0
H240 H 0.01582 0.10364 0.32207 0.0
H241 H 0.04363 0.07798 0.31469 0.0
H242 H 0.10327 0.9997 0.32365 0.0
H243 H 0.16364 0.02602 0.32415 0.0
H244 H 0.89219 0.61488 0.58022 0.0
H245 H 0.92186 0.55674 0.57966 0.0
H246 H 0.0245 0.60877 0.57677 0.0
H247 H 0.99506 0.66727 0.57741 0.0
H248 H 0.96471 0.52754 0.56619 0.0
H249 H 0.04037 0.5405 0.59774 0.0
H250 H 1.0036 0.56972 0.59486 0.0
H251 H 0.04715 0.57642 0.59001 0.0
C252 C 0.92111 0.61406 0.57949 0.0
C253 C 0.94128 0.64578 0.57891 0.0
C254 C 0.93799 0.58075 0.57916 0.0
C255 C 0.9754 0.57842 0.57829 0.0
C256 C 0.99565 0.60998 0.5776 0.0
H257 H 0.12584 0.40227 0.57612 0.0
H258 H 0.09607 0.46036 0.57594 0.0
C259 C 0.97876 0.64338 0.57793 0.0
C260 C 0.99302 0.54288 0.57803 0.0
H261 H 0.05302 0.48973 0.58894 0.0
C262 C 0.98396 0.51919 0.57118 0.0
C263 C 0.01807 0.53208 0.58454 0.0
C264 C 0.02773 0.55582 0.59226 0.0
C265 C 0.99976 0.48518 0.57057 0.0
C266 C 0.02479 0.47437 0.5771 0.0
C267 C 0.03383 0.49808 0.58395 0.0
C268 C 0.04234 0.43877 0.5769 0.0
C269 C 0.99012 0.46146 0.56286 0.0
C270 C 0.02201 0.40723 0.57753 0.0
C271 C 0.03897 0.37383 0.57761 0.0
C272 C 0.07661 0.37142 0.57713 0.0
C273 C 0.09682 0.4031 0.57649 0.0
C274 C 0.07986 0.43639 0.5764 0.0
H275 H 0.97799 0.47692 0.55733 0.0
H276 H 0.01413 0.44714 0.56033 0.0
H277 H 0.97023 0.44124 0.56506 0.0
H278 H 0.99305 0.40846 0.57811 0.0
H279 H 0.02265 0.34998 0.57816 0.0
H280 H 0.64798 0.58793 0.83817 0.0
H281 H 0.58467 0.57091 0.8385 0.0
H282 H 0.60637 0.48422 0.82049 0.0
H283 H 0.67 0.50051 0.82029 0.0
H284 H 0.53623 0.56895 0.82525 0.0
H285 H 0.55079 0.43322 0.8396 0.0
H286 H 0.58714 0.46511 0.83948 0.0
H287 H 0.57663 0.43971 0.8297 0.0
C288 C 0.63939 0.56503 0.83433 0.0
C289 C 0.66416 0.54545 0.82924 0.0
C290 C 0.60312 0.55538 0.83452 0.0
C291 C 0.59075 0.52597 0.82963 0.0
C292 C 0.61536 0.50647 0.82449 0.0
H293 H 0.37795 0.43686 0.82047 0.0
H294 H 0.44114 0.45434 0.8194 0.0
C295 C 0.65175 0.51594 0.82435 0.0
C296 C 0.55193 0.51652 0.82971 0.0
H297 H 0.49294 0.44886 0.83421 0.0
C298 C 0.52679 0.54273 0.82724 0.0
C299 C 0.53954 0.4823 0.83232 0.0
C300 C 0.56488 0.45357 0.83551 0.0
C301 C 0.48975 0.53553 0.82723 0.0
C302 C 0.47749 0.50131 0.82979 0.0
C303 C 0.50251 0.47504 0.83221 0.0
C304 C 0.43871 0.49237 0.83014 0.0
C305 C 0.46395 0.56438 0.82437 0.0
C306 C 0.41638 0.50808 0.83653 0.0
C307 C 0.38027 0.49802 0.83721 0.0
C308 C 0.36579 0.47212 0.83148 0.0
C309 C 0.38814 0.45699 0.82496 0.0
C310 C 0.4243 0.46685 0.82435 0.0
H311 H 0.47787 0.58676 0.82095 0.0
H312 H 0.44315 0.5533 0.81987 0.0
H313 H 0.45012 0.57528 0.83029 0.0
H314 H 0.42711 0.52756 0.84113 0.0
H315 H 0.36388 0.51016 0.8423 0.0
H316 H 0.4935 0.16644 0.07798 0.0
H317 H 0.52275 0.10787 0.07717 0.0
H318 H 0.4194 0.05725 0.07423 0.0
H319 H 0.39014 0.11547 0.07481 0.0
H320 H 0.51567 0.05068 0.08803 0.0
H321 H 0.474 0.01219 0.05413 0.0
H322 H 0.46929 0.05717 0.05827 0.0
H323 H 0.43666 0.02352 0.06108 0.0
C324 C 0.47705 0.14285 0.07708 0.0
C325 C 0.43949 0.14569 0.0764 0.0
C326 C 0.49379 0.10939 0.07662 0.0
C327 C 0.47334 0.07816 0.07547 0.0
C328 C 0.43586 0.08097 0.07487 0.0
H329 H 0.52053 0.8503 0.0779 0.0
H330 H 0.49141 0.90916 0.07757 0.0
C331 C 0.41914 0.11435 0.07527 0.0
C332 C 0.49098 0.04252 0.07529 0.0
H333 H 0.4989 0.96588 0.06313 0.0
C334 C 0.51221 0.03228 0.08255 0.0
C335 C 0.48644 0.01843 0.06814 0.0
C336 C 0.46566 0.02848 0.05993 0.0
C337 C 0.52846 0.99844 0.08292 0.0
C338 C 0.52348 0.97428 0.07584 0.0
C339 C 0.50238 0.98443 0.06857 0.0
C340 C 0.54083 0.93866 0.07579 0.0
C341 C 0.55045 0.98847 0.09095 0.0
C342 C 0.5781 0.93586 0.07476 0.0
C343 C 0.59475 0.90242 0.07488 0.0
C344 C 0.57444 0.87105 0.07608 0.0
C345 C 0.53695 0.87392 0.07699 0.0
C346 C 0.52027 0.90748 0.0768 0.0
H347 H 0.54635 1.0074 0.09652 0.0
H348 H 0.54355 0.96108 0.09322 0.0
H349 H 0.57935 0.98868 0.08916 0.0
H350 H 0.59436 0.95963 0.07389 0.0
H351 H 0.62365 0.90124 0.07415 0.0
H352 H 0.12571 0.40728 0.97281 0.0
H353 H 0.06548 0.4325 0.97153 0.0
H354 H 0.10577 0.51426 0.954 0.0
H355 H 0.16649 0.48962 0.95542 0.0
H356 H 0.05754 0.54091 0.96592 0.0
H357 H 1.00196 0.41949 0.95004 0.0
H358 H 0.02224 0.41051 0.96058 0.0
H359 H 0.04952 0.42627 0.95155 0.0
C360 C 0.12186 0.43076 0.96872 0.0
C361 C 0.15088 0.44626 0.96415 0.0
C362 C 0.08732 0.445 0.96795 0.0
C363 C 0.08091 0.47472 0.96249 0.0
C364 C 0.11004 0.49111 0.95819 0.0
H365 H 0.8699 0.53691 0.94302 0.0
H366 H 0.93165 0.51569 0.94462 0.0
C367 C 0.14473 0.47704 0.95901 0.0
C368 C 0.04378 0.48836 0.96122 0.0
H369 H 0.95967 0.46331 0.95466 0.0
C370 C 0.03616 0.52401 0.96342 0.0
C371 C 0.01599 0.46648 0.95782 0.0
C372 C 0.02284 0.42868 0.95477 0.0
C373 C 1.00139 0.53813 0.96249 0.0
C374 C 0.97327 0.51575 0.95945 0.0
C375 C 0.98108 0.48033 0.95709 0.0
C376 C 0.93566 0.52862 0.95856 0.0
C377 C 0.9953 0.57706 0.9646 0.0
C378 C 0.91706 0.54235 0.96589 0.0
C379 C 0.88179 0.5547 0.96499 0.0
C380 C 0.86421 0.55312 0.95675 0.0
C381 C 0.8826 0.53852 0.94946 0.0
C382 C 0.91795 0.52641 0.95037 0.0
H383 H 0.02071 0.59259 0.9643 0.0
H384 H 0.97571 0.58926 0.95995 0.0
H385 H 0.98447 0.57942 0.97142 0.0
H386 H 0.92977 0.54343 0.97234 0.0
H387 H 0.86833 0.56552 0.97075 0.0
H388 H 0.39841 0.40029 0.21232 0.0
H389 H 0.42903 0.45796 0.21263 0.0
H390 H 0.53152 0.40444 0.2128 0.0
H391 H 0.50105 0.34636 0.21238 0.0
H392 H 0.47755 0.4861 0.22501 0.0
H393 H 0.53961 0.47343 0.1917 0.0
H394 H 0.50387 0.44449 0.19543 0.0
H395 H 0.54907 0.43729 0.19918 0.0
C396 C 0.42749 0.40066 0.21243 0.0
C397 C 0.44729 0.36865 0.21227 0.0
C398 C 0.44493 0.43371 0.21262 0.0
C399 C 0.48253 0.43552 0.2126 0.0
C400 C 0.50246 0.40366 0.21264 0.0
H401 H 0.63267 0.61278 0.21095 0.0
H402 H 0.60374 0.55434 0.21182 0.0
C403 C 0.485 0.37049 0.21246 0.0
C404 C 0.50064 0.47087 0.21251 0.0
H405 H 0.55553 0.52425 0.2001 0.0
C406 C 0.49459 0.49449 0.21957 0.0
C407 C 0.52278 0.48176 0.20538 0.0
C408 C 0.52907 0.45811 0.19745 0.0
C409 C 0.51049 0.52855 0.21976 0.0
C410 C 0.53249 0.53951 0.21262 0.0
C411 C 0.53865 0.51581 0.20557 0.0
C412 C 0.54968 0.57531 0.21232 0.0
C413 C 0.50417 0.55222 0.22769 0.0
C414 C 0.52888 0.60663 0.21225 0.0
C415 C 0.54537 0.64023 0.21177 0.0
C416 C 0.58297 0.64308 0.21128 0.0
C417 C 0.60365 0.61162 0.21132 0.0
C418 C 0.58717 0.57813 0.21182 0.0
H419 H 0.49476 0.53666 0.23352 0.0
H420 H 0.52903 0.56681 0.22955 0.0
H421 H 0.48321 0.57221 0.22605 0.0
H422 H 0.49985 0.60508 0.21245 0.0
H423 H 0.52865 0.6639 0.2117 0.0
H424 H 0.34858 0.98456 0.461 0.0
H425 H 0.41224 0.96824 0.46187 0.0
H426 H 0.44113 0.07977 0.46269 0.0
H427 H 0.37787 0.09629 0.46199 0.0
H428 H 0.46688 0.9848 0.45034 0.0
H429 H 0.49731 0.04047 0.4835 0.0
H430 H 0.45197 0.03426 0.47957 0.0
H431 H 0.47763 0.07258 0.47612 0.0
C432 C 0.36846 1.00561 0.46144 0.0
C433 C 0.35802 0.04174 0.46147 0.0
C434 C 0.40485 0.99623 0.46193 0.0
C435 C 0.43148 0.02276 0.4625 0.0
C436 C 0.4211 0.0588 0.46248 0.0
H437 H 0.66498 0.02683 0.4609 0.0
H438 H 0.60084 0.04162 0.46129 0.0
C439 C 0.38483 0.06819 0.46202 0.0
C440 C 0.47018 0.01292 0.46275 0.0
H441 H 0.54759 0.02374 0.47464 0.0
C442 C 0.48444 0.99305 0.45569 0.0
C443 C 0.49317 0.0238 0.46972 0.0
C444 C 0.47922 0.04366 0.4777 0.0
C445 C 0.52114 0.98444 0.45532 0.0
C446 C 0.54415 0.99563 0.46224 0.0
C447 C 0.52992 0.01535 0.46932 0.0
C448 C 0.58302 0.98674 0.46228 0.0
C449 C 0.5352 0.96413 0.44742 0.0
C450 C 0.59426 0.95106 0.46289 0.0
C451 C 0.6308 0.94253 0.46271 0.0
C452 C 0.65695 0.96954 0.46191 0.0
C453 C 0.64561 1.00537 0.46149 0.0
C454 C 0.60897 0.01388 0.46171 0.0
H455 H 0.51605 0.96476 0.44178 0.0
H456 H 0.56132 0.97525 0.44519 0.0
H457 H 0.5395 0.93579 0.44932 0.0
H458 H 0.57472 0.92975 0.46349 0.0
H459 H 0.63848 0.91466 0.46309 0.0
H460 H 0.12957 0.1116 0.71309 0.0
H461 H 0.09964 0.05354 0.7134 0.0
H462 H 0.99682 0.10548 0.7109 0.0
H463 H 0.02661 0.16388 0.71048 0.0
H464 H 0.04795 0.02723 0.72516 0.0
H465 H 0.99564 0.03211 0.69073 0.0
H466 H 0.0298 0.06235 0.69469 0.0
H467 H 0.98348 0.0697 0.69748 0.0
C468 C 0.10057 0.11078 0.71259 0.0
C469 C 0.0805 0.14243 0.71171 0.0
C470 C 0.08352 0.07751 0.71278 0.0
C471 C 0.04607 0.07513 0.71204 0.0
C472 C 0.02583 0.10667 0.71131 0.0
H473 H 0.89543 0.8989 0.71072 0.0
H474 H 0.92505 0.95706 0.71116 0.0
C475 C 0.04288 0.14003 0.71112 0.0
C476 C 0.02836 0.03958 0.7121 0.0
H477 H 0.97669 0.98348 0.69962 0.0
C478 C 0.03243 0.01759 0.71957 0.0
C479 C 1.00821 0.02706 0.70479 0.0
C480 C 1.0042 0.04884 0.69643 0.0
C481 C 0.01636 0.98364 0.72 0.0
C482 C 0.9962 0.97113 0.71269 0.0
C483 C 0.99215 0.99313 0.70522 0.0
C484 C 0.97857 0.93553 0.71269 0.0
C485 C 0.02042 0.96181 0.72835 0.0
C486 C 0.99886 0.904 0.71336 0.0
C487 C 0.98196 0.87055 0.71313 0.0
C488 C 0.94448 0.86808 0.71217 0.0
C489 C 0.92433 0.89977 0.71149 0.0
C490 C 0.94121 0.93309 0.71172 0.0
H491 H 0.02881 0.97855 0.73406 0.0
H492 H 0.9949 0.9481 0.73006 0.0
H493 H 0.0413 0.9411 0.7273 0.0
H494 H 0.02782 0.90523 0.71394 0.0
H495 H 0.99828 0.84669 0.71362 0.0
H496 H 0.67605 0.0343 0.32998 0.0
H497 H 0.61352 0.05469 0.32949 0.0
H498 H 0.57862 0.94739 0.3237 0.0
H499 H 0.64074 0.92671 0.32423 0.0
H500 H 0.56232 0.04905 0.31538 0.0
H501 H 0.5181 0.97563 0.34548 0.0
H502 H 0.56485 0.98309 0.34291 0.0
H503 H 0.5401 0.9488 0.33725 0.0
C504 C 0.65509 0.01504 0.32859 0.0
C505 C 0.66346 0.97883 0.3272 0.0
C506 C 0.61938 0.02674 0.32831 0.0
C507 C 0.59139 1.00244 0.3267 0.0
C508 C 0.59972 0.96646 0.32512 0.0
H509 H 0.35735 0.02665 0.32523 0.0
H510 H 0.41867 1.00268 0.32447 0.0
C511 C 0.63533 0.95476 0.32538 0.0
C512 C 0.55349 0.01469 0.32661 0.0
H513 H 0.47299 1.00512 0.33722 0.0
C514 C 0.54279 0.03952 0.32016 0.0
C515 C 0.528 1.00199 0.33281 0.0
C516 C 0.53826 0.97613 0.34006 0.0
C517 C 0.50721 0.05186 0.31971 0.0
C518 C 0.48182 0.03959 0.326 0.0
C519 C 0.49243 0.01442 0.33239 0.0
C520 C 0.44463 0.05388 0.32634 0.0
C521 C 0.49703 0.07756 0.31243 0.0
C522 C 0.43888 0.09044 0.32777 0.0
C523 C 0.40407 0.10415 0.32819 0.0
C524 C 0.3741 0.08155 0.32726 0.0
C525 C 0.37983 0.04479 0.32594 0.0
C526 C 0.41483 0.03106 0.32551 0.0
H527 H 0.51587 0.07585 0.30674 0.0
H528 H 0.46937 0.07235 0.31 0.0
H529 H 0.49809 0.10527 0.31502 0.0
H530 H 0.46139 0.10843 0.32865 0.0
H531 H 0.40074 0.13255 0.32929 0.0
H532 H 0.99261 0.85219 0.5827 0.0
H533 H 0.02014 0.91159 0.58371 0.0
H534 H 0.92842 0.95754 0.5705 0.0
H535 H 0.90051 0.89865 0.56962 0.0
H536 H 0.03897 0.96063 0.57077 0.0
H537 H 0.93468 0.01748 0.59286 0.0
H538 H 0.93838 0.97017 0.59075 0.0
H539 H 0.91693 0.999 0.58281 0.0
C540 C 0.97837 0.87494 0.57999 0.0
C541 C 0.94422 0.87072 0.57615 0.0
C542 C 0.99411 0.90886 0.58057 0.0
C543 C 0.97597 0.93911 0.57735 0.0
C544 C 0.94248 0.93475 0.57325 0.0
H545 H 0.0268 0.16618 0.57424 0.0
H546 H 0.99935 0.10687 0.57274 0.0
C547 C 0.92667 0.90097 0.5727 0.0
C548 C 0.99204 0.97525 0.57825 0.0
H549 H 0.97704 0.05838 0.58685 0.0
C550 C 0.02553 0.98195 0.57432 0.0
C551 C 0.97443 1.00306 0.58289 0.0
C552 C 0.93929 0.99707 0.58764 0.0
C553 C 0.0416 0.01586 0.57478 0.0
C554 C 0.02388 0.04366 0.57937 0.0
C555 C 0.99041 0.03703 0.5833 0.0
C556 C 0.04015 0.07959 0.58037 0.0
C557 C 0.07717 0.02189 0.57024 0.0
C558 C 0.07174 0.08391 0.5853 0.0
C559 C 0.08734 0.11766 0.58621 0.0
C560 C 0.07164 0.14782 0.58221 0.0
C561 C 0.03961 0.1435 0.57739 0.0
C562 C 0.02391 0.10967 0.57652 0.0
H563 H 0.08314 1.00061 0.56533 0.0
H564 H 0.07758 0.04818 0.56682 0.0
H565 H 0.09889 0.02187 0.57527 0.0
H566 H 0.08434 0.06112 0.58846 0.0
H567 H 0.11192 0.11998 0.59 0.0
H568 H 0.12489 0.393 0.83568 0.0
H569 H 0.06497 0.41886 0.83582 0.0
H570 H 0.10668 0.51673 0.82475 0.0
H571 H 0.16743 0.49113 0.82478 0.0
H572 H 0.0603 0.52946 0.83821 0.0
H573 H 0.9985 0.43298 0.81508 0.0
H574 H 0.01965 0.41088 0.82424 0.0
H575 H 0.04647 0.43632 0.81656 0.0
C576 C 0.12145 0.42 0.83322 0.0
C577 C 0.15099 0.43991 0.83015 0.0
C578 C 0.08701 0.43466 0.83326 0.0
C579 C 0.08108 0.46942 0.83009 0.0
C580 C 0.11056 0.48969 0.82714 0.0
H581 H 0.86343 0.55082 0.82132 0.0
H582 H 0.92467 0.52858 0.81931 0.0
C583 C 0.14524 0.47506 0.82716 0.0
C584 C 0.04422 0.48469 0.83019 0.0
H585 H 0.95776 0.46754 0.82391 0.0
C586 C 0.03794 0.51613 0.83501 0.0
C587 C 0.01507 0.46767 0.82589 0.0
C588 C 0.02029 0.43532 0.82007 0.0
C589 C 1.00317 0.53023 0.83592 0.0
C590 C 0.97371 0.5119 0.83209 0.0
C591 C 0.98019 0.48125 0.82698 0.0
C592 C 0.93601 0.52403 0.83333 0.0
C593 C 0.99844 0.56482 0.84091 0.0
C594 C 0.92155 0.52779 0.84186 0.0
C595 C 0.88662 0.54065 0.84303 0.0
C596 C 0.86519 0.54955 0.83568 0.0
C597 C 0.87917 0.54424 0.82713 0.0
C598 C 0.91424 0.53162 0.82597 0.0
H599 H 0.02364 0.58072 0.841 0.0
H600 H 0.97679 0.58138 0.83796 0.0
H601 H 0.99114 0.55878 0.84788 0.0
H602 H 0.9374 0.52107 0.84764 0.0
H603 H 0.87662 0.54411 0.84971 0.0
H604 H 0.58536 0.63174 0.09799 0.0
H605 H 0.55985 0.57188 0.09688 0.0
H606 H 0.51352 0.5988 0.07156 0.0
H607 H 0.53836 0.65933 0.07272 0.0
H608 H 0.46681 0.56201 0.08175 0.0
H609 H 0.59739 0.49171 0.08164 0.0
H610 H 0.59249 0.51997 0.09115 0.0
H611 H 0.59381 0.53948 0.08024 0.0
C612 C 0.5697 0.62503 0.09218 0.0
C613 C 0.56412 0.65028 0.08541 0.0
C614 C 0.55537 0.59063 0.09152 0.0
C615 C 0.53558 0.58048 0.08402 0.0
C616 C 0.52904 0.60591 0.07736 0.0
H617 H 0.48147 0.35552 0.07404 0.0
H618 H 0.50712 0.41578 0.07299 0.0
C619 C 0.54318 0.64052 0.07804 0.0
C620 C 0.52121 0.54352 0.08327 0.0
H621 H 0.54548 0.45558 0.08448 0.0
C622 C 0.48406 0.53874 0.08226 0.0
C623 C 0.54374 0.51309 0.08375 0.0
C624 C 0.5841 0.51626 0.08416 0.0
C625 C 0.4687 0.50445 0.08208 0.0
C626 C 0.49101 0.47409 0.08315 0.0
C627 C 0.5283 0.47882 0.0838 0.0
C628 C 0.47607 0.43733 0.08386 0.0
C629 C 0.42872 0.50115 0.08067 0.0
C630 C 0.45086 0.42913 0.09046 0.0
C631 C 0.43606 0.39491 0.09104 0.0
C632 C 0.44656 0.36789 0.08512 0.0
C633 C 0.4728 0.37573 0.0787 0.0
C634 C 0.48741 0.41017 0.07808 0.0
H635 H 0.41775 0.52488 0.07716 0.0
H636 H 0.42198 0.47687 0.07679 0.0
H637 H 0.41517 0.49934 0.0872 0.0
H638 H 0.44251 0.44927 0.09518 0.0
H639 H 0.41623 0.3897 0.09613 0.0
H640 H 0.36085 0.49264 0.96244 0.0
H641 H 0.42185 0.51741 0.96239 0.0
H642 H 0.4622 0.41893 0.95143 0.0
H643 H 0.40179 0.39387 0.95159 0.0
H644 H 0.50297 0.44253 0.96529 0.0
H645 H 0.47965 0.55214 0.94113 0.0
H646 H 0.45008 0.55257 0.95053 0.0
H647 H 0.44798 0.51622 0.94277 0.0
C648 C 0.3827 0.47637 0.95997 0.0
C649 C 0.3764 0.4413 0.957 0.0
C650 C 0.41753 0.49061 0.95991 0.0
C651 C 0.44656 0.47016 0.95681 0.0
C652 C 0.44024 0.43522 0.95384 0.0
H653 H 0.65788 0.54162 0.94091 0.0
H654 H 0.59724 0.51694 0.94185 0.0
C655 C 0.4056 0.42096 0.95393 0.0
C656 C 0.48374 0.48458 0.95677 0.0
H657 H 0.53672 0.55022 0.94801 0.0
C658 C 0.51036 0.46612 0.96152 0.0
C659 C 0.49342 0.51508 0.95177 0.0
C660 C 0.46641 0.53503 0.94619 0.0
C661 C 0.54637 0.47729 0.9614 0.0
C662 C 0.55594 0.50819 0.95653 0.0
C663 C 0.52932 0.52665 0.95178 0.0
C664 C 0.59351 0.52146 0.95611 0.0
C665 C 0.57398 0.45534 0.9663 0.0
C666 C 0.61173 0.53201 0.96381 0.0
C667 C 0.64657 0.54591 0.96331 0.0
C668 C 0.66372 0.54989 0.95506 0.0
C669 C 0.64553 0.53889 0.94736 0.0
C670 C 0.61079 0.52488 0.94789 0.0
H671 H 0.56416 0.42783 0.96766 0.0
H672 H 0.59939 0.45355 0.96248 0.0
H673 H 0.57993 0.46825 0.97275 0.0
H674 H 0.59871 0.53028 0.97021 0.0
H675 H 0.65966 0.55438 0.96935 0.0
H676 H 0.53374 0.8508 0.20469 0.0
H677 H 0.5069 0.91043 0.20341 0.0
H678 H 0.58375 0.95141 0.22219 0.0
H679 H 0.61097 0.89231 0.22342 0.0
H680 H 0.47649 0.95535 0.21618 0.0
H681 H 0.59676 0.01825 0.20106 0.0
H682 H 0.59151 0.97043 0.20195 0.0
H683 H 0.6055 0.99614 0.21139 0.0
C684 C 0.54482 0.87248 0.20858 0.0
C685 C 0.5747 0.86683 0.2141 0.0
C686 C 0.52949 0.90653 0.20783 0.0
C687 C 0.54382 0.93552 0.21256 0.0
C688 C 0.57282 0.92965 0.21831 0.0
H689 H 0.49052 0.162 0.21645 0.0
H690 H 0.51685 0.10237 0.21834 0.0
C691 C 0.5882 0.89573 0.21904 0.0
C692 C 0.52851 0.97192 0.21151 0.0
H693 H 0.5496 0.05728 0.20531 0.0
C694 C 0.49241 0.97761 0.21377 0.0
C695 C 0.54937 1.00095 0.20838 0.0
C696 C 0.58784 0.99619 0.20547 0.0
C697 C 0.47675 0.01166 0.2131 0.0
C698 C 0.49762 0.04066 0.20997 0.0
C699 C 0.53373 0.03502 0.20774 0.0
C700 C 0.48215 0.07686 0.20875 0.0
C701 C 0.43815 0.01646 0.21588 0.0
C702 C 0.45448 0.08238 0.2026 0.0
C703 C 0.4395 0.11631 0.20149 0.0
C704 C 0.45197 0.14553 0.20648 0.0
C705 C 0.48024 0.14009 0.21251 0.0
C706 C 0.49529 0.10605 0.2136 0.0
H707 H 0.42883 0.99421 0.22019 0.0
H708 H 0.43447 0.04206 0.21948 0.0
H709 H 0.42085 0.01703 0.2099 0.0
H710 H 0.44444 0.06039 0.19865 0.0
H711 H 0.41791 0.1195 0.19675 0.0
H712 H 0.87646 0.95295 0.44109 0.0
H713 H 0.93719 0.97647 0.44271 0.0
H714 H 0.91824 0.99474 0.47051 0.0
H715 H 0.85688 0.97174 0.46891 0.0
H716 H 0.95391 0.0503 0.4628 0.0
H717 H 0.02039 0.92317 0.45388 0.0
H718 H 0.98945 0.93773 0.44552 0.0
H719 H 0.97306 0.92591 0.45635 0.0
C720 C 0.88504 0.96213 0.44755 0.0
C721 C 0.86182 0.9602 0.45489 0.0
C722 C 0.91996 0.97528 0.44848 0.0
C723 C 0.93267 0.98644 0.45678 0.0
C724 C 0.90915 0.98588 0.46406 0.0
H725 H 0.16321 0.02819 0.46526 0.0
H726 H 0.10263 1.00241 0.46626 0.0
C727 C 0.87405 0.97285 0.46313 0.0
C728 C 0.97036 0.99904 0.45778 0.0
H729 H 0.05747 0.97557 0.45364 0.0
C730 C 0.97657 0.03383 0.46088 0.0
C731 C 1.00006 0.97731 0.45546 0.0
C732 C 0.99549 0.93883 0.45271 0.0
C733 C 0.01146 0.04802 0.46135 0.0
C734 C 0.04093 0.02714 0.45845 0.0
C735 C 0.03489 0.99178 0.45574 0.0
C736 C 0.07786 0.04209 0.45779 0.0
C737 C 0.01637 0.0853 0.46495 0.0
C738 C 0.08429 0.07228 0.45251 0.0
C739 C 0.11865 0.08703 0.45196 0.0
C740 C 0.14762 0.07168 0.45658 0.0
C741 C 0.14148 0.04068 0.46163 0.0
C742 C 0.10687 0.02599 0.46223 0.0
H743 H 0.994 0.09281 0.46945 0.0
H744 H 0.04209 0.08786 0.46862 0.0
H745 H 0.01658 0.10462 0.45937 0.0
H746 H 0.06265 0.08455 0.44881 0.0
H747 H 0.12242 0.11066 0.44791 0.0
H748 H 0.11405 0.39262 0.72184 0.0
H749 H 0.08581 0.45133 0.7209 0.0
H750 H 1.00412 0.40825 0.7037 0.0
H751 H 0.03195 0.34907 0.70473 0.0
H752 H 0.07555 0.49215 0.70599 0.0
H753 H 0.94489 0.46206 0.72202 0.0
H754 H 0.98297 0.43239 0.72277 0.0
H755 H 0.95574 0.43307 0.71294 0.0
C756 C 0.08987 0.39546 0.71792 0.0
C757 C 0.0752 0.36607 0.71338 0.0
C758 C 0.07379 0.42911 0.71738 0.0
C759 C 0.04265 0.43415 0.71231 0.0
C760 C 0.02774 0.40485 0.7078 0.0
H761 H 0.91462 0.61866 0.69817 0.0
H762 H 0.94227 0.55975 0.69948 0.0
C763 C 0.04377 0.37106 0.70836 0.0
C764 C 0.02682 0.47043 0.71147 0.0
H765 H 0.95044 0.51877 0.71507 0.0
C766 C 0.04825 0.49802 0.70801 0.0
C767 C 0.9912 0.47804 0.71412 0.0
C768 C 0.96741 0.44994 0.71825 0.0
C769 C 0.03484 0.53286 0.70699 0.0
C770 C 0.9992 0.54042 0.7096 0.0
C771 C 0.97776 0.51287 0.71306 0.0
C772 C 0.9834 0.57664 0.70868 0.0
C773 C 0.05864 0.56111 0.70293 0.0
C774 C 0.99733 0.60575 0.71344 0.0
C775 C 0.98157 0.63961 0.7127 0.0
C776 C 0.95149 0.64488 0.70722 0.0
C777 C 0.93778 0.61563 0.70244 0.0
C778 C 0.95349 0.58187 0.70319 0.0
H779 H 0.08193 0.54922 0.6994 0.0
H780 H 0.04331 0.57797 0.6982 0.0
H781 H 0.06914 0.5787 0.70824 0.0
H782 H 0.02006 0.60217 0.71783 0.0
H783 H 0.99267 0.66149 0.71651 0.0
H784 H 0.24512 0.17452 0.35473 0.0
H785 H 0.24591 0.19052 0.37054 0.0
H786 H 0.3 0.09154 0.37653 0.0
H787 H 0.29945 0.07554 0.36093 0.0
H788 H 0.2151 0.1499 0.38481 0.0
H789 H 0.36139 0.16683 0.38932 0.0
H790 H 0.34018 0.16829 0.37856 0.0
H791 H 0.35057 0.12606 0.38368 0.0
C792 C 0.25751 0.15642 0.35942 0.0
C793 C 0.27228 0.12379 0.35656 0.0
C794 C 0.25789 0.16556 0.36844 0.0
C795 C 0.27354 0.14247 0.37468 0.0
C796 C 0.28846 0.11011 0.37181 0.0
H797 H 0.29219 0.07398 0.4264 0.0
H798 H 0.29283 0.08969 0.41076 0.0
C799 C 0.28788 0.1009 0.36287 0.0
C800 C 0.27283 0.15048 0.38431 0.0
H801 H 0.32747 0.15141 0.40245 0.0
C802 C 0.23959 0.15127 0.38868 0.0
C803 C 0.30484 0.15242 0.38932 0.0
C804 C 0.34126 0.15373 0.38497 0.0
C805 C 0.23762 0.15092 0.39799 0.0
C806 C 0.26972 0.15008 0.40299 0.0
C807 C 0.30288 0.15187 0.3986 0.0
C808 C 0.26968 0.14212 0.41261 0.0
C809 C 0.20137 0.14885 0.40241 0.0
C810 C 0.2567 0.16662 0.41889 0.0
C811 C 0.25635 0.15772 0.42792 0.0
C812 C 0.26887 0.12414 0.43079 0.0
C813 C 0.2822 0.10001 0.42446 0.0
C814 C 0.28269 0.10896 0.41549 0.0
H815 H 0.1791 0.14668 0.39754 0.0
H816 H 0.2003 0.12544 0.40693 0.0
H817 H 0.19704 0.17319 0.40646 0.0
H818 H 0.24684 0.19252 0.41679 0.0
H819 H 0.24595 0.17689 0.43264 0.0
H820 H 0.84348 0.74805 0.60641 0.0
H821 H 0.82849 0.74986 0.62229 0.0
H822 H 0.93281 0.79431 0.62794 0.0
H823 H 0.94787 0.79271 0.61228 0.0
H824 H 0.86757 0.71564 0.63653 0.0
H825 H 0.86301 0.86233 0.64077 0.0
H826 H 0.859 0.84108 0.63007 0.0
H827 H 0.9025 0.84787 0.63498 0.0
C828 C 0.86304 0.75849 0.61105 0.0
C829 C 0.89684 0.77032 0.60807 0.0
C830 C 0.85445 0.75946 0.6201 0.0
C831 C 0.87933 0.77276 0.62627 0.0
C832 C 0.91293 0.78462 0.62328 0.0
H833 H 0.94991 0.7886 0.67797 0.0
H834 H 0.93419 0.79002 0.66234 0.0
C835 C 0.92157 0.78346 0.61431 0.0
C836 C 0.87165 0.77294 0.6359 0.0
H837 H 0.87557 0.82775 0.65393 0.0
C838 C 0.8683 0.74015 0.64035 0.0
C839 C 0.87247 0.80499 0.64085 0.0
C840 C 0.87407 0.84109 0.63641 0.0
C841 C 0.86876 0.73843 0.64966 0.0
C842 C 0.87227 0.77037 0.65459 0.0
C843 C 0.87307 0.80327 0.65013 0.0
C844 C 0.88025 0.77001 0.66422 0.0
C845 C 0.86805 0.7024 0.65415 0.0
C846 C 0.85492 0.7586 0.67051 0.0
C847 C 0.86385 0.75778 0.67954 0.0
C848 C 0.89827 0.7683 0.68238 0.0
C849 C 0.92322 0.78017 0.67604 0.0
C850 C 0.91427 0.7811 0.66708 0.0
H851 H 0.86897 0.68002 0.64933 0.0
H852 H 0.89114 0.69982 0.65876 0.0
H853 H 0.84308 0.69986 0.65811 0.0
H854 H 0.82836 0.7503 0.66843 0.0
H855 H 0.84403 0.74855 0.68426 0.0
H856 H 0.22048 0.43874 0.8622 0.0
H857 H 0.22042 0.42175 0.87776 0.0
H858 H 0.28209 0.32749 0.87164 0.0
H859 H 0.28241 0.34444 0.85588 0.0
H860 H 0.19507 0.35445 0.88568 0.0
H861 H 0.34039 0.38243 0.89135 0.0
H862 H 0.31676 0.40073 0.88194 0.0
H863 H 0.32754 0.35407 0.88225 0.0
C864 C 0.23403 0.41431 0.86411 0.0
C865 C 0.25163 0.39303 0.85779 0.0
C866 C 0.23385 0.4046 0.87302 0.0
C867 C 0.25142 0.37353 0.87586 0.0
C868 C 0.26863 0.35176 0.86958 0.0
H869 H 0.28038 0.34574 0.93361 0.0
H870 H 0.2815 0.32906 0.91785 0.0
C871 C 0.26867 0.36141 0.8606 0.0
C872 C 0.25188 0.36505 0.88544 0.0
H873 H 0.30437 0.37309 0.90388 0.0
C874 C 0.21911 0.35774 0.88965 0.0
C875 C 0.28331 0.36908 0.8906 0.0
C876 C 0.3191 0.37713 0.88637 0.0
C877 C 0.21655 0.35639 0.89892 0.0
C878 C 0.24743 0.36325 0.9041 0.0
C879 C 0.28071 0.36797 0.89989 0.0
C880 C 0.24481 0.37071 0.91373 0.0
C881 C 0.18051 0.34887 0.90308 0.0
C882 C 0.22397 0.39964 0.91662 0.0
C883 C 0.22339 0.40923 0.92553 0.0
C884 C 0.24379 0.39022 0.9318 0.0
C885 C 0.26421 0.36076 0.92895 0.0
C886 C 0.26493 0.35125 0.91996 0.0
H887 H 0.1635 0.33227 0.89865 0.0
H888 H 0.18344 0.33497 0.90954 0.0
H889 H 0.16627 0.37451 0.9042 0.0
H890 H 0.2089 0.41557 0.91192 0.0
H891 H 0.20741 0.43209 0.92748 0.0
H892 H 0.63811 0.84505 0.10965 0.0
H893 H 0.6491 0.84288 0.12557 0.0
H894 H 0.66304 0.72863 0.12414 0.0
H895 H 0.65262 0.73062 0.10813 0.0
H896 H 0.60604 0.80655 0.13716 0.0
H897 H 0.74649 0.75825 0.14005 0.0
H898 H 0.72835 0.77584 0.12984 0.0
H899 H 0.71802 0.73095 0.13324 0.0
C900 C 0.64416 0.8195 0.11267 0.0
C901 C 0.64437 0.78798 0.10761 0.0
C902 C 0.65043 0.81832 0.12179 0.0
C903 C 0.65715 0.78565 0.12605 0.0
C904 C 0.65862 0.75424 0.12098 0.0
H905 H 0.65453 0.72633 0.18184 0.0
H906 H 0.66037 0.72611 0.16568 0.0
C907 C 0.65248 0.75541 0.11183 0.0
C908 C 0.6591 0.78432 0.13587 0.0
H909 H 0.71244 0.76086 0.15338 0.0
C910 C 0.62942 0.79676 0.1407 0.0
C911 C 0.68948 0.77123 0.14048 0.0
C912 C 0.72255 0.75857 0.13566 0.0
C913 C 0.62916 0.79634 0.14998 0.0
C914 C 0.65962 0.78359 0.1546 0.0
C915 C 0.68921 0.77074 0.14981 0.0
C916 C 0.66082 0.78367 0.16441 0.0
C917 C 0.59604 0.80907 0.1548 0.0
C918 C 0.66037 0.8161 0.16905 0.0
C919 C 0.65705 0.81637 0.17827 0.0
C920 C 0.65414 0.78415 0.18303 0.0
C921 C 0.65656 0.75163 0.17839 0.0
C922 C 0.65994 0.75142 0.16915 0.0
H923 H 0.57232 0.81053 0.15035 0.0
H924 H 0.58957 0.79109 0.16043 0.0
H925 H 0.60103 0.8362 0.15749 0.0
H926 H 0.66147 0.84127 0.16551 0.0
H927 H 0.65552 0.84189 0.18163 0.0
H928 H 0.69312 0.66066 0.86113 0.0
H929 H 0.70064 0.66951 0.87705 0.0
H930 H 0.8156 0.66415 0.87402 0.0
H931 H 0.80841 0.65549 0.85805 0.0
H932 H 0.73414 0.61867 0.88792 0.0
H933 H 0.80176 0.75051 0.89061 0.0
H934 H 0.77801 0.73661 0.88076 0.0
H935 H 0.82224 0.71975 0.883 0.0
C936 C 0.72007 0.66203 0.86381 0.0
C937 C 0.75017 0.65724 0.8583 0.0
C938 C 0.72429 0.66707 0.87292 0.0
C939 C 0.75866 0.66774 0.87672 0.0
C940 C 0.78884 0.66435 0.87122 0.0
H941 H 0.8393 0.65731 0.93057 0.0
H942 H 0.83204 0.66455 0.91456 0.0
C943 C 0.78466 0.65925 0.86209 0.0
C944 C 0.76263 0.6684 0.88651 0.0
H945 H 0.79846 0.71556 0.90375 0.0
C946 C 0.74795 0.64 0.89139 0.0
C947 C 0.78098 0.69607 0.891 0.0
C948 C 0.79644 0.72766 0.8861 0.0
C949 C 0.75158 0.63816 0.90063 0.0
C950 C 0.76966 0.66597 0.90515 0.0
C951 C 0.78444 0.69439 0.90028 0.0
C952 C 0.77399 0.6654 0.91493 0.0
C953 C 0.73688 0.60588 0.90542 0.0
C954 C 0.7438 0.66472 0.9205 0.0
C955 C 0.74782 0.66039 0.92964 0.0
C956 C 0.78218 0.65703 0.93343 0.0
C957 C 0.81245 0.65971 0.92789 0.0
C958 C 0.80836 0.66386 0.91872 0.0
H959 H 0.73245 0.58305 0.90085 0.0
H960 H 0.75534 0.59715 0.91078 0.0
H961 H 0.71067 0.61281 0.90845 0.0
H962 H 0.71703 0.66668 0.91774 0.0
H963 H 0.72394 0.65876 0.93372 0.0
H964 H 0.39561 0.2934 0.18118 0.0
H965 H 0.39048 0.29311 0.16507 0.0
H966 H 0.31131 0.20921 0.16664 0.0
H967 H 0.3158 0.20977 0.18283 0.0
H968 H 0.40772 0.23624 0.15489 0.0
H969 H 0.26672 0.27618 0.14838 0.0
H970 H 0.28825 0.28301 0.15896 0.0
H971 H 0.2713 0.23964 0.15602 0.0
C972 C 0.37663 0.27527 0.17812 0.0
C973 C 0.35623 0.25148 0.1833 0.0
C974 C 0.37372 0.27516 0.1689 0.0
C975 C 0.35036 0.25132 0.16463 0.0
C976 C 0.32901 0.22834 0.16978 0.0
H977 H 0.38357 0.17593 0.11105 0.0
H978 H 0.37205 0.18094 0.12692 0.0
C979 C 0.33175 0.22857 0.17904 0.0
C980 C 0.35118 0.24828 0.15483 0.0
H981 H 0.29982 0.25343 0.13609 0.0
C982 C 0.38412 0.24014 0.15079 0.0
C983 C 0.32045 0.25362 0.14947 0.0
C984 C 0.28472 0.26393 0.1534 0.0
C985 C 0.38716 0.23686 0.14157 0.0
C986 C 0.35626 0.24112 0.13622 0.0
C987 C 0.32336 0.24977 0.14022 0.0
C988 C 0.35815 0.23702 0.12646 0.0
C989 C 0.42364 0.22939 0.13762 0.0
C990 C 0.35248 0.2665 0.12088 0.0
C991 C 0.35885 0.2637 0.11176 0.0
C992 C 0.37101 0.23132 0.1081 0.0
C993 C 0.37462 0.20136 0.11366 0.0
C994 C 0.36813 0.20417 0.12274 0.0
H995 H 0.44566 0.23554 0.14235 0.0
H996 H 0.42547 0.20064 0.13588 0.0
H997 H 0.42787 0.24525 0.13149 0.0
H998 H 0.34463 0.29207 0.12362 0.0
H999 H 0.35572 0.28726 0.10766 0.0
H1000 H 0.69756 0.92082 0.36104 0.0
H1001 H 0.70107 0.90602 0.37672 0.0
H1002 H 0.787 0.8319 0.37142 0.0
H1003 H 0.78391 0.84688 0.35558 0.0
H1004 H 0.69423 0.83856 0.38549 0.0
H1005 H 0.82889 0.90067 0.39035 0.0
H1006 H 0.80201 0.90952 0.38064 0.0
H1007 H 0.82447 0.86739 0.38183 0.0
C1008 C 0.71716 0.90123 0.36316 0.0
C1009 C 0.74064 0.88521 0.35705 0.0
C1010 C 0.71904 0.89273 0.37214 0.0
C1011 C 0.74452 0.86817 0.37525 0.0
C1012 C 0.76744 0.8513 0.36916 0.0
H1013 H 0.78481 0.8473 0.43273 0.0
H1014 H 0.78744 0.83259 0.41688 0.0
C1015 C 0.76552 0.85975 0.36012 0.0
C1016 C 0.74721 0.86151 0.38491 0.0
H1017 H 0.79811 0.88172 0.40305 0.0
C1018 C 0.7172 0.84742 0.38933 0.0
C1019 C 0.77729 0.87286 0.3899 0.0
C1020 C 0.81001 0.88866 0.38549 0.0
C1021 C 0.71579 0.84591 0.39861 0.0
C1022 C 0.74488 0.85944 0.40361 0.0
C1023 C 0.77581 0.87145 0.3992 0.0
C1024 C 0.74196 0.86554 0.4133 0.0
C1025 C 0.68272 0.83072 0.40298 0.0
C1026 C 0.71566 0.88896 0.41652 0.0
C1027 C 0.71418 0.89746 0.4255 0.0
C1028 C 0.73908 0.88283 0.43149 0.0
C1029 C 0.76511 0.85883 0.4283 0.0
C1030 C 0.76669 0.85046 0.41925 0.0
H1031 H 0.66908 0.81107 0.39861 0.0
H1032 H 0.68939 0.8175 0.40936 0.0
H1033 H 0.66348 0.85269 0.40432 0.0
H1034 H 0.69682 0.90156 0.41203 0.0
H1035 H 0.69383 0.91609 0.42772 0.0
H1036 H 0.14303 0.33462 0.67962 0.0
H1037 H 0.14897 0.32852 0.6636 0.0
H1038 H 0.17063 0.216 0.66667 0.0
H1039 H 0.16391 0.22166 0.68274 0.0
H1040 H 0.20158 0.30415 0.65196 0.0
H1041 H 0.08043 0.21715 0.65134 0.0
H1042 H 0.09371 0.2417 0.66108 0.0
H1043 H 0.11679 0.20129 0.6581 0.0
C1044 C 0.14953 0.30862 0.67692 0.0
C1045 C 0.15242 0.27851 0.68247 0.0
C1046 C 0.15302 0.30521 0.66775 0.0
C1047 C 0.15953 0.27169 0.66392 0.0
C1048 C 0.16485 0.242 0.66947 0.0
H1049 H 0.17758 0.24877 0.60565 0.0
H1050 H 0.19321 0.24722 0.62146 0.0
C1051 C 0.16117 0.24533 0.67866 0.0
C1052 C 0.15775 0.26767 0.65414 0.0
H1053 H 0.10695 0.23088 0.63768 0.0
C1054 C 0.18118 0.28782 0.64882 0.0
C1055 C 0.13081 0.24665 0.65007 0.0
C1056 C 0.10377 0.22566 0.65541 0.0
C1057 C 0.17785 0.28815 0.63954 0.0
C1058 C 0.15063 0.26747 0.63549 0.0
C1059 C 0.12791 0.24656 0.6408 0.0
C1060 C 0.14273 0.26965 0.62587 0.0
C1061 C 0.20234 0.31183 0.63415 0.0
C1062 C 0.10921 0.28257 0.62311 0.0
C1063 C 0.10019 0.28329 0.61415 0.0
C1064 C 0.12447 0.27102 0.60771 0.0
C1065 C 0.15836 0.25856 0.61045 0.0
C1066 C 0.16737 0.25777 0.61947 0.0
H1067 H 0.21776 0.33067 0.63838 0.0
H1068 H 0.22173 0.29496 0.63047 0.0
H1069 H 0.18666 0.32745 0.62924 0.0
H1070 H 0.08981 0.2919 0.62793 0.0
H1071 H 0.07391 0.29317 0.6123 0.0
H1072 H 0.24667 0.09646 0.29305 0.0
H1073 H 0.2578 0.12359 0.27865 0.0
H1074 H 0.28292 0.22383 0.29128 0.0
H1075 H 0.27249 0.19651 0.30585 0.0
H1076 H 0.22744 0.18118 0.27001 0.0
H1077 H 0.37264 0.20458 0.27656 0.0
H1078 H 0.34522 0.17703 0.28367 0.0
H1079 H 0.34203 0.22487 0.28425 0.0
C1080 C 0.25442 0.12434 0.29281 0.0
C1081 C 0.25904 0.14421 0.30063 0.0
C1082 C 0.26067 0.13985 0.28454 0.0
C1083 C 0.27173 0.17557 0.28388 0.0
C1084 C 0.27509 0.196 0.29164 0.0
H1085 H 0.35185 0.27775 0.23533 0.0
H1086 H 0.32648 0.27044 0.25019 0.0
C1087 C 0.26891 0.18042 0.29996 0.0
C1088 C 0.28076 0.1905 0.27503 0.0
H1089 H 0.35112 0.2197 0.26244 0.0
C1090 C 0.25439 0.18997 0.26838 0.0
C1091 C 0.31594 0.20199 0.2729 0.0
C1092 C 0.34574 0.20198 0.27968 0.0
C1093 C 0.26247 0.19974 0.25961 0.0
C1094 C 0.29793 0.20991 0.25743 0.0
C1095 C 0.32393 0.2119 0.26414 0.0
C1096 C 0.30948 0.21581 0.24813 0.0
C1097 C 0.23306 0.19869 0.25275 0.0
C1098 C 0.30805 0.18762 0.24201 0.0
C1099 C 0.3226 0.19164 0.23354 0.0
C1100 C 0.33901 0.22393 0.23101 0.0
C1101 C 0.33932 0.25255 0.23705 0.0
C1102 C 0.3249 0.24843 0.24555 0.0
H1103 H 0.20609 0.20101 0.25584 0.0
H1104 H 0.23635 0.22051 0.24782 0.0
H1105 H 0.23421 0.17279 0.24919 0.0
H1106 H 0.29691 0.16199 0.24391 0.0
H1107 H 0.32197 0.16902 0.22907 0.0
H1108 H 0.79868 0.81836 0.48001 0.0
H1109 H 0.81557 0.78837 0.49385 0.0
H1110 H 0.74662 0.85955 0.50848 0.0
H1111 H 0.72936 0.8893 0.49475 0.0
H1112 H 0.84938 0.82186 0.508 0.0
H1113 H 0.7205 0.76238 0.51895 0.0
H1114 H 0.72801 0.77743 0.50773 0.0
H1115 H 0.71724 0.80904 0.51629 0.0
C1116 C 0.78666 0.82722 0.48616 0.0
C1117 C 0.7627 0.85626 0.48627 0.0
C1118 C 0.79636 0.81009 0.49406 0.0
C1119 C 0.78199 0.82141 0.50218 0.0
C1120 C 0.75746 0.84982 0.50228 0.0
H1121 H 0.82687 0.79192 0.55783 0.0
H1122 H 0.80103 0.80713 0.54338 0.0
C1123 C 0.74783 0.867 0.49441 0.0
C1124 C 0.79492 0.80583 0.51065 0.0
H1125 H 0.76697 0.76623 0.52986 0.0
C1126 C 0.83146 0.80925 0.51273 0.0
C1127 C 0.77142 0.7897 0.51684 0.0
C1128 C 0.73216 0.78408 0.51482 0.0
C1129 C 0.84498 0.79801 0.52095 0.0
C1130 C 0.82143 0.78222 0.52719 0.0
C1131 C 0.78495 0.77835 0.52507 0.0
C1132 C 0.83431 0.77026 0.53601 0.0
C1133 C 0.88415 0.80431 0.523 0.0
C1134 C 0.86063 0.74361 0.53669 0.0
C1135 C 0.87551 0.73498 0.54491 0.0
C1136 C 0.86411 0.75261 0.55264 0.0
C1137 C 0.83629 0.77789 0.55201 0.0
C1138 C 0.82151 0.78663 0.54376 0.0
H1139 H 0.89631 0.82435 0.51847 0.0
H1140 H 0.88773 0.81362 0.52993 0.0
H1141 H 0.89911 0.77888 0.52221 0.0
H1142 H 0.87033 0.73009 0.53082 0.0
H1143 H 0.89661 0.7151 0.54517 0.0
H1144 H 0.10775 0.23696 0.74498 0.0
H1145 H 0.13463 0.25424 0.7591 0.0
H1146 H 0.2276 0.29484 0.7454 0.0
H1147 H 0.20086 0.2777 0.73116 0.0
H1148 H 0.23842 0.25087 0.76274 0.0
H1149 H 0.14425 0.3662 0.76453 0.0
H1150 H 0.12503 0.32323 0.76203 0.0
H1151 H 0.15477 0.34403 0.75423 0.0
C1152 C 0.13413 0.24915 0.74494 0.0
C1153 C 0.15201 0.25627 0.73692 0.0
C1154 C 0.14943 0.25896 0.75303 0.0
C1155 C 0.18291 0.27601 0.75326 0.0
C1156 C 0.20171 0.28166 0.74533 0.0
H1157 H 0.27059 0.41137 0.79381 0.0
H1158 H 0.25369 0.38196 0.78003 0.0
C1159 C 0.18636 0.27191 0.73721 0.0
C1160 C 0.19674 0.29047 0.76172 0.0
H1161 H 0.18194 0.35659 0.77683 0.0
C1162 C 0.22616 0.27396 0.76584 0.0
C1163 C 0.18072 0.3207 0.76569 0.0
C1164 C 0.14958 0.33986 0.7614 0.0
C1165 C 0.23981 0.28686 0.77392 0.0
C1166 C 0.2235 0.31688 0.77793 0.0
C1167 C 0.19425 0.33345 0.77375 0.0
C1168 C 0.23699 0.33268 0.78629 0.0
C1169 C 0.27189 0.26881 0.77805 0.0
C1170 C 0.23351 0.31454 0.79439 0.0
C1171 C 0.24307 0.3314 0.80234 0.0
C1172 C 0.25616 0.36668 0.80229 0.0
C1173 C 0.26053 0.38424 0.79412 0.0
C1174 C 0.25091 0.36748 0.78622 0.0
H1175 H 0.28507 0.24989 0.77341 0.0
H1176 H 0.2919 0.289 0.78023 0.0
H1177 H 0.26314 0.25367 0.784 0.0
H1178 H 0.22235 0.28782 0.79459 0.0
H1179 H 0.2393 0.31717 0.80852 0.0
H1180 H 0.79415 0.6274 0.99557 0.0
H1181 H 0.77451 0.65466 1.00944 0.0
H1182 H 0.70426 0.72515 0.99495 0.0
H1183 H 0.72352 0.69782 0.981 0.0
H1184 H 0.77376 0.72757 1.01569 0.0
H1185 H 0.63714 0.6694 1.012 0.0
H1186 H 0.67484 0.65458 1.00546 0.0
H1187 H 0.65263 0.69582 1.00282 0.0
C1188 C 0.77478 0.64895 0.9953 0.0
C1189 C 0.7601 0.66016 0.98717 0.0
C1190 C 0.76367 0.66455 1.00325 0.0
C1191 C 0.73756 0.69151 1.00323 0.0
C1192 C 0.72407 0.70397 0.99511 0.0
H1193 H 0.61155 0.78633 0.04531 0.0
H1194 H 0.64043 0.77237 0.03123 0.0
C1195 C 0.73523 0.68843 0.98714 0.0
C1196 C 0.72306 0.70502 1.01174 0.0
H1197 H 0.64714 0.7062 0.02439 0.0
C1198 C 0.74606 0.72303 1.0176 0.0
C1199 C 0.68697 0.69885 1.01422 0.0
C1200 C 0.66143 0.67836 1.00835 0.0
C1201 C 0.73375 0.73553 0.02584 0.0
C1202 C 0.69768 0.72915 0.02834 0.0
C1203 C 0.67474 0.7112 0.02246 0.0
C1204 C 0.68286 0.74056 0.03703 0.0
C1205 C 0.75927 0.75597 0.03171 0.0
C1206 C 0.69735 0.72768 0.04502 0.0
C1207 C 0.68096 0.73585 0.05312 0.0
C1208 C 0.64951 0.75662 0.05336 0.0
C1209 C 0.63564 0.77012 0.04537 0.0
C1210 C 0.65213 0.76218 0.0373 0.0
H1211 H 0.78206 0.76729 0.02788 0.0
H1212 H 0.74528 0.77808 0.03519 0.0
H1213 H 0.77048 0.73759 0.03678 0.0
H1214 H 0.72058 0.7103 0.04497 0.0
H1215 H 0.69218 0.72485 0.05916 0.0
H1216 H 0.41356 0.24535 0.04533 0.0
H1217 H 0.3874 0.26415 0.03126 0.0
H1218 H 0.2954 0.30649 0.045 0.0
H1219 H 0.32141 0.28766 0.05921 0.0
H1220 H 0.2818 0.26553 0.02798 0.0
H1221 H 0.3829 0.37454 0.02548 0.0
H1222 H 0.40044 0.33066 0.02769 0.0
H1223 H 0.37274 0.3523 0.0358 0.0
C1224 C 0.38757 0.25831 0.04539 0.0
C1225 C 0.36975 0.26537 0.05341 0.0
C1226 C 0.37269 0.26903 0.03733 0.0
C1227 C 0.33973 0.28703 0.03711 0.0
C1228 C 0.32094 0.29265 0.04505 0.0
H1229 H 0.26343 0.42448 0.99527 0.0
H1230 H 0.2781 0.39638 1.00939 0.0
C1231 C 0.33586 0.28194 0.05315 0.0
C1232 C 0.32633 0.30209 0.02866 0.0
H1233 H 0.34535 0.3655 1.01309 0.0
C1234 C 0.29555 0.28743 0.02471 0.0
C1235 C 0.34426 0.33082 0.02448 0.0
C1236 C 0.37677 0.3483 0.02859 0.0
C1237 C 0.28254 0.30053 1.01658 0.0
C1238 C 0.30094 0.3288 1.01232 0.0
C1239 C 0.33142 0.34367 1.01635 0.0
C1240 C 0.28873 0.34429 1.00379 0.0
C1241 C 0.24897 0.28447 1.01267 0.0
C1242 C 0.28957 0.3242 0.99594 0.0
C1243 C 0.28124 0.34027 0.9878 0.0
C1244 C 0.27209 0.37671 0.9874 0.0
C1245 C 0.27045 0.3964 0.99532 0.0
C1246 C 0.2788 0.38039 1.00341 0.0
H1247 H 0.23394 0.26823 1.0176 0.0
H1248 H 0.23099 0.30571 1.01007 0.0
H1249 H 0.25642 0.26685 1.00706 0.0
H1250 H 0.29773 0.29643 0.99607 0.0
H1251 H 0.28283 0.32439 0.98182 0.0
H1252 H 0.73194 0.81396 0.30869 0.0
H1253 H 0.71621 0.78346 0.29487 0.0
H1254 H 0.78093 0.85842 0.28017 0.0
H1255 H 0.79706 0.88876 0.29389 0.0
H1256 H 0.67973 0.81704 0.28116 0.0
H1257 H 0.80921 0.76315 0.26899 0.0
H1258 H 0.80253 0.77687 0.28034 0.0
H1259 H 0.81104 0.80965 0.27187 0.0
C1260 C 0.74344 0.82349 0.30254 0.0
C1261 C 0.76566 0.85389 0.3024 0.0
C1262 C 0.73439 0.80605 0.29465 0.0
C1263 C 0.74769 0.81843 0.2865 0.0
C1264 C 0.77092 0.84793 0.28638 0.0
H1265 H 0.69686 0.79097 0.23108 0.0
H1266 H 0.72424 0.80598 0.24537 0.0
C1267 C 0.77991 0.86542 0.29425 0.0
C1268 C 0.73434 0.80308 0.27805 0.0
H1269 H 0.76116 0.76581 0.25849 0.0
C1270 C 0.69746 0.80539 0.27625 0.0
C1271 C 0.75759 0.78827 0.27162 0.0
C1272 C 0.79726 0.78399 0.27332 0.0
C1273 C 0.68329 0.79427 0.2681 0.0
C1274 C 0.70654 0.77967 0.26163 0.0
C1275 C 0.7434 0.77697 0.26346 0.0
C1276 C 0.6929 0.76782 0.25288 0.0
C1277 C 0.64369 0.79945 0.26637 0.0
C1278 C 0.66716 0.74054 0.25232 0.0
C1279 C 0.65137 0.73206 0.2442 0.0
C1280 C 0.66129 0.75044 0.23644 0.0
C1281 C 0.68858 0.77636 0.23693 0.0
C1282 C 0.70424 0.78498 0.24509 0.0
H1283 H 0.63155 0.81893 0.27104 0.0
H1284 H 0.63892 0.80892 0.2595 0.0
H1285 H 0.62961 0.77354 0.26723 0.0
H1286 H 0.6586 0.72641 0.25822 0.0
H1287 H 0.63073 0.71167 0.24404 0.0
H1288 H 0.23385 0.19734 0.48132 0.0
H1289 H 0.22368 0.22498 0.49586 0.0
H1290 H 0.26116 0.12895 0.50868 0.0
H1291 H 0.27182 0.10157 0.49433 0.0
H1292 H 0.17809 0.20133 0.50897 0.0
H1293 H 0.31681 0.20495 0.52191 0.0
H1294 H 0.30695 0.1981 0.51032 0.0
H1295 H 0.30498 0.16128 0.518 0.0
C1296 C 0.24035 0.18235 0.48725 0.0
C1297 C 0.25373 0.14728 0.48666 0.0
C1298 C 0.23452 0.19815 0.49554 0.0
C1299 C 0.24232 0.17928 0.50337 0.0
C1300 C 0.25586 0.14442 0.50276 0.0
H1301 H 0.19569 0.17176 0.55815 0.0
H1302 H 0.21759 0.16535 0.54298 0.0
C1303 C 0.26165 0.12867 0.49452 0.0
C1304 C 0.23395 0.19454 0.5122 0.0
H1305 H 0.26948 0.20704 0.53284 0.0
C1306 C 0.19818 0.20334 0.51414 0.0
C1307 C 0.26022 0.19717 0.51895 0.0
C1308 C 0.29944 0.19022 0.51717 0.0
C1309 C 0.18759 0.21258 0.52277 0.0
C1310 C 0.21357 0.21343 0.52961 0.0
C1311 C 0.2496 0.20617 0.52759 0.0
C1312 C 0.20331 0.21903 0.53899 0.0
C1313 C 0.14839 0.21952 0.52462 0.0
C1314 C 0.189 0.25172 0.54185 0.0
C1315 C 0.17652 0.25554 0.55054 0.0
C1316 C 0.1781 0.22667 0.55652 0.0
C1317 C 0.19391 0.19448 0.55372 0.0
C1318 C 0.20647 0.19076 0.54505 0.0
H1319 H 0.13101 0.21213 0.51893 0.0
H1320 H 0.13945 0.2043 0.53054 0.0
H1321 H 0.14446 0.24836 0.52601 0.0
H1322 H 0.18681 0.27403 0.5373 0.0
H1323 H 0.16462 0.28074 0.55249 0.0
H1324 H 0.82709 0.66458 0.73113 0.0
H1325 H 0.80599 0.65531 0.74627 0.0
H1326 H 0.83541 0.76347 0.7529 0.0
H1327 H 0.85621 0.7732 0.73771 0.0
H1328 H 0.85079 0.66045 0.76094 0.0
H1329 H 0.73532 0.75371 0.76405 0.0
H1330 H 0.75325 0.7402 0.75346 0.0
H1331 H 0.77625 0.77316 0.75997 0.0
C1332 C 0.8285 0.68666 0.73575 0.0
C1333 C 0.84347 0.7196 0.73321 0.0
C1334 C 0.81645 0.68128 0.74441 0.0
C1335 C 0.81892 0.70874 0.75071 0.0
C1336 C 0.83267 0.74209 0.74812 0.0
H1337 H 0.78811 0.69387 0.80847 0.0
H1338 H 0.80199 0.71717 0.79361 0.0
C1339 C 0.84469 0.74754 0.73944 0.0
C1340 C 0.8101 0.70119 0.76012 0.0
H1341 H 0.75355 0.72333 0.77709 0.0
C1342 C 0.82955 0.67425 0.76446 0.0
C1343 C 0.78264 0.71949 0.76474 0.0
C1344 C 0.7604 0.74809 0.76032 0.0
C1345 C 0.82198 0.66475 0.77325 0.0
C1346 C 0.79394 0.68235 0.7778 0.0
C1347 C 0.77505 0.70996 0.77357 0.0
C1348 C 0.78255 0.67038 0.78672 0.0
C1349 C 0.84389 0.63572 0.77761 0.0
C1350 C 0.76625 0.63687 0.7877 0.0
C1351 C 0.75832 0.62358 0.79611 0.0
C1352 C 0.76651 0.64354 0.80374 0.0
C1353 C 0.78156 0.67782 0.80273 0.0
C1354 C 0.78946 0.69117 0.79426 0.0
H1355 H 0.86939 0.63065 0.77401 0.0
H1356 H 0.85025 0.64284 0.78457 0.0
H1357 H 0.82813 0.61055 0.77768 0.0
H1358 H 0.76041 0.62059 0.78195 0.0
H1359 H 0.74649 0.59721 0.79662 0.0
loop_
_geom_bond_atom_site_label_1
_geom_bond_atom_site_label_2
_geom_bond_distance
_geom_bond_site_symmetry_2
_ccdc_geom_bond_type
Mg0 O7 2.141 . S
Mg0 O8 2.048 . S
Mg0 O9 2.048 . S
Mg0 O12 2.141 . S
C1 O2 1.313 . S
C1 O8 1.195 . S
O2 C1 1.313 . S
C3 O4 1.245 . S
C3 O12 1.289 . S
O4 C3 1.245 . S
C5 O6 1.245 . S
C5 O7 1.289 . S
O6 C5 1.245 . S
O7 Mg0 2.141 . S
O7 C5 1.289 . S
O8 Mg0 2.048 . S
O8 C1 1.195 . S
O9 Mg0 2.048 . S
O9 C10 1.195 . S
C10 O9 1.195 . S
C10 O11 1.313 . S
O11 C10 1.313 . S
O12 Mg0 2.141 . S
O12 C3 1.289 . S
Mg13 O20 2.141 . S
Mg13 O21 2.048 . S
Mg13 O22 2.048 . S
Mg13 O25 2.141 . S
C14 O15 1.313 . S
C14 O21 1.195 . S
O15 C14 1.313 . S
C16 O17 1.245 . S
C16 O25 1.289 . S
O17 C16 1.245 . S
C18 O19 1.245 . S
C18 O20 1.289 . S
O19 C18 1.245 . S
O20 Mg13 2.141 . S
O20 C18 1.289 . S
O21 Mg13 2.048 . S
O21 C14 1.195 . S
O22 Mg13 2.048 . S
O22 C23 1.195 . S
C23 O22 1.195 . S
C23 O24 1.313 . S
O24 C23 1.313 . S
O25 Mg13 2.141 . S
O25 C16 1.289 . S
Mg26 O33 2.141 . S
Mg26 O34 2.048 . S
Mg26 O35 2.048 . S
Mg26 O38 2.141 . S
C27 O28 1.313 . S
C27 O34 1.195 . S
O28 C27 1.313 . S
C29 O30 1.245 . S
C29 O38 1.289 . S
O30 C29 1.245 . S
C31 O32 1.245 . S
C31 O33 1.289 . S
O32 C31 1.245 . S
O33 Mg26 2.141 . S
O33 C31 1.289 . S
O34 Mg26 2.048 . S
O34 C27 1.195 . S
O35 Mg26 2.048 . S
O35 C36 1.195 . S
C36 O35 1.195 . S
C36 O37 1.313 . S
O37 C36 1.313 . S
O38 Mg26 2.141 . S
O38 C29 1.289 . S
Mg39 O46 2.141 . S
Mg39 O47 2.048 . S
Mg39 O48 2.048 . S
Mg39 O51 2.141 . S
C40 O41 1.313 . S
C40 O47 1.195 . S
O41 C40 1.313 . S
C42 O43 1.245 . S
C42 O51 1.289 . S
O43 C42 1.245 . S
C44 O45 1.245 . S
C44 O46 1.289 . S
O45 C44 1.245 . S
O46 Mg39 2.141 . S
O46 C44 1.289 . S
O47 Mg39 2.048 . S
O47 C40 1.195 . S
O48 Mg39 2.048 . S
O48 C49 1.195 . S
C49 O48 1.195 . S
C49 O50 1.313 . S
O50 C49 1.313 . S
O51 Mg39 2.141 . S
O51 C42 1.289 . S
Mg52 O59 2.141 . S
Mg52 O60 2.048 . S
Mg52 O61 2.048 . S
Mg52 O64 2.141 . S
C53 O54 1.313 . S
C53 O60 1.195 . S
O54 C53 1.313 . S
C55 O56 1.245 . S
C55 O64 1.289 . S
O56 C55 1.245 . S
C57 O58 1.245 . S
C57 O59 1.289 . S
O58 C57 1.245 . S
O59 Mg52 2.141 . S
O59 C57 1.289 . S
O60 Mg52 2.048 . S
O60 C53 1.195 . S
O61 Mg52 2.048 . S
O61 C62 1.195 . S
C62 O61 1.195 . S
C62 O63 1.313 . S
O63 C62 1.313 . S
O64 Mg52 2.141 . S
O64 C55 1.289 . S
Mg65 O72 2.141 . S
Mg65 O73 2.048 . S
Mg65 O74 2.048 . S
Mg65 O77 2.141 . S
C66 O67 1.313 . S
C66 O73 1.195 . S
O67 C66 1.313 . S
C68 O69 1.245 . S
C68 O77 1.289 . S
O69 C68 1.245 . S
C70 O71 1.245 . S
C70 O72 1.289 . S
O71 C70 1.245 . S
O72 Mg65 2.141 . S
O72 C70 1.289 . S
O73 Mg65 2.048 . S
O73 C66 1.195 . S
O74 Mg65 2.048 . S
O74 C75 1.195 . S
C75 O74 1.195 . S
C75 O76 1.313 . S
O76 C75 1.313 . S
O77 Mg65 2.141 . S
O77 C68 1.289 . S
Mg78 O85 2.141 . S
Mg78 O86 2.048 . S
Mg78 O87 2.048 . S
Mg78 O90 2.141 . S
C79 O80 1.313 . S
C79 O86 1.195 . S
O80 C79 1.313 . S
C81 O82 1.245 . S
C81 O90 1.289 . S
O82 C81 1.245 . S
C83 O84 1.245 . S
C83 O85 1.289 . S
O84 C83 1.245 . S
O85 Mg78 2.141 . S
O85 C83 1.289 . S
O86 Mg78 2.048 . S
O86 C79 1.195 . S
O87 Mg78 2.048 . S
O87 C88 1.195 . S
C88 O87 1.195 . S
C88 O89 1.313 . S
O89 C88 1.313 . S
O90 Mg78 2.141 . S
O90 C81 1.289 . S
Mg91 O98 2.141 . S
Mg91 O99 2.048 . S
Mg91 O100 2.048 . S
Mg91 O103 2.141 . S
C92 O93 1.313 . S
C92 O99 1.195 . S
O93 C92 1.313 . S
C94 O95 1.245 . S
C94 O103 1.289 . S
O95 C94 1.245 . S
C96 O97 1.245 . S
C96 O98 1.289 . S
O97 C96 1.245 . S
O98 Mg91 2.141 . S
O98 C96 1.289 . S
O99 Mg91 2.048 . S
O99 C92 1.195 . S
O100 Mg91 2.048 . S
O100 C101 1.195 . S
C101 O100 1.195 . S
C101 O102 1.313 . S
O102 C101 1.313 . S
O103 Mg91 2.141 . S
O103 C94 1.289 . S
Mg104 O111 2.141 . S
Mg104 O112 2.048 . S
Mg104 O113 2.048 . S
Mg104 O116 2.141 . S
C105 O106 1.313 . S
C105 O112 1.195 . S
O106 C105 1.313 . S
C107 O108 1.245 . S
C107 O116 1.289 . S
O108 C107 1.245 . S
C109 O110 1.245 . S
C109 O111 1.289 . S
O110 C109 1.245 . S
O111 Mg104 2.141 . S
O111 C109 1.289 . S
O112 Mg104 2.048 . S
O112 C105 1.195 . S
O113 Mg104 2.048 . S
O113 C114 1.195 . S
C114 O113 1.195 . S
C114 O115 1.313 . S
O115 C114 1.313 . S
O116 Mg104 2.141 . S
O116 C107 1.289 . S
Mg117 O124 2.141 . S
Mg117 O125 2.048 . S
Mg117 O126 2.048 . S
Mg117 O129 2.141 . S
C118 O119 1.313 . S
C118 O125 1.195 . S
O119 C118 1.313 . S
C120 O121 1.245 . S
C120 O129 1.289 . S
O121 C120 1.245 . S
C122 O123 1.245 . S
C122 O124 1.289 . S
O123 C122 1.245 . S
O124 Mg117 2.141 . S
O124 C122 1.289 . S
O125 Mg117 2.048 . S
O125 C118 1.195 . S
O126 Mg117 2.048 . S
O126 C127 1.195 . S
C127 O126 1.195 . S
C127 O128 1.313 . S
O128 C127 1.313 . S
O129 Mg117 2.141 . S
O129 C120 1.289 . S
Mg130 O137 2.141 . S
Mg130 O138 2.048 . S
Mg130 O139 2.048 . S
Mg130 O142 2.141 . S
C131 O132 1.313 . S
C131 O138 1.195 . S
O132 C131 1.313 . S
C133 O134 1.245 . S
C133 O142 1.289 . S
O134 C133 1.245 . S
C135 O136 1.245 . S
C135 O137 1.289 . S
O136 C135 1.245 . S
O137 Mg130 2.141 . S
O137 C135 1.289 . S
O138 Mg130 2.048 . S
O138 C131 1.195 . S
O139 Mg130 2.048 . S
O139 C140 1.195 . S
C140 O139 1.195 . S
C140 O141 1.313 . S
O141 C140 1.313 . S
O142 Mg130 2.141 . S
O142 C133 1.289 . S
Mg143 O150 2.141 . S
Mg143 O151 2.048 . S
Mg143 O152 2.048 . S
Mg143 O155 2.141 . S
C144 O145 1.313 . S
C144 O151 1.195 . S
O145 C144 1.313 . S
C146 O147 1.245 . S
C146 O155 1.289 . S
O147 C146 1.245 . S
C148 O149 1.245 . S
C148 O150 1.289 . S
O149 C148 1.245 . S
O150 Mg143 2.141 . S
O150 C148 1.289 . S
O151 Mg143 2.048 . S
O151 C144 1.195 . S
O152 Mg143 2.048 . S
O152 C153 1.195 . S
C153 O152 1.195 . S
C153 O154 1.313 . S
O154 C153 1.313 . S
O155 Mg143 2.141 . S
O155 C146 1.289 . S
Mg156 O163 2.141 . S
Mg156 O164 2.048 . S
Mg156 O165 2.048 . S
Mg156 O168 2.141 . S
C157 O158 1.313 . S
C157 O164 1.195 . S
O158 C157 1.313 . S
C159 O160 1.245 . S
C159 O168 1.289 . S
O160 C159 1.245 . S
C161 O162 1.245 . S
C161 O163 1.289 . S
O162 C161 1.245 . S
O163 Mg156 2.141 . S
O163 C161 1.289 . S
O164 Mg156 2.048 . S
O164 C157 1.195 . S
O165 Mg156 2.048 . S
O165 C166 1.195 . S
C166 O165 1.195 . S
C166 O167 1.313 . S
O167 C166 1.313 . S
O168 Mg156 2.141 . S
O168 C159 1.289 . S
Mg169 O176 2.141 . S
Mg169 O177 2.048 . S
Mg169 O178 2.048 . S
Mg169 O181 2.141 . S
C170 O171 1.313 . S
C170 O177 1.195 . S
O171 C170 1.313 . S
C172 O173 1.245 . S
C172 O181 1.289 . S
O173 C172 1.245 . S
C174 O175 1.245 . S
C174 O176 1.289 . S
O175 C174 1.245 . S
O176 Mg169 2.141 . S
O176 C174 1.289 . S
O177 Mg169 2.048 . S
O177 C170 1.195 . S
O178 Mg169 2.048 . S
O178 C179 1.195 . S
C179 O178 1.195 . S
C179 O180 1.313 . S
O180 C179 1.313 . S
O181 Mg169 2.141 . S
O181 C172 1.289 . S
Mg182 O189 2.141 . S
Mg182 O190 2.048 . S
Mg182 O191 2.048 . S
Mg182 O194 2.141 . S
C183 O184 1.313 . S
C183 O190 1.195 . S
O184 C183 1.313 . S
C185 O186 1.245 . S
C185 O194 1.289 . S
O186 C185 1.245 . S
C187 O188 1.245 . S
C187 O189 1.289 . S
O188 C187 1.245 . S
O189 Mg182 2.141 . S
O189 C187 1.289 . S
O190 Mg182 2.048 . S
O190 C183 1.195 . S
O191 Mg182 2.048 . S
O191 C192 1.195 . S
C192 O191 1.195 . S
C192 O193 1.313 . S
O193 C192 1.313 . S
O194 Mg182 2.141 . S
O194 C185 1.289 . S
Mg195 O202 2.141 . S
Mg195 O203 2.048 . S
Mg195 O204 2.048 . S
Mg195 O207 2.141 . S
C196 O197 1.313 . S
C196 O203 1.195 . S
O197 C196 1.313 . S
C198 O199 1.245 . S
C198 O207 1.289 . S
O199 C198 1.245 . S
C200 O201 1.245 . S
C200 O202 1.289 . S
O201 C200 1.245 . S
O202 Mg195 2.141 . S
O202 C200 1.289 . S
O203 Mg195 2.048 . S
O203 C196 1.195 . S
O204 Mg195 2.048 . S
O204 C205 1.195 . S
C205 O204 1.195 . S
C205 O206 1.313 . S
O206 C205 1.313 . S
O207 Mg195 2.141 . S
O207 C198 1.289 . S
H208 C216 0.929 . S
H209 C218 0.930 . S
H210 C220 0.930 . S
H211 C223 0.929 . S
H212 C226 0.930 . S
H213 C228 0.960 1_455 S
H214 C228 0.960 . S
H215 C228 0.960 . S
C216 H208 0.929 . S
C216 C217 1.377 . S
C216 C218 1.384 . S
C217 C216 1.377 . S
C217 C223 1.390 . S
C218 H209 0.930 . S
C218 C216 1.384 . S
C218 C219 1.372 . S
C219 C218 1.372 . S
C219 C220 1.400 . S
C219 C224 1.490 . S
C220 H210 0.930 . S
C220 C219 1.400 . S
C220 C223 1.386 . S
H221 C237 0.930 . S
H222 C238 0.931 . S
C223 H211 0.929 . S
C223 C217 1.390 . S
C223 C220 1.386 . S
C224 C219 1.490 . S
C224 C226 1.395 1_565 S
C224 C227 1.403 . S
H225 C231 0.930 . S
C226 H212 0.930 . S
C226 C224 1.395 1_545 S
C226 C229 1.403 1_655 S
C227 C224 1.403 . S
C227 C228 1.524 . S
C227 C231 1.400 1_655 S
C228 H213 0.960 1_655 S
C228 H214 0.960 . S
C228 H215 0.960 . S
C228 C227 1.524 . S
C229 C226 1.403 1_455 S
C229 C230 1.392 . S
C229 C233 1.495 . S
C230 C229 1.392 . S
C230 C231 1.385 1_545 S
C230 C232 1.478 . S
C231 H225 0.930 . S
C231 C227 1.400 1_455 S
C231 C230 1.385 1_565 S
C232 C230 1.478 . S
C232 C234 1.381 . S
C232 C238 1.383 . S
C233 C229 1.495 . S
C233 H239 0.959 1_455 S
C233 H240 0.961 . S
C233 H241 0.960 . S
C234 C232 1.381 . S
C234 C235 1.394 . S
C234 H242 0.930 . S
C235 C234 1.394 . S
C235 C236 1.383 . S
C235 H243 0.929 . S
C236 C235 1.383 . S
C236 C237 1.377 . S
C237 H221 0.930 . S
C237 C236 1.377 . S
C237 C238 1.379 . S
C238 H222 0.931 . S
C238 C232 1.383 . S
C238 C237 1.379 . S
H239 C233 0.959 1_655 S
H240 C233 0.961 . S
H241 C233 0.960 . S
H242 C234 0.930 . S
H243 C235 0.929 . S
H244 C252 0.929 . S
H245 C254 0.930 . S
H246 C256 0.930 . S
H247 C259 0.929 . S
H248 C262 0.930 . S
H249 C264 0.960 . S
H250 C264 0.960 . S
H251 C264 0.960 . S
C252 H244 0.929 . S
C252 C253 1.377 . S
C252 C254 1.384 . S
C253 C252 1.377 . S
C253 C259 1.390 . S
C254 H245 0.930 . S
C254 C252 1.384 . S
C254 C255 1.372 . S
C255 C254 1.372 . S
C255 C256 1.400 . S
C255 C260 1.490 . S
C256 H246 0.930 . S
C256 C255 1.400 . S
C256 C259 1.386 . S
H257 C273 0.930 . S
H258 C274 0.931 . S
C259 H247 0.929 . S
C259 C253 1.390 . S
C259 C256 1.386 . S
C260 C255 1.490 . S
C260 C262 1.395 . S
C260 C263 1.403 1_655 S
H261 C267 0.930 . S
C262 H248 0.930 . S
C262 C260 1.395 . S
C262 C265 1.403 . S
C263 C260 1.403 1_455 S
C263 C264 1.524 . S
C263 C267 1.400 . S
C264 H249 0.960 . S
C264 H250 0.960 . S
C264 H251 0.960 . S
C264 C263 1.524 . S
C265 C262 1.403 . S
C265 C266 1.392 1_655 S
C265 C269 1.495 . S
C266 C265 1.392 1_455 S
C266 C267 1.385 . S
C266 C268 1.478 . S
C267 H261 0.930 . S
C267 C263 1.400 . S
C267 C266 1.385 . S
C268 C266 1.478 . S
C268 C270 1.381 . S
C268 C274 1.383 . S
C269 C265 1.495 . S
C269 H275 0.959 . S
C269 H276 0.961 . S
C269 H277 0.960 . S
C270 C268 1.381 . S
C270 C271 1.394 . S
C270 H278 0.930 . S
C271 C270 1.394 . S
C271 C272 1.383 . S
C271 H279 0.929 . S
C272 C271 1.383 . S
C272 C273 1.377 . S
C273 H257 0.930 . S
C273 C272 1.377 . S
C273 C274 1.379 . S
C274 H258 0.931 . S
C274 C268 1.383 . S
C274 C273 1.379 . S
H275 C269 0.959 . S
H276 C269 0.961 . S
H277 C269 0.960 . S
H278 C270 0.930 . S
H279 C271 0.929 . S
H280 C288 0.929 . S
H281 C290 0.930 . S
H282 C292 0.930 . S
H283 C295 0.929 . S
H284 C298 0.930 . S
H285 C300 0.960 . S
H286 C300 0.960 . S
H287 C300 0.960 . S
C288 H280 0.929 . S
C288 C289 1.377 . S
C288 C290 1.384 . S
C289 C288 1.377 . S
C289 C295 1.390 . S
C290 H281 0.930 . S
C290 C288 1.384 . S
C290 C291 1.372 . S
C291 C290 1.372 . S
C291 C292 1.400 . S
C291 C296 1.490 . S
C292 H282 0.930 . S
C292 C291 1.400 . S
C292 C295 1.386 . S
H293 C309 0.930 . S
H294 C310 0.931 . S
C295 H283 0.929 . S
C295 C289 1.390 . S
C295 C292 1.386 . S
C296 C291 1.490 . S
C296 C298 1.395 . S
C296 C299 1.403 . S
H297 C303 0.930 . S
C298 H284 0.930 . S
C298 C296 1.395 . S
C298 C301 1.403 . S
C299 C296 1.403 . S
C299 C300 1.524 . S
C299 C303 1.400 . S
C300 H285 0.960 . S
C300 H286 0.960 . S
C300 H287 0.960 . S
C300 C299 1.524 . S
C301 C298 1.403 . S
C301 C302 1.392 . S
C301 C305 1.495 . S
C302 C301 1.392 . S
C302 C303 1.385 . S
C302 C304 1.478 . S
C303 H297 0.930 . S
C303 C299 1.400 . S
C303 C302 1.385 . S
C304 C302 1.478 . S
C304 C306 1.381 . S
C304 C310 1.383 . S
C305 C301 1.495 . S
C305 H311 0.959 . S
C305 H312 0.961 . S
C305 H313 0.960 . S
C306 C304 1.381 . S
C306 C307 1.394 . S
C306 H314 0.930 . S
C307 C306 1.394 . S
C307 C308 1.383 . S
C307 H315 0.929 . S
C308 C307 1.383 . S
C308 C309 1.377 . S
C309 H293 0.930 . S
C309 C308 1.377 . S
C309 C310 1.379 . S
C310 H294 0.931 . S
C310 C304 1.383 . S
C310 C309 1.379 . S
H311 C305 0.959 . S
H312 C305 0.961 . S
H313 C305 0.960 . S
H314 C306 0.930 . S
H315 C307 0.929 . S
H316 C324 0.929 . S
H317 C326 0.930 . S
H318 C328 0.930 . S
H319 C331 0.929 . S
H320 C334 0.930 . S
H321 C336 0.960 . S
H322 C336 0.960 1_545 S
H323 C336 0.960 1_545 S
C324 H316 0.929 . S
C324 C325 1.377 . S
C324 C326 1.384 . S
C325 C324 1.377 . S
C325 C331 1.390 . S
C326 H317 0.930 . S
C326 C324 1.384 . S
C326 C327 1.372 . S
C327 C326 1.372 . S
C327 C328 1.400 . S
C327 C332 1.490 . S
C328 H318 0.930 . S
C328 C327 1.400 . S
C328 C331 1.386 . S
H329 C345 0.930 . S
H330 C346 0.931 . S
C331 H319 0.929 . S
C331 C325 1.390 . S
C331 C328 1.386 . S
C332 C327 1.490 . S
C332 C334 1.395 . S
C332 C335 1.381 1_545 S
H333 C339 0.930 . S
C334 H320 0.930 . S
C334 C332 1.395 . S
C334 C337 1.403 . S
C335 C332 1.381 1_565 S
C335 C336 1.527 . S
C335 C339 1.420 . S
C336 H321 0.960 . S
C336 H322 0.960 1_565 S
C336 H323 0.960 1_565 S
C336 C335 1.527 . S
C337 C334 1.403 . S
C337 C338 1.392 1_545 S
C337 C341 1.495 . S
C338 C337 1.392 1_565 S
C338 C339 1.385 . S
C338 C340 1.478 . S
C339 H333 0.930 . S
C339 C335 1.420 . S
C339 C338 1.385 . S
C340 C338 1.478 . S
C340 C342 1.381 . S
C340 C346 1.383 . S
C341 C337 1.495 . S
C341 H347 0.959 . S
C341 H348 0.961 1_545 S
C341 H349 0.964 . S
C342 C340 1.381 . S
C342 C343 1.394 . S
C342 H350 0.930 . S
C343 C342 1.394 . S
C343 C344 1.383 . S
C343 H351 0.929 . S
C344 C343 1.383 . S
C344 C345 1.377 . S
C345 H329 0.930 . S
C345 C344 1.377 . S
C345 C346 1.379 . S
C346 H330 0.931 . S
C346 C340 1.383 . S
C346 C345 1.379 . S
H347 C341 0.959 . S
H348 C341 0.961 1_565 S
H349 C341 0.964 . S
H350 C342 0.930 . S
H351 C343 0.929 . S
H352 C360 0.929 . S
H353 C362 0.930 . S
H354 C364 0.930 . S
H355 C367 0.929 . S
H356 C370 0.930 . S
H357 C372 0.960 . S
H358 C372 0.960 1_455 S
H359 C372 0.960 1_455 S
C360 H352 0.929 . S
C360 C361 1.377 . S
C360 C362 1.384 . S
C361 C360 1.377 . S
C361 C367 1.390 . S
C362 H353 0.930 . S
C362 C360 1.384 . S
C362 C363 1.372 . S
C363 C362 1.372 . S
C363 C364 1.400 . S
C363 C368 1.490 . S
C364 H354 0.930 . S
C364 C363 1.400 . S
C364 C367 1.386 . S
H365 C381 0.930 . S
H366 C382 0.931 . S
C367 H355 0.929 . S
C367 C361 1.390 . S
C367 C364 1.386 . S
C368 C363 1.490 . S
C368 C370 1.395 . S
C368 C371 1.375 1_455 S
H369 C375 0.930 . S
C370 H356 0.930 . S
C370 C368 1.395 . S
C370 C373 1.403 . S
C371 C368 1.375 1_655 S
C371 C372 1.528 . S
C371 C375 1.425 . S
C372 H357 0.960 . S
C372 H358 0.960 1_655 S
C372 H359 0.960 1_655 S
C372 C371 1.528 . S
C373 C370 1.403 . S
C373 C374 1.392 1_455 S
C373 C377 1.495 . S
C374 C373 1.392 1_655 S
C374 C375 1.385 . S
C374 C376 1.478 . S
C375 H369 0.930 . S
C375 C371 1.425 . S
C375 C374 1.385 . S
C376 C374 1.478 . S
C376 C378 1.381 . S
C376 C382 1.383 . S
C377 C373 1.495 . S
C377 H383 0.959 . S
C377 H384 0.961 1_455 S
C377 H385 0.963 . S
C378 C376 1.381 . S
C378 C379 1.394 . S
C378 H386 0.930 . S
C379 C378 1.394 . S
C379 C380 1.383 . S
C379 H387 0.929 . S
C380 C379 1.383 . S
C380 C381 1.377 . S
C381 H365 0.930 . S
C381 C380 1.377 . S
C381 C382 1.379 . S
C382 H366 0.931 . S
C382 C376 1.383 . S
C382 C381 1.379 . S
H383 C377 0.959 . S
H384 C377 0.961 1_655 S
H385 C377 0.963 . S
H386 C378 0.930 . S
H387 C379 0.929 . S
H388 C396 0.929 . S
H389 C398 0.930 . S
H390 C400 0.930 . S
H391 C403 0.929 . S
H392 C406 0.930 . S
H393 C408 0.960 . S
H394 C408 0.960 . S
H395 C408 0.960 . S
C396 H388 0.929 . S
C396 C397 1.377 . S
C396 C398 1.384 . S
C397 C396 1.377 . S
C397 C403 1.390 . S
C398 H389 0.930 . S
C398 C396 1.384 . S
C398 C399 1.372 . S
C399 C398 1.372 . S
C399 C400 1.400 . S
C399 C404 1.490 . S
C400 H390 0.930 . S
C400 C399 1.400 . S
C400 C403 1.386 . S
H401 C417 0.930 . S
H402 C418 0.931 . S
C403 H391 0.929 . S
C403 C397 1.390 . S
C403 C400 1.386 . S
C404 C399 1.490 . S
C404 C406 1.395 . S
C404 C407 1.403 . S
H405 C411 0.930 . S
C406 H392 0.930 . S
C406 C404 1.395 . S
C406 C409 1.403 . S
C407 C404 1.403 . S
C407 C408 1.524 . S
C407 C411 1.400 . S
C408 H393 0.960 . S
C408 H394 0.960 . S
C408 H395 0.960 . S
C408 C407 1.524 . S
C409 C406 1.403 . S
C409 C410 1.392 . S
C409 C413 1.495 . S
C410 C409 1.392 . S
C410 C411 1.385 . S
C410 C412 1.478 . S
C411 H405 0.930 . S
C411 C407 1.400 . S
C411 C410 1.385 . S
C412 C410 1.478 . S
C412 C414 1.381 . S
C412 C418 1.383 . S
C413 C409 1.495 . S
C413 H419 0.959 . S
C413 H420 0.961 . S
C413 H421 0.960 . S
C414 C412 1.381 . S
C414 C415 1.394 . S
C414 H422 0.930 . S
C415 C414 1.394 . S
C415 C416 1.383 . S
C415 H423 0.929 . S
C416 C415 1.383 . S
C416 C417 1.377 . S
C417 H401 0.930 . S
C417 C416 1.377 . S
C417 C418 1.379 . S
C418 H402 0.931 . S
C418 C412 1.383 . S
C418 C417 1.379 . S
H419 C413 0.959 . S
H420 C413 0.961 . S
H421 C413 0.960 . S
H422 C414 0.930 . S
H423 C415 0.929 . S
H424 C432 0.929 . S
H425 C434 0.930 1_565 S
H426 C436 0.930 . S
H427 C439 0.929 . S
H428 C442 0.930 . S
H429 C444 0.960 . S
H430 C444 0.960 . S
H431 C444 0.960 . S
C432 H424 0.929 . S
C432 C433 1.377 . S
C432 C434 1.384 . S
C433 C432 1.377 . S
C433 C439 1.390 . S
C434 H425 0.930 1_545 S
C434 C432 1.384 . S
C434 C435 1.372 . S
C435 C434 1.372 . S
C435 C436 1.400 . S
C435 C440 1.490 . S
C436 H426 0.930 . S
C436 C435 1.400 . S
C436 C439 1.386 . S
H437 C453 0.930 . S
H438 C454 0.931 . S
C439 H427 0.929 . S
C439 C433 1.390 . S
C439 C436 1.386 . S
C440 C435 1.490 . S
C440 C442 1.395 1_545 S
C440 C443 1.403 . S
H441 C447 0.930 . S
C442 H428 0.930 . S
C442 C440 1.395 1_565 S
C442 C445 1.403 . S
C443 C440 1.403 . S
C443 C444 1.524 . S
C443 C447 1.400 . S
C444 H429 0.960 . S
C444 H430 0.960 . S
C444 H431 0.960 . S
C444 C443 1.524 . S
C445 C442 1.403 . S
C445 C446 1.392 . S
C445 C449 1.495 . S
C446 C445 1.392 . S
C446 C447 1.385 1_565 S
C446 C448 1.478 . S
C447 H441 0.930 . S
C447 C443 1.400 . S
C447 C446 1.385 1_545 S
C448 C446 1.478 . S
C448 C450 1.381 . S
C448 C454 1.383 . S
C449 C445 1.495 . S
C449 H455 0.959 . S
C449 H456 0.961 . S
C449 H457 0.960 . S
C450 C448 1.381 . S
C450 C451 1.394 . S
C450 H458 0.930 . S
C451 C450 1.394 . S
C451 C452 1.383 . S
C451 H459 0.929 . S
C452 C451 1.383 . S
C452 C453 1.377 . S
C453 H437 0.930 . S
C453 C452 1.377 . S
C453 C454 1.379 . S
C454 H438 0.931 . S
C454 C448 1.383 . S
C454 C453 1.379 . S
H455 C449 0.959 . S
H456 C449 0.961 . S
H457 C449 0.960 . S
H458 C450 0.930 . S
H459 C451 0.929 . S
H460 C468 0.929 . S
H461 C470 0.930 . S
H462 C472 0.930 . S
H463 C475 0.929 . S
H464 C478 0.930 . S
H465 C480 0.960 1_565 S
H466 C480 0.960 . S
H467 C480 0.960 . S
C468 H460 0.929 . S
C468 C469 1.377 . S
C468 C470 1.384 . S
C469 C468 1.377 . S
C469 C475 1.390 . S
C470 H461 0.930 . S
C470 C468 1.384 . S
C470 C471 1.372 . S
C471 C470 1.372 . S
C471 C472 1.400 . S
C471 C476 1.490 . S
C472 H462 0.930 . S
C472 C471 1.400 . S
C472 C475 1.386 . S
H473 C489 0.930 . S
H474 C490 0.931 . S
C475 H463 0.929 . S
C475 C469 1.390 . S
C475 C472 1.386 . S
C476 C471 1.490 . S
C476 C478 1.395 . S
C476 C479 1.403 . S
H477 C483 0.930 . S
C478 H464 0.930 . S
C478 C476 1.395 . S
C478 C481 1.403 1_445 S
C479 C476 1.403 . S
C479 C480 1.524 . S
C479 C483 1.400 1_445 S
C480 H465 0.960 1_545 S
C480 H466 0.960 . S
C480 H467 0.960 . S
C480 C479 1.524 . S
C481 C478 1.403 1_665 S
C481 C482 1.392 . S
C481 C485 1.495 . S
C482 C481 1.392 . S
C482 C483 1.385 . S
C482 C484 1.478 . S
C483 H477 0.930 . S
C483 C479 1.400 1_665 S
C483 C482 1.385 . S
C484 C482 1.478 . S
C484 C486 1.381 . S
C484 C490 1.383 . S
C485 C481 1.495 . S
C485 H491 0.957 1_565 S
C485 H492 0.961 . S
C485 H493 0.960 . S
C486 C484 1.381 . S
C486 C487 1.394 . S
C486 H494 0.930 . S
C487 C486 1.394 . S
C487 C488 1.383 . S
C487 H495 0.929 . S
C488 C487 1.383 . S
C488 C489 1.377 . S
C489 H473 0.930 . S
C489 C488 1.377 . S
C489 C490 1.379 . S
C490 H474 0.931 . S
C490 C484 1.383 . S
C490 C489 1.379 . S
H491 C485 0.957 1_545 S
H492 C485 0.961 . S
H493 C485 0.960 . S
H494 C486 0.930 . S
H495 C487 0.929 . S
H496 C504 0.929 . S
H497 C506 0.930 . S
H498 C508 0.930 . S
H499 C511 0.929 . S
H500 C514 0.930 . S
H501 C516 0.960 . S
H502 C516 0.960 . S
H503 C516 0.960 . S
C504 H496 0.929 . S
C504 C505 1.377 . S
C504 C506 1.384 . S
C505 C504 1.377 . S
C505 C511 1.390 . S
C506 H497 0.930 . S
C506 C504 1.384 . S
C506 C507 1.372 . S
C507 C506 1.372 . S
C507 C508 1.400 . S
C507 C512 1.490 . S
C508 H498 0.930 . S
C508 C507 1.400 . S
C508 C511 1.386 . S
H509 C525 0.930 . S
H510 C526 0.931 . S
C511 H499 0.929 . S
C511 C505 1.390 . S
C511 C508 1.386 . S
C512 C507 1.490 . S
C512 C514 1.395 1_565 S
C512 C515 1.403 . S
H513 C519 0.930 . S
C514 H500 0.930 . S
C514 C512 1.395 1_545 S
C514 C517 1.403 . S
C515 C512 1.403 . S
C515 C516 1.524 . S
C515 C519 1.400 . S
C516 H501 0.960 . S
C516 H502 0.960 . S
C516 H503 0.960 . S
C516 C515 1.524 . S
C517 C514 1.403 . S
C517 C518 1.392 . S
C517 C521 1.495 . S
C518 C517 1.392 . S
C518 C519 1.385 1_545 S
C518 C520 1.478 . S
C519 H513 0.930 . S
C519 C515 1.400 . S
C519 C518 1.385 1_565 S
C520 C518 1.478 . S
C520 C522 1.381 . S
C520 C526 1.383 . S
C521 C517 1.495 . S
C521 H527 0.959 . S
C521 H528 0.961 . S
C521 H529 0.960 . S
C522 C520 1.381 . S
C522 C523 1.394 . S
C522 H530 0.930 . S
C523 C522 1.394 . S
C523 C524 1.383 . S
C523 H531 0.929 . S
C524 C523 1.383 . S
C524 C525 1.377 . S
C525 H509 0.930 . S
C525 C524 1.377 . S
C525 C526 1.379 . S
C526 H510 0.931 . S
C526 C520 1.383 . S
C526 C525 1.379 . S
H527 C521 0.959 . S
H528 C521 0.961 . S
H529 C521 0.960 . S
H530 C522 0.930 . S
H531 C523 0.929 . S
H532 C540 0.929 . S
H533 C542 0.930 . S
H534 C544 0.930 . S
H535 C547 0.929 . S
H536 C550 0.930 . S
H537 C552 0.960 . S
H538 C552 0.960 1_565 S
H539 C552 0.960 1_565 S
C540 H532 0.929 . S
C540 C541 1.377 . S
C540 C542 1.384 . S
C541 C540 1.377 . S
C541 C547 1.390 . S
C542 H533 0.930 . S
C542 C540 1.384 . S
C542 C543 1.372 . S
C543 C542 1.372 . S
C543 C544 1.400 . S
C543 C548 1.490 . S
C544 H534 0.930 . S
C544 C543 1.400 . S
C544 C547 1.386 . S
H545 C561 0.930 . S
H546 C562 0.931 . S
C547 H535 0.929 . S
C547 C541 1.390 . S
C547 C544 1.386 . S
C548 C543 1.490 . S
C548 C550 1.395 1_655 S
C548 C551 1.403 1_565 S
H549 C555 0.930 . S
C550 H536 0.930 . S
C550 C548 1.395 1_455 S
C550 C553 1.403 . S
C551 C548 1.403 1_545 S
C551 C552 1.524 . S
C551 C555 1.400 . S
C552 H537 0.960 . S
C552 H538 0.960 1_545 S
C552 H539 0.960 1_545 S
C552 C551 1.524 . S
C553 C550 1.403 . S
C553 C554 1.392 1_565 S
C553 C557 1.495 . S
C554 C553 1.392 1_545 S
C554 C555 1.385 1_455 S
C554 C556 1.478 . S
C555 H549 0.930 . S
C555 C551 1.400 . S
C555 C554 1.385 1_655 S
C556 C554 1.478 . S
C556 C558 1.381 . S
C556 C562 1.383 . S
C557 C553 1.495 . S
C557 H563 0.959 . S
C557 H564 0.974 . S
C557 H565 0.958 1_565 S
C558 C556 1.381 . S
C558 C559 1.394 . S
C558 H566 0.930 . S
C559 C558 1.394 . S
C559 C560 1.383 . S
C559 H567 0.929 . S
C560 C559 1.383 . S
C560 C561 1.377 . S
C561 H545 0.930 . S
C561 C560 1.377 . S
C561 C562 1.379 . S
C562 H546 0.931 . S
C562 C556 1.383 . S
C562 C561 1.379 . S
H563 C557 0.959 . S
H564 C557 0.974 . S
H565 C557 0.958 1_545 S
H566 C558 0.930 . S
H567 C559 0.929 . S
H568 C576 0.929 . S
H569 C578 0.930 . S
H570 C580 0.930 . S
H571 C583 0.929 . S
H572 C586 0.930 . S
H573 C588 0.960 . S
H574 C588 0.960 1_455 S
H575 C588 0.960 1_455 S
C576 H568 0.929 . S
C576 C577 1.377 . S
C576 C578 1.384 . S
C577 C576 1.377 . S
C577 C583 1.390 . S
C578 H569 0.930 . S
C578 C576 1.384 . S
C578 C579 1.372 . S
C579 C578 1.372 . S
C579 C580 1.400 . S
C579 C584 1.490 . S
C580 H570 0.930 . S
C580 C579 1.400 . S
C580 C583 1.386 . S
H581 C597 0.930 . S
H582 C598 0.931 . S
C583 H571 0.929 . S
C583 C577 1.390 . S
C583 C580 1.386 . S
C584 C579 1.490 . S
C584 C586 1.395 . S
C584 C587 1.403 1_455 S
H585 C591 0.930 . S
C586 H572 0.930 . S
C586 C584 1.395 . S
C586 C589 1.403 . S
C587 C584 1.403 1_655 S
C587 C588 1.524 . S
C587 C591 1.400 . S
C588 H573 0.960 . S
C588 H574 0.960 1_655 S
C588 H575 0.960 1_655 S
C588 C587 1.524 . S
C589 C586 1.403 . S
C589 C590 1.392 1_455 S
C589 C593 1.495 . S
C590 C589 1.392 1_655 S
C590 C591 1.385 . S
C590 C592 1.478 . S
C591 H585 0.930 . S
C591 C587 1.400 . S
C591 C590 1.385 . S
C592 C590 1.478 . S
C592 C594 1.381 . S
C592 C598 1.383 . S
C593 C589 1.495 . S
C593 H599 0.959 . S
C593 H600 0.961 1_455 S
C593 H601 0.960 . S
C594 C592 1.381 . S
C594 C595 1.394 . S
C594 H602 0.930 . S
C595 C594 1.394 . S
C595 C596 1.383 . S
C595 H603 0.929 . S
C596 C595 1.383 . S
C596 C597 1.377 . S
C597 H581 0.930 . S
C597 C596 1.377 . S
C597 C598 1.379 . S
C598 H582 0.931 . S
C598 C592 1.383 . S
C598 C597 1.379 . S
H599 C593 0.959 . S
H600 C593 0.961 1_655 S
H601 C593 0.960 . S
H602 C594 0.930 . S
H603 C595 0.929 . S
H604 C612 0.929 . S
H605 C614 0.930 . S
H606 C616 0.930 . S
H607 C619 0.929 . S
H608 C622 0.930 . S
H609 C624 0.960 . S
H610 C624 0.960 . S
H611 C624 0.960 . S
C612 H604 0.929 . S
C612 C613 1.377 . S
C612 C614 1.384 . S
C613 C612 1.377 . S
C613 C619 1.390 . S
C614 H605 0.930 . S
C614 C612 1.384 . S
C614 C615 1.372 . S
C615 C614 1.372 . S
C615 C616 1.400 . S
C615 C620 1.490 . S
C616 H606 0.930 . S
C616 C615 1.400 . S
C616 C619 1.386 . S
H617 C633 0.930 . S
H618 C634 0.931 . S
C619 H607 0.929 . S
C619 C613 1.390 . S
C619 C616 1.386 . S
C620 C615 1.490 . S
C620 C622 1.395 . S
C620 C623 1.403 . S
H621 C627 0.930 . S
C622 H608 0.930 . S
C622 C620 1.395 . S
C622 C625 1.403 . S
C623 C620 1.403 . S
C623 C624 1.524 . S
C623 C627 1.400 . S
C624 H609 0.960 . S
C624 H610 0.960 . S
C624 H611 0.960 . S
C624 C623 1.524 . S
C625 C622 1.403 . S
C625 C626 1.392 . S
C625 C629 1.495 . S
C626 C625 1.392 . S
C626 C627 1.385 . S
C626 C628 1.478 . S
C627 H621 0.930 . S
C627 C623 1.400 . S
C627 C626 1.385 . S
C628 C626 1.478 . S
C628 C630 1.381 . S
C628 C634 1.383 . S
C629 C625 1.495 . S
C629 H635 0.959 . S
C629 H636 0.961 . S
C629 H637 0.960 . S
C630 C628 1.381 . S
C630 C631 1.394 . S
C630 H638 0.930 . S
C631 C630 1.394 . S
C631 C632 1.383 . S
C631 H639 0.929 . S
C632 C631 1.383 . S
C632 C633 1.377 . S
C633 H617 0.930 . S
C633 C632 1.377 . S
C633 C634 1.379 . S
C634 H618 0.931 . S
C634 C628 1.383 . S
C634 C633 1.379 . S
H635 C629 0.959 . S
H636 C629 0.961 . S
H637 C629 0.960 . S
H638 C630 0.930 . S
H639 C631 0.929 . S
H640 C648 0.929 . S
H641 C650 0.930 . S
H642 C652 0.930 . S
H643 C655 0.929 . S
H644 C658 0.930 . S
H645 C660 0.960 . S
H646 C660 0.960 . S
H647 C660 0.960 . S
C648 H640 0.929 . S
C648 C649 1.377 . S
C648 C650 1.384 . S
C649 C648 1.377 . S
C649 C655 1.390 . S
C650 H641 0.930 . S
C650 C648 1.384 . S
C650 C651 1.372 . S
C651 C650 1.372 . S
C651 C652 1.400 . S
C651 C656 1.490 . S
C652 H642 0.930 . S
C652 C651 1.400 . S
C652 C655 1.386 . S
H653 C669 0.930 . S
H654 C670 0.931 . S
C655 H643 0.929 . S
C655 C649 1.390 . S
C655 C652 1.386 . S
C656 C651 1.490 . S
C656 C658 1.395 . S
C656 C659 1.403 . S
H657 C663 0.930 . S
C658 H644 0.930 . S
C658 C656 1.395 . S
C658 C661 1.403 . S
C659 C656 1.403 . S
C659 C660 1.524 . S
C659 C663 1.400 . S
C660 H645 0.960 . S
C660 H646 0.960 . S
C660 H647 0.960 . S
C660 C659 1.524 . S
C661 C658 1.403 . S
C661 C662 1.392 . S
C661 C665 1.495 . S
C662 C661 1.392 . S
C662 C663 1.385 . S
C662 C664 1.478 . S
C663 H657 0.930 . S
C663 C659 1.400 . S
C663 C662 1.385 . S
C664 C662 1.478 . S
C664 C666 1.381 . S
C664 C670 1.383 . S
C665 C661 1.495 . S
C665 H671 0.959 . S
C665 H672 0.961 . S
C665 H673 0.960 . S
C666 C664 1.381 . S
C666 C667 1.394 . S
C666 H674 0.930 . S
C667 C666 1.394 . S
C667 C668 1.383 . S
C667 H675 0.929 . S
C668 C667 1.383 . S
C668 C669 1.377 . S
C669 H653 0.930 . S
C669 C668 1.377 . S
C669 C670 1.379 . S
C670 H654 0.931 . S
C670 C664 1.383 . S
C670 C669 1.379 . S
H671 C665 0.959 . S
H672 C665 0.961 . S
H673 C665 0.960 . S
H674 C666 0.930 . S
H675 C667 0.929 . S
H676 C684 0.929 . S
H677 C686 0.930 . S
H678 C688 0.930 . S
H679 C691 0.929 . S
H680 C694 0.930 . S
H681 C696 0.985 . S
H682 C696 0.943 1_565 S
H683 C696 0.955 1_565 S
C684 H676 0.929 . S
C684 C685 1.377 . S
C684 C686 1.384 . S
C685 C684 1.377 . S
C685 C691 1.390 . S
C686 H677 0.930 . S
C686 C684 1.384 . S
C686 C687 1.372 . S
C687 C686 1.372 . S
C687 C688 1.400 . S
C687 C692 1.490 . S
C688 H678 0.930 . S
C688 C687 1.400 . S
C688 C691 1.386 . S
H689 C705 0.930 . S
H690 C706 0.931 . S
C691 H679 0.929 . S
C691 C685 1.390 . S
C691 C688 1.386 . S
C692 C687 1.490 . S
C692 C694 1.395 . S
C692 C695 1.403 . S
H693 C699 0.930 . S
C694 H680 0.930 . S
C694 C692 1.395 . S
C694 C697 1.403 . S
C695 C692 1.403 . S
C695 C696 1.522 1_565 S
C695 C699 1.400 1_565 S
C696 H681 0.985 . S
C696 H682 0.943 1_545 S
C696 H683 0.955 1_545 S
C696 C695 1.522 1_545 S
C697 C694 1.403 . S
C697 C698 1.392 1_565 S
C697 C701 1.495 . S
C698 C697 1.392 1_545 S
C698 C699 1.385 . S
C698 C700 1.478 . S
C699 H693 0.930 . S
C699 C695 1.400 1_545 S
C699 C698 1.385 . S
C700 C698 1.478 . S
C700 C702 1.381 . S
C700 C706 1.383 . S
C701 C697 1.495 . S
C701 H707 0.959 . S
C701 H708 0.961 1_565 S
C701 H709 0.955 1_565 S
C702 C700 1.381 . S
C702 C703 1.394 . S
C702 H710 0.930 . S
C703 C702 1.394 . S
C703 C704 1.383 . S
C703 H711 0.929 . S
C704 C703 1.383 . S
C704 C705 1.377 . S
C705 H689 0.930 . S
C705 C704 1.377 . S
C705 C706 1.379 . S
C706 H690 0.931 . S
C706 C700 1.383 . S
C706 C705 1.379 . S
H707 C701 0.959 . S
H708 C701 0.961 1_545 S
H709 C701 0.955 1_545 S
H710 C702 0.930 . S
H711 C703 0.929 . S
H712 C720 0.929 . S
H713 C722 0.930 . S
H714 C724 0.930 . S
H715 C727 0.929 . S
H716 C730 0.930 . S
H717 C732 0.960 . S
H718 C732 0.960 1_655 S
H719 C732 0.960 1_655 S
C720 H712 0.929 . S
C720 C721 1.377 . S
C720 C722 1.384 . S
C721 C720 1.377 . S
C721 C727 1.390 . S
C722 H713 0.930 . S
C722 C720 1.384 . S
C722 C723 1.372 . S
C723 C722 1.372 . S
C723 C724 1.400 . S
C723 C728 1.490 . S
C724 H714 0.930 . S
C724 C723 1.400 . S
C724 C727 1.386 . S
H725 C741 0.930 . S
H726 C742 0.931 . S
C727 H715 0.929 . S
C727 C721 1.390 . S
C727 C724 1.386 . S
C728 C723 1.490 . S
C728 C730 1.395 1_565 S
C728 C731 1.403 . S
H729 C735 0.930 . S
C730 H716 0.930 . S
C730 C728 1.395 1_545 S
C730 C733 1.403 . S
C731 C728 1.403 . S
C731 C732 1.524 1_655 S
C731 C735 1.400 1_655 S
C732 H717 0.960 . S
C732 H718 0.960 1_455 S
C732 H719 0.960 1_455 S
C732 C731 1.524 1_455 S
C733 C730 1.403 . S
C733 C734 1.392 1_655 S
C733 C737 1.495 . S
C734 C733 1.392 1_455 S
C734 C735 1.385 1_545 S
C734 C736 1.478 . S
C735 H729 0.930 . S
C735 C731 1.400 1_455 S
C735 C734 1.385 1_565 S
C736 C734 1.478 . S
C736 C738 1.381 . S
C736 C742 1.383 . S
C737 C733 1.495 . S
C737 H743 0.959 . S
C737 H744 0.961 1_655 S
C737 H745 0.959 1_655 S
C738 C736 1.381 . S
C738 C739 1.394 . S
C738 H746 0.930 . S
C739 C738 1.394 . S
C739 C740 1.383 . S
C739 H747 0.929 . S
C740 C739 1.383 . S
C740 C741 1.377 . S
C741 H725 0.930 . S
C741 C740 1.377 . S
C741 C742 1.379 . S
C742 H726 0.931 . S
C742 C736 1.383 . S
C742 C741 1.379 . S
H743 C737 0.959 . S
H744 C737 0.961 1_455 S
H745 C737 0.959 1_455 S
H746 C738 0.930 . S
H747 C739 0.929 . S
H748 C756 0.929 . S
H749 C758 0.930 . S
H750 C760 0.930 . S
H751 C763 0.929 . S
H752 C766 0.930 . S
H753 C768 0.960 . S
H754 C768 0.960 . S
H755 C768 0.960 . S
C756 H748 0.929 . S
C756 C757 1.377 . S
C756 C758 1.384 . S
C757 C756 1.377 . S
C757 C763 1.390 . S
C758 H749 0.930 . S
C758 C756 1.384 . S
C758 C759 1.372 . S
C759 C758 1.372 . S
C759 C760 1.400 . S
C759 C764 1.490 . S
C760 H750 0.930 . S
C760 C759 1.400 . S
C760 C763 1.386 . S
H761 C777 0.930 . S
H762 C778 0.931 . S
C763 H751 0.929 . S
C763 C757 1.390 . S
C763 C760 1.386 . S
C764 C759 1.490 . S
C764 C766 1.395 . S
C764 C767 1.403 . S
H765 C771 0.930 . S
C766 H752 0.930 . S
C766 C764 1.395 . S
C766 C769 1.403 1_455 S
C767 C764 1.403 . S
C767 C768 1.524 . S
C767 C771 1.400 1_455 S
C768 H753 0.960 . S
C768 H754 0.960 . S
C768 H755 0.960 . S
C768 C767 1.524 . S
C769 C766 1.403 1_655 S
C769 C770 1.392 . S
C769 C773 1.495 . S
C770 C769 1.392 . S
C770 C771 1.385 . S
C770 C772 1.478 . S
C771 H765 0.930 . S
C771 C767 1.400 1_655 S
C771 C770 1.385 . S
C772 C770 1.478 . S
C772 C774 1.381 . S
C772 C778 1.383 . S
C773 C769 1.495 . S
C773 H779 0.968 . S
C773 H780 0.961 . S
C773 H781 0.960 . S
C774 C772 1.381 . S
C774 C775 1.394 . S
C774 H782 0.930 . S
C775 C774 1.394 . S
C775 C776 1.383 . S
C775 H783 0.929 . S
C776 C775 1.383 . S
C776 C777 1.377 . S
C777 H761 0.930 . S
C777 C776 1.377 . S
C777 C778 1.379 . S
C778 H762 0.931 . S
C778 C772 1.383 . S
C778 C777 1.379 . S
H779 C773 0.968 . S
H780 C773 0.961 . S
H781 C773 0.960 . S
H782 C774 0.930 . S
H783 C775 0.929 . S
H784 C792 0.929 . S
H785 C794 0.930 . S
H786 C796 0.930 . S
H787 C799 0.929 . S
H788 C802 0.930 . S
H789 C804 0.960 . S
H790 C804 0.960 . S
H791 C804 0.960 . S
C792 H784 0.929 . S
C792 C793 1.377 . S
C792 C794 1.384 . S
C793 C792 1.377 . S
C793 C799 1.390 . S
C794 H785 0.930 . S
C794 C792 1.384 . S
C794 C795 1.372 . S
C795 C794 1.372 . S
C795 C796 1.400 . S
C795 C800 1.490 . S
C796 H786 0.930 . S
C796 C795 1.400 . S
C796 C799 1.386 . S
H797 C813 0.930 . S
H798 C814 0.931 . S
C799 H787 0.929 . S
C799 C793 1.390 . S
C799 C796 1.386 . S
C800 C795 1.490 . S
C800 C802 1.395 . S
C800 C803 1.403 . S
H801 C807 0.930 . S
C802 H788 0.930 . S
C802 C800 1.395 . S
C802 C805 1.403 . S
C803 C800 1.403 . S
C803 C804 1.524 . S
C803 C807 1.400 . S
C804 H789 0.960 . S
C804 H790 0.960 . S
C804 H791 0.960 . S
C804 C803 1.524 . S
C805 C802 1.403 . S
C805 C806 1.392 . S
C805 C809 1.495 . S
C806 C805 1.392 . S
C806 C807 1.385 . S
C806 C808 1.478 . S
C807 H801 0.930 . S
C807 C803 1.400 . S
C807 C806 1.385 . S
C808 C806 1.478 . S
C808 C810 1.381 . S
C808 C814 1.383 . S
C809 C805 1.495 . S
C809 H815 0.959 . S
C809 H816 0.961 . S
C809 H817 0.960 . S
C810 C808 1.381 . S
C810 C811 1.394 . S
C810 H818 0.930 . S
C811 C810 1.394 . S
C811 C812 1.383 . S
C811 H819 0.929 . S
C812 C811 1.383 . S
C812 C813 1.377 . S
C813 H797 0.930 . S
C813 C812 1.377 . S
C813 C814 1.379 . S
C814 H798 0.931 . S
C814 C808 1.383 . S
C814 C813 1.379 . S
H815 C809 0.959 . S
H816 C809 0.961 . S
H817 C809 0.960 . S
H818 C810 0.930 . S
H819 C811 0.929 . S
H820 C828 0.929 . S
H821 C830 0.930 . S
H822 C832 0.930 . S
H823 C835 0.929 . S
H824 C838 0.930 . S
H825 C840 0.960 . S
H826 C840 0.960 . S
H827 C840 0.960 . S
C828 H820 0.929 . S
C828 C829 1.377 . S
C828 C830 1.384 . S
C829 C828 1.377 . S
C829 C835 1.390 . S
C830 H821 0.930 . S
C830 C828 1.384 . S
C830 C831 1.372 . S
C831 C830 1.372 . S
C831 C832 1.400 . S
C831 C836 1.490 . S
C832 H822 0.930 . S
C832 C831 1.400 . S
C832 C835 1.386 . S
H833 C849 0.930 . S
H834 C850 0.931 . S
C835 H823 0.929 . S
C835 C829 1.390 . S
C835 C832 1.386 . S
C836 C831 1.490 . S
C836 C838 1.395 . S
C836 C839 1.403 . S
H837 C843 0.930 . S
C838 H824 0.930 . S
C838 C836 1.395 . S
C838 C841 1.403 . S
C839 C836 1.403 . S
C839 C840 1.524 . S
C839 C843 1.400 . S
C840 H825 0.960 . S
C840 H826 0.960 . S
C840 H827 0.960 . S
C840 C839 1.524 . S
C841 C838 1.403 . S
C841 C842 1.392 . S
C841 C845 1.495 . S
C842 C841 1.392 . S
C842 C843 1.385 . S
C842 C844 1.478 . S
C843 H837 0.930 . S
C843 C839 1.400 . S
C843 C842 1.385 . S
C844 C842 1.478 . S
C844 C846 1.381 . S
C844 C850 1.383 . S
C845 C841 1.495 . S
C845 H851 0.959 . S
C845 H852 0.961 . S
C845 H853 0.960 . S
C846 C844 1.381 . S
C846 C847 1.394 . S
C846 H854 0.930 . S
C847 C846 1.394 . S
C847 C848 1.383 . S
C847 H855 0.929 . S
C848 C847 1.383 . S
C848 C849 1.377 . S
C849 H833 0.930 . S
C849 C848 1.377 . S
C849 C850 1.379 . S
C850 H834 0.931 . S
C850 C844 1.383 . S
C850 C849 1.379 . S
H851 C845 0.959 . S
H852 C845 0.961 . S
H853 C845 0.960 . S
H854 C846 0.930 . S
H855 C847 0.929 . S
H856 C864 0.929 . S
H857 C866 0.930 . S
H858 C868 0.930 . S
H859 C871 0.929 . S
H860 C874 0.930 . S
H861 C876 0.960 . S
H862 C876 0.960 . S
H863 C876 0.960 . S
C864 H856 0.929 . S
C864 C865 1.377 . S
C864 C866 1.384 . S
C865 C864 1.377 . S
C865 C871 1.390 . S
C866 H857 0.930 . S
C866 C864 1.384 . S
C866 C867 1.372 . S
C867 C866 1.372 . S
C867 C868 1.400 . S
C867 C872 1.490 . S
C868 H858 0.930 . S
C868 C867 1.400 . S
C868 C871 1.386 . S
H869 C885 0.930 . S
H870 C886 0.931 . S
C871 H859 0.929 . S
C871 C865 1.390 . S
C871 C868 1.386 . S
C872 C867 1.490 . S
C872 C874 1.395 . S
C872 C875 1.403 . S
H873 C879 0.930 . S
C874 H860 0.930 . S
C874 C872 1.395 . S
C874 C877 1.403 . S
C875 C872 1.403 . S
C875 C876 1.524 . S
C875 C879 1.400 . S
C876 H861 0.960 . S
C876 H862 0.960 . S
C876 H863 0.960 . S
C876 C875 1.524 . S
C877 C874 1.403 . S
C877 C878 1.392 . S
C877 C881 1.495 . S
C878 C877 1.392 . S
C878 C879 1.385 . S
C878 C880 1.478 . S
C879 H873 0.930 . S
C879 C875 1.400 . S
C879 C878 1.385 . S
C880 C878 1.478 . S
C880 C882 1.381 . S
C880 C886 1.383 . S
C881 C877 1.495 . S
C881 H887 0.959 . S
C881 H888 0.961 . S
C881 H889 0.960 . S
C882 C880 1.381 . S
C882 C883 1.394 . S
C882 H890 0.930 . S
C883 C882 1.394 . S
C883 C884 1.383 . S
C883 H891 0.929 . S
C884 C883 1.383 . S
C884 C885 1.377 . S
C885 H869 0.930 . S
C885 C884 1.377 . S
C885 C886 1.379 . S
C886 H870 0.931 . S
C886 C880 1.383 . S
C886 C885 1.379 . S
H887 C881 0.959 . S
H888 C881 0.961 . S
H889 C881 0.960 . S
H890 C882 0.930 . S
H891 C883 0.929 . S
H892 C900 0.929 . S
H893 C902 0.930 . S
H894 C904 0.930 . S
H895 C907 0.929 . S
H896 C910 0.930 . S
H897 C912 0.960 . S
H898 C912 0.960 . S
H899 C912 0.960 . S
C900 H892 0.929 . S
C900 C901 1.377 . S
C900 C902 1.384 . S
C901 C900 1.377 . S
C901 C907 1.390 . S
C902 H893 0.930 . S
C902 C900 1.384 . S
C902 C903 1.372 . S
C903 C902 1.372 . S
C903 C904 1.400 . S
C903 C908 1.490 . S
C904 H894 0.930 . S
C904 C903 1.400 . S
C904 C907 1.386 . S
H905 C921 0.930 . S
H906 C922 0.931 . S
C907 H895 0.929 . S
C907 C901 1.390 . S
C907 C904 1.386 . S
C908 C903 1.490 . S
C908 C910 1.395 . S
C908 C911 1.403 . S
H909 C915 0.930 . S
C910 H896 0.930 . S
C910 C908 1.395 . S
C910 C913 1.403 . S
C911 C908 1.403 . S
C911 C912 1.524 . S
C911 C915 1.400 . S
C912 H897 0.960 . S
C912 H898 0.960 . S
C912 H899 0.960 . S
C912 C911 1.524 . S
C913 C910 1.403 . S
C913 C914 1.392 . S
C913 C917 1.495 . S
C914 C913 1.392 . S
C914 C915 1.385 . S
C914 C916 1.478 . S
C915 H909 0.930 . S
C915 C911 1.400 . S
C915 C914 1.385 . S
C916 C914 1.478 . S
C916 C918 1.381 . S
C916 C922 1.383 . S
C917 C913 1.495 . S
C917 H923 0.959 . S
C917 H924 0.961 . S
C917 H925 0.960 . S
C918 C916 1.381 . S
C918 C919 1.394 . S
C918 H926 0.930 . S
C919 C918 1.394 . S
C919 C920 1.383 . S
C919 H927 0.929 . S
C920 C919 1.383 . S
C920 C921 1.377 . S
C921 H905 0.930 . S
C921 C920 1.377 . S
C921 C922 1.379 . S
C922 H906 0.931 . S
C922 C916 1.383 . S
C922 C921 1.379 . S
H923 C917 0.959 . S
H924 C917 0.961 . S
H925 C917 0.960 . S
H926 C918 0.930 . S
H927 C919 0.929 . S
H928 C936 0.929 . S
H929 C938 0.930 . S
H930 C940 0.930 . S
H931 C943 0.929 . S
H932 C946 0.930 . S
H933 C948 0.960 . S
H934 C948 0.960 . S
H935 C948 0.960 . S
C936 H928 0.929 . S
C936 C937 1.377 . S
C936 C938 1.384 . S
C937 C936 1.377 . S
C937 C943 1.390 . S
C938 H929 0.930 . S
C938 C936 1.384 . S
C938 C939 1.372 . S
C939 C938 1.372 . S
C939 C940 1.400 . S
C939 C944 1.490 . S
C940 H930 0.930 . S
C940 C939 1.400 . S
C940 C943 1.386 . S
H941 C957 0.930 . S
H942 C958 0.931 . S
C943 H931 0.929 . S
C943 C937 1.390 . S
C943 C940 1.386 . S
C944 C939 1.490 . S
C944 C946 1.395 . S
C944 C947 1.403 . S
H945 C951 0.930 . S
C946 H932 0.930 . S
C946 C944 1.395 . S
C946 C949 1.403 . S
C947 C944 1.403 . S
C947 C948 1.524 . S
C947 C951 1.400 . S
C948 H933 0.960 . S
C948 H934 0.960 . S
C948 H935 0.960 . S
C948 C947 1.524 . S
C949 C946 1.403 . S
C949 C950 1.392 . S
C949 C953 1.495 . S
C950 C949 1.392 . S
C950 C951 1.385 . S
C950 C952 1.478 . S
C951 H945 0.930 . S
C951 C947 1.400 . S
C951 C950 1.385 . S
C952 C950 1.478 . S
C952 C954 1.381 . S
C952 C958 1.383 . S
C953 C949 1.495 . S
C953 H959 0.959 . S
C953 H960 0.961 . S
C953 H961 0.960 . S
C954 C952 1.381 . S
C954 C955 1.394 . S
C954 H962 0.930 . S
C955 C954 1.394 . S
C955 C956 1.383 . S
C955 H963 0.929 . S
C956 C955 1.383 . S
C956 C957 1.377 . S
C957 H941 0.930 . S
C957 C956 1.377 . S
C957 C958 1.379 . S
C958 H942 0.931 . S
C958 C952 1.383 . S
C958 C957 1.379 . S
H959 C953 0.959 . S
H960 C953 0.961 . S
H961 C953 0.960 . S
H962 C954 0.930 . S
H963 C955 0.929 . S
H964 C972 0.929 . S
H965 C974 0.930 . S
H966 C976 0.930 . S
H967 C979 0.929 . S
H968 C982 0.930 . S
H969 C984 0.960 . S
H970 C984 0.960 . S
H971 C984 0.960 . S
C972 H964 0.929 . S
C972 C973 1.377 . S
C972 C974 1.384 . S
C973 C972 1.377 . S
C973 C979 1.390 . S
C974 H965 0.930 . S
C974 C972 1.384 . S
C974 C975 1.372 . S
C975 C974 1.372 . S
C975 C976 1.400 . S
C975 C980 1.490 . S
C976 H966 0.930 . S
C976 C975 1.400 . S
C976 C979 1.386 . S
H977 C993 0.930 . S
H978 C994 0.931 . S
C979 H967 0.929 . S
C979 C973 1.390 . S
C979 C976 1.386 . S
C980 C975 1.490 . S
C980 C982 1.395 . S
C980 C983 1.403 . S
H981 C987 0.930 . S
C982 H968 0.930 . S
C982 C980 1.395 . S
C982 C985 1.403 . S
C983 C980 1.403 . S
C983 C984 1.524 . S
C983 C987 1.400 . S
C984 H969 0.960 . S
C984 H970 0.960 . S
C984 H971 0.960 . S
C984 C983 1.524 . S
C985 C982 1.403 . S
C985 C986 1.392 . S
C985 C989 1.495 . S
C986 C985 1.392 . S
C986 C987 1.385 . S
C986 C988 1.478 . S
C987 H981 0.930 . S
C987 C983 1.400 . S
C987 C986 1.385 . S
C988 C986 1.478 . S
C988 C990 1.381 . S
C988 C994 1.383 . S
C989 C985 1.495 . S
C989 H995 0.959 . S
C989 H996 0.961 . S
C989 H997 0.960 . S
C990 C988 1.381 . S
C990 C991 1.394 . S
C990 H998 0.930 . S
C991 C990 1.394 . S
C991 C992 1.383 . S
C991 H999 0.929 . S
C992 C991 1.383 . S
C992 C993 1.377 . S
C993 H977 0.930 . S
C993 C992 1.377 . S
C993 C994 1.379 . S
C994 H978 0.931 . S
C994 C988 1.383 . S
C994 C993 1.379 . S
H995 C989 0.959 . S
H996 C989 0.961 . S
H997 C989 0.960 . S
H998 C990 0.930 . S
H999 C991 0.929 . S
H1000 C1008 0.929 . S
H1001 C1010 0.930 . S
H1002 C1012 0.930 . S
H1003 C1015 0.929 . S
H1004 C1018 0.930 . S
H1005 C1020 0.960 . S
H1006 C1020 0.960 . S
H1007 C1020 0.960 . S
C1008 H1000 0.929 . S
C1008 C1009 1.377 . S
C1008 C1010 1.384 . S
C1009 C1008 1.377 . S
C1009 C1015 1.390 . S
C1010 H1001 0.930 . S
C1010 C1008 1.384 . S
C1010 C1011 1.372 . S
C1011 C1010 1.372 . S
C1011 C1012 1.400 . S
C1011 C1016 1.490 . S
C1012 H1002 0.930 . S
C1012 C1011 1.400 . S
C1012 C1015 1.386 . S
H1013 C1029 0.930 . S
H1014 C1030 0.931 . S
C1015 H1003 0.929 . S
C1015 C1009 1.390 . S
C1015 C1012 1.386 . S
C1016 C1011 1.490 . S
C1016 C1018 1.395 . S
C1016 C1019 1.403 . S
H1017 C1023 0.930 . S
C1018 H1004 0.930 . S
C1018 C1016 1.395 . S
C1018 C1021 1.403 . S
C1019 C1016 1.403 . S
C1019 C1020 1.524 . S
C1019 C1023 1.400 . S
C1020 H1005 0.960 . S
C1020 H1006 0.960 . S
C1020 H1007 0.960 . S
C1020 C1019 1.524 . S
C1021 C1018 1.403 . S
C1021 C1022 1.392 . S
C1021 C1025 1.495 . S
C1022 C1021 1.392 . S
C1022 C1023 1.385 . S
C1022 C1024 1.478 . S
C1023 H1017 0.930 . S
C1023 C1019 1.400 . S
C1023 C1022 1.385 . S
C1024 C1022 1.478 . S
C1024 C1026 1.381 . S
C1024 C1030 1.383 . S
C1025 C1021 1.495 . S
C1025 H1031 0.959 . S
C1025 H1032 0.961 . S
C1025 H1033 0.960 . S
C1026 C1024 1.381 . S
C1026 C1027 1.394 . S
C1026 H1034 0.930 . S
C1027 C1026 1.394 . S
C1027 C1028 1.383 . S
C1027 H1035 0.929 . S
C1028 C1027 1.383 . S
C1028 C1029 1.377 . S
C1029 H1013 0.930 . S
C1029 C1028 1.377 . S
C1029 C1030 1.379 . S
C1030 H1014 0.931 . S
C1030 C1024 1.383 . S
C1030 C1029 1.379 . S
H1031 C1025 0.959 . S
H1032 C1025 0.961 . S
H1033 C1025 0.960 . S
H1034 C1026 0.930 . S
H1035 C1027 0.929 . S
H1036 C1044 0.929 . S
H1037 C1046 0.930 . S
H1038 C1048 0.930 . S
H1039 C1051 0.929 . S
H1040 C1054 0.930 . S
H1041 C1056 0.960 . S
H1042 C1056 0.960 . S
H1043 C1056 0.960 . S
C1044 H1036 0.929 . S
C1044 C1045 1.377 . S
C1044 C1046 1.384 . S
C1045 C1044 1.377 . S
C1045 C1051 1.390 . S
C1046 H1037 0.930 . S
C1046 C1044 1.384 . S
C1046 C1047 1.372 . S
C1047 C1046 1.372 . S
C1047 C1048 1.400 . S
C1047 C1052 1.490 . S
C1048 H1038 0.930 . S
C1048 C1047 1.400 . S
C1048 C1051 1.386 . S
H1049 C1065 0.930 . S
H1050 C1066 0.931 . S
C1051 H1039 0.929 . S
C1051 C1045 1.390 . S
C1051 C1048 1.386 . S
C1052 C1047 1.490 . S
C1052 C1054 1.395 . S
C1052 C1055 1.403 . S
H1053 C1059 0.930 . S
C1054 H1040 0.930 . S
C1054 C1052 1.395 . S
C1054 C1057 1.403 . S
C1055 C1052 1.403 . S
C1055 C1056 1.524 . S
C1055 C1059 1.400 . S
C1056 H1041 0.960 . S
C1056 H1042 0.960 . S
C1056 H1043 0.960 . S
C1056 C1055 1.524 . S
C1057 C1054 1.403 . S
C1057 C1058 1.392 . S
C1057 C1061 1.495 . S
C1058 C1057 1.392 . S
C1058 C1059 1.385 . S
C1058 C1060 1.478 . S
C1059 H1053 0.930 . S
C1059 C1055 1.400 . S
C1059 C1058 1.385 . S
C1060 C1058 1.478 . S
C1060 C1062 1.381 . S
C1060 C1066 1.383 . S
C1061 C1057 1.495 . S
C1061 H1067 0.959 . S
C1061 H1068 0.961 . S
C1061 H1069 0.960 . S
C1062 C1060 1.381 . S
C1062 C1063 1.394 . S
C1062 H1070 0.930 . S
C1063 C1062 1.394 . S
C1063 C1064 1.383 . S
C1063 H1071 0.929 . S
C1064 C1063 1.383 . S
C1064 C1065 1.377 . S
C1065 H1049 0.930 . S
C1065 C1064 1.377 . S
C1065 C1066 1.379 . S
C1066 H1050 0.931 . S
C1066 C1060 1.383 . S
C1066 C1065 1.379 . S
H1067 C1061 0.959 . S
H1068 C1061 0.961 . S
H1069 C1061 0.960 . S
H1070 C1062 0.930 . S
H1071 C1063 0.929 . S
H1072 C1080 0.929 . S
H1073 C1082 0.930 . S
H1074 C1084 0.930 . S
H1075 C1087 0.929 . S
H1076 C1090 0.930 . S
H1077 C1092 0.960 . S
H1078 C1092 0.960 . S
H1079 C1092 0.960 . S
C1080 H1072 0.929 . S
C1080 C1081 1.377 . S
C1080 C1082 1.384 . S
C1081 C1080 1.377 . S
C1081 C1087 1.390 . S
C1082 H1073 0.930 . S
C1082 C1080 1.384 . S
C1082 C1083 1.372 . S
C1083 C1082 1.372 . S
C1083 C1084 1.400 . S
C1083 C1088 1.490 . S
C1084 H1074 0.930 . S
C1084 C1083 1.400 . S
C1084 C1087 1.386 . S
H1085 C1101 0.930 . S
H1086 C1102 0.931 . S
C1087 H1075 0.929 . S
C1087 C1081 1.390 . S
C1087 C1084 1.386 . S
C1088 C1083 1.490 . S
C1088 C1090 1.395 . S
C1088 C1091 1.403 . S
H1089 C1095 0.930 . S
C1090 H1076 0.930 . S
C1090 C1088 1.395 . S
C1090 C1093 1.403 . S
C1091 C1088 1.403 . S
C1091 C1092 1.524 . S
C1091 C1095 1.400 . S
C1092 H1077 0.960 . S
C1092 H1078 0.960 . S
C1092 H1079 0.960 . S
C1092 C1091 1.524 . S
C1093 C1090 1.403 . S
C1093 C1094 1.392 . S
C1093 C1097 1.495 . S
C1094 C1093 1.392 . S
C1094 C1095 1.385 . S
C1094 C1096 1.478 . S
C1095 H1089 0.930 . S
C1095 C1091 1.400 . S
C1095 C1094 1.385 . S
C1096 C1094 1.478 . S
C1096 C1098 1.381 . S
C1096 C1102 1.383 . S
C1097 C1093 1.495 . S
C1097 H1103 0.959 . S
C1097 H1104 0.961 . S
C1097 H1105 0.960 . S
C1098 C1096 1.381 . S
C1098 C1099 1.394 . S
C1098 H1106 0.930 . S
C1099 C1098 1.394 . S
C1099 C1100 1.383 . S
C1099 H1107 0.929 . S
C1100 C1099 1.383 . S
C1100 C1101 1.377 . S
C1101 H1085 0.930 . S
C1101 C1100 1.377 . S
C1101 C1102 1.379 . S
C1102 H1086 0.931 . S
C1102 C1096 1.383 . S
C1102 C1101 1.379 . S
H1103 C1097 0.959 . S
H1104 C1097 0.961 . S
H1105 C1097 0.960 . S
H1106 C1098 0.930 . S
H1107 C1099 0.929 . S
H1108 C1116 0.929 . S
H1109 C1118 0.930 . S
H1110 C1120 0.930 . S
H1111 C1123 0.929 . S
H1112 C1126 0.930 . S
H1113 C1128 0.960 . S
H1114 C1128 0.960 . S
H1115 C1128 0.960 . S
C1116 H1108 0.929 . S
C1116 C1117 1.377 . S
C1116 C1118 1.384 . S
C1117 C1116 1.377 . S
C1117 C1123 1.390 . S
C1118 H1109 0.930 . S
C1118 C1116 1.384 . S
C1118 C1119 1.372 . S
C1119 C1118 1.372 . S
C1119 C1120 1.400 . S
C1119 C1124 1.490 . S
C1120 H1110 0.930 . S
C1120 C1119 1.400 . S
C1120 C1123 1.386 . S
H1121 C1137 0.930 . S
H1122 C1138 0.931 . S
C1123 H1111 0.929 . S
C1123 C1117 1.390 . S
C1123 C1120 1.386 . S
C1124 C1119 1.490 . S
C1124 C1126 1.395 . S
C1124 C1127 1.403 . S
H1125 C1131 0.930 . S
C1126 H1112 0.930 . S
C1126 C1124 1.395 . S
C1126 C1129 1.403 . S
C1127 C1124 1.403 . S
C1127 C1128 1.524 . S
C1127 C1131 1.400 . S
C1128 H1113 0.960 . S
C1128 H1114 0.960 . S
C1128 H1115 0.960 . S
C1128 C1127 1.524 . S
C1129 C1126 1.403 . S
C1129 C1130 1.392 . S
C1129 C1133 1.495 . S
C1130 C1129 1.392 . S
C1130 C1131 1.385 . S
C1130 C1132 1.478 . S
C1131 H1125 0.930 . S
C1131 C1127 1.400 . S
C1131 C1130 1.385 . S
C1132 C1130 1.478 . S
C1132 C1134 1.381 . S
C1132 C1138 1.383 . S
C1133 C1129 1.495 . S
C1133 H1139 0.959 . S
C1133 H1140 0.961 . S
C1133 H1141 0.960 . S
C1134 C1132 1.381 . S
C1134 C1135 1.394 . S
C1134 H1142 0.930 . S
C1135 C1134 1.394 . S
C1135 C1136 1.383 . S
C1135 H1143 0.929 . S
C1136 C1135 1.383 . S
C1136 C1137 1.377 . S
C1137 H1121 0.930 . S
C1137 C1136 1.377 . S
C1137 C1138 1.379 . S
C1138 H1122 0.931 . S
C1138 C1132 1.383 . S
C1138 C1137 1.379 . S
H1139 C1133 0.959 . S
H1140 C1133 0.961 . S
H1141 C1133 0.960 . S
H1142 C1134 0.930 . S
H1143 C1135 0.929 . S
H1144 C1152 0.929 . S
H1145 C1154 0.930 . S
H1146 C1156 0.930 . S
H1147 C1159 0.929 . S
H1148 C1162 0.930 . S
H1149 C1164 0.960 . S
H1150 C1164 0.960 . S
H1151 C1164 0.960 . S
C1152 H1144 0.929 . S
C1152 C1153 1.377 . S
C1152 C1154 1.384 . S
C1153 C1152 1.377 . S
C1153 C1159 1.390 . S
C1154 H1145 0.930 . S
C1154 C1152 1.384 . S
C1154 C1155 1.372 . S
C1155 C1154 1.372 . S
C1155 C1156 1.400 . S
C1155 C1160 1.490 . S
C1156 H1146 0.930 . S
C1156 C1155 1.400 . S
C1156 C1159 1.386 . S
H1157 C1173 0.930 . S
H1158 C1174 0.931 . S
C1159 H1147 0.929 . S
C1159 C1153 1.390 . S
C1159 C1156 1.386 . S
C1160 C1155 1.490 . S
C1160 C1162 1.395 . S
C1160 C1163 1.403 . S
H1161 C1167 0.930 . S
C1162 H1148 0.930 . S
C1162 C1160 1.395 . S
C1162 C1165 1.403 . S
C1163 C1160 1.403 . S
C1163 C1164 1.524 . S
C1163 C1167 1.400 . S
C1164 H1149 0.960 . S
C1164 H1150 0.960 . S
C1164 H1151 0.960 . S
C1164 C1163 1.524 . S
C1165 C1162 1.403 . S
C1165 C1166 1.392 . S
C1165 C1169 1.495 . S
C1166 C1165 1.392 . S
C1166 C1167 1.385 . S
C1166 C1168 1.478 . S
C1167 H1161 0.930 . S
C1167 C1163 1.400 . S
C1167 C1166 1.385 . S
C1168 C1166 1.478 . S
C1168 C1170 1.381 . S
C1168 C1174 1.383 . S
C1169 C1165 1.495 . S
C1169 H1175 0.959 . S
C1169 H1176 0.961 . S
C1169 H1177 0.960 . S
C1170 C1168 1.381 . S
C1170 C1171 1.394 . S
C1170 H1178 0.930 . S
C1171 C1170 1.394 . S
C1171 C1172 1.383 . S
C1171 H1179 0.929 . S
C1172 C1171 1.383 . S
C1172 C1173 1.377 . S
C1173 H1157 0.930 . S
C1173 C1172 1.377 . S
C1173 C1174 1.379 . S
C1174 H1158 0.931 . S
C1174 C1168 1.383 . S
C1174 C1173 1.379 . S
H1175 C1169 0.959 . S
H1176 C1169 0.961 . S
H1177 C1169 0.960 . S
H1178 C1170 0.930 . S
H1179 C1171 0.929 . S
H1180 C1188 0.929 . S
H1181 C1190 0.930 . S
H1182 C1192 0.930 . S
H1183 C1195 0.929 . S
H1184 C1198 0.927 . S
H1185 C1200 0.960 . S
H1186 C1200 0.960 . S
H1187 C1200 0.960 . S
C1188 H1180 0.929 . S
C1188 C1189 1.377 . S
C1188 C1190 1.384 . S
C1189 C1188 1.377 . S
C1189 C1195 1.390 . S
C1190 H1181 0.930 . S
C1190 C1188 1.384 . S
C1190 C1191 1.372 . S
C1191 C1190 1.372 . S
C1191 C1192 1.400 . S
C1191 C1196 1.490 . S
C1192 H1182 0.930 . S
C1192 C1191 1.400 . S
C1192 C1195 1.386 . S
H1193 C1209 0.930 . S
H1194 C1210 0.931 . S
C1195 H1183 0.929 . S
C1195 C1189 1.390 . S
C1195 C1192 1.386 . S
C1196 C1191 1.490 . S
C1196 C1198 1.384 . S
C1196 C1199 1.403 . S
H1197 C1203 0.930 . S
C1198 H1184 0.927 . S
C1198 C1196 1.384 . S
C1198 C1201 1.416 1_556 S
C1199 C1196 1.403 . S
C1199 C1200 1.524 . S
C1199 C1203 1.400 1_556 S
C1200 H1185 0.960 . S
C1200 H1186 0.960 . S
C1200 H1187 0.960 . S
C1200 C1199 1.524 . S
C1201 C1198 1.416 1_554 S
C1201 C1202 1.392 . S
C1201 C1205 1.495 . S
C1202 C1201 1.392 . S
C1202 C1203 1.385 . S
C1202 C1204 1.478 . S
C1203 H1197 0.930 . S
C1203 C1199 1.400 1_554 S
C1203 C1202 1.385 . S
C1204 C1202 1.478 . S
C1204 C1206 1.381 . S
C1204 C1210 1.383 . S
C1205 C1201 1.495 . S
C1205 H1211 0.959 . S
C1205 H1212 0.961 . S
C1205 H1213 0.960 . S
C1206 C1204 1.381 . S
C1206 C1207 1.394 . S
C1206 H1214 0.930 . S
C1207 C1206 1.394 . S
C1207 C1208 1.383 . S
C1207 H1215 0.929 . S
C1208 C1207 1.383 . S
C1208 C1209 1.377 . S
C1209 H1193 0.930 . S
C1209 C1208 1.377 . S
C1209 C1210 1.379 . S
C1210 H1194 0.931 . S
C1210 C1204 1.383 . S
C1210 C1209 1.379 . S
H1211 C1205 0.959 . S
H1212 C1205 0.961 . S
H1213 C1205 0.960 . S
H1214 C1206 0.930 . S
H1215 C1207 0.929 . S
H1216 C1224 0.929 . S
H1217 C1226 0.930 . S
H1218 C1228 0.930 . S
H1219 C1231 0.929 . S
H1220 C1234 0.930 . S
H1221 C1236 0.960 . S
H1222 C1236 0.960 1_554 S
H1223 C1236 0.960 1_554 S
C1224 H1216 0.929 . S
C1224 C1225 1.377 . S
C1224 C1226 1.384 . S
C1225 C1224 1.377 . S
C1225 C1231 1.390 . S
C1226 H1217 0.930 . S
C1226 C1224 1.384 . S
C1226 C1227 1.372 . S
C1227 C1226 1.372 . S
C1227 C1228 1.400 . S
C1227 C1232 1.490 . S
C1228 H1218 0.930 . S
C1228 C1227 1.400 . S
C1228 C1231 1.386 . S
H1229 C1245 0.930 . S
H1230 C1246 0.931 . S
C1231 H1219 0.929 . S
C1231 C1225 1.390 . S
C1231 C1228 1.386 . S
C1232 C1227 1.490 . S
C1232 C1234 1.395 . S
C1232 C1235 1.409 1_554 S
H1233 C1239 0.930 . S
C1234 H1220 0.930 . S
C1234 C1232 1.395 . S
C1234 C1237 1.503 . S
C1235 C1232 1.409 1_556 S
C1235 C1236 1.523 . S
C1235 C1239 1.394 . S
C1236 H1221 0.960 . S
C1236 H1222 0.960 1_556 S
C1236 H1223 0.960 1_556 S
C1236 C1235 1.523 . S
C1237 C1234 1.503 . S
C1237 C1238 1.288 1_554 S
C1237 C1241 1.510 . S
C1238 C1237 1.288 1_556 S
C1238 C1239 1.385 . S
C1238 C1240 1.478 . S
C1239 H1233 0.930 . S
C1239 C1235 1.394 . S
C1239 C1238 1.385 . S
C1240 C1238 1.478 . S
C1240 C1242 1.381 . S
C1240 C1246 1.383 . S
C1241 C1237 1.510 . S
C1241 H1247 0.959 . S
C1241 H1248 0.926 1_554 S
C1241 H1249 0.960 1_554 S
C1242 C1240 1.381 . S
C1242 C1243 1.394 . S
C1242 H1250 0.930 . S
C1243 C1242 1.394 . S
C1243 C1244 1.383 . S
C1243 H1251 0.929 . S
C1244 C1243 1.383 . S
C1244 C1245 1.377 . S
C1245 H1229 0.930 . S
C1245 C1244 1.377 . S
C1245 C1246 1.379 . S
C1246 H1230 0.931 . S
C1246 C1240 1.383 . S
C1246 C1245 1.379 . S
H1247 C1241 0.959 . S
H1248 C1241 0.926 1_556 S
H1249 C1241 0.960 1_556 S
H1250 C1242 0.930 . S
H1251 C1243 0.929 . S
H1252 C1260 0.929 . S
H1253 C1262 0.930 . S
H1254 C1264 0.930 . S
H1255 C1267 0.929 . S
H1256 C1270 0.930 . S
H1257 C1272 0.960 . S
H1258 C1272 0.960 . S
H1259 C1272 0.960 . S
C1260 H1252 0.929 . S
C1260 C1261 1.377 . S
C1260 C1262 1.384 . S
C1261 C1260 1.377 . S
C1261 C1267 1.390 . S
C1262 H1253 0.930 . S
C1262 C1260 1.384 . S
C1262 C1263 1.372 . S
C1263 C1262 1.372 . S
C1263 C1264 1.400 . S
C1263 C1268 1.490 . S
C1264 H1254 0.930 . S
C1264 C1263 1.400 . S
C1264 C1267 1.386 . S
H1265 C1281 0.930 . S
H1266 C1282 0.931 . S
C1267 H1255 0.929 . S
C1267 C1261 1.390 . S
C1267 C1264 1.386 . S
C1268 C1263 1.490 . S
C1268 C1270 1.395 . S
C1268 C1271 1.403 . S
H1269 C1275 0.930 . S
C1270 H1256 0.930 . S
C1270 C1268 1.395 . S
C1270 C1273 1.403 . S
C1271 C1268 1.403 . S
C1271 C1272 1.524 . S
C1271 C1275 1.400 . S
C1272 H1257 0.960 . S
C1272 H1258 0.960 . S
C1272 H1259 0.960 . S
C1272 C1271 1.524 . S
C1273 C1270 1.403 . S
C1273 C1274 1.392 . S
C1273 C1277 1.495 . S
C1274 C1273 1.392 . S
C1274 C1275 1.385 . S
C1274 C1276 1.478 . S
C1275 H1269 0.930 . S
C1275 C1271 1.400 . S
C1275 C1274 1.385 . S
C1276 C1274 1.478 . S
C1276 C1278 1.381 . S
C1276 C1282 1.383 . S
C1277 C1273 1.495 . S
C1277 H1283 0.959 . S
C1277 H1284 0.961 . S
C1277 H1285 0.960 . S
C1278 C1276 1.381 . S
C1278 C1279 1.394 . S
C1278 H1286 0.930 . S
C1279 C1278 1.394 . S
C1279 C1280 1.383 . S
C1279 H1287 0.929 . S
C1280 C1279 1.383 . S
C1280 C1281 1.377 . S
C1281 H1265 0.930 . S
C1281 C1280 1.377 . S
C1281 C1282 1.379 . S
C1282 H1266 0.931 . S
C1282 C1276 1.383 . S
C1282 C1281 1.379 . S
H1283 C1277 0.959 . S
H1284 C1277 0.961 . S
H1285 C1277 0.960 . S
H1286 C1278 0.930 . S
H1287 C1279 0.929 . S
H1288 C1296 0.929 . S
H1289 C1298 0.930 . S
H1290 C1300 0.930 . S
H1291 C1303 0.929 . S
H1292 C1306 0.930 . S
H1293 C1308 0.960 . S
H1294 C1308 0.960 . S
H1295 C1308 0.960 . S
C1296 H1288 0.929 . S
C1296 C1297 1.377 . S
C1296 C1298 1.384 . S
C1297 C1296 1.377 . S
C1297 C1303 1.390 . S
C1298 H1289 0.930 . S
C1298 C1296 1.384 . S
C1298 C1299 1.372 . S
C1299 C1298 1.372 . S
C1299 C1300 1.400 . S
C1299 C1304 1.490 . S
C1300 H1290 0.930 . S
C1300 C1299 1.400 . S
C1300 C1303 1.386 . S
H1301 C1317 0.930 . S
H1302 C1318 0.931 . S
C1303 H1291 0.929 . S
C1303 C1297 1.390 . S
C1303 C1300 1.386 . S
C1304 C1299 1.490 . S
C1304 C1306 1.395 . S
C1304 C1307 1.403 . S
H1305 C1311 0.930 . S
C1306 H1292 0.930 . S
C1306 C1304 1.395 . S
C1306 C1309 1.403 . S
C1307 C1304 1.403 . S
C1307 C1308 1.524 . S
C1307 C1311 1.400 . S
C1308 H1293 0.960 . S
C1308 H1294 0.960 . S
C1308 H1295 0.960 . S
C1308 C1307 1.524 . S
C1309 C1306 1.403 . S
C1309 C1310 1.392 . S
C1309 C1313 1.495 . S
C1310 C1309 1.392 . S
C1310 C1311 1.385 . S
C1310 C1312 1.478 . S
C1311 H1305 0.930 . S
C1311 C1307 1.400 . S
C1311 C1310 1.385 . S
C1312 C1310 1.478 . S
C1312 C1314 1.381 . S
C1312 C1318 1.383 . S
C1313 C1309 1.495 . S
C1313 H1319 0.959 . S
C1313 H1320 0.961 . S
C1313 H1321 0.960 . S
C1314 C1312 1.381 . S
C1314 C1315 1.394 . S
C1314 H1322 0.930 . S
C1315 C1314 1.394 . S
C1315 C1316 1.383 . S
C1315 H1323 0.929 . S
C1316 C1315 1.383 . S
C1316 C1317 1.377 . S
C1317 H1301 0.930 . S
C1317 C1316 1.377 . S
C1317 C1318 1.379 . S
C1318 H1302 0.931 . S
C1318 C1312 1.383 . S
C1318 C1317 1.379 . S
H1319 C1313 0.959 . S
H1320 C1313 0.961 . S
H1321 C1313 0.960 . S
H1322 C1314 0.930 . S
H1323 C1315 0.929 . S
H1324 C1332 0.929 . S
H1325 C1334 0.930 . S
H1326 C1336 0.930 . S
H1327 C1339 0.929 . S
H1328 C1342 0.930 . S
H1329 C1344 0.960 . S
H1330 C1344 0.960 . S
H1331 C1344 0.960 . S
C1332 H1324 0.929 . S
C1332 C1333 1.377 . S
C1332 C1334 1.384 . S
C1333 C1332 1.377 . S
C1333 C1339 1.390 . S
C1334 H1325 0.930 . S
C1334 C1332 1.384 . S
C1334 C1335 1.372 . S
C1335 C1334 1.372 . S
C1335 C1336 1.400 . S
C1335 C1340 1.490 . S
C1336 H1326 0.930 . S
C1336 C1335 1.400 . S
C1336 C1339 1.386 . S
H1337 C1353 0.930 . S
H1338 C1354 0.931 . S
C1339 H1327 0.929 . S
C1339 C1333 1.390 . S
C1339 C1336 1.386 . S
C1340 C1335 1.490 . S
C1340 C1342 1.395 . S
C1340 C1343 1.403 . S
H1341 C1347 0.930 . S
C1342 H1328 0.930 . S
C1342 C1340 1.395 . S
C1342 C1345 1.403 . S
C1343 C1340 1.403 . S
C1343 C1344 1.524 . S
C1343 C1347 1.400 . S
C1344 H1329 0.960 . S
C1344 H1330 0.960 . S
C1344 H1331 0.960 . S
C1344 C1343 1.524 . S
C1345 C1342 1.403 . S
C1345 C1346 1.392 . S
C1345 C1349 1.495 . S
C1346 C1345 1.392 . S
C1346 C1347 1.385 . S
C1346 C1348 1.478 . S
C1347 H1341 0.930 . S
C1347 C1343 1.400 . S
C1347 C1346 1.385 . S
C1348 C1346 1.478 . S
C1348 C1350 1.381 . S
C1348 C1354 1.383 . S
C1349 C1345 1.495 . S
C1349 H1355 0.959 . S
C1349 H1356 0.961 . S
C1349 H1357 0.960 . S
C1350 C1348 1.381 . S
C1350 C1351 1.394 . S
C1350 H1358 0.930 . S
C1351 C1350 1.394 . S
C1351 C1352 1.383 . S
C1351 H1359 0.929 . S
C1352 C1351 1.383 . S
C1352 C1353 1.377 . S
C1353 H1337 0.930 . S
C1353 C1352 1.377 . S
C1353 C1354 1.379 . S
C1354 H1338 0.931 . S
C1354 C1348 1.383 . S
C1354 C1353 1.379 . S
H1355 C1349 0.959 . S
H1356 C1349 0.961 . S
H1357 C1349 0.960 . S
H1358 C1350 0.930 . S
H1359 C1351 0.929 . S
C217 C133 2.059 . S
C236 C3 2.069 . S
C253 C18 2.183 . S
C272 C148 2.169 . S
C289 C107 2.051 . S
C308 C29 2.022 . S
C325 C122 2.185 . S
C344 C44 2.190 . S
C361 C55 2.055 . S
C380 C185 2.076 . S
C397 C200 2.181 . S
C416 C70 2.167 . S
C433 C81 2.052 . S
C452 C159 2.066 . S
C469 C174 2.186 . S
C488 C96 2.185 . S
C505 C131 1.624 . S
C524 C1 1.647 . S
C541 C23 1.707 . S
C560 C153 1.718 . S
C577 C27 1.625 . S
C596 C105 1.649 . S
C613 C49 1.707 . S
C632 C127 1.716 . S
C649 C53 1.618 . S
C668 C183 1.590 . S
C685 C75 1.704 . S
C704 C205 1.714 . S
C721 C157 1.624 . S
C740 C79 1.645 . S
C757 C179 1.708 . S
C776 C101 1.701 . S
C793 C10 1.644 . S
C812 C88 1.636 . S
C829 C14 1.627 . S
C848 C92 1.615 . S
C865 C36 1.645 . S
C884 C62 1.644 . S
C901 C40 1.621 . S
C920 C66 1.611 . S
C937 C114 1.645 . S
C956 C192 1.636 . S
C973 C196 1.627 . S
C992 C118 1.633 . S
C1009 C140 1.644 . S
C1028 C166 1.647 . S
C1045 C170 1.622 . S
C1064 C144 1.606 . S
C1081 C5 1.751 . S
C1100 C198 1.681 . S
C1117 C161 1.755 . S
C1136 C16 1.722 . S
C1153 C172 1.707 . S
C1172 C31 1.756 . S
C1189 C187 1.751 . S
C1208 C42 1.681 . S
C1225 C120 1.707 . S
C1244 C57 1.756 . S
C1261 C135 1.755 . S
C1280 C68 1.713 . S
C1297 C83 1.754 . S
C1316 C146 1.723 . S
C1333 C94 1.701 . S
C1352 C109 1.743 . S
