# Generated by pormake.
# Topology umo, (4)-cn, num edge types: 1
# Building blocks:
#     Node 0, Type 0, BuildingBlock: MUDLON_clean_sbu_0, # of connection points: 4
#     Node 1, Type 0, BuildingBlock: MUDLON_clean_sbu_0, # of connection points: 4
#     Node 2, Type 0, BuildingBlock: MUDLON_clean_sbu_0, # of connection points: 4
#     Node 3, Type 0, BuildingBlock: MUDLON_clean_sbu_0, # of connection points: 4
#     Node 4, Type 0, BuildingBlock: MUDLON_clean_sbu_0, # of connection points: 4
#     Node 5, Type 0, BuildingBlock: MUDLON_clean_sbu_0, # of connection points: 4
#     Node 6, Type 0, BuildingBlock: MUDLON_clean_sbu_0, # of connection points: 4
#     Node 7, Type 0, BuildingBlock: MUDLON_clean_sbu_0, # of connection points: 4
#     Node 8, Type 0, BuildingBlock: MUDLON_clean_sbu_0, # of connection points: 4
#     Node 9, Type 0, BuildingBlock: MUDLON_clean_sbu_0, # of connection points: 4
#     Node 10, Type 0, BuildingBlock: MUDLON_clean_sbu_0, # of connection points: 4
#     Node 11, Type 0, BuildingBlock: MUDLON_clean_sbu_0, # of connection points: 4
#     Edge 12, Type (0, 0), BuildingBlock: CIFDUS_clean_linker_0, # of connection points: 2
#     Edge 13, Type (0, 0), BuildingBlock: CIFDUS_clean_linker_0, # of connection points: 2
#     Edge 14, Type (0, 0), BuildingBlock: CIFDUS_clean_linker_0, # of connection points: 2
#     Edge 15, Type (0, 0), BuildingBlock: CIFDUS_clean_linker_0, # of connection points: 2
#     Edge 16, Type (0, 0), BuildingBlock: CIFDUS_clean_linker_0, # of connection points: 2
#     Edge 17, Type (0, 0), BuildingBlock: CIFDUS_clean_linker_0, # of connection points: 2
#     Edge 18, Type (0, 0), BuildingBlock: CIFDUS_clean_linker_0, # of connection points: 2
#     Edge 19, Type (0, 0), BuildingBlock: CIFDUS_clean_linker_0, # of connection points: 2
#     Edge 20, Type (0, 0), BuildingBlock: CIFDUS_clean_linker_0, # of connection points: 2
#     Edge 21, Type (0, 0), BuildingBlock: CIFDUS_clean_linker_0, # of connection points: 2
#     Edge 22, Type (0, 0), BuildingBlock: CIFDUS_clean_linker_0, # of connection points: 2
#     Edge 23, Type (0, 0), BuildingBlock: CIFDUS_clean_linker_0, # of connection points: 2
#     Edge 24, Type (0, 0), BuildingBlock: CIFDUS_clean_linker_0, # of connection points: 2
#     Edge 25, Type (0, 0), BuildingBlock: CIFDUS_clean_linker_0, # of connection points: 2
#     Edge 26, Type (0, 0), BuildingBlock: CIFDUS_clean_linker_0, # of connection points: 2
#     Edge 27, Type (0, 0), BuildingBlock: CIFDUS_clean_linker_0, # of connection points: 2
#     Edge 28, Type (0, 0), BuildingBlock: CIFDUS_clean_linker_0, # of connection points: 2
#     Edge 29, Type (0, 0), BuildingBlock: CIFDUS_clean_linker_0, # of connection points: 2
#     Edge 30, Type (0, 0), BuildingBlock: CIFDUS_clean_linker_0, # of connection points: 2
#     Edge 31, Type (0, 0), BuildingBlock: CIFDUS_clean_linker_0, # of connection points: 2
#     Edge 32, Type (0, 0), BuildingBlock: CIFDUS_clean_linker_0, # of connection points: 2
#     Edge 33, Type (0, 0), BuildingBlock: CIFDUS_clean_linker_0, # of connection points: 2
#     Edge 34, Type (0, 0), BuildingBlock: CIFDUS_clean_linker_0, # of connection points: 2
#     Edge 35, Type (0, 0), BuildingBlock: CIFDUS_clean_linker_0, # of connection points: 2
# Relax obj value: 0.142
# Max RMSD: 0.180
# Mean RMSD: 0.180
data_MOF--net-umo--node1-MUDLON_clean_sbu_0--edge1-CIFDUS_clean_linker_0
_symmetry_space_group_name_H-M    P1
_symmetry_Int_Tables_number       1
_symmetry_cell_setting            triclinic
loop_
_symmetry_equiv_pos_as_xyz
'x, y, z'
_cell_length_a     44.431698
_cell_length_b     44.327238
_cell_length_c     35.082528
_cell_angle_alpha  89.949956
_cell_angle_beta   90.184448
_cell_angle_gamma 119.95331
loop_
_atom_site_label
_atom_site_type_symbol
_atom_site_fract_x
_atom_site_fract_y
_atom_site_fract_z
_atom_type_partial_charge
Mg0 Mg 0.16269 0.53224 0.40382 0.0
C1 C 0.14863 0.54718 0.48067 0.0
O2 O 0.15301 0.57366 0.45974 0.0
C3 C 0.18981 0.51392 0.33712 0.0
O4 O 0.17527 0.53114 0.32322 0.0
C5 C 0.08995 0.51627 0.38601 0.0
O6 O 0.086 0.50735 0.42214 0.0
O7 O 0.11977 0.52866 0.371 0.0
O8 O 0.14973 0.52203 0.46431 0.0
O9 O 0.20609 0.58413 0.40691 0.0
C10 C 0.23141 0.58302 0.42236 0.0
O11 O 0.22746 0.55264 0.43222 0.0
O12 O 0.18612 0.50648 0.37253 0.0
Mg13 Mg 0.63762 0.1822 0.56646 0.0
C14 C 0.62994 0.1999 0.6492 0.0
O15 O 0.62695 0.22477 0.63239 0.0
C16 C 0.68344 0.21723 0.49985 0.0
O17 O 0.6565 0.19025 0.48433 0.0
C18 C 0.59542 0.10492 0.55738 0.0
O19 O 0.57792 0.10939 0.58474 0.0
O20 O 0.62255 0.13114 0.54451 0.0
O21 O 0.63768 0.18077 0.62909 0.0
O22 O 0.59777 0.19418 0.551 0.0
C23 C 0.57029 0.18454 0.57031 0.0
O24 O 0.56351 0.16327 0.5992 0.0
O25 O 0.6841 0.22079 0.536 0.0
Mg26 Mg 0.47722 0.64721 0.75456 0.0
C27 C 0.46659 0.62072 0.83215 0.0
O28 O 0.44988 0.59317 0.81029 0.0
C29 C 0.49289 0.69536 0.6877 0.0
O30 O 0.49522 0.66974 0.67189 0.0
C31 C 0.49073 0.59198 0.72341 0.0
O32 O 0.4576 0.57251 0.7315 0.0
O33 O 0.50571 0.6245 0.72973 0.0
O34 O 0.48456 0.6505 0.81652 0.0
O35 O 0.42218 0.61116 0.75332 0.0
C36 C 0.39933 0.61186 0.7323 0.0
O37 O 0.40899 0.63354 0.70339 0.0
O38 O 0.4868 0.69397 0.72334 0.0
Mg39 Mg 0.81999 0.43999 0.88943 0.0
C40 C 0.83836 0.42891 0.96666 0.0
O41 O 0.84532 0.40949 0.94418 0.0
C42 C 0.79061 0.45479 0.82114 0.0
O43 O 0.81432 0.44807 0.808 0.0
C44 C 0.89833 0.47816 0.87837 0.0
O45 O 0.89844 0.48194 0.9155 0.0
O46 O 0.86955 0.46171 0.86075 0.0
O47 O 0.82803 0.44838 0.9515 0.0
O48 O 0.79276 0.38386 0.8852 0.0
C49 C 0.7698 0.36968 0.91088 0.0
O50 O 0.7643 0.38965 0.93412 0.0
O51 O 0.787 0.45509 0.85719 0.0
Mg52 Mg 0.36266 0.82743 0.08047 0.0
C53 C 0.38488 0.84018 0.16042 0.0
O54 O 0.41357 0.85798 0.1407 0.0
C55 C 0.31934 0.79218 1.01033 0.0
O56 O 0.34474 0.82057 0.99512 0.0
C57 C 0.40206 0.89631 0.03909 0.0
O58 O 0.41938 0.88164 0.02607 0.0
O59 O 0.37705 0.87946 0.06196 0.0
O60 O 0.35602 0.82446 0.14246 0.0
O61 O 0.40556 0.81769 0.07741 0.0
C62 C 0.40739 0.79594 0.05551 0.0
O63 O 0.38567 0.78286 0.0267 0.0
O64 O 0.3193 0.78807 0.04633 0.0
Mg65 Mg 0.50764 0.34884 0.24598 0.0
C66 C 0.5209 0.37616 0.32584 0.0
O67 O 0.53846 0.40453 0.30541 0.0
C68 C 0.49381 0.30283 0.17838 0.0
O69 O 0.49651 0.33119 0.1632 0.0
C70 C 0.49253 0.40439 0.21938 0.0
O71 O 0.52516 0.42405 0.22959 0.0
O72 O 0.47831 0.37156 0.22282 0.0
O73 O 0.50335 0.34706 0.30859 0.0
O74 O 0.56219 0.3825 0.23442 0.0
C75 C 0.58265 0.38028 0.2581 0.0
O76 O 0.56961 0.35843 0.28672 0.0
O77 O 0.4954 0.30119 0.2146 0.0
Mg78 Mg 0.45418 0.83649 0.45948 0.0
C79 C 0.43099 0.83841 0.38097 0.0
O80 O 0.40508 0.83454 0.40235 0.0
C81 C 0.479 0.81533 0.5267 0.0
O82 O 0.46245 0.83036 0.54098 0.0
C83 C 0.49837 0.91008 0.47918 0.0
O84 O 0.5193 0.90351 0.45897 0.0
O85 O 0.46727 0.88593 0.48419 0.0
O86 O 0.45788 0.84087 0.39722 0.0
O87 O 0.40087 0.7975 0.4683 0.0
C88 C 0.39706 0.76805 0.45945 0.0
O89 O 0.42453 0.76626 0.44912 0.0
O90 O 0.48249 0.81553 0.49062 0.0
Mg91 Mg 0.59094 0.42556 0.62653 0.0
C92 C 0.56478 0.41746 0.5478 0.0
O93 O 0.53711 0.39801 0.56847 0.0
C94 C 0.63432 0.4446 0.69665 0.0
O95 O 0.60321 0.43581 0.70935 0.0
C96 C 0.57319 0.47867 0.65084 0.0
O97 O 0.60494 0.49835 0.63805 0.0
O98 O 0.55992 0.44583 0.65007 0.0
O99 O 0.59392 0.43529 0.5648 0.0
O100 O 0.56377 0.36942 0.63157 0.0
C101 C 0.57021 0.35445 0.60457 0.0
O102 O 0.59278 0.3736 0.5784 0.0
O103 O 0.63858 0.44443 0.66072 0.0
Mg104 Mg 0.16709 0.61307 0.77961 0.0
C105 C 0.14576 0.58839 0.70209 0.0
O106 O 0.13781 0.56056 0.72256 0.0
C107 C 0.19848 0.65807 0.84862 0.0
O108 O 0.17661 0.62785 0.86386 0.0
C109 C 0.09031 0.57519 0.79418 0.0
O110 O 0.09062 0.58699 0.75974 0.0
O111 O 0.11882 0.58168 0.80962 0.0
O112 O 0.15739 0.61751 0.71928 0.0
O113 O 0.1957 0.58629 0.77149 0.0
C114 C 0.2188 0.58646 0.79284 0.0
O115 O 0.22386 0.60014 0.8271 0.0
O116 O 0.19995 0.66066 0.81237 0.0
Mg117 Mg 0.53522 0.16704 0.9426 0.0
C118 C 0.54772 0.16084 0.85906 0.0
O119 O 0.54488 0.13182 0.87239 0.0
C120 C 0.51381 0.18953 0.01346 0.0
O121 O 0.52782 0.17196 0.02773 0.0
C122 C 0.48419 0.09339 0.96958 0.0
O123 O 0.46733 0.10841 0.98296 0.0
O124 O 0.51231 0.11154 0.95146 0.0
O125 O 0.54197 0.18001 0.88151 0.0
O126 O 0.58777 0.19165 0.96357 0.0
C127 C 0.61121 0.18764 0.94777 0.0
O128 O 0.60263 0.16449 0.9205 0.0
O129 O 0.51154 0.19092 0.97729 0.0
Mg130 Mg 0.39028 0.57053 0.1257 0.0
C131 C 0.41184 0.56206 0.04744 0.0
O132 O 0.43788 0.5645 0.06769 0.0
C133 C 0.33605 0.53885 0.18906 0.0
O134 O 0.36194 0.5383 0.20661 0.0
C135 C 0.40898 0.51781 0.14909 0.0
O136 O 0.37858 0.49833 0.13282 0.0
O137 O 0.4211 0.55048 0.15098 0.0
O138 O 0.38571 0.56019 0.06449 0.0
O139 O 0.41614 0.62701 0.12728 0.0
C140 C 0.44264 0.64505 0.10654 0.0
O141 O 0.45795 0.62992 0.08981 0.0
O142 O 0.34028 0.54995 0.15485 0.0
Mg143 Mg 0.82738 0.39933 0.27197 0.0
C144 C 0.84591 0.43167 0.19527 0.0
O145 O 0.8527 0.4578 0.21813 0.0
C146 C 0.80048 0.3514 0.3375 0.0
O147 O 0.81888 0.38245 0.35282 0.0
C148 C 0.90522 0.44215 0.28664 0.0
O149 O 0.90701 0.43712 0.25002 0.0
O150 O 0.87569 0.43006 0.30225 0.0
O151 O 0.8357 0.40176 0.20999 0.0
O152 O 0.79382 0.42075 0.28161 0.0
C153 C 0.77293 0.41745 0.25501 0.0
O154 O 0.77398 0.40302 0.22276 0.0
O155 O 0.79972 0.34888 0.30121 0.0
H156 H 0.243 0.64903 0.43011 0.0
H157 H 0.29385 0.58767 0.43261 0.0
H158 H 0.34922 0.63951 0.44666 0.0
H159 H 0.38331 0.70196 0.45665 0.0
H160 H 0.33368 0.76438 0.45543 0.0
H161 H 0.27737 0.7122 0.4432 0.0
C162 C 0.2663 0.64718 0.43357 0.0
C163 C 0.26455 0.61478 0.43004 0.0
C164 C 0.29804 0.67706 0.44221 0.0
C165 C 0.29466 0.61242 0.43517 0.0
C166 C 0.32629 0.64199 0.44323 0.0
C167 C 0.36015 0.70416 0.4539 0.0
C168 C 0.36253 0.73683 0.45664 0.0
C169 C 0.32825 0.67437 0.44668 0.0
C170 C 0.33234 0.73934 0.45353 0.0
C171 C 0.30026 0.70962 0.44627 0.0
H172 H 0.5455 0.20521 0.62889 0.0
H173 H 0.56096 0.21424 0.50716 0.0
H174 H 0.5549 0.26602 0.50658 0.0
H175 H 0.55905 0.31511 0.54242 0.0
H176 H 0.54878 0.30917 0.66475 0.0
H177 H 0.53851 0.2495 0.66353 0.0
C178 C 0.54608 0.21769 0.60207 0.0
C179 C 0.55415 0.20642 0.56815 0.0
C180 C 0.54445 0.24847 0.6023 0.0
C181 C 0.55505 0.22281 0.53359 0.0
C182 C 0.55193 0.25255 0.53333 0.0
C183 C 0.55379 0.30041 0.56871 0.0
C184 C 0.55555 0.31653 0.60368 0.0
C185 C 0.54889 0.26674 0.56779 0.0
C186 C 0.54789 0.29722 0.63753 0.0
C187 C 0.54219 0.26323 0.63683 0.0
H188 H 0.2677 0.57636 0.82817 0.0
H189 H 0.22954 0.58303 0.71694 0.0
H190 H 0.2808 0.5872 0.6872 0.0
H191 H 0.3407 0.5986 0.69377 0.0
H192 H 0.37773 0.58921 0.80464 0.0
H193 H 0.32266 0.57587 0.83312 0.0
C194 C 0.27029 0.57794 0.79739 0.0
C195 C 0.24532 0.58029 0.77503 0.0
C196 C 0.29987 0.58025 0.78026 0.0
C197 C 0.2486 0.58161 0.73503 0.0
C198 C 0.27804 0.58418 0.71788 0.0
C199 C 0.33639 0.59287 0.72398 0.0
C200 C 0.36353 0.59576 0.74706 0.0
C201 C 0.30452 0.58506 0.74036 0.0
C202 C 0.3574 0.58757 0.78612 0.0
C203 C 0.32592 0.58009 0.80261 0.0
H204 H 0.73729 0.33415 0.97392 0.0
H205 H 0.7553 0.32015 0.85621 0.0
H206 H 0.71157 0.25824 0.86021 0.0
H207 H 0.66136 0.21166 0.89391 0.0
H208 H 0.64125 0.22777 1.01021 0.0
H209 H 0.69349 0.28511 1.01051 0.0
C210 C 0.73196 0.31741 0.94928 0.0
C211 C 0.74862 0.33164 0.91455 0.0
C212 C 0.70649 0.28229 0.95165 0.0
C213 C 0.74235 0.30969 0.88311 0.0
C214 C 0.71733 0.27438 0.88539 0.0
C215 C 0.66912 0.22723 0.91972 0.0
C216 C 0.64738 0.21589 0.95184 0.0
C217 C 0.69823 0.2608 0.91906 0.0
C218 C 0.65755 0.23626 0.98508 0.0
C219 C 0.6872 0.2691 0.98515 0.0
H220 H 0.42863 0.75768 0.01482 0.0
H221 H 0.42581 0.79284 0.1288 0.0
H222 H 0.44082 0.75132 0.15519 0.0
H223 H 0.44481 0.69834 0.14643 0.0
H224 H 0.45131 0.66524 0.03278 0.0
H225 H 0.44532 0.71279 1.00574 0.0
C226 C 0.43221 0.75683 0.04532 0.0
C227 C 0.42537 0.77773 0.06975 0.0
C228 C 0.44111 0.73296 0.06047 0.0
C229 C 0.43066 0.77684 0.10925 0.0
C230 C 0.43902 0.7529 0.1245 0.0
C231 C 0.44591 0.70228 0.11582 0.0
C232 C 0.44807 0.67835 0.09158 0.0
C233 C 0.44279 0.72982 0.10049 0.0
C234 C 0.44975 0.68357 0.05195 0.0
C235 C 0.44603 0.71055 0.03646 0.0
H236 H 0.73194 0.42439 0.20287 0.0
H237 H 0.74732 0.42175 0.32411 0.0
H238 H 0.69026 0.41516 0.33602 0.0
H239 H 0.63262 0.39967 0.31137 0.0
H240 H 0.61667 0.40128 0.19022 0.0
H241 H 0.67764 0.41929 0.17878 0.0
C242 C 0.72307 0.42313 0.23192 0.0
C243 C 0.7433 0.42267 0.26252 0.0
C244 C 0.69005 0.41872 0.2385 0.0
C245 C 0.732 0.42181 0.30006 0.0
C246 C 0.69929 0.4178 0.30689 0.0
C247 C 0.64274 0.40463 0.28254 0.0
C248 C 0.62028 0.39844 0.2516 0.0
C249 C 0.67754 0.41454 0.27624 0.0
C250 C 0.63359 0.40565 0.21441 0.0
C251 C 0.66833 0.41574 0.20788 0.0
H252 H 0.13312 0.5321 0.65965 0.0
H253 H 0.15619 0.63863 0.64949 0.0
H254 H 0.15764 0.63449 0.57999 0.0
H255 H 0.15458 0.60139 0.52258 0.0
H256 H 0.13375 0.49561 0.53305 0.0
H257 H 0.12918 0.49875 0.60228 0.0
C258 C 0.1382 0.55442 0.64232 0.0
C259 C 0.14449 0.58568 0.65986 0.0
C260 C 0.13957 0.55201 0.6025 0.0
C261 C 0.15125 0.6143 0.63681 0.0
C262 C 0.15213 0.61194 0.59707 0.0
C263 C 0.14883 0.57887 0.5399 0.0
C264 C 0.1445 0.54823 0.52254 0.0
C265 C 0.14668 0.58104 0.57967 0.0
C266 C 0.13724 0.51948 0.54558 0.0
C267 C 0.13463 0.52128 0.58517 0.0
H268 H 0.60252 0.2289 0.69662 0.0
H269 H 0.63107 0.14904 0.69234 0.0
H270 H 0.60751 0.12971 0.75613 0.0
H271 H 0.57755 0.13432 0.81247 0.0
H272 H 0.54959 0.21449 0.81783 0.0
H273 H 0.57394 0.23463 0.75418 0.0
C274 C 0.60396 0.2075 0.70975 0.0
C275 C 0.6187 0.19053 0.68952 0.0
C276 C 0.59008 0.19628 0.74651 0.0
C277 C 0.62004 0.16269 0.70709 0.0
C278 C 0.6064 0.15149 0.74359 0.0
C279 C 0.57655 0.1561 0.79972 0.0
C280 C 0.56138 0.17262 0.81989 0.0
C281 C 0.59103 0.16783 0.76338 0.0
C282 C 0.56089 0.20114 0.80297 0.0
C283 C 0.57491 0.21273 0.76658 0.0
H284 H 0.4697 0.61003 0.01149 0.0
H285 H 0.36349 0.53036 0.99131 0.0
H286 H 0.37128 0.54208 0.92262 0.0
H287 H 0.4087 0.5742 0.86862 0.0
H288 H 0.51342 0.65729 0.88889 0.0
H289 H 0.5058 0.64545 0.95766 0.0
C290 C 0.44837 0.59511 0.99193 0.0
C291 C 0.41626 0.56883 1.0061 0.0
C292 C 0.45277 0.60283 0.95279 0.0
C293 C 0.38848 0.55039 0.98083 0.0
C294 C 0.39295 0.55715 0.94169 0.0
C295 C 0.42986 0.58977 0.88814 0.0
C296 C 0.46177 0.61629 0.87383 0.0
C297 C 0.42502 0.58317 0.9274 0.0
C298 C 0.4887 0.63675 0.89934 0.0
C299 C 0.48437 0.62984 0.93854 0.0
H300 H 0.84119 0.38705 0.13861 0.0
H301 H 0.85098 0.48775 0.15751 0.0
H302 H 0.8488 0.49583 0.08906 0.0
H303 H 0.84345 0.47412 0.02311 0.0
H304 H 0.83618 0.3745 1.00445 0.0
H305 H 0.83795 0.36632 0.07287 0.0
C306 C 0.84296 0.41079 0.12774 0.0
C307 C 0.84621 0.43665 0.15332 0.0
C308 C 0.84204 0.41553 0.08811 0.0
C309 C 0.84861 0.46736 0.13861 0.0
C310 C 0.84724 0.47203 0.09935 0.0
C311 C 0.84224 0.45066 0.03409 0.0
C312 C 0.83969 0.42503 1.00859 0.0
C313 C 0.84382 0.44625 0.07374 0.0
C314 C 0.83838 0.39484 0.02332 0.0
C315 C 0.83931 0.39002 0.06256 0.0
H316 H 0.44256 0.85615 0.20187 0.0
H317 H 0.33251 0.81716 0.21322 0.0
H318 H 0.33731 0.81312 0.28241 0.0
H319 H 0.37289 0.82127 0.33949 0.0
H320 H 0.48261 0.85851 0.32775 0.0
H321 H 0.47774 0.8625 0.25862 0.0
C322 C 0.41957 0.84687 0.21943 0.0
C323 C 0.38721 0.83727 0.20236 0.0
C324 C 0.42249 0.84425 0.25904 0.0
C325 C 0.35769 0.82481 0.22558 0.0
C326 C 0.36045 0.82252 0.26514 0.0
C327 C 0.39581 0.8303 0.32186 0.0
C328 C 0.42818 0.83981 0.33888 0.0
C329 C 0.39274 0.83226 0.28216 0.0
C330 C 0.45744 0.85105 0.31547 0.0
C331 C 0.45466 0.8534 0.27595 0.0
H332 H 0.57165 0.42829 0.36781 0.0
H333 H 0.4777 0.32891 0.37866 0.0
H334 H 0.4829 0.33349 0.44822 0.0
H335 H 0.51393 0.36583 0.50573 0.0
H336 H 0.60955 0.4637 0.49503 0.0
H337 H 0.60394 0.45961 0.42541 0.0
C338 C 0.5522 0.40765 0.38537 0.0
C339 C 0.52408 0.37839 0.36802 0.0
C340 C 0.5557 0.41023 0.42528 0.0
C341 C 0.4995 0.35168 0.39123 0.0
C342 C 0.50246 0.35434 0.431 0.0
C343 C 0.5335 0.3864 0.48821 0.0
C344 C 0.56197 0.41527 0.50559 0.0
C345 C 0.53038 0.38353 0.4483 0.0
C346 C 0.58738 0.4413 0.4824 0.0
C347 C 0.58413 0.43896 0.44262 0.0
H348 H 0.97236 0.47458 0.26265 0.0
H349 H 0.90936 0.44689 0.36417 0.0
H350 H 0.96127 0.46949 0.40384 0.0
H351 H 0.02404 0.49351 0.4098 0.0
H352 H 0.08731 0.52128 0.30853 0.0
H353 H 0.0358 0.50257 0.26876 0.0
C354 C 0.97001 0.47373 0.29344 0.0
C355 C 0.93701 0.45877 0.31036 0.0
C356 C -2e-05 0.48669 0.31618 0.0
C357 C 0.93443 0.45816 0.35034 0.0
C358 C 0.96411 0.47101 0.37311 0.0
C359 C 0.02663 0.49574 0.37904 0.0
C360 C 0.05941 0.50844 0.36218 0.0
C361 C -0.00306 0.48478 0.35634 0.0
C362 C 0.06235 0.51148 0.32228 0.0
C363 C 0.0329 0.50068 0.29948 0.0
H364 H 0.56166 0.96748 0.46986 0.0
H365 H 0.46395 0.9302 0.52814 0.0
H366 H 0.4858 0.98703 0.55825 0.0
H367 H 0.53254 0.04722 0.56788 0.0
H368 H 0.62975 0.08481 0.50846 0.0
H369 H 0.60817 0.02773 0.47906 0.0
C370 C 0.54511 0.97175 0.48914 0.0
C371 C 0.51125 0.94465 0.49676 0.0
C372 C 0.55777 0.00447 0.50623 0.0
C373 C 0.49011 0.95066 0.52172 0.0
C374 C 0.5026 0.98312 0.53902 0.0
C375 C 0.54909 0.04289 0.54865 0.0
C376 C 0.58272 0.07016 0.54046 0.0
C377 C 0.53639 0.01017 0.53151 0.0
C378 C 0.60373 0.06423 0.51522 0.0
C379 C 0.59142 0.03162 0.49838 0.0
H380 H 0.46846 0.52316 0.71435 0.0
H381 H 0.55791 0.62535 0.69869 0.0
H382 H 0.59124 0.59924 0.67487 0.0
H383 H 0.59512 0.5475 0.65888 0.0
H384 H 0.50589 0.44528 0.67523 0.0
H385 H 0.47238 0.47141 0.69848 0.0
C386 C 0.49521 0.53975 0.70562 0.0
C387 C 0.51063 0.57613 0.70827 0.0
C388 C 0.5143 0.52459 0.69217 0.0
C389 C 0.54539 0.59724 0.69698 0.0
C390 C 0.56449 0.58235 0.68336 0.0
C391 C 0.56834 0.53091 0.66752 0.0
C392 C 0.55305 0.49451 0.66531 0.0
C393 C 0.54923 0.54606 0.68093 0.0
C394 C 0.51833 0.4734 0.67669 0.0
C395 C 0.49911 0.4883 0.68995 0.0
H396 H 0.02508 0.54609 0.76535 0.0
H397 H 0.08169 0.56147 0.8705 0.0
H398 H 0.02716 0.53246 0.90586 0.0
H399 H 0.9635 0.50415 0.90705 0.0
H400 H 0.90702 0.48749 0.80152 0.0
H401 H 0.96147 0.51553 0.76617 0.0
C402 C 0.02549 0.54303 0.79599 0.0
C403 C 0.05735 0.55607 0.81529 0.0
C404 C 0.9941 0.52616 0.81608 0.0
C405 C 0.05747 0.55161 0.85496 0.0
C406 C 0.02632 0.53512 0.87522 0.0
C407 C 0.96311 0.50663 0.87632 0.0
C408 C 0.93129 0.49396 0.85699 0.0
C409 C 0.9945 0.52253 0.8561 0.0
C410 C 0.93118 0.49703 0.81711 0.0
C411 C 0.9623 0.51311 0.79685 0.0
H412 H 0.42892 0.04869 0.01274 0.0
H413 H 0.51168 0.05435 0.94335 0.0
H414 H 0.49305 0.99374 0.95794 0.0
H415 H 0.4544 0.93961 0.99185 0.0
H416 H 0.37201 0.93409 0.06179 0.0
H417 H 0.38938 0.99409 0.04544 0.0
C418 C 0.44278 0.03664 1.00064 0.0
C419 C 0.47171 0.05612 0.97709 0.0
C420 C 0.43209 0.00179 1.00933 0.0
C421 C 0.48938 0.04004 0.96167 0.0
C422 C 0.47877 0.00534 0.97001 0.0
C423 C 0.44016 0.95147 1.00344 0.0
C424 C 0.41203 0.93237 0.02811 0.0
C425 C 0.45035 0.98606 0.99405 0.0
C426 C 0.39383 0.94817 0.04279 0.0
C427 C 0.40374 0.98253 0.03347 0.0
H428 H 0.38868 0.44907 0.15245 0.0
H429 H 0.47447 0.55108 0.1794 0.0
H430 H 0.50795 0.52495 0.20315 0.0
H431 H 0.51293 0.47322 0.21608 0.0
H432 H 0.42684 0.3712 0.18975 0.0
H433 H 0.39346 0.39736 0.16586 0.0
C434 C 0.41469 0.46562 0.16353 0.0
C435 C 0.42904 0.50197 0.16411 0.0
C436 C 0.43378 0.45045 0.1772 0.0
C437 C 0.46276 0.52301 0.17866 0.0
C438 C 0.48197 0.5081 0.19221 0.0
C439 C 0.48689 0.45668 0.20505 0.0
C440 C 0.47245 0.42031 0.20466 0.0
C441 C 0.46775 0.47186 0.19155 0.0
C442 C 0.4386 0.39928 0.19042 0.0
C443 C 0.41947 0.4142 0.17674 0.0
H444 H 0.19896 0.52321 0.26075 0.0
H445 H 0.23807 0.49603 0.35992 0.0
H446 H 0.2856 0.49893 0.32198 0.0
H447 H 0.31905 0.51467 0.26207 0.0
H448 H 0.27998 0.54293 0.16356 0.0
H449 H 0.22946 0.53403 0.19986 0.0
C450 C 0.21759 0.51745 0.27405 0.0
C451 C 0.21504 0.50967 0.31327 0.0
C452 C 0.24513 0.51974 0.25223 0.0
C453 C 0.23931 0.50202 0.32983 0.0
C454 C 0.26667 0.50393 0.30817 0.0
C455 C 0.29934 0.51858 0.24839 0.0
C456 C 0.30363 0.52987 0.21014 0.0
C457 C 0.27033 0.51364 0.26957 0.0
C458 C 0.27759 0.53448 0.19292 0.0
C459 C 0.24864 0.52943 0.21371 0.0
H460 H 0.80082 0.34951 0.41496 0.0
H461 H 0.75092 0.28507 0.31658 0.0
H462 H 0.71163 0.23734 0.35837 0.0
H463 H 0.68922 0.21524 0.42263 0.0
H464 H 0.73896 0.28013 0.52081 0.0
H465 H 0.78066 0.32629 0.4792 0.0
C466 C 0.78154 0.32496 0.40254 0.0
C467 C 0.77876 0.32105 0.36253 0.0
C468 C 0.75888 0.29774 0.42673 0.0
C469 C 0.75371 0.28889 0.34716 0.0
C470 C 0.73113 0.26161 0.37108 0.0
C471 C 0.70932 0.23937 0.43505 0.0
C472 C 0.71071 0.2442 0.47494 0.0
C473 C 0.73312 0.26594 0.41088 0.0
C474 C 0.73713 0.27563 0.49033 0.0
C475 C 0.76097 0.30211 0.4665 0.0
H476 H 0.50716 0.70608 0.61172 0.0
H477 H 0.48042 0.74754 0.70895 0.0
H478 H 0.47648 0.79001 0.66795 0.0
H479 H 0.4766 0.81264 0.60407 0.0
H480 H 0.5025 0.77086 0.50652 0.0
H481 H 0.51119 0.73155 0.5482 0.0
C482 C 0.50076 0.72459 0.62407 0.0
C483 C 0.49384 0.72336 0.66344 0.0
C484 C 0.4983 0.74885 0.60023 0.0
C485 C 0.4858 0.74775 0.67883 0.0
C486 C 0.48346 0.77203 0.65535 0.0
C487 C 0.4845 0.7952 0.59186 0.0
C488 C 0.48865 0.7946 0.55209 0.0
C489 C 0.48906 0.77241 0.61594 0.0
C490 C 0.4991 0.77194 0.53695 0.0
C491 C 0.50392 0.74931 0.56079 0.0
H492 H 0.73054 0.45605 0.83597 0.0
H493 H 0.79726 0.4612 0.74404 0.0
H494 H 0.75628 0.46074 0.6975 0.0
H495 H 0.69943 0.45479 0.68223 0.0
H496 H 0.6323 0.44896 0.77402 0.0
H497 H 0.6753 0.45401 0.82069 0.0
C498 C 0.73631 0.45752 0.80579 0.0
C499 C 0.76692 0.4584 0.79372 0.0
C500 C 0.71233 0.45688 0.77885 0.0
C501 C 0.77385 0.46024 0.75436 0.0
C502 C 0.75036 0.45995 0.72756 0.0
C503 C 0.69435 0.45501 0.71242 0.0
C504 C 0.66245 0.45122 0.72439 0.0
C505 C 0.71918 0.45763 0.73938 0.0
C506 C 0.65646 0.45159 0.76377 0.0
C507 C 0.68108 0.45446 0.79064 0.0
H508 H 0.31389 0.79305 0.93288 0.0
H509 H 0.26463 0.72902 0.03148 0.0
H510 H 0.22246 0.68266 0.99024 0.0
H511 H 0.20067 0.65951 0.92622 0.0
H512 H 0.2501 0.72317 0.82746 0.0
H513 H 0.29097 0.77046 0.8688 0.0
C514 C 0.29385 0.76903 0.94545 0.0
C515 C 0.2926 0.76461 0.98537 0.0
C516 C 0.26972 0.74235 0.9215 0.0
C517 C 0.26633 0.73324 1.00096 0.0
C518 C 0.24219 0.70665 0.97735 0.0
C519 C 0.22026 0.68376 0.91363 0.0
C520 C 0.22227 0.68763 0.87364 0.0
C521 C 0.2438 0.7108 0.93758 0.0
C522 C 0.24787 0.71937 0.85804 0.0
C523 C 0.27132 0.74644 0.88171 0.0
H524 H 0.48521 0.29721 0.1013 0.0
H525 H 0.50151 0.24718 0.19844 0.0
H526 H 0.50707 0.20649 0.156 0.0
H527 H 0.51133 0.18772 0.09114 0.0
H528 H 0.49507 0.23786 0.99407 0.0
H529 H 0.48526 0.27569 0.0367 0.0
C530 C 0.48967 0.27721 0.11331 0.0
C531 C 0.49318 0.27551 0.15313 0.0
C532 C 0.49303 0.25399 0.08869 0.0
C533 C 0.49869 0.24919 0.16801 0.0
C534 C 0.50202 0.22597 0.1437 0.0
C535 C 0.50535 0.20672 0.07923 0.0
C536 C 0.50424 0.21004 0.0393 0.0
C537 C 0.49986 0.22852 0.10396 0.0
C538 C 0.49617 0.23468 0.02456 0.0
C539 C 0.49066 0.25643 0.04898 0.0
loop_
_geom_bond_atom_site_label_1
_geom_bond_atom_site_label_2
_geom_bond_distance
_geom_bond_site_symmetry_2
_ccdc_geom_bond_type
Mg0 O7 2.141 . S
Mg0 O8 2.048 . S
Mg0 O9 2.048 . S
Mg0 O12 2.141 . S
C1 O2 1.313 . S
C1 O8 1.195 . S
O2 C1 1.313 . S
C3 O4 1.245 . S
C3 O12 1.289 . S
O4 C3 1.245 . S
C5 O6 1.245 . S
C5 O7 1.289 . S
O6 C5 1.245 . S
O7 Mg0 2.141 . S
O7 C5 1.289 . S
O8 Mg0 2.048 . S
O8 C1 1.195 . S
O9 Mg0 2.048 . S
O9 C10 1.195 . S
C10 O9 1.195 . S
C10 O11 1.313 . S
O11 C10 1.313 . S
O12 Mg0 2.141 . S
O12 C3 1.289 . S
Mg13 O20 2.141 . S
Mg13 O21 2.048 . S
Mg13 O22 2.048 . S
Mg13 O25 2.141 . S
C14 O15 1.313 . S
C14 O21 1.195 . S
O15 C14 1.313 . S
C16 O17 1.245 . S
C16 O25 1.289 . S
O17 C16 1.245 . S
C18 O19 1.245 . S
C18 O20 1.289 . S
O19 C18 1.245 . S
O20 Mg13 2.141 . S
O20 C18 1.289 . S
O21 Mg13 2.048 . S
O21 C14 1.195 . S
O22 Mg13 2.048 . S
O22 C23 1.195 . S
C23 O22 1.195 . S
C23 O24 1.313 . S
O24 C23 1.313 . S
O25 Mg13 2.141 . S
O25 C16 1.289 . S
Mg26 O33 2.141 . S
Mg26 O34 2.048 . S
Mg26 O35 2.048 . S
Mg26 O38 2.141 . S
C27 O28 1.313 . S
C27 O34 1.195 . S
O28 C27 1.313 . S
C29 O30 1.245 . S
C29 O38 1.289 . S
O30 C29 1.245 . S
C31 O32 1.245 . S
C31 O33 1.289 . S
O32 C31 1.245 . S
O33 Mg26 2.141 . S
O33 C31 1.289 . S
O34 Mg26 2.048 . S
O34 C27 1.195 . S
O35 Mg26 2.048 . S
O35 C36 1.195 . S
C36 O35 1.195 . S
C36 O37 1.313 . S
O37 C36 1.313 . S
O38 Mg26 2.141 . S
O38 C29 1.289 . S
Mg39 O46 2.141 . S
Mg39 O47 2.048 . S
Mg39 O48 2.048 . S
Mg39 O51 2.141 . S
C40 O41 1.313 . S
C40 O47 1.195 . S
O41 C40 1.313 . S
C42 O43 1.245 . S
C42 O51 1.289 . S
O43 C42 1.245 . S
C44 O45 1.245 . S
C44 O46 1.289 . S
O45 C44 1.245 . S
O46 Mg39 2.141 . S
O46 C44 1.289 . S
O47 Mg39 2.048 . S
O47 C40 1.195 . S
O48 Mg39 2.048 . S
O48 C49 1.195 . S
C49 O48 1.195 . S
C49 O50 1.313 . S
O50 C49 1.313 . S
O51 Mg39 2.141 . S
O51 C42 1.289 . S
Mg52 O59 2.141 . S
Mg52 O60 2.048 . S
Mg52 O61 2.048 . S
Mg52 O64 2.141 . S
C53 O54 1.313 . S
C53 O60 1.195 . S
O54 C53 1.313 . S
C55 O56 1.245 . S
C55 O64 1.289 1_556 S
O56 C55 1.245 . S
C57 O58 1.245 . S
C57 O59 1.289 . S
O58 C57 1.245 . S
O59 Mg52 2.141 . S
O59 C57 1.289 . S
O60 Mg52 2.048 . S
O60 C53 1.195 . S
O61 Mg52 2.048 . S
O61 C62 1.195 . S
C62 O61 1.195 . S
C62 O63 1.313 . S
O63 C62 1.313 . S
O64 Mg52 2.141 . S
O64 C55 1.289 1_554 S
Mg65 O72 2.141 . S
Mg65 O73 2.048 . S
Mg65 O74 2.048 . S
Mg65 O77 2.141 . S
C66 O67 1.313 . S
C66 O73 1.195 . S
O67 C66 1.313 . S
C68 O69 1.245 . S
C68 O77 1.289 . S
O69 C68 1.245 . S
C70 O71 1.245 . S
C70 O72 1.289 . S
O71 C70 1.245 . S
O72 Mg65 2.141 . S
O72 C70 1.289 . S
O73 Mg65 2.048 . S
O73 C66 1.195 . S
O74 Mg65 2.048 . S
O74 C75 1.195 . S
C75 O74 1.195 . S
C75 O76 1.313 . S
O76 C75 1.313 . S
O77 Mg65 2.141 . S
O77 C68 1.289 . S
Mg78 O85 2.141 . S
Mg78 O86 2.048 . S
Mg78 O87 2.048 . S
Mg78 O90 2.141 . S
C79 O80 1.313 . S
C79 O86 1.195 . S
O80 C79 1.313 . S
C81 O82 1.245 . S
C81 O90 1.289 . S
O82 C81 1.245 . S
C83 O84 1.245 . S
C83 O85 1.289 . S
O84 C83 1.245 . S
O85 Mg78 2.141 . S
O85 C83 1.289 . S
O86 Mg78 2.048 . S
O86 C79 1.195 . S
O87 Mg78 2.048 . S
O87 C88 1.195 . S
C88 O87 1.195 . S
C88 O89 1.313 . S
O89 C88 1.313 . S
O90 Mg78 2.141 . S
O90 C81 1.289 . S
Mg91 O98 2.141 . S
Mg91 O99 2.048 . S
Mg91 O100 2.048 . S
Mg91 O103 2.141 . S
C92 O93 1.313 . S
C92 O99 1.195 . S
O93 C92 1.313 . S
C94 O95 1.245 . S
C94 O103 1.289 . S
O95 C94 1.245 . S
C96 O97 1.245 . S
C96 O98 1.289 . S
O97 C96 1.245 . S
O98 Mg91 2.141 . S
O98 C96 1.289 . S
O99 Mg91 2.048 . S
O99 C92 1.195 . S
O100 Mg91 2.048 . S
O100 C101 1.195 . S
C101 O100 1.195 . S
C101 O102 1.313 . S
O102 C101 1.313 . S
O103 Mg91 2.141 . S
O103 C94 1.289 . S
Mg104 O111 2.141 . S
Mg104 O112 2.048 . S
Mg104 O113 2.048 . S
Mg104 O116 2.141 . S
C105 O106 1.313 . S
C105 O112 1.195 . S
O106 C105 1.313 . S
C107 O108 1.245 . S
C107 O116 1.289 . S
O108 C107 1.245 . S
C109 O110 1.245 . S
C109 O111 1.289 . S
O110 C109 1.245 . S
O111 Mg104 2.141 . S
O111 C109 1.289 . S
O112 Mg104 2.048 . S
O112 C105 1.195 . S
O113 Mg104 2.048 . S
O113 C114 1.195 . S
C114 O113 1.195 . S
C114 O115 1.313 . S
O115 C114 1.313 . S
O116 Mg104 2.141 . S
O116 C107 1.289 . S
Mg117 O124 2.141 . S
Mg117 O125 2.048 . S
Mg117 O126 2.048 . S
Mg117 O129 2.141 . S
C118 O119 1.313 . S
C118 O125 1.195 . S
O119 C118 1.313 . S
C120 O121 1.245 . S
C120 O129 1.289 1_554 S
O121 C120 1.245 . S
C122 O123 1.245 . S
C122 O124 1.289 . S
O123 C122 1.245 . S
O124 Mg117 2.141 . S
O124 C122 1.289 . S
O125 Mg117 2.048 . S
O125 C118 1.195 . S
O126 Mg117 2.048 . S
O126 C127 1.195 . S
C127 O126 1.195 . S
C127 O128 1.313 . S
O128 C127 1.313 . S
O129 Mg117 2.141 . S
O129 C120 1.289 1_556 S
Mg130 O137 2.141 . S
Mg130 O138 2.048 . S
Mg130 O139 2.048 . S
Mg130 O142 2.141 . S
C131 O132 1.313 . S
C131 O138 1.195 . S
O132 C131 1.313 . S
C133 O134 1.245 . S
C133 O142 1.289 . S
O134 C133 1.245 . S
C135 O136 1.245 . S
C135 O137 1.289 . S
O136 C135 1.245 . S
O137 Mg130 2.141 . S
O137 C135 1.289 . S
O138 Mg130 2.048 . S
O138 C131 1.195 . S
O139 Mg130 2.048 . S
O139 C140 1.195 . S
C140 O139 1.195 . S
C140 O141 1.313 . S
O141 C140 1.313 . S
O142 Mg130 2.141 . S
O142 C133 1.289 . S
Mg143 O150 2.141 . S
Mg143 O151 2.048 . S
Mg143 O152 2.048 . S
Mg143 O155 2.141 . S
C144 O145 1.313 . S
C144 O151 1.195 . S
O145 C144 1.313 . S
C146 O147 1.245 . S
C146 O155 1.289 . S
O147 C146 1.245 . S
C148 O149 1.245 . S
C148 O150 1.289 . S
O149 C148 1.245 . S
O150 Mg143 2.141 . S
O150 C148 1.289 . S
O151 Mg143 2.048 . S
O151 C144 1.195 . S
O152 Mg143 2.048 . S
O152 C153 1.195 . S
C153 O152 1.195 . S
C153 O154 1.313 . S
O154 C153 1.313 . S
O155 Mg143 2.141 . S
O155 C146 1.289 . S
H156 C162 0.930 . S
H157 C165 0.930 . S
H158 C166 0.930 . S
H159 C167 0.930 . S
H160 C170 0.930 . S
H161 C171 0.930 . S
C162 H156 0.930 . S
C162 C163 1.355 . S
C162 C164 1.415 . S
C163 C162 1.355 . S
C163 C165 1.419 . S
C164 C162 1.415 . S
C164 C169 1.425 . S
C164 C171 1.409 . S
C165 H157 0.930 . S
C165 C163 1.419 . S
C165 C166 1.362 . S
C166 H158 0.930 . S
C166 C165 1.362 . S
C166 C169 1.409 . S
C167 H159 0.930 . S
C167 C168 1.355 . S
C167 C169 1.415 . S
C168 C167 1.355 . S
C168 C170 1.419 . S
C169 C164 1.425 . S
C169 C166 1.409 . S
C169 C167 1.415 . S
C170 H160 0.930 . S
C170 C168 1.419 . S
C170 C171 1.362 . S
C171 H161 0.930 . S
C171 C164 1.409 . S
C171 C170 1.362 . S
H172 C178 0.930 . S
H173 C181 0.930 . S
H174 C182 0.930 . S
H175 C183 0.930 . S
H176 C186 0.930 . S
H177 C187 0.930 . S
C178 H172 0.930 . S
C178 C179 1.355 . S
C178 C180 1.415 . S
C179 C178 1.355 . S
C179 C181 1.419 . S
C180 C178 1.415 . S
C180 C185 1.425 . S
C180 C187 1.409 . S
C181 H173 0.930 . S
C181 C179 1.419 . S
C181 C182 1.362 . S
C182 H174 0.930 . S
C182 C181 1.362 . S
C182 C185 1.409 . S
C183 H175 0.930 . S
C183 C184 1.355 . S
C183 C185 1.415 . S
C184 C183 1.355 . S
C184 C186 1.419 . S
C185 C180 1.425 . S
C185 C182 1.409 . S
C185 C183 1.415 . S
C186 H176 0.930 . S
C186 C184 1.419 . S
C186 C187 1.362 . S
C187 H177 0.930 . S
C187 C180 1.409 . S
C187 C186 1.362 . S
H188 C194 0.930 . S
H189 C197 0.930 . S
H190 C198 0.930 . S
H191 C199 0.930 . S
H192 C202 0.930 . S
H193 C203 0.930 . S
C194 H188 0.930 . S
C194 C195 1.355 . S
C194 C196 1.415 . S
C195 C194 1.355 . S
C195 C197 1.419 . S
C196 C194 1.415 . S
C196 C201 1.425 . S
C196 C203 1.409 . S
C197 H189 0.930 . S
C197 C195 1.419 . S
C197 C198 1.362 . S
C198 H190 0.930 . S
C198 C197 1.362 . S
C198 C201 1.409 . S
C199 H191 0.930 . S
C199 C200 1.355 . S
C199 C201 1.415 . S
C200 C199 1.355 . S
C200 C202 1.419 . S
C201 C196 1.425 . S
C201 C198 1.409 . S
C201 C199 1.415 . S
C202 H192 0.930 . S
C202 C200 1.419 . S
C202 C203 1.362 . S
C203 H193 0.930 . S
C203 C196 1.409 . S
C203 C202 1.362 . S
H204 C210 0.930 . S
H205 C213 0.930 . S
H206 C214 0.930 . S
H207 C215 0.930 . S
H208 C218 0.930 . S
H209 C219 0.930 . S
C210 H204 0.930 . S
C210 C211 1.355 . S
C210 C212 1.415 . S
C211 C210 1.355 . S
C211 C213 1.419 . S
C212 C210 1.415 . S
C212 C217 1.425 . S
C212 C219 1.409 . S
C213 H205 0.930 . S
C213 C211 1.419 . S
C213 C214 1.362 . S
C214 H206 0.930 . S
C214 C213 1.362 . S
C214 C217 1.409 . S
C215 H207 0.930 . S
C215 C216 1.355 . S
C215 C217 1.415 . S
C216 C215 1.355 . S
C216 C218 1.419 . S
C217 C212 1.425 . S
C217 C214 1.409 . S
C217 C215 1.415 . S
C218 H208 0.930 . S
C218 C216 1.419 . S
C218 C219 1.362 . S
C219 H209 0.930 . S
C219 C212 1.409 . S
C219 C218 1.362 . S
H220 C226 0.930 . S
H221 C229 0.930 . S
H222 C230 0.930 . S
H223 C231 0.930 . S
H224 C234 0.930 . S
H225 C235 0.930 . S
C226 H220 0.930 . S
C226 C227 1.355 . S
C226 C228 1.415 . S
C227 C226 1.355 . S
C227 C229 1.419 . S
C228 C226 1.415 . S
C228 C233 1.425 . S
C228 C235 1.409 . S
C229 H221 0.930 . S
C229 C227 1.419 . S
C229 C230 1.362 . S
C230 H222 0.930 . S
C230 C229 1.362 . S
C230 C233 1.409 . S
C231 H223 0.930 . S
C231 C232 1.355 . S
C231 C233 1.415 . S
C232 C231 1.355 . S
C232 C234 1.419 . S
C233 C228 1.425 . S
C233 C230 1.409 . S
C233 C231 1.415 . S
C234 H224 0.930 . S
C234 C232 1.419 . S
C234 C235 1.362 . S
C235 H225 0.930 . S
C235 C228 1.409 . S
C235 C234 1.362 . S
H236 C242 0.930 . S
H237 C245 0.930 . S
H238 C246 0.930 . S
H239 C247 0.930 . S
H240 C250 0.930 . S
H241 C251 0.930 . S
C242 H236 0.930 . S
C242 C243 1.355 . S
C242 C244 1.415 . S
C243 C242 1.355 . S
C243 C245 1.419 . S
C244 C242 1.415 . S
C244 C249 1.425 . S
C244 C251 1.409 . S
C245 H237 0.930 . S
C245 C243 1.419 . S
C245 C246 1.362 . S
C246 H238 0.930 . S
C246 C245 1.362 . S
C246 C249 1.409 . S
C247 H239 0.930 . S
C247 C248 1.355 . S
C247 C249 1.415 . S
C248 C247 1.355 . S
C248 C250 1.419 . S
C249 C244 1.425 . S
C249 C246 1.409 . S
C249 C247 1.415 . S
C250 H240 0.930 . S
C250 C248 1.419 . S
C250 C251 1.362 . S
C251 H241 0.930 . S
C251 C244 1.409 . S
C251 C250 1.362 . S
H252 C258 0.930 . S
H253 C261 0.930 . S
H254 C262 0.930 . S
H255 C263 0.930 . S
H256 C266 0.930 . S
H257 C267 0.930 . S
C258 H252 0.930 . S
C258 C259 1.355 . S
C258 C260 1.415 . S
C259 C258 1.355 . S
C259 C261 1.419 . S
C260 C258 1.415 . S
C260 C265 1.425 . S
C260 C267 1.409 . S
C261 H253 0.930 . S
C261 C259 1.419 . S
C261 C262 1.362 . S
C262 H254 0.930 . S
C262 C261 1.362 . S
C262 C265 1.409 . S
C263 H255 0.930 . S
C263 C264 1.355 . S
C263 C265 1.415 . S
C264 C263 1.355 . S
C264 C266 1.419 . S
C265 C260 1.425 . S
C265 C262 1.409 . S
C265 C263 1.415 . S
C266 H256 0.930 . S
C266 C264 1.419 . S
C266 C267 1.362 . S
C267 H257 0.930 . S
C267 C260 1.409 . S
C267 C266 1.362 . S
H268 C274 0.930 . S
H269 C277 0.930 . S
H270 C278 0.930 . S
H271 C279 0.930 . S
H272 C282 0.930 . S
H273 C283 0.930 . S
C274 H268 0.930 . S
C274 C275 1.355 . S
C274 C276 1.415 . S
C275 C274 1.355 . S
C275 C277 1.419 . S
C276 C274 1.415 . S
C276 C281 1.425 . S
C276 C283 1.409 . S
C277 H269 0.930 . S
C277 C275 1.419 . S
C277 C278 1.362 . S
C278 H270 0.930 . S
C278 C277 1.362 . S
C278 C281 1.409 . S
C279 H271 0.930 . S
C279 C280 1.355 . S
C279 C281 1.415 . S
C280 C279 1.355 . S
C280 C282 1.419 . S
C281 C276 1.425 . S
C281 C278 1.409 . S
C281 C279 1.415 . S
C282 H272 0.930 . S
C282 C280 1.419 . S
C282 C283 1.362 . S
C283 H273 0.930 . S
C283 C276 1.409 . S
C283 C282 1.362 . S
H284 C290 0.930 . S
H285 C293 0.930 . S
H286 C294 0.930 . S
H287 C295 0.930 . S
H288 C298 0.930 . S
H289 C299 0.930 . S
C290 H284 0.930 . S
C290 C291 1.355 . S
C290 C292 1.415 . S
C291 C290 1.355 . S
C291 C293 1.419 . S
C292 C290 1.415 . S
C292 C297 1.425 . S
C292 C299 1.409 . S
C293 H285 0.930 . S
C293 C291 1.419 . S
C293 C294 1.362 . S
C294 H286 0.930 . S
C294 C293 1.362 . S
C294 C297 1.409 . S
C295 H287 0.930 . S
C295 C296 1.355 . S
C295 C297 1.415 . S
C296 C295 1.355 . S
C296 C298 1.419 . S
C297 C292 1.425 . S
C297 C294 1.409 . S
C297 C295 1.415 . S
C298 H288 0.930 . S
C298 C296 1.419 . S
C298 C299 1.362 . S
C299 H289 0.930 . S
C299 C292 1.409 . S
C299 C298 1.362 . S
H300 C306 0.930 . S
H301 C309 0.930 . S
H302 C310 0.930 . S
H303 C311 0.930 . S
H304 C314 0.930 1_556 S
H305 C315 0.930 . S
C306 H300 0.930 . S
C306 C307 1.355 . S
C306 C308 1.415 . S
C307 C306 1.355 . S
C307 C309 1.419 . S
C308 C306 1.415 . S
C308 C313 1.425 . S
C308 C315 1.409 . S
C309 H301 0.930 . S
C309 C307 1.419 . S
C309 C310 1.362 . S
C310 H302 0.930 . S
C310 C309 1.362 . S
C310 C313 1.409 . S
C311 H303 0.930 . S
C311 C312 1.355 . S
C311 C313 1.415 . S
C312 C311 1.355 . S
C312 C314 1.419 . S
C313 C308 1.425 . S
C313 C310 1.409 . S
C313 C311 1.415 . S
C314 H304 0.930 1_554 S
C314 C312 1.419 . S
C314 C315 1.362 . S
C315 H305 0.930 . S
C315 C308 1.409 . S
C315 C314 1.362 . S
H316 C322 0.930 . S
H317 C325 0.930 . S
H318 C326 0.930 . S
H319 C327 0.930 . S
H320 C330 0.930 . S
H321 C331 0.930 . S
C322 H316 0.930 . S
C322 C323 1.355 . S
C322 C324 1.415 . S
C323 C322 1.355 . S
C323 C325 1.419 . S
C324 C322 1.415 . S
C324 C329 1.425 . S
C324 C331 1.409 . S
C325 H317 0.930 . S
C325 C323 1.419 . S
C325 C326 1.362 . S
C326 H318 0.930 . S
C326 C325 1.362 . S
C326 C329 1.409 . S
C327 H319 0.930 . S
C327 C328 1.355 . S
C327 C329 1.415 . S
C328 C327 1.355 . S
C328 C330 1.419 . S
C329 C324 1.425 . S
C329 C326 1.409 . S
C329 C327 1.415 . S
C330 H320 0.930 . S
C330 C328 1.419 . S
C330 C331 1.362 . S
C331 H321 0.930 . S
C331 C324 1.409 . S
C331 C330 1.362 . S
H332 C338 0.930 . S
H333 C341 0.930 . S
H334 C342 0.930 . S
H335 C343 0.930 . S
H336 C346 0.930 . S
H337 C347 0.930 . S
C338 H332 0.930 . S
C338 C339 1.355 . S
C338 C340 1.415 . S
C339 C338 1.355 . S
C339 C341 1.419 . S
C340 C338 1.415 . S
C340 C345 1.425 . S
C340 C347 1.409 . S
C341 H333 0.930 . S
C341 C339 1.419 . S
C341 C342 1.362 . S
C342 H334 0.930 . S
C342 C341 1.362 . S
C342 C345 1.409 . S
C343 H335 0.930 . S
C343 C344 1.355 . S
C343 C345 1.415 . S
C344 C343 1.355 . S
C344 C346 1.419 . S
C345 C340 1.425 . S
C345 C342 1.409 . S
C345 C343 1.415 . S
C346 H336 0.930 . S
C346 C344 1.419 . S
C346 C347 1.362 . S
C347 H337 0.930 . S
C347 C340 1.409 . S
C347 C346 1.362 . S
H348 C354 0.930 . S
H349 C357 0.930 . S
H350 C358 0.930 . S
H351 C359 0.930 . S
H352 C362 0.930 . S
H353 C363 0.930 . S
C354 H348 0.930 . S
C354 C355 1.355 . S
C354 C356 1.415 1_655 S
C355 C354 1.355 . S
C355 C357 1.419 . S
C356 C354 1.415 1_455 S
C356 C361 1.425 1_455 S
C356 C363 1.409 . S
C357 H349 0.930 . S
C357 C355 1.419 . S
C357 C358 1.362 . S
C358 H350 0.930 . S
C358 C357 1.362 . S
C358 C361 1.409 . S
C359 H351 0.930 . S
C359 C360 1.355 . S
C359 C361 1.415 1_455 S
C360 C359 1.355 . S
C360 C362 1.419 . S
C361 C356 1.425 1_655 S
C361 C358 1.409 . S
C361 C359 1.415 1_655 S
C362 H352 0.930 . S
C362 C360 1.419 . S
C362 C363 1.362 . S
C363 H353 0.930 . S
C363 C356 1.409 . S
C363 C362 1.362 . S
H364 C370 0.930 . S
H365 C373 0.930 . S
H366 C374 0.930 . S
H367 C375 0.930 . S
H368 C378 0.930 . S
H369 C379 0.930 . S
C370 H364 0.930 . S
C370 C371 1.355 . S
C370 C372 1.422 . S
C371 C370 1.355 . S
C371 C373 1.419 . S
C372 C370 1.422 . S
C372 C377 1.418 1_565 S
C372 C379 1.406 1_565 S
C373 H365 0.930 . S
C373 C371 1.419 . S
C373 C374 1.362 . S
C374 H366 0.930 . S
C374 C373 1.362 . S
C374 C377 1.406 1_565 S
C375 H367 0.930 . S
C375 C376 1.355 . S
C375 C377 1.421 . S
C376 C375 1.355 . S
C376 C378 1.419 . S
C377 C372 1.418 1_545 S
C377 C374 1.406 1_545 S
C377 C375 1.421 . S
C378 H368 0.930 . S
C378 C376 1.419 . S
C378 C379 1.362 . S
C379 H369 0.930 . S
C379 C372 1.406 1_545 S
C379 C378 1.362 . S
H380 C386 0.930 . S
H381 C389 0.930 . S
H382 C390 0.930 . S
H383 C391 0.930 . S
H384 C394 0.930 . S
H385 C395 0.930 . S
C386 H380 0.930 . S
C386 C387 1.355 . S
C386 C388 1.415 . S
C387 C386 1.355 . S
C387 C389 1.419 . S
C388 C386 1.415 . S
C388 C393 1.425 . S
C388 C395 1.409 . S
C389 H381 0.930 . S
C389 C387 1.419 . S
C389 C390 1.362 . S
C390 H382 0.930 . S
C390 C389 1.362 . S
C390 C393 1.409 . S
C391 H383 0.930 . S
C391 C392 1.355 . S
C391 C393 1.415 . S
C392 C391 1.355 . S
C392 C394 1.419 . S
C393 C388 1.425 . S
C393 C390 1.409 . S
C393 C391 1.415 . S
C394 H384 0.930 . S
C394 C392 1.419 . S
C394 C395 1.362 . S
C395 H385 0.930 . S
C395 C388 1.409 . S
C395 C394 1.362 . S
H396 C402 0.930 . S
H397 C405 0.930 . S
H398 C406 0.930 . S
H399 C407 0.930 . S
H400 C410 0.930 . S
H401 C411 0.930 . S
C402 H396 0.930 . S
C402 C403 1.355 . S
C402 C404 1.415 1_455 S
C403 C402 1.355 . S
C403 C405 1.419 . S
C404 C402 1.415 1_655 S
C404 C409 1.425 1_655 S
C404 C411 1.409 . S
C405 H397 0.930 . S
C405 C403 1.419 . S
C405 C406 1.362 . S
C406 H398 0.930 . S
C406 C405 1.362 . S
C406 C409 1.409 . S
C407 H399 0.930 . S
C407 C408 1.355 . S
C407 C409 1.415 1_655 S
C408 C407 1.355 . S
C408 C410 1.419 . S
C409 C404 1.425 1_455 S
C409 C406 1.409 . S
C409 C407 1.415 1_455 S
C410 H400 0.930 . S
C410 C408 1.419 . S
C410 C411 1.362 . S
C411 H401 0.930 . S
C411 C404 1.409 . S
C411 C410 1.362 . S
H412 C418 0.930 1_554 S
H413 C421 0.930 . S
H414 C422 0.930 . S
H415 C423 0.930 1_556 S
H416 C426 0.930 . S
H417 C427 0.930 . S
C418 H412 0.930 1_556 S
C418 C419 1.355 . S
C418 C420 1.415 1_556 S
C419 C418 1.355 . S
C419 C421 1.419 . S
C420 C418 1.415 1_554 S
C420 C425 1.425 1_544 S
C420 C427 1.409 . S
C421 H413 0.930 . S
C421 C419 1.419 . S
C421 C422 1.362 1_545 S
C422 H414 0.930 . S
C422 C421 1.362 1_565 S
C422 C425 1.409 . S
C423 H415 0.930 1_554 S
C423 C424 1.355 . S
C423 C425 1.415 1_554 S
C424 C423 1.355 . S
C424 C426 1.419 . S
C425 C420 1.425 1_566 S
C425 C422 1.409 . S
C425 C423 1.415 1_556 S
C426 H416 0.930 . S
C426 C424 1.419 . S
C426 C427 1.362 1_565 S
C427 H417 0.930 . S
C427 C420 1.409 . S
C427 C426 1.362 1_545 S
H428 C434 0.930 . S
H429 C437 0.930 . S
H430 C438 0.930 . S
H431 C439 0.930 . S
H432 C442 0.930 . S
H433 C443 0.930 . S
C434 H428 0.930 . S
C434 C435 1.355 . S
C434 C436 1.415 . S
C435 C434 1.355 . S
C435 C437 1.419 . S
C436 C434 1.415 . S
C436 C441 1.425 . S
C436 C443 1.409 . S
C437 H429 0.930 . S
C437 C435 1.419 . S
C437 C438 1.362 . S
C438 H430 0.930 . S
C438 C437 1.362 . S
C438 C441 1.409 . S
C439 H431 0.930 . S
C439 C440 1.355 . S
C439 C441 1.415 . S
C440 C439 1.355 . S
C440 C442 1.419 . S
C441 C436 1.425 . S
C441 C438 1.409 . S
C441 C439 1.415 . S
C442 H432 0.930 . S
C442 C440 1.419 . S
C442 C443 1.362 . S
C443 H433 0.930 . S
C443 C436 1.409 . S
C443 C442 1.362 . S
H444 C450 0.930 . S
H445 C453 0.930 . S
H446 C454 0.930 . S
H447 C455 0.930 . S
H448 C458 0.930 . S
H449 C459 0.930 . S
C450 H444 0.930 . S
C450 C451 1.355 . S
C450 C452 1.415 . S
C451 C450 1.355 . S
C451 C453 1.419 . S
C452 C450 1.415 . S
C452 C457 1.425 . S
C452 C459 1.409 . S
C453 H445 0.930 . S
C453 C451 1.419 . S
C453 C454 1.362 . S
C454 H446 0.930 . S
C454 C453 1.362 . S
C454 C457 1.409 . S
C455 H447 0.930 . S
C455 C456 1.355 . S
C455 C457 1.415 . S
C456 C455 1.355 . S
C456 C458 1.419 . S
C457 C452 1.425 . S
C457 C454 1.409 . S
C457 C455 1.415 . S
C458 H448 0.930 . S
C458 C456 1.419 . S
C458 C459 1.362 . S
C459 H449 0.930 . S
C459 C452 1.409 . S
C459 C458 1.362 . S
H460 C466 0.930 . S
H461 C469 0.930 . S
H462 C470 0.930 . S
H463 C471 0.930 . S
H464 C474 0.930 . S
H465 C475 0.930 . S
C466 H460 0.930 . S
C466 C467 1.355 . S
C466 C468 1.415 . S
C467 C466 1.355 . S
C467 C469 1.419 . S
C468 C466 1.415 . S
C468 C473 1.425 . S
C468 C475 1.409 . S
C469 H461 0.930 . S
C469 C467 1.419 . S
C469 C470 1.362 . S
C470 H462 0.930 . S
C470 C469 1.362 . S
C470 C473 1.409 . S
C471 H463 0.930 . S
C471 C472 1.355 . S
C471 C473 1.415 . S
C472 C471 1.355 . S
C472 C474 1.419 . S
C473 C468 1.425 . S
C473 C470 1.409 . S
C473 C471 1.415 . S
C474 H464 0.930 . S
C474 C472 1.419 . S
C474 C475 1.362 . S
C475 H465 0.930 . S
C475 C468 1.409 . S
C475 C474 1.362 . S
H476 C482 0.930 . S
H477 C485 0.930 . S
H478 C486 0.930 . S
H479 C487 0.930 . S
H480 C490 0.930 . S
H481 C491 0.930 . S
C482 H476 0.930 . S
C482 C483 1.355 . S
C482 C484 1.415 . S
C483 C482 1.355 . S
C483 C485 1.419 . S
C484 C482 1.415 . S
C484 C489 1.425 . S
C484 C491 1.409 . S
C485 H477 0.930 . S
C485 C483 1.419 . S
C485 C486 1.362 . S
C486 H478 0.930 . S
C486 C485 1.362 . S
C486 C489 1.409 . S
C487 H479 0.930 . S
C487 C488 1.355 . S
C487 C489 1.415 . S
C488 C487 1.355 . S
C488 C490 1.419 . S
C489 C484 1.425 . S
C489 C486 1.409 . S
C489 C487 1.415 . S
C490 H480 0.930 . S
C490 C488 1.419 . S
C490 C491 1.362 . S
C491 H481 0.930 . S
C491 C484 1.409 . S
C491 C490 1.362 . S
H492 C498 0.930 . S
H493 C501 0.930 . S
H494 C502 0.930 . S
H495 C503 0.930 . S
H496 C506 0.930 . S
H497 C507 0.930 . S
C498 H492 0.930 . S
C498 C499 1.355 . S
C498 C500 1.415 . S
C499 C498 1.355 . S
C499 C501 1.419 . S
C500 C498 1.415 . S
C500 C505 1.425 . S
C500 C507 1.409 . S
C501 H493 0.930 . S
C501 C499 1.419 . S
C501 C502 1.362 . S
C502 H494 0.930 . S
C502 C501 1.362 . S
C502 C505 1.409 . S
C503 H495 0.930 . S
C503 C504 1.355 . S
C503 C505 1.415 . S
C504 C503 1.355 . S
C504 C506 1.419 . S
C505 C500 1.425 . S
C505 C502 1.409 . S
C505 C503 1.415 . S
C506 H496 0.930 . S
C506 C504 1.419 . S
C506 C507 1.362 . S
C507 H497 0.930 . S
C507 C500 1.409 . S
C507 C506 1.362 . S
H508 C514 0.930 . S
H509 C517 0.930 1_554 S
H510 C518 0.930 . S
H511 C519 0.930 . S
H512 C522 0.930 . S
H513 C523 0.930 . S
C514 H508 0.930 . S
C514 C515 1.355 . S
C514 C516 1.415 . S
C515 C514 1.355 . S
C515 C517 1.419 . S
C516 C514 1.415 . S
C516 C521 1.425 . S
C516 C523 1.409 . S
C517 H509 0.930 1_556 S
C517 C515 1.419 . S
C517 C518 1.362 . S
C518 H510 0.930 . S
C518 C517 1.362 . S
C518 C521 1.409 . S
C519 H511 0.930 . S
C519 C520 1.355 . S
C519 C521 1.415 . S
C520 C519 1.355 . S
C520 C522 1.419 . S
C521 C516 1.425 . S
C521 C518 1.409 . S
C521 C519 1.415 . S
C522 H512 0.930 . S
C522 C520 1.419 . S
C522 C523 1.362 . S
C523 H513 0.930 . S
C523 C516 1.409 . S
C523 C522 1.362 . S
H524 C530 0.930 . S
H525 C533 0.930 . S
H526 C534 0.930 . S
H527 C535 0.930 . S
H528 C538 0.930 1_556 S
H529 C539 0.930 . S
C530 H524 0.930 . S
C530 C531 1.355 . S
C530 C532 1.415 . S
C531 C530 1.355 . S
C531 C533 1.419 . S
C532 C530 1.415 . S
C532 C537 1.425 . S
C532 C539 1.409 . S
C533 H525 0.930 . S
C533 C531 1.419 . S
C533 C534 1.362 . S
C534 H526 0.930 . S
C534 C533 1.362 . S
C534 C537 1.409 . S
C535 H527 0.930 . S
C535 C536 1.355 . S
C535 C537 1.415 . S
C536 C535 1.355 . S
C536 C538 1.419 . S
C537 C532 1.425 . S
C537 C534 1.409 . S
C537 C535 1.415 . S
C538 H528 0.930 1_554 S
C538 C536 1.419 . S
C538 C539 1.362 . S
C539 H529 0.930 . S
C539 C532 1.409 . S
C539 C538 1.362 . S
C163 C10 1.553 . S
C168 C88 1.499 . S
C179 C23 1.550 . S
C184 C101 1.493 . S
C195 C114 1.539 . S
C200 C36 1.541 . S
C211 C49 1.507 . S
C216 C127 1.554 . S
C227 C62 1.551 . S
C232 C140 1.525 . S
C243 C153 1.485 . S
C248 C75 1.537 . S
C259 C105 1.713 . S
C264 C1 1.688 . S
C275 C14 1.684 . S
C280 C118 1.713 . S
C291 C131 1.672 1_556 S
C296 C27 1.709 . S
C307 C144 1.669 . S
C312 C40 1.676 1_554 S
C323 C53 1.691 . S
C328 C79 1.713 . S
C339 C66 1.710 . S
C344 C92 1.674 . S
C355 C148 1.816 . S
C360 C5 1.808 . S
C371 C83 1.802 . S
C376 C18 1.834 . S
C387 C31 1.845 . S
C392 C96 1.803 . S
C403 C109 1.820 . S
C408 C44 1.806 . S
C419 C122 1.841 . S
C424 C57 1.873 . S
C435 C135 1.831 . S
C440 C70 1.802 . S
C451 C3 1.452 . S
C456 C133 1.417 . S
C467 C146 1.419 . S
C472 C16 1.448 . S
C483 C29 1.418 . S
C488 C81 1.448 . S
C499 C42 1.434 . S
C504 C94 1.451 . S
C515 C55 1.440 . S
C520 C107 1.424 . S
C531 C68 1.442 . S
C536 C120 1.423 . S
