# Generated by pormake.
# Topology uoj, (4)-cn, num edge types: 1
# Building blocks:
#     Node 0, Type 0, BuildingBlock: GALJAG_clean_sbu_0, # of connection points: 4
#     Node 1, Type 0, BuildingBlock: GALJAG_clean_sbu_0, # of connection points: 4
#     Node 2, Type 0, BuildingBlock: GALJAG_clean_sbu_0, # of connection points: 4
#     Node 3, Type 0, BuildingBlock: GALJAG_clean_sbu_0, # of connection points: 4
#     Node 4, Type 0, BuildingBlock: GALJAG_clean_sbu_0, # of connection points: 4
#     Node 5, Type 0, BuildingBlock: GALJAG_clean_sbu_0, # of connection points: 4
#     Node 6, Type 0, BuildingBlock: GALJAG_clean_sbu_0, # of connection points: 4
#     Node 7, Type 0, BuildingBlock: GALJAG_clean_sbu_0, # of connection points: 4
#     Edge 8, Type (0, 0), BuildingBlock: OJICUG_clean_linker_0, # of connection points: 2
#     Edge 9, Type (0, 0), BuildingBlock: OJICUG_clean_linker_0, # of connection points: 2
#     Edge 10, Type (0, 0), BuildingBlock: OJICUG_clean_linker_0, # of connection points: 2
#     Edge 11, Type (0, 0), BuildingBlock: OJICUG_clean_linker_0, # of connection points: 2
#     Edge 12, Type (0, 0), BuildingBlock: OJICUG_clean_linker_0, # of connection points: 2
#     Edge 13, Type (0, 0), BuildingBlock: OJICUG_clean_linker_0, # of connection points: 2
#     Edge 14, Type (0, 0), BuildingBlock: OJICUG_clean_linker_0, # of connection points: 2
#     Edge 15, Type (0, 0), BuildingBlock: OJICUG_clean_linker_0, # of connection points: 2
#     Edge 16, Type (0, 0), BuildingBlock: OJICUG_clean_linker_0, # of connection points: 2
#     Edge 17, Type (0, 0), BuildingBlock: OJICUG_clean_linker_0, # of connection points: 2
#     Edge 18, Type (0, 0), BuildingBlock: OJICUG_clean_linker_0, # of connection points: 2
#     Edge 19, Type (0, 0), BuildingBlock: OJICUG_clean_linker_0, # of connection points: 2
#     Edge 20, Type (0, 0), BuildingBlock: OJICUG_clean_linker_0, # of connection points: 2
#     Edge 21, Type (0, 0), BuildingBlock: OJICUG_clean_linker_0, # of connection points: 2
#     Edge 22, Type (0, 0), BuildingBlock: OJICUG_clean_linker_0, # of connection points: 2
#     Edge 23, Type (0, 0), BuildingBlock: OJICUG_clean_linker_0, # of connection points: 2
# Relax obj value: 0.030
# Max RMSD: 0.084
# Mean RMSD: 0.084
data_MOF--net-uoj--node1-GALJAG_clean_sbu_0--edge1-OJICUG_clean_linker_0
_symmetry_space_group_name_H-M    P1
_symmetry_Int_Tables_number       1
_symmetry_cell_setting            triclinic
loop_
_symmetry_equiv_pos_as_xyz
'x, y, z'
_cell_length_a     25.209206
_cell_length_b     25.132125
_cell_length_c     26.232402
_cell_angle_alpha  90.279428
_cell_angle_beta   90.040441
_cell_angle_gamma 90.11135
loop_
_atom_site_label
_atom_site_type_symbol
_atom_site_fract_x
_atom_site_fract_y
_atom_site_fract_z
_atom_type_partial_charge
In0 In 0.03626 0.27026 0.41565 0.0
O1 O 0.96129 0.22167 0.39593 0.0
O2 O 0.97352 0.24833 0.47234 0.0
C3 C 0.08813 0.29602 0.32981 0.0
C4 C 0.10257 0.19722 0.4541 0.0
C5 C 0.0079 0.37099 0.43405 0.0
O6 O 0.04557 0.26897 0.32903 0.0
O7 O 0.10487 0.30827 0.37377 0.0
O8 O 0.04052 0.34729 0.46293 0.0
O9 O 0.98968 0.34342 0.39766 0.0
C10 C 0.94428 0.22331 0.44137 0.0
O11 O 0.09371 0.24063 0.47732 0.0
O12 O 0.07881 0.19183 0.41203 0.0
In13 In 0.28171 0.93541 0.5587 0.0
O14 O 0.25562 0.87563 0.49702 0.0
O15 O 0.21001 0.88261 0.56531 0.0
C16 C 0.38034 0.97026 0.54048 0.0
C17 C 0.22651 0.02162 0.5298 0.0
C18 C 0.30736 0.88972 0.64771 0.0
O19 O 0.36077 0.93183 0.51516 0.0
O20 O 0.3496 0.99098 0.57286 0.0
O21 O 0.27634 0.92934 0.64541 0.0
O22 O 0.32423 0.87304 0.60518 0.0
C23 C 0.21558 0.86055 0.52234 0.0
O24 O 0.23198 0.00987 0.57642 0.0
O25 O 0.24859 0.99002 0.49896 0.0
In26 In 0.93993 0.69872 0.4333 0.0
O27 O 0.01572 0.74349 0.41115 0.0
O28 O 0.00967 0.71085 0.48588 0.0
C29 C 0.88436 0.68963 0.34584 0.0
C30 C 0.88098 0.76833 0.4871 0.0
C31 C 0.96238 0.595 0.44265 0.0
O32 O 0.92917 0.71248 0.34758 0.0
O33 O 0.8669 0.67438 0.38842 0.0
O34 O 0.94098 0.62059 0.4789 0.0
O35 O 0.97283 0.62194 0.40353 0.0
C36 C 0.03701 0.73716 0.45447 0.0
O37 O 0.87397 0.71864 0.49082 0.0
O38 O 0.91657 0.78228 0.45619 0.0
In39 In 0.70455 0.03468 0.57169 0.0
O40 O 0.77198 0.9776 0.59346 0.0
O41 O 0.71411 0.95009 0.54102 0.0
C42 C 0.6797 0.08661 0.65863 0.0
C43 C 0.76996 0.10252 0.52262 0.0
C44 C 0.60297 0.0153 0.54875 0.0
O45 O 0.70385 0.04241 0.65876 0.0
O46 O 0.66921 0.10454 0.61488 0.0
O47 O 0.63339 0.03771 0.51693 0.0
O48 O 0.62413 0.0023 0.59044 0.0
C49 C 0.75626 0.94036 0.5648 0.0
O50 O 0.73577 0.07543 0.49854 0.0
O51 O 0.77002 0.09553 0.57005 0.0
In52 In 0.43678 0.78595 0.92657 0.0
O53 O 0.51376 0.74054 0.90914 0.0
O54 O 0.49478 0.75955 0.9863 0.0
C55 C 0.38889 0.80866 0.83786 0.0
C56 C 0.36773 0.71451 0.96327 0.0
C57 C 0.46569 0.88663 0.94409 0.0
O58 O 0.4304 0.7803 0.83998 0.0
O59 O 0.3711 0.82399 0.88053 0.0
O60 O 0.43173 0.86398 0.97232 0.0
O61 O 0.48491 0.85811 0.90901 0.0
C62 C 0.52691 0.73808 0.95568 0.0
O63 O 0.37723 0.7576 0.98688 0.0
O64 O 0.39217 0.7087 0.92165 0.0
In65 In 0.77819 0.554 0.07028 0.0
O66 O 0.7339 0.4762 0.08858 0.0
O67 O 0.75257 0.49417 0.01129 0.0
C68 C 0.80006 0.60635 0.15738 0.0
C69 C 0.70593 0.6209 0.03214 0.0
C70 C 0.87874 0.52586 0.05351 0.0
O71 O 0.7721 0.5643 0.15657 0.0
O72 O 0.81567 0.62222 0.11424 0.0
O73 O 0.85522 0.55777 0.02381 0.0
O74 O 0.85121 0.50833 0.08992 0.0
C75 C 0.73148 0.46216 0.04216 0.0
O76 O 0.74945 0.61249 0.00933 0.0
O77 O 0.70009 0.59642 0.07366 0.0
In78 In 0.54526 0.20961 0.92845 0.0
O79 O 0.60301 0.2393 0.99012 0.0
O80 O 0.59034 0.28665 0.92385 0.0
C81 C 0.51539 0.10954 0.94605 0.0
C82 C 0.45421 0.25815 0.95422 0.0
C83 C 0.59628 0.1823 0.84239 0.0
O84 O 0.54797 0.13287 0.97554 0.0
O85 O 0.49773 0.13718 0.90981 0.0
O86 O 0.55542 0.21173 0.84197 0.0
O87 O 0.61207 0.1687 0.8862 0.0
C88 C 0.6134 0.28181 0.96631 0.0
O89 O 0.46925 0.25548 0.90819 0.0
O90 O 0.48494 0.23653 0.98589 0.0
In91 In 0.20059 0.44378 0.06329 0.0
O92 O 0.24589 0.52071 0.08267 0.0
O93 O 0.22609 0.50373 0.00512 0.0
C94 C 0.17613 0.38953 0.14789 0.0
C95 C 0.2736 0.37711 0.02573 0.0
C96 C 0.10044 0.47399 0.04887 0.0
O97 O 0.20423 0.43151 0.14934 0.0
O98 O 0.16203 0.37462 0.10378 0.0
O99 O 0.12263 0.44198 0.018 0.0
O100 O 0.12922 0.49086 0.08489 0.0
C101 C 0.24789 0.53516 0.03645 0.0
O102 O 0.23071 0.38585 0.00187 0.0
O103 O 0.27842 0.40128 0.0678 0.0
C104 C 0.11817 0.32229 0.19071 0.0
C105 C 0.15744 0.36201 0.19428 0.0
H106 H 0.06532 0.27028 0.23078 0.0
C107 C 0.17611 0.37718 0.24264 0.0
H108 H 0.10292 0.30978 0.15394 0.0
C109 C 0.15489 0.35416 0.2866 0.0
C110 C 0.11418 0.31592 0.28309 0.0
H111 H 0.20636 0.40758 0.24659 0.0
H112 H 0.16928 0.36757 0.3234 0.0
C113 C 0.09656 0.29967 0.23469 0.0
C114 C 0.3648 0.82686 0.69652 0.0
C115 C 0.32512 0.86614 0.69636 0.0
H116 H 0.41608 0.77782 0.74137 0.0
C117 C 0.30453 0.88409 0.74307 0.0
H118 H 0.38147 0.81218 0.66111 0.0
C119 C 0.32414 0.86409 0.78904 0.0
C120 C 0.36499 0.82603 0.7892 0.0
H121 H 0.27389 0.91423 0.74416 0.0
H122 H 0.30819 0.87948 0.82448 0.0
C123 C 0.38466 0.80714 0.74247 0.0
C124 C 0.8153 0.63834 0.29782 0.0
C125 C 0.85789 0.67462 0.29746 0.0
H126 H 0.76376 0.58805 0.25382 0.0
C127 C 0.87814 0.69165 0.25043 0.0
H128 H 0.79886 0.62432 0.33347 0.0
C129 C 0.85766 0.67114 0.20477 0.0
C130 C 0.81698 0.63272 0.20529 0.0
H131 H 0.91095 0.7195 0.24893 0.0
H132 H 0.87518 0.68383 0.16913 0.0
C133 C 0.79528 0.61736 0.25222 0.0
C134 C 0.60554 0.17979 0.74727 0.0
C135 C 0.62113 0.16125 0.79537 0.0
H136 H 0.61238 0.17106 0.6663 0.0
C137 C 0.6584 0.11975 0.79819 0.0
H138 H 0.5769 0.21166 0.74389 0.0
C139 C 0.6783 0.09606 0.75379 0.0
C140 C 0.66179 0.11382 0.70569 0.0
H141 H 0.67109 0.10445 0.83474 0.0
H142 H 0.70597 0.06335 0.75716 0.0
C143 C 0.62591 0.15652 0.70287 0.0
C144 C 0.18381 0.07174 0.4595 0.0
C145 C 0.19606 0.06797 0.51157 0.0
H146 H 0.14485 0.11542 0.40088 0.0
C147 C 0.179 0.10841 0.54493 0.0
H148 H 0.1964 0.04128 0.43278 0.0
C149 C 0.14981 0.1517 0.52632 0.0
C150 C 0.1367 0.15455 0.47431 0.0
H151 H 0.18813 0.10656 0.58524 0.0
H152 H 0.1365 0.18215 0.5527 0.0
C153 C 0.15423 0.11427 0.44118 0.0
C154 C 0.16342 0.8194 0.45078 0.0
C155 C 0.17562 0.82268 0.50296 0.0
H156 H 0.109 0.78993 0.39416 0.0
C157 C 0.14517 0.79365 0.53789 0.0
H158 H 0.18622 0.84176 0.42319 0.0
C159 C 0.10187 0.76366 0.52141 0.0
C160 C 0.08738 0.76286 0.4697 0.0
H161 H 0.15394 0.79536 0.57831 0.0
H162 H 0.07833 0.74302 0.54966 0.0
C163 C 0.1192 0.79003 0.43427 0.0
C164 C 0.84367 0.89593 0.55373 0.0
C165 C 0.78811 0.89256 0.55379 0.0
H166 H 0.91666 0.85899 0.53135 0.0
C167 C 0.76353 0.8454 0.53686 0.0
H168 H 0.86352 0.93202 0.56614 0.0
C169 C 0.79405 0.80301 0.51837 0.0
C170 C 0.84934 0.80806 0.51496 0.0
H171 H 0.72068 0.84202 0.53642 0.0
H172 H 0.77428 0.76774 0.50384 0.0
C173 C 0.87398 0.85437 0.53364 0.0
C174 C 0.82325 0.13282 0.44675 0.0
C175 C 0.80943 0.13777 0.49848 0.0
H176 H 0.87754 0.15614 0.38759 0.0
C177 C 0.83722 0.1741 0.5293 0.0
H178 H 0.80245 0.10496 0.42223 0.0
C179 C 0.87953 0.20308 0.50975 0.0
C180 C 0.89545 0.19636 0.45886 0.0
H181 H 0.8272 0.17919 0.56919 0.0
H182 H 0.90077 0.22971 0.53519 0.0
C183 C 0.8662 0.16191 0.42704 0.0
C184 C 0.29473 0.62219 0.0533 0.0
C185 C 0.27541 0.58367 0.01892 0.0
H186 H 0.33861 0.69512 0.06245 0.0
C187 C 0.28369 0.59081 0.96646 0.0
H188 H 0.28867 0.61773 0.09393 0.0
C189 C 0.31235 0.63431 0.94873 0.0
C190 C 0.33281 0.67221 0.98291 0.0
H191 H 0.26919 0.56198 0.93893 0.0
H192 H 0.31919 0.63781 0.90811 0.0
C193 C 0.32294 0.6665 0.03533 0.0
C194 C 0.62412 0.67367 0.04516 0.0
C195 C 0.66332 0.65479 0.0118 0.0
H196 H 0.55089 0.71502 0.05352 0.0
C197 C 0.65887 0.66541 0.95941 0.0
H198 H 0.62662 0.66623 0.08574 0.0
C199 C 0.61466 0.69292 0.94063 0.0
C200 C 0.57496 0.71081 0.97417 0.0
H201 H 0.68853 0.65095 0.93292 0.0
H202 H 0.61129 0.69972 0.90002 0.0
C203 C 0.58069 0.70165 0.02664 0.0
C204 C 0.68503 0.37482 0.0578 0.0
C205 C 0.70434 0.41349 0.02395 0.0
H206 H 0.64157 0.3016 0.06593 0.0
C207 C 0.69639 0.40632 0.97137 0.0
H208 H 0.69081 0.37928 0.09852 0.0
C209 C 0.66815 0.36262 0.95299 0.0
C210 C 0.64772 0.32455 0.98663 0.0
H211 H 0.71088 0.43525 0.94421 0.0
H212 H 0.66164 0.35909 0.91228 0.0
C213 C 0.65719 0.33034 0.03919 0.0
C214 C 0.36771 0.30477 0.93639 0.0
C215 C 0.40568 0.28589 0.97116 0.0
H216 H 0.29482 0.34799 0.92654 0.0
C217 C 0.39777 0.29452 0.02352 0.0
H218 H 0.37276 0.29842 0.89582 0.0
C219 C 0.35399 0.32293 0.04081 0.0
C220 C 0.31653 0.34283 0.00629 0.0
H221 H 0.42614 0.28038 0.05135 0.0
H222 H 0.34983 0.32989 0.08141 0.0
C223 C 0.32309 0.33275 0.95392 0.0
C224 C 0.98707 0.51023 0.48748 0.0
C225 C 0.97172 0.5373 0.44313 0.0
H226 H 0.01217 0.43555 0.51933 0.0
C227 C 0.96714 0.50915 0.39708 0.0
H228 H -0.00897 0.5314 0.52335 0.0
C229 C 0.97789 0.45501 0.39502 0.0
C230 C -0.00526 0.42788 0.43872 0.0
H231 H 0.95511 0.5291 0.3624 0.0
H232 H 0.97418 0.43463 0.35869 0.0
C233 C -0.00066 0.45578 0.48512 0.0
C234 C 0.51211 0.02638 0.58068 0.0
C235 C 0.54565 0.00926 0.54145 0.0
H236 H 0.43355 0.02857 0.61023 0.0
C237 C 0.52426 0.98241 0.49911 0.0
H238 H 0.52799 0.04714 0.61367 0.0
C239 C 0.46985 0.97038 0.49759 0.0
C240 C 0.43653 0.98641 0.53781 0.0
H241 H 0.54985 0.96856 0.46868 0.0
H242 H 0.45412 0.94775 0.46574 0.0
C243 C 0.45807 0.01574 0.57859 0.0
C244 C 0.50175 0.02417 0.90203 0.0
C245 C 0.50381 0.05241 0.94814 0.0
H246 H 0.48886 0.94954 0.8652 0.0
C247 C 0.49355 0.02591 0.99412 0.0
H248 H 0.50981 0.04379 0.86613 0.0
C249 C 0.47997 0.97167 0.99348 0.0
C250 C 0.47852 0.94358 0.94704 0.0
H251 H 0.4948 0.04729 0.03005 0.0
H252 H 0.47141 0.95162 0.02901 0.0
C253 C 0.48996 0.97024 0.90154 0.0
C254 C 0.01725 0.49319 0.09431 0.0
C255 C 0.04366 0.48681 0.04769 0.0
H256 H 0.9443 0.50979 0.13215 0.0
C257 C 0.01561 0.49358 0.00189 0.0
H258 H 0.03797 0.48789 0.13015 0.0
C259 C 0.96173 0.50769 0.00308 0.0
C260 C 0.93546 0.5132 0.05004 0.0
H261 H 0.03547 0.48896 0.96554 0.0
H262 H 0.94047 0.51326 0.96761 0.0
C263 C 0.96363 0.50553 0.09547 0.0
loop_
_geom_bond_atom_site_label_1
_geom_bond_atom_site_label_2
_geom_bond_distance
_geom_bond_site_symmetry_2
_ccdc_geom_bond_type
In0 O1 2.294 1_455 S
In0 O2 2.326 . S
In0 O6 2.266 . S
In0 O7 2.326 . S
In0 O8 2.266 . S
In0 O9 2.326 . S
In0 O11 2.294 . S
In0 O12 2.326 . S
O1 In0 2.294 1_655 S
O1 C10 1.240 . S
O2 In0 2.326 . S
O2 C10 1.252 1_455 S
C3 O6 1.252 . S
C3 O7 1.260 . S
C4 O11 1.240 . S
C4 O12 1.252 . S
C5 O8 1.252 . S
C5 O9 1.260 . S
O6 In0 2.266 . S
O6 C3 1.252 . S
O7 In0 2.326 . S
O7 C3 1.260 . S
O8 In0 2.266 . S
O8 C5 1.252 . S
O9 In0 2.326 . S
O9 C5 1.260 . S
C10 O1 1.240 . S
C10 O2 1.252 1_655 S
O11 In0 2.294 . S
O11 C4 1.240 . S
O12 In0 2.326 . S
O12 C4 1.252 . S
In13 O14 2.294 . S
In13 O15 2.326 . S
In13 O19 2.266 . S
In13 O20 2.326 . S
In13 O21 2.266 . S
In13 O22 2.326 . S
In13 O24 2.294 1_565 S
In13 O25 2.326 . S
O14 In13 2.294 . S
O14 C23 1.240 . S
O15 In13 2.326 . S
O15 C23 1.252 . S
C16 O19 1.252 . S
C16 O20 1.260 . S
C17 O24 1.240 . S
C17 O25 1.252 1_545 S
C18 O21 1.252 . S
C18 O22 1.260 . S
O19 In13 2.266 . S
O19 C16 1.252 . S
O20 In13 2.326 . S
O20 C16 1.260 . S
O21 In13 2.266 . S
O21 C18 1.252 . S
O22 In13 2.326 . S
O22 C18 1.260 . S
C23 O14 1.240 . S
C23 O15 1.252 . S
O24 In13 2.294 1_545 S
O24 C17 1.240 . S
O25 In13 2.326 . S
O25 C17 1.252 1_565 S
In26 O27 2.294 1_655 S
In26 O28 2.326 . S
In26 O32 2.266 . S
In26 O33 2.326 . S
In26 O34 2.266 . S
In26 O35 2.326 . S
In26 O37 2.294 . S
In26 O38 2.326 . S
O27 In26 2.294 1_455 S
O27 C36 1.240 . S
O28 In26 2.326 . S
O28 C36 1.252 1_655 S
C29 O32 1.252 . S
C29 O33 1.260 . S
C30 O37 1.240 . S
C30 O38 1.252 . S
C31 O34 1.252 . S
C31 O35 1.260 . S
O32 In26 2.266 . S
O32 C29 1.252 . S
O33 In26 2.326 . S
O33 C29 1.260 . S
O34 In26 2.266 . S
O34 C31 1.252 . S
O35 In26 2.326 . S
O35 C31 1.260 . S
C36 O27 1.240 . S
C36 O28 1.252 1_455 S
O37 In26 2.294 . S
O37 C30 1.240 . S
O38 In26 2.326 . S
O38 C30 1.252 . S
In39 O40 2.294 1_545 S
In39 O41 2.326 . S
In39 O45 2.266 . S
In39 O46 2.326 . S
In39 O47 2.266 . S
In39 O48 2.326 . S
In39 O50 2.294 . S
In39 O51 2.326 . S
O40 In39 2.294 1_565 S
O40 C49 1.240 . S
O41 In39 2.326 . S
O41 C49 1.252 1_545 S
C42 O45 1.252 . S
C42 O46 1.260 . S
C43 O50 1.240 . S
C43 O51 1.252 . S
C44 O47 1.252 . S
C44 O48 1.260 . S
O45 In39 2.266 . S
O45 C42 1.252 . S
O46 In39 2.326 . S
O46 C42 1.260 . S
O47 In39 2.266 . S
O47 C44 1.252 . S
O48 In39 2.326 . S
O48 C44 1.260 . S
C49 O40 1.240 . S
C49 O41 1.252 1_565 S
O50 In39 2.294 . S
O50 C43 1.240 . S
O51 In39 2.326 . S
O51 C43 1.252 . S
In52 O53 2.294 . S
In52 O54 2.326 1_556 S
In52 O58 2.266 . S
In52 O59 2.326 . S
In52 O60 2.266 . S
In52 O61 2.326 . S
In52 O63 2.294 . S
In52 O64 2.326 . S
O53 In52 2.294 . S
O53 C62 1.240 . S
O54 In52 2.326 1_554 S
O54 C62 1.252 1_554 S
C55 O58 1.252 . S
C55 O59 1.260 . S
C56 O63 1.240 . S
C56 O64 1.252 . S
C57 O60 1.252 . S
C57 O61 1.260 . S
O58 In52 2.266 . S
O58 C55 1.252 . S
O59 In52 2.326 . S
O59 C55 1.260 . S
O60 In52 2.266 . S
O60 C57 1.252 . S
O61 In52 2.326 . S
O61 C57 1.260 . S
C62 O53 1.240 . S
C62 O54 1.252 1_556 S
O63 In52 2.294 . S
O63 C56 1.240 . S
O64 In52 2.326 . S
O64 C56 1.252 . S
In65 O66 2.294 . S
In65 O67 2.326 1_554 S
In65 O71 2.266 . S
In65 O72 2.326 . S
In65 O73 2.266 . S
In65 O74 2.326 . S
In65 O76 2.294 . S
In65 O77 2.326 . S
O66 In65 2.294 . S
O66 C75 1.240 . S
O67 In65 2.326 1_556 S
O67 C75 1.252 1_556 S
C68 O71 1.252 . S
C68 O72 1.260 . S
C69 O76 1.240 . S
C69 O77 1.252 . S
C70 O73 1.252 . S
C70 O74 1.260 . S
O71 In65 2.266 . S
O71 C68 1.252 . S
O72 In65 2.326 . S
O72 C68 1.260 . S
O73 In65 2.266 . S
O73 C70 1.252 . S
O74 In65 2.326 . S
O74 C70 1.260 . S
C75 O66 1.240 . S
C75 O67 1.252 1_554 S
O76 In65 2.294 . S
O76 C69 1.240 . S
O77 In65 2.326 . S
O77 C69 1.252 . S
In78 O79 2.294 . S
In78 O80 2.326 . S
In78 O84 2.266 . S
In78 O85 2.326 . S
In78 O86 2.266 . S
In78 O87 2.326 . S
In78 O89 2.294 . S
In78 O90 2.326 1_556 S
O79 In78 2.294 . S
O79 C88 1.240 . S
O80 In78 2.326 . S
O80 C88 1.252 . S
C81 O84 1.252 . S
C81 O85 1.260 . S
C82 O89 1.240 . S
C82 O90 1.252 1_556 S
C83 O86 1.252 . S
C83 O87 1.260 . S
O84 In78 2.266 . S
O84 C81 1.252 . S
O85 In78 2.326 . S
O85 C81 1.260 . S
O86 In78 2.266 . S
O86 C83 1.252 . S
O87 In78 2.326 . S
O87 C83 1.260 . S
C88 O79 1.240 . S
C88 O80 1.252 . S
O89 In78 2.294 . S
O89 C82 1.240 . S
O90 In78 2.326 1_554 S
O90 C82 1.252 1_554 S
In91 O92 2.294 . S
In91 O93 2.326 1_554 S
In91 O97 2.266 . S
In91 O98 2.326 . S
In91 O99 2.266 . S
In91 O100 2.326 . S
In91 O102 2.294 . S
In91 O103 2.326 . S
O92 In91 2.294 . S
O92 C101 1.240 . S
O93 In91 2.326 1_556 S
O93 C101 1.252 1_556 S
C94 O97 1.252 . S
C94 O98 1.260 . S
C95 O102 1.240 . S
C95 O103 1.252 . S
C96 O99 1.252 . S
C96 O100 1.260 . S
O97 In91 2.266 . S
O97 C94 1.252 . S
O98 In91 2.326 . S
O98 C94 1.260 . S
O99 In91 2.266 . S
O99 C96 1.252 . S
O100 In91 2.326 . S
O100 C96 1.260 . S
C101 O92 1.240 . S
C101 O93 1.252 1_554 S
O102 In91 2.294 . S
O102 C95 1.240 . S
O103 In91 2.326 . S
O103 C95 1.252 . S
C104 C105 1.387 . S
C104 H108 0.950 . S
C104 C113 1.390 . S
C105 C104 1.387 . S
C105 C107 1.387 . S
H106 C113 0.950 . S
C107 C105 1.387 . S
C107 C109 1.390 . S
C107 H111 0.950 . S
H108 C104 0.950 . S
C109 C107 1.390 . S
C109 C110 1.387 . S
C109 H112 0.950 . S
C110 C109 1.387 . S
C110 C113 1.387 . S
H111 C107 0.950 . S
H112 C109 0.950 . S
C113 C104 1.390 . S
C113 H106 0.950 . S
C113 C110 1.387 . S
C114 C115 1.387 . S
C114 H118 0.950 . S
C114 C123 1.390 . S
C115 C114 1.387 . S
C115 C117 1.387 . S
H116 C123 0.950 . S
C117 C115 1.387 . S
C117 C119 1.390 . S
C117 H121 0.950 . S
H118 C114 0.950 . S
C119 C117 1.390 . S
C119 C120 1.387 . S
C119 H122 0.950 . S
C120 C119 1.387 . S
C120 C123 1.387 . S
H121 C117 0.950 . S
H122 C119 0.950 . S
C123 C114 1.390 . S
C123 H116 0.950 . S
C123 C120 1.387 . S
C124 C125 1.387 . S
C124 H128 0.950 . S
C124 C133 1.390 . S
C125 C124 1.387 . S
C125 C127 1.387 . S
H126 C133 0.950 . S
C127 C125 1.387 . S
C127 C129 1.390 . S
C127 H131 0.950 . S
H128 C124 0.950 . S
C129 C127 1.390 . S
C129 C130 1.387 . S
C129 H132 0.950 . S
C130 C129 1.387 . S
C130 C133 1.387 . S
H131 C127 0.950 . S
H132 C129 0.950 . S
C133 C124 1.390 . S
C133 H126 0.950 . S
C133 C130 1.387 . S
C134 C135 1.387 . S
C134 H138 0.950 . S
C134 C143 1.390 . S
C135 C134 1.387 . S
C135 C137 1.387 . S
H136 C143 0.950 . S
C137 C135 1.387 . S
C137 C139 1.390 . S
C137 H141 0.950 . S
H138 C134 0.950 . S
C139 C137 1.390 . S
C139 C140 1.387 . S
C139 H142 0.950 . S
C140 C139 1.387 . S
C140 C143 1.387 . S
H141 C137 0.950 . S
H142 C139 0.950 . S
C143 C134 1.390 . S
C143 H136 0.950 . S
C143 C140 1.387 . S
C144 C145 1.387 . S
C144 H148 0.950 . S
C144 C153 1.390 . S
C145 C144 1.387 . S
C145 C147 1.387 . S
H146 C153 0.950 . S
C147 C145 1.387 . S
C147 C149 1.390 . S
C147 H151 0.950 . S
H148 C144 0.950 . S
C149 C147 1.390 . S
C149 C150 1.387 . S
C149 H152 0.950 . S
C150 C149 1.387 . S
C150 C153 1.387 . S
H151 C147 0.950 . S
H152 C149 0.950 . S
C153 C144 1.390 . S
C153 H146 0.950 . S
C153 C150 1.387 . S
C154 C155 1.387 . S
C154 H158 0.950 . S
C154 C163 1.390 . S
C155 C154 1.387 . S
C155 C157 1.387 . S
H156 C163 0.950 . S
C157 C155 1.387 . S
C157 C159 1.390 . S
C157 H161 0.950 . S
H158 C154 0.950 . S
C159 C157 1.390 . S
C159 C160 1.387 . S
C159 H162 0.950 . S
C160 C159 1.387 . S
C160 C163 1.387 . S
H161 C157 0.950 . S
H162 C159 0.950 . S
C163 C154 1.390 . S
C163 H156 0.950 . S
C163 C160 1.387 . S
C164 C165 1.387 . S
C164 H168 0.950 . S
C164 C173 1.390 . S
C165 C164 1.387 . S
C165 C167 1.387 . S
H166 C173 0.950 . S
C167 C165 1.387 . S
C167 C169 1.390 . S
C167 H171 0.950 . S
H168 C164 0.950 . S
C169 C167 1.390 . S
C169 C170 1.387 . S
C169 H172 0.950 . S
C170 C169 1.387 . S
C170 C173 1.387 . S
H171 C167 0.950 . S
H172 C169 0.950 . S
C173 C164 1.390 . S
C173 H166 0.950 . S
C173 C170 1.387 . S
C174 C175 1.387 . S
C174 H178 0.950 . S
C174 C183 1.390 . S
C175 C174 1.387 . S
C175 C177 1.387 . S
H176 C183 0.950 . S
C177 C175 1.387 . S
C177 C179 1.390 . S
C177 H181 0.950 . S
H178 C174 0.950 . S
C179 C177 1.390 . S
C179 C180 1.387 . S
C179 H182 0.950 . S
C180 C179 1.387 . S
C180 C183 1.387 . S
H181 C177 0.950 . S
H182 C179 0.950 . S
C183 C174 1.390 . S
C183 H176 0.950 . S
C183 C180 1.387 . S
C184 C185 1.387 . S
C184 H188 0.950 . S
C184 C193 1.390 . S
C185 C184 1.387 . S
C185 C187 1.387 1_554 S
H186 C193 0.950 . S
C187 C185 1.387 1_556 S
C187 C189 1.390 . S
C187 H191 0.950 . S
H188 C184 0.950 . S
C189 C187 1.390 . S
C189 C190 1.387 . S
C189 H192 0.950 . S
C190 C189 1.387 . S
C190 C193 1.387 1_556 S
H191 C187 0.950 . S
H192 C189 0.950 . S
C193 C184 1.390 . S
C193 H186 0.950 . S
C193 C190 1.387 1_554 S
C194 C195 1.387 . S
C194 H198 0.950 . S
C194 C203 1.390 . S
C195 C194 1.387 . S
C195 C197 1.387 1_554 S
H196 C203 0.950 . S
C197 C195 1.387 1_556 S
C197 C199 1.390 . S
C197 H201 0.950 . S
H198 C194 0.950 . S
C199 C197 1.390 . S
C199 C200 1.387 . S
C199 H202 0.950 . S
C200 C199 1.387 . S
C200 C203 1.387 1_556 S
H201 C197 0.950 . S
H202 C199 0.950 . S
C203 C194 1.390 . S
C203 H196 0.950 . S
C203 C200 1.387 1_554 S
C204 C205 1.387 . S
C204 H208 0.950 . S
C204 C213 1.390 . S
C205 C204 1.387 . S
C205 C207 1.387 1_554 S
H206 C213 0.950 . S
C207 C205 1.387 1_556 S
C207 C209 1.390 . S
C207 H211 0.950 . S
H208 C204 0.950 . S
C209 C207 1.390 . S
C209 C210 1.387 . S
C209 H212 0.950 . S
C210 C209 1.387 . S
C210 C213 1.387 1_556 S
H211 C207 0.950 . S
H212 C209 0.950 . S
C213 C204 1.390 . S
C213 H206 0.950 . S
C213 C210 1.387 1_554 S
C214 C215 1.387 . S
C214 H218 0.950 . S
C214 C223 1.390 . S
C215 C214 1.387 . S
C215 C217 1.387 1_556 S
H216 C223 0.950 . S
C217 C215 1.387 1_554 S
C217 C219 1.390 . S
C217 H221 0.950 . S
H218 C214 0.950 . S
C219 C217 1.390 . S
C219 C220 1.387 . S
C219 H222 0.950 . S
C220 C219 1.387 . S
C220 C223 1.387 1_554 S
H221 C217 0.950 . S
H222 C219 0.950 . S
C223 C214 1.390 . S
C223 H216 0.950 . S
C223 C220 1.387 1_556 S
C224 C225 1.387 . S
C224 H228 0.950 . S
C224 C233 1.390 1_655 S
C225 C224 1.387 . S
C225 C227 1.387 . S
H226 C233 0.950 . S
C227 C225 1.387 . S
C227 C229 1.390 1_655 S
C227 H231 0.950 . S
H228 C224 0.950 . S
C229 C227 1.390 1_455 S
C229 C230 1.387 . S
C229 H232 0.950 . S
C230 C229 1.387 . S
C230 C233 1.387 . S
H231 C227 0.950 . S
H232 C229 0.950 . S
C233 C224 1.390 1_455 S
C233 H226 0.950 . S
C233 C230 1.387 . S
C234 C235 1.387 . S
C234 H238 0.950 . S
C234 C243 1.390 1_545 S
C235 C234 1.387 . S
C235 C237 1.387 . S
H236 C243 0.950 . S
C237 C235 1.387 . S
C237 C239 1.390 1_545 S
C237 H241 0.950 . S
H238 C234 0.950 . S
C239 C237 1.390 1_565 S
C239 C240 1.387 . S
C239 H242 0.950 . S
C240 C239 1.387 . S
C240 C243 1.387 . S
H241 C237 0.950 . S
H242 C239 0.950 . S
C243 C234 1.390 1_565 S
C243 H236 0.950 . S
C243 C240 1.387 . S
C244 C245 1.387 . S
C244 H248 0.950 . S
C244 C253 1.390 1_545 S
C245 C244 1.387 . S
C245 C247 1.387 1_556 S
H246 C253 0.950 . S
C247 C245 1.387 1_554 S
C247 C249 1.390 1_545 S
C247 H251 0.950 . S
H248 C244 0.950 . S
C249 C247 1.390 1_565 S
C249 C250 1.387 1_554 S
C249 H252 0.950 . S
C250 C249 1.387 1_556 S
C250 C253 1.387 . S
H251 C247 0.950 . S
H252 C249 0.950 . S
C253 C244 1.390 1_565 S
C253 H246 0.950 . S
C253 C250 1.387 . S
C254 C255 1.387 . S
C254 H258 0.950 . S
C254 C263 1.390 1_455 S
C255 C254 1.387 . S
C255 C257 1.387 1_554 S
H256 C263 0.950 . S
C257 C255 1.387 1_556 S
C257 C259 1.390 1_455 S
C257 H261 0.950 . S
H258 C254 0.950 . S
C259 C257 1.390 1_655 S
C259 C260 1.387 1_556 S
C259 H262 0.950 . S
C260 C259 1.387 1_554 S
C260 C263 1.387 . S
H261 C257 0.950 . S
H262 C259 0.950 . S
C263 C254 1.390 1_655 S
C263 H256 0.950 . S
C263 C260 1.387 . S
C105 C94 1.509 . S
C110 C3 1.509 . S
C115 C18 1.510 . S
C120 C55 1.509 . S
C125 C29 1.509 . S
C130 C68 1.510 . S
C135 C83 1.509 . S
C140 C42 1.510 . S
C145 C17 1.479 . S
C150 C4 1.462 . S
C155 C23 1.462 . S
C160 C36 1.479 . S
C165 C49 1.479 . S
C170 C30 1.464 . S
C175 C43 1.462 . S
C180 C10 1.479 . S
C185 C101 1.479 . S
C190 C56 1.462 . S
C195 C69 1.462 . S
C200 C62 1.479 . S
C205 C75 1.479 . S
C210 C88 1.462 . S
C215 C82 1.479 . S
C220 C95 1.464 . S
C225 C31 1.276 . S
C230 C5 1.276 . S
C235 C44 1.276 . S
C240 C16 1.276 . S
C245 C81 1.276 . S
C250 C57 1.276 . S
C255 C96 1.278 . S
C260 C70 1.278 . S
