# Generated by pormake.
# Topology acs-a, (4)-cn, num edge types: 1
# Building blocks:
#     Node 0, Type 0, BuildingBlock: QUQFOY_clean_sbu_3, # of connection points: 4
#     Node 1, Type 0, BuildingBlock: QUQFOY_clean_sbu_3, # of connection points: 4
#     Node 2, Type 0, BuildingBlock: QUQFOY_clean_sbu_3, # of connection points: 4
#     Node 3, Type 0, BuildingBlock: QUQFOY_clean_sbu_3, # of connection points: 4
#     Node 4, Type 0, BuildingBlock: QUQFOY_clean_sbu_3, # of connection points: 4
#     Node 5, Type 0, BuildingBlock: QUQFOY_clean_sbu_3, # of connection points: 4
#     Node 6, Type 0, BuildingBlock: QUQFOY_clean_sbu_3, # of connection points: 4
#     Node 7, Type 0, BuildingBlock: QUQFOY_clean_sbu_3, # of connection points: 4
#     Node 8, Type 0, BuildingBlock: QUQFOY_clean_sbu_3, # of connection points: 4
#     Node 9, Type 0, BuildingBlock: QUQFOY_clean_sbu_3, # of connection points: 4
#     Node 10, Type 0, BuildingBlock: QUQFOY_clean_sbu_3, # of connection points: 4
#     Node 11, Type 0, BuildingBlock: QUQFOY_clean_sbu_3, # of connection points: 4
#     Edge 12, Type (0, 0), BuildingBlock: EYOCIG_clean_linker_4, # of connection points: 2
#     Edge 13, Type (0, 0), BuildingBlock: EYOCIG_clean_linker_4, # of connection points: 2
#     Edge 14, Type (0, 0), BuildingBlock: EYOCIG_clean_linker_4, # of connection points: 2
#     Edge 15, Type (0, 0), BuildingBlock: EYOCIG_clean_linker_4, # of connection points: 2
#     Edge 16, Type (0, 0), BuildingBlock: EYOCIG_clean_linker_4, # of connection points: 2
#     Edge 17, Type (0, 0), BuildingBlock: EYOCIG_clean_linker_4, # of connection points: 2
#     Edge 18, Type (0, 0), BuildingBlock: EYOCIG_clean_linker_4, # of connection points: 2
#     Edge 19, Type (0, 0), BuildingBlock: EYOCIG_clean_linker_4, # of connection points: 2
#     Edge 20, Type (0, 0), BuildingBlock: EYOCIG_clean_linker_4, # of connection points: 2
#     Edge 21, Type (0, 0), BuildingBlock: EYOCIG_clean_linker_4, # of connection points: 2
#     Edge 22, Type (0, 0), BuildingBlock: EYOCIG_clean_linker_4, # of connection points: 2
#     Edge 23, Type (0, 0), BuildingBlock: EYOCIG_clean_linker_4, # of connection points: 2
#     Edge 24, Type (0, 0), BuildingBlock: EYOCIG_clean_linker_4, # of connection points: 2
#     Edge 25, Type (0, 0), BuildingBlock: EYOCIG_clean_linker_4, # of connection points: 2
#     Edge 26, Type (0, 0), BuildingBlock: EYOCIG_clean_linker_4, # of connection points: 2
#     Edge 27, Type (0, 0), BuildingBlock: EYOCIG_clean_linker_4, # of connection points: 2
#     Edge 28, Type (0, 0), BuildingBlock: EYOCIG_clean_linker_4, # of connection points: 2
#     Edge 29, Type (0, 0), BuildingBlock: EYOCIG_clean_linker_4, # of connection points: 2
#     Edge 30, Type (0, 0), BuildingBlock: EYOCIG_clean_linker_4, # of connection points: 2
#     Edge 31, Type (0, 0), BuildingBlock: EYOCIG_clean_linker_4, # of connection points: 2
#     Edge 32, Type (0, 0), BuildingBlock: EYOCIG_clean_linker_4, # of connection points: 2
#     Edge 33, Type (0, 0), BuildingBlock: EYOCIG_clean_linker_4, # of connection points: 2
#     Edge 34, Type (0, 0), BuildingBlock: EYOCIG_clean_linker_4, # of connection points: 2
#     Edge 35, Type (0, 0), BuildingBlock: EYOCIG_clean_linker_4, # of connection points: 2
# Relax obj value: 0.492
# Max RMSD: 0.252
# Mean RMSD: 0.231
data_MOF--net-acs-a--node1-QUQFOY_clean_sbu_3--edge1-EYOCIG_clean_linker_4
_symmetry_space_group_name_H-M    P1
_symmetry_Int_Tables_number       1
_symmetry_cell_setting            triclinic
loop_
_symmetry_equiv_pos_as_xyz
'x, y, z'
_cell_length_a     43.260947
_cell_length_b     43.260766
_cell_length_c     32.142666
_cell_angle_alpha  89.842304
_cell_angle_beta   90.084319
_cell_angle_gamma 114.81174
loop_
_atom_site_label
_atom_site_type_symbol
_atom_site_fract_x
_atom_site_fract_y
_atom_site_fract_z
_atom_type_partial_charge
C0 C 0.61993 0.15109 0.0217 0.0
O1 O 0.61857 0.16736 0.05386 0.0
Cd2 Cd 0.57357 0.15287 0.10232 0.0
O3 O 0.59511 0.1233 0.01122 0.0
Cd4 Cd 0.53755 0.09054 0.04391 0.0
C5 C 0.51371 0.15492 0.03464 0.0
O6 O 0.55816 0.09402 0.11498 0.0
O7 O 0.50373 0.07523 0.10896 0.0
O8 O 0.53504 0.03538 0.02182 0.0
C9 C 0.5292 0.07993 0.13168 0.0
O10 O 0.53156 0.16736 0.06691 0.0
C11 C 0.50482 0.02516 0.00821 0.0
O12 O 0.51289 0.12819 0.01758 0.0
O13 O 0.49105 0.04583 0.00888 0.0
C14 C 0.36947 0.62086 0.53664 0.0
O15 O 0.35293 0.61793 0.57004 0.0
Cd16 Cd 0.3273 0.56863 0.61167 0.0
O17 O 0.3748 0.5962 0.52191 0.0
Cd18 Cd 0.35981 0.53654 0.54606 0.0
C19 C 0.27672 0.517 0.53441 0.0
O20 O 0.3715 0.55029 0.61867 0.0
O21 O 0.3449 0.49659 0.60552 0.0
O22 O 0.41623 0.54334 0.52564 0.0
C23 C 0.36086 0.51995 0.63128 0.0
O24 O 0.27959 0.53294 0.56839 0.0
C25 C 0.40567 0.51438 0.50847 0.0
O26 O 0.30223 0.51503 0.51717 0.0
O27 O 0.37378 0.49679 0.50605 0.0
C28 C 0.71719 0.37576 0.03209 0.0
O29 O 0.70292 0.3566 0.06275 0.0
Cd30 Cd 0.72607 0.32454 0.1015 0.0
O31 O 0.74661 0.38002 0.01956 0.0
Cd32 Cd 0.79037 0.3602 0.04287 0.0
C33 C 0.73889 0.27853 0.02109 0.0
O34 O 0.782 0.36563 0.11644 0.0
O35 O 0.81549 0.34162 0.10169 0.0
O36 O 0.82922 0.41871 0.02989 0.0
C37 C 0.80285 0.35414 0.12878 0.0
O38 O 0.72317 0.27981 0.05396 0.0
C39 C 0.85089 0.41165 0.01058 0.0
O40 O 0.76414 0.30458 0.00755 0.0
O41 O 0.84411 0.38047 0.00457 0.0
C42 C 0.24202 0.75303 0.52075 0.0
O43 O 0.24305 0.73642 0.55286 0.0
Cd44 Cd 0.28766 0.75033 0.6019 0.0
O45 O 0.267 0.78083 0.51063 0.0
Cd46 Cd 0.32433 0.81295 0.54409 0.0
C47 C 0.34798 0.74843 0.53519 0.0
O48 O 0.30319 0.80913 0.61493 0.0
O49 O 0.35764 0.82771 0.60953 0.0
O50 O 0.32737 0.8684 0.52203 0.0
C51 C 0.33205 0.82303 0.63193 0.0
O52 O 0.32986 0.73583 0.56725 0.0
C53 C 0.35767 0.87853 0.50877 0.0
O54 O 0.34899 0.7753 0.5181 0.0
O55 O 0.37125 0.85771 0.5096 0.0
C56 C 0.49293 0.28274 0.03555 0.0
O57 O 0.50967 0.28559 0.06881 0.0
Cd58 Cd 0.5352 0.33475 0.11047 0.0
O59 O 0.48737 0.30738 0.02102 0.0
Cd60 Cd 0.50217 0.3668 0.04545 0.0
C61 C 0.58533 0.38713 0.03333 0.0
O62 O 0.49071 0.35262 0.1181 0.0
O63 O 0.51694 0.40641 0.10498 0.0
O64 O 0.44554 0.3596 0.02536 0.0
C65 C 0.50112 0.38289 0.13072 0.0
O66 O 0.58268 0.37101 0.06721 0.0
C67 C 0.4558 0.38865 0.00833 0.0
O68 O 0.55965 0.38896 0.01624 0.0
O69 O 0.48764 0.4065 0.0058 0.0
C70 C 0.14508 0.52946 0.53262 0.0
O71 O 0.15943 0.54878 0.56305 0.0
Cd72 Cd 0.13633 0.58092 0.60136 0.0
O73 O 0.11559 0.52508 0.52013 0.0
Cd74 Cd 0.0718 0.54487 0.54313 0.0
C75 C 0.12308 0.62645 0.5203 0.0
O76 O 0.0805 0.53978 0.61675 0.0
O77 O 0.04686 0.56363 0.60176 0.0
O78 O 0.03297 0.48627 0.53077 0.0
C79 C 0.05967 0.55127 0.62898 0.0
O80 O 0.13893 0.62535 0.55319 0.0
C81 C 0.01121 0.49323 0.51139 0.0
O82 O 0.09779 0.60032 0.50709 0.0
O83 O 0.0179 0.52438 0.50507 0.0
C84 C 0.73213 0.2634 0.44456 0.0
O85 O 0.71581 0.26468 0.41231 0.0
Cd86 Cd 0.73021 0.30956 0.3635 0.0
O87 O 0.7599 0.28826 0.45499 0.0
Cd88 Cd 0.7925 0.34578 0.42198 0.0
C89 C 0.72801 0.36953 0.4305 0.0
O90 O 0.78908 0.32498 0.3511 0.0
O91 O 0.80783 0.37942 0.3567 0.0
O92 O 0.84774 0.34856 0.44453 0.0
C93 C 0.80317 0.3539 0.33422 0.0
O94 O 0.7156 0.35161 0.39829 0.0
C95 C 0.85783 0.37882 0.45789 0.0
O96 O 0.75474 0.37039 0.44775 0.0
O97 O 0.83707 0.39247 0.45688 0.0
C98 C 0.35483 0.73753 0.93407 0.0
O99 O 0.33543 0.72321 0.90366 0.0
Cd100 Cd 0.30321 0.74631 0.8652 0.0
O101 O 0.35925 0.76701 0.9465 0.0
Cd102 Cd 0.33935 0.81078 0.92332 0.0
C103 C 0.2578 0.75944 0.94612 0.0
O104 O 0.3443 0.80216 0.84973 0.0
O105 O 0.32037 0.83569 0.86461 0.0
O106 O 0.39792 0.84976 0.93565 0.0
C107 C 0.33273 0.82296 0.83744 0.0
O108 O 0.25883 0.74364 0.91325 0.0
C109 C 0.39091 0.87145 0.95497 0.0
O110 O 0.28395 0.7847 0.95934 0.0
O111 O 0.35975 0.86462 0.96128 0.0
C112 C 0.60016 0.3905 0.42926 0.0
O113 O 0.59722 0.37376 0.39605 0.0
Cd114 Cd 0.54799 0.34812 0.35443 0.0
O115 O 0.57553 0.396 0.44381 0.0
Cd116 Cd 0.51593 0.38097 0.4195 0.0
C117 C 0.49602 0.29784 0.43177 0.0
O118 O 0.52991 0.39248 0.34686 0.0
O119 O 0.47617 0.36603 0.35994 0.0
O120 O 0.52263 0.43744 0.43952 0.0
C121 C 0.49962 0.38192 0.33418 0.0
O122 O 0.51201 0.30056 0.39785 0.0
C123 C 0.49362 0.42689 0.4566 0.0
O124 O 0.49415 0.32347 0.4488 0.0
O125 O 0.47604 0.395 0.45917 0.0
C126 C 0.1306 0.64092 0.94563 0.0
O127 O 0.14706 0.63978 0.91353 0.0
Cd128 Cd 0.13268 0.5952 0.86456 0.0
O129 O 0.10269 0.61609 0.95576 0.0
Cd130 Cd 0.07009 0.55889 0.92231 0.0
C131 C 0.13416 0.53462 0.93148 0.0
O132 O 0.07396 0.58018 0.85144 0.0
O133 O 0.05507 0.52569 0.85689 0.0
O134 O 0.01481 0.55623 0.94426 0.0
C135 C 0.05986 0.55136 0.83446 0.0
O136 O 0.14682 0.55271 0.89939 0.0
C137 C 0.00449 0.52587 0.95749 0.0
O138 O 0.1074 0.5338 0.9485 0.0
O139 O 0.02515 0.5121 0.9567 0.0
C140 C 0.50764 0.16604 0.43367 0.0
O141 O 0.5268 0.18036 0.40305 0.0
Cd142 Cd 0.55883 0.15728 0.36445 0.0
O143 O 0.50338 0.13659 0.44623 0.0
Cd144 Cd 0.52323 0.0929 0.42305 0.0
C145 C 0.60489 0.14439 0.44505 0.0
O146 O 0.51768 0.10139 0.34945 0.0
O147 O 0.54175 0.06791 0.36429 0.0
O148 O 0.46478 0.05393 0.43607 0.0
C149 C 0.52915 0.08056 0.33716 0.0
O150 O 0.6036 0.16015 0.41214 0.0
C151 C 0.47195 0.03226 0.45537 0.0
O152 O 0.57885 0.11909 0.45853 0.0
O153 O 0.50316 0.03909 0.46136 0.0
C154 C 0.26146 0.51305 0.9301 0.0
O155 O 0.26436 0.52988 0.89687 0.0
Cd156 Cd 0.31352 0.55543 0.8551 0.0
O157 O 0.28607 0.50743 0.94457 0.0
Cd158 Cd 0.34552 0.52233 0.92001 0.0
C159 C 0.36589 0.60551 0.93207 0.0
O160 O 0.33133 0.5109 0.8474 0.0
O161 O 0.38512 0.53711 0.86039 0.0
O162 O 0.33849 0.46574 0.94022 0.0
C163 C 0.36159 0.52129 0.83471 0.0
O164 O 0.34981 0.60292 0.8982 0.0
C165 C 0.36755 0.4761 0.95718 0.0
O166 O 0.36766 0.57979 0.94915 0.0
O167 O 0.38531 0.50796 0.9596 0.0
C168 C 0.52786 0.07051 0.25652 0.0
C169 C 0.52947 0.07358 0.29374 0.0
C170 C 0.5261 0.07096 0.21281 0.0
C171 C 0.52614 0.07455 0.17569 0.0
C172 C 0.36662 0.5121 0.71133 0.0
C173 C 0.36285 0.51317 0.67442 0.0
C174 C 0.36926 0.51491 0.75482 0.0
C175 C 0.36819 0.51891 0.79165 0.0
C176 C 0.81286 0.35519 0.20945 0.0
C177 C 0.80983 0.35367 0.17222 0.0
C178 C 0.81232 0.35689 0.25315 0.0
C179 C 0.80863 0.35686 0.29024 0.0
C180 C 0.33333 0.83267 0.75672 0.0
C181 C 0.33201 0.82979 0.79398 0.0
C182 C 0.33489 0.83205 0.71301 0.0
C183 C 0.33486 0.82839 0.67593 0.0
C184 C 0.49195 0.38781 0.25412 0.0
C185 C 0.49296 0.38399 0.29104 0.0
C186 C 0.4948 0.39051 0.21063 0.0
C187 C 0.49877 0.38948 0.17379 0.0
C188 C 0.05001 0.55042 0.70968 0.0
C189 C 0.05285 0.55185 0.67242 0.0
C190 C 0.05069 0.54873 0.75338 0.0
C191 C 0.05441 0.54865 0.79047 0.0
C192 C 0.46578 -0.03764 -0.01368 0.0
C193 C 0.48522 -0.00948 -0.00336 0.0
C194 C 0.44011 0.93017 0.97615 0.0
C195 C 0.41736 0.90345 0.96666 0.0
C196 C 0.44703 0.48682 0.48721 0.0
C197 C 0.42882 0.50015 0.49721 0.0
C198 C 0.46586 0.46815 0.47752 0.0
C199 C 0.47933 0.45002 0.46766 0.0
C200 C -0.05839 0.48662 0.97895 0.0
C201 C -0.0302 0.5062 0.96884 0.0
C202 C 0.9095 0.46091 -0.01094 0.0
C203 C 0.88285 0.43809 -0.00133 0.0
C204 C 0.42285 -0.02646 0.47695 0.0
C205 C 0.4456 0.00024 0.46731 0.0
C206 C 0.39708 0.94137 0.48713 0.0
C207 C 0.37749 0.91319 0.49732 0.0
C208 C 0.39513 0.43459 0.97799 0.0
C209 C 0.38171 0.4528 0.96818 0.0
C210 C 0.41403 0.41592 -0.01248 0.0
C211 C 0.43239 0.40267 -0.00268 0.0
C212 C 0.92055 0.41814 0.4799 0.0
C213 C 0.89244 0.39856 0.46954 0.0
C214 C -0.04739 0.44386 0.49011 0.0
C215 C -0.02074 0.46671 0.49962 0.0
C216 C 0.48463 0.19319 0.00708 0.0
C217 C 0.49614 0.17311 0.01606 0.0
C218 C 0.47905 0.22295 0.0055 0.0
C219 C 0.48223 0.25123 0.01364 0.0
C220 C 0.21571 0.49953 0.50472 0.0
C221 C 0.24458 0.505 0.51347 0.0
C222 C 0.18461 0.50264 0.5043 0.0
C223 C 0.16307 0.51229 0.51289 0.0
C224 C 0.70681 0.21868 -0.01235 0.0
C225 C 0.72529 0.2473 -0.00203 0.0
C226 C 0.6778 0.18728 -0.01315 0.0
C227 C 0.65017 0.16614 -0.00307 0.0
C228 C 0.37734 0.71037 0.50813 0.0
C229 C 0.3657 0.73035 0.51694 0.0
C230 C 0.3831 0.68072 0.50661 0.0
C231 C 0.38003 0.65243 0.5147 0.0
C232 C 0.64636 0.4053 0.00357 0.0
C233 C 0.61743 0.39955 0.01231 0.0
C234 C 0.67756 0.40241 0.00329 0.0
C235 C 0.69915 0.39283 0.01205 0.0
C236 C 0.15511 0.68615 0.48624 0.0
C237 C 0.13658 0.65757 0.49678 0.0
C238 C 0.18424 0.71745 0.48542 0.0
C239 C 0.21189 0.73838 0.49569 0.0
C240 C 0.68976 0.39868 0.45761 0.0
C241 C 0.7098 0.38711 0.44878 0.0
C242 C 0.66005 0.40434 0.45918 0.0
C243 C 0.63174 0.4012 0.45112 0.0
C244 C 0.1981 0.7275 0.98011 0.0
C245 C 0.22669 0.74595 0.96957 0.0
C246 C 0.16668 0.69852 0.98094 0.0
C247 C 0.14554 0.67098 0.97068 0.0
C248 C 0.48101 0.20564 0.46222 0.0
C249 C 0.49058 0.18405 0.45359 0.0
C250 C 0.4781 0.23683 0.46175 0.0
C251 C 0.48377 0.26574 0.45288 0.0
C252 C 0.17204 0.50502 0.95876 0.0
C253 C 0.15211 0.51675 0.94989 0.0
C254 C 0.20169 0.49925 0.96026 0.0
C255 C 0.22995 0.50236 0.95208 0.0
C256 C 0.6647 0.17648 0.47873 0.0
C257 C 0.6361 0.15798 0.4683 0.0
C258 C 0.69607 0.20553 0.47959 0.0
C259 C 0.71716 0.23317 0.46946 0.0
C260 C 0.38422 0.66651 0.96193 0.0
C261 C 0.37836 0.63758 0.95309 0.0
C262 C 0.38148 0.69778 0.96245 0.0
C263 C 0.37196 0.71946 0.95389 0.0
loop_
_geom_bond_atom_site_label_1
_geom_bond_atom_site_label_2
_geom_bond_distance
_geom_bond_site_symmetry_2
_ccdc_geom_bond_type
C0 O1 1.306 . S
C0 O3 1.160 . S
O1 C0 1.306 . S
O1 Cd2 2.228 . S
Cd2 O1 2.228 . S
Cd2 O6 2.273 . S
Cd2 O10 2.277 . S
O3 C0 1.160 . S
O3 Cd4 2.203 . S
Cd4 O3 2.203 . S
Cd4 O6 2.411 . S
Cd4 O7 2.333 . S
Cd4 O8 2.352 . S
Cd4 O12 2.277 . S
Cd4 O13 2.356 . S
C5 O10 1.209 . S
C5 O12 1.226 . S
O6 Cd2 2.273 . S
O6 Cd4 2.411 . S
O6 C9 1.320 . S
O7 Cd4 2.333 . S
O7 C9 1.214 . S
O8 Cd4 2.352 . S
O8 C11 1.258 . S
C9 O6 1.320 . S
C9 O7 1.214 . S
O10 Cd2 2.277 . S
O10 C5 1.209 . S
C11 O8 1.258 . S
C11 O13 1.282 . S
O12 Cd4 2.277 . S
O12 C5 1.226 . S
O13 Cd4 2.356 . S
O13 C11 1.282 . S
C14 O15 1.306 . S
C14 O17 1.160 . S
O15 C14 1.306 . S
O15 Cd16 2.228 . S
Cd16 O15 2.228 . S
Cd16 O20 2.273 . S
Cd16 O24 2.277 . S
O17 C14 1.160 . S
O17 Cd18 2.203 . S
Cd18 O17 2.203 . S
Cd18 O20 2.411 . S
Cd18 O21 2.333 . S
Cd18 O22 2.352 . S
Cd18 O26 2.277 . S
Cd18 O27 2.356 . S
C19 O24 1.209 . S
C19 O26 1.226 . S
O20 Cd16 2.273 . S
O20 Cd18 2.411 . S
O20 C23 1.320 . S
O21 Cd18 2.333 . S
O21 C23 1.214 . S
O22 Cd18 2.352 . S
O22 C25 1.258 . S
C23 O20 1.320 . S
C23 O21 1.214 . S
O24 Cd16 2.277 . S
O24 C19 1.209 . S
C25 O22 1.258 . S
C25 O27 1.282 . S
O26 Cd18 2.277 . S
O26 C19 1.226 . S
O27 Cd18 2.356 . S
O27 C25 1.282 . S
C28 O29 1.306 . S
C28 O31 1.160 . S
O29 C28 1.306 . S
O29 Cd30 2.228 . S
Cd30 O29 2.228 . S
Cd30 O34 2.273 . S
Cd30 O38 2.277 . S
O31 C28 1.160 . S
O31 Cd32 2.203 . S
Cd32 O31 2.203 . S
Cd32 O34 2.411 . S
Cd32 O35 2.333 . S
Cd32 O36 2.352 . S
Cd32 O40 2.277 . S
Cd32 O41 2.356 . S
C33 O38 1.209 . S
C33 O40 1.226 . S
O34 Cd30 2.273 . S
O34 Cd32 2.411 . S
O34 C37 1.320 . S
O35 Cd32 2.333 . S
O35 C37 1.214 . S
O36 Cd32 2.352 . S
O36 C39 1.258 . S
C37 O34 1.320 . S
C37 O35 1.214 . S
O38 Cd30 2.277 . S
O38 C33 1.209 . S
C39 O36 1.258 . S
C39 O41 1.282 . S
O40 Cd32 2.277 . S
O40 C33 1.226 . S
O41 Cd32 2.356 . S
O41 C39 1.282 . S
C42 O43 1.306 . S
C42 O45 1.160 . S
O43 C42 1.306 . S
O43 Cd44 2.228 . S
Cd44 O43 2.228 . S
Cd44 O48 2.273 . S
Cd44 O52 2.277 . S
O45 C42 1.160 . S
O45 Cd46 2.203 . S
Cd46 O45 2.203 . S
Cd46 O48 2.411 . S
Cd46 O49 2.333 . S
Cd46 O50 2.352 . S
Cd46 O54 2.277 . S
Cd46 O55 2.356 . S
C47 O52 1.209 . S
C47 O54 1.226 . S
O48 Cd44 2.273 . S
O48 Cd46 2.411 . S
O48 C51 1.320 . S
O49 Cd46 2.333 . S
O49 C51 1.214 . S
O50 Cd46 2.352 . S
O50 C53 1.258 . S
C51 O48 1.320 . S
C51 O49 1.214 . S
O52 Cd44 2.277 . S
O52 C47 1.209 . S
C53 O50 1.258 . S
C53 O55 1.282 . S
O54 Cd46 2.277 . S
O54 C47 1.226 . S
O55 Cd46 2.356 . S
O55 C53 1.282 . S
C56 O57 1.306 . S
C56 O59 1.160 . S
O57 C56 1.306 . S
O57 Cd58 2.228 . S
Cd58 O57 2.228 . S
Cd58 O62 2.273 . S
Cd58 O66 2.277 . S
O59 C56 1.160 . S
O59 Cd60 2.203 . S
Cd60 O59 2.203 . S
Cd60 O62 2.411 . S
Cd60 O63 2.333 . S
Cd60 O64 2.352 . S
Cd60 O68 2.277 . S
Cd60 O69 2.356 . S
C61 O66 1.209 . S
C61 O68 1.226 . S
O62 Cd58 2.273 . S
O62 Cd60 2.411 . S
O62 C65 1.320 . S
O63 Cd60 2.333 . S
O63 C65 1.214 . S
O64 Cd60 2.352 . S
O64 C67 1.258 . S
C65 O62 1.320 . S
C65 O63 1.214 . S
O66 Cd58 2.277 . S
O66 C61 1.209 . S
C67 O64 1.258 . S
C67 O69 1.282 . S
O68 Cd60 2.277 . S
O68 C61 1.226 . S
O69 Cd60 2.356 . S
O69 C67 1.282 . S
C70 O71 1.306 . S
C70 O73 1.160 . S
O71 C70 1.306 . S
O71 Cd72 2.228 . S
Cd72 O71 2.228 . S
Cd72 O76 2.273 . S
Cd72 O80 2.277 . S
O73 C70 1.160 . S
O73 Cd74 2.203 . S
Cd74 O73 2.203 . S
Cd74 O76 2.411 . S
Cd74 O77 2.333 . S
Cd74 O78 2.352 . S
Cd74 O82 2.277 . S
Cd74 O83 2.356 . S
C75 O80 1.209 . S
C75 O82 1.226 . S
O76 Cd72 2.273 . S
O76 Cd74 2.411 . S
O76 C79 1.320 . S
O77 Cd74 2.333 . S
O77 C79 1.214 . S
O78 Cd74 2.352 . S
O78 C81 1.258 . S
C79 O76 1.320 . S
C79 O77 1.214 . S
O80 Cd72 2.277 . S
O80 C75 1.209 . S
C81 O78 1.258 . S
C81 O83 1.282 . S
O82 Cd74 2.277 . S
O82 C75 1.226 . S
O83 Cd74 2.356 . S
O83 C81 1.282 . S
C84 O85 1.306 . S
C84 O87 1.160 . S
O85 C84 1.306 . S
O85 Cd86 2.228 . S
Cd86 O85 2.228 . S
Cd86 O90 2.273 . S
Cd86 O94 2.277 . S
O87 C84 1.160 . S
O87 Cd88 2.203 . S
Cd88 O87 2.203 . S
Cd88 O90 2.411 . S
Cd88 O91 2.333 . S
Cd88 O92 2.352 . S
Cd88 O96 2.277 . S
Cd88 O97 2.356 . S
C89 O94 1.209 . S
C89 O96 1.226 . S
O90 Cd86 2.273 . S
O90 Cd88 2.411 . S
O90 C93 1.320 . S
O91 Cd88 2.333 . S
O91 C93 1.214 . S
O92 Cd88 2.352 . S
O92 C95 1.258 . S
C93 O90 1.320 . S
C93 O91 1.214 . S
O94 Cd86 2.277 . S
O94 C89 1.209 . S
C95 O92 1.258 . S
C95 O97 1.282 . S
O96 Cd88 2.277 . S
O96 C89 1.226 . S
O97 Cd88 2.356 . S
O97 C95 1.282 . S
C98 O99 1.306 . S
C98 O101 1.160 . S
O99 C98 1.306 . S
O99 Cd100 2.228 . S
Cd100 O99 2.228 . S
Cd100 O104 2.273 . S
Cd100 O108 2.277 . S
O101 C98 1.160 . S
O101 Cd102 2.203 . S
Cd102 O101 2.203 . S
Cd102 O104 2.411 . S
Cd102 O105 2.333 . S
Cd102 O106 2.352 . S
Cd102 O110 2.277 . S
Cd102 O111 2.356 . S
C103 O108 1.209 . S
C103 O110 1.226 . S
O104 Cd100 2.273 . S
O104 Cd102 2.411 . S
O104 C107 1.320 . S
O105 Cd102 2.333 . S
O105 C107 1.214 . S
O106 Cd102 2.352 . S
O106 C109 1.258 . S
C107 O104 1.320 . S
C107 O105 1.214 . S
O108 Cd100 2.277 . S
O108 C103 1.209 . S
C109 O106 1.258 . S
C109 O111 1.282 . S
O110 Cd102 2.277 . S
O110 C103 1.226 . S
O111 Cd102 2.356 . S
O111 C109 1.282 . S
C112 O113 1.306 . S
C112 O115 1.160 . S
O113 C112 1.306 . S
O113 Cd114 2.228 . S
Cd114 O113 2.228 . S
Cd114 O118 2.273 . S
Cd114 O122 2.277 . S
O115 C112 1.160 . S
O115 Cd116 2.203 . S
Cd116 O115 2.203 . S
Cd116 O118 2.411 . S
Cd116 O119 2.333 . S
Cd116 O120 2.352 . S
Cd116 O124 2.277 . S
Cd116 O125 2.356 . S
C117 O122 1.209 . S
C117 O124 1.226 . S
O118 Cd114 2.273 . S
O118 Cd116 2.411 . S
O118 C121 1.320 . S
O119 Cd116 2.333 . S
O119 C121 1.214 . S
O120 Cd116 2.352 . S
O120 C123 1.258 . S
C121 O118 1.320 . S
C121 O119 1.214 . S
O122 Cd114 2.277 . S
O122 C117 1.209 . S
C123 O120 1.258 . S
C123 O125 1.282 . S
O124 Cd116 2.277 . S
O124 C117 1.226 . S
O125 Cd116 2.356 . S
O125 C123 1.282 . S
C126 O127 1.306 . S
C126 O129 1.160 . S
O127 C126 1.306 . S
O127 Cd128 2.228 . S
Cd128 O127 2.228 . S
Cd128 O132 2.273 . S
Cd128 O136 2.277 . S
O129 C126 1.160 . S
O129 Cd130 2.203 . S
Cd130 O129 2.203 . S
Cd130 O132 2.411 . S
Cd130 O133 2.333 . S
Cd130 O134 2.352 . S
Cd130 O138 2.277 . S
Cd130 O139 2.356 . S
C131 O136 1.209 . S
C131 O138 1.226 . S
O132 Cd128 2.273 . S
O132 Cd130 2.411 . S
O132 C135 1.320 . S
O133 Cd130 2.333 . S
O133 C135 1.214 . S
O134 Cd130 2.352 . S
O134 C137 1.258 . S
C135 O132 1.320 . S
C135 O133 1.214 . S
O136 Cd128 2.277 . S
O136 C131 1.209 . S
C137 O134 1.258 . S
C137 O139 1.282 . S
O138 Cd130 2.277 . S
O138 C131 1.226 . S
O139 Cd130 2.356 . S
O139 C137 1.282 . S
C140 O141 1.306 . S
C140 O143 1.160 . S
O141 C140 1.306 . S
O141 Cd142 2.228 . S
Cd142 O141 2.228 . S
Cd142 O146 2.273 . S
Cd142 O150 2.277 . S
O143 C140 1.160 . S
O143 Cd144 2.203 . S
Cd144 O143 2.203 . S
Cd144 O146 2.411 . S
Cd144 O147 2.333 . S
Cd144 O148 2.352 . S
Cd144 O152 2.277 . S
Cd144 O153 2.356 . S
C145 O150 1.209 . S
C145 O152 1.226 . S
O146 Cd142 2.273 . S
O146 Cd144 2.411 . S
O146 C149 1.320 . S
O147 Cd144 2.333 . S
O147 C149 1.214 . S
O148 Cd144 2.352 . S
O148 C151 1.258 . S
C149 O146 1.320 . S
C149 O147 1.214 . S
O150 Cd142 2.277 . S
O150 C145 1.209 . S
C151 O148 1.258 . S
C151 O153 1.282 . S
O152 Cd144 2.277 . S
O152 C145 1.226 . S
O153 Cd144 2.356 . S
O153 C151 1.282 . S
C154 O155 1.306 . S
C154 O157 1.160 . S
O155 C154 1.306 . S
O155 Cd156 2.228 . S
Cd156 O155 2.228 . S
Cd156 O160 2.273 . S
Cd156 O164 2.277 . S
O157 C154 1.160 . S
O157 Cd158 2.203 . S
Cd158 O157 2.203 . S
Cd158 O160 2.411 . S
Cd158 O161 2.333 . S
Cd158 O162 2.352 . S
Cd158 O166 2.277 . S
Cd158 O167 2.356 . S
C159 O164 1.209 . S
C159 O166 1.226 . S
O160 Cd156 2.273 . S
O160 Cd158 2.411 . S
O160 C163 1.320 . S
O161 Cd158 2.333 . S
O161 C163 1.214 . S
O162 Cd158 2.352 . S
O162 C165 1.258 . S
C163 O160 1.320 . S
C163 O161 1.214 . S
O164 Cd156 2.277 . S
O164 C159 1.209 . S
C165 O162 1.258 . S
C165 O167 1.282 . S
O166 Cd158 2.277 . S
O166 C159 1.226 . S
O167 Cd158 2.356 . S
O167 C165 1.282 . S
C168 C169 1.170 . S
C168 C170 1.380 . S
C169 C168 1.170 . S
C170 C168 1.380 . S
C170 C171 1.170 . S
C171 C170 1.170 . S
C172 C173 1.170 . S
C172 C174 1.380 . S
C173 C172 1.170 . S
C174 C172 1.380 . S
C174 C175 1.170 . S
C175 C174 1.170 . S
C176 C177 1.170 . S
C176 C178 1.380 . S
C177 C176 1.170 . S
C178 C176 1.380 . S
C178 C179 1.170 . S
C179 C178 1.170 . S
C180 C181 1.170 . S
C180 C182 1.380 . S
C181 C180 1.170 . S
C182 C180 1.380 . S
C182 C183 1.170 . S
C183 C182 1.170 . S
C184 C185 1.170 . S
C184 C186 1.380 . S
C185 C184 1.170 . S
C186 C184 1.380 . S
C186 C187 1.170 . S
C187 C186 1.170 . S
C188 C189 1.170 . S
C188 C190 1.380 . S
C189 C188 1.170 . S
C190 C188 1.380 . S
C190 C191 1.170 . S
C191 C190 1.170 . S
C192 C193 1.170 1_556 S
C192 C194 1.380 1_545 S
C193 C192 1.170 1_554 S
C194 C192 1.380 1_565 S
C194 C195 1.170 . S
C195 C194 1.170 . S
C196 C197 1.170 . S
C196 C198 1.380 . S
C197 C196 1.170 . S
C198 C196 1.380 . S
C198 C199 1.170 . S
C199 C198 1.170 . S
C200 C201 1.170 . S
C200 C202 1.380 1_455 S
C201 C200 1.170 . S
C202 C200 1.380 1_655 S
C202 C203 1.170 1_556 S
C203 C202 1.170 1_554 S
C204 C205 1.170 . S
C204 C206 1.380 1_545 S
C205 C204 1.170 . S
C206 C204 1.380 1_565 S
C206 C207 1.170 . S
C207 C206 1.170 . S
C208 C209 1.170 . S
C208 C210 1.380 1_556 S
C209 C208 1.170 . S
C210 C208 1.380 1_554 S
C210 C211 1.170 . S
C211 C210 1.170 . S
C212 C213 1.170 . S
C212 C214 1.380 1_655 S
C213 C212 1.170 . S
C214 C212 1.380 1_455 S
C214 C215 1.170 . S
C215 C214 1.170 . S
C216 C217 1.170 . S
C216 C218 1.380 . S
C217 C216 1.170 . S
C218 C216 1.380 . S
C218 C219 1.170 . S
C219 C218 1.170 . S
C220 C221 1.170 . S
C220 C222 1.380 . S
C221 C220 1.170 . S
C222 C220 1.380 . S
C222 C223 1.170 . S
C223 C222 1.170 . S
C224 C225 1.170 . S
C224 C226 1.380 . S
C225 C224 1.170 . S
C226 C224 1.380 . S
C226 C227 1.170 . S
C227 C226 1.170 . S
C228 C229 1.170 . S
C228 C230 1.380 . S
C229 C228 1.170 . S
C230 C228 1.380 . S
C230 C231 1.170 . S
C231 C230 1.170 . S
C232 C233 1.170 . S
C232 C234 1.380 . S
C233 C232 1.170 . S
C234 C232 1.380 . S
C234 C235 1.170 . S
C235 C234 1.170 . S
C236 C237 1.170 . S
C236 C238 1.380 . S
C237 C236 1.170 . S
C238 C236 1.380 . S
C238 C239 1.170 . S
C239 C238 1.170 . S
C240 C241 1.170 . S
C240 C242 1.380 . S
C241 C240 1.170 . S
C242 C240 1.380 . S
C242 C243 1.170 . S
C243 C242 1.170 . S
C244 C245 1.170 . S
C244 C246 1.380 . S
C245 C244 1.170 . S
C246 C244 1.380 . S
C246 C247 1.170 . S
C247 C246 1.170 . S
C248 C249 1.170 . S
C248 C250 1.380 . S
C249 C248 1.170 . S
C250 C248 1.380 . S
C250 C251 1.170 . S
C251 C250 1.170 . S
C252 C253 1.170 . S
C252 C254 1.380 . S
C253 C252 1.170 . S
C254 C252 1.380 . S
C254 C255 1.170 . S
C255 C254 1.170 . S
C256 C257 1.170 . S
C256 C258 1.380 . S
C257 C256 1.170 . S
C258 C256 1.380 . S
C258 C259 1.170 . S
C259 C258 1.170 . S
C260 C261 1.170 . S
C260 C262 1.380 . S
C261 C260 1.170 . S
C262 C260 1.380 . S
C262 C263 1.170 . S
C263 C262 1.170 . S
C169 C149 1.620 . S
C171 C9 1.643 . S
C173 C23 1.573 . S
C175 C163 1.557 . S
C177 C37 1.635 . S
C179 C93 1.637 . S
C181 C107 1.622 . S
C183 C51 1.638 . S
C185 C121 1.564 . S
C187 C65 1.563 . S
C189 C79 1.638 . S
C191 C135 1.631 . S
C193 C11 1.121 . S
C195 C109 1.136 . S
C197 C25 0.994 . S
C199 C123 0.970 . S
C201 C137 1.082 . S
C203 C39 1.159 . S
C205 C151 1.161 . S
C207 C53 1.073 . S
C209 C165 0.987 . S
C211 C67 1.004 . S
C213 C95 1.082 . S
C215 C81 1.155 . S
C217 C5 1.240 . S
C219 C56 1.115 . S
C221 C19 1.109 . S
C223 C70 1.010 . S
C225 C33 1.197 . S
C227 C0 1.049 . S
C229 C47 1.249 . S
C231 C14 1.057 . S
C233 C61 1.137 . S
C235 C28 1.089 . S
C237 C75 1.208 . S
C239 C42 1.098 . S
C241 C89 1.246 . S
C243 C112 1.053 . S
C245 C103 1.182 . S
C247 C126 1.046 . S
C249 C140 1.008 . S
C251 C117 1.113 . S
C253 C131 1.251 . S
C255 C154 1.139 . S
C257 C145 1.178 . S
C259 C84 1.018 . S
C261 C159 1.125 . S
C263 C98 1.022 . S
