# Generated by pormake.
# Topology ecs, (8)-cn, num edge types: 1
# Building blocks:
#     Node 0, Type 0, BuildingBlock: TAGTUT_clean_sbu_1, # of connection points: 8
#     Node 1, Type 0, BuildingBlock: TAGTUT_clean_sbu_1, # of connection points: 8
#     Node 2, Type 0, BuildingBlock: TAGTUT_clean_sbu_1, # of connection points: 8
#     Node 3, Type 0, BuildingBlock: TAGTUT_clean_sbu_1, # of connection points: 8
#     Node 4, Type 0, BuildingBlock: TAGTUT_clean_sbu_1, # of connection points: 8
#     Node 5, Type 0, BuildingBlock: TAGTUT_clean_sbu_1, # of connection points: 8
#     Node 6, Type 0, BuildingBlock: TAGTUT_clean_sbu_1, # of connection points: 8
#     Node 7, Type 0, BuildingBlock: TAGTUT_clean_sbu_1, # of connection points: 8
#     Node 8, Type 0, BuildingBlock: TAGTUT_clean_sbu_1, # of connection points: 8
#     Node 9, Type 0, BuildingBlock: TAGTUT_clean_sbu_1, # of connection points: 8
#     Node 10, Type 0, BuildingBlock: TAGTUT_clean_sbu_1, # of connection points: 8
#     Node 11, Type 0, BuildingBlock: TAGTUT_clean_sbu_1, # of connection points: 8
#     Edge 12, Type (0, 0), BuildingBlock: XIVTED_clean_linker_0, # of connection points: 2
#     Edge 13, Type (0, 0), BuildingBlock: XIVTED_clean_linker_0, # of connection points: 2
#     Edge 14, Type (0, 0), BuildingBlock: XIVTED_clean_linker_0, # of connection points: 2
#     Edge 15, Type (0, 0), BuildingBlock: XIVTED_clean_linker_0, # of connection points: 2
#     Edge 16, Type (0, 0), BuildingBlock: XIVTED_clean_linker_0, # of connection points: 2
#     Edge 17, Type (0, 0), BuildingBlock: XIVTED_clean_linker_0, # of connection points: 2
#     Edge 18, Type (0, 0), BuildingBlock: XIVTED_clean_linker_0, # of connection points: 2
#     Edge 19, Type (0, 0), BuildingBlock: XIVTED_clean_linker_0, # of connection points: 2
#     Edge 20, Type (0, 0), BuildingBlock: XIVTED_clean_linker_0, # of connection points: 2
#     Edge 21, Type (0, 0), BuildingBlock: XIVTED_clean_linker_0, # of connection points: 2
#     Edge 22, Type (0, 0), BuildingBlock: XIVTED_clean_linker_0, # of connection points: 2
#     Edge 23, Type (0, 0), BuildingBlock: XIVTED_clean_linker_0, # of connection points: 2
#     Edge 24, Type (0, 0), BuildingBlock: XIVTED_clean_linker_0, # of connection points: 2
#     Edge 25, Type (0, 0), BuildingBlock: XIVTED_clean_linker_0, # of connection points: 2
#     Edge 26, Type (0, 0), BuildingBlock: XIVTED_clean_linker_0, # of connection points: 2
#     Edge 27, Type (0, 0), BuildingBlock: XIVTED_clean_linker_0, # of connection points: 2
#     Edge 28, Type (0, 0), BuildingBlock: XIVTED_clean_linker_0, # of connection points: 2
#     Edge 29, Type (0, 0), BuildingBlock: XIVTED_clean_linker_0, # of connection points: 2
#     Edge 30, Type (0, 0), BuildingBlock: XIVTED_clean_linker_0, # of connection points: 2
#     Edge 31, Type (0, 0), BuildingBlock: XIVTED_clean_linker_0, # of connection points: 2
#     Edge 32, Type (0, 0), BuildingBlock: XIVTED_clean_linker_0, # of connection points: 2
#     Edge 33, Type (0, 0), BuildingBlock: XIVTED_clean_linker_0, # of connection points: 2
#     Edge 34, Type (0, 0), BuildingBlock: XIVTED_clean_linker_0, # of connection points: 2
#     Edge 35, Type (0, 0), BuildingBlock: XIVTED_clean_linker_0, # of connection points: 2
#     Edge 36, Type (0, 0), BuildingBlock: XIVTED_clean_linker_0, # of connection points: 2
#     Edge 37, Type (0, 0), BuildingBlock: XIVTED_clean_linker_0, # of connection points: 2
#     Edge 38, Type (0, 0), BuildingBlock: XIVTED_clean_linker_0, # of connection points: 2
#     Edge 39, Type (0, 0), BuildingBlock: XIVTED_clean_linker_0, # of connection points: 2
#     Edge 40, Type (0, 0), BuildingBlock: XIVTED_clean_linker_0, # of connection points: 2
#     Edge 41, Type (0, 0), BuildingBlock: XIVTED_clean_linker_0, # of connection points: 2
#     Edge 42, Type (0, 0), BuildingBlock: XIVTED_clean_linker_0, # of connection points: 2
#     Edge 43, Type (0, 0), BuildingBlock: XIVTED_clean_linker_0, # of connection points: 2
#     Edge 44, Type (0, 0), BuildingBlock: XIVTED_clean_linker_0, # of connection points: 2
#     Edge 45, Type (0, 0), BuildingBlock: XIVTED_clean_linker_0, # of connection points: 2
#     Edge 46, Type (0, 0), BuildingBlock: XIVTED_clean_linker_0, # of connection points: 2
#     Edge 47, Type (0, 0), BuildingBlock: XIVTED_clean_linker_0, # of connection points: 2
#     Edge 48, Type (0, 0), BuildingBlock: XIVTED_clean_linker_0, # of connection points: 2
#     Edge 49, Type (0, 0), BuildingBlock: XIVTED_clean_linker_0, # of connection points: 2
#     Edge 50, Type (0, 0), BuildingBlock: XIVTED_clean_linker_0, # of connection points: 2
#     Edge 51, Type (0, 0), BuildingBlock: XIVTED_clean_linker_0, # of connection points: 2
#     Edge 52, Type (0, 0), BuildingBlock: XIVTED_clean_linker_0, # of connection points: 2
#     Edge 53, Type (0, 0), BuildingBlock: XIVTED_clean_linker_0, # of connection points: 2
#     Edge 54, Type (0, 0), BuildingBlock: XIVTED_clean_linker_0, # of connection points: 2
#     Edge 55, Type (0, 0), BuildingBlock: XIVTED_clean_linker_0, # of connection points: 2
#     Edge 56, Type (0, 0), BuildingBlock: XIVTED_clean_linker_0, # of connection points: 2
#     Edge 57, Type (0, 0), BuildingBlock: XIVTED_clean_linker_0, # of connection points: 2
#     Edge 58, Type (0, 0), BuildingBlock: XIVTED_clean_linker_0, # of connection points: 2
#     Edge 59, Type (0, 0), BuildingBlock: XIVTED_clean_linker_0, # of connection points: 2
# Relax obj value: 0.344
# Max RMSD: 0.278
# Mean RMSD: 0.278
data_MOF--net-ecs--node1-TAGTUT_clean_sbu_1--edge1-XIVTED_clean_linker_0
_symmetry_space_group_name_H-M    P1
_symmetry_Int_Tables_number       1
_symmetry_cell_setting            triclinic
loop_
_symmetry_equiv_pos_as_xyz
'x, y, z'
_cell_length_a     53.190717
_cell_length_b     53.175074
_cell_length_c     27.155788
_cell_angle_alpha  89.96301
_cell_angle_beta   90.02306
_cell_angle_gamma 119.98477
loop_
_atom_site_label
_atom_site_type_symbol
_atom_site_fract_x
_atom_site_fract_y
_atom_site_fract_z
_atom_type_partial_charge
C0 C 0.47504 0.41813 0.10932 0.0
C1 C 0.53135 0.38896 0.07715 0.0
C2 C 0.44094 0.27931 0.10222 0.0
Mg3 Mg 0.50644 0.3966 0.1759 0.0
O4 O 0.47279 0.36089 0.16828 0.0
Mg5 Mg 0.45972 0.34795 0.09851 0.0
Mg6 Mg 0.47329 0.3257 0.19223 0.0
O7 O 0.47429 0.29091 0.21509 0.0
Mg8 Mg 0.44769 0.2522 0.20207 0.0
Mg9 Mg 0.49205 0.30192 0.28142 0.0
C10 C 0.50699 0.36927 0.2826 0.0
C11 C 0.54207 0.34529 0.20644 0.0
O12 O 0.46306 0.39317 0.08786 0.0
O13 O 0.49017 0.42339 0.14872 0.0
O14 O 0.50568 0.36928 0.06527 0.0
O15 O 0.53678 0.40151 0.119 0.0
O16 O 0.51603 0.39061 0.25202 0.0
O17 O 0.48656 0.34335 0.27187 0.0
C18 C 0.40707 0.31348 0.17729 0.0
O19 O 0.42394 0.30879 0.20533 0.0
O20 O 0.41579 0.3271 0.13618 0.0
O21 O 0.5023 0.26423 0.27425 0.0
O22 O 0.47742 0.23654 0.20953 0.0
O23 O 0.44781 0.26998 0.31843 0.0
C24 C 0.49704 0.24416 0.24262 0.0
O25 O 0.41913 0.23654 0.26335 0.0
O26 O 0.43381 0.2572 0.12995 0.0
C27 C 0.42452 0.24636 0.30724 0.0
O28 O 0.4594 0.30538 0.11571 0.0
O29 O 0.52351 0.34655 0.17773 0.0
O30 O 0.5341 0.33013 0.24552 0.0
C31 C 0.5901 0.05766 0.09027 0.0
C32 C 0.6187 0.144 0.06114 0.0
C33 C 0.72738 0.1663 0.10389 0.0
Mg34 Mg 0.60669 0.10903 0.15854 0.0
O35 O 0.64284 0.11166 0.15705 0.0
Mg36 Mg 0.65969 0.11405 0.08926 0.0
Mg37 Mg 0.67516 0.14807 0.18474 0.0
O38 O 0.70687 0.18517 0.21118 0.0
Mg39 Mg 0.74648 0.19877 0.20696 0.0
Mg40 Mg 0.69089 0.18998 0.27439 0.0
C41 C 0.62619 0.13464 0.26803 0.0
C42 C 0.64971 0.19296 0.19038 0.0
O43 O 0.61596 0.07143 0.07217 0.0
O44 O 0.58256 0.06674 0.12809 0.0
O45 O 0.6389 0.13834 0.05144 0.0
O46 O 0.60462 0.13594 0.10141 0.0
O47 O 0.60657 0.12192 0.23478 0.0
O48 O 0.65294 0.14193 0.26083 0.0
C49 C 0.69119 0.09647 0.1753 0.0
O50 O 0.69394 0.11761 0.2027 0.0
O51 O 0.67966 0.09171 0.13221 0.0
O52 O 0.72686 0.23868 0.27188 0.0
O53 O 0.76044 0.24372 0.21633 0.0
O54 O 0.72194 0.17953 0.3186 0.0
C55 C 0.74946 0.25454 0.24554 0.0
O56 O 0.7582 0.18402 0.27099 0.0
O57 O 0.74706 0.18192 0.13534 0.0
C58 C 0.74584 0.17944 0.31286 0.0
O59 O 0.70019 0.15669 0.11217 0.0
O60 O 0.65185 0.17395 0.16451 0.0
O61 O 0.66259 0.20177 0.23152 0.0
C62 C 0.94562 0.53025 0.10275 0.0
C63 C 0.85932 0.47424 0.07197 0.0
C64 C 0.8405 0.56411 0.10167 0.0
Mg65 Mg 0.8931 0.49868 0.1701 0.0
O66 O 0.89204 0.53301 0.16441 0.0
Mg67 Mg 0.89106 0.54601 0.09476 0.0
Mg68 Mg 0.85601 0.53132 0.18908 0.0
O69 O 0.81943 0.52829 0.21255 0.0
Mg70 Mg 0.80478 0.55286 0.20062 0.0
Mg71 Mg 0.81228 0.50853 0.27727 0.0
C72 C 0.86661 0.49687 0.27812 0.0
C73 C 0.80914 0.46173 0.19853 0.0
O74 O 0.93287 0.54278 0.08228 0.0
O75 O 0.93563 0.51451 0.14148 0.0
O76 O 0.86593 0.50011 0.06002 0.0
O77 O 0.86644 0.46871 0.11364 0.0
O78 O 0.87896 0.48837 0.24674 0.0
O79 O 0.86022 0.51674 0.26802 0.0
C80 C 0.90926 0.59779 0.17594 0.0
O81 O 0.8876 0.58068 0.20366 0.0
O82 O 0.91412 0.58943 0.13437 0.0
O83 O 0.76396 0.49683 0.2702 0.0
O84 O 0.75995 0.52105 0.20558 0.0
O85 O 0.82248 0.55145 0.31721 0.0
C86 C 0.74858 0.50136 0.23865 0.0
O87 O 0.81535 0.57959 0.26408 0.0
O88 O 0.82439 0.56939 0.12997 0.0
C89 C 0.82044 0.57402 0.30745 0.0
O90 O 0.849 0.54607 0.11357 0.0
O91 O 0.82891 0.48195 0.17224 0.0
O92 O 0.80012 0.46709 0.23831 0.0
C93 C 0.4158 0.47074 0.3835 0.0
C94 C 0.38517 0.52634 0.41688 0.0
C95 C 0.27752 0.43836 0.38188 0.0
Mg96 Mg 0.39606 0.50414 0.31776 0.0
O97 O 0.36054 0.4698 0.32083 0.0
Mg98 Mg 0.34556 0.45529 0.38958 0.0
Mg99 Mg 0.32675 0.47259 0.29628 0.0
O100 O 0.29364 0.47663 0.2734 0.0
Mg101 Mg 0.25438 0.45022 0.28216 0.0
Mg102 Mg 0.30708 0.49713 0.20931 0.0
C103 C 0.37295 0.50851 0.20972 0.0
C104 C 0.35028 0.54253 0.29018 0.0
O105 O 0.39023 0.45777 0.40282 0.0
O106 O 0.42216 0.48747 0.34595 0.0
O107 O 0.36592 0.5002 0.42705 0.0
O108 O 0.39847 0.5329 0.3758 0.0
O109 O 0.39338 0.51616 0.24171 0.0
O110 O 0.34653 0.48857 0.21848 0.0
C111 C 0.31252 0.40555 0.30519 0.0
O112 O 0.30853 0.42349 0.27872 0.0
O113 O 0.32534 0.41277 0.34723 0.0
O114 O 0.27038 0.50872 0.21682 0.0
O115 O 0.23943 0.48058 0.27595 0.0
O116 O 0.27503 0.45474 0.16722 0.0
C117 C 0.24886 0.50197 0.24597 0.0
O118 O 0.24061 0.42361 0.21862 0.0
O119 O 0.25638 0.43318 0.35302 0.0
C120 C 0.25144 0.4308 0.17559 0.0
O121 O 0.30413 0.45642 0.37067 0.0
O122 O 0.34942 0.52177 0.31555 0.0
O123 O 0.33612 0.53791 0.25027 0.0
C124 C 0.52906 0.94555 0.37778 0.0
C125 C 0.47341 0.85915 0.40857 0.0
C126 C 0.56279 0.84027 0.38034 0.0
Mg127 Mg 0.49781 0.89302 0.31042 0.0
O128 O 0.53224 0.89211 0.31623 0.0
Mg129 Mg 0.54508 0.89111 0.38603 0.0
Mg130 Mg 0.53054 0.85597 0.29203 0.0
O131 O 0.52735 0.81915 0.26925 0.0
Mg132 Mg 0.5525 0.80509 0.28109 0.0
Mg133 Mg 0.50767 0.81197 0.20436 0.0
C134 C 0.49624 0.86637 0.20258 0.0
C135 C 0.46091 0.80923 0.28267 0.0
O136 O 0.54166 0.93287 0.39826 0.0
O137 O 0.51342 0.93554 0.33896 0.0
O138 O 0.49927 0.8658 0.42049 0.0
O139 O 0.46787 0.86641 0.36706 0.0
O140 O 0.48758 0.87867 0.23378 0.0
O141 O 0.5161 0.86003 0.21295 0.0
C142 C 0.597 0.9093 0.30525 0.0
O143 O 0.57998 0.88756 0.27755 0.0
O144 O 0.58852 0.91419 0.34666 0.0
O145 O 0.49552 0.76353 0.21225 0.0
O146 O 0.52132 0.75999 0.27479 0.0
O147 O 0.55074 0.82208 0.1649 0.0
C148 C 0.5009 0.74839 0.24297 0.0
O149 O 0.57988 0.81686 0.2185 0.0
O150 O 0.56836 0.82421 0.35243 0.0
C151 C 0.57394 0.82127 0.17497 0.0
O152 O 0.5451 0.84903 0.36761 0.0
O153 O 0.48118 0.82901 0.30884 0.0
O154 O 0.46619 0.80007 0.24299 0.0
C155 C 0.05843 0.59047 0.39249 0.0
C156 C 0.14502 0.6199 0.42056 0.0
C157 C 0.1659 0.72848 0.37808 0.0
Mg158 Mg 0.10974 0.60765 0.32368 0.0
O159 O 0.11185 0.64361 0.32541 0.0
Mg160 Mg 0.11422 0.66038 0.39318 0.0
Mg161 Mg 0.14799 0.67623 0.29756 0.0
O162 O 0.1848 0.70815 0.27071 0.0
Mg163 Mg 0.1983 0.74774 0.27477 0.0
Mg164 Mg 0.1898 0.69205 0.20777 0.0
C165 C 0.13485 0.6272 0.21411 0.0
C166 C 0.19362 0.65185 0.2927 0.0
O167 O 0.07193 0.61636 0.41051 0.0
O168 O 0.06764 0.58308 0.35467 0.0
O169 O 0.13901 0.63985 0.43055 0.0
O170 O 0.13714 0.60594 0.38015 0.0
O171 O 0.12229 0.60749 0.24728 0.0
O172 O 0.14199 0.65389 0.22158 0.0
C173 C 0.09597 0.69151 0.30731 0.0
O174 O 0.11711 0.69444 0.27973 0.0
O175 O 0.0914 0.68 0.35043 0.0
O176 O 0.23829 0.72827 0.20984 0.0
O177 O 0.24328 0.76172 0.2656 0.0
O178 O 0.17893 0.72263 0.1632 0.0
C179 C 0.25412 0.75082 0.23627 0.0
O180 O 0.18358 0.75917 0.21028 0.0
O181 O 0.18132 0.74816 0.34645 0.0
C182 C 0.17888 0.74658 0.16859 0.0
O183 O 0.15651 0.7013 0.36996 0.0
O184 O 0.17442 0.65377 0.31829 0.0
O185 O 0.20214 0.66434 0.25119 0.0
C186 C 0.49881 0.7497 0.73429 0.0
C187 C 0.56984 0.74532 0.66744 0.0
C188 C 0.49448 0.62594 0.71246 0.0
Mg189 Mg 0.55128 0.74629 0.77339 0.0
O190 O 0.52501 0.70675 0.76935 0.0
Mg191 Mg 0.50425 0.69077 0.70606 0.0
Mg192 Mg 0.52974 0.67475 0.79658 0.0
O193 O 0.53309 0.64204 0.82464 0.0
Mg194 Mg 0.49926 0.60604 0.82234 0.0
Mg195 Mg 0.54706 0.65872 0.89262 0.0
C196 C 0.56395 0.72691 0.87707 0.0
C197 C 0.59694 0.69006 0.80766 0.0
O198 O 0.49202 0.7271 0.70792 0.0
O199 O 0.5205 0.76051 0.76374 0.0
O200 O 0.54584 0.72141 0.66189 0.0
O201 O 0.57767 0.75779 0.70922 0.0
O202 O 0.56845 0.74657 0.8452 0.0
O203 O 0.54588 0.69976 0.86926 0.0
C204 C 0.45972 0.65031 0.79012 0.0
O205 O 0.48066 0.65218 0.81624 0.0
O206 O 0.464 0.66297 0.74872 0.0
O207 O 0.54505 0.61453 0.91049 0.0
O208 O 0.51639 0.58127 0.85433 0.0
O209 O 0.50151 0.63838 0.9288 0.0
C210 C 0.53271 0.58862 0.89253 0.0
O211 O 0.46982 0.60443 0.87806 0.0
O212 O 0.48707 0.60609 0.7455 0.0
C213 C 0.47562 0.61851 0.91832 0.0
O214 O 0.51392 0.65259 0.72044 0.0
O215 O 0.57883 0.69292 0.7797 0.0
O216 O 0.58985 0.67845 0.85072 0.0
C217 C 0.24963 0.7482 0.74374 0.0
C218 C 0.24966 0.82143 0.67614 0.0
C219 C 0.37222 0.8662 0.70202 0.0
Mg220 Mg 0.25525 0.80516 0.78181 0.0
O221 O 0.29434 0.8186 0.76998 0.0
Mg222 Mg 0.3065 0.81158 0.70465 0.0
Mg223 Mg 0.32789 0.85557 0.79223 0.0
O224 O 0.36225 0.89192 0.81586 0.0
Mg225 Mg 0.39777 0.89326 0.80938 0.0
Mg226 Mg 0.34878 0.89089 0.88589 0.0
C227 C 0.28051 0.84024 0.88091 0.0
C228 C 0.31392 0.90832 0.80621 0.0
O229 O 0.27022 0.76316 0.71304 0.0
O230 O 0.24086 0.75999 0.77529 0.0
O231 O 0.27335 0.82167 0.66576 0.0
O232 O 0.23968 0.81746 0.71986 0.0
O233 O 0.2588 0.82436 0.85304 0.0
O234 O 0.30687 0.84854 0.86832 0.0
C235 C 0.35116 0.80912 0.78197 0.0
O236 O 0.35079 0.82893 0.80827 0.0
O237 O 0.33638 0.79981 0.74262 0.0
O238 O 0.39363 0.93297 0.89737 0.0
O239 O 0.42443 0.93591 0.8377 0.0
O240 O 0.37004 0.86614 0.91968 0.0
C241 C 0.41877 0.94587 0.87654 0.0
O242 O 0.40176 0.8668 0.86559 0.0
O243 O 0.39336 0.87883 0.73281 0.0
C244 C 0.38928 0.85961 0.90736 0.0
O245 O 0.34603 0.8597 0.7129 0.0
O246 O 0.30942 0.88672 0.77832 0.0
O247 O 0.3276 0.91342 0.84734 0.0
C248 C 0.2538 0.50281 0.74012 0.0
C249 C 0.17841 0.43237 0.67079 0.0
C250 C 0.13579 0.50942 0.71416 0.0
Mg251 Mg 0.19716 0.45051 0.77716 0.0
O252 O 0.18427 0.47708 0.77218 0.0
Mg253 Mg 0.19013 0.49831 0.70907 0.0
Mg254 Mg 0.14752 0.47275 0.79811 0.0
O255 O 0.11147 0.46977 0.82525 0.0
Mg256 Mg 0.10991 0.50392 0.82338 0.0
Mg257 Mg 0.1132 0.45513 0.89324 0.0
C258 C 0.16404 0.43768 0.8795 0.0
C259 C 0.0948 0.40564 0.80783 0.0
O260 O 0.23849 0.50986 0.71287 0.0
O261 O 0.24236 0.481 0.7693 0.0
O262 O 0.17898 0.4566 0.66482 0.0
O263 O 0.18268 0.42443 0.71277 0.0
O264 O 0.17935 0.43297 0.84833 0.0
O265 O 0.15539 0.45603 0.87116 0.0
C266 C 0.19387 0.54276 0.79302 0.0
O267 O 0.17436 0.52177 0.81851 0.0
O268 O 0.20265 0.53853 0.75199 0.0
O269 O 0.07114 0.4575 0.90954 0.0
O270 O 0.06759 0.48679 0.85329 0.0
O271 O 0.13832 0.50011 0.93083 0.0
C272 C 0.05799 0.47017 0.89108 0.0
O273 O 0.13695 0.53254 0.88075 0.0
O274 O 0.12333 0.51678 0.74719 0.0
C275 C 0.14464 0.52616 0.92108 0.0
O276 O 0.14236 0.48943 0.72169 0.0
O277 O 0.11611 0.42363 0.78027 0.0
O278 O 0.09021 0.41279 0.8507 0.0
C279 C 0.75203 0.49962 0.74761 0.0
C280 C 0.74961 0.572 0.8131 0.0
C281 C 0.62878 0.49512 0.77772 0.0
Mg282 Mg 0.74751 0.55128 0.7077 0.0
O283 O 0.70818 0.52524 0.71535 0.0
Mg284 Mg 0.69397 0.50556 0.78003 0.0
Mg285 Mg 0.67546 0.52927 0.69008 0.0
O286 O 0.64192 0.53183 0.6639 0.0
Mg287 Mg 0.60615 0.49783 0.66872 0.0
Mg288 Mg 0.65703 0.54487 0.5948 0.0
C289 C 0.72556 0.56248 0.60569 0.0
C290 C 0.68977 0.59607 0.67729 0.0
O291 O 0.73027 0.49341 0.77583 0.0
O292 O 0.76195 0.52069 0.71689 0.0
O293 O 0.72589 0.54815 0.82128 0.0
O294 O 0.76072 0.57884 0.77019 0.0
O295 O 0.74608 0.56751 0.63595 0.0
O296 O 0.69869 0.54437 0.6155 0.0
C297 C 0.65158 0.45947 0.69932 0.0
O298 O 0.65283 0.47996 0.67271 0.0
O299 O 0.66514 0.46443 0.73995 0.0
O300 O 0.61239 0.54217 0.57975 0.0
O301 O 0.58031 0.51409 0.63784 0.0
O302 O 0.63633 0.49887 0.56017 0.0
C303 C 0.5868 0.52984 0.59898 0.0
O304 O 0.60349 0.46783 0.61308 0.0
O305 O 0.60824 0.48688 0.74578 0.0
C306 C 0.61674 0.47311 0.57203 0.0
O307 O 0.65518 0.51465 0.76801 0.0
O308 O 0.6937 0.57855 0.70507 0.0
O309 O 0.67717 0.58821 0.6351 0.0
C310 C 0.50372 0.25243 0.74355 0.0
C311 C 0.43329 0.17782 0.81312 0.0
C312 C 0.50782 0.13306 0.76714 0.0
Mg313 Mg 0.45068 0.19641 0.7064 0.0
O314 O 0.4768 0.18293 0.71006 0.0
Mg315 Mg 0.49826 0.18817 0.77276 0.0
Mg316 Mg 0.47161 0.14591 0.68357 0.0
O317 O 0.46781 0.10959 0.65626 0.0
Mg318 Mg 0.50141 0.10705 0.65821 0.0
Mg319 Mg 0.45334 0.11179 0.58843 0.0
C320 C 0.43661 0.16329 0.6036 0.0
C321 C 0.40419 0.09394 0.67434 0.0
O322 O 0.51059 0.2367 0.77 0.0
O323 O 0.48179 0.24147 0.7146 0.0
O324 O 0.45725 0.17774 0.81795 0.0
O325 O 0.42503 0.18223 0.77153 0.0
O326 O 0.43257 0.17879 0.63534 0.0
O327 O 0.45478 0.15426 0.61097 0.0
C328 C 0.54185 0.19135 0.68771 0.0
O329 O 0.52058 0.1721 0.6624 0.0
O330 O 0.53803 0.20015 0.72903 0.0
O331 O 0.45502 0.06934 0.57156 0.0
O332 O 0.4834 0.06467 0.62833 0.0
O333 O 0.4985 0.13653 0.55114 0.0
C334 C 0.467 0.05557 0.59027 0.0
O335 O 0.53032 0.13401 0.60122 0.0
O336 O 0.51472 0.12017 0.73422 0.0
C337 C 0.52436 0.14227 0.56108 0.0
O338 O 0.48827 0.14018 0.75957 0.0
O339 O 0.42249 0.1151 0.70183 0.0
O340 O 0.41104 0.08922 0.63127 0.0
C341 C 0.74765 0.2488 0.73551 0.0
C342 C 0.82053 0.24928 0.80528 0.0
C343 C 0.86504 0.37194 0.77828 0.0
Mg344 Mg 0.80496 0.25464 0.69899 0.0
O345 O 0.81835 0.29374 0.71065 0.0
Mg346 Mg 0.81066 0.30594 0.77539 0.0
Mg347 Mg 0.85531 0.32743 0.6887 0.0
O348 O 0.89161 0.36192 0.66523 0.0
Mg349 Mg 0.89266 0.39734 0.67099 0.0
Mg350 Mg 0.89109 0.34832 0.59542 0.0
C351 C 0.84063 0.27987 0.60037 0.0
C352 C 0.90857 0.31407 0.6763 0.0
O353 O 0.76236 0.26944 0.76625 0.0
O354 O 0.7597 0.24009 0.70438 0.0
O355 O 0.82069 0.27298 0.81522 0.0
O356 O 0.81682 0.23919 0.76166 0.0
O357 O 0.82462 0.25817 0.62819 0.0
O358 O 0.84886 0.30624 0.61285 0.0
C359 C 0.80848 0.35027 0.69701 0.0
O360 O 0.82852 0.34994 0.67135 0.0
O361 O 0.79895 0.33558 0.73641 0.0
O362 O 0.93302 0.39338 0.58416 0.0
O363 O 0.93549 0.42413 0.64356 0.0
O364 O 0.86617 0.36907 0.5604 0.0
C365 C 0.94572 0.41853 0.60499 0.0
O366 O 0.86667 0.4011 0.6136 0.0
O367 O 0.87765 0.39299 0.74728 0.0
C368 C 0.85958 0.38835 0.57205 0.0
O369 O 0.85877 0.34575 0.76786 0.0
O370 O 0.88678 0.30942 0.70382 0.0
O371 O 0.91372 0.32761 0.63501 0.0
H372 H 0.55222 0.26932 0.27899 0.0
H373 H 0.59259 0.15686 0.17068 0.0
H374 H 0.49016 0.19623 0.19281 0.0
H375 H 0.65609 0.24673 0.19453 0.0
H376 H 0.55399 0.16848 0.18023 0.0
H377 H 0.58963 0.25771 0.25646 0.0
C378 C 0.54627 0.25045 0.25618 0.0
C379 C 0.51796 0.2337 0.23777 0.0
C380 C 0.57638 0.18584 0.18166 0.0
C381 C 0.56091 0.22072 0.21108 0.0
C382 C 0.59849 0.17934 0.17455 0.0
C383 C 0.62764 0.20107 0.17947 0.0
C384 C 0.58355 0.21405 0.19546 0.0
C385 C 0.63387 0.22949 0.18943 0.0
C386 C 0.56778 0.24415 0.24267 0.0
C387 C 0.51171 0.20973 0.20779 0.0
N388 N 0.612 0.2351 0.1979 0.0
N389 N 0.53304 0.20392 0.19536 0.0
H390 H 0.84386 0.43854 0.18532 0.0
H391 H 0.72152 0.2835 0.27408 0.0
H392 H 0.75437 0.4157 0.20064 0.0
H393 H 0.80085 0.29693 0.20666 0.0
H394 H 0.73535 0.33353 0.25423 0.0
H395 H 0.82986 0.38763 0.19395 0.0
C396 C 0.82105 0.42261 0.1872 0.0
C397 C 0.80008 0.43115 0.18959 0.0
C398 C 0.74976 0.32553 0.24395 0.0
C399 C 0.78415 0.37317 0.20456 0.0
C400 C 0.74211 0.2971 0.25594 0.0
C401 C 0.76008 0.28599 0.24205 0.0
C402 C 0.77569 0.34309 0.21839 0.0
C403 C 0.78633 0.30458 0.21802 0.0
C404 C 0.81313 0.39358 0.19381 0.0
C405 C 0.77106 0.4098 0.19738 0.0
N406 N 0.79336 0.33225 0.20692 0.0
N407 N 0.76396 0.38179 0.20518 0.0
H408 H 0.71586 0.45684 0.30197 0.0
H409 H 0.57292 0.38694 0.13476 0.0
H410 H 0.71 0.49681 0.16713 0.0
H411 H 0.58452 0.34833 0.26616 0.0
H412 H 0.62315 0.42686 0.14262 0.0
H413 H 0.66662 0.41738 0.28887 0.0
C414 C 0.70412 0.45753 0.26988 0.0
C415 C 0.71721 0.48014 0.23552 0.0
C416 C 0.61454 0.40956 0.16963 0.0
C417 C 0.66078 0.43455 0.21964 0.0
C418 C 0.5858 0.38691 0.16522 0.0
C419 C 0.57378 0.3651 0.20115 0.0
C420 C 0.6313 0.40996 0.21 0.0
C421 C 0.59228 0.36507 0.23818 0.0
C422 C 0.67602 0.43481 0.26213 0.0
C423 C 0.70079 0.47981 0.19463 0.0
N424 N 0.61984 0.38731 0.24198 0.0
N425 N 0.67344 0.45724 0.18763 0.0
H426 H 0.24838 0.66092 0.29505 0.0
H427 H 0.19792 0.49214 0.28821 0.0
H428 H 0.15879 0.59428 0.30955 0.0
H429 H 0.27616 0.55914 0.21968 0.0
H430 H 0.18499 0.52889 0.31053 0.0
H431 H 0.26166 0.62321 0.28598 0.0
C432 C 0.2317 0.63832 0.29868 0.0
C433 C 0.20258 0.63063 0.30492 0.0
C434 C 0.20486 0.53541 0.29032 0.0
C435 C 0.21729 0.58756 0.29245 0.0
C436 C 0.21215 0.51447 0.27723 0.0
C437 C 0.23808 0.52255 0.25176 0.0
C438 C 0.2239 0.56463 0.27863 0.0
C439 C 0.25581 0.55183 0.23879 0.0
C440 C 0.23918 0.61686 0.29266 0.0
C441 C 0.18159 0.60111 0.30762 0.0
N442 N 0.24852 0.57185 0.25278 0.0
N443 N 0.18931 0.58056 0.30092 0.0
H444 H 0.40791 0.56457 0.30574 0.0
H445 H 0.44487 0.71923 0.21025 0.0
H446 H 0.34278 0.58936 0.28794 0.0
H447 H 0.50834 0.70662 0.28882 0.0
H448 H 0.40788 0.66963 0.23092 0.0
H449 H 0.44564 0.61524 0.29802 0.0
C450 C 0.4015 0.58086 0.30355 0.0
C451 C 0.37215 0.57291 0.30012 0.0
C452 C 0.42994 0.67772 0.24349 0.0
C453 C 0.41523 0.63062 0.28613 0.0
C454 C 0.45118 0.70587 0.23105 0.0
C455 C 0.47979 0.71708 0.24772 0.0
C456 C 0.4374 0.66048 0.27223 0.0
C457 C 0.48655 0.69884 0.27521 0.0
C458 C 0.4231 0.60975 0.29749 0.0
C459 C 0.36519 0.59476 0.29198 0.0
N460 N 0.46549 0.67138 0.28655 0.0
N461 N 0.38659 0.6226 0.28457 0.0
H462 H 0.28291 0.72287 0.207 0.0
H463 H 0.43805 0.84424 0.29562 0.0
H464 H 0.29657 0.80192 0.27595 0.0
H465 H 0.41465 0.75456 0.28068 0.0
H466 H 0.38725 0.83055 0.28756 0.0
H467 H 0.33281 0.73634 0.22681 0.0
C468 C 0.29654 0.74333 0.22547 0.0
C469 C 0.28553 0.76133 0.23979 0.0
C470 C 0.39305 0.81371 0.28772 0.0
C471 C 0.34248 0.77652 0.26341 0.0
C472 C 0.42202 0.82146 0.2941 0.0
C473 C 0.43039 0.80035 0.29166 0.0
C474 C 0.3725 0.78477 0.27711 0.0
C475 C 0.4089 0.77136 0.28399 0.0
C476 C 0.32489 0.75077 0.23745 0.0
C477 C 0.30415 0.7874 0.26425 0.0
N478 N 0.38093 0.76443 0.27639 0.0
N479 N 0.33176 0.79424 0.2753 0.0
H480 H 0.44202 0.72198 0.70524 0.0
H481 H 0.40912 0.8441 0.79411 0.0
H482 H 0.50788 0.80111 0.77326 0.0
H483 H 0.3427 0.75444 0.77987 0.0
H484 H 0.44613 0.83027 0.78517 0.0
H485 H 0.40587 0.73584 0.72501 0.0
C486 C 0.44902 0.74254 0.72348 0.0
C487 C 0.47807 0.76043 0.73759 0.0
C488 C 0.42349 0.81348 0.78562 0.0
C489 C 0.43663 0.77609 0.76116 0.0
C490 C 0.40234 0.82131 0.79242 0.0
C491 C 0.37285 0.80023 0.79046 0.0
C492 C 0.41499 0.78449 0.77508 0.0
C493 C 0.36527 0.77122 0.78281 0.0
C494 C 0.42826 0.75021 0.73543 0.0
C495 C 0.48573 0.78665 0.76174 0.0
N496 N 0.38622 0.76421 0.77482 0.0
N497 N 0.46511 0.79371 0.7728 0.0
H498 H 0.15879 0.56507 0.8113 0.0
H499 H 0.27623 0.71863 0.71171 0.0
H500 H 0.24834 0.58917 0.79105 0.0
H501 H 0.20048 0.70687 0.79023 0.0
H502 H 0.26367 0.66923 0.73382 0.0
H503 H 0.17196 0.61579 0.80325 0.0
C504 C 0.18149 0.58123 0.80857 0.0
C505 C 0.20269 0.57305 0.8043 0.0
C506 C 0.24977 0.67746 0.74608 0.0
C507 C 0.21754 0.6308 0.78999 0.0
C508 C 0.25664 0.7055 0.73279 0.0
C509 C 0.23932 0.71689 0.74904 0.0
C510 C 0.22521 0.66055 0.77527 0.0
C511 C 0.21443 0.69894 0.77692 0.0
C512 C 0.1889 0.61015 0.8023 0.0
C513 C 0.23148 0.59475 0.79566 0.0
N514 N 0.20807 0.6716 0.78912 0.0
N515 N 0.23803 0.62261 0.78804 0.0
H516 H 0.28349 0.55962 0.71123 0.0
H517 H 0.43718 0.59275 0.80694 0.0
H518 H 0.29535 0.49361 0.78244 0.0
H519 H 0.41368 0.6589 0.78992 0.0
H520 H 0.38634 0.55555 0.79791 0.0
H521 H 0.33306 0.5957 0.73342 0.0
C522 C 0.29667 0.55257 0.73071 0.0
C523 C 0.28522 0.52349 0.74495 0.0
C524 C 0.39214 0.57819 0.79783 0.0
C525 C 0.34182 0.56489 0.77134 0.0
C526 C 0.42111 0.59946 0.80453 0.0
C527 C 0.42946 0.62893 0.80144 0.0
C528 C 0.37165 0.58656 0.78638 0.0
C529 C 0.40794 0.63636 0.79365 0.0
C530 C 0.32482 0.5733 0.74406 0.0
C531 C 0.30329 0.51578 0.77074 0.0
N532 N 0.38004 0.61531 0.78566 0.0
N533 N 0.33075 0.53639 0.78312 0.0
H534 H 0.72442 0.44307 0.77784 0.0
H535 H 0.84385 0.40807 0.68433 0.0
H536 H 0.80253 0.50801 0.70589 0.0
H537 H 0.75399 0.34237 0.69914 0.0
H538 H 0.83068 0.44549 0.69327 0.0
H539 H 0.73736 0.40639 0.75667 0.0
C540 C 0.74459 0.44976 0.75847 0.0
C541 C 0.76246 0.47869 0.74366 0.0
C542 C 0.81368 0.42292 0.69284 0.0
C543 C 0.777 0.43668 0.71848 0.0
C544 C 0.82113 0.40152 0.68589 0.0
C545 C 0.79983 0.37211 0.68812 0.0
C546 C 0.78486 0.41476 0.70386 0.0
C547 C 0.77094 0.36487 0.69601 0.0
C548 C 0.75169 0.4287 0.74569 0.0
C549 C 0.78813 0.48595 0.718 0.0
N550 N 0.76431 0.38607 0.70426 0.0
N551 N 0.79465 0.46506 0.7062 0.0
H552 H 0.59387 0.43661 0.68434 0.0
H553 H 0.56039 0.28146 0.77315 0.0
H554 H 0.66022 0.41339 0.70082 0.0
H555 H 0.49499 0.29471 0.70303 0.0
H556 H 0.59667 0.33142 0.7535 0.0
H557 H 0.55682 0.38566 0.69182 0.0
C558 C 0.60067 0.4206 0.68625 0.0
C559 C 0.63014 0.42903 0.68933 0.0
C560 C 0.57436 0.3234 0.74254 0.0
C561 C 0.5879 0.37102 0.70291 0.0
C562 C 0.55352 0.295 0.75441 0.0
C563 C 0.52456 0.28386 0.73976 0.0
C564 C 0.56617 0.34092 0.71635 0.0
C565 C 0.51707 0.3024 0.715 0.0
C566 C 0.57947 0.39155 0.69215 0.0
C567 C 0.63767 0.40757 0.69702 0.0
N568 N 0.53777 0.33006 0.70407 0.0
N569 N 0.61667 0.37954 0.70415 0.0
H570 H 0.56418 0.15622 0.66972 0.0
H571 H 0.71762 0.27507 0.76674 0.0
H572 H 0.58801 0.2459 0.68716 0.0
H573 H 0.70669 0.19941 0.68898 0.0
H574 H 0.66811 0.26195 0.74455 0.0
H575 H 0.61507 0.16975 0.67716 0.0
C576 C 0.58029 0.17898 0.67179 0.0
C577 C 0.57201 0.20013 0.6755 0.0
C578 C 0.67654 0.24819 0.73245 0.0
C579 C 0.62993 0.21545 0.68893 0.0
C580 C 0.70465 0.25539 0.74579 0.0
C581 C 0.71631 0.23825 0.72982 0.0
C582 C 0.65979 0.22347 0.70351 0.0
C583 C 0.69855 0.21322 0.70208 0.0
C584 C 0.60931 0.18662 0.67762 0.0
C585 C 0.59366 0.22907 0.683 0.0
N586 N 0.6711 0.20652 0.68987 0.0
N587 N 0.6216 0.23584 0.69025 0.0
H588 H 0.51443 0.53277 0.86423 0.0
H589 H 0.49921 0.47471 0.1401 0.0
H590 H 0.54546 0.58956 0.99063 0.0
H591 H 0.45914 0.41951 0.01384 0.0
H592 H 0.51667 0.51717 0.08682 0.0
H593 H 0.49782 0.49111 0.91885 0.0
C594 C 0.51837 0.53655 0.9034 0.0
C595 C 0.53109 0.56475 0.92285 0.0
C596 C 0.50378 0.49576 0.07092 0.0
C597 C 0.51138 0.51699 0.98579 0.0
C598 C 0.49348 0.47146 0.10142 0.0
C599 C 0.47793 0.44337 0.08142 0.0
C600 C 0.49861 0.49195 0.02006 0.0
C601 C 0.47114 0.44064 0.03101 0.0
C602 C 0.50851 0.51269 0.93465 0.0
C603 C 0.53575 0.56825 0.97392 0.0
N604 N 0.48188 0.46461 0.00199 0.0
N605 N 0.52555 0.5446 0.00372 0.0
H606 H 0.59191 0.04433 -0.00674 0.0
H607 H 0.41918 0.96407 0.97107 0.0
H608 H 0.53379 0.02124 0.11754 0.0
H609 H 0.47565 0.97743 0.8474 0.0
H610 H 0.46165 0.98867 0.02399 0.0
H611 H 0.54996 0.01959 0.93887 0.0
C612 C 0.5704 0.03337 0.00936 0.0
C613 C 0.5664 0.03525 0.06006 0.0
C614 C 0.46476 0.98644 0.98517 0.0
C615 C 0.51835 0.00777 -0.00221 0.0
C616 C 0.4405 0.97279 0.95468 0.0
C617 C 0.44374 0.96822 0.90474 0.0
C618 C 0.49247 0.99571 0.96558 0.0
C619 C 0.47203 0.98012 0.88579 0.0
C620 C 0.54643 0.01964 0.97813 0.0
C621 C 0.53795 0.02069 0.07864 0.0
N622 N 0.49529 0.99299 0.91637 0.0
N623 N 0.51502 0.00795 0.04744 0.0
H624 H 0.96319 0.54734 0.00769 0.0
H625 H 0.04361 0.45477 0.98776 0.0
H626 H 0.97764 0.50548 0.13219 0.0
H627 H 0.02271 0.49129 0.86282 0.0
H628 H 0.01865 0.4721 0.04135 0.0
H629 H 0.98798 0.52951 0.95508 0.0
C630 C 0.97218 0.53503 0.0243 0.0
C631 C 0.96791 0.52758 0.07442 0.0
C632 C 0.01924 0.47601 0.00211 0.0
C633 C 0.9956 0.50637 0.01397 0.0
C634 C 0.0331 0.46571 0.97133 0.0
C635 C 0.03562 0.47191 0.92071 0.0
C636 C 0.00787 0.49261 0.9821 0.0
C637 C 0.02164 0.4863 0.90169 0.0
C638 C 0.98595 0.52445 -0.00599 0.0
C639 C 0.9801 0.51152 0.09367 0.0
N640 N 0.00873 0.49652 0.93248 0.0
N641 N 0.99307 0.50114 0.06329 0.0
H642 H 0.41515 0.45235 0.4781 0.0
H643 H 0.5878 0.5466 0.5031 0.0
H644 H 0.47275 0.4952 0.35558 0.0
H645 H 0.52975 0.5058 0.62594 0.0
H646 H 0.54588 0.52908 0.44871 0.0
H647 H 0.45722 0.46936 0.53192 0.0
C648 C 0.43662 0.46468 0.46215 0.0
C649 C 0.44033 0.47269 0.41226 0.0
C650 C 0.54232 0.52421 0.48767 0.0
C651 C 0.48858 0.49298 0.47411 0.0
C652 C 0.56627 0.53461 0.51895 0.0
C653 C 0.56238 0.52738 0.56919 0.0
C654 C 0.51431 0.5065 0.50675 0.0
C655 C 0.53388 0.51167 0.5874 0.0
C656 C 0.46066 0.47479 0.49315 0.0
C657 C 0.46877 0.48876 0.3939 0.0
N658 N 0.51096 0.50145 0.5561 0.0
N659 N 0.49179 0.49871 0.42495 0.0
H660 H 0.55009 0.96646 0.47012 0.0
H661 H 0.47923 0.01414 0.62212 0.0
H662 H 0.50017 0.97416 0.35152 0.0
H663 H 0.46009 0.04718 0.49073 0.0
H664 H 0.49708 0.9888 0.57106 0.0
H665 H 0.53278 0.99085 0.52455 0.0
C666 C 0.53579 0.9736 0.45528 0.0
C667 C 0.5261 0.96761 0.40633 0.0
C668 C 0.48926 0.00177 0.55324 0.0
C669 C 0.50475 0.99407 0.46937 0.0
C670 C 0.47835 0.01566 0.58242 0.0
C671 C 0.46854 0.03314 0.5607 0.0
C672 C 0.49071 0.00571 0.50194 0.0
C673 C 0.46754 0.03402 0.5091 0.0
C674 C 0.52528 0.98691 0.48682 0.0
C675 C 0.50788 0.97784 0.38917 0.0
N676 N 0.4789 0.02083 0.48145 0.0
N677 N 0.49752 0.99025 0.42082 0.0
H678 H 0.96436 0.41915 0.51072 0.0
H679 H 0.04499 0.59201 0.48954 0.0
H680 H 0.9772 0.47534 0.63455 0.0
H681 H 0.02229 0.53415 0.36498 0.0
H682 H 0.02008 0.54992 0.54367 0.0
H683 H 0.98935 0.46177 0.45815 0.0
C684 C 0.97304 0.44043 0.52722 0.0
C685 C 0.96822 0.44356 0.57709 0.0
C686 C 0.02026 0.54648 0.50441 0.0
C687 C 0.99616 0.49246 0.51665 0.0
C688 C 0.03409 0.57053 0.47333 0.0
C689 C 0.03609 0.56664 0.42263 0.0
C690 C 0.00843 0.51843 0.4846 0.0
C691 C 0.02163 0.53822 0.40389 0.0
C692 C 0.98692 0.46478 0.49693 0.0
C693 C 0.98007 0.47181 0.5962 0.0
N694 N 0.00879 0.51521 0.43495 0.0
N695 N 0.99318 0.49516 0.56582 0.0
H696 H 0.58384 0.43992 0.07795 0.0
H697 H 0.59193 0.43739 0.78635 0.0
H698 H 0.5302 0.36549 0.98692 0.0
H699 H 0.64985 0.51256 0.87211 0.0
H700 H 0.57526 0.40876 0.8612 0.0
H701 H 0.61422 0.46434 0.0062 0.0
C702 C 0.57883 0.42839 0.04323 0.0
C703 C 0.55399 0.40078 0.03829 0.0
C704 C 0.59179 0.43143 0.864 0.0
C705 C 0.58857 0.4288 0.95599 0.0
C706 C 0.60128 0.44786 0.82113 0.0
C707 C 0.62188 0.47755 0.82316 0.0
C708 C 0.60246 0.44479 0.90978 0.0
C709 C 0.6337 0.48978 0.86912 0.0
C710 C 0.59614 0.44246 0.0022 0.0
C711 C 0.54876 0.38693 -0.00759 0.0
N712 N 0.62339 0.47346 0.91089 0.0
N713 N 0.5656 0.40124 0.95303 0.0
H714 H 0.57126 0.15163 0.06319 0.0
H715 H 0.56499 0.15015 0.77126 0.0
H716 H 0.64037 0.16096 0.96782 0.0
H717 H 0.49454 0.14154 0.86192 0.0
H718 H 0.59583 0.16312 0.84347 0.0
H719 H 0.54654 0.15732 -0.00819 0.0
C720 C 0.58163 0.15555 0.02748 0.0
C721 C 0.6077 0.15513 0.02142 0.0
C722 C 0.57373 0.15864 0.84787 0.0
C723 C 0.57926 0.16141 0.93952 0.0
C724 C 0.556 0.15108 0.80654 0.0
C725 C 0.52692 0.14407 0.8108 0.0
C726 C 0.56228 0.15873 0.89434 0.0
C727 C 0.51674 0.14641 0.85724 0.0
C728 C 0.56737 0.15867 0.98668 0.0
C729 C 0.62013 0.16063 0.97429 0.0
N730 N 0.53428 0.15303 0.89752 0.0
N731 N 0.60558 0.16306 0.93515 0.0
H732 H 0.8404 0.40553 0.78451 0.0
H733 H 0.85432 0.42024 0.07596 0.0
H734 H 0.86359 0.35323 0.87394 0.0
H735 H 0.83917 0.47602 0.9798 0.0
H736 H 0.84706 0.38827 0.00609 0.0
H737 H 0.8289 0.42346 0.85828 0.0
C738 C 0.84272 0.39752 0.81987 0.0
C739 C 0.85341 0.37821 0.82316 0.0
C740 C 0.8448 0.40721 0.00054 0.0
C741 C 0.84086 0.39931 0.90851 0.0
C742 C 0.84879 0.42546 0.04047 0.0
C743 C 0.84793 0.45127 0.03362 0.0
C744 C 0.83974 0.4147 0.9535 0.0
C745 C 0.8405 0.45667 0.98681 0.0
C746 C 0.83617 0.40783 0.86212 0.0
C747 C 0.85559 0.36826 0.86992 0.0
N748 N 0.83709 0.43879 0.94854 0.0
N749 N 0.84992 0.37939 0.91101 0.0
H750 H 0.50891 0.65034 0.61954 0.0
H751 H 0.36108 0.52229 0.50773 0.0
H752 H 0.43824 0.58355 0.70374 0.0
H753 H 0.43428 0.58024 0.41763 0.0
H754 H 0.3852 0.55265 0.57902 0.0
H755 H 0.47866 0.63223 0.54488 0.0
C756 C 0.487 0.63213 0.62237 0.0
C757 C 0.47634 0.61795 0.66757 0.0
C758 C 0.39587 0.559 0.54354 0.0
C759 C 0.44165 0.59751 0.58312 0.0
C760 C 0.38199 0.5417 0.50269 0.0
C761 C 0.39592 0.54829 0.45678 0.0
C762 C 0.42406 0.58293 0.53871 0.0
C763 C 0.42287 0.57404 0.45247 0.0
C764 C 0.46977 0.62182 0.5799 0.0
C765 C 0.44768 0.59468 0.66945 0.0
N766 N 0.43635 0.59012 0.49314 0.0
N767 N 0.4315 0.58512 0.62791 0.0
H768 H 0.35008 0.86169 0.60814 0.0
H769 H 0.47414 0.83548 0.49779 0.0
H770 H 0.40864 0.84489 0.6931 0.0
H771 H 0.42068 0.8569 0.40742 0.0
H772 H 0.4422 0.82776 0.56737 0.0
H773 H 0.36798 0.85006 0.53257 0.0
C774 C 0.36624 0.85503 0.61093 0.0
C775 C 0.37838 0.85486 0.65668 0.0
C776 C 0.43714 0.83375 0.53217 0.0
C777 C 0.39871 0.84143 0.57122 0.0
C778 C 0.45537 0.83804 0.49229 0.0
C779 C 0.4505 0.84745 0.44691 0.0
C780 C 0.41406 0.83935 0.52701 0.0
C781 C 0.42553 0.85002 0.44192 0.0
C782 C 0.37649 0.84847 0.56794 0.0
C783 C 0.39913 0.84594 0.65847 0.0
N784 N 0.40858 0.84662 0.48176 0.0
N785 N 0.40878 0.83987 0.61649 0.0
H786 H 0.15427 0.5669 0.71006 0.0
H787 H 0.15311 0.57273 0.41795 0.0
H788 H 0.14291 0.49558 0.61887 0.0
H789 H 0.16199 0.64141 0.514 0.0
H790 H 0.15928 0.54806 0.48895 0.0
H791 H 0.1668 0.5976 0.63773 0.0
C792 C 0.15456 0.5577 0.67465 0.0
C793 C 0.14688 0.52842 0.67033 0.0
C794 C 0.16042 0.56879 0.49431 0.0
C795 C 0.16097 0.56363 0.5866 0.0
C796 C 0.15703 0.58303 0.45372 0.0
C797 C 0.15637 0.60897 0.46007 0.0
C798 C 0.16322 0.58058 0.54156 0.0
C799 C 0.16187 0.62128 0.50728 0.0
C800 C 0.16182 0.57534 0.63323 0.0
C801 C 0.14834 0.51795 0.62365 0.0
N802 N 0.1646 0.60677 0.54621 0.0
N803 N 0.15469 0.53543 0.5833 0.0
H804 H 0.35001 0.49355 0.11583 0.0
H805 H 0.47838 0.64246 0.00899 0.0
H806 H 0.41232 0.56578 0.20289 0.0
H807 H 0.42141 0.56989 0.91688 0.0
H808 H 0.44656 0.61836 0.07883 0.0
H809 H 0.36857 0.5242 0.04162 0.0
C810 C 0.36721 0.51592 0.1194 0.0
C811 C 0.38014 0.52694 0.16528 0.0
C812 C 0.44074 0.60784 0.04319 0.0
C813 C 0.40122 0.56202 0.08133 0.0
C814 C 0.45889 0.62172 0.00316 0.0
C815 C 0.45301 0.60793 0.95718 0.0
C816 C 0.41669 0.57978 0.03748 0.0
C817 C 0.42713 0.58117 0.95184 0.0
C818 C 0.37782 0.53338 0.07717 0.0
C819 C 0.40219 0.55613 0.16808 0.0
N820 N 0.41024 0.56767 0.99175 0.0
N821 N 0.41216 0.57249 0.12677 0.0
H822 H 0.43915 0.85618 0.90418 0.0
H823 H 0.43809 0.84212 0.19535 0.0
H824 H 0.36646 0.8377 -0.0018 0.0
H825 H 0.51395 0.86464 0.10753 0.0
H826 H 0.409 0.83003 0.12108 0.0
H827 H 0.46369 0.84904 0.97453 0.0
C828 C 0.428 0.84993 0.93927 0.0
C829 C 0.40089 0.84815 0.94549 0.0
C830 C 0.43192 0.83731 0.11769 0.0
C831 C 0.42903 0.84015 0.02612 0.0
C832 C 0.44859 0.84424 0.16024 0.0
C833 C 0.47857 0.8549 0.15749 0.0
C834 C 0.44534 0.84163 0.07156 0.0
C835 C 0.49092 0.85673 0.11108 0.0
C836 C 0.44215 0.846 0.97948 0.0
C837 C 0.38752 0.83981 -0.00824 0.0
N838 N 0.47432 0.85072 0.06967 0.0
N839 N 0.40188 0.83654 0.03033 0.0
H840 H 0.16386 0.52171 0.01261 0.0
H841 H 0.14558 0.65136 0.12091 0.0
H842 H 0.151 0.58072 0.9209 0.0
H843 H 0.14854 0.58461 0.20691 0.0
H844 H 0.15802 0.63286 0.04712 0.0
H845 H 0.17029 0.55242 0.08349 0.0
C846 C 0.16296 0.54142 0.00711 0.0
C847 C 0.15616 0.5482 0.96087 0.0
C848 C 0.15625 0.62255 0.08235 0.0
C849 C 0.16287 0.58324 0.0423 0.0
C850 C 0.14914 0.63308 0.12433 0.0
C851 C 0.14526 0.61901 0.16975 0.0
C852 C 0.15983 0.59811 0.08629 0.0
C853 C 0.1505 0.59565 0.17239 0.0
C854 C 0.16647 0.55892 0.04774 0.0
C855 C 0.1557 0.57433 0.95602 0.0
N856 N 0.15727 0.58585 0.13131 0.0
N857 N 0.15836 0.59059 -0.00356 0.0
H858 H 0.48906 0.34973 0.37748 0.0
H859 H 0.64028 0.47376 0.48182 0.0
H860 H 0.56529 0.40183 0.28952 0.0
H861 H 0.56716 0.41972 0.5752 0.0
H862 H 0.61574 0.4408 0.41345 0.0
H863 H 0.51917 0.36821 0.45222 0.0
C864 C 0.51218 0.36452 0.37395 0.0
C865 C 0.52463 0.37484 0.32755 0.0
C866 C 0.60518 0.43584 0.44906 0.0
C867 C 0.55905 0.39603 0.41212 0.0
C868 C 0.6193 0.45468 0.48824 0.0
C869 C 0.60556 0.44992 0.53413 0.0
C870 C 0.57688 0.41229 0.45546 0.0
C871 C 0.57846 0.42454 0.54029 0.0
C872 C 0.52935 0.37515 0.41647 0.0
C873 C 0.5547 0.39389 0.32476 0.0
N874 N 0.56472 0.40703 0.50115 0.0
N875 N 0.57075 0.40411 0.36635 0.0
H876 H 0.57966 0.15056 0.56376 0.0
H877 H 0.58578 0.1513 0.27216 0.0
H878 H 0.51997 0.16004 0.46823 0.0
H879 H 0.64771 0.14285 0.36295 0.0
H880 H 0.56759 0.16384 0.34436 0.0
H881 H 0.61066 0.15738 0.49278 0.0
C882 C 0.57335 0.15474 0.52811 0.0
C883 C 0.54672 0.154 0.52182 0.0
C884 C 0.58529 0.15949 0.34879 0.0
C885 C 0.58211 0.16159 0.44041 0.0
C886 C 0.59566 0.15219 0.30746 0.0
C887 C 0.61786 0.14535 0.31175 0.0
C888 C 0.59673 0.15943 0.39531 0.0
C889 C 0.63029 0.14759 0.35824 0.0
C890 C 0.59107 0.15852 0.48754 0.0
C891 C 0.53998 0.1599 0.47484 0.0
N892 N 0.61915 0.1539 0.39854 0.0
N893 N 0.55729 0.16296 0.43589 0.0
H894 H 0.86177 0.51418 0.37202 0.0
H895 H 0.83637 0.36409 0.4826 0.0
H896 H 0.84615 0.43923 0.28703 0.0
H897 H 0.8573 0.43885 0.57288 0.0
H898 H 0.82883 0.38836 0.4128 0.0
H899 H 0.85028 0.48459 0.44753 0.0
C900 C 0.85544 0.49145 0.36922 0.0
C901 C 0.85555 0.47928 0.32347 0.0
C902 C 0.83468 0.39937 0.44802 0.0
C903 C 0.84225 0.44544 0.40888 0.0
C904 C 0.83887 0.38541 0.48802 0.0
C905 C 0.84808 0.39965 0.53345 0.0
C906 C 0.84015 0.428 0.45313 0.0
C907 C 0.85057 0.42716 0.53834 0.0
C908 C 0.84895 0.4746 0.41218 0.0
C909 C 0.84701 0.44969 0.32167 0.0
N910 N 0.84724 0.44071 0.4984 0.0
N911 N 0.84099 0.43394 0.36363 0.0
H912 H 0.30718 0.38981 0.20766 0.0
H913 H 0.36022 0.30548 0.12348 0.0
H914 H 0.30959 0.3591 0.35369 0.0
H915 H 0.39004 0.31214 0.27315 0.0
H916 H 0.32268 0.31563 0.15174 0.0
H917 H 0.31822 0.35412 0.17371 0.0
C918 C 0.30881 0.37474 0.23251 0.0
C919 C 0.30814 0.37798 0.28367 0.0
C920 C 0.33721 0.31467 0.17858 0.0
C921 C 0.32109 0.3369 0.24512 0.0
C922 C 0.35842 0.3084 0.16255 0.0
C923 C 0.37884 0.30876 0.19586 0.0
C924 C 0.33672 0.32182 0.2282 0.0
C925 C 0.37504 0.31204 0.24607 0.0
C926 C 0.31522 0.35422 0.21307 0.0
C927 C 0.31056 0.35784 0.31401 0.0
N928 N 0.35487 0.31914 0.26057 0.0
N929 N 0.31774 0.33877 0.2944 0.0
H930 H 0.61595 0.92097 0.20908 0.0
H931 H 0.6959 0.08496 0.27281 0.0
H932 H 0.64143 0.95272 0.35738 0.0
H933 H 0.69457 0.05347 0.12584 0.0
H934 H 0.68492 0.03768 0.30542 0.0
H935 H 0.65266 0.96848 0.17788 0.0
C936 C 0.6299 0.93755 0.23511 0.0
C937 C 0.62499 0.93303 0.28594 0.0
C938 C 0.68781 0.04134 0.26608 0.0
C939 C 0.66651 0.98778 0.25054 0.0
C940 C 0.69431 0.06851 0.24746 0.0
C941 C 0.69535 0.07301 0.1964 0.0
C942 C 0.68192 0.01849 0.23336 0.0
C943 C 0.69319 0.05078 0.16545 0.0
C944 C 0.65078 0.96483 0.21728 0.0
C945 C 0.64389 0.95542 0.31783 0.0
N946 N 0.68577 0.02427 0.18426 0.0
N947 N 0.66321 0.98201 0.29968 0.0
H948 H 0.08482 0.69709 0.21 0.0
H949 H 0.92048 0.61667 0.27215 0.0
H950 H 0.05251 0.69393 0.35698 0.0
H951 H 0.953 0.64223 0.12423 0.0
H952 H 0.96781 0.65329 0.30392 0.0
H953 H 0.0377 0.68636 0.17714 0.0
C954 C 0.0682 0.69512 0.23534 0.0
C955 C 0.07243 0.69558 0.28641 0.0
C956 C 0.96438 0.65145 0.26447 0.0
C957 C 0.01811 0.68247 0.24912 0.0
C958 C 0.93719 0.63062 0.24631 0.0
C959 C 0.93295 0.62574 0.19543 0.0
C960 C 0.9875 0.66718 0.23151 0.0
C961 C 0.9555 0.64465 0.1638 0.0
C962 C 0.04113 0.68877 0.21656 0.0
C963 C 0.05002 0.693 0.31734 0.0
N964 N 0.98199 0.66394 0.18229 0.0
N965 N 0.02362 0.68576 0.29833 0.0
H966 H 0.64537 0.69941 0.85816 0.0
H967 H 0.69729 0.61403 0.77384 0.0
H968 H 0.61123 0.68892 0.71083 0.0
H969 H 0.69012 0.64084 0.62698 0.0
H970 H 0.68649 0.65001 0.8071 0.0
H971 H 0.68219 0.68872 0.82794 0.0
C972 C 0.64603 0.6955 0.81915 0.0
C973 C 0.62462 0.69424 0.78721 0.0
C974 C 0.68836 0.64899 0.7676 0.0
C975 C 0.66595 0.6806 0.75272 0.0
C976 C 0.69461 0.62827 0.74853 0.0
C977 C 0.69393 0.62384 0.69751 0.0
C978 C 0.68129 0.66532 0.73534 0.0
C979 C 0.69023 0.64301 0.66663 0.0
C980 C 0.66684 0.68893 0.80204 0.0
C981 C 0.62699 0.68973 0.73695 0.0
N982 N 0.68325 0.66229 0.68598 0.0
N983 N 0.64682 0.68239 0.72146 0.0
H984 H 0.31073 0.95015 0.85956 0.0
H985 H 0.35743 0.052 0.62422 0.0
H986 H 0.30724 0.92085 0.71025 0.0
H987 H 0.38832 0.08127 0.77177 0.0
H988 H 0.32171 0.00472 0.65711 0.0
H989 H 0.32101 0.99738 0.8283 0.0
C990 C 0.31117 0.95329 0.82008 0.0
C991 C 0.30892 0.93169 0.78749 0.0
C992 C 0.33576 0.02174 0.6824 0.0
C993 C 0.32083 0.9859 0.75164 0.0
C994 C 0.35613 0.04886 0.66375 0.0
C995 C 0.37655 0.07047 0.69517 0.0
C996 C 0.33563 0.01619 0.73287 0.0
C997 C 0.37335 0.0652 0.74606 0.0
C998 C 0.31719 0.98037 0.80235 0.0
C999 C 0.30919 0.93692 0.73678 0.0
N1000 N 0.35374 0.03835 0.76326 0.0
N1001 N 0.31577 0.96375 0.7204 0.0
H1002 H 0.95045 0.31063 0.62362 0.0
H1003 H 0.05276 0.35929 0.85859 0.0
H1004 H 0.92134 0.30847 0.77266 0.0
H1005 H 0.0818 0.38937 0.71059 0.0
H1006 H 0.00538 0.32351 0.82621 0.0
H1007 H 0.99781 0.3215 0.65508 0.0
C1008 C 0.95366 0.31149 0.66312 0.0
C1009 C 0.93205 0.30941 0.69552 0.0
C1010 C 0.02236 0.3374 0.80072 0.0
C1011 C 0.98642 0.322 0.73159 0.0
C1012 C 0.04953 0.3578 0.81907 0.0
C1013 C 0.07113 0.37799 0.78736 0.0
C1014 C 0.01674 0.33699 0.75024 0.0
C1015 C 0.06575 0.37456 0.73651 0.0
C1016 C 0.98082 0.31785 0.68095 0.0
C1017 C 0.93739 0.31024 0.74627 0.0
N1018 N 0.03885 0.3549 0.71959 0.0
N1019 N 0.96429 0.31713 0.76273 0.0
H1020 H 0.3883 0.18938 0.81949 0.0
H1021 H 0.47361 0.29953 0.01958 0.0
H1022 H 0.45094 0.18072 0.90858 0.0
H1023 H 0.3865 0.24149 0.07012 0.0
H1024 H 0.46295 0.27029 0.94452 0.0
H1025 H 0.38374 0.21858 0.88522 0.0
C1026 C 0.40034 0.19267 0.85334 0.0
C1027 C 0.42075 0.18324 0.8578 0.0
C1028 C 0.44586 0.26482 0.97126 0.0
C1029 C 0.41609 0.21708 0.93141 0.0
C1030 C 0.45176 0.2817 0.01358 0.0
C1031 C 0.43099 0.27258 0.05106 0.0
C1032 C 0.41897 0.23923 0.96653 0.0
C1033 C 0.40309 0.24895 0.04191 0.0
C1034 C 0.39792 0.20963 0.89034 0.0
C1035 C 0.43544 0.188 0.90283 0.0
N1036 N 0.39802 0.23245 0.00093 0.0
N1037 N 0.43349 0.20536 0.9373 0.0
H1038 H 0.70147 0.15699 0.01253 0.0
H1039 H 0.78859 0.19032 0.8014 0.0
H1040 H 0.77845 0.16834 0.0861 0.0
H1041 H 0.83695 0.26126 0.90227 0.0
H1042 H 0.76391 0.15848 0.87135 0.0
H1043 H 0.72794 0.1684 0.93387 0.0
C1044 C 0.72344 0.16073 0.01195 0.0
C1045 C 0.73804 0.16249 0.0559 0.0
C1046 C 0.78063 0.18077 0.8779 0.0
C1047 C 0.76823 0.17604 0.96728 0.0
C1048 C 0.79504 0.19898 0.83825 0.0
C1049 C 0.8147 0.22871 0.84606 0.0
C1050 C 0.78668 0.19221 0.92549 0.0
C1051 C 0.82185 0.23861 0.89464 0.0
C1052 C 0.73854 0.16733 0.96725 0.0
C1053 C 0.76664 0.16756 0.0531 0.0
N1054 N 0.80761 0.22038 0.93268 0.0
N1055 N 0.7812 0.17529 0.0098 0.0
H1056 H 0.83657 0.53769 0.0136 0.0
H1057 H 0.80781 0.6123 0.81107 0.0
H1058 H 0.8522 0.61835 0.07805 0.0
H1059 H 0.73672 0.56334 0.91161 0.0
H1060 H 0.842 0.61877 0.87696 0.0
H1061 H 0.82098 0.55085 0.93736 0.0
C1062 C 0.83828 0.55883 0.0108 0.0
C1063 C 0.84519 0.5768 0.05214 0.0
C1064 C 0.81891 0.60739 0.88454 0.0
C1065 C 0.82705 0.59145 0.96645 0.0
C1066 C 0.79929 0.60388 0.84734 0.0
C1067 C 0.76915 0.5865 0.85539 0.0
C1068 C 0.80821 0.59396 0.92994 0.0
C1069 C 0.75964 0.57641 0.90336 0.0
C1070 C 0.8291 0.56614 0.96765 0.0
C1071 C 0.84661 0.6038 0.0469 0.0
N1072 N 0.77914 0.57972 0.93862 0.0
N1073 N 0.83653 0.60992 0.00533 0.0
H1074 H 0.23683 0.38344 0.4065 0.0
H1075 H 0.17444 0.44408 0.57376 0.0
H1076 H 0.29693 0.46678 0.46895 0.0
H1077 H 0.19413 0.3904 0.66744 0.0
H1078 H 0.20126 0.43713 0.5071 0.0
H1079 H 0.20697 0.37154 0.48111 0.0
C1080 C 0.24453 0.39857 0.43706 0.0
C1081 C 0.26916 0.42626 0.43164 0.0
C1082 C 0.19891 0.42633 0.54206 0.0
C1083 C 0.23504 0.41301 0.51549 0.0
C1084 C 0.1834 0.42998 0.57992 0.0
C1085 C 0.18267 0.4185 0.62679 0.0
C1086 C 0.21343 0.41092 0.55105 0.0
C1087 C 0.19455 0.40012 0.6322 0.0
C1088 C 0.22736 0.39183 0.47917 0.0
C1089 C 0.27813 0.44524 0.47183 0.0
N1090 N 0.21026 0.39754 0.59507 0.0
N1091 N 0.26045 0.43866 0.51163 0.0
H1092 H 0.55618 0.7297 0.57085 0.0
H1093 H 0.61794 0.85754 0.40871 0.0
H1094 H 0.61245 0.80285 0.66278 0.0
H1095 H 0.53171 0.82714 0.46487 0.0
H1096 H 0.62942 0.83871 0.48283 0.0
H1097 H 0.56157 0.76352 0.50532 0.0
C1098 C 0.57052 0.75272 0.5768 0.0
C1099 C 0.58312 0.7634 0.62308 0.0
C1100 C 0.60848 0.83738 0.47972 0.0
C1101 C 0.58905 0.80185 0.54845 0.0
C1102 C 0.60199 0.84836 0.43795 0.0
C1103 C 0.57378 0.84368 0.43083 0.0
C1104 C 0.58645 0.82151 0.51375 0.0
C1105 C 0.5537 0.83127 0.46918 0.0
C1106 C 0.57326 0.77193 0.53959 0.0
C1107 C 0.60183 0.79361 0.62807 0.0
N1108 N 0.56009 0.81959 0.50841 0.0
N1109 N 0.60368 0.81198 0.59151 0.0
H1110 H 0.19071 0.78967 0.68056 0.0
H1111 H 0.15682 0.7026 0.46946 0.0
H1112 H 0.26137 0.83803 0.57916 0.0
H1113 H 0.16795 0.77957 0.39602 0.0
H1114 H 0.16841 0.7291 0.54807 0.0
H1115 H 0.15866 0.76509 0.61082 0.0
C1116 C 0.19926 0.79615 0.64366 0.0
C1117 C 0.22899 0.81575 0.63563 0.0
C1118 C 0.16725 0.73969 0.51475 0.0
C1119 C 0.19224 0.78785 0.55643 0.0
C1120 C 0.16055 0.72458 0.47006 0.0
C1121 C 0.16219 0.73916 0.42613 0.0
C1122 C 0.17597 0.76939 0.51473 0.0
C1123 C 0.16726 0.76776 0.42898 0.0
C1124 C 0.18094 0.78179 0.60412 0.0
C1125 C 0.23873 0.82296 0.58697 0.0
N1126 N 0.1751 0.78234 0.47226 0.0
N1127 N 0.2204 0.80876 0.54904 0.0
H1128 H 0.54614 0.70198 0.9689 0.0
H1129 H 0.58172 0.8411 0.07965 0.0
H1130 H 0.61376 0.77731 0.89465 0.0
H1131 H 0.59682 0.78573 0.17694 0.0
H1132 H 0.59059 0.81768 0.00914 0.0
H1133 H 0.56105 0.72922 0.04683 0.0
C1134 C 0.56474 0.72374 0.96924 0.0
C1135 C 0.57822 0.7377 0.92519 0.0
C1136 C 0.59279 0.81139 0.04615 0.0
C1137 C 0.59455 0.76883 0.01291 0.0
C1138 C 0.58791 0.82482 0.08621 0.0
C1139 C 0.58853 0.81538 0.13412 0.0
C1140 C 0.59716 0.78776 0.05426 0.0
C1141 C 0.59625 0.79381 0.14059 0.0
C1142 C 0.57312 0.73929 0.01352 0.0
C1143 C 0.60223 0.76603 0.92769 0.0
N1144 N 0.59924 0.77995 0.10101 0.0
N1145 N 0.60896 0.78108 0.97049 0.0
H1146 H 0.24305 0.85808 0.9091 0.0
H1147 H 0.17653 0.73064 0.07211 0.0
H1148 H 0.29836 0.82706 0.96555 0.0
H1149 H 0.19397 0.80416 0.16353 0.0
H1150 H 0.20491 0.76422 0.00631 0.0
H1151 H 0.21282 0.83966 0.98334 0.0
C1152 C 0.24973 0.84884 0.93842 0.0
C1153 C 0.27305 0.84385 0.93135 0.0
C1154 C 0.20177 0.77276 0.04053 0.0
C1155 C 0.23833 0.82217 0.0144 0.0
C1156 C 0.18532 0.7537 0.07789 0.0
C1157 C 0.18359 0.76455 0.12411 0.0
C1158 C 0.21604 0.8027 0.04918 0.0
C1159 C 0.19522 0.79479 0.12887 0.0
C1160 C 0.23231 0.83811 0.98026 0.0
C1161 C 0.28063 0.83141 0.96981 0.0
N1162 N 0.21171 0.81302 0.09218 0.0
N1163 N 0.26262 0.81997 0.00912 0.0
H1164 H 0.15881 0.3852 0.89749 0.0
H1165 H 0.26568 0.42949 0.07882 0.0
H1166 H 0.16296 0.45907 0.97111 0.0
H1167 H 0.19239 0.40129 0.17666 0.0
H1168 H 0.233 0.42019 0.00869 0.0
H1169 H 0.17425 0.37227 0.9736 0.0
C1170 C 0.16173 0.39798 0.93029 0.0
C1171 C 0.16033 0.42369 0.92785 0.0
C1172 C 0.22414 0.41528 0.04564 0.0
C1173 C 0.17749 0.40868 0.01437 0.0
C1174 C 0.24266 0.42039 0.08548 0.0
C1175 C 0.23182 0.41626 0.13362 0.0
C1176 C 0.19496 0.40678 0.05432 0.0
C1177 C 0.20172 0.40471 0.14015 0.0
C1178 C 0.17063 0.39059 0.97339 0.0
C1179 C 0.164 0.43925 0.97141 0.0
N1180 N 0.18444 0.40134 0.10097 0.0
N1181 N 0.17316 0.43186 0.01293 0.0
H1182 H 0.83939 0.58075 0.40323 0.0
H1183 H 0.77151 0.61558 0.58697 0.0
H1184 H 0.78439 0.59641 0.30596 0.0
H1185 H 0.70268 0.54056 0.51434 0.0
H1186 H 0.79911 0.62951 0.5101 0.0
H1187 H 0.81517 0.58849 0.47381 0.0
C1188 C 0.82305 0.58684 0.3967 0.0
C1189 C 0.81398 0.58798 0.3487 0.0
C1190 C 0.77752 0.61065 0.51072 0.0
C1191 C 0.7856 0.59552 0.42864 0.0
C1192 C 0.76165 0.60269 0.55426 0.0
C1193 C 0.73507 0.57647 0.55715 0.0
C1194 C 0.7664 0.59257 0.46968 0.0
C1195 C 0.72316 0.56079 0.51368 0.0
C1196 C 0.80916 0.59107 0.4368 0.0
C1197 C 0.79225 0.59551 0.34234 0.0
N1198 N 0.73928 0.56878 0.47164 0.0
N1199 N 0.77804 0.59798 0.38192 0.0
H1200 H 0.39946 0.18759 0.30266 0.0
H1201 H 0.38539 0.16144 0.58872 0.0
H1202 H 0.41757 0.25734 0.40371 0.0
H1203 H 0.45392 0.15738 0.51059 0.0
H1204 H 0.37057 0.17427 0.51201 0.0
H1205 H 0.39268 0.15588 0.37265 0.0
C1206 C 0.40064 0.19593 0.33949 0.0
C1207 C 0.40939 0.22538 0.34738 0.0
C1208 C 0.38812 0.16948 0.51152 0.0
C1209 C 0.40118 0.18892 0.42689 0.0
C1210 C 0.39665 0.16213 0.55505 0.0
C1211 C 0.42149 0.15916 0.55616 0.0
C1212 C 0.40401 0.17304 0.46868 0.0
C1213 C 0.43488 0.15977 0.51139 0.0
C1214 C 0.39707 0.1778 0.37919 0.0
C1215 C 0.41096 0.2349 0.39598 0.0
N1216 N 0.42631 0.1673 0.46929 0.0
N1217 N 0.4072 0.21674 0.43408 0.0
H1218 H 0.73046 0.17728 0.40963 0.0
H1219 H 0.85733 0.24148 0.57236 0.0
H1220 H 0.80332 0.19419 0.31689 0.0
H1221 H 0.82876 0.29871 0.51545 0.0
H1222 H 0.83867 0.21156 0.49789 0.0
H1223 H 0.76446 0.2052 0.47524 0.0
C1224 C 0.75345 0.18587 0.4035 0.0
C1225 C 0.764 0.18409 0.35703 0.0
C1226 C 0.83773 0.23138 0.50093 0.0
C1227 C 0.80265 0.21604 0.43171 0.0
C1228 C 0.8486 0.24863 0.54292 0.0
C1229 C 0.8443 0.2724 0.54995 0.0
C1230 C 0.82242 0.23806 0.46654 0.0
C1231 C 0.83253 0.2806 0.51127 0.0
C1232 C 0.77276 0.20204 0.44076 0.0
C1233 C 0.79418 0.19547 0.35177 0.0
N1234 N 0.82096 0.26277 0.47178 0.0
N1235 N 0.81265 0.21172 0.38837 0.0
loop_
_geom_bond_atom_site_label_1
_geom_bond_atom_site_label_2
_geom_bond_distance
_geom_bond_site_symmetry_2
_ccdc_geom_bond_type
C0 O12 1.241 . S
C0 O13 1.280 . S
C1 O14 1.277 . S
C1 O15 1.243 1_556 S
C2 O26 1.247 . S
C2 O28 1.289 . S
Mg3 O4 1.926 . S
Mg3 O13 1.984 . S
Mg3 O15 1.988 . S
Mg3 O16 2.061 . S
O4 Mg3 1.926 . S
O4 Mg5 1.986 . S
O4 Mg6 1.917 . S
Mg5 O4 1.986 . S
Mg5 O12 2.042 . S
Mg5 O14 2.041 1_554 S
Mg5 O20 2.038 . S
Mg5 O28 2.238 . S
Mg6 O4 1.917 . S
Mg6 O7 1.917 . S
Mg6 O17 2.106 . S
Mg6 O19 2.079 . S
Mg6 O28 2.106 . S
Mg6 O29 2.079 . S
O7 Mg6 1.917 . S
O7 Mg8 1.926 . S
O7 Mg9 1.986 . S
Mg8 O7 1.926 . S
Mg8 O22 1.984 . S
Mg8 O25 1.988 . S
Mg8 O26 2.061 . S
Mg9 O7 1.986 . S
Mg9 O17 2.238 . S
Mg9 O21 2.042 . S
Mg9 O23 2.041 . S
Mg9 O30 2.038 . S
C10 O16 1.247 . S
C10 O17 1.289 . S
C11 O29 1.245 . S
C11 O30 1.274 . S
O12 C0 1.241 . S
O12 Mg5 2.042 . S
O13 C0 1.280 . S
O13 Mg3 1.984 . S
O14 C1 1.277 . S
O14 Mg5 2.041 1_556 S
O15 C1 1.243 1_554 S
O15 Mg3 1.988 . S
O16 Mg3 2.061 . S
O16 C10 1.247 . S
O17 Mg6 2.106 . S
O17 Mg9 2.238 . S
O17 C10 1.289 . S
C18 O19 1.245 . S
C18 O20 1.274 . S
O19 Mg6 2.079 . S
O19 C18 1.245 . S
O20 Mg5 2.038 . S
O20 C18 1.274 . S
O21 Mg9 2.042 . S
O21 C24 1.241 . S
O22 Mg8 1.984 . S
O22 C24 1.280 . S
O23 Mg9 2.041 . S
O23 C27 1.277 . S
C24 O21 1.241 . S
C24 O22 1.280 . S
O25 Mg8 1.988 . S
O25 C27 1.245 . S
O26 C2 1.247 . S
O26 Mg8 2.061 . S
C27 O23 1.277 . S
C27 O25 1.245 . S
O28 C2 1.289 . S
O28 Mg5 2.238 . S
O28 Mg6 2.106 . S
O29 Mg6 2.079 . S
O29 C11 1.245 . S
O30 Mg9 2.038 . S
O30 C11 1.274 . S
C31 O43 1.241 . S
C31 O44 1.280 . S
C32 O45 1.277 . S
C32 O46 1.243 1_556 S
C33 O57 1.247 . S
C33 O59 1.289 . S
Mg34 O35 1.926 . S
Mg34 O44 1.984 . S
Mg34 O46 1.988 . S
Mg34 O47 2.061 . S
O35 Mg34 1.926 . S
O35 Mg36 1.986 . S
O35 Mg37 1.917 . S
Mg36 O35 1.986 . S
Mg36 O43 2.042 . S
Mg36 O45 2.041 1_554 S
Mg36 O51 2.038 . S
Mg36 O59 2.238 . S
Mg37 O35 1.917 . S
Mg37 O38 1.917 . S
Mg37 O48 2.106 . S
Mg37 O50 2.079 . S
Mg37 O59 2.106 . S
Mg37 O60 2.079 . S
O38 Mg37 1.917 . S
O38 Mg39 1.926 . S
O38 Mg40 1.986 . S
Mg39 O38 1.926 . S
Mg39 O53 1.984 . S
Mg39 O56 1.988 . S
Mg39 O57 2.061 . S
Mg40 O38 1.986 . S
Mg40 O48 2.238 . S
Mg40 O52 2.042 . S
Mg40 O54 2.041 . S
Mg40 O61 2.038 . S
C41 O47 1.247 . S
C41 O48 1.289 . S
C42 O60 1.245 . S
C42 O61 1.274 . S
O43 C31 1.241 . S
O43 Mg36 2.042 . S
O44 C31 1.280 . S
O44 Mg34 1.984 . S
O45 C32 1.277 . S
O45 Mg36 2.041 1_556 S
O46 C32 1.243 1_554 S
O46 Mg34 1.988 . S
O47 Mg34 2.061 . S
O47 C41 1.247 . S
O48 Mg37 2.106 . S
O48 Mg40 2.238 . S
O48 C41 1.289 . S
C49 O50 1.245 . S
C49 O51 1.274 . S
O50 Mg37 2.079 . S
O50 C49 1.245 . S
O51 Mg36 2.038 . S
O51 C49 1.274 . S
O52 Mg40 2.042 . S
O52 C55 1.241 . S
O53 Mg39 1.984 . S
O53 C55 1.280 . S
O54 Mg40 2.041 . S
O54 C58 1.277 . S
C55 O52 1.241 . S
C55 O53 1.280 . S
O56 Mg39 1.988 . S
O56 C58 1.245 . S
O57 C33 1.247 . S
O57 Mg39 2.061 . S
C58 O54 1.277 . S
C58 O56 1.245 . S
O59 C33 1.289 . S
O59 Mg36 2.238 . S
O59 Mg37 2.106 . S
O60 Mg37 2.079 . S
O60 C42 1.245 . S
O61 Mg40 2.038 . S
O61 C42 1.274 . S
C62 O74 1.241 . S
C62 O75 1.280 . S
C63 O76 1.277 . S
C63 O77 1.243 1_556 S
C64 O88 1.247 . S
C64 O90 1.289 . S
Mg65 O66 1.926 . S
Mg65 O75 1.984 . S
Mg65 O77 1.988 . S
Mg65 O78 2.061 . S
O66 Mg65 1.926 . S
O66 Mg67 1.986 . S
O66 Mg68 1.917 . S
Mg67 O66 1.986 . S
Mg67 O74 2.042 . S
Mg67 O76 2.041 1_554 S
Mg67 O82 2.038 . S
Mg67 O90 2.238 . S
Mg68 O66 1.917 . S
Mg68 O69 1.917 . S
Mg68 O79 2.106 . S
Mg68 O81 2.079 . S
Mg68 O90 2.106 . S
Mg68 O91 2.079 . S
O69 Mg68 1.917 . S
O69 Mg70 1.926 . S
O69 Mg71 1.986 . S
Mg70 O69 1.926 . S
Mg70 O84 1.984 . S
Mg70 O87 1.988 . S
Mg70 O88 2.061 . S
Mg71 O69 1.986 . S
Mg71 O79 2.238 . S
Mg71 O83 2.042 . S
Mg71 O85 2.041 . S
Mg71 O92 2.038 . S
C72 O78 1.247 . S
C72 O79 1.289 . S
C73 O91 1.245 . S
C73 O92 1.274 . S
O74 C62 1.241 . S
O74 Mg67 2.042 . S
O75 C62 1.280 . S
O75 Mg65 1.984 . S
O76 C63 1.277 . S
O76 Mg67 2.041 1_556 S
O77 C63 1.243 1_554 S
O77 Mg65 1.988 . S
O78 Mg65 2.061 . S
O78 C72 1.247 . S
O79 Mg68 2.106 . S
O79 Mg71 2.238 . S
O79 C72 1.289 . S
C80 O81 1.245 . S
C80 O82 1.274 . S
O81 Mg68 2.079 . S
O81 C80 1.245 . S
O82 Mg67 2.038 . S
O82 C80 1.274 . S
O83 Mg71 2.042 . S
O83 C86 1.241 . S
O84 Mg70 1.984 . S
O84 C86 1.280 . S
O85 Mg71 2.041 . S
O85 C89 1.277 . S
C86 O83 1.241 . S
C86 O84 1.280 . S
O87 Mg70 1.988 . S
O87 C89 1.245 . S
O88 C64 1.247 . S
O88 Mg70 2.061 . S
C89 O85 1.277 . S
C89 O87 1.245 . S
O90 C64 1.289 . S
O90 Mg67 2.238 . S
O90 Mg68 2.106 . S
O91 Mg68 2.079 . S
O91 C73 1.245 . S
O92 Mg71 2.038 . S
O92 C73 1.274 . S
C93 O105 1.241 . S
C93 O106 1.280 . S
C94 O107 1.277 . S
C94 O108 1.245 . S
C95 O119 1.247 . S
C95 O121 1.289 . S
Mg96 O97 1.926 . S
Mg96 O106 1.984 . S
Mg96 O108 1.988 . S
Mg96 O109 2.061 . S
O97 Mg96 1.926 . S
O97 Mg98 1.986 . S
O97 Mg99 1.917 . S
Mg98 O97 1.986 . S
Mg98 O105 2.042 . S
Mg98 O107 2.041 . S
Mg98 O113 2.038 . S
Mg98 O121 2.238 . S
Mg99 O97 1.917 . S
Mg99 O100 1.917 . S
Mg99 O110 2.106 . S
Mg99 O112 2.079 . S
Mg99 O121 2.106 . S
Mg99 O122 2.079 . S
O100 Mg99 1.917 . S
O100 Mg101 1.926 . S
O100 Mg102 1.986 . S
Mg101 O100 1.926 . S
Mg101 O115 1.984 . S
Mg101 O118 1.988 . S
Mg101 O119 2.061 . S
Mg102 O100 1.986 . S
Mg102 O110 2.238 . S
Mg102 O114 2.042 . S
Mg102 O116 2.041 . S
Mg102 O123 2.038 . S
C103 O109 1.247 . S
C103 O110 1.289 . S
C104 O122 1.245 . S
C104 O123 1.274 . S
O105 C93 1.241 . S
O105 Mg98 2.042 . S
O106 C93 1.280 . S
O106 Mg96 1.984 . S
O107 C94 1.277 . S
O107 Mg98 2.041 . S
O108 C94 1.245 . S
O108 Mg96 1.988 . S
O109 Mg96 2.061 . S
O109 C103 1.247 . S
O110 Mg99 2.106 . S
O110 Mg102 2.238 . S
O110 C103 1.289 . S
C111 O112 1.245 . S
C111 O113 1.274 . S
O112 Mg99 2.079 . S
O112 C111 1.245 . S
O113 Mg98 2.038 . S
O113 C111 1.274 . S
O114 Mg102 2.042 . S
O114 C117 1.241 . S
O115 Mg101 1.984 . S
O115 C117 1.280 . S
O116 Mg102 2.041 . S
O116 C120 1.277 . S
C117 O114 1.241 . S
C117 O115 1.280 . S
O118 Mg101 1.988 . S
O118 C120 1.245 . S
O119 C95 1.247 . S
O119 Mg101 2.061 . S
C120 O116 1.277 . S
C120 O118 1.245 . S
O121 C95 1.289 . S
O121 Mg98 2.238 . S
O121 Mg99 2.106 . S
O122 Mg99 2.079 . S
O122 C104 1.245 . S
O123 Mg102 2.038 . S
O123 C104 1.274 . S
C124 O136 1.241 . S
C124 O137 1.280 . S
C125 O138 1.277 . S
C125 O139 1.245 . S
C126 O150 1.247 . S
C126 O152 1.289 . S
Mg127 O128 1.926 . S
Mg127 O137 1.984 . S
Mg127 O139 1.988 . S
Mg127 O140 2.061 . S
O128 Mg127 1.926 . S
O128 Mg129 1.986 . S
O128 Mg130 1.917 . S
Mg129 O128 1.986 . S
Mg129 O136 2.042 . S
Mg129 O138 2.041 . S
Mg129 O144 2.038 . S
Mg129 O152 2.238 . S
Mg130 O128 1.917 . S
Mg130 O131 1.917 . S
Mg130 O141 2.106 . S
Mg130 O143 2.079 . S
Mg130 O152 2.106 . S
Mg130 O153 2.079 . S
O131 Mg130 1.917 . S
O131 Mg132 1.926 . S
O131 Mg133 1.986 . S
Mg132 O131 1.926 . S
Mg132 O146 1.984 . S
Mg132 O149 1.988 . S
Mg132 O150 2.061 . S
Mg133 O131 1.986 . S
Mg133 O141 2.238 . S
Mg133 O145 2.042 . S
Mg133 O147 2.041 . S
Mg133 O154 2.038 . S
C134 O140 1.247 . S
C134 O141 1.289 . S
C135 O153 1.245 . S
C135 O154 1.274 . S
O136 C124 1.241 . S
O136 Mg129 2.042 . S
O137 C124 1.280 . S
O137 Mg127 1.984 . S
O138 C125 1.277 . S
O138 Mg129 2.041 . S
O139 C125 1.245 . S
O139 Mg127 1.988 . S
O140 Mg127 2.061 . S
O140 C134 1.247 . S
O141 Mg130 2.106 . S
O141 Mg133 2.238 . S
O141 C134 1.289 . S
C142 O143 1.245 . S
C142 O144 1.274 . S
O143 Mg130 2.079 . S
O143 C142 1.245 . S
O144 Mg129 2.038 . S
O144 C142 1.274 . S
O145 Mg133 2.042 . S
O145 C148 1.241 . S
O146 Mg132 1.984 . S
O146 C148 1.280 . S
O147 Mg133 2.041 . S
O147 C151 1.277 . S
C148 O145 1.241 . S
C148 O146 1.280 . S
O149 Mg132 1.988 . S
O149 C151 1.245 . S
O150 C126 1.247 . S
O150 Mg132 2.061 . S
C151 O147 1.277 . S
C151 O149 1.245 . S
O152 C126 1.289 . S
O152 Mg129 2.238 . S
O152 Mg130 2.106 . S
O153 Mg130 2.079 . S
O153 C135 1.245 . S
O154 Mg133 2.038 . S
O154 C135 1.274 . S
C155 O167 1.241 . S
C155 O168 1.280 . S
C156 O169 1.277 . S
C156 O170 1.245 . S
C157 O181 1.247 . S
C157 O183 1.289 . S
Mg158 O159 1.926 . S
Mg158 O168 1.984 . S
Mg158 O170 1.988 . S
Mg158 O171 2.061 . S
O159 Mg158 1.926 . S
O159 Mg160 1.986 . S
O159 Mg161 1.917 . S
Mg160 O159 1.986 . S
Mg160 O167 2.042 . S
Mg160 O169 2.041 . S
Mg160 O175 2.038 . S
Mg160 O183 2.238 . S
Mg161 O159 1.917 . S
Mg161 O162 1.917 . S
Mg161 O172 2.106 . S
Mg161 O174 2.079 . S
Mg161 O183 2.106 . S
Mg161 O184 2.079 . S
O162 Mg161 1.917 . S
O162 Mg163 1.926 . S
O162 Mg164 1.986 . S
Mg163 O162 1.926 . S
Mg163 O177 1.984 . S
Mg163 O180 1.988 . S
Mg163 O181 2.061 . S
Mg164 O162 1.986 . S
Mg164 O172 2.238 . S
Mg164 O176 2.042 . S
Mg164 O178 2.041 . S
Mg164 O185 2.038 . S
C165 O171 1.247 . S
C165 O172 1.289 . S
C166 O184 1.245 . S
C166 O185 1.274 . S
O167 C155 1.241 . S
O167 Mg160 2.042 . S
O168 C155 1.280 . S
O168 Mg158 1.984 . S
O169 C156 1.277 . S
O169 Mg160 2.041 . S
O170 C156 1.245 . S
O170 Mg158 1.988 . S
O171 Mg158 2.061 . S
O171 C165 1.247 . S
O172 Mg161 2.106 . S
O172 Mg164 2.238 . S
O172 C165 1.289 . S
C173 O174 1.245 . S
C173 O175 1.274 . S
O174 Mg161 2.079 . S
O174 C173 1.245 . S
O175 Mg160 2.038 . S
O175 C173 1.274 . S
O176 Mg164 2.042 . S
O176 C179 1.241 . S
O177 Mg163 1.984 . S
O177 C179 1.280 . S
O178 Mg164 2.041 . S
O178 C182 1.277 . S
C179 O176 1.241 . S
C179 O177 1.280 . S
O180 Mg163 1.988 . S
O180 C182 1.245 . S
O181 C157 1.247 . S
O181 Mg163 2.061 . S
C182 O178 1.277 . S
C182 O180 1.245 . S
O183 C157 1.289 . S
O183 Mg160 2.238 . S
O183 Mg161 2.106 . S
O184 Mg161 2.079 . S
O184 C166 1.245 . S
O185 Mg164 2.038 . S
O185 C166 1.274 . S
C186 O198 1.241 . S
C186 O199 1.280 . S
C187 O200 1.277 . S
C187 O201 1.245 . S
C188 O212 1.247 . S
C188 O214 1.289 . S
Mg189 O190 1.926 . S
Mg189 O199 1.984 . S
Mg189 O201 1.988 . S
Mg189 O202 2.061 . S
O190 Mg189 1.926 . S
O190 Mg191 1.986 . S
O190 Mg192 1.917 . S
Mg191 O190 1.986 . S
Mg191 O198 2.042 . S
Mg191 O200 2.041 . S
Mg191 O206 2.038 . S
Mg191 O214 2.238 . S
Mg192 O190 1.917 . S
Mg192 O193 1.917 . S
Mg192 O203 2.106 . S
Mg192 O205 2.079 . S
Mg192 O214 2.106 . S
Mg192 O215 2.079 . S
O193 Mg192 1.917 . S
O193 Mg194 1.926 . S
O193 Mg195 1.986 . S
Mg194 O193 1.926 . S
Mg194 O208 1.984 . S
Mg194 O211 1.988 . S
Mg194 O212 2.061 . S
Mg195 O193 1.986 . S
Mg195 O203 2.238 . S
Mg195 O207 2.042 . S
Mg195 O209 2.041 1_556 S
Mg195 O216 2.038 . S
C196 O202 1.247 . S
C196 O203 1.289 . S
C197 O215 1.245 . S
C197 O216 1.274 . S
O198 C186 1.241 . S
O198 Mg191 2.042 . S
O199 C186 1.280 . S
O199 Mg189 1.984 . S
O200 C187 1.277 . S
O200 Mg191 2.041 . S
O201 C187 1.245 . S
O201 Mg189 1.988 . S
O202 Mg189 2.061 . S
O202 C196 1.247 . S
O203 Mg192 2.106 . S
O203 Mg195 2.238 . S
O203 C196 1.289 . S
C204 O205 1.245 . S
C204 O206 1.274 . S
O205 Mg192 2.079 . S
O205 C204 1.245 . S
O206 Mg191 2.038 . S
O206 C204 1.274 . S
O207 Mg195 2.042 . S
O207 C210 1.241 . S
O208 Mg194 1.984 . S
O208 C210 1.280 . S
O209 Mg195 2.041 1_554 S
O209 C213 1.277 . S
C210 O207 1.241 . S
C210 O208 1.280 . S
O211 Mg194 1.988 . S
O211 C213 1.243 1_556 S
O212 C188 1.247 . S
O212 Mg194 2.061 . S
C213 O209 1.277 . S
C213 O211 1.243 1_554 S
O214 C188 1.289 . S
O214 Mg191 2.238 . S
O214 Mg192 2.106 . S
O215 Mg192 2.079 . S
O215 C197 1.245 . S
O216 Mg195 2.038 . S
O216 C197 1.274 . S
C217 O229 1.241 . S
C217 O230 1.280 . S
C218 O231 1.277 . S
C218 O232 1.245 . S
C219 O243 1.247 . S
C219 O245 1.289 . S
Mg220 O221 1.926 . S
Mg220 O230 1.984 . S
Mg220 O232 1.988 . S
Mg220 O233 2.061 . S
O221 Mg220 1.926 . S
O221 Mg222 1.986 . S
O221 Mg223 1.917 . S
Mg222 O221 1.986 . S
Mg222 O229 2.042 . S
Mg222 O231 2.041 . S
Mg222 O237 2.038 . S
Mg222 O245 2.238 . S
Mg223 O221 1.917 . S
Mg223 O224 1.917 . S
Mg223 O234 2.106 . S
Mg223 O236 2.079 . S
Mg223 O245 2.106 . S
Mg223 O246 2.079 . S
O224 Mg223 1.917 . S
O224 Mg225 1.926 . S
O224 Mg226 1.986 . S
Mg225 O224 1.926 . S
Mg225 O239 1.984 . S
Mg225 O242 1.988 . S
Mg225 O243 2.061 . S
Mg226 O224 1.986 . S
Mg226 O234 2.238 . S
Mg226 O238 2.042 . S
Mg226 O240 2.041 1_556 S
Mg226 O247 2.038 . S
C227 O233 1.247 . S
C227 O234 1.289 . S
C228 O246 1.245 . S
C228 O247 1.274 . S
O229 C217 1.241 . S
O229 Mg222 2.042 . S
O230 C217 1.280 . S
O230 Mg220 1.984 . S
O231 C218 1.277 . S
O231 Mg222 2.041 . S
O232 C218 1.245 . S
O232 Mg220 1.988 . S
O233 Mg220 2.061 . S
O233 C227 1.247 . S
O234 Mg223 2.106 . S
O234 Mg226 2.238 . S
O234 C227 1.289 . S
C235 O236 1.245 . S
C235 O237 1.274 . S
O236 Mg223 2.079 . S
O236 C235 1.245 . S
O237 Mg222 2.038 . S
O237 C235 1.274 . S
O238 Mg226 2.042 . S
O238 C241 1.241 . S
O239 Mg225 1.984 . S
O239 C241 1.280 . S
O240 Mg226 2.041 1_554 S
O240 C244 1.277 . S
C241 O238 1.241 . S
C241 O239 1.280 . S
O242 Mg225 1.988 . S
O242 C244 1.243 1_556 S
O243 C219 1.247 . S
O243 Mg225 2.061 . S
C244 O240 1.277 . S
C244 O242 1.243 1_554 S
O245 C219 1.289 . S
O245 Mg222 2.238 . S
O245 Mg223 2.106 . S
O246 Mg223 2.079 . S
O246 C228 1.245 . S
O247 Mg226 2.038 . S
O247 C228 1.274 . S
C248 O260 1.241 . S
C248 O261 1.280 . S
C249 O262 1.277 . S
C249 O263 1.245 . S
C250 O274 1.247 . S
C250 O276 1.289 . S
Mg251 O252 1.926 . S
Mg251 O261 1.984 . S
Mg251 O263 1.988 . S
Mg251 O264 2.061 . S
O252 Mg251 1.926 . S
O252 Mg253 1.986 . S
O252 Mg254 1.917 . S
Mg253 O252 1.986 . S
Mg253 O260 2.042 . S
Mg253 O262 2.041 . S
Mg253 O268 2.038 . S
Mg253 O276 2.238 . S
Mg254 O252 1.917 . S
Mg254 O255 1.917 . S
Mg254 O265 2.106 . S
Mg254 O267 2.079 . S
Mg254 O276 2.106 . S
Mg254 O277 2.079 . S
O255 Mg254 1.917 . S
O255 Mg256 1.926 . S
O255 Mg257 1.986 . S
Mg256 O255 1.926 . S
Mg256 O270 1.984 . S
Mg256 O273 1.988 . S
Mg256 O274 2.061 . S
Mg257 O255 1.986 . S
Mg257 O265 2.238 . S
Mg257 O269 2.042 . S
Mg257 O271 2.041 1_556 S
Mg257 O278 2.038 . S
C258 O264 1.247 . S
C258 O265 1.289 . S
C259 O277 1.245 . S
C259 O278 1.274 . S
O260 C248 1.241 . S
O260 Mg253 2.042 . S
O261 C248 1.280 . S
O261 Mg251 1.984 . S
O262 C249 1.277 . S
O262 Mg253 2.041 . S
O263 C249 1.245 . S
O263 Mg251 1.988 . S
O264 Mg251 2.061 . S
O264 C258 1.247 . S
O265 Mg254 2.106 . S
O265 Mg257 2.238 . S
O265 C258 1.289 . S
C266 O267 1.245 . S
C266 O268 1.274 . S
O267 Mg254 2.079 . S
O267 C266 1.245 . S
O268 Mg253 2.038 . S
O268 C266 1.274 . S
O269 Mg257 2.042 . S
O269 C272 1.241 . S
O270 Mg256 1.984 . S
O270 C272 1.280 . S
O271 Mg257 2.041 1_554 S
O271 C275 1.277 . S
C272 O269 1.241 . S
C272 O270 1.280 . S
O273 Mg256 1.988 . S
O273 C275 1.243 1_556 S
O274 C250 1.247 . S
O274 Mg256 2.061 . S
C275 O271 1.277 . S
C275 O273 1.243 1_554 S
O276 C250 1.289 . S
O276 Mg253 2.238 . S
O276 Mg254 2.106 . S
O277 Mg254 2.079 . S
O277 C259 1.245 . S
O278 Mg257 2.038 . S
O278 C259 1.274 . S
C279 O291 1.241 . S
C279 O292 1.280 . S
C280 O293 1.277 . S
C280 O294 1.245 . S
C281 O305 1.247 . S
C281 O307 1.289 . S
Mg282 O283 1.926 . S
Mg282 O292 1.984 . S
Mg282 O294 1.988 . S
Mg282 O295 2.061 . S
O283 Mg282 1.926 . S
O283 Mg284 1.986 . S
O283 Mg285 1.917 . S
Mg284 O283 1.986 . S
Mg284 O291 2.042 . S
Mg284 O293 2.041 . S
Mg284 O299 2.038 . S
Mg284 O307 2.238 . S
Mg285 O283 1.917 . S
Mg285 O286 1.917 . S
Mg285 O296 2.106 . S
Mg285 O298 2.079 . S
Mg285 O307 2.106 . S
Mg285 O308 2.079 . S
O286 Mg285 1.917 . S
O286 Mg287 1.926 . S
O286 Mg288 1.986 . S
Mg287 O286 1.926 . S
Mg287 O301 1.984 . S
Mg287 O304 1.988 . S
Mg287 O305 2.061 . S
Mg288 O286 1.986 . S
Mg288 O296 2.238 . S
Mg288 O300 2.042 . S
Mg288 O302 2.041 . S
Mg288 O309 2.038 . S
C289 O295 1.247 . S
C289 O296 1.289 . S
C290 O308 1.245 . S
C290 O309 1.274 . S
O291 C279 1.241 . S
O291 Mg284 2.042 . S
O292 C279 1.280 . S
O292 Mg282 1.984 . S
O293 C280 1.277 . S
O293 Mg284 2.041 . S
O294 C280 1.245 . S
O294 Mg282 1.988 . S
O295 Mg282 2.061 . S
O295 C289 1.247 . S
O296 Mg285 2.106 . S
O296 Mg288 2.238 . S
O296 C289 1.289 . S
C297 O298 1.245 . S
C297 O299 1.274 . S
O298 Mg285 2.079 . S
O298 C297 1.245 . S
O299 Mg284 2.038 . S
O299 C297 1.274 . S
O300 Mg288 2.042 . S
O300 C303 1.241 . S
O301 Mg287 1.984 . S
O301 C303 1.280 . S
O302 Mg288 2.041 . S
O302 C306 1.277 . S
C303 O300 1.241 . S
C303 O301 1.280 . S
O304 Mg287 1.988 . S
O304 C306 1.245 . S
O305 C281 1.247 . S
O305 Mg287 2.061 . S
C306 O302 1.277 . S
C306 O304 1.245 . S
O307 C281 1.289 . S
O307 Mg284 2.238 . S
O307 Mg285 2.106 . S
O308 Mg285 2.079 . S
O308 C290 1.245 . S
O309 Mg288 2.038 . S
O309 C290 1.274 . S
C310 O322 1.241 . S
C310 O323 1.280 . S
C311 O324 1.277 . S
C311 O325 1.245 . S
C312 O336 1.247 . S
C312 O338 1.289 . S
Mg313 O314 1.926 . S
Mg313 O323 1.984 . S
Mg313 O325 1.988 . S
Mg313 O326 2.061 . S
O314 Mg313 1.926 . S
O314 Mg315 1.986 . S
O314 Mg316 1.917 . S
Mg315 O314 1.986 . S
Mg315 O322 2.042 . S
Mg315 O324 2.041 . S
Mg315 O330 2.038 . S
Mg315 O338 2.238 . S
Mg316 O314 1.917 . S
Mg316 O317 1.917 . S
Mg316 O327 2.106 . S
Mg316 O329 2.079 . S
Mg316 O338 2.106 . S
Mg316 O339 2.079 . S
O317 Mg316 1.917 . S
O317 Mg318 1.926 . S
O317 Mg319 1.986 . S
Mg318 O317 1.926 . S
Mg318 O332 1.984 . S
Mg318 O335 1.988 . S
Mg318 O336 2.061 . S
Mg319 O317 1.986 . S
Mg319 O327 2.238 . S
Mg319 O331 2.042 . S
Mg319 O333 2.041 . S
Mg319 O340 2.038 . S
C320 O326 1.247 . S
C320 O327 1.289 . S
C321 O339 1.245 . S
C321 O340 1.274 . S
O322 C310 1.241 . S
O322 Mg315 2.042 . S
O323 C310 1.280 . S
O323 Mg313 1.984 . S
O324 C311 1.277 . S
O324 Mg315 2.041 . S
O325 C311 1.245 . S
O325 Mg313 1.988 . S
O326 Mg313 2.061 . S
O326 C320 1.247 . S
O327 Mg316 2.106 . S
O327 Mg319 2.238 . S
O327 C320 1.289 . S
C328 O329 1.245 . S
C328 O330 1.274 . S
O329 Mg316 2.079 . S
O329 C328 1.245 . S
O330 Mg315 2.038 . S
O330 C328 1.274 . S
O331 Mg319 2.042 . S
O331 C334 1.241 . S
O332 Mg318 1.984 . S
O332 C334 1.280 . S
O333 Mg319 2.041 . S
O333 C337 1.277 . S
C334 O331 1.241 . S
C334 O332 1.280 . S
O335 Mg318 1.988 . S
O335 C337 1.245 . S
O336 C312 1.247 . S
O336 Mg318 2.061 . S
C337 O333 1.277 . S
C337 O335 1.245 . S
O338 C312 1.289 . S
O338 Mg315 2.238 . S
O338 Mg316 2.106 . S
O339 Mg316 2.079 . S
O339 C321 1.245 . S
O340 Mg319 2.038 . S
O340 C321 1.274 . S
C341 O353 1.241 . S
C341 O354 1.280 . S
C342 O355 1.277 . S
C342 O356 1.245 . S
C343 O367 1.247 . S
C343 O369 1.289 . S
Mg344 O345 1.926 . S
Mg344 O354 1.984 . S
Mg344 O356 1.988 . S
Mg344 O357 2.061 . S
O345 Mg344 1.926 . S
O345 Mg346 1.986 . S
O345 Mg347 1.917 . S
Mg346 O345 1.986 . S
Mg346 O353 2.042 . S
Mg346 O355 2.041 . S
Mg346 O361 2.038 . S
Mg346 O369 2.238 . S
Mg347 O345 1.917 . S
Mg347 O348 1.917 . S
Mg347 O358 2.106 . S
Mg347 O360 2.079 . S
Mg347 O369 2.106 . S
Mg347 O370 2.079 . S
O348 Mg347 1.917 . S
O348 Mg349 1.926 . S
O348 Mg350 1.986 . S
Mg349 O348 1.926 . S
Mg349 O363 1.984 . S
Mg349 O366 1.988 . S
Mg349 O367 2.061 . S
Mg350 O348 1.986 . S
Mg350 O358 2.238 . S
Mg350 O362 2.042 . S
Mg350 O364 2.041 . S
Mg350 O371 2.038 . S
C351 O357 1.247 . S
C351 O358 1.289 . S
C352 O370 1.245 . S
C352 O371 1.274 . S
O353 C341 1.241 . S
O353 Mg346 2.042 . S
O354 C341 1.280 . S
O354 Mg344 1.984 . S
O355 C342 1.277 . S
O355 Mg346 2.041 . S
O356 C342 1.245 . S
O356 Mg344 1.988 . S
O357 Mg344 2.061 . S
O357 C351 1.247 . S
O358 Mg347 2.106 . S
O358 Mg350 2.238 . S
O358 C351 1.289 . S
C359 O360 1.245 . S
C359 O361 1.274 . S
O360 Mg347 2.079 . S
O360 C359 1.245 . S
O361 Mg346 2.038 . S
O361 C359 1.274 . S
O362 Mg350 2.042 . S
O362 C365 1.241 . S
O363 Mg349 1.984 . S
O363 C365 1.280 . S
O364 Mg350 2.041 . S
O364 C368 1.277 . S
C365 O362 1.241 . S
C365 O363 1.280 . S
O366 Mg349 1.988 . S
O366 C368 1.245 . S
O367 C343 1.247 . S
O367 Mg349 2.061 . S
C368 O364 1.277 . S
C368 O366 1.245 . S
O369 C343 1.289 . S
O369 Mg346 2.238 . S
O369 Mg347 2.106 . S
O370 Mg347 2.079 . S
O370 C352 1.245 . S
O371 Mg350 2.038 . S
O371 C352 1.274 . S
H372 C378 0.930 . S
H373 C382 0.930 . S
H374 C387 0.929 . S
H375 C385 0.929 . S
H376 C380 0.929 . S
H377 C386 0.929 . S
C378 H372 0.930 . S
C378 C379 1.367 . S
C378 C386 1.378 . S
C379 C378 1.367 . S
C379 C387 1.433 . S
C380 H376 0.929 . S
C380 C382 1.378 . S
C380 C384 1.350 . S
C381 C384 1.463 . S
C381 C386 1.350 . S
C381 N389 1.427 . S
C382 H373 0.930 . S
C382 C380 1.378 . S
C382 C383 1.367 . S
C383 C382 1.367 . S
C383 C385 1.433 . S
C384 C380 1.350 . S
C384 C381 1.463 . S
C384 N388 1.427 . S
C385 H375 0.929 . S
C385 C383 1.433 . S
C385 N388 1.384 . S
C386 H377 0.929 . S
C386 C378 1.378 . S
C386 C381 1.350 . S
C387 H374 0.929 . S
C387 C379 1.433 . S
C387 N389 1.384 . S
N388 C384 1.427 . S
N388 C385 1.384 . S
N389 C381 1.427 . S
N389 C387 1.384 . S
H390 C396 0.930 . S
H391 C400 0.930 . S
H392 C405 0.929 . S
H393 C403 0.929 . S
H394 C398 0.929 . S
H395 C404 0.929 . S
C396 H390 0.930 . S
C396 C397 1.367 . S
C396 C404 1.378 . S
C397 C396 1.367 . S
C397 C405 1.433 . S
C398 H394 0.929 . S
C398 C400 1.378 . S
C398 C402 1.350 . S
C399 C402 1.463 . S
C399 C404 1.350 . S
C399 N407 1.427 . S
C400 H391 0.930 . S
C400 C398 1.378 . S
C400 C401 1.367 . S
C401 C400 1.367 . S
C401 C403 1.433 . S
C402 C398 1.350 . S
C402 C399 1.463 . S
C402 N406 1.427 . S
C403 H393 0.929 . S
C403 C401 1.433 . S
C403 N406 1.384 . S
C404 H395 0.929 . S
C404 C396 1.378 . S
C404 C399 1.350 . S
C405 H392 0.929 . S
C405 C397 1.433 . S
C405 N407 1.384 . S
N406 C402 1.427 . S
N406 C403 1.384 . S
N407 C399 1.427 . S
N407 C405 1.384 . S
H408 C414 0.930 . S
H409 C418 0.930 . S
H410 C423 0.929 . S
H411 C421 0.929 . S
H412 C416 0.929 . S
H413 C422 0.929 . S
C414 H408 0.930 . S
C414 C415 1.367 . S
C414 C422 1.378 . S
C415 C414 1.367 . S
C415 C423 1.433 . S
C416 H412 0.929 . S
C416 C418 1.378 . S
C416 C420 1.350 . S
C417 C420 1.463 . S
C417 C422 1.350 . S
C417 N425 1.427 . S
C418 H409 0.930 . S
C418 C416 1.378 . S
C418 C419 1.367 . S
C419 C418 1.367 . S
C419 C421 1.433 . S
C420 C416 1.350 . S
C420 C417 1.463 . S
C420 N424 1.427 . S
C421 H411 0.929 . S
C421 C419 1.433 . S
C421 N424 1.384 . S
C422 H413 0.929 . S
C422 C414 1.378 . S
C422 C417 1.350 . S
C423 H410 0.929 . S
C423 C415 1.433 . S
C423 N425 1.384 . S
N424 C420 1.427 . S
N424 C421 1.384 . S
N425 C417 1.427 . S
N425 C423 1.384 . S
H426 C432 0.930 . S
H427 C436 0.930 . S
H428 C441 0.929 . S
H429 C439 0.929 . S
H430 C434 0.929 . S
H431 C440 0.929 . S
C432 H426 0.930 . S
C432 C433 1.367 . S
C432 C440 1.378 . S
C433 C432 1.367 . S
C433 C441 1.433 . S
C434 H430 0.929 . S
C434 C436 1.378 . S
C434 C438 1.350 . S
C435 C438 1.463 . S
C435 C440 1.350 . S
C435 N443 1.427 . S
C436 H427 0.930 . S
C436 C434 1.378 . S
C436 C437 1.367 . S
C437 C436 1.367 . S
C437 C439 1.433 . S
C438 C434 1.350 . S
C438 C435 1.463 . S
C438 N442 1.427 . S
C439 H429 0.929 . S
C439 C437 1.433 . S
C439 N442 1.384 . S
C440 H431 0.929 . S
C440 C432 1.378 . S
C440 C435 1.350 . S
C441 H428 0.929 . S
C441 C433 1.433 . S
C441 N443 1.384 . S
N442 C438 1.427 . S
N442 C439 1.384 . S
N443 C435 1.427 . S
N443 C441 1.384 . S
H444 C450 0.930 . S
H445 C454 0.930 . S
H446 C459 0.929 . S
H447 C457 0.929 . S
H448 C452 0.929 . S
H449 C458 0.929 . S
C450 H444 0.930 . S
C450 C451 1.367 . S
C450 C458 1.378 . S
C451 C450 1.367 . S
C451 C459 1.433 . S
C452 H448 0.929 . S
C452 C454 1.378 . S
C452 C456 1.350 . S
C453 C456 1.463 . S
C453 C458 1.350 . S
C453 N461 1.427 . S
C454 H445 0.930 . S
C454 C452 1.378 . S
C454 C455 1.367 . S
C455 C454 1.367 . S
C455 C457 1.433 . S
C456 C452 1.350 . S
C456 C453 1.463 . S
C456 N460 1.427 . S
C457 H447 0.929 . S
C457 C455 1.433 . S
C457 N460 1.384 . S
C458 H449 0.929 . S
C458 C450 1.378 . S
C458 C453 1.350 . S
C459 H446 0.929 . S
C459 C451 1.433 . S
C459 N461 1.384 . S
N460 C456 1.427 . S
N460 C457 1.384 . S
N461 C453 1.427 . S
N461 C459 1.384 . S
H462 C468 0.930 . S
H463 C472 0.930 . S
H464 C477 0.929 . S
H465 C475 0.929 . S
H466 C470 0.929 . S
H467 C476 0.929 . S
C468 H462 0.930 . S
C468 C469 1.367 . S
C468 C476 1.378 . S
C469 C468 1.367 . S
C469 C477 1.433 . S
C470 H466 0.929 . S
C470 C472 1.378 . S
C470 C474 1.350 . S
C471 C474 1.463 . S
C471 C476 1.350 . S
C471 N479 1.427 . S
C472 H463 0.930 . S
C472 C470 1.378 . S
C472 C473 1.367 . S
C473 C472 1.367 . S
C473 C475 1.433 . S
C474 C470 1.350 . S
C474 C471 1.463 . S
C474 N478 1.427 . S
C475 H465 0.929 . S
C475 C473 1.433 . S
C475 N478 1.384 . S
C476 H467 0.929 . S
C476 C468 1.378 . S
C476 C471 1.350 . S
C477 H464 0.929 . S
C477 C469 1.433 . S
C477 N479 1.384 . S
N478 C474 1.427 . S
N478 C475 1.384 . S
N479 C471 1.427 . S
N479 C477 1.384 . S
H480 C486 0.930 . S
H481 C490 0.930 . S
H482 C495 0.929 . S
H483 C493 0.929 . S
H484 C488 0.929 . S
H485 C494 0.929 . S
C486 H480 0.930 . S
C486 C487 1.367 . S
C486 C494 1.378 . S
C487 C486 1.367 . S
C487 C495 1.433 . S
C488 H484 0.929 . S
C488 C490 1.378 . S
C488 C492 1.350 . S
C489 C492 1.463 . S
C489 C494 1.350 . S
C489 N497 1.427 . S
C490 H481 0.930 . S
C490 C488 1.378 . S
C490 C491 1.367 . S
C491 C490 1.367 . S
C491 C493 1.433 . S
C492 C488 1.350 . S
C492 C489 1.463 . S
C492 N496 1.427 . S
C493 H483 0.929 . S
C493 C491 1.433 . S
C493 N496 1.384 . S
C494 H485 0.929 . S
C494 C486 1.378 . S
C494 C489 1.350 . S
C495 H482 0.929 . S
C495 C487 1.433 . S
C495 N497 1.384 . S
N496 C492 1.427 . S
N496 C493 1.384 . S
N497 C489 1.427 . S
N497 C495 1.384 . S
H498 C504 0.930 . S
H499 C508 0.930 . S
H500 C513 0.929 . S
H501 C511 0.929 . S
H502 C506 0.929 . S
H503 C512 0.929 . S
C504 H498 0.930 . S
C504 C505 1.367 . S
C504 C512 1.378 . S
C505 C504 1.367 . S
C505 C513 1.433 . S
C506 H502 0.929 . S
C506 C508 1.378 . S
C506 C510 1.350 . S
C507 C510 1.463 . S
C507 C512 1.350 . S
C507 N515 1.427 . S
C508 H499 0.930 . S
C508 C506 1.378 . S
C508 C509 1.367 . S
C509 C508 1.367 . S
C509 C511 1.433 . S
C510 C506 1.350 . S
C510 C507 1.463 . S
C510 N514 1.427 . S
C511 H501 0.929 . S
C511 C509 1.433 . S
C511 N514 1.384 . S
C512 H503 0.929 . S
C512 C504 1.378 . S
C512 C507 1.350 . S
C513 H500 0.929 . S
C513 C505 1.433 . S
C513 N515 1.384 . S
N514 C510 1.427 . S
N514 C511 1.384 . S
N515 C507 1.427 . S
N515 C513 1.384 . S
H516 C522 0.930 . S
H517 C526 0.930 . S
H518 C531 0.929 . S
H519 C529 0.929 . S
H520 C524 0.929 . S
H521 C530 0.929 . S
C522 H516 0.930 . S
C522 C523 1.367 . S
C522 C530 1.378 . S
C523 C522 1.367 . S
C523 C531 1.433 . S
C524 H520 0.929 . S
C524 C526 1.378 . S
C524 C528 1.350 . S
C525 C528 1.463 . S
C525 C530 1.350 . S
C525 N533 1.427 . S
C526 H517 0.930 . S
C526 C524 1.378 . S
C526 C527 1.367 . S
C527 C526 1.367 . S
C527 C529 1.433 . S
C528 C524 1.350 . S
C528 C525 1.463 . S
C528 N532 1.427 . S
C529 H519 0.929 . S
C529 C527 1.433 . S
C529 N532 1.384 . S
C530 H521 0.929 . S
C530 C522 1.378 . S
C530 C525 1.350 . S
C531 H518 0.929 . S
C531 C523 1.433 . S
C531 N533 1.384 . S
N532 C528 1.427 . S
N532 C529 1.384 . S
N533 C525 1.427 . S
N533 C531 1.384 . S
H534 C540 0.930 . S
H535 C544 0.930 . S
H536 C549 0.929 . S
H537 C547 0.929 . S
H538 C542 0.929 . S
H539 C548 0.929 . S
C540 H534 0.930 . S
C540 C541 1.367 . S
C540 C548 1.378 . S
C541 C540 1.367 . S
C541 C549 1.433 . S
C542 H538 0.929 . S
C542 C544 1.378 . S
C542 C546 1.350 . S
C543 C546 1.463 . S
C543 C548 1.350 . S
C543 N551 1.427 . S
C544 H535 0.930 . S
C544 C542 1.378 . S
C544 C545 1.367 . S
C545 C544 1.367 . S
C545 C547 1.433 . S
C546 C542 1.350 . S
C546 C543 1.463 . S
C546 N550 1.427 . S
C547 H537 0.929 . S
C547 C545 1.433 . S
C547 N550 1.384 . S
C548 H539 0.929 . S
C548 C540 1.378 . S
C548 C543 1.350 . S
C549 H536 0.929 . S
C549 C541 1.433 . S
C549 N551 1.384 . S
N550 C546 1.427 . S
N550 C547 1.384 . S
N551 C543 1.427 . S
N551 C549 1.384 . S
H552 C558 0.930 . S
H553 C562 0.930 . S
H554 C567 0.929 . S
H555 C565 0.929 . S
H556 C560 0.929 . S
H557 C566 0.929 . S
C558 H552 0.930 . S
C558 C559 1.367 . S
C558 C566 1.378 . S
C559 C558 1.367 . S
C559 C567 1.433 . S
C560 H556 0.929 . S
C560 C562 1.378 . S
C560 C564 1.350 . S
C561 C564 1.463 . S
C561 C566 1.350 . S
C561 N569 1.427 . S
C562 H553 0.930 . S
C562 C560 1.378 . S
C562 C563 1.367 . S
C563 C562 1.367 . S
C563 C565 1.433 . S
C564 C560 1.350 . S
C564 C561 1.463 . S
C564 N568 1.427 . S
C565 H555 0.929 . S
C565 C563 1.433 . S
C565 N568 1.384 . S
C566 H557 0.929 . S
C566 C558 1.378 . S
C566 C561 1.350 . S
C567 H554 0.929 . S
C567 C559 1.433 . S
C567 N569 1.384 . S
N568 C564 1.427 . S
N568 C565 1.384 . S
N569 C561 1.427 . S
N569 C567 1.384 . S
H570 C576 0.930 . S
H571 C580 0.930 . S
H572 C585 0.929 . S
H573 C583 0.929 . S
H574 C578 0.929 . S
H575 C584 0.929 . S
C576 H570 0.930 . S
C576 C577 1.367 . S
C576 C584 1.378 . S
C577 C576 1.367 . S
C577 C585 1.433 . S
C578 H574 0.929 . S
C578 C580 1.378 . S
C578 C582 1.350 . S
C579 C582 1.463 . S
C579 C584 1.350 . S
C579 N587 1.427 . S
C580 H571 0.930 . S
C580 C578 1.378 . S
C580 C581 1.367 . S
C581 C580 1.367 . S
C581 C583 1.433 . S
C582 C578 1.350 . S
C582 C579 1.463 . S
C582 N586 1.427 . S
C583 H573 0.929 . S
C583 C581 1.433 . S
C583 N586 1.384 . S
C584 H575 0.929 . S
C584 C576 1.378 . S
C584 C579 1.350 . S
C585 H572 0.929 . S
C585 C577 1.433 . S
C585 N587 1.384 . S
N586 C582 1.427 . S
N586 C583 1.384 . S
N587 C579 1.427 . S
N587 C585 1.384 . S
H588 C594 0.930 . S
H589 C598 0.930 . S
H590 C603 0.929 . S
H591 C601 0.929 . S
H592 C596 0.929 . S
H593 C602 0.929 . S
C594 H588 0.930 . S
C594 C595 1.367 . S
C594 C602 1.378 . S
C595 C594 1.367 . S
C595 C603 1.433 . S
C596 H592 0.929 . S
C596 C598 1.378 . S
C596 C600 1.350 . S
C597 C600 1.463 1_556 S
C597 C602 1.350 . S
C597 N605 1.427 1_556 S
C598 H589 0.930 . S
C598 C596 1.378 . S
C598 C599 1.367 . S
C599 C598 1.367 . S
C599 C601 1.433 . S
C600 C596 1.350 . S
C600 C597 1.463 1_554 S
C600 N604 1.427 1_554 S
C601 H591 0.929 . S
C601 C599 1.433 . S
C601 N604 1.384 1_554 S
C602 H593 0.929 . S
C602 C594 1.378 . S
C602 C597 1.350 . S
C603 H590 0.929 . S
C603 C595 1.433 . S
C603 N605 1.384 1_556 S
N604 C600 1.427 1_556 S
N604 C601 1.384 1_556 S
N605 C597 1.427 1_554 S
N605 C603 1.384 1_554 S
H606 C612 0.930 . S
H607 C616 0.930 . S
H608 C621 0.929 . S
H609 C619 0.929 . S
H610 C614 0.929 . S
H611 C620 0.929 . S
C612 H606 0.930 . S
C612 C613 1.367 . S
C612 C620 1.378 1_554 S
C613 C612 1.367 . S
C613 C621 1.433 . S
C614 H610 0.929 . S
C614 C616 1.378 1_554 S
C614 C618 1.350 1_554 S
C615 C618 1.463 1_544 S
C615 C620 1.350 1_554 S
C615 N623 1.427 . S
C616 H607 0.930 . S
C616 C614 1.378 1_556 S
C616 C617 1.367 . S
C617 C616 1.367 . S
C617 C619 1.433 . S
C618 C614 1.350 1_556 S
C618 C615 1.463 1_566 S
C618 N622 1.427 . S
C619 H609 0.929 . S
C619 C617 1.433 . S
C619 N622 1.384 . S
C620 H611 0.929 . S
C620 C612 1.378 1_556 S
C620 C615 1.350 1_556 S
C621 H608 0.929 . S
C621 C613 1.433 . S
C621 N623 1.384 . S
N622 C618 1.427 . S
N622 C619 1.384 . S
N623 C615 1.427 . S
N623 C621 1.384 . S
H624 C630 0.930 . S
H625 C634 0.930 . S
H626 C639 0.929 . S
H627 C637 0.929 . S
H628 C632 0.939 . S
H629 C638 0.939 . S
C630 H624 0.930 . S
C630 C631 1.367 . S
C630 C638 1.378 1_554 S
C631 C630 1.367 . S
C631 C639 1.433 . S
C632 H628 0.939 . S
C632 C634 1.378 1_554 S
C632 C636 1.350 1_554 S
C633 C636 1.463 1_654 S
C633 C638 1.350 1_554 S
C633 N641 1.427 . S
C634 H625 0.930 . S
C634 C632 1.378 1_556 S
C634 C635 1.367 . S
C635 C634 1.367 . S
C635 C637 1.433 . S
C636 C632 1.350 1_556 S
C636 C633 1.463 1_456 S
C636 N640 1.427 . S
C637 H627 0.929 . S
C637 C635 1.433 . S
C637 N640 1.384 . S
C638 H629 0.939 . S
C638 C630 1.378 1_556 S
C638 C633 1.350 1_556 S
C639 H626 0.929 . S
C639 C631 1.433 . S
C639 N641 1.384 . S
N640 C636 1.427 . S
N640 C637 1.384 . S
N641 C633 1.427 . S
N641 C639 1.384 . S
H642 C648 0.930 . S
H643 C652 0.930 . S
H644 C657 0.929 . S
H645 C655 0.929 . S
H646 C650 0.929 . S
H647 C656 0.929 . S
C648 H642 0.930 . S
C648 C649 1.367 . S
C648 C656 1.378 . S
C649 C648 1.367 . S
C649 C657 1.433 . S
C650 H646 0.929 . S
C650 C652 1.378 . S
C650 C654 1.350 . S
C651 C654 1.463 . S
C651 C656 1.350 . S
C651 N659 1.427 . S
C652 H643 0.930 . S
C652 C650 1.378 . S
C652 C653 1.367 . S
C653 C652 1.367 . S
C653 C655 1.433 . S
C654 C650 1.350 . S
C654 C651 1.463 . S
C654 N658 1.427 . S
C655 H645 0.929 . S
C655 C653 1.433 . S
C655 N658 1.384 . S
C656 H647 0.929 . S
C656 C648 1.378 . S
C656 C651 1.350 . S
C657 H644 0.929 . S
C657 C649 1.433 . S
C657 N659 1.384 . S
N658 C654 1.427 . S
N658 C655 1.384 . S
N659 C651 1.427 . S
N659 C657 1.384 . S
H660 C666 0.930 1_545 S
H661 C670 0.930 1_565 S
H662 C675 0.929 . S
H663 C673 0.929 . S
H664 C668 0.929 . S
H665 C674 0.929 . S
C666 H660 0.930 1_565 S
C666 C667 1.367 . S
C666 C674 1.378 1_565 S
C667 C666 1.367 . S
C667 C675 1.433 . S
C668 H664 0.929 . S
C668 C670 1.378 1_565 S
C668 C672 1.350 1_565 S
C669 C672 1.463 1_565 S
C669 C674 1.350 1_565 S
C669 N677 1.427 . S
C670 H661 0.930 1_545 S
C670 C668 1.378 1_545 S
C670 C671 1.367 . S
C671 C670 1.367 . S
C671 C673 1.433 . S
C672 C668 1.350 1_545 S
C672 C669 1.463 1_545 S
C672 N676 1.427 . S
C673 H663 0.929 . S
C673 C671 1.433 . S
C673 N676 1.384 . S
C674 H665 0.929 . S
C674 C666 1.378 1_545 S
C674 C669 1.350 1_545 S
C675 H662 0.929 . S
C675 C667 1.433 . S
C675 N677 1.384 . S
N676 C672 1.427 . S
N676 C673 1.384 . S
N677 C669 1.427 . S
N677 C675 1.384 . S
H678 C684 0.930 . S
H679 C688 0.930 . S
H680 C693 0.929 . S
H681 C691 0.929 . S
H682 C686 0.929 1_655 S
H683 C692 0.929 1_455 S
C684 H678 0.930 . S
C684 C685 1.367 . S
C684 C692 1.378 . S
C685 C684 1.367 . S
C685 C693 1.433 . S
C686 H682 0.929 1_455 S
C686 C688 1.378 . S
C686 C690 1.350 . S
C687 C690 1.463 1_655 S
C687 C692 1.350 . S
C687 N695 1.427 . S
C688 H679 0.930 . S
C688 C686 1.378 . S
C688 C689 1.367 . S
C689 C688 1.367 . S
C689 C691 1.433 . S
C690 C686 1.350 . S
C690 C687 1.463 1_455 S
C690 N694 1.427 . S
C691 H681 0.929 . S
C691 C689 1.433 . S
C691 N694 1.384 . S
C692 H683 0.929 1_655 S
C692 C684 1.378 . S
C692 C687 1.350 . S
C693 H680 0.929 . S
C693 C685 1.433 . S
C693 N695 1.384 . S
N694 C690 1.427 . S
N694 C691 1.384 . S
N695 C687 1.427 . S
N695 C693 1.384 . S
H696 C702 0.930 . S
H697 C706 0.930 . S
H698 C711 0.929 . S
H699 C709 0.929 . S
H700 C704 0.929 . S
H701 C710 0.929 . S
C702 H696 0.930 . S
C702 C703 1.367 . S
C702 C710 1.378 . S
C703 C702 1.367 . S
C703 C711 1.433 . S
C704 H700 0.929 . S
C704 C706 1.378 . S
C704 C708 1.350 . S
C705 C708 1.463 . S
C705 C710 1.350 . S
C705 N713 1.427 . S
C706 H697 0.930 . S
C706 C704 1.378 . S
C706 C707 1.367 . S
C707 C706 1.367 . S
C707 C709 1.433 . S
C708 C704 1.350 . S
C708 C705 1.463 . S
C708 N712 1.427 . S
C709 H699 0.929 . S
C709 C707 1.433 . S
C709 N712 1.384 . S
C710 H701 0.929 . S
C710 C702 1.378 . S
C710 C705 1.350 . S
C711 H698 0.929 . S
C711 C703 1.433 . S
C711 N713 1.384 . S
N712 C708 1.427 . S
N712 C709 1.384 . S
N713 C705 1.427 . S
N713 C711 1.384 . S
H714 C720 0.930 . S
H715 C724 0.930 . S
H716 C729 0.929 . S
H717 C727 0.929 . S
H718 C722 0.929 . S
H719 C728 0.929 . S
C720 H714 0.930 . S
C720 C721 1.367 . S
C720 C728 1.378 . S
C721 C720 1.367 . S
C721 C729 1.433 . S
C722 H718 0.929 . S
C722 C724 1.378 . S
C722 C726 1.350 . S
C723 C726 1.463 . S
C723 C728 1.350 . S
C723 N731 1.427 . S
C724 H715 0.930 . S
C724 C722 1.378 . S
C724 C725 1.367 . S
C725 C724 1.367 . S
C725 C727 1.433 . S
C726 C722 1.350 . S
C726 C723 1.463 . S
C726 N730 1.427 . S
C727 H717 0.929 . S
C727 C725 1.433 . S
C727 N730 1.384 . S
C728 H719 0.929 . S
C728 C720 1.378 . S
C728 C723 1.350 . S
C729 H716 0.929 . S
C729 C721 1.433 . S
C729 N731 1.384 . S
N730 C726 1.427 . S
N730 C727 1.384 . S
N731 C723 1.427 . S
N731 C729 1.384 . S
H732 C738 0.930 . S
H733 C742 0.930 . S
H734 C747 0.929 . S
H735 C745 0.929 . S
H736 C740 0.929 . S
H737 C746 0.929 . S
C738 H732 0.930 . S
C738 C739 1.367 . S
C738 C746 1.378 . S
C739 C738 1.367 . S
C739 C747 1.433 . S
C740 H736 0.929 . S
C740 C742 1.378 . S
C740 C744 1.350 . S
C741 C744 1.463 . S
C741 C746 1.350 . S
C741 N749 1.427 . S
C742 H733 0.930 . S
C742 C740 1.378 . S
C742 C743 1.367 . S
C743 C742 1.367 . S
C743 C745 1.433 . S
C744 C740 1.350 . S
C744 C741 1.463 . S
C744 N748 1.427 . S
C745 H735 0.929 . S
C745 C743 1.433 . S
C745 N748 1.384 . S
C746 H737 0.929 . S
C746 C738 1.378 . S
C746 C741 1.350 . S
C747 H734 0.929 . S
C747 C739 1.433 . S
C747 N749 1.384 . S
N748 C744 1.427 . S
N748 C745 1.384 . S
N749 C741 1.427 . S
N749 C747 1.384 . S
H750 C756 0.930 . S
H751 C760 0.930 . S
H752 C765 0.929 . S
H753 C763 0.929 . S
H754 C758 0.929 . S
H755 C764 0.929 . S
C756 H750 0.930 . S
C756 C757 1.367 . S
C756 C764 1.378 . S
C757 C756 1.367 . S
C757 C765 1.433 . S
C758 H754 0.929 . S
C758 C760 1.378 . S
C758 C762 1.350 . S
C759 C762 1.463 . S
C759 C764 1.350 . S
C759 N767 1.427 . S
C760 H751 0.930 . S
C760 C758 1.378 . S
C760 C761 1.367 . S
C761 C760 1.367 . S
C761 C763 1.433 . S
C762 C758 1.350 . S
C762 C759 1.463 . S
C762 N766 1.427 . S
C763 H753 0.929 . S
C763 C761 1.433 . S
C763 N766 1.384 . S
C764 H755 0.929 . S
C764 C756 1.378 . S
C764 C759 1.350 . S
C765 H752 0.929 . S
C765 C757 1.433 . S
C765 N767 1.384 . S
N766 C762 1.427 . S
N766 C763 1.384 . S
N767 C759 1.427 . S
N767 C765 1.384 . S
H768 C774 0.930 . S
H769 C778 0.930 . S
H770 C783 0.929 . S
H771 C781 0.929 . S
H772 C776 0.929 . S
H773 C782 0.929 . S
C774 H768 0.930 . S
C774 C775 1.367 . S
C774 C782 1.378 . S
C775 C774 1.367 . S
C775 C783 1.433 . S
C776 H772 0.929 . S
C776 C778 1.378 . S
C776 C780 1.350 . S
C777 C780 1.463 . S
C777 C782 1.350 . S
C777 N785 1.427 . S
C778 H769 0.930 . S
C778 C776 1.378 . S
C778 C779 1.367 . S
C779 C778 1.367 . S
C779 C781 1.433 . S
C780 C776 1.350 . S
C780 C777 1.463 . S
C780 N784 1.427 . S
C781 H771 0.929 . S
C781 C779 1.433 . S
C781 N784 1.384 . S
C782 H773 0.929 . S
C782 C774 1.378 . S
C782 C777 1.350 . S
C783 H770 0.929 . S
C783 C775 1.433 . S
C783 N785 1.384 . S
N784 C780 1.427 . S
N784 C781 1.384 . S
N785 C777 1.427 . S
N785 C783 1.384 . S
H786 C792 0.930 . S
H787 C796 0.930 . S
H788 C801 0.929 . S
H789 C799 0.929 . S
H790 C794 0.929 . S
H791 C800 0.929 . S
C792 H786 0.930 . S
C792 C793 1.367 . S
C792 C800 1.378 . S
C793 C792 1.367 . S
C793 C801 1.433 . S
C794 H790 0.929 . S
C794 C796 1.378 . S
C794 C798 1.350 . S
C795 C798 1.463 . S
C795 C800 1.350 . S
C795 N803 1.427 . S
C796 H787 0.930 . S
C796 C794 1.378 . S
C796 C797 1.367 . S
C797 C796 1.367 . S
C797 C799 1.433 . S
C798 C794 1.350 . S
C798 C795 1.463 . S
C798 N802 1.427 . S
C799 H789 0.929 . S
C799 C797 1.433 . S
C799 N802 1.384 . S
C800 H791 0.929 . S
C800 C792 1.378 . S
C800 C795 1.350 . S
C801 H788 0.929 . S
C801 C793 1.433 . S
C801 N803 1.384 . S
N802 C798 1.427 . S
N802 C799 1.384 . S
N803 C795 1.427 . S
N803 C801 1.384 . S
H804 C810 0.930 . S
H805 C814 0.930 . S
H806 C819 0.929 . S
H807 C817 0.949 . S
H808 C812 0.929 . S
H809 C818 0.929 . S
C810 H804 0.930 . S
C810 C811 1.367 . S
C810 C818 1.378 . S
C811 C810 1.367 . S
C811 C819 1.433 . S
C812 H808 0.929 . S
C812 C814 1.378 . S
C812 C816 1.350 . S
C813 C816 1.463 . S
C813 C818 1.350 . S
C813 N821 1.427 . S
C814 H805 0.930 . S
C814 C812 1.378 . S
C814 C815 1.367 . S
C815 C814 1.367 . S
C815 C817 1.433 . S
C816 C812 1.350 . S
C816 C813 1.463 . S
C816 N820 1.427 . S
C817 H807 0.949 . S
C817 C815 1.433 . S
C817 N820 1.384 . S
C818 H809 0.929 . S
C818 C810 1.378 . S
C818 C813 1.350 . S
C819 H806 0.929 . S
C819 C811 1.433 . S
C819 N821 1.384 . S
N820 C816 1.427 . S
N820 C817 1.384 . S
N821 C813 1.427 . S
N821 C819 1.384 . S
H822 C828 0.930 . S
H823 C832 0.930 . S
H824 C837 0.929 . S
H825 C835 0.929 . S
H826 C830 0.929 . S
H827 C836 0.929 . S
C828 H822 0.930 . S
C828 C829 1.367 . S
C828 C836 1.378 . S
C829 C828 1.367 . S
C829 C837 1.433 . S
C830 H826 0.929 . S
C830 C832 1.378 . S
C830 C834 1.350 . S
C831 C834 1.463 . S
C831 C836 1.350 . S
C831 N839 1.427 . S
C832 H823 0.930 . S
C832 C830 1.378 . S
C832 C833 1.367 . S
C833 C832 1.367 . S
C833 C835 1.433 . S
C834 C830 1.350 . S
C834 C831 1.463 . S
C834 N838 1.427 . S
C835 H825 0.929 . S
C835 C833 1.433 . S
C835 N838 1.384 . S
C836 H827 0.929 . S
C836 C828 1.378 . S
C836 C831 1.350 . S
C837 H824 0.929 . S
C837 C829 1.433 . S
C837 N839 1.384 . S
N838 C834 1.427 . S
N838 C835 1.384 . S
N839 C831 1.427 . S
N839 C837 1.384 . S
H840 C846 0.930 . S
H841 C850 0.930 . S
H842 C855 0.928 . S
H843 C853 0.929 . S
H844 C848 0.929 . S
H845 C854 0.929 . S
C846 H840 0.930 . S
C846 C847 1.367 . S
C846 C854 1.378 . S
C847 C846 1.367 . S
C847 C855 1.433 . S
C848 H844 0.929 . S
C848 C850 1.378 . S
C848 C852 1.350 . S
C849 C852 1.463 . S
C849 C854 1.350 . S
C849 N857 1.427 . S
C850 H841 0.930 . S
C850 C848 1.378 . S
C850 C851 1.367 . S
C851 C850 1.367 . S
C851 C853 1.433 . S
C852 C848 1.350 . S
C852 C849 1.463 . S
C852 N856 1.427 . S
C853 H843 0.929 . S
C853 C851 1.433 . S
C853 N856 1.384 . S
C854 H845 0.929 . S
C854 C846 1.378 . S
C854 C849 1.350 . S
C855 H842 0.928 . S
C855 C847 1.433 . S
C855 N857 1.384 . S
N856 C852 1.427 . S
N856 C853 1.384 . S
N857 C849 1.427 . S
N857 C855 1.384 . S
H858 C864 0.930 . S
H859 C868 0.930 . S
H860 C873 0.929 . S
H861 C871 0.929 . S
H862 C866 0.929 . S
H863 C872 0.929 . S
C864 H858 0.930 . S
C864 C865 1.367 . S
C864 C872 1.378 . S
C865 C864 1.367 . S
C865 C873 1.433 . S
C866 H862 0.929 . S
C866 C868 1.378 . S
C866 C870 1.350 . S
C867 C870 1.463 . S
C867 C872 1.350 . S
C867 N875 1.427 . S
C868 H859 0.930 . S
C868 C866 1.378 . S
C868 C869 1.367 . S
C869 C868 1.367 . S
C869 C871 1.433 . S
C870 C866 1.350 . S
C870 C867 1.463 . S
C870 N874 1.427 . S
C871 H861 0.929 . S
C871 C869 1.433 . S
C871 N874 1.384 . S
C872 H863 0.929 . S
C872 C864 1.378 . S
C872 C867 1.350 . S
C873 H860 0.929 . S
C873 C865 1.433 . S
C873 N875 1.384 . S
N874 C870 1.427 . S
N874 C871 1.384 . S
N875 C867 1.427 . S
N875 C873 1.384 . S
H876 C882 0.930 . S
H877 C886 0.930 . S
H878 C891 0.929 . S
H879 C889 0.929 . S
H880 C884 0.929 . S
H881 C890 0.929 . S
C882 H876 0.930 . S
C882 C883 1.367 . S
C882 C890 1.378 . S
C883 C882 1.367 . S
C883 C891 1.433 . S
C884 H880 0.929 . S
C884 C886 1.378 . S
C884 C888 1.350 . S
C885 C888 1.463 . S
C885 C890 1.350 . S
C885 N893 1.427 . S
C886 H877 0.930 . S
C886 C884 1.378 . S
C886 C887 1.367 . S
C887 C886 1.367 . S
C887 C889 1.433 . S
C888 C884 1.350 . S
C888 C885 1.463 . S
C888 N892 1.427 . S
C889 H879 0.929 . S
C889 C887 1.433 . S
C889 N892 1.384 . S
C890 H881 0.929 . S
C890 C882 1.378 . S
C890 C885 1.350 . S
C891 H878 0.929 . S
C891 C883 1.433 . S
C891 N893 1.384 . S
N892 C888 1.427 . S
N892 C889 1.384 . S
N893 C885 1.427 . S
N893 C891 1.384 . S
H894 C900 0.930 . S
H895 C904 0.930 . S
H896 C909 0.929 . S
H897 C907 0.929 . S
H898 C902 0.929 . S
H899 C908 0.929 . S
C900 H894 0.930 . S
C900 C901 1.367 . S
C900 C908 1.378 . S
C901 C900 1.367 . S
C901 C909 1.433 . S
C902 H898 0.929 . S
C902 C904 1.378 . S
C902 C906 1.350 . S
C903 C906 1.463 . S
C903 C908 1.350 . S
C903 N911 1.427 . S
C904 H895 0.930 . S
C904 C902 1.378 . S
C904 C905 1.367 . S
C905 C904 1.367 . S
C905 C907 1.433 . S
C906 C902 1.350 . S
C906 C903 1.463 . S
C906 N910 1.427 . S
C907 H897 0.929 . S
C907 C905 1.433 . S
C907 N910 1.384 . S
C908 H899 0.929 . S
C908 C900 1.378 . S
C908 C903 1.350 . S
C909 H896 0.929 . S
C909 C901 1.433 . S
C909 N911 1.384 . S
N910 C906 1.427 . S
N910 C907 1.384 . S
N911 C903 1.427 . S
N911 C909 1.384 . S
H912 C918 0.930 . S
H913 C922 0.930 . S
H914 C927 0.929 . S
H915 C925 0.929 . S
H916 C920 0.929 . S
H917 C926 0.929 . S
C918 H912 0.930 . S
C918 C919 1.367 . S
C918 C926 1.378 . S
C919 C918 1.367 . S
C919 C927 1.433 . S
C920 H916 0.929 . S
C920 C922 1.378 . S
C920 C924 1.350 . S
C921 C924 1.463 . S
C921 C926 1.350 . S
C921 N929 1.427 . S
C922 H913 0.930 . S
C922 C920 1.378 . S
C922 C923 1.367 . S
C923 C922 1.367 . S
C923 C925 1.433 . S
C924 C920 1.350 . S
C924 C921 1.463 . S
C924 N928 1.427 . S
C925 H915 0.929 . S
C925 C923 1.433 . S
C925 N928 1.384 . S
C926 H917 0.929 . S
C926 C918 1.378 . S
C926 C921 1.350 . S
C927 H914 0.929 . S
C927 C919 1.433 . S
C927 N929 1.384 . S
N928 C924 1.427 . S
N928 C925 1.384 . S
N929 C921 1.427 . S
N929 C927 1.384 . S
H930 C936 0.930 . S
H931 C940 0.930 . S
H932 C945 0.929 . S
H933 C943 0.929 . S
H934 C938 0.929 . S
H935 C944 0.929 . S
C936 H930 0.930 . S
C936 C937 1.367 . S
C936 C944 1.378 . S
C937 C936 1.367 . S
C937 C945 1.433 . S
C938 H934 0.929 . S
C938 C940 1.378 . S
C938 C942 1.350 . S
C939 C942 1.463 1_565 S
C939 C944 1.350 . S
C939 N947 1.427 . S
C940 H931 0.930 . S
C940 C938 1.378 . S
C940 C941 1.367 . S
C941 C940 1.367 . S
C941 C943 1.433 . S
C942 C938 1.350 . S
C942 C939 1.463 1_545 S
C942 N946 1.427 . S
C943 H933 0.929 . S
C943 C941 1.433 . S
C943 N946 1.384 . S
C944 H935 0.929 . S
C944 C936 1.378 . S
C944 C939 1.350 . S
C945 H932 0.929 . S
C945 C937 1.433 . S
C945 N947 1.384 . S
N946 C942 1.427 . S
N946 C943 1.384 . S
N947 C939 1.427 . S
N947 C945 1.384 . S
H948 C954 0.930 . S
H949 C958 0.930 . S
H950 C963 0.929 . S
H951 C961 0.929 . S
H952 C956 0.929 . S
H953 C962 0.929 . S
C954 H948 0.930 . S
C954 C955 1.367 . S
C954 C962 1.378 . S
C955 C954 1.367 . S
C955 C963 1.433 . S
C956 H952 0.929 . S
C956 C958 1.378 . S
C956 C960 1.350 . S
C957 C960 1.463 1_455 S
C957 C962 1.350 . S
C957 N965 1.427 . S
C958 H949 0.930 . S
C958 C956 1.378 . S
C958 C959 1.367 . S
C959 C958 1.367 . S
C959 C961 1.433 . S
C960 C956 1.350 . S
C960 C957 1.463 1_655 S
C960 N964 1.427 . S
C961 H951 0.929 . S
C961 C959 1.433 . S
C961 N964 1.384 . S
C962 H953 0.929 . S
C962 C954 1.378 . S
C962 C957 1.350 . S
C963 H950 0.929 . S
C963 C955 1.433 . S
C963 N965 1.384 . S
N964 C960 1.427 . S
N964 C961 1.384 . S
N965 C957 1.427 . S
N965 C963 1.384 . S
H966 C972 0.930 . S
H967 C976 0.930 . S
H968 C981 0.929 . S
H969 C979 0.929 . S
H970 C974 0.929 . S
H971 C980 0.929 . S
C972 H966 0.930 . S
C972 C973 1.367 . S
C972 C980 1.378 . S
C973 C972 1.367 . S
C973 C981 1.433 . S
C974 H970 0.929 . S
C974 C976 1.378 . S
C974 C978 1.350 . S
C975 C978 1.463 . S
C975 C980 1.350 . S
C975 N983 1.427 . S
C976 H967 0.930 . S
C976 C974 1.378 . S
C976 C977 1.367 . S
C977 C976 1.367 . S
C977 C979 1.433 . S
C978 C974 1.350 . S
C978 C975 1.463 . S
C978 N982 1.427 . S
C979 H969 0.929 . S
C979 C977 1.433 . S
C979 N982 1.384 . S
C980 H971 0.929 . S
C980 C972 1.378 . S
C980 C975 1.350 . S
C981 H968 0.929 . S
C981 C973 1.433 . S
C981 N983 1.384 . S
N982 C978 1.427 . S
N982 C979 1.384 . S
N983 C975 1.427 . S
N983 C981 1.384 . S
H984 C990 0.930 . S
H985 C994 0.930 . S
H986 C999 0.929 . S
H987 C997 0.929 . S
H988 C992 0.929 . S
H989 C998 0.929 . S
C990 H984 0.930 . S
C990 C991 1.367 . S
C990 C998 1.378 . S
C991 C990 1.367 . S
C991 C999 1.433 . S
C992 H988 0.929 . S
C992 C994 1.378 . S
C992 C996 1.350 . S
C993 C996 1.463 1_565 S
C993 C998 1.350 . S
C993 N1001 1.427 . S
C994 H985 0.930 . S
C994 C992 1.378 . S
C994 C995 1.367 . S
C995 C994 1.367 . S
C995 C997 1.433 . S
C996 C992 1.350 . S
C996 C993 1.463 1_545 S
C996 N1000 1.427 . S
C997 H987 0.929 . S
C997 C995 1.433 . S
C997 N1000 1.384 . S
C998 H989 0.929 . S
C998 C990 1.378 . S
C998 C993 1.350 . S
C999 H986 0.929 . S
C999 C991 1.433 . S
C999 N1001 1.384 . S
N1000 C996 1.427 . S
N1000 C997 1.384 . S
N1001 C993 1.427 . S
N1001 C999 1.384 . S
H1002 C1008 0.930 . S
H1003 C1012 0.930 . S
H1004 C1017 0.929 . S
H1005 C1015 0.929 . S
H1006 C1010 0.893 1_655 S
H1007 C1016 0.894 1_455 S
C1008 H1002 0.930 . S
C1008 C1009 1.367 . S
C1008 C1016 1.378 . S
C1009 C1008 1.367 . S
C1009 C1017 1.433 . S
C1010 H1006 0.893 1_455 S
C1010 C1012 1.378 . S
C1010 C1014 1.350 . S
C1011 C1014 1.463 1_655 S
C1011 C1016 1.350 . S
C1011 N1019 1.427 . S
C1012 H1003 0.930 . S
C1012 C1010 1.378 . S
C1012 C1013 1.367 . S
C1013 C1012 1.367 . S
C1013 C1015 1.433 . S
C1014 C1010 1.350 . S
C1014 C1011 1.463 1_455 S
C1014 N1018 1.427 . S
C1015 H1005 0.929 . S
C1015 C1013 1.433 . S
C1015 N1018 1.384 . S
C1016 H1007 0.894 1_655 S
C1016 C1008 1.378 . S
C1016 C1011 1.350 . S
C1017 H1004 0.929 . S
C1017 C1009 1.433 . S
C1017 N1019 1.384 . S
N1018 C1014 1.427 . S
N1018 C1015 1.384 . S
N1019 C1011 1.427 . S
N1019 C1017 1.384 . S
H1020 C1026 0.930 . S
H1021 C1030 0.930 . S
H1022 C1035 0.929 . S
H1023 C1033 0.929 . S
H1024 C1028 0.929 . S
H1025 C1034 0.929 . S
C1026 H1020 0.930 . S
C1026 C1027 1.367 . S
C1026 C1034 1.378 . S
C1027 C1026 1.367 . S
C1027 C1035 1.433 . S
C1028 H1024 0.929 . S
C1028 C1030 1.378 1_556 S
C1028 C1032 1.350 . S
C1029 C1032 1.463 . S
C1029 C1034 1.350 . S
C1029 N1037 1.427 . S
C1030 H1021 0.930 . S
C1030 C1028 1.378 1_554 S
C1030 C1031 1.367 1_554 S
C1031 C1030 1.367 1_556 S
C1031 C1033 1.433 . S
C1032 C1028 1.350 . S
C1032 C1029 1.463 . S
C1032 N1036 1.427 . S
C1033 H1023 0.929 . S
C1033 C1031 1.433 . S
C1033 N1036 1.384 . S
C1034 H1025 0.929 . S
C1034 C1026 1.378 . S
C1034 C1029 1.350 . S
C1035 H1022 0.929 . S
C1035 C1027 1.433 . S
C1035 N1037 1.384 . S
N1036 C1032 1.427 . S
N1036 C1033 1.384 . S
N1037 C1029 1.427 . S
N1037 C1035 1.384 . S
H1038 C1044 0.930 . S
H1039 C1048 0.930 . S
H1040 C1053 0.929 . S
H1041 C1051 0.929 . S
H1042 C1046 0.929 . S
H1043 C1052 0.929 . S
C1044 H1038 0.930 . S
C1044 C1045 1.367 1_554 S
C1044 C1052 1.378 1_554 S
C1045 C1044 1.367 1_556 S
C1045 C1053 1.433 . S
C1046 H1042 0.929 . S
C1046 C1048 1.378 . S
C1046 C1050 1.350 . S
C1047 C1050 1.463 . S
C1047 C1052 1.350 . S
C1047 N1055 1.427 . S
C1048 H1039 0.930 . S
C1048 C1046 1.378 . S
C1048 C1049 1.367 . S
C1049 C1048 1.367 . S
C1049 C1051 1.433 . S
C1050 C1046 1.350 . S
C1050 C1047 1.463 . S
C1050 N1054 1.427 . S
C1051 H1041 0.929 . S
C1051 C1049 1.433 . S
C1051 N1054 1.384 . S
C1052 H1043 0.929 . S
C1052 C1044 1.378 1_556 S
C1052 C1047 1.350 . S
C1053 H1040 0.929 . S
C1053 C1045 1.433 . S
C1053 N1055 1.384 . S
N1054 C1050 1.427 . S
N1054 C1051 1.384 . S
N1055 C1047 1.427 . S
N1055 C1053 1.384 . S
H1056 C1062 0.930 . S
H1057 C1066 0.930 . S
H1058 C1071 0.929 1_554 S
H1059 C1069 0.929 . S
H1060 C1064 0.929 . S
H1061 C1070 0.929 . S
C1062 H1056 0.930 . S
C1062 C1063 1.367 . S
C1062 C1070 1.378 . S
C1063 C1062 1.367 . S
C1063 C1071 1.433 . S
C1064 H1060 0.929 . S
C1064 C1066 1.378 . S
C1064 C1068 1.350 . S
C1065 C1068 1.463 . S
C1065 C1070 1.350 . S
C1065 N1073 1.427 . S
C1066 H1057 0.930 . S
C1066 C1064 1.378 . S
C1066 C1067 1.367 . S
C1067 C1066 1.367 . S
C1067 C1069 1.433 . S
C1068 C1064 1.350 . S
C1068 C1065 1.463 . S
C1068 N1072 1.427 . S
C1069 H1059 0.929 . S
C1069 C1067 1.433 . S
C1069 N1072 1.384 . S
C1070 H1061 0.929 . S
C1070 C1062 1.378 . S
C1070 C1065 1.350 . S
C1071 H1058 0.929 1_556 S
C1071 C1063 1.433 . S
C1071 N1073 1.384 . S
N1072 C1068 1.427 . S
N1072 C1069 1.384 . S
N1073 C1065 1.427 . S
N1073 C1071 1.384 . S
H1074 C1080 0.930 . S
H1075 C1084 0.930 . S
H1076 C1089 0.929 . S
H1077 C1087 0.929 . S
H1078 C1082 0.929 . S
H1079 C1088 0.929 . S
C1080 H1074 0.930 . S
C1080 C1081 1.367 . S
C1080 C1088 1.378 . S
C1081 C1080 1.367 . S
C1081 C1089 1.433 . S
C1082 H1078 0.929 . S
C1082 C1084 1.378 . S
C1082 C1086 1.350 . S
C1083 C1086 1.463 . S
C1083 C1088 1.350 . S
C1083 N1091 1.427 . S
C1084 H1075 0.930 . S
C1084 C1082 1.378 . S
C1084 C1085 1.367 . S
C1085 C1084 1.367 . S
C1085 C1087 1.433 . S
C1086 C1082 1.350 . S
C1086 C1083 1.463 . S
C1086 N1090 1.427 . S
C1087 H1077 0.929 . S
C1087 C1085 1.433 . S
C1087 N1090 1.384 . S
C1088 H1079 0.929 . S
C1088 C1080 1.378 . S
C1088 C1083 1.350 . S
C1089 H1076 0.929 . S
C1089 C1081 1.433 . S
C1089 N1091 1.384 . S
N1090 C1086 1.427 . S
N1090 C1087 1.384 . S
N1091 C1083 1.427 . S
N1091 C1089 1.384 . S
H1092 C1098 0.930 . S
H1093 C1102 0.930 . S
H1094 C1107 0.929 . S
H1095 C1105 0.929 . S
H1096 C1100 0.929 . S
H1097 C1106 0.929 . S
C1098 H1092 0.930 . S
C1098 C1099 1.367 . S
C1098 C1106 1.378 . S
C1099 C1098 1.367 . S
C1099 C1107 1.433 . S
C1100 H1096 0.929 . S
C1100 C1102 1.378 . S
C1100 C1104 1.350 . S
C1101 C1104 1.463 . S
C1101 C1106 1.350 . S
C1101 N1109 1.427 . S
C1102 H1093 0.930 . S
C1102 C1100 1.378 . S
C1102 C1103 1.367 . S
C1103 C1102 1.367 . S
C1103 C1105 1.433 . S
C1104 C1100 1.350 . S
C1104 C1101 1.463 . S
C1104 N1108 1.427 . S
C1105 H1095 0.929 . S
C1105 C1103 1.433 . S
C1105 N1108 1.384 . S
C1106 H1097 0.929 . S
C1106 C1098 1.378 . S
C1106 C1101 1.350 . S
C1107 H1094 0.929 . S
C1107 C1099 1.433 . S
C1107 N1109 1.384 . S
N1108 C1104 1.427 . S
N1108 C1105 1.384 . S
N1109 C1101 1.427 . S
N1109 C1107 1.384 . S
H1110 C1116 0.930 . S
H1111 C1120 0.930 . S
H1112 C1125 0.929 . S
H1113 C1123 0.929 . S
H1114 C1118 0.929 . S
H1115 C1124 0.929 . S
C1116 H1110 0.930 . S
C1116 C1117 1.367 . S
C1116 C1124 1.378 . S
C1117 C1116 1.367 . S
C1117 C1125 1.433 . S
C1118 H1114 0.929 . S
C1118 C1120 1.378 . S
C1118 C1122 1.350 . S
C1119 C1122 1.463 . S
C1119 C1124 1.350 . S
C1119 N1127 1.427 . S
C1120 H1111 0.930 . S
C1120 C1118 1.378 . S
C1120 C1121 1.367 . S
C1121 C1120 1.367 . S
C1121 C1123 1.433 . S
C1122 C1118 1.350 . S
C1122 C1119 1.463 . S
C1122 N1126 1.427 . S
C1123 H1113 0.929 . S
C1123 C1121 1.433 . S
C1123 N1126 1.384 . S
C1124 H1115 0.929 . S
C1124 C1116 1.378 . S
C1124 C1119 1.350 . S
C1125 H1112 0.929 . S
C1125 C1117 1.433 . S
C1125 N1127 1.384 . S
N1126 C1122 1.427 . S
N1126 C1123 1.384 . S
N1127 C1119 1.427 . S
N1127 C1125 1.384 . S
H1128 C1134 0.930 . S
H1129 C1138 0.930 . S
H1130 C1143 0.929 . S
H1131 C1141 0.929 . S
H1132 C1136 0.929 . S
H1133 C1142 0.929 . S
C1134 H1128 0.930 . S
C1134 C1135 1.367 . S
C1134 C1142 1.378 . S
C1135 C1134 1.367 . S
C1135 C1143 1.433 1_554 S
C1136 H1132 0.929 . S
C1136 C1138 1.378 . S
C1136 C1140 1.350 . S
C1137 C1140 1.463 . S
C1137 C1142 1.350 . S
C1137 N1145 1.427 . S
C1138 H1129 0.930 . S
C1138 C1136 1.378 . S
C1138 C1139 1.367 . S
C1139 C1138 1.367 . S
C1139 C1141 1.433 . S
C1140 C1136 1.350 . S
C1140 C1137 1.463 . S
C1140 N1144 1.427 . S
C1141 H1131 0.929 . S
C1141 C1139 1.433 . S
C1141 N1144 1.384 . S
C1142 H1133 0.929 . S
C1142 C1134 1.378 . S
C1142 C1137 1.350 . S
C1143 H1130 0.929 . S
C1143 C1135 1.433 1_556 S
C1143 N1145 1.384 1_556 S
N1144 C1140 1.427 . S
N1144 C1141 1.384 . S
N1145 C1137 1.427 . S
N1145 C1143 1.384 1_554 S
H1146 C1152 0.930 . S
H1147 C1156 0.930 . S
H1148 C1161 0.929 1_556 S
H1149 C1159 0.929 . S
H1150 C1154 0.929 . S
H1151 C1160 0.929 . S
C1152 H1146 0.930 . S
C1152 C1153 1.367 . S
C1152 C1160 1.378 . S
C1153 C1152 1.367 . S
C1153 C1161 1.433 . S
C1154 H1150 0.929 . S
C1154 C1156 1.378 . S
C1154 C1158 1.350 . S
C1155 C1158 1.463 . S
C1155 C1160 1.350 . S
C1155 N1163 1.427 . S
C1156 H1147 0.930 . S
C1156 C1154 1.378 . S
C1156 C1157 1.367 . S
C1157 C1156 1.367 . S
C1157 C1159 1.433 . S
C1158 C1154 1.350 . S
C1158 C1155 1.463 . S
C1158 N1162 1.427 . S
C1159 H1149 0.929 . S
C1159 C1157 1.433 . S
C1159 N1162 1.384 . S
C1160 H1151 0.929 . S
C1160 C1152 1.378 . S
C1160 C1155 1.350 . S
C1161 H1148 0.929 1_554 S
C1161 C1153 1.433 . S
C1161 N1163 1.384 . S
N1162 C1158 1.427 . S
N1162 C1159 1.384 . S
N1163 C1155 1.427 . S
N1163 C1161 1.384 . S
H1164 C1170 0.930 1_556 S
H1165 C1174 0.930 . S
H1166 C1179 0.929 . S
H1167 C1177 0.929 . S
H1168 C1172 0.929 . S
H1169 C1178 0.929 . S
C1170 H1164 0.930 1_554 S
C1170 C1171 1.367 . S
C1170 C1178 1.378 . S
C1171 C1170 1.367 . S
C1171 C1179 1.433 . S
C1172 H1168 0.929 . S
C1172 C1174 1.378 . S
C1172 C1176 1.350 . S
C1173 C1176 1.463 . S
C1173 C1178 1.350 . S
C1173 N1181 1.427 . S
C1174 H1165 0.930 . S
C1174 C1172 1.378 . S
C1174 C1175 1.367 . S
C1175 C1174 1.367 . S
C1175 C1177 1.433 . S
C1176 C1172 1.350 . S
C1176 C1173 1.463 . S
C1176 N1180 1.427 . S
C1177 H1167 0.929 . S
C1177 C1175 1.433 . S
C1177 N1180 1.384 . S
C1178 H1169 0.929 . S
C1178 C1170 1.378 . S
C1178 C1173 1.350 . S
C1179 H1166 0.929 . S
C1179 C1171 1.433 . S
C1179 N1181 1.384 . S
N1180 C1176 1.427 . S
N1180 C1177 1.384 . S
N1181 C1173 1.427 . S
N1181 C1179 1.384 . S
H1182 C1188 0.930 . S
H1183 C1192 0.930 . S
H1184 C1197 0.929 . S
H1185 C1195 0.929 . S
H1186 C1190 0.929 . S
H1187 C1196 0.929 . S
C1188 H1182 0.930 . S
C1188 C1189 1.367 . S
C1188 C1196 1.378 . S
C1189 C1188 1.367 . S
C1189 C1197 1.433 . S
C1190 H1186 0.929 . S
C1190 C1192 1.378 . S
C1190 C1194 1.350 . S
C1191 C1194 1.463 . S
C1191 C1196 1.350 . S
C1191 N1199 1.427 . S
C1192 H1183 0.930 . S
C1192 C1190 1.378 . S
C1192 C1193 1.367 . S
C1193 C1192 1.367 . S
C1193 C1195 1.433 . S
C1194 C1190 1.350 . S
C1194 C1191 1.463 . S
C1194 N1198 1.427 . S
C1195 H1185 0.929 . S
C1195 C1193 1.433 . S
C1195 N1198 1.384 . S
C1196 H1187 0.929 . S
C1196 C1188 1.378 . S
C1196 C1191 1.350 . S
C1197 H1184 0.929 . S
C1197 C1189 1.433 . S
C1197 N1199 1.384 . S
N1198 C1194 1.427 . S
N1198 C1195 1.384 . S
N1199 C1191 1.427 . S
N1199 C1197 1.384 . S
H1200 C1206 0.930 . S
H1201 C1210 0.930 . S
H1202 C1215 0.929 . S
H1203 C1213 0.929 . S
H1204 C1208 0.929 . S
H1205 C1214 0.929 . S
C1206 H1200 0.930 . S
C1206 C1207 1.367 . S
C1206 C1214 1.378 . S
C1207 C1206 1.367 . S
C1207 C1215 1.433 . S
C1208 H1204 0.929 . S
C1208 C1210 1.378 . S
C1208 C1212 1.350 . S
C1209 C1212 1.463 . S
C1209 C1214 1.350 . S
C1209 N1217 1.427 . S
C1210 H1201 0.930 . S
C1210 C1208 1.378 . S
C1210 C1211 1.367 . S
C1211 C1210 1.367 . S
C1211 C1213 1.433 . S
C1212 C1208 1.350 . S
C1212 C1209 1.463 . S
C1212 N1216 1.427 . S
C1213 H1203 0.929 . S
C1213 C1211 1.433 . S
C1213 N1216 1.384 . S
C1214 H1205 0.929 . S
C1214 C1206 1.378 . S
C1214 C1209 1.350 . S
C1215 H1202 0.929 . S
C1215 C1207 1.433 . S
C1215 N1217 1.384 . S
N1216 C1212 1.427 . S
N1216 C1213 1.384 . S
N1217 C1209 1.427 . S
N1217 C1215 1.384 . S
H1218 C1224 0.930 . S
H1219 C1228 0.930 . S
H1220 C1233 0.929 . S
H1221 C1231 0.929 . S
H1222 C1226 0.929 . S
H1223 C1232 0.929 . S
C1224 H1218 0.930 . S
C1224 C1225 1.367 . S
C1224 C1232 1.378 . S
C1225 C1224 1.367 . S
C1225 C1233 1.433 . S
C1226 H1222 0.929 . S
C1226 C1228 1.378 . S
C1226 C1230 1.350 . S
C1227 C1230 1.463 . S
C1227 C1232 1.350 . S
C1227 N1235 1.427 . S
C1228 H1219 0.930 . S
C1228 C1226 1.378 . S
C1228 C1229 1.367 . S
C1229 C1228 1.367 . S
C1229 C1231 1.433 . S
C1230 C1226 1.350 . S
C1230 C1227 1.463 . S
C1230 N1234 1.427 . S
C1231 H1221 0.929 . S
C1231 C1229 1.433 . S
C1231 N1234 1.384 . S
C1232 H1223 0.929 . S
C1232 C1224 1.378 . S
C1232 C1227 1.350 . S
C1233 H1220 0.929 . S
C1233 C1225 1.433 . S
C1233 N1235 1.384 . S
N1234 C1230 1.427 . S
N1234 C1231 1.384 . S
N1235 C1227 1.427 . S
N1235 C1233 1.384 . S
C379 C24 1.295 . S
C383 C42 1.134 . S
C397 C73 1.144 . S
C401 C55 1.294 . S
C415 C86 1.297 . S
C419 C11 1.158 . S
C433 C166 1.142 . S
C437 C117 1.301 . S
C451 C104 1.158 . S
C455 C148 1.297 . S
C469 C179 1.294 . S
C473 C135 1.135 . S
C487 C186 1.296 . S
C491 C235 1.129 . S
C505 C266 1.139 . S
C509 C217 1.294 . S
C523 C248 1.297 . S
C527 C204 1.128 . S
C541 C279 1.297 . S
C545 C359 1.157 . S
C559 C297 1.129 . S
C563 C310 1.296 . S
C577 C328 1.129 . S
C581 C341 1.296 . S
C595 C210 1.211 . S
C599 C0 1.211 . S
C613 C31 1.186 . S
C617 C241 1.186 . S
C631 C62 1.197 . S
C635 C272 1.197 . S
C649 C93 1.206 . S
C653 C303 1.206 . S
C667 C124 1.212 . S
C671 C334 1.212 . S
C685 C365 1.200 . S
C689 C155 1.200 . S
C703 C1 1.053 . S
C707 C281 1.035 . S
C721 C32 1.066 . S
C725 C312 1.046 . S
C739 C343 1.032 . S
C743 C63 1.057 . S
C757 C188 1.051 . S
C761 C94 1.062 . S
C775 C219 1.048 . S
C779 C125 1.065 . S
C793 C250 1.032 . S
C797 C156 1.052 . S
C811 C103 1.049 . S
C815 C213 1.061 . S
C829 C244 1.065 . S
C833 C134 1.044 . S
C847 C275 1.063 . S
C851 C165 1.051 . S
C865 C10 1.038 . S
C869 C306 1.052 . S
C883 C337 1.063 . S
C887 C41 1.043 . S
C901 C72 1.049 . S
C905 C368 1.058 . S
C919 C111 2.271 . S
C923 C18 2.282 . S
C937 C142 2.277 . S
C941 C49 2.280 . S
C955 C173 2.281 . S
C959 C80 2.276 . S
C973 C197 2.282 . S
C977 C290 2.271 . S
C991 C228 2.270 . S
C995 C321 2.279 . S
C1009 C352 2.276 . S
C1013 C259 2.271 . S
C1027 C311 1.476 . S
C1031 C2 1.624 1_556 S
C1045 C33 1.624 1_556 S
C1049 C342 1.480 . S
C1063 C64 1.635 1_556 S
C1067 C280 1.498 . S
C1081 C95 1.626 . S
C1085 C249 1.475 . S
C1099 C187 1.494 . S
C1103 C126 1.636 . S
C1117 C218 1.480 . S
C1121 C157 1.624 . S
C1135 C196 1.637 1_554 S
C1139 C151 1.497 . S
C1153 C227 1.633 1_554 S
C1157 C182 1.486 . S
C1171 C258 1.627 1_554 S
C1175 C120 1.476 . S
C1189 C89 1.483 . S
C1193 C289 1.632 . S
C1207 C27 1.476 . S
C1211 C320 1.624 . S
C1225 C58 1.475 . S
C1229 C351 1.627 . S
