# Generated by pormake.
# Topology cds-f, (5)-cn, num edge types: 1
# Building blocks:
#     Node 0, Type 0, BuildingBlock: BEQFEK_clean_sbu_0, # of connection points: 5
#     Node 1, Type 0, BuildingBlock: BEQFEK_clean_sbu_0, # of connection points: 5
#     Node 2, Type 0, BuildingBlock: BEQFEK_clean_sbu_0, # of connection points: 5
#     Node 3, Type 0, BuildingBlock: BEQFEK_clean_sbu_0, # of connection points: 5
#     Node 4, Type 0, BuildingBlock: BEQFEK_clean_sbu_0, # of connection points: 5
#     Node 5, Type 0, BuildingBlock: BEQFEK_clean_sbu_0, # of connection points: 5
#     Node 6, Type 0, BuildingBlock: BEQFEK_clean_sbu_0, # of connection points: 5
#     Node 7, Type 0, BuildingBlock: BEQFEK_clean_sbu_0, # of connection points: 5
#     Node 8, Type 0, BuildingBlock: BEQFEK_clean_sbu_0, # of connection points: 5
#     Node 9, Type 0, BuildingBlock: BEQFEK_clean_sbu_0, # of connection points: 5
#     Node 10, Type 0, BuildingBlock: BEQFEK_clean_sbu_0, # of connection points: 5
#     Node 11, Type 0, BuildingBlock: BEQFEK_clean_sbu_0, # of connection points: 5
#     Node 12, Type 0, BuildingBlock: BEQFEK_clean_sbu_0, # of connection points: 5
#     Node 13, Type 0, BuildingBlock: BEQFEK_clean_sbu_0, # of connection points: 5
#     Node 14, Type 0, BuildingBlock: BEQFEK_clean_sbu_0, # of connection points: 5
#     Node 15, Type 0, BuildingBlock: BEQFEK_clean_sbu_0, # of connection points: 5
#     Edge 16, Type (0, 0), BuildingBlock: XIVTED_clean_linker_0, # of connection points: 2
#     Edge 17, Type (0, 0), BuildingBlock: XIVTED_clean_linker_0, # of connection points: 2
#     Edge 18, Type (0, 0), BuildingBlock: XIVTED_clean_linker_0, # of connection points: 2
#     Edge 19, Type (0, 0), BuildingBlock: XIVTED_clean_linker_0, # of connection points: 2
#     Edge 20, Type (0, 0), BuildingBlock: XIVTED_clean_linker_0, # of connection points: 2
#     Edge 21, Type (0, 0), BuildingBlock: XIVTED_clean_linker_0, # of connection points: 2
#     Edge 22, Type (0, 0), BuildingBlock: XIVTED_clean_linker_0, # of connection points: 2
#     Edge 23, Type (0, 0), BuildingBlock: XIVTED_clean_linker_0, # of connection points: 2
#     Edge 24, Type (0, 0), BuildingBlock: XIVTED_clean_linker_0, # of connection points: 2
#     Edge 25, Type (0, 0), BuildingBlock: XIVTED_clean_linker_0, # of connection points: 2
#     Edge 26, Type (0, 0), BuildingBlock: XIVTED_clean_linker_0, # of connection points: 2
#     Edge 27, Type (0, 0), BuildingBlock: XIVTED_clean_linker_0, # of connection points: 2
#     Edge 28, Type (0, 0), BuildingBlock: XIVTED_clean_linker_0, # of connection points: 2
#     Edge 29, Type (0, 0), BuildingBlock: XIVTED_clean_linker_0, # of connection points: 2
#     Edge 30, Type (0, 0), BuildingBlock: XIVTED_clean_linker_0, # of connection points: 2
#     Edge 31, Type (0, 0), BuildingBlock: XIVTED_clean_linker_0, # of connection points: 2
#     Edge 32, Type (0, 0), BuildingBlock: XIVTED_clean_linker_0, # of connection points: 2
#     Edge 33, Type (0, 0), BuildingBlock: XIVTED_clean_linker_0, # of connection points: 2
#     Edge 34, Type (0, 0), BuildingBlock: XIVTED_clean_linker_0, # of connection points: 2
#     Edge 35, Type (0, 0), BuildingBlock: XIVTED_clean_linker_0, # of connection points: 2
#     Edge 36, Type (0, 0), BuildingBlock: XIVTED_clean_linker_0, # of connection points: 2
#     Edge 37, Type (0, 0), BuildingBlock: XIVTED_clean_linker_0, # of connection points: 2
#     Edge 38, Type (0, 0), BuildingBlock: XIVTED_clean_linker_0, # of connection points: 2
#     Edge 39, Type (0, 0), BuildingBlock: XIVTED_clean_linker_0, # of connection points: 2
#     Edge 40, Type (0, 0), BuildingBlock: XIVTED_clean_linker_0, # of connection points: 2
#     Edge 41, Type (0, 0), BuildingBlock: XIVTED_clean_linker_0, # of connection points: 2
#     Edge 42, Type (0, 0), BuildingBlock: XIVTED_clean_linker_0, # of connection points: 2
#     Edge 43, Type (0, 0), BuildingBlock: XIVTED_clean_linker_0, # of connection points: 2
#     Edge 44, Type (0, 0), BuildingBlock: XIVTED_clean_linker_0, # of connection points: 2
#     Edge 45, Type (0, 0), BuildingBlock: XIVTED_clean_linker_0, # of connection points: 2
#     Edge 46, Type (0, 0), BuildingBlock: XIVTED_clean_linker_0, # of connection points: 2
#     Edge 47, Type (0, 0), BuildingBlock: XIVTED_clean_linker_0, # of connection points: 2
#     Edge 48, Type (0, 0), BuildingBlock: XIVTED_clean_linker_0, # of connection points: 2
#     Edge 49, Type (0, 0), BuildingBlock: XIVTED_clean_linker_0, # of connection points: 2
#     Edge 50, Type (0, 0), BuildingBlock: XIVTED_clean_linker_0, # of connection points: 2
#     Edge 51, Type (0, 0), BuildingBlock: XIVTED_clean_linker_0, # of connection points: 2
#     Edge 52, Type (0, 0), BuildingBlock: XIVTED_clean_linker_0, # of connection points: 2
#     Edge 53, Type (0, 0), BuildingBlock: XIVTED_clean_linker_0, # of connection points: 2
#     Edge 54, Type (0, 0), BuildingBlock: XIVTED_clean_linker_0, # of connection points: 2
#     Edge 55, Type (0, 0), BuildingBlock: XIVTED_clean_linker_0, # of connection points: 2
# Relax obj value: 0.091
# Max RMSD: 0.135
# Mean RMSD: 0.097
data_MOF--net-cds-f--node1-BEQFEK_clean_sbu_0--edge1-XIVTED_clean_linker_0
_symmetry_space_group_name_H-M    P1
_symmetry_Int_Tables_number       1
_symmetry_cell_setting            triclinic
loop_
_symmetry_equiv_pos_as_xyz
'x, y, z'
_cell_length_a     39.136623
_cell_length_b     39.145057
_cell_length_c     62.034187
_cell_angle_alpha  90.095222
_cell_angle_beta   94.29583
_cell_angle_gamma 87.504818
loop_
_atom_site_label
_atom_site_type_symbol
_atom_site_fract_x
_atom_site_fract_y
_atom_site_fract_z
_atom_type_partial_charge
Co0 Co 0.28877 0.31335 0.13912 0.0
Co1 Co 0.2088 0.32274 0.13538 0.0
C2 C 0.24771 0.28878 0.17392 0.0
O3 O 0.27655 0.29179 0.16604 0.0
O4 O 0.21978 0.29985 0.16392 0.0
C5 C 0.35978 0.28425 0.14318 0.0
O6 O 0.34855 0.2575 0.15278 0.0
C7 C 0.13775 0.30099 0.13161 0.0
C8 C 0.11021 0.34731 0.11775 0.0
C9 C 0.10541 0.31421 0.1244 0.0
N10 N 0.16047 0.3252 0.12925 0.0
N11 N 0.14383 0.35289 0.12109 0.0
C12 C 0.14756 0.26546 0.13928 0.0
H13 H 0.17465 0.25889 0.13621 0.0
H14 H 0.13043 0.24676 0.13112 0.0
H15 H 0.14513 0.26405 0.15696 0.0
C16 C 0.27486 0.28096 0.09647 0.0
N17 N 0.26412 0.29467 0.11481 0.0
N18 N 0.23063 0.29995 0.11265 0.0
C19 C 0.21905 0.29082 0.09252 0.0
C20 C 0.24677 0.27839 0.08153 0.0
C21 C 0.31161 0.27167 0.09321 0.0
H22 H 0.32306 0.25678 0.10733 0.0
H23 H 0.31422 0.2561 0.07842 0.0
H24 H 0.32597 0.29535 0.09207 0.0
O25 O 0.27949 0.36382 0.14006 0.0
O26 O 0.22283 0.37033 0.13717 0.0
H27 H 0.17564 0.32578 0.0875 0.0
H28 H 0.18085 0.2971 0.06529 0.0
C29 C 0.1833 0.29925 0.08313 0.0
H30 H 0.16546 0.28174 0.09006 0.0
H31 H 0.15552 0.37545 0.11754 0.0
O32 O 0.33878 0.30829 0.13651 0.0
C33 C 0.25226 0.38297 0.13898 0.0
Co34 Co 0.66649 0.2838 0.61785 0.0
Co35 Co 0.6647 0.20375 0.61923 0.0
C36 C 0.69041 0.24174 0.65769 0.0
O37 O 0.68519 0.26993 0.64745 0.0
O38 O 0.68374 0.21323 0.64877 0.0
C39 C 0.69452 0.35053 0.62539 0.0
O40 O 0.7137 0.33554 0.64121 0.0
C41 C 0.67825 0.1293 0.62513 0.0
C42 C 0.65188 0.10974 0.59512 0.0
C43 C 0.67147 0.09965 0.61367 0.0
N44 N 0.66358 0.15592 0.6137 0.0
N45 N 0.64753 0.14398 0.59593 0.0
C46 C 0.69964 0.13257 0.64597 0.0
H47 H 0.71836 0.15274 0.6444 0.0
H48 H 0.71348 0.10807 0.65071 0.0
H49 H 0.68278 0.1406 0.65884 0.0
C50 C 0.70264 0.2672 0.57855 0.0
N51 N 0.68823 0.25805 0.59661 0.0
N52 N 0.69038 0.22458 0.59848 0.0
C53 C 0.70793 0.21142 0.58232 0.0
C54 C 0.71572 0.23785 0.56881 0.0
C55 C 0.70009 0.30285 0.56967 0.0
H56 H 0.67624 0.3163 0.57434 0.0
H57 H 0.72232 0.31703 0.57651 0.0
H58 H 0.70002 0.3029 0.55179 0.0
O59 O 0.61664 0.27741 0.61536 0.0
O60 O 0.61595 0.22082 0.61653 0.0
H61 H 0.6975 0.16068 0.57156 0.0
H62 H 0.74175 0.17117 0.57127 0.0
C63 C 0.71845 0.17437 0.58036 0.0
H64 H 0.72375 0.16279 0.59663 0.0
H65 H 0.63411 0.15935 0.58414 0.0
O66 O 0.67345 0.33315 0.61383 0.0
C67 C 0.60026 0.25004 0.61526 0.0
Co68 Co 0.74305 0.68747 0.12717 0.0
Co69 Co 0.82277 0.68122 0.13048 0.0
C70 C 0.7852 0.71094 0.16658 0.0
O71 O 0.75676 0.70712 0.15567 0.0
O72 O 0.81363 0.70187 0.15904 0.0
C73 C 0.67468 0.71919 0.12797 0.0
O74 O 0.68917 0.74481 0.13823 0.0
C75 C 0.8953 0.69919 0.13396 0.0
C76 C 0.91777 0.65851 0.11391 0.0
C77 C 0.92572 0.68745 0.1258 0.0
N78 N 0.87053 0.67821 0.12701 0.0
N79 N 0.88421 0.65377 0.11525 0.0
C80 C 0.88894 0.73138 0.14634 0.0
H81 H 0.86194 0.74096 0.14307 0.0
H82 H 0.90658 0.75131 0.14202 0.0
H83 H 0.89343 0.72587 0.16389 0.0
C84 C 0.75447 0.71825 0.08514 0.0
N85 N 0.76599 0.70683 0.10493 0.0
N86 N 0.79968 0.70615 0.10673 0.0
C87 C 0.81073 0.71844 0.0883 0.0
C88 C 0.7825 0.72611 0.07381 0.0
C89 C 0.71793 0.71601 0.07632 0.0
H90 H 0.70698 0.69261 0.08249 0.0
H91 H 0.70277 0.73848 0.08193 0.0
H92 H 0.71547 0.71528 0.05842 0.0
O93 O 0.752 0.63781 0.12761 0.0
O94 O 0.80873 0.6328 0.12971 0.0
H95 H 0.8595 0.69613 0.08129 0.0
H96 H 0.8506 0.73856 0.07026 0.0
C97 C 0.84769 0.72178 0.08434 0.0
H98 H 0.86142 0.73284 0.09879 0.0
H99 H 0.8704 0.63433 0.10768 0.0
O100 O 0.69315 0.69405 0.1219 0.0
C101 C 0.7796 0.61937 0.12851 0.0
Co102 Co 0.26832 0.79536 0.61508 0.0
Co103 Co 0.27809 0.71607 0.61967 0.0
C104 C 0.24899 0.7484 0.57832 0.0
O105 O 0.25125 0.77827 0.58633 0.0
O106 O 0.25795 0.72185 0.58957 0.0
C107 C 0.25068 0.86437 0.60055 0.0
O108 O 0.25015 0.85161 0.58094 0.0
C109 C 0.26295 0.64322 0.6207 0.0
C110 C 0.30767 0.62217 0.64108 0.0
C111 C 0.27768 0.61303 0.62964 0.0
N112 N 0.28338 0.66884 0.62664 0.0
N113 N 0.31011 0.65607 0.63872 0.0
C114 C 0.22925 0.64838 0.60785 0.0
H115 H 0.21858 0.67476 0.61017 0.0
H116 H 0.21079 0.62956 0.61264 0.0
H117 H 0.23319 0.64492 0.59044 0.0
C118 C 0.23337 0.78616 0.65523 0.0
N119 N 0.24823 0.77333 0.63789 0.0
N120 N 0.25239 0.73997 0.63999 0.0
C121 C 0.24071 0.73046 0.65888 0.0
C122 C 0.22827 0.75951 0.66924 0.0
C123 C 0.22593 0.8235 0.65874 0.0
H124 H 0.25047 0.83654 0.66161 0.0
H125 H 0.21205 0.83474 0.644 0.0
H126 H 0.21012 0.82803 0.67267 0.0
O127 O 0.31936 0.78901 0.61813 0.0
O128 O 0.32486 0.73259 0.62102 0.0
H129 H 0.27437 0.68826 0.66917 0.0
H130 H 0.23738 0.69304 0.68453 0.0
C131 C 0.24655 0.69521 0.66816 0.0
H132 H 0.23327 0.67671 0.65727 0.0
H133 H 0.32997 0.67057 0.64545 0.0
O134 O 0.25765 0.84482 0.61673 0.0
C135 C 0.33809 0.76161 0.62023 0.0
Co136 Co 0.19885 0.70522 0.8868 0.0
Co137 Co 0.2776 0.70093 0.88014 0.0
C138 C 0.25155 0.73178 0.91995 0.0
O139 O 0.2207 0.7266 0.91311 0.0
O140 O 0.27656 0.7232 0.90879 0.0
C141 C 0.1324 0.74064 0.88801 0.0
O142 O 0.14891 0.76891 0.88638 0.0
C143 C 0.35244 0.7107 0.8791 0.0
C144 C 0.36437 0.67598 0.85227 0.0
C145 C 0.37919 0.69799 0.86739 0.0
N146 N 0.3232 0.69709 0.87096 0.0
N147 N 0.33063 0.67633 0.855 0.0
C148 C 0.3548 0.73182 0.89924 0.0
H149 H 0.34009 0.75645 0.89626 0.0
H150 H 0.38162 0.73665 0.90498 0.0
H151 H 0.34291 0.71817 0.91219 0.0
C152 C 0.19704 0.73481 0.84241 0.0
N153 N 0.21399 0.72367 0.86099 0.0
N154 N 0.24723 0.72418 0.85895 0.0
C155 C 0.25241 0.73724 0.83941 0.0
C156 C 0.22081 0.74408 0.8282 0.0
C157 C 0.15892 0.73462 0.83787 0.0
H158 H 0.1472 0.75837 0.84439 0.0
H159 H 0.15139 0.73403 0.8203 0.0
H160 H 0.14859 0.71233 0.8458 0.0
O161 O 0.20892 0.65533 0.8876 0.0
O162 O 0.26453 0.65281 0.88284 0.0
H163 H 0.29455 0.71455 0.82379 0.0
H164 H 0.2864 0.759 0.81766 0.0
C165 C 0.28687 0.73963 0.83068 0.0
H166 H 0.30617 0.74651 0.84377 0.0
H167 H 0.31266 0.66184 0.84621 0.0
O168 O 0.1487 0.71186 0.88816 0.0
C169 C 0.23686 0.63811 0.88571 0.0
Co170 Co 0.31778 0.28669 0.36726 0.0
Co171 Co 0.32596 0.20715 0.36775 0.0
C172 C 0.29204 0.24293 0.32959 0.0
O173 O 0.29601 0.27157 0.33904 0.0
O174 O 0.30264 0.2149 0.33868 0.0
C175 C 0.30504 0.35596 0.35406 0.0
O176 O 0.30914 0.34336 0.33474 0.0
C177 C 0.31325 0.13344 0.36722 0.0
C178 C 0.35531 0.11422 0.39044 0.0
C179 C 0.32731 0.10396 0.37744 0.0
N180 N 0.33211 0.1598 0.37404 0.0
N181 N 0.35733 0.14809 0.38776 0.0
C182 C 0.28088 0.13732 0.35284 0.0
H183 H 0.26919 0.16349 0.35426 0.0
H184 H 0.26225 0.11825 0.35701 0.0
H185 H 0.28697 0.13329 0.33582 0.0
C186 C 0.2881 0.27351 0.4089 0.0
N187 N 0.30091 0.26284 0.39037 0.0
N188 N 0.30186 0.22927 0.38973 0.0
C189 C 0.28843 0.21744 0.40749 0.0
C190 C 0.27961 0.24503 0.42046 0.0
C191 C 0.28797 0.30994 0.41633 0.0
H192 H 0.31047 0.32265 0.41071 0.0
H193 H 0.26438 0.32367 0.40924 0.0
H194 H 0.2887 0.31178 0.4342 0.0
O195 O 0.3683 0.28026 0.36768 0.0
O196 O 0.37319 0.22367 0.36792 0.0
H197 H 0.30842 0.16778 0.41748 0.0
H198 H 0.26471 0.17701 0.42399 0.0
C199 C 0.2835 0.1804 0.41171 0.0
H200 H 0.274 0.16785 0.39656 0.0
H201 H 0.37555 0.1634 0.39561 0.0
O202 O 0.30716 0.33597 0.37025 0.0
C203 C 0.38672 0.25265 0.36788 0.0
Co204 Co 0.76506 0.30321 0.87369 0.0
Co205 Co 0.68532 0.30847 0.87104 0.0
C206 C 0.72568 0.27734 0.90939 0.0
O207 O 0.75362 0.2826 0.90092 0.0
O208 O 0.6967 0.2859 0.89967 0.0
C209 C 0.83571 0.27589 0.87946 0.0
O210 O 0.82458 0.25031 0.89027 0.0
C211 C 0.61302 0.29046 0.87049 0.0
C212 C 0.58809 0.33228 0.85027 0.0
C213 C 0.58136 0.30329 0.86173 0.0
N214 N 0.63721 0.31102 0.86444 0.0
N215 N 0.62214 0.33598 0.85242 0.0
C216 C 0.62074 0.25831 0.88325 0.0
H217 H 0.6466 0.24749 0.88016 0.0
H218 H 0.60123 0.23915 0.87906 0.0
H219 H 0.62059 0.26431 0.90073 0.0
C220 C 0.75204 0.27044 0.83136 0.0
N221 N 0.74112 0.28352 0.8498 0.0
N222 N 0.7074 0.28521 0.84854 0.0
C223 C 0.69574 0.27289 0.82917 0.0
C224 C 0.7237 0.26327 0.81763 0.0
C225 C 0.78892 0.26717 0.82651 0.0
H226 H 0.79982 0.29288 0.8268 0.0
H227 H 0.80342 0.25143 0.83924 0.0
H228 H 0.7921 0.25503 0.81056 0.0
O229 O 0.75518 0.35285 0.87424 0.0
O230 O 0.69849 0.35695 0.87267 0.0
H231 H 0.6499 0.30176 0.81887 0.0
H232 H 0.65477 0.26155 0.80503 0.0
C233 C 0.65882 0.27459 0.82083 0.0
H234 H 0.64321 0.26256 0.83268 0.0
H235 H 0.63515 0.35554 0.84565 0.0
O236 O 0.8146 0.2987 0.87132 0.0
C237 C 0.72735 0.37085 0.87378 0.0
Co238 Co 0.71686 0.7913 0.37657 0.0
Co239 Co 0.71669 0.71152 0.3751 0.0
C240 C 0.74199 0.74583 0.41488 0.0
O241 O 0.73508 0.77433 0.40533 0.0
O242 O 0.73739 0.71763 0.40501 0.0
C243 C 0.75347 0.85357 0.37757 0.0
O244 O 0.78124 0.83351 0.37741 0.0
C245 C 0.73122 0.63647 0.37578 0.0
C246 C 0.6915 0.62045 0.35105 0.0
C247 C 0.71788 0.60789 0.36538 0.0
N248 N 0.71337 0.66443 0.36788 0.0
N249 N 0.68966 0.65461 0.35316 0.0
C250 C 0.76141 0.63775 0.39197 0.0
H251 H 0.77407 0.66241 0.39067 0.0
H252 H 0.78014 0.61622 0.38953 0.0
H253 H 0.75248 0.63588 0.40847 0.0
C254 C 0.74929 0.77973 0.33515 0.0
N255 N 0.73796 0.76843 0.35374 0.0
N256 N 0.74006 0.73478 0.35394 0.0
C257 C 0.75404 0.72368 0.33583 0.0
C258 C 0.76022 0.75176 0.32327 0.0
C259 C 0.74708 0.81641 0.32813 0.0
H260 H 0.77061 0.82894 0.3345 0.0
H261 H 0.7454 0.81889 0.31028 0.0
H262 H 0.72454 0.8299 0.3346 0.0
O263 O 0.66697 0.78528 0.37406 0.0
O264 O 0.66805 0.72864 0.37451 0.0
H265 H 0.73166 0.67824 0.3234 0.0
H266 H 0.77488 0.68312 0.31628 0.0
C267 C 0.75727 0.68691 0.32935 0.0
H268 H 0.76692 0.6711 0.3435 0.0
H269 H 0.67217 0.67132 0.34456 0.0
O270 O 0.72414 0.84078 0.3767 0.0
C271 C 0.65148 0.75738 0.37398 0.0
Co272 Co 0.70365 0.69431 0.87854 0.0
Co273 Co 0.78297 0.68838 0.87413 0.0
C274 C 0.75295 0.71713 0.91403 0.0
O275 O 0.72214 0.71432 0.90623 0.0
O276 O 0.77825 0.70779 0.90331 0.0
C277 C 0.63392 0.72268 0.88323 0.0
O278 O 0.6479 0.74934 0.89258 0.0
C279 C 0.85468 0.7084 0.87605 0.0
C280 C 0.87697 0.67247 0.85285 0.0
C281 C 0.88481 0.69913 0.86677 0.0
N282 N 0.82997 0.68823 0.86791 0.0
N283 N 0.84353 0.66666 0.85415 0.0
C284 C 0.8491 0.73678 0.89173 0.0
H285 H 0.82322 0.74915 0.88829 0.0
H286 H 0.86891 0.7561 0.89097 0.0
H287 H 0.85062 0.72602 0.90832 0.0
C288 C 0.70553 0.72528 0.83532 0.0
N289 N 0.72143 0.71426 0.85418 0.0
N290 N 0.75479 0.71279 0.85249 0.0
C291 C 0.76113 0.72363 0.83261 0.0
C292 C 0.73012 0.73149 0.82098 0.0
C293 C 0.6675 0.72597 0.83036 0.0
H294 H 0.65811 0.69989 0.83231 0.0
H295 H 0.65507 0.74302 0.84203 0.0
H296 H 0.66005 0.73534 0.81372 0.0
O297 O 0.71446 0.6445 0.87851 0.0
O298 O 0.77027 0.63995 0.87435 0.0
H299 H 0.8026 0.69406 0.82051 0.0
H300 H 0.79579 0.73572 0.80837 0.0
C301 C 0.79564 0.72126 0.8237 0.0
H302 H 0.81511 0.73151 0.8356 0.0
H303 H 0.82991 0.64797 0.84563 0.0
O304 O 0.65299 0.69851 0.87642 0.0
C305 C 0.74176 0.6263 0.87645 0.0
Co306 Co 0.32667 0.78712 0.37238 0.0
Co307 Co 0.33539 0.70748 0.37297 0.0
C308 C 0.3106 0.74424 0.33272 0.0
O309 O 0.31166 0.77303 0.3423 0.0
O310 O 0.31892 0.71643 0.34275 0.0
C311 C 0.29704 0.85453 0.36188 0.0
O312 O 0.28296 0.84016 0.34445 0.0
C313 C 0.32207 0.63444 0.36891 0.0
C314 C 0.35911 0.61243 0.39437 0.0
C315 C 0.33372 0.60389 0.37877 0.0
N316 N 0.33978 0.65979 0.37832 0.0
N317 N 0.36202 0.64647 0.39341 0.0
C318 C 0.2928 0.64012 0.35218 0.0
H319 H 0.28033 0.66582 0.35418 0.0
H320 H 0.27359 0.62029 0.35331 0.0
H321 H 0.30274 0.63888 0.3359 0.0
C322 C 0.28975 0.77249 0.41134 0.0
N323 N 0.30522 0.76246 0.39354 0.0
N324 N 0.30666 0.7289 0.39265 0.0
C325 C 0.29091 0.71645 0.40933 0.0
C326 C 0.28014 0.74356 0.42205 0.0
C327 C 0.28863 0.80866 0.41925 0.0
H328 H 0.31233 0.82127 0.41554 0.0
H329 H 0.26645 0.82285 0.41074 0.0
H330 H 0.2861 0.81004 0.43692 0.0
O331 O 0.37729 0.78042 0.37644 0.0
O332 O 0.38247 0.7238 0.37717 0.0
H333 H 0.31084 0.66708 0.41999 0.0
H334 H 0.26604 0.67521 0.42423 0.0
C335 C 0.28634 0.67919 0.41304 0.0
H336 H 0.2791 0.6666 0.39746 0.0
H337 H 0.37885 0.66072 0.40326 0.0
O338 O 0.3158 0.83647 0.37548 0.0
C339 C 0.39584 0.75287 0.37799 0.0
Co340 Co 0.26889 0.31372 0.88398 0.0
Co341 Co 0.18911 0.32023 0.88469 0.0
C342 C 0.23183 0.28932 0.92171 0.0
O343 O 0.25892 0.29449 0.91225 0.0
O344 O 0.20223 0.29736 0.91276 0.0
C345 C 0.33777 0.28323 0.89067 0.0
O346 O 0.32671 0.26751 0.90731 0.0
C347 C 0.1148 0.30719 0.88497 0.0
C348 C 0.09337 0.35225 0.8663 0.0
C349 C 0.08415 0.32317 0.87673 0.0
N350 N 0.14077 0.326 0.87941 0.0
N351 N 0.1277 0.35285 0.8683 0.0
C352 C 0.11943 0.27537 0.89839 0.0
H353 H 0.14431 0.27463 0.90808 0.0
H354 H 0.11905 0.25279 0.88756 0.0
H355 H 0.09839 0.27371 0.90934 0.0
C356 C 0.24992 0.28398 0.8413 0.0
N357 N 0.24148 0.29543 0.86076 0.0
N358 N 0.20792 0.2971 0.86115 0.0
C359 C 0.19386 0.2862 0.84199 0.0
C360 C 0.21997 0.2777 0.8287 0.0
C361 C 0.28559 0.28429 0.83409 0.0
H362 H 0.29704 0.30893 0.83869 0.0
H363 H 0.30153 0.2635 0.84248 0.0
H364 H 0.28624 0.28093 0.81638 0.0
O365 O 0.26161 0.364 0.88468 0.0
O366 O 0.20516 0.36758 0.88621 0.0
H367 H 0.14552 0.31189 0.8333 0.0
H368 H 0.15053 0.27002 0.82136 0.0
C369 C 0.15611 0.28541 0.83614 0.0
H370 H 0.14331 0.27424 0.84965 0.0
H371 H 0.14231 0.37161 0.86202 0.0
O372 O 0.31756 0.30352 0.87934 0.0
C373 C 0.23377 0.38174 0.88585 0.0
Co374 Co 0.70981 0.28689 0.3749 0.0
Co375 Co 0.70877 0.20688 0.37181 0.0
C376 C 0.73524 0.24101 0.41219 0.0
O377 O 0.72936 0.27055 0.40377 0.0
O378 O 0.72869 0.21395 0.40153 0.0
C379 C 0.73085 0.35501 0.387 0.0
O380 O 0.74288 0.34095 0.40538 0.0
C381 C 0.72859 0.13345 0.37392 0.0
C382 C 0.69374 0.11312 0.34774 0.0
C383 C 0.7198 0.10371 0.36316 0.0
N384 N 0.70875 0.15945 0.36513 0.0
N385 N 0.68778 0.14706 0.34963 0.0
C386 C 0.75641 0.13747 0.3915 0.0
H387 H 0.76921 0.16184 0.38933 0.0
H388 H 0.77562 0.11574 0.39164 0.0
H389 H 0.74488 0.13839 0.4073 0.0
C390 C 0.74314 0.27657 0.33407 0.0
N391 N 0.73151 0.26422 0.35227 0.0
N392 N 0.73222 0.23062 0.35133 0.0
C393 C 0.74489 0.22057 0.33263 0.0
C394 C 0.7518 0.24927 0.32095 0.0
C395 C 0.74076 0.31366 0.32804 0.0
H396 H 0.714 0.32378 0.32908 0.0
H397 H 0.75744 0.32802 0.33976 0.0
H398 H 0.7487 0.31794 0.3115 0.0
O399 O 0.65966 0.27941 0.37215 0.0
O400 O 0.66005 0.22279 0.37014 0.0
H401 H 0.72148 0.17651 0.31885 0.0
H402 H 0.76455 0.18177 0.31151 0.0
C403 C 0.74732 0.18439 0.3249 0.0
H404 H 0.7573 0.1673 0.33835 0.0
H405 H 0.66962 0.1619 0.34018 0.0
O406 O 0.71605 0.3367 0.37248 0.0
C407 C 0.64381 0.25166 0.37045 0.0
Co408 Co 0.79173 0.29326 0.12352 0.0
Co409 Co 0.71196 0.30777 0.12227 0.0
C410 C 0.7523 0.27772 0.16132 0.0
O411 O 0.78046 0.27841 0.15235 0.0
O412 O 0.72395 0.28771 0.15139 0.0
C413 C 0.86133 0.26564 0.13308 0.0
O414 O 0.8504 0.25462 0.15122 0.0
C415 C 0.63706 0.29796 0.12377 0.0
C416 C 0.61646 0.34548 0.10751 0.0
C417 C 0.60658 0.31644 0.11773 0.0
N418 N 0.66342 0.31555 0.11742 0.0
N419 N 0.65079 0.34376 0.10761 0.0
C420 C 0.64137 0.26527 0.13632 0.0
H421 H 0.66835 0.26043 0.14257 0.0
H422 H 0.63412 0.24374 0.12551 0.0
H423 H 0.62446 0.26596 0.14991 0.0
C424 C 0.77144 0.25826 0.08284 0.0
N425 N 0.76313 0.2736 0.10124 0.0
N426 N 0.72992 0.28082 0.10004 0.0
C427 C 0.71612 0.2713 0.08051 0.0
C428 C 0.74211 0.25681 0.06878 0.0
C429 C 0.80741 0.24761 0.07831 0.0
H430 H 0.82009 0.23365 0.09248 0.0
H431 H 0.80794 0.23087 0.06387 0.0
H432 H 0.82206 0.27069 0.07568 0.0
O433 O 0.78725 0.34406 0.1222 0.0
O434 O 0.73095 0.35348 0.12185 0.0
H435 H 0.67684 0.31006 0.07331 0.0
H436 H 0.6744 0.27436 0.05512 0.0
C437 C 0.68033 0.28188 0.07214 0.0
H438 H 0.66186 0.27028 0.08238 0.0
H439 H 0.66573 0.36226 0.10134 0.0
O440 O 0.8405 0.28152 0.11951 0.0
C441 C 0.76102 0.36453 0.12181 0.0
Co442 Co 0.66259 0.78506 0.62362 0.0
Co443 Co 0.65717 0.70575 0.61957 0.0
C444 C 0.68612 0.73727 0.66023 0.0
O445 O 0.68119 0.76697 0.65197 0.0
O446 O 0.67855 0.71052 0.64946 0.0
C447 C 0.69711 0.84848 0.6306 0.0
O448 O 0.72439 0.82925 0.63684 0.0
C449 C 0.67461 0.63157 0.61738 0.0
C450 C 0.62944 0.6141 0.59752 0.0
C451 C 0.66019 0.60261 0.60814 0.0
N452 N 0.65328 0.65872 0.61234 0.0
N453 N 0.62629 0.64803 0.60058 0.0
C454 C 0.70877 0.63413 0.62966 0.0
H455 H 0.71836 0.66019 0.62798 0.0
H456 H 0.72755 0.61483 0.62383 0.0
H457 H 0.70593 0.62939 0.64705 0.0
C458 C 0.70019 0.77366 0.58388 0.0
N459 N 0.68398 0.76219 0.60069 0.0
N460 N 0.68127 0.72889 0.59886 0.0
C461 C 0.69508 0.71817 0.58062 0.0
C462 C 0.70775 0.74617 0.5705 0.0
C463 C 0.70849 0.81028 0.58098 0.0
H464 H 0.72526 0.81832 0.59506 0.0
H465 H 0.72222 0.81436 0.56629 0.0
H466 H 0.68453 0.8266 0.58038 0.0
O467 O 0.61198 0.78034 0.62082 0.0
O468 O 0.60953 0.72402 0.61893 0.0
H469 H 0.70017 0.68033 0.55514 0.0
H470 H 0.70802 0.66458 0.58251 0.0
C471 C 0.69211 0.68267 0.57183 0.0
H472 H 0.66508 0.67535 0.57165 0.0
H473 H 0.6058 0.664 0.59448 0.0
O474 O 0.6695 0.83473 0.62388 0.0
C475 C 0.59471 0.75352 0.61938 0.0
Co476 Co 0.24029 0.70787 0.13448 0.0
Co477 Co 0.31983 0.69641 0.13356 0.0
C478 C 0.28982 0.72626 0.17209 0.0
O479 O 0.25965 0.72506 0.16293 0.0
O480 O 0.31602 0.71614 0.16248 0.0
C481 C 0.17315 0.7291 0.14697 0.0
O482 O 0.18831 0.73102 0.16652 0.0
C483 C 0.39528 0.70393 0.13318 0.0
C484 C 0.4074 0.66203 0.11067 0.0
C485 C 0.42206 0.68795 0.1229 0.0
N486 N 0.36619 0.68831 0.12695 0.0
N487 N 0.37375 0.66324 0.1136 0.0
C488 C 0.39733 0.73256 0.14918 0.0
H489 H 0.37626 0.73185 0.16006 0.0
H490 H 0.39493 0.75729 0.14037 0.0
H491 H 0.42225 0.73108 0.159 0.0
C492 C 0.24969 0.7377 0.09148 0.0
N493 N 0.2622 0.72561 0.11096 0.0
N494 N 0.29585 0.72354 0.11159 0.0
C495 C 0.30597 0.73581 0.09295 0.0
C496 C 0.27711 0.74457 0.07928 0.0
C497 C 0.21252 0.73736 0.08376 0.0
H498 H 0.20041 0.71554 0.09108 0.0
H499 H 0.19936 0.76137 0.08888 0.0
H500 H 0.2089 0.73522 0.06592 0.0
O501 O 0.24481 0.65731 0.13445 0.0
O502 O 0.3012 0.65014 0.13378 0.0
H503 H 0.35332 0.7132 0.08352 0.0
H504 H 0.34517 0.757 0.07487 0.0
C505 C 0.34269 0.73862 0.08821 0.0
H506 H 0.3578 0.74735 0.10285 0.0
H507 H 0.35578 0.64707 0.10634 0.0
O508 O 0.19078 0.7205 0.13129 0.0
C509 C 0.27169 0.63785 0.1342 0.0
Co510 Co 0.27639 0.29511 0.61584 0.0
Co511 Co 0.28114 0.21531 0.61771 0.0
C512 C 0.2537 0.25162 0.57764 0.0
O513 O 0.25783 0.28073 0.58649 0.0
O514 O 0.26113 0.22402 0.58811 0.0
C515 C 0.24918 0.36421 0.60641 0.0
O516 O 0.23281 0.35111 0.5893 0.0
C517 C 0.26421 0.143 0.61532 0.0
C518 C 0.3038 0.11999 0.63887 0.0
C519 C 0.27616 0.11221 0.62473 0.0
N520 N 0.28395 0.16778 0.62358 0.0
N521 N 0.30764 0.15385 0.63756 0.0
C522 C 0.23327 0.14946 0.59998 0.0
H523 H 0.22182 0.17543 0.60259 0.0
H524 H 0.21388 0.1301 0.60206 0.0
H525 H 0.2411 0.14803 0.58317 0.0
C526 C 0.24444 0.28442 0.65705 0.0
N527 N 0.25629 0.27252 0.63849 0.0
N528 N 0.25668 0.23894 0.63865 0.0
C529 C 0.2442 0.22835 0.65702 0.0
C530 C 0.23648 0.25672 0.66952 0.0
C531 C 0.24592 0.32108 0.66387 0.0
H532 H 0.27126 0.33084 0.66069 0.0
H533 H 0.22601 0.33646 0.65403 0.0
H534 H 0.24183 0.32456 0.68123 0.0
O535 O 0.32684 0.28587 0.61802 0.0
O536 O 0.32913 0.22921 0.61926 0.0
H537 H 0.26687 0.18042 0.66837 0.0
H538 H 0.22386 0.18904 0.67623 0.0
C539 C 0.24115 0.19163 0.66299 0.0
H540 H 0.23087 0.17722 0.64874 0.0
H541 H 0.32628 0.16756 0.64632 0.0
O542 O 0.26835 0.34494 0.61908 0.0
C543 C 0.34401 0.25746 0.61913 0.0
H544 H 0.89158 0.28261 0.09655 0.0
H545 H 0.08112 0.27133 0.15432 0.0
H546 H 0.91527 0.24418 0.16139 0.0
H547 H 0.05303 0.3219 0.09343 0.0
H548 H 0.02275 0.25126 0.15447 0.0
H549 H 0.95268 0.28683 0.09248 0.0
C550 C 0.90965 0.27473 0.10988 0.0
C551 C 0.89826 0.2636 0.12949 0.0
C552 C 0.02954 0.2663 0.14092 0.0
C553 C 0.96837 0.26858 0.12496 0.0
C554 C 0.06295 0.27748 0.14073 0.0
C555 C 0.07192 0.29815 0.12377 0.0
C556 C 0.00506 0.27594 0.12406 0.0
C557 C 0.04707 0.30616 0.10687 0.0
C558 C 0.94458 0.27718 0.10754 0.0
C559 C 0.92291 0.25325 0.14607 0.0
N560 N 0.01476 0.29519 0.10749 0.0
N561 N 0.95684 0.2564 0.14353 0.0
H562 H 0.65653 0.06502 0.64951 0.0
H563 H 0.74903 0.88814 0.61979 0.0
H564 H 0.70808 0.05386 0.59074 0.0
H565 H 0.64737 0.89355 0.64237 0.0
H566 H 0.74764 0.95114 0.61816 0.0
H567 H 0.66695 0.00338 0.65645 0.0
C568 C 0.67068 0.04963 0.63837 0.0
C569 C 0.68152 0.06412 0.61957 0.0
C570 C 0.72592 0.93835 0.6237 0.0
C571 C 0.69379 0.99454 0.62746 0.0
C572 C 0.72672 0.90265 0.6247 0.0
C573 C 0.69817 0.88594 0.63108 0.0
C574 C 0.69683 0.95711 0.6298 0.0
C575 C 0.66973 0.90565 0.63718 0.0
C576 C 0.67644 0.01468 0.64226 0.0
C577 C 0.69936 0.04333 0.6054 0.0
N578 N 0.66982 0.94029 0.6365 0.0
N579 N 0.70507 0.00944 0.60965 0.0
H580 H 0.97054 0.69156 0.09483 0.0
H581 H 0.12628 0.74026 0.17726 0.0
H582 H 0.9587 0.7156 0.16181 0.0
H583 H 0.13401 0.72554 0.10876 0.0
H584 H 0.06392 0.73779 0.17152 0.0
H585 H 0.02938 0.70985 0.09912 0.0
C586 C 0.9803 0.70109 0.1104 0.0
C587 C 0.95982 0.70216 0.12798 0.0
C588 C 0.07926 0.73552 0.15772 0.0
C589 C 0.02731 0.72272 0.13316 0.0
C590 C 0.11487 0.73695 0.16098 0.0
C591 C 0.13542 0.73251 0.14351 0.0
C592 C 0.06423 0.72946 0.13687 0.0
C593 C 0.11923 0.72858 0.12276 0.0
C594 C 0.01386 0.71162 0.11285 0.0
C595 C 0.97356 0.71482 0.14778 0.0
N596 N 0.08465 0.72675 0.12007 0.0
N597 N 0.00667 0.72425 0.14992 0.0
H598 H 0.24757 0.898 0.63895 0.0
H599 H 0.25357 0.08334 0.58614 0.0
H600 H 0.24336 0.91545 0.57006 0.0
H601 H 0.27232 0.06195 0.6543 0.0
H602 H 0.23952 0.02361 0.58002 0.0
H603 H 0.24626 0.95952 0.64478 0.0
C604 C 0.24613 0.91478 0.62501 0.0
C605 C 0.24614 0.90155 0.60398 0.0
C606 C 0.24623 0.03214 0.59634 0.0
C607 C 0.24476 0.97214 0.61059 0.0
C608 C 0.25391 0.06629 0.59987 0.0
C609 C 0.26384 0.07756 0.62079 0.0
C610 C 0.24862 0.00925 0.61386 0.0
C611 C 0.26488 0.05418 0.63791 0.0
C612 C 0.24538 0.94995 0.62837 0.0
C613 C 0.24376 0.92456 0.58655 0.0
N614 N 0.2575 0.0211 0.63406 0.0
N615 N 0.24352 0.95881 0.59025 0.0
H616 H 0.91959 0.70519 0.90617 0.0
H617 H 0.0869 0.78135 0.86309 0.0
H618 H 0.92806 0.72179 0.83814 0.0
H619 H 0.09281 0.70122 0.91101 0.0
H620 H 0.02416 0.77676 0.85903 0.0
H621 H 0.9795 0.72108 0.91334 0.0
C622 C 0.93391 0.71289 0.89284 0.0
C623 C 0.91918 0.7123 0.87156 0.0
C624 C 0.0393 0.76064 0.87064 0.0
C625 C 0.98687 0.73073 0.87961 0.0
C626 C 0.07487 0.76336 0.87305 0.0
C627 C 0.09476 0.74152 0.88734 0.0
C628 C 0.02377 0.73666 0.88308 0.0
C629 C 0.07819 0.71834 0.89974 0.0
C630 C 0.96794 0.72173 0.89691 0.0
C631 C 0.93876 0.72193 0.85475 0.0
N632 N 0.04355 0.71656 0.89739 0.0
N633 N 0.97171 0.73091 0.85913 0.0
H634 H 0.27173 0.90329 0.33247 0.0
H635 H 0.33003 0.05717 0.40971 0.0
H636 H 0.31533 0.89082 0.39816 0.0
H637 H 0.2995 0.07001 0.34182 0.0
H638 H 0.31619 0.99714 0.40696 0.0
H639 H 0.27286 0.96543 0.33691 0.0
C640 C 0.28116 0.91361 0.34789 0.0
C641 C 0.29389 0.89189 0.36489 0.0
C642 C 0.31211 0.01313 0.39269 0.0
C643 C 0.29527 0.96272 0.37003 0.0
C644 C 0.32004 0.04739 0.39425 0.0
C645 C 0.31568 0.06863 0.376 0.0
C646 C 0.30007 -0.00017 0.37265 0.0
C647 C 0.30258 0.05472 0.35639 0.0
C648 C 0.28189 0.94904 0.35039 0.0
C649 C 0.3057 0.90661 0.38453 0.0
N650 N 0.29546 0.02105 0.35519 0.0
N651 N 0.30631 0.94108 0.38651 0.0
H652 H 0.86554 0.33024 0.8627 0.0
H653 H 0.05809 0.25842 0.87868 0.0
H654 H 0.89013 0.23197 0.89294 0.0
H655 H 0.02815 0.36596 0.8773 0.0
H656 H -0.00227 0.24496 0.87973 0.0
H657 H 0.92627 0.33993 0.8624 0.0
C658 C 0.88372 0.31054 0.8692 0.0
C659 C 0.8727 0.28031 0.87803 0.0
C660 C 0.00461 0.27145 0.87945 0.0
C661 C 0.94253 0.29144 0.87771 0.0
C662 C 0.0391 0.27923 0.87912 0.0
C663 C 0.04836 0.31347 0.87839 0.0
C664 C 0.9794 0.29808 0.87852 0.0
C665 C 0.02227 0.33922 0.87788 0.0
C666 C 0.91844 0.31623 0.86911 0.0
C667 C 0.89757 0.25572 0.88611 0.0
N668 N 0.98903 0.331 0.87786 0.0
N669 N 0.93152 0.26181 0.88576 0.0
H670 H 0.72561 0.07004 0.40171 0.0
H671 H 0.79573 0.89254 0.35573 0.0
H672 H 0.74285 0.05757 0.33427 0.0
H673 H 0.71593 0.89897 0.40006 0.0
H674 H 0.79419 0.95551 0.35391 0.0
H675 H 0.74035 0.00887 0.40751 0.0
C676 C 0.7333 0.05453 0.38828 0.0
C677 C 0.73309 0.06851 0.3675 0.0
C678 C 0.77746 0.94295 0.36425 0.0
C679 C 0.75013 -0.00064 0.37401 0.0
C680 C 0.77841 0.90727 0.36535 0.0
C681 C 0.75574 0.89088 0.37794 0.0
C682 C 0.75445 0.962 0.37633 0.0
C683 C 0.73356 0.91085 0.39003 0.0
C684 C 0.74149 0.0198 0.39156 0.0
C685 C 0.74268 0.04745 0.3505 0.0
N686 N 0.73351 0.94546 0.38898 0.0
N687 N 0.75089 0.01377 0.35411 0.0
H688 H 0.19978 0.43181 0.13769 0.0
H689 H 0.32373 0.58873 0.13468 0.0
H690 H 0.31028 0.42014 0.14044 0.0
H691 H 0.21358 0.60107 0.13524 0.0
H692 H 0.3191 0.52693 0.13638 0.0
H693 H 0.20423 0.49375 0.13664 0.0
C694 C 0.22501 0.44223 0.13814 0.0
C695 C 0.25472 0.42063 0.13914 0.0
C696 C 0.29593 0.54312 0.13614 0.0
C697 C 0.25994 0.49171 0.13785 0.0
C698 C 0.29852 0.57849 0.13513 0.0
C699 C 0.26897 0.60024 0.13482 0.0
C700 C 0.26355 0.52924 0.1368 0.0
C701 C 0.23705 0.58535 0.13544 0.0
C702 C 0.22751 0.47765 0.13752 0.0
C703 C 0.28668 0.43572 0.13968 0.0
N704 N 0.2352 0.55079 0.1364 0.0
N705 N 0.28842 0.47029 0.13898 0.0
H706 H 0.38835 0.20149 0.62181 0.0
H707 H 0.5572 0.30752 0.61363 0.0
H708 H 0.38617 0.31162 0.61668 0.0
H709 H 0.55671 0.19726 0.61601 0.0
H710 H 0.49482 0.31001 0.61483 0.0
H711 H 0.45031 0.20005 0.62034 0.0
C712 C 0.40088 0.22545 0.62045 0.0
C713 C 0.3819 0.25675 0.61933 0.0
C714 C 0.50839 0.2853 0.61503 0.0
C715 C 0.45321 0.2552 0.61754 0.0
C716 C 0.54402 0.28383 0.6143 0.0
C717 C 0.56232 0.25211 0.61476 0.0
C718 C 0.49093 0.25486 0.61628 0.0
C719 C 0.54379 0.2223 0.61565 0.0
C720 C 0.43636 0.22457 0.61956 0.0
C721 C 0.39972 0.2869 0.6176 0.0
N722 N 0.50919 0.22443 0.61643 0.0
N723 N 0.43439 0.28537 0.61672 0.0
H724 H 0.82085 0.39938 0.12389 0.0
H725 H 0.7218 0.58253 0.12609 0.0
H726 H 0.71062 0.41512 0.12012 0.0
H727 H 0.83227 0.57027 0.12881 0.0
H728 H 0.718 0.52084 0.1239 0.0
H729 H 0.82629 0.4615 0.12542 0.0
C730 C 0.79781 0.41583 0.12331 0.0
C731 C 0.76522 0.40194 0.12193 0.0
C732 C 0.74312 0.53154 0.12498 0.0
C733 C 0.77131 0.47291 0.12375 0.0
C734 C 0.74533 0.56687 0.12627 0.0
C735 C 0.77743 0.58171 0.12766 0.0
C736 C 0.7732 0.51062 0.12509 0.0
C737 C 0.80698 0.55996 0.1278 0.0
C738 C 0.80096 0.45127 0.12422 0.0
C739 C 0.73629 0.42453 0.12124 0.0
N740 N 0.80415 0.52547 0.12652 0.0
N741 N 0.74005 0.45878 0.12219 0.0
H742 H 0.55102 0.70113 0.61688 0.0
H743 H 0.37814 0.81776 0.61786 0.0
H744 H 0.55177 0.8113 0.62077 0.0
H745 H 0.38455 0.70771 0.6241 0.0
H746 H 0.44091 0.81725 0.61742 0.0
H747 H 0.48912 0.7044 0.61739 0.0
C748 C 0.53818 0.72611 0.6178 0.0
C749 C 0.55678 0.756 0.61886 0.0
C750 C 0.42844 0.79331 0.61895 0.0
C751 C 0.48529 0.75991 0.61952 0.0
C752 C 0.39266 0.79356 0.61923 0.0
C753 C 0.37595 0.76273 0.62095 0.0
C754 C 0.44747 0.762 0.6203 0.0
C755 C 0.3961 0.73216 0.62267 0.0
C756 C 0.50269 0.72795 0.61816 0.0
C757 C 0.53848 0.7876 0.61997 0.0
N758 N 0.43063 0.73262 0.62223 0.0
N759 N 0.50367 0.78875 0.62028 0.0
H760 H 0.17954 0.42748 0.88926 0.0
H761 H 0.29172 0.59273 0.88281 0.0
H762 H 0.28911 0.4223 0.88413 0.0
H763 H 0.18282 0.59711 0.89048 0.0
H764 H 0.29147 0.53039 0.8835 0.0
H765 H 0.18052 0.48965 0.88994 0.0
C766 C 0.20386 0.43937 0.8883 0.0
C767 C 0.23431 0.41953 0.8866 0.0
C768 C 0.26765 0.54499 0.88508 0.0
C769 C 0.23554 0.49097 0.88735 0.0
C770 C 0.26775 0.58063 0.88468 0.0
C771 C 0.23721 0.60028 0.88656 0.0
C772 C 0.2368 0.52879 0.88732 0.0
C773 C 0.20698 0.58309 0.88896 0.0
C774 C 0.20438 0.47495 0.8887 0.0
C775 C 0.26501 0.43651 0.88544 0.0
N776 N 0.20754 0.54837 0.88923 0.0
N777 N 0.26482 0.47125 0.8858 0.0
H778 H 0.60224 0.1974 0.3664 0.0
H779 H 0.42628 0.30922 0.36871 0.0
H780 H 0.59857 0.30751 0.37174 0.0
H781 H 0.43354 0.19884 0.36723 0.0
H782 H 0.48887 0.30991 0.36877 0.0
H783 H 0.54004 0.19831 0.36542 0.0
C784 C 0.58838 0.22185 0.36734 0.0
C785 C 0.60581 0.25245 0.36922 0.0
C786 C 0.47669 0.28559 0.36843 0.0
C787 C 0.53409 0.25363 0.36813 0.0
C788 C 0.44096 0.28515 0.36839 0.0
C789 C 0.42453 0.25392 0.36797 0.0
C790 C 0.4961 0.25458 0.368 0.0
C791 C 0.44494 0.22355 0.36757 0.0
C792 C 0.55274 0.22233 0.3668 0.0
C793 C 0.58626 0.2833 0.3703 0.0
N794 N 0.47955 0.22468 0.36759 0.0
N795 N 0.55142 0.2831 0.36977 0.0
H796 H 0.79465 0.57847 0.87388 0.0
H797 H 0.6738 0.41853 0.87432 0.0
H798 H 0.68509 0.58806 0.8786 0.0
H799 H 0.78422 0.40927 0.87459 0.0
H800 H 0.67718 0.48073 0.87514 0.0
H801 H 0.79109 0.51637 0.87338 0.0
C802 C 0.76984 0.56756 0.87483 0.0
C803 C 0.74013 0.58859 0.8763 0.0
C804 C 0.70066 0.46506 0.87505 0.0
C805 C 0.73588 0.5174 0.87568 0.0
C806 C 0.69875 0.42953 0.87457 0.0
C807 C 0.72877 0.40858 0.8744 0.0
C808 C 0.7328 0.47978 0.8753 0.0
C809 C 0.76038 0.42433 0.87472 0.0
C810 C 0.76783 0.53206 0.87455 0.0
C811 C 0.70869 0.57291 0.87747 0.0
N812 N 0.76154 0.45894 0.87513 0.0
N813 N 0.7074 0.53829 0.87711 0.0
H814 H 0.44294 0.69929 0.38253 0.0
H815 H 0.6063 0.8133 0.3738 0.0
H816 H 0.4352 0.80929 0.37624 0.0
H817 H 0.61032 0.70286 0.37512 0.0
H818 H 0.54408 0.8131 0.37594 0.0
H819 H 0.50487 0.70099 0.38179 0.0
C820 C 0.45425 0.72388 0.38112 0.0
C821 C 0.43371 0.7542 0.37934 0.0
C822 C 0.55863 0.78895 0.37573 0.0
C823 C 0.50496 0.75627 0.37834 0.0
C824 C 0.59414 0.78902 0.37446 0.0
C825 C 0.61365 0.75804 0.37428 0.0
C826 C 0.54254 0.75769 0.37689 0.0
C827 C 0.59646 0.72739 0.37521 0.0
C828 C 0.48971 0.72481 0.38063 0.0
C829 C 0.44998 0.78527 0.37762 0.0
N830 N 0.56198 0.72803 0.37651 0.0
N831 N 0.48467 0.7855 0.37708 0.0
H832 H 0.29002 0.30537 0.05438 0.0
H833 H 0.18113 0.2696 0.94693 0.0
H834 H 0.20454 0.23954 0.05501 0.0
H835 H 0.29029 0.28297 0.94859 0.0
H836 H 0.1868 0.25966 0.9861 0.0
H837 H 0.28884 0.29946 0.01526 0.0
C838 C 0.27143 0.28906 0.04632 0.0
C839 C 0.24753 0.27265 0.05796 0.0
C840 C 0.20951 0.26417 0.97774 0.0
C841 C 0.24515 0.26692 0.01302 0.0
C842 C 0.20632 0.26992 0.95542 0.0
C843 C 0.23521 0.2776 0.94448 0.0
C844 C 0.24164 0.26679 0.98913 0.0
C845 C 0.26724 0.27746 0.95631 0.0
C846 C 0.27064 0.28587 0.02396 0.0
C847 C 0.22326 0.25277 0.04654 0.0
N848 N 0.26948 0.2728 0.97804 0.0
N849 N 0.2223 0.25084 0.02459 0.0
H850 H 0.7544 0.29203 0.44052 0.0
H851 H 0.6974 0.19101 0.53807 0.0
H852 H 0.7386 0.18356 0.43739 0.0
H853 H 0.76063 0.27783 0.54918 0.0
H854 H 0.7134 0.18805 0.50109 0.0
H855 H 0.75896 0.28834 0.48003 0.0
C856 C 0.75255 0.26734 0.44809 0.0
C857 C 0.74537 0.23818 0.4356 0.0
C858 C 0.72434 0.20741 0.51168 0.0
C859 C 0.75016 0.23399 0.48065 0.0
C860 C 0.7154 0.20896 0.53292 0.0
C861 C 0.72792 0.23455 0.54684 0.0
C862 C 0.74516 0.23224 0.50399 0.0
C863 C 0.75008 0.25795 0.53887 0.0
C864 C 0.75525 0.26527 0.47063 0.0
C865 C 0.74364 0.20681 0.4463 0.0
N866 N 0.75758 0.25664 0.5178 0.0
N867 N 0.74528 0.20569 0.46821 0.0
H868 H 0.7076 0.74645 0.94119 0.0
H869 H 0.82259 0.69343 0.04539 0.0
H870 H 0.81347 0.71147 0.93898 0.0
H871 H 0.74156 0.77117 0.04846 0.0
H872 H 0.81877 0.69913 0.00622 0.0
H873 H 0.71788 0.75563 0.98021 0.0
C874 C 0.73309 0.74118 0.94881 0.0
C875 C 0.75962 0.72782 0.9368 0.0
C876 C 0.80218 0.71539 0.01544 0.0
C877 C 0.77131 0.73782 0.98134 0.0
C878 C 0.80453 0.71234 0.03786 0.0
C879 C 0.78254 0.73209 0.05022 0.0
C880 C 0.77703 0.73769 0.0052 0.0
C881 C 0.75881 0.75532 0.03946 0.0
C882 C 0.73893 0.74652 0.97105 0.0
C883 C 0.79219 0.72165 0.94753 0.0
N884 N 0.75626 0.75713 0.01748 0.0
N885 N 0.79694 0.72615 0.96923 0.0
H886 H 0.30589 0.70089 0.45447 0.0
H887 H 0.22449 0.79783 0.54902 0.0
H888 H 0.22933 0.782 0.4404 0.0
H889 H 0.25694 0.69104 0.55364 0.0
H890 H 0.22496 0.79416 0.50962 0.0
H891 H 0.28879 0.69827 0.49126 0.0
C892 C 0.28494 0.71772 0.45899 0.0
C893 C 0.26867 0.74139 0.44424 0.0
C894 C 0.23125 0.77142 0.51928 0.0
C895 C 0.24985 0.73943 0.48677 0.0
C896 C 0.23101 0.77345 0.54176 0.0
C897 C 0.24129 0.74484 0.55471 0.0
C898 C 0.24242 0.74077 0.50979 0.0
C899 C 0.24921 0.71387 0.54438 0.0
C900 C 0.2753 0.71632 0.48008 0.0
C901 C 0.24263 0.7635 0.45134 0.0
N902 N 0.2503 0.71285 0.52257 0.0
N903 N 0.23426 0.76232 0.47224 0.0
H904 H 0.31267 0.72893 0.94449 0.0
H905 H 0.23558 0.79013 0.05445 0.0
H906 H 0.20626 0.7619 0.94674 0.0
H907 H 0.31537 0.71135 0.05015 0.0
H908 H 0.23136 0.79496 0.01471 0.0
H909 H 0.32152 0.73946 0.98322 0.0
C910 C 0.29131 0.73907 0.95298 0.0
C911 C 0.25854 0.74405 0.94237 0.0
C912 C 0.25014 0.7771 0.02264 0.0
C913 C 0.26859 0.75606 0.98674 0.0
C914 C 0.25249 0.77425 0.0452 0.0
C915 C 0.27603 0.75049 0.05563 0.0
C916 C 0.27197 0.7565 0.01061 0.0
C917 C 0.29749 0.73065 0.04293 0.0
C918 C 0.29637 0.74487 0.97513 0.0
C919 C 0.23185 0.75725 0.95434 0.0
N920 N 0.29497 0.73413 0.02114 0.0
N921 N 0.23737 0.76254 0.97598 0.0
H922 H 0.30511 0.20217 0.45291 0.0
H923 H 0.23494 0.30398 0.54896 0.0
H924 H 0.2314 0.286 0.43939 0.0
H925 H 0.25498 0.19463 0.5522 0.0
H926 H 0.23437 0.30079 0.50942 0.0
H927 H 0.28956 0.2014 0.49016 0.0
C928 C 0.28515 0.22002 0.45766 0.0
C929 C 0.26921 0.24391 0.44294 0.0
C930 C 0.23817 0.2775 0.51886 0.0
C931 C 0.2523 0.24406 0.48589 0.0
C932 C 0.23851 0.27925 0.54139 0.0
C933 C 0.24559 0.2496 0.55398 0.0
C934 C 0.24562 0.24604 0.509 0.0
C935 C 0.24983 0.21824 0.54325 0.0
C936 C 0.27643 0.21968 0.47899 0.0
C937 C 0.24447 0.26733 0.4503 0.0
N938 N 0.25051 0.2174 0.52143 0.0
N939 N 0.23705 0.26716 0.4714 0.0
H940 H 0.78396 0.28512 0.04147 0.0
H941 H 0.67268 0.26206 0.93423 0.0
H942 H 0.69767 0.22029 0.04203 0.0
H943 H 0.78321 0.26331 0.93595 0.0
H944 H 0.67745 0.24964 0.97321 0.0
H945 H 0.781 0.28156 0.00227 0.0
C946 C 0.76478 0.26953 0.03336 0.0
C947 C 0.74127 0.25262 0.04502 0.0
C948 C 0.70054 0.25203 0.96484 0.0
C949 C 0.73682 0.2497 -1e-05 0.0
C950 C 0.69789 0.25921 0.94266 0.0
C951 C 0.72756 0.26435 0.93185 0.0
C952 C 0.73298 0.25065 0.97617 0.0
C953 C 0.75957 0.26008 0.94358 0.0
C954 C 0.76297 0.2677 0.01095 0.0
C955 C 0.71613 0.23384 0.03354 0.0
N956 N 0.76138 0.25414 0.96515 0.0
N957 N 0.71416 0.23328 0.01152 0.0
H958 H 0.74714 0.8016 0.44118 0.0
H959 H 0.75748 0.70443 0.55387 0.0
H960 H 0.75376 0.69114 0.44295 0.0
H961 H 0.68679 0.78961 0.5374 0.0
H962 H 0.77457 0.70392 0.51638 0.0
H963 H 0.7459 0.80238 0.48036 0.0
C964 C 0.74912 0.77746 0.44978 0.0
C965 C 0.74979 0.74618 0.43863 0.0
C966 C 0.75572 0.72294 0.52121 0.0
C967 C 0.74867 0.7472 0.48357 0.0
C968 C 0.7459 0.72323 0.54245 0.0
C969 C 0.72078 0.74719 0.5487 0.0
C970 C 0.74097 0.74744 0.50647 0.0
C971 C 0.70674 0.77117 0.5334 0.0
C972 C 0.74827 0.77803 0.47215 0.0
C973 C 0.75276 0.71581 0.45084 0.0
N974 N 0.71714 0.77079 0.51303 0.0
N975 N 0.7517 0.71704 0.47273 0.0
H976 H 0.55588 0.36429 0.12316 0.0
H977 H 0.41206 0.23484 0.14903 0.0
H978 H 0.57481 0.25479 0.12244 0.0
H979 H 0.39149 0.34027 0.13009 0.0
H980 H 0.47299 0.24136 0.14344 0.0
H981 H 0.49655 0.35566 0.12988 0.0
C982 C 0.54769 0.33835 0.12451 0.0
C983 C 0.57076 0.31026 0.12252 0.0
C984 C 0.45501 0.26295 0.14051 0.0
C985 C 0.50238 0.30018 0.13028 0.0
C986 C 0.42032 0.25931 0.14374 0.0
C987 C 0.39664 0.28705 0.14001 0.0
C988 C 0.46598 0.29466 0.13377 0.0
C989 C 0.40872 0.31813 0.13312 0.0
C990 C 0.5137 0.33346 0.12837 0.0
C991 C 0.55846 0.27729 0.12451 0.0
N992 N 0.44247 0.32109 0.13031 0.0
N993 N 0.52505 0.27314 0.12831 0.0
H994 H 0.7261 0.39834 0.65147 0.0
H995 H 0.65119 0.55478 0.57686 0.0
H996 H 0.66573 0.38749 0.59089 0.0
H997 H 0.69609 0.5676 0.64187 0.0
H998 H 0.66487 0.49354 0.57964 0.0
H999 H 0.72365 0.46044 0.64612 0.0
C1000 C 0.7126 0.40897 0.63696 0.0
C1001 C 0.69576 0.38774 0.62171 0.0
C1002 C 0.67215 0.50976 0.59323 0.0
C1003 C 0.69296 0.4586 0.61549 0.0
C1004 C 0.66437 0.54475 0.59164 0.0
C1005 C 0.6727 0.56641 0.6091 0.0
C1006 C 0.68811 0.49612 0.61252 0.0
C1007 C 0.68983 0.55204 0.62785 0.0
C1008 C 0.71116 0.44439 0.63395 0.0
C1009 C 0.67874 0.40289 0.60319 0.0
N1010 N 0.69674 0.51769 0.62913 0.0
N1011 N 0.67766 0.43735 0.60066 0.0
H1012 H 0.63808 0.66839 0.10881 0.0
H1013 H 0.45317 0.75005 0.12847 0.0
H1014 H 0.6254 0.7657 0.14085 0.0
H1015 H 0.47502 0.64231 0.11864 0.0
H1016 H 0.51461 0.75968 0.12908 0.0
H1017 H 0.57644 0.66258 0.10711 0.0
C1018 C 0.62232 0.6887 0.1154 0.0
C1019 C 0.637 0.71744 0.12521 0.0
C1020 C 0.50583 0.73395 0.12699 0.0
C1021 C 0.56614 0.7108 0.12332 0.0
C1022 C 0.47079 0.72831 0.12693 0.0
C1023 C 0.45893 0.69513 0.12408 0.0
C1024 C 0.52891 0.70631 0.12372 0.0
C1025 C 0.48297 0.66828 0.121 0.0
C1026 C 0.58707 0.68526 0.11449 0.0
C1027 C 0.61514 0.74302 0.13327 0.0
N1028 N 0.51673 0.67447 0.12087 0.0
N1029 N 0.58067 0.73906 0.13222 0.0
H1030 H 0.22097 0.41534 0.57953 0.0
H1031 H 0.28513 0.56311 0.66004 0.0
H1032 H 0.27214 0.3977 0.64289 0.0
H1033 H 0.24548 0.58212 0.59418 0.0
H1034 H 0.27255 0.50296 0.65554 0.0
H1035 H 0.22184 0.47706 0.58612 0.0
C1036 C 0.23211 0.42441 0.59488 0.0
C1037 C 0.24689 0.40137 0.61058 0.0
C1038 C 0.26616 0.52032 0.64213 0.0
C1039 C 0.2479 0.47173 0.61821 0.0
C1040 C 0.27333 0.55467 0.6447 0.0
C1041 C 0.26609 0.5777 0.62753 0.0
C1042 C 0.252 0.50873 0.62212 0.0
C1043 C 0.25079 0.56544 0.608 0.0
C1044 C 0.23265 0.45962 0.59861 0.0
C1045 C 0.26085 0.41452 0.6302 0.0
N1046 N 0.2445 0.53167 0.60576 0.0
N1047 N 0.26117 0.44879 0.6334 0.0
H1048 H 0.59814 0.66879 0.86734 0.0
H1049 H 0.41211 0.75774 0.87684 0.0
H1050 H 0.58373 0.7704 0.89329 0.0
H1051 H 0.43093 0.65051 0.864 0.0
H1052 H 0.47429 0.76476 0.88117 0.0
H1053 H 0.53634 0.66371 0.86372 0.0
C1054 C 0.58198 0.69012 0.87227 0.0
C1055 C 0.59623 0.72006 0.88071 0.0
C1056 C 0.46473 0.73967 0.8776 0.0
C1057 C 0.52502 0.71434 0.87656 0.0
C1058 C 0.4293 0.73558 0.87536 0.0
C1059 C 0.4164 0.70329 0.87063 0.0
C1060 C 0.48726 0.71136 0.87473 0.0
C1061 C 0.43978 0.67579 0.86782 0.0
C1062 C 0.54659 0.68715 0.87024 0.0
C1063 C 0.57385 0.74682 0.88677 0.0
N1064 N 0.474 0.68044 0.86994 0.0
N1065 N 0.53929 0.74335 0.88456 0.0
H1066 H 0.29878 0.39012 0.39211 0.0
H1067 H 0.31586 0.57433 0.33958 0.0
H1068 H 0.30343 0.40675 0.32359 0.0
H1069 H 0.32711 0.5538 0.40811 0.0
H1070 H 0.30172 0.51473 0.33311 0.0
H1071 H 0.29935 0.45171 0.39782 0.0
C1072 C 0.29963 0.40674 0.37822 0.0
C1073 C 0.30156 0.39325 0.35736 0.0
C1074 C 0.30687 0.52339 0.34958 0.0
C1075 C 0.30234 0.46381 0.36383 0.0
C1076 C 0.31461 0.55747 0.35328 0.0
C1077 C 0.32233 0.56899 0.37443 0.0
C1078 C 0.30695 0.5008 0.36715 0.0
C1079 C 0.32139 0.54584 0.39155 0.0
C1080 C 0.3 0.44192 0.38152 0.0
C1081 C 0.30227 0.41604 0.33998 0.0
N1082 N 0.31394 0.51282 0.38754 0.0
N1083 N 0.30296 0.45025 0.34363 0.0
H1084 H 0.39227 0.25426 0.91566 0.0
H1085 H 0.52709 0.30559 0.83192 0.0
H1086 H 0.36525 0.30177 0.85359 0.0
H1087 H 0.55639 0.27545 0.89782 0.0
H1088 H 0.46775 0.29378 0.83758 0.0
H1089 H 0.45262 0.2517 0.90737 0.0
C1090 C 0.39898 0.26384 0.90023 0.0
C1091 C 0.37382 0.27869 0.88541 0.0
C1092 C 0.48721 0.28926 0.85073 0.0
C1093 C 0.44248 0.2757 0.87584 0.0
C1094 C 0.52108 0.29596 0.84749 0.0
C1095 C 0.5467 0.29131 0.86437 0.0
C1096 C 0.47878 0.27821 0.87111 0.0
C1097 C 0.53758 0.27874 0.88423 0.0
C1098 C 0.43338 0.26241 0.89553 0.0
C1099 C 0.38386 0.29056 0.86563 0.0
N1100 N 0.50423 0.27293 0.88713 0.0
N1101 N 0.41741 0.28896 0.86148 0.0
H1102 H 0.71611 0.3904 0.34929 0.0
H1103 H 0.74 0.57387 0.4032 0.0
H1104 H 0.75221 0.40396 0.41612 0.0
H1105 H 0.71484 0.55787 0.33512 0.0
H1106 H 0.74828 0.51204 0.40812 0.0
H1107 H 0.71837 0.4518 0.34367 0.0
C1108 C 0.7246 0.40629 0.3628 0.0
C1109 C 0.7337 0.39204 0.38327 0.0
C1110 C 0.74146 0.52211 0.39205 0.0
C1111 C 0.7363 0.46258 0.37694 0.0
C1112 C 0.73711 0.5575 0.38919 0.0
C1113 C 0.72712 0.57112 0.36865 0.0
C1114 C 0.7354 0.50027 0.3743 0.0
C1115 C 0.72249 0.54845 0.35124 0.0
C1116 C 0.72599 0.4414 0.35956 0.0
C1117 C 0.74481 0.41389 0.40009 0.0
N1118 N 0.72647 0.5142 0.35448 0.0
N1119 N 0.74555 0.44813 0.3966 0.0
H1120 H 0.30343 0.19505 0.29848 0.0
H1121 H 0.20019 0.30214 0.20332 0.0
H1122 H 0.24859 0.29096 0.30901 0.0
H1123 H 0.29438 0.24389 0.19473 0.0
H1124 H 0.20464 0.28523 0.24153 0.0
H1125 H 0.28668 0.20022 0.25967 0.0
C1126 C 0.28727 0.2168 0.2927 0.0
C1127 C 0.27767 0.24283 0.3069 0.0
C1128 C 0.22397 0.27578 0.23113 0.0
C1129 C 0.25828 0.2486 0.26279 0.0
C1130 C 0.2214 0.28524 0.20936 0.0
C1131 C 0.24719 0.27469 0.19595 0.0
C1132 C 0.25211 0.25509 0.23936 0.0
C1133 C 0.27418 0.25291 0.20461 0.0
C1134 C 0.27791 0.21978 0.27059 0.0
C1135 C 0.25684 0.27053 0.29855 0.0
N1136 N 0.27602 0.24389 0.22582 0.0
N1137 N 0.24792 0.27277 0.277 0.0
H1138 H 0.69708 0.20938 0.79513 0.0
H1139 H 0.71752 0.29495 0.68081 0.0
H1140 H 0.74901 0.30288 0.78737 0.0
H1141 H 0.68864 0.1905 0.68758 0.0
H1142 H 0.72992 0.29792 0.71985 0.0
H1143 H 0.69379 0.2014 0.75573 0.0
C1144 C 0.70799 0.228 0.78505 0.0
C1145 C 0.72331 0.25675 0.79425 0.0
C1146 C 0.72121 0.27422 0.71279 0.0
C1147 C 0.71956 0.24815 0.74955 0.0
C1148 C 0.71409 0.27252 0.69048 0.0
C1149 C 0.70178 0.24252 0.68092 0.0
C1150 C 0.71557 0.24586 0.72569 0.0
C1151 C 0.69803 0.21418 0.69427 0.0
C1152 C 0.70624 0.22346 0.76267 0.0
C1153 C 0.73713 0.2803 0.78073 0.0
N1154 N 0.7045 0.21668 0.71602 0.0
N1155 N 0.7347 0.27562 0.75901 0.0
H1156 H 0.7317 0.74354 0.18498 0.0
H1157 H 0.81906 0.72975 0.30549 0.0
H1158 H 0.83668 0.70726 0.19939 0.0
H1159 H 0.71674 0.77122 0.28898 0.0
H1160 H 0.82808 0.72478 0.26676 0.0
H1161 H 0.72791 0.75811 0.22288 0.0
C1162 C 0.75411 0.73889 0.1961 0.0
C1163 C 0.78446 0.7238 0.189 0.0
C1164 C 0.80381 0.73537 0.2716 0.0
C1165 C 0.78014 0.74017 0.23269 0.0
C1166 C 0.79872 0.73817 0.29363 0.0
C1167 C 0.76727 0.75115 0.30023 0.0
C1168 C 0.77707 0.74537 0.2562 0.0
C1169 C 0.7415 0.76148 0.28443 0.0
C1170 C 0.75191 0.74723 0.2178 0.0
C1171 C 0.81274 0.71873 0.20416 0.0
N1172 N 0.74691 0.75824 0.26316 0.0
N1173 N 0.80977 0.72653 0.22536 0.0
H1174 H 0.23772 0.80065 0.80646 0.0
H1175 H 0.1813 0.72445 0.68984 0.0
H1176 H 0.19142 0.70335 0.79711 0.0
H1177 H 0.25736 0.80029 0.7005 0.0
H1178 H 0.17363 0.72436 0.72879 0.0
H1179 H 0.23404 0.80881 0.76708 0.0
C1180 C 0.22634 0.78129 0.79605 0.0
C1181 C 0.21481 0.75136 0.80486 0.0
C1182 C 0.19168 0.74131 0.72253 0.0
C1183 C 0.2104 0.76039 0.76011 0.0
C1184 C 0.19603 0.74135 0.70039 0.0
C1185 C 0.22013 0.76221 0.69209 0.0
C1186 C 0.21136 0.76256 0.73635 0.0
C1187 C 0.23837 0.78397 0.70629 0.0
C1188 C 0.22427 0.78589 0.77367 0.0
C1189 C 0.20022 0.72696 0.79085 0.0
N1190 N 0.23375 0.78345 0.72776 0.0
N1191 N 0.19853 0.73194 0.76912 0.0
H1192 H 0.7468 0.7824 0.79418 0.0
H1193 H 0.68712 0.68081 0.68649 0.0
H1194 H 0.70235 0.68366 0.7942 0.0
H1195 H 0.71139 0.78741 0.68693 0.0
H1196 H 0.69981 0.67896 0.72568 0.0
H1197 H 0.73998 0.78281 0.75446 0.0
C1198 C 0.73542 0.76096 0.78572 0.0
C1199 C 0.72471 0.73317 0.79724 0.0
C1200 C 0.70253 0.70269 0.71716 0.0
C1201 C 0.71732 0.73303 0.75216 0.0
C1202 C 0.69551 0.7037 0.69476 0.0
C1203 C 0.69788 0.73438 0.68341 0.0
C1204 C 0.71219 0.7325 0.72826 0.0
C1205 C 0.7089 0.76326 0.69502 0.0
C1206 C 0.73162 0.76109 0.76315 0.0
C1207 C 0.71046 0.70573 0.78575 0.0
N1208 N 0.71548 0.76165 0.71681 0.0
N1209 N 0.7072 0.70631 0.76382 0.0
H1210 H 0.34526 0.71124 0.20022 0.0
H1211 H 0.27606 0.7924 0.30601 0.0
H1212 H 0.24405 0.7605 0.19691 0.0
H1213 H 0.33067 0.69417 0.30541 0.0
H1214 H 0.2708 0.79178 0.26618 0.0
H1215 H 0.34878 0.71752 0.23945 0.0
C1216 C 0.32401 0.72395 0.20767 0.0
C1217 C 0.29416 0.7351 0.19528 0.0
C1218 C 0.2837 0.7704 0.27492 0.0
C1219 C 0.29822 0.74233 0.24012 0.0
C1220 C 0.28668 0.77067 0.29753 0.0
C1221 C 0.30376 0.74325 0.30901 0.0
C1222 C 0.2988 0.74304 0.26389 0.0
C1223 C 0.31712 0.71574 0.29726 0.0
C1224 C 0.32597 0.72723 0.23006 0.0
C1225 C 0.26741 0.75129 0.20591 0.0
N1226 N 0.31475 0.71656 0.27536 0.0
N1227 N 0.27003 0.75444 0.22782 0.0
H1228 H 0.27232 0.22022 0.70161 0.0
H1229 H 0.18171 0.31424 0.79736 0.0
H1230 H 0.18769 0.29376 0.69027 0.0
H1231 H 0.25176 0.22661 0.80678 0.0
H1232 H 0.18174 0.30642 0.75819 0.0
H1233 H 0.26402 0.22155 0.74015 0.0
C1234 C 0.25161 0.2363 0.70725 0.0
C1235 C 0.23045 0.25673 0.69278 0.0
C1236 C 0.19679 0.28863 0.7688 0.0
C1237 C 0.22127 0.25905 0.737 0.0
C1238 C 0.1966 0.29296 0.79113 0.0
C1239 C 0.2168 0.271 0.8052 0.0
C1240 C 0.2176 0.26235 0.76054 0.0
C1241 C 0.23606 0.24419 0.79638 0.0
C1242 C 0.24698 0.23719 0.72928 0.0
C1243 C 0.20459 0.27775 0.70099 0.0
N1244 N 0.23625 0.24079 0.7746 0.0
N1245 N 0.20082 0.27856 0.72262 0.0
H1246 H 0.80351 0.27337 0.29875 0.0
H1247 H 0.69825 0.2617 0.18443 0.0
H1248 H 0.70489 0.2284 0.29011 0.0
H1249 H 0.8079 0.2726 0.19075 0.0
H1250 H 0.69941 0.25185 0.22336 0.0
H1251 H 0.80511 0.27647 0.25921 0.0
C1252 C 0.78238 0.26402 0.28844 0.0
C1253 C 0.75414 0.2505 0.29742 0.0
C1254 C 0.72325 0.25607 0.21618 0.0
C1255 C 0.75545 0.25416 0.25266 0.0
C1256 C 0.7226 0.26172 0.19397 0.0
C1257 C 0.75299 0.26809 0.18434 0.0
C1258 C 0.75442 0.25736 0.22889 0.0
C1259 C 0.78385 0.26774 0.19749 0.0
C1260 C 0.78328 0.26564 0.266 0.0
C1261 C 0.7272 0.23876 0.28362 0.0
N1262 N 0.78372 0.26286 0.21915 0.0
N1263 N 0.72838 0.24107 0.26189 0.0
loop_
_geom_bond_atom_site_label_1
_geom_bond_atom_site_label_2
_geom_bond_distance
_geom_bond_site_symmetry_2
_ccdc_geom_bond_type
Co0 O3 1.970 . S
Co0 N17 1.989 . S
Co0 O25 1.967 . S
Co0 O32 1.920 . S
Co1 O4 1.966 . S
Co1 N10 2.022 . S
Co1 N18 1.993 . S
Co1 O26 1.941 . S
C2 O3 1.258 . S
C2 O4 1.263 . S
O3 Co0 1.970 . S
O3 C2 1.258 . S
O4 Co1 1.966 . S
O4 C2 1.263 . S
C5 O6 1.235 . S
C5 O32 1.289 . S
O6 C5 1.235 . S
C7 C9 1.400 . S
C7 N10 1.351 . S
C7 C12 1.501 . S
C8 C9 1.387 . S
C8 N11 1.341 . S
C9 C7 1.400 . S
C9 C8 1.387 . S
N10 Co1 2.022 . S
N10 C7 1.351 . S
N10 N11 1.365 . S
N11 C8 1.341 . S
N11 N10 1.365 . S
N11 H31 0.862 . S
C12 C7 1.501 . S
C12 H13 0.961 . S
C12 H14 0.961 . S
C12 H15 0.960 . S
H13 C12 0.961 . S
H14 C12 0.961 . S
H15 C12 0.960 . S
C16 N17 1.342 . S
C16 C20 1.401 . S
C16 C21 1.499 . S
N17 Co0 1.989 . S
N17 C16 1.342 . S
N17 N18 1.388 . S
N18 Co1 1.993 . S
N18 N17 1.388 . S
N18 C19 1.346 . S
C19 N18 1.346 . S
C19 C20 1.396 . S
C19 C29 1.510 . S
C20 C16 1.401 . S
C20 C19 1.396 . S
C21 C16 1.499 . S
C21 H22 0.959 . S
C21 H23 0.960 . S
C21 H24 0.961 . S
H22 C21 0.959 . S
H23 C21 0.960 . S
H24 C21 0.961 . S
O25 Co0 1.967 . S
O25 C33 1.258 . S
O26 Co1 1.941 . S
O26 C33 1.266 . S
H27 C29 0.959 . S
H28 C29 0.961 . S
C29 C19 1.510 . S
C29 H27 0.959 . S
C29 H28 0.961 . S
C29 H30 0.960 . S
H30 C29 0.960 . S
H31 N11 0.862 . S
O32 Co0 1.920 . S
O32 C5 1.289 . S
C33 O25 1.258 . S
C33 O26 1.266 . S
Co34 O37 1.970 . S
Co34 N51 1.989 . S
Co34 O59 1.967 . S
Co34 O66 1.920 . S
Co35 O38 1.966 . S
Co35 N44 2.022 . S
Co35 N52 1.993 . S
Co35 O60 1.941 . S
C36 O37 1.258 . S
C36 O38 1.263 . S
O37 Co34 1.970 . S
O37 C36 1.258 . S
O38 Co35 1.966 . S
O38 C36 1.263 . S
C39 O40 1.235 . S
C39 O66 1.289 . S
O40 C39 1.235 . S
C41 C43 1.400 . S
C41 N44 1.351 . S
C41 C46 1.501 . S
C42 C43 1.387 . S
C42 N45 1.341 . S
C43 C41 1.400 . S
C43 C42 1.387 . S
N44 Co35 2.022 . S
N44 C41 1.351 . S
N44 N45 1.365 . S
N45 C42 1.341 . S
N45 N44 1.365 . S
N45 H65 0.862 . S
C46 C41 1.501 . S
C46 H47 0.961 . S
C46 H48 0.961 . S
C46 H49 0.960 . S
H47 C46 0.961 . S
H48 C46 0.961 . S
H49 C46 0.960 . S
C50 N51 1.342 . S
C50 C54 1.401 . S
C50 C55 1.499 . S
N51 Co34 1.989 . S
N51 C50 1.342 . S
N51 N52 1.388 . S
N52 Co35 1.993 . S
N52 N51 1.388 . S
N52 C53 1.346 . S
C53 N52 1.346 . S
C53 C54 1.396 . S
C53 C63 1.510 . S
C54 C50 1.401 . S
C54 C53 1.396 . S
C55 C50 1.499 . S
C55 H56 0.959 . S
C55 H57 0.960 . S
C55 H58 0.961 . S
H56 C55 0.959 . S
H57 C55 0.960 . S
H58 C55 0.961 . S
O59 Co34 1.967 . S
O59 C67 1.258 . S
O60 Co35 1.941 . S
O60 C67 1.266 . S
H61 C63 0.959 . S
H62 C63 0.961 . S
C63 C53 1.510 . S
C63 H61 0.959 . S
C63 H62 0.961 . S
C63 H64 0.960 . S
H64 C63 0.960 . S
H65 N45 0.862 . S
O66 Co34 1.920 . S
O66 C39 1.289 . S
C67 O59 1.258 . S
C67 O60 1.266 . S
Co68 O71 1.970 . S
Co68 N85 1.989 . S
Co68 O93 1.967 . S
Co68 O100 1.920 . S
Co69 O72 1.966 . S
Co69 N78 2.022 . S
Co69 N86 1.993 . S
Co69 O94 1.941 . S
C70 O71 1.258 . S
C70 O72 1.263 . S
O71 Co68 1.970 . S
O71 C70 1.258 . S
O72 Co69 1.966 . S
O72 C70 1.263 . S
C73 O74 1.235 . S
C73 O100 1.289 . S
O74 C73 1.235 . S
C75 C77 1.400 . S
C75 N78 1.351 . S
C75 C80 1.501 . S
C76 C77 1.387 . S
C76 N79 1.341 . S
C77 C75 1.400 . S
C77 C76 1.387 . S
N78 Co69 2.022 . S
N78 C75 1.351 . S
N78 N79 1.365 . S
N79 C76 1.341 . S
N79 N78 1.365 . S
N79 H99 0.862 . S
C80 C75 1.501 . S
C80 H81 0.961 . S
C80 H82 0.961 . S
C80 H83 0.960 . S
H81 C80 0.961 . S
H82 C80 0.961 . S
H83 C80 0.960 . S
C84 N85 1.342 . S
C84 C88 1.401 . S
C84 C89 1.499 . S
N85 Co68 1.989 . S
N85 C84 1.342 . S
N85 N86 1.388 . S
N86 Co69 1.993 . S
N86 N85 1.388 . S
N86 C87 1.346 . S
C87 N86 1.346 . S
C87 C88 1.396 . S
C87 C97 1.510 . S
C88 C84 1.401 . S
C88 C87 1.396 . S
C89 C84 1.499 . S
C89 H90 0.959 . S
C89 H91 0.960 . S
C89 H92 0.961 . S
H90 C89 0.959 . S
H91 C89 0.960 . S
H92 C89 0.961 . S
O93 Co68 1.967 . S
O93 C101 1.258 . S
O94 Co69 1.941 . S
O94 C101 1.266 . S
H95 C97 0.959 . S
H96 C97 0.961 . S
C97 C87 1.510 . S
C97 H95 0.959 . S
C97 H96 0.961 . S
C97 H98 0.960 . S
H98 C97 0.960 . S
H99 N79 0.862 . S
O100 Co68 1.920 . S
O100 C73 1.289 . S
C101 O93 1.258 . S
C101 O94 1.266 . S
Co102 O105 1.970 . S
Co102 N119 1.989 . S
Co102 O127 1.967 . S
Co102 O134 1.920 . S
Co103 O106 1.966 . S
Co103 N112 2.022 . S
Co103 N120 1.993 . S
Co103 O128 1.941 . S
C104 O105 1.258 . S
C104 O106 1.263 . S
O105 Co102 1.970 . S
O105 C104 1.258 . S
O106 Co103 1.966 . S
O106 C104 1.263 . S
C107 O108 1.235 . S
C107 O134 1.289 . S
O108 C107 1.235 . S
C109 C111 1.400 . S
C109 N112 1.351 . S
C109 C114 1.501 . S
C110 C111 1.387 . S
C110 N113 1.341 . S
C111 C109 1.400 . S
C111 C110 1.387 . S
N112 Co103 2.022 . S
N112 C109 1.351 . S
N112 N113 1.365 . S
N113 C110 1.341 . S
N113 N112 1.365 . S
N113 H133 0.862 . S
C114 C109 1.501 . S
C114 H115 0.961 . S
C114 H116 0.961 . S
C114 H117 0.960 . S
H115 C114 0.961 . S
H116 C114 0.961 . S
H117 C114 0.960 . S
C118 N119 1.342 . S
C118 C122 1.401 . S
C118 C123 1.499 . S
N119 Co102 1.989 . S
N119 C118 1.342 . S
N119 N120 1.388 . S
N120 Co103 1.993 . S
N120 N119 1.388 . S
N120 C121 1.346 . S
C121 N120 1.346 . S
C121 C122 1.396 . S
C121 C131 1.510 . S
C122 C118 1.401 . S
C122 C121 1.396 . S
C123 C118 1.499 . S
C123 H124 0.959 . S
C123 H125 0.960 . S
C123 H126 0.961 . S
H124 C123 0.959 . S
H125 C123 0.960 . S
H126 C123 0.961 . S
O127 Co102 1.967 . S
O127 C135 1.258 . S
O128 Co103 1.941 . S
O128 C135 1.266 . S
H129 C131 0.959 . S
H130 C131 0.961 . S
C131 C121 1.510 . S
C131 H129 0.959 . S
C131 H130 0.961 . S
C131 H132 0.960 . S
H132 C131 0.960 . S
H133 N113 0.862 . S
O134 Co102 1.920 . S
O134 C107 1.289 . S
C135 O127 1.258 . S
C135 O128 1.266 . S
Co136 O139 1.970 . S
Co136 N153 1.989 . S
Co136 O161 1.967 . S
Co136 O168 1.920 . S
Co137 O140 1.966 . S
Co137 N146 2.022 . S
Co137 N154 1.993 . S
Co137 O162 1.941 . S
C138 O139 1.258 . S
C138 O140 1.263 . S
O139 Co136 1.970 . S
O139 C138 1.258 . S
O140 Co137 1.966 . S
O140 C138 1.263 . S
C141 O142 1.235 . S
C141 O168 1.289 . S
O142 C141 1.235 . S
C143 C145 1.400 . S
C143 N146 1.351 . S
C143 C148 1.501 . S
C144 C145 1.387 . S
C144 N147 1.341 . S
C145 C143 1.400 . S
C145 C144 1.387 . S
N146 Co137 2.022 . S
N146 C143 1.351 . S
N146 N147 1.365 . S
N147 C144 1.341 . S
N147 N146 1.365 . S
N147 H167 0.862 . S
C148 C143 1.501 . S
C148 H149 0.961 . S
C148 H150 0.961 . S
C148 H151 0.960 . S
H149 C148 0.961 . S
H150 C148 0.961 . S
H151 C148 0.960 . S
C152 N153 1.342 . S
C152 C156 1.401 . S
C152 C157 1.499 . S
N153 Co136 1.989 . S
N153 C152 1.342 . S
N153 N154 1.388 . S
N154 Co137 1.993 . S
N154 N153 1.388 . S
N154 C155 1.346 . S
C155 N154 1.346 . S
C155 C156 1.396 . S
C155 C165 1.510 . S
C156 C152 1.401 . S
C156 C155 1.396 . S
C157 C152 1.499 . S
C157 H158 0.959 . S
C157 H159 0.960 . S
C157 H160 0.961 . S
H158 C157 0.959 . S
H159 C157 0.960 . S
H160 C157 0.961 . S
O161 Co136 1.967 . S
O161 C169 1.258 . S
O162 Co137 1.941 . S
O162 C169 1.266 . S
H163 C165 0.959 . S
H164 C165 0.961 . S
C165 C155 1.510 . S
C165 H163 0.959 . S
C165 H164 0.961 . S
C165 H166 0.960 . S
H166 C165 0.960 . S
H167 N147 0.862 . S
O168 Co136 1.920 . S
O168 C141 1.289 . S
C169 O161 1.258 . S
C169 O162 1.266 . S
Co170 O173 1.970 . S
Co170 N187 1.989 . S
Co170 O195 1.967 . S
Co170 O202 1.920 . S
Co171 O174 1.966 . S
Co171 N180 2.022 . S
Co171 N188 1.993 . S
Co171 O196 1.941 . S
C172 O173 1.258 . S
C172 O174 1.263 . S
O173 Co170 1.970 . S
O173 C172 1.258 . S
O174 Co171 1.966 . S
O174 C172 1.263 . S
C175 O176 1.235 . S
C175 O202 1.289 . S
O176 C175 1.235 . S
C177 C179 1.400 . S
C177 N180 1.351 . S
C177 C182 1.501 . S
C178 C179 1.387 . S
C178 N181 1.341 . S
C179 C177 1.400 . S
C179 C178 1.387 . S
N180 Co171 2.022 . S
N180 C177 1.351 . S
N180 N181 1.365 . S
N181 C178 1.341 . S
N181 N180 1.365 . S
N181 H201 0.862 . S
C182 C177 1.501 . S
C182 H183 0.961 . S
C182 H184 0.961 . S
C182 H185 0.960 . S
H183 C182 0.961 . S
H184 C182 0.961 . S
H185 C182 0.960 . S
C186 N187 1.342 . S
C186 C190 1.401 . S
C186 C191 1.499 . S
N187 Co170 1.989 . S
N187 C186 1.342 . S
N187 N188 1.388 . S
N188 Co171 1.993 . S
N188 N187 1.388 . S
N188 C189 1.346 . S
C189 N188 1.346 . S
C189 C190 1.396 . S
C189 C199 1.510 . S
C190 C186 1.401 . S
C190 C189 1.396 . S
C191 C186 1.499 . S
C191 H192 0.959 . S
C191 H193 0.960 . S
C191 H194 0.961 . S
H192 C191 0.959 . S
H193 C191 0.960 . S
H194 C191 0.961 . S
O195 Co170 1.967 . S
O195 C203 1.258 . S
O196 Co171 1.941 . S
O196 C203 1.266 . S
H197 C199 0.959 . S
H198 C199 0.961 . S
C199 C189 1.510 . S
C199 H197 0.959 . S
C199 H198 0.961 . S
C199 H200 0.960 . S
H200 C199 0.960 . S
H201 N181 0.862 . S
O202 Co170 1.920 . S
O202 C175 1.289 . S
C203 O195 1.258 . S
C203 O196 1.266 . S
Co204 O207 1.970 . S
Co204 N221 1.989 . S
Co204 O229 1.967 . S
Co204 O236 1.920 . S
Co205 O208 1.966 . S
Co205 N214 2.022 . S
Co205 N222 1.993 . S
Co205 O230 1.941 . S
C206 O207 1.258 . S
C206 O208 1.263 . S
O207 Co204 1.970 . S
O207 C206 1.258 . S
O208 Co205 1.966 . S
O208 C206 1.263 . S
C209 O210 1.235 . S
C209 O236 1.289 . S
O210 C209 1.235 . S
C211 C213 1.400 . S
C211 N214 1.351 . S
C211 C216 1.501 . S
C212 C213 1.387 . S
C212 N215 1.341 . S
C213 C211 1.400 . S
C213 C212 1.387 . S
N214 Co205 2.022 . S
N214 C211 1.351 . S
N214 N215 1.365 . S
N215 C212 1.341 . S
N215 N214 1.365 . S
N215 H235 0.862 . S
C216 C211 1.501 . S
C216 H217 0.961 . S
C216 H218 0.961 . S
C216 H219 0.960 . S
H217 C216 0.961 . S
H218 C216 0.961 . S
H219 C216 0.960 . S
C220 N221 1.342 . S
C220 C224 1.401 . S
C220 C225 1.499 . S
N221 Co204 1.989 . S
N221 C220 1.342 . S
N221 N222 1.388 . S
N222 Co205 1.993 . S
N222 N221 1.388 . S
N222 C223 1.346 . S
C223 N222 1.346 . S
C223 C224 1.396 . S
C223 C233 1.510 . S
C224 C220 1.401 . S
C224 C223 1.396 . S
C225 C220 1.499 . S
C225 H226 0.959 . S
C225 H227 0.960 . S
C225 H228 0.961 . S
H226 C225 0.959 . S
H227 C225 0.960 . S
H228 C225 0.961 . S
O229 Co204 1.967 . S
O229 C237 1.258 . S
O230 Co205 1.941 . S
O230 C237 1.266 . S
H231 C233 0.959 . S
H232 C233 0.961 . S
C233 C223 1.510 . S
C233 H231 0.959 . S
C233 H232 0.961 . S
C233 H234 0.960 . S
H234 C233 0.960 . S
H235 N215 0.862 . S
O236 Co204 1.920 . S
O236 C209 1.289 . S
C237 O229 1.258 . S
C237 O230 1.266 . S
Co238 O241 1.970 . S
Co238 N255 1.989 . S
Co238 O263 1.967 . S
Co238 O270 1.920 . S
Co239 O242 1.966 . S
Co239 N248 2.022 . S
Co239 N256 1.993 . S
Co239 O264 1.941 . S
C240 O241 1.258 . S
C240 O242 1.263 . S
O241 Co238 1.970 . S
O241 C240 1.258 . S
O242 Co239 1.966 . S
O242 C240 1.263 . S
C243 O244 1.235 . S
C243 O270 1.289 . S
O244 C243 1.235 . S
C245 C247 1.400 . S
C245 N248 1.351 . S
C245 C250 1.501 . S
C246 C247 1.387 . S
C246 N249 1.341 . S
C247 C245 1.400 . S
C247 C246 1.387 . S
N248 Co239 2.022 . S
N248 C245 1.351 . S
N248 N249 1.365 . S
N249 C246 1.341 . S
N249 N248 1.365 . S
N249 H269 0.862 . S
C250 C245 1.501 . S
C250 H251 0.961 . S
C250 H252 0.961 . S
C250 H253 0.960 . S
H251 C250 0.961 . S
H252 C250 0.961 . S
H253 C250 0.960 . S
C254 N255 1.342 . S
C254 C258 1.401 . S
C254 C259 1.499 . S
N255 Co238 1.989 . S
N255 C254 1.342 . S
N255 N256 1.388 . S
N256 Co239 1.993 . S
N256 N255 1.388 . S
N256 C257 1.346 . S
C257 N256 1.346 . S
C257 C258 1.396 . S
C257 C267 1.510 . S
C258 C254 1.401 . S
C258 C257 1.396 . S
C259 C254 1.499 . S
C259 H260 0.959 . S
C259 H261 0.960 . S
C259 H262 0.961 . S
H260 C259 0.959 . S
H261 C259 0.960 . S
H262 C259 0.961 . S
O263 Co238 1.967 . S
O263 C271 1.258 . S
O264 Co239 1.941 . S
O264 C271 1.266 . S
H265 C267 0.959 . S
H266 C267 0.961 . S
C267 C257 1.510 . S
C267 H265 0.959 . S
C267 H266 0.961 . S
C267 H268 0.960 . S
H268 C267 0.960 . S
H269 N249 0.862 . S
O270 Co238 1.920 . S
O270 C243 1.289 . S
C271 O263 1.258 . S
C271 O264 1.266 . S
Co272 O275 1.970 . S
Co272 N289 1.989 . S
Co272 O297 1.967 . S
Co272 O304 1.920 . S
Co273 O276 1.966 . S
Co273 N282 2.022 . S
Co273 N290 1.993 . S
Co273 O298 1.941 . S
C274 O275 1.258 . S
C274 O276 1.263 . S
O275 Co272 1.970 . S
O275 C274 1.258 . S
O276 Co273 1.966 . S
O276 C274 1.263 . S
C277 O278 1.235 . S
C277 O304 1.289 . S
O278 C277 1.235 . S
C279 C281 1.400 . S
C279 N282 1.351 . S
C279 C284 1.501 . S
C280 C281 1.387 . S
C280 N283 1.341 . S
C281 C279 1.400 . S
C281 C280 1.387 . S
N282 Co273 2.022 . S
N282 C279 1.351 . S
N282 N283 1.365 . S
N283 C280 1.341 . S
N283 N282 1.365 . S
N283 H303 0.862 . S
C284 C279 1.501 . S
C284 H285 0.961 . S
C284 H286 0.961 . S
C284 H287 0.960 . S
H285 C284 0.961 . S
H286 C284 0.961 . S
H287 C284 0.960 . S
C288 N289 1.342 . S
C288 C292 1.401 . S
C288 C293 1.499 . S
N289 Co272 1.989 . S
N289 C288 1.342 . S
N289 N290 1.388 . S
N290 Co273 1.993 . S
N290 N289 1.388 . S
N290 C291 1.346 . S
C291 N290 1.346 . S
C291 C292 1.396 . S
C291 C301 1.510 . S
C292 C288 1.401 . S
C292 C291 1.396 . S
C293 C288 1.499 . S
C293 H294 0.959 . S
C293 H295 0.960 . S
C293 H296 0.961 . S
H294 C293 0.959 . S
H295 C293 0.960 . S
H296 C293 0.961 . S
O297 Co272 1.967 . S
O297 C305 1.258 . S
O298 Co273 1.941 . S
O298 C305 1.266 . S
H299 C301 0.959 . S
H300 C301 0.961 . S
C301 C291 1.510 . S
C301 H299 0.959 . S
C301 H300 0.961 . S
C301 H302 0.960 . S
H302 C301 0.960 . S
H303 N283 0.862 . S
O304 Co272 1.920 . S
O304 C277 1.289 . S
C305 O297 1.258 . S
C305 O298 1.266 . S
Co306 O309 1.970 . S
Co306 N323 1.989 . S
Co306 O331 1.967 . S
Co306 O338 1.920 . S
Co307 O310 1.966 . S
Co307 N316 2.022 . S
Co307 N324 1.993 . S
Co307 O332 1.941 . S
C308 O309 1.258 . S
C308 O310 1.263 . S
O309 Co306 1.970 . S
O309 C308 1.258 . S
O310 Co307 1.966 . S
O310 C308 1.263 . S
C311 O312 1.235 . S
C311 O338 1.289 . S
O312 C311 1.235 . S
C313 C315 1.400 . S
C313 N316 1.351 . S
C313 C318 1.501 . S
C314 C315 1.387 . S
C314 N317 1.341 . S
C315 C313 1.400 . S
C315 C314 1.387 . S
N316 Co307 2.022 . S
N316 C313 1.351 . S
N316 N317 1.365 . S
N317 C314 1.341 . S
N317 N316 1.365 . S
N317 H337 0.862 . S
C318 C313 1.501 . S
C318 H319 0.961 . S
C318 H320 0.961 . S
C318 H321 0.960 . S
H319 C318 0.961 . S
H320 C318 0.961 . S
H321 C318 0.960 . S
C322 N323 1.342 . S
C322 C326 1.401 . S
C322 C327 1.499 . S
N323 Co306 1.989 . S
N323 C322 1.342 . S
N323 N324 1.388 . S
N324 Co307 1.993 . S
N324 N323 1.388 . S
N324 C325 1.346 . S
C325 N324 1.346 . S
C325 C326 1.396 . S
C325 C335 1.510 . S
C326 C322 1.401 . S
C326 C325 1.396 . S
C327 C322 1.499 . S
C327 H328 0.959 . S
C327 H329 0.960 . S
C327 H330 0.961 . S
H328 C327 0.959 . S
H329 C327 0.960 . S
H330 C327 0.961 . S
O331 Co306 1.967 . S
O331 C339 1.258 . S
O332 Co307 1.941 . S
O332 C339 1.266 . S
H333 C335 0.959 . S
H334 C335 0.961 . S
C335 C325 1.510 . S
C335 H333 0.959 . S
C335 H334 0.961 . S
C335 H336 0.960 . S
H336 C335 0.960 . S
H337 N317 0.862 . S
O338 Co306 1.920 . S
O338 C311 1.289 . S
C339 O331 1.258 . S
C339 O332 1.266 . S
Co340 O343 1.970 . S
Co340 N357 1.989 . S
Co340 O365 1.967 . S
Co340 O372 1.920 . S
Co341 O344 1.966 . S
Co341 N350 2.022 . S
Co341 N358 1.993 . S
Co341 O366 1.941 . S
C342 O343 1.258 . S
C342 O344 1.263 . S
O343 Co340 1.970 . S
O343 C342 1.258 . S
O344 Co341 1.966 . S
O344 C342 1.263 . S
C345 O346 1.235 . S
C345 O372 1.289 . S
O346 C345 1.235 . S
C347 C349 1.400 . S
C347 N350 1.351 . S
C347 C352 1.501 . S
C348 C349 1.387 . S
C348 N351 1.341 . S
C349 C347 1.400 . S
C349 C348 1.387 . S
N350 Co341 2.022 . S
N350 C347 1.351 . S
N350 N351 1.365 . S
N351 C348 1.341 . S
N351 N350 1.365 . S
N351 H371 0.862 . S
C352 C347 1.501 . S
C352 H353 0.961 . S
C352 H354 0.961 . S
C352 H355 0.960 . S
H353 C352 0.961 . S
H354 C352 0.961 . S
H355 C352 0.960 . S
C356 N357 1.342 . S
C356 C360 1.401 . S
C356 C361 1.499 . S
N357 Co340 1.989 . S
N357 C356 1.342 . S
N357 N358 1.388 . S
N358 Co341 1.993 . S
N358 N357 1.388 . S
N358 C359 1.346 . S
C359 N358 1.346 . S
C359 C360 1.396 . S
C359 C369 1.510 . S
C360 C356 1.401 . S
C360 C359 1.396 . S
C361 C356 1.499 . S
C361 H362 0.959 . S
C361 H363 0.960 . S
C361 H364 0.961 . S
H362 C361 0.959 . S
H363 C361 0.960 . S
H364 C361 0.961 . S
O365 Co340 1.967 . S
O365 C373 1.258 . S
O366 Co341 1.941 . S
O366 C373 1.266 . S
H367 C369 0.959 . S
H368 C369 0.961 . S
C369 C359 1.510 . S
C369 H367 0.959 . S
C369 H368 0.961 . S
C369 H370 0.960 . S
H370 C369 0.960 . S
H371 N351 0.862 . S
O372 Co340 1.920 . S
O372 C345 1.289 . S
C373 O365 1.258 . S
C373 O366 1.266 . S
Co374 O377 1.970 . S
Co374 N391 1.989 . S
Co374 O399 1.967 . S
Co374 O406 1.920 . S
Co375 O378 1.966 . S
Co375 N384 2.022 . S
Co375 N392 1.993 . S
Co375 O400 1.941 . S
C376 O377 1.258 . S
C376 O378 1.263 . S
O377 Co374 1.970 . S
O377 C376 1.258 . S
O378 Co375 1.966 . S
O378 C376 1.263 . S
C379 O380 1.235 . S
C379 O406 1.289 . S
O380 C379 1.235 . S
C381 C383 1.400 . S
C381 N384 1.351 . S
C381 C386 1.501 . S
C382 C383 1.387 . S
C382 N385 1.341 . S
C383 C381 1.400 . S
C383 C382 1.387 . S
N384 Co375 2.022 . S
N384 C381 1.351 . S
N384 N385 1.365 . S
N385 C382 1.341 . S
N385 N384 1.365 . S
N385 H405 0.862 . S
C386 C381 1.501 . S
C386 H387 0.961 . S
C386 H388 0.961 . S
C386 H389 0.960 . S
H387 C386 0.961 . S
H388 C386 0.961 . S
H389 C386 0.960 . S
C390 N391 1.342 . S
C390 C394 1.401 . S
C390 C395 1.499 . S
N391 Co374 1.989 . S
N391 C390 1.342 . S
N391 N392 1.388 . S
N392 Co375 1.993 . S
N392 N391 1.388 . S
N392 C393 1.346 . S
C393 N392 1.346 . S
C393 C394 1.396 . S
C393 C403 1.510 . S
C394 C390 1.401 . S
C394 C393 1.396 . S
C395 C390 1.499 . S
C395 H396 0.959 . S
C395 H397 0.960 . S
C395 H398 0.961 . S
H396 C395 0.959 . S
H397 C395 0.960 . S
H398 C395 0.961 . S
O399 Co374 1.967 . S
O399 C407 1.258 . S
O400 Co375 1.941 . S
O400 C407 1.266 . S
H401 C403 0.959 . S
H402 C403 0.961 . S
C403 C393 1.510 . S
C403 H401 0.959 . S
C403 H402 0.961 . S
C403 H404 0.960 . S
H404 C403 0.960 . S
H405 N385 0.862 . S
O406 Co374 1.920 . S
O406 C379 1.289 . S
C407 O399 1.258 . S
C407 O400 1.266 . S
Co408 O411 1.970 . S
Co408 N425 1.989 . S
Co408 O433 1.967 . S
Co408 O440 1.920 . S
Co409 O412 1.966 . S
Co409 N418 2.022 . S
Co409 N426 1.993 . S
Co409 O434 1.941 . S
C410 O411 1.258 . S
C410 O412 1.263 . S
O411 Co408 1.970 . S
O411 C410 1.258 . S
O412 Co409 1.966 . S
O412 C410 1.263 . S
C413 O414 1.235 . S
C413 O440 1.289 . S
O414 C413 1.235 . S
C415 C417 1.400 . S
C415 N418 1.351 . S
C415 C420 1.501 . S
C416 C417 1.387 . S
C416 N419 1.341 . S
C417 C415 1.400 . S
C417 C416 1.387 . S
N418 Co409 2.022 . S
N418 C415 1.351 . S
N418 N419 1.365 . S
N419 C416 1.341 . S
N419 N418 1.365 . S
N419 H439 0.862 . S
C420 C415 1.501 . S
C420 H421 0.961 . S
C420 H422 0.961 . S
C420 H423 0.960 . S
H421 C420 0.961 . S
H422 C420 0.961 . S
H423 C420 0.960 . S
C424 N425 1.342 . S
C424 C428 1.401 . S
C424 C429 1.499 . S
N425 Co408 1.989 . S
N425 C424 1.342 . S
N425 N426 1.388 . S
N426 Co409 1.993 . S
N426 N425 1.388 . S
N426 C427 1.346 . S
C427 N426 1.346 . S
C427 C428 1.396 . S
C427 C437 1.510 . S
C428 C424 1.401 . S
C428 C427 1.396 . S
C429 C424 1.499 . S
C429 H430 0.959 . S
C429 H431 0.960 . S
C429 H432 0.961 . S
H430 C429 0.959 . S
H431 C429 0.960 . S
H432 C429 0.961 . S
O433 Co408 1.967 . S
O433 C441 1.258 . S
O434 Co409 1.941 . S
O434 C441 1.266 . S
H435 C437 0.959 . S
H436 C437 0.961 . S
C437 C427 1.510 . S
C437 H435 0.959 . S
C437 H436 0.961 . S
C437 H438 0.960 . S
H438 C437 0.960 . S
H439 N419 0.862 . S
O440 Co408 1.920 . S
O440 C413 1.289 . S
C441 O433 1.258 . S
C441 O434 1.266 . S
Co442 O445 1.970 . S
Co442 N459 1.989 . S
Co442 O467 1.967 . S
Co442 O474 1.920 . S
Co443 O446 1.966 . S
Co443 N452 2.022 . S
Co443 N460 1.993 . S
Co443 O468 1.941 . S
C444 O445 1.258 . S
C444 O446 1.263 . S
O445 Co442 1.970 . S
O445 C444 1.258 . S
O446 Co443 1.966 . S
O446 C444 1.263 . S
C447 O448 1.235 . S
C447 O474 1.289 . S
O448 C447 1.235 . S
C449 C451 1.400 . S
C449 N452 1.351 . S
C449 C454 1.501 . S
C450 C451 1.387 . S
C450 N453 1.341 . S
C451 C449 1.400 . S
C451 C450 1.387 . S
N452 Co443 2.022 . S
N452 C449 1.351 . S
N452 N453 1.365 . S
N453 C450 1.341 . S
N453 N452 1.365 . S
N453 H473 0.862 . S
C454 C449 1.501 . S
C454 H455 0.961 . S
C454 H456 0.961 . S
C454 H457 0.960 . S
H455 C454 0.961 . S
H456 C454 0.961 . S
H457 C454 0.960 . S
C458 N459 1.342 . S
C458 C462 1.401 . S
C458 C463 1.499 . S
N459 Co442 1.989 . S
N459 C458 1.342 . S
N459 N460 1.388 . S
N460 Co443 1.993 . S
N460 N459 1.388 . S
N460 C461 1.346 . S
C461 N460 1.346 . S
C461 C462 1.396 . S
C461 C471 1.510 . S
C462 C458 1.401 . S
C462 C461 1.396 . S
C463 C458 1.499 . S
C463 H464 0.959 . S
C463 H465 0.960 . S
C463 H466 0.961 . S
H464 C463 0.959 . S
H465 C463 0.960 . S
H466 C463 0.961 . S
O467 Co442 1.967 . S
O467 C475 1.258 . S
O468 Co443 1.941 . S
O468 C475 1.266 . S
H469 C471 0.959 . S
H470 C471 0.961 . S
C471 C461 1.510 . S
C471 H469 0.959 . S
C471 H470 0.961 . S
C471 H472 0.960 . S
H472 C471 0.960 . S
H473 N453 0.862 . S
O474 Co442 1.920 . S
O474 C447 1.289 . S
C475 O467 1.258 . S
C475 O468 1.266 . S
Co476 O479 1.970 . S
Co476 N493 1.989 . S
Co476 O501 1.967 . S
Co476 O508 1.920 . S
Co477 O480 1.966 . S
Co477 N486 2.022 . S
Co477 N494 1.993 . S
Co477 O502 1.941 . S
C478 O479 1.258 . S
C478 O480 1.263 . S
O479 Co476 1.970 . S
O479 C478 1.258 . S
O480 Co477 1.966 . S
O480 C478 1.263 . S
C481 O482 1.235 . S
C481 O508 1.289 . S
O482 C481 1.235 . S
C483 C485 1.400 . S
C483 N486 1.351 . S
C483 C488 1.501 . S
C484 C485 1.387 . S
C484 N487 1.341 . S
C485 C483 1.400 . S
C485 C484 1.387 . S
N486 Co477 2.022 . S
N486 C483 1.351 . S
N486 N487 1.365 . S
N487 C484 1.341 . S
N487 N486 1.365 . S
N487 H507 0.862 . S
C488 C483 1.501 . S
C488 H489 0.961 . S
C488 H490 0.961 . S
C488 H491 0.960 . S
H489 C488 0.961 . S
H490 C488 0.961 . S
H491 C488 0.960 . S
C492 N493 1.342 . S
C492 C496 1.401 . S
C492 C497 1.499 . S
N493 Co476 1.989 . S
N493 C492 1.342 . S
N493 N494 1.388 . S
N494 Co477 1.993 . S
N494 N493 1.388 . S
N494 C495 1.346 . S
C495 N494 1.346 . S
C495 C496 1.396 . S
C495 C505 1.510 . S
C496 C492 1.401 . S
C496 C495 1.396 . S
C497 C492 1.499 . S
C497 H498 0.959 . S
C497 H499 0.960 . S
C497 H500 0.961 . S
H498 C497 0.959 . S
H499 C497 0.960 . S
H500 C497 0.961 . S
O501 Co476 1.967 . S
O501 C509 1.258 . S
O502 Co477 1.941 . S
O502 C509 1.266 . S
H503 C505 0.959 . S
H504 C505 0.961 . S
C505 C495 1.510 . S
C505 H503 0.959 . S
C505 H504 0.961 . S
C505 H506 0.960 . S
H506 C505 0.960 . S
H507 N487 0.862 . S
O508 Co476 1.920 . S
O508 C481 1.289 . S
C509 O501 1.258 . S
C509 O502 1.266 . S
Co510 O513 1.970 . S
Co510 N527 1.989 . S
Co510 O535 1.967 . S
Co510 O542 1.920 . S
Co511 O514 1.966 . S
Co511 N520 2.022 . S
Co511 N528 1.993 . S
Co511 O536 1.941 . S
C512 O513 1.258 . S
C512 O514 1.263 . S
O513 Co510 1.970 . S
O513 C512 1.258 . S
O514 Co511 1.966 . S
O514 C512 1.263 . S
C515 O516 1.235 . S
C515 O542 1.289 . S
O516 C515 1.235 . S
C517 C519 1.400 . S
C517 N520 1.351 . S
C517 C522 1.501 . S
C518 C519 1.387 . S
C518 N521 1.341 . S
C519 C517 1.400 . S
C519 C518 1.387 . S
N520 Co511 2.022 . S
N520 C517 1.351 . S
N520 N521 1.365 . S
N521 C518 1.341 . S
N521 N520 1.365 . S
N521 H541 0.862 . S
C522 C517 1.501 . S
C522 H523 0.961 . S
C522 H524 0.961 . S
C522 H525 0.960 . S
H523 C522 0.961 . S
H524 C522 0.961 . S
H525 C522 0.960 . S
C526 N527 1.342 . S
C526 C530 1.401 . S
C526 C531 1.499 . S
N527 Co510 1.989 . S
N527 C526 1.342 . S
N527 N528 1.388 . S
N528 Co511 1.993 . S
N528 N527 1.388 . S
N528 C529 1.346 . S
C529 N528 1.346 . S
C529 C530 1.396 . S
C529 C539 1.510 . S
C530 C526 1.401 . S
C530 C529 1.396 . S
C531 C526 1.499 . S
C531 H532 0.959 . S
C531 H533 0.960 . S
C531 H534 0.961 . S
H532 C531 0.959 . S
H533 C531 0.960 . S
H534 C531 0.961 . S
O535 Co510 1.967 . S
O535 C543 1.258 . S
O536 Co511 1.941 . S
O536 C543 1.266 . S
H537 C539 0.959 . S
H538 C539 0.961 . S
C539 C529 1.510 . S
C539 H537 0.959 . S
C539 H538 0.961 . S
C539 H540 0.960 . S
H540 C539 0.960 . S
H541 N521 0.862 . S
O542 Co510 1.920 . S
O542 C515 1.289 . S
C543 O535 1.258 . S
C543 O536 1.266 . S
H544 C550 0.930 . S
H545 C554 0.930 . S
H546 C559 0.929 . S
H547 C557 0.929 . S
H548 C552 0.929 . S
H549 C558 0.929 . S
C550 H544 0.930 . S
C550 C551 1.367 . S
C550 C558 1.378 . S
C551 C550 1.367 . S
C551 C559 1.433 . S
C552 H548 0.929 . S
C552 C554 1.378 . S
C552 C556 1.350 . S
C553 C556 1.463 1_655 S
C553 C558 1.350 . S
C553 N561 1.427 . S
C554 H545 0.930 . S
C554 C552 1.378 . S
C554 C555 1.367 . S
C555 C554 1.367 . S
C555 C557 1.433 . S
C556 C552 1.350 . S
C556 C553 1.463 1_455 S
C556 N560 1.427 . S
C557 H547 0.929 . S
C557 C555 1.433 . S
C557 N560 1.384 . S
C558 H549 0.929 . S
C558 C550 1.378 . S
C558 C553 1.350 . S
C559 H546 0.929 . S
C559 C551 1.433 . S
C559 N561 1.384 . S
N560 C556 1.427 . S
N560 C557 1.384 . S
N561 C553 1.427 . S
N561 C559 1.384 . S
H562 C568 0.930 . S
H563 C572 0.930 . S
H564 C577 0.929 . S
H565 C575 0.929 . S
H566 C570 0.929 . S
H567 C576 0.929 . S
C568 H562 0.930 . S
C568 C569 1.367 . S
C568 C576 1.378 . S
C569 C568 1.367 . S
C569 C577 1.433 . S
C570 H566 0.929 . S
C570 C572 1.378 . S
C570 C574 1.350 . S
C571 C574 1.465 1_545 S
C571 C576 1.349 . S
C571 N579 1.426 . S
C572 H563 0.930 . S
C572 C570 1.378 . S
C572 C573 1.367 . S
C573 C572 1.367 . S
C573 C575 1.433 . S
C574 C570 1.350 . S
C574 C571 1.465 1_565 S
C574 N578 1.427 . S
C575 H565 0.929 . S
C575 C573 1.433 . S
C575 N578 1.384 . S
C576 H567 0.929 . S
C576 C568 1.378 . S
C576 C571 1.349 . S
C577 H564 0.929 . S
C577 C569 1.433 . S
C577 N579 1.384 . S
N578 C574 1.427 . S
N578 C575 1.384 . S
N579 C571 1.426 . S
N579 C577 1.384 . S
H580 C586 0.930 . S
H581 C590 0.930 . S
H582 C595 0.929 . S
H583 C593 0.929 . S
H584 C588 0.929 . S
H585 C594 0.929 . S
C586 H580 0.930 . S
C586 C587 1.367 . S
C586 C594 1.378 1_655 S
C587 C586 1.367 . S
C587 C595 1.433 . S
C588 H584 0.929 . S
C588 C590 1.378 . S
C588 C592 1.350 . S
C589 C592 1.463 . S
C589 C594 1.350 . S
C589 N597 1.427 . S
C590 H581 0.930 . S
C590 C588 1.378 . S
C590 C591 1.367 . S
C591 C590 1.367 . S
C591 C593 1.433 . S
C592 C588 1.350 . S
C592 C589 1.463 . S
C592 N596 1.427 . S
C593 H583 0.929 . S
C593 C591 1.433 . S
C593 N596 1.384 . S
C594 H585 0.929 . S
C594 C586 1.378 1_455 S
C594 C589 1.350 . S
C595 H582 0.929 . S
C595 C587 1.433 . S
C595 N597 1.384 1_655 S
N596 C592 1.427 . S
N596 C593 1.384 . S
N597 C589 1.427 . S
N597 C595 1.384 1_455 S
H598 C604 0.930 . S
H599 C608 0.930 . S
H600 C613 0.929 . S
H601 C611 0.929 . S
H602 C606 0.929 . S
H603 C612 0.929 . S
C604 H598 0.930 . S
C604 C605 1.367 . S
C604 C612 1.378 . S
C605 C604 1.367 . S
C605 C613 1.433 . S
C606 H602 0.929 . S
C606 C608 1.378 . S
C606 C610 1.350 . S
C607 C610 1.463 1_565 S
C607 C612 1.350 . S
C607 N615 1.427 . S
C608 H599 0.930 . S
C608 C606 1.378 . S
C608 C609 1.367 . S
C609 C608 1.367 . S
C609 C611 1.433 . S
C610 C606 1.350 . S
C610 C607 1.463 1_545 S
C610 N614 1.427 . S
C611 H601 0.929 . S
C611 C609 1.433 . S
C611 N614 1.384 . S
C612 H603 0.929 . S
C612 C604 1.378 . S
C612 C607 1.350 . S
C613 H600 0.929 . S
C613 C605 1.433 . S
C613 N615 1.384 . S
N614 C610 1.427 . S
N614 C611 1.384 . S
N615 C607 1.427 . S
N615 C613 1.384 . S
H616 C622 0.930 . S
H617 C626 0.930 . S
H618 C631 0.929 . S
H619 C629 0.929 . S
H620 C624 0.929 . S
H621 C630 0.929 . S
C622 H616 0.930 . S
C622 C623 1.367 . S
C622 C630 1.378 . S
C623 C622 1.367 . S
C623 C631 1.433 . S
C624 H620 0.929 . S
C624 C626 1.378 . S
C624 C628 1.350 . S
C625 C628 1.463 1_655 S
C625 C630 1.350 . S
C625 N633 1.427 . S
C626 H617 0.930 . S
C626 C624 1.378 . S
C626 C627 1.367 . S
C627 C626 1.367 . S
C627 C629 1.433 . S
C628 C624 1.350 . S
C628 C625 1.463 1_455 S
C628 N632 1.427 . S
C629 H619 0.929 . S
C629 C627 1.433 . S
C629 N632 1.384 . S
C630 H621 0.929 . S
C630 C622 1.378 . S
C630 C625 1.350 . S
C631 H618 0.929 . S
C631 C623 1.433 . S
C631 N633 1.384 . S
N632 C628 1.427 . S
N632 C629 1.384 . S
N633 C625 1.427 . S
N633 C631 1.384 . S
H634 C640 0.930 . S
H635 C644 0.930 . S
H636 C649 0.929 . S
H637 C647 0.929 . S
H638 C642 0.929 . S
H639 C648 0.929 . S
C640 H634 0.930 . S
C640 C641 1.367 . S
C640 C648 1.378 . S
C641 C640 1.367 . S
C641 C649 1.433 . S
C642 H638 0.929 . S
C642 C644 1.378 . S
C642 C646 1.350 . S
C643 C646 1.463 1_565 S
C643 C648 1.350 . S
C643 N651 1.427 . S
C644 H635 0.930 . S
C644 C642 1.378 . S
C644 C645 1.367 . S
C645 C644 1.367 . S
C645 C647 1.433 . S
C646 C642 1.350 . S
C646 C643 1.463 1_545 S
C646 N650 1.427 . S
C647 H637 0.929 . S
C647 C645 1.433 . S
C647 N650 1.384 . S
C648 H639 0.929 . S
C648 C640 1.378 . S
C648 C643 1.350 . S
C649 H636 0.929 . S
C649 C641 1.433 . S
C649 N651 1.384 . S
N650 C646 1.427 . S
N650 C647 1.384 . S
N651 C643 1.427 . S
N651 C649 1.384 . S
H652 C658 0.930 . S
H653 C662 0.930 . S
H654 C667 0.929 . S
H655 C665 0.929 . S
H656 C660 0.929 . S
H657 C666 0.929 . S
C658 H652 0.930 . S
C658 C659 1.367 . S
C658 C666 1.378 . S
C659 C658 1.367 . S
C659 C667 1.433 . S
C660 H656 0.929 . S
C660 C662 1.378 1_655 S
C660 C664 1.350 . S
C661 C664 1.463 . S
C661 C666 1.350 . S
C661 N669 1.427 . S
C662 H653 0.930 . S
C662 C660 1.378 1_455 S
C662 C663 1.367 . S
C663 C662 1.367 . S
C663 C665 1.433 . S
C664 C660 1.350 . S
C664 C661 1.463 . S
C664 N668 1.427 . S
C665 H655 0.929 . S
C665 C663 1.433 . S
C665 N668 1.384 1_455 S
C666 H657 0.929 . S
C666 C658 1.378 . S
C666 C661 1.350 . S
C667 H654 0.929 . S
C667 C659 1.433 . S
C667 N669 1.384 . S
N668 C664 1.427 . S
N668 C665 1.384 1_655 S
N669 C661 1.427 . S
N669 C667 1.384 . S
H670 C676 0.930 . S
H671 C680 0.930 . S
H672 C685 0.929 . S
H673 C683 0.929 . S
H674 C678 0.929 . S
H675 C684 0.929 . S
C676 H670 0.930 . S
C676 C677 1.367 . S
C676 C684 1.378 . S
C677 C676 1.367 . S
C677 C685 1.433 . S
C678 H674 0.929 . S
C678 C680 1.378 . S
C678 C682 1.350 . S
C679 C682 1.463 . S
C679 C684 1.350 1_565 S
C679 N687 1.427 1_565 S
C680 H671 0.930 . S
C680 C678 1.378 . S
C680 C681 1.367 . S
C681 C680 1.367 . S
C681 C683 1.433 . S
C682 C678 1.350 . S
C682 C679 1.463 . S
C682 N686 1.427 . S
C683 H673 0.929 . S
C683 C681 1.433 . S
C683 N686 1.384 . S
C684 H675 0.929 . S
C684 C676 1.378 . S
C684 C679 1.350 1_545 S
C685 H672 0.929 . S
C685 C677 1.433 . S
C685 N687 1.384 . S
N686 C682 1.427 . S
N686 C683 1.384 . S
N687 C679 1.427 1_545 S
N687 C685 1.384 . S
H688 C694 0.930 . S
H689 C698 0.930 . S
H690 C703 0.929 . S
H691 C701 0.929 . S
H692 C696 0.929 . S
H693 C702 0.929 . S
C694 H688 0.930 . S
C694 C695 1.367 . S
C694 C702 1.378 . S
C695 C694 1.367 . S
C695 C703 1.433 . S
C696 H692 0.929 . S
C696 C698 1.378 . S
C696 C700 1.350 . S
C697 C700 1.463 . S
C697 C702 1.350 . S
C697 N705 1.427 . S
C698 H689 0.930 . S
C698 C696 1.378 . S
C698 C699 1.367 . S
C699 C698 1.367 . S
C699 C701 1.433 . S
C700 C696 1.350 . S
C700 C697 1.463 . S
C700 N704 1.427 . S
C701 H691 0.929 . S
C701 C699 1.433 . S
C701 N704 1.384 . S
C702 H693 0.929 . S
C702 C694 1.378 . S
C702 C697 1.350 . S
C703 H690 0.929 . S
C703 C695 1.433 . S
C703 N705 1.384 . S
N704 C700 1.427 . S
N704 C701 1.384 . S
N705 C697 1.427 . S
N705 C703 1.384 . S
H706 C712 0.930 . S
H707 C716 0.930 . S
H708 C721 0.929 . S
H709 C719 0.929 . S
H710 C714 0.929 . S
H711 C720 0.929 . S
C712 H706 0.930 . S
C712 C713 1.367 . S
C712 C720 1.378 . S
C713 C712 1.367 . S
C713 C721 1.433 . S
C714 H710 0.929 . S
C714 C716 1.378 . S
C714 C718 1.350 . S
C715 C718 1.463 . S
C715 C720 1.350 . S
C715 N723 1.427 . S
C716 H707 0.930 . S
C716 C714 1.378 . S
C716 C717 1.367 . S
C717 C716 1.367 . S
C717 C719 1.433 . S
C718 C714 1.350 . S
C718 C715 1.463 . S
C718 N722 1.427 . S
C719 H709 0.929 . S
C719 C717 1.433 . S
C719 N722 1.384 . S
C720 H711 0.929 . S
C720 C712 1.378 . S
C720 C715 1.350 . S
C721 H708 0.929 . S
C721 C713 1.433 . S
C721 N723 1.384 . S
N722 C718 1.427 . S
N722 C719 1.384 . S
N723 C715 1.427 . S
N723 C721 1.384 . S
H724 C730 0.930 . S
H725 C734 0.930 . S
H726 C739 0.929 . S
H727 C737 0.929 . S
H728 C732 0.929 . S
H729 C738 0.929 . S
C730 H724 0.930 . S
C730 C731 1.367 . S
C730 C738 1.378 . S
C731 C730 1.367 . S
C731 C739 1.433 . S
C732 H728 0.929 . S
C732 C734 1.378 . S
C732 C736 1.350 . S
C733 C736 1.463 . S
C733 C738 1.350 . S
C733 N741 1.427 . S
C734 H725 0.930 . S
C734 C732 1.378 . S
C734 C735 1.367 . S
C735 C734 1.367 . S
C735 C737 1.433 . S
C736 C732 1.350 . S
C736 C733 1.463 . S
C736 N740 1.427 . S
C737 H727 0.929 . S
C737 C735 1.433 . S
C737 N740 1.384 . S
C738 H729 0.929 . S
C738 C730 1.378 . S
C738 C733 1.350 . S
C739 H726 0.929 . S
C739 C731 1.433 . S
C739 N741 1.384 . S
N740 C736 1.427 . S
N740 C737 1.384 . S
N741 C733 1.427 . S
N741 C739 1.384 . S
H742 C748 0.930 . S
H743 C752 0.930 . S
H744 C757 0.929 . S
H745 C755 0.929 . S
H746 C750 0.929 . S
H747 C756 0.929 . S
C748 H742 0.930 . S
C748 C749 1.367 . S
C748 C756 1.378 . S
C749 C748 1.367 . S
C749 C757 1.433 . S
C750 H746 0.929 . S
C750 C752 1.378 . S
C750 C754 1.350 . S
C751 C754 1.463 . S
C751 C756 1.350 . S
C751 N759 1.427 . S
C752 H743 0.930 . S
C752 C750 1.378 . S
C752 C753 1.367 . S
C753 C752 1.367 . S
C753 C755 1.433 . S
C754 C750 1.350 . S
C754 C751 1.463 . S
C754 N758 1.427 . S
C755 H745 0.929 . S
C755 C753 1.433 . S
C755 N758 1.384 . S
C756 H747 0.929 . S
C756 C748 1.378 . S
C756 C751 1.350 . S
C757 H744 0.929 . S
C757 C749 1.433 . S
C757 N759 1.384 . S
N758 C754 1.427 . S
N758 C755 1.384 . S
N759 C751 1.427 . S
N759 C757 1.384 . S
H760 C766 0.930 . S
H761 C770 0.930 . S
H762 C775 0.929 . S
H763 C773 0.929 . S
H764 C768 0.929 . S
H765 C774 0.929 . S
C766 H760 0.930 . S
C766 C767 1.367 . S
C766 C774 1.378 . S
C767 C766 1.367 . S
C767 C775 1.433 . S
C768 H764 0.929 . S
C768 C770 1.378 . S
C768 C772 1.350 . S
C769 C772 1.463 . S
C769 C774 1.350 . S
C769 N777 1.427 . S
C770 H761 0.930 . S
C770 C768 1.378 . S
C770 C771 1.367 . S
C771 C770 1.367 . S
C771 C773 1.433 . S
C772 C768 1.350 . S
C772 C769 1.463 . S
C772 N776 1.427 . S
C773 H763 0.929 . S
C773 C771 1.433 . S
C773 N776 1.384 . S
C774 H765 0.929 . S
C774 C766 1.378 . S
C774 C769 1.350 . S
C775 H762 0.929 . S
C775 C767 1.433 . S
C775 N777 1.384 . S
N776 C772 1.427 . S
N776 C773 1.384 . S
N777 C769 1.427 . S
N777 C775 1.384 . S
H778 C784 0.930 . S
H779 C788 0.930 . S
H780 C793 0.929 . S
H781 C791 0.929 . S
H782 C786 0.929 . S
H783 C792 0.929 . S
C784 H778 0.930 . S
C784 C785 1.367 . S
C784 C792 1.378 . S
C785 C784 1.367 . S
C785 C793 1.433 . S
C786 H782 0.929 . S
C786 C788 1.378 . S
C786 C790 1.350 . S
C787 C790 1.463 . S
C787 C792 1.350 . S
C787 N795 1.427 . S
C788 H779 0.930 . S
C788 C786 1.378 . S
C788 C789 1.367 . S
C789 C788 1.367 . S
C789 C791 1.433 . S
C790 C786 1.350 . S
C790 C787 1.463 . S
C790 N794 1.427 . S
C791 H781 0.929 . S
C791 C789 1.433 . S
C791 N794 1.384 . S
C792 H783 0.929 . S
C792 C784 1.378 . S
C792 C787 1.350 . S
C793 H780 0.929 . S
C793 C785 1.433 . S
C793 N795 1.384 . S
N794 C790 1.427 . S
N794 C791 1.384 . S
N795 C787 1.427 . S
N795 C793 1.384 . S
H796 C802 0.930 . S
H797 C806 0.930 . S
H798 C811 0.929 . S
H799 C809 0.929 . S
H800 C804 0.929 . S
H801 C810 0.929 . S
C802 H796 0.930 . S
C802 C803 1.367 . S
C802 C810 1.378 . S
C803 C802 1.367 . S
C803 C811 1.433 . S
C804 H800 0.929 . S
C804 C806 1.378 . S
C804 C808 1.350 . S
C805 C808 1.463 . S
C805 C810 1.350 . S
C805 N813 1.427 . S
C806 H797 0.930 . S
C806 C804 1.378 . S
C806 C807 1.367 . S
C807 C806 1.367 . S
C807 C809 1.433 . S
C808 C804 1.350 . S
C808 C805 1.463 . S
C808 N812 1.427 . S
C809 H799 0.929 . S
C809 C807 1.433 . S
C809 N812 1.384 . S
C810 H801 0.929 . S
C810 C802 1.378 . S
C810 C805 1.350 . S
C811 H798 0.929 . S
C811 C803 1.433 . S
C811 N813 1.384 . S
N812 C808 1.427 . S
N812 C809 1.384 . S
N813 C805 1.427 . S
N813 C811 1.384 . S
H814 C820 0.930 . S
H815 C824 0.930 . S
H816 C829 0.929 . S
H817 C827 0.929 . S
H818 C822 0.929 . S
H819 C828 0.929 . S
C820 H814 0.930 . S
C820 C821 1.367 . S
C820 C828 1.378 . S
C821 C820 1.367 . S
C821 C829 1.433 . S
C822 H818 0.929 . S
C822 C824 1.378 . S
C822 C826 1.350 . S
C823 C826 1.463 . S
C823 C828 1.350 . S
C823 N831 1.427 . S
C824 H815 0.930 . S
C824 C822 1.378 . S
C824 C825 1.367 . S
C825 C824 1.367 . S
C825 C827 1.433 . S
C826 C822 1.350 . S
C826 C823 1.463 . S
C826 N830 1.427 . S
C827 H817 0.929 . S
C827 C825 1.433 . S
C827 N830 1.384 . S
C828 H819 0.929 . S
C828 C820 1.378 . S
C828 C823 1.350 . S
C829 H816 0.929 . S
C829 C821 1.433 . S
C829 N831 1.384 . S
N830 C826 1.427 . S
N830 C827 1.384 . S
N831 C823 1.427 . S
N831 C829 1.384 . S
H832 C838 0.930 . S
H833 C842 0.930 . S
H834 C847 0.929 . S
H835 C845 0.929 . S
H836 C840 0.929 . S
H837 C846 0.929 . S
C838 H832 0.930 . S
C838 C839 1.367 . S
C838 C846 1.378 . S
C839 C838 1.367 . S
C839 C847 1.433 . S
C840 H836 0.929 . S
C840 C842 1.378 . S
C840 C844 1.350 . S
C841 C844 1.463 1_554 S
C841 C846 1.350 . S
C841 N849 1.427 . S
C842 H833 0.930 . S
C842 C840 1.378 . S
C842 C843 1.367 . S
C843 C842 1.367 . S
C843 C845 1.433 . S
C844 C840 1.350 . S
C844 C841 1.463 1_556 S
C844 N848 1.427 . S
C845 H835 0.929 . S
C845 C843 1.433 . S
C845 N848 1.384 . S
C846 H837 0.929 . S
C846 C838 1.378 . S
C846 C841 1.350 . S
C847 H834 0.929 . S
C847 C839 1.433 . S
C847 N849 1.384 . S
N848 C844 1.427 . S
N848 C845 1.384 . S
N849 C841 1.427 . S
N849 C847 1.384 . S
H850 C856 0.930 . S
H851 C860 0.930 . S
H852 C865 0.929 . S
H853 C863 0.929 . S
H854 C858 0.929 . S
H855 C864 0.929 . S
C856 H850 0.930 . S
C856 C857 1.367 . S
C856 C864 1.378 . S
C857 C856 1.367 . S
C857 C865 1.433 . S
C858 H854 0.929 . S
C858 C860 1.378 . S
C858 C862 1.350 . S
C859 C862 1.463 . S
C859 C864 1.350 . S
C859 N867 1.427 . S
C860 H851 0.930 . S
C860 C858 1.378 . S
C860 C861 1.367 . S
C861 C860 1.367 . S
C861 C863 1.433 . S
C862 C858 1.350 . S
C862 C859 1.463 . S
C862 N866 1.427 . S
C863 H853 0.929 . S
C863 C861 1.433 . S
C863 N866 1.384 . S
C864 H855 0.929 . S
C864 C856 1.378 . S
C864 C859 1.350 . S
C865 H852 0.929 . S
C865 C857 1.433 . S
C865 N867 1.384 . S
N866 C862 1.427 . S
N866 C863 1.384 . S
N867 C859 1.427 . S
N867 C865 1.384 . S
H868 C874 0.930 . S
H869 C878 0.930 . S
H870 C883 0.929 . S
H871 C881 0.929 . S
H872 C876 0.929 . S
H873 C882 0.929 . S
C874 H868 0.930 . S
C874 C875 1.367 . S
C874 C882 1.378 . S
C875 C874 1.367 . S
C875 C883 1.433 . S
C876 H872 0.929 . S
C876 C878 1.378 . S
C876 C880 1.350 . S
C877 C880 1.463 1_556 S
C877 C882 1.350 . S
C877 N885 1.427 . S
C878 H869 0.930 . S
C878 C876 1.378 . S
C878 C879 1.367 . S
C879 C878 1.367 . S
C879 C881 1.433 . S
C880 C876 1.350 . S
C880 C877 1.463 1_554 S
C880 N884 1.427 . S
C881 H871 0.929 . S
C881 C879 1.433 . S
C881 N884 1.384 . S
C882 H873 0.929 . S
C882 C874 1.378 . S
C882 C877 1.350 . S
C883 H870 0.929 . S
C883 C875 1.433 . S
C883 N885 1.384 . S
N884 C880 1.427 . S
N884 C881 1.384 . S
N885 C877 1.427 . S
N885 C883 1.384 . S
H886 C892 0.930 . S
H887 C896 0.930 . S
H888 C901 0.929 . S
H889 C899 0.929 . S
H890 C894 0.929 . S
H891 C900 0.929 . S
C892 H886 0.930 . S
C892 C893 1.367 . S
C892 C900 1.378 . S
C893 C892 1.367 . S
C893 C901 1.433 . S
C894 H890 0.929 . S
C894 C896 1.378 . S
C894 C898 1.350 . S
C895 C898 1.463 . S
C895 C900 1.350 . S
C895 N903 1.427 . S
C896 H887 0.930 . S
C896 C894 1.378 . S
C896 C897 1.367 . S
C897 C896 1.367 . S
C897 C899 1.433 . S
C898 C894 1.350 . S
C898 C895 1.463 . S
C898 N902 1.427 . S
C899 H889 0.929 . S
C899 C897 1.433 . S
C899 N902 1.384 . S
C900 H891 0.929 . S
C900 C892 1.378 . S
C900 C895 1.350 . S
C901 H888 0.929 . S
C901 C893 1.433 . S
C901 N903 1.384 . S
N902 C898 1.427 . S
N902 C899 1.384 . S
N903 C895 1.427 . S
N903 C901 1.384 . S
H904 C910 0.930 . S
H905 C914 0.930 . S
H906 C919 0.929 . S
H907 C917 0.929 . S
H908 C912 0.929 . S
H909 C918 0.929 . S
C910 H904 0.930 . S
C910 C911 1.367 . S
C910 C918 1.378 . S
C911 C910 1.367 . S
C911 C919 1.433 . S
C912 H908 0.929 . S
C912 C914 1.378 . S
C912 C916 1.350 . S
C913 C916 1.463 1_556 S
C913 C918 1.350 . S
C913 N921 1.427 . S
C914 H905 0.930 . S
C914 C912 1.378 . S
C914 C915 1.367 . S
C915 C914 1.367 . S
C915 C917 1.433 . S
C916 C912 1.350 . S
C916 C913 1.463 1_554 S
C916 N920 1.427 . S
C917 H907 0.929 . S
C917 C915 1.433 . S
C917 N920 1.384 . S
C918 H909 0.929 . S
C918 C910 1.378 . S
C918 C913 1.350 . S
C919 H906 0.929 . S
C919 C911 1.433 . S
C919 N921 1.384 . S
N920 C916 1.427 . S
N920 C917 1.384 . S
N921 C913 1.427 . S
N921 C919 1.384 . S
H922 C928 0.930 . S
H923 C932 0.930 . S
H924 C937 0.929 . S
H925 C935 0.929 . S
H926 C930 0.929 . S
H927 C936 0.929 . S
C928 H922 0.930 . S
C928 C929 1.367 . S
C928 C936 1.378 . S
C929 C928 1.367 . S
C929 C937 1.433 . S
C930 H926 0.929 . S
C930 C932 1.378 . S
C930 C934 1.350 . S
C931 C934 1.463 . S
C931 C936 1.350 . S
C931 N939 1.427 . S
C932 H923 0.930 . S
C932 C930 1.378 . S
C932 C933 1.367 . S
C933 C932 1.367 . S
C933 C935 1.433 . S
C934 C930 1.350 . S
C934 C931 1.463 . S
C934 N938 1.427 . S
C935 H925 0.929 . S
C935 C933 1.433 . S
C935 N938 1.384 . S
C936 H927 0.929 . S
C936 C928 1.378 . S
C936 C931 1.350 . S
C937 H924 0.929 . S
C937 C929 1.433 . S
C937 N939 1.384 . S
N938 C934 1.427 . S
N938 C935 1.384 . S
N939 C931 1.427 . S
N939 C937 1.384 . S
H940 C946 0.930 . S
H941 C950 0.930 . S
H942 C955 0.929 . S
H943 C953 0.929 . S
H944 C948 0.929 . S
H945 C954 0.929 . S
C946 H940 0.930 . S
C946 C947 1.367 . S
C946 C954 1.378 . S
C947 C946 1.367 . S
C947 C955 1.433 . S
C948 H944 0.929 . S
C948 C950 1.378 . S
C948 C952 1.350 . S
C949 C952 1.463 1_554 S
C949 C954 1.350 . S
C949 N957 1.427 . S
C950 H941 0.930 . S
C950 C948 1.378 . S
C950 C951 1.367 . S
C951 C950 1.367 . S
C951 C953 1.433 . S
C952 C948 1.350 . S
C952 C949 1.463 1_556 S
C952 N956 1.427 . S
C953 H943 0.929 . S
C953 C951 1.433 . S
C953 N956 1.384 . S
C954 H945 0.929 . S
C954 C946 1.378 . S
C954 C949 1.350 . S
C955 H942 0.929 . S
C955 C947 1.433 . S
C955 N957 1.384 . S
N956 C952 1.427 . S
N956 C953 1.384 . S
N957 C949 1.427 . S
N957 C955 1.384 . S
H958 C964 0.930 . S
H959 C968 0.930 . S
H960 C973 0.929 . S
H961 C971 0.929 . S
H962 C966 0.929 . S
H963 C972 0.929 . S
C964 H958 0.930 . S
C964 C965 1.367 . S
C964 C972 1.378 . S
C965 C964 1.367 . S
C965 C973 1.433 . S
C966 H962 0.929 . S
C966 C968 1.378 . S
C966 C970 1.350 . S
C967 C970 1.463 . S
C967 C972 1.350 . S
C967 N975 1.427 . S
C968 H959 0.930 . S
C968 C966 1.378 . S
C968 C969 1.367 . S
C969 C968 1.367 . S
C969 C971 1.433 . S
C970 C966 1.350 . S
C970 C967 1.463 . S
C970 N974 1.427 . S
C971 H961 0.929 . S
C971 C969 1.433 . S
C971 N974 1.384 . S
C972 H963 0.929 . S
C972 C964 1.378 . S
C972 C967 1.350 . S
C973 H960 0.929 . S
C973 C965 1.433 . S
C973 N975 1.384 . S
N974 C970 1.427 . S
N974 C971 1.384 . S
N975 C967 1.427 . S
N975 C973 1.384 . S
H976 C982 0.930 . S
H977 C986 0.930 . S
H978 C991 0.929 . S
H979 C989 0.929 . S
H980 C984 0.929 . S
H981 C990 0.929 . S
C982 H976 0.930 . S
C982 C983 1.367 . S
C982 C990 1.378 . S
C983 C982 1.367 . S
C983 C991 1.433 . S
C984 H980 0.929 . S
C984 C986 1.378 . S
C984 C988 1.350 . S
C985 C988 1.463 . S
C985 C990 1.350 . S
C985 N993 1.427 . S
C986 H977 0.930 . S
C986 C984 1.378 . S
C986 C987 1.367 . S
C987 C986 1.367 . S
C987 C989 1.433 . S
C988 C984 1.350 . S
C988 C985 1.463 . S
C988 N992 1.427 . S
C989 H979 0.929 . S
C989 C987 1.433 . S
C989 N992 1.384 . S
C990 H981 0.929 . S
C990 C982 1.378 . S
C990 C985 1.350 . S
C991 H978 0.929 . S
C991 C983 1.433 . S
C991 N993 1.384 . S
N992 C988 1.427 . S
N992 C989 1.384 . S
N993 C985 1.427 . S
N993 C991 1.384 . S
H994 C1000 0.930 . S
H995 C1004 0.930 . S
H996 C1009 0.929 . S
H997 C1007 0.929 . S
H998 C1002 0.929 . S
H999 C1008 0.929 . S
C1000 H994 0.930 . S
C1000 C1001 1.367 . S
C1000 C1008 1.378 . S
C1001 C1000 1.367 . S
C1001 C1009 1.433 . S
C1002 H998 0.929 . S
C1002 C1004 1.378 . S
C1002 C1006 1.350 . S
C1003 C1006 1.463 . S
C1003 C1008 1.350 . S
C1003 N1011 1.427 . S
C1004 H995 0.930 . S
C1004 C1002 1.378 . S
C1004 C1005 1.367 . S
C1005 C1004 1.367 . S
C1005 C1007 1.433 . S
C1006 C1002 1.350 . S
C1006 C1003 1.463 . S
C1006 N1010 1.427 . S
C1007 H997 0.929 . S
C1007 C1005 1.433 . S
C1007 N1010 1.384 . S
C1008 H999 0.929 . S
C1008 C1000 1.378 . S
C1008 C1003 1.350 . S
C1009 H996 0.929 . S
C1009 C1001 1.433 . S
C1009 N1011 1.384 . S
N1010 C1006 1.427 . S
N1010 C1007 1.384 . S
N1011 C1003 1.427 . S
N1011 C1009 1.384 . S
H1012 C1018 0.930 . S
H1013 C1022 0.930 . S
H1014 C1027 0.929 . S
H1015 C1025 0.929 . S
H1016 C1020 0.929 . S
H1017 C1026 0.929 . S
C1018 H1012 0.930 . S
C1018 C1019 1.367 . S
C1018 C1026 1.378 . S
C1019 C1018 1.367 . S
C1019 C1027 1.433 . S
C1020 H1016 0.929 . S
C1020 C1022 1.378 . S
C1020 C1024 1.350 . S
C1021 C1024 1.463 . S
C1021 C1026 1.350 . S
C1021 N1029 1.427 . S
C1022 H1013 0.930 . S
C1022 C1020 1.378 . S
C1022 C1023 1.367 . S
C1023 C1022 1.367 . S
C1023 C1025 1.433 . S
C1024 C1020 1.350 . S
C1024 C1021 1.463 . S
C1024 N1028 1.427 . S
C1025 H1015 0.929 . S
C1025 C1023 1.433 . S
C1025 N1028 1.384 . S
C1026 H1017 0.929 . S
C1026 C1018 1.378 . S
C1026 C1021 1.350 . S
C1027 H1014 0.929 . S
C1027 C1019 1.433 . S
C1027 N1029 1.384 . S
N1028 C1024 1.427 . S
N1028 C1025 1.384 . S
N1029 C1021 1.427 . S
N1029 C1027 1.384 . S
H1030 C1036 0.930 . S
H1031 C1040 0.930 . S
H1032 C1045 0.929 . S
H1033 C1043 0.929 . S
H1034 C1038 0.929 . S
H1035 C1044 0.929 . S
C1036 H1030 0.930 . S
C1036 C1037 1.367 . S
C1036 C1044 1.378 . S
C1037 C1036 1.367 . S
C1037 C1045 1.433 . S
C1038 H1034 0.929 . S
C1038 C1040 1.378 . S
C1038 C1042 1.350 . S
C1039 C1042 1.463 . S
C1039 C1044 1.350 . S
C1039 N1047 1.427 . S
C1040 H1031 0.930 . S
C1040 C1038 1.378 . S
C1040 C1041 1.367 . S
C1041 C1040 1.367 . S
C1041 C1043 1.433 . S
C1042 C1038 1.350 . S
C1042 C1039 1.463 . S
C1042 N1046 1.427 . S
C1043 H1033 0.929 . S
C1043 C1041 1.433 . S
C1043 N1046 1.384 . S
C1044 H1035 0.929 . S
C1044 C1036 1.378 . S
C1044 C1039 1.350 . S
C1045 H1032 0.929 . S
C1045 C1037 1.433 . S
C1045 N1047 1.384 . S
N1046 C1042 1.427 . S
N1046 C1043 1.384 . S
N1047 C1039 1.427 . S
N1047 C1045 1.384 . S
H1048 C1054 0.930 . S
H1049 C1058 0.930 . S
H1050 C1063 0.929 . S
H1051 C1061 0.929 . S
H1052 C1056 0.929 . S
H1053 C1062 0.929 . S
C1054 H1048 0.930 . S
C1054 C1055 1.367 . S
C1054 C1062 1.378 . S
C1055 C1054 1.367 . S
C1055 C1063 1.433 . S
C1056 H1052 0.929 . S
C1056 C1058 1.378 . S
C1056 C1060 1.350 . S
C1057 C1060 1.463 . S
C1057 C1062 1.350 . S
C1057 N1065 1.427 . S
C1058 H1049 0.930 . S
C1058 C1056 1.378 . S
C1058 C1059 1.367 . S
C1059 C1058 1.367 . S
C1059 C1061 1.433 . S
C1060 C1056 1.350 . S
C1060 C1057 1.463 . S
C1060 N1064 1.427 . S
C1061 H1051 0.929 . S
C1061 C1059 1.433 . S
C1061 N1064 1.384 . S
C1062 H1053 0.929 . S
C1062 C1054 1.378 . S
C1062 C1057 1.350 . S
C1063 H1050 0.929 . S
C1063 C1055 1.433 . S
C1063 N1065 1.384 . S
N1064 C1060 1.427 . S
N1064 C1061 1.384 . S
N1065 C1057 1.427 . S
N1065 C1063 1.384 . S
H1066 C1072 0.930 . S
H1067 C1076 0.930 . S
H1068 C1081 0.929 . S
H1069 C1079 0.929 . S
H1070 C1074 0.929 . S
H1071 C1080 0.929 . S
C1072 H1066 0.930 . S
C1072 C1073 1.367 . S
C1072 C1080 1.378 . S
C1073 C1072 1.367 . S
C1073 C1081 1.433 . S
C1074 H1070 0.929 . S
C1074 C1076 1.378 . S
C1074 C1078 1.350 . S
C1075 C1078 1.463 . S
C1075 C1080 1.350 . S
C1075 N1083 1.427 . S
C1076 H1067 0.930 . S
C1076 C1074 1.378 . S
C1076 C1077 1.367 . S
C1077 C1076 1.367 . S
C1077 C1079 1.433 . S
C1078 C1074 1.350 . S
C1078 C1075 1.463 . S
C1078 N1082 1.427 . S
C1079 H1069 0.929 . S
C1079 C1077 1.433 . S
C1079 N1082 1.384 . S
C1080 H1071 0.929 . S
C1080 C1072 1.378 . S
C1080 C1075 1.350 . S
C1081 H1068 0.929 . S
C1081 C1073 1.433 . S
C1081 N1083 1.384 . S
N1082 C1078 1.427 . S
N1082 C1079 1.384 . S
N1083 C1075 1.427 . S
N1083 C1081 1.384 . S
H1084 C1090 0.930 . S
H1085 C1094 0.930 . S
H1086 C1099 0.929 . S
H1087 C1097 0.929 . S
H1088 C1092 0.929 . S
H1089 C1098 0.929 . S
C1090 H1084 0.930 . S
C1090 C1091 1.367 . S
C1090 C1098 1.378 . S
C1091 C1090 1.367 . S
C1091 C1099 1.433 . S
C1092 H1088 0.929 . S
C1092 C1094 1.378 . S
C1092 C1096 1.350 . S
C1093 C1096 1.463 . S
C1093 C1098 1.350 . S
C1093 N1101 1.427 . S
C1094 H1085 0.930 . S
C1094 C1092 1.378 . S
C1094 C1095 1.367 . S
C1095 C1094 1.367 . S
C1095 C1097 1.433 . S
C1096 C1092 1.350 . S
C1096 C1093 1.463 . S
C1096 N1100 1.427 . S
C1097 H1087 0.929 . S
C1097 C1095 1.433 . S
C1097 N1100 1.384 . S
C1098 H1089 0.929 . S
C1098 C1090 1.378 . S
C1098 C1093 1.350 . S
C1099 H1086 0.929 . S
C1099 C1091 1.433 . S
C1099 N1101 1.384 . S
N1100 C1096 1.427 . S
N1100 C1097 1.384 . S
N1101 C1093 1.427 . S
N1101 C1099 1.384 . S
H1102 C1108 0.930 . S
H1103 C1112 0.930 . S
H1104 C1117 0.929 . S
H1105 C1115 0.929 . S
H1106 C1110 0.929 . S
H1107 C1116 0.929 . S
C1108 H1102 0.930 . S
C1108 C1109 1.367 . S
C1108 C1116 1.378 . S
C1109 C1108 1.367 . S
C1109 C1117 1.433 . S
C1110 H1106 0.929 . S
C1110 C1112 1.378 . S
C1110 C1114 1.350 . S
C1111 C1114 1.463 . S
C1111 C1116 1.350 . S
C1111 N1119 1.427 . S
C1112 H1103 0.930 . S
C1112 C1110 1.378 . S
C1112 C1113 1.367 . S
C1113 C1112 1.367 . S
C1113 C1115 1.433 . S
C1114 C1110 1.350 . S
C1114 C1111 1.463 . S
C1114 N1118 1.427 . S
C1115 H1105 0.929 . S
C1115 C1113 1.433 . S
C1115 N1118 1.384 . S
C1116 H1107 0.929 . S
C1116 C1108 1.378 . S
C1116 C1111 1.350 . S
C1117 H1104 0.929 . S
C1117 C1109 1.433 . S
C1117 N1119 1.384 . S
N1118 C1114 1.427 . S
N1118 C1115 1.384 . S
N1119 C1111 1.427 . S
N1119 C1117 1.384 . S
H1120 C1126 0.930 . S
H1121 C1130 0.930 . S
H1122 C1135 0.929 . S
H1123 C1133 0.929 . S
H1124 C1128 0.929 . S
H1125 C1134 0.929 . S
C1126 H1120 0.930 . S
C1126 C1127 1.367 . S
C1126 C1134 1.378 . S
C1127 C1126 1.367 . S
C1127 C1135 1.433 . S
C1128 H1124 0.929 . S
C1128 C1130 1.378 . S
C1128 C1132 1.350 . S
C1129 C1132 1.463 . S
C1129 C1134 1.350 . S
C1129 N1137 1.427 . S
C1130 H1121 0.930 . S
C1130 C1128 1.378 . S
C1130 C1131 1.367 . S
C1131 C1130 1.367 . S
C1131 C1133 1.433 . S
C1132 C1128 1.350 . S
C1132 C1129 1.463 . S
C1132 N1136 1.427 . S
C1133 H1123 0.929 . S
C1133 C1131 1.433 . S
C1133 N1136 1.384 . S
C1134 H1125 0.929 . S
C1134 C1126 1.378 . S
C1134 C1129 1.350 . S
C1135 H1122 0.929 . S
C1135 C1127 1.433 . S
C1135 N1137 1.384 . S
N1136 C1132 1.427 . S
N1136 C1133 1.384 . S
N1137 C1129 1.427 . S
N1137 C1135 1.384 . S
H1138 C1144 0.930 . S
H1139 C1148 0.930 . S
H1140 C1153 0.929 . S
H1141 C1151 0.929 . S
H1142 C1146 0.929 . S
H1143 C1152 0.929 . S
C1144 H1138 0.930 . S
C1144 C1145 1.367 . S
C1144 C1152 1.378 . S
C1145 C1144 1.367 . S
C1145 C1153 1.433 . S
C1146 H1142 0.929 . S
C1146 C1148 1.378 . S
C1146 C1150 1.350 . S
C1147 C1150 1.463 . S
C1147 C1152 1.350 . S
C1147 N1155 1.427 . S
C1148 H1139 0.930 . S
C1148 C1146 1.378 . S
C1148 C1149 1.367 . S
C1149 C1148 1.367 . S
C1149 C1151 1.433 . S
C1150 C1146 1.350 . S
C1150 C1147 1.463 . S
C1150 N1154 1.427 . S
C1151 H1141 0.929 . S
C1151 C1149 1.433 . S
C1151 N1154 1.384 . S
C1152 H1143 0.929 . S
C1152 C1144 1.378 . S
C1152 C1147 1.350 . S
C1153 H1140 0.929 . S
C1153 C1145 1.433 . S
C1153 N1155 1.384 . S
N1154 C1150 1.427 . S
N1154 C1151 1.384 . S
N1155 C1147 1.427 . S
N1155 C1153 1.384 . S
H1156 C1162 0.930 . S
H1157 C1166 0.930 . S
H1158 C1171 0.929 . S
H1159 C1169 0.929 . S
H1160 C1164 0.929 . S
H1161 C1170 0.929 . S
C1162 H1156 0.930 . S
C1162 C1163 1.367 . S
C1162 C1170 1.378 . S
C1163 C1162 1.367 . S
C1163 C1171 1.433 . S
C1164 H1160 0.929 . S
C1164 C1166 1.378 . S
C1164 C1168 1.350 . S
C1165 C1168 1.463 . S
C1165 C1170 1.350 . S
C1165 N1173 1.427 . S
C1166 H1157 0.930 . S
C1166 C1164 1.378 . S
C1166 C1167 1.367 . S
C1167 C1166 1.367 . S
C1167 C1169 1.433 . S
C1168 C1164 1.350 . S
C1168 C1165 1.463 . S
C1168 N1172 1.427 . S
C1169 H1159 0.929 . S
C1169 C1167 1.433 . S
C1169 N1172 1.384 . S
C1170 H1161 0.929 . S
C1170 C1162 1.378 . S
C1170 C1165 1.350 . S
C1171 H1158 0.929 . S
C1171 C1163 1.433 . S
C1171 N1173 1.384 . S
N1172 C1168 1.427 . S
N1172 C1169 1.384 . S
N1173 C1165 1.427 . S
N1173 C1171 1.384 . S
H1174 C1180 0.930 . S
H1175 C1184 0.930 . S
H1176 C1189 0.929 . S
H1177 C1187 0.929 . S
H1178 C1182 0.929 . S
H1179 C1188 0.929 . S
C1180 H1174 0.930 . S
C1180 C1181 1.367 . S
C1180 C1188 1.378 . S
C1181 C1180 1.367 . S
C1181 C1189 1.433 . S
C1182 H1178 0.929 . S
C1182 C1184 1.378 . S
C1182 C1186 1.350 . S
C1183 C1186 1.463 . S
C1183 C1188 1.350 . S
C1183 N1191 1.427 . S
C1184 H1175 0.930 . S
C1184 C1182 1.378 . S
C1184 C1185 1.367 . S
C1185 C1184 1.367 . S
C1185 C1187 1.433 . S
C1186 C1182 1.350 . S
C1186 C1183 1.463 . S
C1186 N1190 1.427 . S
C1187 H1177 0.929 . S
C1187 C1185 1.433 . S
C1187 N1190 1.384 . S
C1188 H1179 0.929 . S
C1188 C1180 1.378 . S
C1188 C1183 1.350 . S
C1189 H1176 0.929 . S
C1189 C1181 1.433 . S
C1189 N1191 1.384 . S
N1190 C1186 1.427 . S
N1190 C1187 1.384 . S
N1191 C1183 1.427 . S
N1191 C1189 1.384 . S
H1192 C1198 0.930 . S
H1193 C1202 0.930 . S
H1194 C1207 0.929 . S
H1195 C1205 0.929 . S
H1196 C1200 0.929 . S
H1197 C1206 0.929 . S
C1198 H1192 0.930 . S
C1198 C1199 1.367 . S
C1198 C1206 1.378 . S
C1199 C1198 1.367 . S
C1199 C1207 1.433 . S
C1200 H1196 0.929 . S
C1200 C1202 1.378 . S
C1200 C1204 1.350 . S
C1201 C1204 1.463 . S
C1201 C1206 1.350 . S
C1201 N1209 1.427 . S
C1202 H1193 0.930 . S
C1202 C1200 1.378 . S
C1202 C1203 1.367 . S
C1203 C1202 1.367 . S
C1203 C1205 1.433 . S
C1204 C1200 1.350 . S
C1204 C1201 1.463 . S
C1204 N1208 1.427 . S
C1205 H1195 0.929 . S
C1205 C1203 1.433 . S
C1205 N1208 1.384 . S
C1206 H1197 0.929 . S
C1206 C1198 1.378 . S
C1206 C1201 1.350 . S
C1207 H1194 0.929 . S
C1207 C1199 1.433 . S
C1207 N1209 1.384 . S
N1208 C1204 1.427 . S
N1208 C1205 1.384 . S
N1209 C1201 1.427 . S
N1209 C1207 1.384 . S
H1210 C1216 0.930 . S
H1211 C1220 0.930 . S
H1212 C1225 0.929 . S
H1213 C1223 0.929 . S
H1214 C1218 0.929 . S
H1215 C1224 0.929 . S
C1216 H1210 0.930 . S
C1216 C1217 1.367 . S
C1216 C1224 1.378 . S
C1217 C1216 1.367 . S
C1217 C1225 1.433 . S
C1218 H1214 0.929 . S
C1218 C1220 1.378 . S
C1218 C1222 1.350 . S
C1219 C1222 1.463 . S
C1219 C1224 1.350 . S
C1219 N1227 1.427 . S
C1220 H1211 0.930 . S
C1220 C1218 1.378 . S
C1220 C1221 1.367 . S
C1221 C1220 1.367 . S
C1221 C1223 1.433 . S
C1222 C1218 1.350 . S
C1222 C1219 1.463 . S
C1222 N1226 1.427 . S
C1223 H1213 0.929 . S
C1223 C1221 1.433 . S
C1223 N1226 1.384 . S
C1224 H1215 0.929 . S
C1224 C1216 1.378 . S
C1224 C1219 1.350 . S
C1225 H1212 0.929 . S
C1225 C1217 1.433 . S
C1225 N1227 1.384 . S
N1226 C1222 1.427 . S
N1226 C1223 1.384 . S
N1227 C1219 1.427 . S
N1227 C1225 1.384 . S
H1228 C1234 0.930 . S
H1229 C1238 0.930 . S
H1230 C1243 0.929 . S
H1231 C1241 0.929 . S
H1232 C1236 0.929 . S
H1233 C1242 0.929 . S
C1234 H1228 0.930 . S
C1234 C1235 1.367 . S
C1234 C1242 1.378 . S
C1235 C1234 1.367 . S
C1235 C1243 1.433 . S
C1236 H1232 0.929 . S
C1236 C1238 1.378 . S
C1236 C1240 1.350 . S
C1237 C1240 1.463 . S
C1237 C1242 1.350 . S
C1237 N1245 1.427 . S
C1238 H1229 0.930 . S
C1238 C1236 1.378 . S
C1238 C1239 1.367 . S
C1239 C1238 1.367 . S
C1239 C1241 1.433 . S
C1240 C1236 1.350 . S
C1240 C1237 1.463 . S
C1240 N1244 1.427 . S
C1241 H1231 0.929 . S
C1241 C1239 1.433 . S
C1241 N1244 1.384 . S
C1242 H1233 0.929 . S
C1242 C1234 1.378 . S
C1242 C1237 1.350 . S
C1243 H1230 0.929 . S
C1243 C1235 1.433 . S
C1243 N1245 1.384 . S
N1244 C1240 1.427 . S
N1244 C1241 1.384 . S
N1245 C1237 1.427 . S
N1245 C1243 1.384 . S
H1246 C1252 0.930 . S
H1247 C1256 0.930 . S
H1248 C1261 0.929 . S
H1249 C1259 0.929 . S
H1250 C1254 0.929 . S
H1251 C1260 0.929 . S
C1252 H1246 0.930 . S
C1252 C1253 1.367 . S
C1252 C1260 1.378 . S
C1253 C1252 1.367 . S
C1253 C1261 1.433 . S
C1254 H1250 0.929 . S
C1254 C1256 1.378 . S
C1254 C1258 1.350 . S
C1255 C1258 1.463 . S
C1255 C1260 1.350 . S
C1255 N1263 1.427 . S
C1256 H1247 0.930 . S
C1256 C1254 1.378 . S
C1256 C1257 1.367 . S
C1257 C1256 1.367 . S
C1257 C1259 1.433 . S
C1258 C1254 1.350 . S
C1258 C1255 1.463 . S
C1258 N1262 1.427 . S
C1259 H1249 0.929 . S
C1259 C1257 1.433 . S
C1259 N1262 1.384 . S
C1260 H1251 0.929 . S
C1260 C1252 1.378 . S
C1260 C1255 1.350 . S
C1261 H1248 0.929 . S
C1261 C1253 1.433 . S
C1261 N1263 1.384 . S
N1262 C1258 1.427 . S
N1262 C1259 1.384 . S
N1263 C1255 1.427 . S
N1263 C1261 1.384 . S
C551 C413 1.510 . S
C555 C9 1.438 . S
C569 C43 1.334 . S
C573 C447 1.435 . S
C587 C77 1.416 . S
C591 C481 1.500 . S
C605 C107 1.448 . S
C609 C519 1.345 . S
C623 C281 1.423 . S
C627 C141 1.502 . S
C641 C311 1.568 . S
C645 C179 1.453 . S
C659 C209 1.495 . S
C663 C349 1.417 . S
C677 C383 1.471 . S
C681 C243 1.583 . S
C695 C33 1.561 . S
C699 C509 1.564 . S
C713 C543 1.678 . S
C717 C67 1.678 . S
C731 C441 1.551 . S
C735 C101 1.551 . S
C749 C475 1.683 . S
C753 C135 1.688 . S
C767 C373 1.856 . S
C771 C169 1.855 . S
C785 C407 1.689 . S
C789 C203 1.689 . S
C803 C305 1.858 . S
C807 C237 1.858 . S
C821 C339 1.691 . S
C825 C271 1.693 . S
C839 C20 1.418 . S
C843 C342 1.434 . S
C857 C376 1.448 . S
C861 C54 1.476 . S
C875 C274 1.482 . S
C879 C88 1.463 . S
C893 C326 1.450 . S
C897 C104 1.433 . S
C911 C138 1.433 . S
C915 C496 1.421 . S
C929 C190 1.422 . S
C933 C512 1.395 . S
C947 C428 1.384 . S
C951 C206 1.408 . S
C965 C240 1.367 . S
C969 C462 1.390 . S
C983 C417 1.334 . S
C987 C5 1.417 . S
C1001 C39 1.492 . S
C1005 C451 1.384 . S
C1019 C73 1.418 . S
C1023 C485 1.339 . S
C1037 C515 1.477 . S
C1041 C111 1.387 . S
C1055 C277 1.415 . S
C1059 C145 1.341 . S
C1073 C175 1.349 . S
C1077 C315 1.269 . S
C1091 C345 1.426 . S
C1095 C213 1.350 . S
C1109 C379 1.348 . S
C1113 C247 1.264 . S
C1127 C172 1.581 . S
C1131 C2 1.576 . S
C1145 C224 1.627 . S
C1149 C36 1.634 . S
C1163 C70 1.224 . S
C1167 C258 1.220 . S
C1181 C156 1.307 . S
C1185 C122 1.307 . S
C1199 C292 1.654 . S
C1203 C444 1.674 . S
C1217 C478 1.513 . S
C1221 C308 1.514 . S
C1235 C530 1.373 . S
C1239 C360 1.369 . S
C1253 C394 1.282 . S
C1257 C410 1.305 . S
