# Generated by pormake.
# Topology snp, (6)-cn, num edge types: 1
# Building blocks:
#     Node 0, Type 0, BuildingBlock: KUMJIN_clean_sbu_1, # of connection points: 6
#     Node 1, Type 0, BuildingBlock: KUMJIN_clean_sbu_1, # of connection points: 6
#     Node 2, Type 0, BuildingBlock: KUMJIN_clean_sbu_1, # of connection points: 6
#     Node 3, Type 0, BuildingBlock: KUMJIN_clean_sbu_1, # of connection points: 6
#     Edge 4, Type (0, 0), BuildingBlock: FUNLAD_clean_linker_0, # of connection points: 2
#     Edge 5, Type (0, 0), BuildingBlock: FUNLAD_clean_linker_0, # of connection points: 2
#     Edge 6, Type (0, 0), BuildingBlock: FUNLAD_clean_linker_0, # of connection points: 2
#     Edge 7, Type (0, 0), BuildingBlock: FUNLAD_clean_linker_0, # of connection points: 2
#     Edge 8, Type (0, 0), BuildingBlock: FUNLAD_clean_linker_0, # of connection points: 2
#     Edge 9, Type (0, 0), BuildingBlock: FUNLAD_clean_linker_0, # of connection points: 2
#     Edge 10, Type (0, 0), BuildingBlock: FUNLAD_clean_linker_0, # of connection points: 2
#     Edge 11, Type (0, 0), BuildingBlock: FUNLAD_clean_linker_0, # of connection points: 2
#     Edge 12, Type (0, 0), BuildingBlock: FUNLAD_clean_linker_0, # of connection points: 2
#     Edge 13, Type (0, 0), BuildingBlock: FUNLAD_clean_linker_0, # of connection points: 2
#     Edge 14, Type (0, 0), BuildingBlock: FUNLAD_clean_linker_0, # of connection points: 2
#     Edge 15, Type (0, 0), BuildingBlock: FUNLAD_clean_linker_0, # of connection points: 2
# Relax obj value: 0.193
# Max RMSD: 0.238
# Mean RMSD: 0.238
data_MOF--net-snp--node1-KUMJIN_clean_sbu_1--edge1-FUNLAD_clean_linker_0
_symmetry_space_group_name_H-M    P1
_symmetry_Int_Tables_number       1
_symmetry_cell_setting            triclinic
loop_
_symmetry_equiv_pos_as_xyz
'x, y, z'
_cell_length_a     28.702996
_cell_length_b     28.640873
_cell_length_c     37.795192
_cell_angle_alpha  110.75105
_cell_angle_beta   69.222175
_cell_angle_gamma 155.75562
loop_
_atom_site_label
_atom_site_type_symbol
_atom_site_fract_x
_atom_site_fract_y
_atom_site_fract_z
_atom_type_partial_charge
Eu0 Eu 0.90993 0.71185 0.09035 0.0
C1 C 0.4226 0.18118 0.09616 0.0
N2 N 0.46632 0.26566 0.11722 0.0
C3 C 0.32297 0.17847 0.09814 0.0
C4 C 0.33182 0.09656 0.07351 0.0
C5 C 0.41107 0.25885 0.12074 0.0
C6 C 0.28451 0.09829 0.07397 0.0
C7 C 0.41312 0.08232 0.07993 0.0
C8 C 0.46351 0.17426 0.09887 0.0
C9 C 0.32759 0.0024 0.05585 0.0
C10 C 0.28776 0.01002 0.05248 0.0
Eu11 Eu 0.62895 0.40589 0.14883 0.0
N12 N 0.55226 0.25702 0.12017 0.0
C13 C 0.44772 0.0714 0.08672 0.0
C14 C 0.58248 0.244 0.1284 0.0
C15 C 0.52973 0.15036 0.11221 0.0
H16 H 0.43001 0.31135 0.14173 0.0
H17 H 0.55112 0.13828 0.11981 0.0
H18 H 0.10398 0.80614 0.10489 0.0
H19 H 0.91502 0.91946 0.14006 0.0
H20 H 0.64507 0.3041 0.14826 0.0
H21 H 0.40854 2e-05 0.07363 0.0
H22 H 0.84826 0.77465 0.10408 0.0
H23 H 0.28166 0.17558 0.10052 0.0
H24 H 0.2889 0.93206 0.04068 0.0
H25 H 0.21882 0.94466 0.03493 0.0
H26 H 0.2417 0.93609 0.15034 0.0
H27 H 0.21268 0.03325 0.05807 0.0
H28 H 0.07386 0.07348 0.18118 0.0
N29 N 0.07248 0.85653 0.1238 0.0
C30 C 0.11118 0.93728 0.14547 0.0
C31 C 0.2045 0.93627 0.14961 0.0
C32 C 0.19469 0.01717 0.17114 0.0
C33 C 0.12296 0.85981 0.12426 0.0
C34 C 0.23884 0.01364 0.17365 0.0
N35 N -0.02635 0.8512 0.12213 0.0
C36 C 0.921 0.84461 0.12048 0.0
C37 C 0.10068 0.01845 0.16592 0.0
C38 C 0.06391 0.93755 0.14334 0.0
C39 C 0.04803 0.01306 0.16402 0.0
C40 C 0.95823 0.92615 0.14101 0.0
H41 H 0.30054 0.07108 0.19366 0.0
H42 H 0.29274 0.15734 0.21424 0.0
H43 H 0.21305 0.16053 0.20882 0.0
O44 O 0.89673 0.73896 0.04988 0.0
O45 O 0.87115 0.72197 0.15465 0.0
O46 O 0.73788 0.56531 0.18748 0.0
O47 O 0.01717 0.78763 0.03598 0.0
O48 O 0.72141 0.55609 0.0973 0.0
O49 O 0.61594 0.47474 0.15253 0.0
O50 O 0.64109 0.38666 0.19433 0.0
O51 O 0.67264 0.39542 0.08626 0.0
O52 O 0.74073 0.52268 0.0729 0.0
O53 O 0.4891 0.28822 0.19148 0.0
O54 O 0.82091 0.57015 0.14202 0.0
O55 O 0.92503 0.64326 0.08609 0.0
C56 C 0.81734 0.6703 0.1862 0.0
C57 C 0.03904 0.86232 0.99818 0.0
C58 C 0.0483 0.91745 0.95349 0.0
C59 C 0.16298 0.00656 0.9436 0.0
C60 C 0.15209 0.94914 0.9854 0.0
C61 C 0.21395 0.022 0.9593 0.0
C62 C -0.01316 0.84656 0.98179 0.0
C63 C 0.66592 0.53734 0.12733 0.0
C64 C 0.97269 0.78062 0.02464 0.0
C65 C 0.23016 0.09673 0.19401 0.0
C66 C 0.18462 0.09851 0.19099 0.0
C67 C 0.71766 0.45414 0.06083 0.0
C68 C 0.53359 0.33376 0.2521 0.0
C69 C 0.50737 0.30714 0.31594 0.0
C70 C 0.49807 0.35109 0.33072 0.0
C71 C 0.52603 0.37928 0.26742 0.0
C72 C 0.52426 0.29781 0.27643 0.0
C73 C 0.50672 0.38621 0.30652 0.0
C74 C 0.87718 0.58649 0.11395 0.0
C75 C 0.5417 0.31465 0.21084 0.0
H76 H 0.21355 0.06453 0.92328 0.0
H77 H 0.19345 0.96075 0.99513 0.0
H78 H 0.30185 0.08994 0.95065 0.0
H79 H 0.89822 0.77719 0.98983 0.0
H80 H 0.48056 0.35493 0.36093 0.0
H81 H 0.53172 0.40634 0.24912 0.0
H82 H 0.52868 0.26136 0.26463 0.0
H83 H 0.49534 0.41596 0.31802 0.0
Eu84 Eu 0.68149 0.87602 0.60762 0.0
C85 C 0.17691 0.45429 0.59277 0.0
N86 N 0.2264 0.45337 0.58167 0.0
C87 C 0.07656 0.29065 0.61669 0.0
C88 C 0.08088 0.38005 0.61928 0.0
C89 C 0.17 0.36443 0.58957 0.0
C90 C 0.03461 0.30164 0.63282 0.0
C91 C 0.15027 0.50504 0.57879 0.0
C92 C 0.21281 0.51795 0.57346 0.0
C93 C 0.06175 0.44038 0.60789 0.0
C94 C 0.02843 0.37951 0.62867 0.0
Eu95 Eu 0.39945 0.59848 0.54218 0.0
N96 N 0.29988 0.58109 0.54608 0.0
C97 C 0.17447 0.55204 0.55333 0.0
C98 C 0.32246 0.62512 0.52064 0.0
C99 C 0.25949 0.61044 0.52368 0.0
H100 H 0.20328 0.35686 0.57728 0.0
H101 H 0.27778 0.64575 0.50354 0.0
H102 H 0.72705 0.0414 0.61988 0.0
H103 H -0.01342 5e-05 0.54336 0.0
H104 H 0.38959 0.67201 0.49808 0.0
H105 H 0.12617 0.54119 0.5557 0.0
H106 H 0.82487 0.89996 0.58766 0.0
H107 H 0.0368 0.2252 0.62487 0.0
H108 H 0.01488 0.43224 0.61321 0.0
H109 H 0.95585 0.32472 0.64953 0.0
H110 H 0.82366 0.17473 0.58201 0.0
H111 H 0.96096 0.24314 0.65328 0.0
H112 H 0.0905 0.13213 0.5006 0.0
N113 N 0.79982 0.0368 0.58485 0.0
C114 C 0.88212 0.08781 0.55723 0.0
C115 C 0.84002 0.15 0.57442 0.0
C116 C 0.94223 0.16722 0.53553 0.0
C117 C 0.78436 0.07324 0.59558 0.0
C118 C 0.91801 0.19584 0.54382 0.0
N119 N 0.84729 -0.01553 0.5725 0.0
C120 C 0.87578 0.96361 0.57084 0.0
C121 C -0.00368 0.11667 0.52448 0.0
C122 C 0.90932 0.06362 0.55176 0.0
C123 C 0.02401 0.09303 0.52134 0.0
C124 C 0.96546 0.01843 0.54539 0.0
H125 H 0.96198 0.25627 0.52776 0.0
H126 H 0.06876 0.27348 0.48861 0.0
H127 H 0.11269 0.22498 0.47824 0.0
O128 O 0.69508 0.85467 0.65186 0.0
O129 O 0.69284 0.83335 0.5452 0.0
O130 O 0.57826 0.76549 0.51489 0.0
O131 O 0.77236 -0.00452 0.65818 0.0
O132 O 0.57704 0.71157 0.60113 0.0
O133 O 0.49601 0.61923 0.54419 0.0
O134 O 0.3196 0.51483 0.4893 0.0
O135 O 0.37617 0.58022 0.60356 0.0
O136 O 0.51053 0.75676 0.63173 0.0
O137 O 0.3439 0.4747 0.50721 0.0
O138 O 0.52224 0.7737 0.54728 0.0
O139 O 0.57169 0.84386 0.60874 0.0
C140 C 0.66736 0.81856 0.51442 0.0
C141 C 0.83723 0.01166 0.69839 0.0
C142 C 0.89027 0.02641 0.74768 0.0
C143 C -0.01575 0.14367 0.75342 0.0
C144 C 0.93197 0.12885 0.70604 0.0
C145 C 0.00326 0.19315 0.73341 0.0
C146 C 0.81659 0.96017 0.71947 0.0
C147 C 0.51598 0.62693 0.57433 0.0
C148 C 0.75277 0.94359 0.67336 0.0
C149 C 0.02438 0.21529 0.5065 0.0
C150 C 0.05064 0.18919 0.50086 0.0
C151 C 0.42279 0.65003 0.63446 0.0
C152 C 0.31578 0.42928 0.44177 0.0
C153 C 0.28357 0.3839 0.37547 0.0
C154 C 0.30129 0.34863 0.36736 0.0
C155 C 0.32779 0.3885 0.43332 0.0
C156 C 0.29271 0.42571 0.41271 0.0
C157 C 0.32298 0.35077 0.39621 0.0
C158 C 0.53529 0.82131 0.57994 0.0
C159 C 0.30624 0.4552 0.4816 0.0
H160 H 0.04414 0.19841 0.77373 0.0
H161 H 0.94922 0.17103 0.69187 0.0
H162 H 0.07287 0.28216 0.73977 0.0
H163 H 0.74195 0.8692 0.71498 0.0
H164 H 0.29731 0.31836 0.33881 0.0
H165 H 0.33923 0.3841 0.45551 0.0
H166 H 0.2751 0.44913 0.41962 0.0
H167 H 0.33447 0.32155 0.38989 0.0
Eu168 Eu 0.81143 0.04859 0.04627 0.0
C169 C 0.36708 0.56678 0.07608 0.0
N170 N 0.41242 0.64913 0.10108 0.0
C171 C 0.26674 0.5681 0.09223 0.0
C172 C 0.27125 0.48345 0.05727 0.0
C173 C 0.3584 0.64533 0.11147 0.0
C174 C 0.22349 0.48733 0.06468 0.0
C175 C 0.37409 0.48341 0.04322 0.0
C176 C 0.41668 0.56575 0.06935 0.0
C177 C 0.27901 0.40054 0.02426 0.0
C178 C 0.22748 0.40038 0.03138 0.0
Eu179 Eu 0.59123 0.79949 0.1215 0.0
N180 N 0.51015 0.64883 0.08737 0.0
C181 C 0.43027 0.48888 0.03631 0.0
C182 C 0.56009 0.64955 0.08321 0.0
C183 C 0.52364 0.5723 0.05647 0.0
H184 H 0.38731 0.70371 0.13382 0.0
H185 H 0.56845 0.57815 0.05107 0.0
H186 H -0.01582 0.28005 0.11792 0.0
H187 H 0.60202 0.91272 0.94457 0.0
H188 H 0.63377 0.71569 0.09829 0.0
H189 H 0.40213 0.42906 1.01563 0.0
H190 H 0.64548 0.89923 0.9812 0.0
H191 H 0.23079 0.57227 0.09848 0.0
H192 H 0.245 0.3365 1.00417 0.0
H193 H 0.15395 0.336 1.01687 0.0
H194 H 0.05137 0.42508 0.14034 0.0
H195 H 0.1527 0.42774 0.04962 0.0
H196 H 0.69367 0.07804 0.9582 0.0
N197 N 0.89296 0.20469 0.07289 0.0
C198 C 0.8758 0.22037 0.05361 0.0
C199 C 0.00239 0.3683 0.11574 0.0
C200 C 0.92664 0.31402 0.06344 0.0
C201 C 0.95901 0.28067 0.10319 0.0
C202 C -0.01119 0.38702 0.09528 0.0
N203 N 0.75388 0.05013 1.01633 0.0
C204 C 0.68261 0.96921 0.98798 0.0
C205 C 0.78576 0.1548 1.00345 0.0
C206 C 0.80533 0.14147 0.02425 0.0
C207 C 0.71124 0.0711 0.97466 0.0
C208 C 0.65902 -0.02248 0.967 0.0
H209 H 0.02637 0.45782 0.10436 0.0
H210 H 0.951 0.40251 0.04883 0.0
H211 H 0.82714 0.26262 0.9963 0.0
O212 O 0.94168 0.1678 1.00182 0.0
O213 O 0.87474 0.11388 0.10352 0.0
O214 O 0.70391 0.96938 0.13825 0.0
O215 O 0.85397 0.01968 0.99687 0.0
O216 O 0.62444 0.89718 0.06248 0.0
O217 O 0.58884 0.88063 0.12512 0.0
O218 O 0.6438 0.82054 0.16616 0.0
O219 O 0.64318 0.7969 0.05967 0.0
O220 O 0.6442 0.85704 0.03287 0.0
O221 O 0.48105 0.70803 0.17325 0.0
O222 O 0.76142 0.91405 0.10517 0.0
O223 O 0.88681 0.05863 0.0665 0.0
C224 C 0.81495 0.0682 0.13638 0.0
C225 C 0.02986 0.17258 0.9587 0.0
C226 C 0.18009 0.30062 0.90815 0.0
C227 C 0.20879 0.27933 0.90843 0.0
C228 C 0.05911 0.15179 0.95853 0.0
C229 C 0.14875 0.20563 0.93363 0.0
C230 C 0.09209 0.24858 0.93412 0.0
C231 C 0.59319 0.90092 0.09615 0.0
C232 C 0.9293 0.10987 0.98126 0.0
C233 C 0.91124 0.33025 0.0419 0.0
C234 C 0.84049 0.25051 1.01208 0.0
C235 C 0.63677 0.80323 0.02947 0.0
C236 C 0.49594 0.66025 0.20287 0.0
C237 C 0.49103 0.60693 0.246 0.0
C238 C 0.38621 0.49243 0.23263 0.0
C239 C 0.39145 0.54434 0.19048 0.0
C240 C 0.54536 0.69137 0.23129 0.0
C241 C 0.3371 0.46178 0.20549 0.0
C242 C 0.85932 0.00326 0.0855 0.0
C243 C 0.54838 0.74559 0.1872 0.0
H244 H 0.27526 0.31694 0.88859 0.0
H245 H 0.01262 0.09391 0.97741 0.0
H246 H 0.17058 0.18877 0.93344 0.0
H247 H 0.06967 0.26513 0.93481 0.0
H248 H 0.34177 0.42568 0.24318 0.0
H249 H 0.35088 0.51688 0.16911 0.0
H250 H 0.62539 0.78009 0.24154 0.0
H251 H 0.25638 0.37287 0.19572 0.0
Eu252 Eu 0.04908 0.83835 0.67554 0.0
C253 C 0.57337 0.37561 0.66122 0.0
N254 N 0.66211 0.43269 0.63599 0.0
C255 C 0.62779 0.32742 0.65079 0.0
C256 C 0.51255 0.29659 0.68361 0.0
C257 C 0.68031 0.39925 0.62764 0.0
C258 C 0.54499 0.27754 0.6795 0.0
C259 C 0.44559 0.3316 0.68803 0.0
C260 C 0.54055 0.39338 0.66384 0.0
C261 C 0.38563 0.25365 0.71043 0.0
C262 C 0.41968 0.237 0.70855 0.0
Eu263 Eu 0.77636 0.5914 0.61319 0.0
N264 N 0.60442 0.47459 0.64372 0.0
C265 C 0.41544 0.35209 0.68958 0.0
C266 C 0.57606 0.49527 0.64483 0.0
C267 C 0.4807 0.4339 0.6677 0.0
H268 H 0.73452 0.42648 0.60322 0.0
H269 H 0.45969 0.45209 0.66929 0.0
H270 H 0.23163 0.07062 0.63783 0.0
H271 H 0.14419 0.76092 0.71007 0.0
H272 H 0.6293 0.5616 0.6289 0.0
H273 H 0.34328 0.30666 0.708 0.0
H274 H 0.0328 0.73459 0.71373 0.0
H275 H 0.64792 0.30691 0.64546 0.0
H276 H 0.31286 0.20599 0.72912 0.0
H277 H 0.37187 0.17547 0.72554 0.0
H278 H 0.40387 0.20862 0.59291 0.0
H279 H 0.50147 0.21867 0.69651 0.0
H280 H 0.32131 0.89772 0.66741 0.0
N281 N 0.23258 0.00023 0.6437 0.0
C282 C 0.29027 0.00895 0.63597 0.0
C283 C 0.37248 0.15262 0.60472 0.0
C284 C 0.38842 0.08591 0.61044 0.0
C285 C 0.2759 0.07547 0.63052 0.0
C286 C 0.42745 0.15603 0.59394 0.0
N287 N 0.15118 0.86141 0.67601 0.0
C288 C 0.11229 0.79715 0.69616 0.0
C289 C 0.31254 0.95281 0.64873 0.0
C290 C 0.25018 0.9399 0.6536 0.0
C291 C 0.27478 0.88898 0.66986 0.0
C292 C 0.17477 0.81162 0.69399 0.0
H293 H 0.50178 0.21538 0.57377 0.0
H294 H 0.52029 0.14956 0.58295 0.0
H295 H 0.45696 0.0369 0.61784 0.0
O296 O 0.11474 0.90549 0.72955 0.0
O297 O 0.09097 0.85254 0.6109 0.0
O298 O 0.95263 0.76892 0.59459 0.0
O299 O 0.03517 0.89711 0.72303 0.0
O300 O 0.91943 0.66083 0.65836 0.0
O301 O 0.88347 0.61553 0.59766 0.0
O302 O 0.78482 0.63314 0.56933 0.0
O303 O 0.75921 0.62002 0.67689 0.0
O304 O 0.86382 0.66077 0.69269 0.0
O305 O 0.66538 0.46689 0.56564 0.0
O306 O 0.83857 0.72506 0.64818 0.0
O307 O 0.02632 0.88748 0.66223 0.0
C308 C 0.04527 0.82557 0.58575 0.0
C309 C 0.15889 0.026 0.77328 0.0
C310 C 0.29629 0.16219 0.82071 0.0
C311 C 0.28453 0.20357 0.83097 0.0
C312 C 0.14693 0.06724 0.78457 0.0
C313 C 0.21027 0.15621 0.81296 0.0
C314 C 0.23299 0.07335 0.79179 0.0
C315 C 0.92674 0.63863 0.62257 0.0
C316 C 0.08489 0.92528 0.74572 0.0
C317 C 0.44533 0.09184 0.60284 0.0
C318 C 0.40939 0.02783 0.62275 0.0
C319 C 0.793 0.63488 0.70302 0.0
C320 C 0.62298 0.48833 0.53621 0.0
C321 C 0.58139 0.49813 0.49488 0.0
C322 C 0.46759 0.39934 0.51023 0.0
C323 C 0.50863 0.39068 0.55078 0.0
C324 C 0.65911 0.54172 0.50778 0.0
C325 C 0.43195 0.34668 0.53779 0.0
C326 C 0.9372 0.83319 0.66103 0.0
C327 C 0.7042 0.53429 0.5505 0.0
H328 H 0.33031 0.27041 0.85359 0.0
H329 H 0.08784 0.03011 0.77178 0.0
H330 H 0.20023 0.1872 0.82149 0.0
H331 H 0.24139 0.04083 0.78362 0.0
H332 H 0.40501 0.36134 0.50035 0.0
H333 H 0.47809 0.3478 0.57224 0.0
H334 H 0.74708 0.61712 0.49616 0.0
H335 H 0.34377 0.27064 0.54911 0.0
C336 C 0.05132 0.13819 0.06751 0.0
C337 C 0.9538 0.06229 0.09291 0.0
C338 C 0.14794 0.208 0.07745 0.0
C339 C 0.14897 0.2047 0.11324 0.0
C340 C 0.05117 0.12718 0.1383 0.0
C341 C 0.95339 0.05523 0.12806 0.0
C342 C 0.25142 0.27951 0.12353 0.0
C343 C 0.35205 0.39167 0.12013 0.0
C344 C 0.45499 0.45647 0.11799 0.0
C345 C 0.47372 0.42851 0.0874 0.0
C346 C 0.55288 0.46618 0.08897 0.0
C347 C 0.60942 0.52722 0.12198 0.0
H348 H 0.51458 0.55877 0.17097 0.0
C349 C 0.59881 0.56425 0.15104 0.0
C350 C 0.52374 0.53154 0.14837 0.0
H351 H 0.64462 0.61396 0.1762 0.0
H352 H 0.0536 0.14519 0.04039 0.0
H353 H 0.22202 0.26481 0.0573 0.0
H354 H 0.05142 0.12478 0.16615 0.0
H355 H 0.87996 -0.00099 0.14859 0.0
H356 H 0.24577 0.24076 0.13066 0.0
H357 H 0.35759 0.43166 0.11504 0.0
H358 H 0.42214 0.37188 0.06342 0.0
H359 H 0.56116 0.43777 0.06608 0.0
C360 C 0.90311 0.88053 0.649 0.0
C361 C 0.95624 0.90366 0.66914 0.0
C362 C 0.94581 0.96472 0.64862 0.0
C363 C 0.04007 0.07088 0.66883 0.0
C364 C 0.08087 0.08682 0.69351 0.0
C365 C 0.04083 0.00446 0.69305 0.0
C366 C 0.11684 0.1732 0.65638 0.0
C367 C 0.16313 0.19818 0.62037 0.0
C368 C 0.26475 0.31216 0.60751 0.0
C369 C 0.2783 0.32135 0.56972 0.0
C370 C 0.36703 0.4265 0.55761 0.0
C371 C 0.44518 0.52468 0.58301 0.0
H372 H 0.3447 0.40748 0.66061 0.0
C373 C 0.44065 0.51755 0.61938 0.0
C374 C 0.34991 0.41157 0.63175 0.0
H375 H 0.50138 0.592 0.63943 0.0
H376 H 0.8369 0.80286 0.63064 0.0
H377 H 0.91327 0.95157 0.62969 0.0
H378 H 0.15291 0.16812 0.70954 0.0
H379 H 0.08214 0.02359 0.70916 0.0
H380 H 0.15218 0.23683 0.67781 0.0
H381 H 0.12766 0.13342 0.59959 0.0
H382 H 0.21763 0.24652 0.54993 0.0
H383 H 0.37017 0.4288 0.52889 0.0
C384 C 0.67087 0.05684 0.13112 0.0
C385 C 0.60636 0.96702 0.10248 0.0
C386 C 0.70114 0.13244 0.13189 0.0
C387 C 0.66642 0.11908 0.10416 0.0
C388 C 0.59362 0.02302 0.07774 0.0
C389 C 0.56482 0.94876 0.07671 0.0
C390 C 0.70719 0.20418 0.09996 0.0
C391 C 0.78506 0.30577 0.1206 0.0
C392 C 0.82166 0.38721 0.11592 0.0
C393 C 0.85767 0.45873 0.14759 0.0
C394 C 0.88026 0.52674 0.14608 0.0
C395 C 0.8715 0.52856 0.11247 0.0
H396 H 0.79613 0.34355 0.05601 0.0
C397 C 0.84534 0.46501 0.07969 0.0
C398 C 0.81955 0.39412 0.08145 0.0
H399 H 0.83864 0.46515 0.05329 0.0
H400 H 0.70389 0.07305 0.15154 0.0
H401 H 0.75503 0.20303 0.15341 0.0
H402 H 0.5635 0.00844 0.05634 0.0
H403 H 0.51392 0.87961 0.05457 0.0
H404 H 0.67195 0.18201 0.07783 0.0
H405 H 0.81973 0.32883 0.14338 0.0
H406 H 0.86223 0.45731 0.17434 0.0
H407 H 0.90112 0.57543 0.17173 0.0
C408 C 0.41094 0.78345 0.61717 0.0
C409 C 0.48977 0.83089 0.5862 0.0
C410 C 0.35205 0.77343 0.61922 0.0
C411 C 0.37174 0.81201 0.5905 0.0
C412 C 0.45797 0.86841 0.56139 0.0
C413 C 0.51506 0.8763 0.55895 0.0
C414 C 0.30265 0.79251 0.58933 0.0
C415 C 0.19261 0.7021 0.6037 0.0
C416 C 0.11953 0.67842 0.60349 0.0
C417 C 0.01908 0.59931 0.62793 0.0
C418 C 0.95347 0.58216 0.63234 0.0
C419 C -0.01594 0.64091 0.61158 0.0
H420 H 0.22198 0.79281 0.56124 0.0
C421 C 0.07954 0.71387 0.58497 0.0
C422 C 0.14714 0.73314 0.58109 0.0
H423 H 0.10568 0.76095 0.56874 0.0
H424 H 0.38984 0.74796 0.63866 0.0
H425 H 0.28938 0.73306 0.64287 0.0
H426 H 0.47686 0.90088 0.53919 0.0
H427 H 0.57604 0.91411 0.53492 0.0
H428 H 0.34302 0.85226 0.57473 0.0
H429 H 0.1533 0.6421 0.61749 0.0
H430 H -0.00586 0.55464 0.64534 0.0
H431 H 0.88088 0.52599 0.65324 0.0
C432 C 0.7305 0.86246 0.44572 0.0
C433 C 0.73019 0.84665 0.47713 0.0
C434 C 0.78257 0.8801 0.41002 0.0
C435 C 0.83321 0.87933 0.40454 0.0
C436 C 0.83859 0.87051 0.43663 0.0
C437 C 0.78761 0.85397 0.47222 0.0
C438 C 0.86837 0.87287 0.36601 0.0
C439 C 0.85195 0.86239 0.33222 0.0
C440 C 0.85699 0.82406 0.2948 0.0
C441 C 0.86149 0.83846 0.26095 0.0
C442 C 0.85242 0.79194 0.2257 0.0
C443 C 0.83745 0.72855 0.22316 0.0
H444 H 0.83691 0.74561 0.31722 0.0
C445 C 0.83343 0.7143 0.25686 0.0
C446 C 0.84405 0.7621 0.29212 0.0
H447 H 0.82039 0.66458 0.25603 0.0
H448 H 0.6887 0.85922 0.44855 0.0
H449 H 0.77855 0.8897 0.38674 0.0
H450 H 0.87665 0.86959 0.43382 0.0
H451 H 0.7878 0.84041 0.49544 0.0
H452 H 0.89931 0.86537 0.36582 0.0
H453 H 0.82667 0.87535 0.33164 0.0
H454 H 0.86893 0.88336 0.26183 0.0
H455 H 0.85152 0.8009 0.20063 0.0
C456 C 0.45767 0.69159 0.70197 0.0
C457 C 0.3969 0.61513 0.66956 0.0
C458 C 0.43723 0.65784 0.73346 0.0
C459 C 0.355 0.54682 0.73282 0.0
C460 C 0.29443 0.47163 0.70075 0.0
C461 C 0.31475 0.50489 0.66977 0.0
C462 C 0.32164 0.50028 0.76521 0.0
C463 C 0.38422 0.56071 0.79421 0.0
C464 C 0.33543 0.49955 0.82509 0.0
C465 C 0.40205 0.53329 0.84079 0.0
C466 C 0.35217 0.4687 0.86764 0.0
C467 C 0.23539 0.37051 0.87956 0.0
H468 H 0.16598 0.3757 0.82681 0.0
C469 C 0.16993 0.33842 0.86397 0.0
C470 C 0.21946 0.40285 0.83768 0.0
H471 H 0.07934 0.2621 0.8716 0.0
H472 H 0.52148 0.77739 0.70288 0.0
H473 H 0.48416 0.71759 0.75816 0.0
H474 H 0.23172 0.38637 0.69922 0.0
H475 H 0.2688 0.44452 0.64538 0.0
H476 H 0.23981 0.40783 0.76428 0.0
H477 H 0.47132 0.65269 0.79447 0.0
H478 H 0.49168 0.60759 0.83158 0.0
H479 H 0.40475 0.49554 0.87911 0.0
C480 C 0.57928 0.56879 0.47135 0.0
C481 C 0.61256 0.54944 0.46504 0.0
C482 C 0.58297 0.59111 0.4416 0.0
C483 C 0.61969 0.59432 0.40405 0.0
C484 C 0.66219 0.58463 0.39842 0.0
C485 C 0.65943 0.56339 0.42845 0.0
C486 C 0.61341 0.60508 0.37009 0.0
C487 C 0.57999 0.62073 0.37122 0.0
C488 C 0.57307 0.63014 0.33702 0.0
C489 C 0.55984 0.58394 0.30016 0.0
C490 C 0.54132 0.58391 0.27017 0.0
C491 C 0.53703 0.63146 0.27563 0.0
H492 H 0.58072 0.71604 0.37 0.0
C493 C 0.5565 0.68315 0.31184 0.0
C494 C 0.57242 0.68087 0.34208 0.0
H495 H 0.55145 0.71832 0.31752 0.0
H496 H 0.54804 0.56443 0.49946 0.0
H497 H 0.55479 0.60363 0.44843 0.0
H498 H 0.69493 0.5903 0.37032 0.0
H499 H 0.68942 0.55298 0.42276 0.0
H500 H 0.64026 0.60203 0.34262 0.0
H501 H 0.55836 0.6298 0.39861 0.0
H502 H 0.55838 0.54291 0.2946 0.0
H503 H 0.52571 0.54227 0.24281 0.0
C504 C 0.33665 0.13515 0.84999 0.0
C505 C 0.37097 0.20834 0.84103 0.0
C506 C 0.40374 0.17702 0.87071 0.0
C507 C 0.50696 0.2935 0.88319 0.0
C508 C 0.54251 0.36699 0.87334 0.0
C509 C 0.47569 0.32517 0.85245 0.0
C510 C 0.57577 0.3411 0.90894 0.0
C511 C 0.55769 0.2841 0.9189 0.0
C512 C 0.61546 0.32979 0.95033 0.0
C513 C 0.72402 0.44767 0.95924 0.0
C514 C 0.76374 0.48812 0.99399 0.0
C515 C 0.69682 0.41219 1.02029 0.0
H516 H 0.47372 0.16272 0.96746 0.0
C517 C 0.59725 0.29526 1.00882 0.0
C518 C 0.55612 0.25407 0.97417 0.0
H519 H 0.54632 0.23497 0.02765 0.0
H520 H 0.25558 0.04431 0.84226 0.0
H521 H 0.37135 0.11637 0.87789 0.0
H522 H 0.62164 0.45719 0.88241 0.0
H523 H 0.50592 0.38443 0.84544 0.0
H524 H 0.64052 0.42609 0.92231 0.0
H525 H 0.49125 0.19778 0.90703 0.0
H526 H 0.77564 0.50898 0.94051 0.0
H527 H 0.84315 0.5789 1.00147 0.0
C528 C 0.65352 0.72848 0.98413 0.0
C529 C 0.62965 0.75746 0.99108 0.0
C530 C 0.65043 0.68951 0.94746 0.0
C531 C 0.62786 0.68303 0.91645 0.0
C532 C 0.60179 0.70987 0.92385 0.0
C533 C 0.60067 0.74435 0.96054 0.0
C534 C 0.63488 0.65427 0.87583 0.0
C535 C 0.66852 0.63618 0.86309 0.0
C536 C 0.6909 0.62529 0.8217 0.0
C537 C 0.76359 0.64913 0.81115 0.0
C538 C 0.79545 0.65052 0.77279 0.0
C539 C 0.75457 0.62702 0.74382 0.0
H540 H 0.58598 0.57286 0.79893 0.0
C541 C 0.67741 0.59758 0.75425 0.0
C542 C 0.64558 0.59619 0.79255 0.0
H543 H 0.64265 0.57725 0.7328 0.0
H544 H 0.67767 0.73879 1.00677 0.0
H545 H 0.66977 0.66875 0.94365 0.0
H546 H 0.58324 0.70547 0.90098 0.0
H547 H 0.57732 0.76114 0.96479 0.0
H548 H 0.61892 0.65658 0.85509 0.0
H549 H 0.69012 0.63899 0.88327 0.0
H550 H 0.79875 0.67015 0.83272 0.0
H551 H 0.85386 0.67215 0.7659 0.0
C552 C 0.40987 0.15258 0.33587 0.0
C553 C 0.49123 0.26414 0.34195 0.0
C554 C 0.38036 0.10544 0.36391 0.0
C555 C 0.43136 0.16906 0.39859 0.0
C556 C 0.51991 0.2838 0.40308 0.0
C557 C 0.5493 0.33072 0.375 0.0
C558 C 0.3852 0.11481 0.43195 0.0
C559 C 0.27242 0.00849 0.43885 0.0
C560 C 0.21819 0.96329 0.47652 0.0
C561 C 0.11807 0.90108 0.48938 0.0
C562 C 0.06411 0.85858 0.5249 0.0
C563 C 0.10704 0.8744 0.54834 0.0
H564 H 0.33882 0.02636 0.48995 0.0
C565 C 0.20589 0.93405 0.53504 0.0
C566 C 0.26241 -0.01997 0.49959 0.0
H567 H 0.23891 0.9444 0.5518 0.0
H568 H 0.36452 0.09971 0.31043 0.0
H569 H 0.31423 0.01773 0.35905 0.0
H570 H 0.56161 0.33519 0.42928 0.0
H571 H 0.61477 0.41792 0.3795 0.0
H572 H 0.44113 0.16857 0.45411 0.0
H573 H 0.21563 0.95946 0.41832 0.0
H574 H 0.08242 0.88715 0.47213 0.0
H575 H -0.01162 0.8133 0.53382 0.0
C576 C 0.90304 0.02369 0.81013 0.0
C577 C 0.87429 -0.0206 0.77197 0.0
C578 C 0.91004 -0.00158 0.83121 0.0
C579 C 0.88766 0.92676 0.81512 0.0
C580 C 0.85321 0.87775 0.7777 0.0
C581 C 0.84475 0.902 0.75675 0.0
C582 C 0.90608 0.90688 0.83509 0.0
C583 C 0.91765 0.92957 0.87293 0.0
C584 C 0.94035 0.91349 0.89248 0.0
C585 C 0.9218 0.91186 0.9324 0.0
C586 C 0.94898 0.90518 0.95224 0.0
C587 C -0.00209 0.90198 0.93278 0.0
H588 H 0.0026 0.90781 0.84247 0.0
C589 C 0.01416 0.90095 0.89275 0.0
C590 C -0.0145 0.90601 0.87295 0.0
H591 H 0.05244 0.89944 0.87664 0.0
H592 H 0.92369 0.08136 0.82362 0.0
H593 H 0.93755 0.03931 0.85959 0.0
H594 H 0.83577 0.82268 0.76406 0.0
H595 H 0.82096 0.86479 0.72789 0.0
H596 H 0.90884 0.87021 0.81732 0.0
H597 H 0.90718 0.95893 0.89121 0.0
H598 H 0.8872 0.9173 0.94852 0.0
H599 H 0.9367 0.90804 0.98295 0.0
C600 C -0.0121 0.21317 0.16684 0.0
C601 C 0.87015 0.11521 0.16914 0.0
C602 C 0.0362 0.24728 0.19612 0.0
C603 C 0.96713 0.18325 0.22793 0.0
C604 C 0.85066 0.08843 0.23082 0.0
C605 C 0.80296 0.05591 0.20206 0.0
C606 C 0.01137 0.20625 0.25673 0.0
C607 C 0.11797 0.31131 0.26726 0.0
C608 C 0.16181 0.33026 0.29422 0.0
C609 C 0.24314 0.43047 0.31846 0.0
C610 C 0.28419 0.449 0.34448 0.0
C611 C 0.24668 0.36883 0.34609 0.0
H612 H 0.0666 0.17498 0.27582 0.0
C613 C 0.1681 0.27033 0.32081 0.0
C614 C 0.12624 0.25129 0.29511 0.0
H615 H 0.13627 0.20608 0.3215 0.0
H616 H 0.04196 0.26067 0.14182 0.0
H617 H 0.12613 0.31994 0.19283 0.0
H618 H 0.79589 0.03792 0.25508 0.0
H619 H 0.71226 -0.01884 0.20504 0.0
H620 H 0.95256 0.13359 0.27036 0.0
H621 H 0.17318 0.38529 0.25685 0.0
H622 H 0.27355 0.49362 0.31769 0.0
H623 H 0.3453 0.52618 0.36336 0.0
loop_
_geom_bond_atom_site_label_1
_geom_bond_atom_site_label_2
_geom_bond_distance
_geom_bond_site_symmetry_2
_ccdc_geom_bond_type
Eu0 N29 2.600 1_655 S
Eu0 N35 2.562 1_655 S
Eu0 O44 2.462 . S
Eu0 O45 2.373 . S
Eu0 O47 2.432 1_655 S
Eu0 O48 2.291 . S
Eu0 O52 2.335 . S
Eu0 O55 2.372 . S
Eu0 C64 2.787 . S
C1 N2 1.365 . S
C1 C4 1.405 1_545 S
C1 C8 1.448 . S
N2 C1 1.365 . S
N2 C5 1.319 . S
N2 Eu11 2.600 . S
C3 C5 1.397 . S
C3 C6 1.367 1_545 S
C3 H23 0.931 . S
C4 C1 1.405 1_565 S
C4 C6 1.403 . S
C4 C10 1.439 . S
C5 N2 1.319 . S
C5 C3 1.397 . S
C5 H16 0.930 . S
C6 C3 1.367 1_565 S
C6 C4 1.403 . S
C6 H27 0.929 . S
C7 C8 1.418 1_565 S
C7 C9 1.385 . S
C7 C13 1.419 1_565 S
C8 C1 1.448 . S
C8 C7 1.418 1_545 S
C8 N12 1.351 . S
C9 C7 1.385 . S
C9 C10 1.374 . S
C9 H24 0.931 . S
C10 C4 1.439 . S
C10 C9 1.374 . S
C10 H25 0.931 . S
Eu11 N2 2.600 . S
Eu11 N12 2.562 . S
Eu11 O46 2.335 . S
Eu11 O49 2.372 . S
Eu11 O50 2.462 . S
Eu11 O51 2.373 . S
Eu11 O53 2.432 . S
Eu11 O54 2.291 . S
Eu11 C75 2.787 . S
N12 C8 1.351 . S
N12 Eu11 2.562 . S
N12 C14 1.325 . S
C13 C7 1.419 1_545 S
C13 C15 1.366 . S
C13 H21 0.930 1_545 S
C14 N12 1.325 . S
C14 C15 1.416 . S
C14 H20 0.929 . S
C15 C13 1.366 . S
C15 C14 1.416 . S
C15 H17 0.930 . S
H16 C5 0.930 . S
H17 C15 0.930 . S
H18 C33 0.930 . S
H19 C40 0.930 . S
H20 C14 0.929 . S
H21 C13 0.930 1_565 S
H22 C36 0.929 . S
H23 C3 0.931 . S
H24 C9 0.931 . S
H25 C10 0.931 . S
H26 C31 0.931 . S
H27 C6 0.929 . S
H28 C39 0.930 . S
N29 Eu0 2.600 1_455 S
N29 C30 1.365 1_565 S
N29 C33 1.319 . S
C30 N29 1.365 1_545 S
C30 C32 1.405 . S
C30 C38 1.448 1_545 S
C31 H26 0.931 . S
C31 C33 1.397 1_545 S
C31 C34 1.367 . S
C32 C30 1.405 . S
C32 C34 1.403 . S
C32 C65 1.439 . S
C33 H18 0.930 . S
C33 N29 1.319 . S
C33 C31 1.397 1_565 S
C34 C31 1.367 . S
C34 C32 1.403 . S
C34 H41 0.929 . S
N35 Eu0 2.562 1_455 S
N35 C36 1.325 1_455 S
N35 C38 1.351 . S
C36 H22 0.929 . S
C36 N35 1.325 1_655 S
C36 C40 1.416 . S
C37 C38 1.430 1_545 S
C37 C39 1.404 . S
C37 C66 1.387 . S
C38 C30 1.448 1_565 S
C38 N35 1.351 . S
C38 C37 1.430 1_565 S
C39 H28 0.930 . S
C39 C37 1.404 . S
C39 C40 1.366 1_445 S
C40 H19 0.930 . S
C40 C36 1.416 . S
C40 C39 1.366 1_665 S
H41 C34 0.929 . S
H42 C65 0.931 . S
H43 C66 0.931 . S
O44 Eu0 2.462 . S
O44 C64 1.252 . S
O45 Eu0 2.373 . S
O45 C56 1.249 . S
O46 Eu11 2.335 . S
O46 C56 1.264 . S
O47 Eu0 2.432 1_455 S
O47 C64 1.268 1_455 S
O48 Eu0 2.291 . S
O48 C63 1.255 . S
O49 Eu11 2.372 . S
O49 C63 1.257 . S
O50 Eu11 2.462 . S
O50 C75 1.252 . S
O51 Eu11 2.373 . S
O51 C67 1.249 . S
O52 Eu0 2.335 . S
O52 C67 1.264 . S
O53 Eu11 2.432 . S
O53 C75 1.268 . S
O54 Eu11 2.291 . S
O54 C74 1.255 . S
O55 Eu0 2.372 . S
O55 C74 1.257 . S
C56 O45 1.249 . S
C56 O46 1.264 . S
C57 C60 1.382 . S
C57 C62 1.390 1_455 S
C57 C64 1.506 1_456 S
C58 C59 1.398 . S
C58 C62 1.392 1_455 S
C59 C58 1.398 . S
C59 C61 1.372 . S
C59 H76 0.931 . S
C60 C57 1.382 . S
C60 C61 1.390 . S
C60 H77 0.931 . S
C61 C59 1.372 . S
C61 C60 1.390 . S
C61 H78 0.929 1_565 S
C62 C57 1.390 1_655 S
C62 C58 1.392 1_655 S
C62 H79 0.930 . S
C63 O48 1.255 . S
C63 O49 1.257 . S
C64 Eu0 2.787 . S
C64 O44 1.252 . S
C64 O47 1.268 1_655 S
C64 C57 1.506 1_654 S
C65 C32 1.439 . S
C65 H42 0.931 . S
C65 C66 1.374 . S
C66 C37 1.387 . S
C66 H43 0.931 . S
C66 C65 1.374 . S
C67 O51 1.249 . S
C67 O52 1.264 . S
C68 C71 1.382 . S
C68 C72 1.390 . S
C68 C75 1.506 . S
C69 C70 1.398 . S
C69 C72 1.392 . S
C70 C69 1.398 . S
C70 C73 1.372 . S
C70 H80 0.931 . S
C71 C68 1.382 . S
C71 C73 1.390 . S
C71 H81 0.931 . S
C72 C68 1.390 . S
C72 C69 1.392 . S
C72 H82 0.930 . S
C73 C70 1.372 . S
C73 C71 1.390 . S
C73 H83 0.929 . S
C74 O54 1.255 . S
C74 O55 1.257 . S
C75 Eu11 2.787 . S
C75 O50 1.252 . S
C75 O53 1.268 . S
C75 C68 1.506 . S
H76 C59 0.931 . S
H77 C60 0.931 . S
H78 C61 0.929 1_545 S
H79 C62 0.930 . S
H80 C70 0.931 . S
H81 C71 0.931 . S
H82 C72 0.930 . S
H83 C73 0.929 . S
Eu84 N113 2.600 1_565 S
Eu84 N119 2.562 1_565 S
Eu84 O128 2.462 . S
Eu84 O129 2.373 . S
Eu84 O131 2.432 1_565 S
Eu84 O132 2.291 . S
Eu84 O136 2.335 . S
Eu84 O139 2.372 . S
Eu84 C148 2.787 . S
C85 N86 1.365 . S
C85 C88 1.405 1_455 S
C85 C92 1.448 . S
N86 C85 1.365 . S
N86 C89 1.319 . S
N86 Eu95 2.600 . S
C87 C89 1.397 . S
C87 C90 1.367 1_455 S
C87 H107 0.931 . S
C88 C85 1.405 1_655 S
C88 C90 1.403 . S
C88 C94 1.439 . S
C89 N86 1.319 . S
C89 C87 1.397 . S
C89 H100 0.930 . S
C90 C87 1.367 1_655 S
C90 C88 1.403 . S
C90 H111 0.929 . S
C91 C92 1.430 1_655 S
C91 C93 1.387 . S
C91 C97 1.404 1_655 S
C92 C85 1.448 . S
C92 C91 1.430 1_455 S
C92 N96 1.351 . S
C93 C91 1.387 . S
C93 C94 1.374 . S
C93 H108 0.931 . S
C94 C88 1.439 . S
C94 C93 1.374 . S
C94 H109 0.931 . S
Eu95 N86 2.600 . S
Eu95 N96 2.562 . S
Eu95 O130 2.335 . S
Eu95 O133 2.372 . S
Eu95 O134 2.462 . S
Eu95 O135 2.373 . S
Eu95 O137 2.432 . S
Eu95 O138 2.291 . S
Eu95 C159 2.787 . S
N96 C92 1.351 . S
N96 Eu95 2.562 . S
N96 C98 1.325 . S
C97 C91 1.404 1_455 S
C97 C99 1.366 . S
C97 H105 0.930 1_455 S
C98 N96 1.325 . S
C98 C99 1.416 . S
C98 H104 0.929 . S
C99 C97 1.366 . S
C99 C98 1.416 . S
C99 H101 0.930 . S
H100 C89 0.930 . S
H101 C99 0.930 . S
H102 C117 0.930 . S
H103 C124 0.930 . S
H104 C98 0.929 . S
H105 C97 0.930 1_655 S
H106 C120 0.929 . S
H107 C87 0.931 . S
H108 C93 0.931 . S
H109 C94 0.931 . S
H110 C115 0.931 . S
H111 C90 0.929 . S
H112 C123 0.930 . S
N113 Eu84 2.600 1_545 S
N113 C114 1.365 1_655 S
N113 C117 1.319 . S
C114 N113 1.365 1_455 S
C114 C116 1.405 . S
C114 C122 1.448 1_455 S
C115 H110 0.931 . S
C115 C117 1.397 1_455 S
C115 C118 1.367 . S
C116 C114 1.405 . S
C116 C118 1.403 . S
C116 C149 1.439 . S
C117 H102 0.930 . S
C117 N113 1.319 . S
C117 C115 1.397 1_655 S
C118 C115 1.367 . S
C118 C116 1.403 . S
C118 H125 0.929 . S
N119 Eu84 2.562 1_545 S
N119 C120 1.325 1_545 S
N119 C122 1.351 . S
C120 H106 0.929 . S
C120 N119 1.325 1_565 S
C120 C124 1.416 . S
C121 C122 1.430 1_455 S
C121 C123 1.404 . S
C121 C150 1.387 . S
C122 C114 1.448 1_655 S
C122 N119 1.351 . S
C122 C121 1.430 1_655 S
C123 H112 0.930 . S
C123 C121 1.404 . S
C123 C124 1.366 1_445 S
C124 H103 0.930 . S
C124 C120 1.416 . S
C124 C123 1.366 1_665 S
H125 C118 0.929 . S
H126 C149 0.931 . S
H127 C150 0.931 . S
O128 Eu84 2.462 . S
O128 C148 1.252 . S
O129 Eu84 2.373 . S
O129 C140 1.249 . S
O130 Eu95 2.335 . S
O130 C140 1.264 . S
O131 Eu84 2.432 1_545 S
O131 C148 1.268 1_545 S
O132 Eu84 2.291 . S
O132 C147 1.255 . S
O133 Eu95 2.372 . S
O133 C147 1.257 . S
O134 Eu95 2.462 . S
O134 C159 1.252 . S
O135 Eu95 2.373 . S
O135 C151 1.249 . S
O136 Eu84 2.335 . S
O136 C151 1.264 . S
O137 Eu95 2.432 . S
O137 C159 1.268 . S
O138 Eu95 2.291 . S
O138 C158 1.255 . S
O139 Eu84 2.372 . S
O139 C158 1.257 . S
C140 O129 1.249 . S
C140 O130 1.264 . S
C141 C144 1.382 . S
C141 C146 1.390 1_545 S
C141 C148 1.506 1_545 S
C142 C143 1.398 . S
C142 C146 1.392 1_545 S
C143 C142 1.398 . S
C143 C145 1.372 . S
C143 H160 0.931 . S
C144 C141 1.382 . S
C144 C145 1.390 . S
C144 H161 0.931 . S
C145 C143 1.372 . S
C145 C144 1.390 . S
C145 H162 0.929 1_655 S
C146 C141 1.390 1_565 S
C146 C142 1.392 1_565 S
C146 H163 0.930 . S
C147 O132 1.255 . S
C147 O133 1.257 . S
C148 Eu84 2.787 . S
C148 O128 1.252 . S
C148 O131 1.268 1_565 S
C148 C141 1.506 1_565 S
C149 C116 1.439 . S
C149 H126 0.931 . S
C149 C150 1.374 . S
C150 C121 1.387 . S
C150 H127 0.931 . S
C150 C149 1.374 . S
C151 O135 1.249 . S
C151 O136 1.264 . S
C152 C155 1.382 . S
C152 C156 1.390 . S
C152 C159 1.506 . S
C153 C154 1.398 . S
C153 C156 1.392 . S
C154 C153 1.398 . S
C154 C157 1.372 . S
C154 H164 0.931 . S
C155 C152 1.382 . S
C155 C157 1.390 . S
C155 H165 0.931 . S
C156 C152 1.390 . S
C156 C153 1.392 . S
C156 H166 0.930 . S
C157 C154 1.372 . S
C157 C155 1.390 . S
C157 H167 0.929 . S
C158 O138 1.255 . S
C158 O139 1.257 . S
C159 Eu95 2.787 . S
C159 O134 1.252 . S
C159 O137 1.268 . S
C159 C152 1.506 . S
H160 C143 0.931 . S
H161 C144 0.931 . S
H162 C145 0.929 1_455 S
H163 C146 0.930 . S
H164 C154 0.931 . S
H165 C155 0.931 . S
H166 C156 0.930 . S
H167 C157 0.929 . S
Eu168 N197 2.600 1_655 S
Eu168 N203 2.562 1_655 S
Eu168 O212 2.462 . S
Eu168 O213 2.373 . S
Eu168 O215 2.432 1_654 S
Eu168 O216 2.291 . S
Eu168 O220 2.335 . S
Eu168 O223 2.372 . S
Eu168 C232 2.787 1_654 S
C169 N170 1.365 . S
C169 C172 1.405 . S
C169 C176 1.448 . S
N170 C169 1.365 . S
N170 C173 1.319 . S
N170 Eu179 2.600 . S
C171 C173 1.397 . S
C171 C174 1.367 . S
C171 H191 0.931 . S
C172 C169 1.405 . S
C172 C174 1.403 . S
C172 C178 1.439 . S
C173 N170 1.319 . S
C173 C171 1.397 . S
C173 H184 0.930 . S
C174 C171 1.367 . S
C174 C172 1.403 . S
C174 H195 0.929 . S
C175 C176 1.430 . S
C175 C177 1.387 . S
C175 C181 1.404 . S
C176 C169 1.448 . S
C176 C175 1.430 . S
C176 N180 1.351 . S
C177 C175 1.387 . S
C177 C178 1.374 . S
C177 H192 0.931 . S
C178 C172 1.439 . S
C178 C177 1.374 . S
C178 H193 0.931 . S
Eu179 N170 2.600 . S
Eu179 N180 2.562 . S
Eu179 O214 2.335 1_565 S
Eu179 O217 2.372 . S
Eu179 O218 2.462 . S
Eu179 O219 2.373 . S
Eu179 O221 2.432 . S
Eu179 O222 2.291 . S
Eu179 C243 2.787 . S
N180 C176 1.351 . S
N180 Eu179 2.562 . S
N180 C182 1.325 . S
C181 C175 1.404 . S
C181 C183 1.366 . S
C181 H189 0.930 . S
C182 N180 1.325 . S
C182 C183 1.416 . S
C182 H188 0.929 . S
C183 C181 1.366 . S
C183 C182 1.416 . S
C183 H185 0.930 . S
H184 C173 0.930 . S
H185 C183 0.930 . S
H186 C201 0.930 . S
H187 C208 0.930 . S
H188 C182 0.929 . S
H189 C181 0.930 . S
H190 C204 0.929 1_655 S
H191 C171 0.931 . S
H192 C177 0.931 . S
H193 C178 0.931 . S
H194 C199 0.931 . S
H195 C174 0.929 . S
H196 C207 0.930 . S
N197 Eu168 2.600 1_455 S
N197 C198 1.365 . S
N197 C201 1.319 . S
C198 N197 1.365 . S
C198 C200 1.405 . S
C198 C206 1.448 . S
C199 H194 0.931 . S
C199 C201 1.397 . S
C199 C202 1.367 . S
C200 C198 1.405 . S
C200 C202 1.403 . S
C200 C233 1.439 . S
C201 H186 0.930 . S
C201 N197 1.319 . S
C201 C199 1.397 . S
C202 C199 1.367 . S
C202 C200 1.403 . S
C202 H209 0.929 . S
N203 Eu168 2.562 1_455 S
N203 C204 1.325 . S
N203 C206 1.351 . S
C204 H190 0.929 1_455 S
C204 N203 1.325 . S
C204 C208 1.416 . S
C205 C206 1.430 . S
C205 C207 1.404 . S
C205 C234 1.387 . S
C206 C198 1.448 . S
C206 N203 1.351 . S
C206 C205 1.430 . S
C207 H196 0.930 . S
C207 C205 1.404 . S
C207 C208 1.366 . S
C208 H187 0.930 . S
C208 C204 1.416 . S
C208 C207 1.366 . S
H209 C202 0.929 . S
H210 C233 0.931 . S
H211 C234 0.931 . S
O212 Eu168 2.462 . S
O212 C232 1.252 1_654 S
O213 Eu168 2.373 . S
O213 C224 1.249 . S
O214 Eu179 2.335 1_545 S
O214 C224 1.264 . S
O215 Eu168 2.432 1_456 S
O215 C232 1.268 . S
O216 Eu168 2.291 . S
O216 C231 1.255 1_545 S
O217 Eu179 2.372 . S
O217 C231 1.257 . S
O218 Eu179 2.462 . S
O218 C243 1.252 . S
O219 Eu179 2.373 . S
O219 C235 1.249 . S
O220 Eu168 2.335 . S
O220 C235 1.264 1_545 S
O221 Eu179 2.432 . S
O221 C243 1.268 . S
O222 Eu179 2.291 . S
O222 C242 1.255 1_565 S
O223 Eu168 2.372 . S
O223 C242 1.257 . S
C224 O213 1.249 . S
C224 O214 1.264 . S
C225 C228 1.382 . S
C225 C230 1.390 . S
C225 C232 1.506 . S
C226 C227 1.398 . S
C226 C230 1.392 . S
C227 C226 1.398 . S
C227 C229 1.372 . S
C227 H244 0.931 . S
C228 C225 1.382 . S
C228 C229 1.390 . S
C228 H245 0.931 . S
C229 C227 1.372 . S
C229 C228 1.390 . S
C229 H246 0.929 . S
C230 C225 1.390 . S
C230 C226 1.392 . S
C230 H247 0.930 1_455 S
C231 O216 1.255 1_565 S
C231 O217 1.257 . S
C232 Eu168 2.787 1_456 S
C232 O212 1.252 1_456 S
C232 O215 1.268 . S
C232 C225 1.506 . S
C233 C200 1.439 . S
C233 H210 0.931 . S
C233 C234 1.374 . S
C234 C205 1.387 . S
C234 H211 0.931 . S
C234 C233 1.374 . S
C235 O219 1.249 . S
C235 O220 1.264 1_565 S
C236 C239 1.382 . S
C236 C240 1.390 . S
C236 C243 1.506 . S
C237 C238 1.398 . S
C237 C240 1.392 . S
C238 C237 1.398 . S
C238 C241 1.372 . S
C238 H248 0.931 . S
C239 C236 1.382 . S
C239 C241 1.390 . S
C239 H249 0.931 . S
C240 C236 1.390 . S
C240 C237 1.392 . S
C240 H250 0.930 . S
C241 C238 1.372 . S
C241 C239 1.390 . S
C241 H251 0.929 . S
C242 O222 1.255 1_545 S
C242 O223 1.257 . S
C243 Eu179 2.787 . S
C243 O218 1.252 . S
C243 O221 1.268 . S
C243 C236 1.506 . S
H244 C227 0.931 . S
H245 C228 0.931 . S
H246 C229 0.929 . S
H247 C230 0.930 1_655 S
H248 C238 0.931 . S
H249 C239 0.931 . S
H250 C240 0.930 . S
H251 C241 0.929 . S
Eu252 N281 2.600 1_565 S
Eu252 N287 2.562 1_565 S
Eu252 O296 2.462 . S
Eu252 O297 2.373 . S
Eu252 O299 2.432 1_565 S
Eu252 O300 2.291 . S
Eu252 O304 2.335 . S
Eu252 O307 2.372 . S
Eu252 C316 2.787 1_565 S
C253 N254 1.365 . S
C253 C256 1.405 . S
C253 C260 1.448 . S
N254 C253 1.365 . S
N254 C257 1.319 . S
N254 Eu263 2.600 . S
C255 C257 1.397 . S
C255 C258 1.367 . S
C255 H275 0.931 . S
C256 C253 1.405 . S
C256 C258 1.403 . S
C256 C262 1.439 . S
C257 N254 1.319 . S
C257 C255 1.397 . S
C257 H268 0.930 . S
C258 C255 1.367 . S
C258 C256 1.403 . S
C258 H279 0.929 . S
C259 C260 1.430 . S
C259 C261 1.387 . S
C259 C265 1.404 . S
C260 C253 1.448 . S
C260 C259 1.430 . S
C260 N264 1.351 . S
C261 C259 1.387 . S
C261 C262 1.374 . S
C261 H276 0.931 . S
C262 C256 1.439 . S
C262 C261 1.374 . S
C262 H277 0.931 . S
Eu263 N254 2.600 . S
Eu263 N264 2.562 . S
Eu263 O298 2.335 1_655 S
Eu263 O301 2.372 . S
Eu263 O302 2.462 . S
Eu263 O303 2.373 . S
Eu263 O305 2.432 . S
Eu263 O306 2.291 . S
Eu263 C327 2.787 . S
N264 C260 1.351 . S
N264 Eu263 2.562 . S
N264 C266 1.325 . S
C265 C259 1.404 . S
C265 C267 1.366 . S
C265 H273 0.930 . S
C266 N264 1.325 . S
C266 C267 1.416 . S
C266 H272 0.929 . S
C267 C265 1.366 . S
C267 C266 1.416 . S
C267 H269 0.930 . S
H268 C257 0.930 . S
H269 C267 0.930 . S
H270 C285 0.930 . S
H271 C292 0.930 . S
H272 C266 0.929 . S
H273 C265 0.930 . S
H274 C288 0.929 1_565 S
H275 C255 0.931 . S
H276 C261 0.931 . S
H277 C262 0.931 . S
H278 C283 0.931 . S
H279 C258 0.929 . S
H280 C291 0.930 . S
N281 Eu252 2.600 1_545 S
N281 C282 1.365 . S
N281 C285 1.319 . S
C282 N281 1.365 . S
C282 C284 1.405 . S
C282 C290 1.448 . S
C283 H278 0.931 . S
C283 C285 1.397 . S
C283 C286 1.367 . S
C284 C282 1.405 . S
C284 C286 1.403 . S
C284 C317 1.439 . S
C285 H270 0.930 . S
C285 N281 1.319 . S
C285 C283 1.397 . S
C286 C283 1.367 . S
C286 C284 1.403 . S
C286 H293 0.929 . S
N287 Eu252 2.562 1_545 S
N287 C288 1.325 . S
N287 C290 1.351 . S
C288 H274 0.929 1_545 S
C288 N287 1.325 . S
C288 C292 1.416 . S
C289 C290 1.430 . S
C289 C291 1.404 . S
C289 C318 1.387 . S
C290 C282 1.448 . S
C290 N287 1.351 . S
C290 C289 1.430 . S
C291 H280 0.930 . S
C291 C289 1.404 . S
C291 C292 1.366 . S
C292 H271 0.930 . S
C292 C288 1.416 . S
C292 C291 1.366 . S
H293 C286 0.929 . S
H294 C317 0.931 . S
H295 C318 0.931 . S
O296 Eu252 2.462 . S
O296 C316 1.252 1_565 S
O297 Eu252 2.373 . S
O297 C308 1.249 . S
O298 Eu263 2.335 1_455 S
O298 C308 1.264 . S
O299 Eu252 2.432 1_545 S
O299 C316 1.268 . S
O300 Eu252 2.291 . S
O300 C315 1.255 1_455 S
O301 Eu263 2.372 . S
O301 C315 1.257 . S
O302 Eu263 2.462 . S
O302 C327 1.252 . S
O303 Eu263 2.373 . S
O303 C319 1.249 . S
O304 Eu252 2.335 . S
O304 C319 1.264 1_455 S
O305 Eu263 2.432 . S
O305 C327 1.268 . S
O306 Eu263 2.291 . S
O306 C326 1.255 1_655 S
O307 Eu252 2.372 . S
O307 C326 1.257 . S
C308 O297 1.249 . S
C308 O298 1.264 . S
C309 C312 1.382 . S
C309 C314 1.390 . S
C309 C316 1.506 . S
C310 C311 1.398 . S
C310 C314 1.392 . S
C311 C310 1.398 . S
C311 C313 1.372 . S
C311 H328 0.931 . S
C312 C309 1.382 . S
C312 C313 1.390 . S
C312 H329 0.931 . S
C313 C311 1.372 . S
C313 C312 1.390 . S
C313 H330 0.929 . S
C314 C309 1.390 . S
C314 C310 1.392 . S
C314 H331 0.930 1_545 S
C315 O300 1.255 1_655 S
C315 O301 1.257 . S
C316 Eu252 2.787 1_545 S
C316 O296 1.252 1_545 S
C316 O299 1.268 . S
C316 C309 1.506 . S
C317 C284 1.439 . S
C317 H294 0.931 . S
C317 C318 1.374 . S
C318 C289 1.387 . S
C318 H295 0.931 . S
C318 C317 1.374 . S
C319 O303 1.249 . S
C319 O304 1.264 1_655 S
C320 C323 1.382 . S
C320 C324 1.390 . S
C320 C327 1.506 . S
C321 C322 1.398 . S
C321 C324 1.392 . S
C322 C321 1.398 . S
C322 C325 1.372 . S
C322 H332 0.931 . S
C323 C320 1.382 . S
C323 C325 1.390 . S
C323 H333 0.931 . S
C324 C320 1.390 . S
C324 C321 1.392 . S
C324 H334 0.930 . S
C325 C322 1.372 . S
C325 C323 1.390 . S
C325 H335 0.929 . S
C326 O306 1.255 1_455 S
C326 O307 1.257 . S
C327 Eu263 2.787 . S
C327 O302 1.252 . S
C327 O305 1.268 . S
C327 C320 1.506 . S
H328 C311 0.931 . S
H329 C312 0.931 . S
H330 C313 0.929 . S
H331 C314 0.930 1_565 S
H332 C322 0.931 . S
H333 C323 0.931 . S
H334 C324 0.930 . S
H335 C325 0.929 . S
C336 C337 1.386 1_565 S
C336 C338 1.383 1_665 S
C336 H352 0.951 . S
C337 C336 1.386 1_545 S
C337 C341 1.383 1_655 S
C338 C336 1.383 1_445 S
C338 C339 1.402 . S
C338 H353 0.951 . S
C339 C338 1.402 . S
C339 C340 1.375 . S
C339 C342 1.481 . S
C340 C339 1.375 . S
C340 C341 1.367 . S
C340 H354 0.951 . S
C341 C337 1.383 1_455 S
C341 C340 1.367 . S
C341 H355 0.950 . S
C342 C339 1.481 . S
C342 C343 1.297 . S
C342 H356 0.950 . S
C343 C342 1.297 . S
C343 C344 1.479 . S
C343 H357 0.950 . S
C344 C343 1.479 . S
C344 C345 1.375 . S
C344 C350 1.404 . S
C345 C344 1.375 . S
C345 C346 1.369 . S
C345 H358 0.950 . S
C346 C345 1.369 . S
C346 C347 1.392 . S
C346 H359 0.951 . S
C347 C346 1.392 . S
C347 C349 1.384 . S
H348 C350 0.949 . S
C349 C347 1.384 . S
C349 C350 1.385 . S
C349 H351 0.950 . S
C350 C344 1.404 . S
C350 H348 0.949 . S
C350 C349 1.385 . S
H351 C349 0.950 . S
H352 C336 0.951 . S
H353 C338 0.951 . S
H354 C340 0.951 . S
H355 C341 0.950 . S
H356 C342 0.950 . S
H357 C343 0.950 . S
H358 C345 0.950 . S
H359 C346 0.951 . S
C360 C361 1.386 . S
C360 C362 1.383 1_565 S
C360 H376 0.951 . S
C361 C360 1.386 . S
C361 C365 1.383 . S
C362 C360 1.383 1_545 S
C362 C363 1.402 . S
C362 H377 0.951 . S
C363 C362 1.402 . S
C363 C364 1.375 . S
C363 C366 1.481 . S
C364 C363 1.375 . S
C364 C365 1.367 1_545 S
C364 H378 0.951 . S
C365 C361 1.383 . S
C365 C364 1.367 1_565 S
C365 H379 0.950 . S
C366 C363 1.481 . S
C366 C367 1.297 . S
C366 H380 0.950 . S
C367 C366 1.297 . S
C367 C368 1.479 . S
C367 H381 0.950 . S
C368 C367 1.479 . S
C368 C369 1.375 . S
C368 C374 1.404 . S
C369 C368 1.375 . S
C369 C370 1.369 . S
C369 H382 0.950 . S
C370 C369 1.369 . S
C370 C371 1.392 . S
C370 H383 0.951 . S
C371 C370 1.392 . S
C371 C373 1.384 . S
H372 C374 0.949 . S
C373 C371 1.384 . S
C373 C374 1.385 . S
C373 H375 0.950 . S
C374 C368 1.404 . S
C374 H372 0.949 . S
C374 C373 1.385 . S
H375 C373 0.950 . S
H376 C360 0.951 . S
H377 C362 0.951 . S
H378 C364 0.951 . S
H379 C365 0.950 . S
H380 C366 0.950 . S
H381 C367 0.950 . S
H382 C369 0.950 . S
H383 C370 0.951 . S
C384 C385 1.386 . S
C384 C386 1.383 . S
C384 H400 0.951 1_545 S
C385 C384 1.386 . S
C385 C389 1.383 . S
C386 C384 1.383 . S
C386 C387 1.402 . S
C386 H401 0.951 . S
C387 C386 1.402 . S
C387 C388 1.375 . S
C387 C390 1.481 . S
C388 C387 1.375 . S
C388 C389 1.367 . S
C388 H402 0.951 . S
C389 C385 1.383 . S
C389 C388 1.367 . S
C389 H403 0.950 . S
C390 C387 1.481 . S
C390 C391 1.297 . S
C390 H404 0.950 . S
C391 C390 1.297 . S
C391 C392 1.479 . S
C391 H405 0.950 . S
C392 C391 1.479 . S
C392 C393 1.375 . S
C392 C398 1.404 . S
C393 C392 1.375 . S
C393 C394 1.369 . S
C393 H406 0.950 . S
C394 C393 1.369 . S
C394 C395 1.392 . S
C394 H407 0.951 . S
C395 C394 1.392 . S
C395 C397 1.384 . S
H396 C398 0.949 . S
C397 C395 1.384 . S
C397 C398 1.385 . S
C397 H399 0.950 1_655 S
C398 C392 1.404 . S
C398 H396 0.949 . S
C398 C397 1.385 . S
H399 C397 0.950 1_455 S
H400 C384 0.951 1_565 S
H401 C386 0.951 . S
H402 C388 0.951 . S
H403 C389 0.950 . S
H404 C390 0.950 . S
H405 C391 0.950 . S
H406 C393 0.950 . S
H407 C394 0.951 . S
C408 C409 1.386 . S
C408 C410 1.383 . S
C408 H424 0.951 1_565 S
C409 C408 1.386 . S
C409 C413 1.383 . S
C410 C408 1.383 . S
C410 C411 1.402 . S
C410 H425 0.951 . S
C411 C410 1.402 . S
C411 C412 1.375 . S
C411 C414 1.481 . S
C412 C411 1.375 . S
C412 C413 1.367 . S
C412 H426 0.951 . S
C413 C409 1.383 . S
C413 C412 1.367 . S
C413 H427 0.950 . S
C414 C411 1.481 . S
C414 C415 1.297 . S
C414 H428 0.950 . S
C415 C414 1.297 . S
C415 C416 1.479 . S
C415 H429 0.950 . S
C416 C415 1.479 . S
C416 C417 1.375 . S
C416 C422 1.404 . S
C417 C416 1.375 . S
C417 C418 1.369 . S
C417 H430 0.950 . S
C418 C417 1.369 . S
C418 C419 1.392 . S
C418 H431 0.951 . S
C419 C418 1.392 . S
C419 C421 1.384 1_455 S
H420 C422 0.949 . S
C421 C419 1.384 1_655 S
C421 C422 1.385 1_655 S
C421 H423 0.950 . S
C422 C416 1.404 . S
C422 H420 0.949 . S
C422 C421 1.385 1_455 S
H423 C421 0.950 . S
H424 C408 0.951 1_545 S
H425 C410 0.951 . S
H426 C412 0.951 . S
H427 C413 0.950 . S
H428 C414 0.950 . S
H429 C415 0.950 . S
H430 C417 0.950 . S
H431 C418 0.951 . S
C432 C433 1.386 . S
C432 C434 1.383 . S
C432 H448 0.951 . S
C433 C432 1.386 . S
C433 C437 1.383 . S
C434 C432 1.383 . S
C434 C435 1.402 . S
C434 H449 0.951 . S
C435 C434 1.402 . S
C435 C436 1.375 . S
C435 C438 1.481 . S
C436 C435 1.375 . S
C436 C437 1.367 . S
C436 H450 0.951 . S
C437 C433 1.383 . S
C437 C436 1.367 . S
C437 H451 0.950 . S
C438 C435 1.481 . S
C438 C439 1.297 . S
C438 H452 0.950 . S
C439 C438 1.297 . S
C439 C440 1.479 . S
C439 H453 0.950 . S
C440 C439 1.479 . S
C440 C441 1.375 . S
C440 C446 1.404 . S
C441 C440 1.375 . S
C441 C442 1.369 . S
C441 H454 0.950 . S
C442 C441 1.369 . S
C442 C443 1.392 . S
C442 H455 0.951 . S
C443 C442 1.392 . S
C443 C445 1.384 . S
H444 C446 0.949 . S
C445 C443 1.384 . S
C445 C446 1.385 . S
C445 H447 0.950 . S
C446 C440 1.404 . S
C446 H444 0.949 . S
C446 C445 1.385 . S
H447 C445 0.950 . S
H448 C432 0.951 . S
H449 C434 0.951 . S
H450 C436 0.951 . S
H451 C437 0.950 . S
H452 C438 0.950 . S
H453 C439 0.950 . S
H454 C441 0.950 . S
H455 C442 0.951 . S
C456 C457 1.386 . S
C456 C458 1.383 . S
C456 H472 0.951 . S
C457 C456 1.386 . S
C457 C461 1.383 . S
C458 C456 1.383 . S
C458 C459 1.402 . S
C458 H473 0.951 . S
C459 C458 1.402 . S
C459 C460 1.375 . S
C459 C462 1.481 . S
C460 C459 1.375 . S
C460 C461 1.367 . S
C460 H474 0.951 . S
C461 C457 1.383 . S
C461 C460 1.367 . S
C461 H475 0.950 . S
C462 C459 1.481 . S
C462 C463 1.297 . S
C462 H476 0.950 . S
C463 C462 1.297 . S
C463 C464 1.479 . S
C463 H477 0.950 . S
C464 C463 1.479 . S
C464 C465 1.375 . S
C464 C470 1.404 . S
C465 C464 1.375 . S
C465 C466 1.369 . S
C465 H478 0.950 . S
C466 C465 1.369 . S
C466 C467 1.392 . S
C466 H479 0.951 1_455 S
C467 C466 1.392 . S
C467 C469 1.384 . S
H468 C470 0.949 . S
C469 C467 1.384 . S
C469 C470 1.385 . S
C469 H471 0.950 . S
C470 C464 1.404 . S
C470 H468 0.949 . S
C470 C469 1.385 . S
H471 C469 0.950 . S
H472 C456 0.951 . S
H473 C458 0.951 . S
H474 C460 0.951 . S
H475 C461 0.950 . S
H476 C462 0.950 . S
H477 C463 0.950 . S
H478 C465 0.950 . S
H479 C466 0.951 1_655 S
C480 C481 1.386 . S
C480 C482 1.383 . S
C480 H496 0.951 . S
C481 C480 1.386 . S
C481 C485 1.383 . S
C482 C480 1.383 . S
C482 C483 1.402 . S
C482 H497 0.951 . S
C483 C482 1.402 . S
C483 C484 1.375 . S
C483 C486 1.481 . S
C484 C483 1.375 . S
C484 C485 1.367 . S
C484 H498 0.951 . S
C485 C481 1.383 . S
C485 C484 1.367 . S
C485 H499 0.950 . S
C486 C483 1.481 . S
C486 C487 1.297 . S
C486 H500 0.950 . S
C487 C486 1.297 . S
C487 C488 1.479 . S
C487 H501 0.950 . S
C488 C487 1.479 . S
C488 C489 1.375 . S
C488 C494 1.404 . S
C489 C488 1.375 . S
C489 C490 1.369 . S
C489 H502 0.950 . S
C490 C489 1.369 . S
C490 C491 1.392 . S
C490 H503 0.951 . S
C491 C490 1.392 . S
C491 C493 1.384 . S
H492 C494 0.949 . S
C493 C491 1.384 . S
C493 C494 1.385 . S
C493 H495 0.950 . S
C494 C488 1.404 . S
C494 H492 0.949 . S
C494 C493 1.385 . S
H495 C493 0.950 . S
H496 C480 0.951 . S
H497 C482 0.951 . S
H498 C484 0.951 . S
H499 C485 0.950 . S
H500 C486 0.950 . S
H501 C487 0.950 . S
H502 C489 0.950 . S
H503 C490 0.951 . S
C504 C505 1.386 . S
C504 C506 1.383 . S
C504 H520 0.951 . S
C505 C504 1.386 . S
C505 C509 1.383 . S
C506 C504 1.383 . S
C506 C507 1.402 . S
C506 H521 0.951 . S
C507 C506 1.402 . S
C507 C508 1.375 . S
C507 C510 1.481 . S
C508 C507 1.375 . S
C508 C509 1.367 . S
C508 H522 0.951 . S
C509 C505 1.383 . S
C509 C508 1.367 . S
C509 H523 0.950 . S
C510 C507 1.481 . S
C510 C511 1.297 . S
C510 H524 0.950 . S
C511 C510 1.297 . S
C511 C512 1.479 . S
C511 H525 0.950 . S
C512 C511 1.479 . S
C512 C513 1.375 . S
C512 C518 1.404 . S
C513 C512 1.375 . S
C513 C514 1.369 . S
C513 H526 0.950 . S
C514 C513 1.369 . S
C514 C515 1.392 1_556 S
C514 H527 0.951 1_556 S
C515 C514 1.392 1_554 S
C515 C517 1.384 1_554 S
H516 C518 0.949 . S
C517 C515 1.384 1_556 S
C517 C518 1.385 . S
C517 H519 0.950 . S
C518 C512 1.404 . S
C518 H516 0.949 . S
C518 C517 1.385 . S
H519 C517 0.950 . S
H520 C504 0.951 . S
H521 C506 0.951 . S
H522 C508 0.951 . S
H523 C509 0.950 . S
H524 C510 0.950 . S
H525 C511 0.950 . S
H526 C513 0.950 . S
H527 C514 0.951 1_554 S
C528 C529 1.386 . S
C528 C530 1.383 . S
C528 H544 0.951 . S
C529 C528 1.386 . S
C529 C533 1.383 . S
C530 C528 1.383 . S
C530 C531 1.402 . S
C530 H545 0.951 . S
C531 C530 1.402 . S
C531 C532 1.375 . S
C531 C534 1.481 . S
C532 C531 1.375 . S
C532 C533 1.367 . S
C532 H546 0.951 . S
C533 C529 1.383 . S
C533 C532 1.367 . S
C533 H547 0.950 . S
C534 C531 1.481 . S
C534 C535 1.297 . S
C534 H548 0.950 . S
C535 C534 1.297 . S
C535 C536 1.479 . S
C535 H549 0.950 . S
C536 C535 1.479 . S
C536 C537 1.375 . S
C536 C542 1.404 . S
C537 C536 1.375 . S
C537 C538 1.369 . S
C537 H550 0.950 . S
C538 C537 1.369 . S
C538 C539 1.392 . S
C538 H551 0.951 1_655 S
C539 C538 1.392 . S
C539 C541 1.384 . S
H540 C542 0.949 . S
C541 C539 1.384 . S
C541 C542 1.385 . S
C541 H543 0.950 . S
C542 C536 1.404 . S
C542 H540 0.949 . S
C542 C541 1.385 . S
H543 C541 0.950 . S
H544 C528 0.951 . S
H545 C530 0.951 . S
H546 C532 0.951 . S
H547 C533 0.950 . S
H548 C534 0.950 . S
H549 C535 0.950 . S
H550 C537 0.950 . S
H551 C538 0.951 1_455 S
C552 C553 1.386 . S
C552 C554 1.383 . S
C552 H568 0.951 . S
C553 C552 1.386 . S
C553 C557 1.383 . S
C554 C552 1.383 . S
C554 C555 1.402 . S
C554 H569 0.951 1_545 S
C555 C554 1.402 . S
C555 C556 1.375 . S
C555 C558 1.481 . S
C556 C555 1.375 . S
C556 C557 1.367 . S
C556 H570 0.951 . S
C557 C553 1.383 . S
C557 C556 1.367 . S
C557 H571 0.950 . S
C558 C555 1.481 . S
C558 C559 1.297 1_545 S
C558 H572 0.950 . S
C559 C558 1.297 1_565 S
C559 C560 1.479 . S
C559 H573 0.950 . S
C560 C559 1.479 . S
C560 C561 1.375 . S
C560 C566 1.404 1_565 S
C561 C560 1.375 . S
C561 C562 1.369 . S
C561 H574 0.950 . S
C562 C561 1.369 . S
C562 C563 1.392 . S
C562 H575 0.954 . S
C563 C562 1.392 . S
C563 C565 1.384 . S
H564 C566 0.949 . S
C565 C563 1.384 . S
C565 C566 1.385 1_565 S
C565 H567 0.950 1_565 S
C566 C560 1.404 1_545 S
C566 H564 0.949 . S
C566 C565 1.385 1_545 S
H567 C565 0.950 1_545 S
H568 C552 0.951 . S
H569 C554 0.951 1_565 S
H570 C556 0.951 . S
H571 C557 0.950 . S
H572 C558 0.950 . S
H573 C559 0.950 . S
H574 C561 0.950 . S
H575 C562 0.954 . S
C576 C577 1.386 . S
C576 C578 1.383 . S
C576 H592 0.951 1_565 S
C577 C576 1.386 . S
C577 C581 1.383 . S
C578 C576 1.383 . S
C578 C579 1.402 . S
C578 H593 0.951 . S
C579 C578 1.402 . S
C579 C580 1.375 . S
C579 C582 1.481 . S
C580 C579 1.375 . S
C580 C581 1.367 . S
C580 H594 0.951 . S
C581 C577 1.383 . S
C581 C580 1.367 . S
C581 H595 0.950 . S
C582 C579 1.481 . S
C582 C583 1.297 . S
C582 H596 0.950 . S
C583 C582 1.297 . S
C583 C584 1.479 . S
C583 H597 0.950 . S
C584 C583 1.479 . S
C584 C585 1.375 . S
C584 C590 1.404 . S
C585 C584 1.375 . S
C585 C586 1.369 . S
C585 H598 0.950 . S
C586 C585 1.369 . S
C586 C587 1.392 . S
C586 H599 0.951 . S
C587 C586 1.392 . S
C587 C589 1.384 . S
H588 C590 0.949 . S
C589 C587 1.384 . S
C589 C590 1.385 . S
C589 H591 0.950 . S
C590 C584 1.404 . S
C590 H588 0.949 . S
C590 C589 1.385 . S
H591 C589 0.950 . S
H592 C576 0.951 1_545 S
H593 C578 0.951 . S
H594 C580 0.951 . S
H595 C581 0.950 . S
H596 C582 0.950 . S
H597 C583 0.950 . S
H598 C585 0.950 . S
H599 C586 0.951 . S
C600 C601 1.386 . S
C600 C602 1.383 . S
C600 H616 0.951 . S
C601 C600 1.386 . S
C601 C605 1.383 . S
C602 C600 1.383 . S
C602 C603 1.402 . S
C602 H617 0.951 1_655 S
C603 C602 1.402 . S
C603 C604 1.375 . S
C603 C606 1.481 . S
C604 C603 1.375 . S
C604 C605 1.367 . S
C604 H618 0.951 . S
C605 C601 1.383 . S
C605 C604 1.367 . S
C605 H619 0.950 . S
C606 C603 1.481 . S
C606 C607 1.297 1_655 S
C606 H620 0.950 . S
C607 C606 1.297 1_455 S
C607 C608 1.479 . S
C607 H621 0.950 . S
C608 C607 1.479 . S
C608 C609 1.375 . S
C608 C614 1.404 . S
C609 C608 1.375 . S
C609 C610 1.369 . S
C609 H622 0.950 . S
C610 C609 1.369 . S
C610 C611 1.392 . S
C610 H623 0.951 . S
C611 C610 1.392 . S
C611 C613 1.384 . S
H612 C614 0.949 1_655 S
C613 C611 1.384 . S
C613 C614 1.385 . S
C613 H615 0.950 . S
C614 C608 1.404 . S
C614 H612 0.949 1_455 S
C614 C613 1.385 . S
H615 C613 0.950 . S
H616 C600 0.951 . S
H617 C602 0.951 1_455 S
H618 C604 0.951 . S
H619 C605 0.950 . S
H620 C606 0.950 . S
H621 C607 0.950 . S
H622 C609 0.950 . S
H623 C610 0.951 . S
C337 C242 0.415 . S
C347 C63 0.586 . S
C361 C326 0.558 . S
C371 C147 0.344 . S
C385 C231 1.610 1_545 S
C395 C74 1.683 . S
C409 C158 1.630 . S
C419 C315 1.591 1_455 S
C433 C140 2.005 . S
C443 C56 1.993 . S
C457 C151 1.109 . S
C467 C226 1.030 . S
C481 C321 1.818 . S
C491 C237 1.764 . S
C505 C310 1.051 . S
C515 C67 1.128 . S
C529 C235 2.004 1_556 S
C539 C319 1.998 . S
C553 C69 1.053 . S
C563 C308 1.180 . S
C577 C142 1.821 1_565 S
C587 C58 1.817 1_655 S
C601 C224 1.130 . S
C611 C153 1.028 . S
