# Generated by pormake.
# Topology lcy, (6)-cn, num edge types: 1
# Building blocks:
#     Node 0, Type 0, BuildingBlock: OJICUG_clean_sbu_0, # of connection points: 6
#     Node 1, Type 0, BuildingBlock: OJICUG_clean_sbu_0, # of connection points: 6
#     Node 2, Type 0, BuildingBlock: OJICUG_clean_sbu_0, # of connection points: 6
#     Node 3, Type 0, BuildingBlock: OJICUG_clean_sbu_0, # of connection points: 6
#     Edge 4, Type (0, 0), BuildingBlock: FUNLAD_clean_linker_0, # of connection points: 2
#     Edge 5, Type (0, 0), BuildingBlock: FUNLAD_clean_linker_0, # of connection points: 2
#     Edge 6, Type (0, 0), BuildingBlock: FUNLAD_clean_linker_0, # of connection points: 2
#     Edge 7, Type (0, 0), BuildingBlock: FUNLAD_clean_linker_0, # of connection points: 2
#     Edge 8, Type (0, 0), BuildingBlock: FUNLAD_clean_linker_0, # of connection points: 2
#     Edge 9, Type (0, 0), BuildingBlock: FUNLAD_clean_linker_0, # of connection points: 2
#     Edge 10, Type (0, 0), BuildingBlock: FUNLAD_clean_linker_0, # of connection points: 2
#     Edge 11, Type (0, 0), BuildingBlock: FUNLAD_clean_linker_0, # of connection points: 2
#     Edge 12, Type (0, 0), BuildingBlock: FUNLAD_clean_linker_0, # of connection points: 2
#     Edge 13, Type (0, 0), BuildingBlock: FUNLAD_clean_linker_0, # of connection points: 2
#     Edge 14, Type (0, 0), BuildingBlock: FUNLAD_clean_linker_0, # of connection points: 2
#     Edge 15, Type (0, 0), BuildingBlock: FUNLAD_clean_linker_0, # of connection points: 2
# Relax obj value: 0.357
# Max RMSD: 0.279
# Mean RMSD: 0.279
data_MOF--net-lcy--node1-OJICUG_clean_sbu_0--edge1-FUNLAD_clean_linker_0
_symmetry_space_group_name_H-M    P1
_symmetry_Int_Tables_number       1
_symmetry_cell_setting            triclinic
loop_
_symmetry_equiv_pos_as_xyz
'x, y, z'
_cell_length_a     29.789654
_cell_length_b     29.761581
_cell_length_c     29.477094
_cell_angle_alpha  89.694122
_cell_angle_beta   90.094562
_cell_angle_gamma 89.646542
loop_
_atom_site_label
_atom_site_type_symbol
_atom_site_fract_x
_atom_site_fract_y
_atom_site_fract_z
_atom_type_partial_charge
Sc0 Sc 0.31476 0.4247 0.37569 0.0
Sc1 Sc 0.3861 0.352 0.43573 0.0
Sc2 Sc 0.38781 0.35212 0.31903 0.0
O3 O 0.36246 0.37681 0.37681 0.0
C4 C 0.28695 0.37298 0.28725 0.0
C5 C 0.28163 0.35174 0.44964 0.0
C6 C 0.38609 0.26509 0.37148 0.0
C7 C 0.36524 0.45342 0.4647 0.0
C8 C 0.38852 0.45647 0.30233 0.0
C9 C 0.4739 0.35376 0.38502 0.0
O10 O 0.27639 0.39323 0.32341 0.0
O11 O 0.31995 0.33309 0.45446 0.0
O12 O 0.3683 0.28587 0.33828 0.0
O13 O 0.34568 0.46377 0.42788 0.0
O14 O 0.4071 0.41796 0.29906 0.0
O15 O 0.45275 0.3711 0.41795 0.0
O16 O 0.35313 0.4638 0.32599 0.0
O17 O 0.37865 0.41369 0.47327 0.0
O18 O 0.45388 0.34056 0.34924 0.0
O19 O 0.2748 0.38678 0.42497 0.0
O20 O 0.3266 0.35894 0.27983 0.0
O21 O 0.39853 0.28557 0.4072 0.0
Sc22 Sc 0.89466 0.13718 0.68326 0.0
Sc23 Sc 0.8156 0.06944 0.6294 0.0
Sc24 Sc 0.88844 0.13694 0.56637 0.0
O25 O 0.86588 0.11405 0.62634 0.0
C26 C 0.89302 0.22443 0.62918 0.0
C27 C 0.79394 0.1239 0.71784 0.0
C28 C 0.78356 0.14221 0.55439 0.0
C29 C 0.88938 0.03342 0.70161 0.0
C30 C 0.9782 0.13163 0.6144 0.0
C31 C 0.86255 0.03614 0.54003 0.0
O32 O 0.87836 0.20478 0.66444 0.0
O33 O 0.78062 0.1046 0.68208 0.0
O34 O 0.82246 0.15876 0.54872 0.0
O35 O 0.91084 0.07023 0.70372 0.0
O36 O 0.95523 0.11565 0.58206 0.0
O37 O 0.843 0.02768 0.57722 0.0
O38 O 0.96002 0.14438 0.6513 0.0
O39 O 0.85311 0.02861 0.6787 0.0
O40 O 0.87797 0.07476 0.53059 0.0
O41 O 0.83467 0.13459 0.72393 0.0
O42 O 0.9032 0.20319 0.59319 0.0
O43 O 0.77601 0.10813 0.57997 0.0
Sc44 Sc 0.17759 0.56646 0.86136 0.0
Sc45 Sc 0.10811 0.63311 0.92949 0.0
Sc46 Sc 0.09408 0.63357 0.81349 0.0
O47 O 0.12717 0.6108 0.86831 0.0
C48 C 0.19225 0.6204 0.77184 0.0
C49 C 0.21318 0.63635 0.93603 0.0
C50 C 0.10008 0.72097 0.865 0.0
C51 C 0.13569 0.53122 0.95297 0.0
C52 C 0.09841 0.53062 0.79648 0.0
C53 C 0.01565 0.63092 0.88776 0.0
O54 O 0.20875 0.60387 0.80789 0.0
O55 O 0.17485 0.65327 0.94463 0.0
O56 O 0.11291 0.70049 0.82953 0.0
O57 O 0.15339 0.52371 0.91461 0.0
O58 O 0.07532 0.56671 0.79796 0.0
O59 O 0.04049 0.61277 0.91768 0.0
O60 O 0.13801 0.52679 0.81325 0.0
O61 O 0.12037 0.56967 0.96394 0.0
O62 O 0.03154 0.64412 0.84996 0.0
O63 O 0.21957 0.60366 0.90874 0.0
O64 O 0.15051 0.62828 0.76753 0.0
O65 O 0.09273 0.70027 0.90239 0.0
Sc66 Sc 0.61921 0.84278 0.06799 0.0
Sc67 Sc 0.67483 0.92368 0.13096 0.0
Sc68 Sc 0.58734 0.86243 0.17807 0.0
O69 O 0.62734 0.87662 0.1257 0.0
C70 C 0.52094 0.85417 0.09243 0.0
C71 C 0.64355 0.9412 0.03163 0.0
C72 C 0.5891 0.96652 0.18086 0.0
C73 C 0.72284 0.84309 0.07769 0.0
C74 C 0.60127 0.76737 0.14366 0.0
C75 C 0.68111 0.88113 0.22744 0.0
O76 O 0.55097 0.86391 0.06362 0.0
O77 O 0.65221 0.95711 0.07052 0.0
O78 O 0.56617 0.9307 0.18031 0.0
O79 O 0.68718 0.82081 0.07142 0.0
O80 O 0.60769 0.79361 0.17676 0.0
O81 O 0.70103 0.89365 0.19158 0.0
O82 O 0.59878 0.78142 0.10279 0.0
O83 O 0.72333 0.88322 0.09289 0.0
O84 O 0.63893 0.87442 0.22883 0.0
O85 O 0.63695 0.89947 0.0252 0.0
O86 O 0.53018 0.8475 0.13425 0.0
O87 O 0.63056 0.96815 0.16981 0.0
C88 C 0.12646 0.50386 0.03318 0.0
C89 C 0.13839 0.49518 0.98792 0.0
C90 C 0.13734 0.47313 0.06761 0.0
C91 C 0.16017 0.4328 0.05744 0.0
C92 C 0.1693 0.42288 0.0119 0.0
C93 C 0.15835 0.45351 0.97751 0.0
C94 C 0.18095 0.40408 0.09334 0.0
C95 C 0.16733 0.40379 0.13693 0.0
C96 C 0.19501 0.38636 0.17555 0.0
C97 C 0.18157 0.39756 0.21972 0.0
C98 C 0.21019 0.3902 0.2566 0.0
C99 C 0.25313 0.37136 0.25025 0.0
H100 H 0.24774 0.35272 0.13689 0.0
C101 C 0.265 0.35628 0.20676 0.0
C102 C 0.23627 0.36355 0.1698 0.0
H103 H 0.2975 0.34094 0.20072 0.0
H104 H 0.11109 0.53556 0.0425 0.0
H105 H 0.13046 0.48271 0.10225 0.0
H106 H 0.18692 0.3922 0.00304 0.0
H107 H 0.1678 0.44542 0.94303 0.0
H108 H 0.21061 0.38539 0.0834 0.0
H109 H 0.13631 0.42106 0.14556 0.0
H110 H 0.14982 0.41453 0.22552 0.0
H111 H 0.19951 0.40166 0.28971 0.0
C112 C 0.68668 0.87908 0.31233 0.0
C113 C 0.70778 0.87805 0.26977 0.0
C114 C 0.71218 0.88296 0.35194 0.0
C115 C 0.7592 0.8859 0.34984 0.0
C116 C 0.78044 0.88104 0.30755 0.0
C117 C 0.75496 0.8775 0.26794 0.0
C118 C 0.78417 0.89781 0.39178 0.0
C119 C 0.82374 0.91968 0.39117 0.0
C120 C 0.8415 0.94385 0.43127 0.0
C121 C 0.86645 0.98308 0.42399 0.0
C122 C 0.8763 0.01173 0.45997 0.0
C123 C 0.86159 0.00149 0.50411 0.0
H124 H 0.81329 0.90031 0.48318 0.0
C125 C 0.84064 0.95992 0.51204 0.0
C126 C 0.83077 0.9313 0.476 0.0
H127 H 0.8297 0.95043 0.54576 0.0
H128 H 0.65042 0.87915 0.31498 0.0
H129 H 0.69491 0.886 0.38411 0.0
H130 H 0.81662 0.88107 0.30457 0.0
H131 H 0.77231 0.8756 0.23573 0.0
H132 H 0.7661 0.89445 0.42356 0.0
H133 H 0.8401 0.92642 0.35901 0.0
H134 H 0.87584 0.99317 0.38994 0.0
H135 H 0.89307 0.04312 0.45265 0.0
C136 C 0.26862 0.61876 0.73623 0.0
C137 C 0.22195 0.62499 0.73182 0.0
C138 C 0.29569 0.6142 0.69783 0.0
C139 C 0.27649 0.61523 0.65417 0.0
C140 C 0.23063 0.62568 0.6498 0.0
C141 C 0.20359 0.63047 0.68818 0.0
C142 C 0.30159 0.60132 0.6129 0.0
C143 C 0.33705 0.57285 0.61427 0.0
C144 C 0.35248 0.54691 0.57415 0.0
C145 C 0.34403 0.561 0.52928 0.0
C146 C 0.35106 0.53154 0.49317 0.0
C147 C 0.36704 0.48759 0.50109 0.0
H148 H 0.3801 0.49315 0.61563 0.0
C149 C 0.37965 0.47524 0.54543 0.0
C150 C 0.37252 0.50465 0.5815 0.0
H151 H 0.3926 0.44189 0.55279 0.0
H152 H 0.28406 0.61546 0.76939 0.0
H153 H 0.33124 0.60835 0.70271 0.0
H154 H 0.21502 0.6274 0.6166 0.0
H155 H 0.16788 0.63578 0.68347 0.0
H156 H 0.28581 0.609 0.58055 0.0
H157 H 0.3507 0.56249 0.64685 0.0
H158 H 0.33052 0.59406 0.52191 0.0
H159 H 0.34195 0.54259 0.45929 0.0
C160 C 0.64995 0.01849 0.99776 0.0
C161 C 0.64349 0.97207 0.99202 0.0
C162 C 0.65386 0.047 0.96015 0.0
C163 C 0.65179 0.02955 0.91592 0.0
C164 C 0.64271 0.98367 0.91031 0.0
C165 C 0.63871 0.95521 0.94785 0.0
C166 C 0.66196 0.05679 0.87482 0.0
C167 C 0.68725 0.09424 0.87548 0.0
C168 C 0.70921 0.11205 0.83396 0.0
C169 C 0.75179 0.13152 0.83814 0.0
C170 C 0.7782 0.1391 0.79979 0.0
C171 C 0.76236 0.12748 0.75646 0.0
H172 H 0.65775 0.09253 0.7857 0.0
C173 C 0.71773 0.11294 0.75194 0.0
C174 C 0.69131 0.10547 0.79032 0.0
H175 H 0.70402 0.10474 0.71898 0.0
H176 H 0.65291 0.0328 0.03134 0.0
H177 H 0.65914 0.0824 0.96607 0.0
H178 H 0.64049 0.96932 0.87667 0.0
H179 H 0.63321 0.91976 0.94209 0.0
H180 H 0.65386 0.04159 0.84244 0.0
H181 H 0.69855 0.10768 0.90764 0.0
H182 H 0.76608 0.13775 0.87133 0.0
H183 H 0.81214 0.15107 0.80455 0.0
C184 C 0.04092 0.14461 0.55984 0.0
C185 C 0.02453 0.1464 0.60453 0.0
C186 C 0.07873 0.16911 0.54743 0.0
C187 C 0.10113 0.19554 0.57954 0.0
C188 C 0.0876 0.1938 0.62503 0.0
C189 C 0.04939 0.1697 0.63744 0.0
C190 C 0.13785 0.22595 0.56597 0.0
C191 C 0.13678 0.24882 0.52639 0.0
C192 C 0.17343 0.27857 0.51065 0.0
C193 C 0.16444 0.31082 0.47674 0.0
C194 C 0.19915 0.33647 0.45812 0.0
C195 C 0.24356 0.32979 0.47277 0.0
H196 H 0.2264 0.24803 0.55155 0.0
C197 C 0.25221 0.29854 0.50774 0.0
C198 C 0.21769 0.27314 0.52633 0.0
H199 H 0.28606 0.29263 0.51999 0.0
H200 H 0.02301 0.1266 0.53367 0.0
H201 H 0.0896 0.1684 0.51239 0.0
H202 H 0.10503 0.2132 0.65051 0.0
H203 H 0.03796 0.1715 0.67224 0.0
H204 H 0.16448 0.23168 0.59039 0.0
H205 H 0.10741 0.24614 0.50464 0.0
H206 H 0.13062 0.3155 0.46392 0.0
H207 H 0.19145 0.36009 0.43109 0.0
C208 C 0.0886 0.78935 0.81696 0.0
C209 C 0.08347 0.76764 0.85913 0.0
C210 C 0.06364 0.82777 0.80654 0.0
C211 C 0.03337 0.84562 0.8382 0.0
C212 C 0.03133 0.82674 0.88183 0.0
C213 C 0.05595 0.78777 0.89218 0.0
C214 C 0.00294 0.88303 0.82534 0.0
C215 C 0.98225 0.88378 0.78464 0.0
C216 C 0.9544 0.92185 0.7679 0.0
C217 C 0.92296 0.91434 0.73318 0.0
C218 C 0.89998 0.95034 0.71284 0.0
C219 C 0.90878 -0.00543 0.72636 0.0
H220 H 0.98632 0.97328 0.80861 0.0
C221 C 0.93919 0.00188 0.7621 0.0
C222 C 0.96171 0.96598 0.78269 0.0
H223 H 0.94653 0.0356 0.7735 0.0
H224 H 0.10999 0.77528 0.79089 0.0
H225 H 0.06704 0.84274 0.77314 0.0
H226 H 0.00875 0.84056 0.90701 0.0
H227 H 0.05128 0.77205 0.92504 0.0
H228 H -0.0039 0.9089 0.85027 0.0
H229 H 0.98605 0.85508 0.76225 0.0
H230 H 0.91695 0.88062 0.721 0.0
H231 H 0.87688 0.94367 0.6853 0.0
C232 C 0.28958 0.67026 0.93688 0.0
C233 C 0.25139 0.65569 0.96029 0.0
C234 C 0.32253 0.69478 0.95963 0.0
C235 C 0.3179 0.7041 0.00617 0.0
C236 C 0.28099 0.68714 0.02991 0.0
C237 C 0.24761 0.66377 0.007 0.0
C238 C 0.35094 0.73153 0.0308 0.0
C239 C 0.36803 0.76935 0.01283 0.0
C240 C 0.4024 0.79698 0.03592 0.0
C241 C 0.42978 0.82468 0.00927 0.0
C242 C 0.46646 0.84645 0.02844 0.0
C243 C 0.47643 0.84106 0.07483 0.0
H244 H 0.38815 0.77594 0.10529 0.0
C245 C 0.44655 0.81682 0.10233 0.0
C246 C 0.40978 0.79507 0.08311 0.0
H247 H 0.45286 0.81249 0.13829 0.0
H248 H 0.29294 0.66444 0.90078 0.0
H249 H 0.35137 0.70668 0.94085 0.0
H250 H 0.27711 0.69353 0.06585 0.0
H251 H 0.21835 0.65261 0.02565 0.0
H252 H 0.35979 0.72078 0.06488 0.0
H253 H 0.35802 0.77933 0.97871 0.0
H254 H 0.42425 0.8276 0.97302 0.0
H255 H 0.48841 0.86544 0.00633 0.0
C256 C 0.38737 0.19464 0.32617 0.0
C257 C 0.40402 0.21961 0.36272 0.0
C258 C 0.41184 0.15835 0.3092 0.0
C259 C 0.45377 0.14677 0.32813 0.0
C260 C 0.46808 0.16871 0.36754 0.0
C261 C 0.44343 0.20487 0.38475 0.0
C262 C 0.48417 0.11371 0.30628 0.0
C263 C 0.48424 0.10709 0.26113 0.0
C264 C 0.51386 0.07405 0.23869 0.0
C265 C 0.49681 0.05008 0.20177 0.0
C266 C 0.52239 0.01636 0.18161 0.0
C267 C 0.56602 0.00701 0.1971 0.0
H268 H 0.57263 0.08489 0.28083 0.0
C269 C 0.58435 0.03281 0.23216 0.0
C270 C 0.55826 0.06597 0.25316 0.0
H271 H 0.61787 0.02581 0.24477 0.0
H272 H 0.35671 0.20473 0.309 0.0
H273 H 0.39851 0.14058 0.28027 0.0
H274 H 0.49981 0.15979 0.38331 0.0
H275 H 0.45721 0.22339 0.41303 0.0
H276 H 0.5083 0.09596 0.32759 0.0
H277 H 0.46044 0.12497 0.2396 0.0
H278 H 0.46291 0.05617 0.18971 0.0
H279 H 0.50765 -0.00328 0.1546 0.0
C280 C 0.75449 0.20242 0.50259 0.0
C281 C 0.74606 0.16404 0.52935 0.0
C282 C 0.72004 0.2236 0.47859 0.0
C283 C 0.67602 0.20722 0.48089 0.0
C284 C 0.66751 0.1684 0.50675 0.0
C285 C 0.70215 0.1471 0.53102 0.0
C286 C 0.63869 0.2298 0.45622 0.0
C287 C 0.63815 0.27436 0.44777 0.0
C288 C 0.59933 0.29727 0.42631 0.0
C289 C 0.58651 0.33995 0.44175 0.0
C290 C 0.54694 0.36009 0.42603 0.0
C291 C 0.52024 0.33833 0.39366 0.0
H292 H 0.58405 0.24437 0.37843 0.0
C293 C 0.53514 0.2973 0.37543 0.0
C294 C 0.57419 0.27676 0.39187 0.0
H295 H 0.51513 0.27959 0.35063 0.0
H296 H 0.78791 0.21631 0.49995 0.0
H297 H 0.72824 0.25249 0.45781 0.0
H298 H 0.63388 0.15487 0.50868 0.0
H299 H 0.69452 0.11745 0.55097 0.0
H300 H 0.60959 0.20972 0.44752 0.0
H301 H 0.66485 0.29541 0.46078 0.0
H302 H 0.6058 0.35664 0.46784 0.0
H303 H 0.53622 0.39173 0.44058 0.0
C304 C 0.03057 0.4898 0.77127 0.0
C305 C 0.07758 0.49225 0.77325 0.0
C306 C 0.00962 0.45642 0.7463 0.0
C307 C 0.03521 0.42493 0.72188 0.0
C308 C 0.0823 0.42629 0.72524 0.0
C309 C 0.1034 0.45967 0.75079 0.0
C310 C 0.01375 0.38916 0.69454 0.0
C311 C 0.97076 0.39124 0.68022 0.0
C312 C 0.9481 0.35202 0.6604 0.0
C313 C 0.9049 0.34113 0.67557 0.0
C314 C 0.88534 0.30053 0.66312 0.0
C315 C 0.90818 0.27103 0.63411 0.0
H316 H 0.00282 0.33208 0.61632 0.0
C317 C 0.94976 0.2838 0.61579 0.0
C318 C 0.96982 0.32386 0.62919 0.0
H319 H 0.96825 0.2614 0.59366 0.0
H320 H 0.00973 0.5139 0.78907 0.0
H321 H 0.97338 0.45546 0.74692 0.0
H322 H 0.10283 0.40189 0.70751 0.0
H323 H 0.13972 0.46079 0.75183 0.0
H324 H 0.03369 0.35932 0.68734 0.0
H325 H 0.95 0.42046 0.68705 0.0
H326 H 0.88749 0.36268 0.69938 0.0
H327 H 0.85329 0.29131 0.67766 0.0
C328 C 0.95376 0.63607 0.9447 0.0
C329 C 0.97114 0.64796 0.90202 0.0
C330 C 0.91859 0.66075 0.9637 0.0
C331 C 0.90031 0.69804 0.94046 0.0
C332 C 0.91464 0.70707 0.89606 0.0
C333 C 0.94976 0.68234 0.87698 0.0
C334 C 0.86764 0.72913 0.96191 0.0
C335 C 0.86527 0.73527 0.00707 0.0
C336 C 0.83267 0.76658 0.02784 0.0
C337 C 0.81109 0.75367 0.06801 0.0
C338 C 0.77683 0.78029 0.08593 0.0
C339 C 0.76482 0.82094 0.06479 0.0
H340 H 0.83912 0.81966 0.97747 0.0
C341 C 0.78843 0.83556 0.02645 0.0
C342 C 0.82208 0.80839 0.00786 0.0
H343 H 0.77912 0.86662 0.00944 0.0
H344 H 0.96891 0.60924 0.96456 0.0
H345 H 0.90681 0.65121 0.99706 0.0
H346 H 0.90042 0.73499 0.87703 0.0
H347 H 0.96207 0.69231 0.84389 0.0
H348 H 0.84619 0.74906 0.93961 0.0
H349 H 0.88626 0.71562 0.02995 0.0
H350 H 0.8191 0.72183 0.08419 0.0
H351 H 0.75852 0.76836 0.11532 0.0
C352 C 0.55128 0.70222 0.13015 0.0
C353 C 0.58696 0.72136 0.15439 0.0
C354 C 0.53069 0.66327 0.14621 0.0
C355 C 0.54605 0.64253 0.1863 0.0
C356 C 0.58383 0.65972 0.20851 0.0
C357 C 0.60374 0.69927 0.1931 0.0
C358 C 0.52252 0.60375 0.20634 0.0
C359 C 0.4774 0.60137 0.20767 0.0
C360 C 0.45393 0.564 0.23075 0.0
C361 C 0.41265 0.57188 0.25237 0.0
C362 C 0.39098 0.53716 0.27581 0.0
C363 C 0.41006 0.49386 0.27734 0.0
H364 H 0.50335 0.51293 0.21381 0.0
C365 C 0.45077 0.48599 0.25441 0.0
C366 C 0.47234 0.52053 0.23137 0.0
H367 H 0.46642 0.45304 0.25431 0.0
H368 H 0.53746 0.71885 0.10042 0.0
H369 H 0.50221 0.64997 0.12788 0.0
H370 H 0.59649 0.64385 0.23918 0.0
H371 H 0.63118 0.71348 0.21234 0.0
H372 H 0.54278 0.57881 0.22417 0.0
H373 H 0.45724 0.62899 0.19426 0.0
H374 H 0.39761 0.60512 0.25189 0.0
H375 H 0.35952 0.54428 0.29275 0.0
loop_
_geom_bond_atom_site_label_1
_geom_bond_atom_site_label_2
_geom_bond_distance
_geom_bond_site_symmetry_2
_ccdc_geom_bond_type
Sc0 O3 2.025 . S
Sc0 O10 2.105 . S
Sc0 O13 2.105 . S
Sc0 O16 2.105 . S
Sc0 O19 2.105 . S
Sc1 O3 2.025 . S
Sc1 O11 2.105 . S
Sc1 O15 2.105 . S
Sc1 O17 2.105 . S
Sc1 O21 2.105 . S
Sc2 O3 2.025 . S
Sc2 O12 2.105 . S
Sc2 O14 2.105 . S
Sc2 O18 2.105 . S
Sc2 O20 2.105 . S
O3 Sc0 2.025 . S
O3 Sc1 2.025 . S
O3 Sc2 2.025 . S
C4 O10 1.268 . S
C4 O20 1.268 . S
C5 O11 1.268 . S
C5 O19 1.268 . S
C6 O12 1.268 . S
C6 O21 1.268 . S
C7 O13 1.268 . S
C7 O17 1.268 . S
C8 O14 1.268 . S
C8 O16 1.268 . S
C9 O15 1.268 . S
C9 O18 1.268 . S
O10 Sc0 2.105 . S
O10 C4 1.268 . S
O11 Sc1 2.105 . S
O11 C5 1.268 . S
O12 Sc2 2.105 . S
O12 C6 1.268 . S
O13 Sc0 2.105 . S
O13 C7 1.268 . S
O14 Sc2 2.105 . S
O14 C8 1.268 . S
O15 Sc1 2.105 . S
O15 C9 1.268 . S
O16 Sc0 2.105 . S
O16 C8 1.268 . S
O17 Sc1 2.105 . S
O17 C7 1.268 . S
O18 Sc2 2.105 . S
O18 C9 1.268 . S
O19 Sc0 2.105 . S
O19 C5 1.268 . S
O20 Sc2 2.105 . S
O20 C4 1.268 . S
O21 Sc1 2.105 . S
O21 C6 1.268 . S
Sc22 O25 2.025 . S
Sc22 O32 2.105 . S
Sc22 O35 2.105 . S
Sc22 O38 2.105 . S
Sc22 O41 2.105 . S
Sc23 O25 2.025 . S
Sc23 O33 2.105 . S
Sc23 O37 2.105 . S
Sc23 O39 2.105 . S
Sc23 O43 2.105 . S
Sc24 O25 2.025 . S
Sc24 O34 2.105 . S
Sc24 O36 2.105 . S
Sc24 O40 2.105 . S
Sc24 O42 2.105 . S
O25 Sc22 2.025 . S
O25 Sc23 2.025 . S
O25 Sc24 2.025 . S
C26 O32 1.268 . S
C26 O42 1.268 . S
C27 O33 1.268 . S
C27 O41 1.268 . S
C28 O34 1.268 . S
C28 O43 1.268 . S
C29 O35 1.268 . S
C29 O39 1.268 . S
C30 O36 1.268 . S
C30 O38 1.268 . S
C31 O37 1.268 . S
C31 O40 1.268 . S
O32 Sc22 2.105 . S
O32 C26 1.268 . S
O33 Sc23 2.105 . S
O33 C27 1.268 . S
O34 Sc24 2.105 . S
O34 C28 1.268 . S
O35 Sc22 2.105 . S
O35 C29 1.268 . S
O36 Sc24 2.105 . S
O36 C30 1.268 . S
O37 Sc23 2.105 . S
O37 C31 1.268 . S
O38 Sc22 2.105 . S
O38 C30 1.268 . S
O39 Sc23 2.105 . S
O39 C29 1.268 . S
O40 Sc24 2.105 . S
O40 C31 1.268 . S
O41 Sc22 2.105 . S
O41 C27 1.268 . S
O42 Sc24 2.105 . S
O42 C26 1.268 . S
O43 Sc23 2.105 . S
O43 C28 1.268 . S
Sc44 O47 2.025 . S
Sc44 O54 2.105 . S
Sc44 O57 2.105 . S
Sc44 O60 2.105 . S
Sc44 O63 2.105 . S
Sc45 O47 2.025 . S
Sc45 O55 2.105 . S
Sc45 O59 2.105 . S
Sc45 O61 2.105 . S
Sc45 O65 2.105 . S
Sc46 O47 2.025 . S
Sc46 O56 2.105 . S
Sc46 O58 2.105 . S
Sc46 O62 2.105 . S
Sc46 O64 2.105 . S
O47 Sc44 2.025 . S
O47 Sc45 2.025 . S
O47 Sc46 2.025 . S
C48 O54 1.268 . S
C48 O64 1.268 . S
C49 O55 1.268 . S
C49 O63 1.268 . S
C50 O56 1.268 . S
C50 O65 1.268 . S
C51 O57 1.268 . S
C51 O61 1.268 . S
C52 O58 1.268 . S
C52 O60 1.268 . S
C53 O59 1.268 . S
C53 O62 1.268 . S
O54 Sc44 2.105 . S
O54 C48 1.268 . S
O55 Sc45 2.105 . S
O55 C49 1.268 . S
O56 Sc46 2.105 . S
O56 C50 1.268 . S
O57 Sc44 2.105 . S
O57 C51 1.268 . S
O58 Sc46 2.105 . S
O58 C52 1.268 . S
O59 Sc45 2.105 . S
O59 C53 1.268 . S
O60 Sc44 2.105 . S
O60 C52 1.268 . S
O61 Sc45 2.105 . S
O61 C51 1.268 . S
O62 Sc46 2.105 . S
O62 C53 1.268 . S
O63 Sc44 2.105 . S
O63 C49 1.268 . S
O64 Sc46 2.105 . S
O64 C48 1.268 . S
O65 Sc45 2.105 . S
O65 C50 1.268 . S
Sc66 O69 2.025 . S
Sc66 O76 2.105 . S
Sc66 O79 2.105 . S
Sc66 O82 2.105 . S
Sc66 O85 2.105 . S
Sc67 O69 2.025 . S
Sc67 O77 2.105 . S
Sc67 O81 2.105 . S
Sc67 O83 2.105 . S
Sc67 O87 2.105 . S
Sc68 O69 2.025 . S
Sc68 O78 2.105 . S
Sc68 O80 2.105 . S
Sc68 O84 2.105 . S
Sc68 O86 2.105 . S
O69 Sc66 2.025 . S
O69 Sc67 2.025 . S
O69 Sc68 2.025 . S
C70 O76 1.268 . S
C70 O86 1.268 . S
C71 O77 1.268 . S
C71 O85 1.268 . S
C72 O78 1.268 . S
C72 O87 1.268 . S
C73 O79 1.268 . S
C73 O83 1.268 . S
C74 O80 1.268 . S
C74 O82 1.268 . S
C75 O81 1.268 . S
C75 O84 1.268 . S
O76 Sc66 2.105 . S
O76 C70 1.268 . S
O77 Sc67 2.105 . S
O77 C71 1.268 . S
O78 Sc68 2.105 . S
O78 C72 1.268 . S
O79 Sc66 2.105 . S
O79 C73 1.268 . S
O80 Sc68 2.105 . S
O80 C74 1.268 . S
O81 Sc67 2.105 . S
O81 C75 1.268 . S
O82 Sc66 2.105 . S
O82 C74 1.268 . S
O83 Sc67 2.105 . S
O83 C73 1.268 . S
O84 Sc68 2.105 . S
O84 C75 1.268 . S
O85 Sc66 2.105 . S
O85 C71 1.268 . S
O86 Sc68 2.105 . S
O86 C70 1.268 . S
O87 Sc67 2.105 . S
O87 C72 1.268 . S
C88 C89 1.386 . S
C88 C90 1.383 . S
C88 H104 0.951 . S
C89 C88 1.386 . S
C89 C93 1.378 1_554 S
C90 C88 1.383 . S
C90 C91 1.402 . S
C90 H105 0.951 . S
C91 C90 1.402 . S
C91 C92 1.375 . S
C91 C94 1.481 . S
C92 C91 1.375 . S
C92 C93 1.356 1_554 S
C92 H106 0.951 . S
C93 C89 1.378 1_556 S
C93 C92 1.356 1_556 S
C93 H107 0.966 . S
C94 C91 1.481 . S
C94 C95 1.297 . S
C94 H108 0.950 . S
C95 C94 1.297 . S
C95 C96 1.479 . S
C95 H109 0.950 . S
C96 C95 1.479 . S
C96 C97 1.375 . S
C96 C102 1.404 . S
C97 C96 1.375 . S
C97 C98 1.369 . S
C97 H110 0.950 . S
C98 C97 1.369 . S
C98 C99 1.392 . S
C98 H111 0.951 . S
C99 C98 1.392 . S
C99 C101 1.384 . S
H100 C102 0.949 . S
C101 C99 1.384 . S
C101 C102 1.385 . S
C101 H103 0.950 . S
C102 C96 1.404 . S
C102 H100 0.949 . S
C102 C101 1.385 . S
H103 C101 0.950 . S
H104 C88 0.951 . S
H105 C90 0.951 . S
H106 C92 0.951 . S
H107 C93 0.966 . S
H108 C94 0.950 . S
H109 C95 0.950 . S
H110 C97 0.950 . S
H111 C98 0.951 . S
C112 C113 1.386 . S
C112 C114 1.383 . S
C112 H128 0.951 . S
C113 C112 1.386 . S
C113 C117 1.383 . S
C114 C112 1.383 . S
C114 C115 1.402 . S
C114 H129 0.951 . S
C115 C114 1.402 . S
C115 C116 1.375 . S
C115 C118 1.481 . S
C116 C115 1.375 . S
C116 C117 1.367 . S
C116 H130 0.951 . S
C117 C113 1.383 . S
C117 C116 1.367 . S
C117 H131 0.950 . S
C118 C115 1.481 . S
C118 C119 1.297 . S
C118 H132 0.950 . S
C119 C118 1.297 . S
C119 C120 1.479 1_565 S
C119 H133 0.950 . S
C120 C119 1.479 1_545 S
C120 C121 1.375 . S
C120 C126 1.404 1_545 S
C121 C120 1.375 . S
C121 C122 1.369 . S
C121 H134 0.950 . S
C122 C121 1.369 . S
C122 C123 1.392 . S
C122 H135 0.951 . S
C123 C122 1.392 . S
C123 C125 1.384 . S
H124 C126 0.949 . S
C125 C123 1.384 . S
C125 C126 1.385 1_545 S
C125 H127 0.950 . S
C126 C120 1.404 1_565 S
C126 H124 0.949 . S
C126 C125 1.385 1_565 S
H127 C125 0.950 . S
H128 C112 0.951 . S
H129 C114 0.951 . S
H130 C116 0.951 . S
H131 C117 0.950 . S
H132 C118 0.950 . S
H133 C119 0.950 . S
H134 C121 0.950 . S
H135 C122 0.951 . S
C136 C137 1.386 . S
C136 C138 1.383 . S
C136 H152 0.951 . S
C137 C136 1.386 . S
C137 C141 1.383 . S
C138 C136 1.383 . S
C138 C139 1.402 . S
C138 H153 0.951 . S
C139 C138 1.402 . S
C139 C140 1.375 . S
C139 C142 1.481 . S
C140 C139 1.375 . S
C140 C141 1.367 . S
C140 H154 0.951 . S
C141 C137 1.383 . S
C141 C140 1.367 . S
C141 H155 0.950 . S
C142 C139 1.481 . S
C142 C143 1.297 . S
C142 H156 0.950 . S
C143 C142 1.297 . S
C143 C144 1.479 . S
C143 H157 0.950 . S
C144 C143 1.479 . S
C144 C145 1.375 . S
C144 C150 1.404 . S
C145 C144 1.375 . S
C145 C146 1.369 . S
C145 H158 0.950 . S
C146 C145 1.369 . S
C146 C147 1.392 . S
C146 H159 0.951 . S
C147 C146 1.392 . S
C147 C149 1.384 . S
H148 C150 0.949 . S
C149 C147 1.384 . S
C149 C150 1.385 . S
C149 H151 0.950 . S
C150 C144 1.404 . S
C150 H148 0.949 . S
C150 C149 1.385 . S
H151 C149 0.950 . S
H152 C136 0.951 . S
H153 C138 0.951 . S
H154 C140 0.951 . S
H155 C141 0.950 . S
H156 C142 0.950 . S
H157 C143 0.950 . S
H158 C145 0.950 . S
H159 C146 0.951 . S
C160 C161 1.386 . S
C160 C162 1.383 . S
C160 H176 0.951 1_556 S
C161 C160 1.386 . S
C161 C165 1.383 . S
C162 C160 1.383 . S
C162 C163 1.402 . S
C162 H177 0.951 . S
C163 C162 1.402 . S
C163 C164 1.375 . S
C163 C166 1.481 . S
C164 C163 1.375 . S
C164 C165 1.367 . S
C164 H178 0.951 . S
C165 C161 1.383 . S
C165 C164 1.367 . S
C165 H179 0.950 . S
C166 C163 1.481 . S
C166 C167 1.297 1_565 S
C166 H180 0.950 1_565 S
C167 C166 1.297 1_545 S
C167 C168 1.479 . S
C167 H181 0.950 1_545 S
C168 C167 1.479 . S
C168 C169 1.375 . S
C168 C174 1.404 . S
C169 C168 1.375 . S
C169 C170 1.369 . S
C169 H182 0.950 . S
C170 C169 1.369 . S
C170 C171 1.392 . S
C170 H183 0.951 . S
C171 C170 1.392 . S
C171 C173 1.384 . S
H172 C174 0.949 . S
C173 C171 1.384 . S
C173 C174 1.385 . S
C173 H175 0.950 . S
C174 C168 1.404 . S
C174 H172 0.949 . S
C174 C173 1.385 . S
H175 C173 0.950 . S
H176 C160 0.951 1_554 S
H177 C162 0.951 . S
H178 C164 0.951 . S
H179 C165 0.950 . S
H180 C166 0.950 1_545 S
H181 C167 0.950 1_565 S
H182 C169 0.950 . S
H183 C170 0.951 . S
C184 C185 1.386 . S
C184 C186 1.383 . S
C184 H200 0.951 1_455 S
C185 C184 1.386 . S
C185 C189 1.383 . S
C186 C184 1.383 . S
C186 C187 1.402 . S
C186 H201 0.951 . S
C187 C186 1.402 . S
C187 C188 1.375 . S
C187 C190 1.481 . S
C188 C187 1.375 . S
C188 C189 1.367 . S
C188 H202 0.951 . S
C189 C185 1.383 . S
C189 C188 1.367 . S
C189 H203 0.950 . S
C190 C187 1.481 . S
C190 C191 1.297 . S
C190 H204 0.950 . S
C191 C190 1.297 . S
C191 C192 1.479 . S
C191 H205 0.950 . S
C192 C191 1.479 . S
C192 C193 1.375 . S
C192 C198 1.404 . S
C193 C192 1.375 . S
C193 C194 1.369 . S
C193 H206 0.950 . S
C194 C193 1.369 . S
C194 C195 1.392 . S
C194 H207 0.951 . S
C195 C194 1.392 . S
C195 C197 1.384 . S
H196 C198 0.949 . S
C197 C195 1.384 . S
C197 C198 1.385 . S
C197 H199 0.950 . S
C198 C192 1.404 . S
C198 H196 0.949 . S
C198 C197 1.385 . S
H199 C197 0.950 . S
H200 C184 0.951 1_655 S
H201 C186 0.951 . S
H202 C188 0.951 . S
H203 C189 0.950 . S
H204 C190 0.950 . S
H205 C191 0.950 . S
H206 C193 0.950 . S
H207 C194 0.951 . S
C208 C209 1.386 . S
C208 C210 1.383 . S
C208 H224 0.951 . S
C209 C208 1.386 . S
C209 C213 1.383 . S
C210 C208 1.383 . S
C210 C211 1.402 . S
C210 H225 0.951 . S
C211 C210 1.402 . S
C211 C212 1.375 . S
C211 C214 1.481 . S
C212 C211 1.375 . S
C212 C213 1.367 . S
C212 H226 0.951 . S
C213 C209 1.383 . S
C213 C212 1.367 . S
C213 H227 0.950 . S
C214 C211 1.481 . S
C214 C215 1.297 1_455 S
C214 H228 0.950 . S
C215 C214 1.297 1_655 S
C215 C216 1.479 . S
C215 H229 0.950 . S
C216 C215 1.479 . S
C216 C217 1.375 . S
C216 C222 1.404 . S
C217 C216 1.375 . S
C217 C218 1.369 . S
C217 H230 0.950 . S
C218 C217 1.369 . S
C218 C219 1.392 . S
C218 H231 0.951 . S
C219 C218 1.392 . S
C219 C221 1.384 . S
H220 C222 0.949 1_455 S
C221 C219 1.384 . S
C221 C222 1.385 . S
C221 H223 0.950 1_565 S
C222 C216 1.404 . S
C222 H220 0.949 1_655 S
C222 C221 1.385 . S
H223 C221 0.950 1_545 S
H224 C208 0.951 . S
H225 C210 0.951 . S
H226 C212 0.951 . S
H227 C213 0.950 . S
H228 C214 0.950 . S
H229 C215 0.950 . S
H230 C217 0.950 . S
H231 C218 0.951 . S
C232 C233 1.386 . S
C232 C234 1.383 . S
C232 H248 0.951 . S
C233 C232 1.386 . S
C233 C237 1.383 . S
C234 C232 1.383 . S
C234 C235 1.402 . S
C234 H249 0.951 . S
C235 C234 1.402 . S
C235 C236 1.375 . S
C235 C238 1.481 . S
C236 C235 1.375 . S
C236 C237 1.367 . S
C236 H250 0.951 . S
C237 C233 1.383 . S
C237 C236 1.367 . S
C237 H251 0.950 . S
C238 C235 1.481 . S
C238 C239 1.297 . S
C238 H252 0.950 . S
C239 C238 1.297 . S
C239 C240 1.490 . S
C239 H253 0.950 . S
C240 C239 1.490 . S
C240 C241 1.375 1_556 S
C240 C246 1.394 1_556 S
C241 C240 1.375 1_554 S
C241 C242 1.369 . S
C241 H254 0.950 1_554 S
C242 C241 1.369 . S
C242 C243 1.392 . S
C242 H255 0.951 . S
C243 C242 1.392 . S
C243 C245 1.384 . S
H244 C246 0.949 . S
C245 C243 1.384 . S
C245 C246 1.385 . S
C245 H247 0.950 . S
C246 C240 1.394 1_554 S
C246 H244 0.949 . S
C246 C245 1.385 . S
H247 C245 0.950 . S
H248 C232 0.951 . S
H249 C234 0.951 . S
H250 C236 0.951 . S
H251 C237 0.950 . S
H252 C238 0.950 . S
H253 C239 0.950 . S
H254 C241 0.950 1_556 S
H255 C242 0.951 . S
C256 C257 1.386 . S
C256 C258 1.383 . S
C256 H272 0.951 . S
C257 C256 1.386 . S
C257 C261 1.383 . S
C258 C256 1.383 . S
C258 C259 1.402 . S
C258 H273 0.951 . S
C259 C258 1.402 . S
C259 C260 1.375 . S
C259 C262 1.481 . S
C260 C259 1.375 . S
C260 C261 1.367 . S
C260 H274 0.951 . S
C261 C257 1.383 . S
C261 C260 1.367 . S
C261 H275 0.950 . S
C262 C259 1.481 . S
C262 C263 1.297 . S
C262 H276 0.950 . S
C263 C262 1.297 . S
C263 C264 1.479 . S
C263 H277 0.950 . S
C264 C263 1.479 . S
C264 C265 1.375 . S
C264 C270 1.404 . S
C265 C264 1.375 . S
C265 C266 1.369 . S
C265 H278 0.950 . S
C266 C265 1.369 . S
C266 C267 1.392 . S
C266 H279 0.951 . S
C267 C266 1.392 . S
C267 C269 1.384 . S
H268 C270 0.949 . S
C269 C267 1.384 . S
C269 C270 1.385 . S
C269 H271 0.950 . S
C270 C264 1.404 . S
C270 H268 0.949 . S
C270 C269 1.385 . S
H271 C269 0.950 . S
H272 C256 0.951 . S
H273 C258 0.951 . S
H274 C260 0.951 . S
H275 C261 0.950 . S
H276 C262 0.950 . S
H277 C263 0.950 . S
H278 C265 0.950 . S
H279 C266 0.951 . S
C280 C281 1.386 . S
C280 C282 1.383 . S
C280 H296 0.951 . S
C281 C280 1.386 . S
C281 C285 1.383 . S
C282 C280 1.383 . S
C282 C283 1.402 . S
C282 H297 0.951 . S
C283 C282 1.402 . S
C283 C284 1.375 . S
C283 C286 1.481 . S
C284 C283 1.375 . S
C284 C285 1.367 . S
C284 H298 0.951 . S
C285 C281 1.383 . S
C285 C284 1.367 . S
C285 H299 0.950 . S
C286 C283 1.481 . S
C286 C287 1.297 . S
C286 H300 0.950 . S
C287 C286 1.297 . S
C287 C288 1.479 . S
C287 H301 0.950 . S
C288 C287 1.479 . S
C288 C289 1.375 . S
C288 C294 1.404 . S
C289 C288 1.375 . S
C289 C290 1.369 . S
C289 H302 0.950 . S
C290 C289 1.369 . S
C290 C291 1.392 . S
C290 H303 0.951 . S
C291 C290 1.392 . S
C291 C293 1.384 . S
H292 C294 0.949 . S
C293 C291 1.384 . S
C293 C294 1.385 . S
C293 H295 0.950 . S
C294 C288 1.404 . S
C294 H292 0.949 . S
C294 C293 1.385 . S
H295 C293 0.950 . S
H296 C280 0.951 . S
H297 C282 0.951 . S
H298 C284 0.951 . S
H299 C285 0.950 . S
H300 C286 0.950 . S
H301 C287 0.950 . S
H302 C289 0.950 . S
H303 C290 0.951 . S
C304 C305 1.386 . S
C304 C306 1.383 . S
C304 H320 0.951 . S
C305 C304 1.386 . S
C305 C309 1.383 . S
C306 C304 1.383 . S
C306 C307 1.402 . S
C306 H321 0.951 1_455 S
C307 C306 1.402 . S
C307 C308 1.375 . S
C307 C310 1.481 . S
C308 C307 1.375 . S
C308 C309 1.367 . S
C308 H322 0.951 . S
C309 C305 1.383 . S
C309 C308 1.367 . S
C309 H323 0.950 . S
C310 C307 1.481 . S
C310 C311 1.297 1_455 S
C310 H324 0.950 . S
C311 C310 1.297 1_655 S
C311 C312 1.479 . S
C311 H325 0.950 . S
C312 C311 1.479 . S
C312 C313 1.375 . S
C312 C318 1.404 . S
C313 C312 1.375 . S
C313 C314 1.369 . S
C313 H326 0.950 . S
C314 C313 1.369 . S
C314 C315 1.392 . S
C314 H327 0.951 . S
C315 C314 1.392 . S
C315 C317 1.384 . S
H316 C318 0.949 1_455 S
C317 C315 1.384 . S
C317 C318 1.385 . S
C317 H319 0.950 . S
C318 C312 1.404 . S
C318 H316 0.949 1_655 S
C318 C317 1.385 . S
H319 C317 0.950 . S
H320 C304 0.951 . S
H321 C306 0.951 1_655 S
H322 C308 0.951 . S
H323 C309 0.950 . S
H324 C310 0.950 . S
H325 C311 0.950 . S
H326 C313 0.950 . S
H327 C314 0.951 . S
C328 C329 1.386 . S
C328 C330 1.383 . S
C328 H344 0.951 . S
C329 C328 1.386 . S
C329 C333 1.383 . S
C330 C328 1.383 . S
C330 C331 1.402 . S
C330 H345 0.951 1_556 S
C331 C330 1.402 . S
C331 C332 1.375 . S
C331 C334 1.481 1_556 S
C332 C331 1.375 . S
C332 C333 1.367 . S
C332 H346 0.951 . S
C333 C329 1.383 . S
C333 C332 1.367 . S
C333 H347 0.950 1_655 S
C334 C331 1.481 1_554 S
C334 C335 1.297 . S
C334 H348 0.950 . S
C335 C334 1.297 . S
C335 C336 1.479 . S
C335 H349 0.950 . S
C336 C335 1.479 . S
C336 C337 1.375 . S
C336 C342 1.404 . S
C337 C336 1.375 . S
C337 C338 1.369 . S
C337 H350 0.950 . S
C338 C337 1.369 . S
C338 C339 1.392 . S
C338 H351 0.951 . S
C339 C338 1.392 . S
C339 C341 1.384 . S
H340 C342 0.949 . S
C341 C339 1.384 . S
C341 C342 1.385 . S
C341 H343 0.950 . S
C342 C336 1.404 . S
C342 H340 0.949 . S
C342 C341 1.385 . S
H343 C341 0.950 . S
H344 C328 0.951 . S
H345 C330 0.951 1_554 S
H346 C332 0.951 . S
H347 C333 0.950 1_455 S
H348 C334 0.950 . S
H349 C335 0.950 . S
H350 C337 0.950 . S
H351 C338 0.951 . S
C352 C353 1.386 . S
C352 C354 1.383 . S
C352 H368 0.951 . S
C353 C352 1.386 . S
C353 C357 1.383 . S
C354 C352 1.383 . S
C354 C355 1.402 . S
C354 H369 0.951 . S
C355 C354 1.402 . S
C355 C356 1.375 . S
C355 C358 1.481 . S
C356 C355 1.375 . S
C356 C357 1.367 . S
C356 H370 0.951 . S
C357 C353 1.383 . S
C357 C356 1.367 . S
C357 H371 0.950 . S
C358 C355 1.481 . S
C358 C359 1.297 . S
C358 H372 0.950 . S
C359 C358 1.297 . S
C359 C360 1.479 . S
C359 H373 0.950 . S
C360 C359 1.479 . S
C360 C361 1.375 . S
C360 C366 1.404 . S
C361 C360 1.375 . S
C361 C362 1.369 . S
C361 H374 0.950 . S
C362 C361 1.369 . S
C362 C363 1.392 . S
C362 H375 0.951 . S
C363 C362 1.392 . S
C363 C365 1.384 . S
H364 C366 0.949 . S
C365 C363 1.384 . S
C365 C366 1.385 . S
C365 H367 0.950 . S
C366 C360 1.404 . S
C366 H364 0.949 . S
C366 C365 1.385 . S
H367 C365 0.950 . S
H368 C352 0.951 . S
H369 C354 0.951 . S
H370 C356 0.951 . S
H371 C357 0.950 . S
H372 C358 0.950 . S
H373 C359 0.950 . S
H374 C361 0.950 . S
H375 C362 0.951 . S
C89 C51 1.264 1_554 S
C99 C4 1.261 . S
C113 C75 1.287 . S
C123 C31 1.200 . S
C137 C48 1.225 . S
C147 C7 1.308 . S
C161 C71 1.273 1_556 S
C171 C27 1.173 . S
C185 C30 1.217 1_455 S
C195 C5 1.255 . S
C209 C50 1.260 . S
C219 C29 1.185 1_565 S
C233 C49 1.253 . S
C243 C70 1.279 . S
C257 C6 1.209 . S
C267 C72 1.279 1_545 S
C281 C28 1.224 . S
C291 C9 1.240 . S
C305 C52 1.222 . S
C315 C26 1.245 . S
C329 C53 1.210 1_655 S
C339 C73 1.310 . S
C353 C74 1.289 . S
C363 C8 1.180 . S
