# Generated by pormake.
# Topology wjk, (5)-cn, num edge types: 1
# Building blocks:
#     Node 0, Type 0, BuildingBlock: XOMCOT_clean_sbu_0, # of connection points: 5
#     Node 1, Type 0, BuildingBlock: XOMCOT_clean_sbu_0, # of connection points: 5
#     Node 2, Type 0, BuildingBlock: XOMCOT_clean_sbu_0, # of connection points: 5
#     Node 3, Type 0, BuildingBlock: XOMCOT_clean_sbu_0, # of connection points: 5
#     Node 4, Type 0, BuildingBlock: XOMCOT_clean_sbu_0, # of connection points: 5
#     Node 5, Type 0, BuildingBlock: XOMCOT_clean_sbu_0, # of connection points: 5
#     Node 6, Type 0, BuildingBlock: XOMCOT_clean_sbu_0, # of connection points: 5
#     Node 7, Type 0, BuildingBlock: XOMCOT_clean_sbu_0, # of connection points: 5
#     Node 8, Type 0, BuildingBlock: XOMCOT_clean_sbu_0, # of connection points: 5
#     Node 9, Type 0, BuildingBlock: XOMCOT_clean_sbu_0, # of connection points: 5
#     Node 10, Type 0, BuildingBlock: XOMCOT_clean_sbu_0, # of connection points: 5
#     Node 11, Type 0, BuildingBlock: XOMCOT_clean_sbu_0, # of connection points: 5
#     Edge 12, Type (0, 0), BuildingBlock: XUDNAN_clean_linker_2, # of connection points: 2
#     Edge 13, Type (0, 0), BuildingBlock: XUDNAN_clean_linker_2, # of connection points: 2
#     Edge 14, Type (0, 0), BuildingBlock: XUDNAN_clean_linker_2, # of connection points: 2
#     Edge 15, Type (0, 0), BuildingBlock: XUDNAN_clean_linker_2, # of connection points: 2
#     Edge 16, Type (0, 0), BuildingBlock: XUDNAN_clean_linker_2, # of connection points: 2
#     Edge 17, Type (0, 0), BuildingBlock: XUDNAN_clean_linker_2, # of connection points: 2
#     Edge 18, Type (0, 0), BuildingBlock: XUDNAN_clean_linker_2, # of connection points: 2
#     Edge 19, Type (0, 0), BuildingBlock: XUDNAN_clean_linker_2, # of connection points: 2
#     Edge 20, Type (0, 0), BuildingBlock: XUDNAN_clean_linker_2, # of connection points: 2
#     Edge 21, Type (0, 0), BuildingBlock: XUDNAN_clean_linker_2, # of connection points: 2
#     Edge 22, Type (0, 0), BuildingBlock: XUDNAN_clean_linker_2, # of connection points: 2
#     Edge 23, Type (0, 0), BuildingBlock: XUDNAN_clean_linker_2, # of connection points: 2
#     Edge 24, Type (0, 0), BuildingBlock: XUDNAN_clean_linker_2, # of connection points: 2
#     Edge 25, Type (0, 0), BuildingBlock: XUDNAN_clean_linker_2, # of connection points: 2
#     Edge 26, Type (0, 0), BuildingBlock: XUDNAN_clean_linker_2, # of connection points: 2
#     Edge 27, Type (0, 0), BuildingBlock: XUDNAN_clean_linker_2, # of connection points: 2
#     Edge 28, Type (0, 0), BuildingBlock: XUDNAN_clean_linker_2, # of connection points: 2
#     Edge 29, Type (0, 0), BuildingBlock: XUDNAN_clean_linker_2, # of connection points: 2
#     Edge 30, Type (0, 0), BuildingBlock: XUDNAN_clean_linker_2, # of connection points: 2
#     Edge 31, Type (0, 0), BuildingBlock: XUDNAN_clean_linker_2, # of connection points: 2
#     Edge 32, Type (0, 0), BuildingBlock: XUDNAN_clean_linker_2, # of connection points: 2
#     Edge 33, Type (0, 0), BuildingBlock: XUDNAN_clean_linker_2, # of connection points: 2
#     Edge 34, Type (0, 0), BuildingBlock: XUDNAN_clean_linker_2, # of connection points: 2
#     Edge 35, Type (0, 0), BuildingBlock: XUDNAN_clean_linker_2, # of connection points: 2
#     Edge 36, Type (0, 0), BuildingBlock: XUDNAN_clean_linker_2, # of connection points: 2
#     Edge 37, Type (0, 0), BuildingBlock: XUDNAN_clean_linker_2, # of connection points: 2
#     Edge 38, Type (0, 0), BuildingBlock: XUDNAN_clean_linker_2, # of connection points: 2
#     Edge 39, Type (0, 0), BuildingBlock: XUDNAN_clean_linker_2, # of connection points: 2
#     Edge 40, Type (0, 0), BuildingBlock: XUDNAN_clean_linker_2, # of connection points: 2
#     Edge 41, Type (0, 0), BuildingBlock: XUDNAN_clean_linker_2, # of connection points: 2
# Relax obj value: 0.574
# Max RMSD: 0.270
# Mean RMSD: 0.270
data_MOF--net-wjk--node1-XOMCOT_clean_sbu_0--edge1-XUDNAN_clean_linker_2
_symmetry_space_group_name_H-M    P1
_symmetry_Int_Tables_number       1
_symmetry_cell_setting            triclinic
loop_
_symmetry_equiv_pos_as_xyz
'x, y, z'
_cell_length_a     32.319997
_cell_length_b     32.680747
_cell_length_c     68.392353
_cell_angle_alpha  90.080635
_cell_angle_beta   90.028499
_cell_angle_gamma 120.00093
loop_
_atom_site_label
_atom_site_type_symbol
_atom_site_fract_x
_atom_site_fract_y
_atom_site_fract_z
_atom_type_partial_charge
Co0 Co 0.26814 0.30365 0.23605 0.0
C1 C 0.33011 0.39182 0.25805 0.0
C2 C 0.30189 0.40704 0.23265 0.0
C3 C 0.34223 0.44799 0.2387 0.0
N4 N 0.29525 0.37062 0.24417 0.0
N5 N 0.36042 0.43809 0.25452 0.0
H6 H 0.33859 0.37294 0.26877 0.0
H7 H 0.28311 0.40388 0.21929 0.0
C8 C 0.20591 0.31538 0.20461 0.0
O9 O 0.24492 0.34484 0.19519 0.0
N10 N 0.24395 0.23794 0.22912 0.0
C11 C 0.27151 0.21953 0.22387 0.0
C12 C 0.24532 0.17134 0.22516 0.0
C13 C 0.20149 0.20039 0.23414 0.0
N14 N 0.20156 0.15922 0.23199 0.0
C15 C 0.35654 0.35637 0.21579 0.0
C16 C 0.33096 0.29722 0.18387 0.0
C17 C 0.37922 0.32434 0.18919 0.0
C18 C 0.39187 0.35883 0.20354 0.0
C19 C 0.29622 0.29783 0.19591 0.0
N20 N 0.30938 0.32381 0.21283 0.0
H21 H 0.36874 0.37585 0.22917 0.0
H22 H 0.25915 0.27196 0.19326 0.0
H23 H 0.30933 0.23987 0.22082 0.0
H24 H 0.17309 0.20351 0.24107 0.0
O25 O 0.31223 0.29761 0.25327 0.0
O26 O 0.24029 0.28307 0.26213 0.0
O27 O 0.20953 0.29991 0.22151 0.0
C28 C 0.27958 0.28319 0.26672 0.0
H29 H 0.35949 0.48122 0.2309 0.0
H30 H 0.25861 0.14733 0.22252 0.0
H31 H 0.31983 0.27014 0.17272 0.0
H32 H 0.42888 0.38038 0.208 0.0
Co33 Co 0.92736 0.21862 0.60824 0.0
C34 C 0.90545 0.29537 0.61384 0.0
C35 C 0.85228 0.24119 0.59576 0.0
C36 C 0.84834 0.28131 0.59421 0.0
N37 N 0.88939 0.25042 0.60759 0.0
N38 N 0.88288 0.31585 0.60516 0.0
H39 H 0.93704 0.31515 0.62269 0.0
H40 H 0.83177 0.20924 0.58746 0.0
C41 C 0.85629 0.14176 0.57937 0.0
O42 O 0.86562 0.17281 0.56545 0.0
N43 N 0.96657 0.18962 0.60934 0.0
C44 C 1.01466 0.21285 0.60814 0.0
C45 C 0.02943 0.18036 0.60613 0.0
C46 C 0.95271 0.14338 0.60857 0.0
N47 N 0.99041 0.13693 0.60626 0.0
C48 C 0.97147 0.29078 0.57896 0.0
C49 C 0.98769 0.23715 0.55227 0.0
C50 C 1.00564 0.2853 0.54846 0.0
C51 C 0.99629 0.31192 0.56187 0.0
C52 C 0.96239 0.2173 0.56938 0.0
N53 N 0.95373 0.24375 0.58248 0.0
H54 H 0.96975 0.31351 0.58982 0.0
H55 H 0.95101 0.18073 0.57232 0.0
H56 H 0.03717 0.25084 0.60741 0.0
H57 H 0.91589 0.11518 0.60815 0.0
O58 O 0.97587 0.26976 0.62353 0.0
O59 O 0.91478 0.2061 0.63627 0.0
O60 O 0.87249 0.15572 0.59686 0.0
C61 C 0.95468 0.24572 0.6391 0.0
H62 H 0.82503 0.28597 0.58422 0.0
H63 H 0.06573 0.18804 0.60372 0.0
H64 H 0.99566 0.2154 0.5428 0.0
H65 H 1.01039 0.34944 0.55977 0.0
Co66 Co 0.72427 0.95578 0.90116 0.0
C67 C 0.63541 0.93152 0.92243 0.0
C68 C 0.62177 0.879 0.90074 0.0
C69 C 0.57866 0.87492 0.90655 0.0
N70 N 0.65789 0.91576 0.91026 0.0
N71 N 0.58767 0.90893 0.91984 0.0
H72 H 0.65337 0.96342 0.93103 0.0
H73 H 0.62637 0.86066 0.88854 0.0
C74 C 0.72023 0.87873 0.87295 0.0
O75 O 0.69151 0.88308 0.86065 0.0
N76 N 0.7897 0.99733 0.89326 0.0
C77 C 0.80794 0.04232 0.88713 0.0
C78 C 0.85685 0.06362 0.88677 0.0
C79 C 0.82779 0.99224 0.89706 0.0
N80 N 0.86932 0.03228 0.89319 0.0
C81 C 0.66279 0.97551 0.87709 0.0
C82 C 0.72104 1.00459 0.84482 0.0
C83 C 0.68575 0.01774 0.84668 0.0
C84 C 0.65268 0.99704 0.86179 0.0
C85 C 0.72762 0.97942 0.85981 0.0
N86 N 0.70115 0.96854 0.87657 0.0
H87 H 0.64191 0.96924 0.88998 0.0
H88 H 0.7574 0.97319 0.85875 0.0
H89 H 0.78716 0.05928 0.88421 0.0
H90 H 0.82512 0.96084 0.90357 0.0
O91 O 0.72954 1.0084 0.91639 0.0
O92 O 0.74709 0.95529 0.92749 0.0
O93 O 0.72967 0.89981 0.88971 0.0
C94 C 0.74529 0.99368 0.93073 0.0
H95 H 0.54428 0.85265 0.89973 0.0
H96 H 0.88139 0.10039 0.88347 0.0
H97 H 0.74735 0.01818 0.83327 0.0
H98 H 0.62316 1.00356 0.86345 0.0
Co99 Co 0.82635 0.73124 0.28256 0.0
C100 C 0.73617 0.63926 0.2868 0.0
C101 C 0.78177 0.63223 0.26619 0.0
C102 C 0.73611 0.59374 0.26433 0.0
N103 N 0.78152 0.6625 0.2796 0.0
N104 N 0.70728 0.59864 0.27715 0.0
H105 H 0.72277 0.65398 0.29756 0.0
H106 H 0.8122 0.63787 0.25769 0.0
C107 C 0.87484 0.72411 0.24447 0.0
O108 O 0.83318 0.70359 0.23558 0.0
N109 N 0.86773 0.79862 0.2859 0.0
C110 C 0.85272 0.82932 0.29029 0.0
C111 C 0.89026 0.87458 0.28807 0.0
C112 C 0.91437 0.82556 0.28134 0.0
N113 N 0.92883 0.8721 0.28232 0.0
C114 C 0.74433 0.725 0.26358 0.0
C115 C 0.79217 0.78074 0.232 0.0
C116 C 0.742 0.75594 0.23204 0.0
C117 C 0.71806 0.72898 0.24838 0.0
C118 C 0.81684 0.77504 0.24742 0.0
N119 N 0.79267 0.7442 0.26217 0.0
H120 H 0.72548 0.70717 0.27658 0.0
H121 H 0.85541 0.79447 0.2472 0.0
H122 H 0.81627 0.81948 0.29378 0.0
H123 H 0.93653 0.81163 0.27623 0.0
O124 O 0.78959 0.73248 0.30471 0.0
O125 O 0.85088 0.72039 0.30687 0.0
O126 O 0.87656 0.73235 0.263 0.0
C127 C 0.81817 0.72568 0.31581 0.0
H128 H 0.72464 0.56534 0.25379 0.0
H129 H 0.88885 0.90676 0.28993 0.0
H130 H 0.8123 0.80478 0.22029 0.0
H131 H 0.6795 0.71137 0.24951 0.0
Co132 Co 0.085 0.78812 0.56793 0.0
C133 C 0.05586 0.68974 0.57406 0.0
C134 C 0.127 0.73213 0.5851 0.0
C135 C 0.10995 0.68523 0.59031 0.0
N136 N 0.09283 0.73457 0.57477 0.0
N137 N 0.06481 0.65871 0.58348 0.0
H138 H 0.02197 0.68062 0.56741 0.0
H139 H 0.16046 0.76235 0.58959 0.0
C140 C 0.17774 0.8706 0.55989 0.0
O141 O 0.17131 0.88541 0.57688 0.0
N142 N 0.07424 0.83944 0.56085 0.0
C143 C 0.08352 0.86089 0.54322 0.0
C144 C 0.06759 0.89276 0.54318 0.0
C145 C 0.05238 0.85824 0.5712 0.0
N146 N 0.04774 0.89056 0.56073 0.0
C147 C 1.01498 0.75036 0.53824 0.0
C148 C 0.05054 0.69752 0.5209 0.0
C149 C 1.00296 0.68535 0.51779 0.0
C150 C 0.98673 0.71489 0.52516 0.0
C151 C 0.0791 0.73599 0.53308 0.0
N152 N 0.05935 0.75848 0.54296 0.0
H153 H 0.99915 0.76764 0.54625 0.0
H154 H 0.11457 0.743 0.53683 0.0
H155 H 0.09968 0.853 0.53103 0.0
H156 H 0.04005 0.84885 0.58606 0.0
O157 O 0.02651 0.75849 0.58304 0.0
O158 O 0.09726 0.80878 0.59535 0.0
O159 O 0.15084 0.8267 0.55556 0.0
C160 C 0.05176 0.78022 0.59835 0.0
H161 H 0.12832 0.67232 0.59944 0.0
H162 H 0.06938 0.91493 0.53109 0.0
H163 H 0.06396 0.67514 0.51556 0.0
H164 H 0.94989 0.70615 0.52324 0.0
Co165 Co 0.30181 0.09626 0.94652 0.0
C166 C 0.39333 0.09509 0.94927 0.0
C167 C 0.39113 0.13032 0.92337 0.0
C168 C 0.42656 0.11859 0.92136 0.0
N169 N 0.36879 0.11419 0.94067 0.0
N170 N 0.42692 0.09492 0.93742 0.0
H171 H 0.38237 0.07539 0.96277 0.0
H172 H 0.37933 0.14468 0.91191 0.0
C173 C 0.29555 0.14919 0.90918 0.0
O174 O 0.29819 0.11989 0.8968 0.0
N175 N 0.23588 0.07694 0.95249 0.0
C176 C 0.20267 0.03353 0.95857 0.0
C177 C 0.15816 0.02857 0.95615 0.0
C178 C 0.21112 0.09821 0.94702 0.0
N179 N 0.16345 0.069 0.94855 0.0
C180 C 0.29728 0.01605 0.92878 0.0
C181 C 0.22263 0.99343 0.9035 0.0
C182 C 0.24279 0.96421 0.90465 0.0
C183 C 0.2807 0.97606 0.9173 0.0
C184 C 0.24153 0.03434 0.91497 0.0
N185 N 0.27963 0.04612 0.92705 0.0
H186 H 0.32198 0.02043 0.94009 0.0
H187 H 0.22451 0.05555 0.91455 0.0
H188 H 0.20991 1.00575 0.96264 0.0
H189 H 0.22731 0.13317 0.94082 0.0
O190 O 0.3011 0.05859 0.96841 0.0
O191 O 0.32172 0.13391 0.97055 0.0
O192 O 0.30273 0.14662 0.92764 0.0
C193 C 0.3138 0.0953 0.97943 0.0
H194 H 0.44633 0.1221 0.9081 0.0
H195 H 0.12458 0.99606 0.95804 0.0
H196 H 0.1921 0.9842 0.89416 0.0
H197 H 0.29539 0.9529 0.91926 0.0
Co198 Co 0.74077 0.76567 0.4869 0.0
C199 C 0.64989 0.69993 0.46682 0.0
C200 C 0.63621 0.72677 0.49307 0.0
C201 C 0.59455 0.68689 0.48726 0.0
N202 N 0.67188 0.73404 0.48072 0.0
N203 N 0.60351 0.66963 0.47091 0.0
H204 H 0.66857 0.69225 0.45563 0.0
H205 H 0.64064 0.74522 0.50663 0.0
C206 C 0.72717 0.81932 0.52104 0.0
O207 O 0.70477 0.77942 0.53072 0.0
N208 N 0.80874 0.79625 0.49199 0.0
C209 C 0.83545 0.77521 0.49316 0.0
C210 C 0.88277 0.80957 0.49437 0.0
C211 C 0.84012 0.84299 0.49205 0.0
N212 N 0.88576 0.85226 0.49354 0.0
C213 C 0.69638 0.6762 0.5064 0.0
C214 C 0.76737 0.70217 0.53392 0.0
C215 C 0.74053 0.65475 0.52811 0.0
C216 C 0.7011 0.64144 0.51607 0.0
C217 C 0.75986 0.73607 0.52455 0.0
N218 N 0.72812 0.72324 0.50933 0.0
H219 H 0.67157 0.66401 0.49452 0.0
H220 H 0.78443 0.77298 0.52757 0.0
H221 H 0.82152 0.73746 0.49265 0.0
H222 H 0.82979 0.86942 0.48976 0.0
O223 O 0.74931 0.72651 0.4681 0.0
O224 O 0.75556 0.79538 0.46095 0.0
O225 O 0.73929 0.81874 0.50314 0.0
C226 C 0.75902 0.75907 0.45515 0.0
H227 H 0.56158 0.66938 0.4955 0.0
H228 H 0.91262 0.80338 0.49517 0.0
H229 H 0.79825 0.71382 0.54333 0.0
H230 H 0.67959 0.60507 0.51127 0.0
Co231 Co 0.94033 0.72568 0.76932 0.0
C232 C 0.92391 0.62915 0.76471 0.0
C233 C 0.87553 0.62856 0.78598 0.0
C234 C 0.87957 0.58861 0.78844 0.0
N235 N 0.90596 0.65598 0.77185 0.0
N236 N 0.91094 0.58964 0.77523 0.0
H237 H 0.95166 0.64127 0.75378 0.0
H238 H 0.85334 0.63733 0.7947 0.0
C239 C 0.88598 0.72591 0.80684 0.0
O240 O 0.90268 0.70169 0.81586 0.0
N241 N 0.97791 0.79332 0.76616 0.0
C242 C 0.02508 0.81519 0.76232 0.0
C243 C 0.04229 0.86261 0.76098 0.0
C244 C 0.96682 0.828 0.76722 0.0
N245 N 1.0059 0.87086 0.76397 0.0
C246 C 1.00766 0.70664 0.78931 0.0
C247 C 0.02358 0.76684 0.82022 0.0
C248 C 0.04423 0.73796 0.8205 0.0
C249 C 0.03714 0.70848 0.80456 0.0
C250 C 0.99437 0.76368 0.80474 0.0
N251 N 0.98366 0.73117 0.79024 0.0
H252 H 1.00596 0.68684 0.77652 0.0
H253 H 0.97979 0.78706 0.80455 0.0
H254 H 0.04589 0.79773 0.761 0.0
H255 H 0.93144 0.82213 0.77035 0.0
O256 O 0.97567 0.721 0.74726 0.0
O257 O 0.90767 0.72118 0.74475 0.0
O258 O 0.89496 0.73502 0.78844 0.0
C259 C 0.94335 0.72094 0.73595 0.0
H260 H 0.86286 0.56236 0.79981 0.0
H261 H 0.07931 0.8892 0.7587 0.0
H262 H 0.03095 0.7927 0.83161 0.0
H263 H 0.05494 0.68791 0.80367 0.0
Co264 Co 0.26489 0.96225 0.1479 0.0
C265 C 0.328 0.9351 0.1275 0.0
C266 C 0.28881 0.88492 0.14995 0.0
C267 C 0.32712 0.87954 0.14428 0.0
N268 N 0.29023 0.92108 0.13985 0.0
N269 N 0.35233 0.91211 0.1305 0.0
H270 H 0.34242 0.96624 0.11846 0.0
H271 H 0.26603 0.8681 0.16241 0.0
C272 C 0.19385 0.89031 0.17807 0.0
O273 O 0.22804 0.90095 0.19086 0.0
N274 N 0.24161 1.0048 0.15457 0.0
C275 C 0.26948 0.05135 0.15841 0.0
C276 C 0.24167 0.0721 0.15861 0.0
C277 C 0.19738 0.99821 0.15175 0.0
N278 N 0.19647 0.03883 0.15426 0.0
C279 C 0.34867 0.98652 0.17133 0.0
C280 C 0.32797 0.03537 0.19862 0.0
C281 C 0.37588 0.05039 0.1941 0.0
C282 C 0.38526 0.02064 0.18271 0.0
C283 C 0.29175 0.99856 0.18772 0.0
N284 N 0.30322 0.97956 0.17221 0.0
H285 H 0.35986 0.97153 0.16016 0.0
H286 H 0.25551 0.99129 0.1897 0.0
H287 H 0.30796 0.06951 0.15989 0.0
H288 H 0.16731 0.96517 0.14687 0.0
O289 O 0.31161 0.01253 0.13154 0.0
O290 O 0.23984 0.95781 0.12151 0.0
O291 O 0.20425 0.90752 0.16062 0.0
C292 C 0.28016 0.99589 0.11751 0.0
H293 H 0.33884 0.85765 0.15151 0.0
H294 H 0.25441 0.10949 0.16029 0.0
H295 H 0.31862 0.05623 0.208 0.0
H296 H 0.42173 0.02961 0.17959 0.0
Co297 Co 0.3098 0.20964 0.43748 0.0
C298 C 0.40283 0.29962 0.43622 0.0
C299 C 0.40432 0.25446 0.4584 0.0
C300 C 0.4429 0.29939 0.46107 0.0
N301 N 0.37765 0.25475 0.44324 0.0
N302 N 0.44147 0.32794 0.44725 0.0
H303 H 0.39058 0.31309 0.4245 0.0
H304 H 0.39589 0.22469 0.46762 0.0
C305 C 0.30889 0.15466 0.47483 0.0
O306 O 0.32013 0.19126 0.48616 0.0
N307 N 0.24243 0.16703 0.4315 0.0
C308 C 0.21414 0.1806 0.42237 0.0
C309 C 0.16726 0.14881 0.4264 0.0
C310 C 0.21167 0.12597 0.44048 0.0
N311 N 0.16582 0.1151 0.43811 0.0
C312 C 0.305 0.28625 0.45482 0.0
C313 C 0.23055 0.2333 0.47995 0.0
C314 C 0.24451 0.28072 0.47672 0.0
C315 C 0.2834 0.30783 0.46466 0.0
C316 C 0.25375 0.21326 0.47007 0.0
N317 N 0.29008 0.23936 0.4573 0.0
H318 H 0.33051 0.30674 0.4438 0.0
H319 H 0.24016 0.17604 0.47194 0.0
H320 H 0.22631 0.214 0.4151 0.0
H321 H 0.22231 0.10778 0.45071 0.0
O322 O 0.31232 0.24859 0.41573 0.0
O323 O 0.32732 0.18988 0.41333 0.0
O324 O 0.30775 0.15878 0.45612 0.0
C325 C 0.32219 0.22254 0.40457 0.0
H326 H 0.46869 0.31063 0.47286 0.0
H327 H 0.13688 0.15269 0.42258 0.0
H328 H 0.20037 0.21129 0.48926 0.0
H329 H 0.29437 0.34435 0.46151 0.0
Co330 Co 0.08163 0.31026 0.80861 0.0
C331 C 0.10435 0.40524 0.79498 0.0
C332 C 0.13089 0.40912 0.8239 0.0
C333 C 0.12707 0.44885 0.82052 0.0
N334 N 0.11449 0.3802 0.80818 0.0
N335 N 0.10917 0.44578 0.80243 0.0
H336 H 0.08616 0.39095 0.7813 0.0
H337 H 0.13922 0.39992 0.83785 0.0
C338 C 0.13814 0.3124 0.84575 0.0
O339 O 0.11557 0.32883 0.85619 0.0
N340 N 0.04782 0.24208 0.80812 0.0
C341 C 1.00005 0.21414 0.80665 0.0
C342 C 0.98955 0.16853 0.80342 0.0
C343 C 0.06596 0.21341 0.80516 0.0
N344 N 0.031 0.16822 0.80232 0.0
C345 C 1.01847 0.3355 0.82676 0.0
C346 C 0.97618 0.25856 0.85125 0.0
C347 C 0.95144 0.28195 0.84599 0.0
C348 C 0.97497 0.32347 0.83529 0.0
C349 C 1.02114 0.27323 0.84309 0.0
N350 N 0.03991 0.30893 0.82963 0.0
H351 H 0.03039 0.36192 0.8156 0.0
H352 H 0.03719 0.25145 0.84537 0.0
H353 H 0.97489 0.2267 0.80671 0.0
H354 H 0.1038 0.2258 0.80398 0.0
O355 O 0.04107 0.30709 0.78711 0.0
O356 O 0.11067 0.31019 0.78361 0.0
O357 O 0.13138 0.3076 0.82711 0.0
C358 C 0.07232 0.30624 0.77543 0.0
H359 H 0.13264 0.47551 0.83125 0.0
H360 H 0.95445 0.13863 0.80048 0.0
H361 H 0.95838 0.22566 0.8593 0.0
H362 H 0.95636 0.34169 0.83065 0.0
Co363 Co 0.82708 0.09837 0.10097 0.0
C364 C 0.7335 0.09563 0.09925 0.0
C365 C 0.77259 0.13202 0.12482 0.0
C366 C 0.72539 0.12026 0.12716 0.0
N367 N 0.77776 0.11518 0.10751 0.0
N368 N 0.70034 0.09592 0.11131 0.0
H369 H 0.72394 0.07557 0.0858 0.0
H370 H 0.79961 0.1473 0.13601 0.0
C371 C 0.88553 0.14869 0.13889 0.0
O372 O 0.85268 0.11838 0.15078 0.0
N373 N 0.87403 0.08026 0.09428 0.0
C374 C 0.8638 0.03725 0.08779 0.0
C375 C 0.90355 0.03268 0.09003 0.0
C376 C 0.92033 0.10179 0.09972 0.0
N377 N 0.93893 0.073 0.0979 0.0
C378 C 0.7515 0.01628 0.11799 0.0
C379 C 0.80477 0.99383 0.14245 0.0
C380 C 0.75521 0.96377 0.14123 0.0
C381 C 0.7285 0.97543 0.12896 0.0
C382 C 0.82633 0.03531 0.13144 0.0
N383 N 0.7994 0.04707 0.11983 0.0
H384 H 0.73075 0.02087 0.10697 0.0
H385 H 0.86473 0.05718 0.1319 0.0
H386 H 0.82857 1.00933 0.08365 0.0
H387 H 0.93902 0.13655 0.10619 0.0
O388 O 0.78967 0.06153 0.07895 0.0
O389 O 0.84445 0.13715 0.07725 0.0
O390 O 0.87665 0.1477 0.12039 0.0
C391 C 0.81355 0.09862 0.06817 0.0
H392 H 0.70983 0.12443 0.1405 0.0
H393 H 0.90445 1.00035 0.08784 0.0
H394 H 0.82657 0.985 0.15159 0.0
H395 H 0.69047 0.95179 0.127 0.0
H396 H 0.64552 0.56583 0.24614 0.0
H397 H 0.65126 0.57465 0.30935 0.0
H398 H 0.56286 0.53526 0.31055 0.0
H399 H 0.55087 0.59221 0.24066 0.0
H400 H 0.5231 0.5528 0.22025 0.0
H401 H 0.5864 0.57889 0.22437 0.0
H402 H 0.5777 0.49571 0.22518 0.0
H403 H 0.51444 0.46939 0.2209 0.0
H404 H 0.53576 0.45193 0.24185 0.0
H405 H 0.4726 0.49259 0.3047 0.0
H406 H 0.38926 0.4541 0.29224 0.0
H407 H 0.44211 0.47831 0.23282 0.0
C408 C 0.62805 0.55867 0.26023 0.0
C409 C 0.65539 0.57264 0.27773 0.0
C410 C 0.63113 0.56395 0.29583 0.0
C411 C 0.5809 0.5416 0.29661 0.0
C412 C 0.55503 0.52868 0.27913 0.0
C413 C 0.57784 0.53715 0.26125 0.0
C414 C 0.54183 0.52161 0.24458 0.0
C415 C 0.55112 0.5639 0.23171 0.0
C416 C 0.54248 0.48233 0.23241 0.0
C417 C 0.49524 0.50287 0.25583 0.0
C418 C 0.50357 0.50684 0.27576 0.0
C419 C 0.46587 0.48995 0.28912 0.0
C420 C 0.41864 0.46829 0.28196 0.0
C421 C 0.40921 0.46438 0.26163 0.0
C422 C 0.44827 0.48217 0.24844 0.0
H423 H 0.0834 0.5876 0.59273 0.0
H424 H 0.96749 0.61631 0.58295 0.0
H425 H 0.90914 0.53265 0.58801 0.0
H426 H 0.028 0.47428 0.56888 0.0
H427 H 0.04967 0.44776 0.58616 0.0
H428 H 0.08317 0.51049 0.58184 0.0
H429 H 0.08078 0.52612 0.61885 0.0
H430 H 0.0472 0.46341 0.62328 0.0
H431 H 0.02399 0.50065 0.6312 0.0
H432 H 0.86205 0.44457 0.59341 0.0
H433 H 0.83102 0.35919 0.59898 0.0
H434 H 0.97622 0.3871 0.60622 0.0
C435 C 0.0458 0.57644 0.59181 0.0
C436 C 0.03064 0.60919 0.58716 0.0
C437 C 0.98075 0.59249 0.58601 0.0
C438 C 0.94695 0.54474 0.58905 0.0
C439 C 0.96307 0.51352 0.59344 0.0
C440 C 1.01129 0.52862 0.59489 0.0
C441 C 1.01885 0.48738 0.59961 0.0
C442 C 0.04656 0.47953 0.58314 0.0
C443 C 0.04421 0.49485 0.61941 0.0
C444 C 0.96747 0.44702 0.60057 0.0
C445 C 0.93583 0.46283 0.59693 0.0
C446 C 0.88654 0.43183 0.59642 0.0
C447 C 0.86916 0.38338 0.59957 0.0
C448 C 0.90083 0.36618 0.60333 0.0
C449 C 0.95071 0.39885 0.6039 0.0
H450 H 0.51212 0.10825 0.92311 0.0
H451 H 0.38351 1.00669 0.95338 0.0
H452 H 0.41035 0.94832 0.9521 0.0
H453 H 0.52183 0.02686 0.89108 0.0
H454 H 0.58596 0.05468 0.89265 0.0
H455 H 0.55723 0.08928 0.89606 0.0
H456 H 0.59824 0.11741 0.92983 0.0
H457 H 0.62736 0.08316 0.92641 0.0
H458 H 0.5914 0.07426 0.94785 0.0
H459 H 0.44849 0.8976 0.94511 0.0
H460 H 0.49979 0.86342 0.93651 0.0
H461 H 0.60636 0.99886 0.91337 0.0
C462 C 0.48988 0.0739 0.92964 0.0
C463 C 0.4456 0.06256 0.93842 0.0
C464 C 0.41772 0.01697 0.94678 0.0
C465 C 0.43255 0.98318 0.946 0.0
C466 C 0.47594 0.99527 0.93706 0.0
C467 C 0.50468 0.03987 0.92934 0.0
C468 C 0.55025 0.04405 0.92094 0.0
C469 C 0.55402 0.05432 0.89887 0.0
C470 C 0.59443 0.08197 0.93192 0.0
C471 C 0.54232 0.99483 0.92493 0.0
C472 C 0.49894 0.96695 0.93401 0.0
C473 C 0.48285 0.91942 0.93825 0.0
C474 C 0.51202 0.90015 0.9333 0.0
C475 C 0.55722 0.92845 0.92455 0.0
C476 C 0.5723 0.97644 0.92033 0.0
H477 H 0.55983 0.58855 0.49224 0.0
H478 H 0.5897 0.64222 0.43303 0.0
H479 H 0.55135 0.56011 0.42028 0.0
H480 H 0.58645 0.49645 0.48429 0.0
H481 H 0.54059 0.45477 0.50038 0.0
H482 H 0.56679 0.51727 0.50472 0.0
H483 H 0.48291 0.50927 0.50375 0.0
H484 H 0.45641 0.44665 0.49963 0.0
H485 H 0.44489 0.48222 0.48281 0.0
H486 H 0.50946 0.47122 0.41414 0.0
H487 H 0.46964 0.38382 0.41512 0.0
H488 H 0.4715 0.38834 0.47844 0.0
C489 C 0.55715 0.58288 0.47658 0.0
C490 C 0.57665 0.62174 0.46354 0.0
C491 C 0.57425 0.61293 0.44319 0.0
C492 C 0.55269 0.56644 0.43586 0.0
C493 C 0.5343 0.52892 0.44911 0.0
C494 C 0.53648 0.53668 0.46905 0.0
C495 C 0.51629 0.49043 0.4802 0.0
C496 C 0.55483 0.4897 0.49316 0.0
C497 C 0.47252 0.48163 0.49231 0.0
C498 C 0.50215 0.45534 0.46345 0.0
C499 C 0.51252 0.47822 0.44562 0.0
C500 C 0.50146 0.45308 0.42805 0.0
C501 C 0.47887 0.40344 0.42871 0.0
C502 C 0.468 0.37916 0.4468 0.0
C503 C 0.48026 0.4058 0.46437 0.0
H504 H 0.93962 0.5598 0.80725 0.0
H505 H 0.94336 0.56338 0.74393 0.0
H506 H 0.99625 0.52883 0.74407 0.0
H507 H 0.06183 0.59287 0.81404 0.0
H508 H 0.05151 0.55504 0.83481 0.0
H509 H 1.01156 0.57727 0.82988 0.0
H510 H 0.93954 0.49191 0.82912 0.0
H511 H 0.97914 0.46943 0.83435 0.0
H512 H 0.94105 0.44882 0.8131 0.0
H513 H 0.0506 0.4954 0.75111 0.0
H514 H 0.09944 0.46297 0.76445 0.0
H515 H 0.06212 0.48201 0.82331 0.0
C516 C 0.95061 0.5522 0.79341 0.0
C517 C 0.93664 0.56372 0.77551 0.0
C518 C 0.95323 0.55458 0.75777 0.0
C519 C 0.98343 0.53508 0.75773 0.0
C520 C 0.99731 0.52505 0.77559 0.0
C521 C 0.98125 0.53305 0.79312 0.0
C522 C 1.00267 0.52029 0.81027 0.0
C523 C 0.03373 0.56397 0.823 0.0
C524 C 0.96325 0.48023 0.82243 0.0
C525 C 0.03308 0.50371 0.79966 0.0
C526 C 0.02946 0.50679 0.77965 0.0
C527 C 0.05364 0.49288 0.76677 0.0
C528 C 0.08143 0.47455 0.77447 0.0
C529 C 0.08527 0.47023 0.79493 0.0
C530 C 0.06099 0.48567 0.80763 0.0
H531 H 0.42501 1.00195 0.13655 0.0
H532 H 0.39329 0.86529 0.11418 0.0
H533 H 0.47889 0.8987 0.10531 0.0
H534 H 0.51458 0.0751 0.10153 0.0
H535 H 0.55203 0.11923 0.11918 0.0
H536 H 0.48843 0.08502 0.12301 0.0
H537 H 0.5021 0.05837 0.15677 0.0
H538 H 0.56576 0.09261 0.15319 0.0
H539 H 0.53795 0.03041 0.15854 0.0
H540 H 0.56802 0.9488 0.09785 0.0
H541 H 0.65386 1.00696 0.096 0.0
H542 H 0.6294 0.11024 0.12576 0.0
C543 C 0.43608 0.97908 0.12973 0.0
C544 C 0.40237 0.93098 0.1258 0.0
C545 C 0.41846 0.9021 0.11719 0.0
C546 C 0.46694 0.92093 0.11208 0.0
C547 C 0.49917 0.96861 0.11602 0.0
C548 C 0.48445 0.99706 0.12497 0.0
C549 C 0.52652 0.04644 0.12856 0.0
C550 C 0.51998 0.08364 0.1174 0.0
C551 C 0.53349 0.05759 0.15057 0.0
C552 C 0.5674 0.04162 0.12011 0.0
C553 C 0.55066 0.99662 0.11269 0.0
C554 C 0.58138 0.98397 0.10372 0.0
C555 C 0.63035 0.01762 0.10261 0.0
C556 C 0.64894 0.06363 0.11067 0.0
C557 C 0.61658 0.07554 0.11947 0.0
H558 H 0.28105 0.26381 0.38352 0.0
H559 H 0.36111 0.19068 0.37669 0.0
H560 H 0.35793 0.19746 0.34064 0.0
H561 H 0.20183 0.20767 0.34283 0.0
H562 H 0.19925 0.25964 0.33607 0.0
H563 H 0.20955 0.25061 0.36118 0.0
H564 H 0.28729 0.33206 0.36159 0.0
H565 H 0.27714 0.34144 0.33651 0.0
H566 H 0.33263 0.34494 0.34345 0.0
H567 H 0.34837 0.2154 0.30528 0.0
H568 H 0.32956 0.23842 0.27354 0.0
H569 H 0.24996 0.29423 0.30336 0.0
C570 C 0.29832 0.24953 0.37447 0.0
C571 C 0.32195 0.2272 0.38294 0.0
C572 C 0.34314 0.20816 0.37054 0.0
C573 C 0.34145 0.21187 0.35006 0.0
C574 C 0.31768 0.23397 0.34221 0.0
C575 C 0.29611 0.25209 0.35406 0.0
C576 C 0.27149 0.27281 0.34202 0.0
C577 C 0.21732 0.24608 0.34575 0.0
C578 C 0.29346 0.32597 0.34614 0.0
C579 C 0.28288 0.26402 0.32146 0.0
C580 C 0.30996 0.24196 0.32192 0.0
C581 C 0.32679 0.23219 0.3048 0.0
C582 C 0.31597 0.24547 0.28684 0.0
C583 C 0.28788 0.26762 0.28598 0.0
C584 C 0.27074 0.27655 0.30355 0.0
H585 H 0.9161 0.2222 0.67666 0.0
H586 H 0.04954 0.30222 0.64511 0.0
H587 H 0.09382 0.32468 0.67619 0.0
H588 H 0.94948 0.30726 0.71664 0.0
H589 H 0.91943 0.26272 0.73511 0.0
H590 H 0.89772 0.25158 0.71029 0.0
H591 H 0.90425 0.17576 0.70961 0.0
H592 H 0.92625 0.18688 0.73438 0.0
H593 H 0.96059 0.17966 0.71532 0.0
H594 H 0.12492 0.33511 0.71055 0.0
H595 H 0.13927 0.34057 0.7463 0.0
H596 H 0.9864 0.26038 0.75626 0.0
C597 C 0.95458 0.24455 0.67636 0.0
C598 C 0.97926 0.26036 0.65838 0.0
C599 C 0.02967 0.28985 0.65863 0.0
C600 C 0.05531 0.30265 0.67625 0.0
C601 C 0.03019 0.28644 0.69368 0.0
C602 C 0.98089 0.25872 0.69396 0.0
C603 C 0.96283 0.24784 0.7149 0.0
C604 C 0.93045 0.2686 0.7195 0.0
C605 C 0.93695 0.19435 0.71877 0.0
C606 C 1.00961 0.27339 0.72619 0.0
C607 C 0.04807 0.29482 0.71363 0.0
C608 C 0.09505 0.31892 0.72055 0.0
C609 C 0.10293 0.32171 0.74085 0.0
C610 C 0.06405 0.30136 0.75401 0.0
C611 C 1.01683 0.27685 0.74651 0.0
H612 H 0.78446 0.01921 0.04649 0.0
H613 H 0.83067 0.16812 0.04101 0.0
H614 H 0.81844 0.15789 1.00502 0.0
H615 H 0.84288 0.01176 1.00271 0.0
H616 H 0.79609 0.95264 0.99698 0.0
H617 H 0.80775 0.97215 1.02205 0.0
H618 H 0.71933 0.95024 0.02622 0.0
H619 H 0.70742 0.93076 1.00116 0.0
H620 H 0.69406 0.97502 1.00978 0.0
H621 H 0.79613 0.12883 0.96949 0.0
H622 H 0.77331 0.08634 0.9378 0.0
H623 H 0.74794 0.95799 0.96681 0.0
C624 C 0.79188 0.04976 0.03775 0.0
C625 C 0.80796 0.09444 0.04657 0.0
C626 C 0.81817 0.1336 0.03457 0.0
C627 C 0.81121 0.12801 1.01414 0.0
C628 C 0.79495 0.08322 1.00595 0.0
C629 C 0.78613 0.04498 1.01743 0.0
C630 C 0.77037 1.00085 1.0052 0.0
C631 C 0.80643 0.98333 1.00683 0.0
C632 C 0.71979 0.96193 1.01094 0.0
C633 C 0.77093 0.01982 0.98495 0.0
C634 C 0.78476 0.0673 0.98566 0.0
C635 C 0.78584 0.09185 0.96882 0.0
C636 C 0.77267 0.06737 0.95088 0.0
C637 C 0.75927 0.01897 0.9498 0.0
C638 C 0.75867 0.99513 0.96711 0.0
H639 H 0.73936 0.78467 0.41898 0.0
H640 H 0.81445 0.72138 0.44676 0.0
H641 H 0.83905 0.70745 0.41447 0.0
H642 H 0.69362 0.70196 0.37913 0.0
H643 H 0.69911 0.7446 0.36111 0.0
H644 H 0.69011 0.75316 0.38644 0.0
H645 H 0.7666 0.83557 0.38601 0.0
H646 H 0.77567 0.82735 0.36064 0.0
H647 H 0.82233 0.8408 0.37823 0.0
H648 H 0.85558 0.69974 0.37914 0.0
H649 H 0.8598 0.69604 0.34308 0.0
H650 H 0.77007 0.75932 0.33763 0.0
C651 C 0.7616 0.76861 0.41819 0.0
C652 C 0.77543 0.75455 0.4354 0.0
C653 C 0.80355 0.73254 0.43378 0.0
C654 C 0.81779 0.72451 0.41549 0.0
C655 C 0.80312 0.73804 0.39877 0.0
C656 C 0.77542 0.75937 0.39988 0.0
C657 C 0.76252 0.76799 0.37952 0.0
C658 C 0.70811 0.74027 0.37637 0.0
C659 C 0.78301 0.82109 0.37589 0.0
C660 C 0.78737 0.74835 0.3669 0.0
C661 C 0.81094 0.73165 0.37832 0.0
C662 C 0.83709 0.71256 0.37003 0.0
C663 C 0.8393 0.71056 0.34953 0.0
C664 C 0.81502 0.72695 0.3375 0.0
C665 C 0.78863 0.74597 0.34641 0.0
H666 H 0.09123 0.78746 0.63514 0.0
H667 H 0.95921 0.75393 0.60557 0.0
H668 H 0.91726 0.73516 0.63726 0.0
H669 H 0.0371 0.69339 0.67018 0.0
H670 H 0.07602 0.72691 0.69007 0.0
H671 H 0.09686 0.74066 0.66522 0.0
H672 H 0.11749 0.82737 0.6704 0.0
H673 H 0.09705 0.81395 0.69531 0.0
H674 H 0.072 0.8394 0.67912 0.0
H675 H 0.88902 0.71973 0.67228 0.0
H676 H 0.87674 0.70752 0.70799 0.0
H677 H 0.02543 0.74653 0.71505 0.0
C678 C 0.05368 0.77685 0.63542 0.0
C679 C 0.02859 0.77258 0.61785 0.0
C680 C 0.97921 0.75756 0.6188 0.0
C681 C 0.95502 0.74681 0.63676 0.0
C682 C 0.98042 0.75062 0.65378 0.0
C683 C 0.02864 0.76514 0.6533 0.0
C684 C 0.04688 0.76441 0.67372 0.0
C685 C 0.0653 0.72925 0.67486 0.0
C686 C 0.08565 0.81425 0.68001 0.0
C687 C 1.00153 0.74742 0.68568 0.0
C688 C 0.96367 0.73997 0.67389 0.0
C689 C 0.91839 0.72523 0.68164 0.0
C690 C 0.91167 0.71828 0.70195 0.0
C691 C 0.94984 0.72549 0.71434 0.0
C692 C 0.99526 0.73999 0.70597 0.0
H693 H 0.26518 0.01531 1.0012 0.0
H694 H 0.36484 0.16557 1.00647 0.0
H695 H 0.36711 0.15655 0.04245 0.0
H696 H 0.1979 1.00619 0.04481 0.0
H697 H 0.18736 0.94811 0.05093 0.0
H698 H 0.19482 0.96659 0.02575 0.0
H699 H 0.26363 0.94814 1.02207 0.0
H700 H 0.25642 0.92967 0.04724 0.0
H701 H 0.31382 0.97522 0.03859 0.0
H702 H 0.36112 0.12938 0.07786 0.0
H703 H 0.34255 0.08856 0.10979 0.0
H704 H 0.24172 0.95704 0.08151 0.0
C705 C 0.2877 0.04636 1.00991 0.0
C706 C 0.31536 0.09116 1.00102 0.0
C707 C 0.34356 0.13098 1.01296 0.0
C708 C 0.34508 0.12609 0.03339 0.0
C709 C 0.31746 0.08128 0.04167 0.0
C710 C 0.28879 0.04225 0.03028 0.0
C711 C 0.26127 0.99828 0.04273 0.0
C712 C 0.20713 0.97865 0.04095 0.0
C713 C 0.2746 0.96062 0.03733 0.0
C714 C 0.27931 0.01837 0.06296 0.0
C715 C 0.31207 0.06624 0.06201 0.0
C716 C 0.33516 0.09207 0.07873 0.0
C717 C 0.32447 0.06852 0.09681 0.0
C718 C 0.29042 0.01971 0.09818 0.0
C719 C 0.26742 0.99449 0.08098 0.0
H720 H 0.10541 0.12277 0.23518 0.0
H721 H 0.21944 0.09209 0.24627 0.0
H722 H 0.16145 0.01492 0.25986 0.0
H723 H 0.03987 0.07049 0.279 0.0
H724 H 0.98191 0.04652 0.2677 0.0
H725 H 0.03205 0.09908 0.25794 0.0
H726 H 1.01779 0.05919 0.22395 0.0
H727 H 0.96742 1.00653 0.23355 0.0
H728 H 1.01545 1.00309 0.22175 0.0
H729 H 0.09235 0.94239 0.27337 0.0
H730 H 1.0148 0.87726 0.28493 0.0
H731 H 0.94522 0.95418 0.2654 0.0
C732 C 0.11806 0.09976 0.24046 0.0
C733 C 0.16696 0.11346 0.23943 0.0
C734 C 0.18213 0.08221 0.24644 0.0
C735 C 0.14949 0.03832 0.25437 0.0
C736 C 0.1017 0.02602 0.25525 0.0
C737 C 0.08585 0.05561 0.24842 0.0
C738 C 0.03243 0.03367 0.25125 0.0
C739 C 1.02091 0.06427 0.26478 0.0
C740 C 1.00677 0.02511 0.23144 0.0
C741 C 1.02107 0.98753 0.26096 0.0
C742 C 0.06156 0.98385 0.26307 0.0
C743 C 0.06024 0.94463 0.2717 0.0
C744 C 1.01614 0.90782 0.27818 0.0
C745 C 0.97411 0.91068 0.27611 0.0
C746 C 0.97683 0.95124 0.26743 0.0
H747 H 0.04403 0.12631 0.57879 0.0
H748 H 0.93139 0.05035 0.62109 0.0
H749 H 0.92818 0.97557 0.61157 0.0
H750 H 0.99742 0.0322 0.54156 0.0
H751 H 0.05633 0.04516 0.53428 0.0
H752 H 0.04703 0.09172 0.5434 0.0
H753 H 0.11188 0.1121 0.56999 0.0
H754 H 0.12155 0.06592 0.56087 0.0
H755 H 0.10659 0.06631 0.58624 0.0
H756 H 0.94295 0.91165 0.59964 0.0
H757 H 0.97363 0.86213 0.58579 0.0
H758 H 0.07534 0.98043 0.55081 0.0
C759 C 1.01882 0.0939 0.58606 0.0
C760 C 0.98838 0.09371 0.60084 0.0
C761 C 0.95499 0.05074 0.60977 0.0
C762 C 0.95286 1.00836 0.60441 0.0
C763 C 0.98375 1.00983 0.58986 0.0
C764 C 1.0158 0.05143 0.58069 0.0
C765 C 0.04625 0.04387 0.566 0.0
C766 C 0.03613 0.05382 0.54508 0.0
C767 C 0.09971 0.0738 0.57109 0.0
C768 C 0.02786 0.99186 0.56901 0.0
C769 C 0.99142 0.97272 0.58263 0.0
C770 C 0.97099 0.92602 0.58877 0.0
C771 C 0.98885 0.89835 0.58096 0.0
C772 C 0.02674 0.91767 0.56727 0.0
C773 C 0.04574 0.96467 0.56097 0.0
H774 H 0.06854 0.02138 0.95705 0.0
H775 H 0.17371 0.12845 0.91851 0.0
H776 H 0.10949 0.13124 0.9005 0.0
H777 H 0.98374 0.95746 0.92028 0.0
H778 H 0.93231 0.9433 0.93518 0.0
H779 H 0.98674 0.95265 0.94644 0.0
H780 H 0.98844 0.0177 0.96874 0.0
H781 H 0.93361 1.00806 0.95774 0.0
H782 H 0.98549 0.06639 0.95784 0.0
H783 H 0.0335 0.11821 0.88496 0.0
H784 H 0.95107 0.09457 0.87486 0.0
H785 H 0.89564 0.99487 0.92291 0.0
C786 C 0.0782 0.04563 0.94491 0.0
C787 C 0.12645 0.07471 0.93936 0.0
C788 C 0.13736 0.10627 0.92341 0.0
C789 C 0.10097 0.10779 0.91287 0.0
C790 C 0.05383 0.07749 0.91837 0.0
C791 C 0.04236 0.04735 0.93413 0.0
C792 C 0.98879 0.01753 0.9367 0.0
C793 C 0.97193 0.96461 0.93451 0.0
C794 C 0.97317 0.02807 0.95642 0.0
C795 C 0.97196 0.03522 0.91976 0.0
C796 C 1.01003 0.06986 0.90939 0.0
C797 C 1.00339 0.09138 0.89307 0.0
C798 C 0.95653 0.07775 0.88744 0.0
C799 C 0.91698 0.04289 0.89808 0.0
C800 C 0.92502 0.02109 0.91431 0.0
H801 H 0.97321 0.86955 0.4811 0.0
H802 H 0.89561 0.93855 0.50088 0.0
H803 H 0.96453 0.01583 0.49224 0.0
H804 H 0.09569 0.96832 0.49718 0.0
H805 H 0.12349 0.95826 0.47632 0.0
H806 H 0.07161 0.90954 0.48737 0.0
H807 H 0.02889 0.88918 0.45369 0.0
H808 H 0.08001 0.93821 0.44263 0.0
H809 H 0.02222 0.93369 0.44083 0.0
H810 H 0.0349 0.08289 0.47631 0.0
H811 H 0.1047 0.13628 0.45628 0.0
H812 H 0.13844 0.02477 0.44784 0.0
C813 C 0.97111 0.90084 0.48431 0.0
C814 C 0.92853 0.89769 0.49149 0.0
C815 C 0.92735 0.93982 0.49505 0.0
C816 C 0.96655 0.98399 0.49038 0.0
C817 C 1.00707 0.98554 0.4825 0.0
C818 C 1.01007 0.94519 0.47988 0.0
C819 C 0.05611 0.95611 0.46967 0.0
C820 C 0.08865 0.94755 0.48345 0.0
C821 C 0.04617 0.92761 0.45058 0.0
C822 C 0.07682 1.00828 0.46566 0.0
C823 C 0.04839 0.0247 0.47354 0.0
C824 C 0.05785 0.07065 0.47038 0.0
C825 C 0.09713 0.10048 0.45877 0.0
C826 C 0.12638 0.08422 0.45037 0.0
C827 C 0.11665 0.03788 0.45422 0.0
H828 H 0.95415 0.89855 0.78625 0.0
H829 H 0.06941 0.94808 0.744 0.0
H830 H 0.08916 0.03005 0.74995 0.0
H831 H 0.91969 0.98925 0.77283 0.0
H832 H 0.90381 0.99251 0.79782 0.0
H833 H 0.89766 0.93822 0.78838 0.0
H834 H 0.95046 0.93926 0.81748 0.0
H835 H 0.95873 0.99509 0.82588 0.0
H836 H 1.00994 0.98911 0.82027 0.0
H837 H 0.10207 0.10641 0.76267 0.0
H838 H 0.09896 0.17348 0.77774 0.0
H839 H 0.97332 0.0756 0.8106 0.0
C840 C 0.98268 0.92655 0.77791 0.0
C841 C 1.01086 0.91704 0.76495 0.0
C842 C 0.04813 0.95469 0.75437 0.0
C843 C 0.05956 1.00136 0.75758 0.0
C844 C 0.03273 1.0098 0.77114 0.0
C845 C 0.99426 0.97356 0.78076 0.0
C846 C 0.97139 0.99282 0.79454 0.0
C847 C 0.92009 0.9773 0.78801 0.0
C848 C 0.97274 0.97819 0.8158 0.0
C849 C 1.00414 0.04539 0.7916 0.0
C850 C 0.0393 0.05431 0.77806 0.0
C851 C 0.07444 0.10003 0.77316 0.0
C852 C 0.07276 0.13785 0.78195 0.0
C853 C 0.03599 0.12955 0.79532 0.0
C854 C 1.00164 0.08273 0.80034 0.0
H855 H 0.9834 0.0222 0.09076 0.0
H856 H 0.992 0.13624 0.12663 0.0
H857 H 0.05882 0.13938 0.14477 0.0
H858 H 1.00288 0.96161 0.1293 0.0
H859 H 0.03823 0.9441 0.11494 0.0
H860 H 0.99356 0.95326 0.10327 0.0
H861 H 0.05731 0.01416 0.07967 0.0
H862 H 0.10204 1.00462 0.09106 0.0
H863 H 0.11074 0.06347 0.08957 0.0
H864 H 0.12045 0.12613 0.16107 0.0
H865 H 0.17917 0.10311 0.17158 0.0
H866 H 0.12892 0.99639 0.12601 0.0
C867 C 0.99915 0.0479 0.1024 0.0
C868 C 0.98176 0.07875 0.10713 0.0
C869 C 1.00438 0.11236 0.12237 0.0
C870 C 0.04219 0.11408 0.13304 0.0
C871 C 0.05687 0.08182 0.1285 0.0
C872 C 0.0365 0.04973 0.1134 0.0
C873 C 0.05858 0.0185 0.11166 0.0
C874 C 1.02107 0.96628 0.11499 0.0
C875 C 0.08366 0.02564 0.09182 0.0
C876 C 0.09423 0.0378 0.12829 0.0
C877 C 0.09264 0.0743 0.13782 0.0
C878 C 0.1223 0.09783 0.15363 0.0
C879 C 0.15541 0.08451 0.1595 0.0
C880 C 0.15849 0.04799 0.14962 0.0
C881 C 0.12688 0.0239 0.13403 0.0
H882 H 0.92647 0.14272 0.17398 0.0
H883 H 0.95831 0.22845 0.12173 0.0
H884 H 0.04046 0.28049 0.13386 0.0
H885 H 0.99838 0.23931 0.208 0.0
H886 H 1.01875 0.20602 0.22197 0.0
H887 H 0.96163 0.17599 0.20979 0.0
H888 H 0.98695 0.1225 0.19144 0.0
H889 H 0.04344 0.15199 0.20408 0.0
H890 H 0.04197 0.14951 0.17779 0.0
H891 H 0.11923 0.32381 0.15144 0.0
H892 H 0.19102 0.35286 0.1717 0.0
H893 H 0.11292 0.23862 0.21293 0.0
C894 C 0.95052 0.1728 0.16516 0.0
C895 C 0.93505 0.18162 0.14686 0.0
C896 C 0.96849 0.22088 0.13576 0.0
C897 C 1.01547 0.25072 0.14258 0.0
C898 C 0.02939 0.24104 0.16057 0.0
C899 C 0.99809 0.2028 0.17169 0.0
C900 C 0.0231 0.19982 0.19026 0.0
C901 C 0.99902 0.20563 0.20859 0.0
C902 C 0.02389 0.15318 0.19092 0.0
C903 C 0.07349 0.24213 0.18774 0.0
C904 C 0.07574 0.26548 0.17055 0.0
C905 C 0.11776 0.30559 0.16485 0.0
C906 C 0.1587 0.32191 0.17663 0.0
C907 C 0.15861 0.29845 0.19415 0.0
C908 C 0.11472 0.25796 0.19982 0.0
H909 H 0.85328 0.10164 0.54328 0.0
H910 H 0.80505 0.06435 0.60316 0.0
H911 H 0.76577 0.97955 0.59424 0.0
H912 H 0.75044 1.00728 0.51889 0.0
H913 H 0.78466 0.99745 0.50058 0.0
H914 H 0.80776 0.05518 0.51136 0.0
H915 H 0.88476 0.055 0.52167 0.0
H916 H 0.86195 0.99739 0.51081 0.0
H917 H 0.88011 1.00678 0.53611 0.0
H918 H 0.72986 0.89856 0.57863 0.0
H919 H 0.70541 0.82748 0.55884 0.0
H920 H 0.78039 0.91476 0.50874 0.0
C921 C 0.83398 0.07565 0.5545 0.0
C922 C 0.83157 0.09011 0.57396 0.0
C923 C 0.80709 0.05461 0.5882 0.0
C924 C 0.78463 1.00622 0.58321 0.0
C925 C 0.78751 0.99332 0.56394 0.0
C926 C 0.81216 0.027 0.54984 0.0
C927 C 0.81166 1.0034 0.53043 0.0
C928 C 0.78717 0.01663 0.51436 0.0
C929 C 0.86265 0.01642 0.5244 0.0
C930 C 0.78201 0.95111 0.53567 0.0
C931 C 0.76842 0.9464 0.5551 0.0
C932 C 0.74059 0.90203 0.56346 0.0
C933 C 0.72671 0.86154 0.55193 0.0
C934 C 0.74057 0.86463 0.532 0.0
C935 C 0.7687 0.91057 0.52381 0.0
H936 H 0.83508 0.7726 0.79584 0.0
H937 H 0.88121 0.72594 0.84657 0.0
H938 H 0.8447 0.75874 0.86821 0.0
H939 H 0.85252 0.88214 0.81754 0.0
H940 H 0.80006 0.87845 0.80656 0.0
H941 H 0.8304 0.85177 0.79456 0.0
H942 H 0.75163 0.77141 0.79387 0.0
H943 H 0.72111 0.79782 0.80593 0.0
H944 H 0.71998 0.74667 0.81639 0.0
H945 H 0.80562 0.79936 0.88528 0.0
H946 H 0.76271 0.84057 0.89584 0.0
H947 H 0.73618 0.85818 0.83511 0.0
C948 C 0.83734 0.76911 0.81148 0.0
C949 C 0.86137 0.74608 0.81922 0.0
C950 C 0.86316 0.74279 0.83993 0.0
C951 C 0.84248 0.7616 0.85253 0.0
C952 C 0.81918 0.78377 0.84455 0.0
C953 C 0.81605 0.78739 0.8245 0.0
C954 C 0.78805 0.81261 0.81999 0.0
C955 C 0.81963 0.85899 0.80901 0.0
C956 C 0.74248 0.78019 0.80835 0.0
C957 C 0.77602 0.82224 0.84054 0.0
C958 C 0.7949 0.80573 0.85447 0.0
C959 C 0.79025 0.81197 0.87444 0.0
C960 C 0.76569 0.8355 0.88037 0.0
C961 C 0.74506 0.85218 0.86648 0.0
C962 C 0.75051 0.84517 0.84623 0.0
H963 H 0.1575 0.86927 0.21592 0.0
H964 H 0.1128 0.84446 0.15517 0.0
H965 H 0.0285 0.79756 0.16577 0.0
H966 H 0.06773 0.75453 0.23489 0.0
H967 H 0.05877 0.77814 0.2573 0.0
H968 H 0.11582 0.80817 0.24514 0.0
H969 H 0.11134 0.88518 0.24386 0.0
H970 H 0.05481 0.85494 0.25634 0.0
H971 H 0.05944 0.8836 0.23328 0.0
H972 H 0.94841 0.75277 0.18297 0.0
H973 H 0.8789 0.7182 0.20477 0.0
H974 H 0.97284 0.77394 0.25518 0.0
C975 C 0.13007 0.85357 0.20479 0.0
C976 C 0.14246 0.86035 0.18455 0.0
C977 C 0.10488 0.83979 0.17066 0.0
C978 C 0.05667 0.81296 0.17659 0.0
C979 C 0.04586 0.80709 0.19657 0.0
C980 C 0.08149 0.82714 0.21049 0.0
C981 C 0.05984 0.81685 0.23103 0.0
C982 C 0.07654 0.78769 0.24278 0.0
C983 C 0.07211 0.86292 0.24174 0.0
C984 C 1.00643 0.78791 0.22654 0.0
C985 C 0.99947 0.78246 0.20653 0.0
C986 C 0.95367 0.75705 0.19863 0.0
C987 C 0.91409 0.73728 0.21131 0.0
C988 C 0.91945 0.74285 0.23196 0.0
C989 C 0.96683 0.76858 0.23959 0.0
H990 H 0.21955 0.96729 0.56292 0.0
H991 H 0.19189 0.85703 0.52086 0.0
H992 H 0.2245 0.91725 0.49453 0.0
H993 H 0.18375 0.03126 0.53203 0.0
H994 H 0.22784 0.08843 0.5412 0.0
H995 H 0.20572 0.03725 0.55669 0.0
H996 H 0.29217 0.05435 0.56256 0.0
H997 H 0.31468 0.10583 0.5472 0.0
H998 H 0.32951 0.06063 0.54189 0.0
H999 H 0.25701 0.99158 0.47215 0.0
H1000 H 0.28706 0.07014 0.45683 0.0
H1001 H 0.29242 0.13054 0.51393 0.0
C1002 C 0.22117 0.95559 0.54827 0.0
C1003 C 0.20359 0.90697 0.54419 0.0
C1004 C 0.20567 0.89382 0.52458 0.0
C1005 C 0.22392 0.92792 0.50946 0.0
C1006 C 0.24002 0.97535 0.51403 0.0
C1007 C 0.23886 0.98901 0.53305 0.0
C1008 C 0.25616 0.04161 0.5342 0.0
C1009 C 0.21599 0.05012 0.54146 0.0
C1010 C 0.30078 0.0671 0.54723 0.0
C1011 C 0.26807 0.05591 0.51291 0.0
C1012 C 0.25827 0.01725 0.50141 0.0
C1013 C 0.26512 0.02195 0.48116 0.0
C1014 C 0.28235 0.06692 0.47254 0.0
C1015 C 0.29295 0.10719 0.48406 0.0
C1016 C 0.28558 0.10104 0.50458 0.0
H1017 H 0.256 0.15009 0.87296 0.0
H1018 H 0.29494 0.22261 0.9289 0.0
H1019 H 0.26272 0.27327 0.918 0.0
H1020 H 0.28245 0.25309 0.84288 0.0
H1021 H 0.23217 0.22071 0.82677 0.0
H1022 H 0.25981 0.19105 0.8385 0.0
H1023 H 0.17822 0.12958 0.85317 0.0
H1024 H 0.15053 0.15897 0.84127 0.0
H1025 H 0.14476 0.14971 0.86731 0.0
H1026 H 0.22388 0.31502 0.9015 0.0
H1027 H 0.18051 0.34356 0.88128 0.0
H1028 H 0.16506 0.24519 0.83533 0.0
C1029 C 0.25847 0.17709 0.88286 0.0
C1030 C 0.27893 0.18238 0.90187 0.0
C1031 C 0.28016 0.21773 0.91431 0.0
C1032 C 0.26174 0.24677 0.9082 0.0
C1033 C 0.24175 0.24043 0.88952 0.0
C1034 C 0.2399 0.2064 0.877 0.0
C1035 C 0.21515 0.20619 0.85786 0.0
C1036 C 0.24945 0.21849 0.84047 0.0
C1037 C 0.16947 0.15826 0.85472 0.0
C1038 C 0.20328 0.24533 0.86157 0.0
C1039 C 0.21915 0.26453 0.87997 0.0
C1040 C 0.21157 0.30026 0.88707 0.0
C1041 C 0.18676 0.31637 0.87536 0.0
C1042 C 0.16937 0.29732 0.85647 0.0
C1043 C 0.17842 0.2614 0.84947 0.0
H1044 H 0.40099 0.28617 0.21877 0.0
H1045 H 0.41862 0.30797 0.15631 0.0
H1046 H 0.45118 0.25363 0.15465 0.0
H1047 H 0.49803 0.25081 0.22853 0.0
H1048 H 0.45762 0.20588 0.2452 0.0
H1049 H 0.4579 0.26108 0.24329 0.0
H1050 H 0.36714 0.21517 0.23608 0.0
H1051 H 0.36648 0.16037 0.23778 0.0
H1052 H 0.34514 0.17424 0.21581 0.0
H1053 H 0.46173 0.18528 0.1582 0.0
H1054 H 0.43175 0.1015 0.16364 0.0
H1055 H 0.39588 0.11505 0.22345 0.0
C1056 C 0.41444 0.28153 0.20494 0.0
C1057 C 0.40908 0.3022 0.18774 0.0
C1058 C 0.42398 0.29341 0.16965 0.0
C1059 C 0.44276 0.26289 0.1687 0.0
C1060 C 0.44528 0.24094 0.1859 0.0
C1061 C 0.43096 0.24968 0.20372 0.0
C1062 C 0.42331 0.21262 0.21879 0.0
C1063 C 0.46152 0.23388 0.2349 0.0
C1064 C 0.37252 0.18924 0.22758 0.0
C1065 C 0.43051 0.17876 0.20616 0.0
C1066 C 0.44664 0.1975 0.18769 0.0
C1067 C 0.45015 0.17072 0.17269 0.0
C1068 C 0.43305 0.1228 0.17603 0.0
C1069 C 0.41117 0.10165 0.19409 0.0
C1070 C 0.4129 0.13062 0.20967 0.0
H1071 H 1.00339 0.25079 0.51195 0.0
H1072 H 0.08865 0.37057 0.54979 0.0
H1073 H 0.15783 0.39481 0.52847 0.0
H1074 H 0.078 0.21457 0.51078 0.0
H1075 H 0.07102 0.1939 0.48588 0.0
H1076 H 0.02323 0.19705 0.49763 0.0
H1077 H 0.02224 0.25114 0.47022 0.0
H1078 H 0.06946 0.24713 0.45792 0.0
H1079 H 0.07668 0.30417 0.46372 0.0
H1080 H 0.22193 0.39141 0.51087 0.0
H1081 H 0.27368 0.36287 0.497 0.0
H1082 H 0.14923 0.24189 0.47219 0.0
C1083 C 0.03611 0.28332 0.51518 0.0
C1084 C 0.04068 0.3085 0.53254 0.0
C1085 C 0.08389 0.35094 0.53641 0.0
C1086 C 0.12365 0.365 0.52436 0.0
C1087 C 0.1195 0.3364 0.5085 0.0
C1088 C 0.07639 0.29682 0.50361 0.0
C1089 C 0.08325 0.26616 0.48887 0.0
C1090 C 0.06271 0.21498 0.49626 0.0
C1091 C 0.06164 0.26725 0.469 0.0
C1092 C 0.13709 0.29188 0.48792 0.0
C1093 C 0.15738 0.33336 0.49864 0.0
C1094 C 0.20655 0.35986 0.50192 0.0
C1095 C 0.23558 0.34326 0.4942 0.0
C1096 C 0.21497 0.3001 0.48383 0.0
C1097 C 0.16548 0.27491 0.48023 0.0
H1098 H 0.90483 0.2201 0.81779 0.0
H1099 H 0.88233 0.28382 0.86905 0.0
H1100 H 0.79459 0.23376 0.86456 0.0
H1101 H 0.78712 0.19192 0.79058 0.0
H1102 H 0.78168 0.13746 0.78174 0.0
H1103 H 0.83997 0.18911 0.78461 0.0
H1104 H 0.8664 0.14202 0.8068 0.0
H1105 H 0.80919 0.09065 0.80355 0.0
H1106 H 0.83083 0.11175 0.82792 0.0
H1107 H 0.71541 0.16582 0.85997 0.0
H1108 H 0.66185 0.08173 0.86218 0.0
H1109 H 0.72958 0.05914 0.81182 0.0
C1110 C 0.88112 0.22401 0.82775 0.0
C1111 C 0.89942 0.25466 0.84389 0.0
C1112 C 0.86831 0.25982 0.85673 0.0
C1113 C 0.8187 0.23226 0.85399 0.0
C1114 C 0.8014 0.20089 0.83812 0.0
C1115 C 0.83199 0.19684 0.82517 0.0
C1116 C 0.80602 0.15408 0.81205 0.0
C1117 C 0.80354 0.16906 0.791 0.0
C1118 C 0.82945 0.12281 0.81268 0.0
C1119 C 0.75721 0.13069 0.82152 0.0
C1120 C 0.75438 0.15998 0.83555 0.0
C1121 C 0.717 0.14299 0.84888 0.0
C1122 C 0.68615 0.09428 0.84991 0.0
C1123 C 0.6938 0.06305 0.83793 0.0
C1124 C 0.72466 0.08211 0.82176 0.0
H1125 H 0.76168 0.75978 0.19343 0.0
H1126 H 0.66461 0.76866 0.23456 0.0
H1127 H 0.63779 0.80285 0.20912 0.0
H1128 H 0.81039 0.86454 0.18015 0.0
H1129 H 0.81988 0.85985 0.15446 0.0
H1130 H 0.81386 0.81466 0.17083 0.0
H1131 H 0.74343 0.75085 0.15055 0.0
H1132 H 0.74996 0.79593 0.13359 0.0
H1133 H 0.69295 0.75803 0.1449 0.0
H1134 H 0.64338 0.86019 0.18551 0.0
H1135 H 0.67875 0.93251 0.16543 0.0
H1136 H 0.77819 0.89486 0.14038 0.0
C1137 C 0.73325 0.76712 0.1967 0.0
C1138 C 0.71562 0.76225 0.21587 0.0
C1139 C 0.67834 0.77174 0.21987 0.0
C1140 C 0.66278 0.79114 0.20543 0.0
C1141 C 0.68489 0.80073 0.18718 0.0
C1142 C 0.71881 0.78808 0.18261 0.0
C1143 C 0.74611 0.81261 0.16429 0.0
C1144 C 0.80071 0.83952 0.16767 0.0
C1145 C 0.73225 0.77724 0.14733 0.0
C1146 C 0.72711 0.84582 0.16096 0.0
C1147 C 0.68988 0.83654 0.17355 0.0
C1148 C 0.67129 0.86679 0.17513 0.0
C1149 C 0.69189 0.90797 0.1639 0.0
C1150 C 0.73127 0.9188 0.15171 0.0
C1151 C 0.74808 0.88684 0.14975 0.0
H1152 H 0.77592 0.63989 0.49576 0.0
H1153 H 0.76241 0.61085 0.55771 0.0
H1154 H 0.81627 0.5776 0.55461 0.0
H1155 H 0.81 0.54449 0.47924 0.0
H1156 H 0.85261 0.58709 0.46241 0.0
H1157 H 0.79681 0.58543 0.46697 0.0
H1158 H 0.84267 0.674 0.47623 0.0
H1159 H 0.89777 0.67601 0.47148 0.0
H1160 H 0.88765 0.69416 0.49511 0.0
H1161 H 0.88458 0.56755 0.54704 0.0
H1162 H 0.97064 0.60926 0.54103 0.0
H1163 H 0.94916 0.65506 0.48487 0.0
C1164 C 0.78247 0.62402 0.50842 0.0
C1165 C 0.7643 0.62638 0.52683 0.0
C1166 C 0.77522 0.60808 0.54342 0.0
C1167 C 0.80532 0.58868 0.54165 0.0
C1168 C 0.8247 0.58877 0.52329 0.0
C1169 C 0.81394 0.60673 0.50695 0.0
C1170 C 0.84927 0.61706 0.49056 0.0
C1171 C 0.82576 0.58136 0.47381 0.0
C1172 C 0.87063 0.66831 0.48298 0.0
C1173 C 0.8856 0.60875 0.50113 0.0
C1174 C 0.86837 0.58783 0.51924 0.0
C1175 C 0.89798 0.58331 0.53287 0.0
C1176 C 0.94713 0.60659 0.52918 0.0
C1177 C 0.96577 0.63684 0.51284 0.0
C1178 C 0.93485 0.63208 0.49743 0.0
H1179 H 0.15172 0.89252 0.907 0.0
H1180 H 0.28786 0.93473 0.87961 0.0
H1181 H 0.25181 0.85923 0.86142 0.0
H1182 H 0.10793 0.75764 0.90688 0.0
H1183 H 0.04775 0.74479 0.90209 0.0
H1184 H 0.08693 0.79483 0.9171 0.0
H1185 H 0.07297 0.85049 0.89444 0.0
H1186 H 0.03322 0.8007 0.8799 0.0
H1187 H 0.08361 0.85043 0.86855 0.0
H1188 H 0.19887 0.79402 0.84032 0.0
H1189 H 0.13407 0.75097 0.81667 0.0
H1190 H 0.03116 0.74289 0.85916 0.0
C1191 C 0.17383 0.88505 0.89743 0.0
C1192 C 0.22196 0.91896 0.89431 0.0
C1193 C 0.25061 0.90877 0.88194 0.0
C1194 C 0.23063 0.86579 0.87185 0.0
C1195 C 0.18244 0.83311 0.87482 0.0
C1196 C 0.15451 0.84204 0.88754 0.0
C1197 C 0.10236 0.8052 0.88577 0.0
C1198 C 0.08526 0.77375 0.90405 0.0
C1199 C 0.07131 0.82809 0.8819 0.0
C1200 C 0.10454 0.77797 0.86829 0.0
C1201 C 0.15128 0.79303 0.86278 0.0
C1202 C 0.16221 0.78054 0.8448 0.0
C1203 C 0.1251 0.75587 0.83142 0.0
C1204 C 0.07801 0.74434 0.83623 0.0
C1205 C 0.06716 0.75144 0.85541 0.0
loop_
_geom_bond_atom_site_label_1
_geom_bond_atom_site_label_2
_geom_bond_distance
_geom_bond_site_symmetry_2
_ccdc_geom_bond_type
Co0 N4 2.148 . S
Co0 N10 2.128 . S
Co0 N20 2.194 . S
Co0 O25 2.351 . S
Co0 O26 2.155 . S
Co0 O27 2.096 . S
C1 N4 1.301 . S
C1 N5 1.328 . S
C1 H6 0.930 . S
C2 C3 1.333 . S
C2 N4 1.317 . S
C2 H7 0.930 . S
C3 C2 1.333 . S
C3 N5 1.350 . S
C3 H29 0.931 . S
N4 Co0 2.148 . S
N4 C1 1.301 . S
N4 C2 1.317 . S
N5 C1 1.328 . S
N5 C3 1.350 . S
H6 C1 0.930 . S
H7 C2 0.930 . S
C8 O9 1.224 . S
C8 O27 1.247 . S
O9 C8 1.224 . S
N10 Co0 2.128 . S
N10 C11 1.355 . S
N10 C13 1.311 . S
C11 N10 1.355 . S
C11 C12 1.363 . S
C11 H23 0.929 . S
C12 C11 1.363 . S
C12 N14 1.375 . S
C12 H30 0.931 . S
C13 N10 1.311 . S
C13 N14 1.347 . S
C13 H24 0.929 . S
N14 C12 1.375 . S
N14 C13 1.347 . S
C15 C18 1.365 . S
C15 N20 1.328 . S
C15 H21 0.929 . S
C16 C17 1.362 . S
C16 C19 1.378 . S
C16 H31 0.929 . S
C17 C16 1.362 . S
C17 C18 1.366 . S
C18 C15 1.365 . S
C18 C17 1.366 . S
C18 H32 0.930 . S
C19 C16 1.378 . S
C19 N20 1.315 . S
C19 H22 0.930 . S
N20 Co0 2.194 . S
N20 C15 1.328 . S
N20 C19 1.315 . S
H21 C15 0.929 . S
H22 C19 0.930 . S
H23 C11 0.929 . S
H24 C13 0.929 . S
O25 Co0 2.351 . S
O25 C28 1.244 . S
O26 Co0 2.155 . S
O26 C28 1.240 . S
O27 Co0 2.096 . S
O27 C8 1.247 . S
C28 O25 1.244 . S
C28 O26 1.240 . S
H29 C3 0.931 . S
H30 C12 0.931 . S
H31 C16 0.929 . S
H32 C18 0.930 . S
Co33 N37 2.148 . S
Co33 N43 2.128 . S
Co33 N53 2.194 . S
Co33 O58 2.351 . S
Co33 O59 2.155 . S
Co33 O60 2.096 . S
C34 N37 1.301 . S
C34 N38 1.328 . S
C34 H39 0.930 . S
C35 C36 1.333 . S
C35 N37 1.317 . S
C35 H40 0.930 . S
C36 C35 1.333 . S
C36 N38 1.350 . S
C36 H62 0.931 . S
N37 Co33 2.148 . S
N37 C34 1.301 . S
N37 C35 1.317 . S
N38 C34 1.328 . S
N38 C36 1.350 . S
H39 C34 0.930 . S
H40 C35 0.930 . S
C41 O42 1.224 . S
C41 O60 1.247 . S
O42 C41 1.224 . S
N43 Co33 2.128 . S
N43 C44 1.355 . S
N43 C46 1.311 . S
C44 N43 1.355 . S
C44 C45 1.363 . S
C44 H56 0.929 1_655 S
C45 C44 1.363 . S
C45 N47 1.375 . S
C45 H63 0.931 1_655 S
C46 N43 1.311 . S
C46 N47 1.347 . S
C46 H57 0.929 . S
N47 C45 1.375 . S
N47 C46 1.347 . S
C48 C51 1.365 . S
C48 N53 1.328 1_455 S
C48 H54 0.929 . S
C49 C50 1.362 . S
C49 C52 1.378 1_455 S
C49 H64 0.929 . S
C50 C49 1.362 . S
C50 C51 1.366 . S
C51 C48 1.365 . S
C51 C50 1.366 . S
C51 H65 0.930 . S
C52 C49 1.378 1_655 S
C52 N53 1.315 . S
C52 H55 0.930 . S
N53 Co33 2.194 . S
N53 C48 1.328 1_655 S
N53 C52 1.315 . S
H54 C48 0.929 . S
H55 C52 0.930 . S
H56 C44 0.929 1_455 S
H57 C46 0.929 . S
O58 Co33 2.351 . S
O58 C61 1.244 . S
O59 Co33 2.155 . S
O59 C61 1.240 . S
O60 Co33 2.096 . S
O60 C41 1.247 . S
C61 O58 1.244 . S
C61 O59 1.240 . S
H62 C36 0.931 . S
H63 C45 0.931 1_455 S
H64 C49 0.929 . S
H65 C51 0.930 . S
Co66 N70 2.148 . S
Co66 N76 2.128 . S
Co66 N86 2.194 . S
Co66 O91 2.351 . S
Co66 O92 2.155 . S
Co66 O93 2.096 . S
C67 N70 1.301 . S
C67 N71 1.328 . S
C67 H72 0.930 . S
C68 C69 1.333 . S
C68 N70 1.317 . S
C68 H73 0.930 . S
C69 C68 1.333 . S
C69 N71 1.350 . S
C69 H95 0.931 . S
N70 Co66 2.148 . S
N70 C67 1.301 . S
N70 C68 1.317 . S
N71 C67 1.328 . S
N71 C69 1.350 . S
H72 C67 0.930 . S
H73 C68 0.930 . S
C74 O75 1.224 . S
C74 O93 1.247 . S
O75 C74 1.224 . S
N76 Co66 2.128 . S
N76 C77 1.355 . S
N76 C79 1.311 . S
C77 N76 1.355 . S
C77 C78 1.363 . S
C77 H89 0.929 1_565 S
C78 C77 1.363 . S
C78 N80 1.375 . S
C78 H96 0.931 1_565 S
C79 N76 1.311 . S
C79 N80 1.347 . S
C79 H90 0.929 . S
N80 C78 1.375 . S
N80 C79 1.347 . S
C81 C84 1.365 . S
C81 N86 1.328 1_545 S
C81 H87 0.929 . S
C82 C83 1.362 . S
C82 C85 1.378 1_545 S
C82 H97 0.929 . S
C83 C82 1.362 . S
C83 C84 1.366 . S
C84 C81 1.365 . S
C84 C83 1.366 . S
C84 H98 0.930 . S
C85 C82 1.378 1_565 S
C85 N86 1.315 . S
C85 H88 0.930 . S
N86 Co66 2.194 . S
N86 C81 1.328 1_565 S
N86 C85 1.315 . S
H87 C81 0.929 . S
H88 C85 0.930 . S
H89 C77 0.929 1_545 S
H90 C79 0.929 . S
O91 Co66 2.351 . S
O91 C94 1.244 . S
O92 Co66 2.155 . S
O92 C94 1.240 . S
O93 Co66 2.096 . S
O93 C74 1.247 . S
C94 O91 1.244 . S
C94 O92 1.240 . S
H95 C69 0.931 . S
H96 C78 0.931 1_545 S
H97 C82 0.929 . S
H98 C84 0.930 . S
Co99 N103 2.148 . S
Co99 N109 2.128 . S
Co99 N119 2.194 . S
Co99 O124 2.351 . S
Co99 O125 2.155 . S
Co99 O126 2.096 . S
C100 N103 1.301 . S
C100 N104 1.328 . S
C100 H105 0.930 . S
C101 C102 1.333 . S
C101 N103 1.317 . S
C101 H106 0.930 . S
C102 C101 1.333 . S
C102 N104 1.350 . S
C102 H128 0.931 . S
N103 Co99 2.148 . S
N103 C100 1.301 . S
N103 C101 1.317 . S
N104 C100 1.328 . S
N104 C102 1.350 . S
H105 C100 0.930 . S
H106 C101 0.930 . S
C107 O108 1.224 . S
C107 O126 1.247 . S
O108 C107 1.224 . S
N109 Co99 2.128 . S
N109 C110 1.355 . S
N109 C112 1.311 . S
C110 N109 1.355 . S
C110 C111 1.363 . S
C110 H122 0.929 . S
C111 C110 1.363 . S
C111 N113 1.375 . S
C111 H129 0.931 . S
C112 N109 1.311 . S
C112 N113 1.347 . S
C112 H123 0.929 . S
N113 C111 1.375 . S
N113 C112 1.347 . S
C114 C117 1.365 . S
C114 N119 1.328 . S
C114 H120 0.929 . S
C115 C116 1.362 . S
C115 C118 1.378 . S
C115 H130 0.929 . S
C116 C115 1.362 . S
C116 C117 1.366 . S
C117 C114 1.365 . S
C117 C116 1.366 . S
C117 H131 0.930 . S
C118 C115 1.378 . S
C118 N119 1.315 . S
C118 H121 0.930 . S
N119 Co99 2.194 . S
N119 C114 1.328 . S
N119 C118 1.315 . S
H120 C114 0.929 . S
H121 C118 0.930 . S
H122 C110 0.929 . S
H123 C112 0.929 . S
O124 Co99 2.351 . S
O124 C127 1.244 . S
O125 Co99 2.155 . S
O125 C127 1.240 . S
O126 Co99 2.096 . S
O126 C107 1.247 . S
C127 O124 1.244 . S
C127 O125 1.240 . S
H128 C102 0.931 . S
H129 C111 0.931 . S
H130 C115 0.929 . S
H131 C117 0.930 . S
Co132 N136 2.148 . S
Co132 N142 2.128 . S
Co132 N152 2.194 . S
Co132 O157 2.351 . S
Co132 O158 2.155 . S
Co132 O159 2.096 . S
C133 N136 1.301 . S
C133 N137 1.328 . S
C133 H138 0.930 . S
C134 C135 1.333 . S
C134 N136 1.317 . S
C134 H139 0.930 . S
C135 C134 1.333 . S
C135 N137 1.350 . S
C135 H161 0.931 . S
N136 Co132 2.148 . S
N136 C133 1.301 . S
N136 C134 1.317 . S
N137 C133 1.328 . S
N137 C135 1.350 . S
H138 C133 0.930 . S
H139 C134 0.930 . S
C140 O141 1.224 . S
C140 O159 1.247 . S
O141 C140 1.224 . S
N142 Co132 2.128 . S
N142 C143 1.355 . S
N142 C145 1.311 . S
C143 N142 1.355 . S
C143 C144 1.363 . S
C143 H155 0.929 1_455 S
C144 C143 1.363 . S
C144 N146 1.375 . S
C144 H162 0.931 1_455 S
C145 N142 1.311 . S
C145 N146 1.347 . S
C145 H156 0.929 . S
N146 C144 1.375 . S
N146 C145 1.347 . S
C147 C150 1.365 . S
C147 N152 1.328 1_655 S
C147 H153 0.929 . S
C148 C149 1.362 . S
C148 C151 1.378 1_655 S
C148 H163 0.929 . S
C149 C148 1.362 . S
C149 C150 1.366 . S
C150 C147 1.365 . S
C150 C149 1.366 . S
C150 H164 0.930 . S
C151 C148 1.378 1_455 S
C151 N152 1.315 . S
C151 H154 0.930 . S
N152 Co132 2.194 . S
N152 C147 1.328 1_455 S
N152 C151 1.315 . S
H153 C147 0.929 . S
H154 C151 0.930 . S
H155 C143 0.929 1_655 S
H156 C145 0.929 . S
O157 Co132 2.351 . S
O157 C160 1.244 . S
O158 Co132 2.155 . S
O158 C160 1.240 . S
O159 Co132 2.096 . S
O159 C140 1.247 . S
C160 O157 1.244 . S
C160 O158 1.240 . S
H161 C135 0.931 . S
H162 C144 0.931 1_655 S
H163 C148 0.929 . S
H164 C150 0.930 . S
Co165 N169 2.148 . S
Co165 N175 2.128 . S
Co165 N185 2.194 . S
Co165 O190 2.351 . S
Co165 O191 2.155 . S
Co165 O192 2.096 . S
C166 N169 1.301 . S
C166 N170 1.328 . S
C166 H171 0.930 . S
C167 C168 1.333 . S
C167 N169 1.317 . S
C167 H172 0.930 . S
C168 C167 1.333 . S
C168 N170 1.350 . S
C168 H194 0.931 . S
N169 Co165 2.148 . S
N169 C166 1.301 . S
N169 C167 1.317 . S
N170 C166 1.328 . S
N170 C168 1.350 . S
H171 C166 0.930 . S
H172 C167 0.930 . S
C173 O174 1.224 . S
C173 O192 1.247 . S
O174 C173 1.224 . S
N175 Co165 2.128 . S
N175 C176 1.355 . S
N175 C178 1.311 . S
C176 N175 1.355 . S
C176 C177 1.363 . S
C176 H188 0.929 1_545 S
C177 C176 1.363 . S
C177 N179 1.375 . S
C177 H195 0.931 1_545 S
C178 N175 1.311 . S
C178 N179 1.347 . S
C178 H189 0.929 . S
N179 C177 1.375 . S
N179 C178 1.347 . S
C180 C183 1.365 . S
C180 N185 1.328 1_565 S
C180 H186 0.929 . S
C181 C182 1.362 . S
C181 C184 1.378 1_565 S
C181 H196 0.929 . S
C182 C181 1.362 . S
C182 C183 1.366 . S
C183 C180 1.365 . S
C183 C182 1.366 . S
C183 H197 0.930 . S
C184 C181 1.378 1_545 S
C184 N185 1.315 . S
C184 H187 0.930 . S
N185 Co165 2.194 . S
N185 C180 1.328 1_545 S
N185 C184 1.315 . S
H186 C180 0.929 . S
H187 C184 0.930 . S
H188 C176 0.929 1_565 S
H189 C178 0.929 . S
O190 Co165 2.351 . S
O190 C193 1.244 . S
O191 Co165 2.155 . S
O191 C193 1.240 . S
O192 Co165 2.096 . S
O192 C173 1.247 . S
C193 O190 1.244 . S
C193 O191 1.240 . S
H194 C168 0.931 . S
H195 C177 0.931 1_565 S
H196 C181 0.929 . S
H197 C183 0.930 . S
Co198 N202 2.148 . S
Co198 N208 2.128 . S
Co198 N218 2.194 . S
Co198 O223 2.351 . S
Co198 O224 2.155 . S
Co198 O225 2.096 . S
C199 N202 1.301 . S
C199 N203 1.328 . S
C199 H204 0.930 . S
C200 C201 1.333 . S
C200 N202 1.317 . S
C200 H205 0.930 . S
C201 C200 1.333 . S
C201 N203 1.350 . S
C201 H227 0.931 . S
N202 Co198 2.148 . S
N202 C199 1.301 . S
N202 C200 1.317 . S
N203 C199 1.328 . S
N203 C201 1.350 . S
H204 C199 0.930 . S
H205 C200 0.930 . S
C206 O207 1.224 . S
C206 O225 1.247 . S
O207 C206 1.224 . S
N208 Co198 2.128 . S
N208 C209 1.355 . S
N208 C211 1.311 . S
C209 N208 1.355 . S
C209 C210 1.363 . S
C209 H221 0.929 . S
C210 C209 1.363 . S
C210 N212 1.375 . S
C210 H228 0.931 . S
C211 N208 1.311 . S
C211 N212 1.347 . S
C211 H222 0.929 . S
N212 C210 1.375 . S
N212 C211 1.347 . S
C213 C216 1.365 . S
C213 N218 1.328 . S
C213 H219 0.929 . S
C214 C215 1.362 . S
C214 C217 1.378 . S
C214 H229 0.929 . S
C215 C214 1.362 . S
C215 C216 1.366 . S
C216 C213 1.365 . S
C216 C215 1.366 . S
C216 H230 0.930 . S
C217 C214 1.378 . S
C217 N218 1.315 . S
C217 H220 0.930 . S
N218 Co198 2.194 . S
N218 C213 1.328 . S
N218 C217 1.315 . S
H219 C213 0.929 . S
H220 C217 0.930 . S
H221 C209 0.929 . S
H222 C211 0.929 . S
O223 Co198 2.351 . S
O223 C226 1.244 . S
O224 Co198 2.155 . S
O224 C226 1.240 . S
O225 Co198 2.096 . S
O225 C206 1.247 . S
C226 O223 1.244 . S
C226 O224 1.240 . S
H227 C201 0.931 . S
H228 C210 0.931 . S
H229 C214 0.929 . S
H230 C216 0.930 . S
Co231 N235 2.148 . S
Co231 N241 2.128 . S
Co231 N251 2.194 . S
Co231 O256 2.351 . S
Co231 O257 2.155 . S
Co231 O258 2.096 . S
C232 N235 1.301 . S
C232 N236 1.328 . S
C232 H237 0.930 . S
C233 C234 1.333 . S
C233 N235 1.317 . S
C233 H238 0.930 . S
C234 C233 1.333 . S
C234 N236 1.350 . S
C234 H260 0.931 . S
N235 Co231 2.148 . S
N235 C232 1.301 . S
N235 C233 1.317 . S
N236 C232 1.328 . S
N236 C234 1.350 . S
H237 C232 0.930 . S
H238 C233 0.930 . S
C239 O240 1.224 . S
C239 O258 1.247 . S
O240 C239 1.224 . S
N241 Co231 2.128 . S
N241 C242 1.355 . S
N241 C244 1.311 . S
C242 N241 1.355 . S
C242 C243 1.363 . S
C242 H254 0.929 1_655 S
C243 C242 1.363 . S
C243 N245 1.375 . S
C243 H261 0.931 1_655 S
C244 N241 1.311 . S
C244 N245 1.347 . S
C244 H255 0.929 . S
N245 C243 1.375 . S
N245 C244 1.347 . S
C246 C249 1.365 . S
C246 N251 1.328 1_455 S
C246 H252 0.929 . S
C247 C248 1.362 . S
C247 C250 1.378 1_455 S
C247 H262 0.929 . S
C248 C247 1.362 . S
C248 C249 1.366 . S
C249 C246 1.365 . S
C249 C248 1.366 . S
C249 H263 0.930 . S
C250 C247 1.378 1_655 S
C250 N251 1.315 . S
C250 H253 0.930 . S
N251 Co231 2.194 . S
N251 C246 1.328 1_655 S
N251 C250 1.315 . S
H252 C246 0.929 . S
H253 C250 0.930 . S
H254 C242 0.929 1_455 S
H255 C244 0.929 . S
O256 Co231 2.351 . S
O256 C259 1.244 . S
O257 Co231 2.155 . S
O257 C259 1.240 . S
O258 Co231 2.096 . S
O258 C239 1.247 . S
C259 O256 1.244 . S
C259 O257 1.240 . S
H260 C234 0.931 . S
H261 C243 0.931 1_455 S
H262 C247 0.929 . S
H263 C249 0.930 . S
Co264 N268 2.148 . S
Co264 N274 2.128 . S
Co264 N284 2.194 . S
Co264 O289 2.351 . S
Co264 O290 2.155 . S
Co264 O291 2.096 . S
C265 N268 1.301 . S
C265 N269 1.328 . S
C265 H270 0.930 . S
C266 C267 1.333 . S
C266 N268 1.317 . S
C266 H271 0.930 . S
C267 C266 1.333 . S
C267 N269 1.350 . S
C267 H293 0.931 . S
N268 Co264 2.148 . S
N268 C265 1.301 . S
N268 C266 1.317 . S
N269 C265 1.328 . S
N269 C267 1.350 . S
H270 C265 0.930 . S
H271 C266 0.930 . S
C272 O273 1.224 . S
C272 O291 1.247 . S
O273 C272 1.224 . S
N274 Co264 2.128 . S
N274 C275 1.355 . S
N274 C277 1.311 . S
C275 N274 1.355 . S
C275 C276 1.363 . S
C275 H287 0.929 1_565 S
C276 C275 1.363 . S
C276 N278 1.375 . S
C276 H294 0.931 1_565 S
C277 N274 1.311 . S
C277 N278 1.347 . S
C277 H288 0.929 . S
N278 C276 1.375 . S
N278 C277 1.347 . S
C279 C282 1.365 . S
C279 N284 1.328 1_545 S
C279 H285 0.929 . S
C280 C281 1.362 . S
C280 C283 1.378 1_545 S
C280 H295 0.929 . S
C281 C280 1.362 . S
C281 C282 1.366 . S
C282 C279 1.365 . S
C282 C281 1.366 . S
C282 H296 0.930 . S
C283 C280 1.378 1_565 S
C283 N284 1.315 . S
C283 H286 0.930 . S
N284 Co264 2.194 . S
N284 C279 1.328 1_565 S
N284 C283 1.315 . S
H285 C279 0.929 . S
H286 C283 0.930 . S
H287 C275 0.929 1_545 S
H288 C277 0.929 . S
O289 Co264 2.351 . S
O289 C292 1.244 . S
O290 Co264 2.155 . S
O290 C292 1.240 . S
O291 Co264 2.096 . S
O291 C272 1.247 . S
C292 O289 1.244 . S
C292 O290 1.240 . S
H293 C267 0.931 . S
H294 C276 0.931 1_545 S
H295 C280 0.929 . S
H296 C282 0.930 . S
Co297 N301 2.148 . S
Co297 N307 2.128 . S
Co297 N317 2.194 . S
Co297 O322 2.351 . S
Co297 O323 2.155 . S
Co297 O324 2.096 . S
C298 N301 1.301 . S
C298 N302 1.328 . S
C298 H303 0.930 . S
C299 C300 1.333 . S
C299 N301 1.317 . S
C299 H304 0.930 . S
C300 C299 1.333 . S
C300 N302 1.350 . S
C300 H326 0.931 . S
N301 Co297 2.148 . S
N301 C298 1.301 . S
N301 C299 1.317 . S
N302 C298 1.328 . S
N302 C300 1.350 . S
H303 C298 0.930 . S
H304 C299 0.930 . S
C305 O306 1.224 . S
C305 O324 1.247 . S
O306 C305 1.224 . S
N307 Co297 2.128 . S
N307 C308 1.355 . S
N307 C310 1.311 . S
C308 N307 1.355 . S
C308 C309 1.363 . S
C308 H320 0.929 . S
C309 C308 1.363 . S
C309 N311 1.375 . S
C309 H327 0.931 . S
C310 N307 1.311 . S
C310 N311 1.347 . S
C310 H321 0.929 . S
N311 C309 1.375 . S
N311 C310 1.347 . S
C312 C315 1.365 . S
C312 N317 1.328 . S
C312 H318 0.929 . S
C313 C314 1.362 . S
C313 C316 1.378 . S
C313 H328 0.929 . S
C314 C313 1.362 . S
C314 C315 1.366 . S
C315 C312 1.365 . S
C315 C314 1.366 . S
C315 H329 0.930 . S
C316 C313 1.378 . S
C316 N317 1.315 . S
C316 H319 0.930 . S
N317 Co297 2.194 . S
N317 C312 1.328 . S
N317 C316 1.315 . S
H318 C312 0.929 . S
H319 C316 0.930 . S
H320 C308 0.929 . S
H321 C310 0.929 . S
O322 Co297 2.351 . S
O322 C325 1.244 . S
O323 Co297 2.155 . S
O323 C325 1.240 . S
O324 Co297 2.096 . S
O324 C305 1.247 . S
C325 O322 1.244 . S
C325 O323 1.240 . S
H326 C300 0.931 . S
H327 C309 0.931 . S
H328 C313 0.929 . S
H329 C315 0.930 . S
Co330 N334 2.148 . S
Co330 N340 2.128 . S
Co330 N350 2.194 . S
Co330 O355 2.351 . S
Co330 O356 2.155 . S
Co330 O357 2.096 . S
C331 N334 1.301 . S
C331 N335 1.328 . S
C331 H336 0.930 . S
C332 C333 1.333 . S
C332 N334 1.317 . S
C332 H337 0.930 . S
C333 C332 1.333 . S
C333 N335 1.350 . S
C333 H359 0.931 . S
N334 Co330 2.148 . S
N334 C331 1.301 . S
N334 C332 1.317 . S
N335 C331 1.328 . S
N335 C333 1.350 . S
H336 C331 0.930 . S
H337 C332 0.930 . S
C338 O339 1.224 . S
C338 O357 1.247 . S
O339 C338 1.224 . S
N340 Co330 2.128 . S
N340 C341 1.355 . S
N340 C343 1.311 . S
C341 N340 1.355 . S
C341 C342 1.363 . S
C341 H353 0.929 1_455 S
C342 C341 1.363 . S
C342 N344 1.375 . S
C342 H360 0.931 1_455 S
C343 N340 1.311 . S
C343 N344 1.347 . S
C343 H354 0.929 . S
N344 C342 1.375 . S
N344 C343 1.347 . S
C345 C348 1.365 . S
C345 N350 1.328 1_655 S
C345 H351 0.929 . S
C346 C347 1.362 . S
C346 C349 1.378 1_655 S
C346 H361 0.929 . S
C347 C346 1.362 . S
C347 C348 1.366 . S
C348 C345 1.365 . S
C348 C347 1.366 . S
C348 H362 0.930 . S
C349 C346 1.378 1_455 S
C349 N350 1.315 . S
C349 H352 0.930 . S
N350 Co330 2.194 . S
N350 C345 1.328 1_455 S
N350 C349 1.315 . S
H351 C345 0.929 . S
H352 C349 0.930 . S
H353 C341 0.929 1_655 S
H354 C343 0.929 . S
O355 Co330 2.351 . S
O355 C358 1.244 . S
O356 Co330 2.155 . S
O356 C358 1.240 . S
O357 Co330 2.096 . S
O357 C338 1.247 . S
C358 O355 1.244 . S
C358 O356 1.240 . S
H359 C333 0.931 . S
H360 C342 0.931 1_655 S
H361 C346 0.929 . S
H362 C348 0.930 . S
Co363 N367 2.148 . S
Co363 N373 2.128 . S
Co363 N383 2.194 . S
Co363 O388 2.351 . S
Co363 O389 2.155 . S
Co363 O390 2.096 . S
C364 N367 1.301 . S
C364 N368 1.328 . S
C364 H369 0.930 . S
C365 C366 1.333 . S
C365 N367 1.317 . S
C365 H370 0.930 . S
C366 C365 1.333 . S
C366 N368 1.350 . S
C366 H392 0.931 . S
N367 Co363 2.148 . S
N367 C364 1.301 . S
N367 C365 1.317 . S
N368 C364 1.328 . S
N368 C366 1.350 . S
H369 C364 0.930 . S
H370 C365 0.930 . S
C371 O372 1.224 . S
C371 O390 1.247 . S
O372 C371 1.224 . S
N373 Co363 2.128 . S
N373 C374 1.355 . S
N373 C376 1.311 . S
C374 N373 1.355 . S
C374 C375 1.363 . S
C374 H386 0.929 1_545 S
C375 C374 1.363 . S
C375 N377 1.375 . S
C375 H393 0.931 1_545 S
C376 N373 1.311 . S
C376 N377 1.347 . S
C376 H387 0.929 . S
N377 C375 1.375 . S
N377 C376 1.347 . S
C378 C381 1.365 . S
C378 N383 1.328 1_565 S
C378 H384 0.929 . S
C379 C380 1.362 . S
C379 C382 1.378 1_565 S
C379 H394 0.929 . S
C380 C379 1.362 . S
C380 C381 1.366 . S
C381 C378 1.365 . S
C381 C380 1.366 . S
C381 H395 0.930 . S
C382 C379 1.378 1_545 S
C382 N383 1.315 . S
C382 H385 0.930 . S
N383 Co363 2.194 . S
N383 C378 1.328 1_545 S
N383 C382 1.315 . S
H384 C378 0.929 . S
H385 C382 0.930 . S
H386 C374 0.929 1_565 S
H387 C376 0.929 . S
O388 Co363 2.351 . S
O388 C391 1.244 . S
O389 Co363 2.155 . S
O389 C391 1.240 . S
O390 Co363 2.096 . S
O390 C371 1.247 . S
C391 O388 1.244 . S
C391 O389 1.240 . S
H392 C366 0.931 . S
H393 C375 0.931 1_565 S
H394 C379 0.929 . S
H395 C381 0.930 . S
H396 C408 0.930 . S
H397 C410 0.930 . S
H398 C411 0.930 . S
H399 C415 0.959 . S
H400 C415 0.959 . S
H401 C415 0.961 . S
H402 C416 0.960 . S
H403 C416 0.961 . S
H404 C416 0.959 . S
H405 C419 0.929 . S
H406 C420 0.931 . S
H407 C422 0.930 . S
C408 H396 0.930 . S
C408 C409 1.399 . S
C408 C413 1.399 . S
C409 C408 1.399 . S
C409 C410 1.376 . S
C410 H397 0.930 . S
C410 C409 1.376 . S
C410 C411 1.388 . S
C411 H398 0.930 . S
C411 C410 1.388 . S
C411 C412 1.390 . S
C412 C411 1.390 . S
C412 C413 1.394 . S
C412 C418 1.465 . S
C413 C408 1.399 . S
C413 C412 1.394 . S
C413 C414 1.516 . S
C414 C413 1.516 . S
C414 C415 1.502 . S
C414 C416 1.561 . S
C414 C417 1.526 . S
C415 H399 0.959 . S
C415 H400 0.959 . S
C415 H401 0.961 . S
C415 C414 1.502 . S
C416 H402 0.960 . S
C416 H403 0.961 . S
C416 H404 0.959 . S
C416 C414 1.561 . S
C417 C414 1.526 . S
C417 C418 1.396 . S
C417 C422 1.390 . S
C418 C412 1.465 . S
C418 C417 1.396 . S
C418 C419 1.399 . S
C419 H405 0.929 . S
C419 C418 1.399 . S
C419 C420 1.385 . S
C420 H406 0.931 . S
C420 C419 1.385 . S
C420 C421 1.389 . S
C421 C420 1.389 . S
C421 C422 1.387 . S
C422 H407 0.930 . S
C422 C417 1.390 . S
C422 C421 1.387 . S
H423 C435 0.930 . S
H424 C437 0.930 . S
H425 C438 0.930 . S
H426 C442 0.959 . S
H427 C442 0.959 . S
H428 C442 0.961 . S
H429 C443 0.960 . S
H430 C443 0.961 . S
H431 C443 0.959 . S
H432 C446 0.929 . S
H433 C447 0.931 . S
H434 C449 0.930 . S
C435 H423 0.930 . S
C435 C436 1.399 . S
C435 C440 1.399 . S
C436 C435 1.399 . S
C436 C437 1.376 . S
C437 H424 0.930 . S
C437 C436 1.376 . S
C437 C438 1.388 1_455 S
C438 H425 0.930 . S
C438 C437 1.388 1_655 S
C438 C439 1.390 . S
C439 C438 1.390 . S
C439 C440 1.394 1_655 S
C439 C445 1.465 . S
C440 C435 1.399 . S
C440 C439 1.394 1_455 S
C440 C441 1.516 . S
C441 C440 1.516 . S
C441 C442 1.502 . S
C441 C443 1.561 . S
C441 C444 1.526 1_455 S
C442 H426 0.959 . S
C442 H427 0.959 . S
C442 H428 0.961 . S
C442 C441 1.502 . S
C443 H429 0.960 . S
C443 H430 0.961 . S
C443 H431 0.959 . S
C443 C441 1.561 . S
C444 C441 1.526 1_655 S
C444 C445 1.396 . S
C444 C449 1.390 . S
C445 C439 1.465 . S
C445 C444 1.396 . S
C445 C446 1.399 . S
C446 H432 0.929 . S
C446 C445 1.399 . S
C446 C447 1.385 . S
C447 H433 0.931 . S
C447 C446 1.385 . S
C447 C448 1.389 . S
C448 C447 1.389 . S
C448 C449 1.387 . S
C449 H434 0.930 . S
C449 C444 1.390 . S
C449 C448 1.387 . S
H450 C462 0.930 . S
H451 C464 0.930 . S
H452 C465 0.930 . S
H453 C469 0.959 . S
H454 C469 0.959 . S
H455 C469 0.961 . S
H456 C470 0.960 . S
H457 C470 0.961 . S
H458 C470 0.959 . S
H459 C473 0.929 . S
H460 C474 0.931 . S
H461 C476 0.930 . S
C462 H450 0.930 . S
C462 C463 1.399 . S
C462 C467 1.399 . S
C463 C462 1.399 . S
C463 C464 1.376 . S
C464 H451 0.930 . S
C464 C463 1.376 . S
C464 C465 1.388 . S
C465 H452 0.930 . S
C465 C464 1.388 . S
C465 C466 1.390 . S
C466 C465 1.390 . S
C466 C467 1.394 . S
C466 C472 1.465 1_545 S
C467 C462 1.399 . S
C467 C466 1.394 . S
C467 C468 1.516 . S
C468 C467 1.516 . S
C468 C469 1.502 . S
C468 C470 1.561 1_545 S
C468 C471 1.526 1_545 S
C469 H453 0.959 . S
C469 H454 0.959 . S
C469 H455 0.961 . S
C469 C468 1.502 . S
C470 H456 0.960 . S
C470 H457 0.961 . S
C470 H458 0.959 . S
C470 C468 1.561 1_565 S
C471 C468 1.526 1_565 S
C471 C472 1.396 . S
C471 C476 1.390 . S
C472 C466 1.465 1_565 S
C472 C471 1.396 . S
C472 C473 1.399 . S
C473 H459 0.929 . S
C473 C472 1.399 . S
C473 C474 1.385 . S
C474 H460 0.931 . S
C474 C473 1.385 . S
C474 C475 1.389 . S
C475 C474 1.389 . S
C475 C476 1.387 . S
C476 H461 0.930 . S
C476 C471 1.390 . S
C476 C475 1.387 . S
H477 C489 0.930 . S
H478 C491 0.930 . S
H479 C492 0.930 . S
H480 C496 0.959 . S
H481 C496 0.959 . S
H482 C496 0.961 . S
H483 C497 0.960 . S
H484 C497 0.961 . S
H485 C497 0.959 . S
H486 C500 0.929 . S
H487 C501 0.931 . S
H488 C503 0.930 . S
C489 H477 0.930 . S
C489 C490 1.399 . S
C489 C494 1.399 . S
C490 C489 1.399 . S
C490 C491 1.376 . S
C491 H478 0.930 . S
C491 C490 1.376 . S
C491 C492 1.388 . S
C492 H479 0.930 . S
C492 C491 1.388 . S
C492 C493 1.390 . S
C493 C492 1.390 . S
C493 C494 1.394 . S
C493 C499 1.465 . S
C494 C489 1.399 . S
C494 C493 1.394 . S
C494 C495 1.516 . S
C495 C494 1.516 . S
C495 C496 1.502 . S
C495 C497 1.561 . S
C495 C498 1.526 . S
C496 H480 0.959 . S
C496 H481 0.959 . S
C496 H482 0.961 . S
C496 C495 1.502 . S
C497 H483 0.960 . S
C497 H484 0.961 . S
C497 H485 0.959 . S
C497 C495 1.561 . S
C498 C495 1.526 . S
C498 C499 1.396 . S
C498 C503 1.390 . S
C499 C493 1.465 . S
C499 C498 1.396 . S
C499 C500 1.399 . S
C500 H486 0.929 . S
C500 C499 1.399 . S
C500 C501 1.385 . S
C501 H487 0.931 . S
C501 C500 1.385 . S
C501 C502 1.389 . S
C502 C501 1.389 . S
C502 C503 1.387 . S
C503 H488 0.930 . S
C503 C498 1.390 . S
C503 C502 1.387 . S
H504 C516 0.930 . S
H505 C518 0.930 . S
H506 C519 0.930 . S
H507 C523 0.959 . S
H508 C523 0.959 . S
H509 C523 0.961 . S
H510 C524 0.960 . S
H511 C524 0.961 . S
H512 C524 0.959 . S
H513 C527 0.929 . S
H514 C528 0.931 . S
H515 C530 0.930 . S
C516 H504 0.930 . S
C516 C517 1.399 . S
C516 C521 1.399 . S
C517 C516 1.399 . S
C517 C518 1.376 . S
C518 H505 0.930 . S
C518 C517 1.376 . S
C518 C519 1.388 . S
C519 H506 0.930 . S
C519 C518 1.388 . S
C519 C520 1.390 . S
C520 C519 1.390 . S
C520 C521 1.394 . S
C520 C526 1.465 1_655 S
C521 C516 1.399 . S
C521 C520 1.394 . S
C521 C522 1.510 1_655 S
C522 C521 1.510 1_455 S
C522 C523 1.505 . S
C522 C524 1.558 1_455 S
C522 C525 1.532 . S
C523 H507 0.959 . S
C523 H508 0.959 . S
C523 H509 0.961 . S
C523 C522 1.505 . S
C524 H510 0.960 . S
C524 H511 0.961 . S
C524 H512 0.959 . S
C524 C522 1.558 1_655 S
C525 C522 1.532 . S
C525 C526 1.396 . S
C525 C530 1.390 . S
C526 C520 1.465 1_455 S
C526 C525 1.396 . S
C526 C527 1.399 . S
C527 H513 0.929 . S
C527 C526 1.399 . S
C527 C528 1.385 . S
C528 H514 0.931 . S
C528 C527 1.385 . S
C528 C529 1.389 . S
C529 C528 1.389 . S
C529 C530 1.387 . S
C530 H515 0.930 . S
C530 C525 1.390 . S
C530 C529 1.387 . S
H531 C543 0.930 . S
H532 C545 0.930 . S
H533 C546 0.930 . S
H534 C550 0.959 . S
H535 C550 0.959 . S
H536 C550 0.961 . S
H537 C551 0.960 . S
H538 C551 0.961 . S
H539 C551 0.959 . S
H540 C554 0.929 . S
H541 C555 0.931 . S
H542 C557 0.930 . S
C543 H531 0.930 . S
C543 C544 1.399 . S
C543 C548 1.399 . S
C544 C543 1.399 . S
C544 C545 1.376 . S
C545 H532 0.930 . S
C545 C544 1.376 . S
C545 C546 1.388 . S
C546 H533 0.930 . S
C546 C545 1.388 . S
C546 C547 1.390 . S
C547 C546 1.390 . S
C547 C548 1.394 . S
C547 C553 1.465 1_565 S
C548 C543 1.399 . S
C548 C547 1.394 . S
C548 C549 1.516 1_565 S
C549 C548 1.516 1_545 S
C549 C550 1.502 1_545 S
C549 C551 1.561 . S
C549 C552 1.526 . S
C550 H534 0.959 . S
C550 H535 0.959 . S
C550 H536 0.961 . S
C550 C549 1.502 1_565 S
C551 H537 0.960 . S
C551 H538 0.961 . S
C551 H539 0.959 . S
C551 C549 1.561 . S
C552 C549 1.526 . S
C552 C553 1.396 . S
C552 C557 1.390 . S
C553 C547 1.465 1_545 S
C553 C552 1.396 . S
C553 C554 1.399 . S
C554 H540 0.929 . S
C554 C553 1.399 . S
C554 C555 1.385 . S
C555 H541 0.931 . S
C555 C554 1.385 . S
C555 C556 1.389 . S
C556 C555 1.389 . S
C556 C557 1.387 . S
C557 H542 0.930 . S
C557 C552 1.390 . S
C557 C556 1.387 . S
H558 C570 0.930 . S
H559 C572 0.930 . S
H560 C573 0.930 . S
H561 C577 0.959 . S
H562 C577 0.959 . S
H563 C577 0.961 . S
H564 C578 0.960 . S
H565 C578 0.961 . S
H566 C578 0.959 . S
H567 C581 0.929 . S
H568 C582 0.931 . S
H569 C584 0.930 . S
C570 H558 0.930 . S
C570 C571 1.399 . S
C570 C575 1.399 . S
C571 C570 1.399 . S
C571 C572 1.376 . S
C572 H559 0.930 . S
C572 C571 1.376 . S
C572 C573 1.388 . S
C573 H560 0.930 . S
C573 C572 1.388 . S
C573 C574 1.390 . S
C574 C573 1.390 . S
C574 C575 1.394 . S
C574 C580 1.465 . S
C575 C570 1.399 . S
C575 C574 1.394 . S
C575 C576 1.516 . S
C576 C575 1.516 . S
C576 C577 1.502 . S
C576 C578 1.561 . S
C576 C579 1.526 . S
C577 H561 0.959 . S
C577 H562 0.959 . S
C577 H563 0.961 . S
C577 C576 1.502 . S
C578 H564 0.960 . S
C578 H565 0.961 . S
C578 H566 0.959 . S
C578 C576 1.561 . S
C579 C576 1.526 . S
C579 C580 1.396 . S
C579 C584 1.390 . S
C580 C574 1.465 . S
C580 C579 1.396 . S
C580 C581 1.399 . S
C581 H567 0.929 . S
C581 C580 1.399 . S
C581 C582 1.385 . S
C582 H568 0.931 . S
C582 C581 1.385 . S
C582 C583 1.389 . S
C583 C582 1.389 . S
C583 C584 1.387 . S
C584 H569 0.930 . S
C584 C579 1.390 . S
C584 C583 1.387 . S
H585 C597 0.930 . S
H586 C599 0.930 1_455 S
H587 C600 0.930 . S
H588 C604 0.959 . S
H589 C604 0.959 . S
H590 C604 0.961 . S
H591 C605 0.960 . S
H592 C605 0.961 . S
H593 C605 0.959 1_455 S
H594 C608 0.929 . S
H595 C609 0.931 . S
H596 C611 0.929 1_655 S
C597 H585 0.930 . S
C597 C598 1.399 . S
C597 C602 1.399 . S
C598 C597 1.399 . S
C598 C599 1.376 . S
C599 H586 0.930 1_655 S
C599 C598 1.376 . S
C599 C600 1.388 1_655 S
C600 H587 0.930 . S
C600 C599 1.388 1_455 S
C600 C601 1.390 . S
C601 C600 1.390 . S
C601 C602 1.394 1_455 S
C601 C607 1.465 . S
C602 C597 1.399 . S
C602 C601 1.394 1_655 S
C602 C603 1.516 . S
C603 C602 1.516 . S
C603 C604 1.502 . S
C603 C605 1.561 . S
C603 C606 1.526 1_655 S
C604 H588 0.959 . S
C604 H589 0.959 . S
C604 H590 0.961 . S
C604 C603 1.502 . S
C605 H591 0.960 . S
C605 H592 0.961 . S
C605 H593 0.959 1_655 S
C605 C603 1.561 . S
C606 C603 1.526 1_455 S
C606 C607 1.396 . S
C606 C611 1.390 . S
C607 C601 1.465 . S
C607 C606 1.396 . S
C607 C608 1.399 . S
C608 H594 0.929 . S
C608 C607 1.399 . S
C608 C609 1.385 . S
C609 H595 0.931 . S
C609 C608 1.385 . S
C609 C610 1.389 . S
C610 C609 1.389 . S
C610 C611 1.387 . S
C611 H596 0.929 1_455 S
C611 C606 1.390 . S
C611 C610 1.387 . S
H612 C624 0.930 . S
H613 C626 0.930 . S
H614 C627 0.930 1_565 S
H615 C631 0.959 . S
H616 C631 0.959 . S
H617 C631 0.961 1_554 S
H618 C632 0.960 . S
H619 C632 0.961 1_556 S
H620 C632 0.959 . S
H621 C635 0.929 . S
H622 C636 0.931 . S
H623 C638 0.930 . S
C624 H612 0.930 . S
C624 C625 1.399 . S
C624 C629 1.399 . S
C625 C624 1.399 . S
C625 C626 1.376 . S
C626 H613 0.930 . S
C626 C625 1.376 . S
C626 C627 1.388 . S
C627 H614 0.930 1_545 S
C627 C626 1.388 . S
C627 C628 1.382 1_545 S
C628 C627 1.382 1_565 S
C628 C629 1.397 1_565 S
C628 C634 1.470 1_554 S
C629 C624 1.399 . S
C629 C628 1.397 1_545 S
C629 C630 1.516 1_554 S
C630 C629 1.516 1_556 S
C630 C631 1.502 . S
C630 C632 1.561 1_546 S
C630 C633 1.526 1_545 S
C631 H615 0.959 . S
C631 H616 0.959 . S
C631 H617 0.961 1_556 S
C631 C630 1.502 . S
C632 H618 0.960 . S
C632 H619 0.961 1_554 S
C632 H620 0.959 . S
C632 C630 1.561 1_564 S
C633 C630 1.526 1_565 S
C633 C634 1.396 . S
C633 C638 1.390 . S
C634 C628 1.470 1_556 S
C634 C633 1.396 . S
C634 C635 1.399 . S
C635 H621 0.929 . S
C635 C634 1.399 . S
C635 C636 1.385 . S
C636 H622 0.931 . S
C636 C635 1.385 . S
C636 C637 1.389 . S
C637 C636 1.389 . S
C637 C638 1.387 . S
C638 H623 0.930 . S
C638 C633 1.390 . S
C638 C637 1.387 . S
H639 C651 0.930 . S
H640 C653 0.930 . S
H641 C654 0.930 . S
H642 C658 0.959 . S
H643 C658 0.959 . S
H644 C658 0.961 . S
H645 C659 0.960 . S
H646 C659 0.961 . S
H647 C659 0.959 . S
H648 C662 0.929 . S
H649 C663 0.931 . S
H650 C665 0.930 . S
C651 H639 0.930 . S
C651 C652 1.399 . S
C651 C656 1.399 . S
C652 C651 1.399 . S
C652 C653 1.376 . S
C653 H640 0.930 . S
C653 C652 1.376 . S
C653 C654 1.388 . S
C654 H641 0.930 . S
C654 C653 1.388 . S
C654 C655 1.390 . S
C655 C654 1.390 . S
C655 C656 1.394 . S
C655 C661 1.465 . S
C656 C651 1.399 . S
C656 C655 1.394 . S
C656 C657 1.516 . S
C657 C656 1.516 . S
C657 C658 1.502 . S
C657 C659 1.561 . S
C657 C660 1.526 . S
C658 H642 0.959 . S
C658 H643 0.959 . S
C658 H644 0.961 . S
C658 C657 1.502 . S
C659 H645 0.960 . S
C659 H646 0.961 . S
C659 H647 0.959 . S
C659 C657 1.561 . S
C660 C657 1.526 . S
C660 C661 1.396 . S
C660 C665 1.390 . S
C661 C655 1.465 . S
C661 C660 1.396 . S
C661 C662 1.399 . S
C662 H648 0.929 . S
C662 C661 1.399 . S
C662 C663 1.385 . S
C663 H649 0.931 . S
C663 C662 1.385 . S
C663 C664 1.389 . S
C664 C663 1.389 . S
C664 C665 1.387 . S
C665 H650 0.930 . S
C665 C660 1.390 . S
C665 C664 1.387 . S
H666 C678 0.930 . S
H667 C680 0.930 . S
H668 C681 0.930 . S
H669 C685 0.959 . S
H670 C685 0.959 . S
H671 C685 0.961 . S
H672 C686 0.960 . S
H673 C686 0.961 . S
H674 C686 0.959 . S
H675 C689 0.929 . S
H676 C690 0.931 . S
H677 C692 0.930 1_455 S
C678 H666 0.930 . S
C678 C679 1.399 . S
C678 C683 1.399 . S
C679 C678 1.399 . S
C679 C680 1.376 1_455 S
C680 H667 0.930 . S
C680 C679 1.376 1_655 S
C680 C681 1.388 . S
C681 H668 0.930 . S
C681 C680 1.388 . S
C681 C682 1.390 . S
C682 C681 1.390 . S
C682 C683 1.394 1_655 S
C682 C688 1.465 . S
C683 C678 1.399 . S
C683 C682 1.394 1_455 S
C683 C684 1.516 . S
C684 C683 1.516 . S
C684 C685 1.502 . S
C684 C686 1.561 . S
C684 C687 1.530 . S
C685 H669 0.959 . S
C685 H670 0.959 . S
C685 H671 0.961 . S
C685 C684 1.502 . S
C686 H672 0.960 . S
C686 H673 0.961 . S
C686 H674 0.959 . S
C686 C684 1.561 . S
C687 C684 1.530 . S
C687 C688 1.394 1_455 S
C687 C692 1.388 1_455 S
C688 C682 1.465 . S
C688 C687 1.394 1_655 S
C688 C689 1.399 . S
C689 H675 0.929 . S
C689 C688 1.399 . S
C689 C690 1.385 . S
C690 H676 0.931 . S
C690 C689 1.385 . S
C690 C691 1.389 . S
C691 C690 1.389 . S
C691 C692 1.387 . S
C692 H677 0.930 1_655 S
C692 C687 1.388 1_655 S
C692 C691 1.387 . S
H693 C705 0.930 1_565 S
H694 C707 0.930 . S
H695 C708 0.930 . S
H696 C712 0.959 . S
H697 C712 0.959 . S
H698 C712 0.961 . S
H699 C713 0.960 . S
H700 C713 0.961 . S
H701 C713 0.959 . S
H702 C716 0.929 . S
H703 C717 0.931 . S
H704 C719 0.930 . S
C705 H693 0.930 1_545 S
C705 C706 1.399 . S
C705 C710 1.399 1_545 S
C706 C705 1.399 . S
C706 C707 1.376 . S
C707 H694 0.930 . S
C707 C706 1.376 . S
C707 C708 1.388 . S
C708 H695 0.930 . S
C708 C707 1.388 . S
C708 C709 1.390 . S
C709 C708 1.390 . S
C709 C710 1.394 1_545 S
C709 C715 1.465 1_556 S
C710 C705 1.399 1_565 S
C710 C709 1.394 1_565 S
C710 C711 1.516 . S
C711 C710 1.516 . S
C711 C712 1.502 . S
C711 C713 1.561 . S
C711 C714 1.526 1_556 S
C712 H696 0.959 . S
C712 H697 0.959 . S
C712 H698 0.961 . S
C712 C711 1.502 . S
C713 H699 0.960 . S
C713 H700 0.961 . S
C713 H701 0.959 . S
C713 C711 1.561 . S
C714 C711 1.526 1_554 S
C714 C715 1.396 1_565 S
C714 C719 1.390 . S
C715 C709 1.465 1_554 S
C715 C714 1.396 1_545 S
C715 C716 1.399 . S
C716 H702 0.929 . S
C716 C715 1.399 . S
C716 C717 1.385 . S
C717 H703 0.931 . S
C717 C716 1.385 . S
C717 C718 1.389 1_545 S
C718 C717 1.389 1_565 S
C718 C719 1.387 . S
C719 H704 0.930 . S
C719 C714 1.390 . S
C719 C718 1.387 . S
H720 C732 0.930 . S
H721 C734 0.930 . S
H722 C735 0.930 . S
H723 C739 0.959 . S
H724 C739 0.959 . S
H725 C739 0.961 1_545 S
H726 C740 0.966 . S
H727 C740 0.957 1_665 S
H728 C740 0.955 1_565 S
H729 C743 0.929 1_455 S
H730 C744 0.931 . S
H731 C746 0.930 . S
C732 H720 0.930 . S
C732 C733 1.399 . S
C732 C737 1.399 . S
C733 C732 1.399 . S
C733 C734 1.376 . S
C734 H721 0.930 . S
C734 C733 1.376 . S
C734 C735 1.388 . S
C735 H722 0.930 . S
C735 C734 1.388 . S
C735 C736 1.390 . S
C736 C735 1.390 . S
C736 C737 1.394 . S
C736 C742 1.465 1_545 S
C737 C732 1.399 . S
C737 C736 1.394 . S
C737 C738 1.502 1_445 S
C738 C737 1.502 1_665 S
C738 C739 1.492 . S
C738 C740 1.570 1_665 S
C738 C741 1.545 . S
C739 H723 0.959 . S
C739 H724 0.959 . S
C739 H725 0.961 1_565 S
C739 C738 1.492 . S
C740 H726 0.966 . S
C740 H727 0.957 1_445 S
C740 H728 0.955 1_545 S
C740 C738 1.570 1_445 S
C741 C738 1.545 . S
C741 C742 1.392 1_655 S
C741 C746 1.390 . S
C742 C736 1.465 1_565 S
C742 C741 1.392 1_455 S
C742 C743 1.403 1_455 S
C743 H729 0.929 1_655 S
C743 C742 1.403 1_655 S
C743 C744 1.385 . S
C744 H730 0.931 . S
C744 C743 1.385 . S
C744 C745 1.389 . S
C745 C744 1.389 . S
C745 C746 1.387 . S
C746 H731 0.930 . S
C746 C741 1.390 . S
C746 C745 1.387 . S
H747 C759 0.930 . S
H748 C761 0.930 . S
H749 C762 0.930 . S
H750 C766 0.959 . S
H751 C766 0.959 . S
H752 C766 0.961 . S
H753 C767 0.960 . S
H754 C767 0.961 . S
H755 C767 0.959 . S
H756 C770 0.929 . S
H757 C771 0.931 . S
H758 C773 0.930 . S
C759 H747 0.930 . S
C759 C760 1.399 . S
C759 C764 1.399 . S
C760 C759 1.399 . S
C760 C761 1.376 . S
C761 H748 0.930 . S
C761 C760 1.376 . S
C761 C762 1.388 . S
C762 H749 0.930 . S
C762 C761 1.388 . S
C762 C763 1.390 . S
C763 C762 1.390 . S
C763 C764 1.394 . S
C763 C769 1.465 1_645 S
C764 C759 1.399 . S
C764 C763 1.394 . S
C764 C765 1.516 1_655 S
C765 C764 1.516 1_455 S
C765 C766 1.502 1_445 S
C765 C767 1.561 . S
C765 C768 1.526 1_545 S
C766 H750 0.959 . S
C766 H751 0.959 . S
C766 H752 0.961 . S
C766 C765 1.502 1_665 S
C767 H753 0.960 . S
C767 H754 0.961 . S
C767 H755 0.959 . S
C767 C765 1.561 . S
C768 C765 1.526 1_565 S
C768 C769 1.396 . S
C768 C773 1.390 . S
C769 C763 1.465 1_465 S
C769 C768 1.396 . S
C769 C770 1.399 . S
C770 H756 0.929 . S
C770 C769 1.399 . S
C770 C771 1.385 . S
C771 H757 0.931 . S
C771 C770 1.385 . S
C771 C772 1.389 . S
C772 C771 1.389 . S
C772 C773 1.387 . S
C773 H758 0.930 . S
C773 C768 1.390 . S
C773 C772 1.387 . S
H774 C786 0.930 . S
H775 C788 0.930 . S
H776 C789 0.930 . S
H777 C793 0.960 1_655 S
H778 C793 0.959 1_655 S
H779 C793 0.961 . S
H780 C794 0.971 . S
H781 C794 0.955 1_655 S
H782 C794 0.951 1_645 S
H783 C797 0.929 . S
H784 C798 0.931 . S
H785 C800 0.930 . S
C786 H774 0.930 . S
C786 C787 1.399 . S
C786 C791 1.399 . S
C787 C786 1.399 . S
C787 C788 1.376 . S
C788 H775 0.930 . S
C788 C787 1.376 . S
C788 C789 1.388 . S
C789 H776 0.930 . S
C789 C788 1.388 . S
C789 C790 1.390 . S
C790 C789 1.390 . S
C790 C791 1.394 . S
C790 C796 1.465 1_455 S
C791 C786 1.399 . S
C791 C790 1.394 . S
C791 C792 1.516 1_545 S
C792 C791 1.516 1_565 S
C792 C793 1.502 . S
C792 C794 1.563 . S
C792 C795 1.526 1_455 S
C793 H777 0.960 1_455 S
C793 H778 0.959 1_455 S
C793 H779 0.961 . S
C793 C792 1.502 . S
C794 H780 0.971 . S
C794 H781 0.955 1_455 S
C794 H782 0.951 1_465 S
C794 C792 1.563 . S
C795 C792 1.526 1_655 S
C795 C796 1.396 1_565 S
C795 C800 1.390 . S
C796 C790 1.465 1_655 S
C796 C795 1.396 1_545 S
C796 C797 1.399 . S
C797 H783 0.929 . S
C797 C796 1.399 . S
C797 C798 1.385 1_545 S
C798 H784 0.931 . S
C798 C797 1.385 1_565 S
C798 C799 1.389 . S
C799 C798 1.389 . S
C799 C800 1.387 . S
C800 H785 0.930 . S
C800 C795 1.390 . S
C800 C799 1.387 . S
H801 C813 0.930 . S
H802 C815 0.930 . S
H803 C816 0.930 . S
H804 C820 0.959 1_455 S
H805 C820 0.959 1_455 S
H806 C820 0.961 . S
H807 C821 0.974 . S
H808 C821 0.940 1_455 S
H809 C821 0.968 1_445 S
H810 C824 0.929 . S
H811 C825 0.931 . S
H812 C827 0.930 . S
C813 H801 0.930 . S
C813 C814 1.399 . S
C813 C818 1.399 . S
C814 C813 1.399 . S
C814 C815 1.376 . S
C815 H802 0.930 . S
C815 C814 1.376 . S
C815 C816 1.388 1_565 S
C816 H803 0.930 . S
C816 C815 1.388 1_545 S
C816 C817 1.390 . S
C817 C816 1.390 . S
C817 C818 1.394 1_545 S
C817 C823 1.465 1_655 S
C818 C813 1.399 . S
C818 C817 1.394 1_565 S
C818 C819 1.516 . S
C819 C818 1.516 . S
C819 C820 1.502 . S
C819 C821 1.559 . S
C819 C822 1.526 1_665 S
C820 H804 0.959 1_655 S
C820 H805 0.959 1_655 S
C820 H806 0.961 . S
C820 C819 1.502 . S
C821 H807 0.974 . S
C821 H808 0.940 1_655 S
C821 H809 0.968 1_665 S
C821 C819 1.559 . S
C822 C819 1.526 1_445 S
C822 C823 1.396 . S
C822 C827 1.390 . S
C823 C817 1.465 1_455 S
C823 C822 1.396 . S
C823 C824 1.399 . S
C824 H810 0.929 . S
C824 C823 1.399 . S
C824 C825 1.385 . S
C825 H811 0.931 . S
C825 C824 1.385 . S
C825 C826 1.389 . S
C826 C825 1.389 . S
C826 C827 1.387 . S
C827 H812 0.930 . S
C827 C822 1.390 . S
C827 C826 1.387 . S
H828 C840 0.930 . S
H829 C842 0.930 . S
H830 C843 0.930 1_455 S
H831 C847 0.959 . S
H832 C847 0.959 . S
H833 C847 0.961 1_565 S
H834 C848 0.972 . S
H835 C848 0.951 1_545 S
H836 C848 0.965 1_545 S
H837 C851 0.929 . S
H838 C852 0.931 . S
H839 C854 0.930 . S
C840 H828 0.930 . S
C840 C841 1.399 . S
C840 C845 1.399 . S
C841 C840 1.399 . S
C841 C842 1.376 . S
C842 H829 0.930 . S
C842 C841 1.376 . S
C842 C843 1.388 . S
C843 H830 0.930 1_655 S
C843 C842 1.388 . S
C843 C844 1.390 . S
C844 C843 1.390 . S
C844 C845 1.394 . S
C844 C850 1.465 1_665 S
C845 C840 1.399 . S
C845 C844 1.394 . S
C845 C846 1.501 1_565 S
C846 C845 1.501 1_545 S
C846 C847 1.512 . S
C846 C848 1.550 1_645 S
C846 C849 1.537 1_655 S
C847 H831 0.959 . S
C847 H832 0.959 . S
C847 H833 0.961 1_545 S
C847 C846 1.512 . S
C848 H834 0.972 . S
C848 H835 0.951 1_565 S
C848 H836 0.965 1_565 S
C848 C846 1.550 1_465 S
C849 C846 1.537 1_455 S
C849 C850 1.396 . S
C849 C854 1.390 . S
C850 C844 1.465 1_445 S
C850 C849 1.396 . S
C850 C851 1.399 . S
C851 H837 0.929 . S
C851 C850 1.399 . S
C851 C852 1.385 . S
C852 H838 0.931 . S
C852 C851 1.385 . S
C852 C853 1.389 . S
C853 C852 1.389 . S
C853 C854 1.387 . S
C854 H839 0.930 . S
C854 C849 1.390 . S
C854 C853 1.387 . S
H855 C867 0.930 . S
H856 C869 0.930 . S
H857 C870 0.930 . S
H858 C874 0.959 . S
H859 C874 0.959 . S
H860 C874 0.961 . S
H861 C875 0.960 . S
H862 C875 0.961 . S
H863 C875 0.959 . S
H864 C878 0.929 . S
H865 C879 0.931 . S
H866 C881 0.930 . S
C867 H855 0.930 . S
C867 C868 1.399 . S
C867 C872 1.399 . S
C868 C867 1.399 . S
C868 C869 1.376 . S
C869 H856 0.930 . S
C869 C868 1.376 . S
C869 C870 1.388 . S
C870 H857 0.930 . S
C870 C869 1.388 . S
C870 C871 1.390 . S
C871 C870 1.390 . S
C871 C872 1.394 . S
C871 C877 1.465 1_645 S
C872 C867 1.399 . S
C872 C871 1.394 . S
C872 C873 1.516 1_655 S
C873 C872 1.516 1_455 S
C873 C874 1.502 1_445 S
C873 C875 1.561 . S
C873 C876 1.526 1_545 S
C874 H858 0.959 . S
C874 H859 0.959 . S
C874 H860 0.961 . S
C874 C873 1.502 1_665 S
C875 H861 0.960 . S
C875 H862 0.961 . S
C875 H863 0.959 . S
C875 C873 1.561 . S
C876 C873 1.526 1_565 S
C876 C877 1.396 . S
C876 C881 1.390 . S
C877 C871 1.465 1_465 S
C877 C876 1.396 . S
C877 C878 1.399 . S
C878 H864 0.929 . S
C878 C877 1.399 . S
C878 C879 1.385 . S
C879 H865 0.931 . S
C879 C878 1.385 . S
C879 C880 1.389 . S
C880 C879 1.389 . S
C880 C881 1.387 . S
C881 H866 0.930 . S
C881 C876 1.390 . S
C881 C880 1.387 . S
H882 C894 0.930 . S
H883 C896 0.930 . S
H884 C897 0.930 1_455 S
H885 C901 0.959 . S
H886 C901 0.959 . S
H887 C901 0.961 . S
H888 C902 0.960 . S
H889 C902 0.961 . S
H890 C902 0.959 . S
H891 C905 0.929 . S
H892 C906 0.931 . S
H893 C908 0.930 . S
C894 H882 0.930 . S
C894 C895 1.399 . S
C894 C899 1.399 . S
C895 C894 1.399 . S
C895 C896 1.376 . S
C896 H883 0.930 . S
C896 C895 1.376 . S
C896 C897 1.388 . S
C897 H884 0.930 1_655 S
C897 C896 1.388 . S
C897 C898 1.390 . S
C898 C897 1.390 . S
C898 C899 1.394 . S
C898 C904 1.465 1_655 S
C899 C894 1.399 . S
C899 C898 1.394 . S
C899 C900 1.516 . S
C900 C899 1.516 . S
C900 C901 1.502 . S
C900 C902 1.561 . S
C900 C903 1.526 1_655 S
C901 H885 0.959 . S
C901 H886 0.959 . S
C901 H887 0.961 . S
C901 C900 1.502 . S
C902 H888 0.960 . S
C902 H889 0.961 . S
C902 H890 0.959 . S
C902 C900 1.561 . S
C903 C900 1.526 1_455 S
C903 C904 1.396 . S
C903 C908 1.390 . S
C904 C898 1.465 1_455 S
C904 C903 1.396 . S
C904 C905 1.399 . S
C905 H891 0.929 . S
C905 C904 1.399 . S
C905 C906 1.385 . S
C906 H892 0.931 . S
C906 C905 1.385 . S
C906 C907 1.389 . S
C907 C906 1.389 . S
C907 C908 1.387 . S
C908 H893 0.930 . S
C908 C903 1.390 . S
C908 C907 1.387 . S
H909 C921 0.930 . S
H910 C923 0.930 . S
H911 C924 0.930 1_565 S
H912 C928 0.959 . S
H913 C928 0.959 . S
H914 C928 0.961 . S
H915 C929 0.960 . S
H916 C929 0.961 . S
H917 C929 0.959 . S
H918 C932 0.929 . S
H919 C933 0.931 . S
H920 C935 0.930 . S
C921 H909 0.930 . S
C921 C922 1.399 . S
C921 C926 1.399 . S
C922 C921 1.399 . S
C922 C923 1.376 . S
C923 H910 0.930 . S
C923 C922 1.376 . S
C923 C924 1.388 . S
C924 H911 0.930 1_545 S
C924 C923 1.388 . S
C924 C925 1.390 . S
C925 C924 1.390 . S
C925 C926 1.394 . S
C925 C931 1.465 1_545 S
C926 C921 1.399 . S
C926 C925 1.394 . S
C926 C927 1.516 . S
C927 C926 1.516 . S
C927 C928 1.502 . S
C927 C929 1.561 . S
C927 C930 1.526 1_545 S
C928 H912 0.959 . S
C928 H913 0.959 . S
C928 H914 0.961 . S
C928 C927 1.502 . S
C929 H915 0.960 . S
C929 H916 0.961 . S
C929 H917 0.959 . S
C929 C927 1.561 . S
C930 C927 1.526 1_565 S
C930 C931 1.396 . S
C930 C935 1.390 . S
C931 C925 1.465 1_565 S
C931 C930 1.396 . S
C931 C932 1.399 . S
C932 H918 0.929 . S
C932 C931 1.399 . S
C932 C933 1.385 . S
C933 H919 0.931 . S
C933 C932 1.385 . S
C933 C934 1.389 . S
C934 C933 1.389 . S
C934 C935 1.387 . S
C935 H920 0.930 . S
C935 C930 1.390 . S
C935 C934 1.387 . S
H936 C948 0.930 . S
H937 C950 0.930 . S
H938 C951 0.930 . S
H939 C955 0.959 . S
H940 C955 0.959 . S
H941 C955 0.961 . S
H942 C956 0.960 . S
H943 C956 0.961 . S
H944 C956 0.959 . S
H945 C959 0.929 . S
H946 C960 0.931 . S
H947 C962 0.930 . S
C948 H936 0.930 . S
C948 C949 1.399 . S
C948 C953 1.399 . S
C949 C948 1.399 . S
C949 C950 1.376 . S
C950 H937 0.930 . S
C950 C949 1.376 . S
C950 C951 1.388 . S
C951 H938 0.930 . S
C951 C950 1.388 . S
C951 C952 1.390 . S
C952 C951 1.390 . S
C952 C953 1.394 . S
C952 C958 1.465 . S
C953 C948 1.399 . S
C953 C952 1.394 . S
C953 C954 1.516 . S
C954 C953 1.516 . S
C954 C955 1.502 . S
C954 C956 1.561 . S
C954 C957 1.526 . S
C955 H939 0.959 . S
C955 H940 0.959 . S
C955 H941 0.961 . S
C955 C954 1.502 . S
C956 H942 0.960 . S
C956 H943 0.961 . S
C956 H944 0.959 . S
C956 C954 1.561 . S
C957 C954 1.526 . S
C957 C958 1.396 . S
C957 C962 1.390 . S
C958 C952 1.465 . S
C958 C957 1.396 . S
C958 C959 1.399 . S
C959 H945 0.929 . S
C959 C958 1.399 . S
C959 C960 1.385 . S
C960 H946 0.931 . S
C960 C959 1.385 . S
C960 C961 1.389 . S
C961 C960 1.389 . S
C961 C962 1.387 . S
C962 H947 0.930 . S
C962 C957 1.390 . S
C962 C961 1.387 . S
H963 C975 0.930 . S
H964 C977 0.930 . S
H965 C978 0.930 . S
H966 C982 0.959 1_655 S
H967 C982 0.959 . S
H968 C982 0.961 . S
H969 C983 0.960 . S
H970 C983 0.961 . S
H971 C983 0.959 . S
H972 C986 0.929 . S
H973 C987 0.931 . S
H974 C989 0.930 . S
C975 H963 0.930 . S
C975 C976 1.399 . S
C975 C980 1.399 . S
C976 C975 1.399 . S
C976 C977 1.376 . S
C977 H964 0.930 . S
C977 C976 1.376 . S
C977 C978 1.388 . S
C978 H965 0.930 . S
C978 C977 1.388 . S
C978 C979 1.390 . S
C979 C978 1.390 . S
C979 C980 1.394 . S
C979 C985 1.465 1_455 S
C980 C975 1.399 . S
C980 C979 1.394 . S
C980 C981 1.516 . S
C981 C980 1.516 . S
C981 C982 1.502 . S
C981 C983 1.561 . S
C981 C984 1.526 1_455 S
C982 H966 0.959 1_455 S
C982 H967 0.959 . S
C982 H968 0.961 . S
C982 C981 1.502 . S
C983 H969 0.960 . S
C983 H970 0.961 . S
C983 H971 0.959 . S
C983 C981 1.561 . S
C984 C981 1.526 1_655 S
C984 C985 1.396 . S
C984 C989 1.390 . S
C985 C979 1.465 1_655 S
C985 C984 1.396 . S
C985 C986 1.399 . S
C986 H972 0.929 . S
C986 C985 1.399 . S
C986 C987 1.385 . S
C987 H973 0.931 . S
C987 C986 1.385 . S
C987 C988 1.389 . S
C988 C987 1.389 . S
C988 C989 1.387 . S
C989 H974 0.930 . S
C989 C984 1.390 . S
C989 C988 1.387 . S
H990 C1002 0.930 . S
H991 C1004 0.930 . S
H992 C1005 0.930 . S
H993 C1009 0.959 . S
H994 C1009 0.959 . S
H995 C1009 0.961 . S
H996 C1010 0.960 . S
H997 C1010 0.961 . S
H998 C1010 0.959 . S
H999 C1013 0.929 1_565 S
H1000 C1014 0.931 . S
H1001 C1016 0.930 . S
C1002 H990 0.930 . S
C1002 C1003 1.399 . S
C1002 C1007 1.399 . S
C1003 C1002 1.399 . S
C1003 C1004 1.376 . S
C1004 H991 0.930 . S
C1004 C1003 1.376 . S
C1004 C1005 1.388 . S
C1005 H992 0.930 . S
C1005 C1004 1.388 . S
C1005 C1006 1.390 . S
C1006 C1005 1.390 . S
C1006 C1007 1.394 . S
C1006 C1012 1.465 1_565 S
C1007 C1002 1.399 . S
C1007 C1006 1.394 . S
C1007 C1008 1.516 1_565 S
C1008 C1007 1.516 1_545 S
C1008 C1009 1.502 . S
C1008 C1010 1.561 . S
C1008 C1011 1.526 . S
C1009 H993 0.959 . S
C1009 H994 0.959 . S
C1009 H995 0.961 . S
C1009 C1008 1.502 . S
C1010 H996 0.960 . S
C1010 H997 0.961 . S
C1010 H998 0.959 . S
C1010 C1008 1.561 . S
C1011 C1008 1.526 . S
C1011 C1012 1.396 . S
C1011 C1016 1.390 . S
C1012 C1006 1.465 1_545 S
C1012 C1011 1.396 . S
C1012 C1013 1.399 . S
C1013 H999 0.929 1_545 S
C1013 C1012 1.399 . S
C1013 C1014 1.385 . S
C1014 H1000 0.931 . S
C1014 C1013 1.385 . S
C1014 C1015 1.389 . S
C1015 C1014 1.389 . S
C1015 C1016 1.387 . S
C1016 H1001 0.930 . S
C1016 C1011 1.390 . S
C1016 C1015 1.387 . S
H1017 C1029 0.930 . S
H1018 C1031 0.930 . S
H1019 C1032 0.930 . S
H1020 C1036 0.959 . S
H1021 C1036 0.959 . S
H1022 C1036 0.961 . S
H1023 C1037 0.960 . S
H1024 C1037 0.961 . S
H1025 C1037 0.959 . S
H1026 C1040 0.929 . S
H1027 C1041 0.931 . S
H1028 C1043 0.930 . S
C1029 H1017 0.930 . S
C1029 C1030 1.399 . S
C1029 C1034 1.399 . S
C1030 C1029 1.399 . S
C1030 C1031 1.376 . S
C1031 H1018 0.930 . S
C1031 C1030 1.376 . S
C1031 C1032 1.388 . S
C1032 H1019 0.930 . S
C1032 C1031 1.388 . S
C1032 C1033 1.390 . S
C1033 C1032 1.390 . S
C1033 C1034 1.394 . S
C1033 C1039 1.465 . S
C1034 C1029 1.399 . S
C1034 C1033 1.394 . S
C1034 C1035 1.516 . S
C1035 C1034 1.516 . S
C1035 C1036 1.502 . S
C1035 C1037 1.561 . S
C1035 C1038 1.526 . S
C1036 H1020 0.959 . S
C1036 H1021 0.959 . S
C1036 H1022 0.961 . S
C1036 C1035 1.502 . S
C1037 H1023 0.960 . S
C1037 H1024 0.961 . S
C1037 H1025 0.959 . S
C1037 C1035 1.561 . S
C1038 C1035 1.526 . S
C1038 C1039 1.396 . S
C1038 C1043 1.390 . S
C1039 C1033 1.465 . S
C1039 C1038 1.396 . S
C1039 C1040 1.399 . S
C1040 H1026 0.929 . S
C1040 C1039 1.399 . S
C1040 C1041 1.385 . S
C1041 H1027 0.931 . S
C1041 C1040 1.385 . S
C1041 C1042 1.389 . S
C1042 C1041 1.389 . S
C1042 C1043 1.387 . S
C1043 H1028 0.930 . S
C1043 C1038 1.390 . S
C1043 C1042 1.387 . S
H1044 C1056 0.930 . S
H1045 C1058 0.930 . S
H1046 C1059 0.930 . S
H1047 C1063 0.959 . S
H1048 C1063 0.959 . S
H1049 C1063 0.961 . S
H1050 C1064 0.960 . S
H1051 C1064 0.961 . S
H1052 C1064 0.959 . S
H1053 C1067 0.929 . S
H1054 C1068 0.931 . S
H1055 C1070 0.930 . S
C1056 H1044 0.930 . S
C1056 C1057 1.399 . S
C1056 C1061 1.399 . S
C1057 C1056 1.399 . S
C1057 C1058 1.376 . S
C1058 H1045 0.930 . S
C1058 C1057 1.376 . S
C1058 C1059 1.388 . S
C1059 H1046 0.930 . S
C1059 C1058 1.388 . S
C1059 C1060 1.390 . S
C1060 C1059 1.390 . S
C1060 C1061 1.394 . S
C1060 C1066 1.465 . S
C1061 C1056 1.399 . S
C1061 C1060 1.394 . S
C1061 C1062 1.516 . S
C1062 C1061 1.516 . S
C1062 C1063 1.502 . S
C1062 C1064 1.561 . S
C1062 C1065 1.526 . S
C1063 H1047 0.959 . S
C1063 H1048 0.959 . S
C1063 H1049 0.961 . S
C1063 C1062 1.502 . S
C1064 H1050 0.960 . S
C1064 H1051 0.961 . S
C1064 H1052 0.959 . S
C1064 C1062 1.561 . S
C1065 C1062 1.526 . S
C1065 C1066 1.396 . S
C1065 C1070 1.390 . S
C1066 C1060 1.465 . S
C1066 C1065 1.396 . S
C1066 C1067 1.399 . S
C1067 H1053 0.929 . S
C1067 C1066 1.399 . S
C1067 C1068 1.385 . S
C1068 H1054 0.931 . S
C1068 C1067 1.385 . S
C1068 C1069 1.389 . S
C1069 C1068 1.389 . S
C1069 C1070 1.387 . S
C1070 H1055 0.930 . S
C1070 C1065 1.390 . S
C1070 C1069 1.387 . S
H1071 C1083 0.930 . S
H1072 C1085 0.930 . S
H1073 C1086 0.930 . S
H1074 C1090 0.959 . S
H1075 C1090 0.959 . S
H1076 C1090 0.961 . S
H1077 C1091 0.960 . S
H1078 C1091 0.961 . S
H1079 C1091 0.959 . S
H1080 C1094 0.929 . S
H1081 C1095 0.931 . S
H1082 C1097 0.930 . S
C1083 H1071 0.930 . S
C1083 C1084 1.399 . S
C1083 C1088 1.399 . S
C1084 C1083 1.399 . S
C1084 C1085 1.376 . S
C1085 H1072 0.930 . S
C1085 C1084 1.376 . S
C1085 C1086 1.388 . S
C1086 H1073 0.930 . S
C1086 C1085 1.388 . S
C1086 C1087 1.390 . S
C1087 C1086 1.390 . S
C1087 C1088 1.394 . S
C1087 C1093 1.465 . S
C1088 C1083 1.399 . S
C1088 C1087 1.394 . S
C1088 C1089 1.516 . S
C1089 C1088 1.516 . S
C1089 C1090 1.502 . S
C1089 C1091 1.561 . S
C1089 C1092 1.526 . S
C1090 H1074 0.959 . S
C1090 H1075 0.959 . S
C1090 H1076 0.961 . S
C1090 C1089 1.502 . S
C1091 H1077 0.960 . S
C1091 H1078 0.961 . S
C1091 H1079 0.959 . S
C1091 C1089 1.561 . S
C1092 C1089 1.526 . S
C1092 C1093 1.396 . S
C1092 C1097 1.390 . S
C1093 C1087 1.465 . S
C1093 C1092 1.396 . S
C1093 C1094 1.399 . S
C1094 H1080 0.929 . S
C1094 C1093 1.399 . S
C1094 C1095 1.385 . S
C1095 H1081 0.931 . S
C1095 C1094 1.385 . S
C1095 C1096 1.389 . S
C1096 C1095 1.389 . S
C1096 C1097 1.387 . S
C1097 H1082 0.930 . S
C1097 C1092 1.390 . S
C1097 C1096 1.387 . S
H1098 C1110 0.930 . S
H1099 C1112 0.930 . S
H1100 C1113 0.930 . S
H1101 C1117 0.959 . S
H1102 C1117 0.959 . S
H1103 C1117 0.961 . S
H1104 C1118 0.960 . S
H1105 C1118 0.961 . S
H1106 C1118 0.959 . S
H1107 C1121 0.929 . S
H1108 C1122 0.931 . S
H1109 C1124 0.930 . S
C1110 H1098 0.930 . S
C1110 C1111 1.399 . S
C1110 C1115 1.399 . S
C1111 C1110 1.399 . S
C1111 C1112 1.376 . S
C1112 H1099 0.930 . S
C1112 C1111 1.376 . S
C1112 C1113 1.388 . S
C1113 H1100 0.930 . S
C1113 C1112 1.388 . S
C1113 C1114 1.390 . S
C1114 C1113 1.390 . S
C1114 C1115 1.394 . S
C1114 C1120 1.465 . S
C1115 C1110 1.399 . S
C1115 C1114 1.394 . S
C1115 C1116 1.516 . S
C1116 C1115 1.516 . S
C1116 C1117 1.502 . S
C1116 C1118 1.561 . S
C1116 C1119 1.526 . S
C1117 H1101 0.959 . S
C1117 H1102 0.959 . S
C1117 H1103 0.961 . S
C1117 C1116 1.502 . S
C1118 H1104 0.960 . S
C1118 H1105 0.961 . S
C1118 H1106 0.959 . S
C1118 C1116 1.561 . S
C1119 C1116 1.526 . S
C1119 C1120 1.396 . S
C1119 C1124 1.390 . S
C1120 C1114 1.465 . S
C1120 C1119 1.396 . S
C1120 C1121 1.399 . S
C1121 H1107 0.929 . S
C1121 C1120 1.399 . S
C1121 C1122 1.385 . S
C1122 H1108 0.931 . S
C1122 C1121 1.385 . S
C1122 C1123 1.389 . S
C1123 C1122 1.389 . S
C1123 C1124 1.387 . S
C1124 H1109 0.930 . S
C1124 C1119 1.390 . S
C1124 C1123 1.387 . S
H1125 C1137 0.930 . S
H1126 C1139 0.930 . S
H1127 C1140 0.930 . S
H1128 C1144 0.959 . S
H1129 C1144 0.959 . S
H1130 C1144 0.961 . S
H1131 C1145 0.960 . S
H1132 C1145 0.961 . S
H1133 C1145 0.959 . S
H1134 C1148 0.929 . S
H1135 C1149 0.931 . S
H1136 C1151 0.930 . S
C1137 H1125 0.930 . S
C1137 C1138 1.399 . S
C1137 C1142 1.399 . S
C1138 C1137 1.399 . S
C1138 C1139 1.376 . S
C1139 H1126 0.930 . S
C1139 C1138 1.376 . S
C1139 C1140 1.388 . S
C1140 H1127 0.930 . S
C1140 C1139 1.388 . S
C1140 C1141 1.390 . S
C1141 C1140 1.390 . S
C1141 C1142 1.394 . S
C1141 C1147 1.465 . S
C1142 C1137 1.399 . S
C1142 C1141 1.394 . S
C1142 C1143 1.516 . S
C1143 C1142 1.516 . S
C1143 C1144 1.502 . S
C1143 C1145 1.561 . S
C1143 C1146 1.526 . S
C1144 H1128 0.959 . S
C1144 H1129 0.959 . S
C1144 H1130 0.961 . S
C1144 C1143 1.502 . S
C1145 H1131 0.960 . S
C1145 H1132 0.961 . S
C1145 H1133 0.959 . S
C1145 C1143 1.561 . S
C1146 C1143 1.526 . S
C1146 C1147 1.396 . S
C1146 C1151 1.390 . S
C1147 C1141 1.465 . S
C1147 C1146 1.396 . S
C1147 C1148 1.399 . S
C1148 H1134 0.929 . S
C1148 C1147 1.399 . S
C1148 C1149 1.385 . S
C1149 H1135 0.931 . S
C1149 C1148 1.385 . S
C1149 C1150 1.389 . S
C1150 C1149 1.389 . S
C1150 C1151 1.387 . S
C1151 H1136 0.930 . S
C1151 C1146 1.390 . S
C1151 C1150 1.387 . S
H1152 C1164 0.930 . S
H1153 C1166 0.930 . S
H1154 C1167 0.930 . S
H1155 C1171 0.959 . S
H1156 C1171 0.959 . S
H1157 C1171 0.961 . S
H1158 C1172 0.960 . S
H1159 C1172 0.961 . S
H1160 C1172 0.959 . S
H1161 C1175 0.929 . S
H1162 C1176 0.931 . S
H1163 C1178 0.930 . S
C1164 H1152 0.930 . S
C1164 C1165 1.399 . S
C1164 C1169 1.399 . S
C1165 C1164 1.399 . S
C1165 C1166 1.376 . S
C1166 H1153 0.930 . S
C1166 C1165 1.376 . S
C1166 C1167 1.388 . S
C1167 H1154 0.930 . S
C1167 C1166 1.388 . S
C1167 C1168 1.390 . S
C1168 C1167 1.390 . S
C1168 C1169 1.394 . S
C1168 C1174 1.465 . S
C1169 C1164 1.399 . S
C1169 C1168 1.394 . S
C1169 C1170 1.516 . S
C1170 C1169 1.516 . S
C1170 C1171 1.502 . S
C1170 C1172 1.561 . S
C1170 C1173 1.526 . S
C1171 H1155 0.959 . S
C1171 H1156 0.959 . S
C1171 H1157 0.961 . S
C1171 C1170 1.502 . S
C1172 H1158 0.960 . S
C1172 H1159 0.961 . S
C1172 H1160 0.959 . S
C1172 C1170 1.561 . S
C1173 C1170 1.526 . S
C1173 C1174 1.396 . S
C1173 C1178 1.390 . S
C1174 C1168 1.465 . S
C1174 C1173 1.396 . S
C1174 C1175 1.399 . S
C1175 H1161 0.929 . S
C1175 C1174 1.399 . S
C1175 C1176 1.385 . S
C1176 H1162 0.931 . S
C1176 C1175 1.385 . S
C1176 C1177 1.389 . S
C1177 C1176 1.389 . S
C1177 C1178 1.387 . S
C1178 H1163 0.930 . S
C1178 C1173 1.390 . S
C1178 C1177 1.387 . S
H1179 C1191 0.930 . S
H1180 C1193 0.930 . S
H1181 C1194 0.930 . S
H1182 C1198 0.959 . S
H1183 C1198 0.959 . S
H1184 C1198 0.961 . S
H1185 C1199 0.960 . S
H1186 C1199 0.961 . S
H1187 C1199 0.959 . S
H1188 C1202 0.929 . S
H1189 C1203 0.931 . S
H1190 C1205 0.930 . S
C1191 H1179 0.930 . S
C1191 C1192 1.399 . S
C1191 C1196 1.399 . S
C1192 C1191 1.399 . S
C1192 C1193 1.376 . S
C1193 H1180 0.930 . S
C1193 C1192 1.376 . S
C1193 C1194 1.388 . S
C1194 H1181 0.930 . S
C1194 C1193 1.388 . S
C1194 C1195 1.390 . S
C1195 C1194 1.390 . S
C1195 C1196 1.394 . S
C1195 C1201 1.465 . S
C1196 C1191 1.399 . S
C1196 C1195 1.394 . S
C1196 C1197 1.516 . S
C1197 C1196 1.516 . S
C1197 C1198 1.502 . S
C1197 C1199 1.561 . S
C1197 C1200 1.526 . S
C1198 H1182 0.959 . S
C1198 H1183 0.959 . S
C1198 H1184 0.961 . S
C1198 C1197 1.502 . S
C1199 H1185 0.960 . S
C1199 H1186 0.961 . S
C1199 H1187 0.959 . S
C1199 C1197 1.561 . S
C1200 C1197 1.526 . S
C1200 C1201 1.396 . S
C1200 C1205 1.390 . S
C1201 C1195 1.465 . S
C1201 C1200 1.396 . S
C1201 C1202 1.399 . S
C1202 H1188 0.929 . S
C1202 C1201 1.399 . S
C1202 C1203 1.385 . S
C1203 H1189 0.931 . S
C1203 C1202 1.385 . S
C1203 C1204 1.389 . S
C1204 C1203 1.389 . S
C1204 C1205 1.387 . S
C1205 H1190 0.930 . S
C1205 C1200 1.390 . S
C1205 C1204 1.387 . S
C409 N104 1.751 . S
C421 N5 1.736 . S
C436 N137 1.720 . S
C448 N38 1.752 . S
C463 N170 1.718 . S
C475 N71 1.733 . S
C490 N203 1.747 . S
C502 N302 1.742 . S
C517 N236 1.750 . S
C529 N335 1.738 . S
C544 N269 1.721 . S
C556 N368 1.728 . S
C571 C325 1.793 . S
C583 C28 1.764 . S
C598 C61 1.781 . S
C610 C358 1.809 . S
C625 C391 1.792 . S
C637 C94 1.808 . S
C652 C226 1.765 . S
C664 C127 1.798 . S
C679 C160 1.774 . S
C691 C259 1.807 . S
C706 C193 1.809 . S
C718 C292 1.781 . S
C733 N14 0.780 . S
C745 N113 0.907 . S
C760 N47 0.810 . S
C772 N146 0.870 . S
C787 N179 0.960 . S
C799 N80 0.793 . S
C814 N212 0.961 . S
C826 N311 0.787 . S
C841 N245 0.783 . S
C853 N344 0.902 . S
C868 N377 0.919 . S
C880 N278 0.867 . S
C895 C371 1.630 . S
C907 C8 1.628 . S
C922 C41 1.592 . S
C934 C206 1.591 . S
C949 C239 1.661 . S
C961 C74 1.660 . S
C976 C272 1.574 . S
C988 C107 1.575 . S
C1003 C140 1.602 . S
C1015 C305 1.605 . S
C1030 C173 1.639 . S
C1042 C338 1.637 . S
C1057 C17 0.548 . S
C1069 C281 0.522 . S
C1084 C50 0.629 . S
C1096 C314 0.620 . S
C1111 C347 0.559 . S
C1123 C83 0.532 . S
C1138 C116 0.550 . S
C1150 C380 0.575 . S
C1165 C215 0.616 . S
C1177 C149 0.596 . S
C1192 C182 0.593 . S
C1204 C248 0.567 . S
