# Generated by pormake.
# Topology wjg, (4)-cn, num edge types: 1
# Building blocks:
#     Node 0, Type 0, BuildingBlock: NAHDIM_clean_sbu_0, # of connection points: 4
#     Node 1, Type 0, BuildingBlock: NAHDIM_clean_sbu_0, # of connection points: 4
#     Node 2, Type 0, BuildingBlock: NAHDIM_clean_sbu_0, # of connection points: 4
#     Node 3, Type 0, BuildingBlock: NAHDIM_clean_sbu_0, # of connection points: 4
#     Node 4, Type 0, BuildingBlock: NAHDIM_clean_sbu_0, # of connection points: 4
#     Node 5, Type 0, BuildingBlock: NAHDIM_clean_sbu_0, # of connection points: 4
#     Node 6, Type 0, BuildingBlock: NAHDIM_clean_sbu_0, # of connection points: 4
#     Node 7, Type 0, BuildingBlock: NAHDIM_clean_sbu_0, # of connection points: 4
#     Node 8, Type 0, BuildingBlock: NAHDIM_clean_sbu_0, # of connection points: 4
#     Node 9, Type 0, BuildingBlock: NAHDIM_clean_sbu_0, # of connection points: 4
#     Node 10, Type 0, BuildingBlock: NAHDIM_clean_sbu_0, # of connection points: 4
#     Node 11, Type 0, BuildingBlock: NAHDIM_clean_sbu_0, # of connection points: 4
#     Edge 12, Type (0, 0), BuildingBlock: OJICUG_clean_linker_0, # of connection points: 2
#     Edge 13, Type (0, 0), BuildingBlock: OJICUG_clean_linker_0, # of connection points: 2
#     Edge 14, Type (0, 0), BuildingBlock: OJICUG_clean_linker_0, # of connection points: 2
#     Edge 15, Type (0, 0), BuildingBlock: OJICUG_clean_linker_0, # of connection points: 2
#     Edge 16, Type (0, 0), BuildingBlock: OJICUG_clean_linker_0, # of connection points: 2
#     Edge 17, Type (0, 0), BuildingBlock: OJICUG_clean_linker_0, # of connection points: 2
#     Edge 18, Type (0, 0), BuildingBlock: OJICUG_clean_linker_0, # of connection points: 2
#     Edge 19, Type (0, 0), BuildingBlock: OJICUG_clean_linker_0, # of connection points: 2
#     Edge 20, Type (0, 0), BuildingBlock: OJICUG_clean_linker_0, # of connection points: 2
#     Edge 21, Type (0, 0), BuildingBlock: OJICUG_clean_linker_0, # of connection points: 2
#     Edge 22, Type (0, 0), BuildingBlock: OJICUG_clean_linker_0, # of connection points: 2
#     Edge 23, Type (0, 0), BuildingBlock: OJICUG_clean_linker_0, # of connection points: 2
#     Edge 24, Type (0, 0), BuildingBlock: OJICUG_clean_linker_0, # of connection points: 2
#     Edge 25, Type (0, 0), BuildingBlock: OJICUG_clean_linker_0, # of connection points: 2
#     Edge 26, Type (0, 0), BuildingBlock: OJICUG_clean_linker_0, # of connection points: 2
#     Edge 27, Type (0, 0), BuildingBlock: OJICUG_clean_linker_0, # of connection points: 2
#     Edge 28, Type (0, 0), BuildingBlock: OJICUG_clean_linker_0, # of connection points: 2
#     Edge 29, Type (0, 0), BuildingBlock: OJICUG_clean_linker_0, # of connection points: 2
#     Edge 30, Type (0, 0), BuildingBlock: OJICUG_clean_linker_0, # of connection points: 2
#     Edge 31, Type (0, 0), BuildingBlock: OJICUG_clean_linker_0, # of connection points: 2
#     Edge 32, Type (0, 0), BuildingBlock: OJICUG_clean_linker_0, # of connection points: 2
#     Edge 33, Type (0, 0), BuildingBlock: OJICUG_clean_linker_0, # of connection points: 2
#     Edge 34, Type (0, 0), BuildingBlock: OJICUG_clean_linker_0, # of connection points: 2
#     Edge 35, Type (0, 0), BuildingBlock: OJICUG_clean_linker_0, # of connection points: 2
# Relax obj value: 0.283
# Max RMSD: 0.131
# Mean RMSD: 0.129
data_MOF--net-wjg--node1-NAHDIM_clean_sbu_0--edge1-OJICUG_clean_linker_0
_symmetry_space_group_name_H-M    P1
_symmetry_Int_Tables_number       1
_symmetry_cell_setting            triclinic
loop_
_symmetry_equiv_pos_as_xyz
'x, y, z'
_cell_length_a     25.414814
_cell_length_b     25.262684
_cell_length_c     28.274662
_cell_angle_alpha  90.175696
_cell_angle_beta   89.584602
_cell_angle_gamma 119.96597
loop_
_atom_site_label
_atom_site_type_symbol
_atom_site_fract_x
_atom_site_fract_y
_atom_site_fract_z
_atom_type_partial_charge
C0 C 0.07377 0.39145 0.23338 0.0
O1 O 0.1296 0.40781 0.22038 0.0
O2 O 0.20049 0.46804 0.32077 0.0
Zn3 Zn 0.12398 0.38575 0.32054 0.0
O4 O 0.14966 0.32615 0.29939 0.0
C5 C 0.12175 0.41465 0.41661 0.0
O6 O 0.13255 0.46713 0.39874 0.0
O7 O 0.05947 0.38109 0.27696 0.0
C8 C 0.13634 0.27854 0.32334 0.0
O9 O 0.09838 0.26374 0.35918 0.0
C10 C 0.24177 0.46753 0.34573 0.0
O11 O 0.23202 0.41533 0.36344 0.0
O12 O 0.10105 0.36844 0.38949 0.0
C13 C 0.67008 0.04107 0.60424 0.0
O14 O 0.68872 0.0276 0.64323 0.0
O15 O 0.74805 0.24402 0.62602 0.0
Zn16 Zn 0.73864 0.16233 0.6422 0.0
O17 O 0.82208 0.17298 0.63779 0.0
C18 C 0.70073 0.1789 0.73491 0.0
O19 O 0.67226 0.20186 0.71171 0.0
O20 O 0.68319 0.09597 0.59724 0.0
C21 C 0.85837 0.21028 0.6682 0.0
O22 O 0.83925 0.23887 0.6962 0.0
C23 C 0.70548 0.25529 0.61815 0.0
O24 O 0.64925 0.2099 0.61548 0.0
O25 O 0.71973 0.14801 0.71238 0.0
C26 C 0.60585 0.7123 0.90312 0.0
O27 O 0.58128 0.74469 0.8894 0.0
O28 O 0.50238 0.73618 0.98054 0.0
Zn29 Zn 0.58869 0.75511 0.9915 0.0
O30 O 0.64429 0.84562 0.98407 0.0
C31 C 0.54344 0.71271 0.08409 0.0
O32 O 0.49359 0.67684 0.0607 0.0
O33 O 0.61343 0.70831 0.94715 0.0
C34 C 0.63246 0.87779 0.01213 0.0
O35 O 0.58655 0.8506 0.04181 0.0
C36 C 0.48946 0.77496 0.96403 0.0
O37 O 0.53225 0.82476 0.94371 0.0
O38 O 0.59322 0.74166 0.06132 0.0
C39 C 0.89141 0.59241 0.22406 0.0
O40 O 0.83503 0.56826 0.20957 0.0
O41 O 0.76527 0.48836 0.30598 0.0
Zn42 Zn 0.83149 0.57641 0.31304 0.0
O43 O 0.79686 0.63196 0.30392 0.0
C44 C 0.82757 0.54419 0.41016 0.0
O45 O 0.80586 0.48893 0.39281 0.0
O46 O 0.90199 0.59971 0.26823 0.0
C47 C 0.75829 0.6261 0.33542 0.0
O48 O 0.74068 0.58206 0.36672 0.0
C49 C 0.71267 0.47199 0.29017 0.0
O50 O 0.70239 0.51291 0.27039 0.0
O51 O 0.85392 0.58962 0.38227 0.0
C52 C 0.31099 0.95198 0.5976 0.0
O53 O 0.28951 0.96553 0.63529 0.0
O54 O 0.25787 0.75648 0.62963 0.0
Zn55 Zn 0.25282 0.83249 0.64083 0.0
O56 O 0.16575 0.81162 0.63614 0.0
C57 C 0.29004 0.8232 0.73329 0.0
O58 O 0.3187 0.79946 0.71074 0.0
O59 O 0.30342 0.89852 0.59365 0.0
C60 C 0.13038 0.77536 0.66776 0.0
O61 O 0.15184 0.7519 0.69828 0.0
C62 C 0.21601 0.70803 0.61102 0.0
O63 O 0.16926 0.70857 0.59205 0.0
O64 O 0.27133 0.85338 0.70983 0.0
C65 C 0.38326 0.30214 0.90542 0.0
O66 O 0.4141 0.27544 0.89246 0.0
O67 O 0.47942 0.27416 0.98414 0.0
Zn68 Zn 0.39146 0.25158 0.99205 0.0
O69 O 0.33866 0.1616 0.97965 0.0
C70 C 0.42481 0.27799 0.08836 0.0
O71 O 0.47801 0.31706 0.07024 0.0
O72 O 0.36836 0.29998 0.94874 0.0
C73 C 0.34999 0.12773 0.00585 0.0
O74 O 0.3947 0.15293 0.03628 0.0
C75 C 0.49507 0.23853 0.96506 0.0
O76 O 0.45493 0.19105 0.941 0.0
O77 O 0.37834 0.25664 0.06194 0.0
C78 C 0.57814 0.86199 0.45397 0.0
O79 O 0.56081 0.80475 0.4638 0.0
O80 O 0.47467 0.73882 0.376 0.0
Zn81 Zn 0.55996 0.80819 0.36492 0.0
O82 O 0.61607 0.77474 0.37431 0.0
C83 C 0.52068 0.79793 0.26908 0.0
O84 O 0.46672 0.77214 0.28906 0.0
O85 O 0.5813 0.87754 0.41079 0.0
C86 C 0.66067 0.78855 0.34656 0.0
O87 O 0.67504 0.83127 0.31455 0.0
C88 C 0.46414 0.68757 0.39216 0.0
O89 O 0.50932 0.68211 0.40879 0.0
O90 O 0.56739 0.82707 0.29484 0.0
C91 C 0.70418 0.61633 0.76358 0.0
O92 O 0.73606 0.59131 0.77745 0.0
O93 O 0.7281 0.51477 0.68011 0.0
Zn94 Zn 0.75214 0.60376 0.67664 0.0
O95 O 0.83996 0.65199 0.69465 0.0
C96 C 0.71815 0.57322 0.58097 0.0
O97 O 0.67237 0.52466 0.6003 0.0
O98 O 0.702 0.62562 0.7196 0.0
C99 C 0.87577 0.69981 0.67146 0.0
O100 O 0.85327 0.7212 0.64007 0.0
C101 C 0.76425 0.50276 0.65729 0.0
O102 O 0.81408 0.54807 0.63904 0.0
O103 O 0.75014 0.61931 0.60693 0.0
C104 C 0.08947 0.69393 0.08832 0.0
O105 O 0.14556 0.72605 0.10352 0.0
O106 O 0.22247 0.7272 0.01616 0.0
Zn107 Zn 0.15334 0.74287 0.00266 0.0
O108 O 0.18302 0.83242 0.01163 0.0
C109 C 0.1685 0.71041 0.90917 0.0
O110 O 0.18544 0.67604 0.93166 0.0
O111 O 0.07979 0.69221 0.04408 0.0
C112 C 0.22782 0.86736 0.98531 0.0
O113 O 0.25128 0.84349 0.95663 0.0
C114 C 0.27239 0.76724 0.03401 0.0
O115 O 0.2756 0.81542 0.0546 0.0
O116 O 0.14077 0.73265 0.93209 0.0
C117 C 0.3805 0.11254 0.43577 0.0
O118 O 0.38641 0.16704 0.44039 0.0
O119 O 0.45663 0.22802 0.3391 0.0
Zn120 Zn 0.38054 0.14566 0.34092 0.0
O121 O 0.311 0.16124 0.34789 0.0
C122 C 0.41936 0.13548 0.24998 0.0
O123 O 0.47096 0.14942 0.27032 0.0
O124 O 0.3787 0.09195 0.39433 0.0
C125 C 0.30723 0.19288 0.31463 0.0
O126 O 0.34878 0.21344 0.28108 0.0
C127 C 0.51013 0.23965 0.34853 0.0
O128 O 0.51862 0.19634 0.36595 0.0
O129 O 0.3714 0.11163 0.27517 0.0
C130 C 0.28162 0.38714 0.76228 0.0
O131 O 0.24257 0.40448 0.77463 0.0
O132 O 0.24218 0.47374 0.67482 0.0
Zn133 Zn 0.23197 0.38926 0.67414 0.0
O134 O 0.14582 0.33299 0.69381 0.0
C135 C 0.26194 0.41665 0.57741 0.0
O136 O 0.30368 0.46953 0.59433 0.0
O137 O 0.28799 0.37918 0.71861 0.0
C138 C 0.11176 0.28461 0.67075 0.0
O139 O 0.13555 0.26669 0.63734 0.0
C140 C 0.20206 0.47725 0.65044 0.0
O141 O 0.15802 0.42712 0.63166 0.0
O142 O 0.23696 0.37118 0.6053 0.0
C143 C 0.88673 0.31456 0.09206 0.0
O144 O 0.82959 0.28655 0.10574 0.0
O145 O 0.75817 0.28074 0.01861 0.0
Zn146 Zn 0.82657 0.26329 0.00654 0.0
O147 O 0.79593 0.17401 0.01748 0.0
C148 C 0.81431 0.29304 0.91181 0.0
O149 O 0.79658 0.32784 0.93301 0.0
O150 O 0.8988 0.31343 0.04842 0.0
C151 C 0.75123 0.13806 0.99191 0.0
O152 O 0.72762 0.16066 0.96259 0.0
C153 C 0.70782 0.24207 0.03711 0.0
O154 O 0.70319 0.19387 0.05854 0.0
O155 O 0.84107 0.27117 0.93595 0.0
C156 C 0.34038 0.52218 0.38832 0.0
C157 C 0.29736 0.52458 0.35878 0.0
H158 H 0.4262 0.57179 0.42267 0.0
C159 C 0.30746 0.58166 0.34325 0.0
H160 H 0.3336 0.47898 0.40151 0.0
C161 C 0.3605 0.63515 0.3559 0.0
C162 C 0.4045 0.63245 0.38412 0.0
H163 H 0.27477 0.58502 0.32096 0.0
H164 H 0.36771 0.67838 0.34245 0.0
C165 C 0.39337 0.57548 0.40079 0.0
C166 C 0.67333 0.3312 0.63981 0.0
C167 C 0.71847 0.3188 0.62357 0.0
H168 H 0.65266 0.39921 0.6644 0.0
C169 C 0.77818 0.36735 0.61789 0.0
H170 H 0.62704 0.29456 0.64506 0.0
C171 C 0.79276 0.42696 0.62892 0.0
C172 C 0.74816 0.43924 0.64657 0.0
H173 H 0.81395 0.35912 0.60559 0.0
H174 H 0.83932 0.46332 0.62431 0.0
C175 C 0.68815 0.39091 0.65155 0.0
C176 C 0.43227 0.82637 0.98958 0.0
C177 C 0.43262 0.77206 0.97967 0.0
H178 H 0.38205 0.86723 0.01642 0.0
C179 C 0.3805 0.71573 0.98973 0.0
H180 H 0.47213 0.87047 0.98299 0.0
C181 C 0.32847 0.71386 0.00846 0.0
C182 C 0.32854 0.7683 0.01892 0.0
H183 H 0.37994 0.67323 0.98291 0.0
H184 H 0.28825 0.66995 0.01483 0.0
C185 C 0.38104 0.82452 0.00956 0.0
C186 C 0.55268 0.33994 0.30654 0.0
C187 C 0.56233 0.29877 0.33338 0.0
H188 H 0.59245 0.42615 0.27107 0.0
C189 C 0.62215 0.31357 0.34355 0.0
H190 H 0.50719 0.32962 0.29745 0.0
C191 C 0.67121 0.36894 0.32808 0.0
C192 C 0.66144 0.4106 0.30198 0.0
H193 H 0.63114 0.28261 0.36375 0.0
H194 H 0.71672 0.3795 0.33731 0.0
C195 C 0.60165 0.39513 0.29097 0.0
C196 C 0.16768 0.59505 0.59984 0.0
C197 C 0.21534 0.6497 0.61794 0.0
H198 H 0.12605 0.4979 0.59609 0.0
C199 C 0.25967 0.6474 0.64603 0.0
H200 H 0.13282 0.5952 0.57812 0.0
C201 C 0.25551 0.59146 0.65676 0.0
C202 C 0.20704 0.53674 0.63951 0.0
H203 H 0.29697 0.68869 0.66066 0.0
H204 H 0.28998 0.59111 0.67885 0.0
C205 C 0.16363 0.53921 0.61044 0.0
C206 C 0.60063 0.18641 0.01051 0.0
C207 C 0.65261 0.24204 0.02174 0.0
H208 H 0.51104 0.14208 0.98189 0.0
C209 C 0.65336 0.29707 0.01275 0.0
H210 H 0.59926 0.14335 0.01621 0.0
C211 C 0.60236 0.29631 0.99359 0.0
C212 C 0.55087 0.2406 0.98153 0.0
H213 H 0.69331 0.34054 0.02058 0.0
H214 H 0.60327 0.33914 0.98789 0.0
C215 C 0.55057 0.18574 0.99003 0.0
C216 C 0.17268 0.20893 0.35221 0.0
C217 C 0.17324 0.24875 0.31733 0.0
H218 H 0.21502 0.16022 0.37897 0.0
C219 C 0.21472 0.26558 0.27955 0.0
H220 H 0.14127 0.19514 0.38181 0.0
C221 C 0.25696 0.24573 0.27801 0.0
C222 C 0.25873 0.20879 0.3143 0.0
H223 H 0.21608 0.29594 0.25198 0.0
H224 H 0.28942 0.26096 0.24906 0.0
C225 C 0.21517 0.18922 0.35077 0.0
C226 C 0.94549 0.19888 0.6388 0.0
C227 C 0.92154 0.22315 0.6717 0.0
H228 H 0.02479 0.19866 0.6131 0.0
C229 C 0.95919 0.26188 0.70755 0.0
H230 H 0.91736 0.16843 0.61106 0.0
C231 C 0.02039 0.27886 0.70892 0.0
C232 C 0.0453 0.25752 0.67443 0.0
H233 H 0.94187 0.2806 0.73391 0.0
H234 H 0.04865 0.31064 0.73597 0.0
C235 C 0.00692 0.21592 0.64017 0.0
C236 C 0.65861 0.03746 0.00285 0.0
C237 C 0.72193 0.07182 0.99815 0.0
H238 H 0.58088 0.94862 0.01228 0.0
C239 C 0.75626 0.04228 0.99826 0.0
H240 H 0.63145 0.0596 0.00288 0.0
C241 C 0.72715 0.97859 0.00192 0.0
C242 C 0.66382 0.94441 0.00733 0.0
H243 H 0.80522 0.06826 0.99439 0.0
H244 H 0.75402 0.95616 0.00128 0.0
C245 C 0.62984 0.97429 0.00829 0.0
C246 C 0.6723 0.70311 0.37875 0.0
C247 C 0.6896 0.75037 0.34564 0.0
H248 H 0.68011 0.6268 0.40123 0.0
C249 C 0.73097 0.75746 0.30951 0.0
H250 H 0.64051 0.69636 0.40699 0.0
C251 C 0.75348 0.71715 0.30598 0.0
C252 C 0.73505 0.66912 0.33855 0.0
H253 H 0.74499 0.79329 0.28332 0.0
H254 H 0.78483 0.7233 0.27754 0.0
C255 C 0.69477 0.66296 0.37524 0.0
C256 C 0.04258 0.785 0.6389 0.0
C257 C 0.06605 0.75921 0.6704 0.0
H258 H 0.96401 0.78717 0.61504 0.0
C259 C 0.02732 0.71735 0.70459 0.0
H260 H 0.07143 0.81778 0.61241 0.0
C261 C 0.96591 0.69994 0.7062 0.0
C262 C 0.94195 0.72418 0.67374 0.0
H263 H 0.04412 0.69705 0.72968 0.0
H264 H 0.93696 0.66634 0.73218 0.0
C265 C 0.98111 0.76774 0.64062 0.0
C266 C 0.35133 0.03098 0.99736 0.0
C267 C 0.31793 0.06138 -0.00057 0.0
H268 H 0.34837 0.94521 0.99002 0.0
C269 C 0.25434 0.02778 0.9969 0.0
H270 H 0.40046 0.05623 -0.00071 0.0
C271 C 0.22441 0.96403 0.99335 0.0
C272 C 0.25807 0.93386 0.99053 0.0
H273 H 0.22793 0.05064 -0.00122 0.0
H274 H 0.17526 0.93847 0.99199 0.0
C275 C 0.32166 0.96776 0.99205 0.0
C276 C -0.0032 0.36549 0.11442 0.0
C277 C 0.93563 0.34095 0.12778 0.0
H278 H 0.08846 0.40116 0.13728 0.0
C279 C 0.92104 0.33809 0.17615 0.0
H280 H 0.00963 0.36862 0.07748 0.0
C281 C 0.96619 0.35665 0.21047 0.0
C282 C 0.02698 0.37856 0.19719 0.0
H283 H 0.87441 0.31981 0.1877 0.0
H284 H 0.9531 0.3521 0.24742 0.0
C285 C 0.04199 0.38414 0.14876 0.0
C286 C 0.63537 0.0117 0.52034 0.0
C287 C 0.64095 -0.00541 0.56656 0.0
H288 H 0.6115 0.98339 0.4483 0.0
C289 C 0.62237 0.93311 0.57572 0.0
H290 H 0.64937 0.05877 0.51208 0.0
C291 C 0.60047 0.89003 0.53931 0.0
C292 C 0.59707 0.90743 0.49272 0.0
H293 H 0.62581 0.91834 0.61092 0.0
H294 H 0.58762 0.84325 0.54761 0.0
C295 C 0.61389 0.96858 0.48373 0.0
C296 C 0.62094 0.69104 0.81888 0.0
C297 C 0.62747 0.68415 0.8675 0.0
H298 H 0.63969 0.67492 0.74796 0.0
C299 C 0.65672 0.65207 0.8815 0.0
H300 H 0.59846 0.71531 0.80682 0.0
C301 C 0.68031 0.62886 0.84768 0.0
C302 C 0.67523 0.63718 0.79909 0.0
H303 H 0.66236 0.64575 0.91861 0.0
H304 H 0.7035 0.60529 0.85976 0.0
C305 C 0.64455 0.66783 0.78507 0.0
C306 C 0.97793 0.63355 0.10747 0.0
C307 C 0.03856 0.66397 0.1227 0.0
H308 H 0.88397 0.58692 0.12746 0.0
C309 C 0.05028 0.66779 0.17151 0.0
H310 H 0.96729 0.62964 0.07015 0.0
C311 C 0.00257 0.64334 0.20438 0.0
C312 C 0.94195 0.61448 0.18924 0.0
H313 H 0.09644 0.69067 0.18451 0.0
H314 H 0.0133 0.6481 0.24171 0.0
C315 C 0.93016 0.60908 0.14038 0.0
C316 C 0.36272 0.01517 0.47386 0.0
C317 C 0.36964 0.07376 0.47804 0.0
H318 H 0.33956 0.93095 0.50847 0.0
C319 C 0.36238 0.09376 0.52283 0.0
H320 H 0.36835 -0.00149 0.43994 0.0
C321 C 0.3456 0.05499 0.56205 0.0
C322 C 0.33611 -0.00453 0.55749 0.0
H323 H 0.36767 0.13874 0.52741 0.0
H324 H 0.33846 0.07119 0.59567 0.0
C325 C 0.34634 0.9765 0.51321 0.0
C326 C 0.32535 0.35435 0.88202 0.0
C327 C 0.36198 0.32941 0.86927 0.0
H328 H 0.27168 0.39258 0.85828 0.0
C329 C 0.37558 0.32779 0.82114 0.0
H330 H 0.31422 0.35655 0.91876 0.0
C331 C 0.35114 0.34838 0.78642 0.0
C332 C 0.31261 0.37114 0.79904 0.0
H333 H 0.40394 0.30917 0.81007 0.0
H334 H 0.36125 0.34499 0.74962 0.0
C335 C 0.30097 0.37503 0.84728 0.0
C336 C 0.14565 0.35947 0.47906 0.0
C337 C 0.15459 0.4146 0.45967 0.0
H338 H 0.17329 0.31673 0.53095 0.0
C339 C 0.20104 0.47007 0.47797 0.0
H340 H 0.1108 0.31596 0.46533 0.0
C341 C 0.23788 0.47049 0.51451 0.0
C342 C 0.22869 0.41546 0.53423 0.0
H343 H 0.21004 0.51343 0.46339 0.0
H344 H 0.27269 0.51419 0.52799 0.0
C345 C 0.18204 0.35991 0.51615 0.0
C346 C 0.79774 0.2203 0.84516 0.0
C347 C 0.78806 0.26575 0.86531 0.0
H348 H 0.77671 0.15605 0.7888 0.0
C349 C 0.74722 0.27998 0.84332 0.0
H350 H 0.82827 0.20762 0.86152 0.0
C351 C 0.71679 0.24961 0.80228 0.0
C352 C 0.72668 0.20448 0.78187 0.0
H353 H 0.738 0.31414 0.85812 0.0
H354 H 0.68627 0.26244 0.78611 0.0
C355 C 0.76743 0.19004 0.80387 0.0
C356 C 0.47553 0.73531 0.19645 0.0
C357 C 0.52716 0.77931 0.22062 0.0
H358 H 0.44031 0.6785 0.1355 0.0
C359 C 0.58479 0.79969 0.20023 0.0
H360 H 0.43044 0.71801 0.21126 0.0
C361 C 0.59051 0.77658 0.1566 0.0
C362 C 0.53874 0.73233 0.13262 0.0
H363 H 0.62555 0.83307 0.21814 0.0
H364 H 0.63543 0.79385 0.14148 0.0
C365 C 0.48126 0.71193 0.15317 0.0
C366 C 0.75647 0.50101 0.47905 0.0
C367 C 0.80349 0.55213 0.4559 0.0
H368 H 0.6915 0.46769 0.53543 0.0
C369 C 0.8212 0.61077 0.4736 0.0
H370 H 0.74113 0.45517 0.46621 0.0
C371 C 0.79233 0.61799 0.51344 0.0
C372 C 0.74461 0.56679 0.536 0.0
H373 H 0.85682 0.65115 0.45632 0.0
H374 H 0.80742 0.66364 0.52664 0.0
C375 C 0.72715 0.50826 0.51835 0.0
C376 C 0.18887 0.78322 0.84201 0.0
C377 C 0.19695 0.73734 0.86292 0.0
H378 H 0.2131 0.8476 0.78543 0.0
C379 C 0.23827 0.72245 0.84205 0.0
H380 H 0.15805 0.79646 0.8575 0.0
C381 C 0.27065 0.75254 0.8013 0.0
C382 C 0.26232 0.79809 0.78013 0.0
H383 H 0.2463 0.68795 0.85749 0.0
H384 H 0.30141 0.73914 0.78592 0.0
C385 C 0.2212 0.81326 0.80108 0.0
C386 C 0.47559 0.21958 0.19136 0.0
C387 C 0.42059 0.16953 0.20701 0.0
H388 H 0.51976 0.29424 0.14308 0.0
C389 C 0.36637 0.15731 0.18473 0.0
H390 H 0.51815 0.23113 0.20821 0.0
C391 C 0.36721 0.19414 0.14752 0.0
C392 C 0.42231 0.24412 0.13184 0.0
H393 H 0.32316 0.11956 0.19634 0.0
H394 H 0.32477 0.1828 0.13058 0.0
C395 C 0.47639 0.25654 0.15444 0.0
loop_
_geom_bond_atom_site_label_1
_geom_bond_atom_site_label_2
_geom_bond_distance
_geom_bond_site_symmetry_2
_ccdc_geom_bond_type
C0 O1 1.160 . S
C0 O7 1.185 . S
O1 C0 1.160 . S
O2 Zn3 1.899 . S
O2 C10 1.284 . S
Zn3 O2 1.899 . S
Zn3 O4 2.032 . S
Zn3 O7 2.086 . S
Zn3 O12 1.977 . S
O4 Zn3 2.032 . S
O4 C8 1.278 . S
C5 O6 1.203 . S
C5 O12 1.267 . S
O6 C5 1.203 . S
O7 C0 1.185 . S
O7 Zn3 2.086 . S
C8 O4 1.278 . S
C8 O9 1.211 . S
O9 C8 1.211 . S
C10 O2 1.284 . S
C10 O11 1.273 . S
O11 C10 1.273 . S
O12 Zn3 1.977 . S
O12 C5 1.267 . S
C13 O14 1.160 . S
C13 O20 1.185 . S
O14 C13 1.160 . S
O15 Zn16 1.899 . S
O15 C23 1.284 . S
Zn16 O15 1.899 . S
Zn16 O17 2.032 . S
Zn16 O20 2.086 . S
Zn16 O25 1.977 . S
O17 Zn16 2.032 . S
O17 C21 1.278 . S
C18 O19 1.203 . S
C18 O25 1.267 . S
O19 C18 1.203 . S
O20 C13 1.185 . S
O20 Zn16 2.086 . S
C21 O17 1.278 . S
C21 O22 1.211 . S
O22 C21 1.211 . S
C23 O15 1.284 . S
C23 O24 1.273 . S
O24 C23 1.273 . S
O25 Zn16 1.977 . S
O25 C18 1.267 . S
C26 O27 1.160 . S
C26 O33 1.185 . S
O27 C26 1.160 . S
O28 Zn29 1.899 . S
O28 C36 1.284 . S
Zn29 O28 1.899 . S
Zn29 O30 2.032 . S
Zn29 O33 2.086 . S
Zn29 O38 1.977 1_556 S
O30 Zn29 2.032 . S
O30 C34 1.278 . S
C31 O32 1.203 . S
C31 O38 1.267 . S
O32 C31 1.203 . S
O33 C26 1.185 . S
O33 Zn29 2.086 . S
C34 O30 1.278 . S
C34 O35 1.211 1_556 S
O35 C34 1.211 1_554 S
C36 O28 1.284 . S
C36 O37 1.273 . S
O37 C36 1.273 . S
O38 Zn29 1.977 1_554 S
O38 C31 1.267 . S
C39 O40 1.160 . S
C39 O46 1.185 . S
O40 C39 1.160 . S
O41 Zn42 1.899 . S
O41 C49 1.284 . S
Zn42 O41 1.899 . S
Zn42 O43 2.032 . S
Zn42 O46 2.086 . S
Zn42 O51 1.977 . S
O43 Zn42 2.032 . S
O43 C47 1.278 . S
C44 O45 1.203 . S
C44 O51 1.267 . S
O45 C44 1.203 . S
O46 C39 1.185 . S
O46 Zn42 2.086 . S
C47 O43 1.278 . S
C47 O48 1.211 . S
O48 C47 1.211 . S
C49 O41 1.284 . S
C49 O50 1.273 . S
O50 C49 1.273 . S
O51 Zn42 1.977 . S
O51 C44 1.267 . S
C52 O53 1.160 . S
C52 O59 1.185 . S
O53 C52 1.160 . S
O54 Zn55 1.899 . S
O54 C62 1.284 . S
Zn55 O54 1.899 . S
Zn55 O56 2.032 . S
Zn55 O59 2.086 . S
Zn55 O64 1.977 . S
O56 Zn55 2.032 . S
O56 C60 1.278 . S
C57 O58 1.203 . S
C57 O64 1.267 . S
O58 C57 1.203 . S
O59 C52 1.185 . S
O59 Zn55 2.086 . S
C60 O56 1.278 . S
C60 O61 1.211 . S
O61 C60 1.211 . S
C62 O54 1.284 . S
C62 O63 1.273 . S
O63 C62 1.273 . S
O64 Zn55 1.977 . S
O64 C57 1.267 . S
C65 O66 1.160 . S
C65 O72 1.185 . S
O66 C65 1.160 . S
O67 Zn68 1.899 . S
O67 C75 1.284 . S
Zn68 O67 1.899 . S
Zn68 O69 2.032 . S
Zn68 O72 2.086 . S
Zn68 O77 1.977 1_556 S
O69 Zn68 2.032 . S
O69 C73 1.278 . S
C70 O71 1.203 . S
C70 O77 1.267 . S
O71 C70 1.203 . S
O72 C65 1.185 . S
O72 Zn68 2.086 . S
C73 O69 1.278 . S
C73 O74 1.211 1_556 S
O74 C73 1.211 1_554 S
C75 O67 1.284 . S
C75 O76 1.273 . S
O76 C75 1.273 . S
O77 Zn68 1.977 1_554 S
O77 C70 1.267 . S
C78 O79 1.160 . S
C78 O85 1.185 . S
O79 C78 1.160 . S
O80 Zn81 1.899 . S
O80 C88 1.284 . S
Zn81 O80 1.899 . S
Zn81 O82 2.032 . S
Zn81 O85 2.086 . S
Zn81 O90 1.977 . S
O82 Zn81 2.032 . S
O82 C86 1.278 . S
C83 O84 1.203 . S
C83 O90 1.267 . S
O84 C83 1.203 . S
O85 C78 1.185 . S
O85 Zn81 2.086 . S
C86 O82 1.278 . S
C86 O87 1.211 . S
O87 C86 1.211 . S
C88 O80 1.284 . S
C88 O89 1.273 . S
O89 C88 1.273 . S
O90 Zn81 1.977 . S
O90 C83 1.267 . S
C91 O92 1.160 . S
C91 O98 1.185 . S
O92 C91 1.160 . S
O93 Zn94 1.899 . S
O93 C101 1.284 . S
Zn94 O93 1.899 . S
Zn94 O95 2.032 . S
Zn94 O98 2.086 . S
Zn94 O103 1.977 . S
O95 Zn94 2.032 . S
O95 C99 1.278 . S
C96 O97 1.203 . S
C96 O103 1.267 . S
O97 C96 1.203 . S
O98 C91 1.185 . S
O98 Zn94 2.086 . S
C99 O95 1.278 . S
C99 O100 1.211 . S
O100 C99 1.211 . S
C101 O93 1.284 . S
C101 O102 1.273 . S
O102 C101 1.273 . S
O103 Zn94 1.977 . S
O103 C96 1.267 . S
C104 O105 1.160 . S
C104 O111 1.185 . S
O105 C104 1.160 . S
O106 Zn107 1.899 . S
O106 C114 1.284 . S
Zn107 O106 1.899 . S
Zn107 O108 2.032 . S
Zn107 O111 2.086 . S
Zn107 O116 1.977 1_554 S
O108 Zn107 2.032 . S
O108 C112 1.278 . S
C109 O110 1.203 . S
C109 O116 1.267 . S
O110 C109 1.203 . S
O111 C104 1.185 . S
O111 Zn107 2.086 . S
C112 O108 1.278 . S
C112 O113 1.211 1_554 S
O113 C112 1.211 1_556 S
C114 O106 1.284 . S
C114 O115 1.273 . S
O115 C114 1.273 . S
O116 Zn107 1.977 1_556 S
O116 C109 1.267 . S
C117 O118 1.160 . S
C117 O124 1.185 . S
O118 C117 1.160 . S
O119 Zn120 1.899 . S
O119 C127 1.284 . S
Zn120 O119 1.899 . S
Zn120 O121 2.032 . S
Zn120 O124 2.086 . S
Zn120 O129 1.977 . S
O121 Zn120 2.032 . S
O121 C125 1.278 . S
C122 O123 1.203 . S
C122 O129 1.267 . S
O123 C122 1.203 . S
O124 C117 1.185 . S
O124 Zn120 2.086 . S
C125 O121 1.278 . S
C125 O126 1.211 . S
O126 C125 1.211 . S
C127 O119 1.284 . S
C127 O128 1.273 . S
O128 C127 1.273 . S
O129 Zn120 1.977 . S
O129 C122 1.267 . S
C130 O131 1.160 . S
C130 O137 1.185 . S
O131 C130 1.160 . S
O132 Zn133 1.899 . S
O132 C140 1.284 . S
Zn133 O132 1.899 . S
Zn133 O134 2.032 . S
Zn133 O137 2.086 . S
Zn133 O142 1.977 . S
O134 Zn133 2.032 . S
O134 C138 1.278 . S
C135 O136 1.203 . S
C135 O142 1.267 . S
O136 C135 1.203 . S
O137 C130 1.185 . S
O137 Zn133 2.086 . S
C138 O134 1.278 . S
C138 O139 1.211 . S
O139 C138 1.211 . S
C140 O132 1.284 . S
C140 O141 1.273 . S
O141 C140 1.273 . S
O142 Zn133 1.977 . S
O142 C135 1.267 . S
C143 O144 1.160 . S
C143 O150 1.185 . S
O144 C143 1.160 . S
O145 Zn146 1.899 . S
O145 C153 1.284 . S
Zn146 O145 1.899 . S
Zn146 O147 2.032 . S
Zn146 O150 2.086 . S
Zn146 O155 1.977 1_554 S
O147 Zn146 2.032 . S
O147 C151 1.278 . S
C148 O149 1.203 . S
C148 O155 1.267 . S
O149 C148 1.203 . S
O150 C143 1.185 . S
O150 Zn146 2.086 . S
C151 O147 1.278 . S
C151 O152 1.211 1_554 S
O152 C151 1.211 1_556 S
C153 O145 1.284 . S
C153 O154 1.273 . S
O154 C153 1.273 . S
O155 Zn146 1.977 1_556 S
O155 C148 1.267 . S
C156 C157 1.387 . S
C156 H160 0.950 . S
C156 C165 1.390 . S
C157 C156 1.387 . S
C157 C159 1.387 . S
H158 C165 0.950 . S
C159 C157 1.387 . S
C159 C161 1.390 . S
C159 H163 0.950 . S
H160 C156 0.950 . S
C161 C159 1.390 . S
C161 C162 1.387 . S
C161 H164 0.950 . S
C162 C161 1.387 . S
C162 C165 1.387 . S
H163 C159 0.950 . S
H164 C161 0.950 . S
C165 C156 1.390 . S
C165 H158 0.950 . S
C165 C162 1.387 . S
C166 C167 1.387 . S
C166 H170 0.950 . S
C166 C175 1.390 . S
C167 C166 1.387 . S
C167 C169 1.387 . S
H168 C175 0.950 . S
C169 C167 1.387 . S
C169 C171 1.390 . S
C169 H173 0.950 . S
H170 C166 0.950 . S
C171 C169 1.390 . S
C171 C172 1.387 . S
C171 H174 0.950 . S
C172 C171 1.387 . S
C172 C175 1.387 . S
H173 C169 0.950 . S
H174 C171 0.950 . S
C175 C166 1.390 . S
C175 H168 0.950 . S
C175 C172 1.387 . S
C176 C177 1.387 . S
C176 H180 0.950 . S
C176 C185 1.390 1_556 S
C177 C176 1.387 . S
C177 C179 1.387 . S
H178 C185 0.950 . S
C179 C177 1.387 . S
C179 C181 1.390 1_556 S
C179 H183 0.950 . S
H180 C176 0.950 . S
C181 C179 1.390 1_554 S
C181 C182 1.387 . S
C181 H184 0.950 . S
C182 C181 1.387 . S
C182 C185 1.387 . S
H183 C179 0.950 . S
H184 C181 0.950 . S
C185 C176 1.390 1_554 S
C185 H178 0.950 . S
C185 C182 1.387 . S
C186 C187 1.387 . S
C186 H190 0.950 . S
C186 C195 1.390 . S
C187 C186 1.387 . S
C187 C189 1.387 . S
H188 C195 0.950 . S
C189 C187 1.387 . S
C189 C191 1.390 . S
C189 H193 0.950 . S
H190 C186 0.950 . S
C191 C189 1.390 . S
C191 C192 1.387 . S
C191 H194 0.950 . S
C192 C191 1.387 . S
C192 C195 1.387 . S
H193 C189 0.950 . S
H194 C191 0.950 . S
C195 C186 1.390 . S
C195 H188 0.950 . S
C195 C192 1.387 . S
C196 C197 1.387 . S
C196 H200 0.950 . S
C196 C205 1.390 . S
C197 C196 1.387 . S
C197 C199 1.387 . S
H198 C205 0.950 . S
C199 C197 1.387 . S
C199 C201 1.390 . S
C199 H203 0.950 . S
H200 C196 0.950 . S
C201 C199 1.390 . S
C201 C202 1.387 . S
C201 H204 0.950 . S
C202 C201 1.387 . S
C202 C205 1.387 . S
H203 C199 0.950 . S
H204 C201 0.950 . S
C205 C196 1.390 . S
C205 H198 0.950 . S
C205 C202 1.387 . S
C206 C207 1.387 . S
C206 H210 0.950 . S
C206 C215 1.390 1_554 S
C207 C206 1.387 . S
C207 C209 1.387 . S
H208 C215 0.950 . S
C209 C207 1.387 . S
C209 C211 1.390 1_554 S
C209 H213 0.950 . S
H210 C206 0.950 . S
C211 C209 1.390 1_556 S
C211 C212 1.387 . S
C211 H214 0.950 . S
C212 C211 1.387 . S
C212 C215 1.387 . S
H213 C209 0.950 . S
H214 C211 0.950 . S
C215 C206 1.390 1_556 S
C215 H208 0.950 . S
C215 C212 1.387 . S
C216 C217 1.387 . S
C216 H220 0.950 . S
C216 C225 1.390 . S
C217 C216 1.387 . S
C217 C219 1.387 . S
H218 C225 0.950 . S
C219 C217 1.387 . S
C219 C221 1.390 . S
C219 H223 0.950 . S
H220 C216 0.950 . S
C221 C219 1.390 . S
C221 C222 1.387 . S
C221 H224 0.950 . S
C222 C221 1.387 . S
C222 C225 1.387 . S
H223 C219 0.950 . S
H224 C221 0.950 . S
C225 C216 1.390 . S
C225 H218 0.950 . S
C225 C222 1.387 . S
C226 C227 1.387 . S
C226 H230 0.950 . S
C226 C235 1.390 1_655 S
C227 C226 1.387 . S
C227 C229 1.387 . S
H228 C235 0.950 . S
C229 C227 1.387 . S
C229 C231 1.390 1_655 S
C229 H233 0.950 . S
H230 C226 0.950 . S
C231 C229 1.390 1_455 S
C231 C232 1.387 . S
C231 H234 0.950 . S
C232 C231 1.387 . S
C232 C235 1.387 . S
H233 C229 0.950 . S
H234 C231 0.950 . S
C235 C226 1.390 1_455 S
C235 H228 0.950 . S
C235 C232 1.387 . S
C236 C237 1.387 . S
C236 H240 0.950 . S
C236 C245 1.390 1_544 S
C237 C236 1.387 . S
C237 C239 1.387 . S
H238 C245 0.950 . S
C239 C237 1.387 . S
C239 C241 1.390 1_544 S
C239 H243 0.950 . S
H240 C236 0.950 . S
C241 C239 1.390 1_566 S
C241 C242 1.387 . S
C241 H244 0.950 . S
C242 C241 1.387 . S
C242 C245 1.387 . S
H243 C239 0.950 . S
H244 C241 0.950 . S
C245 C236 1.390 1_566 S
C245 H238 0.950 . S
C245 C242 1.387 . S
C246 C247 1.387 . S
C246 H250 0.950 . S
C246 C255 1.390 . S
C247 C246 1.387 . S
C247 C249 1.387 . S
H248 C255 0.950 . S
C249 C247 1.387 . S
C249 C251 1.390 . S
C249 H253 0.950 . S
H250 C246 0.950 . S
C251 C249 1.390 . S
C251 C252 1.387 . S
C251 H254 0.950 . S
C252 C251 1.387 . S
C252 C255 1.387 . S
H253 C249 0.950 . S
H254 C251 0.950 . S
C255 C246 1.390 . S
C255 H248 0.950 . S
C255 C252 1.387 . S
C256 C257 1.387 . S
C256 H260 0.950 . S
C256 C265 1.390 1_455 S
C257 C256 1.387 . S
C257 C259 1.387 . S
H258 C265 0.950 . S
C259 C257 1.387 . S
C259 C261 1.390 1_455 S
C259 H263 0.950 . S
H260 C256 0.950 . S
C261 C259 1.390 1_655 S
C261 C262 1.387 . S
C261 H264 0.950 . S
C262 C261 1.387 . S
C262 C265 1.387 . S
H263 C259 0.950 . S
H264 C261 0.950 . S
C265 C256 1.390 1_655 S
C265 H258 0.950 . S
C265 C262 1.387 . S
C266 C267 1.387 . S
C266 H270 0.950 . S
C266 C275 1.390 1_546 S
C267 C266 1.387 . S
C267 C269 1.387 . S
H268 C275 0.950 . S
C269 C267 1.387 . S
C269 C271 1.390 1_546 S
C269 H273 0.950 . S
H270 C266 0.950 . S
C271 C269 1.390 1_564 S
C271 C272 1.387 . S
C271 H274 0.950 . S
C272 C271 1.387 . S
C272 C275 1.387 . S
H273 C269 0.950 . S
H274 C271 0.950 . S
C275 C266 1.390 1_564 S
C275 H268 0.950 . S
C275 C272 1.387 . S
C276 C277 1.387 1_455 S
C276 H280 0.950 . S
C276 C285 1.390 . S
C277 C276 1.387 1_655 S
C277 C279 1.387 . S
H278 C285 0.950 . S
C279 C277 1.387 . S
C279 C281 1.390 . S
C279 H283 0.950 . S
H280 C276 0.950 . S
C281 C279 1.390 . S
C281 C282 1.387 1_655 S
C281 H284 0.950 . S
C282 C281 1.387 1_455 S
C282 C285 1.387 . S
H283 C279 0.950 . S
H284 C281 0.950 . S
C285 C276 1.390 . S
C285 H278 0.950 . S
C285 C282 1.387 . S
C286 C287 1.387 . S
C286 H290 0.950 . S
C286 C295 1.390 1_545 S
C287 C286 1.387 . S
C287 C289 1.387 . S
H288 C295 0.950 . S
C289 C287 1.387 . S
C289 C291 1.390 1_545 S
C289 H293 0.950 . S
H290 C286 0.950 . S
C291 C289 1.390 1_565 S
C291 C292 1.387 . S
C291 H294 0.950 . S
C292 C291 1.387 . S
C292 C295 1.387 . S
H293 C289 0.950 . S
H294 C291 0.950 . S
C295 C286 1.390 1_565 S
C295 H288 0.950 . S
C295 C292 1.387 . S
C296 C297 1.387 . S
C296 H300 0.950 . S
C296 C305 1.390 . S
C297 C296 1.387 . S
C297 C299 1.387 . S
H298 C305 0.950 . S
C299 C297 1.387 . S
C299 C301 1.390 . S
C299 H303 0.950 . S
H300 C296 0.950 . S
C301 C299 1.390 . S
C301 C302 1.387 . S
C301 H304 0.950 . S
C302 C301 1.387 . S
C302 C305 1.387 . S
H303 C299 0.950 . S
H304 C301 0.950 . S
C305 C296 1.390 . S
C305 H298 0.950 . S
C305 C302 1.387 . S
C306 C307 1.387 1_655 S
C306 H310 0.950 . S
C306 C315 1.390 . S
C307 C306 1.387 1_455 S
C307 C309 1.387 . S
H308 C315 0.950 . S
C309 C307 1.387 . S
C309 C311 1.390 . S
C309 H313 0.950 . S
H310 C306 0.950 . S
C311 C309 1.390 . S
C311 C312 1.387 1_455 S
C311 H314 0.950 . S
C312 C311 1.387 1_655 S
C312 C315 1.387 . S
H313 C309 0.950 . S
H314 C311 0.950 . S
C315 C306 1.390 . S
C315 H308 0.950 . S
C315 C312 1.387 . S
C316 C317 1.387 . S
C316 H320 0.950 . S
C316 C325 1.390 1_545 S
C317 C316 1.387 . S
C317 C319 1.387 . S
H318 C325 0.950 . S
C319 C317 1.387 . S
C319 C321 1.390 1_545 S
C319 H323 0.950 . S
H320 C316 0.950 . S
C321 C319 1.390 1_565 S
C321 C322 1.387 . S
C321 H324 0.950 . S
C322 C321 1.387 . S
C322 C325 1.387 . S
H323 C319 0.950 . S
H324 C321 0.950 . S
C325 C316 1.390 1_565 S
C325 H318 0.950 . S
C325 C322 1.387 . S
C326 C327 1.387 . S
C326 H330 0.950 . S
C326 C335 1.390 . S
C327 C326 1.387 . S
C327 C329 1.387 . S
H328 C335 0.950 . S
C329 C327 1.387 . S
C329 C331 1.390 . S
C329 H333 0.950 . S
H330 C326 0.950 . S
C331 C329 1.390 . S
C331 C332 1.387 . S
C331 H334 0.950 . S
C332 C331 1.387 . S
C332 C335 1.387 . S
H333 C329 0.950 . S
H334 C331 0.950 . S
C335 C326 1.390 . S
C335 H328 0.950 . S
C335 C332 1.387 . S
C336 C337 1.387 . S
C336 H340 0.950 . S
C336 C345 1.390 . S
C337 C336 1.387 . S
C337 C339 1.387 . S
H338 C345 0.950 . S
C339 C337 1.387 . S
C339 C341 1.390 . S
C339 H343 0.950 . S
H340 C336 0.950 . S
C341 C339 1.390 . S
C341 C342 1.387 . S
C341 H344 0.950 . S
C342 C341 1.387 . S
C342 C345 1.387 . S
H343 C339 0.950 . S
H344 C341 0.950 . S
C345 C336 1.390 . S
C345 H338 0.950 . S
C345 C342 1.387 . S
C346 C347 1.387 . S
C346 H350 0.950 . S
C346 C355 1.390 . S
C347 C346 1.387 . S
C347 C349 1.387 . S
H348 C355 0.950 . S
C349 C347 1.387 . S
C349 C351 1.390 . S
C349 H353 0.950 . S
H350 C346 0.950 . S
C351 C349 1.390 . S
C351 C352 1.387 . S
C351 H354 0.950 . S
C352 C351 1.387 . S
C352 C355 1.387 . S
H353 C349 0.950 . S
H354 C351 0.950 . S
C355 C346 1.390 . S
C355 H348 0.950 . S
C355 C352 1.387 . S
C356 C357 1.387 . S
C356 H360 0.950 . S
C356 C365 1.390 . S
C357 C356 1.387 . S
C357 C359 1.387 . S
H358 C365 0.950 . S
C359 C357 1.387 . S
C359 C361 1.390 . S
C359 H363 0.950 . S
H360 C356 0.950 . S
C361 C359 1.390 . S
C361 C362 1.387 . S
C361 H364 0.950 . S
C362 C361 1.387 . S
C362 C365 1.387 . S
H363 C359 0.950 . S
H364 C361 0.950 . S
C365 C356 1.390 . S
C365 H358 0.950 . S
C365 C362 1.387 . S
C366 C367 1.387 . S
C366 H370 0.950 . S
C366 C375 1.390 . S
C367 C366 1.387 . S
C367 C369 1.387 . S
H368 C375 0.950 . S
C369 C367 1.387 . S
C369 C371 1.390 . S
C369 H373 0.950 . S
H370 C366 0.950 . S
C371 C369 1.390 . S
C371 C372 1.387 . S
C371 H374 0.950 . S
C372 C371 1.387 . S
C372 C375 1.387 . S
H373 C369 0.950 . S
H374 C371 0.950 . S
C375 C366 1.390 . S
C375 H368 0.950 . S
C375 C372 1.387 . S
C376 C377 1.387 . S
C376 H380 0.950 . S
C376 C385 1.390 . S
C377 C376 1.387 . S
C377 C379 1.387 . S
H378 C385 0.950 . S
C379 C377 1.387 . S
C379 C381 1.390 . S
C379 H383 0.950 . S
H380 C376 0.950 . S
C381 C379 1.390 . S
C381 C382 1.387 . S
C381 H384 0.950 . S
C382 C381 1.387 . S
C382 C385 1.387 . S
H383 C379 0.950 . S
H384 C381 0.950 . S
C385 C376 1.390 . S
C385 H378 0.950 . S
C385 C382 1.387 . S
C386 C387 1.387 . S
C386 H390 0.950 . S
C386 C395 1.390 . S
C387 C386 1.387 . S
C387 C389 1.387 . S
H388 C395 0.950 . S
C389 C387 1.387 . S
C389 C391 1.390 . S
C389 H393 0.950 . S
H390 C386 0.950 . S
C391 C389 1.390 . S
C391 C392 1.387 . S
C391 H394 0.950 . S
C392 C391 1.387 . S
C392 C395 1.387 . S
H393 C389 0.950 . S
H394 C391 0.950 . S
C395 C386 1.390 . S
C395 H388 0.950 . S
C395 C392 1.387 . S
C157 C10 1.407 . S
C162 C88 1.406 . S
C167 C23 1.407 . S
C172 C101 1.407 . S
C177 C36 1.397 . S
C182 C114 1.398 . S
C187 C127 1.410 . S
C192 C49 1.404 . S
C197 C62 1.406 . S
C202 C140 1.407 . S
C207 C153 1.397 . S
C212 C75 1.398 . S
C217 C8 0.988 . S
C222 C125 0.989 . S
C227 C21 0.990 . S
C232 C138 0.988 . S
C237 C151 0.986 . S
C242 C34 0.984 . S
C247 C86 0.989 . S
C252 C47 0.988 . S
C257 C60 0.989 . S
C262 C99 0.987 . S
C267 C73 0.986 . S
C272 C112 0.984 . S
C277 C143 1.714 . S
C282 C0 1.710 . S
C287 C13 1.737 . S
C292 C78 1.737 . S
C297 C26 1.711 . S
C302 C91 1.708 . S
C307 C104 1.714 . S
C312 C39 1.710 . S
C317 C117 1.737 . S
C322 C52 1.737 . S
C327 C65 1.714 . S
C332 C130 1.710 . S
C337 C5 0.996 . S
C342 C135 0.996 . S
C347 C148 1.012 . S
C352 C18 1.012 . S
C357 C83 1.007 . S
C362 C31 1.009 . S
C367 C44 0.987 . S
C372 C96 0.987 . S
C377 C109 1.015 . S
C382 C57 1.016 . S
C387 C122 1.007 . S
C392 C70 1.009 . S
