# Generated by pormake.
# Topology wkq, (6)-cn, num edge types: 1
# Building blocks:
#     Node 0, Type 0, BuildingBlock: OJICUG_clean_sbu_0, # of connection points: 6
#     Node 1, Type 0, BuildingBlock: OJICUG_clean_sbu_0, # of connection points: 6
#     Node 2, Type 0, BuildingBlock: OJICUG_clean_sbu_0, # of connection points: 6
#     Node 3, Type 0, BuildingBlock: OJICUG_clean_sbu_0, # of connection points: 6
#     Node 4, Type 0, BuildingBlock: OJICUG_clean_sbu_0, # of connection points: 6
#     Node 5, Type 0, BuildingBlock: OJICUG_clean_sbu_0, # of connection points: 6
#     Node 6, Type 0, BuildingBlock: OJICUG_clean_sbu_0, # of connection points: 6
#     Node 7, Type 0, BuildingBlock: OJICUG_clean_sbu_0, # of connection points: 6
#     Node 8, Type 0, BuildingBlock: OJICUG_clean_sbu_0, # of connection points: 6
#     Node 9, Type 0, BuildingBlock: OJICUG_clean_sbu_0, # of connection points: 6
#     Node 10, Type 0, BuildingBlock: OJICUG_clean_sbu_0, # of connection points: 6
#     Node 11, Type 0, BuildingBlock: OJICUG_clean_sbu_0, # of connection points: 6
#     Edge 12, Type (0, 0), BuildingBlock: CIFDUS_clean_linker_0, # of connection points: 2
#     Edge 13, Type (0, 0), BuildingBlock: CIFDUS_clean_linker_0, # of connection points: 2
#     Edge 14, Type (0, 0), BuildingBlock: CIFDUS_clean_linker_0, # of connection points: 2
#     Edge 15, Type (0, 0), BuildingBlock: CIFDUS_clean_linker_0, # of connection points: 2
#     Edge 16, Type (0, 0), BuildingBlock: CIFDUS_clean_linker_0, # of connection points: 2
#     Edge 17, Type (0, 0), BuildingBlock: CIFDUS_clean_linker_0, # of connection points: 2
#     Edge 18, Type (0, 0), BuildingBlock: CIFDUS_clean_linker_0, # of connection points: 2
#     Edge 19, Type (0, 0), BuildingBlock: CIFDUS_clean_linker_0, # of connection points: 2
#     Edge 20, Type (0, 0), BuildingBlock: CIFDUS_clean_linker_0, # of connection points: 2
#     Edge 21, Type (0, 0), BuildingBlock: CIFDUS_clean_linker_0, # of connection points: 2
#     Edge 22, Type (0, 0), BuildingBlock: CIFDUS_clean_linker_0, # of connection points: 2
#     Edge 23, Type (0, 0), BuildingBlock: CIFDUS_clean_linker_0, # of connection points: 2
#     Edge 24, Type (0, 0), BuildingBlock: CIFDUS_clean_linker_0, # of connection points: 2
#     Edge 25, Type (0, 0), BuildingBlock: CIFDUS_clean_linker_0, # of connection points: 2
#     Edge 26, Type (0, 0), BuildingBlock: CIFDUS_clean_linker_0, # of connection points: 2
#     Edge 27, Type (0, 0), BuildingBlock: CIFDUS_clean_linker_0, # of connection points: 2
#     Edge 28, Type (0, 0), BuildingBlock: CIFDUS_clean_linker_0, # of connection points: 2
#     Edge 29, Type (0, 0), BuildingBlock: CIFDUS_clean_linker_0, # of connection points: 2
#     Edge 30, Type (0, 0), BuildingBlock: CIFDUS_clean_linker_0, # of connection points: 2
#     Edge 31, Type (0, 0), BuildingBlock: CIFDUS_clean_linker_0, # of connection points: 2
#     Edge 32, Type (0, 0), BuildingBlock: CIFDUS_clean_linker_0, # of connection points: 2
#     Edge 33, Type (0, 0), BuildingBlock: CIFDUS_clean_linker_0, # of connection points: 2
#     Edge 34, Type (0, 0), BuildingBlock: CIFDUS_clean_linker_0, # of connection points: 2
#     Edge 35, Type (0, 0), BuildingBlock: CIFDUS_clean_linker_0, # of connection points: 2
#     Edge 36, Type (0, 0), BuildingBlock: CIFDUS_clean_linker_0, # of connection points: 2
#     Edge 37, Type (0, 0), BuildingBlock: CIFDUS_clean_linker_0, # of connection points: 2
#     Edge 38, Type (0, 0), BuildingBlock: CIFDUS_clean_linker_0, # of connection points: 2
#     Edge 39, Type (0, 0), BuildingBlock: CIFDUS_clean_linker_0, # of connection points: 2
#     Edge 40, Type (0, 0), BuildingBlock: CIFDUS_clean_linker_0, # of connection points: 2
#     Edge 41, Type (0, 0), BuildingBlock: CIFDUS_clean_linker_0, # of connection points: 2
#     Edge 42, Type (0, 0), BuildingBlock: CIFDUS_clean_linker_0, # of connection points: 2
#     Edge 43, Type (0, 0), BuildingBlock: CIFDUS_clean_linker_0, # of connection points: 2
#     Edge 44, Type (0, 0), BuildingBlock: CIFDUS_clean_linker_0, # of connection points: 2
#     Edge 45, Type (0, 0), BuildingBlock: CIFDUS_clean_linker_0, # of connection points: 2
#     Edge 46, Type (0, 0), BuildingBlock: CIFDUS_clean_linker_0, # of connection points: 2
#     Edge 47, Type (0, 0), BuildingBlock: CIFDUS_clean_linker_0, # of connection points: 2
# Relax obj value: 0.340
# Max RMSD: 0.275
# Mean RMSD: 0.275
data_MOF--net-wkq--node1-OJICUG_clean_sbu_0--edge1-CIFDUS_clean_linker_0
_symmetry_space_group_name_H-M    P1
_symmetry_Int_Tables_number       1
_symmetry_cell_setting            triclinic
loop_
_symmetry_equiv_pos_as_xyz
'x, y, z'
_cell_length_a     34.378332
_cell_length_b     34.4342
_cell_length_c     31.447815
_cell_angle_alpha  90.354222
_cell_angle_beta   89.949187
_cell_angle_gamma 119.91577
loop_
_atom_site_label
_atom_site_type_symbol
_atom_site_fract_x
_atom_site_fract_y
_atom_site_fract_z
_atom_type_partial_charge
Sc0 Sc 0.21359 0.43654 0.96018 0.0
Sc1 Sc 0.28134 0.47367 0.05047 0.0
Sc2 Sc 0.21836 0.35929 0.02987 0.0
O3 O 0.23768 0.42306 0.0132 0.0
C4 C 0.12652 0.35113 -0.00053 0.0
C5 C 0.21735 0.51119 0.02148 0.0
C6 C 0.22427 0.40748 0.11896 0.0
C7 C 0.31902 0.51024 0.95987 0.0
C8 C 0.22948 0.35738 0.92932 0.0
C9 C 0.31513 0.40242 0.06296 0.0
O10 O 0.14503 0.38301 0.97267 0.0
O11 O 0.25177 0.51506 0.0402 0.0
O12 O 0.21765 0.37335 0.09722 0.0
O13 O 0.27961 0.49137 0.94375 0.0
O14 O 0.22001 0.33842 0.9654 0.0
O15 O 0.3157 0.4388 0.07168 0.0
O16 O 0.2308 0.3944 0.9225 0.0
O17 O 0.3268 0.50399 -0.00186 0.0
O18 O 0.28648 0.37336 0.03764 0.0
O19 O 0.19624 0.48161 -0.00702 0.0
O20 O 0.14884 0.34025 0.02412 0.0
O21 O 0.2369 0.44544 0.10248 0.0
Sc22 Sc 0.86027 0.19419 0.19919 0.0
Sc23 Sc 0.82154 0.26873 0.21962 0.0
Sc24 Sc 0.79095 0.20608 0.12473 0.0
O25 O 0.82419 0.2231 0.18096 0.0
C26 C 0.88859 0.21817 0.10363 0.0
C27 C 0.91931 0.2933 0.23861 0.0
C28 C 0.82511 0.30998 0.12841 0.0
C29 C 0.81335 0.19283 0.28327 0.0
C30 C 0.77786 0.11226 0.15186 0.0
C31 C 0.7203 0.21126 0.1891 0.0
O32 O 0.89843 0.21578 0.14213 0.0
O33 O 0.89324 0.30754 0.22747 0.0
O34 O 0.81532 0.27444 0.10785 0.0
O35 O 0.8241 0.17132 0.25744 0.0
O36 O 0.76193 0.13526 0.13612 0.0
O37 O 0.74996 0.23407 0.2168 0.0
O38 O 0.81535 0.13004 0.17105 0.0
O39 O 0.81536 0.22982 0.27477 0.0
O40 O 0.72975 0.20069 0.15296 0.0
O41 O 0.90997 0.25302 0.23268 0.0
O42 O 0.85023 0.21194 0.09172 0.0
O43 O 0.82646 0.31236 0.16874 0.0
Sc44 Sc 0.5969 0.78887 0.29693 0.0
Sc45 Sc 0.5601 0.82014 0.38842 0.0
Sc46 Sc 0.6733 0.87745 0.36287 0.0
O47 O 0.61015 0.82873 0.34901 0.0
C48 C 0.68831 0.79721 0.33253 0.0
C49 C 0.5238 0.71861 0.35939 0.0
C50 C 0.63361 0.83031 0.45171 0.0
C51 C 0.5199 0.81704 0.29798 0.0
C52 C 0.67198 0.88396 0.2621 0.0
C53 C 0.62628 0.92614 0.4001 0.0
O54 O 0.65253 0.77646 0.31016 0.0
O55 O 0.52095 0.74907 0.37943 0.0
O56 O 0.66513 0.86038 0.42955 0.0
O57 O 0.54092 0.79894 0.28091 0.0
O58 O 0.68822 0.89941 0.29856 0.0
O59 O 0.59142 0.88947 0.40953 0.0
O60 O 0.63836 0.84513 0.25596 0.0
O61 O 0.5256 0.83067 0.33658 0.0
O62 O 0.65478 0.92766 0.3736 0.0
O63 O 0.55247 0.72709 0.33016 0.0
O64 O 0.69854 0.83282 0.35325 0.0
O65 O 0.59304 0.80798 0.43943 0.0
Sc66 Sc 0.83352 0.67585 0.52039 0.0
Sc67 Sc 0.75635 0.56467 0.54409 0.0
Sc68 Sc 0.82029 0.58968 0.45126 0.0
O69 O 0.8033 0.60978 0.50515 0.0
C70 C 0.80627 0.67209 0.42455 0.0
C71 C 0.73599 0.6408 0.56193 0.0
C72 C 0.71494 0.524 0.45291 0.0
C73 C 0.83553 0.63434 0.60612 0.0
C74 C 0.91463 0.67068 0.47786 0.0
C75 C 0.81071 0.51536 0.5183 0.0
O76 O 0.80888 0.68732 0.46211 0.0
O77 O 0.72002 0.60051 0.54981 0.0
O78 O 0.75184 0.54603 0.43326 0.0
O79 O 0.85774 0.66513 0.57935 0.0
O80 O 0.89098 0.6305 0.46504 0.0
O81 O 0.78746 0.52386 0.54413 0.0
O82 O 0.89713 0.69329 0.49136 0.0
O83 O 0.79761 0.59983 0.5979 0.0
O84 O 0.82378 0.53488 0.48244 0.0
O85 O 0.77667 0.67032 0.55551 0.0
O86 O 0.81506 0.64105 0.41515 0.0
O87 O 0.71158 0.52596 0.49307 0.0
Sc88 Sc 0.2403 0.81044 0.63076 0.0
Sc89 Sc 0.21226 0.75408 0.72892 0.0
Sc90 Sc 0.15401 0.80757 0.69482 0.0
O91 O 0.20213 0.7906 0.68469 0.0
C92 C 0.23648 0.89823 0.65827 0.0
C93 C 0.31322 0.81605 0.69818 0.0
C94 C 0.19677 0.82014 0.78677 0.0
C95 C 0.21547 0.70806 0.64162 0.0
C96 C 0.14367 0.78896 0.59554 0.0
C97 C 0.10558 0.71073 0.73547 0.0
O98 O 0.2576 0.88043 0.641 0.0
O99 O 0.28392 0.79188 0.72522 0.0
O100 O 0.17315 0.82672 0.75996 0.0
O101 O 0.22602 0.74218 0.61823 0.0
O102 O 0.12828 0.79026 0.63176 0.0
O103 O 0.14212 0.71105 0.74228 0.0
O104 O 0.18355 0.79669 0.58967 0.0
O105 O 0.20953 0.70793 0.68158 0.0
O106 O 0.10363 0.74156 0.71523 0.0
O107 O 0.30291 0.82565 0.66241 0.0
O108 O 0.19885 0.87542 0.67669 0.0
O109 O 0.21538 0.79697 0.77918 0.0
Sc110 Sc 0.34825 0.14075 0.86382 0.0
Sc111 Sc 0.46098 0.18961 0.8902 0.0
Sc112 Sc 0.4282 0.23066 0.80368 0.0
O113 O 0.41281 0.18744 0.85246 0.0
C114 C 0.35916 0.13191 0.76597 0.0
C115 C 0.39763 0.08805 0.89634 0.0
C116 C 0.50813 0.20929 0.79956 0.0
C117 C 0.38171 0.17508 0.95426 0.0
C118 C 0.33528 0.22067 0.83136 0.0
C119 C 0.49399 0.29365 0.87839 0.0
O120 O 0.34487 0.11349 0.80195 0.0
O121 O 0.43674 0.11858 0.88639 0.0
O122 O 0.48199 0.2207 0.78222 0.0
O123 O 0.35151 0.16711 0.92662 0.0
O124 O 0.37603 0.24605 0.8209 0.0
O125 O 0.49029 0.26046 0.8992 0.0
O126 O 0.32006 0.1798 0.84038 0.0
O127 O 0.42008 0.18017 0.94495 0.0
O128 O 0.47509 0.28929 0.84221 0.0
O129 O 0.36385 0.09329 0.89225 0.0
O130 O 0.38481 0.17427 0.76103 0.0
O131 O 0.50542 0.19867 0.8385 0.0
Sc132 Sc 0.68619 0.83087 0.78839 0.0
Sc133 Sc 0.573 0.75691 0.76259 0.0
Sc134 Sc 0.60105 0.82144 0.85704 0.0
O135 O 0.61994 0.80294 0.80262 0.0
C136 C 0.68261 0.80702 0.88612 0.0
C137 C 0.64911 0.7318 0.74985 0.0
C138 C 0.53116 0.71617 0.8532 0.0
C139 C 0.6452 0.82996 0.69941 0.0
C140 C 0.68456 0.9151 0.82938 0.0
C141 C 0.52774 0.81532 0.79021 0.0
O142 O 0.69956 0.81268 0.84919 0.0
O143 O 0.60756 0.71951 0.75181 0.0
O144 O 0.5532 0.75331 0.87282 0.0
O145 O 0.67722 0.84982 0.72583 0.0
O146 O 0.6463 0.89268 0.84684 0.0
O147 O 0.5332 0.78943 0.76497 0.0
O148 O 0.70338 0.8965 0.81011 0.0
O149 O 0.60723 0.79653 0.70862 0.0
O150 O 0.54944 0.82967 0.82506 0.0
O151 O 0.67967 0.77017 0.76225 0.0
O152 O 0.64883 0.81167 0.89465 0.0
O153 O 0.53444 0.71195 0.81331 0.0
Sc154 Sc 0.87616 0.65387 0.94186 0.0
Sc155 Sc 0.81396 0.54019 0.92367 0.0
Sc156 Sc 0.78548 0.58557 0.00858 0.0
O157 O 0.82501 0.59366 0.95829 0.0
C158 C 0.883 0.65595 0.0432 0.0
C159 C 0.92021 0.60087 0.91223 0.0
C160 C 0.80907 0.50636 0.01507 0.0
C161 C 0.82981 0.60596 0.85329 0.0
C162 C 0.80129 0.67785 0.96738 0.0
C163 C 0.71384 0.51256 0.94765 0.0
O164 O 0.89721 0.67332 0.00685 0.0
O165 O 0.88238 0.56821 0.9015 0.0
O166 O 0.78748 0.5257 0.02771 0.0
O167 O 0.86079 0.63874 0.87427 0.0
O168 O 0.78117 0.64559 -0.00637 0.0
O169 O 0.7429 0.50268 0.93514 0.0
O170 O 0.83397 0.68282 0.94451 0.0
O171 O 0.80146 0.56937 0.87047 0.0
O172 O 0.72387 0.54622 0.97167 0.0
O173 O 0.92342 0.63031 0.93853 0.0
O174 O 0.84395 0.62253 0.04923 0.0
O175 O 0.82657 0.51219 0.97828 0.0
Sc176 Sc 0.21261 0.87024 0.12114 0.0
Sc177 Sc 0.27152 0.81439 0.0982 0.0
Sc178 Sc 0.20278 0.78451 0.18926 0.0
O179 O 0.22905 0.8231 0.13648 0.0
C180 C 0.22243 0.8815 0.22137 0.0
C181 C 0.3113 0.91982 0.08633 0.0
C182 C 0.30765 0.81289 0.19043 0.0
C183 C 0.20651 0.82186 0.0331 0.0
C184 C 0.11831 0.78907 0.15226 0.0
C185 C 0.20618 0.71318 0.12653 0.0
O186 O 0.2227 0.89595 0.18436 0.0
O187 O 0.31209 0.88375 0.08045 0.0
O188 O 0.26904 0.79707 0.20779 0.0
O189 O 0.20065 0.84922 0.05569 0.0
O190 O 0.13409 0.76866 0.1738 0.0
O191 O 0.23754 0.74344 0.10494 0.0
O192 O 0.1432 0.82554 0.13307 0.0
O193 O 0.22922 0.80391 0.04487 0.0
O194 O 0.18804 0.72185 0.15772 0.0
O195 O 0.28003 0.92107 0.10661 0.0
O196 O 0.21543 0.84217 0.22873 0.0
O197 O 0.31488 0.82327 0.15118 0.0
Sc198 Sc 0.35091 0.20205 0.28956 0.0
Sc199 Sc 0.46437 0.26902 0.26179 0.0
Sc200 Sc 0.4364 0.20729 0.35632 0.0
O201 O 0.41712 0.22625 0.3027 0.0
C202 C 0.35598 0.22189 0.38893 0.0
C203 C 0.39012 0.29814 0.24831 0.0
C204 C 0.50485 0.31306 0.35117 0.0
C205 C 0.39181 0.19469 0.20146 0.0
C206 C 0.3508 0.11553 0.3275 0.0
C207 C 0.50979 0.21198 0.29111 0.0
O208 O 0.33802 0.21683 0.35252 0.0
O209 O 0.42906 0.30325 0.24405 0.0
O210 O 0.48622 0.27554 0.37024 0.0
O211 O 0.35829 0.18536 0.22513 0.0
O212 O 0.38833 0.13697 0.34666 0.0
O213 O 0.50688 0.24057 0.26833 0.0
O214 O 0.3334 0.13491 0.30717 0.0
O215 O 0.43221 0.22278 0.2111 0.0
O216 O 0.4855 0.19492 0.32391 0.0
O217 O 0.35893 0.2654 0.26825 0.0
O218 O 0.39084 0.21873 0.39566 0.0
O219 O 0.49919 0.31722 0.31174 0.0
Sc220 Sc 0.16855 0.34685 0.45554 0.0
Sc221 Sc 0.2109 0.45808 0.4227 0.0
Sc222 Sc 0.2435 0.43664 0.52204 0.0
O223 O 0.2075 0.4139 0.46692 0.0
C224 C 0.14985 0.35431 0.55358 0.0
C225 C 0.10776 0.38267 0.41456 0.0
C226 C 0.20891 0.50682 0.50816 0.0
C227 C 0.21214 0.38225 0.36531 0.0
C228 C 0.25521 0.35228 0.49839 0.0
C229 C 0.31298 0.50557 0.45437 0.0
O230 O 0.13988 0.33502 0.51755 0.0
O231 O 0.13972 0.42257 0.40951 0.0
O232 O 0.22353 0.48669 0.53154 0.0
O233 O 0.19231 0.35038 0.39147 0.0
O234 O 0.26895 0.38997 0.51693 0.0
O235 O 0.28258 0.49869 0.42759 0.0
O236 O 0.21956 0.33333 0.47633 0.0
O237 O 0.22118 0.42207 0.3732 0.0
O238 O 0.30449 0.48581 0.49015 0.0
O239 O 0.11296 0.35256 0.43239 0.0
O240 O 0.18588 0.39121 0.56073 0.0
O241 O 0.20161 0.49907 0.46856 0.0
Sc242 Sc 0.8269 0.16391 0.61957 0.0
Sc243 Sc 0.75143 0.20137 0.60003 0.0
Sc244 Sc 0.82149 0.24102 0.68964 0.0
O245 O 0.79996 0.20226 0.6366 0.0
C246 C 0.81063 0.1462 0.71795 0.0
C247 C 0.72413 0.10191 0.58905 0.0
C248 C 0.71803 0.20894 0.69285 0.0
C249 C 0.81861 0.19707 0.53147 0.0
C250 C 0.91307 0.25071 0.65717 0.0
C251 C 0.81143 0.305 0.6211 0.0
O252 O 0.80995 0.13215 0.68029 0.0
O253 O 0.71131 0.12927 0.60012 0.0
O254 O 0.75467 0.21923 0.71149 0.0
O255 O 0.84458 0.19307 0.55757 0.0
O256 O 0.89131 0.26812 0.67313 0.0
O257 O 0.7875 0.27315 0.5955 0.0
O258 O 0.89373 0.2115 0.6412 0.0
O259 O 0.78348 0.19775 0.54297 0.0
O260 O 0.82412 0.2986 0.65737 0.0
O261 O 0.76482 0.11133 0.59213 0.0
O262 O 0.81828 0.18574 0.72673 0.0
O263 O 0.71303 0.20399 0.65281 0.0
H264 H 0.20638 0.53305 0.10144 0.0
H265 H 0.19574 0.56133 0.97003 0.0
H266 H 0.18511 0.624 -0.00827 0.0
H267 H 0.18929 0.67647 0.04789 0.0
H268 H 0.19729 0.64667 0.1794 0.0
H269 H 0.19742 0.57808 0.1581 0.0
C270 C 0.20083 0.55247 0.07765 0.0
C271 C 0.20236 0.5431 0.03418 0.0
C272 C 0.19436 0.58806 0.09045 0.0
C273 C 0.19465 0.56799 0.00359 0.0
C274 C 0.18883 0.60391 0.01604 0.0
C275 C 0.18973 0.65418 0.07189 0.0
C276 C 0.19343 0.66655 0.11516 0.0
C277 C 0.19004 0.61506 0.05931 0.0
C278 C 0.19398 0.63758 0.14602 0.0
C279 C 0.1946 0.59869 0.13376 0.0
H280 H 0.53591 0.20605 0.21112 0.0
H281 H 0.56135 0.19163 0.34271 0.0
H282 H 0.62665 0.18516 0.32182 0.0
H283 H 0.68124 0.19266 0.2669 0.0
H284 H 0.65508 0.20579 0.13519 0.0
H285 H 0.58477 0.20293 0.15527 0.0
C286 C 0.55541 0.20085 0.23521 0.0
C287 C 0.54419 0.19998 0.27854 0.0
C288 C 0.5928 0.19714 0.2229 0.0
C289 C 0.56926 0.19246 0.30926 0.0
C290 C 0.60675 0.18904 0.29729 0.0
C291 C 0.65973 0.19411 0.24247 0.0
C292 C 0.67365 0.19998 0.19957 0.0
C293 C 0.61955 0.19267 0.25434 0.0
C294 C 0.64516 0.20118 0.16831 0.0
C295 C 0.60515 0.19994 0.17987 0.0
H296 H 0.35231 0.52855 0.37647 0.0
H297 H 0.37752 0.56317 0.50957 0.0
H298 H 0.44814 0.63059 0.49186 0.0
H299 H 0.49761 0.68423 0.43798 0.0
H300 H 0.47438 0.64874 0.30507 0.0
H301 H 0.40837 0.57675 0.32316 0.0
C302 C 0.37369 0.55048 0.40163 0.0
C303 C 0.35941 0.54118 0.44429 0.0
C304 C 0.41438 0.5891 0.39118 0.0
C305 C 0.38771 0.56952 0.47657 0.0
C306 C 0.42796 0.60825 0.46641 0.0
C307 C 0.47857 0.66024 0.41307 0.0
C308 C 0.49048 0.67179 0.37023 0.0
C309 C 0.44089 0.61904 0.42378 0.0
C310 C 0.46593 0.64045 0.33823 0.0
C311 C 0.428 0.5995 0.34859 0.0
H312 H 0.82145 0.49155 0.59785 0.0
H313 H 0.82052 0.4573 0.46554 0.0
H314 H 0.8243 0.3907 0.48579 0.0
H315 H 0.82032 0.33844 0.54122 0.0
H316 H 0.82377 0.37401 0.6735 0.0
H317 H 0.82714 0.44412 0.65315 0.0
C318 C 0.82263 0.46978 0.57342 0.0
C319 C 0.82013 0.47911 0.53019 0.0
C320 C 0.82504 0.43169 0.58532 0.0
C321 C 0.82241 0.45097 0.49896 0.0
C322 C 0.8243 0.41271 0.51057 0.0
C323 C 0.82244 0.36184 0.56562 0.0
C324 C 0.82129 0.3507 0.6089 0.0
C325 C 0.8245 0.40217 0.55365 0.0
C326 C 0.82467 0.38168 0.64004 0.0
C327 C 0.82628 0.42167 0.62839 0.0
H328 H 0.49899 0.82266 0.71142 0.0
H329 H 0.47595 0.83186 0.84503 0.0
H330 H 0.4098 0.83796 0.828 0.0
H331 H 0.35383 0.83202 0.77554 0.0
H332 H 0.37794 0.82534 0.64181 0.0
H333 H 0.44872 0.82783 0.65841 0.0
C334 C 0.47982 0.82662 0.73679 0.0
C335 C 0.49209 0.82617 0.77952 0.0
C336 C 0.44195 0.83048 0.72672 0.0
C337 C 0.4673 0.83205 0.81194 0.0
C338 C 0.4293 0.83532 0.80221 0.0
C339 C 0.37505 0.83205 0.74997 0.0
C340 C 0.36036 0.8281 0.70747 0.0
C341 C 0.41564 0.83336 0.75979 0.0
C342 C 0.38845 0.82859 0.67473 0.0
C343 C 0.42876 0.82956 0.68426 0.0
H344 H 0.63836 0.45234 0.98983 0.0
H345 H 0.68835 0.50674 0.8659 0.0
H346 H 0.62042 0.44678 0.83258 0.0
H347 H 0.55227 0.3721 0.83801 0.0
H348 H 0.5048 0.31573 0.96211 0.0
H349 H 0.56504 0.38278 -0.00425 0.0
C350 C 0.63345 0.45189 0.95572 0.0
C351 C 0.66794 0.48425 0.9304 0.0
C352 C 0.59482 0.41623 0.93661 0.0
C353 C 0.66186 0.48253 0.88606 0.0
C354 C 0.62318 0.44795 0.86695 0.0
C355 C 0.55436 0.37513 0.87238 0.0
C356 C 0.52414 0.3387 0.89739 0.0
C357 C 0.59013 0.41358 0.89173 0.0
C358 C 0.52778 0.34307 0.942 0.0
C359 C 0.56239 0.38143 0.96137 0.0
H360 H 0.31289 0.40344 0.14822 0.0
H361 H 0.36822 0.36642 0.0429 0.0
H362 H 0.4005 0.33521 0.09254 0.0
H363 H 0.40827 0.31405 0.1653 0.0
H364 H 0.3432 0.34086 0.26937 0.0
H365 H 0.3191 0.38066 0.22092 0.0
C366 C 0.33278 0.3893 0.13627 0.0
C367 C 0.33921 0.3881 0.0921 0.0
C368 C 0.34901 0.36941 0.1648 0.0
C369 C 0.3636 0.36832 0.07678 0.0
C370 C 0.38178 0.35035 0.10514 0.0
C371 C 0.38954 0.3294 0.17748 0.0
C372 C 0.37833 0.32556 0.22097 0.0
C373 C 0.37414 0.35018 0.14913 0.0
C374 C 0.35266 0.34403 0.23616 0.0
C375 C 0.33887 0.36661 0.20845 0.0
H376 H 0.92723 0.2697 0.31691 0.0
H377 H 0.99168 0.37785 0.22771 0.0
H378 H 0.05398 0.41922 0.27816 0.0
H379 H 0.09287 0.42011 0.34473 0.0
H380 H 0.02641 0.3108 0.43314 0.0
H381 H 0.96118 0.27488 0.38639 0.0
C382 C 0.95496 0.30242 0.30866 0.0
C383 C 0.95587 0.32045 0.26854 0.0
C384 C 0.98983 0.32582 0.33781 0.0
C385 C 0.99096 0.36329 0.25833 0.0
C386 C 0.02634 0.38681 0.28717 0.0
C387 C 0.0636 0.38909 0.35435 0.0
C388 C 0.0647 0.36793 0.39224 0.0
C389 C 0.02652 0.36793 0.3267 0.0
C390 C 0.02657 0.32759 0.40406 0.0
C391 C 0.98939 0.30684 0.37721 0.0
H392 H 0.73451 0.10348 0.50541 0.0
H393 H 0.65031 0.01958 0.60609 0.0
H394 H 0.60774 0.95873 0.55443 0.0
H395 H 0.5995 0.92815 0.48141 0.0
H396 H 0.6855 0.01349 0.38163 0.0
H397 H 0.72158 0.07583 0.43192 0.0
C398 C 0.70641 0.07203 0.51582 0.0
C399 C 0.69552 0.06561 0.55921 0.0
C400 C 0.68233 0.03782 0.48605 0.0
C401 C 0.65918 0.02495 0.57273 0.0
C402 C 0.63496 0.99036 0.5432 0.0
C403 C 0.62518 0.96073 0.47034 0.0
C404 C 0.63971 0.96607 0.42763 0.0
C405 C 0.64672 0.99623 0.49981 0.0
C406 C 0.67361 1.00842 0.41416 0.0
C407 C 0.69452 0.04401 0.44299 0.0
H408 H 0.61006 0.68124 0.67875 0.0
H409 H 0.72379 0.72556 0.7628 0.0
H410 H 0.76037 0.70097 0.71142 0.0
H411 H 0.76376 0.67446 0.63988 0.0
H412 H 0.65051 0.62805 0.55532 0.0
H413 H 0.6101 0.64645 0.60923 0.0
C414 C 0.64213 0.68407 0.6864 0.0
C415 C 0.6641 0.70508 0.72473 0.0
C416 C 0.66362 0.67086 0.65603 0.0
C417 C 0.70612 0.70936 0.73371 0.0
C418 C 0.72728 0.69576 0.70412 0.0
C419 C 0.73023 0.66853 0.63326 0.0
C420 C 0.71047 0.65118 0.59342 0.0
C421 C 0.70708 0.67802 0.66465 0.0
C422 C 0.66655 0.64216 0.58558 0.0
C423 C 0.64347 0.65246 0.61646 0.0
H424 H 0.10446 0.68507 0.81618 0.0
H425 H 0.01743 0.66756 0.71032 0.0
H426 H 0.95149 0.62511 0.75565 0.0
H427 H 0.91951 0.60078 0.82696 0.0
H428 H 1.00732 0.62977 0.93479 0.0
H429 H 0.07246 0.65979 0.8872 0.0
C430 C 0.07102 0.67097 0.80279 0.0
C431 C 0.06566 0.67871 0.75981 0.0
C432 C 0.03364 0.64907 0.8296 0.0
C433 C 0.02224 0.66151 0.74315 0.0
C434 C 0.98467 0.63751 0.76912 0.0
C435 C 0.95286 0.61262 0.83986 0.0
C436 C 0.95878 0.61231 0.88415 0.0
C437 C 0.99006 0.6321 0.8126 0.0
C438 C 1.00213 0.62916 0.90076 0.0
C439 C 0.03923 0.64648 0.87359 0.0
H440 H 0.38445 0.09237 0.97821 0.0
H441 H 0.39909 1.009 0.88486 0.0
H442 H 0.38088 0.95101 0.93916 0.0
H443 H 0.35164 0.9216 0.01107 0.0
H444 H 0.33634 1.00689 0.10283 0.0
H445 H 0.36592 0.06779 0.05169 0.0
C446 C 0.385 0.0621 0.97021 0.0
C447 C 0.39319 0.05482 0.92805 0.0
C448 C 0.3746 0.0296 0.00134 0.0
C449 C 0.39296 0.01516 0.91731 0.0
C450 C 0.3825 0.98217 0.94833 0.0
C451 C 0.3563 0.95402 0.02041 0.0
C452 C 0.34153 0.95959 0.06077 0.0
C453 C 0.37214 0.98865 0.99025 0.0
C454 C 0.3473 1.00167 0.07208 0.0
C455 C 0.36392 0.03643 0.04273 0.0
H456 H 0.45532 0.64288 0.82433 0.0
H457 H 0.53369 0.70186 0.93797 0.0
H458 H 0.47643 0.64131 0.98061 0.0
H459 H 0.40179 0.5748 0.9864 0.0
H460 H 0.32149 0.51791 0.87333 0.0
H461 H 0.38184 0.57426 0.82978 0.0
C462 C 0.46014 0.6421 0.85833 0.0
C463 C 0.4986 0.6769 0.87795 0.0
C464 C 0.42654 0.60775 0.88286 0.0
C465 C 0.50419 0.67565 0.92213 0.0
C466 C 0.47146 0.64104 0.94655 0.0
C467 C 0.39763 0.57438 0.95219 0.0
C468 C 0.35703 0.5423 0.93326 0.0
C469 C 0.43211 0.60741 0.92738 0.0
C470 C 0.35221 0.54246 0.88884 0.0
C471 C 0.38674 0.57465 0.86386 0.0
H472 H 0.84154 0.45138 -0.00489 0.0
H473 H 0.78589 0.49027 0.09928 0.0
H474 H 0.79044 0.43559 0.1451 0.0
H475 H 0.80583 0.37364 0.15395 0.0
H476 H 0.8576 0.3328 0.04819 0.0
H477 H 0.85957 0.39216 0.00459 0.0
C478 C 0.83059 0.44823 0.0279 0.0
C479 C 0.81306 0.47466 0.04362 0.0
C480 C 0.83273 0.41651 0.05374 0.0
C481 C 0.79913 0.47003 0.08623 0.0
C482 C 0.80183 0.43889 0.11248 0.0
C483 C 0.81825 0.3783 0.12158 0.0
C484 C 0.83151 0.34904 0.10416 0.0
C485 C 0.81803 0.41157 0.09637 0.0
C486 C 0.847 0.35489 0.06208 0.0
C487 C 0.84805 0.38869 0.03718 0.0
H488 H 0.38547 0.81902 0.16291 0.0
H489 H 0.31493 0.81715 0.27722 0.0
H490 H 0.37586 0.82125 0.32054 0.0
H491 H 0.4475 0.82184 0.32595 0.0
H492 H 0.51581 0.81968 0.21149 0.0
H493 H 0.45749 0.82095 0.16827 0.0
C494 C 0.38355 0.81993 0.1973 0.0
C495 C 0.34561 0.81775 0.21674 0.0
C496 C 0.41825 0.82141 0.22201 0.0
C497 C 0.34358 0.81853 0.26139 0.0
C498 C 0.37845 0.82093 0.2862 0.0
C499 C 0.44987 0.82213 0.29155 0.0
C500 C 0.48596 0.82065 0.27199 0.0
C501 C 0.4157 0.82188 0.26685 0.0
C502 C 0.48825 0.82053 0.22736 0.0
C503 C 0.45494 0.8213 0.20261 0.0
H504 H 0.6369 0.45536 0.4828 0.0
H505 H 0.70341 0.52207 0.36685 0.0
H506 H 0.64144 0.46475 0.32497 0.0
H507 H 0.57222 0.3919 0.32113 0.0
H508 H 0.50776 0.32369 0.43718 0.0
H509 H 0.56489 0.38569 0.47909 0.0
C510 C 0.63758 0.45776 0.44841 0.0
C511 C 0.67497 0.49259 0.42801 0.0
C512 C 0.60235 0.42424 0.42447 0.0
C513 C 0.67527 0.49521 0.38337 0.0
C514 C 0.63985 0.46249 0.35935 0.0
C515 C 0.5703 0.39093 0.35557 0.0
C516 C 0.53618 0.35306 0.37599 0.0
C517 C 0.6038 0.42623 0.37954 0.0
C518 C 0.53412 0.35224 0.42068 0.0
C519 C 0.56673 0.38767 0.4447 0.0
H520 H 0.20423 0.68257 0.55776 0.0
H521 H 0.21789 0.64032 0.68324 0.0
H522 H 0.21439 0.57341 0.6535 0.0
H523 H 0.21089 0.52819 0.59194 0.0
H524 H 0.196 0.56896 0.46623 0.0
H525 H 0.19599 0.63443 0.4961 0.0
C526 C 0.20638 0.65868 0.57855 0.0
C527 C 0.21161 0.66679 0.62261 0.0
C528 C 0.20403 0.61976 0.56128 0.0
C529 C 0.2138 0.63511 0.64916 0.0
C530 C 0.21189 0.59672 0.63222 0.0
C531 C 0.2073 0.55116 0.57104 0.0
C532 C 0.20381 0.54367 0.5269 0.0
C533 C 0.20744 0.5889 0.58833 0.0
C534 C 0.19876 0.57372 0.5004 0.0
C535 C 0.19897 0.61141 0.5174 0.0
H536 H 0.5781 0.20033 0.827 0.0
H537 H 0.51694 0.21559 0.71306 0.0
H538 H 0.57536 0.21443 0.66995 0.0
H539 H 0.64467 0.21121 0.6648 0.0
H540 H 0.70698 0.19806 0.77885 0.0
H541 H 0.64674 0.19592 0.82175 0.0
C542 C 0.57737 0.20324 0.79272 0.0
C543 C 0.54325 0.2082 0.77335 0.0
C544 C 0.61116 0.20288 0.76815 0.0
C545 C 0.54298 0.21206 0.72888 0.0
C546 C 0.57629 0.21127 0.70416 0.0
C547 C 0.64491 0.20745 0.699 0.0
C548 C 0.68027 0.20483 0.71859 0.0
C549 C 0.61064 0.20695 0.7235 0.0
C550 C 0.68024 0.20037 0.76299 0.0
C551 C 0.64584 0.19914 0.78755 0.0
H552 H 0.19786 0.27006 0.90981 0.0
H553 H 0.30166 0.40341 0.87758 0.0
H554 H 0.34256 0.37279 0.83929 0.0
H555 H 0.35405 0.30827 0.82489 0.0
H556 H 0.24764 0.17499 0.85574 0.0
H557 H 0.20262 0.20538 0.88378 0.0
C558 C 0.22878 0.29229 0.89332 0.0
C559 C 0.24687 0.33882 0.89674 0.0
C560 C 0.25214 0.27449 0.87157 0.0
C561 C 0.28688 0.36737 0.87513 0.0
C562 C 0.31055 0.34988 0.85363 0.0
C563 C 0.32064 0.28579 0.83684 0.0
C564 C 0.30504 0.23942 0.83905 0.0
C565 C 0.29436 0.3035 0.85308 0.0
C566 C 0.26123 0.21089 0.8542 0.0
C567 C 0.23522 0.2282 0.87041 0.0
H568 H 0.92628 0.28898 0.04909 0.0
H569 H 0.93407 0.17433 0.09163 0.0
H570 H 1.00714 0.20316 0.05777 0.0
H571 H 0.07345 0.26614 0.02644 0.0
H572 H 0.0685 0.38284 0.9855 0.0
H573 H 0.98984 0.3481 0.00771 0.0
C574 C 0.94336 0.26967 0.04944 0.0
C575 C 0.92486 0.22948 0.07256 0.0
C576 C 0.98633 0.28733 0.03099 0.0
C577 C 0.94765 0.20516 0.07373 0.0
C578 C 0.9896 0.22185 0.05472 0.0
C579 C 0.05495 0.2837 0.02169 0.0
C580 C 0.07702 0.32727 0.00493 0.0
C581 C 1.01007 0.26376 0.03493 0.0
C582 C 0.05236 0.34928 -0.00161 0.0
C583 C 1.00741 0.3295 0.01133 0.0
H584 H 0.63583 0.92159 0.21232 0.0
H585 H 0.75664 0.91626 0.23475 0.0
H586 H 0.79993 0.98404 0.19288 0.0
H587 H 0.80562 0.05215 0.16378 0.0
H588 H 0.68617 0.06164 0.14651 0.0
H589 H 0.63996 0.98467 0.17125 0.0
C590 C 0.67126 0.93442 0.20639 0.0
C591 C 0.69325 0.91426 0.2262 0.0
C592 C 0.69627 0.97465 0.18394 0.0
C593 C 0.73925 0.93134 0.21936 0.0
C594 C 0.764 0.97026 0.19581 0.0
C595 C 0.76936 0.03701 0.16441 0.0
C596 C 0.74947 0.06291 0.15429 0.0
C597 C 0.74327 0.99345 0.18004 0.0
C598 C 0.70241 0.04257 0.15444 0.0
C599 C 0.67596 0.99863 0.16895 0.0
H600 H 0.67129 0.71 0.32604 0.0
H601 H 0.77693 0.84585 0.34994 0.0
H602 H 0.826 0.81908 0.37501 0.0
H603 H 0.8346 0.75726 0.40175 0.0
H604 H 0.73158 0.62112 0.37713 0.0
H605 H 0.68631 0.64754 0.34027 0.0
C606 C 0.70542 0.73367 0.33561 0.0
C607 C 0.71984 0.77979 0.33721 0.0
C608 C 0.73392 0.718 0.35037 0.0
C609 C 0.76443 0.81007 0.3494 0.0
C610 C 0.7927 0.79486 0.36378 0.0
C611 C 0.80293 0.73352 0.38698 0.0
C612 C 0.78632 0.68753 0.39203 0.0
C613 C 0.77715 0.74893 0.3662 0.0
C614 C 0.74517 0.65683 0.37309 0.0
C615 C 0.71907 0.67193 0.35247 0.0
H616 H 0.10197 0.71254 0.54837 0.0
H617 H 0.11408 0.84232 0.56522 0.0
H618 H 0.04658 0.819 0.52249 0.0
H619 H 0.9774 0.75788 0.49228 0.0
H620 H 0.96231 0.62627 0.47856 0.0
H621 H 0.0378 0.65418 0.50699 0.0
C622 C 0.09068 0.73609 0.54109 0.0
C623 C 0.11292 0.77915 0.55941 0.0
C624 C 0.05077 0.7218 0.51774 0.0
C625 C 0.09759 0.8092 0.55087 0.0
C626 C 0.05878 0.79571 0.52684 0.0
C627 C 0.99095 0.73547 0.49453 0.0
C628 C 0.96375 0.68984 0.48402 0.0
C629 C 0.03397 0.75147 0.51189 0.0
C630 C 0.98225 0.66151 0.48661 0.0
C631 C 0.02541 0.67738 0.50321 0.0
H632 H 0.28002 0.08624 0.72468 0.0
H633 H 0.41353 0.10546 0.7297 0.0
H634 H 0.38894 0.03593 0.68922 0.0
H635 H 0.32575 0.9627 0.66488 0.0
H636 H 0.19236 0.94488 0.66064 0.0
H637 H 0.22059 0.02083 0.68702 0.0
C638 C 0.30404 0.07612 0.71518 0.0
C639 C 0.3485 0.10095 0.72963 0.0
C640 C 0.28942 0.03576 0.6926 0.0
C641 C 0.37927 0.08715 0.71813 0.0
C642 C 0.36504 0.04708 0.69547 0.0
C643 C 0.30323 0.97603 0.66828 0.0
C644 C 0.25684 0.94772 0.66157 0.0
C645 C 0.31966 0.01998 0.68425 0.0
C646 C 0.2281 0.96562 0.66625 0.0
C647 C 0.24416 1.00911 0.6815 0.0
H648 H 0.71854 0.67018 0.98293 0.0
H649 H 0.85263 0.76262 0.93939 0.0
H650 H 0.82902 0.81505 0.9174 0.0
H651 H 0.76855 0.8297 0.89996 0.0
H652 H 0.63378 0.73866 0.94134 0.0
H653 H 0.65942 0.69158 0.97568 0.0
C654 C 0.74269 0.70219 0.96948 0.0
C655 C 0.78703 0.71178 0.96185 0.0
C656 C 0.72876 0.73255 0.95631 0.0
C657 C 0.81801 0.75369 0.94468 0.0
C658 C 0.80464 0.78394 0.93216 0.0
C659 C 0.74508 0.8003 0.9177 0.0
C660 C 0.69945 0.78755 0.91799 0.0
C661 C 0.75983 0.77298 0.93626 0.0
C662 C 0.66926 0.74942 0.94106 0.0
C663 C 0.68383 0.72214 0.96015 0.0
H664 H 0.05152 0.70013 0.15339 0.0
H665 H 0.07464 0.83409 0.13433 0.0
H666 H 1.00028 0.80425 0.10372 0.0
H667 H 0.93423 0.74106 0.07093 0.0
H668 H 0.90803 0.60663 0.0911 0.0
H669 H 0.97725 0.63536 0.13303 0.0
C670 C 0.03972 0.72267 0.14377 0.0
C671 C 0.06922 0.76933 0.14522 0.0
C672 C 0.99644 0.70521 0.12575 0.0
C673 C 0.05314 0.79803 0.13275 0.0
C674 C 1.01053 0.78104 0.11511 0.0
C675 C 0.94301 0.71808 0.08577 0.0
C676 C 0.91635 0.67197 0.078 0.0
C677 C 0.98274 0.73484 0.10966 0.0
C678 C 0.92796 0.64234 0.09711 0.0
C679 C 0.96778 0.65881 0.1207 0.0
H680 H 0.26292 0.05736 0.31134 0.0
H681 H 0.38906 0.06251 0.33451 0.0
H682 H 0.35644 0.98443 0.31147 0.0
H683 H 0.29634 0.92002 0.27175 0.0
H684 H 0.17231 0.91773 0.24536 0.0
H685 H 0.1992 0.98864 0.28343 0.0
C686 C 0.28302 0.04111 0.31226 0.0
C687 C 0.32858 0.06601 0.32385 0.0
C688 C 0.26432 0.99657 0.29818 0.0
C689 C 0.35395 0.04423 0.32554 0.0
C690 C 0.33538 0.9996 0.31207 0.0
C691 C 0.27464 0.93423 0.27609 0.0
C692 C 0.23233 0.91376 0.25625 0.0
C693 C 0.29117 0.97608 0.29656 0.0
C694 C 0.20478 0.93282 0.26093 0.0
C695 C 0.22037 0.9736 0.28223 0.0
H696 H 0.39407 0.29917 0.43483 0.0
H697 H 0.27172 0.17308 0.41863 0.0
H698 H 0.23088 0.20049 0.46133 0.0
H699 H 0.22718 0.26431 0.4903 0.0
H700 H 0.34726 0.39337 0.50049 0.0
H701 H 0.39212 0.36083 0.47451 0.0
C702 C 0.35885 0.27735 0.44213 0.0
C703 C 0.33574 0.23417 0.42398 0.0
C704 C 0.33514 0.29419 0.4651 0.0
C705 C 0.28999 0.20631 0.43262 0.0
C706 C 0.26665 0.2221 0.45674 0.0
C707 C 0.26338 0.28509 0.48796 0.0
C708 C 0.28378 0.3313 0.49663 0.0
C709 C 0.28842 0.26662 0.47126 0.0
C710 C 0.33072 0.35771 0.49402 0.0
C711 C 0.3563 0.33918 0.47864 0.0
H712 H 0.10854 0.39071 0.59927 0.0
H713 H 0.11253 0.26881 0.57956 0.0
H714 H 0.04118 0.22609 0.61665 0.0
H715 H 0.9722 0.22158 0.64291 0.0
H716 H 0.96515 0.34239 0.65942 0.0
H717 H 0.04307 0.38731 0.63613 0.0
C718 C 0.09451 0.35511 0.60468 0.0
C719 C 0.11566 0.33283 0.58698 0.0
C720 C 0.05239 0.3304 0.62461 0.0
C721 C 0.09682 0.28656 0.59322 0.0
C722 C 0.05584 0.26208 0.61405 0.0
C723 C 0.98791 0.25781 0.6422 0.0
C724 C 0.96252 0.27844 0.65217 0.0
C725 C 0.03236 0.28332 0.62801 0.0
C726 C 0.98374 0.32552 0.65172 0.0
C727 C 0.02831 0.35127 0.63815 0.0
H728 H 0.73635 0.1076 0.76761 0.0
H729 H 0.86018 0.10923 0.74157 0.0
H730 H 0.83438 0.04039 0.78215 0.0
H731 H 0.77206 0.97366 0.81337 0.0
H732 H 0.6452 0.96766 0.83458 0.0
H733 H 0.67683 0.04451 0.80874 0.0
C734 C 0.75817 0.09362 0.77234 0.0
C735 C 0.80026 0.11347 0.75216 0.0
C736 C 0.74219 0.05284 0.79423 0.0
C737 C 0.82792 0.09466 0.75734 0.0
C738 C 0.81299 0.05513 0.78019 0.0
C739 C 0.75153 0.98945 0.81328 0.0
C740 C 0.70608 0.96458 0.82526 0.0
C741 C 0.76945 0.03292 0.79705 0.0
C742 C 0.68023 0.98588 0.82549 0.0
C743 C 0.69822 0.02975 0.81031 0.0
H744 H 0.27255 0.44097 0.31165 0.0
H745 H 0.16727 0.30308 0.32019 0.0
H746 H 0.16364 0.29715 0.24233 0.0
H747 H 0.18218 0.33575 0.17242 0.0
H748 H 0.27955 0.47724 0.16864 0.0
H749 H 0.29319 0.47763 0.24405 0.0
C750 C 0.24924 0.40933 0.2965 0.0
C751 C 0.21952 0.37293 0.32132 0.0
C752 C 0.24471 0.40739 0.25253 0.0
C753 C 0.1904 0.33172 0.30154 0.0
C754 C 0.18776 0.32859 0.2571 0.0
C755 C 0.20604 0.36656 0.18836 0.0
C756 C 0.22874 0.40659 0.16527 0.0
C757 C 0.2131 0.36698 0.23238 0.0
C758 C 0.26037 0.44624 0.18593 0.0
C759 C 0.26883 0.44646 0.22897 0.0
H760 H 0.75734 0.17914 0.47047 0.0
H761 H 0.89334 0.20692 0.48957 0.0
H762 H 0.9007 0.19906 0.41287 0.0
H763 H 0.86994 0.19072 0.34024 0.0
H764 H 0.73513 0.1662 0.32323 0.0
H765 H 0.72488 0.16427 0.40026 0.0
C766 C 0.78885 0.18378 0.4581 0.0
C767 C 0.82511 0.19452 0.48554 0.0
C768 C 0.79251 0.17871 0.41466 0.0
C769 C 0.86519 0.1993 0.46892 0.0
C770 C 0.86928 0.19454 0.42523 0.0
C771 C 0.83796 0.18347 0.35373 0.0
C772 C 0.80301 0.178 0.32693 0.0
C773 C 0.83328 0.18477 0.39782 0.0
C774 C 0.76195 0.16972 0.34389 0.0
C775 C 0.75644 0.16935 0.38766 0.0
H776 H 0.62121 0.76937 0.63824 0.0
H777 H 0.6911 0.91206 0.66047 0.0
H778 H 0.70008 0.92509 0.58326 0.0
H779 H 0.67997 0.89461 0.51004 0.0
H780 H 0.60606 0.75142 0.49041 0.0
H781 H 0.60755 0.73942 0.56668 0.0
C782 C 0.63836 0.80338 0.62613 0.0
C783 C 0.65428 0.83982 0.65428 0.0
C784 C 0.643 0.81023 0.58253 0.0
C785 C 0.67799 0.8837 0.63883 0.0
C786 C 0.68311 0.89101 0.59495 0.0
C787 C 0.66536 0.86093 0.52263 0.0
C788 C 0.64293 0.8238 0.49536 0.0
C789 C 0.66476 0.85442 0.56655 0.0
C790 C 0.62336 0.78021 0.51136 0.0
C791 C 0.62399 0.77342 0.55474 0.0
H792 H 0.87077 0.67814 0.80009 0.0
H793 H 0.79486 0.53323 0.80206 0.0
H794 H 0.79952 0.53038 0.72568 0.0
H795 H 0.81871 0.56763 0.65841 0.0
H796 H 0.88629 0.71178 0.6523 0.0
H797 H 0.89345 0.71646 0.73018 0.0
C798 C 0.85516 0.6461 0.78362 0.0
C799 C 0.83162 0.60612 0.80667 0.0
C800 C 0.85715 0.64447 0.7391 0.0
C801 C 0.81212 0.56467 0.78512 0.0
C802 C 0.81519 0.56283 0.7414 0.0
C803 C 0.83552 0.60017 0.67409 0.0
C804 C 0.8512 0.6392 0.65014 0.0
C805 C 0.83679 0.60238 0.71817 0.0
C806 C 0.87391 0.68122 0.67042 0.0
C807 C 0.87737 0.68384 0.71484 0.0
H808 H 0.1648 0.75893 0.84609 0.0
H809 H 0.21901 0.90027 0.82596 0.0
H810 H 0.21922 0.91237 0.90333 0.0
H811 H 0.21343 0.8829 0.97606 0.0
H812 H 0.16405 0.74171 -0.00643 0.0
H813 H 0.15105 0.72864 0.91721 0.0
C814 C 0.17629 0.79232 0.8588 0.0
C815 C 0.19299 0.82894 0.83137 0.0
C816 C 0.17678 0.79868 0.90243 0.0
C817 C 0.20671 0.87194 0.84722 0.0
C818 C 0.20679 0.8787 0.89115 0.0
C819 C 0.19865 0.84923 0.96302 0.0
C820 C 0.18979 0.8132 0.98965 0.0
C821 C 0.19321 0.8424 0.91904 0.0
C822 C 0.17118 0.76969 0.97308 0.0
C823 C 0.164 0.76231 0.92966 0.0
H824 H 0.42302 0.15841 0.01732 0.0
H825 H 0.31753 0.18891 -0.00687 0.0
H826 H 0.30559 0.19026 0.07012 0.0
H827 H 0.33169 0.19039 0.14377 0.0
H828 H 0.43703 0.15898 0.16434 0.0
H829 H 0.44082 0.14764 0.08826 0.0
C830 C 0.39682 0.16473 0.02852 0.0
C831 C 0.37154 0.17411 -0.00029 0.0
C832 C 0.38968 0.16438 0.07193 0.0
C833 C 0.33765 0.18196 0.01493 0.0
C834 C 0.33075 0.18254 0.05876 0.0
C835 C 0.35423 0.17953 0.13145 0.0
C836 C 0.38425 0.17562 0.1589 0.0
C837 C 0.35725 0.1746 0.08754 0.0
C838 C 0.41387 0.16218 0.14325 0.0
C839 C 0.41633 0.1562 0.09995 0.0
loop_
_geom_bond_atom_site_label_1
_geom_bond_atom_site_label_2
_geom_bond_distance
_geom_bond_site_symmetry_2
_ccdc_geom_bond_type
Sc0 O3 2.025 1_556 S
Sc0 O10 2.105 1_556 S
Sc0 O13 2.105 . S
Sc0 O16 2.105 . S
Sc0 O19 2.105 1_556 S
Sc1 O3 2.025 . S
Sc1 O11 2.105 . S
Sc1 O15 2.105 . S
Sc1 O17 2.105 . S
Sc1 O21 2.105 . S
Sc2 O3 2.025 . S
Sc2 O12 2.105 . S
Sc2 O14 2.105 . S
Sc2 O18 2.105 . S
Sc2 O20 2.105 . S
O3 Sc0 2.025 1_554 S
O3 Sc1 2.025 . S
O3 Sc2 2.025 . S
C4 O10 1.268 . S
C4 O20 1.268 . S
C5 O11 1.268 . S
C5 O19 1.268 . S
C6 O12 1.268 . S
C6 O21 1.268 . S
C7 O13 1.268 . S
C7 O17 1.268 1_556 S
C8 O14 1.268 1_556 S
C8 O16 1.268 . S
C9 O15 1.268 . S
C9 O18 1.268 . S
O10 Sc0 2.105 1_554 S
O10 C4 1.268 . S
O11 Sc1 2.105 . S
O11 C5 1.268 . S
O12 Sc2 2.105 . S
O12 C6 1.268 . S
O13 Sc0 2.105 . S
O13 C7 1.268 . S
O14 Sc2 2.105 . S
O14 C8 1.268 1_554 S
O15 Sc1 2.105 . S
O15 C9 1.268 . S
O16 Sc0 2.105 . S
O16 C8 1.268 . S
O17 Sc1 2.105 . S
O17 C7 1.268 1_554 S
O18 Sc2 2.105 . S
O18 C9 1.268 . S
O19 Sc0 2.105 1_554 S
O19 C5 1.268 . S
O20 Sc2 2.105 . S
O20 C4 1.268 . S
O21 Sc1 2.105 . S
O21 C6 1.268 . S
Sc22 O25 2.025 . S
Sc22 O32 2.105 . S
Sc22 O35 2.105 . S
Sc22 O38 2.105 . S
Sc22 O41 2.105 . S
Sc23 O25 2.025 . S
Sc23 O33 2.105 . S
Sc23 O37 2.105 . S
Sc23 O39 2.105 . S
Sc23 O43 2.105 . S
Sc24 O25 2.025 . S
Sc24 O34 2.105 . S
Sc24 O36 2.105 . S
Sc24 O40 2.105 . S
Sc24 O42 2.105 . S
O25 Sc22 2.025 . S
O25 Sc23 2.025 . S
O25 Sc24 2.025 . S
C26 O32 1.268 . S
C26 O42 1.268 . S
C27 O33 1.268 . S
C27 O41 1.268 . S
C28 O34 1.268 . S
C28 O43 1.268 . S
C29 O35 1.268 . S
C29 O39 1.268 . S
C30 O36 1.268 . S
C30 O38 1.268 . S
C31 O37 1.268 . S
C31 O40 1.268 . S
O32 Sc22 2.105 . S
O32 C26 1.268 . S
O33 Sc23 2.105 . S
O33 C27 1.268 . S
O34 Sc24 2.105 . S
O34 C28 1.268 . S
O35 Sc22 2.105 . S
O35 C29 1.268 . S
O36 Sc24 2.105 . S
O36 C30 1.268 . S
O37 Sc23 2.105 . S
O37 C31 1.268 . S
O38 Sc22 2.105 . S
O38 C30 1.268 . S
O39 Sc23 2.105 . S
O39 C29 1.268 . S
O40 Sc24 2.105 . S
O40 C31 1.268 . S
O41 Sc22 2.105 . S
O41 C27 1.268 . S
O42 Sc24 2.105 . S
O42 C26 1.268 . S
O43 Sc23 2.105 . S
O43 C28 1.268 . S
Sc44 O47 2.025 . S
Sc44 O54 2.105 . S
Sc44 O57 2.105 . S
Sc44 O60 2.105 . S
Sc44 O63 2.105 . S
Sc45 O47 2.025 . S
Sc45 O55 2.105 . S
Sc45 O59 2.105 . S
Sc45 O61 2.105 . S
Sc45 O65 2.105 . S
Sc46 O47 2.025 . S
Sc46 O56 2.105 . S
Sc46 O58 2.105 . S
Sc46 O62 2.105 . S
Sc46 O64 2.105 . S
O47 Sc44 2.025 . S
O47 Sc45 2.025 . S
O47 Sc46 2.025 . S
C48 O54 1.268 . S
C48 O64 1.268 . S
C49 O55 1.268 . S
C49 O63 1.268 . S
C50 O56 1.268 . S
C50 O65 1.268 . S
C51 O57 1.268 . S
C51 O61 1.268 . S
C52 O58 1.268 . S
C52 O60 1.268 . S
C53 O59 1.268 . S
C53 O62 1.268 . S
O54 Sc44 2.105 . S
O54 C48 1.268 . S
O55 Sc45 2.105 . S
O55 C49 1.268 . S
O56 Sc46 2.105 . S
O56 C50 1.268 . S
O57 Sc44 2.105 . S
O57 C51 1.268 . S
O58 Sc46 2.105 . S
O58 C52 1.268 . S
O59 Sc45 2.105 . S
O59 C53 1.268 . S
O60 Sc44 2.105 . S
O60 C52 1.268 . S
O61 Sc45 2.105 . S
O61 C51 1.268 . S
O62 Sc46 2.105 . S
O62 C53 1.268 . S
O63 Sc44 2.105 . S
O63 C49 1.268 . S
O64 Sc46 2.105 . S
O64 C48 1.268 . S
O65 Sc45 2.105 . S
O65 C50 1.268 . S
Sc66 O69 2.025 . S
Sc66 O76 2.105 . S
Sc66 O79 2.105 . S
Sc66 O82 2.105 . S
Sc66 O85 2.105 . S
Sc67 O69 2.025 . S
Sc67 O77 2.105 . S
Sc67 O81 2.105 . S
Sc67 O83 2.105 . S
Sc67 O87 2.105 . S
Sc68 O69 2.025 . S
Sc68 O78 2.105 . S
Sc68 O80 2.105 . S
Sc68 O84 2.105 . S
Sc68 O86 2.105 . S
O69 Sc66 2.025 . S
O69 Sc67 2.025 . S
O69 Sc68 2.025 . S
C70 O76 1.268 . S
C70 O86 1.268 . S
C71 O77 1.268 . S
C71 O85 1.268 . S
C72 O78 1.268 . S
C72 O87 1.268 . S
C73 O79 1.268 . S
C73 O83 1.268 . S
C74 O80 1.268 . S
C74 O82 1.268 . S
C75 O81 1.268 . S
C75 O84 1.268 . S
O76 Sc66 2.105 . S
O76 C70 1.268 . S
O77 Sc67 2.105 . S
O77 C71 1.268 . S
O78 Sc68 2.105 . S
O78 C72 1.268 . S
O79 Sc66 2.105 . S
O79 C73 1.268 . S
O80 Sc68 2.105 . S
O80 C74 1.268 . S
O81 Sc67 2.105 . S
O81 C75 1.268 . S
O82 Sc66 2.105 . S
O82 C74 1.268 . S
O83 Sc67 2.105 . S
O83 C73 1.268 . S
O84 Sc68 2.105 . S
O84 C75 1.268 . S
O85 Sc66 2.105 . S
O85 C71 1.268 . S
O86 Sc68 2.105 . S
O86 C70 1.268 . S
O87 Sc67 2.105 . S
O87 C72 1.268 . S
Sc88 O91 2.025 . S
Sc88 O98 2.105 . S
Sc88 O101 2.105 . S
Sc88 O104 2.105 . S
Sc88 O107 2.105 . S
Sc89 O91 2.025 . S
Sc89 O99 2.105 . S
Sc89 O103 2.105 . S
Sc89 O105 2.105 . S
Sc89 O109 2.105 . S
Sc90 O91 2.025 . S
Sc90 O100 2.105 . S
Sc90 O102 2.105 . S
Sc90 O106 2.105 . S
Sc90 O108 2.105 . S
O91 Sc88 2.025 . S
O91 Sc89 2.025 . S
O91 Sc90 2.025 . S
C92 O98 1.268 . S
C92 O108 1.268 . S
C93 O99 1.268 . S
C93 O107 1.268 . S
C94 O100 1.268 . S
C94 O109 1.268 . S
C95 O101 1.268 . S
C95 O105 1.268 . S
C96 O102 1.268 . S
C96 O104 1.268 . S
C97 O103 1.268 . S
C97 O106 1.268 . S
O98 Sc88 2.105 . S
O98 C92 1.268 . S
O99 Sc89 2.105 . S
O99 C93 1.268 . S
O100 Sc90 2.105 . S
O100 C94 1.268 . S
O101 Sc88 2.105 . S
O101 C95 1.268 . S
O102 Sc90 2.105 . S
O102 C96 1.268 . S
O103 Sc89 2.105 . S
O103 C97 1.268 . S
O104 Sc88 2.105 . S
O104 C96 1.268 . S
O105 Sc89 2.105 . S
O105 C95 1.268 . S
O106 Sc90 2.105 . S
O106 C97 1.268 . S
O107 Sc88 2.105 . S
O107 C93 1.268 . S
O108 Sc90 2.105 . S
O108 C92 1.268 . S
O109 Sc89 2.105 . S
O109 C94 1.268 . S
Sc110 O113 2.025 . S
Sc110 O120 2.105 . S
Sc110 O123 2.105 . S
Sc110 O126 2.105 . S
Sc110 O129 2.105 . S
Sc111 O113 2.025 . S
Sc111 O121 2.105 . S
Sc111 O125 2.105 . S
Sc111 O127 2.105 . S
Sc111 O131 2.105 . S
Sc112 O113 2.025 . S
Sc112 O122 2.105 . S
Sc112 O124 2.105 . S
Sc112 O128 2.105 . S
Sc112 O130 2.105 . S
O113 Sc110 2.025 . S
O113 Sc111 2.025 . S
O113 Sc112 2.025 . S
C114 O120 1.268 . S
C114 O130 1.268 . S
C115 O121 1.268 . S
C115 O129 1.268 . S
C116 O122 1.268 . S
C116 O131 1.268 . S
C117 O123 1.268 . S
C117 O127 1.268 . S
C118 O124 1.268 . S
C118 O126 1.268 . S
C119 O125 1.268 . S
C119 O128 1.268 . S
O120 Sc110 2.105 . S
O120 C114 1.268 . S
O121 Sc111 2.105 . S
O121 C115 1.268 . S
O122 Sc112 2.105 . S
O122 C116 1.268 . S
O123 Sc110 2.105 . S
O123 C117 1.268 . S
O124 Sc112 2.105 . S
O124 C118 1.268 . S
O125 Sc111 2.105 . S
O125 C119 1.268 . S
O126 Sc110 2.105 . S
O126 C118 1.268 . S
O127 Sc111 2.105 . S
O127 C117 1.268 . S
O128 Sc112 2.105 . S
O128 C119 1.268 . S
O129 Sc110 2.105 . S
O129 C115 1.268 . S
O130 Sc112 2.105 . S
O130 C114 1.268 . S
O131 Sc111 2.105 . S
O131 C116 1.268 . S
Sc132 O135 2.025 . S
Sc132 O142 2.105 . S
Sc132 O145 2.105 . S
Sc132 O148 2.105 . S
Sc132 O151 2.105 . S
Sc133 O135 2.025 . S
Sc133 O143 2.105 . S
Sc133 O147 2.105 . S
Sc133 O149 2.105 . S
Sc133 O153 2.105 . S
Sc134 O135 2.025 . S
Sc134 O144 2.105 . S
Sc134 O146 2.105 . S
Sc134 O150 2.105 . S
Sc134 O152 2.105 . S
O135 Sc132 2.025 . S
O135 Sc133 2.025 . S
O135 Sc134 2.025 . S
C136 O142 1.268 . S
C136 O152 1.268 . S
C137 O143 1.268 . S
C137 O151 1.268 . S
C138 O144 1.268 . S
C138 O153 1.268 . S
C139 O145 1.268 . S
C139 O149 1.268 . S
C140 O146 1.268 . S
C140 O148 1.268 . S
C141 O147 1.268 . S
C141 O150 1.268 . S
O142 Sc132 2.105 . S
O142 C136 1.268 . S
O143 Sc133 2.105 . S
O143 C137 1.268 . S
O144 Sc134 2.105 . S
O144 C138 1.268 . S
O145 Sc132 2.105 . S
O145 C139 1.268 . S
O146 Sc134 2.105 . S
O146 C140 1.268 . S
O147 Sc133 2.105 . S
O147 C141 1.268 . S
O148 Sc132 2.105 . S
O148 C140 1.268 . S
O149 Sc133 2.105 . S
O149 C139 1.268 . S
O150 Sc134 2.105 . S
O150 C141 1.268 . S
O151 Sc132 2.105 . S
O151 C137 1.268 . S
O152 Sc134 2.105 . S
O152 C136 1.268 . S
O153 Sc133 2.105 . S
O153 C138 1.268 . S
Sc154 O157 2.025 . S
Sc154 O164 2.105 . S
Sc154 O167 2.105 . S
Sc154 O170 2.105 . S
Sc154 O173 2.105 . S
Sc155 O157 2.025 . S
Sc155 O165 2.105 . S
Sc155 O169 2.105 . S
Sc155 O171 2.105 . S
Sc155 O175 2.105 . S
Sc156 O157 2.025 1_554 S
Sc156 O166 2.105 . S
Sc156 O168 2.105 1_554 S
Sc156 O172 2.105 1_554 S
Sc156 O174 2.105 . S
O157 Sc154 2.025 . S
O157 Sc155 2.025 . S
O157 Sc156 2.025 1_556 S
C158 O164 1.268 1_554 S
C158 O174 1.268 . S
C159 O165 1.268 . S
C159 O173 1.268 . S
C160 O166 1.268 . S
C160 O175 1.268 1_554 S
C161 O167 1.268 . S
C161 O171 1.268 . S
C162 O168 1.268 . S
C162 O170 1.268 . S
C163 O169 1.268 . S
C163 O172 1.268 . S
O164 Sc154 2.105 . S
O164 C158 1.268 1_556 S
O165 Sc155 2.105 . S
O165 C159 1.268 . S
O166 Sc156 2.105 . S
O166 C160 1.268 . S
O167 Sc154 2.105 . S
O167 C161 1.268 . S
O168 Sc156 2.105 1_556 S
O168 C162 1.268 . S
O169 Sc155 2.105 . S
O169 C163 1.268 . S
O170 Sc154 2.105 . S
O170 C162 1.268 . S
O171 Sc155 2.105 . S
O171 C161 1.268 . S
O172 Sc156 2.105 1_556 S
O172 C163 1.268 . S
O173 Sc154 2.105 . S
O173 C159 1.268 . S
O174 Sc156 2.105 . S
O174 C158 1.268 . S
O175 Sc155 2.105 . S
O175 C160 1.268 1_556 S
Sc176 O179 2.025 . S
Sc176 O186 2.105 . S
Sc176 O189 2.105 . S
Sc176 O192 2.105 . S
Sc176 O195 2.105 . S
Sc177 O179 2.025 . S
Sc177 O187 2.105 . S
Sc177 O191 2.105 . S
Sc177 O193 2.105 . S
Sc177 O197 2.105 . S
Sc178 O179 2.025 . S
Sc178 O188 2.105 . S
Sc178 O190 2.105 . S
Sc178 O194 2.105 . S
Sc178 O196 2.105 . S
O179 Sc176 2.025 . S
O179 Sc177 2.025 . S
O179 Sc178 2.025 . S
C180 O186 1.268 . S
C180 O196 1.268 . S
C181 O187 1.268 . S
C181 O195 1.268 . S
C182 O188 1.268 . S
C182 O197 1.268 . S
C183 O189 1.268 . S
C183 O193 1.268 . S
C184 O190 1.268 . S
C184 O192 1.268 . S
C185 O191 1.268 . S
C185 O194 1.268 . S
O186 Sc176 2.105 . S
O186 C180 1.268 . S
O187 Sc177 2.105 . S
O187 C181 1.268 . S
O188 Sc178 2.105 . S
O188 C182 1.268 . S
O189 Sc176 2.105 . S
O189 C183 1.268 . S
O190 Sc178 2.105 . S
O190 C184 1.268 . S
O191 Sc177 2.105 . S
O191 C185 1.268 . S
O192 Sc176 2.105 . S
O192 C184 1.268 . S
O193 Sc177 2.105 . S
O193 C183 1.268 . S
O194 Sc178 2.105 . S
O194 C185 1.268 . S
O195 Sc176 2.105 . S
O195 C181 1.268 . S
O196 Sc178 2.105 . S
O196 C180 1.268 . S
O197 Sc177 2.105 . S
O197 C182 1.268 . S
Sc198 O201 2.025 . S
Sc198 O208 2.105 . S
Sc198 O211 2.105 . S
Sc198 O214 2.105 . S
Sc198 O217 2.105 . S
Sc199 O201 2.025 . S
Sc199 O209 2.105 . S
Sc199 O213 2.105 . S
Sc199 O215 2.105 . S
Sc199 O219 2.105 . S
Sc200 O201 2.025 . S
Sc200 O210 2.105 . S
Sc200 O212 2.105 . S
Sc200 O216 2.105 . S
Sc200 O218 2.105 . S
O201 Sc198 2.025 . S
O201 Sc199 2.025 . S
O201 Sc200 2.025 . S
C202 O208 1.268 . S
C202 O218 1.268 . S
C203 O209 1.268 . S
C203 O217 1.268 . S
C204 O210 1.268 . S
C204 O219 1.268 . S
C205 O211 1.268 . S
C205 O215 1.268 . S
C206 O212 1.268 . S
C206 O214 1.268 . S
C207 O213 1.268 . S
C207 O216 1.268 . S
O208 Sc198 2.105 . S
O208 C202 1.268 . S
O209 Sc199 2.105 . S
O209 C203 1.268 . S
O210 Sc200 2.105 . S
O210 C204 1.268 . S
O211 Sc198 2.105 . S
O211 C205 1.268 . S
O212 Sc200 2.105 . S
O212 C206 1.268 . S
O213 Sc199 2.105 . S
O213 C207 1.268 . S
O214 Sc198 2.105 . S
O214 C206 1.268 . S
O215 Sc199 2.105 . S
O215 C205 1.268 . S
O216 Sc200 2.105 . S
O216 C207 1.268 . S
O217 Sc198 2.105 . S
O217 C203 1.268 . S
O218 Sc200 2.105 . S
O218 C202 1.268 . S
O219 Sc199 2.105 . S
O219 C204 1.268 . S
Sc220 O223 2.025 . S
Sc220 O230 2.105 . S
Sc220 O233 2.105 . S
Sc220 O236 2.105 . S
Sc220 O239 2.105 . S
Sc221 O223 2.025 . S
Sc221 O231 2.105 . S
Sc221 O235 2.105 . S
Sc221 O237 2.105 . S
Sc221 O241 2.105 . S
Sc222 O223 2.025 . S
Sc222 O232 2.105 . S
Sc222 O234 2.105 . S
Sc222 O238 2.105 . S
Sc222 O240 2.105 . S
O223 Sc220 2.025 . S
O223 Sc221 2.025 . S
O223 Sc222 2.025 . S
C224 O230 1.268 . S
C224 O240 1.268 . S
C225 O231 1.268 . S
C225 O239 1.268 . S
C226 O232 1.268 . S
C226 O241 1.268 . S
C227 O233 1.268 . S
C227 O237 1.268 . S
C228 O234 1.268 . S
C228 O236 1.268 . S
C229 O235 1.268 . S
C229 O238 1.268 . S
O230 Sc220 2.105 . S
O230 C224 1.268 . S
O231 Sc221 2.105 . S
O231 C225 1.268 . S
O232 Sc222 2.105 . S
O232 C226 1.268 . S
O233 Sc220 2.105 . S
O233 C227 1.268 . S
O234 Sc222 2.105 . S
O234 C228 1.268 . S
O235 Sc221 2.105 . S
O235 C229 1.268 . S
O236 Sc220 2.105 . S
O236 C228 1.268 . S
O237 Sc221 2.105 . S
O237 C227 1.268 . S
O238 Sc222 2.105 . S
O238 C229 1.268 . S
O239 Sc220 2.105 . S
O239 C225 1.268 . S
O240 Sc222 2.105 . S
O240 C224 1.268 . S
O241 Sc221 2.105 . S
O241 C226 1.268 . S
Sc242 O245 2.025 . S
Sc242 O252 2.105 . S
Sc242 O255 2.105 . S
Sc242 O258 2.105 . S
Sc242 O261 2.105 . S
Sc243 O245 2.025 . S
Sc243 O253 2.105 . S
Sc243 O257 2.105 . S
Sc243 O259 2.105 . S
Sc243 O263 2.105 . S
Sc244 O245 2.025 . S
Sc244 O254 2.105 . S
Sc244 O256 2.105 . S
Sc244 O260 2.105 . S
Sc244 O262 2.105 . S
O245 Sc242 2.025 . S
O245 Sc243 2.025 . S
O245 Sc244 2.025 . S
C246 O252 1.268 . S
C246 O262 1.268 . S
C247 O253 1.268 . S
C247 O261 1.268 . S
C248 O254 1.268 . S
C248 O263 1.268 . S
C249 O255 1.268 . S
C249 O259 1.268 . S
C250 O256 1.268 . S
C250 O258 1.268 . S
C251 O257 1.268 . S
C251 O260 1.268 . S
O252 Sc242 2.105 . S
O252 C246 1.268 . S
O253 Sc243 2.105 . S
O253 C247 1.268 . S
O254 Sc244 2.105 . S
O254 C248 1.268 . S
O255 Sc242 2.105 . S
O255 C249 1.268 . S
O256 Sc244 2.105 . S
O256 C250 1.268 . S
O257 Sc243 2.105 . S
O257 C251 1.268 . S
O258 Sc242 2.105 . S
O258 C250 1.268 . S
O259 Sc243 2.105 . S
O259 C249 1.268 . S
O260 Sc244 2.105 . S
O260 C251 1.268 . S
O261 Sc242 2.105 . S
O261 C247 1.268 . S
O262 Sc244 2.105 . S
O262 C246 1.268 . S
O263 Sc243 2.105 . S
O263 C248 1.268 . S
H264 C270 0.930 . S
H265 C273 0.930 . S
H266 C274 0.930 . S
H267 C275 0.930 . S
H268 C278 0.930 . S
H269 C279 0.930 . S
C270 H264 0.930 . S
C270 C271 1.355 . S
C270 C272 1.415 . S
C271 C270 1.355 . S
C271 C273 1.419 . S
C272 C270 1.415 . S
C272 C277 1.425 . S
C272 C279 1.409 . S
C273 H265 0.930 . S
C273 C271 1.419 . S
C273 C274 1.362 . S
C274 H266 0.930 . S
C274 C273 1.362 . S
C274 C277 1.409 . S
C275 H267 0.930 . S
C275 C276 1.355 . S
C275 C277 1.415 . S
C276 C275 1.355 . S
C276 C278 1.419 . S
C277 C272 1.425 . S
C277 C274 1.409 . S
C277 C275 1.415 . S
C278 H268 0.930 . S
C278 C276 1.419 . S
C278 C279 1.362 . S
C279 H269 0.930 . S
C279 C272 1.409 . S
C279 C278 1.362 . S
H280 C286 0.930 . S
H281 C289 0.930 . S
H282 C290 0.930 . S
H283 C291 0.930 . S
H284 C294 0.930 . S
H285 C295 0.930 . S
C286 H280 0.930 . S
C286 C287 1.355 . S
C286 C288 1.415 . S
C287 C286 1.355 . S
C287 C289 1.419 . S
C288 C286 1.415 . S
C288 C293 1.425 . S
C288 C295 1.409 . S
C289 H281 0.930 . S
C289 C287 1.419 . S
C289 C290 1.362 . S
C290 H282 0.930 . S
C290 C289 1.362 . S
C290 C293 1.409 . S
C291 H283 0.930 . S
C291 C292 1.355 . S
C291 C293 1.415 . S
C292 C291 1.355 . S
C292 C294 1.419 . S
C293 C288 1.425 . S
C293 C290 1.409 . S
C293 C291 1.415 . S
C294 H284 0.930 . S
C294 C292 1.419 . S
C294 C295 1.362 . S
C295 H285 0.930 . S
C295 C288 1.409 . S
C295 C294 1.362 . S
H296 C302 0.930 . S
H297 C305 0.930 . S
H298 C306 0.930 . S
H299 C307 0.930 . S
H300 C310 0.930 . S
H301 C311 0.930 . S
C302 H296 0.930 . S
C302 C303 1.355 . S
C302 C304 1.415 . S
C303 C302 1.355 . S
C303 C305 1.419 . S
C304 C302 1.415 . S
C304 C309 1.425 . S
C304 C311 1.409 . S
C305 H297 0.930 . S
C305 C303 1.419 . S
C305 C306 1.362 . S
C306 H298 0.930 . S
C306 C305 1.362 . S
C306 C309 1.409 . S
C307 H299 0.930 . S
C307 C308 1.355 . S
C307 C309 1.415 . S
C308 C307 1.355 . S
C308 C310 1.419 . S
C309 C304 1.425 . S
C309 C306 1.409 . S
C309 C307 1.415 . S
C310 H300 0.930 . S
C310 C308 1.419 . S
C310 C311 1.362 . S
C311 H301 0.930 . S
C311 C304 1.409 . S
C311 C310 1.362 . S
H312 C318 0.930 . S
H313 C321 0.930 . S
H314 C322 0.930 . S
H315 C323 0.930 . S
H316 C326 0.930 . S
H317 C327 0.930 . S
C318 H312 0.930 . S
C318 C319 1.355 . S
C318 C320 1.415 . S
C319 C318 1.355 . S
C319 C321 1.419 . S
C320 C318 1.415 . S
C320 C325 1.425 . S
C320 C327 1.409 . S
C321 H313 0.930 . S
C321 C319 1.419 . S
C321 C322 1.362 . S
C322 H314 0.930 . S
C322 C321 1.362 . S
C322 C325 1.409 . S
C323 H315 0.930 . S
C323 C324 1.355 . S
C323 C325 1.415 . S
C324 C323 1.355 . S
C324 C326 1.419 . S
C325 C320 1.425 . S
C325 C322 1.409 . S
C325 C323 1.415 . S
C326 H316 0.930 . S
C326 C324 1.419 . S
C326 C327 1.362 . S
C327 H317 0.930 . S
C327 C320 1.409 . S
C327 C326 1.362 . S
H328 C334 0.930 . S
H329 C337 0.930 . S
H330 C338 0.930 . S
H331 C339 0.930 . S
H332 C342 0.930 . S
H333 C343 0.930 . S
C334 H328 0.930 . S
C334 C335 1.355 . S
C334 C336 1.415 . S
C335 C334 1.355 . S
C335 C337 1.419 . S
C336 C334 1.415 . S
C336 C341 1.425 . S
C336 C343 1.409 . S
C337 H329 0.930 . S
C337 C335 1.419 . S
C337 C338 1.362 . S
C338 H330 0.930 . S
C338 C337 1.362 . S
C338 C341 1.409 . S
C339 H331 0.930 . S
C339 C340 1.355 . S
C339 C341 1.415 . S
C340 C339 1.355 . S
C340 C342 1.419 . S
C341 C336 1.425 . S
C341 C338 1.409 . S
C341 C339 1.415 . S
C342 H332 0.930 . S
C342 C340 1.419 . S
C342 C343 1.362 . S
C343 H333 0.930 . S
C343 C336 1.409 . S
C343 C342 1.362 . S
H344 C350 0.930 . S
H345 C353 0.930 . S
H346 C354 0.930 . S
H347 C355 0.930 . S
H348 C358 0.930 . S
H349 C359 0.930 . S
C350 H344 0.930 . S
C350 C351 1.355 . S
C350 C352 1.415 . S
C351 C350 1.355 . S
C351 C353 1.419 . S
C352 C350 1.415 . S
C352 C357 1.425 . S
C352 C359 1.409 . S
C353 H345 0.930 . S
C353 C351 1.419 . S
C353 C354 1.362 . S
C354 H346 0.930 . S
C354 C353 1.362 . S
C354 C357 1.409 . S
C355 H347 0.930 . S
C355 C356 1.355 . S
C355 C357 1.415 . S
C356 C355 1.355 . S
C356 C358 1.419 . S
C357 C352 1.425 . S
C357 C354 1.409 . S
C357 C355 1.415 . S
C358 H348 0.930 . S
C358 C356 1.419 . S
C358 C359 1.362 . S
C359 H349 0.930 . S
C359 C352 1.409 . S
C359 C358 1.362 . S
H360 C366 0.930 . S
H361 C369 0.930 . S
H362 C370 0.930 . S
H363 C371 0.930 . S
H364 C374 0.930 . S
H365 C375 0.930 . S
C366 H360 0.930 . S
C366 C367 1.355 . S
C366 C368 1.415 . S
C367 C366 1.355 . S
C367 C369 1.419 . S
C368 C366 1.415 . S
C368 C373 1.425 . S
C368 C375 1.409 . S
C369 H361 0.930 . S
C369 C367 1.419 . S
C369 C370 1.362 . S
C370 H362 0.930 . S
C370 C369 1.362 . S
C370 C373 1.409 . S
C371 H363 0.930 . S
C371 C372 1.355 . S
C371 C373 1.415 . S
C372 C371 1.355 . S
C372 C374 1.419 . S
C373 C368 1.425 . S
C373 C370 1.409 . S
C373 C371 1.415 . S
C374 H364 0.930 . S
C374 C372 1.419 . S
C374 C375 1.362 . S
C375 H365 0.930 . S
C375 C368 1.409 . S
C375 C374 1.362 . S
H376 C382 0.930 . S
H377 C385 0.930 . S
H378 C386 0.930 . S
H379 C387 0.930 . S
H380 C390 0.930 . S
H381 C391 0.930 . S
C382 H376 0.930 . S
C382 C383 1.355 . S
C382 C384 1.415 . S
C383 C382 1.355 . S
C383 C385 1.419 . S
C384 C382 1.415 . S
C384 C389 1.425 1_655 S
C384 C391 1.409 1_655 S
C385 H377 0.930 . S
C385 C383 1.419 . S
C385 C386 1.362 . S
C386 H378 0.930 . S
C386 C385 1.362 . S
C386 C389 1.409 1_655 S
C387 H379 0.930 . S
C387 C388 1.355 . S
C387 C389 1.415 . S
C388 C387 1.355 . S
C388 C390 1.419 . S
C389 C384 1.425 1_455 S
C389 C386 1.409 1_455 S
C389 C387 1.415 . S
C390 H380 0.930 . S
C390 C388 1.419 . S
C390 C391 1.362 . S
C391 H381 0.930 . S
C391 C384 1.409 1_455 S
C391 C390 1.362 . S
H392 C398 0.930 . S
H393 C401 0.930 . S
H394 C402 0.930 . S
H395 C403 0.930 . S
H396 C406 0.930 . S
H397 C407 0.930 . S
C398 H392 0.930 . S
C398 C399 1.355 . S
C398 C400 1.415 . S
C399 C398 1.355 . S
C399 C401 1.419 . S
C400 C398 1.415 . S
C400 C405 1.425 1_545 S
C400 C407 1.409 . S
C401 H393 0.930 . S
C401 C399 1.419 . S
C401 C402 1.362 1_545 S
C402 H394 0.930 . S
C402 C401 1.362 1_565 S
C402 C405 1.409 . S
C403 H395 0.930 . S
C403 C404 1.355 . S
C403 C405 1.415 . S
C404 C403 1.355 . S
C404 C406 1.419 . S
C405 C400 1.425 1_565 S
C405 C402 1.409 . S
C405 C403 1.415 . S
C406 H396 0.930 . S
C406 C404 1.419 . S
C406 C407 1.362 1_565 S
C407 H397 0.930 . S
C407 C400 1.409 . S
C407 C406 1.362 1_545 S
H408 C414 0.930 . S
H409 C417 0.930 . S
H410 C418 0.930 . S
H411 C419 0.930 . S
H412 C422 0.930 . S
H413 C423 0.930 . S
C414 H408 0.930 . S
C414 C415 1.355 . S
C414 C416 1.415 . S
C415 C414 1.355 . S
C415 C417 1.419 . S
C416 C414 1.415 . S
C416 C421 1.425 . S
C416 C423 1.409 . S
C417 H409 0.930 . S
C417 C415 1.419 . S
C417 C418 1.362 . S
C418 H410 0.930 . S
C418 C417 1.362 . S
C418 C421 1.409 . S
C419 H411 0.930 . S
C419 C420 1.355 . S
C419 C421 1.415 . S
C420 C419 1.355 . S
C420 C422 1.419 . S
C421 C416 1.425 . S
C421 C418 1.409 . S
C421 C419 1.415 . S
C422 H412 0.930 . S
C422 C420 1.419 . S
C422 C423 1.362 . S
C423 H413 0.930 . S
C423 C416 1.409 . S
C423 C422 1.362 . S
H424 C430 0.930 . S
H425 C433 0.930 . S
H426 C434 0.930 . S
H427 C435 0.930 . S
H428 C438 0.930 . S
H429 C439 0.930 . S
C430 H424 0.930 . S
C430 C431 1.355 . S
C430 C432 1.415 . S
C431 C430 1.355 . S
C431 C433 1.419 . S
C432 C430 1.415 . S
C432 C437 1.425 1_455 S
C432 C439 1.409 . S
C433 H425 0.930 . S
C433 C431 1.419 . S
C433 C434 1.362 1_455 S
C434 H426 0.930 . S
C434 C433 1.362 1_655 S
C434 C437 1.409 . S
C435 H427 0.930 . S
C435 C436 1.355 . S
C435 C437 1.415 . S
C436 C435 1.355 . S
C436 C438 1.419 . S
C437 C432 1.425 1_655 S
C437 C434 1.409 . S
C437 C435 1.415 . S
C438 H428 0.930 . S
C438 C436 1.419 . S
C438 C439 1.362 1_655 S
C439 H429 0.930 . S
C439 C432 1.409 . S
C439 C438 1.362 1_455 S
H440 C446 0.930 . S
H441 C449 0.930 . S
H442 C450 0.930 . S
H443 C451 0.930 . S
H444 C454 0.930 . S
H445 C455 0.930 . S
C446 H440 0.930 . S
C446 C447 1.355 . S
C446 C448 1.415 1_545 S
C447 C446 1.355 . S
C447 C449 1.419 . S
C448 C446 1.415 1_565 S
C448 C453 1.425 1_566 S
C448 C455 1.409 . S
C449 H441 0.930 . S
C449 C447 1.419 . S
C449 C450 1.362 1_556 S
C450 H442 0.930 . S
C450 C449 1.362 1_554 S
C450 C453 1.409 . S
C451 H443 0.930 . S
C451 C452 1.355 . S
C451 C453 1.415 1_565 S
C452 C451 1.355 . S
C452 C454 1.419 . S
C453 C448 1.425 1_544 S
C453 C450 1.409 . S
C453 C451 1.415 1_545 S
C454 H444 0.930 . S
C454 C452 1.419 . S
C454 C455 1.362 1_554 S
C455 H445 0.930 . S
C455 C448 1.409 . S
C455 C454 1.362 1_556 S
H456 C462 0.930 . S
H457 C465 0.930 . S
H458 C466 0.930 . S
H459 C467 0.930 . S
H460 C470 0.930 . S
H461 C471 0.930 . S
C462 H456 0.930 . S
C462 C463 1.355 . S
C462 C464 1.415 . S
C463 C462 1.355 . S
C463 C465 1.419 . S
C464 C462 1.415 . S
C464 C469 1.425 . S
C464 C471 1.409 . S
C465 H457 0.930 . S
C465 C463 1.419 . S
C465 C466 1.362 . S
C466 H458 0.930 . S
C466 C465 1.362 . S
C466 C469 1.409 . S
C467 H459 0.930 . S
C467 C468 1.355 . S
C467 C469 1.415 . S
C468 C467 1.355 . S
C468 C470 1.419 . S
C469 C464 1.425 . S
C469 C466 1.409 . S
C469 C467 1.415 . S
C470 H460 0.930 . S
C470 C468 1.419 . S
C470 C471 1.362 . S
C471 H461 0.930 . S
C471 C464 1.409 . S
C471 C470 1.362 . S
H472 C478 0.930 . S
H473 C481 0.930 . S
H474 C482 0.930 . S
H475 C483 0.930 . S
H476 C486 0.930 . S
H477 C487 0.930 . S
C478 H472 0.930 . S
C478 C479 1.355 . S
C478 C480 1.415 . S
C479 C478 1.355 . S
C479 C481 1.419 . S
C480 C478 1.415 . S
C480 C485 1.425 . S
C480 C487 1.409 . S
C481 H473 0.930 . S
C481 C479 1.419 . S
C481 C482 1.362 . S
C482 H474 0.930 . S
C482 C481 1.362 . S
C482 C485 1.409 . S
C483 H475 0.930 . S
C483 C484 1.355 . S
C483 C485 1.415 . S
C484 C483 1.355 . S
C484 C486 1.419 . S
C485 C480 1.425 . S
C485 C482 1.409 . S
C485 C483 1.415 . S
C486 H476 0.930 . S
C486 C484 1.419 . S
C486 C487 1.362 . S
C487 H477 0.930 . S
C487 C480 1.409 . S
C487 C486 1.362 . S
H488 C494 0.930 . S
H489 C497 0.930 . S
H490 C498 0.930 . S
H491 C499 0.930 . S
H492 C502 0.930 . S
H493 C503 0.930 . S
C494 H488 0.930 . S
C494 C495 1.355 . S
C494 C496 1.415 . S
C495 C494 1.355 . S
C495 C497 1.419 . S
C496 C494 1.415 . S
C496 C501 1.425 . S
C496 C503 1.409 . S
C497 H489 0.930 . S
C497 C495 1.419 . S
C497 C498 1.362 . S
C498 H490 0.930 . S
C498 C497 1.362 . S
C498 C501 1.409 . S
C499 H491 0.930 . S
C499 C500 1.355 . S
C499 C501 1.415 . S
C500 C499 1.355 . S
C500 C502 1.419 . S
C501 C496 1.425 . S
C501 C498 1.409 . S
C501 C499 1.415 . S
C502 H492 0.930 . S
C502 C500 1.419 . S
C502 C503 1.362 . S
C503 H493 0.930 . S
C503 C496 1.409 . S
C503 C502 1.362 . S
H504 C510 0.930 . S
H505 C513 0.930 . S
H506 C514 0.930 . S
H507 C515 0.930 . S
H508 C518 0.930 . S
H509 C519 0.930 . S
C510 H504 0.930 . S
C510 C511 1.355 . S
C510 C512 1.415 . S
C511 C510 1.355 . S
C511 C513 1.419 . S
C512 C510 1.415 . S
C512 C517 1.425 . S
C512 C519 1.409 . S
C513 H505 0.930 . S
C513 C511 1.419 . S
C513 C514 1.362 . S
C514 H506 0.930 . S
C514 C513 1.362 . S
C514 C517 1.409 . S
C515 H507 0.930 . S
C515 C516 1.355 . S
C515 C517 1.415 . S
C516 C515 1.355 . S
C516 C518 1.419 . S
C517 C512 1.425 . S
C517 C514 1.409 . S
C517 C515 1.415 . S
C518 H508 0.930 . S
C518 C516 1.419 . S
C518 C519 1.362 . S
C519 H509 0.930 . S
C519 C512 1.409 . S
C519 C518 1.362 . S
H520 C526 0.930 . S
H521 C529 0.930 . S
H522 C530 0.930 . S
H523 C531 0.930 . S
H524 C534 0.930 . S
H525 C535 0.930 . S
C526 H520 0.930 . S
C526 C527 1.355 . S
C526 C528 1.415 . S
C527 C526 1.355 . S
C527 C529 1.419 . S
C528 C526 1.415 . S
C528 C533 1.425 . S
C528 C535 1.409 . S
C529 H521 0.930 . S
C529 C527 1.419 . S
C529 C530 1.362 . S
C530 H522 0.930 . S
C530 C529 1.362 . S
C530 C533 1.409 . S
C531 H523 0.930 . S
C531 C532 1.355 . S
C531 C533 1.415 . S
C532 C531 1.355 . S
C532 C534 1.419 . S
C533 C528 1.425 . S
C533 C530 1.409 . S
C533 C531 1.415 . S
C534 H524 0.930 . S
C534 C532 1.419 . S
C534 C535 1.362 . S
C535 H525 0.930 . S
C535 C528 1.409 . S
C535 C534 1.362 . S
H536 C542 0.930 . S
H537 C545 0.930 . S
H538 C546 0.930 . S
H539 C547 0.930 . S
H540 C550 0.930 . S
H541 C551 0.930 . S
C542 H536 0.930 . S
C542 C543 1.355 . S
C542 C544 1.415 . S
C543 C542 1.355 . S
C543 C545 1.419 . S
C544 C542 1.415 . S
C544 C549 1.425 . S
C544 C551 1.409 . S
C545 H537 0.930 . S
C545 C543 1.419 . S
C545 C546 1.362 . S
C546 H538 0.930 . S
C546 C545 1.362 . S
C546 C549 1.409 . S
C547 H539 0.930 . S
C547 C548 1.355 . S
C547 C549 1.415 . S
C548 C547 1.355 . S
C548 C550 1.419 . S
C549 C544 1.425 . S
C549 C546 1.409 . S
C549 C547 1.415 . S
C550 H540 0.930 . S
C550 C548 1.419 . S
C550 C551 1.362 . S
C551 H541 0.930 . S
C551 C544 1.409 . S
C551 C550 1.362 . S
H552 C558 0.930 . S
H553 C561 0.930 1_554 S
H554 C562 0.930 . S
H555 C563 0.930 . S
H556 C566 0.930 . S
H557 C567 0.930 . S
C558 H552 0.930 . S
C558 C559 1.355 . S
C558 C560 1.415 . S
C559 C558 1.355 . S
C559 C561 1.419 . S
C560 C558 1.415 . S
C560 C565 1.425 . S
C560 C567 1.409 . S
C561 H553 0.930 1_556 S
C561 C559 1.419 . S
C561 C562 1.362 . S
C562 H554 0.930 . S
C562 C561 1.362 . S
C562 C565 1.409 . S
C563 H555 0.930 . S
C563 C564 1.355 . S
C563 C565 1.415 . S
C564 C563 1.355 . S
C564 C566 1.419 . S
C565 C560 1.425 . S
C565 C562 1.409 . S
C565 C563 1.415 . S
C566 H556 0.930 . S
C566 C564 1.419 . S
C566 C567 1.362 . S
C567 H557 0.930 . S
C567 C560 1.409 . S
C567 C566 1.362 . S
H568 C574 0.930 . S
H569 C577 0.930 . S
H570 C578 0.930 1_455 S
H571 C579 0.930 . S
H572 C582 0.930 . S
H573 C583 0.930 . S
C574 H568 0.930 . S
C574 C575 1.355 . S
C574 C576 1.415 . S
C575 C574 1.355 . S
C575 C577 1.419 . S
C576 C574 1.415 . S
C576 C581 1.425 1_655 S
C576 C583 1.409 1_655 S
C577 H569 0.930 . S
C577 C575 1.419 . S
C577 C578 1.362 . S
C578 H570 0.930 1_655 S
C578 C577 1.362 . S
C578 C581 1.409 1_655 S
C579 H571 0.930 . S
C579 C580 1.355 . S
C579 C581 1.415 . S
C580 C579 1.355 . S
C580 C582 1.419 . S
C581 C576 1.425 1_455 S
C581 C578 1.409 1_455 S
C581 C579 1.415 . S
C582 H572 0.930 . S
C582 C580 1.419 . S
C582 C583 1.362 . S
C583 H573 0.930 . S
C583 C576 1.409 1_455 S
C583 C582 1.362 . S
H584 C590 0.930 . S
H585 C593 0.930 . S
H586 C594 0.930 . S
H587 C595 0.930 . S
H588 C598 0.930 . S
H589 C599 0.930 1_565 S
C590 H584 0.930 . S
C590 C591 1.355 . S
C590 C592 1.415 . S
C591 C590 1.355 . S
C591 C593 1.419 . S
C592 C590 1.415 . S
C592 C597 1.425 1_565 S
C592 C599 1.409 1_565 S
C593 H585 0.930 . S
C593 C591 1.419 . S
C593 C594 1.362 1_565 S
C594 H586 0.930 . S
C594 C593 1.362 1_545 S
C594 C597 1.409 . S
C595 H587 0.930 . S
C595 C596 1.355 . S
C595 C597 1.415 . S
C596 C595 1.355 . S
C596 C598 1.419 . S
C597 C592 1.425 1_545 S
C597 C594 1.409 . S
C597 C595 1.415 . S
C598 H588 0.930 . S
C598 C596 1.419 . S
C598 C599 1.362 . S
C599 H589 0.930 1_545 S
C599 C592 1.409 1_545 S
C599 C598 1.362 . S
H600 C606 0.930 . S
H601 C609 0.930 . S
H602 C610 0.930 . S
H603 C611 0.930 . S
H604 C614 0.930 . S
H605 C615 0.930 . S
C606 H600 0.930 . S
C606 C607 1.355 . S
C606 C608 1.415 . S
C607 C606 1.355 . S
C607 C609 1.419 . S
C608 C606 1.415 . S
C608 C613 1.425 . S
C608 C615 1.409 . S
C609 H601 0.930 . S
C609 C607 1.419 . S
C609 C610 1.362 . S
C610 H602 0.930 . S
C610 C609 1.362 . S
C610 C613 1.409 . S
C611 H603 0.930 . S
C611 C612 1.355 . S
C611 C613 1.415 . S
C612 C611 1.355 . S
C612 C614 1.419 . S
C613 C608 1.425 . S
C613 C610 1.409 . S
C613 C611 1.415 . S
C614 H604 0.930 . S
C614 C612 1.419 . S
C614 C615 1.362 . S
C615 H605 0.930 . S
C615 C608 1.409 . S
C615 C614 1.362 . S
H616 C622 0.930 . S
H617 C625 0.930 . S
H618 C626 0.930 . S
H619 C627 0.930 . S
H620 C630 0.930 . S
H621 C631 0.930 1_455 S
C622 H616 0.930 . S
C622 C623 1.355 . S
C622 C624 1.415 . S
C623 C622 1.355 . S
C623 C625 1.419 . S
C624 C622 1.415 . S
C624 C629 1.425 1_455 S
C624 C631 1.409 1_455 S
C625 H617 0.930 . S
C625 C623 1.419 . S
C625 C626 1.362 1_455 S
C626 H618 0.930 . S
C626 C625 1.362 1_655 S
C626 C629 1.409 . S
C627 H619 0.930 . S
C627 C628 1.355 . S
C627 C629 1.415 . S
C628 C627 1.355 . S
C628 C630 1.419 . S
C629 C624 1.425 1_655 S
C629 C626 1.409 . S
C629 C627 1.415 . S
C630 H620 0.930 . S
C630 C628 1.419 . S
C630 C631 1.362 . S
C631 H621 0.930 1_655 S
C631 C624 1.409 1_655 S
C631 C630 1.362 . S
H632 C638 0.930 . S
H633 C641 0.930 . S
H634 C642 0.930 . S
H635 C643 0.930 . S
H636 C646 0.930 . S
H637 C647 0.930 . S
C638 H632 0.930 . S
C638 C639 1.355 . S
C638 C640 1.415 1_545 S
C639 C638 1.355 . S
C639 C641 1.419 . S
C640 C638 1.415 1_565 S
C640 C645 1.425 . S
C640 C647 1.409 . S
C641 H633 0.930 . S
C641 C639 1.419 . S
C641 C642 1.362 . S
C642 H634 0.930 . S
C642 C641 1.362 . S
C642 C645 1.409 1_545 S
C643 H635 0.930 . S
C643 C644 1.355 . S
C643 C645 1.415 . S
C644 C643 1.355 . S
C644 C646 1.419 . S
C645 C640 1.425 . S
C645 C642 1.409 1_565 S
C645 C643 1.415 . S
C646 H636 0.930 . S
C646 C644 1.419 . S
C646 C647 1.362 . S
C647 H637 0.930 . S
C647 C640 1.409 . S
C647 C646 1.362 . S
H648 C654 0.930 . S
H649 C657 0.930 . S
H650 C658 0.930 . S
H651 C659 0.930 . S
H652 C662 0.930 . S
H653 C663 0.930 . S
C654 H648 0.930 . S
C654 C655 1.355 . S
C654 C656 1.415 . S
C655 C654 1.355 . S
C655 C657 1.419 . S
C656 C654 1.415 . S
C656 C661 1.425 . S
C656 C663 1.409 . S
C657 H649 0.930 . S
C657 C655 1.419 . S
C657 C658 1.362 . S
C658 H650 0.930 . S
C658 C657 1.362 . S
C658 C661 1.409 . S
C659 H651 0.930 . S
C659 C660 1.355 . S
C659 C661 1.415 . S
C660 C659 1.355 . S
C660 C662 1.419 . S
C661 C656 1.425 . S
C661 C658 1.409 . S
C661 C659 1.415 . S
C662 H652 0.930 . S
C662 C660 1.419 . S
C662 C663 1.362 . S
C663 H653 0.930 . S
C663 C656 1.409 . S
C663 C662 1.362 . S
H664 C670 0.930 . S
H665 C673 0.930 . S
H666 C674 0.930 . S
H667 C675 0.930 . S
H668 C678 0.930 . S
H669 C679 0.930 . S
C670 H664 0.930 . S
C670 C671 1.355 . S
C670 C672 1.415 . S
C671 C670 1.355 . S
C671 C673 1.419 . S
C672 C670 1.415 . S
C672 C677 1.431 . S
C672 C679 1.409 1_455 S
C673 H665 0.930 . S
C673 C671 1.419 . S
C673 C674 1.362 . S
C674 H666 0.930 . S
C674 C673 1.362 . S
C674 C677 1.411 . S
C675 H667 0.930 . S
C675 C676 1.355 . S
C675 C677 1.408 1_655 S
C676 C675 1.355 . S
C676 C678 1.419 . S
C677 C672 1.431 . S
C677 C674 1.411 . S
C677 C675 1.408 1_455 S
C678 H668 0.930 . S
C678 C676 1.419 . S
C678 C679 1.362 . S
C679 H669 0.930 . S
C679 C672 1.409 1_655 S
C679 C678 1.362 . S
H680 C686 0.930 . S
H681 C689 0.930 . S
H682 C690 0.930 1_565 S
H683 C691 0.930 . S
H684 C694 0.930 . S
H685 C695 0.930 . S
C686 H680 0.930 . S
C686 C687 1.355 . S
C686 C688 1.415 . S
C687 C686 1.355 . S
C687 C689 1.419 . S
C688 C686 1.415 . S
C688 C693 1.425 1_545 S
C688 C695 1.409 . S
C689 H681 0.930 . S
C689 C687 1.419 . S
C689 C690 1.362 . S
C690 H682 0.930 1_545 S
C690 C689 1.362 . S
C690 C693 1.409 1_545 S
C691 H683 0.930 . S
C691 C692 1.355 . S
C691 C693 1.415 . S
C692 C691 1.355 . S
C692 C694 1.419 . S
C693 C688 1.425 1_565 S
C693 C690 1.409 1_565 S
C693 C691 1.415 . S
C694 H684 0.930 . S
C694 C692 1.419 . S
C694 C695 1.362 1_565 S
C695 H685 0.930 . S
C695 C688 1.409 . S
C695 C694 1.362 1_545 S
H696 C702 0.930 . S
H697 C705 0.930 . S
H698 C706 0.930 . S
H699 C707 0.930 . S
H700 C710 0.930 . S
H701 C711 0.930 . S
C702 H696 0.930 . S
C702 C703 1.355 . S
C702 C704 1.415 . S
C703 C702 1.355 . S
C703 C705 1.419 . S
C704 C702 1.415 . S
C704 C709 1.425 . S
C704 C711 1.409 . S
C705 H697 0.930 . S
C705 C703 1.419 . S
C705 C706 1.362 . S
C706 H698 0.930 . S
C706 C705 1.362 . S
C706 C709 1.409 . S
C707 H699 0.930 . S
C707 C708 1.355 . S
C707 C709 1.415 . S
C708 C707 1.355 . S
C708 C710 1.419 . S
C709 C704 1.425 . S
C709 C706 1.409 . S
C709 C707 1.415 . S
C710 H700 0.930 . S
C710 C708 1.419 . S
C710 C711 1.362 . S
C711 H701 0.930 . S
C711 C704 1.409 . S
C711 C710 1.362 . S
H712 C718 0.930 . S
H713 C721 0.930 . S
H714 C722 0.930 . S
H715 C723 0.930 . S
H716 C726 0.930 . S
H717 C727 0.930 . S
C718 H712 0.930 . S
C718 C719 1.355 . S
C718 C720 1.415 1_455 S
C719 C718 1.355 . S
C719 C721 1.419 . S
C720 C718 1.415 1_655 S
C720 C725 1.425 . S
C720 C727 1.409 . S
C721 H713 0.930 . S
C721 C719 1.419 . S
C721 C722 1.362 . S
C722 H714 0.930 . S
C722 C721 1.362 . S
C722 C725 1.409 1_455 S
C723 H715 0.930 . S
C723 C724 1.355 . S
C723 C725 1.415 . S
C724 C723 1.355 . S
C724 C726 1.419 . S
C725 C720 1.425 . S
C725 C722 1.409 1_655 S
C725 C723 1.415 . S
C726 H716 0.930 . S
C726 C724 1.419 . S
C726 C727 1.362 . S
C727 H717 0.930 . S
C727 C720 1.409 . S
C727 C726 1.362 . S
H728 C734 0.930 . S
H729 C737 0.930 . S
H730 C738 0.930 . S
H731 C739 0.930 . S
H732 C742 0.930 . S
H733 C743 0.930 1_545 S
C734 H728 0.930 . S
C734 C735 1.355 . S
C734 C736 1.415 . S
C735 C734 1.355 . S
C735 C737 1.419 . S
C736 C734 1.415 . S
C736 C741 1.425 1_545 S
C736 C743 1.409 1_545 S
C737 H729 0.930 . S
C737 C735 1.419 . S
C737 C738 1.362 1_545 S
C738 H730 0.930 . S
C738 C737 1.362 1_565 S
C738 C741 1.409 . S
C739 H731 0.930 . S
C739 C740 1.355 . S
C739 C741 1.415 . S
C740 C739 1.355 . S
C740 C742 1.419 . S
C741 C736 1.425 1_565 S
C741 C738 1.409 . S
C741 C739 1.415 . S
C742 H732 0.930 . S
C742 C740 1.419 . S
C742 C743 1.362 . S
C743 H733 0.930 1_565 S
C743 C736 1.409 1_565 S
C743 C742 1.362 . S
H744 C750 0.930 . S
H745 C753 0.930 . S
H746 C754 0.930 . S
H747 C755 0.930 . S
H748 C758 0.930 . S
H749 C759 0.930 . S
C750 H744 0.930 . S
C750 C751 1.355 . S
C750 C752 1.415 . S
C751 C750 1.355 . S
C751 C753 1.419 . S
C752 C750 1.415 . S
C752 C757 1.425 . S
C752 C759 1.409 . S
C753 H745 0.930 . S
C753 C751 1.419 . S
C753 C754 1.362 . S
C754 H746 0.930 . S
C754 C753 1.362 . S
C754 C757 1.409 . S
C755 H747 0.930 . S
C755 C756 1.355 . S
C755 C757 1.415 . S
C756 C755 1.355 . S
C756 C758 1.419 . S
C757 C752 1.425 . S
C757 C754 1.409 . S
C757 C755 1.415 . S
C758 H748 0.930 . S
C758 C756 1.419 . S
C758 C759 1.362 . S
C759 H749 0.930 . S
C759 C752 1.409 . S
C759 C758 1.362 . S
H760 C766 0.930 . S
H761 C769 0.930 . S
H762 C770 0.930 . S
H763 C771 0.930 . S
H764 C774 0.930 . S
H765 C775 0.930 . S
C766 H760 0.930 . S
C766 C767 1.355 . S
C766 C768 1.415 . S
C767 C766 1.355 . S
C767 C769 1.419 . S
C768 C766 1.415 . S
C768 C773 1.425 . S
C768 C775 1.409 . S
C769 H761 0.930 . S
C769 C767 1.419 . S
C769 C770 1.362 . S
C770 H762 0.930 . S
C770 C769 1.362 . S
C770 C773 1.409 . S
C771 H763 0.930 . S
C771 C772 1.355 . S
C771 C773 1.415 . S
C772 C771 1.355 . S
C772 C774 1.419 . S
C773 C768 1.425 . S
C773 C770 1.409 . S
C773 C771 1.415 . S
C774 H764 0.930 . S
C774 C772 1.419 . S
C774 C775 1.362 . S
C775 H765 0.930 . S
C775 C768 1.409 . S
C775 C774 1.362 . S
H776 C782 0.930 . S
H777 C785 0.930 . S
H778 C786 0.930 . S
H779 C787 0.930 . S
H780 C790 0.930 . S
H781 C791 0.930 . S
C782 H776 0.930 . S
C782 C783 1.355 . S
C782 C784 1.415 . S
C783 C782 1.355 . S
C783 C785 1.419 . S
C784 C782 1.415 . S
C784 C789 1.425 . S
C784 C791 1.409 . S
C785 H777 0.930 . S
C785 C783 1.419 . S
C785 C786 1.362 . S
C786 H778 0.930 . S
C786 C785 1.362 . S
C786 C789 1.409 . S
C787 H779 0.930 . S
C787 C788 1.355 . S
C787 C789 1.415 . S
C788 C787 1.355 . S
C788 C790 1.419 . S
C789 C784 1.425 . S
C789 C786 1.409 . S
C789 C787 1.415 . S
C790 H780 0.930 . S
C790 C788 1.419 . S
C790 C791 1.362 . S
C791 H781 0.930 . S
C791 C784 1.409 . S
C791 C790 1.362 . S
H792 C798 0.930 . S
H793 C801 0.930 . S
H794 C802 0.930 . S
H795 C803 0.930 . S
H796 C806 0.930 . S
H797 C807 0.930 . S
C798 H792 0.930 . S
C798 C799 1.355 . S
C798 C800 1.415 . S
C799 C798 1.355 . S
C799 C801 1.419 . S
C800 C798 1.415 . S
C800 C805 1.425 . S
C800 C807 1.409 . S
C801 H793 0.930 . S
C801 C799 1.419 . S
C801 C802 1.362 . S
C802 H794 0.930 . S
C802 C801 1.362 . S
C802 C805 1.409 . S
C803 H795 0.930 . S
C803 C804 1.355 . S
C803 C805 1.415 . S
C804 C803 1.355 . S
C804 C806 1.419 . S
C805 C800 1.425 . S
C805 C802 1.409 . S
C805 C803 1.415 . S
C806 H796 0.930 . S
C806 C804 1.419 . S
C806 C807 1.362 . S
C807 H797 0.930 . S
C807 C800 1.409 . S
C807 C806 1.362 . S
H808 C814 0.930 . S
H809 C817 0.930 . S
H810 C818 0.930 . S
H811 C819 0.930 . S
H812 C822 0.930 1_554 S
H813 C823 0.930 . S
C814 H808 0.930 . S
C814 C815 1.355 . S
C814 C816 1.415 . S
C815 C814 1.355 . S
C815 C817 1.419 . S
C816 C814 1.415 . S
C816 C821 1.425 . S
C816 C823 1.409 . S
C817 H809 0.930 . S
C817 C815 1.419 . S
C817 C818 1.362 . S
C818 H810 0.930 . S
C818 C817 1.362 . S
C818 C821 1.409 . S
C819 H811 0.930 . S
C819 C820 1.355 . S
C819 C821 1.415 . S
C820 C819 1.355 . S
C820 C822 1.419 . S
C821 C816 1.425 . S
C821 C818 1.409 . S
C821 C819 1.415 . S
C822 H812 0.930 1_556 S
C822 C820 1.419 . S
C822 C823 1.362 . S
C823 H813 0.930 . S
C823 C816 1.409 . S
C823 C822 1.362 . S
H824 C830 0.930 . S
H825 C833 0.930 1_556 S
H826 C834 0.930 . S
H827 C835 0.930 . S
H828 C838 0.930 . S
H829 C839 0.930 . S
C830 H824 0.930 . S
C830 C831 1.355 . S
C830 C832 1.415 . S
C831 C830 1.355 . S
C831 C833 1.419 . S
C832 C830 1.415 . S
C832 C837 1.425 . S
C832 C839 1.409 . S
C833 H825 0.930 1_554 S
C833 C831 1.419 . S
C833 C834 1.362 . S
C834 H826 0.930 . S
C834 C833 1.362 . S
C834 C837 1.409 . S
C835 H827 0.930 . S
C835 C836 1.355 . S
C835 C837 1.415 . S
C836 C835 1.355 . S
C836 C838 1.419 . S
C837 C832 1.425 . S
C837 C834 1.409 . S
C837 C835 1.415 . S
C838 H828 0.930 . S
C838 C836 1.419 . S
C838 C839 1.362 . S
C839 H829 0.930 . S
C839 C832 1.409 . S
C839 C838 1.362 . S
C271 C5 1.490 . S
C276 C185 1.437 . S
C287 C207 1.477 . S
C292 C31 1.439 . S
C303 C229 1.486 . S
C308 C49 1.436 . S
C319 C75 1.442 . S
C324 C251 1.495 . S
C335 C141 1.470 . S
C340 C93 1.443 . S
C351 C163 1.438 . S
C356 C119 1.480 . S
C367 C9 1.058 . S
C372 C203 0.997 . S
C383 C27 1.011 . S
C388 C225 0.952 . S
C399 C247 1.058 . S
C404 C53 0.996 . S
C415 C137 0.953 . S
C420 C71 1.014 . S
C431 C97 1.058 . S
C436 C159 1.085 . S
C447 C115 0.957 . S
C452 C181 0.934 . S
C463 C138 1.358 . S
C468 C7 1.328 . S
C479 C160 1.371 . S
C484 C28 1.300 . S
C495 C182 1.297 . S
C500 C51 1.350 . S
C511 C72 1.368 . S
C516 C204 1.311 . S
C527 C95 1.331 . S
C532 C226 1.310 . S
C543 C116 1.305 . S
C548 C248 1.370 . S
C559 C8 1.712 . S
C564 C118 1.728 . S
C575 C26 1.749 . S
C580 C4 1.737 . S
C591 C52 1.743 . S
C596 C30 1.744 . S
C607 C48 1.711 . S
C612 C70 1.712 . S
C623 C96 1.743 . S
C628 C74 1.743 . S
C639 C114 1.717 . S
C644 C92 1.701 . S
C655 C162 1.699 . S
C660 C136 1.720 . S
C671 C184 1.700 . S
C676 C158 1.718 . S
C687 C206 1.734 . S
C692 C180 1.715 . S
C703 C202 1.749 . S
C708 C228 1.737 . S
C719 C224 1.740 . S
C724 C250 1.698 . S
C735 C246 1.742 . S
C740 C140 1.744 . S
C751 C227 0.585 . S
C756 C6 0.596 . S
C767 C249 0.718 . S
C772 C29 0.730 . S
C783 C139 0.718 . S
C788 C50 0.730 . S
C799 C161 0.689 . S
C804 C73 0.670 . S
C815 C94 0.720 . S
C820 C183 0.731 1_556 S
C831 C117 0.703 1_554 S
C836 C205 0.718 . S
