# Generated by pormake.
# Topology wlh, (5)-cn, num edge types: 1
# Building blocks:
#     Node 0, Type 0, BuildingBlock: XOMCOT_clean_sbu_0, # of connection points: 5
#     Node 1, Type 0, BuildingBlock: XOMCOT_clean_sbu_0, # of connection points: 5
#     Node 2, Type 0, BuildingBlock: XOMCOT_clean_sbu_0, # of connection points: 5
#     Node 3, Type 0, BuildingBlock: XOMCOT_clean_sbu_0, # of connection points: 5
#     Node 4, Type 0, BuildingBlock: XOMCOT_clean_sbu_0, # of connection points: 5
#     Node 5, Type 0, BuildingBlock: XOMCOT_clean_sbu_0, # of connection points: 5
#     Node 6, Type 0, BuildingBlock: XOMCOT_clean_sbu_0, # of connection points: 5
#     Node 7, Type 0, BuildingBlock: XOMCOT_clean_sbu_0, # of connection points: 5
#     Node 8, Type 0, BuildingBlock: XOMCOT_clean_sbu_0, # of connection points: 5
#     Node 9, Type 0, BuildingBlock: XOMCOT_clean_sbu_0, # of connection points: 5
#     Node 10, Type 0, BuildingBlock: XOMCOT_clean_sbu_0, # of connection points: 5
#     Node 11, Type 0, BuildingBlock: XOMCOT_clean_sbu_0, # of connection points: 5
#     Node 12, Type 0, BuildingBlock: XOMCOT_clean_sbu_0, # of connection points: 5
#     Node 13, Type 0, BuildingBlock: XOMCOT_clean_sbu_0, # of connection points: 5
#     Node 14, Type 0, BuildingBlock: XOMCOT_clean_sbu_0, # of connection points: 5
#     Node 15, Type 0, BuildingBlock: XOMCOT_clean_sbu_0, # of connection points: 5
#     Node 16, Type 0, BuildingBlock: XOMCOT_clean_sbu_0, # of connection points: 5
#     Node 17, Type 0, BuildingBlock: XOMCOT_clean_sbu_0, # of connection points: 5
#     Node 18, Type 0, BuildingBlock: XOMCOT_clean_sbu_0, # of connection points: 5
#     Node 19, Type 0, BuildingBlock: XOMCOT_clean_sbu_0, # of connection points: 5
#     Node 20, Type 0, BuildingBlock: XOMCOT_clean_sbu_0, # of connection points: 5
#     Node 21, Type 0, BuildingBlock: XOMCOT_clean_sbu_0, # of connection points: 5
#     Node 22, Type 0, BuildingBlock: XOMCOT_clean_sbu_0, # of connection points: 5
#     Node 23, Type 0, BuildingBlock: XOMCOT_clean_sbu_0, # of connection points: 5
#     Node 24, Type 0, BuildingBlock: XOMCOT_clean_sbu_0, # of connection points: 5
#     Node 25, Type 0, BuildingBlock: XOMCOT_clean_sbu_0, # of connection points: 5
#     Node 26, Type 0, BuildingBlock: XOMCOT_clean_sbu_0, # of connection points: 5
#     Node 27, Type 0, BuildingBlock: XOMCOT_clean_sbu_0, # of connection points: 5
#     Node 28, Type 0, BuildingBlock: XOMCOT_clean_sbu_0, # of connection points: 5
#     Node 29, Type 0, BuildingBlock: XOMCOT_clean_sbu_0, # of connection points: 5
#     Node 30, Type 0, BuildingBlock: XOMCOT_clean_sbu_0, # of connection points: 5
#     Node 31, Type 0, BuildingBlock: XOMCOT_clean_sbu_0, # of connection points: 5
#     Node 32, Type 0, BuildingBlock: XOMCOT_clean_sbu_0, # of connection points: 5
#     Node 33, Type 0, BuildingBlock: XOMCOT_clean_sbu_0, # of connection points: 5
#     Node 34, Type 0, BuildingBlock: XOMCOT_clean_sbu_0, # of connection points: 5
#     Node 35, Type 0, BuildingBlock: XOMCOT_clean_sbu_0, # of connection points: 5
#     Edge 36, Type (0, 0), BuildingBlock: AJUNOK_clean_linker_0, # of connection points: 2
#     Edge 37, Type (0, 0), BuildingBlock: AJUNOK_clean_linker_0, # of connection points: 2
#     Edge 38, Type (0, 0), BuildingBlock: AJUNOK_clean_linker_0, # of connection points: 2
#     Edge 39, Type (0, 0), BuildingBlock: AJUNOK_clean_linker_0, # of connection points: 2
#     Edge 40, Type (0, 0), BuildingBlock: AJUNOK_clean_linker_0, # of connection points: 2
#     Edge 41, Type (0, 0), BuildingBlock: AJUNOK_clean_linker_0, # of connection points: 2
#     Edge 42, Type (0, 0), BuildingBlock: AJUNOK_clean_linker_0, # of connection points: 2
#     Edge 43, Type (0, 0), BuildingBlock: AJUNOK_clean_linker_0, # of connection points: 2
#     Edge 44, Type (0, 0), BuildingBlock: AJUNOK_clean_linker_0, # of connection points: 2
#     Edge 45, Type (0, 0), BuildingBlock: AJUNOK_clean_linker_0, # of connection points: 2
#     Edge 46, Type (0, 0), BuildingBlock: AJUNOK_clean_linker_0, # of connection points: 2
#     Edge 47, Type (0, 0), BuildingBlock: AJUNOK_clean_linker_0, # of connection points: 2
#     Edge 48, Type (0, 0), BuildingBlock: AJUNOK_clean_linker_0, # of connection points: 2
#     Edge 49, Type (0, 0), BuildingBlock: AJUNOK_clean_linker_0, # of connection points: 2
#     Edge 50, Type (0, 0), BuildingBlock: AJUNOK_clean_linker_0, # of connection points: 2
#     Edge 51, Type (0, 0), BuildingBlock: AJUNOK_clean_linker_0, # of connection points: 2
#     Edge 52, Type (0, 0), BuildingBlock: AJUNOK_clean_linker_0, # of connection points: 2
#     Edge 53, Type (0, 0), BuildingBlock: AJUNOK_clean_linker_0, # of connection points: 2
#     Edge 54, Type (0, 0), BuildingBlock: AJUNOK_clean_linker_0, # of connection points: 2
#     Edge 55, Type (0, 0), BuildingBlock: AJUNOK_clean_linker_0, # of connection points: 2
#     Edge 56, Type (0, 0), BuildingBlock: AJUNOK_clean_linker_0, # of connection points: 2
#     Edge 57, Type (0, 0), BuildingBlock: AJUNOK_clean_linker_0, # of connection points: 2
#     Edge 58, Type (0, 0), BuildingBlock: AJUNOK_clean_linker_0, # of connection points: 2
#     Edge 59, Type (0, 0), BuildingBlock: AJUNOK_clean_linker_0, # of connection points: 2
#     Edge 60, Type (0, 0), BuildingBlock: AJUNOK_clean_linker_0, # of connection points: 2
#     Edge 61, Type (0, 0), BuildingBlock: AJUNOK_clean_linker_0, # of connection points: 2
#     Edge 62, Type (0, 0), BuildingBlock: AJUNOK_clean_linker_0, # of connection points: 2
#     Edge 63, Type (0, 0), BuildingBlock: AJUNOK_clean_linker_0, # of connection points: 2
#     Edge 64, Type (0, 0), BuildingBlock: AJUNOK_clean_linker_0, # of connection points: 2
#     Edge 65, Type (0, 0), BuildingBlock: AJUNOK_clean_linker_0, # of connection points: 2
#     Edge 66, Type (0, 0), BuildingBlock: AJUNOK_clean_linker_0, # of connection points: 2
#     Edge 67, Type (0, 0), BuildingBlock: AJUNOK_clean_linker_0, # of connection points: 2
#     Edge 68, Type (0, 0), BuildingBlock: AJUNOK_clean_linker_0, # of connection points: 2
#     Edge 69, Type (0, 0), BuildingBlock: AJUNOK_clean_linker_0, # of connection points: 2
#     Edge 70, Type (0, 0), BuildingBlock: AJUNOK_clean_linker_0, # of connection points: 2
#     Edge 71, Type (0, 0), BuildingBlock: AJUNOK_clean_linker_0, # of connection points: 2
#     Edge 72, Type (0, 0), BuildingBlock: AJUNOK_clean_linker_0, # of connection points: 2
#     Edge 73, Type (0, 0), BuildingBlock: AJUNOK_clean_linker_0, # of connection points: 2
#     Edge 74, Type (0, 0), BuildingBlock: AJUNOK_clean_linker_0, # of connection points: 2
#     Edge 75, Type (0, 0), BuildingBlock: AJUNOK_clean_linker_0, # of connection points: 2
#     Edge 76, Type (0, 0), BuildingBlock: AJUNOK_clean_linker_0, # of connection points: 2
#     Edge 77, Type (0, 0), BuildingBlock: AJUNOK_clean_linker_0, # of connection points: 2
#     Edge 78, Type (0, 0), BuildingBlock: AJUNOK_clean_linker_0, # of connection points: 2
#     Edge 79, Type (0, 0), BuildingBlock: AJUNOK_clean_linker_0, # of connection points: 2
#     Edge 80, Type (0, 0), BuildingBlock: AJUNOK_clean_linker_0, # of connection points: 2
#     Edge 81, Type (0, 0), BuildingBlock: AJUNOK_clean_linker_0, # of connection points: 2
#     Edge 82, Type (0, 0), BuildingBlock: AJUNOK_clean_linker_0, # of connection points: 2
#     Edge 83, Type (0, 0), BuildingBlock: AJUNOK_clean_linker_0, # of connection points: 2
#     Edge 84, Type (0, 0), BuildingBlock: AJUNOK_clean_linker_0, # of connection points: 2
#     Edge 85, Type (0, 0), BuildingBlock: AJUNOK_clean_linker_0, # of connection points: 2
#     Edge 86, Type (0, 0), BuildingBlock: AJUNOK_clean_linker_0, # of connection points: 2
#     Edge 87, Type (0, 0), BuildingBlock: AJUNOK_clean_linker_0, # of connection points: 2
#     Edge 88, Type (0, 0), BuildingBlock: AJUNOK_clean_linker_0, # of connection points: 2
#     Edge 89, Type (0, 0), BuildingBlock: AJUNOK_clean_linker_0, # of connection points: 2
#     Edge 90, Type (0, 0), BuildingBlock: AJUNOK_clean_linker_0, # of connection points: 2
#     Edge 91, Type (0, 0), BuildingBlock: AJUNOK_clean_linker_0, # of connection points: 2
#     Edge 92, Type (0, 0), BuildingBlock: AJUNOK_clean_linker_0, # of connection points: 2
#     Edge 93, Type (0, 0), BuildingBlock: AJUNOK_clean_linker_0, # of connection points: 2
#     Edge 94, Type (0, 0), BuildingBlock: AJUNOK_clean_linker_0, # of connection points: 2
#     Edge 95, Type (0, 0), BuildingBlock: AJUNOK_clean_linker_0, # of connection points: 2
#     Edge 96, Type (0, 0), BuildingBlock: AJUNOK_clean_linker_0, # of connection points: 2
#     Edge 97, Type (0, 0), BuildingBlock: AJUNOK_clean_linker_0, # of connection points: 2
#     Edge 98, Type (0, 0), BuildingBlock: AJUNOK_clean_linker_0, # of connection points: 2
#     Edge 99, Type (0, 0), BuildingBlock: AJUNOK_clean_linker_0, # of connection points: 2
#     Edge 100, Type (0, 0), BuildingBlock: AJUNOK_clean_linker_0, # of connection points: 2
#     Edge 101, Type (0, 0), BuildingBlock: AJUNOK_clean_linker_0, # of connection points: 2
#     Edge 102, Type (0, 0), BuildingBlock: AJUNOK_clean_linker_0, # of connection points: 2
#     Edge 103, Type (0, 0), BuildingBlock: AJUNOK_clean_linker_0, # of connection points: 2
#     Edge 104, Type (0, 0), BuildingBlock: AJUNOK_clean_linker_0, # of connection points: 2
#     Edge 105, Type (0, 0), BuildingBlock: AJUNOK_clean_linker_0, # of connection points: 2
#     Edge 106, Type (0, 0), BuildingBlock: AJUNOK_clean_linker_0, # of connection points: 2
#     Edge 107, Type (0, 0), BuildingBlock: AJUNOK_clean_linker_0, # of connection points: 2
#     Edge 108, Type (0, 0), BuildingBlock: AJUNOK_clean_linker_0, # of connection points: 2
#     Edge 109, Type (0, 0), BuildingBlock: AJUNOK_clean_linker_0, # of connection points: 2
#     Edge 110, Type (0, 0), BuildingBlock: AJUNOK_clean_linker_0, # of connection points: 2
#     Edge 111, Type (0, 0), BuildingBlock: AJUNOK_clean_linker_0, # of connection points: 2
#     Edge 112, Type (0, 0), BuildingBlock: AJUNOK_clean_linker_0, # of connection points: 2
#     Edge 113, Type (0, 0), BuildingBlock: AJUNOK_clean_linker_0, # of connection points: 2
#     Edge 114, Type (0, 0), BuildingBlock: AJUNOK_clean_linker_0, # of connection points: 2
#     Edge 115, Type (0, 0), BuildingBlock: AJUNOK_clean_linker_0, # of connection points: 2
#     Edge 116, Type (0, 0), BuildingBlock: AJUNOK_clean_linker_0, # of connection points: 2
#     Edge 117, Type (0, 0), BuildingBlock: AJUNOK_clean_linker_0, # of connection points: 2
#     Edge 118, Type (0, 0), BuildingBlock: AJUNOK_clean_linker_0, # of connection points: 2
#     Edge 119, Type (0, 0), BuildingBlock: AJUNOK_clean_linker_0, # of connection points: 2
#     Edge 120, Type (0, 0), BuildingBlock: AJUNOK_clean_linker_0, # of connection points: 2
#     Edge 121, Type (0, 0), BuildingBlock: AJUNOK_clean_linker_0, # of connection points: 2
#     Edge 122, Type (0, 0), BuildingBlock: AJUNOK_clean_linker_0, # of connection points: 2
#     Edge 123, Type (0, 0), BuildingBlock: AJUNOK_clean_linker_0, # of connection points: 2
#     Edge 124, Type (0, 0), BuildingBlock: AJUNOK_clean_linker_0, # of connection points: 2
#     Edge 125, Type (0, 0), BuildingBlock: AJUNOK_clean_linker_0, # of connection points: 2
# Relax obj value: 0.367
# Max RMSD: 0.247
# Mean RMSD: 0.247
data_MOF--net-wlh--node1-XOMCOT_clean_sbu_0--edge1-AJUNOK_clean_linker_0
_symmetry_space_group_name_H-M    P1
_symmetry_Int_Tables_number       1
_symmetry_cell_setting            triclinic
loop_
_symmetry_equiv_pos_as_xyz
'x, y, z'
_cell_length_a     30.339123
_cell_length_b     30.336462
_cell_length_c     116.62167
_cell_angle_alpha  90.006405
_cell_angle_beta   90.021801
_cell_angle_gamma 120.04289
loop_
_atom_site_label
_atom_site_type_symbol
_atom_site_fract_x
_atom_site_fract_y
_atom_site_fract_z
_atom_type_partial_charge
Co0 Co 0.0791 0.26101 0.19671 0.0
C1 C 0.04874 0.33745 0.18942 0.0
C2 C 0.9999 0.26256 0.18273 0.0
C3 C 0.98326 0.29405 0.17865 0.0
N4 N 0.03959 0.28891 0.18992 0.0
N5 N 0.01395 0.34093 0.18284 0.0
H6 H 0.08094 0.36991 0.19331 0.0
H7 H 0.98487 0.22327 0.18025 0.0
C8 C 0.97269 0.17888 0.20113 0.0
O9 O 0.96443 0.21458 0.20515 0.0
N10 N 0.1187 0.23266 0.20273 0.0
C11 C 0.15783 0.25487 0.21017 0.0
C12 C 0.18168 0.2264 0.21058 0.0
C13 C 0.1192 0.19134 0.19868 0.0
N14 N 0.15753 0.18685 0.20327 0.0
C15 C 0.07547 0.32001 0.21628 0.0
C16 C 0.03534 0.2385 0.23131 0.0
C17 C 0.04199 0.28507 0.23508 0.0
C18 C 0.06366 0.32674 0.22757 0.0
C19 C 0.04835 0.2337 0.22013 0.0
N20 N 0.06532 0.27318 0.21249 0.0
H21 H 0.0936 0.3526 0.21073 0.0
H22 H 0.04379 0.19745 0.21755 0.0
H23 H 0.16939 0.29033 0.21461 0.0
H24 H 0.09398 0.16686 0.19201 0.0
O25 O 0.14213 0.32387 0.1937 0.0
O26 O 0.10415 0.25909 0.18164 0.0
O27 O 0.01626 0.19055 0.19696 0.0
C28 C 0.14344 0.30337 0.18397 0.0
H29 H 0.95216 0.2839 0.17272 0.0
H30 H 0.21481 0.23469 0.21566 0.0
H31 H 0.0204 0.20595 0.23701 0.0
H32 H 0.07116 0.36389 0.23039 0.0
Co33 Co 0.73737 0.81866 0.19697 0.0
C34 C 0.66142 0.71195 0.18933 0.0
C35 C 0.73546 0.73982 0.182 0.0
C36 C 0.70391 0.69166 0.17785 0.0
N37 N 0.70976 0.75206 0.18962 0.0
N38 N 0.65751 0.67428 0.18245 0.0
H39 H 0.6293 0.71069 0.19362 0.0
H40 H 0.77433 0.76476 0.17933 0.0
C41 C 0.8235 0.79814 0.19971 0.0
O42 O 0.78964 0.75265 0.20343 0.0
N43 N 0.76468 0.88554 0.20368 0.0
C44 C 0.74082 0.90045 0.21112 0.0
C45 C 0.77082 0.95202 0.21289 0.0
C46 C 0.80853 0.92802 0.20095 0.0
N47 N 0.81375 0.96932 0.20659 0.0
C48 C 0.682 0.75317 0.21648 0.0
C49 C 0.76427 0.79734 0.23128 0.0
C50 C 0.71804 0.75764 0.23536 0.0
C51 C 0.67635 0.73542 0.22783 0.0
C52 C 0.76831 0.81352 0.21996 0.0
N53 N 0.72811 0.79055 0.21252 0.0
H54 H 0.64884 0.73806 0.2111 0.0
H55 H 0.80415 0.8454 0.21723 0.0
H56 H 0.70344 0.87581 0.21469 0.0
H57 H 0.83539 0.92877 0.19476 0.0
O58 O 0.67324 0.81702 0.19489 0.0
O59 O 0.73625 0.84758 0.18228 0.0
O60 O 0.8089 0.829 0.19636 0.0
C61 C 0.69181 0.84066 0.18521 0.0
H62 H 0.71372 0.67146 0.17164 0.0
H63 H 0.7604 0.97509 0.21801 0.0
H64 H 0.79725 0.81613 0.23683 0.0
H65 H 0.63942 0.70587 0.23079 0.0
Co66 Co 0.18504 0.92476 0.19511 0.0
C67 C 0.29177 0.95397 0.18737 0.0
C68 C 0.25522 0.985 0.17709 0.0
C69 C 0.30095 0.99768 0.1721 0.0
N70 N 0.24949 0.95847 0.18682 0.0
N71 N 0.3238 0.97828 0.17855 0.0
H72 H 0.29796 0.93098 0.19347 0.0
H73 H 0.22688 0.9929 0.17359 0.0
C74 C 0.21251 0.03331 0.19483 0.0
O75 O 0.25872 0.0437 0.19761 0.0
N76 N 0.11949 0.89053 0.20257 0.0
C77 C 0.10512 0.85748 0.21138 0.0
C78 C 0.05355 0.837 0.21307 0.0
C79 C 0.0768 0.88959 0.19897 0.0
N80 N 0.03589 0.85733 0.20528 0.0
C81 C 0.25175 0.93853 0.21465 0.0
C82 C 0.21717 0.99063 0.22787 0.0
C83 C 0.25624 0.98374 0.23226 0.0
C84 C 0.27277 0.95614 0.2256 0.0
C85 C 0.19796 0.97319 0.21694 0.0
N86 N 0.21677 0.94958 0.21017 0.0
H87 H 0.2623 0.91455 0.21002 0.0
H88 H 0.1667 0.97779 0.21404 0.0
H89 H 0.13008 0.84781 0.21598 0.0
H90 H 0.07537 0.91003 0.19151 0.0
O91 O 0.18391 0.86047 0.19439 0.0
O92 O 0.15242 0.88933 0.18114 0.0
O93 O 0.17779 0.98706 0.19313 0.0
C94 C 0.15898 0.85248 0.18479 0.0
H95 H 0.31581 0.01837 0.16415 0.0
H96 H 0.0306 0.80864 0.21941 0.0
H97 H 0.20038 0.00833 0.23295 0.0
H98 H 0.30122 0.94778 0.22885 0.0
Co99 Co 0.27128 0.08 0.31809 0.0
C100 C 0.34365 0.04791 0.32637 0.0
C101 C 0.26599 0.99344 0.33057 0.0
C102 C 0.29671 0.97559 0.33461 0.0
N103 N 0.29527 0.03848 0.32531 0.0
N104 N 0.34529 0.00984 0.33199 0.0
H105 H 0.37674 0.08149 0.32306 0.0
H106 H 0.22511 0.97477 0.3315 0.0
C107 C 0.16885 0.00677 0.30867 0.0
O108 O 0.18302 0.03374 0.29918 0.0
N109 N 0.24629 0.12214 0.3114 0.0
C110 C 0.27198 0.16643 0.30558 0.0
C111 C 0.24312 0.18995 0.30532 0.0
C112 C 0.20296 0.12045 0.31486 0.0
N113 N 0.19969 0.16074 0.31113 0.0
C114 C 0.32432 0.10096 0.29631 0.0
C115 C 0.27018 1.00243 0.2881 0.0
C116 C 0.30059 0.04156 0.2804 0.0
C117 C 0.33074 0.09086 0.2849 0.0
C118 C 0.26628 0.01409 0.29952 0.0
N119 N 0.28868 0.06357 0.30313 0.0
H120 H 0.34768 0.13894 0.29961 0.0
H121 H 0.24253 0.98332 0.30526 0.0
H122 H 0.31065 0.18336 0.30259 0.0
H123 H 0.17625 0.09235 0.32079 0.0
O124 O 0.33468 0.14133 0.32176 0.0
O125 O 0.26653 0.10579 0.33289 0.0
O126 O 0.19949 0.01907 0.31719 0.0
C127 C 0.31232 0.14362 0.33109 0.0
H128 H 0.28452 0.94047 0.33927 0.0
H129 H 0.25427 0.22683 0.30163 0.0
H130 H 0.24747 0.96333 0.28527 0.0
H131 H 0.35826 0.12172 0.27961 0.0
Co132 Co 0.93623 0.18733 0.32001 0.0
C133 C 0.96793 0.29468 0.32737 0.0
C134 C 0.99044 0.25451 0.33894 0.0
C135 C 1.00272 0.30039 0.34382 0.0
N136 N 0.96897 0.25077 0.32858 0.0
N137 N 0.98867 0.32552 0.33655 0.0
H138 H 0.95024 0.30322 0.32037 0.0
H139 H 0.99507 0.22478 0.34287 0.0
C140 C 0.04525 0.21361 0.32121 0.0
O141 O 0.05823 0.26155 0.31971 0.0
N142 N 0.90298 0.12271 0.31215 0.0
C143 C 0.87866 0.11119 0.302 0.0
C144 C 0.85847 0.05987 0.30002 0.0
C145 C 0.8965 0.07842 0.31631 0.0
N146 N 0.86906 0.03906 0.30912 0.0
C147 C 0.94239 0.25003 0.30055 0.0
C148 C 0.00654 0.22973 0.28762 0.0
C149 C 0.98889 0.26031 0.28289 0.0
C150 C 0.95596 0.27012 0.28942 0.0
C151 C 0.99118 0.20957 0.29857 0.0
N152 N 0.96134 0.22151 0.30519 0.0
H153 H 0.91452 0.25521 0.30517 0.0
H154 H 1.00109 0.1818 0.30137 0.0
H155 H 0.87584 0.13809 0.2964 0.0
H156 H 0.91089 0.07511 0.32456 0.0
O157 O 0.87158 0.18553 0.3208 0.0
O158 O 0.90023 0.15296 0.33382 0.0
O159 O 0.9982 0.17963 0.32201 0.0
C160 C 0.86349 0.15995 0.33029 0.0
H161 H 0.0197 0.31395 0.35218 0.0
H162 H 0.83869 0.04005 0.29231 0.0
H163 H 0.02986 0.21907 0.28261 0.0
H164 H 0.9399 0.29198 0.28586 0.0
Co165 Co 0.82127 0.7361 0.31794 0.0
C166 C 0.71772 0.65863 0.32633 0.0
C167 C 0.75553 0.72473 0.33716 0.0
C168 C 0.71006 0.69066 0.34219 0.0
N169 N 0.76047 0.70474 0.32727 0.0
N170 N 0.68635 0.64935 0.33539 0.0
H171 H 0.71043 0.63205 0.31942 0.0
H172 H 0.78384 0.76112 0.34063 0.0
C173 C 0.83598 0.83583 0.31075 0.0
O174 O 0.84418 0.82392 0.30046 0.0
N175 N 0.88509 0.77007 0.30927 0.0
C176 C 0.89838 0.7635 0.29863 0.0
C177 C 0.94825 0.80016 0.29665 0.0
C178 C 0.92785 0.81 0.31359 0.0
N179 N 0.96708 0.82977 0.30607 0.0
C180 C 0.78006 0.68655 0.29609 0.0
C181 C 0.72235 0.73229 0.29225 0.0
C182 C 0.73209 0.70881 0.283 0.0
C183 C 0.75877 0.68293 0.28522 0.0
C184 C 0.74492 0.73537 0.30288 0.0
N185 N 0.77834 0.71794 0.30423 0.0
H186 H 0.80132 0.66731 0.29768 0.0
H187 H 0.73821 0.75491 0.30982 0.0
H188 H 0.87463 0.73528 0.29245 0.0
H189 H 0.92953 0.82366 0.32221 0.0
O190 O 0.82775 0.67599 0.31933 0.0
O191 O 0.86109 0.74119 0.33135 0.0
O192 O 0.82441 0.80443 0.31909 0.0
C193 C 0.85579 0.69749 0.32834 0.0
H194 H 0.69553 0.69556 0.35028 0.0
H195 H 0.96852 0.80499 0.2887 0.0
H196 H 0.69981 0.75057 0.2911 0.0
H197 H 0.76627 0.66309 0.27846 0.0
Co198 Co 0.92797 0.74522 0.81924 0.0
C199 C 0.95733 0.66837 0.82659 0.0
C200 C 0.00584 0.74272 0.83356 0.0
C201 C 0.01944 0.70986 0.83832 0.0
N202 N 0.96793 0.7174 0.82589 0.0
N203 N 0.98909 0.6634 0.8339 0.0
H204 H 0.92506 0.63637 0.82258 0.0
H205 H 0.02074 0.7819 0.83611 0.0
C206 C 0.03337 0.83015 0.81547 0.0
O207 O 0.04305 0.79553 0.81136 0.0
N208 N 0.8875 0.77331 0.81354 0.0
C209 C 0.84948 0.75287 0.8058 0.0
C210 C 0.82503 0.78088 0.80581 0.0
C211 C 0.88534 0.8127 0.81826 0.0
N212 N 0.8477 0.81846 0.81366 0.0
C213 C 0.94062 0.69296 0.7994 0.0
C214 C 0.97076 0.77448 0.78464 0.0
C215 C 0.96909 0.73041 0.78056 0.0
C216 C 0.95368 0.68908 0.78803 0.0
C217 C 0.95831 0.77706 0.796 0.0
N218 N 0.94472 0.73724 0.8034 0.0
H219 H 0.92641 0.66004 0.80481 0.0
H220 H 0.96006 0.81175 0.79888 0.0
H221 H 0.83909 0.71892 0.80083 0.0
H222 H 0.90883 0.83446 0.82542 0.0
O223 O 0.86609 0.68093 0.82128 0.0
O224 O 0.89968 0.74235 0.83427 0.0
O225 O 0.9894 0.81659 0.81969 0.0
C226 C 0.86182 0.69825 0.8312 0.0
H227 H 0.04801 0.71882 0.84487 0.0
H228 H 0.79247 0.77355 0.80062 0.0
H229 H 0.98196 0.80699 0.77907 0.0
H230 H 0.95072 0.65389 0.78504 0.0
Co231 Co 0.26639 0.18922 0.81905 0.0
C232 C 0.33907 0.29306 0.82758 0.0
C233 C 0.26968 0.25698 0.83731 0.0
C234 C 0.30294 0.30206 0.84257 0.0
N235 N 0.29215 0.25121 0.82791 0.0
N236 N 0.34642 0.3246 0.83648 0.0
H237 H 0.36794 0.29901 0.82133 0.0
H238 H 0.23274 0.22931 0.84053 0.0
C239 C 0.16034 0.16344 0.82469 0.0
O240 O 0.16378 0.14269 0.83428 0.0
N241 N 0.23994 0.12526 0.81061 0.0
C242 C 0.2678 0.10509 0.80659 0.0
C243 C 0.23682 0.05352 0.80516 0.0
C244 C 0.19213 0.08493 0.8115 0.0
N245 N 0.18927 0.04057 0.80844 0.0
C246 C 0.31409 0.22199 0.79667 0.0
C247 C 0.26752 0.27808 0.79158 0.0
C248 C 0.29118 0.26651 0.78271 0.0
C249 C 0.31674 0.24006 0.78547 0.0
C250 C 0.26572 0.25928 0.8026 0.0
N251 N 0.28566 0.22854 0.80484 0.0
H252 H 0.33303 0.20091 0.79859 0.0
H253 H 0.24581 0.26737 0.8092 0.0
H254 H 0.30881 0.1248 0.80601 0.0
H255 H 0.16057 0.08733 0.81493 0.0
O256 O 0.32785 0.18698 0.82257 0.0
O257 O 0.25738 0.15147 0.83294 0.0
O258 O 0.19795 0.1839 0.81782 0.0
C259 C 0.30292 0.15878 0.83133 0.0
H260 H 0.29621 0.31677 0.85043 0.0
H261 H 0.24947 0.027 0.80292 0.0
H262 H 0.24849 0.29958 0.78991 0.0
H263 H 0.33599 0.2307 0.77891 0.0
Co264 Co 0.81359 0.07541 0.82007 0.0
C265 C 0.70563 0.04836 0.82548 0.0
C266 C 0.74145 0.02646 0.8384 0.0
C267 C 0.69491 0.01627 0.84244 0.0
N268 N 0.74831 0.04617 0.82775 0.0
N269 N 0.67254 0.02999 0.83436 0.0
H270 H 0.69966 0.06509 0.8179 0.0
H271 H 0.7695 0.02163 0.8431 0.0
C272 C 0.78442 0.96555 0.82336 0.0
O273 O 0.73685 0.95222 0.82115 0.0
N274 N 0.87977 0.10493 0.8131 0.0
C275 C 0.89753 0.13498 0.80378 0.0
C276 C 0.94914 0.1527 0.80293 0.0
C277 C 0.92025 0.10511 0.81782 0.0
N278 N 0.96321 0.13363 0.81177 0.0
C279 C 0.7592 0.06929 0.799 0.0
C280 C 0.7763 0.99758 0.78854 0.0
C281 C 0.75306 0.01923 0.78204 0.0
C282 C 0.74429 0.05559 0.78749 0.0
C283 C 0.79327 0.01457 0.79961 0.0
N284 N 0.78293 0.04836 0.80501 0.0
H285 H 0.75453 0.09914 0.80281 0.0
H286 H 0.8176 1.00237 0.80345 0.0
H287 H 0.87509 0.14495 0.7983 0.0
H288 H 0.91842 0.08605 0.82578 0.0
O289 O 0.81846 0.14171 0.81961 0.0
O290 O 0.84547 0.11319 0.83388 0.0
O291 O 0.81834 0.01272 0.82365 0.0
C292 C 0.84154 0.15043 0.82949 0.0
H293 H 0.67901 1.00103 0.8508 0.0
H294 H 0.9745 0.17947 0.79661 0.0
H295 H 0.78419 0.96939 0.78492 0.0
H296 H 0.72867 0.07541 0.78281 0.0
Co297 Co 0.75002 0.93557 0.6939 0.0
C298 C 0.67239 0.96526 0.68708 0.0
C299 C 0.73665 0.99292 0.67577 0.0
C300 C 0.70265 0.00525 0.67116 0.0
N301 N 0.71832 0.96843 0.68581 0.0
N302 N 0.66246 0.98789 0.67825 0.0
H303 H 0.64571 0.94488 0.69388 0.0
H304 H 0.77176 0.99966 0.67183 0.0
C305 C 0.83259 0.04558 0.6931 0.0
O306 O 0.79798 0.0587 0.69497 0.0
N307 N 0.78191 0.9022 0.70137 0.0
C308 C 0.76203 0.86714 0.70974 0.0
C309 C 0.79272 0.84619 0.71117 0.0
C310 C 0.824 0.90209 0.69779 0.0
N311 N 0.83173 0.868 0.70362 0.0
C312 C 0.69469 0.93785 0.71429 0.0
C313 C 0.78151 1.00123 0.72663 0.0
C314 C 0.73473 0.97986 0.73234 0.0
C315 C 0.69055 0.94799 0.72595 0.0
C316 C 0.78405 0.98789 0.71539 0.0
N317 N 0.74123 0.95832 0.70907 0.0
H318 H 0.66084 0.91086 0.70973 0.0
H319 H 0.82137 0.99894 0.71217 0.0
H320 H 0.72646 0.8559 0.71408 0.0
H321 H 0.84732 0.92582 0.69087 0.0
O322 O 0.68796 0.86955 0.69262 0.0
O323 O 0.75004 0.90246 0.67983 0.0
O324 O 0.81919 0.99856 0.69201 0.0
C325 C 0.70725 0.8637 0.68311 0.0
H326 H 0.70629 0.02419 0.66305 0.0
H327 H 0.78537 0.81553 0.71701 0.0
H328 H 0.81693 0.02602 0.73103 0.0
H329 H 0.65354 0.92887 0.73002 0.0
Co330 Co 0.08921 0.82762 0.69545 0.0
C331 C 0.05618 0.7198 0.68845 0.0
C332 C 0.01094 0.74848 0.681 0.0
C333 C 0.9933 0.70006 0.67699 0.0
N334 N 0.04887 0.76038 0.68862 0.0
N335 N 0.02173 0.68224 0.68167 0.0
H336 H 0.08695 0.7182 0.69272 0.0
H337 H 0.99795 0.77393 0.67814 0.0
C338 C 0.98392 0.80833 0.6984 0.0
O339 O 0.97284 0.76412 0.70283 0.0
N340 N 0.12962 0.8957 0.70143 0.0
C341 C 0.1631 0.91177 0.71016 0.0
C342 C 0.18475 0.96382 0.71107 0.0
C343 C 0.13217 0.93784 0.69698 0.0
N344 N 0.16526 0.98027 0.70277 0.0
C345 C 0.07463 0.7624 0.71538 0.0
C346 C 0.0374 0.80977 0.72942 0.0
C347 C 0.03778 0.76672 0.73356 0.0
C348 C 0.05787 0.74354 0.72651 0.0
C349 C 0.05435 0.82717 0.71837 0.0
N350 N 0.07029 0.80216 0.71121 0.0
H351 H 0.09135 0.7452 0.71025 0.0
H352 H 0.0534 0.8605 0.71546 0.0
H353 H 0.17119 0.88739 0.71545 0.0
H354 H 0.11152 0.93711 0.68936 0.0
O355 O 0.15087 0.82443 0.69372 0.0
O356 O 0.1188 0.85324 0.68058 0.0
O357 O 0.02864 0.83852 0.69454 0.0
C358 C 0.15583 0.846 0.68377 0.0
H359 H 0.96318 0.68003 0.67077 0.0
H360 H 0.2126 0.98763 0.71741 0.0
H361 H 0.02392 0.83001 0.73469 0.0
H362 H 0.05997 0.71082 0.72948 0.0
Co363 Co 0.19381 0.27367 0.69605 0.0
C364 C 0.30166 0.35172 0.68962 0.0
C365 C 0.27079 0.2826 0.67988 0.0
C366 C 0.318 0.31606 0.67557 0.0
N367 N 0.26076 0.30406 0.68892 0.0
N368 N 0.33726 0.35918 0.68172 0.0
H369 H 0.30437 0.38155 0.69511 0.0
H370 H 0.24445 0.24572 0.6763 0.0
C371 C 0.21944 0.19121 0.69714 0.0
O372 O 0.26437 0.22621 0.70091 0.0
N373 N 0.12608 0.2432 0.70238 0.0
C374 C 0.10868 0.26477 0.70988 0.0
C375 C 0.0563 0.23577 0.71028 0.0
C376 C 0.08446 0.20158 0.69834 0.0
N377 N 0.04143 0.19615 0.70304 0.0
C378 C 0.25466 0.32546 0.7164 0.0
C379 C 0.2129 0.23868 0.72982 0.0
C380 C 0.2498 0.28464 0.73466 0.0
C381 C 0.27085 0.32861 0.72783 0.0
C382 C 0.19831 0.23715 0.71845 0.0
N383 N 0.2203 0.2797 0.71167 0.0
H384 H 0.26811 0.36009 0.7116 0.0
H385 H 0.16809 0.20142 0.71517 0.0
H386 H 0.13221 0.30048 0.71427 0.0
H387 H 0.08536 0.17772 0.69155 0.0
O388 O 0.19408 0.33732 0.69477 0.0
O389 O 0.16597 0.2774 0.68142 0.0
O390 O 0.18619 0.2037 0.69448 0.0
C391 C 0.17168 0.32076 0.68488 0.0
H392 H 0.33621 0.31001 0.66823 0.0
H393 H 0.03099 0.24381 0.71524 0.0
H394 H 0.19484 0.20403 0.73486 0.0
H395 H 0.29797 0.3653 0.73141 0.0
Co396 Co 0.75541 0.60399 0.5293 0.0
C397 C 0.72011 0.67461 0.52156 0.0
C398 C 0.67061 0.59765 0.51596 0.0
C399 C 0.65161 0.62746 0.51197 0.0
N400 N 0.71309 0.62698 0.52209 0.0
N401 N 0.68283 0.6757 0.51544 0.0
H402 H 0.75161 0.70758 0.52554 0.0
H403 H 0.65493 0.5575 0.51429 0.0
C404 C 0.68279 0.50312 0.53915 0.0
O405 O 0.71153 0.51775 0.54838 0.0
N406 N 0.79899 0.57993 0.53584 0.0
C407 C 0.84642 0.60814 0.54018 0.0
C408 C 0.869 0.57864 0.5409 0.0
C409 C 0.79494 0.5343 0.53346 0.0
N410 N 0.83666 0.53214 0.53663 0.0
C411 C 0.77563 0.64986 0.55204 0.0
C412 C 0.67443 0.60568 0.55836 0.0
C413 C 0.71198 0.63037 0.56676 0.0
C414 C 0.7632 0.65424 0.56338 0.0
C415 C 0.68858 0.602 0.54716 0.0
N416 N 0.7386 0.62063 0.54432 0.0
H417 H 0.81499 0.66947 0.54958 0.0
H418 H 0.65889 0.58143 0.54092 0.0
H419 H 0.86593 0.64867 0.54165 0.0
H420 H 0.76267 0.50392 0.52908 0.0
O421 O 0.8155 0.66787 0.52561 0.0
O422 O 0.78107 0.59956 0.51446 0.0
O423 O 0.69466 0.53266 0.53045 0.0
C424 C 0.81815 0.64582 0.51625 0.0
H425 H 0.61815 0.61503 0.50666 0.0
H426 H 0.90767 0.59157 0.54365 0.0
H427 H 0.63438 0.58696 0.56055 0.0
H428 H 0.79339 0.6753 0.56952 0.0
Co429 Co 0.41812 0.15947 0.52808 0.0
C430 C 0.34056 0.05294 0.52037 0.0
C431 C 0.40293 0.09358 0.50873 0.0
C432 C 0.36925 0.04777 0.50382 0.0
N433 N 0.38539 0.09706 0.51912 0.0
N434 N 0.33024 0.02241 0.51112 0.0
H435 H 0.31495 0.0438 0.52752 0.0
H436 H 0.43752 0.12318 0.50485 0.0
C437 C 0.49614 0.12659 0.52689 0.0
O438 O 0.45927 0.0795 0.52847 0.0
N439 N 0.45125 0.22256 0.53645 0.0
C440 C 0.43048 0.23835 0.54453 0.0
C441 C 0.46452 0.28864 0.54705 0.0
C442 C 0.49731 0.26291 0.53415 0.0
N443 N 0.50618 0.30347 0.54052 0.0
C444 C 0.35725 0.09731 0.54733 0.0
C445 C 0.43991 0.11285 0.56042 0.0
C446 C 0.39125 0.08406 0.56507 0.0
C447 C 0.34939 0.07693 0.55849 0.0
C448 C 0.44607 0.13343 0.5495 0.0
N449 N 0.40515 0.12366 0.54278 0.0
H450 H 0.32513 0.09393 0.54259 0.0
H451 H 0.4844 0.15973 0.54679 0.0
H452 H 0.39256 0.21551 0.548 0.0
H453 H 0.52276 0.26338 0.52759 0.0
O454 O 0.35799 0.16677 0.52665 0.0
O455 O 0.42247 0.19717 0.51448 0.0
O456 O 0.48585 0.16257 0.52639 0.0
C457 C 0.3797 0.19378 0.5175 0.0
H458 H 0.37259 0.03428 0.49545 0.0
H459 H 0.45884 0.31277 0.55299 0.0
H460 H 0.47338 0.12174 0.56547 0.0
H461 H 0.31127 0.05677 0.56202 0.0
Co462 Co 0.85885 0.26187 0.52976 0.0
C463 C 0.96706 0.29244 0.52357 0.0
C464 C 0.94132 0.33955 0.51579 0.0
C465 C 0.99001 0.35584 0.5121 0.0
N466 N 0.92732 0.30115 0.52339 0.0
N467 N 0.00603 0.32631 0.51701 0.0
H468 H 0.96705 0.26097 0.52789 0.0
H469 H 0.91714 0.35381 0.51276 0.0
C470 C 0.88211 0.36853 0.53312 0.0
O471 O 0.92525 0.37689 0.53769 0.0
N472 N 0.78997 0.22203 0.53535 0.0
C473 C 0.7727 0.18341 0.54294 0.0
C474 C 0.72029 0.15865 0.54301 0.0
C475 C 0.74816 0.22027 0.53087 0.0
N476 N 0.70508 0.18165 0.53535 0.0
C477 C 0.91862 0.2684 0.55014 0.0
C478 C 0.87085 0.30464 0.56435 0.0
C479 C 0.90916 0.29715 0.56894 0.0
C480 C 0.93341 0.27892 0.5617 0.0
C481 C 0.85754 0.29397 0.55284 0.0
N482 N 0.88235 0.27771 0.54571 0.0
H483 H 0.9352 0.25125 0.54494 0.0
H484 H 0.82668 0.29868 0.54968 0.0
H485 H 0.79652 0.17285 0.54774 0.0
H486 H 0.74918 0.24495 0.52405 0.0
O487 O 0.86001 0.19923 0.52768 0.0
O488 O 0.83405 0.23426 0.51465 0.0
O489 O 0.85065 0.32438 0.5291 0.0
C490 C 0.83927 0.1958 0.51768 0.0
H491 H 0.01153 0.38596 0.50599 0.0
H492 H 0.6953 0.12589 0.54818 0.0
H493 H 0.85101 0.31851 0.56964 0.0
H494 H 0.96234 0.27142 0.56503 0.0
Co495 Co 0.93504 0.41705 0.65269 0.0
C496 C 0.00816 0.38408 0.66019 0.0
C497 C 0.95632 0.37738 0.67349 0.0
C498 C 0.99256 0.36856 0.67821 0.0
N499 N 0.96524 0.38629 0.66214 0.0
N500 N 0.02523 0.37312 0.66989 0.0
H501 H 0.02833 0.3936 0.6521 0.0
H502 H 0.92649 0.3792 0.67817 0.0
C503 C 0.8441 0.30978 0.65715 0.0
O504 O 0.8683 0.29807 0.66477 0.0
N505 N 0.90502 0.45 0.64384 0.0
C506 C 0.92992 0.49738 0.63929 0.0
C507 C 0.89585 0.51398 0.63736 0.0
C508 C 0.85601 0.43898 0.64468 0.0
N509 N 0.84961 0.4773 0.64082 0.0
C510 C 0.97838 0.42829 0.63001 0.0
C511 C 0.93626 0.32504 0.62615 0.0
C512 C 0.9548 0.35828 0.61677 0.0
C513 C 0.97881 0.41081 0.6189 0.0
C514 C 0.93608 0.34407 0.63704 0.0
N515 N 0.95352 0.39475 0.63869 0.0
H516 H 0.9958 0.46863 0.63145 0.0
H517 H 0.9198 0.31755 0.64405 0.0
H518 H 0.97074 0.52088 0.63853 0.0
H519 H 0.82652 0.40608 0.64911 0.0
O520 O 0.99569 0.48248 0.6553 0.0
O521 O 0.92631 0.44896 0.66608 0.0
O522 O 0.86595 0.35301 0.65215 0.0
C523 C 0.97151 0.48723 0.66402 0.0
H524 H 0.99572 0.36093 0.68715 0.0
H525 H 0.90489 0.55137 0.63436 0.0
H526 H 0.91972 0.28435 0.625 0.0
H527 H 0.99498 0.43802 0.61196 0.0
Co528 Co 0.59629 0.52517 0.65177 0.0
C529 C 0.62863 0.63012 0.65966 0.0
C530 C 0.67788 0.60368 0.666 0.0
C531 C 0.69443 0.6518 0.67027 0.0
N532 N 0.63701 0.59033 0.65925 0.0
N533 N 0.66329 0.66803 0.66633 0.0
H534 H 0.59774 0.63118 0.65526 0.0
H535 H 0.69395 0.57975 0.6679 0.0
C536 C 0.66994 0.49627 0.64272 0.0
O537 O 0.64221 0.4824 0.63333 0.0
N538 N 0.55344 0.45792 0.64494 0.0
C539 C 0.5065 0.43971 0.64038 0.0
C540 C 0.48209 0.3875 0.64003 0.0
C541 C 0.55551 0.4156 0.6477 0.0
N542 N 0.51275 0.37211 0.64469 0.0
C543 C 0.58089 0.55194 0.62862 0.0
C544 C 0.6834 0.61013 0.62359 0.0
C545 C 0.64811 0.59772 0.61468 0.0
C546 C 0.59609 0.56967 0.61741 0.0
C547 C 0.66656 0.5912 0.63461 0.0
N548 N 0.61597 0.55947 0.63685 0.0
H549 H 0.54098 0.5316 0.63055 0.0
H550 H 0.6947 0.60007 0.64123 0.0
H551 H 0.4881 0.4616 0.6387 0.0
H552 H 0.58688 0.41686 0.65234 0.0
O553 O 0.53542 0.52854 0.65492 0.0
O554 O 0.56833 0.49433 0.66641 0.0
O555 O 0.65735 0.51447 0.65122 0.0
C556 C 0.53149 0.50345 0.6643 0.0
H557 H 0.72624 0.67294 0.67603 0.0
H558 H 0.44307 0.36269 0.63737 0.0
H559 H 0.72392 0.63302 0.622 0.0
H560 H 0.56725 0.55962 0.61087 0.0
Co561 Co 0.48881 0.08237 0.65077 0.0
C562 C 0.38294 1.00124 0.65793 0.0
C563 C 0.41574 0.06868 0.66831 0.0
C564 C 0.3705 0.03362 0.67318 0.0
N565 N 0.42357 0.04908 0.65865 0.0
N566 N 0.34998 0.99146 0.66666 0.0
H567 H 0.37866 0.97295 0.65175 0.0
H568 H 0.44253 0.10538 0.67191 0.0
C569 C 0.45788 0.16133 0.65072 0.0
O570 O 0.41252 0.12542 0.64742 0.0
N571 N 0.5552 0.11674 0.64374 0.0
C572 C 0.57144 0.10463 0.63412 0.0
C573 C 0.6237 0.13562 0.6334 0.0
C574 C 0.59729 0.15403 0.64879 0.0
N575 N 0.6395 0.166 0.64271 0.0
C576 C 0.42792 0.02567 0.63103 0.0
C577 C 0.45212 0.11021 0.61771 0.0
C578 C 0.41953 0.06194 0.61315 0.0
C579 C 0.40791 0.01915 0.61989 0.0
C580 C 0.47185 0.11493 0.62873 0.0
N581 N 0.45776 0.07321 0.63554 0.0
H582 H 0.42123 0.99248 0.63579 0.0
H583 H 0.49989 0.15248 0.63162 0.0
H584 H 0.54744 0.07414 0.62831 0.0
H585 H 0.59726 0.17063 0.65701 0.0
O586 O 0.49336 0.02102 0.65173 0.0
O587 O 0.52076 0.08104 0.66502 0.0
O588 O 0.49292 0.15062 0.6527 0.0
C589 C 0.51676 0.03852 0.66148 0.0
H590 H 0.35441 0.03807 0.68109 0.0
H591 H 0.64841 0.13419 0.6269 0.0
H592 H 0.46403 0.14417 0.6126 0.0
H593 H 0.38432 0.98108 0.61652 0.0
Co594 Co 0.59477 0.07714 0.15185 0.0
C595 C 0.62269 0.99848 0.15932 0.0
C596 C 0.65109 0.06396 0.17026 0.0
C597 C 0.66199 0.0296 0.17526 0.0
N598 N 0.62695 0.0451 0.1602 0.0
N599 N 0.64427 0.98862 0.16839 0.0
H600 H 0.60192 0.97099 0.1527 0.0
H601 H 0.6583 0.09963 0.17398 0.0
C602 C 0.70451 0.15817 0.15256 0.0
O603 O 0.71557 0.12234 0.15033 0.0
N604 N 0.56226 0.10983 0.14426 0.0
C605 C 0.52436 0.08944 0.13647 0.0
C606 C 0.50669 0.12294 0.13474 0.0
C607 C 0.56723 0.15509 0.14716 0.0
N608 N 0.53396 0.1641 0.14144 0.0
C609 C 0.60055 0.02093 0.13224 0.0
C610 C 0.66198 0.10596 0.11915 0.0
C611 C 0.64595 0.05786 0.11448 0.0
C612 C 0.61404 0.01481 0.12106 0.0
C613 C 0.64671 0.11029 0.13015 0.0
N614 N 0.61857 0.06832 0.13686 0.0
H615 H 0.57366 0.98759 0.13692 0.0
H616 H 0.65603 0.14775 0.13305 0.0
H617 H 0.50941 0.05212 0.13267 0.0
H618 H 0.59288 0.1798 0.15374 0.0
O619 O 0.52971 0.0148 0.15259 0.0
O620 O 0.5592 0.07545 0.16576 0.0
O621 O 0.65798 0.14631 0.15385 0.0
C622 C 0.52187 0.03221 0.16212 0.0
H623 H 0.68037 0.03371 0.18346 0.0
H624 H 0.47588 0.11733 0.12913 0.0
H625 H 0.6843 0.14009 0.11411 0.0
H626 H 0.59897 0.97693 0.11753 0.0
Co627 Co 0.93106 0.51753 0.15202 0.0
C628 C 0.00562 0.62219 0.1598 0.0
C629 C 0.93675 0.5885 0.16975 0.0
C630 C 0.97036 0.63479 0.1745 0.0
N631 N 0.95868 0.58053 0.16053 0.0
N632 N 0.01342 0.65574 0.16826 0.0
H633 H 0.03402 0.62686 0.15355 0.0
H634 H 0.8998 0.56172 0.17314 0.0
C635 C 0.82506 0.49292 0.15801 0.0
O636 O 0.82865 0.47299 0.16772 0.0
N637 N 0.90232 0.45265 0.14393 0.0
C638 C 0.92674 0.43535 0.13721 0.0
C639 C 0.89774 0.38323 0.13631 0.0
C640 C 0.85904 0.41009 0.14714 0.0
N641 N 0.8556 0.36737 0.14272 0.0
C642 C 0.98313 0.55451 0.13009 0.0
C643 C 0.93126 0.60423 0.12406 0.0
C644 C 0.9583 0.59514 0.11554 0.0
C645 C 0.98702 0.57258 0.11884 0.0
C646 C 0.9276 0.58465 0.13505 0.0
N647 N 0.94965 0.55613 0.13766 0.0
H648 H 0.00619 0.53835 0.13261 0.0
H649 H 0.9057 0.59147 0.14137 0.0
H650 H 0.96517 0.45732 0.13413 0.0
H651 H 0.83319 0.40954 0.15356 0.0
O652 O 0.9922 0.5142 0.15514 0.0
O653 O 0.92342 0.48106 0.16607 0.0
O654 O 0.8626 0.51268 0.15111 0.0
C655 C 0.9684 0.48734 0.16414 0.0
H656 H 0.96431 0.65137 0.18214 0.0
H657 H 0.90848 0.3587 0.13187 0.0
H658 H 0.91148 0.62479 0.12215 0.0
H659 H 0.01056 0.56701 0.1127 0.0
Co660 Co 0.48161 0.41433 0.15228 0.0
C661 C 0.37625 0.38644 0.15954 0.0
C662 C 0.39864 0.33332 0.16543 0.0
C663 C 0.34976 0.31676 0.16905 0.0
N664 N 0.41511 0.37657 0.15935 0.0
N665 N 0.33584 0.3501 0.16539 0.0
H666 H 0.37731 0.41899 0.15546 0.0
H667 H 0.42063 0.31499 0.16718 0.0
C668 C 0.50573 0.33754 0.14331 0.0
O669 O 0.52115 0.36551 0.13398 0.0
N670 N 0.55031 0.45225 0.14602 0.0
C671 C 0.57384 0.49571 0.13983 0.0
C672 C 0.62552 0.51315 0.13967 0.0
C673 C 0.5886 0.44596 0.15004 0.0
N674 N 0.63443 0.48158 0.14612 0.0
C675 C 0.4579 0.43445 0.12923 0.0
C676 C 0.39804 0.33306 0.12335 0.0
C677 C 0.41261 0.36978 0.11469 0.0
C678 C 0.44132 0.42132 0.11785 0.0
C679 C 0.4159 0.34786 0.13452 0.0
N680 N 0.44889 0.39777 0.13715 0.0
H681 H 0.47832 0.474 0.13159 0.0
H682 H 0.40512 0.31857 0.14094 0.0
H683 H 0.55639 0.51638 0.13648 0.0
H684 H 0.58314 0.41667 0.15611 0.0
O685 O 0.48401 0.47834 0.1554 0.0
O686 O 0.51188 0.44015 0.1671 0.0
O687 O 0.48724 0.35027 0.15172 0.0
C688 C 0.50763 0.47994 0.16487 0.0
H689 H 0.32632 0.28316 0.17415 0.0
H690 H 0.65455 0.54808 0.13577 0.0
H691 H 0.37423 0.29291 0.12144 0.0
H692 H 0.4526 0.45126 0.11155 0.0
Co693 Co 0.40702 0.25654 0.03016 0.0
C694 C 0.33404 0.28828 0.02201 0.0
C695 C 0.40476 0.32409 0.01271 0.0
C696 C 0.3723 0.33779 0.00771 0.0
N697 N 0.38082 0.29306 0.02164 0.0
N698 N 0.32813 0.31546 0.01358 0.0
H699 H 0.30445 0.26393 0.02798 0.0
H700 H 0.4425 0.33434 0.00977 0.0
C701 C 0.50642 0.3363 0.03946 0.0
O702 O 0.4919 0.31198 0.04928 0.0
N703 N 0.43444 0.21878 0.03805 0.0
C704 C 0.40854 0.17337 0.04347 0.0
C705 C 0.43863 0.15138 0.0441 0.0
C706 C 0.47941 0.22249 0.03519 0.0
N707 N 0.48314 0.18234 0.03887 0.0
C708 C 0.35769 0.24029 0.05237 0.0
C709 C 0.40214 0.34237 0.05792 0.0
C710 C 0.37814 0.3061 0.06661 0.0
C711 C 0.35348 0.25441 0.06357 0.0
C712 C 0.40538 0.32644 0.04685 0.0
N713 N 0.38763 0.27608 0.04451 0.0
H714 H 0.33766 0.20062 0.05014 0.0
H715 H 0.42559 0.35502 0.04036 0.0
H716 H 0.36856 0.15374 0.0455 0.0
H717 H 0.5064 0.25103 0.02939 0.0
O718 O 0.34543 0.19247 0.02685 0.0
O719 O 0.41476 0.22794 0.01608 0.0
O720 O 0.47701 0.32014 0.0307 0.0
C721 C 0.36962 0.18919 0.01794 0.0
H722 H 0.37999 0.36142 1.00019 0.0
H723 H 0.42713 0.11371 0.04735 0.0
H724 H 0.42105 0.38273 0.0598 0.0
H725 H 0.33238 0.2251 0.06988 0.0
Co726 Co 0.74529 0.15363 0.02907 0.0
C727 C 0.71416 0.0474 0.02088 0.0
C728 C 0.68877 0.08784 0.01017 0.0
C729 C 0.67684 0.04293 1.00484 0.0
N730 N 0.71168 0.09076 0.02029 0.0
N731 N 0.69293 0.01773 0.01154 0.0
H732 H 0.73337 0.03869 0.02751 0.0
H733 H 0.68307 0.11761 1.00666 0.0
C734 C 0.63675 0.12897 0.02824 0.0
O735 O 0.62335 0.08091 0.02971 0.0
N736 N 0.77931 0.21778 0.0371 0.0
C737 C 0.80337 0.22868 0.04727 0.0
C738 C 0.8226 0.27969 0.04951 0.0
C739 C 0.78511 0.2621 0.03316 0.0
N740 N 0.81168 0.30092 0.04054 0.0
C741 C 0.73768 0.08893 0.04827 0.0
C742 C 0.67668 0.11205 0.06164 0.0
C743 C 0.69347 0.0805 0.06621 0.0
C744 C 0.72469 0.06912 0.05944 0.0
C745 C 0.69147 0.13189 0.05064 0.0
N746 N 0.71994 0.11885 0.04383 0.0
H747 H 0.76434 0.08254 0.04347 0.0
H748 H 0.68241 0.16044 0.04797 0.0
H749 H 0.80622 0.20148 0.05276 0.0
H750 H 0.77045 0.2657 0.02497 0.0
O751 O 0.80956 0.15457 0.02815 0.0
O752 O 0.78132 0.18831 0.0153 0.0
O753 O 0.68387 0.16254 0.02729 0.0
C754 C 0.8176 0.18037 0.01869 0.0
H755 H 0.65878 0.03016 0.99655 0.0
H756 H 0.84162 0.29882 0.05734 0.0
H757 H 0.65464 0.12379 0.0668 0.0
H758 H 0.73996 0.04631 0.06286 0.0
Co759 Co 0.85675 0.60247 0.03135 0.0
C760 C 0.96122 0.67922 0.02378 0.0
C761 C 0.9278 0.61105 0.01354 0.0
C762 C 0.97463 0.64484 0.00901 0.0
N763 N 0.91943 0.63255 0.02276 0.0
N764 N 0.99544 0.68735 0.01546 0.0
H765 H 0.96588 0.70692 0.03022 0.0
H766 H 0.90104 0.57383 0.01017 0.0
C767 C 0.83896 0.50234 0.03926 0.0
O768 O 0.82833 0.51424 0.0493 0.0
N769 N 0.79135 0.57003 0.0394 0.0
C770 C 0.77701 0.57734 0.04986 0.0
C771 C 0.72653 0.54177 0.05154 0.0
C772 C 0.74868 0.53066 0.03488 0.0
N773 N 0.70848 0.51209 0.04212 0.0
C774 C 0.8948 0.65548 0.05283 0.0
C775 C 0.94862 0.60777 0.05899 0.0
C776 C 0.93813 0.63433 0.06735 0.0
C777 C 0.91389 0.66128 0.06398 0.0
C778 C 0.92847 0.60285 0.04796 0.0
N779 N 0.89667 0.62141 0.04551 0.0
H780 H 0.87462 0.675 0.05042 0.0
H781 H 0.9357 0.58122 0.04163 0.0
H782 H 0.8005 0.60521 0.05612 0.0
H783 H 0.7477 0.5164 0.02635 0.0
O784 O 0.85189 0.66302 0.02915 0.0
O785 O 0.81995 0.59708 0.01736 0.0
O786 O 0.8529 0.53382 0.03089 0.0
C787 C 0.82565 0.64139 0.01994 0.0
H788 H 0.99193 0.63908 1.00146 0.0
H789 H 0.70529 0.53752 0.05931 0.0
H790 H 0.9689 0.58796 0.06116 0.0
H791 H 0.9069 0.68393 0.07011 0.0
Co792 Co 0.4116 0.92926 0.8623 0.0
C793 C 0.37944 0.00447 0.85557 0.0
C794 C 0.32987 0.92972 0.84892 0.0
C795 C 0.31311 0.96144 0.84504 0.0
N796 N 0.37004 0.95585 0.856 0.0
N797 N 0.34431 0.00824 0.84921 0.0
H798 H 0.41226 0.03686 0.85931 0.0
H799 H 0.31482 0.8906 0.8463 0.0
C800 C 0.30662 0.84334 0.86637 0.0
O801 O 0.29681 0.87766 0.87061 0.0
N802 N 0.45388 0.9028 0.86775 0.0
C803 C 0.49635 0.92748 0.87419 0.0
C804 C 0.52122 0.89989 0.87408 0.0
C805 C 0.45333 0.86078 0.86382 0.0
N806 N 0.49389 0.85806 0.86759 0.0
C807 C 0.39939 0.98097 0.88234 0.0
C808 C 0.36652 0.89764 0.89665 0.0
C809 C 0.36519 0.94034 0.90069 0.0
C810 C 0.38338 0.98313 0.89354 0.0
C811 C 0.3828 0.89716 0.88553 0.0
N812 N 0.39625 0.93726 0.87824 0.0
H813 H 0.4141 0.01438 0.87707 0.0
H814 H 0.38254 0.86321 0.88263 0.0
H815 H 0.50955 0.96415 0.8782 0.0
H816 H 0.42557 0.83441 0.85778 0.0
O817 O 0.47245 0.99414 0.85986 0.0
O818 O 0.43803 0.93179 0.8471 0.0
O819 O 0.35073 0.85743 0.86214 0.0
C820 C 0.47562 0.97652 0.84988 0.0
H821 H 0.28181 0.95157 0.83918 0.0
H822 H 0.55706 0.91017 0.87822 0.0
H823 H 0.35439 0.86437 0.90202 0.0
H824 H 0.38416 0.0174 0.89646 0.0
Co825 Co 0.07153 0.48316 0.86325 0.0
C826 C 0.99611 0.38 0.85441 0.0
C827 C 0.06591 0.41647 0.84479 0.0
C828 C 0.03267 0.37168 0.83939 0.0
N829 N 0.0431 0.42177 0.85416 0.0
N830 N 0.98895 0.34884 0.84542 0.0
H831 H 0.9673 0.37357 0.86071 0.0
H832 H 0.10353 0.44432 0.84184 0.0
C833 C 0.17264 0.50326 0.87103 0.0
O834 O 0.15998 0.5128 0.88111 0.0
N835 N 0.10228 0.54751 0.87161 0.0
C836 C 0.08894 0.56276 0.88123 0.0
C837 C 0.1217 0.61415 0.88274 0.0
C838 C 0.14225 0.59032 0.86737 0.0
N839 N 0.15527 0.63152 0.87399 0.0
C840 C 0.02161 0.44307 0.88516 0.0
C841 C 0.0719 0.39052 0.88998 0.0
C842 C 0.04706 0.40006 0.89896 0.0
C843 C 0.01897 0.42404 0.89626 0.0
C844 C 0.07384 0.41072 0.87909 0.0
N845 N 0.054 0.44183 0.87723 0.0
H846 H 0.99984 0.46135 0.88315 0.0
H847 H 0.0944 0.40418 0.87237 0.0
H848 H 0.05714 0.53989 0.88672 0.0
H849 H 0.15975 0.59127 0.85923 0.0
O850 O 0.01008 0.48708 0.86125 0.0
O851 O 0.07645 0.52107 0.84955 0.0
O852 O 0.14122 0.48908 0.86263 0.0
C853 C 0.03189 0.51448 0.85218 0.0
H854 H 0.03976 0.35713 0.83155 0.0
H855 H 0.12018 0.63711 0.88966 0.0
H856 H 0.09187 0.36983 0.8915 0.0
H857 H 0.99774 0.43091 0.90279 0.0
Co858 Co 0.52367 0.59736 0.86164 0.0
C859 C 0.63128 0.62711 0.85518 0.0
C860 C 0.5908 0.64297 0.84222 0.0
C861 C 0.63706 0.65383 0.83782 0.0
N862 N 0.58698 0.62644 0.85311 0.0
N863 N 0.66237 0.64392 0.84594 0.0
H864 H 0.63992 0.61353 0.86293 0.0
H865 H 0.56101 0.64532 0.83766 0.0
C866 C 0.55042 0.70627 0.85792 0.0
O867 O 0.59897 0.72074 0.85885 0.0
N868 N 0.45925 0.56759 0.86961 0.0
C869 C 0.44861 0.54814 0.88029 0.0
C870 C 0.39771 0.52958 0.88239 0.0
C871 C 0.41463 0.55971 0.86529 0.0
N872 N 0.37606 0.53612 0.87289 0.0
C873 C 0.58229 0.60438 0.88201 0.0
C874 C 0.5682 0.6772 0.8929 0.0
C875 C 0.59014 0.65374 0.89917 0.0
C876 C 0.59803 0.61735 0.89349 0.0
C877 C 0.55057 0.66117 0.88183 0.0
N878 N 0.55859 0.62611 0.87627 0.0
H879 H 0.58569 0.57403 0.87806 0.0
H880 H 0.52653 0.6743 0.87829 0.0
H881 H 0.47578 0.54754 0.88618 0.0
H882 H 0.4105 0.57052 0.85669 0.0
O883 O 0.51976 0.5315 0.86193 0.0
O884 O 0.48858 0.55857 0.84821 0.0
O885 O 0.51697 0.65898 0.85834 0.0
C886 C 0.49446 0.52209 0.85234 0.0
H887 H 0.65083 0.6671 0.82923 0.0
H888 H 0.37878 0.51381 0.89045 0.0
H889 H 0.56108 0.70548 0.89678 0.0
H890 H 0.61316 0.59669 0.89802 0.0
Co891 Co 0.59311 0.74266 0.98649 0.0
C892 C 0.67031 0.71281 0.99362 0.0
C893 C 0.61177 0.6959 1.00608 0.0
C894 C 0.64583 0.68377 0.01072 0.0
N895 N 0.6266 0.71372 0.99533 0.0
N896 N 0.68237 0.69435 1.00292 0.0
H897 H 0.69387 0.72694 0.98607 0.0
H898 H 0.57887 0.69319 0.01035 0.0
C899 C 0.51378 0.63331 0.98941 0.0
O900 O 0.55001 0.62223 0.98782 0.0
N901 N 0.55944 0.77237 0.9782 0.0
C902 C 0.57922 0.80586 0.96952 0.0
C903 C 0.54735 0.82482 0.96729 0.0
C904 C 0.51591 0.77121 0.98114 0.0
N905 N 0.50726 0.80279 0.97454 0.0
C906 C 0.6467 0.73605 0.96644 0.0
C907 C 0.55992 0.66686 0.95485 0.0
C908 C 0.60621 0.68934 0.94891 0.0
C909 C 0.65036 0.72395 0.95493 0.0
C910 C 0.55764 0.68202 0.96596 0.0
N911 N 0.60062 0.71491 0.97188 0.0
H912 H 0.68044 0.76525 0.97065 0.0
H913 H 0.52027 0.66981 0.96932 0.0
H914 H 0.61575 0.8179 0.96556 0.0
H915 H 0.49223 0.74919 0.98825 0.0
O916 O 0.65507 0.80838 0.98646 0.0
O917 O 0.59544 0.78154 0.99984 0.0
O918 O 0.52487 0.67994 0.98948 0.0
C919 C 0.6382 0.81814 0.99584 0.0
H920 H 0.64465 0.66931 0.01928 0.0
H921 H 0.5552 0.85506 0.96129 0.0
H922 H 0.52458 0.64007 0.95069 0.0
H923 H 0.68685 0.74392 0.95065 0.0
Co924 Co 0.25511 0.84938 0.98618 0.0
C925 C 0.28848 0.95642 0.99379 0.0
C926 C 0.34011 0.93153 0.99906 0.0
C927 C 0.35782 0.97994 1.00315 0.0
N928 N 0.29781 0.91726 0.99271 0.0
N929 N 0.32538 0.99548 0.99985 0.0
H930 H 0.25492 0.95609 0.99054 0.0
H931 H 0.35625 0.90779 1.00107 0.0
C932 C 0.35817 0.86562 0.98112 0.0
O933 O 0.36868 0.90953 0.97662 0.0
N934 N 0.21187 0.78103 0.98042 0.0
C935 C 0.16928 0.76474 0.97414 0.0
C936 C 0.14669 0.71286 0.9728 0.0
C937 C 0.21461 0.73899 0.98287 0.0
N938 N 0.17547 0.69667 0.97818 0.0
C939 C 0.26908 0.91637 0.9666 0.0
C940 C 0.2914 0.86098 0.9512 0.0
C941 C 0.29346 0.90564 0.94744 0.0
C942 C 0.28186 0.93354 0.95524 0.0
C943 C 0.27956 0.84584 0.96256 0.0
N944 N 0.26992 0.87399 0.97028 0.0
H945 H 0.25813 0.93701 0.9723 0.0
H946 H 0.27953 0.81172 0.96521 0.0
H947 H 0.15484 0.78874 0.97106 0.0
H948 H 0.2443 0.73934 0.98808 0.0
O949 O 0.1948 0.85399 0.98891 0.0
O950 O 0.22875 0.82421 1.00133 0.0
O951 O 0.31514 0.83727 0.98596 0.0
C952 C 0.19134 0.83188 0.99871 0.0
H953 H 0.39098 1.00149 0.00852 0.0
H954 H 0.11065 0.68883 0.96858 0.0
H955 H 0.29992 0.83827 0.94541 0.0
H956 H 0.28188 0.96769 0.95252 0.0
Co957 Co 0.15412 0.40677 0.98555 0.0
C958 C 0.04758 0.32858 0.99311 0.0
C959 C 0.07953 0.39991 1.002 0.0
C960 C 0.03401 0.36684 1.00706 0.0
N961 N 0.08796 0.37675 0.99306 0.0
N962 N 0.01397 0.32223 1.00147 0.0
H963 H 0.0442 0.29774 0.98787 0.0
H964 H 0.10615 0.43774 1.00506 0.0
C965 C 0.12699 0.48762 0.98354 0.0
O966 O 0.08223 0.45145 0.97998 0.0
N967 N 0.22132 0.43753 0.97899 0.0
C968 C 0.23842 0.41732 0.97108 0.0
C969 C 0.29086 0.44565 0.97086 0.0
C970 C 0.2631 0.47753 0.98347 0.0
N971 N 0.30608 0.48308 0.97874 0.0
C972 C 0.09042 0.35179 0.96574 0.0
C973 C 0.13183 0.43578 0.95144 0.0
C974 C 0.09401 0.38913 0.94705 0.0
C975 C 0.07314 0.3466 0.95435 0.0
C976 C 0.14759 0.43934 0.96278 0.0
N977 N 0.12596 0.39818 0.96999 0.0
H978 H 0.07672 0.31813 0.97091 0.0
H979 H 0.17824 0.47557 0.96572 0.0
H980 H 0.21463 0.38287 0.96628 0.0
H981 H 0.26221 0.49977 0.99064 0.0
O982 O 0.15531 0.34386 0.98708 0.0
O983 O 0.18362 0.40499 1.00014 0.0
O984 O 0.16083 0.47665 0.98665 0.0
C985 C 0.17856 0.3617 0.99682 0.0
H986 H 0.01744 0.37436 0.0145 0.0
H987 H 0.31587 0.43844 0.96557 0.0
H988 H 0.1496 0.46946 0.94608 0.0
H989 H 0.04518 0.30939 0.95116 0.0
Co990 Co 0.26253 0.4162 0.48617 0.0
C991 C 0.29693 0.34598 0.49468 0.0
C992 C 0.35061 0.4242 0.49861 0.0
C993 C 0.36927 0.39432 0.50278 0.0
N994 N 0.30557 0.39402 0.49343 0.0
N995 N 0.3354 0.34531 0.50038 0.0
H996 H 0.26366 0.3124 0.49142 0.0
H997 H 0.36877 0.46512 0.49937 0.0
C998 C 0.3324 0.51876 0.47635 0.0
O999 O 0.30273 0.5042 0.46728 0.0
N1000 N 0.21807 0.43875 0.47954 0.0
C1001 C 0.17189 0.4099 0.47466 0.0
C1002 C 0.14634 0.43668 0.47458 0.0
C1003 C 0.21873 0.48202 0.48269 0.0
N1004 N 0.17566 0.48199 0.47972 0.0
C1005 C 0.24241 0.36459 0.46405 0.0
C1006 C 0.3427 0.41612 0.45686 0.0
C1007 C 0.30495 0.38572 0.44891 0.0
C1008 C 0.25432 0.35824 0.45277 0.0
C1009 C 0.32913 0.42092 0.46802 0.0
N1010 N 0.27916 0.39876 0.47124 0.0
H1011 H 0.20371 0.34215 0.46694 0.0
H1012 H 0.35911 0.44464 0.47394 0.0
H1013 H 0.15491 0.37024 0.47245 0.0
H1014 H 0.24954 0.51191 0.48753 0.0
O1015 O 0.20229 0.35244 0.49025 0.0
O1016 O 0.23778 0.42196 0.50097 0.0
O1017 O 0.32267 0.48822 0.4848 0.0
C1018 C 0.20025 0.37578 0.49946 0.0
H1019 H 0.40474 0.40742 0.50736 0.0
H1020 H 0.10756 0.42225 0.47171 0.0
H1021 H 0.38234 0.43819 0.45439 0.0
H1022 H 0.22407 0.33274 0.44705 0.0
Co1023 Co 0.6067 0.86057 0.4851 0.0
C1024 C 0.68381 0.96598 0.49239 0.0
C1025 C 0.61976 0.93053 0.5038 0.0
C1026 C 0.65455 0.97695 0.5083 0.0
N1027 N 0.63781 0.9235 0.49382 0.0
N1028 N 0.69457 0.99912 0.50114 0.0
H1029 H 0.70948 0.97168 0.48537 0.0
H1030 H 0.5848 0.90305 0.50788 0.0
C1031 C 0.50481 0.84384 0.49176 0.0
O1032 O 0.50875 0.82335 0.50134 0.0
N1033 N 0.57467 0.79588 0.4768 0.0
C1034 C 0.59822 0.77144 0.4726 0.0
C1035 C 0.56263 0.72126 0.47055 0.0
C1036 C 0.5249 0.75949 0.4773 0.0
N1037 N 0.5166 0.7139 0.47353 0.0
C1038 C 0.65005 0.88797 0.46224 0.0
C1039 C 0.61314 0.95313 0.4578 0.0
C1040 C 0.63142 0.93706 0.4486 0.0
C1041 C 0.65241 0.90601 0.45105 0.0
C1042 C 0.61066 0.9335 0.46877 0.0
N1043 N 0.6261 0.89887 0.47074 0.0
H1044 H 0.66557 0.86354 0.46391 0.0
H1045 H 0.59421 0.94463 0.47561 0.0
H1046 H 0.63893 0.78722 0.47206 0.0
H1047 H 0.49572 0.76441 0.48132 0.0
O1048 O 0.66584 0.85333 0.48812 0.0
O1049 O 0.5971 0.82255 0.49902 0.0
O1050 O 0.54063 0.86073 0.48441 0.0
C1051 C 0.64105 0.82644 0.49704 0.0
H1052 H 0.65133 0.9929 0.51635 0.0
H1053 H 0.57035 0.69177 0.46775 0.0
H1054 H 0.59906 0.97924 0.45648 0.0
H1055 H 0.66822 0.89362 0.4443 0.0
Co1056 Co 0.1565 0.74876 0.4856 0.0
C1057 C 0.04824 0.72199 0.49124 0.0
C1058 C 0.08235 0.69445 0.50329 0.0
C1059 C 0.03513 0.68215 0.5073 0.0
N1060 N 0.09068 0.71884 0.49315 0.0
N1061 N 0.01387 0.69932 0.49974 0.0
H1062 H 0.04287 0.7418 0.4842 0.0
H1063 H 0.10964 0.68728 0.50763 0.0
C1064 C 0.12212 0.63821 0.48645 0.0
O1065 O 0.07742 0.63 0.48297 0.0
N1066 N 0.22328 0.77857 0.4789 0.0
C1067 C 0.24228 0.81009 0.46982 0.0
C1068 C 0.29423 0.82897 0.46943 0.0
C1069 C 0.2633 0.77883 0.48391 0.0
N1070 N 0.30719 0.80974 0.47841 0.0
C1071 C 0.09987 0.7454 0.4652 0.0
C1072 C 0.12161 0.68054 0.45296 0.0
C1073 C 0.09122 0.69762 0.44785 0.0
C1074 C 0.08125 0.73142 0.45398 0.0
C1075 C 0.14032 0.69634 0.46401 0.0
N1076 N 0.12695 0.72588 0.47032 0.0
H1077 H 0.09439 0.77362 0.46956 0.0
H1078 H 0.167 0.68584 0.46732 0.0
H1079 H 0.22039 0.82031 0.46422 0.0
H1080 H 0.26038 0.75793 0.49166 0.0
O1081 O 0.16241 0.81521 0.48582 0.0
O1082 O 0.18799 0.78388 0.49977 0.0
O1083 O 0.15824 0.68372 0.48826 0.0
C1084 C 0.18512 0.82232 0.49568 0.0
H1085 H 0.01792 0.66293 0.51528 0.0
H1086 H 0.32071 0.85646 0.46336 0.0
H1087 H 0.13261 0.65676 0.44825 0.0
H1088 H 0.05996 0.74741 0.45007 0.0
Co1089 Co 0.0866 0.59542 0.36245 0.0
C1090 C 0.01127 0.62663 0.35463 0.0
C1091 C 0.08043 0.65974 0.34486 0.0
C1092 C 0.04787 0.67293 0.33979 0.0
N1093 N 0.05821 0.63153 0.35431 0.0
N1094 N 1.00466 0.65222 0.34594 0.0
H1095 H 0.98131 0.6025 0.36047 0.0
H1096 H 0.11713 0.66816 0.34156 0.0
C1097 C 0.17066 0.70351 0.36325 0.0
O1098 O 0.1358 0.71579 0.3656 0.0
N1099 N 0.11545 0.55881 0.36982 0.0
C1100 C 0.09324 0.52176 0.37771 0.0
C1101 C 0.12181 0.49822 0.37881 0.0
C1102 C 0.15688 0.55741 0.36622 0.0
N1103 N 0.16173 0.52038 0.37151 0.0
C1104 C 0.02979 0.60253 0.38183 0.0
C1105 C 0.11414 0.6567 0.3957 0.0
C1106 C 0.06628 0.64406 0.39997 0.0
C1107 C 0.02345 0.61582 0.39301 0.0
C1108 C 0.11858 0.64174 0.38468 0.0
N1109 N 0.07723 0.61745 0.37759 0.0
H1110 H 0.99643 0.5783 0.37683 0.0
H1111 H 0.15551 0.6485 0.38202 0.0
H1112 H 0.05738 0.51084 0.38189 0.0
H1113 H 0.18176 0.58223 0.35961 0.0
O1114 O 0.02294 0.53205 0.36099 0.0
O1115 O 0.08541 0.5621 0.34824 0.0
O1116 O 0.15723 0.65699 0.36123 0.0
C1117 C 0.0412 0.5251 0.35148 0.0
H1118 H 0.05452 0.6945 0.33195 0.0
H1119 H 0.11235 0.4656 0.38419 0.0
H1120 H 0.14781 0.67627 0.40103 0.0
H1121 H 0.98556 0.60347 0.39623 0.0
Co1122 Co 0.41858 0.48186 0.36268 0.0
C1123 C 0.39288 0.37507 0.35619 0.0
C1124 C 0.34406 0.3986 0.34838 0.0
C1125 C 0.33006 0.35074 0.34447 0.0
N1126 N 0.38211 0.41347 0.35612 0.0
N1127 N 0.36058 0.33604 0.3494 0.0
H1128 H 0.42482 0.37627 0.36059 0.0
H1129 H 0.32864 0.42175 0.34534 0.0
C1130 C 0.31106 0.45717 0.36519 0.0
O1131 O 0.30188 0.41402 0.36989 0.0
N1132 N 0.45496 0.55086 0.36835 0.0
C1133 C 0.49299 0.57132 0.37609 0.0
C1134 C 0.51103 0.62305 0.37665 0.0
C1135 C 0.45068 0.58998 0.36422 0.0
N1136 N 0.48421 0.63452 0.36918 0.0
C1137 C 0.40479 0.41872 0.38294 0.0
C1138 C 0.36637 0.46607 0.39663 0.0
C1139 C 0.36837 0.4243 0.4011 0.0
C1140 C 0.38856 0.40087 0.39414 0.0
C1141 C 0.38244 0.48225 0.38545 0.0
N1142 N 0.3995 0.45751 0.37851 0.0
H1143 H 0.42193 0.40152 0.37797 0.0
H1144 H 0.38002 0.51444 0.38229 0.0
H1145 H 0.50742 0.55035 0.38075 0.0
H1146 H 0.42403 0.58596 0.35757 0.0
O1147 O 0.48264 0.4829 0.36155 0.0
O1148 O 0.44937 0.50774 0.34785 0.0
O1149 O 0.35535 0.48817 0.36121 0.0
C1150 C 0.48781 0.50371 0.35149 0.0
H1151 H 0.30083 0.32893 0.33819 0.0
H1152 H 0.54269 0.65025 0.3818 0.0
H1153 H 0.35256 0.48644 0.40175 0.0
H1154 H 0.39139 0.36875 0.39725 0.0
Co1155 Co 0.52828 0.93458 0.36342 0.0
C1156 C 0.63295 0.0101 0.35566 0.0
C1157 C 0.5989 0.94174 0.34552 0.0
C1158 C 0.64521 0.97533 0.3408 0.0
N1159 N 0.59111 0.96331 0.35483 0.0
N1160 N 0.6664 0.01806 0.34716 0.0
H1161 H 0.63795 0.03817 0.36204 0.0
H1162 H 0.57206 0.90498 0.34205 0.0
C1163 C 0.50558 0.82962 0.35746 0.0
O1164 O 0.48566 0.83345 0.34777 0.0
N1165 N 0.46392 0.90449 0.37162 0.0
C1166 C 0.44652 0.92632 0.37909 0.0
C1167 C 0.39475 0.89512 0.3804 0.0
C1168 C 0.42207 0.86083 0.3684 0.0
N1169 N 0.37952 0.85402 0.37364 0.0
C1170 C 0.56627 0.99159 0.3846 0.0
C1171 C 0.61037 0.93694 0.39267 0.0
C1172 C 0.60293 0.96817 0.40032 0.0
C1173 C 0.58287 0.99772 0.39602 0.0
C1174 C 0.59269 0.93155 0.3814 0.0
N1175 N 0.56689 0.9553 0.37779 0.0
H1176 H 0.55092 0.0145 0.38138 0.0
H1177 H 0.59855 0.90679 0.37576 0.0
H1178 H 0.46811 0.96404 0.38262 0.0
H1179 H 0.42172 0.83717 0.36147 0.0
O1180 O 0.52184 0.99404 0.36002 0.0
O1181 O 0.49099 0.92465 0.34939 0.0
O1182 O 0.52548 0.86706 0.36441 0.0
C1183 C 0.49507 0.96879 0.35112 0.0
H1184 H 0.66173 0.96945 0.33314 0.0
H1185 H 0.36983 0.90352 0.38542 0.0
H1186 H 0.6272 0.91466 0.39552 0.0
H1187 H 0.57862 0.0241 0.40153 0.0
C1188 C 0.13417 0.09795 0.19929 0.0
C1189 C 0.17164 0.14951 0.20036 0.0
C1190 C 0.1475 0.06067 0.19705 0.0
C1191 C 0.19883 0.07377 0.19573 0.0
H1192 H 0.09444 0.08625 0.20055 0.0
H1193 H 0.11742 0.0212 0.19673 0.0
S1194 S 0.31044 0.20486 0.19598 0.0
N1195 N 0.26133 0.21259 0.1987 0.0
N1196 N 0.28674 0.1429 0.1945 0.0
C1197 C 0.23638 0.12566 0.19621 0.0
C1198 C 0.22272 0.16345 0.19853 0.0
C1199 C 0.92189 0.08939 0.19389 0.0
C1200 C 0.93335 0.12505 0.2027 0.0
C1201 C 0.883 0.03853 0.19523 0.0
C1202 C 0.85488 0.02137 0.20551 0.0
H1203 H 0.94217 0.10117 0.18582 0.0
H1204 H 0.87428 0.01284 0.18806 0.0
S1205 S 0.87661 0.09901 0.23179 0.0
N1206 N 0.91704 0.13946 0.22233 0.0
N1207 N 0.84602 0.04369 0.2251 0.0
C1208 C 0.86797 0.05652 0.21457 0.0
C1209 C 0.9067 0.10838 0.2131 0.0
C1210 C 0.89319 0.77856 0.20342 0.0
C1211 C 0.87862 0.81444 0.20039 0.0
C1212 C 0.94447 0.79283 0.20493 0.0
C1213 C 0.98349 0.84356 0.20345 0.0
H1214 H 0.86476 0.73897 0.20474 0.0
H1215 H 0.95367 0.7638 0.20723 0.0
S1216 S 0.96657 0.95283 0.19577 0.0
N1217 N 0.90817 0.90346 0.19602 0.0
N1218 N 1.0044 0.93007 0.19897 0.0
C1219 C 0.96981 0.87986 0.20033 0.0
C1220 C 0.91748 0.86537 0.19877 0.0
C1221 C 0.13631 0.23512 0.31977 0.0
C1222 C 0.08417 0.19807 0.31953 0.0
C1223 C 0.17386 0.22273 0.31705 0.0
C1224 C 0.16077 0.17281 0.314 0.0
H1225 H 0.1483 0.27426 0.32195 0.0
H1226 H 0.21347 0.25239 0.31737 0.0
S1227 S 0.03032 0.06203 0.31149 0.0
N1228 N 0.02174 0.10914 0.31571 0.0
N1229 N 0.09254 0.08645 0.31056 0.0
C1230 C 0.10905 0.1353 0.3138 0.0
C1231 C 0.07072 0.14775 0.31657 0.0
C1232 C 0.87874 0.92471 0.3181 0.0
C1233 C 0.83811 0.88493 0.31217 0.0
C1234 C 0.88768 0.97473 0.31736 0.0
C1235 C 0.85616 0.9866 0.31068 0.0
H1236 H 0.90531 0.91762 0.32283 0.0
H1237 H 0.92082 0.0045 0.32167 0.0
S1238 S 0.73986 0.89307 0.29499 0.0
N1239 N 0.76362 0.85888 0.30027 0.0
N1240 N 0.77841 0.95205 0.29931 0.0
C1241 C 0.81334 0.94604 0.30534 0.0
C1242 C 0.80487 0.89542 0.30597 0.0
C1243 C 0.10654 0.9222 0.3007 0.0
C1244 C 0.11864 0.96008 0.30897 0.0
C1245 C 0.05766 0.87934 0.30008 0.0
C1246 C 0.01812 0.87323 0.30749 0.0
H1247 H 0.13519 0.92581 0.29462 0.0
H1248 H 0.05105 0.85104 0.29365 0.0
S1249 S 0.03152 0.96445 0.33052 0.0
N1250 N 0.0889 0.98966 0.32483 0.0
N1251 N 0.99591 0.91131 0.32333 0.0
C1252 C 0.03031 0.9115 0.31586 0.0
C1253 C 0.08078 0.9544 0.31667 0.0
C1254 C 0.76528 0.87625 0.81952 0.0
C1255 C 0.80094 0.92693 0.82245 0.0
C1256 C 0.78073 0.84093 0.81683 0.0
C1257 C 0.83245 0.85472 0.81698 0.0
H1258 H 0.72512 0.86394 0.81894 0.0
H1259 H 0.75193 0.80257 0.81452 0.0
S1260 S 0.94118 0.98166 0.82457 0.0
N1261 N 0.89052 0.988 0.82595 0.0
N1262 N 0.91932 0.92214 0.82053 0.0
C1263 C 0.86841 0.90466 0.82025 0.0
C1264 C 0.85272 0.94056 0.82308 0.0
C1265 C 0.14405 0.94981 0.80298 0.0
C1266 C 0.14752 0.98906 0.81004 0.0
C1267 C 0.10713 0.89885 0.80486 0.0
C1268 C 0.07146 0.88473 0.81381 0.0
H1269 H 0.17041 0.95853 0.79595 0.0
H1270 H 0.10644 0.87028 0.79917 0.0
S1271 S 0.06322 0.9719 0.83485 0.0
N1272 N 0.11184 0.00957 0.82658 0.0
N1273 N 0.04108 0.91384 0.82973 0.0
C1274 C 0.07338 0.92338 0.82079 0.0
C1275 C 0.11166 0.97548 0.819 0.0
C1276 C 0.07419 0.14992 0.82948 0.0
C1277 C 0.11099 0.15809 0.82117 0.0
C1278 C 0.02658 0.14306 0.82634 0.0
C1279 C 0.01353 0.1434 0.81475 0.0
H1280 H 0.08224 0.14901 0.8385 0.0
H1281 H 0.99985 0.13759 0.8331 0.0
S1282 S 0.09566 0.16073 0.78961 0.0
N1283 N 0.13105 0.16535 0.80079 0.0
N1284 N 0.04101 0.15086 0.79492 0.0
C1285 C 0.05001 0.15145 0.80634 0.0
C1286 C 0.0988 0.15909 0.80954 0.0
C1287 C 0.91985 0.81722 0.70976 0.0
C1288 C 0.94666 0.82561 0.69945 0.0
C1289 C 0.88353 0.83233 0.71108 0.0
C1290 C 0.87145 0.85529 0.70204 0.0
H1291 H 0.92748 0.79934 0.71695 0.0
H1292 H 0.8649 0.82592 0.71931 0.0
S1293 S 0.93058 0.88342 0.67301 0.0
N1294 N 0.95991 0.85834 0.68006 0.0
N1295 N 0.88924 0.88399 0.68212 0.0
C1296 C 0.89826 0.86371 0.6916 0.0
C1297 C 0.93641 0.84949 0.69041 0.0
C1298 C 0.22673 0.07259 0.7038 0.0
C1299 C 0.17857 0.03244 0.70054 0.0
C1300 C 0.23995 0.12354 0.70233 0.0
C1301 C 0.20569 0.13682 0.69749 0.0
H1302 H 0.25466 0.06473 0.70758 0.0
H1303 H 0.27719 0.15269 0.70524 0.0
S1304 S 0.07626 0.04662 0.68653 0.0
N1305 N 0.09704 0.00981 0.69175 0.0
N1306 N 0.1227 0.10559 0.68863 0.0
C1307 C 0.15809 0.09723 0.69375 0.0
C1308 C 0.14436 0.04512 0.69535 0.0
C1309 C 0.9034 0.13621 0.69486 0.0
C1310 C 0.88733 0.08384 0.69479 0.0
C1311 C 0.95387 0.17283 0.69753 0.0
C1312 C 0.9901 0.15842 0.70016 0.0
H1313 H 0.87668 0.14905 0.69297 0.0
H1314 H 0.96476 0.21271 0.69752 0.0
S1315 S 0.96761 0.02699 0.70208 0.0
N1316 N 0.91223 0.01996 0.69814 0.0
N1317 N 0.00669 0.08902 0.70306 0.0
C1318 C 0.97491 0.10659 0.7001 0.0
C1319 C 0.92364 0.06925 0.69744 0.0
C1320 C 0.87827 0.48497 0.54345 0.0
C1321 C 0.84638 0.49024 0.53548 0.0
C1322 C 0.88944 0.44559 0.54255 0.0
C1323 C 0.86875 0.40924 0.53372 0.0
H1324 H 0.89451 0.51134 0.55054 0.0
H1325 H 0.9141 0.44332 0.54896 0.0
S1326 S 0.78512 0.40661 0.51024 0.0
N1327 N 0.79617 0.45658 0.51803 0.0
N1328 N 0.81573 0.38131 0.51666 0.0
C1329 C 0.83657 0.41357 0.52569 0.0
C1330 C 0.82573 0.45432 0.52649 0.0
C1331 C 0.59628 0.36242 0.54458 0.0
C1332 C 0.54992 0.35325 0.53989 0.0
C1333 C 0.63929 0.41123 0.54424 0.0
C1334 C 0.6374 0.45192 0.53893 0.0
H1335 H 0.59887 0.33175 0.54868 0.0
H1336 H 0.67433 0.41711 0.54809 0.0
S1337 S 0.5245 0.44616 0.52514 0.0
N1338 N 0.50403 0.38753 0.52974 0.0
N1339 N 0.58523 0.4794 0.52879 0.0
C1340 C 0.5913 0.44273 0.53399 0.0
C1341 C 0.54734 0.39325 0.53456 0.0
C1342 C 0.63957 0.20454 0.53105 0.0
C1343 C 0.65357 0.16719 0.53235 0.0
C1344 C 0.58889 0.19108 0.5289 0.0
C1345 C 0.55024 0.13965 0.52788 0.0
H1346 H 0.66778 0.2444 0.53209 0.0
H1347 H 0.57989 0.22135 0.52836 0.0
S1348 S 0.56926 0.02786 0.52888 0.0
N1349 N 0.6264 0.07721 0.53129 0.0
N1350 N 0.53105 0.0515 0.52723 0.0
C1351 C 0.56444 0.10205 0.52859 0.0
C1352 C 0.61608 0.11589 0.53084 0.0
C1353 C 0.71509 0.44944 0.63742 0.0
C1354 C 0.71557 0.49055 0.64316 0.0
C1355 C 0.7587 0.44459 0.63695 0.0
C1356 C 0.80462 0.48141 0.64193 0.0
H1357 H 0.68074 0.42083 0.63321 0.0
H1358 H 0.75702 0.41266 0.6324 0.0
S1359 S 0.8259 0.5952 0.65829 0.0
N1360 N 0.76559 0.56769 0.6543 0.0
N1361 N 0.84785 0.5591 0.65316 0.0
C1362 C 0.80555 0.52224 0.64784 0.0
C1363 C 0.76089 0.52664 0.64854 0.0
C1364 C 0.45047 0.2301 0.64086 0.0
C1365 C 0.47133 0.21523 0.64978 0.0
C1366 C 0.46472 0.28127 0.63925 0.0
C1367 C 0.49977 0.31977 0.6466 0.0
H1368 H 0.42391 0.20213 0.63486 0.0
H1369 H 0.44854 0.29075 0.63204 0.0
S1370 S 0.56188 0.29932 0.67195 0.0
N1371 N 0.5274 0.24205 0.6663 0.0
N1372 N 0.55231 0.33807 0.66373 0.0
C1373 C 0.52005 0.30504 0.65576 0.0
C1374 C 0.50625 0.25284 0.65724 0.0
C1375 C 0.72399 0.24041 0.6391 0.0
C1376 C 0.69099 0.20002 0.64621 0.0
C1377 C 0.77341 0.27577 0.64274 0.0
C1378 C 0.79183 0.27129 0.65354 0.0
H1379 H 0.71097 0.24524 0.6308 0.0
H1380 H 0.79738 0.30673 0.63701 0.0
S1381 S 0.72034 0.16933 0.67495 0.0
N1382 N 0.67991 0.15583 0.66424 0.0
N1383 N 0.77305 0.22148 0.67108 0.0
C1384 C 0.75933 0.22994 0.66058 0.0
C1385 C 0.70881 0.19453 0.65692 0.0
C1386 C 0.47881 0.20159 0.14422 0.0
C1387 C 0.52757 0.20775 0.14261 0.0
C1388 C 0.47199 0.24402 0.14509 0.0
C1389 C 0.51365 0.29365 0.14412 0.0
H1390 H 0.44588 0.16373 0.14477 0.0
H1391 H 0.43385 0.23798 0.1461 0.0
S1392 S 0.64883 0.3301 0.13999 0.0
N1393 N 0.61801 0.2672 0.14037 0.0
N1394 N 0.60506 0.34678 0.14164 0.0
C1395 C 0.5625 0.30025 0.14263 0.0
C1396 C 0.56954 0.25728 0.14199 0.0
C1397 C 0.76693 0.3004 0.14662 0.0
C1398 C 0.81885 0.31566 0.14581 0.0
C1399 C 0.73036 0.24985 0.14924 0.0
C1400 C 0.74437 0.2126 0.1512 0.0
H1401 H 0.75444 0.32753 0.14492 0.0
H1402 H 0.6907 0.23967 0.14938 0.0
S1403 S 0.8765 0.23525 0.1518 0.0
N1404 N 0.88312 0.29109 0.14842 0.0
N1405 N 0.81468 0.19614 0.15322 0.0
C1406 C 0.79654 0.2281 0.15093 0.0
C1407 C 0.83369 0.27954 0.14826 0.0
C1408 C 0.69232 0.47616 0.16022 0.0
C1409 C 0.68273 0.48621 0.149 0.0
C1410 C 0.73846 0.47865 0.16308 0.0
C1411 C 0.7767 0.49107 0.15481 0.0
H1412 H 0.66403 0.46664 0.16686 0.0
H1413 H 0.74413 0.47087 0.17186 0.0
S1414 S 0.76797 0.51659 0.12396 0.0
N1415 N 0.71365 0.50652 0.12948 0.0
N1416 N 0.80029 0.51109 0.1347 0.0
C1417 C 0.76713 0.50066 0.1435 0.0
C1418 C 0.72023 0.49831 0.14064 0.0
C1419 C 0.54604 0.10835 0.02955 0.0
C1420 C 0.59823 0.14497 0.03002 0.0
C1421 C 0.50869 0.12083 0.03238 0.0
C1422 C 0.52201 0.17043 0.03581 0.0
H1423 H 0.53382 0.06944 0.0271 0.0
H1424 H 0.46903 0.09143 0.03186 0.0
S1425 S 0.65271 0.28013 0.03889 0.0
N1426 N 0.66104 0.23323 0.03437 0.0
N1427 N 0.59052 0.25613 0.03972 0.0
C1428 C 0.5738 0.2076 0.03619 0.0
C1429 C 0.61197 0.19504 0.03329 0.0
C1430 C 0.79865 0.41371 0.03188 0.0
C1431 C 0.83761 0.45352 0.03815 0.0
C1432 C 0.7913 0.36427 0.03245 0.0
C1433 C 0.82283 0.35301 0.0393 0.0
H1434 H 0.77229 0.42029 0.02692 0.0
H1435 H 0.75943 0.33447 0.02782 0.0
S1436 S 0.93526 0.44731 0.05598 0.0
N1437 N 0.91056 0.48053 0.05062 0.0
N1438 N 0.89888 0.38851 0.05129 0.0
C1439 C 0.86397 0.39374 0.04505 0.0
C1440 C 0.87076 0.44377 0.04459 0.0
C1441 C 0.61686 0.4654 0.04726 0.0
C1442 C 0.65727 0.46932 0.0405 0.0
C1443 C 0.56779 0.42286 0.0466 0.0
C1444 C 0.55648 0.38313 0.03889 0.0
H1445 H 0.62306 0.49514 0.05326 0.0
H1446 H 0.53846 0.4208 0.05225 0.0
S1447 S 0.64629 0.37309 0.01909 0.0
N1448 N 0.68127 0.42761 0.02585 0.0
N1449 N 0.58807 0.34967 0.0242 0.0
C1450 C 0.59531 0.38678 0.03176 0.0
C1451 C 0.6459 0.42941 0.03264 0.0
C1452 C 0.56912 0.7968 0.85813 0.0
C1453 C 0.53379 0.74448 0.85939 0.0
C1454 C 0.55587 0.83387 0.86077 0.0
C1455 C 0.5068 0.8199 0.86469 0.0
H1456 H 0.60758 0.80931 0.85528 0.0
H1457 H 0.5841 0.87372 0.85975 0.0
S1458 S 0.40136 0.6893 0.87033 0.0
N1459 N 0.44773 0.68132 0.86532 0.0
N1460 N 0.42364 0.75131 0.8702 0.0
C1461 C 0.47109 0.76813 0.86593 0.0
C1462 C 0.48436 0.73033 0.86329 0.0
C1463 C 0.22245 0.77469 0.87358 0.0
C1464 C 0.26784 0.78851 0.86758 0.0
C1465 C 0.18616 0.72364 0.87558 0.0
C1466 C 0.19347 0.68387 0.8717 0.0
H1467 H 0.2148 0.80354 0.8769 0.0
H1468 H 0.15182 0.71539 0.88014 0.0
S1469 S 0.30497 0.6991 0.85518 0.0
N1470 N 0.31725 0.75792 0.85738 0.0
N1471 N 0.24973 0.66192 0.86144 0.0
C1472 C 0.23841 0.69697 0.86555 0.0
C1473 C 0.27538 0.7492 0.86344 0.0
C1474 C 0.31091 0.55181 0.86392 0.0
C1475 C 0.32352 0.52306 0.87137 0.0
C1476 C 0.26091 0.5431 0.86323 0.0
C1477 C 0.22199 0.50551 0.86998 0.0
H1478 H 0.34013 0.58266 0.85894 0.0
H1479 H 0.25324 0.56755 0.85783 0.0
S1480 S 0.23206 0.41432 0.88936 0.0
N1481 N 0.29033 0.45045 0.88436 0.0
N1482 N 0.19744 0.43631 0.88345 0.0
C1483 C 0.2332 0.47484 0.87697 0.0
C1484 C 0.28369 0.48298 0.87755 0.0
C1485 C 0.40846 0.82649 0.98837 0.0
C1486 C 0.394 0.84687 0.97929 0.0
C1487 C 0.44492 0.81143 0.98674 0.0
C1488 C 0.46734 0.81524 0.97591 0.0
H1489 H 0.39276 0.82374 0.99686 0.0
H1490 H 0.45653 0.79805 0.99411 0.0
S1491 S 0.43524 0.85864 0.949 0.0
N1492 N 0.40105 0.86628 0.95896 0.0
N1493 N 0.46703 0.83529 0.95569 0.0
C1494 C 0.45078 0.83309 0.96664 0.0
C1495 C 0.41473 0.84954 0.96839 0.0
C1496 C 0.17986 0.62877 0.98913 0.0
C1497 C 0.16498 0.64479 0.97924 0.0
C1498 C 0.16825 0.57798 0.99046 0.0
C1499 C 0.14056 0.54131 0.98203 0.0
H1500 H 0.19974 0.65538 0.99601 0.0
H1501 H 0.17991 0.56708 0.99823 0.0
S1502 S 0.09882 0.5644 0.95389 0.0
N1503 N 0.12615 0.6204 0.96032 0.0
N1504 N 0.10237 0.52493 0.96308 0.0
C1505 C 0.12664 0.55693 0.972 0.0
C1506 C 0.13929 0.60864 0.97053 0.0
C1507 C 0.42157 0.60637 0.98702 0.0
C1508 C 0.45962 0.59285 0.98809 0.0
C1509 C 0.37137 0.57012 0.98415 0.0
C1510 C 0.35731 0.51911 0.98215 0.0
H1511 H 0.43079 0.64556 0.98805 0.0
H1512 H 0.3436 0.58233 0.98314 0.0
S1513 S 0.43977 0.46206 0.98539 0.0
N1514 N 0.4779 0.52324 0.98802 0.0
N1515 N 0.38343 0.45548 0.9826 0.0
C1516 C 0.39404 0.50442 0.9837 0.0
C1517 C 0.44516 0.54118 0.98671 0.0
C1518 C 0.11397 0.56233 0.4763 0.0
C1519 C 0.13418 0.59685 0.48548 0.0
C1520 C 0.12781 0.52521 0.47453 0.0
C1521 C 0.16183 0.52047 0.48196 0.0
H1522 H 0.0885 0.56504 0.4702 0.0
H1523 H 0.11245 0.50069 0.46712 0.0
S1524 S 0.22082 0.59862 0.50807 0.0
N1525 N 0.18781 0.62298 0.5024 0.0
N1526 N 0.21178 0.55136 0.49954 0.0
C1527 C 0.18097 0.55387 0.49144 0.0
C1528 C 0.16763 0.59248 0.49307 0.0
C1529 C 0.47062 0.6227 0.47881 0.0
C1530 C 0.47 0.66577 0.4745 0.0
C1531 C 0.42556 0.57552 0.47983 0.0
C1532 C 0.37857 0.56962 0.47634 0.0
H1533 H 0.50618 0.62565 0.48148 0.0
H1534 H 0.42773 0.54315 0.48304 0.0
S1535 S 0.35607 0.67086 0.46497 0.0
N1536 N 0.41816 0.69983 0.46718 0.0
N1537 N 0.33366 0.61095 0.46882 0.0
C1538 C 0.37732 0.61245 0.47216 0.0
C1539 C 0.42298 0.66062 0.47133 0.0
C1540 C 0.39309 0.82568 0.47362 0.0
C1541 C 0.35758 0.8218 0.48186 0.0
C1542 C 0.44126 0.8343 0.47689 0.0
C1543 C 0.45552 0.8392 0.48853 0.0
H1544 H 0.38296 0.82053 0.46462 0.0
H1545 H 0.46684 0.8355 0.47026 0.0
S1546 S 0.37894 0.83947 0.51326 0.0
N1547 N 0.34188 0.82912 0.50202 0.0
N1548 N 0.43198 0.84421 0.50819 0.0
C1549 C 0.42105 0.83734 0.49681 0.0
C1550 C 0.37218 0.82893 0.49347 0.0
C1551 C 0.24603 0.46417 0.37671 0.0
C1552 C 0.27294 0.47345 0.36637 0.0
C1553 C 0.21053 0.48026 0.37832 0.0
C1554 C 0.19959 0.50539 0.36957 0.0
H1555 H 0.25325 0.44525 0.38374 0.0
H1556 H 0.19191 0.47329 0.38657 0.0
S1557 S 0.25782 0.53505 0.34046 0.0
N1558 N 0.28628 0.50817 0.34716 0.0
N1559 N 0.21729 0.53582 0.34979 0.0
C1560 C 0.22589 0.51405 0.35905 0.0
C1561 C 0.26308 0.4987 0.35755 0.0
C1562 C 0.49014 0.74294 0.35226 0.0
C1563 C 0.50206 0.78058 0.36066 0.0
C1564 C 0.48492 0.69565 0.3551 0.0
C1565 C 0.4913 0.68402 0.36644 0.0
H1566 H 0.48482 0.74996 0.3434 0.0
H1567 H 0.4761 0.66804 0.34833 0.0
S1568 S 0.51981 0.76794 0.39178 0.0
N1569 N 0.51848 0.80216 0.38093 0.0
N1570 N 0.50824 0.71315 0.3862 0.0
C1571 C 0.50308 0.72113 0.37494 0.0
C1572 C 0.5085 0.76939 0.37206 0.0
C1573 C 0.28959 0.82903 0.37027 0.0
C1574 C 0.32791 0.81594 0.37086 0.0
C1575 C 0.23937 0.79279 0.36742 0.0
C1576 C 0.22528 0.74186 0.36506 0.0
H1577 H 0.29856 0.86777 0.37193 0.0
H1578 H 0.21128 0.80486 0.36721 0.0
S1579 S 0.3118 0.68813 0.36554 0.0
N1580 N 0.34867 0.74867 0.36895 0.0
N1581 N 0.2546 0.68055 0.36344 0.0
C1582 C 0.26358 0.72846 0.36546 0.0
C1583 C 0.31474 0.76545 0.36841 0.0
C1584 C 0.2426 0.30164 0.16464 0.0
C1585 C 0.28749 0.34613 0.16777 0.0
C1586 C 0.1953 0.29055 0.16914 0.0
C1587 C 0.1912 0.323 0.17719 0.0
H1588 H 0.24461 0.27394 0.15914 0.0
H1589 H 0.16233 0.25441 0.16688 0.0
S1590 S 0.29761 0.44691 0.1873 0.0
N1591 N 0.32498 0.42497 0.17854 0.0
N1592 N 0.23625 0.4041 0.18725 0.0
C1593 C 0.23561 0.36935 0.17981 0.0
C1594 C 0.28375 0.3809 0.17505 0.0
C1595 C 0.63788 0.88144 0.18557 0.0
C1596 C 0.66974 0.86873 0.17934 0.0
C1597 C 0.62681 0.91842 0.18154 0.0
C1598 C 0.64605 0.94319 0.17102 0.0
H1599 H 0.62441 0.86559 0.19403 0.0
H1600 H 0.60515 0.9297 0.18696 0.0
S1601 S 0.72563 0.9196 0.15071 0.0
N1602 N 0.71656 0.88093 0.16157 0.0
N1603 N 0.69446 0.94963 0.15397 0.0
C1604 C 0.67444 0.92812 0.16428 0.0
C1605 C 0.68658 0.89106 0.16845 0.0
C1606 C 0.10658 0.79532 0.16873 0.0
C1607 C 0.13133 0.80136 0.17934 0.0
C1608 C 0.07084 0.74684 0.16458 0.0
C1609 C 0.05858 0.70292 0.17092 0.0
H1610 H 0.11268 0.82837 0.16388 0.0
H1611 H 0.05013 0.74381 0.15677 0.0
S1612 S 0.11577 0.69658 0.19845 0.0
N1613 N 0.14401 0.75803 0.19551 0.0
N1614 N 0.0762 0.66742 0.18771 0.0
C1615 C 0.08523 0.70798 0.1811 0.0
C1616 C 0.12194 0.7571 0.1853 0.0
C1617 C 0.3867 0.28453 0.33814 0.0
C1618 C 0.35836 0.28847 0.34718 0.0
C1619 C 0.3745 0.23676 0.33362 0.0
C1620 C 0.33308 0.19141 0.33791 0.0
H1621 H 0.41603 0.31872 0.33404 0.0
H1622 H 0.39535 0.2358 0.32617 0.0
S1623 S 0.25115 0.18227 0.3625 0.0
N1624 N 0.29062 0.24398 0.36093 0.0
N1625 N 0.26743 0.15405 0.35261 0.0
C1626 C 0.30707 0.19507 0.34755 0.0
C1627 C 0.31967 0.24368 0.35211 0.0
C1628 C 0.75803 0.07267 0.35063 0.0
C1629 C 0.71403 0.06281 0.3446 0.0
C1630 C 0.80661 0.10724 0.34635 0.0
C1631 C 0.81269 0.13311 0.33589 0.0
H1632 H 0.75481 0.05088 0.35826 0.0
H1633 H 0.83956 0.11152 0.35095 0.0
S1634 S 0.70803 0.12372 0.31763 0.0
N1635 N 0.6787 0.08381 0.3283 0.0
N1636 N 0.76957 0.14946 0.32025 0.0
C1637 C 0.76855 0.12612 0.33027 0.0
C1638 C 0.71929 0.09065 0.33461 0.0
C1639 C 0.91261 0.69983 0.34423 0.0
C1640 C 0.88614 0.67743 0.33397 0.0
C1641 C 0.94883 0.6884 0.34865 0.0
C1642 C 0.95995 0.65445 0.34294 0.0
H1643 H 0.90703 0.72814 0.34861 0.0
H1644 H 0.97047 0.70842 0.35619 0.0
S1645 S 0.89926 0.58239 0.31645 0.0
N1646 N 0.87145 0.6165 0.31876 0.0
N1647 N 0.94025 0.59622 0.32705 0.0
C1648 C 0.93216 0.62984 0.33307 0.0
C1649 C 0.89493 0.64092 0.32861 0.0
C1650 C 0.76836 0.63694 0.83146 0.0
C1651 C 0.81172 0.67532 0.83711 0.0
C1652 C 0.71918 0.62412 0.83495 0.0
C1653 C 0.71135 0.64824 0.84436 0.0
H1654 H 0.77224 0.61924 0.82376 0.0
H1655 H 0.68698 0.59715 0.82988 0.0
S1656 S 0.81078 0.74554 0.86312 0.0
N1657 N 0.84291 0.73336 0.85341 0.0
N1658 N 0.74994 0.70815 0.85999 0.0
C1659 C 0.75376 0.6832 0.85071 0.0
C1660 C 0.80412 0.69695 0.84709 0.0
C1661 C 0.28598 0.08995 0.84528 0.0
C1662 C 0.32035 0.1281 0.83776 0.0
C1663 C 0.29568 0.05256 0.84956 0.0
C1664 C 0.34051 0.05249 0.84672 0.0
H1665 H 0.24972 0.08686 0.84733 0.0
H1666 H 0.26691 0.02199 0.85471 0.0
S1667 S 0.44546 0.14626 0.82851 0.0
N1668 N 0.40318 0.16544 0.82843 0.0
N1669 N 0.42137 0.09514 0.83676 0.0
C1670 C 0.3769 0.09214 0.83994 0.0
C1671 C 0.36685 0.13004 0.8354 0.0
C1672 C 0.88948 0.24493 0.82716 0.0
C1673 C 0.87031 0.20237 0.83446 0.0
C1674 C 0.92632 0.29345 0.83101 0.0
C1675 C 0.94447 0.30146 0.84236 0.0
H1676 H 0.87865 0.24026 0.8182 0.0
H1677 H 0.94239 0.32469 0.82495 0.0
S1678 S 0.9025 0.20419 0.86524 0.0
N1679 N 0.86938 0.17234 0.85386 0.0
N1680 N 0.93783 0.26401 0.86108 0.0
C1681 C 0.92303 0.26015 0.84996 0.0
C1682 C 0.88616 0.21047 0.84601 0.0
C1683 C 0.70754 0.76106 0.66461 0.0
C1684 C 0.66709 0.71601 0.66904 0.0
C1685 C 0.71758 0.80878 0.66863 0.0
C1686 C 0.68818 0.8133 0.67745 0.0
H1687 H 0.73274 0.75915 0.65831 0.0
H1688 H 0.75051 0.84225 0.66521 0.0
S1689 S 0.57583 0.70565 0.69139 0.0
N1690 N 0.59561 0.67801 0.68213 0.0
N1691 N 0.61468 0.76761 0.68996 0.0
C1692 C 0.64604 0.76822 0.68157 0.0
C1693 C 0.63554 0.71958 0.67733 0.0
C1694 C 0.25026 0.88515 0.68405 0.0
C1695 C 0.20566 0.87201 0.67778 0.0
C1696 C 0.29825 0.92167 0.67992 0.0
C1697 C 0.30354 0.94537 0.66927 0.0
H1698 H 0.24795 0.87038 0.69262 0.0
H1699 H 0.33126 0.93384 0.68538 0.0
S1700 S 0.20032 0.91927 0.64875 0.0
N1701 N 0.1708 0.88179 0.65978 0.0
N1702 N 0.26156 0.94977 0.65201 0.0
C1703 C 0.26012 0.92937 0.66246 0.0
C1704 C 0.211 0.89276 0.66671 0.0
C1705 C 0.11154 0.31832 0.66979 0.0
C1706 C 0.14404 0.34363 0.67915 0.0
C1707 C 0.07523 0.33106 0.66606 0.0
C1708 C 0.07014 0.36932 0.67159 0.0
H1709 H 0.11173 0.28621 0.66578 0.0
H1710 H 0.04852 0.30843 0.65941 0.0
S1711 S 0.15106 0.45302 0.69505 0.0
N1712 N 0.17291 0.41369 0.69274 0.0
N1713 N 0.10424 0.43673 0.68578 0.0
C1714 C 0.10502 0.3977 0.68025 0.0
C1715 C 0.14219 0.38516 0.68401 0.0
C1716 C 0.9101 0.7106 0.51386 0.0
C1717 C 0.86621 0.66755 0.50956 0.0
C1718 C 0.95872 0.72386 0.50982 0.0
C1719 C 0.96512 0.69532 0.5012 0.0
H1720 H 0.90743 0.73191 0.52101 0.0
H1721 H 0.99183 0.75446 0.51399 0.0
S1722 S 0.86332 0.58406 0.48593 0.0
N1723 N 0.83261 0.59989 0.49525 0.0
N1724 N 0.92442 0.62567 0.48772 0.0
C1725 C 0.92177 0.65519 0.49613 0.0
C1726 C 0.87214 0.64119 0.50028 0.0
C1727 C 0.38627 0.30297 0.50036 0.0
C1728 C 0.34116 0.30237 0.50329 0.0
C1729 C 0.39651 0.2656 0.50443 0.0
C1730 C 0.36254 0.22662 0.51185 0.0
H1731 H 0.4145 0.33354 0.49511 0.0
H1732 H 0.43269 0.26898 0.50216 0.0
S1733 S 0.23765 0.20717 0.52164 0.0
N1734 N 0.26086 0.25858 0.51349 0.0
N1735 N 0.28043 0.18863 0.52148 0.0
C1736 C 0.31628 0.22459 0.51452 0.0
C1737 C 0.3055 0.26238 0.51016 0.0
C1738 C 0.76908 0.05327 0.51304 0.0
C1739 C 0.73974 0.0472 0.50323 0.0
C1740 C 0.80509 0.10182 0.51703 0.0
C1741 C 0.81226 0.14625 0.5115 0.0
H1742 H 0.76187 0.02019 0.51802 0.0
H1743 H 0.82461 0.10437 0.525 0.0
S1744 S 0.74762 0.14991 0.48475 0.0
N1745 N 0.72274 0.08857 0.4875 0.0
N1746 N 0.78984 0.18026 0.49498 0.0
C1747 C 0.78544 0.14037 0.50119 0.0
C1748 C 0.74921 0.09071 0.49708 0.0
C1749 C 0.95701 0.54178 0.67769 0.0
C1750 C 0.9904 0.53604 0.67025 0.0
C1751 C 0.9692 0.58954 0.68203 0.0
C1752 C 0.01557 0.63311 0.67933 0.0
H1753 H 0.91981 0.50975 0.67966 0.0
H1754 H 0.94121 0.59304 0.68711 0.0
S1755 S 0.11851 0.6388 0.6613 0.0
N1756 N 0.07378 0.57808 0.6611 0.0
N1757 N 0.09651 0.66787 0.66952 0.0
C1758 C 0.05078 0.62777 0.67258 0.0
C1759 C 0.03824 0.57916 0.66799 0.0
C1760 C 0.43777 0.46988 0.66552 0.0
C1761 C 0.48272 0.47661 0.67071 0.0
C1762 C 0.38966 0.4339 0.66974 0.0
C1763 C 0.38485 0.40432 0.67941 0.0
H1764 H 0.43953 0.48959 0.65764 0.0
H1765 H 0.35597 0.42682 0.66503 0.0
S1766 S 0.48948 0.41125 0.69701 0.0
N1767 N 0.51868 0.45371 0.68676 0.0
N1768 N 0.42787 0.38658 0.69464 0.0
C1769 C 0.429 0.41333 0.6852 0.0
C1770 C 0.47808 0.44951 0.68088 0.0
C1771 C 0.5747 0.04063 0.6771 0.0
C1772 C 0.54516 0.01656 0.66727 0.0
C1773 C 0.61029 0.02793 0.68135 0.0
C1774 C 0.61746 0.99071 0.67594 0.0
H1775 H 0.57258 0.07163 0.68116 0.0
H1776 H 0.6348 0.04967 0.6884 0.0
S1777 S 0.54668 0.91234 0.65088 0.0
N1778 N 0.52268 0.95001 0.65299 0.0
N1779 N 0.59013 0.92715 0.66097 0.0
C1780 C 0.58615 0.96412 0.66663 0.0
C1781 C 0.54973 0.97667 0.66232 0.0
C1782 C 0.41538 0.01423 0.18218 0.0
C1783 C 0.37158 0.98164 0.17587 0.0
C1784 C 0.46412 0.02786 0.17805 0.0
C1785 C 0.47057 0.009 0.16749 0.0
H1786 H 0.41198 0.03183 0.18995 0.0
H1787 H 0.49699 0.05534 0.18287 0.0
S1788 S 0.36643 0.91786 0.14846 0.0
N1789 N 0.33682 0.92788 0.15914 0.0
N1790 N 0.42782 0.95216 0.1514 0.0
C1791 C 0.42651 0.97344 0.16155 0.0
C1792 C 0.37715 0.96021 0.16572 0.0
C1793 C 0.95324 0.4202 0.17845 0.0
C1794 C 0.98676 0.45772 0.17071 0.0
C1795 C 0.96418 0.38408 0.18301 0.0
C1796 C 0.00944 0.3847 0.18024 0.0
H1797 H 0.91672 0.41655 0.18048 0.0
H1798 H 0.93596 0.35379 0.18832 0.0
S1799 S 0.1125 0.47743 0.16148 0.0
N1800 N 0.06927 0.49536 0.16121 0.0
N1801 N 0.08971 0.42742 0.17005 0.0
C1802 C 0.04494 0.42381 0.1732 0.0
C1803 C 0.03364 0.46041 0.16839 0.0
C1804 C 0.5783 0.53337 0.17842 0.0
C1805 C 0.53841 0.52832 0.17132 0.0
C1806 C 0.61554 0.58104 0.18259 0.0
C1807 C 0.61377 0.62535 0.18007 0.0
H1808 H 0.5829 0.50085 0.18019 0.0
H1809 H 0.64732 0.58376 0.18741 0.0
S1810 S 0.51527 0.63309 0.16291 0.0
N1811 N 0.4978 0.572 0.16265 0.0
N1812 N 0.56759 0.66138 0.17077 0.0
C1813 C 0.57256 0.62073 0.17366 0.0
C1814 C 0.5349 0.57224 0.16922 0.0
C1815 C 0.37636 0.08869 1.00003 0.0
C1816 C 0.33058 0.04409 1.0026 0.0
C1817 C 0.38673 0.13605 1.00433 0.0
C1818 C 0.35212 0.1406 0.01161 0.0
H1819 H 0.4052 0.08648 0.995 0.0
H1820 H 0.42355 0.16882 1.00245 0.0
S1821 S 0.225 0.03494 0.02026 0.0
N1822 N 0.24884 0.00721 0.01217 0.0
N1823 N 0.26836 0.09613 0.02054 0.0
C1824 C 0.30495 0.0964 0.01378 0.0
C1825 C 0.29418 0.04815 0.00921 0.0
C1826 C 0.91226 0.22241 0.01987 0.0
C1827 C 0.86836 0.20696 0.01315 0.0
C1828 C 0.96069 0.2576 0.01566 0.0
C1829 C 0.96707 0.27746 1.00452 0.0
H1830 H 0.90894 0.21027 0.02872 0.0
H1831 H 0.99318 0.27159 0.02136 0.0
S1832 S 0.8657 0.24464 0.983 0.0
N1833 N 0.83514 0.21095 0.99442 0.0
N1834 N 0.92665 0.2762 0.98652 0.0
C1835 C 0.92422 0.2594 0.99742 0.0
C1836 C 0.87471 0.22433 1.00174 0.0
C1837 C 0.76239 0.63319 1.00503 0.0
C1838 C 0.79721 0.66219 0.01374 0.0
C1839 C 0.72737 0.64648 1.00069 0.0
C1840 C 0.72621 0.68921 1.00488 0.0
H1841 H 0.75999 0.59829 1.00201 0.0
H1842 H 0.69878 0.62139 0.99461 0.0
S1843 S 0.81259 0.78137 0.02646 0.0
N1844 N 0.83133 0.73892 0.02545 0.0
N1845 N 0.76486 0.76283 0.01734 0.0
C1846 C 0.76282 0.72037 0.01295 0.0
C1847 C 0.79861 0.70721 0.01735 0.0
C1848 C 0.61732 0.05277 0.84501 0.0
C1849 C 0.62432 0.02741 0.83574 0.0
C1850 C 0.56843 0.03978 0.84877 0.0
C1851 C 0.52467 1.00004 0.84354 0.0
H1852 H 0.64999 0.08042 0.84986 0.0
H1853 H 0.56522 0.05823 0.85642 0.0
S1854 S 0.52338 0.92684 0.81788 0.0
N1855 N 0.58447 0.96525 0.82059 0.0
N1856 N 0.49206 0.93989 0.82763 0.0
C1857 C 0.53137 0.97751 0.8336 0.0
C1858 C 0.58138 0.99135 0.82972 0.0
C1859 C 0.97102 0.59597 0.84793 0.0
C1860 C 0.98967 0.61811 0.83715 0.0
C1861 C 0.98128 0.55897 0.85237 0.0
C1862 C 0.01163 0.5439 0.84626 0.0
H1863 H 0.95059 0.60931 0.85317 0.0
H1864 H 0.96833 0.5448 0.86095 0.0
S1865 S 0.06593 0.58831 0.81723 0.0
N1866 N 0.03639 0.62028 0.82015 0.0
N1867 N 0.05677 0.55149 0.82846 0.0
C1868 C 0.02819 0.56406 0.8352 0.0
C1869 C 0.01701 0.60108 0.83066 0.0
C1870 C 0.44673 0.42776 0.85469 0.0
C1871 C 0.46593 0.47027 0.84738 0.0
C1872 C 0.40959 0.37939 0.85085 0.0
C1873 C 0.39127 0.3716 0.83952 0.0
H1874 H 0.45765 0.43243 0.86365 0.0
H1875 H 0.39336 0.34814 0.8569 0.0
S1876 S 0.43373 0.46883 0.81663 0.0
N1877 N 0.46707 0.50051 0.828 0.0
N1878 N 0.39805 0.40906 0.82079 0.0
C1879 C 0.41292 0.41282 0.8319 0.0
C1880 C 0.45006 0.46234 0.83584 0.0
C1881 C 0.64574 0.8777 0.01162 0.0
C1882 C 0.66163 0.87019 1.00079 0.0
C1883 C 0.65949 0.92675 0.01557 0.0
C1884 C 0.68898 0.96975 0.00874 0.0
H1885 H 0.62059 0.84532 0.01688 0.0
H1886 H 0.64431 0.93085 0.02364 0.0
S1887 S 0.7448 0.97204 0.98037 0.0
N1888 N 0.7126 0.91108 0.98382 0.0
N1889 N 0.73728 1.00273 0.9912 0.0
C1890 C 0.70758 0.96319 0.99825 0.0
C1891 C 0.69429 0.91352 0.99429 0.0
C1892 C 0.04903 0.76095 1.00331 0.0
C1893 C 0.04336 0.73229 0.0132 0.0
C1894 C 0.09743 0.79726 0.99932 0.0
C1895 C 0.14201 0.80525 1.00494 0.0
H1896 H 0.01583 0.75306 0.99829 0.0
H1897 H 0.09977 0.81621 0.99129 0.0
S1898 S 0.14647 0.74288 0.03197 0.0
N1899 N 0.08507 0.717 0.02913 0.0
N1900 N 0.17653 0.78458 0.02163 0.0
C1901 C 0.13644 0.77911 0.01532 0.0
C1902 C 0.08696 0.74264 0.01943 0.0
C1903 C 0.22445 0.31278 0.99564 0.0
C1904 C 0.20816 0.34058 1.00235 0.0
C1905 C 0.26191 0.30232 0.99963 0.0
C1906 C 0.2835 0.31801 0.01057 0.0
H1907 H 0.21082 0.30199 0.98693 0.0
H1908 H 0.27571 0.28363 0.99395 0.0
S1909 S 0.25099 0.38718 0.03198 0.0
N1910 N 0.21447 0.38058 0.02084 0.0
N1911 N 0.2839 0.35934 0.02836 0.0
C1912 C 0.26536 0.34273 0.01766 0.0
C1913 C 0.22789 0.35438 0.01354 0.0
C1914 C 0.05995 0.29909 0.50705 0.0
C1915 C 0.05479 0.33082 0.51504 0.0
C1916 C 0.10812 0.3114 0.50275 0.0
C1917 C 0.15259 0.35601 0.50628 0.0
H1918 H 0.02628 0.26665 0.50354 0.0
H1919 H 0.10998 0.28767 0.49605 0.0
S1920 S 0.1585 0.44795 0.52815 0.0
N1921 N 0.09729 0.40559 0.52705 0.0
N1922 N 0.18791 0.42881 0.51926 0.0
C1923 C 0.14781 0.38569 0.51497 0.0
C1924 C 0.09883 0.37317 0.51924 0.0
C1925 C 0.61996 0.75273 0.50987 0.0
C1926 C 0.6567 0.79398 0.50337 0.0
C1927 C 0.62977 0.71553 0.51426 0.0
C1928 C 0.67702 0.71861 0.51258 0.0
H1929 H 0.58219 0.74741 0.51106 0.0
H1930 H 0.5996 0.68305 0.51869 0.0
S1931 S 0.78779 0.82071 0.49715 0.0
N1932 N 0.74354 0.83708 0.4961 0.0
N1933 N 0.76204 0.76733 0.50465 0.0
C1934 C 0.71519 0.76099 0.50672 0.0
C1935 C 0.70499 0.79862 0.50205 0.0
C1936 C 0.24341 0.88111 0.51094 0.0
C1937 C 0.21397 0.87376 0.50099 0.0
C1938 C 0.27891 0.93027 0.51482 0.0
C1939 C 0.28627 0.9736 0.50886 0.0
H1940 H 0.24107 0.84876 0.51544 0.0
H1941 H 0.30303 0.93445 0.52207 0.0
S1942 S 0.21562 0.97629 0.48325 0.0
N1943 N 0.19168 0.91508 0.48599 0.0
N1944 N 0.25906 0.00688 0.49323 0.0
C1945 C 0.25518 0.96705 0.49938 0.0
C1946 C 0.21876 0.91727 0.49547 0.0
C1947 C 0.97403 0.38181 0.34914 0.0
C1948 C 0.99292 0.37406 0.33881 0.0
C1949 C 0.98616 0.43077 0.35268 0.0
C1950 C 0.01871 0.47398 0.34612 0.0
H1951 H 0.95153 0.34986 0.35476 0.0
H1952 H 0.97277 0.43491 0.361 0.0
S1953 S 0.07433 0.47304 0.31783 0.0
N1954 N 0.04193 0.41243 0.32159 0.0
N1955 N 0.06605 0.50501 0.32827 0.0
C1956 C 0.03538 0.46629 0.33542 0.0
C1957 C 0.02217 0.41617 0.33175 0.0
C1958 C 0.58249 0.54367 0.35231 0.0
C1959 C 0.53861 0.53173 0.34586 0.0
C1960 C 0.63118 0.57995 0.34847 0.0
C1961 C 0.63815 0.60484 0.33791 0.0
H1962 H 0.57915 0.52758 0.36078 0.0
H1963 H 0.66358 0.59052 0.35403 0.0
S1964 S 0.53732 0.58356 0.31709 0.0
N1965 N 0.50621 0.54505 0.32786 0.0
N1966 N 0.59824 0.61247 0.32062 0.0
C1967 C 0.59538 0.59069 0.33097 0.0
C1968 C 0.54549 0.5543 0.33494 0.0
C1969 C 0.42498 0.03895 0.34288 0.0
C1970 C 0.38891 0.00543 0.33494 0.0
C1971 C 0.46167 0.02872 0.3476 0.0
C1972 C 0.4636 0.98481 0.34445 0.0
H1973 H 0.42278 0.07149 0.34594 0.0
H1974 H 0.48691 0.054 0.35417 0.0
S1975 S 0.38075 0.88899 0.32277 0.0
N1976 N 0.35965 0.92963 0.32338 0.0
N1977 N 0.42878 0.91054 0.33189 0.0
C1978 C 0.42968 0.9531 0.33587 0.0
C1979 C 0.3922 0.96331 0.33123 0.0
C1980 C 0.05218 0.30495 0.26719 0.0
C1981 C 1.00102 0.27638 0.27074 0.0
C1982 C 0.06521 0.31148 0.2555 0.0
C1983 C 0.02752 0.28901 0.247 0.0
H1984 H 0.08241 0.32024 0.27352 0.0
H1985 H 0.10509 0.33138 0.25312 0.0
S1986 S 0.88826 0.21251 0.25172 0.0
N1987 N 0.91257 0.22765 0.26477 0.0
N1988 N 0.93716 0.23913 0.24283 0.0
C1989 C 0.97625 0.26236 0.25041 0.0
C1990 C 0.96295 0.25629 0.26228 0.0
C1991 C 0.7319 0.7796 0.25619 0.0
C1992 C 0.71408 0.74206 0.24759 0.0
C1993 C 0.73518 0.76772 0.26765 0.0
C1994 C 0.72102 0.71777 0.27103 0.0
H1995 H 0.74478 0.81891 0.25399 0.0
H1996 H 0.75117 0.79856 0.27383 0.0
S1997 S 0.66792 0.60467 0.25196 0.0
N1998 N 0.67925 0.6523 0.24329 0.0
N1999 N 0.68498 0.62971 0.26491 0.0
C2000 C 0.70109 0.67938 0.26259 0.0
C2001 C 0.69752 0.69153 0.25088 0.0
C2002 C 0.28108 0.97053 0.25206 0.0
C2003 C 0.2763 1.00254 0.24404 0.0
C2004 C 0.29175 0.98456 0.26367 0.0
C2005 C 0.29775 0.03106 0.26777 0.0
H2006 H 0.27415 0.93328 0.24949 0.0
H2007 H 0.29379 0.95797 0.26953 0.0
S2008 S 0.29451 0.13094 0.24989 0.0
N2009 N 0.28438 0.08538 0.24073 0.0
N2010 N 0.30096 0.11037 0.26253 0.0
C2011 C 0.29569 0.06452 0.25967 0.0
C2012 C 0.28576 0.05058 0.24784 0.0
C2013 C 0.95323 0.73391 0.75975 0.0
C2014 C 0.98233 0.72855 0.76842 0.0
C2015 C 0.97007 0.74285 0.74836 0.0
C2016 C 0.01701 0.74742 0.74521 0.0
H2017 H 0.91821 0.73337 0.76189 0.0
H2018 H 0.94712 0.74842 0.74204 0.0
S2019 S 0.10606 0.7337 0.7647 0.0
N2020 N 0.0587 0.72553 0.7731 0.0
N2021 N 0.09105 0.74323 0.75167 0.0
C2022 C 0.0452 0.73942 0.75371 0.0
C2023 C 0.02773 0.7299 0.76534 0.0
C2024 C 0.23375 0.26092 0.76672 0.0
C2025 C 0.28343 0.27643 0.77056 0.0
C2026 C 0.22374 0.26541 0.75519 0.0
C2027 C 0.26299 0.28599 0.74699 0.0
H2028 H 0.20192 0.24348 0.77261 0.0
H2029 H 0.18467 0.25173 0.75261 0.0
S2030 S 0.40007 0.33509 0.75262 0.0
N2031 N 0.37274 0.31537 0.76529 0.0
N2032 N 0.35375 0.32384 0.74354 0.0
C2033 C 0.31308 0.30328 0.75073 0.0
C2034 C 0.32331 0.29829 0.76251 0.0
C2035 C 0.78005 0.99963 0.76329 0.0
C2036 C 0.74474 0.00787 0.7694 0.0
C2037 C 0.77452 0.9883 0.75162 0.0
C2038 C 0.73485 0.98709 0.74509 0.0
H2039 H 0.81327 1.0026 0.76748 0.0
H2040 H 0.8025 0.98096 0.74766 0.0
S2041 S 0.63093 0.00504 0.7567 0.0
N2042 N 0.66637 0.01124 0.76801 0.0
N2043 N 0.6586 0.99435 0.74569 0.0
C2044 C 0.69882 0.99504 0.75098 0.0
C2045 C 0.7035 0.00498 0.76313 0.0
C2046 C 0.70468 0.60161 0.5986 0.0
C2047 C 0.66591 0.61044 0.60257 0.0
C2048 C 0.72039 0.6099 0.58711 0.0
C2049 C 0.69784 0.62712 0.57907 0.0
H2050 H 0.72206 0.58658 0.60433 0.0
H2051 H 0.74922 0.60099 0.58443 0.0
S2052 S 0.59852 0.66105 0.58521 0.0
N2053 N 0.60813 0.64127 0.59766 0.0
N2054 N 0.63722 0.65611 0.57601 0.0
C2055 C 0.66006 0.63751 0.58295 0.0
C2056 C 0.6442 0.62933 0.59469 0.0
C2057 C 0.37875 0.08514 0.59733 0.0
C2058 C 0.40213 0.05754 0.60105 0.0
C2059 C 0.37079 0.08966 0.58561 0.0
C2060 C 0.3866 0.06732 0.5772 0.0
H2061 H 0.36869 0.10533 0.6035 0.0
H2062 H 0.35548 0.11371 0.58309 0.0
S2063 S 0.44622 0.98825 0.58242 0.0
N2064 N 0.43783 0.00484 0.59538 0.0
N2065 N 0.42348 0.0139 0.57339 0.0
C2066 C 0.40739 0.03736 0.58083 0.0
C2067 C 0.41496 0.03227 0.59275 0.0
C2068 C 0.98272 0.35854 0.59635 0.0
C2069 C 0.94438 0.33824 0.6048 0.0
C2070 C 0.97182 0.34311 0.58481 0.0
C2071 C 0.92206 0.30743 0.58131 0.0
H2072 H 0.0212 0.38716 0.59864 0.0
H2073 H 1.00201 0.36077 0.57852 0.0
S2074 S 0.80843 0.24166 0.60004 0.0
N2075 N 0.85481 0.27965 0.60878 0.0
N2076 N 0.83479 0.25044 0.58724 0.0
C2077 C 0.88385 0.28575 0.58972 0.0
C2078 C 0.89487 0.3012 0.60141 0.0
C2079 C 0.63157 0.03842 0.0823 0.0
C2080 C 0.68235 0.065 0.07844 0.0
C2081 C 0.61997 0.03257 0.09407 0.0
C2082 C 0.65878 0.05398 0.10237 0.0
H2083 H 0.60059 0.02409 0.07617 0.0
H2084 H 0.58041 0.01409 0.09667 0.0
S2085 S 0.7977 0.12433 0.09675 0.0
N2086 N 0.77162 0.11014 0.08385 0.0
N2087 N 0.74986 0.09997 0.10594 0.0
C2088 C 0.70965 0.07848 0.09862 0.0
C2089 C 0.72144 0.08375 0.08666 0.0
C2090 C 0.99198 0.6395 0.08438 0.0
C2091 C 0.94436 0.62689 0.07969 0.0
C2092 C 0.99665 0.6297 0.09601 0.0
C2093 C 0.95374 0.60645 0.10327 0.0
H2094 H 0.02572 0.65708 0.07905 0.0
H2095 H 0.03407 0.64056 0.09933 0.0
S2096 S 0.81975 0.56018 0.09452 0.0
N2097 N 0.85334 0.58686 0.08286 0.0
N2098 N 0.86153 0.56706 0.10445 0.0
C2099 C 0.90583 0.59251 0.09849 0.0
C2100 C 0.90129 0.60303 0.08677 0.0
C2101 C 0.3999 0.29845 0.08691 0.0
C2102 C 0.38327 0.32163 0.07889 0.0
C2103 C 0.40869 0.3141 0.09839 0.0
C2104 C 0.40103 0.35354 0.10243 0.0
H2105 H 0.40762 0.26879 0.08422 0.0
H2106 H 0.42281 0.29581 0.10411 0.0
S2107 S 0.35373 0.42402 0.08511 0.0
N2108 N 0.35708 0.38447 0.07589 0.0
N2109 N 0.37298 0.41357 0.09755 0.0
C2110 C 0.38343 0.37648 0.09456 0.0
C2111 C 0.37469 0.36062 0.0828 0.0
C2112 C 0.2789 0.8875 0.92655 0.0
C2113 C 0.30749 0.9215 0.93535 0.0
C2114 C 0.29658 0.89583 0.91523 0.0
C2115 C 0.34376 0.93832 0.91227 0.0
H2116 H 0.24363 0.85295 0.92853 0.0
H2117 H 0.27411 0.86759 0.90881 0.0
S2118 S 0.43174 0.04014 0.93209 0.0
N2119 N 0.38381 1.00062 0.94033 0.0
N2120 N 0.41747 0.01624 0.91899 0.0
C2121 C 0.37143 0.97414 0.92088 0.0
C2122 C 0.35321 0.96569 0.93244 0.0
C2123 C 0.10633 0.40789 0.91476 0.0
C2124 C 0.05608 0.39099 0.91111 0.0
C2125 C 0.11773 0.4054 0.92631 0.0
C2126 C 0.07941 0.38556 0.93473 0.0
H2127 H 0.13759 0.42511 0.90872 0.0
H2128 H 0.15718 0.42015 0.92871 0.0
S2129 S 0.94131 0.33279 0.92966 0.0
N2130 N 0.96719 0.35095 0.91682 0.0
N2131 N 0.98882 0.34649 0.93858 0.0
C2132 C 0.02876 0.36667 0.93119 0.0
C2133 C 0.01709 0.36953 0.91939 0.0
C2134 C 0.56485 0.67823 0.92976 0.0
C2135 C 0.60549 0.68117 0.93621 0.0
C2136 C 0.56022 0.66825 0.91803 0.0
C2137 C 0.59711 0.66277 0.91186 0.0
H2138 H 0.53579 0.68371 0.93379 0.0
H2139 H 0.52677 0.66453 0.91379 0.0
S2140 S 0.71252 0.66882 0.92443 0.0
N2141 N 0.68365 0.67734 0.93551 0.0
N2142 N 0.67686 0.66215 0.91312 0.0
C2143 C 0.6387 0.66643 0.91809 0.0
C2144 C 0.64274 0.67535 0.93026 0.0
C2145 C 0.30398 0.40356 0.41669 0.0
C2146 C 0.34971 0.40672 0.413 0.0
C2147 C 0.28848 0.39393 0.42818 0.0
C2148 C 0.31794 0.38687 0.43652 0.0
H2149 H 0.28059 0.41011 0.41069 0.0
H2150 H 0.25435 0.39454 0.43064 0.0
S2151 S 0.43776 0.38523 0.43114 0.0
N2152 N 0.42249 0.39837 0.41851 0.0
N2153 N 0.39235 0.37829 0.44003 0.0
C2154 C 0.36214 0.38676 0.43283 0.0
C2155 C 0.37816 0.39698 0.42111 0.0
C2156 C 0.65812 0.97126 0.41682 0.0
C2157 C 0.61194 0.96605 0.41282 0.0
C2158 C 0.66481 0.96341 0.42843 0.0
C2159 C 0.62542 0.94958 0.43649 0.0
H2160 H 0.68906 0.98076 0.41088 0.0
H2161 H 0.70094 0.96761 0.43108 0.0
S2162 S 0.49588 0.92775 0.43017 0.0
N2163 N 0.52582 0.94491 0.41774 0.0
N2164 N 0.53769 0.92904 0.43942 0.0
C2165 C 0.5791 0.94449 0.43257 0.0
C2166 C 0.57255 0.95297 0.42079 0.0
C2167 C 0.09406 0.72148 0.42723 0.0
C2168 C 0.07495 0.68367 0.43576 0.0
C2169 C 0.08821 0.70837 0.41555 0.0
C2170 C 0.0622 0.65709 0.41203 0.0
H2171 H 0.11646 0.76128 0.4296 0.0
H2172 H 0.10614 0.73845 0.40924 0.0
S2173 S 1.00127 0.54417 0.43101 0.0
N2174 N 0.02634 0.59314 0.43991 0.0
N2175 N 0.01453 0.5686 0.41796 0.0
C2176 C 0.04021 0.61913 0.42046 0.0
C2177 C 0.04683 0.63242 0.43233 0.0
loop_
_geom_bond_atom_site_label_1
_geom_bond_atom_site_label_2
_geom_bond_distance
_geom_bond_site_symmetry_2
_ccdc_geom_bond_type
Co0 N4 2.148 . S
Co0 N10 2.128 . S
Co0 N20 2.194 . S
Co0 O25 2.351 . S
Co0 O26 2.155 . S
Co0 O27 2.096 . S
C1 N4 1.301 . S
C1 N5 1.328 . S
C1 H6 0.930 . S
C2 C3 1.333 . S
C2 N4 1.317 1_655 S
C2 H7 0.930 . S
C3 C2 1.333 . S
C3 N5 1.350 1_655 S
C3 H29 0.931 . S
N4 Co0 2.148 . S
N4 C1 1.301 . S
N4 C2 1.317 1_455 S
N5 C1 1.328 . S
N5 C3 1.350 1_455 S
H6 C1 0.930 . S
H7 C2 0.930 . S
C8 O9 1.224 . S
C8 O27 1.247 1_655 S
O9 C8 1.224 . S
N10 Co0 2.128 . S
N10 C11 1.355 . S
N10 C13 1.311 . S
C11 N10 1.355 . S
C11 C12 1.363 . S
C11 H23 0.929 . S
C12 C11 1.363 . S
C12 N14 1.375 . S
C12 H30 0.931 . S
C13 N10 1.311 . S
C13 N14 1.347 . S
C13 H24 0.929 . S
N14 C12 1.375 . S
N14 C13 1.347 . S
C15 C18 1.365 . S
C15 N20 1.328 . S
C15 H21 0.929 . S
C16 C17 1.362 . S
C16 C19 1.378 . S
C16 H31 0.929 . S
C17 C16 1.362 . S
C17 C18 1.366 . S
C18 C15 1.365 . S
C18 C17 1.366 . S
C18 H32 0.930 . S
C19 C16 1.378 . S
C19 N20 1.315 . S
C19 H22 0.930 . S
N20 Co0 2.194 . S
N20 C15 1.328 . S
N20 C19 1.315 . S
H21 C15 0.929 . S
H22 C19 0.930 . S
H23 C11 0.929 . S
H24 C13 0.929 . S
O25 Co0 2.351 . S
O25 C28 1.244 . S
O26 Co0 2.155 . S
O26 C28 1.240 . S
O27 Co0 2.096 . S
O27 C8 1.247 1_455 S
C28 O25 1.244 . S
C28 O26 1.240 . S
H29 C3 0.931 . S
H30 C12 0.931 . S
H31 C16 0.929 . S
H32 C18 0.930 . S
Co33 N37 2.148 . S
Co33 N43 2.128 . S
Co33 N53 2.194 . S
Co33 O58 2.351 . S
Co33 O59 2.155 . S
Co33 O60 2.096 . S
C34 N37 1.301 . S
C34 N38 1.328 . S
C34 H39 0.930 . S
C35 C36 1.333 . S
C35 N37 1.317 . S
C35 H40 0.930 . S
C36 C35 1.333 . S
C36 N38 1.350 . S
C36 H62 0.931 . S
N37 Co33 2.148 . S
N37 C34 1.301 . S
N37 C35 1.317 . S
N38 C34 1.328 . S
N38 C36 1.350 . S
H39 C34 0.930 . S
H40 C35 0.930 . S
C41 O42 1.224 . S
C41 O60 1.247 . S
O42 C41 1.224 . S
N43 Co33 2.128 . S
N43 C44 1.355 . S
N43 C46 1.311 . S
C44 N43 1.355 . S
C44 C45 1.363 . S
C44 H56 0.929 . S
C45 C44 1.363 . S
C45 N47 1.375 . S
C45 H63 0.931 . S
C46 N43 1.311 . S
C46 N47 1.347 . S
C46 H57 0.929 . S
N47 C45 1.375 . S
N47 C46 1.347 . S
C48 C51 1.365 . S
C48 N53 1.328 . S
C48 H54 0.929 . S
C49 C50 1.362 . S
C49 C52 1.378 . S
C49 H64 0.929 . S
C50 C49 1.362 . S
C50 C51 1.366 . S
C51 C48 1.365 . S
C51 C50 1.366 . S
C51 H65 0.930 . S
C52 C49 1.378 . S
C52 N53 1.315 . S
C52 H55 0.930 . S
N53 Co33 2.194 . S
N53 C48 1.328 . S
N53 C52 1.315 . S
H54 C48 0.929 . S
H55 C52 0.930 . S
H56 C44 0.929 . S
H57 C46 0.929 . S
O58 Co33 2.351 . S
O58 C61 1.244 . S
O59 Co33 2.155 . S
O59 C61 1.240 . S
O60 Co33 2.096 . S
O60 C41 1.247 . S
C61 O58 1.244 . S
C61 O59 1.240 . S
H62 C36 0.931 . S
H63 C45 0.931 . S
H64 C49 0.929 . S
H65 C51 0.930 . S
Co66 N70 2.148 . S
Co66 N76 2.128 . S
Co66 N86 2.194 . S
Co66 O91 2.351 . S
Co66 O92 2.155 . S
Co66 O93 2.096 . S
C67 N70 1.301 . S
C67 N71 1.328 . S
C67 H72 0.930 . S
C68 C69 1.333 . S
C68 N70 1.317 1_545 S
C68 H73 0.930 . S
C69 C68 1.333 . S
C69 N71 1.350 1_545 S
C69 H95 0.931 . S
N70 Co66 2.148 . S
N70 C67 1.301 . S
N70 C68 1.317 1_565 S
N71 C67 1.328 . S
N71 C69 1.350 1_565 S
H72 C67 0.930 . S
H73 C68 0.930 . S
C74 O75 1.224 . S
C74 O93 1.247 1_545 S
O75 C74 1.224 . S
N76 Co66 2.128 . S
N76 C77 1.355 . S
N76 C79 1.311 . S
C77 N76 1.355 . S
C77 C78 1.363 . S
C77 H89 0.929 . S
C78 C77 1.363 . S
C78 N80 1.375 . S
C78 H96 0.931 . S
C79 N76 1.311 . S
C79 N80 1.347 . S
C79 H90 0.929 . S
N80 C78 1.375 . S
N80 C79 1.347 . S
C81 C84 1.365 . S
C81 N86 1.328 . S
C81 H87 0.929 . S
C82 C83 1.362 . S
C82 C85 1.378 . S
C82 H97 0.929 . S
C83 C82 1.362 . S
C83 C84 1.366 . S
C84 C81 1.365 . S
C84 C83 1.366 . S
C84 H98 0.930 . S
C85 C82 1.378 . S
C85 N86 1.315 . S
C85 H88 0.930 . S
N86 Co66 2.194 . S
N86 C81 1.328 . S
N86 C85 1.315 . S
H87 C81 0.929 . S
H88 C85 0.930 . S
H89 C77 0.929 . S
H90 C79 0.929 . S
O91 Co66 2.351 . S
O91 C94 1.244 . S
O92 Co66 2.155 . S
O92 C94 1.240 . S
O93 Co66 2.096 . S
O93 C74 1.247 1_565 S
C94 O91 1.244 . S
C94 O92 1.240 . S
H95 C69 0.931 . S
H96 C78 0.931 . S
H97 C82 0.929 . S
H98 C84 0.930 . S
Co99 N103 2.148 . S
Co99 N109 2.128 . S
Co99 N119 2.194 . S
Co99 O124 2.351 . S
Co99 O125 2.155 . S
Co99 O126 2.096 . S
C100 N103 1.301 . S
C100 N104 1.328 . S
C100 H105 0.930 . S
C101 C102 1.333 . S
C101 N103 1.317 1_565 S
C101 H106 0.930 . S
C102 C101 1.333 . S
C102 N104 1.350 1_565 S
C102 H128 0.931 . S
N103 Co99 2.148 . S
N103 C100 1.301 . S
N103 C101 1.317 1_545 S
N104 C100 1.328 . S
N104 C102 1.350 1_545 S
H105 C100 0.930 . S
H106 C101 0.930 . S
C107 O108 1.224 . S
C107 O126 1.247 1_565 S
O108 C107 1.224 . S
N109 Co99 2.128 . S
N109 C110 1.355 . S
N109 C112 1.311 . S
C110 N109 1.355 . S
C110 C111 1.363 . S
C110 H122 0.929 . S
C111 C110 1.363 . S
C111 N113 1.375 . S
C111 H129 0.931 . S
C112 N109 1.311 . S
C112 N113 1.347 . S
C112 H123 0.929 . S
N113 C111 1.375 . S
N113 C112 1.347 . S
C114 C117 1.365 . S
C114 N119 1.328 . S
C114 H120 0.929 . S
C115 C116 1.362 . S
C115 C118 1.378 . S
C115 H130 0.929 . S
C116 C115 1.362 . S
C116 C117 1.366 . S
C117 C114 1.365 . S
C117 C116 1.366 . S
C117 H131 0.930 . S
C118 C115 1.378 . S
C118 N119 1.315 . S
C118 H121 0.930 . S
N119 Co99 2.194 . S
N119 C114 1.328 . S
N119 C118 1.315 . S
H120 C114 0.929 . S
H121 C118 0.930 . S
H122 C110 0.929 . S
H123 C112 0.929 . S
O124 Co99 2.351 . S
O124 C127 1.244 . S
O125 Co99 2.155 . S
O125 C127 1.240 . S
O126 Co99 2.096 . S
O126 C107 1.247 1_545 S
C127 O124 1.244 . S
C127 O125 1.240 . S
H128 C102 0.931 . S
H129 C111 0.931 . S
H130 C115 0.929 . S
H131 C117 0.930 . S
Co132 N136 2.148 . S
Co132 N142 2.128 . S
Co132 N152 2.194 . S
Co132 O157 2.351 . S
Co132 O158 2.155 . S
Co132 O159 2.096 . S
C133 N136 1.301 . S
C133 N137 1.328 . S
C133 H138 0.930 . S
C134 C135 1.333 . S
C134 N136 1.317 1_455 S
C134 H139 0.930 . S
C135 C134 1.333 . S
C135 N137 1.350 1_455 S
C135 H161 0.931 . S
N136 Co132 2.148 . S
N136 C133 1.301 . S
N136 C134 1.317 1_655 S
N137 C133 1.328 . S
N137 C135 1.350 1_655 S
H138 C133 0.930 . S
H139 C134 0.930 . S
C140 O141 1.224 . S
C140 O159 1.247 1_455 S
O141 C140 1.224 . S
N142 Co132 2.128 . S
N142 C143 1.355 . S
N142 C145 1.311 . S
C143 N142 1.355 . S
C143 C144 1.363 . S
C143 H155 0.929 . S
C144 C143 1.363 . S
C144 N146 1.375 . S
C144 H162 0.931 . S
C145 N142 1.311 . S
C145 N146 1.347 . S
C145 H156 0.929 . S
N146 C144 1.375 . S
N146 C145 1.347 . S
C147 C150 1.365 . S
C147 N152 1.328 . S
C147 H153 0.929 . S
C148 C149 1.362 . S
C148 C151 1.378 . S
C148 H163 0.929 . S
C149 C148 1.362 . S
C149 C150 1.366 . S
C150 C147 1.365 . S
C150 C149 1.366 . S
C150 H164 0.930 . S
C151 C148 1.378 . S
C151 N152 1.315 . S
C151 H154 0.930 . S
N152 Co132 2.194 . S
N152 C147 1.328 . S
N152 C151 1.315 . S
H153 C147 0.929 . S
H154 C151 0.930 . S
H155 C143 0.929 . S
H156 C145 0.929 . S
O157 Co132 2.351 . S
O157 C160 1.244 . S
O158 Co132 2.155 . S
O158 C160 1.240 . S
O159 Co132 2.096 . S
O159 C140 1.247 1_655 S
C160 O157 1.244 . S
C160 O158 1.240 . S
H161 C135 0.931 . S
H162 C144 0.931 . S
H163 C148 0.929 . S
H164 C150 0.930 . S
Co165 N169 2.148 . S
Co165 N175 2.128 . S
Co165 N185 2.194 . S
Co165 O190 2.351 . S
Co165 O191 2.155 . S
Co165 O192 2.096 . S
C166 N169 1.301 . S
C166 N170 1.328 . S
C166 H171 0.930 . S
C167 C168 1.333 . S
C167 N169 1.317 . S
C167 H172 0.930 . S
C168 C167 1.333 . S
C168 N170 1.350 . S
C168 H194 0.931 . S
N169 Co165 2.148 . S
N169 C166 1.301 . S
N169 C167 1.317 . S
N170 C166 1.328 . S
N170 C168 1.350 . S
H171 C166 0.930 . S
H172 C167 0.930 . S
C173 O174 1.224 . S
C173 O192 1.247 . S
O174 C173 1.224 . S
N175 Co165 2.128 . S
N175 C176 1.355 . S
N175 C178 1.311 . S
C176 N175 1.355 . S
C176 C177 1.363 . S
C176 H188 0.929 . S
C177 C176 1.363 . S
C177 N179 1.375 . S
C177 H195 0.931 . S
C178 N175 1.311 . S
C178 N179 1.347 . S
C178 H189 0.929 . S
N179 C177 1.375 . S
N179 C178 1.347 . S
C180 C183 1.365 . S
C180 N185 1.328 . S
C180 H186 0.929 . S
C181 C182 1.362 . S
C181 C184 1.378 . S
C181 H196 0.929 . S
C182 C181 1.362 . S
C182 C183 1.366 . S
C183 C180 1.365 . S
C183 C182 1.366 . S
C183 H197 0.930 . S
C184 C181 1.378 . S
C184 N185 1.315 . S
C184 H187 0.930 . S
N185 Co165 2.194 . S
N185 C180 1.328 . S
N185 C184 1.315 . S
H186 C180 0.929 . S
H187 C184 0.930 . S
H188 C176 0.929 . S
H189 C178 0.929 . S
O190 Co165 2.351 . S
O190 C193 1.244 . S
O191 Co165 2.155 . S
O191 C193 1.240 . S
O192 Co165 2.096 . S
O192 C173 1.247 . S
C193 O190 1.244 . S
C193 O191 1.240 . S
H194 C168 0.931 . S
H195 C177 0.931 . S
H196 C181 0.929 . S
H197 C183 0.930 . S
Co198 N202 2.148 . S
Co198 N208 2.128 . S
Co198 N218 2.194 . S
Co198 O223 2.351 . S
Co198 O224 2.155 . S
Co198 O225 2.096 . S
C199 N202 1.301 . S
C199 N203 1.328 . S
C199 H204 0.930 . S
C200 C201 1.333 . S
C200 N202 1.317 1_455 S
C200 H205 0.930 . S
C201 C200 1.333 . S
C201 N203 1.350 1_455 S
C201 H227 0.931 . S
N202 Co198 2.148 . S
N202 C199 1.301 . S
N202 C200 1.317 1_655 S
N203 C199 1.328 . S
N203 C201 1.350 1_655 S
H204 C199 0.930 . S
H205 C200 0.930 . S
C206 O207 1.224 . S
C206 O225 1.247 1_455 S
O207 C206 1.224 . S
N208 Co198 2.128 . S
N208 C209 1.355 . S
N208 C211 1.311 . S
C209 N208 1.355 . S
C209 C210 1.363 . S
C209 H221 0.929 . S
C210 C209 1.363 . S
C210 N212 1.375 . S
C210 H228 0.931 . S
C211 N208 1.311 . S
C211 N212 1.347 . S
C211 H222 0.929 . S
N212 C210 1.375 . S
N212 C211 1.347 . S
C213 C216 1.365 . S
C213 N218 1.328 . S
C213 H219 0.929 . S
C214 C215 1.362 . S
C214 C217 1.378 . S
C214 H229 0.929 . S
C215 C214 1.362 . S
C215 C216 1.366 . S
C216 C213 1.365 . S
C216 C215 1.366 . S
C216 H230 0.930 . S
C217 C214 1.378 . S
C217 N218 1.315 . S
C217 H220 0.930 . S
N218 Co198 2.194 . S
N218 C213 1.328 . S
N218 C217 1.315 . S
H219 C213 0.929 . S
H220 C217 0.930 . S
H221 C209 0.929 . S
H222 C211 0.929 . S
O223 Co198 2.351 . S
O223 C226 1.244 . S
O224 Co198 2.155 . S
O224 C226 1.240 . S
O225 Co198 2.096 . S
O225 C206 1.247 1_655 S
C226 O223 1.244 . S
C226 O224 1.240 . S
H227 C201 0.931 . S
H228 C210 0.931 . S
H229 C214 0.929 . S
H230 C216 0.930 . S
Co231 N235 2.148 . S
Co231 N241 2.128 . S
Co231 N251 2.194 . S
Co231 O256 2.351 . S
Co231 O257 2.155 . S
Co231 O258 2.096 . S
C232 N235 1.301 . S
C232 N236 1.328 . S
C232 H237 0.930 . S
C233 C234 1.333 . S
C233 N235 1.317 . S
C233 H238 0.930 . S
C234 C233 1.333 . S
C234 N236 1.350 . S
C234 H260 0.931 . S
N235 Co231 2.148 . S
N235 C232 1.301 . S
N235 C233 1.317 . S
N236 C232 1.328 . S
N236 C234 1.350 . S
H237 C232 0.930 . S
H238 C233 0.930 . S
C239 O240 1.224 . S
C239 O258 1.247 . S
O240 C239 1.224 . S
N241 Co231 2.128 . S
N241 C242 1.355 . S
N241 C244 1.311 . S
C242 N241 1.355 . S
C242 C243 1.363 . S
C242 H254 0.929 . S
C243 C242 1.363 . S
C243 N245 1.375 . S
C243 H261 0.931 . S
C244 N241 1.311 . S
C244 N245 1.347 . S
C244 H255 0.929 . S
N245 C243 1.375 . S
N245 C244 1.347 . S
C246 C249 1.365 . S
C246 N251 1.328 . S
C246 H252 0.929 . S
C247 C248 1.362 . S
C247 C250 1.378 . S
C247 H262 0.929 . S
C248 C247 1.362 . S
C248 C249 1.366 . S
C249 C246 1.365 . S
C249 C248 1.366 . S
C249 H263 0.930 . S
C250 C247 1.378 . S
C250 N251 1.315 . S
C250 H253 0.930 . S
N251 Co231 2.194 . S
N251 C246 1.328 . S
N251 C250 1.315 . S
H252 C246 0.929 . S
H253 C250 0.930 . S
H254 C242 0.929 . S
H255 C244 0.929 . S
O256 Co231 2.351 . S
O256 C259 1.244 . S
O257 Co231 2.155 . S
O257 C259 1.240 . S
O258 Co231 2.096 . S
O258 C239 1.247 . S
C259 O256 1.244 . S
C259 O257 1.240 . S
H260 C234 0.931 . S
H261 C243 0.931 . S
H262 C247 0.929 . S
H263 C249 0.930 . S
Co264 N268 2.148 . S
Co264 N274 2.128 . S
Co264 N284 2.194 . S
Co264 O289 2.351 . S
Co264 O290 2.155 . S
Co264 O291 2.096 . S
C265 N268 1.301 . S
C265 N269 1.328 . S
C265 H270 0.930 . S
C266 C267 1.333 . S
C266 N268 1.317 1_565 S
C266 H271 0.930 . S
C267 C266 1.333 . S
C267 N269 1.350 1_565 S
C267 H293 0.931 . S
N268 Co264 2.148 . S
N268 C265 1.301 . S
N268 C266 1.317 1_545 S
N269 C265 1.328 . S
N269 C267 1.350 1_545 S
H270 C265 0.930 . S
H271 C266 0.930 . S
C272 O273 1.224 . S
C272 O291 1.247 1_565 S
O273 C272 1.224 . S
N274 Co264 2.128 . S
N274 C275 1.355 . S
N274 C277 1.311 . S
C275 N274 1.355 . S
C275 C276 1.363 . S
C275 H287 0.929 . S
C276 C275 1.363 . S
C276 N278 1.375 . S
C276 H294 0.931 . S
C277 N274 1.311 . S
C277 N278 1.347 . S
C277 H288 0.929 . S
N278 C276 1.375 . S
N278 C277 1.347 . S
C279 C282 1.365 . S
C279 N284 1.328 . S
C279 H285 0.929 . S
C280 C281 1.362 . S
C280 C283 1.378 . S
C280 H295 0.929 . S
C281 C280 1.362 . S
C281 C282 1.366 . S
C282 C279 1.365 . S
C282 C281 1.366 . S
C282 H296 0.930 . S
C283 C280 1.378 . S
C283 N284 1.315 . S
C283 H286 0.930 . S
N284 Co264 2.194 . S
N284 C279 1.328 . S
N284 C283 1.315 . S
H285 C279 0.929 . S
H286 C283 0.930 . S
H287 C275 0.929 . S
H288 C277 0.929 . S
O289 Co264 2.351 . S
O289 C292 1.244 . S
O290 Co264 2.155 . S
O290 C292 1.240 . S
O291 Co264 2.096 . S
O291 C272 1.247 1_545 S
C292 O289 1.244 . S
C292 O290 1.240 . S
H293 C267 0.931 . S
H294 C276 0.931 . S
H295 C280 0.929 . S
H296 C282 0.930 . S
Co297 N301 2.148 . S
Co297 N307 2.128 . S
Co297 N317 2.194 . S
Co297 O322 2.351 . S
Co297 O323 2.155 . S
Co297 O324 2.096 . S
C298 N301 1.301 . S
C298 N302 1.328 . S
C298 H303 0.930 . S
C299 C300 1.333 . S
C299 N301 1.317 1_545 S
C299 H304 0.930 . S
C300 C299 1.333 . S
C300 N302 1.350 1_545 S
C300 H326 0.931 . S
N301 Co297 2.148 . S
N301 C298 1.301 . S
N301 C299 1.317 1_565 S
N302 C298 1.328 . S
N302 C300 1.350 1_565 S
H303 C298 0.930 . S
H304 C299 0.930 . S
C305 O306 1.224 . S
C305 O324 1.247 1_545 S
O306 C305 1.224 . S
N307 Co297 2.128 . S
N307 C308 1.355 . S
N307 C310 1.311 . S
C308 N307 1.355 . S
C308 C309 1.363 . S
C308 H320 0.929 . S
C309 C308 1.363 . S
C309 N311 1.375 . S
C309 H327 0.931 . S
C310 N307 1.311 . S
C310 N311 1.347 . S
C310 H321 0.929 . S
N311 C309 1.375 . S
N311 C310 1.347 . S
C312 C315 1.365 . S
C312 N317 1.328 . S
C312 H318 0.929 . S
C313 C314 1.362 . S
C313 C316 1.378 . S
C313 H328 0.929 . S
C314 C313 1.362 . S
C314 C315 1.366 . S
C315 C312 1.365 . S
C315 C314 1.366 . S
C315 H329 0.930 . S
C316 C313 1.378 . S
C316 N317 1.315 . S
C316 H319 0.930 . S
N317 Co297 2.194 . S
N317 C312 1.328 . S
N317 C316 1.315 . S
H318 C312 0.929 . S
H319 C316 0.930 . S
H320 C308 0.929 . S
H321 C310 0.929 . S
O322 Co297 2.351 . S
O322 C325 1.244 . S
O323 Co297 2.155 . S
O323 C325 1.240 . S
O324 Co297 2.096 . S
O324 C305 1.247 1_565 S
C325 O322 1.244 . S
C325 O323 1.240 . S
H326 C300 0.931 . S
H327 C309 0.931 . S
H328 C313 0.929 . S
H329 C315 0.930 . S
Co330 N334 2.148 . S
Co330 N340 2.128 . S
Co330 N350 2.194 . S
Co330 O355 2.351 . S
Co330 O356 2.155 . S
Co330 O357 2.096 . S
C331 N334 1.301 . S
C331 N335 1.328 . S
C331 H336 0.930 . S
C332 C333 1.333 . S
C332 N334 1.317 1_655 S
C332 H337 0.930 . S
C333 C332 1.333 . S
C333 N335 1.350 1_655 S
C333 H359 0.931 . S
N334 Co330 2.148 . S
N334 C331 1.301 . S
N334 C332 1.317 1_455 S
N335 C331 1.328 . S
N335 C333 1.350 1_455 S
H336 C331 0.930 . S
H337 C332 0.930 . S
C338 O339 1.224 . S
C338 O357 1.247 1_655 S
O339 C338 1.224 . S
N340 Co330 2.128 . S
N340 C341 1.355 . S
N340 C343 1.311 . S
C341 N340 1.355 . S
C341 C342 1.363 . S
C341 H353 0.929 . S
C342 C341 1.363 . S
C342 N344 1.375 . S
C342 H360 0.931 . S
C343 N340 1.311 . S
C343 N344 1.347 . S
C343 H354 0.929 . S
N344 C342 1.375 . S
N344 C343 1.347 . S
C345 C348 1.365 . S
C345 N350 1.328 . S
C345 H351 0.929 . S
C346 C347 1.362 . S
C346 C349 1.378 . S
C346 H361 0.929 . S
C347 C346 1.362 . S
C347 C348 1.366 . S
C348 C345 1.365 . S
C348 C347 1.366 . S
C348 H362 0.930 . S
C349 C346 1.378 . S
C349 N350 1.315 . S
C349 H352 0.930 . S
N350 Co330 2.194 . S
N350 C345 1.328 . S
N350 C349 1.315 . S
H351 C345 0.929 . S
H352 C349 0.930 . S
H353 C341 0.929 . S
H354 C343 0.929 . S
O355 Co330 2.351 . S
O355 C358 1.244 . S
O356 Co330 2.155 . S
O356 C358 1.240 . S
O357 Co330 2.096 . S
O357 C338 1.247 1_455 S
C358 O355 1.244 . S
C358 O356 1.240 . S
H359 C333 0.931 . S
H360 C342 0.931 . S
H361 C346 0.929 . S
H362 C348 0.930 . S
Co363 N367 2.148 . S
Co363 N373 2.128 . S
Co363 N383 2.194 . S
Co363 O388 2.351 . S
Co363 O389 2.155 . S
Co363 O390 2.096 . S
C364 N367 1.301 . S
C364 N368 1.328 . S
C364 H369 0.930 . S
C365 C366 1.333 . S
C365 N367 1.317 . S
C365 H370 0.930 . S
C366 C365 1.333 . S
C366 N368 1.350 . S
C366 H392 0.931 . S
N367 Co363 2.148 . S
N367 C364 1.301 . S
N367 C365 1.317 . S
N368 C364 1.328 . S
N368 C366 1.350 . S
H369 C364 0.930 . S
H370 C365 0.930 . S
C371 O372 1.224 . S
C371 O390 1.247 . S
O372 C371 1.224 . S
N373 Co363 2.128 . S
N373 C374 1.355 . S
N373 C376 1.311 . S
C374 N373 1.355 . S
C374 C375 1.363 . S
C374 H386 0.929 . S
C375 C374 1.363 . S
C375 N377 1.375 . S
C375 H393 0.931 . S
C376 N373 1.311 . S
C376 N377 1.347 . S
C376 H387 0.929 . S
N377 C375 1.375 . S
N377 C376 1.347 . S
C378 C381 1.365 . S
C378 N383 1.328 . S
C378 H384 0.929 . S
C379 C380 1.362 . S
C379 C382 1.378 . S
C379 H394 0.929 . S
C380 C379 1.362 . S
C380 C381 1.366 . S
C381 C378 1.365 . S
C381 C380 1.366 . S
C381 H395 0.930 . S
C382 C379 1.378 . S
C382 N383 1.315 . S
C382 H385 0.930 . S
N383 Co363 2.194 . S
N383 C378 1.328 . S
N383 C382 1.315 . S
H384 C378 0.929 . S
H385 C382 0.930 . S
H386 C374 0.929 . S
H387 C376 0.929 . S
O388 Co363 2.351 . S
O388 C391 1.244 . S
O389 Co363 2.155 . S
O389 C391 1.240 . S
O390 Co363 2.096 . S
O390 C371 1.247 . S
C391 O388 1.244 . S
C391 O389 1.240 . S
H392 C366 0.931 . S
H393 C375 0.931 . S
H394 C379 0.929 . S
H395 C381 0.930 . S
Co396 N400 2.148 . S
Co396 N406 2.128 . S
Co396 N416 2.194 . S
Co396 O421 2.351 . S
Co396 O422 2.155 . S
Co396 O423 2.096 . S
C397 N400 1.301 . S
C397 N401 1.328 . S
C397 H402 0.930 . S
C398 C399 1.333 . S
C398 N400 1.317 . S
C398 H403 0.930 . S
C399 C398 1.333 . S
C399 N401 1.350 . S
C399 H425 0.931 . S
N400 Co396 2.148 . S
N400 C397 1.301 . S
N400 C398 1.317 . S
N401 C397 1.328 . S
N401 C399 1.350 . S
H402 C397 0.930 . S
H403 C398 0.930 . S
C404 O405 1.224 . S
C404 O423 1.247 . S
O405 C404 1.224 . S
N406 Co396 2.128 . S
N406 C407 1.355 . S
N406 C409 1.311 . S
C407 N406 1.355 . S
C407 C408 1.363 . S
C407 H419 0.929 . S
C408 C407 1.363 . S
C408 N410 1.375 . S
C408 H426 0.931 . S
C409 N406 1.311 . S
C409 N410 1.347 . S
C409 H420 0.929 . S
N410 C408 1.375 . S
N410 C409 1.347 . S
C411 C414 1.365 . S
C411 N416 1.328 . S
C411 H417 0.929 . S
C412 C413 1.362 . S
C412 C415 1.378 . S
C412 H427 0.929 . S
C413 C412 1.362 . S
C413 C414 1.366 . S
C414 C411 1.365 . S
C414 C413 1.366 . S
C414 H428 0.930 . S
C415 C412 1.378 . S
C415 N416 1.315 . S
C415 H418 0.930 . S
N416 Co396 2.194 . S
N416 C411 1.328 . S
N416 C415 1.315 . S
H417 C411 0.929 . S
H418 C415 0.930 . S
H419 C407 0.929 . S
H420 C409 0.929 . S
O421 Co396 2.351 . S
O421 C424 1.244 . S
O422 Co396 2.155 . S
O422 C424 1.240 . S
O423 Co396 2.096 . S
O423 C404 1.247 . S
C424 O421 1.244 . S
C424 O422 1.240 . S
H425 C399 0.931 . S
H426 C408 0.931 . S
H427 C412 0.929 . S
H428 C414 0.930 . S
Co429 N433 2.148 . S
Co429 N439 2.128 . S
Co429 N449 2.194 . S
Co429 O454 2.351 . S
Co429 O455 2.155 . S
Co429 O456 2.096 . S
C430 N433 1.301 . S
C430 N434 1.328 . S
C430 H435 0.930 . S
C431 C432 1.333 . S
C431 N433 1.317 . S
C431 H436 0.930 . S
C432 C431 1.333 . S
C432 N434 1.350 . S
C432 H458 0.931 1_545 S
N433 Co429 2.148 . S
N433 C430 1.301 . S
N433 C431 1.317 . S
N434 C430 1.328 . S
N434 C432 1.350 . S
H435 C430 0.930 . S
H436 C431 0.930 . S
C437 O438 1.224 . S
C437 O456 1.247 . S
O438 C437 1.224 . S
N439 Co429 2.128 . S
N439 C440 1.355 . S
N439 C442 1.311 . S
C440 N439 1.355 . S
C440 C441 1.363 . S
C440 H452 0.929 . S
C441 C440 1.363 . S
C441 N443 1.375 . S
C441 H459 0.931 . S
C442 N439 1.311 . S
C442 N443 1.347 . S
C442 H453 0.929 . S
N443 C441 1.375 . S
N443 C442 1.347 . S
C444 C447 1.365 . S
C444 N449 1.328 . S
C444 H450 0.929 . S
C445 C446 1.362 . S
C445 C448 1.378 . S
C445 H460 0.929 . S
C446 C445 1.362 . S
C446 C447 1.366 . S
C447 C444 1.365 . S
C447 C446 1.366 . S
C447 H461 0.930 . S
C448 C445 1.378 . S
C448 N449 1.315 . S
C448 H451 0.930 . S
N449 Co429 2.194 . S
N449 C444 1.328 . S
N449 C448 1.315 . S
H450 C444 0.929 . S
H451 C448 0.930 . S
H452 C440 0.929 . S
H453 C442 0.929 . S
O454 Co429 2.351 . S
O454 C457 1.244 . S
O455 Co429 2.155 . S
O455 C457 1.240 . S
O456 Co429 2.096 . S
O456 C437 1.247 . S
C457 O454 1.244 . S
C457 O455 1.240 . S
H458 C432 0.931 1_565 S
H459 C441 0.931 . S
H460 C445 0.929 . S
H461 C447 0.930 . S
Co462 N466 2.148 . S
Co462 N472 2.128 . S
Co462 N482 2.194 . S
Co462 O487 2.351 . S
Co462 O488 2.155 . S
Co462 O489 2.096 . S
C463 N466 1.301 . S
C463 N467 1.328 . S
C463 H468 0.930 . S
C464 C465 1.333 . S
C464 N466 1.317 . S
C464 H469 0.930 . S
C465 C464 1.333 . S
C465 N467 1.350 . S
C465 H491 0.931 1_655 S
N466 Co462 2.148 . S
N466 C463 1.301 . S
N466 C464 1.317 . S
N467 C463 1.328 . S
N467 C465 1.350 . S
H468 C463 0.930 . S
H469 C464 0.930 . S
C470 O471 1.224 . S
C470 O489 1.247 . S
O471 C470 1.224 . S
N472 Co462 2.128 . S
N472 C473 1.355 . S
N472 C475 1.311 . S
C473 N472 1.355 . S
C473 C474 1.363 . S
C473 H485 0.929 . S
C474 C473 1.363 . S
C474 N476 1.375 . S
C474 H492 0.931 . S
C475 N472 1.311 . S
C475 N476 1.347 . S
C475 H486 0.929 . S
N476 C474 1.375 . S
N476 C475 1.347 . S
C477 C480 1.365 . S
C477 N482 1.328 . S
C477 H483 0.929 . S
C478 C479 1.362 . S
C478 C481 1.378 . S
C478 H493 0.929 . S
C479 C478 1.362 . S
C479 C480 1.366 . S
C480 C477 1.365 . S
C480 C479 1.366 . S
C480 H494 0.930 . S
C481 C478 1.378 . S
C481 N482 1.315 . S
C481 H484 0.930 . S
N482 Co462 2.194 . S
N482 C477 1.328 . S
N482 C481 1.315 . S
H483 C477 0.929 . S
H484 C481 0.930 . S
H485 C473 0.929 . S
H486 C475 0.929 . S
O487 Co462 2.351 . S
O487 C490 1.244 . S
O488 Co462 2.155 . S
O488 C490 1.240 . S
O489 Co462 2.096 . S
O489 C470 1.247 . S
C490 O487 1.244 . S
C490 O488 1.240 . S
H491 C465 0.931 1_455 S
H492 C474 0.931 . S
H493 C478 0.929 . S
H494 C480 0.930 . S
Co495 N499 2.148 . S
Co495 N505 2.128 . S
Co495 N515 2.194 . S
Co495 O520 2.351 . S
Co495 O521 2.155 . S
Co495 O522 2.096 . S
C496 N499 1.301 1_455 S
C496 N500 1.328 . S
C496 H501 0.930 . S
C497 C498 1.333 . S
C497 N499 1.317 . S
C497 H502 0.930 . S
C498 C497 1.333 . S
C498 N500 1.350 1_655 S
C498 H524 0.931 . S
N499 Co495 2.148 . S
N499 C496 1.301 1_655 S
N499 C497 1.317 . S
N500 C496 1.328 . S
N500 C498 1.350 1_455 S
H501 C496 0.930 . S
H502 C497 0.930 . S
C503 O504 1.224 . S
C503 O522 1.247 . S
O504 C503 1.224 . S
N505 Co495 2.128 . S
N505 C506 1.355 . S
N505 C508 1.311 . S
C506 N505 1.355 . S
C506 C507 1.363 . S
C506 H518 0.929 . S
C507 C506 1.363 . S
C507 N509 1.375 . S
C507 H525 0.931 . S
C508 N505 1.311 . S
C508 N509 1.347 . S
C508 H519 0.929 . S
N509 C507 1.375 . S
N509 C508 1.347 . S
C510 C513 1.363 1_655 S
C510 N515 1.328 . S
C510 H516 0.929 1_655 S
C511 C512 1.362 . S
C511 C514 1.378 . S
C511 H526 0.929 . S
C512 C511 1.362 . S
C512 C513 1.363 1_655 S
C513 C510 1.363 1_455 S
C513 C512 1.363 1_455 S
C513 H527 0.935 . S
C514 C511 1.378 . S
C514 N515 1.315 . S
C514 H517 0.930 . S
N515 Co495 2.194 . S
N515 C510 1.328 . S
N515 C514 1.315 . S
H516 C510 0.929 1_455 S
H517 C514 0.930 . S
H518 C506 0.929 . S
H519 C508 0.929 . S
O520 Co495 2.351 . S
O520 C523 1.244 . S
O521 Co495 2.155 . S
O521 C523 1.240 . S
O522 Co495 2.096 . S
O522 C503 1.247 . S
C523 O520 1.244 . S
C523 O521 1.240 . S
H524 C498 0.931 . S
H525 C507 0.931 . S
H526 C511 0.929 . S
H527 C513 0.935 . S
Co528 N532 2.148 . S
Co528 N538 2.128 . S
Co528 N548 2.194 . S
Co528 O553 2.351 . S
Co528 O554 2.155 . S
Co528 O555 2.096 . S
C529 N532 1.301 . S
C529 N533 1.328 . S
C529 H534 0.930 . S
C530 C531 1.333 . S
C530 N532 1.317 . S
C530 H535 0.930 . S
C531 C530 1.333 . S
C531 N533 1.350 . S
C531 H557 0.931 . S
N532 Co528 2.148 . S
N532 C529 1.301 . S
N532 C530 1.317 . S
N533 C529 1.328 . S
N533 C531 1.350 . S
H534 C529 0.930 . S
H535 C530 0.930 . S
C536 O537 1.224 . S
C536 O555 1.247 . S
O537 C536 1.224 . S
N538 Co528 2.128 . S
N538 C539 1.355 . S
N538 C541 1.311 . S
C539 N538 1.355 . S
C539 C540 1.363 . S
C539 H551 0.929 . S
C540 C539 1.363 . S
C540 N542 1.375 . S
C540 H558 0.931 . S
C541 N538 1.311 . S
C541 N542 1.347 . S
C541 H552 0.929 . S
N542 C540 1.375 . S
N542 C541 1.347 . S
C543 C546 1.365 . S
C543 N548 1.328 . S
C543 H549 0.929 . S
C544 C545 1.362 . S
C544 C547 1.378 . S
C544 H559 0.929 . S
C545 C544 1.362 . S
C545 C546 1.366 . S
C546 C543 1.365 . S
C546 C545 1.366 . S
C546 H560 0.930 . S
C547 C544 1.378 . S
C547 N548 1.315 . S
C547 H550 0.930 . S
N548 Co528 2.194 . S
N548 C543 1.328 . S
N548 C547 1.315 . S
H549 C543 0.929 . S
H550 C547 0.930 . S
H551 C539 0.929 . S
H552 C541 0.929 . S
O553 Co528 2.351 . S
O553 C556 1.244 . S
O554 Co528 2.155 . S
O554 C556 1.240 . S
O555 Co528 2.096 . S
O555 C536 1.247 . S
C556 O553 1.244 . S
C556 O554 1.240 . S
H557 C531 0.931 . S
H558 C540 0.931 . S
H559 C544 0.929 . S
H560 C546 0.930 . S
Co561 N565 2.148 . S
Co561 N571 2.128 . S
Co561 N581 2.194 . S
Co561 O586 2.351 . S
Co561 O587 2.155 . S
Co561 O588 2.096 . S
C562 N565 1.301 1_565 S
C562 N566 1.328 . S
C562 H567 0.930 . S
C563 C564 1.333 . S
C563 N565 1.317 . S
C563 H568 0.930 . S
C564 C563 1.333 . S
C564 N566 1.350 1_545 S
C564 H590 0.931 . S
N565 Co561 2.148 . S
N565 C562 1.301 1_545 S
N565 C563 1.317 . S
N566 C562 1.328 . S
N566 C564 1.350 1_565 S
H567 C562 0.930 . S
H568 C563 0.930 . S
C569 O570 1.224 . S
C569 O588 1.247 . S
O570 C569 1.224 . S
N571 Co561 2.128 . S
N571 C572 1.355 . S
N571 C574 1.311 . S
C572 N571 1.355 . S
C572 C573 1.363 . S
C572 H584 0.929 . S
C573 C572 1.363 . S
C573 N575 1.375 . S
C573 H591 0.931 . S
C574 N571 1.311 . S
C574 N575 1.347 . S
C574 H585 0.929 . S
N575 C573 1.375 . S
N575 C574 1.347 . S
C576 C579 1.365 1_545 S
C576 N581 1.328 . S
C576 H582 0.929 1_545 S
C577 C578 1.362 . S
C577 C580 1.378 . S
C577 H592 0.929 . S
C578 C577 1.362 . S
C578 C579 1.364 1_545 S
C579 C576 1.365 1_565 S
C579 C578 1.364 1_565 S
C579 H593 0.932 . S
C580 C577 1.378 . S
C580 N581 1.315 . S
C580 H583 0.930 . S
N581 Co561 2.194 . S
N581 C576 1.328 . S
N581 C580 1.315 . S
H582 C576 0.929 1_565 S
H583 C580 0.930 . S
H584 C572 0.929 . S
H585 C574 0.929 . S
O586 Co561 2.351 . S
O586 C589 1.244 . S
O587 Co561 2.155 . S
O587 C589 1.240 . S
O588 Co561 2.096 . S
O588 C569 1.247 . S
C589 O586 1.244 . S
C589 O587 1.240 . S
H590 C564 0.931 . S
H591 C573 0.931 . S
H592 C577 0.929 . S
H593 C579 0.932 . S
Co594 N598 2.148 . S
Co594 N604 2.128 . S
Co594 N614 2.194 . S
Co594 O619 2.351 . S
Co594 O620 2.155 . S
Co594 O621 2.096 . S
C595 N598 1.301 1_565 S
C595 N599 1.328 . S
C595 H600 0.930 . S
C596 C597 1.333 . S
C596 N598 1.317 . S
C596 H601 0.930 . S
C597 C596 1.333 . S
C597 N599 1.350 1_545 S
C597 H623 0.931 . S
N598 Co594 2.148 . S
N598 C595 1.301 1_545 S
N598 C596 1.317 . S
N599 C595 1.328 . S
N599 C597 1.350 1_565 S
H600 C595 0.930 . S
H601 C596 0.930 . S
C602 O603 1.224 . S
C602 O621 1.247 . S
O603 C602 1.224 . S
N604 Co594 2.128 . S
N604 C605 1.355 . S
N604 C607 1.311 . S
C605 N604 1.355 . S
C605 C606 1.363 . S
C605 H617 0.929 . S
C606 C605 1.363 . S
C606 N608 1.375 . S
C606 H624 0.931 . S
C607 N604 1.311 . S
C607 N608 1.347 . S
C607 H618 0.929 . S
N608 C606 1.375 . S
N608 C607 1.347 . S
C609 C612 1.363 1_545 S
C609 N614 1.328 . S
C609 H615 0.929 1_545 S
C610 C611 1.362 . S
C610 C613 1.378 . S
C610 H625 0.929 . S
C611 C610 1.362 . S
C611 C612 1.364 1_545 S
C612 C609 1.363 1_565 S
C612 C611 1.364 1_565 S
C612 H626 0.935 . S
C613 C610 1.378 . S
C613 N614 1.315 . S
C613 H616 0.930 . S
N614 Co594 2.194 . S
N614 C609 1.328 . S
N614 C613 1.315 . S
H615 C609 0.929 1_565 S
H616 C613 0.930 . S
H617 C605 0.929 . S
H618 C607 0.929 . S
O619 Co594 2.351 . S
O619 C622 1.244 . S
O620 Co594 2.155 . S
O620 C622 1.240 . S
O621 Co594 2.096 . S
O621 C602 1.247 . S
C622 O619 1.244 . S
C622 O620 1.240 . S
H623 C597 0.931 . S
H624 C606 0.931 . S
H625 C610 0.929 . S
H626 C612 0.935 . S
Co627 N631 2.148 . S
Co627 N637 2.128 . S
Co627 N647 2.194 . S
Co627 O652 2.351 . S
Co627 O653 2.155 . S
Co627 O654 2.096 . S
C628 N631 1.301 1_455 S
C628 N632 1.328 . S
C628 H633 0.930 . S
C629 C630 1.333 . S
C629 N631 1.317 . S
C629 H634 0.930 . S
C630 C629 1.333 . S
C630 N632 1.350 1_655 S
C630 H656 0.931 . S
N631 Co627 2.148 . S
N631 C628 1.301 1_655 S
N631 C629 1.317 . S
N632 C628 1.328 . S
N632 C630 1.350 1_455 S
H633 C628 0.930 . S
H634 C629 0.930 . S
C635 O636 1.224 . S
C635 O654 1.247 . S
O636 C635 1.224 . S
N637 Co627 2.128 . S
N637 C638 1.355 . S
N637 C640 1.311 . S
C638 N637 1.355 . S
C638 C639 1.363 . S
C638 H650 0.929 . S
C639 C638 1.363 . S
C639 N641 1.375 . S
C639 H657 0.931 . S
C640 N637 1.311 . S
C640 N641 1.347 . S
C640 H651 0.929 . S
N641 C639 1.375 . S
N641 C640 1.347 . S
C642 C645 1.365 1_655 S
C642 N647 1.328 . S
C642 H648 0.929 1_655 S
C643 C644 1.362 . S
C643 C646 1.378 . S
C643 H658 0.929 . S
C644 C643 1.362 . S
C644 C645 1.365 1_655 S
C645 C642 1.365 1_455 S
C645 C644 1.365 1_455 S
C645 H659 0.931 . S
C646 C643 1.378 . S
C646 N647 1.315 . S
C646 H649 0.930 . S
N647 Co627 2.194 . S
N647 C642 1.328 . S
N647 C646 1.315 . S
H648 C642 0.929 1_455 S
H649 C646 0.930 . S
H650 C638 0.929 . S
H651 C640 0.929 . S
O652 Co627 2.351 . S
O652 C655 1.244 . S
O653 Co627 2.155 . S
O653 C655 1.240 . S
O654 Co627 2.096 . S
O654 C635 1.247 . S
C655 O652 1.244 . S
C655 O653 1.240 . S
H656 C630 0.931 . S
H657 C639 0.931 . S
H658 C643 0.929 . S
H659 C645 0.931 . S
Co660 N664 2.148 . S
Co660 N670 2.128 . S
Co660 N680 2.194 . S
Co660 O685 2.351 . S
Co660 O686 2.155 . S
Co660 O687 2.096 . S
C661 N664 1.301 . S
C661 N665 1.328 . S
C661 H666 0.930 . S
C662 C663 1.333 . S
C662 N664 1.317 . S
C662 H667 0.930 . S
C663 C662 1.333 . S
C663 N665 1.350 . S
C663 H689 0.931 . S
N664 Co660 2.148 . S
N664 C661 1.301 . S
N664 C662 1.317 . S
N665 C661 1.328 . S
N665 C663 1.350 . S
H666 C661 0.930 . S
H667 C662 0.930 . S
C668 O669 1.224 . S
C668 O687 1.247 . S
O669 C668 1.224 . S
N670 Co660 2.128 . S
N670 C671 1.355 . S
N670 C673 1.311 . S
C671 N670 1.355 . S
C671 C672 1.363 . S
C671 H683 0.929 . S
C672 C671 1.363 . S
C672 N674 1.375 . S
C672 H690 0.931 . S
C673 N670 1.311 . S
C673 N674 1.347 . S
C673 H684 0.929 . S
N674 C672 1.375 . S
N674 C673 1.347 . S
C675 C678 1.365 . S
C675 N680 1.328 . S
C675 H681 0.929 . S
C676 C677 1.362 . S
C676 C679 1.378 . S
C676 H691 0.929 . S
C677 C676 1.362 . S
C677 C678 1.366 . S
C678 C675 1.365 . S
C678 C677 1.366 . S
C678 H692 0.930 . S
C679 C676 1.378 . S
C679 N680 1.315 . S
C679 H682 0.930 . S
N680 Co660 2.194 . S
N680 C675 1.328 . S
N680 C679 1.315 . S
H681 C675 0.929 . S
H682 C679 0.930 . S
H683 C671 0.929 . S
H684 C673 0.929 . S
O685 Co660 2.351 . S
O685 C688 1.244 . S
O686 Co660 2.155 . S
O686 C688 1.240 . S
O687 Co660 2.096 . S
O687 C668 1.247 . S
C688 O685 1.244 . S
C688 O686 1.240 . S
H689 C663 0.931 . S
H690 C672 0.931 . S
H691 C676 0.929 . S
H692 C678 0.930 . S
Co693 N697 2.148 . S
Co693 N703 2.128 . S
Co693 N713 2.194 . S
Co693 O718 2.351 . S
Co693 O719 2.155 . S
Co693 O720 2.096 . S
C694 N697 1.301 . S
C694 N698 1.328 . S
C694 H699 0.930 . S
C695 C696 1.333 . S
C695 N697 1.317 . S
C695 H700 0.930 . S
C696 C695 1.333 . S
C696 N698 1.350 . S
C696 H722 0.931 . S
N697 Co693 2.148 . S
N697 C694 1.301 . S
N697 C695 1.317 . S
N698 C694 1.328 . S
N698 C696 1.350 . S
H699 C694 0.930 . S
H700 C695 0.930 . S
C701 O702 1.224 . S
C701 O720 1.247 . S
O702 C701 1.224 . S
N703 Co693 2.128 . S
N703 C704 1.355 . S
N703 C706 1.311 . S
C704 N703 1.355 . S
C704 C705 1.363 . S
C704 H716 0.929 . S
C705 C704 1.363 . S
C705 N707 1.375 . S
C705 H723 0.931 . S
C706 N703 1.311 . S
C706 N707 1.347 . S
C706 H717 0.929 . S
N707 C705 1.375 . S
N707 C706 1.347 . S
C708 C711 1.365 . S
C708 N713 1.328 . S
C708 H714 0.929 . S
C709 C710 1.362 . S
C709 C712 1.378 . S
C709 H724 0.929 . S
C710 C709 1.362 . S
C710 C711 1.366 . S
C711 C708 1.365 . S
C711 C710 1.366 . S
C711 H725 0.930 . S
C712 C709 1.378 . S
C712 N713 1.315 . S
C712 H715 0.930 . S
N713 Co693 2.194 . S
N713 C708 1.328 . S
N713 C712 1.315 . S
H714 C708 0.929 . S
H715 C712 0.930 . S
H716 C704 0.929 . S
H717 C706 0.929 . S
O718 Co693 2.351 . S
O718 C721 1.244 . S
O719 Co693 2.155 . S
O719 C721 1.240 . S
O720 Co693 2.096 . S
O720 C701 1.247 . S
C721 O718 1.244 . S
C721 O719 1.240 . S
H722 C696 0.931 . S
H723 C705 0.931 . S
H724 C709 0.929 . S
H725 C711 0.930 . S
Co726 N730 2.148 . S
Co726 N736 2.128 . S
Co726 N746 2.194 . S
Co726 O751 2.351 . S
Co726 O752 2.155 . S
Co726 O753 2.096 . S
C727 N730 1.301 . S
C727 N731 1.328 . S
C727 H732 0.930 . S
C728 C729 1.333 . S
C728 N730 1.317 . S
C728 H733 0.930 . S
C729 C728 1.333 . S
C729 N731 1.350 . S
C729 H755 0.931 1_545 S
N730 Co726 2.148 . S
N730 C727 1.301 . S
N730 C728 1.317 . S
N731 C727 1.328 . S
N731 C729 1.350 . S
H732 C727 0.930 . S
H733 C728 0.930 . S
C734 O735 1.224 . S
C734 O753 1.247 . S
O735 C734 1.224 . S
N736 Co726 2.128 . S
N736 C737 1.355 . S
N736 C739 1.311 . S
C737 N736 1.355 . S
C737 C738 1.363 . S
C737 H749 0.929 . S
C738 C737 1.363 . S
C738 N740 1.375 . S
C738 H756 0.931 . S
C739 N736 1.311 . S
C739 N740 1.347 . S
C739 H750 0.929 . S
N740 C738 1.375 . S
N740 C739 1.347 . S
C741 C744 1.365 . S
C741 N746 1.328 . S
C741 H747 0.929 . S
C742 C743 1.362 . S
C742 C745 1.378 . S
C742 H757 0.929 . S
C743 C742 1.362 . S
C743 C744 1.366 . S
C744 C741 1.365 . S
C744 C743 1.366 . S
C744 H758 0.930 . S
C745 C742 1.378 . S
C745 N746 1.315 . S
C745 H748 0.930 . S
N746 Co726 2.194 . S
N746 C741 1.328 . S
N746 C745 1.315 . S
H747 C741 0.929 . S
H748 C745 0.930 . S
H749 C737 0.929 . S
H750 C739 0.929 . S
O751 Co726 2.351 . S
O751 C754 1.244 . S
O752 Co726 2.155 . S
O752 C754 1.240 . S
O753 Co726 2.096 . S
O753 C734 1.247 . S
C754 O751 1.244 . S
C754 O752 1.240 . S
H755 C729 0.931 1_565 S
H756 C738 0.931 . S
H757 C742 0.929 . S
H758 C744 0.930 . S
Co759 N763 2.148 . S
Co759 N769 2.128 . S
Co759 N779 2.194 . S
Co759 O784 2.351 . S
Co759 O785 2.155 . S
Co759 O786 2.096 . S
C760 N763 1.301 . S
C760 N764 1.328 . S
C760 H765 0.930 . S
C761 C762 1.333 . S
C761 N763 1.317 . S
C761 H766 0.930 . S
C762 C761 1.333 . S
C762 N764 1.350 . S
C762 H788 0.931 1_655 S
N763 Co759 2.148 . S
N763 C760 1.301 . S
N763 C761 1.317 . S
N764 C760 1.328 . S
N764 C762 1.350 . S
H765 C760 0.930 . S
H766 C761 0.930 . S
C767 O768 1.224 . S
C767 O786 1.247 . S
O768 C767 1.224 . S
N769 Co759 2.128 . S
N769 C770 1.355 . S
N769 C772 1.311 . S
C770 N769 1.355 . S
C770 C771 1.363 . S
C770 H782 0.929 . S
C771 C770 1.363 . S
C771 N773 1.375 . S
C771 H789 0.931 . S
C772 N769 1.311 . S
C772 N773 1.347 . S
C772 H783 0.929 . S
N773 C771 1.375 . S
N773 C772 1.347 . S
C774 C777 1.365 . S
C774 N779 1.328 . S
C774 H780 0.929 . S
C775 C776 1.362 . S
C775 C778 1.378 . S
C775 H790 0.929 . S
C776 C775 1.362 . S
C776 C777 1.366 . S
C777 C774 1.365 . S
C777 C776 1.366 . S
C777 H791 0.930 . S
C778 C775 1.378 . S
C778 N779 1.315 . S
C778 H781 0.930 . S
N779 Co759 2.194 . S
N779 C774 1.328 . S
N779 C778 1.315 . S
H780 C774 0.929 . S
H781 C778 0.930 . S
H782 C770 0.929 . S
H783 C772 0.929 . S
O784 Co759 2.351 . S
O784 C787 1.244 . S
O785 Co759 2.155 . S
O785 C787 1.240 . S
O786 Co759 2.096 . S
O786 C767 1.247 . S
C787 O784 1.244 . S
C787 O785 1.240 . S
H788 C762 0.931 1_455 S
H789 C771 0.931 . S
H790 C775 0.929 . S
H791 C777 0.930 . S
Co792 N796 2.148 . S
Co792 N802 2.128 . S
Co792 N812 2.194 . S
Co792 O817 2.351 . S
Co792 O818 2.155 . S
Co792 O819 2.096 . S
C793 N796 1.301 1_545 S
C793 N797 1.328 . S
C793 H798 0.930 . S
C794 C795 1.333 . S
C794 N796 1.317 . S
C794 H799 0.930 . S
C795 C794 1.333 . S
C795 N797 1.350 1_565 S
C795 H821 0.931 . S
N796 Co792 2.148 . S
N796 C793 1.301 1_565 S
N796 C794 1.317 . S
N797 C793 1.328 . S
N797 C795 1.350 1_545 S
H798 C793 0.930 . S
H799 C794 0.930 . S
C800 O801 1.224 . S
C800 O819 1.247 . S
O801 C800 1.224 . S
N802 Co792 2.128 . S
N802 C803 1.355 . S
N802 C805 1.311 . S
C803 N802 1.355 . S
C803 C804 1.363 . S
C803 H815 0.929 . S
C804 C803 1.363 . S
C804 N806 1.375 . S
C804 H822 0.931 . S
C805 N802 1.311 . S
C805 N806 1.347 . S
C805 H816 0.929 . S
N806 C804 1.375 . S
N806 C805 1.347 . S
C807 C810 1.363 1_565 S
C807 N812 1.328 . S
C807 H813 0.929 1_565 S
C808 C809 1.362 . S
C808 C811 1.378 . S
C808 H823 0.929 . S
C809 C808 1.362 . S
C809 C810 1.364 1_565 S
C810 C807 1.363 1_545 S
C810 C809 1.364 1_545 S
C810 H824 0.935 . S
C811 C808 1.378 . S
C811 N812 1.315 . S
C811 H814 0.930 . S
N812 Co792 2.194 . S
N812 C807 1.328 . S
N812 C811 1.315 . S
H813 C807 0.929 1_545 S
H814 C811 0.930 . S
H815 C803 0.929 . S
H816 C805 0.929 . S
O817 Co792 2.351 . S
O817 C820 1.244 . S
O818 Co792 2.155 . S
O818 C820 1.240 . S
O819 Co792 2.096 . S
O819 C800 1.247 . S
C820 O817 1.244 . S
C820 O818 1.240 . S
H821 C795 0.931 . S
H822 C804 0.931 . S
H823 C808 0.929 . S
H824 C810 0.935 . S
Co825 N829 2.148 . S
Co825 N835 2.128 . S
Co825 N845 2.194 . S
Co825 O850 2.351 . S
Co825 O851 2.155 . S
Co825 O852 2.096 . S
C826 N829 1.301 1_655 S
C826 N830 1.328 . S
C826 H831 0.930 . S
C827 C828 1.333 . S
C827 N829 1.317 . S
C827 H832 0.930 . S
C828 C827 1.333 . S
C828 N830 1.350 1_455 S
C828 H854 0.931 . S
N829 Co825 2.148 . S
N829 C826 1.301 1_455 S
N829 C827 1.317 . S
N830 C826 1.328 . S
N830 C828 1.350 1_655 S
H831 C826 0.930 . S
H832 C827 0.930 . S
C833 O834 1.224 . S
C833 O852 1.247 . S
O834 C833 1.224 . S
N835 Co825 2.128 . S
N835 C836 1.355 . S
N835 C838 1.311 . S
C836 N835 1.355 . S
C836 C837 1.363 . S
C836 H848 0.929 . S
C837 C836 1.363 . S
C837 N839 1.375 . S
C837 H855 0.931 . S
C838 N835 1.311 . S
C838 N839 1.347 . S
C838 H849 0.929 . S
N839 C837 1.375 . S
N839 C838 1.347 . S
C840 C843 1.365 1_455 S
C840 N845 1.328 . S
C840 H846 0.929 1_455 S
C841 C842 1.362 . S
C841 C844 1.378 . S
C841 H856 0.929 . S
C842 C841 1.362 . S
C842 C843 1.365 1_455 S
C843 C840 1.365 1_655 S
C843 C842 1.365 1_655 S
C843 H857 0.931 . S
C844 C841 1.378 . S
C844 N845 1.315 . S
C844 H847 0.930 . S
N845 Co825 2.194 . S
N845 C840 1.328 . S
N845 C844 1.315 . S
H846 C840 0.929 1_655 S
H847 C844 0.930 . S
H848 C836 0.929 . S
H849 C838 0.929 . S
O850 Co825 2.351 . S
O850 C853 1.244 . S
O851 Co825 2.155 . S
O851 C853 1.240 . S
O852 Co825 2.096 . S
O852 C833 1.247 . S
C853 O850 1.244 . S
C853 O851 1.240 . S
H854 C828 0.931 . S
H855 C837 0.931 . S
H856 C841 0.929 . S
H857 C843 0.931 . S
Co858 N862 2.148 . S
Co858 N868 2.128 . S
Co858 N878 2.194 . S
Co858 O883 2.351 . S
Co858 O884 2.155 . S
Co858 O885 2.096 . S
C859 N862 1.301 . S
C859 N863 1.328 . S
C859 H864 0.930 . S
C860 C861 1.333 . S
C860 N862 1.317 . S
C860 H865 0.930 . S
C861 C860 1.333 . S
C861 N863 1.350 . S
C861 H887 0.931 . S
N862 Co858 2.148 . S
N862 C859 1.301 . S
N862 C860 1.317 . S
N863 C859 1.328 . S
N863 C861 1.350 . S
H864 C859 0.930 . S
H865 C860 0.930 . S
C866 O867 1.224 . S
C866 O885 1.247 . S
O867 C866 1.224 . S
N868 Co858 2.128 . S
N868 C869 1.355 . S
N868 C871 1.311 . S
C869 N868 1.355 . S
C869 C870 1.363 . S
C869 H881 0.929 . S
C870 C869 1.363 . S
C870 N872 1.375 . S
C870 H888 0.931 . S
C871 N868 1.311 . S
C871 N872 1.347 . S
C871 H882 0.929 . S
N872 C870 1.375 . S
N872 C871 1.347 . S
C873 C876 1.365 . S
C873 N878 1.328 . S
C873 H879 0.929 . S
C874 C875 1.362 . S
C874 C877 1.378 . S
C874 H889 0.929 . S
C875 C874 1.362 . S
C875 C876 1.366 . S
C876 C873 1.365 . S
C876 C875 1.366 . S
C876 H890 0.930 . S
C877 C874 1.378 . S
C877 N878 1.315 . S
C877 H880 0.930 . S
N878 Co858 2.194 . S
N878 C873 1.328 . S
N878 C877 1.315 . S
H879 C873 0.929 . S
H880 C877 0.930 . S
H881 C869 0.929 . S
H882 C871 0.929 . S
O883 Co858 2.351 . S
O883 C886 1.244 . S
O884 Co858 2.155 . S
O884 C886 1.240 . S
O885 Co858 2.096 . S
O885 C866 1.247 . S
C886 O883 1.244 . S
C886 O884 1.240 . S
H887 C861 0.931 . S
H888 C870 0.931 . S
H889 C874 0.929 . S
H890 C876 0.930 . S
Co891 N895 2.148 . S
Co891 N901 2.128 . S
Co891 N911 2.194 . S
Co891 O916 2.351 . S
Co891 O917 2.155 . S
Co891 O918 2.096 . S
C892 N895 1.301 . S
C892 N896 1.328 . S
C892 H897 0.930 . S
C893 C894 1.333 . S
C893 N895 1.317 . S
C893 H898 0.930 . S
C894 C893 1.333 . S
C894 N896 1.350 . S
C894 H920 0.931 . S
N895 Co891 2.148 . S
N895 C892 1.301 . S
N895 C893 1.317 . S
N896 C892 1.328 . S
N896 C894 1.350 . S
H897 C892 0.930 . S
H898 C893 0.930 . S
C899 O900 1.224 . S
C899 O918 1.247 . S
O900 C899 1.224 . S
N901 Co891 2.128 . S
N901 C902 1.355 . S
N901 C904 1.311 . S
C902 N901 1.355 . S
C902 C903 1.363 . S
C902 H914 0.929 . S
C903 C902 1.363 . S
C903 N905 1.375 . S
C903 H921 0.931 . S
C904 N901 1.311 . S
C904 N905 1.347 . S
C904 H915 0.929 . S
N905 C903 1.375 . S
N905 C904 1.347 . S
C906 C909 1.365 . S
C906 N911 1.328 . S
C906 H912 0.929 . S
C907 C908 1.362 . S
C907 C910 1.378 . S
C907 H922 0.929 . S
C908 C907 1.362 . S
C908 C909 1.366 . S
C909 C906 1.365 . S
C909 C908 1.366 . S
C909 H923 0.930 . S
C910 C907 1.378 . S
C910 N911 1.315 . S
C910 H913 0.930 . S
N911 Co891 2.194 . S
N911 C906 1.328 . S
N911 C910 1.315 . S
H912 C906 0.929 . S
H913 C910 0.930 . S
H914 C902 0.929 . S
H915 C904 0.929 . S
O916 Co891 2.351 . S
O916 C919 1.244 . S
O917 Co891 2.155 . S
O917 C919 1.240 . S
O918 Co891 2.096 . S
O918 C899 1.247 . S
C919 O916 1.244 . S
C919 O917 1.240 . S
H920 C894 0.931 . S
H921 C903 0.931 . S
H922 C907 0.929 . S
H923 C909 0.930 . S
Co924 N928 2.148 . S
Co924 N934 2.128 . S
Co924 N944 2.194 . S
Co924 O949 2.351 . S
Co924 O950 2.155 . S
Co924 O951 2.096 . S
C925 N928 1.301 . S
C925 N929 1.328 . S
C925 H930 0.930 . S
C926 C927 1.333 . S
C926 N928 1.317 . S
C926 H931 0.930 . S
C927 C926 1.333 . S
C927 N929 1.350 . S
C927 H953 0.931 1_565 S
N928 Co924 2.148 . S
N928 C925 1.301 . S
N928 C926 1.317 . S
N929 C925 1.328 . S
N929 C927 1.350 . S
H930 C925 0.930 . S
H931 C926 0.930 . S
C932 O933 1.224 . S
C932 O951 1.247 . S
O933 C932 1.224 . S
N934 Co924 2.128 . S
N934 C935 1.355 . S
N934 C937 1.311 . S
C935 N934 1.355 . S
C935 C936 1.363 . S
C935 H947 0.929 . S
C936 C935 1.363 . S
C936 N938 1.375 . S
C936 H954 0.931 . S
C937 N934 1.311 . S
C937 N938 1.347 . S
C937 H948 0.929 . S
N938 C936 1.375 . S
N938 C937 1.347 . S
C939 C942 1.365 . S
C939 N944 1.328 . S
C939 H945 0.929 . S
C940 C941 1.362 . S
C940 C943 1.378 . S
C940 H955 0.929 . S
C941 C940 1.362 . S
C941 C942 1.366 . S
C942 C939 1.365 . S
C942 C941 1.366 . S
C942 H956 0.930 . S
C943 C940 1.378 . S
C943 N944 1.315 . S
C943 H946 0.930 . S
N944 Co924 2.194 . S
N944 C939 1.328 . S
N944 C943 1.315 . S
H945 C939 0.929 . S
H946 C943 0.930 . S
H947 C935 0.929 . S
H948 C937 0.929 . S
O949 Co924 2.351 . S
O949 C952 1.244 . S
O950 Co924 2.155 . S
O950 C952 1.240 . S
O951 Co924 2.096 . S
O951 C932 1.247 . S
C952 O949 1.244 . S
C952 O950 1.240 . S
H953 C927 0.931 1_545 S
H954 C936 0.931 . S
H955 C940 0.929 . S
H956 C942 0.930 . S
Co957 N961 2.148 . S
Co957 N967 2.128 . S
Co957 N977 2.194 . S
Co957 O982 2.351 . S
Co957 O983 2.155 . S
Co957 O984 2.096 . S
C958 N961 1.301 . S
C958 N962 1.328 . S
C958 H963 0.930 . S
C959 C960 1.333 . S
C959 N961 1.317 . S
C959 H964 0.930 . S
C960 C959 1.333 . S
C960 N962 1.350 . S
C960 H986 0.931 1_455 S
N961 Co957 2.148 . S
N961 C958 1.301 . S
N961 C959 1.317 . S
N962 C958 1.328 . S
N962 C960 1.350 . S
H963 C958 0.930 . S
H964 C959 0.930 . S
C965 O966 1.224 . S
C965 O984 1.247 . S
O966 C965 1.224 . S
N967 Co957 2.128 . S
N967 C968 1.355 . S
N967 C970 1.311 . S
C968 N967 1.355 . S
C968 C969 1.363 . S
C968 H980 0.929 . S
C969 C968 1.363 . S
C969 N971 1.375 . S
C969 H987 0.931 . S
C970 N967 1.311 . S
C970 N971 1.347 . S
C970 H981 0.929 . S
N971 C969 1.375 . S
N971 C970 1.347 . S
C972 C975 1.365 . S
C972 N977 1.328 . S
C972 H978 0.929 . S
C973 C974 1.362 . S
C973 C976 1.378 . S
C973 H988 0.929 . S
C974 C973 1.362 . S
C974 C975 1.366 . S
C975 C972 1.365 . S
C975 C974 1.366 . S
C975 H989 0.930 . S
C976 C973 1.378 . S
C976 N977 1.315 . S
C976 H979 0.930 . S
N977 Co957 2.194 . S
N977 C972 1.328 . S
N977 C976 1.315 . S
H978 C972 0.929 . S
H979 C976 0.930 . S
H980 C968 0.929 . S
H981 C970 0.929 . S
O982 Co957 2.351 . S
O982 C985 1.244 . S
O983 Co957 2.155 . S
O983 C985 1.240 . S
O984 Co957 2.096 . S
O984 C965 1.247 . S
C985 O982 1.244 . S
C985 O983 1.240 . S
H986 C960 0.931 1_655 S
H987 C969 0.931 . S
H988 C973 0.929 . S
H989 C975 0.930 . S
Co990 N994 2.148 . S
Co990 N1000 2.128 . S
Co990 N1010 2.194 . S
Co990 O1015 2.351 . S
Co990 O1016 2.155 . S
Co990 O1017 2.096 . S
C991 N994 1.301 . S
C991 N995 1.328 . S
C991 H996 0.930 . S
C992 C993 1.333 . S
C992 N994 1.317 . S
C992 H997 0.930 . S
C993 C992 1.333 . S
C993 N995 1.350 . S
C993 H1019 0.931 . S
N994 Co990 2.148 . S
N994 C991 1.301 . S
N994 C992 1.317 . S
N995 C991 1.328 . S
N995 C993 1.350 . S
H996 C991 0.930 . S
H997 C992 0.930 . S
C998 O999 1.224 . S
C998 O1017 1.247 . S
O999 C998 1.224 . S
N1000 Co990 2.128 . S
N1000 C1001 1.355 . S
N1000 C1003 1.311 . S
C1001 N1000 1.355 . S
C1001 C1002 1.363 . S
C1001 H1013 0.929 . S
C1002 C1001 1.363 . S
C1002 N1004 1.375 . S
C1002 H1020 0.931 . S
C1003 N1000 1.311 . S
C1003 N1004 1.347 . S
C1003 H1014 0.929 . S
N1004 C1002 1.375 . S
N1004 C1003 1.347 . S
C1005 C1008 1.365 . S
C1005 N1010 1.328 . S
C1005 H1011 0.929 . S
C1006 C1007 1.362 . S
C1006 C1009 1.378 . S
C1006 H1021 0.929 . S
C1007 C1006 1.362 . S
C1007 C1008 1.366 . S
C1008 C1005 1.365 . S
C1008 C1007 1.366 . S
C1008 H1022 0.930 . S
C1009 C1006 1.378 . S
C1009 N1010 1.315 . S
C1009 H1012 0.930 . S
N1010 Co990 2.194 . S
N1010 C1005 1.328 . S
N1010 C1009 1.315 . S
H1011 C1005 0.929 . S
H1012 C1009 0.930 . S
H1013 C1001 0.929 . S
H1014 C1003 0.929 . S
O1015 Co990 2.351 . S
O1015 C1018 1.244 . S
O1016 Co990 2.155 . S
O1016 C1018 1.240 . S
O1017 Co990 2.096 . S
O1017 C998 1.247 . S
C1018 O1015 1.244 . S
C1018 O1016 1.240 . S
H1019 C993 0.931 . S
H1020 C1002 0.931 . S
H1021 C1006 0.929 . S
H1022 C1008 0.930 . S
Co1023 N1027 2.148 . S
Co1023 N1033 2.128 . S
Co1023 N1043 2.194 . S
Co1023 O1048 2.351 . S
Co1023 O1049 2.155 . S
Co1023 O1050 2.096 . S
C1024 N1027 1.301 . S
C1024 N1028 1.328 . S
C1024 H1029 0.930 . S
C1025 C1026 1.333 . S
C1025 N1027 1.317 . S
C1025 H1030 0.930 . S
C1026 C1025 1.333 . S
C1026 N1028 1.350 . S
C1026 H1052 0.931 1_565 S
N1027 Co1023 2.148 . S
N1027 C1024 1.301 . S
N1027 C1025 1.317 . S
N1028 C1024 1.328 . S
N1028 C1026 1.350 . S
H1029 C1024 0.930 . S
H1030 C1025 0.930 . S
C1031 O1032 1.224 . S
C1031 O1050 1.247 . S
O1032 C1031 1.224 . S
N1033 Co1023 2.128 . S
N1033 C1034 1.355 . S
N1033 C1036 1.311 . S
C1034 N1033 1.355 . S
C1034 C1035 1.363 . S
C1034 H1046 0.929 . S
C1035 C1034 1.363 . S
C1035 N1037 1.375 . S
C1035 H1053 0.931 . S
C1036 N1033 1.311 . S
C1036 N1037 1.347 . S
C1036 H1047 0.929 . S
N1037 C1035 1.375 . S
N1037 C1036 1.347 . S
C1038 C1041 1.365 . S
C1038 N1043 1.328 . S
C1038 H1044 0.929 . S
C1039 C1040 1.362 . S
C1039 C1042 1.378 . S
C1039 H1054 0.929 . S
C1040 C1039 1.362 . S
C1040 C1041 1.366 . S
C1041 C1038 1.365 . S
C1041 C1040 1.366 . S
C1041 H1055 0.930 . S
C1042 C1039 1.378 . S
C1042 N1043 1.315 . S
C1042 H1045 0.930 . S
N1043 Co1023 2.194 . S
N1043 C1038 1.328 . S
N1043 C1042 1.315 . S
H1044 C1038 0.929 . S
H1045 C1042 0.930 . S
H1046 C1034 0.929 . S
H1047 C1036 0.929 . S
O1048 Co1023 2.351 . S
O1048 C1051 1.244 . S
O1049 Co1023 2.155 . S
O1049 C1051 1.240 . S
O1050 Co1023 2.096 . S
O1050 C1031 1.247 . S
C1051 O1048 1.244 . S
C1051 O1049 1.240 . S
H1052 C1026 0.931 1_545 S
H1053 C1035 0.931 . S
H1054 C1039 0.929 . S
H1055 C1041 0.930 . S
Co1056 N1060 2.148 . S
Co1056 N1066 2.128 . S
Co1056 N1076 2.194 . S
Co1056 O1081 2.351 . S
Co1056 O1082 2.155 . S
Co1056 O1083 2.096 . S
C1057 N1060 1.301 . S
C1057 N1061 1.328 . S
C1057 H1062 0.930 . S
C1058 C1059 1.333 . S
C1058 N1060 1.317 . S
C1058 H1063 0.930 . S
C1059 C1058 1.333 . S
C1059 N1061 1.350 . S
C1059 H1085 0.931 1_455 S
N1060 Co1056 2.148 . S
N1060 C1057 1.301 . S
N1060 C1058 1.317 . S
N1061 C1057 1.328 . S
N1061 C1059 1.350 . S
H1062 C1057 0.930 . S
H1063 C1058 0.930 . S
C1064 O1065 1.224 . S
C1064 O1083 1.247 . S
O1065 C1064 1.224 . S
N1066 Co1056 2.128 . S
N1066 C1067 1.355 . S
N1066 C1069 1.311 . S
C1067 N1066 1.355 . S
C1067 C1068 1.363 . S
C1067 H1079 0.929 . S
C1068 C1067 1.363 . S
C1068 N1070 1.375 . S
C1068 H1086 0.931 . S
C1069 N1066 1.311 . S
C1069 N1070 1.347 . S
C1069 H1080 0.929 . S
N1070 C1068 1.375 . S
N1070 C1069 1.347 . S
C1071 C1074 1.365 . S
C1071 N1076 1.328 . S
C1071 H1077 0.929 . S
C1072 C1073 1.362 . S
C1072 C1075 1.378 . S
C1072 H1087 0.929 . S
C1073 C1072 1.362 . S
C1073 C1074 1.366 . S
C1074 C1071 1.365 . S
C1074 C1073 1.366 . S
C1074 H1088 0.930 . S
C1075 C1072 1.378 . S
C1075 N1076 1.315 . S
C1075 H1078 0.930 . S
N1076 Co1056 2.194 . S
N1076 C1071 1.328 . S
N1076 C1075 1.315 . S
H1077 C1071 0.929 . S
H1078 C1075 0.930 . S
H1079 C1067 0.929 . S
H1080 C1069 0.929 . S
O1081 Co1056 2.351 . S
O1081 C1084 1.244 . S
O1082 Co1056 2.155 . S
O1082 C1084 1.240 . S
O1083 Co1056 2.096 . S
O1083 C1064 1.247 . S
C1084 O1081 1.244 . S
C1084 O1082 1.240 . S
H1085 C1059 0.931 1_655 S
H1086 C1068 0.931 . S
H1087 C1072 0.929 . S
H1088 C1074 0.930 . S
Co1089 N1093 2.148 . S
Co1089 N1099 2.128 . S
Co1089 N1109 2.194 . S
Co1089 O1114 2.351 . S
Co1089 O1115 2.155 . S
Co1089 O1116 2.096 . S
C1090 N1093 1.301 1_655 S
C1090 N1094 1.328 . S
C1090 H1095 0.930 . S
C1091 C1092 1.333 . S
C1091 N1093 1.317 . S
C1091 H1096 0.930 . S
C1092 C1091 1.333 . S
C1092 N1094 1.350 1_455 S
C1092 H1118 0.931 . S
N1093 Co1089 2.148 . S
N1093 C1090 1.301 1_455 S
N1093 C1091 1.317 . S
N1094 C1090 1.328 . S
N1094 C1092 1.350 1_655 S
H1095 C1090 0.930 . S
H1096 C1091 0.930 . S
C1097 O1098 1.224 . S
C1097 O1116 1.247 . S
O1098 C1097 1.224 . S
N1099 Co1089 2.128 . S
N1099 C1100 1.355 . S
N1099 C1102 1.311 . S
C1100 N1099 1.355 . S
C1100 C1101 1.363 . S
C1100 H1112 0.929 . S
C1101 C1100 1.363 . S
C1101 N1103 1.375 . S
C1101 H1119 0.931 . S
C1102 N1099 1.311 . S
C1102 N1103 1.347 . S
C1102 H1113 0.929 . S
N1103 C1101 1.375 . S
N1103 C1102 1.347 . S
C1104 C1107 1.363 1_455 S
C1104 N1109 1.328 . S
C1104 H1110 0.929 1_455 S
C1105 C1106 1.362 . S
C1105 C1108 1.378 . S
C1105 H1120 0.929 . S
C1106 C1105 1.362 . S
C1106 C1107 1.363 1_455 S
C1107 C1104 1.363 1_655 S
C1107 C1106 1.363 1_655 S
C1107 H1121 0.935 . S
C1108 C1105 1.378 . S
C1108 N1109 1.315 . S
C1108 H1111 0.930 . S
N1109 Co1089 2.194 . S
N1109 C1104 1.328 . S
N1109 C1108 1.315 . S
H1110 C1104 0.929 1_655 S
H1111 C1108 0.930 . S
H1112 C1100 0.929 . S
H1113 C1102 0.929 . S
O1114 Co1089 2.351 . S
O1114 C1117 1.244 . S
O1115 Co1089 2.155 . S
O1115 C1117 1.240 . S
O1116 Co1089 2.096 . S
O1116 C1097 1.247 . S
C1117 O1114 1.244 . S
C1117 O1115 1.240 . S
H1118 C1092 0.931 . S
H1119 C1101 0.931 . S
H1120 C1105 0.929 . S
H1121 C1107 0.935 . S
Co1122 N1126 2.148 . S
Co1122 N1132 2.128 . S
Co1122 N1142 2.194 . S
Co1122 O1147 2.351 . S
Co1122 O1148 2.155 . S
Co1122 O1149 2.096 . S
C1123 N1126 1.301 . S
C1123 N1127 1.328 . S
C1123 H1128 0.930 . S
C1124 C1125 1.333 . S
C1124 N1126 1.317 . S
C1124 H1129 0.930 . S
C1125 C1124 1.333 . S
C1125 N1127 1.350 . S
C1125 H1151 0.931 . S
N1126 Co1122 2.148 . S
N1126 C1123 1.301 . S
N1126 C1124 1.317 . S
N1127 C1123 1.328 . S
N1127 C1125 1.350 . S
H1128 C1123 0.930 . S
H1129 C1124 0.930 . S
C1130 O1131 1.224 . S
C1130 O1149 1.247 . S
O1131 C1130 1.224 . S
N1132 Co1122 2.128 . S
N1132 C1133 1.355 . S
N1132 C1135 1.311 . S
C1133 N1132 1.355 . S
C1133 C1134 1.363 . S
C1133 H1145 0.929 . S
C1134 C1133 1.363 . S
C1134 N1136 1.375 . S
C1134 H1152 0.931 . S
C1135 N1132 1.311 . S
C1135 N1136 1.347 . S
C1135 H1146 0.929 . S
N1136 C1134 1.375 . S
N1136 C1135 1.347 . S
C1137 C1140 1.365 . S
C1137 N1142 1.328 . S
C1137 H1143 0.929 . S
C1138 C1139 1.362 . S
C1138 C1141 1.378 . S
C1138 H1153 0.929 . S
C1139 C1138 1.362 . S
C1139 C1140 1.366 . S
C1140 C1137 1.365 . S
C1140 C1139 1.366 . S
C1140 H1154 0.930 . S
C1141 C1138 1.378 . S
C1141 N1142 1.315 . S
C1141 H1144 0.930 . S
N1142 Co1122 2.194 . S
N1142 C1137 1.328 . S
N1142 C1141 1.315 . S
H1143 C1137 0.929 . S
H1144 C1141 0.930 . S
H1145 C1133 0.929 . S
H1146 C1135 0.929 . S
O1147 Co1122 2.351 . S
O1147 C1150 1.244 . S
O1148 Co1122 2.155 . S
O1148 C1150 1.240 . S
O1149 Co1122 2.096 . S
O1149 C1130 1.247 . S
C1150 O1147 1.244 . S
C1150 O1148 1.240 . S
H1151 C1125 0.931 . S
H1152 C1134 0.931 . S
H1153 C1138 0.929 . S
H1154 C1140 0.930 . S
Co1155 N1159 2.148 . S
Co1155 N1165 2.128 . S
Co1155 N1175 2.194 . S
Co1155 O1180 2.351 . S
Co1155 O1181 2.155 . S
Co1155 O1182 2.096 . S
C1156 N1159 1.301 1_545 S
C1156 N1160 1.328 . S
C1156 H1161 0.930 . S
C1157 C1158 1.333 . S
C1157 N1159 1.317 . S
C1157 H1162 0.930 . S
C1158 C1157 1.333 . S
C1158 N1160 1.350 1_565 S
C1158 H1184 0.931 . S
N1159 Co1155 2.148 . S
N1159 C1156 1.301 1_565 S
N1159 C1157 1.317 . S
N1160 C1156 1.328 . S
N1160 C1158 1.350 1_545 S
H1161 C1156 0.930 . S
H1162 C1157 0.930 . S
C1163 O1164 1.224 . S
C1163 O1182 1.247 . S
O1164 C1163 1.224 . S
N1165 Co1155 2.128 . S
N1165 C1166 1.355 . S
N1165 C1168 1.311 . S
C1166 N1165 1.355 . S
C1166 C1167 1.363 . S
C1166 H1178 0.929 . S
C1167 C1166 1.363 . S
C1167 N1169 1.375 . S
C1167 H1185 0.931 . S
C1168 N1165 1.311 . S
C1168 N1169 1.347 . S
C1168 H1179 0.929 . S
N1169 C1167 1.375 . S
N1169 C1168 1.347 . S
C1170 C1173 1.365 1_565 S
C1170 N1175 1.328 . S
C1170 H1176 0.929 1_565 S
C1171 C1172 1.362 . S
C1171 C1174 1.378 . S
C1171 H1186 0.929 . S
C1172 C1171 1.362 . S
C1172 C1173 1.364 1_565 S
C1173 C1170 1.365 1_545 S
C1173 C1172 1.364 1_545 S
C1173 H1187 0.932 . S
C1174 C1171 1.378 . S
C1174 N1175 1.315 . S
C1174 H1177 0.930 . S
N1175 Co1155 2.194 . S
N1175 C1170 1.328 . S
N1175 C1174 1.315 . S
H1176 C1170 0.929 1_545 S
H1177 C1174 0.930 . S
H1178 C1166 0.929 . S
H1179 C1168 0.929 . S
O1180 Co1155 2.351 . S
O1180 C1183 1.244 . S
O1181 Co1155 2.155 . S
O1181 C1183 1.240 . S
O1182 Co1155 2.096 . S
O1182 C1163 1.247 . S
C1183 O1180 1.244 . S
C1183 O1181 1.240 . S
H1184 C1158 0.931 . S
H1185 C1167 0.931 . S
H1186 C1171 0.929 . S
H1187 C1173 0.932 . S
C1188 C1189 1.369 . S
C1188 C1190 1.419 . S
C1188 H1192 0.930 . S
C1189 C1188 1.369 . S
C1189 C1198 1.429 . S
C1190 C1188 1.419 . S
C1190 C1191 1.363 . S
C1190 H1193 0.929 1_545 S
C1191 C1190 1.363 . S
C1191 C1197 1.428 . S
H1192 C1188 0.930 . S
H1193 C1190 0.929 1_565 S
S1194 N1195 1.613 . S
S1194 N1196 1.610 . S
N1195 S1194 1.613 . S
N1195 C1198 1.350 . S
N1196 S1194 1.610 . S
N1196 C1197 1.351 . S
C1197 C1191 1.428 . S
C1197 N1196 1.351 . S
C1197 C1198 1.434 . S
C1198 C1189 1.429 . S
C1198 N1195 1.350 . S
C1198 C1197 1.434 . S
C1199 C1200 1.369 . S
C1199 C1201 1.419 . S
C1199 H1203 0.930 . S
C1200 C1199 1.369 . S
C1200 C1209 1.429 . S
C1201 C1199 1.419 . S
C1201 C1202 1.363 . S
C1201 H1204 0.929 1_545 S
C1202 C1201 1.363 . S
C1202 C1208 1.428 . S
H1203 C1199 0.930 . S
H1204 C1201 0.929 1_565 S
S1205 N1206 1.615 1_655 S
S1205 N1207 1.610 . S
N1206 S1205 1.615 1_455 S
N1206 C1209 1.345 1_455 S
N1207 S1205 1.610 . S
N1207 C1208 1.351 . S
C1208 C1202 1.428 . S
C1208 N1207 1.351 . S
C1208 C1209 1.434 . S
C1209 C1200 1.429 . S
C1209 N1206 1.345 1_655 S
C1209 C1208 1.434 . S
C1210 C1211 1.369 . S
C1210 C1212 1.419 . S
C1210 H1214 0.930 . S
C1211 C1210 1.369 . S
C1211 C1220 1.429 . S
C1212 C1210 1.419 . S
C1212 C1213 1.363 . S
C1212 H1215 0.929 . S
C1213 C1212 1.363 . S
C1213 C1219 1.428 . S
H1214 C1210 0.930 . S
H1215 C1212 0.929 . S
S1216 N1217 1.613 . S
S1216 N1218 1.610 . S
N1217 S1216 1.613 . S
N1217 C1220 1.350 . S
N1218 S1216 1.610 . S
N1218 C1219 1.351 . S
C1219 C1213 1.428 . S
C1219 N1218 1.351 . S
C1219 C1220 1.434 . S
C1220 C1211 1.429 . S
C1220 N1217 1.350 . S
C1220 C1219 1.434 . S
C1221 C1222 1.369 . S
C1221 C1223 1.419 . S
C1221 H1225 0.930 . S
C1222 C1221 1.369 . S
C1222 C1231 1.429 . S
C1223 C1221 1.419 . S
C1223 C1224 1.363 . S
C1223 H1226 0.929 . S
C1224 C1223 1.363 . S
C1224 C1230 1.428 . S
H1225 C1221 0.930 . S
H1226 C1223 0.929 . S
S1227 N1228 1.613 . S
S1227 N1229 1.610 1_655 S
N1228 S1227 1.613 . S
N1228 C1231 1.350 1_655 S
N1229 S1227 1.610 1_455 S
N1229 C1230 1.351 . S
C1230 C1224 1.428 . S
C1230 N1229 1.351 . S
C1230 C1231 1.434 . S
C1231 C1222 1.429 . S
C1231 N1228 1.350 1_455 S
C1231 C1230 1.434 . S
C1232 C1233 1.369 . S
C1232 C1234 1.419 . S
C1232 H1236 0.930 . S
C1233 C1232 1.369 . S
C1233 C1242 1.429 . S
C1234 C1232 1.419 . S
C1234 C1235 1.363 . S
C1234 H1237 0.929 1_565 S
C1235 C1234 1.363 . S
C1235 C1241 1.428 . S
H1236 C1232 0.930 . S
H1237 C1234 0.929 1_545 S
S1238 N1239 1.613 . S
S1238 N1240 1.610 . S
N1239 S1238 1.613 . S
N1239 C1242 1.350 . S
N1240 S1238 1.610 . S
N1240 C1241 1.351 . S
C1241 C1235 1.428 . S
C1241 N1240 1.351 . S
C1241 C1242 1.434 . S
C1242 C1233 1.429 . S
C1242 N1239 1.350 . S
C1242 C1241 1.434 . S
C1243 C1244 1.369 . S
C1243 C1245 1.419 . S
C1243 H1247 0.930 . S
C1244 C1243 1.369 . S
C1244 C1253 1.429 . S
C1245 C1243 1.419 . S
C1245 C1246 1.363 . S
C1245 H1248 0.929 . S
C1246 C1245 1.363 . S
C1246 C1252 1.428 . S
H1247 C1243 0.930 . S
H1248 C1245 0.929 . S
S1249 N1250 1.613 1_655 S
S1249 N1251 1.610 . S
N1250 S1249 1.613 1_455 S
N1250 C1253 1.350 . S
N1251 S1249 1.610 . S
N1251 C1252 1.351 1_655 S
C1252 C1246 1.428 . S
C1252 N1251 1.351 1_455 S
C1252 C1253 1.434 . S
C1253 C1244 1.429 . S
C1253 N1250 1.350 . S
C1253 C1252 1.434 . S
C1254 C1255 1.369 . S
C1254 C1256 1.419 . S
C1254 H1258 0.930 . S
C1255 C1254 1.369 . S
C1255 C1264 1.429 . S
C1256 C1254 1.419 . S
C1256 C1257 1.363 . S
C1256 H1259 0.929 . S
C1257 C1256 1.363 . S
C1257 C1263 1.428 . S
H1258 C1254 0.930 . S
H1259 C1256 0.929 . S
S1260 N1261 1.613 . S
S1260 N1262 1.610 1_545 S
N1261 S1260 1.613 . S
N1261 C1264 1.350 1_545 S
N1262 S1260 1.610 1_565 S
N1262 C1263 1.351 . S
C1263 C1257 1.428 . S
C1263 N1262 1.351 . S
C1263 C1264 1.434 . S
C1264 C1255 1.429 . S
C1264 N1261 1.350 1_565 S
C1264 C1263 1.434 . S
C1265 C1266 1.369 . S
C1265 C1267 1.419 . S
C1265 H1269 0.930 . S
C1266 C1265 1.369 . S
C1266 C1275 1.429 . S
C1267 C1265 1.419 . S
C1267 C1268 1.363 . S
C1267 H1270 0.929 . S
C1268 C1267 1.363 . S
C1268 C1274 1.428 . S
H1269 C1265 0.930 . S
H1270 C1267 0.929 . S
S1271 N1272 1.613 . S
S1271 N1273 1.610 1_545 S
N1272 S1271 1.613 . S
N1272 C1275 1.350 1_545 S
N1273 S1271 1.610 1_565 S
N1273 C1274 1.351 . S
C1274 C1268 1.428 . S
C1274 N1273 1.351 . S
C1274 C1275 1.434 . S
C1275 C1266 1.429 . S
C1275 N1272 1.350 1_565 S
C1275 C1274 1.434 . S
C1276 C1277 1.369 . S
C1276 C1278 1.419 . S
C1276 H1280 0.930 . S
C1277 C1276 1.369 . S
C1277 C1286 1.429 . S
C1278 C1276 1.419 . S
C1278 C1279 1.363 . S
C1278 H1281 0.929 . S
C1279 C1278 1.363 . S
C1279 C1285 1.428 . S
H1280 C1276 0.930 . S
H1281 C1278 0.929 . S
S1282 N1283 1.613 . S
S1282 N1284 1.610 . S
N1283 S1282 1.613 . S
N1283 C1286 1.350 . S
N1284 S1282 1.610 . S
N1284 C1285 1.351 . S
C1285 C1279 1.428 . S
C1285 N1284 1.351 . S
C1285 C1286 1.434 . S
C1286 C1277 1.429 . S
C1286 N1283 1.350 . S
C1286 C1285 1.434 . S
C1287 C1288 1.369 . S
C1287 C1289 1.419 . S
C1287 H1291 0.930 . S
C1288 C1287 1.369 . S
C1288 C1297 1.429 . S
C1289 C1287 1.419 . S
C1289 C1290 1.363 . S
C1289 H1292 0.929 . S
C1290 C1289 1.363 . S
C1290 C1296 1.428 . S
H1291 C1287 0.930 . S
H1292 C1289 0.929 . S
S1293 N1294 1.613 . S
S1293 N1295 1.610 . S
N1294 S1293 1.613 . S
N1294 C1297 1.350 . S
N1295 S1293 1.610 . S
N1295 C1296 1.351 . S
C1296 C1290 1.428 . S
C1296 N1295 1.351 . S
C1296 C1297 1.434 . S
C1297 C1288 1.429 . S
C1297 N1294 1.350 . S
C1297 C1296 1.434 . S
C1298 C1299 1.369 . S
C1298 C1300 1.419 . S
C1298 H1302 0.930 . S
C1299 C1298 1.369 . S
C1299 C1308 1.429 . S
C1300 C1298 1.419 . S
C1300 C1301 1.363 . S
C1300 H1303 0.929 . S
C1301 C1300 1.363 . S
C1301 C1307 1.428 . S
H1302 C1298 0.930 . S
H1303 C1300 0.929 . S
S1304 N1305 1.613 . S
S1304 N1306 1.610 . S
N1305 S1304 1.613 . S
N1305 C1308 1.350 . S
N1306 S1304 1.610 . S
N1306 C1307 1.351 . S
C1307 C1301 1.428 . S
C1307 N1306 1.351 . S
C1307 C1308 1.434 . S
C1308 C1299 1.429 . S
C1308 N1305 1.350 . S
C1308 C1307 1.434 . S
C1309 C1310 1.369 . S
C1309 C1311 1.419 . S
C1309 H1313 0.930 . S
C1310 C1309 1.369 . S
C1310 C1319 1.429 . S
C1311 C1309 1.419 . S
C1311 C1312 1.363 . S
C1311 H1314 0.929 . S
C1312 C1311 1.363 . S
C1312 C1318 1.428 . S
H1313 C1309 0.930 . S
H1314 C1311 0.929 . S
S1315 N1316 1.613 . S
S1315 N1317 1.610 1_565 S
N1316 S1315 1.613 . S
N1316 C1319 1.350 1_565 S
N1317 S1315 1.610 1_545 S
N1317 C1318 1.351 . S
C1318 C1312 1.428 . S
C1318 N1317 1.351 . S
C1318 C1319 1.434 . S
C1319 C1310 1.429 . S
C1319 N1316 1.350 1_545 S
C1319 C1318 1.434 . S
C1320 C1321 1.369 . S
C1320 C1322 1.419 . S
C1320 H1324 0.930 . S
C1321 C1320 1.369 . S
C1321 C1330 1.429 . S
C1322 C1320 1.419 . S
C1322 C1323 1.363 . S
C1322 H1325 0.929 . S
C1323 C1322 1.363 . S
C1323 C1329 1.428 . S
H1324 C1320 0.930 . S
H1325 C1322 0.929 . S
S1326 N1327 1.613 . S
S1326 N1328 1.610 . S
N1327 S1326 1.613 . S
N1327 C1330 1.350 . S
N1328 S1326 1.610 . S
N1328 C1329 1.351 . S
C1329 C1323 1.428 . S
C1329 N1328 1.351 . S
C1329 C1330 1.434 . S
C1330 C1321 1.429 . S
C1330 N1327 1.350 . S
C1330 C1329 1.434 . S
C1331 C1332 1.369 . S
C1331 C1333 1.419 . S
C1331 H1335 0.930 . S
C1332 C1331 1.369 . S
C1332 C1341 1.429 . S
C1333 C1331 1.419 . S
C1333 C1334 1.363 . S
C1333 H1336 0.929 . S
C1334 C1333 1.363 . S
C1334 C1340 1.428 . S
H1335 C1331 0.930 . S
H1336 C1333 0.929 . S
S1337 N1338 1.613 . S
S1337 N1339 1.610 . S
N1338 S1337 1.613 . S
N1338 C1341 1.350 . S
N1339 S1337 1.610 . S
N1339 C1340 1.351 . S
C1340 C1334 1.428 . S
C1340 N1339 1.351 . S
C1340 C1341 1.434 . S
C1341 C1332 1.429 . S
C1341 N1338 1.350 . S
C1341 C1340 1.434 . S
C1342 C1343 1.369 . S
C1342 C1344 1.419 . S
C1342 H1346 0.930 . S
C1343 C1342 1.369 . S
C1343 C1352 1.429 . S
C1344 C1342 1.419 . S
C1344 C1345 1.363 . S
C1344 H1347 0.929 . S
C1345 C1344 1.363 . S
C1345 C1351 1.428 . S
H1346 C1342 0.930 . S
H1347 C1344 0.929 . S
S1348 N1349 1.613 . S
S1348 N1350 1.610 . S
N1349 S1348 1.613 . S
N1349 C1352 1.350 . S
N1350 S1348 1.610 . S
N1350 C1351 1.351 . S
C1351 C1345 1.428 . S
C1351 N1350 1.351 . S
C1351 C1352 1.434 . S
C1352 C1343 1.429 . S
C1352 N1349 1.350 . S
C1352 C1351 1.434 . S
C1353 C1354 1.369 . S
C1353 C1355 1.419 . S
C1353 H1357 0.930 . S
C1354 C1353 1.369 . S
C1354 C1363 1.429 . S
C1355 C1353 1.419 . S
C1355 C1356 1.363 . S
C1355 H1358 0.929 . S
C1356 C1355 1.363 . S
C1356 C1362 1.428 . S
H1357 C1353 0.930 . S
H1358 C1355 0.929 . S
S1359 N1360 1.613 . S
S1359 N1361 1.610 . S
N1360 S1359 1.613 . S
N1360 C1363 1.350 . S
N1361 S1359 1.610 . S
N1361 C1362 1.351 . S
C1362 C1356 1.428 . S
C1362 N1361 1.351 . S
C1362 C1363 1.434 . S
C1363 C1354 1.429 . S
C1363 N1360 1.350 . S
C1363 C1362 1.434 . S
C1364 C1365 1.369 . S
C1364 C1366 1.419 . S
C1364 H1368 0.930 . S
C1365 C1364 1.369 . S
C1365 C1374 1.429 . S
C1366 C1364 1.419 . S
C1366 C1367 1.363 . S
C1366 H1369 0.929 . S
C1367 C1366 1.363 . S
C1367 C1373 1.428 . S
H1368 C1364 0.930 . S
H1369 C1366 0.929 . S
S1370 N1371 1.613 . S
S1370 N1372 1.610 . S
N1371 S1370 1.613 . S
N1371 C1374 1.350 . S
N1372 S1370 1.610 . S
N1372 C1373 1.351 . S
C1373 C1367 1.428 . S
C1373 N1372 1.351 . S
C1373 C1374 1.434 . S
C1374 C1365 1.429 . S
C1374 N1371 1.350 . S
C1374 C1373 1.434 . S
C1375 C1376 1.369 . S
C1375 C1377 1.419 . S
C1375 H1379 0.930 . S
C1376 C1375 1.369 . S
C1376 C1385 1.429 . S
C1377 C1375 1.419 . S
C1377 C1378 1.363 . S
C1377 H1380 0.929 . S
C1378 C1377 1.363 . S
C1378 C1384 1.428 . S
H1379 C1375 0.930 . S
H1380 C1377 0.929 . S
S1381 N1382 1.613 . S
S1381 N1383 1.610 . S
N1382 S1381 1.613 . S
N1382 C1385 1.350 . S
N1383 S1381 1.610 . S
N1383 C1384 1.351 . S
C1384 C1378 1.428 . S
C1384 N1383 1.351 . S
C1384 C1385 1.434 . S
C1385 C1376 1.429 . S
C1385 N1382 1.350 . S
C1385 C1384 1.434 . S
C1386 C1387 1.369 . S
C1386 C1388 1.419 . S
C1386 H1390 0.930 . S
C1387 C1386 1.369 . S
C1387 C1396 1.429 . S
C1388 C1386 1.419 . S
C1388 C1389 1.363 . S
C1388 H1391 0.929 . S
C1389 C1388 1.363 . S
C1389 C1395 1.428 . S
H1390 C1386 0.930 . S
H1391 C1388 0.929 . S
S1392 N1393 1.613 . S
S1392 N1394 1.610 . S
N1393 S1392 1.613 . S
N1393 C1396 1.350 . S
N1394 S1392 1.610 . S
N1394 C1395 1.351 . S
C1395 C1389 1.428 . S
C1395 N1394 1.351 . S
C1395 C1396 1.434 . S
C1396 C1387 1.429 . S
C1396 N1393 1.350 . S
C1396 C1395 1.434 . S
C1397 C1398 1.369 . S
C1397 C1399 1.419 . S
C1397 H1401 0.930 . S
C1398 C1397 1.369 . S
C1398 C1407 1.429 . S
C1399 C1397 1.419 . S
C1399 C1400 1.363 . S
C1399 H1402 0.929 . S
C1400 C1399 1.363 . S
C1400 C1406 1.428 . S
H1401 C1397 0.930 . S
H1402 C1399 0.929 . S
S1403 N1404 1.613 . S
S1403 N1405 1.610 . S
N1404 S1403 1.613 . S
N1404 C1407 1.350 . S
N1405 S1403 1.610 . S
N1405 C1406 1.351 . S
C1406 C1400 1.428 . S
C1406 N1405 1.351 . S
C1406 C1407 1.434 . S
C1407 C1398 1.429 . S
C1407 N1404 1.350 . S
C1407 C1406 1.434 . S
C1408 C1409 1.369 . S
C1408 C1410 1.419 . S
C1408 H1412 0.930 . S
C1409 C1408 1.369 . S
C1409 C1418 1.429 . S
C1410 C1408 1.419 . S
C1410 C1411 1.363 . S
C1410 H1413 0.929 . S
C1411 C1410 1.363 . S
C1411 C1417 1.428 . S
H1412 C1408 0.930 . S
H1413 C1410 0.929 . S
S1414 N1415 1.613 . S
S1414 N1416 1.610 . S
N1415 S1414 1.613 . S
N1415 C1418 1.350 . S
N1416 S1414 1.610 . S
N1416 C1417 1.351 . S
C1417 C1411 1.428 . S
C1417 N1416 1.351 . S
C1417 C1418 1.434 . S
C1418 C1409 1.429 . S
C1418 N1415 1.350 . S
C1418 C1417 1.434 . S
C1419 C1420 1.369 . S
C1419 C1421 1.419 . S
C1419 H1423 0.930 . S
C1420 C1419 1.369 . S
C1420 C1429 1.429 . S
C1421 C1419 1.419 . S
C1421 C1422 1.363 . S
C1421 H1424 0.929 . S
C1422 C1421 1.363 . S
C1422 C1428 1.428 . S
H1423 C1419 0.930 . S
H1424 C1421 0.929 . S
S1425 N1426 1.613 . S
S1425 N1427 1.610 . S
N1426 S1425 1.613 . S
N1426 C1429 1.350 . S
N1427 S1425 1.610 . S
N1427 C1428 1.351 . S
C1428 C1422 1.428 . S
C1428 N1427 1.351 . S
C1428 C1429 1.434 . S
C1429 C1420 1.429 . S
C1429 N1426 1.350 . S
C1429 C1428 1.434 . S
C1430 C1431 1.369 . S
C1430 C1432 1.419 . S
C1430 H1434 0.930 . S
C1431 C1430 1.369 . S
C1431 C1440 1.429 . S
C1432 C1430 1.419 . S
C1432 C1433 1.363 . S
C1432 H1435 0.929 . S
C1433 C1432 1.363 . S
C1433 C1439 1.428 . S
H1434 C1430 0.930 . S
H1435 C1432 0.929 . S
S1436 N1437 1.613 . S
S1436 N1438 1.610 . S
N1437 S1436 1.613 . S
N1437 C1440 1.350 . S
N1438 S1436 1.610 . S
N1438 C1439 1.351 . S
C1439 C1433 1.428 . S
C1439 N1438 1.351 . S
C1439 C1440 1.434 . S
C1440 C1431 1.429 . S
C1440 N1437 1.350 . S
C1440 C1439 1.434 . S
C1441 C1442 1.369 . S
C1441 C1443 1.419 . S
C1441 H1445 0.930 . S
C1442 C1441 1.369 . S
C1442 C1451 1.429 . S
C1443 C1441 1.419 . S
C1443 C1444 1.363 . S
C1443 H1446 0.929 . S
C1444 C1443 1.363 . S
C1444 C1450 1.428 . S
H1445 C1441 0.930 . S
H1446 C1443 0.929 . S
S1447 N1448 1.613 . S
S1447 N1449 1.610 . S
N1448 S1447 1.613 . S
N1448 C1451 1.350 . S
N1449 S1447 1.610 . S
N1449 C1450 1.351 . S
C1450 C1444 1.428 . S
C1450 N1449 1.351 . S
C1450 C1451 1.434 . S
C1451 C1442 1.429 . S
C1451 N1448 1.350 . S
C1451 C1450 1.434 . S
C1452 C1453 1.369 . S
C1452 C1454 1.419 . S
C1452 H1456 0.930 . S
C1453 C1452 1.369 . S
C1453 C1462 1.429 . S
C1454 C1452 1.419 . S
C1454 C1455 1.363 . S
C1454 H1457 0.929 . S
C1455 C1454 1.363 . S
C1455 C1461 1.428 . S
H1456 C1452 0.930 . S
H1457 C1454 0.929 . S
S1458 N1459 1.613 . S
S1458 N1460 1.610 . S
N1459 S1458 1.613 . S
N1459 C1462 1.350 . S
N1460 S1458 1.610 . S
N1460 C1461 1.351 . S
C1461 C1455 1.428 . S
C1461 N1460 1.351 . S
C1461 C1462 1.434 . S
C1462 C1453 1.429 . S
C1462 N1459 1.350 . S
C1462 C1461 1.434 . S
C1463 C1464 1.369 . S
C1463 C1465 1.419 . S
C1463 H1467 0.930 . S
C1464 C1463 1.369 . S
C1464 C1473 1.429 . S
C1465 C1463 1.419 . S
C1465 C1466 1.363 . S
C1465 H1468 0.929 . S
C1466 C1465 1.363 . S
C1466 C1472 1.428 . S
H1467 C1463 0.930 . S
H1468 C1465 0.929 . S
S1469 N1470 1.613 . S
S1469 N1471 1.610 . S
N1470 S1469 1.613 . S
N1470 C1473 1.350 . S
N1471 S1469 1.610 . S
N1471 C1472 1.351 . S
C1472 C1466 1.428 . S
C1472 N1471 1.351 . S
C1472 C1473 1.434 . S
C1473 C1464 1.429 . S
C1473 N1470 1.350 . S
C1473 C1472 1.434 . S
C1474 C1475 1.369 . S
C1474 C1476 1.419 . S
C1474 H1478 0.930 . S
C1475 C1474 1.369 . S
C1475 C1484 1.429 . S
C1476 C1474 1.419 . S
C1476 C1477 1.363 . S
C1476 H1479 0.929 . S
C1477 C1476 1.363 . S
C1477 C1483 1.428 . S
H1478 C1474 0.930 . S
H1479 C1476 0.929 . S
S1480 N1481 1.613 . S
S1480 N1482 1.610 . S
N1481 S1480 1.613 . S
N1481 C1484 1.350 . S
N1482 S1480 1.610 . S
N1482 C1483 1.351 . S
C1483 C1477 1.428 . S
C1483 N1482 1.351 . S
C1483 C1484 1.434 . S
C1484 C1475 1.429 . S
C1484 N1481 1.350 . S
C1484 C1483 1.434 . S
C1485 C1486 1.369 . S
C1485 C1487 1.419 . S
C1485 H1489 0.930 . S
C1486 C1485 1.369 . S
C1486 C1495 1.429 . S
C1487 C1485 1.419 . S
C1487 C1488 1.363 . S
C1487 H1490 0.929 . S
C1488 C1487 1.363 . S
C1488 C1494 1.428 . S
H1489 C1485 0.930 . S
H1490 C1487 0.929 . S
S1491 N1492 1.613 . S
S1491 N1493 1.610 . S
N1492 S1491 1.613 . S
N1492 C1495 1.350 . S
N1493 S1491 1.610 . S
N1493 C1494 1.351 . S
C1494 C1488 1.428 . S
C1494 N1493 1.351 . S
C1494 C1495 1.434 . S
C1495 C1486 1.429 . S
C1495 N1492 1.350 . S
C1495 C1494 1.434 . S
C1496 C1497 1.369 . S
C1496 C1498 1.419 . S
C1496 H1500 0.930 . S
C1497 C1496 1.369 . S
C1497 C1506 1.429 . S
C1498 C1496 1.419 . S
C1498 C1499 1.363 . S
C1498 H1501 0.929 . S
C1499 C1498 1.363 . S
C1499 C1505 1.428 . S
H1500 C1496 0.930 . S
H1501 C1498 0.929 . S
S1502 N1503 1.613 . S
S1502 N1504 1.610 . S
N1503 S1502 1.613 . S
N1503 C1506 1.350 . S
N1504 S1502 1.610 . S
N1504 C1505 1.351 . S
C1505 C1499 1.428 . S
C1505 N1504 1.351 . S
C1505 C1506 1.434 . S
C1506 C1497 1.429 . S
C1506 N1503 1.350 . S
C1506 C1505 1.434 . S
C1507 C1508 1.369 . S
C1507 C1509 1.419 . S
C1507 H1511 0.930 . S
C1508 C1507 1.369 . S
C1508 C1517 1.429 . S
C1509 C1507 1.419 . S
C1509 C1510 1.363 . S
C1509 H1512 0.929 . S
C1510 C1509 1.363 . S
C1510 C1516 1.428 . S
H1511 C1507 0.930 . S
H1512 C1509 0.929 . S
S1513 N1514 1.613 . S
S1513 N1515 1.610 . S
N1514 S1513 1.613 . S
N1514 C1517 1.350 . S
N1515 S1513 1.610 . S
N1515 C1516 1.351 . S
C1516 C1510 1.428 . S
C1516 N1515 1.351 . S
C1516 C1517 1.434 . S
C1517 C1508 1.429 . S
C1517 N1514 1.350 . S
C1517 C1516 1.434 . S
C1518 C1519 1.369 . S
C1518 C1520 1.419 . S
C1518 H1522 0.930 . S
C1519 C1518 1.369 . S
C1519 C1528 1.429 . S
C1520 C1518 1.419 . S
C1520 C1521 1.363 . S
C1520 H1523 0.929 . S
C1521 C1520 1.363 . S
C1521 C1527 1.428 . S
H1522 C1518 0.930 . S
H1523 C1520 0.929 . S
S1524 N1525 1.613 . S
S1524 N1526 1.610 . S
N1525 S1524 1.613 . S
N1525 C1528 1.350 . S
N1526 S1524 1.610 . S
N1526 C1527 1.351 . S
C1527 C1521 1.428 . S
C1527 N1526 1.351 . S
C1527 C1528 1.434 . S
C1528 C1519 1.429 . S
C1528 N1525 1.350 . S
C1528 C1527 1.434 . S
C1529 C1530 1.369 . S
C1529 C1531 1.419 . S
C1529 H1533 0.930 . S
C1530 C1529 1.369 . S
C1530 C1539 1.429 . S
C1531 C1529 1.419 . S
C1531 C1532 1.363 . S
C1531 H1534 0.929 . S
C1532 C1531 1.363 . S
C1532 C1538 1.428 . S
H1533 C1529 0.930 . S
H1534 C1531 0.929 . S
S1535 N1536 1.613 . S
S1535 N1537 1.610 . S
N1536 S1535 1.613 . S
N1536 C1539 1.350 . S
N1537 S1535 1.610 . S
N1537 C1538 1.351 . S
C1538 C1532 1.428 . S
C1538 N1537 1.351 . S
C1538 C1539 1.434 . S
C1539 C1530 1.429 . S
C1539 N1536 1.350 . S
C1539 C1538 1.434 . S
C1540 C1541 1.369 . S
C1540 C1542 1.419 . S
C1540 H1544 0.930 . S
C1541 C1540 1.369 . S
C1541 C1550 1.429 . S
C1542 C1540 1.419 . S
C1542 C1543 1.363 . S
C1542 H1545 0.929 . S
C1543 C1542 1.363 . S
C1543 C1549 1.428 . S
H1544 C1540 0.930 . S
H1545 C1542 0.929 . S
S1546 N1547 1.613 . S
S1546 N1548 1.610 . S
N1547 S1546 1.613 . S
N1547 C1550 1.350 . S
N1548 S1546 1.610 . S
N1548 C1549 1.351 . S
C1549 C1543 1.428 . S
C1549 N1548 1.351 . S
C1549 C1550 1.434 . S
C1550 C1541 1.429 . S
C1550 N1547 1.350 . S
C1550 C1549 1.434 . S
C1551 C1552 1.369 . S
C1551 C1553 1.419 . S
C1551 H1555 0.930 . S
C1552 C1551 1.369 . S
C1552 C1561 1.429 . S
C1553 C1551 1.419 . S
C1553 C1554 1.363 . S
C1553 H1556 0.929 . S
C1554 C1553 1.363 . S
C1554 C1560 1.428 . S
H1555 C1551 0.930 . S
H1556 C1553 0.929 . S
S1557 N1558 1.613 . S
S1557 N1559 1.610 . S
N1558 S1557 1.613 . S
N1558 C1561 1.350 . S
N1559 S1557 1.610 . S
N1559 C1560 1.351 . S
C1560 C1554 1.428 . S
C1560 N1559 1.351 . S
C1560 C1561 1.434 . S
C1561 C1552 1.429 . S
C1561 N1558 1.350 . S
C1561 C1560 1.434 . S
C1562 C1563 1.369 . S
C1562 C1564 1.419 . S
C1562 H1566 0.930 . S
C1563 C1562 1.369 . S
C1563 C1572 1.429 . S
C1564 C1562 1.419 . S
C1564 C1565 1.363 . S
C1564 H1567 0.929 . S
C1565 C1564 1.363 . S
C1565 C1571 1.428 . S
H1566 C1562 0.930 . S
H1567 C1564 0.929 . S
S1568 N1569 1.613 . S
S1568 N1570 1.610 . S
N1569 S1568 1.613 . S
N1569 C1572 1.350 . S
N1570 S1568 1.610 . S
N1570 C1571 1.351 . S
C1571 C1565 1.428 . S
C1571 N1570 1.351 . S
C1571 C1572 1.434 . S
C1572 C1563 1.429 . S
C1572 N1569 1.350 . S
C1572 C1571 1.434 . S
C1573 C1574 1.369 . S
C1573 C1575 1.419 . S
C1573 H1577 0.930 . S
C1574 C1573 1.369 . S
C1574 C1583 1.429 . S
C1575 C1573 1.419 . S
C1575 C1576 1.363 . S
C1575 H1578 0.929 . S
C1576 C1575 1.363 . S
C1576 C1582 1.428 . S
H1577 C1573 0.930 . S
H1578 C1575 0.929 . S
S1579 N1580 1.613 . S
S1579 N1581 1.610 . S
N1580 S1579 1.613 . S
N1580 C1583 1.350 . S
N1581 S1579 1.610 . S
N1581 C1582 1.351 . S
C1582 C1576 1.428 . S
C1582 N1581 1.351 . S
C1582 C1583 1.434 . S
C1583 C1574 1.429 . S
C1583 N1580 1.350 . S
C1583 C1582 1.434 . S
C1584 C1585 1.369 . S
C1584 C1586 1.419 . S
C1584 H1588 0.930 . S
C1585 C1584 1.369 . S
C1585 C1594 1.429 . S
C1586 C1584 1.419 . S
C1586 C1587 1.363 . S
C1586 H1589 0.929 . S
C1587 C1586 1.363 . S
C1587 C1593 1.428 . S
H1588 C1584 0.930 . S
H1589 C1586 0.929 . S
S1590 N1591 1.613 . S
S1590 N1592 1.610 . S
N1591 S1590 1.613 . S
N1591 C1594 1.350 . S
N1592 S1590 1.610 . S
N1592 C1593 1.351 . S
C1593 C1587 1.428 . S
C1593 N1592 1.351 . S
C1593 C1594 1.434 . S
C1594 C1585 1.429 . S
C1594 N1591 1.350 . S
C1594 C1593 1.434 . S
C1595 C1596 1.369 . S
C1595 C1597 1.419 . S
C1595 H1599 0.930 . S
C1596 C1595 1.369 . S
C1596 C1605 1.429 . S
C1597 C1595 1.419 . S
C1597 C1598 1.363 . S
C1597 H1600 0.929 . S
C1598 C1597 1.363 . S
C1598 C1604 1.428 . S
H1599 C1595 0.930 . S
H1600 C1597 0.929 . S
S1601 N1602 1.613 . S
S1601 N1603 1.610 . S
N1602 S1601 1.613 . S
N1602 C1605 1.350 . S
N1603 S1601 1.610 . S
N1603 C1604 1.351 . S
C1604 C1598 1.428 . S
C1604 N1603 1.351 . S
C1604 C1605 1.434 . S
C1605 C1596 1.429 . S
C1605 N1602 1.350 . S
C1605 C1604 1.434 . S
C1606 C1607 1.369 . S
C1606 C1608 1.419 . S
C1606 H1610 0.930 . S
C1607 C1606 1.369 . S
C1607 C1616 1.429 . S
C1608 C1606 1.419 . S
C1608 C1609 1.363 . S
C1608 H1611 0.929 . S
C1609 C1608 1.363 . S
C1609 C1615 1.428 . S
H1610 C1606 0.930 . S
H1611 C1608 0.929 . S
S1612 N1613 1.613 . S
S1612 N1614 1.610 . S
N1613 S1612 1.613 . S
N1613 C1616 1.350 . S
N1614 S1612 1.610 . S
N1614 C1615 1.351 . S
C1615 C1609 1.428 . S
C1615 N1614 1.351 . S
C1615 C1616 1.434 . S
C1616 C1607 1.429 . S
C1616 N1613 1.350 . S
C1616 C1615 1.434 . S
C1617 C1618 1.369 . S
C1617 C1619 1.419 . S
C1617 H1621 0.930 . S
C1618 C1617 1.369 . S
C1618 C1627 1.429 . S
C1619 C1617 1.419 . S
C1619 C1620 1.363 . S
C1619 H1622 0.929 . S
C1620 C1619 1.363 . S
C1620 C1626 1.428 . S
H1621 C1617 0.930 . S
H1622 C1619 0.929 . S
S1623 N1624 1.613 . S
S1623 N1625 1.610 . S
N1624 S1623 1.613 . S
N1624 C1627 1.350 . S
N1625 S1623 1.610 . S
N1625 C1626 1.351 . S
C1626 C1620 1.428 . S
C1626 N1625 1.351 . S
C1626 C1627 1.434 . S
C1627 C1618 1.429 . S
C1627 N1624 1.350 . S
C1627 C1626 1.434 . S
C1628 C1629 1.369 . S
C1628 C1630 1.419 . S
C1628 H1632 0.930 . S
C1629 C1628 1.369 . S
C1629 C1638 1.429 . S
C1630 C1628 1.419 . S
C1630 C1631 1.363 . S
C1630 H1633 0.929 . S
C1631 C1630 1.363 . S
C1631 C1637 1.428 . S
H1632 C1628 0.930 . S
H1633 C1630 0.929 . S
S1634 N1635 1.613 . S
S1634 N1636 1.610 . S
N1635 S1634 1.613 . S
N1635 C1638 1.350 . S
N1636 S1634 1.610 . S
N1636 C1637 1.351 . S
C1637 C1631 1.428 . S
C1637 N1636 1.351 . S
C1637 C1638 1.434 . S
C1638 C1629 1.429 . S
C1638 N1635 1.350 . S
C1638 C1637 1.434 . S
C1639 C1640 1.369 . S
C1639 C1641 1.419 . S
C1639 H1643 0.930 . S
C1640 C1639 1.369 . S
C1640 C1649 1.429 . S
C1641 C1639 1.419 . S
C1641 C1642 1.363 . S
C1641 H1644 0.929 . S
C1642 C1641 1.363 . S
C1642 C1648 1.428 . S
H1643 C1639 0.930 . S
H1644 C1641 0.929 . S
S1645 N1646 1.613 . S
S1645 N1647 1.610 . S
N1646 S1645 1.613 . S
N1646 C1649 1.350 . S
N1647 S1645 1.610 . S
N1647 C1648 1.351 . S
C1648 C1642 1.428 . S
C1648 N1647 1.351 . S
C1648 C1649 1.434 . S
C1649 C1640 1.429 . S
C1649 N1646 1.350 . S
C1649 C1648 1.434 . S
C1650 C1651 1.369 . S
C1650 C1652 1.419 . S
C1650 H1654 0.930 . S
C1651 C1650 1.369 . S
C1651 C1660 1.429 . S
C1652 C1650 1.419 . S
C1652 C1653 1.363 . S
C1652 H1655 0.929 . S
C1653 C1652 1.363 . S
C1653 C1659 1.428 . S
H1654 C1650 0.930 . S
H1655 C1652 0.929 . S
S1656 N1657 1.613 . S
S1656 N1658 1.610 . S
N1657 S1656 1.613 . S
N1657 C1660 1.350 . S
N1658 S1656 1.610 . S
N1658 C1659 1.351 . S
C1659 C1653 1.428 . S
C1659 N1658 1.351 . S
C1659 C1660 1.434 . S
C1660 C1651 1.429 . S
C1660 N1657 1.350 . S
C1660 C1659 1.434 . S
C1661 C1662 1.369 . S
C1661 C1663 1.419 . S
C1661 H1665 0.930 . S
C1662 C1661 1.369 . S
C1662 C1671 1.429 . S
C1663 C1661 1.419 . S
C1663 C1664 1.363 . S
C1663 H1666 0.929 . S
C1664 C1663 1.363 . S
C1664 C1670 1.428 . S
H1665 C1661 0.930 . S
H1666 C1663 0.929 . S
S1667 N1668 1.613 . S
S1667 N1669 1.610 . S
N1668 S1667 1.613 . S
N1668 C1671 1.350 . S
N1669 S1667 1.610 . S
N1669 C1670 1.351 . S
C1670 C1664 1.428 . S
C1670 N1669 1.351 . S
C1670 C1671 1.434 . S
C1671 C1662 1.429 . S
C1671 N1668 1.350 . S
C1671 C1670 1.434 . S
C1672 C1673 1.369 . S
C1672 C1674 1.419 . S
C1672 H1676 0.930 . S
C1673 C1672 1.369 . S
C1673 C1682 1.429 . S
C1674 C1672 1.419 . S
C1674 C1675 1.363 . S
C1674 H1677 0.929 . S
C1675 C1674 1.363 . S
C1675 C1681 1.428 . S
H1676 C1672 0.930 . S
H1677 C1674 0.929 . S
S1678 N1679 1.613 . S
S1678 N1680 1.610 . S
N1679 S1678 1.613 . S
N1679 C1682 1.350 . S
N1680 S1678 1.610 . S
N1680 C1681 1.351 . S
C1681 C1675 1.428 . S
C1681 N1680 1.351 . S
C1681 C1682 1.434 . S
C1682 C1673 1.429 . S
C1682 N1679 1.350 . S
C1682 C1681 1.434 . S
C1683 C1684 1.369 . S
C1683 C1685 1.419 . S
C1683 H1687 0.930 . S
C1684 C1683 1.369 . S
C1684 C1693 1.429 . S
C1685 C1683 1.419 . S
C1685 C1686 1.363 . S
C1685 H1688 0.929 . S
C1686 C1685 1.363 . S
C1686 C1692 1.428 . S
H1687 C1683 0.930 . S
H1688 C1685 0.929 . S
S1689 N1690 1.613 . S
S1689 N1691 1.610 . S
N1690 S1689 1.613 . S
N1690 C1693 1.350 . S
N1691 S1689 1.610 . S
N1691 C1692 1.351 . S
C1692 C1686 1.428 . S
C1692 N1691 1.351 . S
C1692 C1693 1.434 . S
C1693 C1684 1.429 . S
C1693 N1690 1.350 . S
C1693 C1692 1.434 . S
C1694 C1695 1.369 . S
C1694 C1696 1.419 . S
C1694 H1698 0.930 . S
C1695 C1694 1.369 . S
C1695 C1704 1.429 . S
C1696 C1694 1.419 . S
C1696 C1697 1.363 . S
C1696 H1699 0.929 . S
C1697 C1696 1.363 . S
C1697 C1703 1.428 . S
H1698 C1694 0.930 . S
H1699 C1696 0.929 . S
S1700 N1701 1.613 . S
S1700 N1702 1.620 1_565 S
N1701 S1700 1.613 . S
N1701 C1704 1.350 . S
N1702 S1700 1.620 1_545 S
N1702 C1703 1.324 1_545 S
C1703 C1697 1.428 . S
C1703 N1702 1.324 1_565 S
C1703 C1704 1.434 . S
C1704 C1695 1.429 . S
C1704 N1701 1.350 . S
C1704 C1703 1.434 . S
C1705 C1706 1.369 . S
C1705 C1707 1.419 . S
C1705 H1709 0.930 . S
C1706 C1705 1.369 . S
C1706 C1715 1.429 . S
C1707 C1705 1.419 . S
C1707 C1708 1.363 . S
C1707 H1710 0.929 . S
C1708 C1707 1.363 . S
C1708 C1714 1.428 . S
H1709 C1705 0.930 . S
H1710 C1707 0.929 . S
S1711 N1712 1.613 . S
S1711 N1713 1.610 . S
N1712 S1711 1.613 . S
N1712 C1715 1.350 . S
N1713 S1711 1.610 . S
N1713 C1714 1.351 . S
C1714 C1708 1.428 . S
C1714 N1713 1.351 . S
C1714 C1715 1.434 . S
C1715 C1706 1.429 . S
C1715 N1712 1.350 . S
C1715 C1714 1.434 . S
C1716 C1717 1.369 . S
C1716 C1718 1.419 . S
C1716 H1720 0.930 . S
C1717 C1716 1.369 . S
C1717 C1726 1.429 . S
C1718 C1716 1.419 . S
C1718 C1719 1.363 . S
C1718 H1721 0.929 . S
C1719 C1718 1.363 . S
C1719 C1725 1.428 . S
H1720 C1716 0.930 . S
H1721 C1718 0.929 . S
S1722 N1723 1.613 . S
S1722 N1724 1.610 . S
N1723 S1722 1.613 . S
N1723 C1726 1.350 . S
N1724 S1722 1.610 . S
N1724 C1725 1.351 . S
C1725 C1719 1.428 . S
C1725 N1724 1.351 . S
C1725 C1726 1.434 . S
C1726 C1717 1.429 . S
C1726 N1723 1.350 . S
C1726 C1725 1.434 . S
C1727 C1728 1.369 . S
C1727 C1729 1.419 . S
C1727 H1731 0.930 . S
C1728 C1727 1.369 . S
C1728 C1737 1.429 . S
C1729 C1727 1.419 . S
C1729 C1730 1.363 . S
C1729 H1732 0.929 . S
C1730 C1729 1.363 . S
C1730 C1736 1.428 . S
H1731 C1727 0.930 . S
H1732 C1729 0.929 . S
S1733 N1734 1.613 . S
S1733 N1735 1.610 . S
N1734 S1733 1.613 . S
N1734 C1737 1.350 . S
N1735 S1733 1.610 . S
N1735 C1736 1.351 . S
C1736 C1730 1.428 . S
C1736 N1735 1.351 . S
C1736 C1737 1.434 . S
C1737 C1728 1.429 . S
C1737 N1734 1.350 . S
C1737 C1736 1.434 . S
C1738 C1739 1.369 . S
C1738 C1740 1.419 . S
C1738 H1742 0.930 . S
C1739 C1738 1.369 . S
C1739 C1748 1.429 . S
C1740 C1738 1.419 . S
C1740 C1741 1.363 . S
C1740 H1743 0.929 . S
C1741 C1740 1.363 . S
C1741 C1747 1.428 . S
H1742 C1738 0.930 . S
H1743 C1740 0.929 . S
S1744 N1745 1.613 . S
S1744 N1746 1.610 . S
N1745 S1744 1.613 . S
N1745 C1748 1.350 . S
N1746 S1744 1.610 . S
N1746 C1747 1.351 . S
C1747 C1741 1.428 . S
C1747 N1746 1.351 . S
C1747 C1748 1.434 . S
C1748 C1739 1.429 . S
C1748 N1745 1.350 . S
C1748 C1747 1.434 . S
C1749 C1750 1.369 . S
C1749 C1751 1.419 . S
C1749 H1753 0.930 . S
C1750 C1749 1.369 . S
C1750 C1759 1.429 . S
C1751 C1749 1.419 . S
C1751 C1752 1.363 . S
C1751 H1754 0.929 . S
C1752 C1751 1.363 . S
C1752 C1758 1.428 . S
H1753 C1749 0.930 . S
H1754 C1751 0.929 . S
S1755 N1756 1.613 . S
S1755 N1757 1.610 1_655 S
N1756 S1755 1.613 . S
N1756 C1759 1.350 1_655 S
N1757 S1755 1.610 1_455 S
N1757 C1758 1.351 . S
C1758 C1752 1.428 . S
C1758 N1757 1.351 . S
C1758 C1759 1.434 . S
C1759 C1750 1.429 . S
C1759 N1756 1.350 1_455 S
C1759 C1758 1.434 . S
C1760 C1761 1.369 . S
C1760 C1762 1.419 . S
C1760 H1764 0.930 . S
C1761 C1760 1.369 . S
C1761 C1770 1.429 . S
C1762 C1760 1.419 . S
C1762 C1763 1.363 . S
C1762 H1765 0.929 . S
C1763 C1762 1.363 . S
C1763 C1769 1.428 . S
H1764 C1760 0.930 . S
H1765 C1762 0.929 . S
S1766 N1767 1.613 . S
S1766 N1768 1.610 . S
N1767 S1766 1.613 . S
N1767 C1770 1.350 . S
N1768 S1766 1.610 . S
N1768 C1769 1.351 . S
C1769 C1763 1.428 . S
C1769 N1768 1.351 . S
C1769 C1770 1.434 . S
C1770 C1761 1.429 . S
C1770 N1767 1.350 . S
C1770 C1769 1.434 . S
C1771 C1772 1.369 . S
C1771 C1773 1.419 . S
C1771 H1775 0.930 1_565 S
C1772 C1771 1.369 . S
C1772 C1781 1.429 . S
C1773 C1771 1.419 . S
C1773 C1774 1.363 . S
C1773 H1776 0.929 . S
C1774 C1773 1.363 . S
C1774 C1780 1.428 . S
H1775 C1771 0.930 1_545 S
H1776 C1773 0.929 . S
S1777 N1778 1.613 . S
S1777 N1779 1.610 . S
N1778 S1777 1.613 . S
N1778 C1781 1.350 . S
N1779 S1777 1.610 . S
N1779 C1780 1.351 . S
C1780 C1774 1.428 . S
C1780 N1779 1.351 . S
C1780 C1781 1.434 . S
C1781 C1772 1.429 . S
C1781 N1778 1.350 . S
C1781 C1780 1.434 . S
C1782 C1783 1.369 1_545 S
C1782 C1784 1.419 . S
C1782 H1786 0.930 . S
C1783 C1782 1.369 1_565 S
C1783 C1792 1.429 . S
C1784 C1782 1.419 . S
C1784 C1785 1.363 1_545 S
C1784 H1787 0.929 . S
C1785 C1784 1.363 1_565 S
C1785 C1791 1.428 . S
H1786 C1782 0.930 . S
H1787 C1784 0.929 . S
S1788 N1789 1.613 . S
S1788 N1790 1.610 . S
N1789 S1788 1.613 . S
N1789 C1792 1.350 . S
N1790 S1788 1.610 . S
N1790 C1791 1.351 . S
C1791 C1785 1.428 . S
C1791 N1790 1.351 . S
C1791 C1792 1.434 . S
C1792 C1783 1.429 . S
C1792 N1789 1.350 . S
C1792 C1791 1.434 . S
C1793 C1794 1.369 . S
C1793 C1795 1.419 . S
C1793 H1797 0.930 . S
C1794 C1793 1.369 . S
C1794 C1803 1.429 1_455 S
C1795 C1793 1.419 . S
C1795 C1796 1.363 . S
C1795 H1798 0.929 . S
C1796 C1795 1.363 . S
C1796 C1802 1.428 1_455 S
H1797 C1793 0.930 . S
H1798 C1795 0.929 . S
S1799 N1800 1.613 . S
S1799 N1801 1.610 . S
N1800 S1799 1.613 . S
N1800 C1803 1.350 . S
N1801 S1799 1.610 . S
N1801 C1802 1.351 . S
C1802 C1796 1.428 1_655 S
C1802 N1801 1.351 . S
C1802 C1803 1.434 . S
C1803 C1794 1.429 1_655 S
C1803 N1800 1.350 . S
C1803 C1802 1.434 . S
C1804 C1805 1.369 . S
C1804 C1806 1.419 . S
C1804 H1808 0.930 . S
C1805 C1804 1.369 . S
C1805 C1814 1.429 . S
C1806 C1804 1.419 . S
C1806 C1807 1.363 . S
C1806 H1809 0.929 . S
C1807 C1806 1.363 . S
C1807 C1813 1.428 . S
H1808 C1804 0.930 . S
H1809 C1806 0.929 . S
S1810 N1811 1.613 . S
S1810 N1812 1.610 . S
N1811 S1810 1.613 . S
N1811 C1814 1.350 . S
N1812 S1810 1.610 . S
N1812 C1813 1.351 . S
C1813 C1807 1.428 . S
C1813 N1812 1.351 . S
C1813 C1814 1.434 . S
C1814 C1805 1.429 . S
C1814 N1811 1.350 . S
C1814 C1813 1.434 . S
C1815 C1816 1.369 . S
C1815 C1817 1.419 . S
C1815 H1819 0.930 . S
C1816 C1815 1.369 . S
C1816 C1825 1.429 1_556 S
C1817 C1815 1.419 . S
C1817 C1818 1.363 1_556 S
C1817 H1820 0.929 . S
C1818 C1817 1.363 1_554 S
C1818 C1824 1.428 . S
H1819 C1815 0.930 . S
H1820 C1817 0.929 . S
S1821 N1822 1.613 . S
S1821 N1823 1.610 . S
N1822 S1821 1.613 . S
N1822 C1825 1.350 . S
N1823 S1821 1.610 . S
N1823 C1824 1.351 . S
C1824 C1818 1.428 . S
C1824 N1823 1.351 . S
C1824 C1825 1.434 . S
C1825 C1816 1.429 1_554 S
C1825 N1822 1.350 . S
C1825 C1824 1.434 . S
C1826 C1827 1.369 . S
C1826 C1828 1.419 . S
C1826 H1830 0.930 . S
C1827 C1826 1.369 . S
C1827 C1836 1.429 1_554 S
C1828 C1826 1.419 . S
C1828 C1829 1.363 1_554 S
C1828 H1831 0.929 . S
C1829 C1828 1.363 1_556 S
C1829 C1835 1.428 . S
H1830 C1826 0.930 . S
H1831 C1828 0.929 . S
S1832 N1833 1.613 . S
S1832 N1834 1.610 . S
N1833 S1832 1.613 . S
N1833 C1836 1.350 . S
N1834 S1832 1.610 . S
N1834 C1835 1.351 . S
C1835 C1829 1.428 . S
C1835 N1834 1.351 . S
C1835 C1836 1.434 . S
C1836 C1827 1.429 1_556 S
C1836 N1833 1.350 . S
C1836 C1835 1.434 . S
C1837 C1838 1.369 1_556 S
C1837 C1839 1.419 . S
C1837 H1841 0.930 . S
C1838 C1837 1.369 1_554 S
C1838 C1847 1.429 . S
C1839 C1837 1.419 . S
C1839 C1840 1.363 . S
C1839 H1842 0.929 . S
C1840 C1839 1.363 . S
C1840 C1846 1.428 1_556 S
H1841 C1837 0.930 . S
H1842 C1839 0.929 . S
S1843 N1844 1.613 . S
S1843 N1845 1.610 . S
N1844 S1843 1.613 . S
N1844 C1847 1.350 . S
N1845 S1843 1.610 . S
N1845 C1846 1.351 . S
C1846 C1840 1.428 1_554 S
C1846 N1845 1.351 . S
C1846 C1847 1.434 . S
C1847 C1838 1.429 . S
C1847 N1844 1.350 . S
C1847 C1846 1.434 . S
C1848 C1849 1.369 1_565 S
C1848 C1850 1.419 . S
C1848 H1852 0.930 . S
C1849 C1848 1.369 1_545 S
C1849 C1858 1.429 . S
C1850 C1848 1.419 . S
C1850 C1851 1.363 1_565 S
C1850 H1853 0.929 . S
C1851 C1850 1.363 1_545 S
C1851 C1857 1.428 . S
H1852 C1848 0.930 . S
H1853 C1850 0.929 . S
S1854 N1855 1.613 . S
S1854 N1856 1.610 . S
N1855 S1854 1.613 . S
N1855 C1858 1.350 . S
N1856 S1854 1.610 . S
N1856 C1857 1.351 . S
C1857 C1851 1.428 . S
C1857 N1856 1.351 . S
C1857 C1858 1.434 . S
C1858 C1849 1.429 . S
C1858 N1855 1.350 . S
C1858 C1857 1.434 . S
C1859 C1860 1.369 1_455 S
C1859 C1861 1.419 . S
C1859 H1863 0.930 . S
C1860 C1859 1.369 1_655 S
C1860 C1869 1.429 . S
C1861 C1859 1.419 . S
C1861 C1862 1.363 1_455 S
C1861 H1864 0.929 . S
C1862 C1861 1.363 1_655 S
C1862 C1868 1.428 . S
H1863 C1859 0.930 . S
H1864 C1861 0.929 . S
S1865 N1866 1.613 . S
S1865 N1867 1.610 . S
N1866 S1865 1.613 . S
N1866 C1869 1.350 . S
N1867 S1865 1.610 . S
N1867 C1868 1.351 . S
C1868 C1862 1.428 . S
C1868 N1867 1.351 . S
C1868 C1869 1.434 . S
C1869 C1860 1.429 . S
C1869 N1866 1.350 . S
C1869 C1868 1.434 . S
C1870 C1871 1.369 . S
C1870 C1872 1.419 . S
C1870 H1874 0.930 . S
C1871 C1870 1.369 . S
C1871 C1880 1.429 . S
C1872 C1870 1.419 . S
C1872 C1873 1.363 . S
C1872 H1875 0.929 . S
C1873 C1872 1.363 . S
C1873 C1879 1.428 . S
H1874 C1870 0.930 . S
H1875 C1872 0.929 . S
S1876 N1877 1.613 . S
S1876 N1878 1.610 . S
N1877 S1876 1.613 . S
N1877 C1880 1.350 . S
N1878 S1876 1.610 . S
N1878 C1879 1.351 . S
C1879 C1873 1.428 . S
C1879 N1878 1.351 . S
C1879 C1880 1.434 . S
C1880 C1871 1.429 . S
C1880 N1877 1.350 . S
C1880 C1879 1.434 . S
C1881 C1882 1.369 1_554 S
C1881 C1883 1.419 . S
C1881 H1885 0.930 . S
C1882 C1881 1.369 1_556 S
C1882 C1891 1.429 . S
C1883 C1881 1.419 . S
C1883 C1884 1.363 . S
C1883 H1886 0.929 . S
C1884 C1883 1.363 . S
C1884 C1890 1.428 1_554 S
H1885 C1881 0.930 . S
H1886 C1883 0.929 . S
S1887 N1888 1.613 . S
S1887 N1889 1.610 . S
N1888 S1887 1.613 . S
N1888 C1891 1.350 . S
N1889 S1887 1.610 . S
N1889 C1890 1.351 . S
C1890 C1884 1.428 1_556 S
C1890 N1889 1.351 . S
C1890 C1891 1.434 . S
C1891 C1882 1.429 . S
C1891 N1888 1.350 . S
C1891 C1890 1.434 . S
C1892 C1893 1.369 1_556 S
C1892 C1894 1.419 . S
C1892 H1896 0.930 . S
C1893 C1892 1.369 1_554 S
C1893 C1902 1.429 . S
C1894 C1892 1.419 . S
C1894 C1895 1.363 . S
C1894 H1897 0.929 . S
C1895 C1894 1.363 . S
C1895 C1901 1.428 1_556 S
H1896 C1892 0.930 . S
H1897 C1894 0.929 . S
S1898 N1899 1.613 . S
S1898 N1900 1.610 . S
N1899 S1898 1.613 . S
N1899 C1902 1.350 . S
N1900 S1898 1.610 . S
N1900 C1901 1.351 . S
C1901 C1895 1.428 1_554 S
C1901 N1900 1.351 . S
C1901 C1902 1.434 . S
C1902 C1893 1.429 . S
C1902 N1899 1.350 . S
C1902 C1901 1.434 . S
C1903 C1904 1.369 . S
C1903 C1905 1.442 . S
C1903 H1907 0.930 . S
C1904 C1903 1.369 . S
C1904 C1913 1.429 1_556 S
C1905 C1903 1.442 . S
C1905 C1906 1.332 1_556 S
C1905 H1908 0.940 . S
C1906 C1905 1.332 1_554 S
C1906 C1912 1.428 . S
H1907 C1903 0.930 . S
H1908 C1905 0.940 . S
S1909 N1910 1.613 . S
S1909 N1911 1.610 . S
N1910 S1909 1.613 . S
N1910 C1913 1.350 . S
N1911 S1909 1.610 . S
N1911 C1912 1.351 . S
C1912 C1906 1.428 . S
C1912 N1911 1.351 . S
C1912 C1913 1.434 . S
C1913 C1904 1.429 1_554 S
C1913 N1910 1.350 . S
C1913 C1912 1.434 . S
C1914 C1915 1.369 . S
C1914 C1916 1.419 . S
C1914 H1918 0.930 . S
C1915 C1914 1.369 . S
C1915 C1924 1.429 . S
C1916 C1914 1.419 . S
C1916 C1917 1.363 . S
C1916 H1919 0.929 . S
C1917 C1916 1.363 . S
C1917 C1923 1.428 . S
H1918 C1914 0.930 . S
H1919 C1916 0.929 . S
S1920 N1921 1.613 . S
S1920 N1922 1.610 . S
N1921 S1920 1.613 . S
N1921 C1924 1.350 . S
N1922 S1920 1.610 . S
N1922 C1923 1.351 . S
C1923 C1917 1.428 . S
C1923 N1922 1.351 . S
C1923 C1924 1.434 . S
C1924 C1915 1.429 . S
C1924 N1921 1.350 . S
C1924 C1923 1.434 . S
C1925 C1926 1.369 . S
C1925 C1927 1.419 . S
C1925 H1929 0.930 . S
C1926 C1925 1.369 . S
C1926 C1935 1.429 . S
C1927 C1925 1.419 . S
C1927 C1928 1.363 . S
C1927 H1930 0.929 . S
C1928 C1927 1.363 . S
C1928 C1934 1.428 . S
H1929 C1925 0.930 . S
H1930 C1927 0.929 . S
S1931 N1932 1.613 . S
S1931 N1933 1.610 . S
N1932 S1931 1.613 . S
N1932 C1935 1.350 . S
N1933 S1931 1.610 . S
N1933 C1934 1.351 . S
C1934 C1928 1.428 . S
C1934 N1933 1.351 . S
C1934 C1935 1.434 . S
C1935 C1926 1.429 . S
C1935 N1932 1.350 . S
C1935 C1934 1.434 . S
C1936 C1937 1.369 . S
C1936 C1938 1.419 . S
C1936 H1940 0.930 . S
C1937 C1936 1.369 . S
C1937 C1946 1.429 . S
C1938 C1936 1.419 . S
C1938 C1939 1.363 . S
C1938 H1941 0.929 . S
C1939 C1938 1.363 . S
C1939 C1945 1.428 . S
H1940 C1936 0.930 . S
H1941 C1938 0.929 . S
S1942 N1943 1.613 . S
S1942 N1944 1.610 . S
N1943 S1942 1.613 . S
N1943 C1946 1.350 . S
N1944 S1942 1.610 . S
N1944 C1945 1.351 . S
C1945 C1939 1.428 . S
C1945 N1944 1.351 . S
C1945 C1946 1.434 . S
C1946 C1937 1.429 . S
C1946 N1943 1.350 . S
C1946 C1945 1.434 . S
C1947 C1948 1.369 1_455 S
C1947 C1949 1.419 . S
C1947 H1951 0.930 . S
C1948 C1947 1.369 1_655 S
C1948 C1957 1.429 . S
C1949 C1947 1.419 . S
C1949 C1950 1.363 1_455 S
C1949 H1952 0.929 . S
C1950 C1949 1.363 1_655 S
C1950 C1956 1.428 . S
H1951 C1947 0.930 . S
H1952 C1949 0.929 . S
S1953 N1954 1.613 . S
S1953 N1955 1.610 . S
N1954 S1953 1.613 . S
N1954 C1957 1.350 . S
N1955 S1953 1.610 . S
N1955 C1956 1.351 . S
C1956 C1950 1.428 . S
C1956 N1955 1.351 . S
C1956 C1957 1.434 . S
C1957 C1948 1.429 . S
C1957 N1954 1.350 . S
C1957 C1956 1.434 . S
C1958 C1959 1.369 . S
C1958 C1960 1.419 . S
C1958 H1962 0.930 . S
C1959 C1958 1.369 . S
C1959 C1968 1.429 . S
C1960 C1958 1.419 . S
C1960 C1961 1.363 . S
C1960 H1963 0.929 . S
C1961 C1960 1.363 . S
C1961 C1967 1.428 . S
H1962 C1958 0.930 . S
H1963 C1960 0.929 . S
S1964 N1965 1.613 . S
S1964 N1966 1.610 . S
N1965 S1964 1.613 . S
N1965 C1968 1.350 . S
N1966 S1964 1.610 . S
N1966 C1967 1.351 . S
C1967 C1961 1.428 . S
C1967 N1966 1.351 . S
C1967 C1968 1.434 . S
C1968 C1959 1.429 . S
C1968 N1965 1.350 . S
C1968 C1967 1.434 . S
C1969 C1970 1.369 . S
C1969 C1971 1.419 . S
C1969 H1973 0.930 . S
C1970 C1969 1.369 . S
C1970 C1979 1.429 1_545 S
C1971 C1969 1.419 . S
C1971 C1972 1.363 . S
C1971 H1974 0.929 . S
C1972 C1971 1.363 . S
C1972 C1978 1.428 1_545 S
H1973 C1969 0.930 . S
H1974 C1971 0.929 . S
S1975 N1976 1.613 . S
S1975 N1977 1.610 . S
N1976 S1975 1.613 . S
N1976 C1979 1.350 . S
N1977 S1975 1.610 . S
N1977 C1978 1.351 . S
C1978 C1972 1.428 1_565 S
C1978 N1977 1.351 . S
C1978 C1979 1.434 . S
C1979 C1970 1.429 1_565 S
C1979 N1976 1.350 . S
C1979 C1978 1.434 . S
C1980 C1981 1.369 1_455 S
C1980 C1982 1.419 . S
C1980 H1984 0.930 . S
C1981 C1980 1.369 1_655 S
C1981 C1990 1.429 . S
C1982 C1980 1.419 . S
C1982 C1983 1.363 . S
C1982 H1985 0.929 . S
C1983 C1982 1.363 . S
C1983 C1989 1.428 1_455 S
H1984 C1980 0.930 . S
H1985 C1982 0.929 . S
S1986 N1987 1.613 . S
S1986 N1988 1.610 . S
N1987 S1986 1.613 . S
N1987 C1990 1.350 . S
N1988 S1986 1.610 . S
N1988 C1989 1.351 . S
C1989 C1983 1.428 1_655 S
C1989 N1988 1.351 . S
C1989 C1990 1.434 . S
C1990 C1981 1.429 . S
C1990 N1987 1.350 . S
C1990 C1989 1.434 . S
C1991 C1992 1.369 . S
C1991 C1993 1.419 . S
C1991 H1995 0.930 . S
C1992 C1991 1.369 . S
C1992 C2001 1.429 . S
C1993 C1991 1.419 . S
C1993 C1994 1.363 . S
C1993 H1996 0.929 . S
C1994 C1993 1.363 . S
C1994 C2000 1.428 . S
H1995 C1991 0.930 . S
H1996 C1993 0.929 . S
S1997 N1998 1.613 . S
S1997 N1999 1.610 . S
N1998 S1997 1.613 . S
N1998 C2001 1.350 . S
N1999 S1997 1.610 . S
N1999 C2000 1.351 . S
C2000 C1994 1.428 . S
C2000 N1999 1.351 . S
C2000 C2001 1.434 . S
C2001 C1992 1.429 . S
C2001 N1998 1.350 . S
C2001 C2000 1.434 . S
C2002 C2003 1.369 . S
C2002 C2004 1.419 . S
C2002 H2006 0.930 . S
C2003 C2002 1.369 . S
C2003 C2012 1.429 1_565 S
C2004 C2002 1.419 . S
C2004 C2005 1.363 1_565 S
C2004 H2007 0.929 . S
C2005 C2004 1.363 1_545 S
C2005 C2011 1.428 . S
H2006 C2002 0.930 . S
H2007 C2004 0.929 . S
S2008 N2009 1.613 . S
S2008 N2010 1.610 . S
N2009 S2008 1.613 . S
N2009 C2012 1.350 . S
N2010 S2008 1.610 . S
N2010 C2011 1.351 . S
C2011 C2005 1.428 . S
C2011 N2010 1.351 . S
C2011 C2012 1.434 . S
C2012 C2003 1.429 1_545 S
C2012 N2009 1.350 . S
C2012 C2011 1.434 . S
C2013 C2014 1.369 . S
C2013 C2015 1.419 . S
C2013 H2017 0.930 . S
C2014 C2013 1.369 . S
C2014 C2023 1.429 1_655 S
C2015 C2013 1.419 . S
C2015 C2016 1.363 1_655 S
C2015 H2018 0.929 . S
C2016 C2015 1.363 1_455 S
C2016 C2022 1.428 . S
H2017 C2013 0.930 . S
H2018 C2015 0.929 . S
S2019 N2020 1.613 . S
S2019 N2021 1.610 . S
N2020 S2019 1.613 . S
N2020 C2023 1.350 . S
N2021 S2019 1.610 . S
N2021 C2022 1.351 . S
C2022 C2016 1.428 . S
C2022 N2021 1.351 . S
C2022 C2023 1.434 . S
C2023 C2014 1.429 1_455 S
C2023 N2020 1.350 . S
C2023 C2022 1.434 . S
C2024 C2025 1.369 . S
C2024 C2026 1.419 . S
C2024 H2028 0.930 . S
C2025 C2024 1.369 . S
C2025 C2034 1.429 . S
C2026 C2024 1.419 . S
C2026 C2027 1.363 . S
C2026 H2029 0.929 . S
C2027 C2026 1.363 . S
C2027 C2033 1.428 . S
H2028 C2024 0.930 . S
H2029 C2026 0.929 . S
S2030 N2031 1.613 . S
S2030 N2032 1.610 . S
N2031 S2030 1.613 . S
N2031 C2034 1.350 . S
N2032 S2030 1.610 . S
N2032 C2033 1.351 . S
C2033 C2027 1.428 . S
C2033 N2032 1.351 . S
C2033 C2034 1.434 . S
C2034 C2025 1.429 . S
C2034 N2031 1.350 . S
C2034 C2033 1.434 . S
C2035 C2036 1.369 . S
C2035 C2037 1.419 1_545 S
C2035 H2039 0.930 . S
C2036 C2035 1.369 . S
C2036 C2045 1.429 . S
C2037 C2035 1.419 1_565 S
C2037 C2038 1.363 . S
C2037 H2040 0.929 . S
C2038 C2037 1.363 . S
C2038 C2044 1.428 . S
H2039 C2035 0.930 . S
H2040 C2037 0.929 . S
S2041 N2042 1.613 1_565 S
S2041 N2043 1.610 . S
N2042 S2041 1.613 1_545 S
N2042 C2045 1.350 . S
N2043 S2041 1.610 . S
N2043 C2044 1.351 . S
C2044 C2038 1.428 . S
C2044 N2043 1.351 . S
C2044 C2045 1.434 1_565 S
C2045 C2036 1.429 . S
C2045 N2042 1.350 . S
C2045 C2044 1.434 1_545 S
C2046 C2047 1.369 . S
C2046 C2048 1.419 . S
C2046 H2050 0.930 . S
C2047 C2046 1.369 . S
C2047 C2056 1.429 . S
C2048 C2046 1.419 . S
C2048 C2049 1.363 . S
C2048 H2051 0.929 . S
C2049 C2048 1.363 . S
C2049 C2055 1.428 . S
H2050 C2046 0.930 . S
H2051 C2048 0.929 . S
S2052 N2053 1.613 . S
S2052 N2054 1.610 . S
N2053 S2052 1.613 . S
N2053 C2056 1.350 . S
N2054 S2052 1.610 . S
N2054 C2055 1.351 . S
C2055 C2049 1.428 . S
C2055 N2054 1.351 . S
C2055 C2056 1.434 . S
C2056 C2047 1.429 . S
C2056 N2053 1.350 . S
C2056 C2055 1.434 . S
C2057 C2058 1.369 . S
C2057 C2059 1.419 . S
C2057 H2061 0.930 . S
C2058 C2057 1.369 . S
C2058 C2067 1.429 . S
C2059 C2057 1.419 . S
C2059 C2060 1.363 . S
C2059 H2062 0.929 . S
C2060 C2059 1.363 . S
C2060 C2066 1.428 . S
H2061 C2057 0.930 . S
H2062 C2059 0.929 . S
S2063 N2064 1.613 . S
S2063 N2065 1.610 1_565 S
N2064 S2063 1.613 . S
N2064 C2067 1.350 1_565 S
N2065 S2063 1.610 1_545 S
N2065 C2066 1.351 . S
C2066 C2060 1.428 . S
C2066 N2065 1.351 . S
C2066 C2067 1.434 . S
C2067 C2058 1.429 . S
C2067 N2064 1.350 1_545 S
C2067 C2066 1.434 . S
C2068 C2069 1.369 . S
C2068 C2070 1.419 . S
C2068 H2072 0.930 1_655 S
C2069 C2068 1.369 . S
C2069 C2078 1.429 . S
C2070 C2068 1.419 . S
C2070 C2071 1.363 . S
C2070 H2073 0.929 . S
C2071 C2070 1.363 . S
C2071 C2077 1.428 . S
H2072 C2068 0.930 1_455 S
H2073 C2070 0.929 . S
S2074 N2075 1.613 . S
S2074 N2076 1.610 . S
N2075 S2074 1.613 . S
N2075 C2078 1.350 . S
N2076 S2074 1.610 . S
N2076 C2077 1.351 . S
C2077 C2071 1.428 . S
C2077 N2076 1.351 . S
C2077 C2078 1.434 . S
C2078 C2069 1.429 . S
C2078 N2075 1.350 . S
C2078 C2077 1.434 . S
C2079 C2080 1.369 . S
C2079 C2081 1.419 . S
C2079 H2083 0.930 . S
C2080 C2079 1.369 . S
C2080 C2089 1.429 . S
C2081 C2079 1.419 . S
C2081 C2082 1.363 . S
C2081 H2084 0.929 1_545 S
C2082 C2081 1.363 . S
C2082 C2088 1.428 . S
H2083 C2079 0.930 . S
H2084 C2081 0.929 1_565 S
S2085 N2086 1.613 . S
S2085 N2087 1.610 . S
N2086 S2085 1.613 . S
N2086 C2089 1.350 . S
N2087 S2085 1.610 . S
N2087 C2088 1.351 . S
C2088 C2082 1.428 . S
C2088 N2087 1.351 . S
C2088 C2089 1.434 . S
C2089 C2080 1.429 . S
C2089 N2086 1.350 . S
C2089 C2088 1.434 . S
C2090 C2091 1.369 . S
C2090 C2092 1.419 . S
C2090 H2094 0.930 . S
C2091 C2090 1.369 . S
C2091 C2100 1.429 . S
C2092 C2090 1.419 . S
C2092 C2093 1.363 . S
C2092 H2095 0.929 1_655 S
C2093 C2092 1.363 . S
C2093 C2099 1.428 . S
H2094 C2090 0.930 . S
H2095 C2092 0.929 1_455 S
S2096 N2097 1.613 . S
S2096 N2098 1.610 . S
N2097 S2096 1.613 . S
N2097 C2100 1.350 . S
N2098 S2096 1.610 . S
N2098 C2099 1.351 . S
C2099 C2093 1.428 . S
C2099 N2098 1.351 . S
C2099 C2100 1.434 . S
C2100 C2091 1.429 . S
C2100 N2097 1.350 . S
C2100 C2099 1.434 . S
C2101 C2102 1.369 . S
C2101 C2103 1.419 . S
C2101 H2105 0.930 . S
C2102 C2101 1.369 . S
C2102 C2111 1.429 . S
C2103 C2101 1.419 . S
C2103 C2104 1.363 . S
C2103 H2106 0.929 . S
C2104 C2103 1.363 . S
C2104 C2110 1.428 . S
H2105 C2101 0.930 . S
H2106 C2103 0.929 . S
S2107 N2108 1.613 . S
S2107 N2109 1.610 . S
N2108 S2107 1.613 . S
N2108 C2111 1.350 . S
N2109 S2107 1.610 . S
N2109 C2110 1.351 . S
C2110 C2104 1.428 . S
C2110 N2109 1.351 . S
C2110 C2111 1.434 . S
C2111 C2102 1.429 . S
C2111 N2108 1.350 . S
C2111 C2110 1.434 . S
C2112 C2113 1.369 . S
C2112 C2114 1.419 . S
C2112 H2116 0.930 . S
C2113 C2112 1.369 . S
C2113 C2122 1.429 . S
C2114 C2112 1.419 . S
C2114 C2115 1.363 . S
C2114 H2117 0.929 . S
C2115 C2114 1.363 . S
C2115 C2121 1.428 . S
H2116 C2112 0.930 . S
H2117 C2114 0.929 . S
S2118 N2119 1.613 . S
S2118 N2120 1.610 . S
N2119 S2118 1.613 . S
N2119 C2122 1.350 . S
N2120 S2118 1.610 . S
N2120 C2121 1.351 . S
C2121 C2115 1.428 . S
C2121 N2120 1.351 . S
C2121 C2122 1.434 . S
C2122 C2113 1.429 . S
C2122 N2119 1.350 . S
C2122 C2121 1.434 . S
C2123 C2124 1.369 . S
C2123 C2125 1.419 . S
C2123 H2127 0.930 . S
C2124 C2123 1.369 . S
C2124 C2133 1.429 . S
C2125 C2123 1.419 . S
C2125 C2126 1.363 . S
C2125 H2128 0.929 . S
C2126 C2125 1.363 . S
C2126 C2132 1.428 . S
H2127 C2123 0.930 . S
H2128 C2125 0.929 . S
S2129 N2130 1.613 . S
S2129 N2131 1.610 . S
N2130 S2129 1.613 . S
N2130 C2133 1.350 1_655 S
N2131 S2129 1.610 . S
N2131 C2132 1.351 1_655 S
C2132 C2126 1.428 . S
C2132 N2131 1.351 1_455 S
C2132 C2133 1.434 . S
C2133 C2124 1.429 . S
C2133 N2130 1.350 1_455 S
C2133 C2132 1.434 . S
C2134 C2135 1.369 . S
C2134 C2136 1.419 . S
C2134 H2138 0.930 . S
C2135 C2134 1.369 . S
C2135 C2144 1.429 . S
C2136 C2134 1.419 . S
C2136 C2137 1.363 . S
C2136 H2139 0.929 . S
C2137 C2136 1.363 . S
C2137 C2143 1.428 . S
H2138 C2134 0.930 . S
H2139 C2136 0.929 . S
S2140 N2141 1.613 . S
S2140 N2142 1.610 . S
N2141 S2140 1.613 . S
N2141 C2144 1.350 . S
N2142 S2140 1.610 . S
N2142 C2143 1.351 . S
C2143 C2137 1.428 . S
C2143 N2142 1.351 . S
C2143 C2144 1.434 . S
C2144 C2135 1.429 . S
C2144 N2141 1.350 . S
C2144 C2143 1.434 . S
C2145 C2146 1.369 . S
C2145 C2147 1.419 . S
C2145 H2149 0.930 . S
C2146 C2145 1.369 . S
C2146 C2155 1.429 . S
C2147 C2145 1.419 . S
C2147 C2148 1.363 . S
C2147 H2150 0.929 . S
C2148 C2147 1.363 . S
C2148 C2154 1.428 . S
H2149 C2145 0.930 . S
H2150 C2147 0.929 . S
S2151 N2152 1.613 . S
S2151 N2153 1.610 . S
N2152 S2151 1.613 . S
N2152 C2155 1.350 . S
N2153 S2151 1.610 . S
N2153 C2154 1.351 . S
C2154 C2148 1.428 . S
C2154 N2153 1.351 . S
C2154 C2155 1.434 . S
C2155 C2146 1.429 . S
C2155 N2152 1.350 . S
C2155 C2154 1.434 . S
C2156 C2157 1.369 . S
C2156 C2158 1.419 . S
C2156 H2160 0.930 . S
C2157 C2156 1.369 . S
C2157 C2166 1.429 . S
C2158 C2156 1.419 . S
C2158 C2159 1.363 . S
C2158 H2161 0.929 . S
C2159 C2158 1.363 . S
C2159 C2165 1.428 . S
H2160 C2156 0.930 . S
H2161 C2158 0.929 . S
S2162 N2163 1.613 . S
S2162 N2164 1.610 . S
N2163 S2162 1.613 . S
N2163 C2166 1.350 . S
N2164 S2162 1.610 . S
N2164 C2165 1.351 . S
C2165 C2159 1.428 . S
C2165 N2164 1.351 . S
C2165 C2166 1.434 . S
C2166 C2157 1.429 . S
C2166 N2163 1.350 . S
C2166 C2165 1.434 . S
C2167 C2168 1.369 . S
C2167 C2169 1.419 . S
C2167 H2171 0.930 . S
C2168 C2167 1.369 . S
C2168 C2177 1.429 . S
C2169 C2167 1.419 . S
C2169 C2170 1.363 . S
C2169 H2172 0.929 . S
C2170 C2169 1.363 . S
C2170 C2176 1.428 . S
H2171 C2167 0.930 . S
H2172 C2169 0.929 . S
S2173 N2174 1.613 1_655 S
S2173 N2175 1.610 . S
N2174 S2173 1.613 1_455 S
N2174 C2177 1.350 . S
N2175 S2173 1.610 . S
N2175 C2176 1.351 1_655 S
C2176 C2170 1.428 . S
C2176 N2175 1.351 1_455 S
C2176 C2177 1.434 . S
C2177 C2168 1.429 . S
C2177 N2174 1.350 . S
C2177 C2176 1.434 . S
C1189 N14 1.427 . S
C1191 C74 1.365 . S
C1200 C8 1.352 . S
C1202 N47 1.438 1_545 S
C1211 C41 1.356 . S
C1213 N80 1.437 1_655 S
C1222 C140 1.354 . S
C1224 N113 1.438 . S
C1233 C173 1.352 . S
C1235 N146 1.436 1_565 S
C1244 C107 1.366 . S
C1246 N179 1.430 1_455 S
C1255 C272 1.351 . S
C1257 N212 1.438 . S
C1266 N245 1.428 1_565 S
C1268 C206 1.365 . S
C1277 C239 1.351 . S
C1279 N278 1.438 1_455 S
C1288 C338 1.363 . S
C1290 N311 1.432 . S
C1299 N344 1.438 1_545 S
C1301 C371 1.355 . S
C1310 C305 1.351 . S
C1312 N377 1.438 1_655 S
C1321 N410 1.429 . S
C1323 C470 1.364 . S
C1332 N443 1.433 . S
C1334 C404 1.356 . S
C1343 N476 1.428 . S
C1345 C437 1.363 . S
C1354 C536 1.356 . S
C1356 N509 1.433 . S
C1365 C569 1.366 . S
C1367 N542 1.428 . S
C1376 N575 1.428 . S
C1378 C503 1.365 . S
C1387 N608 1.430 . S
C1389 C668 1.364 . S
C1398 N641 1.430 . S
C1400 C602 1.361 . S
C1409 N674 1.439 . S
C1411 C635 1.354 . S
C1420 C734 1.353 . S
C1422 N707 1.438 . S
C1431 C767 1.356 . S
C1433 N740 1.434 . S
C1442 N773 1.432 . S
C1444 C701 1.362 . S
C1453 C866 1.357 . S
C1455 N806 1.437 . S
C1464 C800 1.363 . S
C1466 N839 1.433 . S
C1475 N872 1.431 . S
C1477 C833 1.358 . S
C1486 C932 1.351 . S
C1488 N905 1.437 . S
C1497 N938 1.435 . S
C1499 C965 1.355 . S
C1508 C899 1.360 . S
C1510 N971 1.431 . S
C1519 C1064 1.366 . S
C1521 N1004 1.429 . S
C1530 N1037 1.431 . S
C1532 C998 1.363 . S
C1541 N1070 1.427 . S
C1543 C1031 1.364 . S
C1552 C1130 1.366 . S
C1554 N1103 1.430 . S
C1563 C1163 1.352 . S
C1565 N1136 1.437 . S
C1574 N1169 1.435 . S
C1576 C1097 1.359 . S
C1585 N665 1.420 . S
C1587 C28 1.390 . S
C1596 C61 1.384 . S
C1598 N599 1.420 . S
C1607 C94 1.392 . S
C1609 N632 1.423 . S
C1618 N1127 1.419 . S
C1620 C127 1.385 . S
C1629 N1160 1.422 . S
C1631 C160 1.392 . S
C1640 C193 1.387 . S
C1642 N1094 1.418 . S
C1651 C226 1.389 . S
C1653 N863 1.423 . S
C1662 C259 1.385 . S
C1664 N797 1.418 . S
C1673 C292 1.393 . S
C1675 N830 1.422 . S
C1684 N533 1.424 . S
C1686 C325 1.392 . S
C1695 C358 1.383 . S
C1697 N566 1.419 . S
C1706 C391 1.386 . S
C1708 N500 1.418 . S
C1717 C424 1.387 . S
C1719 N1061 1.422 1_655 S
C1728 N995 1.418 . S
C1730 C457 1.389 . S
C1739 N1028 1.423 1_545 S
C1741 C490 1.388 . S
C1750 C523 1.388 1_455 S
C1752 N335 1.419 . S
C1761 C556 1.383 . S
C1763 N368 1.419 . S
C1772 C589 1.389 1_565 S
C1774 N302 1.419 . S
C1783 N71 1.423 . S
C1785 C622 1.393 1_565 S
C1794 C655 1.383 1_455 S
C1796 N5 1.418 . S
C1805 C688 1.383 . S
C1807 N38 1.418 . S
C1816 N929 1.417 1_545 S
C1818 C721 1.387 . S
C1827 C754 1.388 . S
C1829 N962 1.423 1_655 S
C1838 C787 1.389 . S
C1840 N896 1.419 . S
C1849 N269 1.425 . S
C1851 C820 1.393 1_545 S
C1860 N203 1.424 . S
C1862 C853 1.392 1_655 S
C1871 C886 1.387 . S
C1873 N236 1.422 . S
C1882 C919 1.387 . S
C1884 N731 1.418 1_565 S
C1893 N764 1.425 1_455 S
C1895 C952 1.391 . S
C1904 C985 1.383 . S
C1906 N698 1.419 . S
C1915 N467 1.417 1_455 S
C1917 C1018 1.384 . S
C1926 C1051 1.387 . S
C1928 N401 1.418 . S
C1937 C1084 1.383 . S
C1939 N434 1.418 1_565 S
C1948 N137 1.425 . S
C1950 C1117 1.391 1_655 S
C1959 C1150 1.391 . S
C1961 N170 1.423 . S
C1970 N104 1.419 . S
C1972 C1183 1.385 1_545 S
C1981 C149 1.736 . S
C1983 C17 1.729 . S
C1992 C50 1.736 . S
C1994 C182 1.733 . S
C2003 C83 1.728 . S
C2005 C116 1.737 . S
C2014 C215 1.728 . S
C2016 C347 1.737 . S
C2025 C248 1.733 . S
C2027 C380 1.735 . S
C2036 C281 1.732 . S
C2038 C314 1.736 . S
C2047 C545 1.737 . S
C2049 C413 1.729 . S
C2058 C578 1.738 . S
C2060 C446 1.729 . S
C2069 C512 1.728 . S
C2071 C479 1.736 . S
C2080 C743 1.737 . S
C2082 C611 1.729 . S
C2091 C776 1.736 . S
C2093 C644 1.729 . S
C2102 C710 1.728 . S
C2104 C677 1.737 . S
C2113 C941 1.729 . S
C2115 C809 1.737 . S
C2124 C842 1.738 . S
C2126 C974 1.730 . S
C2135 C908 1.734 . S
C2137 C875 1.735 . S
C2146 C1139 1.737 . S
C2148 C1007 1.729 . S
C2157 C1172 1.737 . S
C2159 C1040 1.729 . S
C2168 C1073 1.728 . S
C2170 C1106 1.737 . S
