# Generated by pormake.
# Topology lta, (4)-cn, num edge types: 1
# Building blocks:
#     Node 0, Type 0, BuildingBlock: NAHDIM_clean_sbu_0, # of connection points: 4
#     Node 1, Type 0, BuildingBlock: NAHDIM_clean_sbu_0, # of connection points: 4
#     Node 2, Type 0, BuildingBlock: NAHDIM_clean_sbu_0, # of connection points: 4
#     Node 3, Type 0, BuildingBlock: NAHDIM_clean_sbu_0, # of connection points: 4
#     Node 4, Type 0, BuildingBlock: NAHDIM_clean_sbu_0, # of connection points: 4
#     Node 5, Type 0, BuildingBlock: NAHDIM_clean_sbu_0, # of connection points: 4
#     Node 6, Type 0, BuildingBlock: NAHDIM_clean_sbu_0, # of connection points: 4
#     Node 7, Type 0, BuildingBlock: NAHDIM_clean_sbu_0, # of connection points: 4
#     Node 8, Type 0, BuildingBlock: NAHDIM_clean_sbu_0, # of connection points: 4
#     Node 9, Type 0, BuildingBlock: NAHDIM_clean_sbu_0, # of connection points: 4
#     Node 10, Type 0, BuildingBlock: NAHDIM_clean_sbu_0, # of connection points: 4
#     Node 11, Type 0, BuildingBlock: NAHDIM_clean_sbu_0, # of connection points: 4
#     Node 12, Type 0, BuildingBlock: NAHDIM_clean_sbu_0, # of connection points: 4
#     Node 13, Type 0, BuildingBlock: NAHDIM_clean_sbu_0, # of connection points: 4
#     Node 14, Type 0, BuildingBlock: NAHDIM_clean_sbu_0, # of connection points: 4
#     Node 15, Type 0, BuildingBlock: NAHDIM_clean_sbu_0, # of connection points: 4
#     Node 16, Type 0, BuildingBlock: NAHDIM_clean_sbu_0, # of connection points: 4
#     Node 17, Type 0, BuildingBlock: NAHDIM_clean_sbu_0, # of connection points: 4
#     Node 18, Type 0, BuildingBlock: NAHDIM_clean_sbu_0, # of connection points: 4
#     Node 19, Type 0, BuildingBlock: NAHDIM_clean_sbu_0, # of connection points: 4
#     Node 20, Type 0, BuildingBlock: NAHDIM_clean_sbu_0, # of connection points: 4
#     Node 21, Type 0, BuildingBlock: NAHDIM_clean_sbu_0, # of connection points: 4
#     Node 22, Type 0, BuildingBlock: NAHDIM_clean_sbu_0, # of connection points: 4
#     Node 23, Type 0, BuildingBlock: NAHDIM_clean_sbu_0, # of connection points: 4
#     Edge 24, Type (0, 0), BuildingBlock: TEMPAE_clean_linker_10, # of connection points: 2
#     Edge 25, Type (0, 0), BuildingBlock: TEMPAE_clean_linker_10, # of connection points: 2
#     Edge 26, Type (0, 0), BuildingBlock: TEMPAE_clean_linker_10, # of connection points: 2
#     Edge 27, Type (0, 0), BuildingBlock: TEMPAE_clean_linker_10, # of connection points: 2
#     Edge 28, Type (0, 0), BuildingBlock: TEMPAE_clean_linker_10, # of connection points: 2
#     Edge 29, Type (0, 0), BuildingBlock: TEMPAE_clean_linker_10, # of connection points: 2
#     Edge 30, Type (0, 0), BuildingBlock: TEMPAE_clean_linker_10, # of connection points: 2
#     Edge 31, Type (0, 0), BuildingBlock: TEMPAE_clean_linker_10, # of connection points: 2
#     Edge 32, Type (0, 0), BuildingBlock: TEMPAE_clean_linker_10, # of connection points: 2
#     Edge 33, Type (0, 0), BuildingBlock: TEMPAE_clean_linker_10, # of connection points: 2
#     Edge 34, Type (0, 0), BuildingBlock: TEMPAE_clean_linker_10, # of connection points: 2
#     Edge 35, Type (0, 0), BuildingBlock: TEMPAE_clean_linker_10, # of connection points: 2
#     Edge 36, Type (0, 0), BuildingBlock: TEMPAE_clean_linker_10, # of connection points: 2
#     Edge 37, Type (0, 0), BuildingBlock: TEMPAE_clean_linker_10, # of connection points: 2
#     Edge 38, Type (0, 0), BuildingBlock: TEMPAE_clean_linker_10, # of connection points: 2
#     Edge 39, Type (0, 0), BuildingBlock: TEMPAE_clean_linker_10, # of connection points: 2
#     Edge 40, Type (0, 0), BuildingBlock: TEMPAE_clean_linker_10, # of connection points: 2
#     Edge 41, Type (0, 0), BuildingBlock: TEMPAE_clean_linker_10, # of connection points: 2
#     Edge 42, Type (0, 0), BuildingBlock: TEMPAE_clean_linker_10, # of connection points: 2
#     Edge 43, Type (0, 0), BuildingBlock: TEMPAE_clean_linker_10, # of connection points: 2
#     Edge 44, Type (0, 0), BuildingBlock: TEMPAE_clean_linker_10, # of connection points: 2
#     Edge 45, Type (0, 0), BuildingBlock: TEMPAE_clean_linker_10, # of connection points: 2
#     Edge 46, Type (0, 0), BuildingBlock: TEMPAE_clean_linker_10, # of connection points: 2
#     Edge 47, Type (0, 0), BuildingBlock: TEMPAE_clean_linker_10, # of connection points: 2
#     Edge 48, Type (0, 0), BuildingBlock: TEMPAE_clean_linker_10, # of connection points: 2
#     Edge 49, Type (0, 0), BuildingBlock: TEMPAE_clean_linker_10, # of connection points: 2
#     Edge 50, Type (0, 0), BuildingBlock: TEMPAE_clean_linker_10, # of connection points: 2
#     Edge 51, Type (0, 0), BuildingBlock: TEMPAE_clean_linker_10, # of connection points: 2
#     Edge 52, Type (0, 0), BuildingBlock: TEMPAE_clean_linker_10, # of connection points: 2
#     Edge 53, Type (0, 0), BuildingBlock: TEMPAE_clean_linker_10, # of connection points: 2
#     Edge 54, Type (0, 0), BuildingBlock: TEMPAE_clean_linker_10, # of connection points: 2
#     Edge 55, Type (0, 0), BuildingBlock: TEMPAE_clean_linker_10, # of connection points: 2
#     Edge 56, Type (0, 0), BuildingBlock: TEMPAE_clean_linker_10, # of connection points: 2
#     Edge 57, Type (0, 0), BuildingBlock: TEMPAE_clean_linker_10, # of connection points: 2
#     Edge 58, Type (0, 0), BuildingBlock: TEMPAE_clean_linker_10, # of connection points: 2
#     Edge 59, Type (0, 0), BuildingBlock: TEMPAE_clean_linker_10, # of connection points: 2
#     Edge 60, Type (0, 0), BuildingBlock: TEMPAE_clean_linker_10, # of connection points: 2
#     Edge 61, Type (0, 0), BuildingBlock: TEMPAE_clean_linker_10, # of connection points: 2
#     Edge 62, Type (0, 0), BuildingBlock: TEMPAE_clean_linker_10, # of connection points: 2
#     Edge 63, Type (0, 0), BuildingBlock: TEMPAE_clean_linker_10, # of connection points: 2
#     Edge 64, Type (0, 0), BuildingBlock: TEMPAE_clean_linker_10, # of connection points: 2
#     Edge 65, Type (0, 0), BuildingBlock: TEMPAE_clean_linker_10, # of connection points: 2
#     Edge 66, Type (0, 0), BuildingBlock: TEMPAE_clean_linker_10, # of connection points: 2
#     Edge 67, Type (0, 0), BuildingBlock: TEMPAE_clean_linker_10, # of connection points: 2
#     Edge 68, Type (0, 0), BuildingBlock: TEMPAE_clean_linker_10, # of connection points: 2
#     Edge 69, Type (0, 0), BuildingBlock: TEMPAE_clean_linker_10, # of connection points: 2
#     Edge 70, Type (0, 0), BuildingBlock: TEMPAE_clean_linker_10, # of connection points: 2
#     Edge 71, Type (0, 0), BuildingBlock: TEMPAE_clean_linker_10, # of connection points: 2
# Relax obj value: 0.180
# Max RMSD: 0.068
# Mean RMSD: 0.068
data_MOF--net-lta--node1-NAHDIM_clean_sbu_0--edge1-TEMPAE_clean_linker_10
_symmetry_space_group_name_H-M    P1
_symmetry_Int_Tables_number       1
_symmetry_cell_setting            triclinic
loop_
_symmetry_equiv_pos_as_xyz
'x, y, z'
_cell_length_a     57.713221
_cell_length_b     57.720991
_cell_length_c     57.722443
_cell_angle_alpha  89.987534
_cell_angle_beta   89.994495
_cell_angle_gamma 90.024831
loop_
_atom_site_label
_atom_site_type_symbol
_atom_site_fract_x
_atom_site_fract_y
_atom_site_fract_z
_atom_type_partial_charge
C0 C 0.14336 0.26379 0.46667 0.0
O1 O 0.14928 0.28435 0.45889 0.0
O2 O 0.11262 0.30451 0.51379 0.0
Zn3 Zn 0.105 0.2896 0.48338 0.0
O4 O 0.11019 0.31332 0.45857 0.0
C5 C 0.062 0.27488 0.50267 0.0
O6 O 0.07529 0.2703 0.52057 0.0
O7 O 0.12457 0.26157 0.4779 0.0
C8 C 0.10043 0.33288 0.46097 0.0
O9 O 0.08705 0.33638 0.47906 0.0
C10 C 0.13069 0.31669 0.51686 0.0
O11 O 0.14599 0.31827 0.50007 0.0
O12 O 0.07128 0.28197 0.48402 0.0
C13 C 0.71108 0.16703 0.49864 0.0
O14 O 0.69102 0.17007 0.48835 0.0
O15 O 0.66985 0.12708 0.53676 0.0
Zn16 Zn 0.69022 0.12368 0.50868 0.0
O17 O 0.67057 0.12797 0.48021 0.0
C18 C 0.69123 0.07515 0.51549 0.0
O19 O 0.67141 0.08018 0.52548 0.0
O20 O 0.71509 0.14797 0.50891 0.0
C21 C 0.65003 0.12014 0.47901 0.0
O22 O 0.64159 0.10833 0.49654 0.0
C23 C 0.65466 0.14298 0.53773 0.0
O24 O 0.65351 0.15823 0.52088 0.0
O25 O 0.70356 0.09151 0.50743 0.0
C26 C 0.8404 0.70794 0.47396 0.0
O27 O 0.83555 0.68611 0.46968 0.0
O28 O 0.87836 0.67252 0.5176 0.0
Zn29 Zn 0.88358 0.6883 0.48701 0.0
O30 O 0.88142 0.66511 0.46127 0.0
C31 C 0.93205 0.68758 0.4846 0.0
O32 O 0.92724 0.6656 0.48115 0.0
O33 O 0.86023 0.71318 0.48191 0.0
C34 C 0.88597 0.67035 0.4404 0.0
O35 O 0.89215 0.69168 0.43536 0.0
C36 C 0.86916 0.65257 0.51898 0.0
O37 O 0.8618 0.6424 0.5 0.0
O38 O 0.9155 0.70176 0.48748 0.0
C39 C 0.30234 0.82111 0.50472 0.0
O40 O 0.30914 0.83267 0.52311 0.0
O41 O 0.34889 0.85941 0.50962 0.0
Zn42 Zn 0.32812 0.85639 0.48199 0.0
O43 O 0.34823 0.855 0.45382 0.0
C44 C 0.30322 0.89638 0.49779 0.0
O45 O 0.30939 0.88851 0.51823 0.0
O46 O 0.30844 0.82812 0.48477 0.0
C47 C 0.34083 0.86078 0.43392 0.0
O48 O 0.31895 0.86656 0.43144 0.0
C49 C 0.36591 0.84583 0.51265 0.0
O50 O 0.36977 0.82932 0.49747 0.0
O51 O 0.30849 0.88487 0.47981 0.0
C52 C 0.18399 0.69405 0.51563 0.0
O53 O 0.1891 0.67187 0.51582 0.0
O54 O 0.13755 0.66171 0.48197 0.0
Zn55 Zn 0.13785 0.67662 0.51365 0.0
O56 O 0.14322 0.65218 0.53787 0.0
C57 C 0.10062 0.70816 0.50592 0.0
O58 O 0.11483 0.71589 0.4899 0.0
O59 O 0.16291 0.70022 0.51489 0.0
C60 C 0.13306 0.63276 0.53581 0.0
O61 O 0.11919 0.62937 0.5181 0.0
C62 C 0.1186 0.65655 0.47196 0.0
O63 O 0.09891 0.66116 0.48239 0.0
O64 O 0.10731 0.69192 0.51918 0.0
C65 C 0.26077 0.13576 0.4616 0.0
O66 O 0.26428 0.12214 0.44371 0.0
O67 O 0.32143 0.11939 0.45143 0.0
Zn68 Zn 0.30114 0.11299 0.47885 0.0
O69 O 0.32043 0.11849 0.50723 0.0
C70 C 0.30223 0.06493 0.46765 0.0
O71 O 0.32023 0.07178 0.45553 0.0
O72 O 0.27434 0.13457 0.47885 0.0
C73 C 0.3405 0.10946 0.50781 0.0
O74 O 0.34733 0.09666 0.49029 0.0
C75 C 0.3327 0.13825 0.45035 0.0
O76 O 0.3293 0.15407 0.46636 0.0
O77 O 0.29051 0.07984 0.4788 0.0
C78 C 0.82766 0.29679 0.49909 0.0
O79 O 0.84489 0.2972 0.4842 0.0
O80 O 0.85152 0.35395 0.48433 0.0
Zn81 Zn 0.85142 0.3363 0.51436 0.0
O82 O 0.84783 0.35828 0.54095 0.0
C83 C 0.90002 0.33117 0.52153 0.0
O84 O 0.89846 0.35358 0.52518 0.0
O85 O 0.82629 0.31266 0.51424 0.0
C86 C 0.85314 0.35277 0.56157 0.0
O87 O 0.85995 0.33151 0.56599 0.0
C88 C 0.85788 0.37503 0.48388 0.0
O89 O 0.86357 0.38531 0.50337 0.0
O90 O 0.88179 0.31978 0.51692 0.0
C91 C 0.72028 0.83341 0.46561 0.0
O92 O 0.71475 0.84484 0.44672 0.0
O93 O 0.66678 0.864 0.45872 0.0
Zn94 Zn 0.6868 0.86338 0.48711 0.0
O95 O 0.66681 0.85691 0.51467 0.0
C96 C 0.70418 0.90843 0.47484 0.0
O97 O 0.69867 0.90165 0.45382 0.0
O98 O 0.71066 0.83869 0.48465 0.0
C99 C 0.6489 0.8693 0.51769 0.0
O100 O 0.64423 0.88581 0.50271 0.0
C101 C 0.65047 0.84951 0.45582 0.0
O102 O 0.64714 0.83326 0.47142 0.0
O103 O 0.70144 0.89452 0.49167 0.0
C104 C 0.49867 0.18129 0.29438 0.0
O105 O 0.48779 0.18453 0.31411 0.0
O106 O 0.53586 0.1365 0.33417 0.0
Zn107 Zn 0.50744 0.13686 0.31427 0.0
O108 O 0.47883 0.14106 0.33387 0.0
C109 C 0.50169 0.08864 0.31057 0.0
O110 O 0.50012 0.09134 0.33311 0.0
O111 O 0.50901 0.16221 0.2908 0.0
C112 C 0.47834 0.13712 0.35553 0.0
O113 O 0.49721 0.12989 0.36599 0.0
C114 C 0.54138 0.15336 0.34716 0.0
O115 O 0.5286 0.17219 0.34695 0.0
O116 O 0.50509 0.10632 0.29795 0.0
C117 C 0.81517 0.49168 0.29077 0.0
O118 O 0.81411 0.48698 0.31301 0.0
O119 O 0.86316 0.53209 0.31751 0.0
Zn120 Zn 0.86192 0.50077 0.30257 0.0
O121 O 0.85932 0.47736 0.32818 0.0
C122 C 0.9009 0.5117 0.27358 0.0
O123 O 0.88969 0.5313 0.27072 0.0
O124 O 0.83426 0.49831 0.28203 0.0
C125 C 0.8764 0.46599 0.33614 0.0
O126 O 0.89702 0.46894 0.32696 0.0
C127 C 0.88163 0.53761 0.32815 0.0
O128 O 0.89903 0.52294 0.32838 0.0
O129 O 0.89141 0.49557 0.28515 0.0
C130 C 0.50229 0.83629 0.26893 0.0
O131 O 0.4969 0.83095 0.2904 0.0
O132 O 0.47516 0.87591 0.30647 0.0
Zn133 Zn 0.50593 0.87934 0.29037 0.0
O134 O 0.53103 0.87127 0.31303 0.0
C135 C 0.49566 0.92261 0.26746 0.0
O136 O 0.47696 0.91162 0.26054 0.0
O137 O 0.50716 0.85717 0.26405 0.0
C138 C 0.5325 0.88265 0.3318 0.0
O139 O 0.51781 0.8996 0.3356 0.0
C140 C 0.46465 0.89256 0.31631 0.0
O141 O 0.4737 0.91343 0.31562 0.0
O142 O 0.51053 0.9119 0.27963 0.0
C143 C 0.15991 0.51086 0.30196 0.0
O144 O 0.16192 0.52106 0.3222 0.0
O145 O 0.11303 0.47016 0.33547 0.0
Zn146 Zn 0.11409 0.50033 0.31843 0.0
O147 O 0.11673 0.52577 0.34192 0.0
C148 C 0.06654 0.50765 0.3134 0.0
O149 O 0.06894 0.50865 0.33602 0.0
O150 O 0.14104 0.50084 0.2967 0.0
C151 C 0.11551 0.54712 0.33676 0.0
O152 O 0.1127 0.55319 0.315 0.0
C153 C 0.12714 0.46641 0.35193 0.0
O154 O 0.14284 0.48215 0.35684 0.0
O155 O 0.08436 0.50414 0.30101 0.0
C156 C 0.49326 0.82483 0.70348 0.0
O157 O 0.4818 0.82229 0.68399 0.0
O158 O 0.53532 0.86429 0.66402 0.0
Zn159 Zn 0.50608 0.86781 0.68245 0.0
O160 O 0.47953 0.86415 0.66022 0.0
C161 C 0.51558 0.91607 0.68718 0.0
O162 O 0.52986 0.91136 0.6701 0.0
O163 O 0.50482 0.84326 0.70688 0.0
C164 C 0.48003 0.87532 0.64126 0.0
O165 O 0.49739 0.88948 0.63723 0.0
C166 C 0.53662 0.8483 0.64897 0.0
O167 O 0.51949 0.83341 0.64715 0.0
O168 O 0.504 0.89972 0.69628 0.0
C169 C 0.15292 0.48523 0.71447 0.0
O170 O 0.1408 0.504 0.71009 0.0
O171 O 0.12687 0.49706 0.66117 0.0
Zn172 Zn 0.1237 0.46757 0.67926 0.0
O173 O 0.12712 0.44016 0.6578 0.0
C174 C 0.07472 0.46914 0.68145 0.0
O175 O 0.07771 0.46916 0.6589 0.0
O176 O 0.14847 0.46678 0.70335 0.0
C177 C 0.1228 0.44227 0.6363 0.0
O178 O 0.11578 0.46238 0.62831 0.0
C179 C 0.14523 0.50198 0.65008 0.0
O180 O 0.16277 0.48748 0.65063 0.0
O181 O 0.09239 0.46787 0.6945 0.0
C182 C 0.48404 0.17187 0.69366 0.0
O183 O 0.49462 0.17563 0.67386 0.0
O184 O 0.45637 0.12453 0.65303 0.0
Zn185 Zn 0.48253 0.12602 0.67586 0.0
O186 O 0.51215 0.13173 0.65864 0.0
C187 C 0.46891 0.08111 0.69264 0.0
O188 O 0.44881 0.08705 0.68376 0.0
O189 O 0.47707 0.15156 0.69847 0.0
C190 C 0.51702 0.11888 0.64147 0.0
O191 O 0.50262 0.10219 0.63573 0.0
C192 C 0.45513 0.13841 0.636 0.0
O193 O 0.47105 0.1545 0.63358 0.0
O194 O 0.48557 0.09548 0.69209 0.0
C195 C 0.82822 0.52405 0.71864 0.0
O196 O 0.82348 0.51756 0.69734 0.0
O197 O 0.86626 0.49501 0.68218 0.0
Zn198 Zn 0.87255 0.52493 0.69894 0.0
O199 O 0.86947 0.55068 0.67573 0.0
C200 C 0.91143 0.50519 0.72198 0.0
O201 O 0.89611 0.48893 0.7264 0.0
O202 O 0.84905 0.52872 0.724 0.0
C203 C 0.88659 0.55647 0.66316 0.0
O204 O 0.90668 0.54631 0.66646 0.0
C205 C 0.88188 0.48581 0.6697 0.0
O206 O 0.9022 0.49595 0.66812 0.0
O207 O 0.90485 0.52346 0.71161 0.0
C208 C 0.28429 0.51398 0.18025 0.0
O209 O 0.30412 0.50314 0.18291 0.0
O210 O 0.32705 0.54396 0.13775 0.0
Zn211 Zn 0.30242 0.51943 0.13511 0.0
O212 O 0.3174 0.4881 0.13729 0.0
C213 C 0.29688 0.53122 0.08727 0.0
O214 O 0.31569 0.54333 0.09148 0.0
O215 O 0.27945 0.52287 0.16071 0.0
C216 C 0.33228 0.48248 0.12209 0.0
O217 O 0.33729 0.49727 0.10553 0.0
C218 C 0.34598 0.54003 0.14826 0.0
O219 O 0.34898 0.52004 0.1587 0.0
O220 O 0.28705 0.52063 0.10387 0.0
C221 C 0.2807 0.48753 0.8332 0.0
O222 O 0.30239 0.49096 0.82718 0.0
O223 O 0.31982 0.4562 0.87657 0.0
Zn224 Zn 0.30105 0.4854 0.87795 0.0
O225 O 0.32274 0.51175 0.87124 0.0
C226 C 0.28648 0.47484 0.92523 0.0
O227 O 0.29318 0.45361 0.9205 0.0
O228 O 0.2758 0.48457 0.85443 0.0
C229 C 0.32019 0.53147 0.88066 0.0
O230 O 0.30228 0.53506 0.89424 0.0
C231 C 0.3379 0.45508 0.88907 0.0
O232 O 0.34292 0.47254 0.90279 0.0
O233 O 0.28771 0.49032 0.90966 0.0
C234 C 0.48273 0.2891 0.8218 0.0
O235 O 0.46924 0.30741 0.82251 0.0
O236 O 0.52872 0.32203 0.86649 0.0
Zn237 Zn 0.49824 0.30543 0.86638 0.0
O238 O 0.47288 0.32931 0.86598 0.0
C239 C 0.51015 0.28057 0.90908 0.0
O240 O 0.53182 0.28524 0.90392 0.0
O241 O 0.49631 0.28497 0.83861 0.0
C242 C 0.45342 0.32504 0.87538 0.0
O243 O 0.44984 0.3046 0.88473 0.0
C244 C 0.53277 0.33666 0.8824 0.0
O245 O 0.51713 0.33993 0.89862 0.0
O246 O 0.49417 0.28673 0.8953 0.0
C247 C 0.70411 0.51869 0.8409 0.0
O248 O 0.68776 0.53446 0.84226 0.0
O249 O 0.65843 0.52616 0.87982 0.0
Zn250 Zn 0.67892 0.4978 0.87858 0.0
O251 O 0.65942 0.47009 0.87079 0.0
C252 C 0.67866 0.48856 0.92616 0.0
O253 O 0.65638 0.48977 0.92166 0.0
O254 O 0.70381 0.5016 0.85476 0.0
C255 C 0.66478 0.4498 0.87741 0.0
O256 O 0.68457 0.44649 0.88817 0.0
C257 C 0.63653 0.52417 0.88117 0.0
O258 O 0.62729 0.50339 0.88201 0.0
O259 O 0.69298 0.49216 0.90985 0.0
C260 C 0.49292 0.70073 0.82587 0.0
O261 O 0.50406 0.6811 0.82302 0.0
O262 O 0.45536 0.66076 0.86807 0.0
Zn263 Zn 0.48326 0.68146 0.87054 0.0
O264 O 0.51184 0.66139 0.8682 0.0
C265 C 0.46875 0.69509 0.91683 0.0
O266 O 0.45012 0.68286 0.91223 0.0
O267 O 0.48269 0.70465 0.84494 0.0
C268 C 0.52476 0.65761 0.88565 0.0
O269 O 0.51985 0.66757 0.9055 0.0
C270 C 0.45508 0.64191 0.87944 0.0
O271 O 0.47291 0.63669 0.8926 0.0
O272 O 0.48398 0.6979 0.90121 0.0
C273 C 0.68806 0.46473 0.1761 0.0
O274 O 0.66808 0.47562 0.17619 0.0
O275 O 0.65381 0.42803 0.12715 0.0
Zn276 Zn 0.67489 0.45544 0.1295 0.0
O277 O 0.65512 0.48399 0.13019 0.0
C278 C 0.70074 0.44119 0.0883 0.0
O279 O 0.69615 0.41988 0.09486 0.0
O280 O 0.69451 0.45414 0.15792 0.0
C281 C 0.66357 0.50344 0.12424 0.0
O282 O 0.68547 0.50465 0.11816 0.0
C283 C 0.64123 0.42668 0.10914 0.0
O284 O 0.64324 0.4427 0.09308 0.0
O285 O 0.69439 0.45797 0.10101 0.0
C286 C 0.50678 0.71102 0.14795 0.0
O287 O 0.48876 0.70713 0.13458 0.0
O288 O 0.54944 0.65169 0.12388 0.0
Zn289 Zn 0.52167 0.67268 0.12297 0.0
O290 O 0.49347 0.65382 0.13086 0.0
C291 C 0.53205 0.6887 0.07592 0.0
O292 O 0.55313 0.68099 0.07965 0.0
O293 O 0.52437 0.69794 0.14621 0.0
C294 C 0.48134 0.64447 0.11505 0.0
O295 O 0.48733 0.64729 0.09328 0.0
C296 C 0.55112 0.63549 0.10908 0.0
O297 O 0.5352 0.63355 0.09293 0.0
O298 O 0.51686 0.68707 0.09174 0.0
C299 C 0.47636 0.28931 0.15974 0.0
O300 O 0.48738 0.30915 0.15822 0.0
O301 O 0.43148 0.32484 0.11959 0.0
Zn302 Zn 0.45916 0.30412 0.11597 0.0
O303 O 0.48719 0.3245 0.11339 0.0
C304 C 0.45534 0.29962 0.06868 0.0
O305 O 0.45183 0.32185 0.07213 0.0
O306 O 0.46283 0.2832 0.14346 0.0
C307 C 0.50627 0.31673 0.10565 0.0
O308 O 0.50757 0.29497 0.0991 0.0
C309 C 0.43335 0.34163 0.13369 0.0
O310 O 0.4524 0.34361 0.14597 0.0
O311 O 0.45765 0.2865 0.08618 0.0
C312 C 0.13924 0.44205 0.38565 0.0
C313 C 0.12472 0.44544 0.36646 0.0
C314 C 0.13607 0.42309 0.40051 0.0
C315 C 0.11797 0.40715 0.39605 0.0
C316 C 0.10366 0.41011 0.37637 0.0
C317 C 0.10721 0.42923 0.3618 0.0
C318 C 0.1517 0.42043 0.42133 0.0
C319 C 0.08421 0.39342 0.37104 0.0
C320 C 0.11978 0.34831 0.42536 0.0
C321 C 0.10465 0.35169 0.44409 0.0
C322 C 0.12427 0.36621 0.40953 0.0
C323 C 0.11335 0.38794 0.41252 0.0
C324 C 0.09799 0.39143 0.43131 0.0
C325 C 0.09382 0.37325 0.44688 0.0
C326 C 0.14076 0.3619 0.38969 0.0
C327 C 0.086 0.41439 0.43503 0.0
H328 H 0.15284 0.45446 0.38934 0.0
H329 H 0.09595 0.43167 0.34697 0.0
H330 H 0.14135 0.42198 0.43745 0.0
H331 H 0.15976 0.40299 0.42138 0.0
H332 H 0.16567 0.43368 0.42172 0.0
H333 H 0.07538 0.39755 0.35444 0.0
H334 H 0.09096 0.37546 0.37011 0.0
H335 H 0.07119 0.39389 0.38517 0.0
H336 H 0.12824 0.3317 0.42311 0.0
H337 H 0.08212 0.376 0.4613 0.0
H338 H 0.15549 0.37422 0.39062 0.0
H339 H 0.13183 0.36497 0.37295 0.0
H340 H 0.14774 0.34396 0.38974 0.0
H341 H 0.09907 0.4283 0.43729 0.0
H342 H 0.07447 0.41422 0.45044 0.0
H343 H 0.0755 0.41889 0.41957 0.0
C344 C 0.64444 0.1379 0.43987 0.0
C345 C 0.63542 0.12534 0.45864 0.0
C346 C 0.63056 0.14345 0.42071 0.0
C347 C 0.6071 0.13633 0.42039 0.0
C348 C 0.59791 0.1236 0.43924 0.0
C349 C 0.6122 0.11823 0.45813 0.0
C350 C 0.64094 0.15696 0.40085 0.0
C351 C 0.57294 0.11574 0.43951 0.0
C352 C 0.56292 0.16659 0.38235 0.0
C353 C 0.56003 0.15041 0.36446 0.0
C354 C 0.57876 0.16259 0.40034 0.0
C355 C 0.59208 0.142 0.40032 0.0
C356 C 0.58999 0.12611 0.38178 0.0
C357 C 0.57395 0.13049 0.36409 0.0
C358 C 0.58055 0.17991 0.41986 0.0
C359 C 0.60405 0.10406 0.38107 0.0
H360 H 0.66238 0.14347 0.44014 0.0
H361 H 0.60507 0.10858 0.47258 0.0
H362 H 0.63937 0.1469 0.38455 0.0
H363 H 0.63129 0.17339 0.39835 0.0
H364 H 0.65951 0.16112 0.40375 0.0
H365 H 0.56846 0.10609 0.45555 0.0
H366 H 0.56127 0.13094 0.43804 0.0
H367 H 0.56948 0.1044 0.42438 0.0
H368 H 0.55224 0.18203 0.38275 0.0
H369 H 0.57194 0.11798 0.35023 0.0
H370 H 0.59889 0.18497 0.42263 0.0
H371 H 0.5743 0.1719 0.43618 0.0
H372 H 0.57021 0.19579 0.41649 0.0
H373 H 0.62274 0.108 0.38324 0.0
H374 H 0.60166 0.09441 0.36459 0.0
H375 H 0.59888 0.09263 0.39564 0.0
C376 C 0.89123 0.6574 0.39931 0.0
C377 C 0.88493 0.65234 0.42223 0.0
C378 C 0.89089 0.64014 0.38217 0.0
C379 C 0.88407 0.61736 0.38816 0.0
C380 C 0.87742 0.61223 0.41119 0.0
C381 C 0.87793 0.62977 0.42793 0.0
C382 C 0.89807 0.64619 0.35775 0.0
C383 C 0.87 0.58813 0.41824 0.0
C384 C 0.86356 0.5739 0.34343 0.0
C385 C 0.88296 0.55939 0.34154 0.0
C386 C 0.86398 0.59347 0.35784 0.0
C387 C 0.88428 0.59859 0.37059 0.0
C388 C 0.90424 0.5846 0.36797 0.0
C389 C 0.90333 0.56515 0.35347 0.0
C390 C 0.84239 0.60806 0.36016 0.0
C391 C 0.92624 0.58959 0.38123 0.0
H392 H 0.89664 0.67481 0.39477 0.0
H393 H 0.87297 0.62571 0.44559 0.0
H394 H 0.91349 0.63586 0.35276 0.0
H395 H 0.884 0.6417 0.34545 0.0
H396 H 0.90228 0.66487 0.35578 0.0
H397 H 0.86493 0.58713 0.43678 0.0
H398 H 0.85512 0.58241 0.4075 0.0
H399 H 0.88437 0.57573 0.41516 0.0
H400 H 0.84779 0.56964 0.33417 0.0
H401 H 0.91846 0.55413 0.35195 0.0
H402 H 0.84658 0.62664 0.35762 0.0
H403 H 0.83524 0.60618 0.37791 0.0
H404 H 0.82878 0.603 0.34753 0.0
H405 H 0.93151 0.60791 0.3788 0.0
H406 H 0.94078 0.57822 0.37578 0.0
H407 H 0.92316 0.58696 0.40003 0.0
C408 C 0.38104 0.85956 0.41808 0.0
C409 C 0.3573 0.86327 0.41443 0.0
C410 C 0.39721 0.86381 0.40049 0.0
C411 C 0.38946 0.8718 0.37865 0.0
C412 C 0.36547 0.87483 0.37456 0.0
C413 C 0.34965 0.87058 0.39255 0.0
C414 C 0.42268 0.86041 0.40554 0.0
C415 C 0.3566 0.88311 0.35139 0.0
C416 C 0.43452 0.90528 0.34465 0.0
C417 C 0.44369 0.88797 0.3303 0.0
C418 C 0.41619 0.90048 0.35984 0.0
C419 C 0.4067 0.87786 0.36056 0.0
C420 C 0.41509 0.86062 0.3453 0.0
C421 C 0.43356 0.86586 0.3304 0.0
C422 C 0.40771 0.91931 0.37591 0.0
C423 C 0.40523 0.83639 0.34541 0.0
H424 H 0.38712 0.85387 0.43491 0.0
H425 H 0.33132 0.87341 0.38957 0.0
H426 H 0.43041 0.84837 0.39272 0.0
H427 H 0.43192 0.8772 0.40393 0.0
H428 H 0.42577 0.85339 0.42319 0.0
H429 H 0.33737 0.88303 0.3505 0.0
H430 H 0.36281 0.901 0.3481 0.0
H431 H 0.36348 0.87202 0.33729 0.0
H432 H 0.44219 0.92243 0.34461 0.0
H433 H 0.44042 0.85243 0.3192 0.0
H434 H 0.41189 0.91463 0.39408 0.0
H435 H 0.38861 0.92104 0.37469 0.0
H436 H 0.41572 0.93638 0.372 0.0
H437 H 0.4097 0.82769 0.36196 0.0
H438 H 0.41201 0.82572 0.33089 0.0
H439 H 0.38605 0.83695 0.34424 0.0
C440 C 0.12816 0.53933 0.63661 0.0
C441 C 0.14588 0.52277 0.63515 0.0
C442 C 0.12739 0.55819 0.62135 0.0
C443 C 0.14466 0.56043 0.60409 0.0
C444 C 0.16302 0.54421 0.603 0.0
C445 C 0.16346 0.52559 0.61863 0.0
C446 C 0.10765 0.57526 0.62318 0.0
C447 C 0.18168 0.54602 0.58475 0.0
C448 C 0.12675 0.59229 0.5496 0.0
C449 C 0.13665 0.6142 0.55309 0.0
C450 C 0.1296 0.57454 0.5659 0.0
C451 C 0.14256 0.57884 0.58626 0.0
C452 C 0.1528 0.60083 0.58983 0.0
C453 C 0.14977 0.61826 0.57315 0.0
C454 C 0.11849 0.55125 0.56146 0.0
C455 C 0.16665 0.60602 0.6114 0.0
H456 H 0.11461 0.53737 0.64948 0.0
H457 H 0.1772 0.51285 0.61741 0.0
H458 H 0.11445 0.59322 0.62414 0.0
H459 H 0.09664 0.57414 0.60747 0.0
H460 H 0.0966 0.57202 0.63861 0.0
H461 H 0.19562 0.53299 0.58726 0.0
H462 H 0.17394 0.54342 0.56734 0.0
H463 H 0.18953 0.56356 0.58493 0.0
H464 H 0.11668 0.58896 0.5341 0.0
H465 H 0.15748 0.63516 0.57595 0.0
H466 H 0.10561 0.54743 0.57521 0.0
H467 H 0.13179 0.53738 0.56207 0.0
H468 H 0.10962 0.5505 0.54439 0.0
H469 H 0.15543 0.60421 0.62691 0.0
H470 H 0.17407 0.62379 0.61123 0.0
H471 H 0.181 0.59338 0.61325 0.0
C472 C 0.37829 0.10355 0.52796 0.0
C473 C 0.35631 0.11389 0.52747 0.0
C474 C 0.39377 0.10795 0.54612 0.0
C475 C 0.38712 0.12308 0.56422 0.0
C476 C 0.36493 0.13349 0.56393 0.0
C477 C 0.34975 0.12875 0.54554 0.0
C478 C 0.4173 0.09648 0.54589 0.0
C479 C 0.3573 0.14973 0.58296 0.0
C480 C 0.42049 0.11755 0.6205 0.0
C481 C 0.43681 0.13545 0.61835 0.0
C482 C 0.40386 0.11366 0.60324 0.0
C483 C 0.40354 0.12802 0.58338 0.0
C484 C 0.41957 0.14647 0.58136 0.0
C485 C 0.43604 0.14997 0.59888 0.0
C486 C 0.38701 0.09381 0.60598 0.0
C487 C 0.4197 0.16216 0.56041 0.0
H488 H 0.38349 0.09204 0.51407 0.0
H489 H 0.3328 0.13683 0.54526 0.0
H490 H 0.4311 0.10986 0.54572 0.0
H491 H 0.41966 0.08603 0.56185 0.0
H492 H 0.4197 0.085 0.53063 0.0
H493 H 0.33939 0.15625 0.58027 0.0
H494 H 0.35808 0.14077 0.59995 0.0
H495 H 0.36924 0.16477 0.5839 0.0
H496 H 0.42093 0.10628 0.63552 0.0
H497 H 0.44855 0.16387 0.59712 0.0
H498 H 0.38986 0.08091 0.59202 0.0
H499 H 0.36895 0.10016 0.60427 0.0
H500 H 0.38884 0.08495 0.62297 0.0
H501 H 0.42383 0.15193 0.54467 0.0
H502 H 0.43257 0.17639 0.56201 0.0
H503 H 0.40229 0.16986 0.5578 0.0
C504 C 0.85519 0.45381 0.65763 0.0
C505 C 0.87698 0.46454 0.6563 0.0
C506 C 0.84997 0.43439 0.64397 0.0
C507 C 0.86691 0.42559 0.6286 0.0
C508 C 0.88913 0.43594 0.62767 0.0
C509 C 0.89391 0.45526 0.64157 0.0
C510 C 0.82613 0.4237 0.64549 0.0
C511 C 0.90766 0.42704 0.61146 0.0
C512 C 0.86221 0.36564 0.60201 0.0
C513 C 0.8543 0.37091 0.57964 0.0
C514 C 0.86562 0.38319 0.61849 0.0
C515 C 0.86108 0.4065 0.61238 0.0
C516 C 0.85227 0.41181 0.59014 0.0
C517 C 0.84894 0.39395 0.57406 0.0
C518 C 0.87488 0.3769 0.64213 0.0
C519 C 0.84722 0.43647 0.58298 0.0
H520 H 0.84205 0.46081 0.66907 0.0
H521 H 0.91082 0.46336 0.64052 0.0
H522 H 0.8169 0.42609 0.62881 0.0
H523 H 0.82751 0.40478 0.6486 0.0
H524 H 0.81552 0.43151 0.65953 0.0
H525 H 0.92439 0.43629 0.61368 0.0
H526 H 0.91058 0.40827 0.6144 0.0
H527 H 0.90188 0.42915 0.59325 0.0
H528 H 0.86631 0.34787 0.60648 0.0
H529 H 0.84274 0.39818 0.55685 0.0
H530 H 0.86392 0.38467 0.65588 0.0
H531 H 0.8926 0.38407 0.64423 0.0
H532 H 0.87562 0.35786 0.64483 0.0
H533 H 0.83542 0.44479 0.59566 0.0
H534 H 0.8392 0.43753 0.56551 0.0
H535 H 0.86354 0.44664 0.58282 0.0
C536 C 0.57358 0.86466 0.63344 0.0
C537 C 0.55543 0.8486 0.63159 0.0
C538 C 0.59002 0.86701 0.61571 0.0
C539 C 0.58817 0.85304 0.59566 0.0
C540 C 0.57045 0.83616 0.5941 0.0
C541 C 0.55432 0.83408 0.61214 0.0
C542 C 0.60883 0.88506 0.61806 0.0
C543 C 0.56792 0.82099 0.57293 0.0
C544 C 0.61254 0.8773 0.53972 0.0
C545 C 0.63344 0.8651 0.53767 0.0
C546 C 0.59763 0.87346 0.55849 0.0
C547 C 0.60384 0.85711 0.57569 0.0
C548 C 0.62493 0.84477 0.57379 0.0
C549 C 0.63946 0.84887 0.55474 0.0
C550 C 0.5752 0.88686 0.5599 0.0
C551 C 0.63213 0.82731 0.59188 0.0
H552 H 0.57461 0.87586 0.64847 0.0
H553 H 0.54035 0.82162 0.61059 0.0
H554 H 0.62606 0.8772 0.61479 0.0
H555 H 0.60624 0.89883 0.6049 0.0
H556 H 0.60897 0.89321 0.63549 0.0
H557 H 0.55421 0.80765 0.57511 0.0
H558 H 0.5635 0.83186 0.5577 0.0
H559 H 0.58454 0.81217 0.56902 0.0
H560 H 0.60774 0.88982 0.52657 0.0
H561 H 0.65561 0.8394 0.55329 0.0
H562 H 0.57472 0.89714 0.57613 0.0
H563 H 0.56031 0.8747 0.5604 0.0
H564 H 0.57286 0.89882 0.545 0.0
H565 H 0.63327 0.8358 0.60909 0.0
H566 H 0.64913 0.81922 0.58788 0.0
H567 H 0.6189 0.81343 0.59325 0.0
C568 C 0.35748 0.1223 0.4187 0.0
C569 C 0.35182 0.14074 0.43348 0.0
C570 C 0.37735 0.1231 0.40478 0.0
C571 C 0.39184 0.14287 0.40557 0.0
C572 C 0.38562 0.16202 0.41956 0.0
C573 C 0.36568 0.16071 0.4334 0.0
C574 C 0.38342 0.10233 0.39006 0.0
C575 C 0.40056 0.18347 0.42065 0.0
C576 C 0.4552 0.13262 0.3918 0.0
C577 C 0.45647 0.13971 0.3686 0.0
C578 C 0.43432 0.13396 0.40413 0.0
C579 C 0.41429 0.14273 0.39303 0.0
C580 C 0.41556 0.15043 0.36981 0.0
C581 C 0.43665 0.14877 0.35783 0.0
C582 C 0.4336 0.1255 0.42889 0.0
C583 C 0.39457 0.16004 0.3575 0.0
H584 H 0.34683 0.10683 0.41858 0.0
H585 H 0.36136 0.17508 0.44469 0.0
H586 H 0.38661 0.10772 0.3719 0.0
H587 H 0.39963 0.09432 0.39659 0.0
H588 H 0.36954 0.08899 0.39018 0.0
H589 H 0.39221 0.19765 0.43063 0.0
H590 H 0.41735 0.17921 0.429 0.0
H591 H 0.40444 0.18984 0.40294 0.0
H592 H 0.47043 0.12563 0.40025 0.0
H593 H 0.43754 0.15442 0.33994 0.0
H594 H 0.42137 0.11074 0.43037 0.0
H595 H 0.42715 0.13944 0.44045 0.0
H596 H 0.45087 0.11981 0.4352 0.0
H597 H 0.3811 0.1464 0.35603 0.0
H598 H 0.39876 0.16645 0.33984 0.0
H599 H 0.38697 0.17447 0.36765 0.0
C600 C 0.8562 0.37603 0.44055 0.0
C601 C 0.85981 0.38759 0.46163 0.0
C602 C 0.85869 0.38766 0.41934 0.0
C603 C 0.86482 0.4114 0.41925 0.0
C604 C 0.8683 0.4232 0.44046 0.0
C605 C 0.86579 0.41114 0.46139 0.0
C606 C 0.8549 0.37453 0.39703 0.0
C607 C 0.87473 0.44856 0.44104 0.0
C608 C 0.89207 0.4388 0.36605 0.0
C609 C 0.87321 0.45076 0.3565 0.0
C610 C 0.88947 0.42542 0.38619 0.0
C611 C 0.8675 0.42405 0.39702 0.0
C612 C 0.84828 0.43561 0.38715 0.0
C613 C 0.85135 0.4488 0.36699 0.0
C614 C 0.91033 0.41322 0.39619 0.0
C615 C 0.82458 0.43455 0.39822 0.0
H616 H 0.85163 0.35782 0.44058 0.0
H617 H 0.86858 0.4202 0.47759 0.0
H618 H 0.84088 0.38283 0.38683 0.0
H619 H 0.87084 0.37512 0.38631 0.0
H620 H 0.8502 0.35612 0.40009 0.0
H621 H 0.87671 0.45521 0.459 0.0
H622 H 0.89125 0.45136 0.43162 0.0
H623 H 0.86124 0.45895 0.43211 0.0
H624 H 0.90899 0.44016 0.35801 0.0
H625 H 0.83665 0.45792 0.35969 0.0
H626 H 0.90657 0.39451 0.39853 0.0
H627 H 0.91438 0.42044 0.41353 0.0
H628 H 0.92591 0.41503 0.38502 0.0
H629 H 0.81915 0.41626 0.40054 0.0
H630 H 0.81122 0.44365 0.38778 0.0
H631 H 0.82522 0.44257 0.41567 0.0
C632 C 0.55052 0.88816 0.37073 0.0
C633 C 0.55026 0.87675 0.34929 0.0
C634 C 0.56713 0.88273 0.38759 0.0
C635 C 0.58397 0.86555 0.38284 0.0
C636 C 0.58383 0.85395 0.36125 0.0
C637 C 0.56693 0.85965 0.34473 0.0
C638 C 0.56669 0.89542 0.41047 0.0
C639 C 0.60161 0.83562 0.35557 0.0
C640 C 0.63872 0.86884 0.41893 0.0
C641 C 0.63433 0.85221 0.43611 0.0
C642 C 0.62277 0.87287 0.40107 0.0
C643 C 0.60188 0.86004 0.40046 0.0
C644 C 0.59762 0.84278 0.41736 0.0
C645 C 0.61395 0.83902 0.43497 0.0
C646 C 0.62797 0.8913 0.38324 0.0
C647 C 0.57549 0.82882 0.41727 0.0
H648 H 0.53766 0.90133 0.37443 0.0
H649 H 0.56685 0.85076 0.32819 0.0
H650 H 0.56494 0.88285 0.42491 0.0
H651 H 0.58325 0.90483 0.41306 0.0
H652 H 0.55222 0.90806 0.41156 0.0
H653 H 0.59902 0.8281 0.33805 0.0
H654 H 0.61928 0.84314 0.35649 0.0
H655 H 0.60078 0.82144 0.36853 0.0
H656 H 0.6545 0.87902 0.41961 0.0
H657 H 0.61044 0.82615 0.44818 0.0
H658 H 0.61513 0.90553 0.38469 0.0
H659 H 0.62645 0.88402 0.36552 0.0
H660 H 0.6456 0.89875 0.38534 0.0
H661 H 0.56048 0.84047 0.42017 0.0
H662 H 0.57539 0.8152 0.43088 0.0
H663 H 0.57299 0.82044 0.40016 0.0
C664 C 0.13957 0.6375 0.43911 0.0
C665 C 0.11864 0.64359 0.44986 0.0
C666 C 0.13978 0.62348 0.41926 0.0
C667 C 0.11857 0.61532 0.41004 0.0
C668 C 0.09737 0.62218 0.42024 0.0
C669 C 0.09765 0.63627 0.44001 0.0
C670 C 0.16273 0.61664 0.40872 0.0
C671 C 0.07439 0.6138 0.41091 0.0
C672 C 0.11641 0.58848 0.34997 0.0
C673 C 0.11692 0.56476 0.35528 0.0
C674 C 0.11727 0.60523 0.36759 0.0
C675 C 0.11857 0.59804 0.391 0.0
C676 C 0.1193 0.57415 0.39642 0.0
C677 C 0.11852 0.55782 0.37851 0.0
C678 C 0.11657 0.63059 0.36121 0.0
C679 C 0.12061 0.56579 0.4212 0.0
H680 H 0.15585 0.64322 0.44653 0.0
H681 H 0.08139 0.64101 0.44811 0.0
H682 H 0.1656 0.5978 0.41123 0.0
H683 H 0.16264 0.61995 0.38979 0.0
H684 H 0.17749 0.62617 0.41659 0.0
H685 H 0.05945 0.62215 0.41971 0.0
H686 H 0.07317 0.6173 0.39205 0.0
H687 H 0.07302 0.59477 0.4133 0.0
H688 H 0.11524 0.59397 0.33205 0.0
H689 H 0.11893 0.53953 0.38279 0.0
H690 H 0.13184 0.63966 0.36855 0.0
H691 H 0.10091 0.63877 0.36877 0.0
H692 H 0.11634 0.63332 0.34216 0.0
H693 H 0.13614 0.57314 0.42982 0.0
H694 H 0.12141 0.5466 0.42245 0.0
H695 H 0.10521 0.5719 0.43097 0.0
C696 C 0.40163 0.83569 0.53499 0.0
C697 C 0.38161 0.84924 0.53259 0.0
C698 C 0.41716 0.83951 0.55328 0.0
C699 C 0.41251 0.85724 0.56956 0.0
C700 C 0.39211 0.87066 0.56752 0.0
C701 C 0.37691 0.86652 0.54904 0.0
C702 C 0.43879 0.82487 0.55493 0.0
C703 C 0.38655 0.88967 0.58462 0.0
C704 C 0.44415 0.85547 0.62717 0.0
C705 C 0.46219 0.87132 0.62333 0.0
C706 C 0.42771 0.85083 0.60987 0.0
C707 C 0.42941 0.8623 0.58827 0.0
C708 C 0.4474 0.87851 0.58439 0.0
C709 C 0.46357 0.88283 0.60199 0.0
C710 C 0.40869 0.83349 0.61462 0.0
C711 C 0.44973 0.89109 0.56156 0.0
H712 H 0.40536 0.8223 0.52237 0.0
H713 H 0.36143 0.87701 0.54738 0.0
H714 H 0.45435 0.83603 0.55321 0.0
H715 H 0.43973 0.8164 0.57216 0.0
H716 H 0.43946 0.81126 0.54134 0.0
H717 H 0.36951 0.89792 0.5811 0.0
H718 H 0.38639 0.88264 0.60251 0.0
H719 H 0.40017 0.90322 0.58393 0.0
H720 H 0.44297 0.84649 0.64362 0.0
H721 H 0.47745 0.8951 0.59888 0.0
H722 H 0.40991 0.8189 0.60217 0.0
H723 H 0.39151 0.84172 0.61208 0.0
H724 H 0.40954 0.82641 0.63249 0.0
H725 H 0.45218 0.8784 0.54734 0.0
H726 H 0.46454 0.90338 0.56144 0.0
H727 H 0.43362 0.90086 0.55777 0.0
C728 C 0.11779 0.4242 0.5974 0.0
C729 C 0.12556 0.42243 0.62034 0.0
C730 C 0.12008 0.40564 0.58195 0.0
C731 C 0.13057 0.38482 0.58955 0.0
C732 C 0.13867 0.38294 0.61262 0.0
C733 C 0.13597 0.40176 0.6278 0.0
C734 C 0.11104 0.40825 0.55751 0.0
C735 C 0.1501 0.36106 0.62123 0.0
C736 C 0.11422 0.33251 0.5536 0.0
C737 C 0.13248 0.33169 0.53757 0.0
C738 C 0.11394 0.34902 0.57139 0.0
C739 C 0.13246 0.36497 0.5733 0.0
C740 C 0.15164 0.3633 0.5581 0.0
C741 C 0.15139 0.3467 0.54034 0.0
C742 C 0.09315 0.35028 0.58725 0.0
C743 C 0.17182 0.37986 0.55979 0.0
H744 H 0.10969 0.44008 0.5915 0.0
H745 H 0.14212 0.40032 0.64549 0.0
H746 H 0.12527 0.40542 0.54491 0.0
H747 H 0.09758 0.39496 0.55407 0.0
H748 H 0.10343 0.42564 0.55433 0.0
H749 H 0.15599 0.36259 0.63949 0.0
H750 H 0.13781 0.34633 0.61996 0.0
H751 H 0.16525 0.35679 0.6102 0.0
H752 H 0.09958 0.3209 0.55169 0.0
H753 H 0.16566 0.34606 0.52814 0.0
H754 H 0.08331 0.36639 0.58363 0.0
H755 H 0.09873 0.35097 0.60562 0.0
H756 H 0.08132 0.33526 0.58495 0.0
H757 H 0.16617 0.39744 0.55445 0.0
H758 H 0.18654 0.37454 0.54858 0.0
H759 H 0.17801 0.38109 0.57795 0.0
C760 C 0.54214 0.1107 0.60722 0.0
C761 C 0.53825 0.12305 0.62776 0.0
C762 C 0.56189 0.11484 0.5937 0.0
C763 C 0.57822 0.13163 0.60099 0.0
C764 C 0.57457 0.14397 0.62185 0.0
C765 C 0.55456 0.13959 0.63495 0.0
C766 C 0.56515 0.10142 0.57147 0.0
C767 C 0.59172 0.16187 0.63023 0.0
C768 C 0.63776 0.12602 0.57384 0.0
C769 C 0.63638 0.14209 0.55566 0.0
C770 C 0.61928 0.12309 0.58936 0.0
C771 C 0.59892 0.13643 0.58648 0.0
C772 C 0.59778 0.15332 0.56875 0.0
C773 C 0.61658 0.15603 0.5536 0.0
C774 C 0.62121 0.10509 0.60824 0.0
C775 C 0.5763 0.16781 0.56511 0.0
H776 H 0.5296 0.09792 0.60152 0.0
H777 H 0.55171 0.14916 0.65085 0.0
H778 H 0.56605 0.11356 0.55658 0.0
H779 H 0.58176 0.09178 0.57199 0.0
H780 H 0.55088 0.08889 0.56832 0.0
H781 H 0.58661 0.16954 0.64712 0.0
H782 H 0.60913 0.15393 0.63208 0.0
H783 H 0.59328 0.176 0.61729 0.0
H784 H 0.65306 0.11528 0.57561 0.0
H785 H 0.61537 0.16848 0.5396 0.0
H786 H 0.60878 0.09082 0.60485 0.0
H787 H 0.61662 0.11274 0.62526 0.0
H788 H 0.63891 0.09762 0.6094 0.0
H789 H 0.56168 0.15647 0.5599 0.0
H790 H 0.57877 0.18124 0.55154 0.0
H791 H 0.57124 0.17648 0.5815 0.0
C792 C 0.86201 0.58383 0.64014 0.0
C793 C 0.88342 0.57287 0.64371 0.0
C794 C 0.85832 0.59808 0.62079 0.0
C795 C 0.87643 0.60132 0.60459 0.0
C796 C 0.89824 0.59075 0.60837 0.0
C797 C 0.90149 0.57672 0.62793 0.0
C798 C 0.8349 0.60923 0.6174 0.0
C799 C 0.91797 0.59377 0.59144 0.0
C800 C 0.86276 0.61656 0.54217 0.0
C801 C 0.86889 0.64006 0.54136 0.0
C802 C 0.86454 0.60389 0.56283 0.0
C803 C 0.87246 0.61504 0.58318 0.0
C804 C 0.87779 0.63896 0.5827 0.0
C805 C 0.87602 0.65118 0.56176 0.0
C806 C 0.85875 0.57836 0.56266 0.0
C807 C 0.88607 0.65148 0.60413 0.0
H808 H 0.84797 0.581 0.6523 0.0
H809 H 0.91808 0.56833 0.63054 0.0
H810 H 0.83689 0.6282 0.61501 0.0
H811 H 0.82667 0.60232 0.60146 0.0
H812 H 0.82309 0.60607 0.63226 0.0
H813 H 0.93405 0.58496 0.59728 0.0
H814 H 0.91296 0.58662 0.57431 0.0
H815 H 0.92177 0.61244 0.58895 0.0
H816 H 0.85722 0.60783 0.52649 0.0
H817 H 0.88065 0.66937 0.56131 0.0
H818 H 0.84587 0.57437 0.57636 0.0
H819 H 0.87455 0.56813 0.56652 0.0
H820 H 0.85169 0.57258 0.54572 0.0
H821 H 0.87387 0.64851 0.6187 0.0
H822 H 0.88781 0.67044 0.60129 0.0
H823 H 0.90316 0.64452 0.60949 0.0
C824 C 0.33881 0.44391 0.1408 0.0
C825 C 0.34476 0.46019 0.12374 0.0
C826 C 0.35128 0.42319 0.14317 0.0
C827 C 0.37022 0.41878 0.12825 0.0
C828 C 0.376 0.43492 0.11071 0.0
C829 C 0.36314 0.4554 0.10862 0.0
C830 C 0.34453 0.40625 0.16193 0.0
C831 C 0.39617 0.43086 0.09452 0.0
C832 C 0.41962 0.3802 0.14747 0.0
C833 C 0.41571 0.36019 0.13426 0.0
C834 C 0.40447 0.39912 0.14626 0.0
C835 C 0.38485 0.39792 0.13161 0.0
C836 C 0.38019 0.37738 0.11906 0.0
C837 C 0.39575 0.35875 0.12047 0.0
C838 C 0.41003 0.42076 0.15988 0.0
C839 C 0.35929 0.37542 0.10345 0.0
H840 H 0.32454 0.44745 0.15248 0.0
H841 H 0.36783 0.46787 0.09538 0.0
H842 H 0.34187 0.38875 0.15444 0.0
H843 H 0.35873 0.40484 0.17481 0.0
H844 H 0.32845 0.41154 0.1711 0.0
H845 H 0.39786 0.44474 0.08129 0.0
H846 H 0.41252 0.43002 0.10461 0.0
H847 H 0.39413 0.41401 0.08551 0.0
H848 H 0.43495 0.38143 0.15824 0.0
H849 H 0.39255 0.34329 0.1103 0.0
H850 H 0.39489 0.42605 0.17047 0.0
H851 H 0.41388 0.4352 0.14778 0.0
H852 H 0.42516 0.41838 0.17155 0.0
H853 H 0.34337 0.38051 0.11294 0.0
H854 H 0.35697 0.35759 0.09659 0.0
H855 H 0.36119 0.38748 0.0886 0.0
C856 C 0.41639 0.63096 0.86318 0.0
C857 C 0.43469 0.62642 0.87852 0.0
C858 C 0.39694 0.61638 0.86225 0.0
C859 C 0.39576 0.59692 0.87712 0.0
C860 C 0.41414 0.59228 0.89266 0.0
C861 C 0.43342 0.60705 0.89313 0.0
C862 C 0.3777 0.62175 0.84536 0.0
C863 C 0.41344 0.57173 0.90886 0.0
C864 C 0.33792 0.56939 0.89183 0.0
C865 C 0.33843 0.54931 0.87816 0.0
C866 C 0.35621 0.58539 0.89121 0.0
C867 C 0.37535 0.58126 0.87646 0.0
C868 C 0.37556 0.56148 0.86198 0.0
C869 C 0.35712 0.54571 0.86304 0.0
C870 C 0.35543 0.60627 0.90695 0.0
C871 C 0.39562 0.55661 0.84589 0.0
H872 H 0.41727 0.64587 0.8518 0.0
H873 H 0.44746 0.60346 0.90507 0.0
H874 H 0.37516 0.60693 0.8334 0.0
H875 H 0.36117 0.6243 0.85484 0.0
H876 H 0.38132 0.63753 0.83494 0.0
H877 H 0.42907 0.57067 0.92003 0.0
H878 H 0.3979 0.57279 0.92014 0.0
H879 H 0.41203 0.55545 0.89874 0.0
H880 H 0.32354 0.5723 0.90355 0.0
H881 H 0.35758 0.5303 0.85232 0.0
H882 H 0.35813 0.62236 0.89679 0.0
H883 H 0.36967 0.6052 0.91982 0.0
H884 H 0.33872 0.60767 0.9164 0.0
H885 H 0.39904 0.57187 0.83471 0.0
H886 H 0.3924 0.54132 0.83464 0.0
H887 H 0.41153 0.55338 0.85617 0.0
C888 C 0.43834 0.36425 0.86487 0.0
C889 C 0.4354 0.3432 0.87663 0.0
C890 C 0.4218 0.38195 0.86661 0.0
C891 C 0.40193 0.37856 0.88058 0.0
C892 C 0.39871 0.35725 0.89229 0.0
C893 C 0.41545 0.33978 0.89011 0.0
C894 C 0.42573 0.4044 0.85374 0.0
C895 C 0.37778 0.35308 0.90744 0.0
C896 C 0.37225 0.43273 0.90294 0.0
C897 C 0.35357 0.43487 0.88756 0.0
C898 C 0.38788 0.41422 0.90112 0.0
C899 C 0.38483 0.39757 0.88338 0.0
C900 C 0.36582 0.39943 0.86801 0.0
C901 C 0.35036 0.41803 0.87033 0.0
C902 C 0.40785 0.41268 0.91796 0.0
C903 C 0.3621 0.38204 0.84882 0.0
H904 H 0.45366 0.36698 0.85435 0.0
H905 H 0.41308 0.32358 0.8993 0.0
H906 H 0.41073 0.40816 0.84233 0.0
H907 H 0.42718 0.41891 0.86625 0.0
H908 H 0.44169 0.40397 0.84298 0.0
H909 H 0.37757 0.33534 0.91491 0.0
H910 H 0.37755 0.3658 0.92184 0.0
H911 H 0.36166 0.35566 0.8973 0.0
H912 H 0.37479 0.44561 0.91636 0.0
H913 H 0.33597 0.4196 0.85836 0.0
H914 H 0.42451 0.41403 0.90846 0.0
H915 H 0.40769 0.39562 0.92682 0.0
H916 H 0.40726 0.42654 0.93129 0.0
H917 H 0.37713 0.38229 0.83683 0.0
H918 H 0.34612 0.3856 0.83871 0.0
H919 H 0.36093 0.3643 0.85612 0.0
C920 C 0.65163 0.40945 0.88638 0.0
C921 C 0.64754 0.43091 0.87573 0.0
C922 C 0.63434 0.39236 0.8871 0.0
C923 C 0.61251 0.39688 0.87689 0.0
C924 C 0.60859 0.41815 0.86534 0.0
C925 C 0.62616 0.4349 0.86489 0.0
C926 C 0.63913 0.36983 0.8995 0.0
C927 C 0.58555 0.42356 0.85416 0.0
C928 C 0.56999 0.34855 0.86358 0.0
C929 C 0.55417 0.35077 0.88191 0.0
C930 C 0.5895 0.36298 0.86206 0.0
C931 C 0.59325 0.37999 0.8793 0.0
C932 C 0.57777 0.3818 0.89824 0.0
C933 C 0.5584 0.36717 0.89931 0.0
C934 C 0.60568 0.36053 0.84165 0.0
C935 C 0.58127 0.39969 0.91702 0.0
H936 H 0.66812 0.40623 0.89478 0.0
H937 H 0.62287 0.4514 0.85654 0.0
H938 H 0.62798 0.36857 0.91511 0.0
H939 H 0.63479 0.35492 0.88818 0.0
H940 H 0.65752 0.3683 0.90497 0.0
H941 H 0.58575 0.44036 0.84477 0.0
H942 H 0.58074 0.40966 0.84179 0.0
H943 H 0.57183 0.42424 0.86761 0.0
H944 H 0.56689 0.33585 0.85009 0.0
H945 H 0.54634 0.36891 0.9136 0.0
H946 H 0.62382 0.35865 0.84771 0.0
H947 H 0.6049 0.37641 0.83084 0.0
H948 H 0.60125 0.3454 0.83062 0.0
H949 H 0.59892 0.39813 0.92448 0.0
H950 H 0.56841 0.39797 0.93124 0.0
H951 H 0.57977 0.41733 0.90952 0.0
C952 C 0.59771 0.54256 0.88585 0.0
C953 C 0.62153 0.54492 0.8817 0.0
C954 C 0.5831 0.56193 0.88626 0.0
C955 C 0.59252 0.58422 0.88229 0.0
C956 C 0.61654 0.58678 0.87809 0.0
C957 C 0.6308 0.56708 0.87792 0.0
C958 C 0.55757 0.55853 0.89096 0.0
C959 C 0.62714 0.6103 0.87368 0.0
C960 C 0.54887 0.62943 0.86321 0.0
C961 C 0.54376 0.64047 0.88424 0.0
C962 C 0.56543 0.61167 0.86213 0.0
C963 C 0.57705 0.60477 0.88259 0.0
C964 C 0.57261 0.61643 0.90369 0.0
C965 C 0.55605 0.63419 0.90425 0.0
C966 C 0.56984 0.59973 0.83928 0.0
C967 C 0.58465 0.60953 0.92587 0.0
H968 H 0.59041 0.52551 0.88886 0.0
H969 H 0.6492 0.56903 0.87463 0.0
H970 H 0.55235 0.56864 0.90645 0.0
H971 H 0.54725 0.56508 0.87612 0.0
H972 H 0.55304 0.54005 0.89389 0.0
H973 H 0.64612 0.60932 0.87067 0.0
H974 H 0.61889 0.61841 0.85833 0.0
H975 H 0.62387 0.62187 0.88867 0.0
H976 H 0.53956 0.63428 0.84764 0.0
H977 H 0.55227 0.64268 0.92056 0.0
H978 H 0.56378 0.58151 0.84025 0.0
H979 H 0.58869 0.5993 0.83552 0.0
H980 H 0.56083 0.6084 0.82466 0.0
H981 H 0.57932 0.59173 0.93083 0.0
H982 H 0.58051 0.62142 0.94043 0.0
H983 H 0.6037 0.6093 0.92334 0.0
C984 C 0.62579 0.52322 0.13148 0.0
C985 C 0.64859 0.52418 0.12315 0.0
C986 C 0.611 0.54237 0.12958 0.0
C987 C 0.61918 0.56293 0.119 0.0
C988 C 0.6423 0.56418 0.11094 0.0
C989 C 0.65678 0.54478 0.11318 0.0
C990 C 0.58647 0.54045 0.13853 0.0
C991 C 0.65156 0.5858 0.09948 0.0
C992 C 0.57265 0.60145 0.09337 0.0
C993 C 0.56987 0.61813 0.1108 0.0
C994 C 0.58918 0.5838 0.0955 0.0
C995 C 0.60315 0.58275 0.11562 0.0
C996 C 0.60092 0.59991 0.13298 0.0
C997 C 0.58433 0.61747 0.13032 0.0
C998 C 0.59123 0.5659 0.07653 0.0
C999 C 0.61549 0.59927 0.15469 0.0
H1000 H 0.61938 0.5074 0.13932 0.0
H1001 H 0.67438 0.54564 0.10669 0.0
H1002 H 0.58287 0.5546 0.15103 0.0
H1003 H 0.57407 0.5424 0.12397 0.0
H1004 H 0.58312 0.52359 0.14719 0.0
H1005 H 0.67023 0.5843 0.09504 0.0
H1006 H 0.64169 0.58933 0.08337 0.0
H1007 H 0.64918 0.60096 0.11104 0.0
H1008 H 0.56165 0.60195 0.07816 0.0
H1009 H 0.58228 0.63032 0.14386 0.0
H1010 H 0.58615 0.54865 0.08332 0.0
H1011 H 0.60946 0.56458 0.07059 0.0
H1012 H 0.5801 0.57001 0.06137 0.0
H1013 H 0.61128 0.58349 0.16483 0.0
H1014 H 0.61263 0.61468 0.16586 0.0
H1015 H 0.63415 0.59833 0.15017 0.0
C1016 C 0.36139 0.57923 0.13823 0.0
C1017 C 0.36531 0.55672 0.14647 0.0
C1018 C 0.37987 0.59456 0.1345 0.0
C1019 C 0.40281 0.58705 0.13881 0.0
C1020 C 0.40683 0.56457 0.14774 0.0
C1021 C 0.38799 0.54972 0.15163 0.0
C1022 C 0.37491 0.61855 0.12531 0.0
C1023 C 0.43108 0.55587 0.15231 0.0
C1024 C 0.45108 0.61546 0.10452 0.0
C1025 C 0.46101 0.63015 0.12111 0.0
C1026 C 0.43213 0.60134 0.1101 0.0
C1027 C 0.42269 0.60219 0.13271 0.0
C1028 C 0.4324 0.61722 0.14946 0.0
C1029 C 0.45158 0.63093 0.1435 0.0
C1030 C 0.42238 0.5853 0.09185 0.0
C1031 C 0.42255 0.6188 0.17364 0.0
H1032 H 0.34387 0.58478 0.13435 0.0
H1033 H 0.39116 0.53231 0.15792 0.0
H1034 H 0.38348 0.63179 0.13631 0.0
H1035 H 0.38212 0.62032 0.10758 0.0
H1036 H 0.35605 0.62234 0.12465 0.0
H1037 H 0.43118 0.53836 0.16029 0.0
H1038 H 0.44089 0.55513 0.13579 0.0
H1039 H 0.44042 0.56798 0.16394 0.0
H1040 H 0.45835 0.61471 0.08722 0.0
H1041 H 0.45911 0.64237 0.15635 0.0
H1042 H 0.40384 0.58932 0.08878 0.0
H1043 H 0.42333 0.5671 0.09797 0.0
H1044 H 0.43181 0.58665 0.07512 0.0
H1045 H 0.40392 0.62347 0.17285 0.0
H1046 H 0.43173 0.63184 0.18443 0.0
H1047 H 0.42376 0.60171 0.18234 0.0
C1048 C 0.61954 0.39283 0.12526 0.0
C1049 C 0.62346 0.40836 0.10699 0.0
C1050 C 0.60143 0.37666 0.12423 0.0
C1051 C 0.58699 0.376 0.10442 0.0
C1052 C 0.59142 0.391 0.08555 0.0
C1053 C 0.60961 0.40704 0.08707 0.0
C1054 C 0.59721 0.36089 0.14469 0.0
C1055 C 0.57644 0.39069 0.0641 0.0
C1056 C 0.54798 0.32368 0.09599 0.0
C1057 C 0.52687 0.33192 0.10477 0.0
C1058 C 0.56772 0.33789 0.09557 0.0
C1059 C 0.56626 0.36079 0.10418 0.0
C1060 C 0.54496 0.36925 0.11289 0.0
C1061 C 0.52552 0.35472 0.11306 0.0
C1062 C 0.59016 0.32837 0.08609 0.0
C1063 C 0.54273 0.3936 0.12223 0.0
H1064 H 0.63023 0.39368 0.14067 0.0
H1065 H 0.61263 0.41888 0.07281 0.0
H1066 H 0.58031 0.36518 0.15277 0.0
H1067 H 0.5963 0.34259 0.13892 0.0
H1068 H 0.61096 0.36247 0.15806 0.0
H1069 H 0.5833 0.40217 0.05025 0.0
H1070 H 0.57507 0.37281 0.05717 0.0
H1071 H 0.55865 0.39645 0.06857 0.0
H1072 H 0.54913 0.3061 0.08951 0.0
H1073 H 0.50928 0.36122 0.11987 0.0
H1074 H 0.60366 0.3286 0.09977 0.0
H1075 H 0.59647 0.33946 0.07171 0.0
H1076 H 0.58829 0.31034 0.07961 0.0
H1077 H 0.55478 0.39606 0.13701 0.0
H1078 H 0.52486 0.39756 0.12816 0.0
H1079 H 0.54765 0.40631 0.10867 0.0
C1080 C 0.02646 0.27374 0.52742 0.0
C1081 C 0.03659 0.27643 0.50549 0.0
C1082 C 0.00315 0.27951 0.53117 0.0
C1083 C 0.98977 0.28815 0.51253 0.0
C1084 C -0.00058 0.28926 0.49003 0.0
C1085 C 0.02272 0.28334 0.48677 0.0
C1086 C 0.99333 0.27785 0.55535 0.0
C1087 C 0.98564 0.29825 0.46967 0.0
C1088 C 0.92463 0.2958 0.51666 0.0
C1089 C 0.92288 0.31965 0.52113 0.0
C1090 C 0.94632 0.28505 0.51457 0.0
C1091 C 0.96667 0.29851 0.5169 0.0
C1092 C 0.96501 0.32242 0.52214 0.0
C1093 C 0.94312 0.33269 0.52424 0.0
C1094 C 0.94748 0.25949 0.50916 0.0
C1095 C 0.98636 0.33735 0.52477 0.0
H1096 H 0.03701 0.26825 0.54195 0.0
H1097 H 0.03035 0.28523 0.46971 0.0
H1098 H 0.99125 0.29552 0.56262 0.0
H1099 H 0.97594 0.26966 0.55507 0.0
H1100 H 0.00476 0.26776 0.56711 0.0
H1101 H 0.99486 0.29572 0.45297 0.0
H1102 H 0.96858 0.28946 0.46869 0.0
H1103 H 0.98232 0.31704 0.47199 0.0
H1104 H 0.90904 0.28558 0.51436 0.0
H1105 H 0.94192 0.35109 0.52778 0.0
H1106 H 0.95918 0.25057 0.52152 0.0
H1107 H 0.95477 0.25694 0.49156 0.0
H1108 H 0.93016 0.2511 0.50988 0.0
H1109 H -0.00192 0.32987 0.53804 0.0
H1110 H 0.98208 0.35542 0.52984 0.0
H1111 H -0.00396 0.33782 0.50816 0.0
C1112 C 0.71921 0.04478 0.50196 0.0
C1113 C 0.69757 0.05069 0.51133 0.0
C1114 C 0.72442 0.02172 0.49619 0.0
C1115 C 0.70743 0.00435 0.49954 0.0
C1116 C 0.68582 0.01016 0.50958 0.0
C1117 C 0.68124 0.03321 0.51551 0.0
C1118 C 0.74781 0.01604 0.48596 0.0
C1119 C 0.66716 0.99215 0.51331 0.0
C1120 C 0.70372 0.95003 0.46322 0.0
C1121 C 0.70949 0.93301 0.47955 0.0
C1122 C 0.70443 0.9736 0.46905 0.0
C1123 C 0.71145 0.98023 0.4916 0.0
C1124 C 0.71921 0.96324 0.50746 0.0
C1125 C 0.71794 0.93977 0.50131 0.0
C1126 C 0.69587 0.99121 0.45169 0.0
C1127 C 0.72732 0.96969 0.53146 0.0
H1128 H 0.73196 0.05821 0.49883 0.0
H1129 H 0.66447 0.03761 0.52274 0.0
H1130 H 0.75575 0.00123 0.4953 0.0
H1131 H 0.74572 0.01075 0.46761 0.0
H1132 H 0.75988 0.03102 0.48667 0.0
H1133 H 0.65147 -0.00054 0.52171 0.0
H1134 H 0.66203 0.98452 0.49642 0.0
H1135 H 0.67384 0.97786 0.52427 0.0
H1136 H 0.69725 0.94494 0.44635 0.0
H1137 H 0.72273 0.92667 0.51389 0.0
H1138 H 0.70812 0.00595 0.45039 0.0
H1139 H 0.67897 -0.00174 0.45757 0.0
H1140 H 0.6935 0.98358 0.43417 0.0
H1141 H 0.73914 0.98484 0.5308 0.0
H1142 H 0.7364 0.9551 0.54015 0.0
H1143 H 0.71218 0.97464 0.54222 0.0
C1144 C 0.96183 0.71746 0.49483 0.0
C1145 C 0.95638 0.69529 0.48644 0.0
C1146 C 0.98496 0.72416 0.49827 0.0
C1147 C 0.00293 0.70833 0.49307 0.0
C1148 C -0.00248 0.68627 0.48379 0.0
C1149 C 0.97431 0.68001 0.48065 0.0
C1150 C 0.99013 0.74779 0.50819 0.0
C1151 C 0.01624 0.66897 0.4778 0.0
C1152 C 0.06609 0.72319 0.48468 0.0
C1153 C 0.07569 0.71375 0.50491 0.0
C1154 C 0.04203 0.72329 0.48124 0.0
C1155 C 0.0274 0.71391 0.49854 0.0
C1156 C 0.03689 0.70652 0.5199 0.0
C1157 C 0.06097 0.70647 0.5228 0.0
C1158 C 0.03252 0.73146 0.45829 0.0
C1159 C 0.02181 0.69674 0.53891 0.0
H1160 H 0.94802 0.72936 0.49931 0.0
H1161 H 0.97022 0.66295 0.47396 0.0
H1162 H -0.0027 0.74589 0.52592 0.0
H1163 H 0.00343 0.75677 0.4976 0.0
H1164 H 0.97442 0.75887 0.50911 0.0
H1165 H 0.00916 0.65306 0.46959 0.0
H1166 H 0.02901 0.67688 0.4658 0.0
H1167 H 0.02572 0.66388 0.49374 0.0
H1168 H 0.07737 0.72896 0.47082 0.0
H1169 H 0.06831 0.69947 0.53861 0.0
H1170 H 0.0166 0.74191 0.4608 0.0
H1171 H 0.02779 0.7162 0.4476 0.0
H1172 H 0.04538 0.74194 0.44852 0.0
H1173 H 0.00642 0.70787 0.54179 0.0
H1174 H 0.03137 0.69498 0.55553 0.0
H1175 H 0.01547 0.67934 0.53371 0.0
C1176 C 0.27651 0.03227 0.48015 0.0
C1177 C 0.29746 0.03997 0.47051 0.0
C1178 C 0.27277 0.00863 0.48458 0.0
C1179 C 0.29062 0.99255 0.47972 0.0
C1180 C 0.31155 0.00021 0.46945 0.0
C1181 C 0.3146 0.02379 0.46476 0.0
C1182 C 0.25002 0.00096 0.49497 0.0
C1183 C 0.33112 0.98363 0.4642 0.0
C1184 C 0.29935 0.93672 0.51254 0.0
C1185 C 0.29482 0.92037 0.49518 0.0
C1186 C 0.29641 0.96044 0.50831 0.0
C1187 C 0.2883 0.96784 0.48637 0.0
C1188 C 0.28147 0.95127 0.46965 0.0
C1189 C 0.28506 0.92768 0.47416 0.0
C1190 C 0.30407 0.97758 0.52653 0.0
C1191 C 0.27209 0.95848 0.44633 0.0
H1192 H 0.26314 0.04472 0.48445 0.0
H1193 H 0.33085 0.02964 0.45736 0.0
H1194 H 0.24286 0.98607 0.48514 0.0
H1195 H 0.25283 0.99505 0.51303 0.0
H1196 H 0.237 0.01513 0.49514 0.0
H1197 H 0.34617 0.99239 0.45599 0.0
H1198 H 0.33707 0.97524 0.48045 0.0
H1199 H 0.32502 0.96971 0.45245 0.0
H1200 H 0.30683 0.93116 0.52884 0.0
H1201 H 0.28122 0.91503 0.46081 0.0
H1202 H 0.2909 0.99137 0.52886 0.0
H1203 H 0.32036 0.98608 0.52083 0.0
H1204 H 0.30724 0.96915 0.54354 0.0
H1205 H 0.25946 0.97285 0.4482 0.0
H1206 H 0.26355 0.94383 0.43722 0.0
H1207 H 0.28652 0.96484 0.43533 0.0
C1208 C 0.47741 0.96139 0.26162 0.0
C1209 C 0.4973 0.94805 0.26561 0.0
C1210 C 0.47775 0.98547 0.26496 0.0
C1211 C 0.4985 -0.0037 0.27228 0.0
C1212 C 0.51911 0.98318 0.27419 0.0
C1213 C 0.51824 0.95917 0.2709 0.0
C1214 C 0.45545 -0.00108 0.26262 0.0
C1215 C 0.54168 0.99414 0.28165 0.0
C1216 C 0.50375 0.06176 0.27652 0.0
C1217 C 0.4999 0.06528 0.30027 0.0
C1218 C 0.50287 0.03943 0.26691 0.0
C1219 C 0.49798 0.0203 0.28144 0.0
C1220 C 0.49358 0.02383 0.3053 0.0
C1221 C 0.49463 0.04627 0.31442 0.0
C1222 C 0.50766 0.03623 0.2414 0.0
C1223 C 0.48821 0.00385 0.32136 0.0
H1224 H 0.46118 0.9529 0.25742 0.0
H1225 H 0.53376 0.94895 0.27366 0.0
H1226 H 0.44868 0.00307 0.28013 0.0
H1227 H 0.45844 0.01557 0.25349 0.0
H1228 H 0.44199 0.98895 0.25314 0.0
H1229 H 0.55666 0.98236 0.279 0.0
H1230 H 0.54485 0.01044 0.27197 0.0
H1231 H 0.54072 -0.00139 0.30033 0.0
H1232 H 0.50779 0.07641 0.26548 0.0
H1233 H 0.49149 0.04885 0.33275 0.0
H1234 H 0.49343 0.02628 0.23316 0.0
H1235 H 0.5238 0.02606 0.23908 0.0
H1236 H 0.50961 0.05302 0.2322 0.0
H1237 H 0.47314 0.99392 0.31476 0.0
H1238 H 0.48432 0.00968 0.33929 0.0
H1239 H 0.50319 0.99182 0.322 0.0
C1240 C 0.93792 0.48957 0.27294 0.0
C1241 C 0.92611 0.51049 0.26931 0.0
C1242 C 0.96206 0.48918 0.27536 0.0
C1243 C 0.9746 0.51021 0.27409 0.0
C1244 C 0.96306 0.53093 0.26785 0.0
C1245 C 0.93887 0.53082 0.26547 0.0
C1246 C 0.97375 0.46665 0.28168 0.0
C1247 C 0.97589 0.55365 0.26601 0.0
C1248 C 0.02403 0.51407 0.31687 0.0
C1249 C 0.04332 0.50966 0.30281 0.0
C1250 C 0.00168 0.51487 0.30752 0.0
C1251 C -0.00149 0.51117 0.28347 0.0
C1252 C 0.01792 0.50733 0.26902 0.0
C1253 C 0.04017 0.5066 0.27888 0.0
C1254 C 0.98139 0.51912 0.32353 0.0
C1255 C 0.01515 0.50342 0.24331 0.0
H1256 H 0.92819 0.47371 0.27552 0.0
H1257 H 0.92989 0.54703 0.26241 0.0
H1258 H 0.99018 0.46451 0.27195 0.0
H1259 H 0.97807 0.46678 0.30041 0.0
H1260 H 0.96245 0.45146 0.27818 0.0
H1261 H 0.96557 0.56693 0.25665 0.0
H1262 H 0.97962 0.56025 0.28367 0.0
H1263 H 0.9927 0.55135 0.25699 0.0
H1264 H 0.02632 0.51659 0.33533 0.0
H1265 H 0.05502 0.50325 0.2679 0.0
H1266 H 0.96971 0.50384 0.32346 0.0
H1267 H 0.97118 0.5342 0.31741 0.0
H1268 H 0.98693 0.52245 0.34166 0.0
H1269 H 0.00609 0.48675 0.24028 0.0
H1270 H 0.03208 0.50295 0.23417 0.0
H1271 H 0.00432 0.51728 0.23556 0.0
C1272 C 0.49726 0.94587 0.71288 0.0
C1273 C 0.51055 0.94041 0.69327 0.0
C1274 C 0.49033 0.96878 0.71725 0.0
C1275 C 0.49645 0.98642 0.70135 0.0
C1276 C 0.51056 0.9811 0.68201 0.0
C1277 C 0.51763 0.95821 0.67835 0.0
C1278 C 0.47581 0.97395 0.73837 0.0
C1279 C 0.51731 -0.0006 0.66453 0.0
C1280 C 0.45923 0.03911 0.69059 0.0
C1281 C 0.47349 0.05681 0.69912 0.0
C1282 C 0.4658 0.01583 0.69254 0.0
C1283 C 0.4869 0.01016 0.7037 0.0
C1284 C 0.50029 0.02781 0.7142 0.0
C1285 C 0.49354 0.05101 0.71156 0.0
C1286 C 0.45113 -0.00249 0.68094 0.0
C1287 C 0.52253 0.02237 0.72683 0.0
H1288 H 0.4919 0.93219 0.72458 0.0
H1289 H 0.52789 0.95413 0.66316 0.0
H1290 H 0.48268 0.98933 0.74764 0.0
H1291 H 0.45783 0.97806 0.73298 0.0
H1292 H 0.47525 0.95908 0.75058 0.0
H1293 H 0.5289 0.99251 0.65079 0.0
H1294 H 0.50152 0.0065 0.65617 0.0
H1295 H 0.52624 0.01399 0.67328 0.0
H1296 H 0.44368 0.04349 0.68101 0.0
H1297 H 0.50446 0.06464 0.71848 0.0
H1298 H 0.44798 0.9828 0.69289 0.0
H1299 H 0.4605 0.9906 0.66564 0.0
H1300 H 0.43415 0.00443 0.67508 0.0
H1301 H 0.52029 0.00707 0.73825 0.0
H1302 H 0.52857 0.03724 0.73745 0.0
H1303 H 0.53625 0.01811 0.71406 0.0
C1304 C 0.94414 0.47744 0.72768 0.0
C1305 C 0.93648 0.50019 0.72388 0.0
C1306 C 0.96748 0.47147 0.7245 0.0
C1307 C 0.98347 0.4887 0.71754 0.0
C1308 C 0.97621 0.51205 0.71569 0.0
C1309 C 0.95276 0.51751 0.71883 0.0
C1310 C 0.97459 0.4464 0.72674 0.0
C1311 C 0.99281 0.531 0.70859 0.0
C1312 C 0.04818 0.47668 0.71501 0.0
C1313 C 0.05128 0.47235 0.69128 0.0
C1314 C 0.0261 0.48154 0.72403 0.0
C1315 C 0.00677 0.48197 0.70896 0.0
C1316 C 0.00973 0.47689 0.68515 0.0
C1317 C 0.03194 0.47218 0.67661 0.0
C1318 C 0.02355 0.48688 0.74951 0.0
C1319 C 0.9895 0.477 0.66852 0.0
H1320 H 0.93169 0.46396 0.73172 0.0
H1321 H 0.947 0.53518 0.71614 0.0
H1322 H 0.97734 0.43899 0.70922 0.0
H1323 H 0.99118 0.44484 0.73632 0.0
H1324 H 0.96121 0.43588 0.73574 0.0
H1325 H 0.98526 0.54853 0.71108 0.0
H1326 H 0.00913 0.52982 0.71866 0.0
H1327 H -0.00269 0.52891 0.69002 0.0
H1328 H 0.06306 0.47685 0.72646 0.0
H1329 H 0.03417 0.46871 0.65829 0.0
H1330 H 0.00983 0.47589 0.75729 0.0
H1331 H 0.01812 0.50518 0.75174 0.0
H1332 H 0.03995 0.48413 0.7592 0.0
H1333 H 0.97575 0.46508 0.67472 0.0
H1334 H 0.99461 0.47173 0.65072 0.0
H1335 H 0.98187 0.49463 0.66769 0.0
C1336 C 0.27014 0.50293 0.95372 0.0
C1337 C 0.2813 0.4818 0.94928 0.0
C1338 C 0.26845 0.51162 0.97633 0.0
C1339 C 0.27859 0.4991 0.99478 0.0
C1340 C 0.28865 0.47712 0.99057 0.0
C1341 C 0.28968 0.46862 0.96784 0.0
C1342 C 0.25704 0.53483 0.98024 0.0
C1343 C 0.29985 0.46333 0.00979 0.0
C1344 C 0.3053 0.53164 0.04497 0.0
C1345 C 0.29012 0.52613 0.0631 0.0
C1346 C 0.30126 0.52358 0.02245 0.0
C1347 C 0.28131 0.51006 0.01788 0.0
C1348 C 0.2651 0.50574 0.03575 0.0
C1349 C 0.2698 0.51368 0.05826 0.0
C1350 C 0.31904 0.52847 0.00386 0.0
C1351 C 0.24335 0.4919 0.03135 0.0
H1352 H 0.2634 0.51305 0.93941 0.0
H1353 H 0.29833 0.45229 0.96449 0.0
H1354 H 0.24549 0.53419 -0.00441 0.0
H1355 H 0.27052 0.54809 0.9837 0.0
H1356 H 0.24678 0.54047 0.96497 0.0
H1357 H 0.30518 0.44576 0.004 0.0
H1358 H 0.31544 0.47265 0.01611 0.0
H1359 H 0.28781 0.46151 0.02465 0.0
H1360 H 0.32102 0.54127 0.04854 0.0
H1361 H 0.25789 0.50953 0.07218 0.0
H1362 H 0.31067 0.53657 0.98858 0.0
H1363 H 0.32694 0.51195 -0.00201 0.0
H1364 H 0.33309 0.5401 0.01002 0.0
H1365 H 0.23447 0.49817 0.01549 0.0
H1366 H 0.23106 0.49284 0.04613 0.0
H1367 H 0.24794 0.47347 0.02844 0.0
C1368 C 0.51855 0.27768 0.95133 0.0
C1369 C 0.50362 0.27333 0.93271 0.0
C1370 C 0.51036 0.27691 0.97419 0.0
C1371 C 0.48681 0.27134 0.97837 0.0
C1372 C 0.47248 0.26428 0.95981 0.0
C1373 C 0.48102 0.26552 0.93712 0.0
C1374 C 0.52623 0.28445 0.99356 0.0
C1375 C 0.44748 0.25761 0.96362 0.0
C1376 C 0.46813 0.26828 0.04142 0.0
C1377 C 0.46041 0.29105 0.0451 0.0
C1378 C 0.47597 0.26116 0.01951 0.0
C1379 C 0.47627 0.27728 0.00105 0.0
C1380 C 0.4675 0.29993 0.00444 0.0
C1381 C 0.45957 0.30648 0.02638 0.0
C1382 C 0.4848 0.23675 0.01639 0.0
C1383 C 0.46739 0.31765 0.98514 0.0
H1384 H 0.53608 0.28358 0.94803 0.0
H1385 H 0.46952 0.26174 0.92275 0.0
H1386 H 0.52128 0.30212 -0.00069 0.0
H1387 H 0.52453 0.27276 0.00871 0.0
H1388 H 0.54468 0.28482 0.98805 0.0
H1389 H 0.44026 0.24808 0.94853 0.0
H1390 H 0.44559 0.2467 0.97933 0.0
H1391 H 0.43699 0.2735 0.96626 0.0
H1392 H 0.46876 0.25623 0.05581 0.0
H1393 H 0.45348 0.32404 0.02902 0.0
H1394 H 0.50397 0.23701 0.01499 0.0
H1395 H 0.47795 0.22906 0.00016 0.0
H1396 H 0.47995 0.2254 0.03117 0.0
H1397 H 0.48541 0.32112 0.97939 0.0
H1398 H 0.45941 0.33431 0.99052 0.0
H1399 H 0.4577 0.31088 0.96999 0.0
C1400 C 0.71005 0.47648 0.95368 0.0
C1401 C 0.68666 0.48168 0.94947 0.0
C1402 C 0.7174 0.46897 0.97564 0.0
C1403 C 0.70097 0.46675 0.99369 0.0
C1404 C 0.67741 0.47221 0.98955 0.0
C1405 C 0.67056 0.47956 0.96751 0.0
C1406 C 0.74262 0.46322 0.97948 0.0
C1407 C 0.65935 0.47024 0.00843 0.0
C1408 C 0.70535 0.42927 0.04696 0.0
C1409 C 0.70762 0.44624 0.06417 0.0
C1410 C 0.70548 0.43539 0.02344 0.0
C1411 C 0.70798 0.45898 0.01716 0.0
C1412 C 0.71295 0.47571 0.03436 0.0
C1413 C 0.71273 0.46911 0.0577 0.0
C1414 C 0.70048 0.41699 0.00555 0.0
C1415 C 0.71598 0.501 0.0284 0.0
H1416 H 0.72256 0.47799 0.93976 0.0
H1417 H 0.65249 0.4836 0.96441 0.0
H1418 H 0.74968 0.47374 0.99393 0.0
H1419 H 0.74439 0.44476 0.98453 0.0
H1420 H 0.7533 0.46636 0.96377 0.0
H1421 H 0.64178 0.47523 0.00234 0.0
H1422 H 0.65861 0.45218 0.01496 0.0
H1423 H 0.66408 0.48154 0.02324 0.0
H1424 H 0.70164 0.41151 0.05182 0.0
H1425 H 0.71494 0.48226 0.07094 0.0
H1426 H 0.71144 0.41943 0.98995 0.0
H1427 H 0.68211 0.41835 2e-05 0.0
H1428 H 0.70339 0.39928 0.0125 0.0
H1429 H 0.72694 0.50312 0.01276 0.0
H1430 H 0.7239 0.51088 0.0429 0.0
H1431 H 0.69879 0.50869 0.02453 0.0
C1432 C 0.46619 0.68678 0.95898 0.0
C1433 C 0.47484 0.7006 0.941 0.0
C1434 C 0.47548 0.68829 0.98134 0.0
C1435 C 0.49337 0.70447 0.9859 0.0
C1436 C 0.50079 0.71979 0.96826 0.0
C1437 C 0.49166 0.71744 0.94587 0.0
C1438 C 0.46731 0.67141 -0.00039 0.0
C1439 C 0.51923 0.7378 0.97271 0.0
C1440 C 0.50607 0.71113 0.04984 0.0
C1441 C 0.52474 0.69585 0.05257 0.0
C1442 C 0.49664 0.71546 0.02788 0.0
C1443 C 0.50568 0.70362 0.00843 0.0
C1444 C 0.52522 0.68899 0.01099 0.0
C1445 C 0.53475 0.68554 0.03306 0.0
C1446 C 0.47634 0.7318 0.02569 0.0
C1447 C 0.53512 0.67574 0.9907 0.0
H1448 H 0.45329 0.67365 0.95525 0.0
H1449 H 0.49825 0.72825 0.93198 0.0
H1450 H 0.48174 0.65963 0.00438 0.0
H1451 H 0.46206 0.68078 0.01553 0.0
H1452 H 0.45245 0.66074 0.9936 0.0
H1453 H 0.52025 0.75072 0.95848 0.0
H1454 H 0.51583 0.74701 0.98924 0.0
H1455 H 0.53635 0.72922 0.97431 0.0
H1456 H 0.49847 0.71927 0.06497 0.0
H1457 H 0.5491 0.67362 0.03521 0.0
H1458 H 0.46028 0.72173 0.02255 0.0
H1459 H 0.47877 0.74361 0.0107 0.0
H1460 H 0.47386 0.74237 0.04158 0.0
H1461 H 0.52203 0.66323 0.9842 0.0
H1462 H 0.55106 0.66603 -0.00461 0.0
H1463 H 0.53926 0.68772 0.97626 0.0
C1464 C 0.18067 0.24683 0.45298 0.0
C1465 C 0.15896 0.24379 0.46343 0.0
C1466 C 0.19634 0.2284 0.45122 0.0
C1467 C 0.19007 0.20641 0.46006 0.0
C1468 C 0.16786 0.20299 0.46985 0.0
C1469 C 0.15256 0.22176 0.47147 0.0
C1470 C 0.21993 0.23267 0.44071 0.0
C1471 C 0.16058 0.17971 0.47935 0.0
C1472 C 0.22698 0.15498 0.44239 0.0
C1473 C 0.24194 0.15308 0.46143 0.0
C1474 C 0.20968 0.17205 0.44181 0.0
C1475 C 0.20743 0.18752 0.46069 0.0
C1476 C 0.22225 0.18545 0.48009 0.0
C1477 C 0.2393 0.16823 0.48024 0.0
C1478 C 0.19406 0.17377 0.4209 0.0
C1479 C 0.22038 0.20169 0.50054 0.0
H1480 H 0.1857 0.26378 0.44664 0.0
H1481 H 0.13573 0.21925 0.47943 0.0
H1482 H 0.23349 0.23051 0.45418 0.0
H1483 H 0.2235 0.21981 0.42689 0.0
H1484 H 0.22152 0.25034 0.43324 0.0
H1485 H 0.14207 0.17946 0.48464 0.0
H1486 H 0.16343 0.16597 0.46622 0.0
H1487 H 0.17136 0.17533 0.49465 0.0
H1488 H 0.2289 0.1433 0.42782 0.0
H1489 H 0.25077 0.16686 0.49505 0.0
H1490 H 0.19658 0.19076 0.41228 0.0
H1491 H 0.17564 0.17281 0.42633 0.0
H1492 H 0.19745 0.15982 0.40809 0.0
H1493 H 0.22357 0.21977 0.49481 0.0
H1494 H 0.23293 0.1974 0.51449 0.0
H1495 H 0.20262 0.20105 0.50787 0.0
C1496 C 0.74954 0.18322 0.51037 0.0
C1497 C 0.72857 0.18571 0.49836 0.0
C1498 C 0.76606 0.20104 0.51044 0.0
C1499 C 0.76146 0.22176 0.49816 0.0
C1500 C 0.74042 0.22431 0.48586 0.0
C1501 C 0.72421 0.20625 0.48613 0.0
C1502 C 0.78833 0.19779 0.52378 0.0
C1503 C 0.73498 0.24617 0.47252 0.0
C1504 C 0.7932 0.27648 0.51562 0.0
C1505 C 0.81058 0.27773 0.49868 0.0
C1506 C 0.77716 0.25826 0.51572 0.0
C1507 C 0.77851 0.24096 0.49842 0.0
C1508 C 0.79594 0.24214 0.48123 0.0
C1509 C 0.81181 0.26053 0.48158 0.0
C1510 C 0.75878 0.25751 0.53434 0.0
C1511 C 0.79781 0.224 0.46246 0.0
H1512 H 0.75302 0.16739 0.51985 0.0
H1513 H 0.70807 0.2083 0.47676 0.0
H1514 H 0.80339 0.19979 0.51201 0.0
H1515 H 0.78986 0.21134 0.53733 0.0
H1516 H 0.78935 0.18052 0.53221 0.0
H1517 H 0.71798 0.24523 0.46356 0.0
H1518 H 0.7348 0.26123 0.48446 0.0
H1519 H 0.74866 0.24945 0.45942 0.0
H1520 H 0.79218 0.28969 0.52892 0.0
H1521 H 0.8252 0.26139 0.46844 0.0
H1522 H 0.7601 0.24107 0.54421 0.0
H1523 H 0.74131 0.25794 0.52632 0.0
H1524 H 0.76024 0.27222 0.54666 0.0
H1525 H 0.80025 0.20664 0.47034 0.0
H1526 H 0.81243 0.22741 0.45042 0.0
H1527 H 0.7815 0.22339 0.4523 0.0
C1528 C 0.82858 0.7495 0.47386 0.0
C1529 C 0.82291 0.72618 0.47006 0.0
C1530 C 0.81194 0.76695 0.47128 0.0
C1531 C 0.78909 0.7609 0.46479 0.0
C1532 C 0.7834 0.73749 0.46027 0.0
C1533 C 0.80042 0.72037 0.46294 0.0
C1534 C 0.81863 0.79177 0.47621 0.0
C1535 C 0.75917 0.73046 0.45334 0.0
C1536 C 0.742 0.8016 0.48507 0.0
C1537 C 0.73749 0.8145 0.46497 0.0
C1538 C 0.75848 0.78385 0.48507 0.0
C1539 C 0.77081 0.7789 0.46449 0.0
C1540 C 0.76618 0.79161 0.44404 0.0
C1541 C 0.74951 0.80929 0.44451 0.0
C1542 C 0.76292 0.7706 0.50722 0.0
C1543 C 0.77908 0.78674 0.42181 0.0
H1544 H 0.84598 0.75414 0.47921 0.0
H1545 H 0.79596 0.70239 0.45986 0.0
H1546 H 0.81381 0.80303 0.4614 0.0
H1547 H 0.80901 0.79812 0.4916 0.0
H1548 H 0.83748 0.79374 0.47956 0.0
H1549 H 0.758 0.71179 0.44881 0.0
H1550 H 0.74703 0.73399 0.46782 0.0
H1551 H 0.75327 0.74084 0.43828 0.0
H1552 H 0.7327 0.80543 0.50093 0.0
H1553 H 0.74607 0.81917 0.42891 0.0
H1554 H 0.78115 0.77313 0.51278 0.0
H1555 H 0.7604 0.75177 0.50427 0.0
H1556 H 0.75133 0.77615 0.52154 0.0
H1557 H 0.79785 0.79001 0.42433 0.0
H1558 H 0.77285 0.79763 0.40722 0.0
H1559 H 0.77712 0.76824 0.41697 0.0
C1560 C 0.19664 0.73531 0.51417 0.0
C1561 C 0.20246 0.71176 0.51547 0.0
C1562 C 0.21384 0.75238 0.51317 0.0
C1563 C 0.23742 0.74573 0.51355 0.0
C1564 C 0.24346 0.72204 0.51524 0.0
C1565 C 0.22586 0.70528 0.51616 0.0
C1566 C 0.20675 0.77752 0.51134 0.0
C1567 C 0.26847 0.7144 0.51576 0.0
C1568 C 0.27893 0.78918 0.48736 0.0
C1569 C 0.287 0.80078 0.50711 0.0
C1570 C 0.26331 0.7707 0.48927 0.0
C1571 C 0.25564 0.76368 0.51146 0.0
C1572 C 0.26426 0.77483 0.53151 0.0
C1573 C 0.27986 0.7933 0.5291 0.0
C1574 C 0.25444 0.7592 0.4675 0.0
C1575 C 0.25648 0.76771 0.55546 0.0
H1576 H 0.17859 0.74047 0.51366 0.0
H1577 H 0.23047 0.68711 0.51722 0.0
H1578 H 0.21448 0.78762 0.52575 0.0
H1579 H 0.2134 0.78499 0.49492 0.0
H1580 H 0.18764 0.77979 0.51181 0.0
H1581 H 0.27025 0.69536 0.51798 0.0
H1582 H 0.27718 0.71951 0.4994 0.0
H1583 H 0.27776 0.72318 0.53011 0.0
H1584 H 0.28446 0.7948 0.47031 0.0
H1585 H 0.28613 0.80211 0.54444 0.0
H1586 H 0.23554 0.76228 0.46578 0.0
H1587 H 0.25705 0.74018 0.46849 0.0
H1588 H 0.26317 0.7658 0.45166 0.0
H1589 H 0.23772 0.77135 0.55751 0.0
H1590 H 0.26607 0.77702 0.56931 0.0
H1591 H 0.25892 0.7488 0.55791 0.0
C1592 C 0.50982 0.19578 0.25521 0.0
C1593 C 0.49716 0.19871 0.27574 0.0
C1594 C 0.50719 0.21119 0.23665 0.0
C1595 C 0.49144 0.22985 0.23867 0.0
C1596 C 0.47906 0.23327 0.25954 0.0
C1597 C 0.48214 0.21768 0.2779 0.0
C1598 C 0.52085 0.20717 0.21469 0.0
C1599 C 0.46209 0.25299 0.26224 0.0
C1600 C 0.49691 0.27985 0.19655 0.0
C1601 C 0.47997 0.27422 0.18006 0.0
C1602 C 0.50081 0.26558 0.21579 0.0
C1603 C 0.48734 0.24531 0.21862 0.0
C1604 C 0.47009 0.23962 0.20215 0.0
C1605 C 0.46665 0.25412 0.18299 0.0
C1606 C 0.51946 0.27208 0.23297 0.0
C1607 C 0.45532 0.21816 0.20473 0.0
H1608 H 0.52156 0.18123 0.25349 0.0
H1609 H 0.4723 0.22004 0.29372 0.0
H1610 H 0.50883 0.20339 0.20017 0.0
H1611 H 0.53066 0.22302 0.20999 0.0
H1612 H 0.53323 0.19254 0.21635 0.0
H1613 H 0.45455 0.25378 0.27993 0.0
H1614 H 0.47074 0.26974 0.25848 0.0
H1615 H 0.44778 0.251 0.24956 0.0
H1616 H 0.50731 0.29533 0.19435 0.0
H1617 H 0.45349 0.24972 0.17034 0.0
H1618 H 0.53263 0.25811 0.23391 0.0
H1619 H 0.51186 0.27392 0.25053 0.0
H1620 H 0.52829 0.28854 0.22832 0.0
H1621 H 0.46648 0.20251 0.20475 0.0
H1622 H 0.44237 0.21644 0.1906 0.0
H1623 H 0.44603 0.21856 0.22155 0.0
C1624 C 0.79432 0.49758 0.25345 0.0
C1625 C 0.79471 0.48829 0.27587 0.0
C1626 C 0.77547 0.49367 0.23871 0.0
C1627 C 0.75675 0.47988 0.24651 0.0
C1628 C 0.75685 0.47075 0.26925 0.0
C1629 C 0.77581 0.47521 0.28376 0.0
C1630 C 0.77578 0.50397 0.21465 0.0
C1631 C 0.73725 0.45576 0.278 0.0
C1632 C 0.70137 0.48506 0.21179 0.0
C1633 C 0.70405 0.46692 0.19586 0.0
C1634 C 0.71805 0.48906 0.22898 0.0
C1635 C 0.73758 0.47433 0.2304 0.0
C1636 C 0.7397 0.45524 0.21517 0.0
C1637 C 0.72297 0.45187 0.19793 0.0
C1638 C 0.71537 0.50972 0.2448 0.0
C1639 C 0.76012 0.43893 0.21647 0.0
H1640 H 0.80882 0.50786 0.24737 0.0
H1641 H 0.77608 0.46794 0.30107 0.0
H1642 H 0.77604 0.48989 0.20156 0.0
H1643 H 0.75983 0.51426 0.21166 0.0
H1644 H 0.79106 0.51531 0.21173 0.0
H1645 H 0.73951 0.45084 0.29647 0.0
H1646 H 0.72049 0.46495 0.27609 0.0
H1647 H 0.73618 0.43972 0.26747 0.0
H1648 H 0.68678 0.49677 0.2102 0.0
H1649 H 0.72495 0.43769 0.18578 0.0
H1650 H 0.72915 0.52257 0.24094 0.0
H1651 H 0.71746 0.50444 0.26315 0.0
H1652 H 0.69826 0.51829 0.24274 0.0
H1653 H 0.77617 0.44826 0.21148 0.0
H1654 H 0.75804 0.42373 0.20485 0.0
H1655 H 0.7625 0.43263 0.23448 0.0
C1656 C 0.52586 0.73464 0.17876 0.0
C1657 C 0.50633 0.72997 0.16509 0.0
C1658 C 0.52548 0.75228 0.19542 0.0
C1659 C 0.50505 0.76546 0.19848 0.0
C1660 C 0.48533 0.76097 0.18464 0.0
C1661 C 0.48622 0.74328 0.16805 0.0
C1662 C 0.54685 0.75668 0.20987 0.0
C1663 C 0.46324 0.77469 0.18751 0.0
C1664 C 0.49647 0.79543 0.25617 0.0
C1665 C 0.50283 0.81826 0.25084 0.0
C1666 C 0.49703 0.77807 0.23923 0.0
C1667 C 0.50418 0.78371 0.21648 0.0
C1668 C 0.51058 0.80671 0.21095 0.0
C1669 C 0.50979 0.82375 0.22821 0.0
C1670 C 0.49001 0.75369 0.24569 0.0
C1671 C 0.51833 0.81328 0.18683 0.0
H1672 H 0.54148 0.72445 0.17651 0.0
H1673 H 0.47106 0.73976 0.15755 0.0
H1674 H 0.55247 0.77496 0.20791 0.0
H1675 H 0.54284 0.75391 0.22846 0.0
H1676 H 0.56149 0.7452 0.20497 0.0
H1677 H 0.44957 0.76925 0.1751 0.0
H1678 H 0.45649 0.77253 0.20538 0.0
H1679 H 0.46674 0.79342 0.18497 0.0
H1680 H 0.49103 0.79108 0.27361 0.0
H1681 H 0.51474 0.84137 0.22398 0.0
H1682 H 0.50464 0.74163 0.24257 0.0
H1683 H 0.47539 0.74791 0.23462 0.0
H1684 H 0.48469 0.75223 0.26413 0.0
H1685 H 0.53381 0.803 0.18191 0.0
H1686 H 0.52266 0.83198 0.18537 0.0
H1687 H 0.50449 0.80918 0.17414 0.0
C1688 C 0.17879 0.49694 0.26571 0.0
C1689 C 0.1792 0.51141 0.28521 0.0
C1690 C 0.19668 0.49758 0.24935 0.0
C1691 C 0.21527 0.51325 0.25245 0.0
C1692 C 0.21589 0.52782 0.27215 0.0
C1693 C 0.19788 0.52662 0.28841 0.0
C1694 C 0.1956 0.48159 0.22865 0.0
C1695 C 0.23538 0.54489 0.27585 0.0
C1696 C 0.27029 0.50076 0.21895 0.0
C1697 C 0.26736 0.51484 0.19938 0.0
C1698 C 0.25366 0.50038 0.23663 0.0
C1699 C 0.23381 0.51463 0.23475 0.0
C1700 C 0.2311 0.52941 0.21538 0.0
C1701 C 0.24787 0.52924 0.19783 0.0
C1702 C 0.25697 0.48425 0.25697 0.0
C1703 C 0.21025 0.54504 0.21296 0.0
H1704 H 0.16446 0.48504 0.26323 0.0
H1705 H 0.19823 0.5379 0.30342 0.0
H1706 H 0.19481 0.49191 0.21246 0.0
H1707 H 0.21152 0.47085 0.2278 0.0
H1708 H 0.18032 0.46989 0.22922 0.0
H1709 H 0.23345 0.55474 0.29227 0.0
H1710 H 0.25225 0.5357 0.27614 0.0
H1711 H 0.23595 0.55737 0.26123 0.0
H1712 H 0.28532 0.48957 0.22022 0.0
H1713 H 0.24562 0.5403 0.18282 0.0
H1714 H 0.24287 0.47118 0.25724 0.0
H1715 H 0.25596 0.49406 0.27346 0.0
H1716 H 0.27386 0.47504 0.25631 0.0
H1717 H 0.19431 0.53441 0.21143 0.0
H1718 H 0.21147 0.5565 0.19754 0.0
H1719 H 0.20834 0.556 0.22863 0.0
C1720 C 0.47805 0.73774 0.80923 0.0
C1721 C 0.4925 0.7183 0.8073 0.0
C1722 C 0.47775 0.75482 0.792 0.0
C1723 C 0.49238 0.75247 0.77249 0.0
C1724 C 0.50689 0.73283 0.77033 0.0
C1725 C 0.5067 0.71589 0.78774 0.0
C1726 C 0.4619 0.77546 0.79477 0.0
C1727 C 0.52282 0.72988 0.74978 0.0
C1728 C 0.47806 0.78732 0.71874 0.0
C1729 C 0.49305 0.8063 0.72109 0.0
C1730 C 0.47769 0.76959 0.73533 0.0
C1731 C 0.49281 0.77084 0.75458 0.0
C1732 C 0.5081 0.78986 0.75697 0.0
C1733 C 0.50797 0.80743 0.74023 0.0
C1734 C 0.46102 0.74964 0.73237 0.0
C1735 C 0.52457 0.79165 0.77723 0.0
H1736 H 0.46694 0.73964 0.82425 0.0
H1737 H 0.51793 0.70093 0.78617 0.0
H1738 H 0.47229 0.79161 0.79557 0.0
H1739 H 0.45026 0.77691 0.77954 0.0
H1740 H 0.4511 0.77432 0.81066 0.0
H1741 H 0.53277 0.71343 0.75055 0.0
H1742 H 0.51266 0.73016 0.73347 0.0
H1743 H 0.53525 0.74454 0.74901 0.0
H1744 H 0.46645 0.78637 0.704 0.0
H1745 H 0.51968 0.82199 0.74209 0.0
H1746 H 0.44912 0.74877 0.74745 0.0
H1747 H 0.47067 0.73303 0.73179 0.0
H1748 H 0.4505 0.7512 0.71633 0.0
H1749 H 0.51465 0.79219 0.79369 0.0
H1750 H 0.5357 0.80733 0.77626 0.0
H1751 H 0.53588 0.77613 0.7779 0.0
C1752 C 0.23914 0.48288 0.82213 0.0
C1753 C 0.26214 0.48726 0.81558 0.0
C1754 C 0.22131 0.48261 0.80568 0.0
C1755 C 0.22661 0.48687 0.78214 0.0
C1756 C 0.24975 0.49133 0.77538 0.0
C1757 C 0.26728 0.49145 0.79221 0.0
C1758 C 0.1968 0.47773 0.81348 0.0
C1759 C 0.25599 0.49598 0.7504 0.0
C1760 C 0.18411 0.4654 0.73697 0.0
C1761 C 0.17176 0.48567 0.73177 0.0
C1762 C 0.2021 0.46557 0.75326 0.0
C1763 C 0.20789 0.48653 0.76457 0.0
C1764 C 0.19558 0.50707 0.75936 0.0
C1765 C 0.17762 0.50639 0.74302 0.0
C1766 C 0.21484 0.44331 0.75847 0.0
C1767 C 0.20135 0.52975 0.77108 0.0
H1768 H 0.23503 0.47962 0.84016 0.0
H1769 H 0.285 0.49488 0.78703 0.0
H1770 H 0.18538 0.49248 0.80885 0.0
H1771 H 0.19 0.4622 0.80442 0.0
H1772 H 0.1956 0.47477 0.83246 0.0
H1773 H 0.27481 0.49926 0.74804 0.0
H1774 H 0.25095 0.48098 0.73949 0.0
H1775 H 0.24625 0.51124 0.74394 0.0
H1776 H 0.17969 0.44932 0.72833 0.0
H1777 H 0.1682 0.52214 0.73905 0.0
H1778 H 0.21298 0.43892 0.77709 0.0
H1779 H 0.23361 0.44552 0.75497 0.0
H1780 H 0.20833 0.42853 0.748 0.0
H1781 H 0.19905 0.52805 0.79009 0.0
H1782 H 0.19032 0.54423 0.76483 0.0
H1783 H 0.21977 0.53427 0.76794 0.0
C1784 C 0.46838 0.18722 0.73088 0.0
C1785 C 0.4815 0.1907 0.71074 0.0
C1786 C 0.46716 0.20432 0.74804 0.0
C1787 C 0.4795 0.22528 0.745 0.0
C1788 C 0.49213 0.22923 0.72437 0.0
C1789 C 0.49291 0.21189 0.70741 0.0
C1790 C 0.45335 0.19961 0.76977 0.0
C1791 C 0.50558 0.25137 0.72063 0.0
C1792 C 0.46509 0.27566 0.7846 0.0
C1793 C 0.48213 0.27327 0.80175 0.0
C1794 C 0.4641 0.26027 0.76582 0.0
C1795 C 0.48063 0.24225 0.76419 0.0
C1796 C 0.49807 0.23999 0.78125 0.0
C1797 C 0.49856 0.25549 0.79987 0.0
C1798 C 0.44521 0.26306 0.74794 0.0
C1799 C 0.5161 0.22105 0.77997 0.0
H1800 H 0.45934 0.17095 0.73345 0.0
H1801 H 0.50304 0.2147 0.69184 0.0
H1802 H 0.46523 0.1984 0.78483 0.0
H1803 H 0.4412 0.2141 0.77321 0.0
H1804 H 0.44326 0.18326 0.76862 0.0
H1805 H 0.51305 0.25248 0.70293 0.0
H1806 H 0.49426 0.26663 0.7235 0.0
H1807 H 0.51992 0.25243 0.73339 0.0
H1808 H 0.45234 0.28937 0.78597 0.0
H1809 H 0.51186 0.25362 0.813 0.0
H1810 H 0.43414 0.24734 0.74766 0.0
H1811 H 0.45291 0.2649 0.73043 0.0
H1812 H 0.43406 0.27836 0.75142 0.0
H1813 H 0.50754 0.20385 0.7807 0.0
H1814 H 0.5289 0.22213 0.7943 0.0
H1815 H 0.52552 0.22205 0.76324 0.0
C1816 C 0.72347 0.53981 0.8084 0.0
C1817 C 0.72248 0.52054 0.82317 0.0
C1818 C 0.74063 0.54154 0.79129 0.0
C1819 C 0.75708 0.52353 0.78889 0.0
C1820 C 0.75626 0.50411 0.80381 0.0
C1821 C 0.73899 0.50287 0.82082 0.0
C1822 C 0.74109 0.56255 0.77569 0.0
C1823 C 0.77348 0.48452 0.80167 0.0
C1824 C 0.78784 0.51556 0.73149 0.0
C1825 C 0.80975 0.5249 0.7363 0.0
C1826 C 0.77042 0.51527 0.74839 0.0
C1827 C 0.77498 0.52475 0.77052 0.0
C1828 C 0.79688 0.53468 0.77534 0.0
C1829 C 0.81407 0.53453 0.75818 0.0
C1830 C 0.7473 0.50437 0.74272 0.0
C1831 C 0.80225 0.54512 0.79872 0.0
H1832 H 0.7108 0.55355 0.81015 0.0
H1833 H 0.73834 0.48791 0.83216 0.0
H1834 H 0.75819 0.57125 0.77688 0.0
H1835 H 0.73871 0.55716 0.7574 0.0
H1836 H 0.72737 0.57528 0.78017 0.0
H1837 H 0.77057 0.47073 0.81479 0.0
H1838 H 0.7723 0.47667 0.78417 0.0
H1839 H 0.79138 0.49124 0.80372 0.0
H1840 H 0.78441 0.50804 0.71463 0.0
H1841 H 0.83093 0.54189 0.76195 0.0
H1842 H 0.73312 0.51698 0.74576 0.0
H1843 H 0.74416 0.48936 0.75432 0.0
H1844 H 0.74634 0.49831 0.72448 0.0
H1845 H 0.78924 0.55859 0.80307 0.0
H1846 H 0.81978 0.55305 0.79933 0.0
H1847 H 0.80117 0.53157 0.81231 0.0
loop_
_geom_bond_atom_site_label_1
_geom_bond_atom_site_label_2
_geom_bond_distance
_geom_bond_site_symmetry_2
_ccdc_geom_bond_type
C0 O1 1.160 . S
C0 O7 1.185 . S
O1 C0 1.160 . S
O2 Zn3 1.899 . S
O2 C10 1.284 . S
Zn3 O2 1.899 . S
Zn3 O4 2.032 . S
Zn3 O7 2.086 . S
Zn3 O12 1.977 . S
O4 Zn3 2.032 . S
O4 C8 1.278 . S
C5 O6 1.203 . S
C5 O12 1.267 . S
O6 C5 1.203 . S
O7 C0 1.185 . S
O7 Zn3 2.086 . S
C8 O4 1.278 . S
C8 O9 1.211 . S
O9 C8 1.211 . S
C10 O2 1.284 . S
C10 O11 1.273 . S
O11 C10 1.273 . S
O12 Zn3 1.977 . S
O12 C5 1.267 . S
C13 O14 1.160 . S
C13 O20 1.185 . S
O14 C13 1.160 . S
O15 Zn16 1.899 . S
O15 C23 1.284 . S
Zn16 O15 1.899 . S
Zn16 O17 2.032 . S
Zn16 O20 2.086 . S
Zn16 O25 1.977 . S
O17 Zn16 2.032 . S
O17 C21 1.278 . S
C18 O19 1.203 . S
C18 O25 1.267 . S
O19 C18 1.203 . S
O20 C13 1.185 . S
O20 Zn16 2.086 . S
C21 O17 1.278 . S
C21 O22 1.211 . S
O22 C21 1.211 . S
C23 O15 1.284 . S
C23 O24 1.273 . S
O24 C23 1.273 . S
O25 Zn16 1.977 . S
O25 C18 1.267 . S
C26 O27 1.160 . S
C26 O33 1.185 . S
O27 C26 1.160 . S
O28 Zn29 1.899 . S
O28 C36 1.284 . S
Zn29 O28 1.899 . S
Zn29 O30 2.032 . S
Zn29 O33 2.086 . S
Zn29 O38 1.977 . S
O30 Zn29 2.032 . S
O30 C34 1.278 . S
C31 O32 1.203 . S
C31 O38 1.267 . S
O32 C31 1.203 . S
O33 C26 1.185 . S
O33 Zn29 2.086 . S
C34 O30 1.278 . S
C34 O35 1.211 . S
O35 C34 1.211 . S
C36 O28 1.284 . S
C36 O37 1.273 . S
O37 C36 1.273 . S
O38 Zn29 1.977 . S
O38 C31 1.267 . S
C39 O40 1.160 . S
C39 O46 1.185 . S
O40 C39 1.160 . S
O41 Zn42 1.899 . S
O41 C49 1.284 . S
Zn42 O41 1.899 . S
Zn42 O43 2.032 . S
Zn42 O46 2.086 . S
Zn42 O51 1.977 . S
O43 Zn42 2.032 . S
O43 C47 1.278 . S
C44 O45 1.203 . S
C44 O51 1.267 . S
O45 C44 1.203 . S
O46 C39 1.185 . S
O46 Zn42 2.086 . S
C47 O43 1.278 . S
C47 O48 1.211 . S
O48 C47 1.211 . S
C49 O41 1.284 . S
C49 O50 1.273 . S
O50 C49 1.273 . S
O51 Zn42 1.977 . S
O51 C44 1.267 . S
C52 O53 1.160 . S
C52 O59 1.185 . S
O53 C52 1.160 . S
O54 Zn55 1.899 . S
O54 C62 1.284 . S
Zn55 O54 1.899 . S
Zn55 O56 2.032 . S
Zn55 O59 2.086 . S
Zn55 O64 1.977 . S
O56 Zn55 2.032 . S
O56 C60 1.278 . S
C57 O58 1.203 . S
C57 O64 1.267 . S
O58 C57 1.203 . S
O59 C52 1.185 . S
O59 Zn55 2.086 . S
C60 O56 1.278 . S
C60 O61 1.211 . S
O61 C60 1.211 . S
C62 O54 1.284 . S
C62 O63 1.273 . S
O63 C62 1.273 . S
O64 Zn55 1.977 . S
O64 C57 1.267 . S
C65 O66 1.160 . S
C65 O72 1.185 . S
O66 C65 1.160 . S
O67 Zn68 1.899 . S
O67 C75 1.284 . S
Zn68 O67 1.899 . S
Zn68 O69 2.032 . S
Zn68 O72 2.086 . S
Zn68 O77 1.977 . S
O69 Zn68 2.032 . S
O69 C73 1.278 . S
C70 O71 1.203 . S
C70 O77 1.267 . S
O71 C70 1.203 . S
O72 C65 1.185 . S
O72 Zn68 2.086 . S
C73 O69 1.278 . S
C73 O74 1.211 . S
O74 C73 1.211 . S
C75 O67 1.284 . S
C75 O76 1.273 . S
O76 C75 1.273 . S
O77 Zn68 1.977 . S
O77 C70 1.267 . S
C78 O79 1.160 . S
C78 O85 1.185 . S
O79 C78 1.160 . S
O80 Zn81 1.899 . S
O80 C88 1.284 . S
Zn81 O80 1.899 . S
Zn81 O82 2.032 . S
Zn81 O85 2.086 . S
Zn81 O90 1.977 . S
O82 Zn81 2.032 . S
O82 C86 1.278 . S
C83 O84 1.203 . S
C83 O90 1.267 . S
O84 C83 1.203 . S
O85 C78 1.185 . S
O85 Zn81 2.086 . S
C86 O82 1.278 . S
C86 O87 1.211 . S
O87 C86 1.211 . S
C88 O80 1.284 . S
C88 O89 1.273 . S
O89 C88 1.273 . S
O90 Zn81 1.977 . S
O90 C83 1.267 . S
C91 O92 1.160 . S
C91 O98 1.185 . S
O92 C91 1.160 . S
O93 Zn94 1.899 . S
O93 C101 1.284 . S
Zn94 O93 1.899 . S
Zn94 O95 2.032 . S
Zn94 O98 2.086 . S
Zn94 O103 1.977 . S
O95 Zn94 2.032 . S
O95 C99 1.278 . S
C96 O97 1.203 . S
C96 O103 1.267 . S
O97 C96 1.203 . S
O98 C91 1.185 . S
O98 Zn94 2.086 . S
C99 O95 1.278 . S
C99 O100 1.211 . S
O100 C99 1.211 . S
C101 O93 1.284 . S
C101 O102 1.273 . S
O102 C101 1.273 . S
O103 Zn94 1.977 . S
O103 C96 1.267 . S
C104 O105 1.160 . S
C104 O111 1.185 . S
O105 C104 1.160 . S
O106 Zn107 1.899 . S
O106 C114 1.284 . S
Zn107 O106 1.899 . S
Zn107 O108 2.032 . S
Zn107 O111 2.086 . S
Zn107 O116 1.977 . S
O108 Zn107 2.032 . S
O108 C112 1.278 . S
C109 O110 1.203 . S
C109 O116 1.267 . S
O110 C109 1.203 . S
O111 C104 1.185 . S
O111 Zn107 2.086 . S
C112 O108 1.278 . S
C112 O113 1.211 . S
O113 C112 1.211 . S
C114 O106 1.284 . S
C114 O115 1.273 . S
O115 C114 1.273 . S
O116 Zn107 1.977 . S
O116 C109 1.267 . S
C117 O118 1.160 . S
C117 O124 1.185 . S
O118 C117 1.160 . S
O119 Zn120 1.899 . S
O119 C127 1.284 . S
Zn120 O119 1.899 . S
Zn120 O121 2.032 . S
Zn120 O124 2.086 . S
Zn120 O129 1.977 . S
O121 Zn120 2.032 . S
O121 C125 1.278 . S
C122 O123 1.203 . S
C122 O129 1.267 . S
O123 C122 1.203 . S
O124 C117 1.185 . S
O124 Zn120 2.086 . S
C125 O121 1.278 . S
C125 O126 1.211 . S
O126 C125 1.211 . S
C127 O119 1.284 . S
C127 O128 1.273 . S
O128 C127 1.273 . S
O129 Zn120 1.977 . S
O129 C122 1.267 . S
C130 O131 1.160 . S
C130 O137 1.185 . S
O131 C130 1.160 . S
O132 Zn133 1.899 . S
O132 C140 1.284 . S
Zn133 O132 1.899 . S
Zn133 O134 2.032 . S
Zn133 O137 2.086 . S
Zn133 O142 1.977 . S
O134 Zn133 2.032 . S
O134 C138 1.278 . S
C135 O136 1.203 . S
C135 O142 1.267 . S
O136 C135 1.203 . S
O137 C130 1.185 . S
O137 Zn133 2.086 . S
C138 O134 1.278 . S
C138 O139 1.211 . S
O139 C138 1.211 . S
C140 O132 1.284 . S
C140 O141 1.273 . S
O141 C140 1.273 . S
O142 Zn133 1.977 . S
O142 C135 1.267 . S
C143 O144 1.160 . S
C143 O150 1.185 . S
O144 C143 1.160 . S
O145 Zn146 1.899 . S
O145 C153 1.284 . S
Zn146 O145 1.899 . S
Zn146 O147 2.032 . S
Zn146 O150 2.086 . S
Zn146 O155 1.977 . S
O147 Zn146 2.032 . S
O147 C151 1.278 . S
C148 O149 1.203 . S
C148 O155 1.267 . S
O149 C148 1.203 . S
O150 C143 1.185 . S
O150 Zn146 2.086 . S
C151 O147 1.278 . S
C151 O152 1.211 . S
O152 C151 1.211 . S
C153 O145 1.284 . S
C153 O154 1.273 . S
O154 C153 1.273 . S
O155 Zn146 1.977 . S
O155 C148 1.267 . S
C156 O157 1.160 . S
C156 O163 1.185 . S
O157 C156 1.160 . S
O158 Zn159 1.899 . S
O158 C166 1.284 . S
Zn159 O158 1.899 . S
Zn159 O160 2.032 . S
Zn159 O163 2.086 . S
Zn159 O168 1.977 . S
O160 Zn159 2.032 . S
O160 C164 1.278 . S
C161 O162 1.203 . S
C161 O168 1.267 . S
O162 C161 1.203 . S
O163 C156 1.185 . S
O163 Zn159 2.086 . S
C164 O160 1.278 . S
C164 O165 1.211 . S
O165 C164 1.211 . S
C166 O158 1.284 . S
C166 O167 1.273 . S
O167 C166 1.273 . S
O168 Zn159 1.977 . S
O168 C161 1.267 . S
C169 O170 1.160 . S
C169 O176 1.185 . S
O170 C169 1.160 . S
O171 Zn172 1.899 . S
O171 C179 1.284 . S
Zn172 O171 1.899 . S
Zn172 O173 2.032 . S
Zn172 O176 2.086 . S
Zn172 O181 1.977 . S
O173 Zn172 2.032 . S
O173 C177 1.278 . S
C174 O175 1.203 . S
C174 O181 1.267 . S
O175 C174 1.203 . S
O176 C169 1.185 . S
O176 Zn172 2.086 . S
C177 O173 1.278 . S
C177 O178 1.211 . S
O178 C177 1.211 . S
C179 O171 1.284 . S
C179 O180 1.273 . S
O180 C179 1.273 . S
O181 Zn172 1.977 . S
O181 C174 1.267 . S
C182 O183 1.160 . S
C182 O189 1.185 . S
O183 C182 1.160 . S
O184 Zn185 1.899 . S
O184 C192 1.284 . S
Zn185 O184 1.899 . S
Zn185 O186 2.032 . S
Zn185 O189 2.086 . S
Zn185 O194 1.977 . S
O186 Zn185 2.032 . S
O186 C190 1.278 . S
C187 O188 1.203 . S
C187 O194 1.267 . S
O188 C187 1.203 . S
O189 C182 1.185 . S
O189 Zn185 2.086 . S
C190 O186 1.278 . S
C190 O191 1.211 . S
O191 C190 1.211 . S
C192 O184 1.284 . S
C192 O193 1.273 . S
O193 C192 1.273 . S
O194 Zn185 1.977 . S
O194 C187 1.267 . S
C195 O196 1.160 . S
C195 O202 1.185 . S
O196 C195 1.160 . S
O197 Zn198 1.899 . S
O197 C205 1.284 . S
Zn198 O197 1.899 . S
Zn198 O199 2.032 . S
Zn198 O202 2.086 . S
Zn198 O207 1.977 . S
O199 Zn198 2.032 . S
O199 C203 1.278 . S
C200 O201 1.203 . S
C200 O207 1.267 . S
O201 C200 1.203 . S
O202 C195 1.185 . S
O202 Zn198 2.086 . S
C203 O199 1.278 . S
C203 O204 1.211 . S
O204 C203 1.211 . S
C205 O197 1.284 . S
C205 O206 1.273 . S
O206 C205 1.273 . S
O207 Zn198 1.977 . S
O207 C200 1.267 . S
C208 O209 1.160 . S
C208 O215 1.185 . S
O209 C208 1.160 . S
O210 Zn211 1.899 . S
O210 C218 1.284 . S
Zn211 O210 1.899 . S
Zn211 O212 2.032 . S
Zn211 O215 2.086 . S
Zn211 O220 1.977 . S
O212 Zn211 2.032 . S
O212 C216 1.278 . S
C213 O214 1.203 . S
C213 O220 1.267 . S
O214 C213 1.203 . S
O215 C208 1.185 . S
O215 Zn211 2.086 . S
C216 O212 1.278 . S
C216 O217 1.211 . S
O217 C216 1.211 . S
C218 O210 1.284 . S
C218 O219 1.273 . S
O219 C218 1.273 . S
O220 Zn211 1.977 . S
O220 C213 1.267 . S
C221 O222 1.160 . S
C221 O228 1.185 . S
O222 C221 1.160 . S
O223 Zn224 1.899 . S
O223 C231 1.284 . S
Zn224 O223 1.899 . S
Zn224 O225 2.032 . S
Zn224 O228 2.086 . S
Zn224 O233 1.977 . S
O225 Zn224 2.032 . S
O225 C229 1.278 . S
C226 O227 1.203 . S
C226 O233 1.267 . S
O227 C226 1.203 . S
O228 C221 1.185 . S
O228 Zn224 2.086 . S
C229 O225 1.278 . S
C229 O230 1.211 . S
O230 C229 1.211 . S
C231 O223 1.284 . S
C231 O232 1.273 . S
O232 C231 1.273 . S
O233 Zn224 1.977 . S
O233 C226 1.267 . S
C234 O235 1.160 . S
C234 O241 1.185 . S
O235 C234 1.160 . S
O236 Zn237 1.899 . S
O236 C244 1.284 . S
Zn237 O236 1.899 . S
Zn237 O238 2.032 . S
Zn237 O241 2.086 . S
Zn237 O246 1.977 . S
O238 Zn237 2.032 . S
O238 C242 1.278 . S
C239 O240 1.203 . S
C239 O246 1.267 . S
O240 C239 1.203 . S
O241 C234 1.185 . S
O241 Zn237 2.086 . S
C242 O238 1.278 . S
C242 O243 1.211 . S
O243 C242 1.211 . S
C244 O236 1.284 . S
C244 O245 1.273 . S
O245 C244 1.273 . S
O246 Zn237 1.977 . S
O246 C239 1.267 . S
C247 O248 1.160 . S
C247 O254 1.185 . S
O248 C247 1.160 . S
O249 Zn250 1.899 . S
O249 C257 1.284 . S
Zn250 O249 1.899 . S
Zn250 O251 2.032 . S
Zn250 O254 2.086 . S
Zn250 O259 1.977 . S
O251 Zn250 2.032 . S
O251 C255 1.278 . S
C252 O253 1.203 . S
C252 O259 1.267 . S
O253 C252 1.203 . S
O254 C247 1.185 . S
O254 Zn250 2.086 . S
C255 O251 1.278 . S
C255 O256 1.211 . S
O256 C255 1.211 . S
C257 O249 1.284 . S
C257 O258 1.273 . S
O258 C257 1.273 . S
O259 Zn250 1.977 . S
O259 C252 1.267 . S
C260 O261 1.160 . S
C260 O267 1.185 . S
O261 C260 1.160 . S
O262 Zn263 1.899 . S
O262 C270 1.284 . S
Zn263 O262 1.899 . S
Zn263 O264 2.032 . S
Zn263 O267 2.086 . S
Zn263 O272 1.977 . S
O264 Zn263 2.032 . S
O264 C268 1.278 . S
C265 O266 1.203 . S
C265 O272 1.267 . S
O266 C265 1.203 . S
O267 C260 1.185 . S
O267 Zn263 2.086 . S
C268 O264 1.278 . S
C268 O269 1.211 . S
O269 C268 1.211 . S
C270 O262 1.284 . S
C270 O271 1.273 . S
O271 C270 1.273 . S
O272 Zn263 1.977 . S
O272 C265 1.267 . S
C273 O274 1.160 . S
C273 O280 1.185 . S
O274 C273 1.160 . S
O275 Zn276 1.899 . S
O275 C283 1.284 . S
Zn276 O275 1.899 . S
Zn276 O277 2.032 . S
Zn276 O280 2.086 . S
Zn276 O285 1.977 . S
O277 Zn276 2.032 . S
O277 C281 1.278 . S
C278 O279 1.203 . S
C278 O285 1.267 . S
O279 C278 1.203 . S
O280 C273 1.185 . S
O280 Zn276 2.086 . S
C281 O277 1.278 . S
C281 O282 1.211 . S
O282 C281 1.211 . S
C283 O275 1.284 . S
C283 O284 1.273 . S
O284 C283 1.273 . S
O285 Zn276 1.977 . S
O285 C278 1.267 . S
C286 O287 1.160 . S
C286 O293 1.185 . S
O287 C286 1.160 . S
O288 Zn289 1.899 . S
O288 C296 1.284 . S
Zn289 O288 1.899 . S
Zn289 O290 2.032 . S
Zn289 O293 2.086 . S
Zn289 O298 1.977 . S
O290 Zn289 2.032 . S
O290 C294 1.278 . S
C291 O292 1.203 . S
C291 O298 1.267 . S
O292 C291 1.203 . S
O293 C286 1.185 . S
O293 Zn289 2.086 . S
C294 O290 1.278 . S
C294 O295 1.211 . S
O295 C294 1.211 . S
C296 O288 1.284 . S
C296 O297 1.273 . S
O297 C296 1.273 . S
O298 Zn289 1.977 . S
O298 C291 1.267 . S
C299 O300 1.160 . S
C299 O306 1.185 . S
O300 C299 1.160 . S
O301 Zn302 1.899 . S
O301 C309 1.284 . S
Zn302 O301 1.899 . S
Zn302 O303 2.032 . S
Zn302 O306 2.086 . S
Zn302 O311 1.977 . S
O303 Zn302 2.032 . S
O303 C307 1.278 . S
C304 O305 1.203 . S
C304 O311 1.267 . S
O305 C304 1.203 . S
O306 C299 1.185 . S
O306 Zn302 2.086 . S
C307 O303 1.278 . S
C307 O308 1.211 . S
O308 C307 1.211 . S
C309 O301 1.284 . S
C309 O310 1.273 . S
O310 C309 1.273 . S
O311 Zn302 1.977 . S
O311 C304 1.267 . S
C312 C313 1.391 . S
C312 C314 1.394 . S
C312 H328 0.931 . S
C313 C312 1.391 . S
C313 C317 1.376 . S
C314 C312 1.394 . S
C314 C315 1.369 . S
C314 C318 1.531 . S
C315 C314 1.369 . S
C315 C316 1.410 . S
C315 C323 1.503 . S
C316 C315 1.410 . S
C316 C317 1.392 . S
C316 C319 1.511 . S
C317 C313 1.376 . S
C317 C316 1.392 . S
C317 H329 0.929 . S
C318 C314 1.531 . S
C318 H330 0.960 . S
C318 H331 0.962 . S
C318 H332 0.960 . S
C319 C316 1.511 . S
C319 H333 0.961 . S
C319 H334 0.961 . S
C319 H335 0.961 . S
C320 C321 1.370 . S
C320 C322 1.363 . S
C320 H336 0.931 . S
C321 C320 1.370 . S
C321 C325 1.408 . S
C322 C320 1.363 . S
C322 C323 1.370 . S
C322 C326 1.524 . S
C323 C315 1.503 . S
C323 C322 1.370 . S
C323 C324 1.403 . S
C324 C323 1.403 . S
C324 C325 1.404 . S
C324 C327 1.539 . S
C325 C321 1.408 . S
C325 C324 1.404 . S
C325 H337 0.930 . S
C326 C322 1.524 . S
C326 H338 0.956 . S
C326 H339 0.961 . S
C326 H340 0.961 . S
C327 C324 1.539 . S
C327 H341 0.958 . S
C327 H342 0.961 . S
C327 H343 0.960 . S
H328 C312 0.931 . S
H329 C317 0.929 . S
H330 C318 0.960 . S
H331 C318 0.962 . S
H332 C318 0.960 . S
H333 C319 0.961 . S
H334 C319 0.961 . S
H335 C319 0.961 . S
H336 C320 0.931 . S
H337 C325 0.930 . S
H338 C326 0.956 . S
H339 C326 0.961 . S
H340 C326 0.961 . S
H341 C327 0.958 . S
H342 C327 0.961 . S
H343 C327 0.960 . S
C344 C345 1.391 . S
C344 C346 1.394 . S
C344 H360 0.931 . S
C345 C344 1.391 . S
C345 C349 1.376 . S
C346 C344 1.394 . S
C346 C347 1.369 . S
C346 C350 1.531 . S
C347 C346 1.369 . S
C347 C348 1.410 . S
C347 C355 1.503 . S
C348 C347 1.410 . S
C348 C349 1.392 . S
C348 C351 1.511 . S
C349 C345 1.376 . S
C349 C348 1.392 . S
C349 H361 0.929 . S
C350 C346 1.531 . S
C350 H362 0.960 . S
C350 H363 0.962 . S
C350 H364 0.960 . S
C351 C348 1.511 . S
C351 H365 0.961 . S
C351 H366 0.961 . S
C351 H367 0.961 . S
C352 C353 1.370 . S
C352 C354 1.363 . S
C352 H368 0.931 . S
C353 C352 1.370 . S
C353 C357 1.408 . S
C354 C352 1.363 . S
C354 C355 1.370 . S
C354 C358 1.524 . S
C355 C347 1.503 . S
C355 C354 1.370 . S
C355 C356 1.403 . S
C356 C355 1.403 . S
C356 C357 1.404 . S
C356 C359 1.539 . S
C357 C353 1.408 . S
C357 C356 1.404 . S
C357 H369 0.930 . S
C358 C354 1.524 . S
C358 H370 0.956 . S
C358 H371 0.961 . S
C358 H372 0.961 . S
C359 C356 1.539 . S
C359 H373 0.958 . S
C359 H374 0.961 . S
C359 H375 0.960 . S
H360 C344 0.931 . S
H361 C349 0.929 . S
H362 C350 0.960 . S
H363 C350 0.962 . S
H364 C350 0.960 . S
H365 C351 0.961 . S
H366 C351 0.961 . S
H367 C351 0.961 . S
H368 C352 0.931 . S
H369 C357 0.930 . S
H370 C358 0.956 . S
H371 C358 0.961 . S
H372 C358 0.961 . S
H373 C359 0.958 . S
H374 C359 0.961 . S
H375 C359 0.960 . S
C376 C377 1.391 . S
C376 C378 1.394 . S
C376 H392 0.931 . S
C377 C376 1.391 . S
C377 C381 1.376 . S
C378 C376 1.394 . S
C378 C379 1.369 . S
C378 C382 1.531 . S
C379 C378 1.369 . S
C379 C380 1.410 . S
C379 C387 1.503 . S
C380 C379 1.410 . S
C380 C381 1.392 . S
C380 C383 1.511 . S
C381 C377 1.376 . S
C381 C380 1.392 . S
C381 H393 0.929 . S
C382 C378 1.531 . S
C382 H394 0.960 . S
C382 H395 0.962 . S
C382 H396 0.960 . S
C383 C380 1.511 . S
C383 H397 0.961 . S
C383 H398 0.961 . S
C383 H399 0.961 . S
C384 C385 1.370 . S
C384 C386 1.363 . S
C384 H400 0.931 . S
C385 C384 1.370 . S
C385 C389 1.408 . S
C386 C384 1.363 . S
C386 C387 1.370 . S
C386 C390 1.524 . S
C387 C379 1.503 . S
C387 C386 1.370 . S
C387 C388 1.403 . S
C388 C387 1.403 . S
C388 C389 1.404 . S
C388 C391 1.539 . S
C389 C385 1.408 . S
C389 C388 1.404 . S
C389 H401 0.930 . S
C390 C386 1.524 . S
C390 H402 0.956 . S
C390 H403 0.961 . S
C390 H404 0.961 . S
C391 C388 1.539 . S
C391 H405 0.958 . S
C391 H406 0.961 . S
C391 H407 0.960 . S
H392 C376 0.931 . S
H393 C381 0.929 . S
H394 C382 0.960 . S
H395 C382 0.962 . S
H396 C382 0.960 . S
H397 C383 0.961 . S
H398 C383 0.961 . S
H399 C383 0.961 . S
H400 C384 0.931 . S
H401 C389 0.930 . S
H402 C390 0.956 . S
H403 C390 0.961 . S
H404 C390 0.961 . S
H405 C391 0.958 . S
H406 C391 0.961 . S
H407 C391 0.960 . S
C408 C409 1.391 . S
C408 C410 1.394 . S
C408 H424 0.931 . S
C409 C408 1.391 . S
C409 C413 1.376 . S
C410 C408 1.394 . S
C410 C411 1.369 . S
C410 C414 1.531 . S
C411 C410 1.369 . S
C411 C412 1.410 . S
C411 C419 1.503 . S
C412 C411 1.410 . S
C412 C413 1.392 . S
C412 C415 1.511 . S
C413 C409 1.376 . S
C413 C412 1.392 . S
C413 H425 0.929 . S
C414 C410 1.531 . S
C414 H426 0.960 . S
C414 H427 0.962 . S
C414 H428 0.960 . S
C415 C412 1.511 . S
C415 H429 0.961 . S
C415 H430 0.961 . S
C415 H431 0.961 . S
C416 C417 1.370 . S
C416 C418 1.363 . S
C416 H432 0.931 . S
C417 C416 1.370 . S
C417 C421 1.408 . S
C418 C416 1.363 . S
C418 C419 1.370 . S
C418 C422 1.524 . S
C419 C411 1.503 . S
C419 C418 1.370 . S
C419 C420 1.403 . S
C420 C419 1.403 . S
C420 C421 1.404 . S
C420 C423 1.539 . S
C421 C417 1.408 . S
C421 C420 1.404 . S
C421 H433 0.930 . S
C422 C418 1.524 . S
C422 H434 0.956 . S
C422 H435 0.961 . S
C422 H436 0.961 . S
C423 C420 1.539 . S
C423 H437 0.958 . S
C423 H438 0.961 . S
C423 H439 0.960 . S
H424 C408 0.931 . S
H425 C413 0.929 . S
H426 C414 0.960 . S
H427 C414 0.962 . S
H428 C414 0.960 . S
H429 C415 0.961 . S
H430 C415 0.961 . S
H431 C415 0.961 . S
H432 C416 0.931 . S
H433 C421 0.930 . S
H434 C422 0.956 . S
H435 C422 0.961 . S
H436 C422 0.961 . S
H437 C423 0.958 . S
H438 C423 0.961 . S
H439 C423 0.960 . S
C440 C441 1.391 . S
C440 C442 1.394 . S
C440 H456 0.931 . S
C441 C440 1.391 . S
C441 C445 1.376 . S
C442 C440 1.394 . S
C442 C443 1.369 . S
C442 C446 1.531 . S
C443 C442 1.369 . S
C443 C444 1.410 . S
C443 C451 1.503 . S
C444 C443 1.410 . S
C444 C445 1.392 . S
C444 C447 1.511 . S
C445 C441 1.376 . S
C445 C444 1.392 . S
C445 H457 0.929 . S
C446 C442 1.531 . S
C446 H458 0.960 . S
C446 H459 0.962 . S
C446 H460 0.960 . S
C447 C444 1.511 . S
C447 H461 0.961 . S
C447 H462 0.961 . S
C447 H463 0.961 . S
C448 C449 1.370 . S
C448 C450 1.363 . S
C448 H464 0.931 . S
C449 C448 1.370 . S
C449 C453 1.408 . S
C450 C448 1.363 . S
C450 C451 1.370 . S
C450 C454 1.524 . S
C451 C443 1.503 . S
C451 C450 1.370 . S
C451 C452 1.403 . S
C452 C451 1.403 . S
C452 C453 1.404 . S
C452 C455 1.539 . S
C453 C449 1.408 . S
C453 C452 1.404 . S
C453 H465 0.930 . S
C454 C450 1.524 . S
C454 H466 0.956 . S
C454 H467 0.961 . S
C454 H468 0.961 . S
C455 C452 1.539 . S
C455 H469 0.958 . S
C455 H470 0.961 . S
C455 H471 0.960 . S
H456 C440 0.931 . S
H457 C445 0.929 . S
H458 C446 0.960 . S
H459 C446 0.962 . S
H460 C446 0.960 . S
H461 C447 0.961 . S
H462 C447 0.961 . S
H463 C447 0.961 . S
H464 C448 0.931 . S
H465 C453 0.930 . S
H466 C454 0.956 . S
H467 C454 0.961 . S
H468 C454 0.961 . S
H469 C455 0.958 . S
H470 C455 0.961 . S
H471 C455 0.960 . S
C472 C473 1.391 . S
C472 C474 1.394 . S
C472 H488 0.931 . S
C473 C472 1.391 . S
C473 C477 1.376 . S
C474 C472 1.394 . S
C474 C475 1.369 . S
C474 C478 1.531 . S
C475 C474 1.369 . S
C475 C476 1.410 . S
C475 C483 1.503 . S
C476 C475 1.410 . S
C476 C477 1.392 . S
C476 C479 1.511 . S
C477 C473 1.376 . S
C477 C476 1.392 . S
C477 H489 0.929 . S
C478 C474 1.531 . S
C478 H490 0.960 . S
C478 H491 0.962 . S
C478 H492 0.960 . S
C479 C476 1.511 . S
C479 H493 0.961 . S
C479 H494 0.961 . S
C479 H495 0.961 . S
C480 C481 1.370 . S
C480 C482 1.363 . S
C480 H496 0.931 . S
C481 C480 1.370 . S
C481 C485 1.408 . S
C482 C480 1.363 . S
C482 C483 1.370 . S
C482 C486 1.524 . S
C483 C475 1.503 . S
C483 C482 1.370 . S
C483 C484 1.403 . S
C484 C483 1.403 . S
C484 C485 1.404 . S
C484 C487 1.539 . S
C485 C481 1.408 . S
C485 C484 1.404 . S
C485 H497 0.930 . S
C486 C482 1.524 . S
C486 H498 0.956 . S
C486 H499 0.961 . S
C486 H500 0.961 . S
C487 C484 1.539 . S
C487 H501 0.958 . S
C487 H502 0.961 . S
C487 H503 0.960 . S
H488 C472 0.931 . S
H489 C477 0.929 . S
H490 C478 0.960 . S
H491 C478 0.962 . S
H492 C478 0.960 . S
H493 C479 0.961 . S
H494 C479 0.961 . S
H495 C479 0.961 . S
H496 C480 0.931 . S
H497 C485 0.930 . S
H498 C486 0.956 . S
H499 C486 0.961 . S
H500 C486 0.961 . S
H501 C487 0.958 . S
H502 C487 0.961 . S
H503 C487 0.960 . S
C504 C505 1.391 . S
C504 C506 1.394 . S
C504 H520 0.931 . S
C505 C504 1.391 . S
C505 C509 1.376 . S
C506 C504 1.394 . S
C506 C507 1.369 . S
C506 C510 1.531 . S
C507 C506 1.369 . S
C507 C508 1.410 . S
C507 C515 1.503 . S
C508 C507 1.410 . S
C508 C509 1.392 . S
C508 C511 1.511 . S
C509 C505 1.376 . S
C509 C508 1.392 . S
C509 H521 0.929 . S
C510 C506 1.531 . S
C510 H522 0.960 . S
C510 H523 0.962 . S
C510 H524 0.960 . S
C511 C508 1.511 . S
C511 H525 0.961 . S
C511 H526 0.961 . S
C511 H527 0.961 . S
C512 C513 1.370 . S
C512 C514 1.363 . S
C512 H528 0.931 . S
C513 C512 1.370 . S
C513 C517 1.408 . S
C514 C512 1.363 . S
C514 C515 1.370 . S
C514 C518 1.524 . S
C515 C507 1.503 . S
C515 C514 1.370 . S
C515 C516 1.403 . S
C516 C515 1.403 . S
C516 C517 1.404 . S
C516 C519 1.539 . S
C517 C513 1.408 . S
C517 C516 1.404 . S
C517 H529 0.930 . S
C518 C514 1.524 . S
C518 H530 0.956 . S
C518 H531 0.961 . S
C518 H532 0.961 . S
C519 C516 1.539 . S
C519 H533 0.958 . S
C519 H534 0.961 . S
C519 H535 0.960 . S
H520 C504 0.931 . S
H521 C509 0.929 . S
H522 C510 0.960 . S
H523 C510 0.962 . S
H524 C510 0.960 . S
H525 C511 0.961 . S
H526 C511 0.961 . S
H527 C511 0.961 . S
H528 C512 0.931 . S
H529 C517 0.930 . S
H530 C518 0.956 . S
H531 C518 0.961 . S
H532 C518 0.961 . S
H533 C519 0.958 . S
H534 C519 0.961 . S
H535 C519 0.960 . S
C536 C537 1.391 . S
C536 C538 1.394 . S
C536 H552 0.931 . S
C537 C536 1.391 . S
C537 C541 1.376 . S
C538 C536 1.394 . S
C538 C539 1.369 . S
C538 C542 1.531 . S
C539 C538 1.369 . S
C539 C540 1.410 . S
C539 C547 1.503 . S
C540 C539 1.410 . S
C540 C541 1.392 . S
C540 C543 1.511 . S
C541 C537 1.376 . S
C541 C540 1.392 . S
C541 H553 0.929 . S
C542 C538 1.531 . S
C542 H554 0.960 . S
C542 H555 0.962 . S
C542 H556 0.960 . S
C543 C540 1.511 . S
C543 H557 0.961 . S
C543 H558 0.961 . S
C543 H559 0.961 . S
C544 C545 1.370 . S
C544 C546 1.363 . S
C544 H560 0.931 . S
C545 C544 1.370 . S
C545 C549 1.408 . S
C546 C544 1.363 . S
C546 C547 1.370 . S
C546 C550 1.524 . S
C547 C539 1.503 . S
C547 C546 1.370 . S
C547 C548 1.403 . S
C548 C547 1.403 . S
C548 C549 1.404 . S
C548 C551 1.539 . S
C549 C545 1.408 . S
C549 C548 1.404 . S
C549 H561 0.930 . S
C550 C546 1.524 . S
C550 H562 0.956 . S
C550 H563 0.961 . S
C550 H564 0.961 . S
C551 C548 1.539 . S
C551 H565 0.958 . S
C551 H566 0.961 . S
C551 H567 0.960 . S
H552 C536 0.931 . S
H553 C541 0.929 . S
H554 C542 0.960 . S
H555 C542 0.962 . S
H556 C542 0.960 . S
H557 C543 0.961 . S
H558 C543 0.961 . S
H559 C543 0.961 . S
H560 C544 0.931 . S
H561 C549 0.930 . S
H562 C550 0.956 . S
H563 C550 0.961 . S
H564 C550 0.961 . S
H565 C551 0.958 . S
H566 C551 0.961 . S
H567 C551 0.960 . S
C568 C569 1.391 . S
C568 C570 1.394 . S
C568 H584 0.931 . S
C569 C568 1.391 . S
C569 C573 1.376 . S
C570 C568 1.394 . S
C570 C571 1.369 . S
C570 C574 1.531 . S
C571 C570 1.369 . S
C571 C572 1.410 . S
C571 C579 1.503 . S
C572 C571 1.410 . S
C572 C573 1.392 . S
C572 C575 1.511 . S
C573 C569 1.376 . S
C573 C572 1.392 . S
C573 H585 0.929 . S
C574 C570 1.531 . S
C574 H586 0.960 . S
C574 H587 0.962 . S
C574 H588 0.960 . S
C575 C572 1.511 . S
C575 H589 0.961 . S
C575 H590 0.961 . S
C575 H591 0.961 . S
C576 C577 1.370 . S
C576 C578 1.363 . S
C576 H592 0.931 . S
C577 C576 1.370 . S
C577 C581 1.408 . S
C578 C576 1.363 . S
C578 C579 1.370 . S
C578 C582 1.524 . S
C579 C571 1.503 . S
C579 C578 1.370 . S
C579 C580 1.403 . S
C580 C579 1.403 . S
C580 C581 1.404 . S
C580 C583 1.539 . S
C581 C577 1.408 . S
C581 C580 1.404 . S
C581 H593 0.930 . S
C582 C578 1.524 . S
C582 H594 0.956 . S
C582 H595 0.961 . S
C582 H596 0.961 . S
C583 C580 1.539 . S
C583 H597 0.958 . S
C583 H598 0.961 . S
C583 H599 0.960 . S
H584 C568 0.931 . S
H585 C573 0.929 . S
H586 C574 0.960 . S
H587 C574 0.962 . S
H588 C574 0.960 . S
H589 C575 0.961 . S
H590 C575 0.961 . S
H591 C575 0.961 . S
H592 C576 0.931 . S
H593 C581 0.930 . S
H594 C582 0.956 . S
H595 C582 0.961 . S
H596 C582 0.961 . S
H597 C583 0.958 . S
H598 C583 0.961 . S
H599 C583 0.960 . S
C600 C601 1.391 . S
C600 C602 1.394 . S
C600 H616 0.931 . S
C601 C600 1.391 . S
C601 C605 1.376 . S
C602 C600 1.394 . S
C602 C603 1.369 . S
C602 C606 1.531 . S
C603 C602 1.369 . S
C603 C604 1.410 . S
C603 C611 1.503 . S
C604 C603 1.410 . S
C604 C605 1.392 . S
C604 C607 1.511 . S
C605 C601 1.376 . S
C605 C604 1.392 . S
C605 H617 0.929 . S
C606 C602 1.531 . S
C606 H618 0.960 . S
C606 H619 0.962 . S
C606 H620 0.960 . S
C607 C604 1.511 . S
C607 H621 0.961 . S
C607 H622 0.961 . S
C607 H623 0.961 . S
C608 C609 1.370 . S
C608 C610 1.363 . S
C608 H624 0.931 . S
C609 C608 1.370 . S
C609 C613 1.408 . S
C610 C608 1.363 . S
C610 C611 1.370 . S
C610 C614 1.524 . S
C611 C603 1.503 . S
C611 C610 1.370 . S
C611 C612 1.403 . S
C612 C611 1.403 . S
C612 C613 1.404 . S
C612 C615 1.539 . S
C613 C609 1.408 . S
C613 C612 1.404 . S
C613 H625 0.930 . S
C614 C610 1.524 . S
C614 H626 0.956 . S
C614 H627 0.961 . S
C614 H628 0.961 . S
C615 C612 1.539 . S
C615 H629 0.958 . S
C615 H630 0.961 . S
C615 H631 0.960 . S
H616 C600 0.931 . S
H617 C605 0.929 . S
H618 C606 0.960 . S
H619 C606 0.962 . S
H620 C606 0.960 . S
H621 C607 0.961 . S
H622 C607 0.961 . S
H623 C607 0.961 . S
H624 C608 0.931 . S
H625 C613 0.930 . S
H626 C614 0.956 . S
H627 C614 0.961 . S
H628 C614 0.961 . S
H629 C615 0.958 . S
H630 C615 0.961 . S
H631 C615 0.960 . S
C632 C633 1.391 . S
C632 C634 1.394 . S
C632 H648 0.931 . S
C633 C632 1.391 . S
C633 C637 1.376 . S
C634 C632 1.394 . S
C634 C635 1.369 . S
C634 C638 1.531 . S
C635 C634 1.369 . S
C635 C636 1.410 . S
C635 C643 1.503 . S
C636 C635 1.410 . S
C636 C637 1.392 . S
C636 C639 1.511 . S
C637 C633 1.376 . S
C637 C636 1.392 . S
C637 H649 0.929 . S
C638 C634 1.531 . S
C638 H650 0.960 . S
C638 H651 0.962 . S
C638 H652 0.960 . S
C639 C636 1.511 . S
C639 H653 0.961 . S
C639 H654 0.961 . S
C639 H655 0.961 . S
C640 C641 1.370 . S
C640 C642 1.363 . S
C640 H656 0.931 . S
C641 C640 1.370 . S
C641 C645 1.408 . S
C642 C640 1.363 . S
C642 C643 1.370 . S
C642 C646 1.524 . S
C643 C635 1.503 . S
C643 C642 1.370 . S
C643 C644 1.403 . S
C644 C643 1.403 . S
C644 C645 1.404 . S
C644 C647 1.539 . S
C645 C641 1.408 . S
C645 C644 1.404 . S
C645 H657 0.930 . S
C646 C642 1.524 . S
C646 H658 0.956 . S
C646 H659 0.961 . S
C646 H660 0.961 . S
C647 C644 1.539 . S
C647 H661 0.958 . S
C647 H662 0.961 . S
C647 H663 0.960 . S
H648 C632 0.931 . S
H649 C637 0.929 . S
H650 C638 0.960 . S
H651 C638 0.962 . S
H652 C638 0.960 . S
H653 C639 0.961 . S
H654 C639 0.961 . S
H655 C639 0.961 . S
H656 C640 0.931 . S
H657 C645 0.930 . S
H658 C646 0.956 . S
H659 C646 0.961 . S
H660 C646 0.961 . S
H661 C647 0.958 . S
H662 C647 0.961 . S
H663 C647 0.960 . S
C664 C665 1.391 . S
C664 C666 1.394 . S
C664 H680 0.931 . S
C665 C664 1.391 . S
C665 C669 1.376 . S
C666 C664 1.394 . S
C666 C667 1.369 . S
C666 C670 1.531 . S
C667 C666 1.369 . S
C667 C668 1.410 . S
C667 C675 1.503 . S
C668 C667 1.410 . S
C668 C669 1.392 . S
C668 C671 1.511 . S
C669 C665 1.376 . S
C669 C668 1.392 . S
C669 H681 0.929 . S
C670 C666 1.531 . S
C670 H682 0.960 . S
C670 H683 0.962 . S
C670 H684 0.960 . S
C671 C668 1.511 . S
C671 H685 0.961 . S
C671 H686 0.961 . S
C671 H687 0.961 . S
C672 C673 1.370 . S
C672 C674 1.363 . S
C672 H688 0.931 . S
C673 C672 1.370 . S
C673 C677 1.408 . S
C674 C672 1.363 . S
C674 C675 1.370 . S
C674 C678 1.524 . S
C675 C667 1.503 . S
C675 C674 1.370 . S
C675 C676 1.403 . S
C676 C675 1.403 . S
C676 C677 1.404 . S
C676 C679 1.539 . S
C677 C673 1.408 . S
C677 C676 1.404 . S
C677 H689 0.930 . S
C678 C674 1.524 . S
C678 H690 0.956 . S
C678 H691 0.961 . S
C678 H692 0.961 . S
C679 C676 1.539 . S
C679 H693 0.958 . S
C679 H694 0.961 . S
C679 H695 0.960 . S
H680 C664 0.931 . S
H681 C669 0.929 . S
H682 C670 0.960 . S
H683 C670 0.962 . S
H684 C670 0.960 . S
H685 C671 0.961 . S
H686 C671 0.961 . S
H687 C671 0.961 . S
H688 C672 0.931 . S
H689 C677 0.930 . S
H690 C678 0.956 . S
H691 C678 0.961 . S
H692 C678 0.961 . S
H693 C679 0.958 . S
H694 C679 0.961 . S
H695 C679 0.960 . S
C696 C697 1.391 . S
C696 C698 1.394 . S
C696 H712 0.931 . S
C697 C696 1.391 . S
C697 C701 1.376 . S
C698 C696 1.394 . S
C698 C699 1.369 . S
C698 C702 1.531 . S
C699 C698 1.369 . S
C699 C700 1.410 . S
C699 C707 1.503 . S
C700 C699 1.410 . S
C700 C701 1.392 . S
C700 C703 1.511 . S
C701 C697 1.376 . S
C701 C700 1.392 . S
C701 H713 0.929 . S
C702 C698 1.531 . S
C702 H714 0.960 . S
C702 H715 0.962 . S
C702 H716 0.960 . S
C703 C700 1.511 . S
C703 H717 0.961 . S
C703 H718 0.961 . S
C703 H719 0.961 . S
C704 C705 1.370 . S
C704 C706 1.363 . S
C704 H720 0.931 . S
C705 C704 1.370 . S
C705 C709 1.408 . S
C706 C704 1.363 . S
C706 C707 1.370 . S
C706 C710 1.524 . S
C707 C699 1.503 . S
C707 C706 1.370 . S
C707 C708 1.403 . S
C708 C707 1.403 . S
C708 C709 1.404 . S
C708 C711 1.539 . S
C709 C705 1.408 . S
C709 C708 1.404 . S
C709 H721 0.930 . S
C710 C706 1.524 . S
C710 H722 0.956 . S
C710 H723 0.961 . S
C710 H724 0.961 . S
C711 C708 1.539 . S
C711 H725 0.958 . S
C711 H726 0.961 . S
C711 H727 0.960 . S
H712 C696 0.931 . S
H713 C701 0.929 . S
H714 C702 0.960 . S
H715 C702 0.962 . S
H716 C702 0.960 . S
H717 C703 0.961 . S
H718 C703 0.961 . S
H719 C703 0.961 . S
H720 C704 0.931 . S
H721 C709 0.930 . S
H722 C710 0.956 . S
H723 C710 0.961 . S
H724 C710 0.961 . S
H725 C711 0.958 . S
H726 C711 0.961 . S
H727 C711 0.960 . S
C728 C729 1.391 . S
C728 C730 1.394 . S
C728 H744 0.931 . S
C729 C728 1.391 . S
C729 C733 1.376 . S
C730 C728 1.394 . S
C730 C731 1.369 . S
C730 C734 1.531 . S
C731 C730 1.369 . S
C731 C732 1.410 . S
C731 C739 1.503 . S
C732 C731 1.410 . S
C732 C733 1.392 . S
C732 C735 1.511 . S
C733 C729 1.376 . S
C733 C732 1.392 . S
C733 H745 0.929 . S
C734 C730 1.531 . S
C734 H746 0.960 . S
C734 H747 0.962 . S
C734 H748 0.960 . S
C735 C732 1.511 . S
C735 H749 0.961 . S
C735 H750 0.961 . S
C735 H751 0.961 . S
C736 C737 1.370 . S
C736 C738 1.363 . S
C736 H752 0.931 . S
C737 C736 1.370 . S
C737 C741 1.408 . S
C738 C736 1.363 . S
C738 C739 1.370 . S
C738 C742 1.524 . S
C739 C731 1.503 . S
C739 C738 1.370 . S
C739 C740 1.403 . S
C740 C739 1.403 . S
C740 C741 1.404 . S
C740 C743 1.539 . S
C741 C737 1.408 . S
C741 C740 1.404 . S
C741 H753 0.930 . S
C742 C738 1.524 . S
C742 H754 0.956 . S
C742 H755 0.961 . S
C742 H756 0.961 . S
C743 C740 1.539 . S
C743 H757 0.958 . S
C743 H758 0.961 . S
C743 H759 0.960 . S
H744 C728 0.931 . S
H745 C733 0.929 . S
H746 C734 0.960 . S
H747 C734 0.962 . S
H748 C734 0.960 . S
H749 C735 0.961 . S
H750 C735 0.961 . S
H751 C735 0.961 . S
H752 C736 0.931 . S
H753 C741 0.930 . S
H754 C742 0.956 . S
H755 C742 0.961 . S
H756 C742 0.961 . S
H757 C743 0.958 . S
H758 C743 0.961 . S
H759 C743 0.960 . S
C760 C761 1.391 . S
C760 C762 1.394 . S
C760 H776 0.931 . S
C761 C760 1.391 . S
C761 C765 1.376 . S
C762 C760 1.394 . S
C762 C763 1.369 . S
C762 C766 1.531 . S
C763 C762 1.369 . S
C763 C764 1.410 . S
C763 C771 1.503 . S
C764 C763 1.410 . S
C764 C765 1.392 . S
C764 C767 1.511 . S
C765 C761 1.376 . S
C765 C764 1.392 . S
C765 H777 0.929 . S
C766 C762 1.531 . S
C766 H778 0.960 . S
C766 H779 0.962 . S
C766 H780 0.960 . S
C767 C764 1.511 . S
C767 H781 0.961 . S
C767 H782 0.961 . S
C767 H783 0.961 . S
C768 C769 1.370 . S
C768 C770 1.363 . S
C768 H784 0.931 . S
C769 C768 1.370 . S
C769 C773 1.408 . S
C770 C768 1.363 . S
C770 C771 1.370 . S
C770 C774 1.524 . S
C771 C763 1.503 . S
C771 C770 1.370 . S
C771 C772 1.403 . S
C772 C771 1.403 . S
C772 C773 1.404 . S
C772 C775 1.539 . S
C773 C769 1.408 . S
C773 C772 1.404 . S
C773 H785 0.930 . S
C774 C770 1.524 . S
C774 H786 0.956 . S
C774 H787 0.961 . S
C774 H788 0.961 . S
C775 C772 1.539 . S
C775 H789 0.958 . S
C775 H790 0.961 . S
C775 H791 0.960 . S
H776 C760 0.931 . S
H777 C765 0.929 . S
H778 C766 0.960 . S
H779 C766 0.962 . S
H780 C766 0.960 . S
H781 C767 0.961 . S
H782 C767 0.961 . S
H783 C767 0.961 . S
H784 C768 0.931 . S
H785 C773 0.930 . S
H786 C774 0.956 . S
H787 C774 0.961 . S
H788 C774 0.961 . S
H789 C775 0.958 . S
H790 C775 0.961 . S
H791 C775 0.960 . S
C792 C793 1.391 . S
C792 C794 1.394 . S
C792 H808 0.931 . S
C793 C792 1.391 . S
C793 C797 1.376 . S
C794 C792 1.394 . S
C794 C795 1.369 . S
C794 C798 1.531 . S
C795 C794 1.369 . S
C795 C796 1.410 . S
C795 C803 1.503 . S
C796 C795 1.410 . S
C796 C797 1.392 . S
C796 C799 1.511 . S
C797 C793 1.376 . S
C797 C796 1.392 . S
C797 H809 0.929 . S
C798 C794 1.531 . S
C798 H810 0.960 . S
C798 H811 0.962 . S
C798 H812 0.960 . S
C799 C796 1.511 . S
C799 H813 0.961 . S
C799 H814 0.961 . S
C799 H815 0.961 . S
C800 C801 1.370 . S
C800 C802 1.363 . S
C800 H816 0.931 . S
C801 C800 1.370 . S
C801 C805 1.408 . S
C802 C800 1.363 . S
C802 C803 1.370 . S
C802 C806 1.524 . S
C803 C795 1.503 . S
C803 C802 1.370 . S
C803 C804 1.403 . S
C804 C803 1.403 . S
C804 C805 1.404 . S
C804 C807 1.539 . S
C805 C801 1.408 . S
C805 C804 1.404 . S
C805 H817 0.930 . S
C806 C802 1.524 . S
C806 H818 0.956 . S
C806 H819 0.961 . S
C806 H820 0.961 . S
C807 C804 1.539 . S
C807 H821 0.958 . S
C807 H822 0.961 . S
C807 H823 0.960 . S
H808 C792 0.931 . S
H809 C797 0.929 . S
H810 C798 0.960 . S
H811 C798 0.962 . S
H812 C798 0.960 . S
H813 C799 0.961 . S
H814 C799 0.961 . S
H815 C799 0.961 . S
H816 C800 0.931 . S
H817 C805 0.930 . S
H818 C806 0.956 . S
H819 C806 0.961 . S
H820 C806 0.961 . S
H821 C807 0.958 . S
H822 C807 0.961 . S
H823 C807 0.960 . S
C824 C825 1.391 . S
C824 C826 1.394 . S
C824 H840 0.931 . S
C825 C824 1.391 . S
C825 C829 1.376 . S
C826 C824 1.394 . S
C826 C827 1.369 . S
C826 C830 1.531 . S
C827 C826 1.369 . S
C827 C828 1.410 . S
C827 C835 1.503 . S
C828 C827 1.410 . S
C828 C829 1.392 . S
C828 C831 1.511 . S
C829 C825 1.376 . S
C829 C828 1.392 . S
C829 H841 0.929 . S
C830 C826 1.531 . S
C830 H842 0.960 . S
C830 H843 0.962 . S
C830 H844 0.960 . S
C831 C828 1.511 . S
C831 H845 0.961 . S
C831 H846 0.961 . S
C831 H847 0.961 . S
C832 C833 1.370 . S
C832 C834 1.363 . S
C832 H848 0.931 . S
C833 C832 1.370 . S
C833 C837 1.408 . S
C834 C832 1.363 . S
C834 C835 1.370 . S
C834 C838 1.524 . S
C835 C827 1.503 . S
C835 C834 1.370 . S
C835 C836 1.403 . S
C836 C835 1.403 . S
C836 C837 1.404 . S
C836 C839 1.539 . S
C837 C833 1.408 . S
C837 C836 1.404 . S
C837 H849 0.930 . S
C838 C834 1.524 . S
C838 H850 0.956 . S
C838 H851 0.961 . S
C838 H852 0.961 . S
C839 C836 1.539 . S
C839 H853 0.958 . S
C839 H854 0.961 . S
C839 H855 0.960 . S
H840 C824 0.931 . S
H841 C829 0.929 . S
H842 C830 0.960 . S
H843 C830 0.962 . S
H844 C830 0.960 . S
H845 C831 0.961 . S
H846 C831 0.961 . S
H847 C831 0.961 . S
H848 C832 0.931 . S
H849 C837 0.930 . S
H850 C838 0.956 . S
H851 C838 0.961 . S
H852 C838 0.961 . S
H853 C839 0.958 . S
H854 C839 0.961 . S
H855 C839 0.960 . S
C856 C857 1.391 . S
C856 C858 1.394 . S
C856 H872 0.931 . S
C857 C856 1.391 . S
C857 C861 1.376 . S
C858 C856 1.394 . S
C858 C859 1.369 . S
C858 C862 1.531 . S
C859 C858 1.369 . S
C859 C860 1.410 . S
C859 C867 1.503 . S
C860 C859 1.410 . S
C860 C861 1.392 . S
C860 C863 1.511 . S
C861 C857 1.376 . S
C861 C860 1.392 . S
C861 H873 0.929 . S
C862 C858 1.531 . S
C862 H874 0.960 . S
C862 H875 0.962 . S
C862 H876 0.960 . S
C863 C860 1.511 . S
C863 H877 0.961 . S
C863 H878 0.961 . S
C863 H879 0.961 . S
C864 C865 1.370 . S
C864 C866 1.363 . S
C864 H880 0.931 . S
C865 C864 1.370 . S
C865 C869 1.408 . S
C866 C864 1.363 . S
C866 C867 1.370 . S
C866 C870 1.524 . S
C867 C859 1.503 . S
C867 C866 1.370 . S
C867 C868 1.403 . S
C868 C867 1.403 . S
C868 C869 1.404 . S
C868 C871 1.539 . S
C869 C865 1.408 . S
C869 C868 1.404 . S
C869 H881 0.930 . S
C870 C866 1.524 . S
C870 H882 0.956 . S
C870 H883 0.961 . S
C870 H884 0.961 . S
C871 C868 1.539 . S
C871 H885 0.958 . S
C871 H886 0.961 . S
C871 H887 0.960 . S
H872 C856 0.931 . S
H873 C861 0.929 . S
H874 C862 0.960 . S
H875 C862 0.962 . S
H876 C862 0.960 . S
H877 C863 0.961 . S
H878 C863 0.961 . S
H879 C863 0.961 . S
H880 C864 0.931 . S
H881 C869 0.930 . S
H882 C870 0.956 . S
H883 C870 0.961 . S
H884 C870 0.961 . S
H885 C871 0.958 . S
H886 C871 0.961 . S
H887 C871 0.960 . S
C888 C889 1.391 . S
C888 C890 1.394 . S
C888 H904 0.931 . S
C889 C888 1.391 . S
C889 C893 1.376 . S
C890 C888 1.394 . S
C890 C891 1.369 . S
C890 C894 1.531 . S
C891 C890 1.369 . S
C891 C892 1.410 . S
C891 C899 1.503 . S
C892 C891 1.410 . S
C892 C893 1.392 . S
C892 C895 1.511 . S
C893 C889 1.376 . S
C893 C892 1.392 . S
C893 H905 0.929 . S
C894 C890 1.531 . S
C894 H906 0.960 . S
C894 H907 0.962 . S
C894 H908 0.960 . S
C895 C892 1.511 . S
C895 H909 0.961 . S
C895 H910 0.961 . S
C895 H911 0.961 . S
C896 C897 1.370 . S
C896 C898 1.363 . S
C896 H912 0.931 . S
C897 C896 1.370 . S
C897 C901 1.408 . S
C898 C896 1.363 . S
C898 C899 1.370 . S
C898 C902 1.524 . S
C899 C891 1.503 . S
C899 C898 1.370 . S
C899 C900 1.403 . S
C900 C899 1.403 . S
C900 C901 1.404 . S
C900 C903 1.539 . S
C901 C897 1.408 . S
C901 C900 1.404 . S
C901 H913 0.930 . S
C902 C898 1.524 . S
C902 H914 0.956 . S
C902 H915 0.961 . S
C902 H916 0.961 . S
C903 C900 1.539 . S
C903 H917 0.958 . S
C903 H918 0.961 . S
C903 H919 0.960 . S
H904 C888 0.931 . S
H905 C893 0.929 . S
H906 C894 0.960 . S
H907 C894 0.962 . S
H908 C894 0.960 . S
H909 C895 0.961 . S
H910 C895 0.961 . S
H911 C895 0.961 . S
H912 C896 0.931 . S
H913 C901 0.930 . S
H914 C902 0.956 . S
H915 C902 0.961 . S
H916 C902 0.961 . S
H917 C903 0.958 . S
H918 C903 0.961 . S
H919 C903 0.960 . S
C920 C921 1.391 . S
C920 C922 1.394 . S
C920 H936 0.931 . S
C921 C920 1.391 . S
C921 C925 1.376 . S
C922 C920 1.394 . S
C922 C923 1.369 . S
C922 C926 1.531 . S
C923 C922 1.369 . S
C923 C924 1.410 . S
C923 C931 1.503 . S
C924 C923 1.410 . S
C924 C925 1.392 . S
C924 C927 1.511 . S
C925 C921 1.376 . S
C925 C924 1.392 . S
C925 H937 0.929 . S
C926 C922 1.531 . S
C926 H938 0.960 . S
C926 H939 0.962 . S
C926 H940 0.960 . S
C927 C924 1.511 . S
C927 H941 0.961 . S
C927 H942 0.961 . S
C927 H943 0.961 . S
C928 C929 1.370 . S
C928 C930 1.363 . S
C928 H944 0.931 . S
C929 C928 1.370 . S
C929 C933 1.408 . S
C930 C928 1.363 . S
C930 C931 1.370 . S
C930 C934 1.524 . S
C931 C923 1.503 . S
C931 C930 1.370 . S
C931 C932 1.403 . S
C932 C931 1.403 . S
C932 C933 1.404 . S
C932 C935 1.539 . S
C933 C929 1.408 . S
C933 C932 1.404 . S
C933 H945 0.930 . S
C934 C930 1.524 . S
C934 H946 0.956 . S
C934 H947 0.961 . S
C934 H948 0.961 . S
C935 C932 1.539 . S
C935 H949 0.958 . S
C935 H950 0.961 . S
C935 H951 0.960 . S
H936 C920 0.931 . S
H937 C925 0.929 . S
H938 C926 0.960 . S
H939 C926 0.962 . S
H940 C926 0.960 . S
H941 C927 0.961 . S
H942 C927 0.961 . S
H943 C927 0.961 . S
H944 C928 0.931 . S
H945 C933 0.930 . S
H946 C934 0.956 . S
H947 C934 0.961 . S
H948 C934 0.961 . S
H949 C935 0.958 . S
H950 C935 0.961 . S
H951 C935 0.960 . S
C952 C953 1.391 . S
C952 C954 1.394 . S
C952 H968 0.931 . S
C953 C952 1.391 . S
C953 C957 1.376 . S
C954 C952 1.394 . S
C954 C955 1.369 . S
C954 C958 1.531 . S
C955 C954 1.369 . S
C955 C956 1.410 . S
C955 C963 1.503 . S
C956 C955 1.410 . S
C956 C957 1.392 . S
C956 C959 1.511 . S
C957 C953 1.376 . S
C957 C956 1.392 . S
C957 H969 0.929 . S
C958 C954 1.531 . S
C958 H970 0.960 . S
C958 H971 0.962 . S
C958 H972 0.960 . S
C959 C956 1.511 . S
C959 H973 0.961 . S
C959 H974 0.961 . S
C959 H975 0.961 . S
C960 C961 1.370 . S
C960 C962 1.363 . S
C960 H976 0.931 . S
C961 C960 1.370 . S
C961 C965 1.408 . S
C962 C960 1.363 . S
C962 C963 1.370 . S
C962 C966 1.524 . S
C963 C955 1.503 . S
C963 C962 1.370 . S
C963 C964 1.403 . S
C964 C963 1.403 . S
C964 C965 1.404 . S
C964 C967 1.539 . S
C965 C961 1.408 . S
C965 C964 1.404 . S
C965 H977 0.930 . S
C966 C962 1.524 . S
C966 H978 0.956 . S
C966 H979 0.961 . S
C966 H980 0.961 . S
C967 C964 1.539 . S
C967 H981 0.958 . S
C967 H982 0.961 . S
C967 H983 0.960 . S
H968 C952 0.931 . S
H969 C957 0.929 . S
H970 C958 0.960 . S
H971 C958 0.962 . S
H972 C958 0.960 . S
H973 C959 0.961 . S
H974 C959 0.961 . S
H975 C959 0.961 . S
H976 C960 0.931 . S
H977 C965 0.930 . S
H978 C966 0.956 . S
H979 C966 0.961 . S
H980 C966 0.961 . S
H981 C967 0.958 . S
H982 C967 0.961 . S
H983 C967 0.960 . S
C984 C985 1.391 . S
C984 C986 1.394 . S
C984 H1000 0.931 . S
C985 C984 1.391 . S
C985 C989 1.376 . S
C986 C984 1.394 . S
C986 C987 1.369 . S
C986 C990 1.531 . S
C987 C986 1.369 . S
C987 C988 1.410 . S
C987 C995 1.503 . S
C988 C987 1.410 . S
C988 C989 1.392 . S
C988 C991 1.511 . S
C989 C985 1.376 . S
C989 C988 1.392 . S
C989 H1001 0.929 . S
C990 C986 1.531 . S
C990 H1002 0.960 . S
C990 H1003 0.962 . S
C990 H1004 0.960 . S
C991 C988 1.511 . S
C991 H1005 0.961 . S
C991 H1006 0.961 . S
C991 H1007 0.961 . S
C992 C993 1.370 . S
C992 C994 1.363 . S
C992 H1008 0.931 . S
C993 C992 1.370 . S
C993 C997 1.408 . S
C994 C992 1.363 . S
C994 C995 1.370 . S
C994 C998 1.524 . S
C995 C987 1.503 . S
C995 C994 1.370 . S
C995 C996 1.403 . S
C996 C995 1.403 . S
C996 C997 1.404 . S
C996 C999 1.539 . S
C997 C993 1.408 . S
C997 C996 1.404 . S
C997 H1009 0.930 . S
C998 C994 1.524 . S
C998 H1010 0.956 . S
C998 H1011 0.961 . S
C998 H1012 0.961 . S
C999 C996 1.539 . S
C999 H1013 0.958 . S
C999 H1014 0.961 . S
C999 H1015 0.960 . S
H1000 C984 0.931 . S
H1001 C989 0.929 . S
H1002 C990 0.960 . S
H1003 C990 0.962 . S
H1004 C990 0.960 . S
H1005 C991 0.961 . S
H1006 C991 0.961 . S
H1007 C991 0.961 . S
H1008 C992 0.931 . S
H1009 C997 0.930 . S
H1010 C998 0.956 . S
H1011 C998 0.961 . S
H1012 C998 0.961 . S
H1013 C999 0.958 . S
H1014 C999 0.961 . S
H1015 C999 0.960 . S
C1016 C1017 1.391 . S
C1016 C1018 1.394 . S
C1016 H1032 0.931 . S
C1017 C1016 1.391 . S
C1017 C1021 1.376 . S
C1018 C1016 1.394 . S
C1018 C1019 1.369 . S
C1018 C1022 1.531 . S
C1019 C1018 1.369 . S
C1019 C1020 1.410 . S
C1019 C1027 1.503 . S
C1020 C1019 1.410 . S
C1020 C1021 1.392 . S
C1020 C1023 1.511 . S
C1021 C1017 1.376 . S
C1021 C1020 1.392 . S
C1021 H1033 0.929 . S
C1022 C1018 1.531 . S
C1022 H1034 0.960 . S
C1022 H1035 0.962 . S
C1022 H1036 0.960 . S
C1023 C1020 1.511 . S
C1023 H1037 0.961 . S
C1023 H1038 0.961 . S
C1023 H1039 0.961 . S
C1024 C1025 1.370 . S
C1024 C1026 1.363 . S
C1024 H1040 0.931 . S
C1025 C1024 1.370 . S
C1025 C1029 1.408 . S
C1026 C1024 1.363 . S
C1026 C1027 1.370 . S
C1026 C1030 1.524 . S
C1027 C1019 1.503 . S
C1027 C1026 1.370 . S
C1027 C1028 1.403 . S
C1028 C1027 1.403 . S
C1028 C1029 1.404 . S
C1028 C1031 1.539 . S
C1029 C1025 1.408 . S
C1029 C1028 1.404 . S
C1029 H1041 0.930 . S
C1030 C1026 1.524 . S
C1030 H1042 0.956 . S
C1030 H1043 0.961 . S
C1030 H1044 0.961 . S
C1031 C1028 1.539 . S
C1031 H1045 0.958 . S
C1031 H1046 0.961 . S
C1031 H1047 0.960 . S
H1032 C1016 0.931 . S
H1033 C1021 0.929 . S
H1034 C1022 0.960 . S
H1035 C1022 0.962 . S
H1036 C1022 0.960 . S
H1037 C1023 0.961 . S
H1038 C1023 0.961 . S
H1039 C1023 0.961 . S
H1040 C1024 0.931 . S
H1041 C1029 0.930 . S
H1042 C1030 0.956 . S
H1043 C1030 0.961 . S
H1044 C1030 0.961 . S
H1045 C1031 0.958 . S
H1046 C1031 0.961 . S
H1047 C1031 0.960 . S
C1048 C1049 1.391 . S
C1048 C1050 1.394 . S
C1048 H1064 0.931 . S
C1049 C1048 1.391 . S
C1049 C1053 1.376 . S
C1050 C1048 1.394 . S
C1050 C1051 1.369 . S
C1050 C1054 1.531 . S
C1051 C1050 1.369 . S
C1051 C1052 1.410 . S
C1051 C1059 1.503 . S
C1052 C1051 1.410 . S
C1052 C1053 1.392 . S
C1052 C1055 1.511 . S
C1053 C1049 1.376 . S
C1053 C1052 1.392 . S
C1053 H1065 0.929 . S
C1054 C1050 1.531 . S
C1054 H1066 0.960 . S
C1054 H1067 0.962 . S
C1054 H1068 0.960 . S
C1055 C1052 1.511 . S
C1055 H1069 0.961 . S
C1055 H1070 0.961 . S
C1055 H1071 0.961 . S
C1056 C1057 1.370 . S
C1056 C1058 1.363 . S
C1056 H1072 0.931 . S
C1057 C1056 1.370 . S
C1057 C1061 1.408 . S
C1058 C1056 1.363 . S
C1058 C1059 1.370 . S
C1058 C1062 1.524 . S
C1059 C1051 1.503 . S
C1059 C1058 1.370 . S
C1059 C1060 1.403 . S
C1060 C1059 1.403 . S
C1060 C1061 1.404 . S
C1060 C1063 1.539 . S
C1061 C1057 1.408 . S
C1061 C1060 1.404 . S
C1061 H1073 0.930 . S
C1062 C1058 1.524 . S
C1062 H1074 0.956 . S
C1062 H1075 0.961 . S
C1062 H1076 0.961 . S
C1063 C1060 1.539 . S
C1063 H1077 0.958 . S
C1063 H1078 0.961 . S
C1063 H1079 0.960 . S
H1064 C1048 0.931 . S
H1065 C1053 0.929 . S
H1066 C1054 0.960 . S
H1067 C1054 0.962 . S
H1068 C1054 0.960 . S
H1069 C1055 0.961 . S
H1070 C1055 0.961 . S
H1071 C1055 0.961 . S
H1072 C1056 0.931 . S
H1073 C1061 0.930 . S
H1074 C1062 0.956 . S
H1075 C1062 0.961 . S
H1076 C1062 0.961 . S
H1077 C1063 0.958 . S
H1078 C1063 0.961 . S
H1079 C1063 0.960 . S
C1080 C1081 1.391 . S
C1080 C1082 1.394 . S
C1080 H1096 0.931 . S
C1081 C1080 1.391 . S
C1081 C1085 1.376 . S
C1082 C1080 1.394 . S
C1082 C1083 1.369 . S
C1082 C1086 1.531 . S
C1083 C1082 1.369 . S
C1083 C1084 1.410 . S
C1083 C1091 1.503 1_455 S
C1084 C1083 1.410 . S
C1084 C1085 1.392 . S
C1084 C1087 1.511 . S
C1085 C1081 1.376 . S
C1085 C1084 1.392 . S
C1085 H1097 0.929 . S
C1086 C1082 1.531 . S
C1086 H1098 0.960 1_455 S
C1086 H1099 0.962 . S
C1086 H1100 0.960 . S
C1087 C1084 1.511 . S
C1087 H1101 0.961 . S
C1087 H1102 0.948 1_455 S
C1087 H1103 0.961 . S
C1088 C1089 1.370 . S
C1088 C1090 1.363 . S
C1088 H1104 0.931 . S
C1089 C1088 1.370 . S
C1089 C1093 1.408 . S
C1090 C1088 1.363 . S
C1090 C1091 1.370 . S
C1090 C1094 1.524 . S
C1091 C1083 1.503 1_655 S
C1091 C1090 1.370 . S
C1091 C1092 1.403 . S
C1092 C1091 1.403 . S
C1092 C1093 1.404 . S
C1092 C1095 1.539 . S
C1093 C1089 1.408 . S
C1093 C1092 1.404 . S
C1093 H1105 0.930 . S
C1094 C1090 1.524 . S
C1094 H1106 0.956 . S
C1094 H1107 0.926 1_655 S
C1094 H1108 0.961 . S
C1095 C1092 1.539 . S
C1095 H1109 0.958 . S
C1095 H1110 0.961 . S
C1095 H1111 0.960 1_655 S
H1096 C1080 0.931 . S
H1097 C1085 0.929 . S
H1098 C1086 0.960 1_655 S
H1099 C1086 0.962 . S
H1100 C1086 0.960 . S
H1101 C1087 0.961 . S
H1102 C1087 0.948 1_655 S
H1103 C1087 0.961 . S
H1104 C1088 0.931 . S
H1105 C1093 0.930 . S
H1106 C1094 0.956 . S
H1107 C1094 0.926 1_455 S
H1108 C1094 0.961 . S
H1109 C1095 0.958 . S
H1110 C1095 0.961 . S
H1111 C1095 0.960 1_455 S
C1112 C1113 1.391 . S
C1112 C1114 1.394 . S
C1112 H1128 0.931 . S
C1113 C1112 1.391 . S
C1113 C1117 1.376 . S
C1114 C1112 1.394 . S
C1114 C1115 1.369 . S
C1114 C1118 1.531 . S
C1115 C1114 1.369 . S
C1115 C1116 1.410 . S
C1115 C1123 1.503 1_545 S
C1116 C1115 1.410 . S
C1116 C1117 1.392 . S
C1116 C1119 1.511 . S
C1117 C1113 1.376 . S
C1117 C1116 1.392 . S
C1117 H1129 0.929 . S
C1118 C1114 1.531 . S
C1118 H1130 0.960 1_545 S
C1118 H1131 0.962 . S
C1118 H1132 0.960 . S
C1119 C1116 1.511 . S
C1119 H1133 0.961 . S
C1119 H1134 0.961 1_545 S
C1119 H1135 0.961 . S
C1120 C1121 1.370 . S
C1120 C1122 1.363 . S
C1120 H1136 0.931 . S
C1121 C1120 1.370 . S
C1121 C1125 1.408 . S
C1122 C1120 1.363 . S
C1122 C1123 1.370 . S
C1122 C1126 1.524 . S
C1123 C1115 1.503 1_565 S
C1123 C1122 1.370 . S
C1123 C1124 1.403 . S
C1124 C1123 1.403 . S
C1124 C1125 1.404 . S
C1124 C1127 1.539 . S
C1125 C1121 1.408 . S
C1125 C1124 1.404 . S
C1125 H1137 0.930 . S
C1126 C1122 1.524 . S
C1126 H1138 0.956 1_565 S
C1126 H1139 0.961 1_565 S
C1126 H1140 0.961 . S
C1127 C1124 1.539 . S
C1127 H1141 0.958 . S
C1127 H1142 0.961 . S
C1127 H1143 0.960 . S
H1128 C1112 0.931 . S
H1129 C1117 0.929 . S
H1130 C1118 0.960 1_565 S
H1131 C1118 0.962 . S
H1132 C1118 0.960 . S
H1133 C1119 0.961 . S
H1134 C1119 0.961 1_565 S
H1135 C1119 0.961 . S
H1136 C1120 0.931 . S
H1137 C1125 0.930 . S
H1138 C1126 0.956 1_545 S
H1139 C1126 0.961 1_545 S
H1140 C1126 0.961 . S
H1141 C1127 0.958 . S
H1142 C1127 0.961 . S
H1143 C1127 0.960 . S
C1144 C1145 1.391 . S
C1144 C1146 1.394 . S
C1144 H1160 0.931 . S
C1145 C1144 1.391 . S
C1145 C1149 1.376 . S
C1146 C1144 1.394 . S
C1146 C1147 1.369 . S
C1146 C1150 1.531 . S
C1147 C1146 1.369 . S
C1147 C1148 1.410 . S
C1147 C1155 1.503 1_655 S
C1148 C1147 1.410 . S
C1148 C1149 1.392 . S
C1148 C1151 1.511 . S
C1149 C1145 1.376 . S
C1149 C1148 1.392 . S
C1149 H1161 0.929 . S
C1150 C1146 1.531 . S
C1150 H1162 0.960 1_655 S
C1150 H1163 0.962 . S
C1150 H1164 0.960 . S
C1151 C1148 1.511 . S
C1151 H1165 0.961 . S
C1151 H1166 0.961 1_655 S
C1151 H1167 0.961 . S
C1152 C1153 1.370 . S
C1152 C1154 1.363 . S
C1152 H1168 0.931 . S
C1153 C1152 1.370 . S
C1153 C1157 1.408 . S
C1154 C1152 1.363 . S
C1154 C1155 1.370 . S
C1154 C1158 1.524 . S
C1155 C1147 1.503 1_455 S
C1155 C1154 1.370 . S
C1155 C1156 1.403 . S
C1156 C1155 1.403 . S
C1156 C1157 1.404 . S
C1156 C1159 1.539 . S
C1157 C1153 1.408 . S
C1157 C1156 1.404 . S
C1157 H1169 0.930 . S
C1158 C1154 1.524 . S
C1158 H1170 0.945 1_455 S
C1158 H1171 0.961 1_455 S
C1158 H1172 0.961 . S
C1159 C1156 1.539 . S
C1159 H1173 0.958 . S
C1159 H1174 0.961 . S
C1159 H1175 0.960 . S
H1160 C1144 0.931 . S
H1161 C1149 0.929 . S
H1162 C1150 0.960 1_455 S
H1163 C1150 0.962 . S
H1164 C1150 0.960 . S
H1165 C1151 0.961 . S
H1166 C1151 0.961 1_455 S
H1167 C1151 0.961 . S
H1168 C1152 0.931 . S
H1169 C1157 0.930 . S
H1170 C1158 0.945 1_655 S
H1171 C1158 0.961 1_655 S
H1172 C1158 0.961 . S
H1173 C1159 0.958 . S
H1174 C1159 0.961 . S
H1175 C1159 0.960 . S
C1176 C1177 1.391 . S
C1176 C1178 1.394 . S
C1176 H1192 0.931 . S
C1177 C1176 1.391 . S
C1177 C1181 1.376 . S
C1178 C1176 1.394 . S
C1178 C1179 1.369 . S
C1178 C1182 1.531 . S
C1179 C1178 1.369 . S
C1179 C1180 1.410 . S
C1179 C1187 1.503 1_545 S
C1180 C1179 1.410 . S
C1180 C1181 1.392 . S
C1180 C1183 1.511 . S
C1181 C1177 1.376 . S
C1181 C1180 1.392 . S
C1181 H1193 0.929 . S
C1182 C1178 1.531 . S
C1182 H1194 0.960 1_545 S
C1182 H1195 0.962 . S
C1182 H1196 0.960 . S
C1183 C1180 1.511 . S
C1183 H1197 0.961 . S
C1183 H1198 0.961 1_545 S
C1183 H1199 0.961 . S
C1184 C1185 1.370 . S
C1184 C1186 1.363 . S
C1184 H1200 0.931 . S
C1185 C1184 1.370 . S
C1185 C1189 1.408 . S
C1186 C1184 1.363 . S
C1186 C1187 1.370 . S
C1186 C1190 1.524 . S
C1187 C1179 1.503 1_565 S
C1187 C1186 1.370 . S
C1187 C1188 1.403 . S
C1188 C1187 1.403 . S
C1188 C1189 1.404 . S
C1188 C1191 1.539 . S
C1189 C1185 1.408 . S
C1189 C1188 1.404 . S
C1189 H1201 0.930 . S
C1190 C1186 1.524 . S
C1190 H1202 0.933 1_565 S
C1190 H1203 0.961 1_565 S
C1190 H1204 0.961 . S
C1191 C1188 1.539 . S
C1191 H1205 0.958 . S
C1191 H1206 0.961 . S
C1191 H1207 0.960 . S
H1192 C1176 0.931 . S
H1193 C1181 0.929 . S
H1194 C1182 0.960 1_565 S
H1195 C1182 0.962 . S
H1196 C1182 0.960 . S
H1197 C1183 0.961 . S
H1198 C1183 0.961 1_565 S
H1199 C1183 0.961 . S
H1200 C1184 0.931 . S
H1201 C1189 0.930 . S
H1202 C1190 0.933 1_545 S
H1203 C1190 0.961 1_545 S
H1204 C1190 0.961 . S
H1205 C1191 0.958 . S
H1206 C1191 0.961 . S
H1207 C1191 0.960 . S
C1208 C1209 1.391 . S
C1208 C1210 1.394 . S
C1208 H1224 0.931 . S
C1209 C1208 1.391 . S
C1209 C1213 1.376 . S
C1210 C1208 1.394 . S
C1210 C1211 1.369 . S
C1210 C1214 1.531 . S
C1211 C1210 1.369 . S
C1211 C1212 1.410 . S
C1211 C1219 1.503 1_565 S
C1212 C1211 1.410 . S
C1212 C1213 1.392 . S
C1212 C1215 1.511 . S
C1213 C1209 1.376 . S
C1213 C1212 1.392 . S
C1213 H1225 0.929 . S
C1214 C1210 1.531 . S
C1214 H1226 0.960 1_565 S
C1214 H1227 0.962 . S
C1214 H1228 0.960 . S
C1215 C1212 1.511 . S
C1215 H1229 0.961 . S
C1215 H1230 0.958 1_565 S
C1215 H1231 0.961 . S
C1216 C1217 1.370 . S
C1216 C1218 1.363 . S
C1216 H1232 0.931 . S
C1217 C1216 1.370 . S
C1217 C1221 1.408 . S
C1218 C1216 1.363 . S
C1218 C1219 1.370 . S
C1218 C1222 1.524 . S
C1219 C1211 1.503 1_545 S
C1219 C1218 1.370 . S
C1219 C1220 1.403 . S
C1220 C1219 1.403 . S
C1220 C1221 1.404 . S
C1220 C1223 1.539 . S
C1221 C1217 1.408 . S
C1221 C1220 1.404 . S
C1221 H1233 0.930 . S
C1222 C1218 1.524 . S
C1222 H1234 0.956 . S
C1222 H1235 0.961 1_545 S
C1222 H1236 0.961 . S
C1223 C1220 1.539 . S
C1223 H1237 0.958 . S
C1223 H1238 0.961 . S
C1223 H1239 0.921 1_545 S
H1224 C1208 0.931 . S
H1225 C1213 0.929 . S
H1226 C1214 0.960 1_545 S
H1227 C1214 0.962 . S
H1228 C1214 0.960 . S
H1229 C1215 0.961 . S
H1230 C1215 0.958 1_545 S
H1231 C1215 0.961 . S
H1232 C1216 0.931 . S
H1233 C1221 0.930 . S
H1234 C1222 0.956 . S
H1235 C1222 0.961 1_565 S
H1236 C1222 0.961 . S
H1237 C1223 0.958 . S
H1238 C1223 0.961 . S
H1239 C1223 0.921 1_565 S
C1240 C1241 1.391 . S
C1240 C1242 1.394 . S
C1240 H1256 0.931 . S
C1241 C1240 1.391 . S
C1241 C1245 1.376 . S
C1242 C1240 1.394 . S
C1242 C1243 1.369 . S
C1242 C1246 1.531 . S
C1243 C1242 1.369 . S
C1243 C1244 1.410 . S
C1243 C1251 1.503 1_655 S
C1244 C1243 1.410 . S
C1244 C1245 1.392 . S
C1244 C1247 1.511 . S
C1245 C1241 1.376 . S
C1245 C1244 1.392 . S
C1245 H1257 0.929 . S
C1246 C1242 1.531 . S
C1246 H1258 0.960 1_655 S
C1246 H1259 0.962 . S
C1246 H1260 0.960 . S
C1247 C1244 1.511 . S
C1247 H1261 0.961 . S
C1247 H1262 0.961 1_655 S
C1247 H1263 0.961 . S
C1248 C1249 1.370 . S
C1248 C1250 1.363 . S
C1248 H1264 0.931 . S
C1249 C1248 1.370 . S
C1249 C1253 1.408 . S
C1250 C1248 1.363 . S
C1250 C1251 1.370 . S
C1250 C1254 1.524 . S
C1251 C1243 1.503 1_455 S
C1251 C1250 1.370 . S
C1251 C1252 1.403 . S
C1252 C1251 1.403 . S
C1252 C1253 1.404 . S
C1252 C1255 1.539 . S
C1253 C1249 1.408 . S
C1253 C1252 1.404 . S
C1253 H1265 0.930 . S
C1254 C1250 1.524 . S
C1254 H1266 0.956 1_455 S
C1254 H1267 0.961 1_455 S
C1254 H1268 0.961 . S
C1255 C1252 1.539 . S
C1255 H1269 0.958 . S
C1255 H1270 0.961 . S
C1255 H1271 0.960 . S
H1256 C1240 0.931 . S
H1257 C1245 0.929 . S
H1258 C1246 0.960 1_455 S
H1259 C1246 0.962 . S
H1260 C1246 0.960 . S
H1261 C1247 0.961 . S
H1262 C1247 0.961 1_455 S
H1263 C1247 0.961 . S
H1264 C1248 0.931 . S
H1265 C1253 0.930 . S
H1266 C1254 0.956 1_655 S
H1267 C1254 0.961 1_655 S
H1268 C1254 0.961 . S
H1269 C1255 0.958 . S
H1270 C1255 0.961 . S
H1271 C1255 0.960 . S
C1272 C1273 1.391 . S
C1272 C1274 1.394 . S
C1272 H1288 0.931 . S
C1273 C1272 1.391 . S
C1273 C1277 1.376 . S
C1274 C1272 1.394 . S
C1274 C1275 1.369 . S
C1274 C1278 1.531 . S
C1275 C1274 1.369 . S
C1275 C1276 1.410 . S
C1275 C1283 1.503 1_565 S
C1276 C1275 1.410 . S
C1276 C1277 1.392 . S
C1276 C1279 1.511 . S
C1277 C1273 1.376 . S
C1277 C1276 1.392 . S
C1277 H1289 0.929 . S
C1278 C1274 1.531 . S
C1278 H1290 0.931 1_565 S
C1278 H1291 0.962 . S
C1278 H1292 0.960 . S
C1279 C1276 1.511 . S
C1279 H1293 0.961 . S
C1279 H1294 0.961 1_565 S
C1279 H1295 0.961 . S
C1280 C1281 1.370 . S
C1280 C1282 1.363 . S
C1280 H1296 0.931 . S
C1281 C1280 1.370 . S
C1281 C1285 1.408 . S
C1282 C1280 1.363 . S
C1282 C1283 1.370 . S
C1282 C1286 1.524 . S
C1283 C1275 1.503 1_545 S
C1283 C1282 1.370 . S
C1283 C1284 1.403 . S
C1284 C1283 1.403 . S
C1284 C1285 1.404 . S
C1284 C1287 1.539 . S
C1285 C1281 1.408 . S
C1285 C1284 1.404 . S
C1285 H1297 0.930 . S
C1286 C1282 1.524 . S
C1286 H1298 0.956 1_545 S
C1286 H1299 0.961 1_545 S
C1286 H1300 0.961 . S
C1287 C1284 1.539 . S
C1287 H1301 0.958 . S
C1287 H1302 0.961 . S
C1287 H1303 0.960 . S
H1288 C1272 0.931 . S
H1289 C1277 0.929 . S
H1290 C1278 0.931 1_545 S
H1291 C1278 0.962 . S
H1292 C1278 0.960 . S
H1293 C1279 0.961 . S
H1294 C1279 0.961 1_545 S
H1295 C1279 0.961 . S
H1296 C1280 0.931 . S
H1297 C1285 0.930 . S
H1298 C1286 0.956 1_565 S
H1299 C1286 0.961 1_565 S
H1300 C1286 0.961 . S
H1301 C1287 0.958 . S
H1302 C1287 0.961 . S
H1303 C1287 0.960 . S
C1304 C1305 1.391 . S
C1304 C1306 1.394 . S
C1304 H1320 0.931 . S
C1305 C1304 1.391 . S
C1305 C1309 1.376 . S
C1306 C1304 1.394 . S
C1306 C1307 1.369 . S
C1306 C1310 1.531 . S
C1307 C1306 1.369 . S
C1307 C1308 1.410 . S
C1307 C1315 1.503 1_655 S
C1308 C1307 1.410 . S
C1308 C1309 1.392 . S
C1308 C1311 1.511 . S
C1309 C1305 1.376 . S
C1309 C1308 1.392 . S
C1309 H1321 0.929 . S
C1310 C1306 1.531 . S
C1310 H1322 0.960 1_655 S
C1310 H1323 0.962 . S
C1310 H1324 0.960 . S
C1311 C1308 1.511 . S
C1311 H1325 0.961 . S
C1311 H1326 0.958 1_655 S
C1311 H1327 0.961 . S
C1312 C1313 1.370 . S
C1312 C1314 1.363 . S
C1312 H1328 0.931 . S
C1313 C1312 1.370 . S
C1313 C1317 1.408 . S
C1314 C1312 1.363 . S
C1314 C1315 1.370 . S
C1314 C1318 1.524 . S
C1315 C1307 1.503 1_455 S
C1315 C1314 1.370 . S
C1315 C1316 1.403 . S
C1316 C1315 1.403 . S
C1316 C1317 1.404 . S
C1316 C1319 1.539 . S
C1317 C1313 1.408 . S
C1317 C1316 1.404 . S
C1317 H1329 0.930 . S
C1318 C1314 1.524 . S
C1318 H1330 0.956 . S
C1318 H1331 0.961 1_455 S
C1318 H1332 0.961 . S
C1319 C1316 1.539 . S
C1319 H1333 0.958 . S
C1319 H1334 0.961 . S
C1319 H1335 0.985 . S
H1320 C1304 0.931 . S
H1321 C1309 0.929 . S
H1322 C1310 0.960 1_455 S
H1323 C1310 0.962 . S
H1324 C1310 0.960 . S
H1325 C1311 0.961 . S
H1326 C1311 0.958 1_455 S
H1327 C1311 0.961 . S
H1328 C1312 0.931 . S
H1329 C1317 0.930 . S
H1330 C1318 0.956 . S
H1331 C1318 0.961 1_655 S
H1332 C1318 0.961 . S
H1333 C1319 0.958 . S
H1334 C1319 0.961 . S
H1335 C1319 0.985 . S
C1336 C1337 1.391 . S
C1336 C1338 1.394 . S
C1336 H1352 0.931 . S
C1337 C1336 1.391 . S
C1337 C1341 1.376 . S
C1338 C1336 1.394 . S
C1338 C1339 1.369 . S
C1338 C1342 1.531 . S
C1339 C1338 1.369 . S
C1339 C1340 1.410 . S
C1339 C1347 1.503 1_556 S
C1340 C1339 1.410 . S
C1340 C1341 1.392 . S
C1340 C1343 1.511 . S
C1341 C1337 1.376 . S
C1341 C1340 1.392 . S
C1341 H1353 0.929 . S
C1342 C1338 1.531 . S
C1342 H1354 0.971 . S
C1342 H1355 0.962 . S
C1342 H1356 0.960 . S
C1343 C1340 1.511 . S
C1343 H1357 0.961 . S
C1343 H1358 0.961 1_556 S
C1343 H1359 0.961 . S
C1344 C1345 1.370 . S
C1344 C1346 1.363 . S
C1344 H1360 0.931 . S
C1345 C1344 1.370 . S
C1345 C1349 1.408 . S
C1346 C1344 1.363 . S
C1346 C1347 1.370 . S
C1346 C1350 1.524 . S
C1347 C1339 1.503 1_554 S
C1347 C1346 1.370 . S
C1347 C1348 1.403 . S
C1348 C1347 1.403 . S
C1348 C1349 1.404 . S
C1348 C1351 1.539 . S
C1349 C1345 1.408 . S
C1349 C1348 1.404 . S
C1349 H1361 0.930 . S
C1350 C1346 1.524 . S
C1350 H1362 0.956 . S
C1350 H1363 0.977 . S
C1350 H1364 0.961 . S
C1351 C1348 1.539 . S
C1351 H1365 0.958 . S
C1351 H1366 0.961 . S
C1351 H1367 0.920 1_554 S
H1352 C1336 0.931 . S
H1353 C1341 0.929 . S
H1354 C1342 0.971 . S
H1355 C1342 0.962 . S
H1356 C1342 0.960 . S
H1357 C1343 0.961 . S
H1358 C1343 0.961 1_554 S
H1359 C1343 0.961 . S
H1360 C1344 0.931 . S
H1361 C1349 0.930 . S
H1362 C1350 0.956 . S
H1363 C1350 0.977 . S
H1364 C1350 0.961 . S
H1365 C1351 0.958 . S
H1366 C1351 0.961 . S
H1367 C1351 0.920 1_556 S
C1368 C1369 1.391 . S
C1368 C1370 1.394 . S
C1368 H1384 0.931 . S
C1369 C1368 1.391 . S
C1369 C1373 1.376 . S
C1370 C1368 1.394 . S
C1370 C1371 1.369 . S
C1370 C1374 1.531 . S
C1371 C1370 1.369 . S
C1371 C1372 1.410 . S
C1371 C1379 1.503 1_556 S
C1372 C1371 1.410 . S
C1372 C1373 1.392 . S
C1372 C1375 1.511 . S
C1373 C1369 1.376 . S
C1373 C1372 1.392 . S
C1373 H1385 0.929 . S
C1374 C1370 1.531 . S
C1374 H1386 0.960 1_556 S
C1374 H1387 0.962 . S
C1374 H1388 0.960 . S
C1375 C1372 1.511 . S
C1375 H1389 0.961 . S
C1375 H1390 0.949 1_556 S
C1375 H1391 0.961 . S
C1376 C1377 1.370 . S
C1376 C1378 1.363 . S
C1376 H1392 0.931 . S
C1377 C1376 1.370 . S
C1377 C1381 1.408 . S
C1378 C1376 1.363 . S
C1378 C1379 1.370 . S
C1378 C1382 1.524 . S
C1379 C1371 1.503 1_554 S
C1379 C1378 1.370 . S
C1379 C1380 1.403 . S
C1380 C1379 1.403 . S
C1380 C1381 1.404 . S
C1380 C1383 1.539 . S
C1381 C1377 1.408 . S
C1381 C1380 1.404 . S
C1381 H1393 0.930 . S
C1382 C1378 1.524 . S
C1382 H1394 0.956 . S
C1382 H1395 0.961 1_554 S
C1382 H1396 0.961 . S
C1383 C1380 1.539 . S
C1383 H1397 0.958 . S
C1383 H1398 0.961 . S
C1383 H1399 0.960 1_554 S
H1384 C1368 0.931 . S
H1385 C1373 0.929 . S
H1386 C1374 0.960 1_554 S
H1387 C1374 0.962 . S
H1388 C1374 0.960 . S
H1389 C1375 0.961 . S
H1390 C1375 0.949 1_554 S
H1391 C1375 0.961 . S
H1392 C1376 0.931 . S
H1393 C1381 0.930 . S
H1394 C1382 0.956 . S
H1395 C1382 0.961 1_556 S
H1396 C1382 0.961 . S
H1397 C1383 0.958 . S
H1398 C1383 0.961 . S
H1399 C1383 0.960 1_556 S
C1400 C1401 1.391 . S
C1400 C1402 1.394 . S
C1400 H1416 0.931 . S
C1401 C1400 1.391 . S
C1401 C1405 1.376 . S
C1402 C1400 1.394 . S
C1402 C1403 1.369 . S
C1402 C1406 1.531 . S
C1403 C1402 1.369 . S
C1403 C1404 1.410 . S
C1403 C1411 1.503 1_556 S
C1404 C1403 1.410 . S
C1404 C1405 1.392 . S
C1404 C1407 1.511 . S
C1405 C1401 1.376 . S
C1405 C1404 1.392 . S
C1405 H1417 0.929 . S
C1406 C1402 1.531 . S
C1406 H1418 0.960 1_556 S
C1406 H1419 0.962 . S
C1406 H1420 0.960 . S
C1407 C1404 1.511 . S
C1407 H1421 0.961 . S
C1407 H1422 0.961 1_556 S
C1407 H1423 0.961 . S
C1408 C1409 1.370 . S
C1408 C1410 1.363 . S
C1408 H1424 0.931 . S
C1409 C1408 1.370 . S
C1409 C1413 1.408 . S
C1410 C1408 1.363 . S
C1410 C1411 1.370 . S
C1410 C1414 1.524 . S
C1411 C1403 1.503 1_554 S
C1411 C1410 1.370 . S
C1411 C1412 1.403 . S
C1412 C1411 1.403 . S
C1412 C1413 1.404 . S
C1412 C1415 1.539 . S
C1413 C1409 1.408 . S
C1413 C1412 1.404 . S
C1413 H1425 0.930 . S
C1414 C1410 1.524 . S
C1414 H1426 0.946 1_554 S
C1414 H1427 0.961 1_554 S
C1414 H1428 0.961 . S
C1415 C1412 1.539 . S
C1415 H1429 0.958 . S
C1415 H1430 0.961 . S
C1415 H1431 0.960 . S
H1416 C1400 0.931 . S
H1417 C1405 0.929 . S
H1418 C1406 0.960 1_554 S
H1419 C1406 0.962 . S
H1420 C1406 0.960 . S
H1421 C1407 0.961 . S
H1422 C1407 0.961 1_554 S
H1423 C1407 0.961 . S
H1424 C1408 0.931 . S
H1425 C1413 0.930 . S
H1426 C1414 0.946 1_556 S
H1427 C1414 0.961 1_556 S
H1428 C1414 0.961 . S
H1429 C1415 0.958 . S
H1430 C1415 0.961 . S
H1431 C1415 0.960 . S
C1432 C1433 1.391 . S
C1432 C1434 1.394 . S
C1432 H1448 0.931 . S
C1433 C1432 1.391 . S
C1433 C1437 1.376 . S
C1434 C1432 1.394 . S
C1434 C1435 1.369 . S
C1434 C1438 1.531 . S
C1435 C1434 1.369 . S
C1435 C1436 1.410 . S
C1435 C1443 1.503 1_556 S
C1436 C1435 1.410 . S
C1436 C1437 1.392 . S
C1436 C1439 1.511 . S
C1437 C1433 1.376 . S
C1437 C1436 1.392 . S
C1437 H1449 0.929 . S
C1438 C1434 1.531 . S
C1438 H1450 0.960 1_556 S
C1438 H1451 0.962 . S
C1438 H1452 0.960 . S
C1439 C1436 1.511 . S
C1439 H1453 0.961 . S
C1439 H1454 0.925 1_556 S
C1439 H1455 0.961 . S
C1440 C1441 1.370 . S
C1440 C1442 1.363 . S
C1440 H1456 0.931 . S
C1441 C1440 1.370 . S
C1441 C1445 1.408 . S
C1442 C1440 1.363 . S
C1442 C1443 1.370 . S
C1442 C1446 1.524 . S
C1443 C1435 1.503 1_554 S
C1443 C1442 1.370 . S
C1443 C1444 1.403 . S
C1444 C1443 1.403 . S
C1444 C1445 1.404 . S
C1444 C1447 1.539 . S
C1445 C1441 1.408 . S
C1445 C1444 1.404 . S
C1445 H1457 0.930 . S
C1446 C1442 1.524 . S
C1446 H1458 0.956 . S
C1446 H1459 0.952 1_554 S
C1446 H1460 0.961 . S
C1447 C1444 1.539 . S
C1447 H1461 0.958 . S
C1447 H1462 0.961 . S
C1447 H1463 0.960 1_554 S
H1448 C1432 0.931 . S
H1449 C1437 0.929 . S
H1450 C1438 0.960 1_554 S
H1451 C1438 0.962 . S
H1452 C1438 0.960 . S
H1453 C1439 0.961 . S
H1454 C1439 0.925 1_554 S
H1455 C1439 0.961 . S
H1456 C1440 0.931 . S
H1457 C1445 0.930 . S
H1458 C1446 0.956 . S
H1459 C1446 0.952 1_556 S
H1460 C1446 0.961 . S
H1461 C1447 0.958 . S
H1462 C1447 0.961 . S
H1463 C1447 0.960 1_556 S
C1464 C1465 1.391 . S
C1464 C1466 1.394 . S
C1464 H1480 0.931 . S
C1465 C1464 1.391 . S
C1465 C1469 1.376 . S
C1466 C1464 1.394 . S
C1466 C1467 1.369 . S
C1466 C1470 1.531 . S
C1467 C1466 1.369 . S
C1467 C1468 1.410 . S
C1467 C1475 1.503 . S
C1468 C1467 1.410 . S
C1468 C1469 1.392 . S
C1468 C1471 1.511 . S
C1469 C1465 1.376 . S
C1469 C1468 1.392 . S
C1469 H1481 0.929 . S
C1470 C1466 1.531 . S
C1470 H1482 0.960 . S
C1470 H1483 0.962 . S
C1470 H1484 0.960 . S
C1471 C1468 1.511 . S
C1471 H1485 0.961 . S
C1471 H1486 0.961 . S
C1471 H1487 0.961 . S
C1472 C1473 1.370 . S
C1472 C1474 1.363 . S
C1472 H1488 0.931 . S
C1473 C1472 1.370 . S
C1473 C1477 1.408 . S
C1474 C1472 1.363 . S
C1474 C1475 1.370 . S
C1474 C1478 1.524 . S
C1475 C1467 1.503 . S
C1475 C1474 1.370 . S
C1475 C1476 1.403 . S
C1476 C1475 1.403 . S
C1476 C1477 1.404 . S
C1476 C1479 1.539 . S
C1477 C1473 1.408 . S
C1477 C1476 1.404 . S
C1477 H1489 0.930 . S
C1478 C1474 1.524 . S
C1478 H1490 0.956 . S
C1478 H1491 0.961 . S
C1478 H1492 0.961 . S
C1479 C1476 1.539 . S
C1479 H1493 0.958 . S
C1479 H1494 0.961 . S
C1479 H1495 0.960 . S
H1480 C1464 0.931 . S
H1481 C1469 0.929 . S
H1482 C1470 0.960 . S
H1483 C1470 0.962 . S
H1484 C1470 0.960 . S
H1485 C1471 0.961 . S
H1486 C1471 0.961 . S
H1487 C1471 0.961 . S
H1488 C1472 0.931 . S
H1489 C1477 0.930 . S
H1490 C1478 0.956 . S
H1491 C1478 0.961 . S
H1492 C1478 0.961 . S
H1493 C1479 0.958 . S
H1494 C1479 0.961 . S
H1495 C1479 0.960 . S
C1496 C1497 1.391 . S
C1496 C1498 1.394 . S
C1496 H1512 0.931 . S
C1497 C1496 1.391 . S
C1497 C1501 1.376 . S
C1498 C1496 1.394 . S
C1498 C1499 1.369 . S
C1498 C1502 1.531 . S
C1499 C1498 1.369 . S
C1499 C1500 1.410 . S
C1499 C1507 1.503 . S
C1500 C1499 1.410 . S
C1500 C1501 1.392 . S
C1500 C1503 1.511 . S
C1501 C1497 1.376 . S
C1501 C1500 1.392 . S
C1501 H1513 0.929 . S
C1502 C1498 1.531 . S
C1502 H1514 0.960 . S
C1502 H1515 0.962 . S
C1502 H1516 0.960 . S
C1503 C1500 1.511 . S
C1503 H1517 0.961 . S
C1503 H1518 0.961 . S
C1503 H1519 0.961 . S
C1504 C1505 1.370 . S
C1504 C1506 1.363 . S
C1504 H1520 0.931 . S
C1505 C1504 1.370 . S
C1505 C1509 1.408 . S
C1506 C1504 1.363 . S
C1506 C1507 1.370 . S
C1506 C1510 1.524 . S
C1507 C1499 1.503 . S
C1507 C1506 1.370 . S
C1507 C1508 1.403 . S
C1508 C1507 1.403 . S
C1508 C1509 1.404 . S
C1508 C1511 1.539 . S
C1509 C1505 1.408 . S
C1509 C1508 1.404 . S
C1509 H1521 0.930 . S
C1510 C1506 1.524 . S
C1510 H1522 0.956 . S
C1510 H1523 0.961 . S
C1510 H1524 0.961 . S
C1511 C1508 1.539 . S
C1511 H1525 0.958 . S
C1511 H1526 0.961 . S
C1511 H1527 0.960 . S
H1512 C1496 0.931 . S
H1513 C1501 0.929 . S
H1514 C1502 0.960 . S
H1515 C1502 0.962 . S
H1516 C1502 0.960 . S
H1517 C1503 0.961 . S
H1518 C1503 0.961 . S
H1519 C1503 0.961 . S
H1520 C1504 0.931 . S
H1521 C1509 0.930 . S
H1522 C1510 0.956 . S
H1523 C1510 0.961 . S
H1524 C1510 0.961 . S
H1525 C1511 0.958 . S
H1526 C1511 0.961 . S
H1527 C1511 0.960 . S
C1528 C1529 1.391 . S
C1528 C1530 1.394 . S
C1528 H1544 0.931 . S
C1529 C1528 1.391 . S
C1529 C1533 1.376 . S
C1530 C1528 1.394 . S
C1530 C1531 1.369 . S
C1530 C1534 1.531 . S
C1531 C1530 1.369 . S
C1531 C1532 1.410 . S
C1531 C1539 1.503 . S
C1532 C1531 1.410 . S
C1532 C1533 1.392 . S
C1532 C1535 1.511 . S
C1533 C1529 1.376 . S
C1533 C1532 1.392 . S
C1533 H1545 0.929 . S
C1534 C1530 1.531 . S
C1534 H1546 0.960 . S
C1534 H1547 0.962 . S
C1534 H1548 0.960 . S
C1535 C1532 1.511 . S
C1535 H1549 0.961 . S
C1535 H1550 0.961 . S
C1535 H1551 0.961 . S
C1536 C1537 1.370 . S
C1536 C1538 1.363 . S
C1536 H1552 0.931 . S
C1537 C1536 1.370 . S
C1537 C1541 1.408 . S
C1538 C1536 1.363 . S
C1538 C1539 1.370 . S
C1538 C1542 1.524 . S
C1539 C1531 1.503 . S
C1539 C1538 1.370 . S
C1539 C1540 1.403 . S
C1540 C1539 1.403 . S
C1540 C1541 1.404 . S
C1540 C1543 1.539 . S
C1541 C1537 1.408 . S
C1541 C1540 1.404 . S
C1541 H1553 0.930 . S
C1542 C1538 1.524 . S
C1542 H1554 0.956 . S
C1542 H1555 0.961 . S
C1542 H1556 0.961 . S
C1543 C1540 1.539 . S
C1543 H1557 0.958 . S
C1543 H1558 0.961 . S
C1543 H1559 0.960 . S
H1544 C1528 0.931 . S
H1545 C1533 0.929 . S
H1546 C1534 0.960 . S
H1547 C1534 0.962 . S
H1548 C1534 0.960 . S
H1549 C1535 0.961 . S
H1550 C1535 0.961 . S
H1551 C1535 0.961 . S
H1552 C1536 0.931 . S
H1553 C1541 0.930 . S
H1554 C1542 0.956 . S
H1555 C1542 0.961 . S
H1556 C1542 0.961 . S
H1557 C1543 0.958 . S
H1558 C1543 0.961 . S
H1559 C1543 0.960 . S
C1560 C1561 1.391 . S
C1560 C1562 1.394 . S
C1560 H1576 0.931 . S
C1561 C1560 1.391 . S
C1561 C1565 1.376 . S
C1562 C1560 1.394 . S
C1562 C1563 1.369 . S
C1562 C1566 1.531 . S
C1563 C1562 1.369 . S
C1563 C1564 1.410 . S
C1563 C1571 1.503 . S
C1564 C1563 1.410 . S
C1564 C1565 1.392 . S
C1564 C1567 1.511 . S
C1565 C1561 1.376 . S
C1565 C1564 1.392 . S
C1565 H1577 0.929 . S
C1566 C1562 1.531 . S
C1566 H1578 0.960 . S
C1566 H1579 0.962 . S
C1566 H1580 0.960 . S
C1567 C1564 1.511 . S
C1567 H1581 0.961 . S
C1567 H1582 0.961 . S
C1567 H1583 0.961 . S
C1568 C1569 1.370 . S
C1568 C1570 1.363 . S
C1568 H1584 0.931 . S
C1569 C1568 1.370 . S
C1569 C1573 1.408 . S
C1570 C1568 1.363 . S
C1570 C1571 1.370 . S
C1570 C1574 1.524 . S
C1571 C1563 1.503 . S
C1571 C1570 1.370 . S
C1571 C1572 1.403 . S
C1572 C1571 1.403 . S
C1572 C1573 1.404 . S
C1572 C1575 1.539 . S
C1573 C1569 1.408 . S
C1573 C1572 1.404 . S
C1573 H1585 0.930 . S
C1574 C1570 1.524 . S
C1574 H1586 0.956 . S
C1574 H1587 0.961 . S
C1574 H1588 0.961 . S
C1575 C1572 1.539 . S
C1575 H1589 0.958 . S
C1575 H1590 0.961 . S
C1575 H1591 0.960 . S
H1576 C1560 0.931 . S
H1577 C1565 0.929 . S
H1578 C1566 0.960 . S
H1579 C1566 0.962 . S
H1580 C1566 0.960 . S
H1581 C1567 0.961 . S
H1582 C1567 0.961 . S
H1583 C1567 0.961 . S
H1584 C1568 0.931 . S
H1585 C1573 0.930 . S
H1586 C1574 0.956 . S
H1587 C1574 0.961 . S
H1588 C1574 0.961 . S
H1589 C1575 0.958 . S
H1590 C1575 0.961 . S
H1591 C1575 0.960 . S
C1592 C1593 1.391 . S
C1592 C1594 1.394 . S
C1592 H1608 0.931 . S
C1593 C1592 1.391 . S
C1593 C1597 1.376 . S
C1594 C1592 1.394 . S
C1594 C1595 1.369 . S
C1594 C1598 1.531 . S
C1595 C1594 1.369 . S
C1595 C1596 1.410 . S
C1595 C1603 1.503 . S
C1596 C1595 1.410 . S
C1596 C1597 1.392 . S
C1596 C1599 1.511 . S
C1597 C1593 1.376 . S
C1597 C1596 1.392 . S
C1597 H1609 0.929 . S
C1598 C1594 1.531 . S
C1598 H1610 0.960 . S
C1598 H1611 0.962 . S
C1598 H1612 0.960 . S
C1599 C1596 1.511 . S
C1599 H1613 0.961 . S
C1599 H1614 0.961 . S
C1599 H1615 0.961 . S
C1600 C1601 1.370 . S
C1600 C1602 1.363 . S
C1600 H1616 0.931 . S
C1601 C1600 1.370 . S
C1601 C1605 1.408 . S
C1602 C1600 1.363 . S
C1602 C1603 1.370 . S
C1602 C1606 1.524 . S
C1603 C1595 1.503 . S
C1603 C1602 1.370 . S
C1603 C1604 1.403 . S
C1604 C1603 1.403 . S
C1604 C1605 1.404 . S
C1604 C1607 1.539 . S
C1605 C1601 1.408 . S
C1605 C1604 1.404 . S
C1605 H1617 0.930 . S
C1606 C1602 1.524 . S
C1606 H1618 0.956 . S
C1606 H1619 0.961 . S
C1606 H1620 0.961 . S
C1607 C1604 1.539 . S
C1607 H1621 0.958 . S
C1607 H1622 0.961 . S
C1607 H1623 0.960 . S
H1608 C1592 0.931 . S
H1609 C1597 0.929 . S
H1610 C1598 0.960 . S
H1611 C1598 0.962 . S
H1612 C1598 0.960 . S
H1613 C1599 0.961 . S
H1614 C1599 0.961 . S
H1615 C1599 0.961 . S
H1616 C1600 0.931 . S
H1617 C1605 0.930 . S
H1618 C1606 0.956 . S
H1619 C1606 0.961 . S
H1620 C1606 0.961 . S
H1621 C1607 0.958 . S
H1622 C1607 0.961 . S
H1623 C1607 0.960 . S
C1624 C1625 1.391 . S
C1624 C1626 1.394 . S
C1624 H1640 0.931 . S
C1625 C1624 1.391 . S
C1625 C1629 1.376 . S
C1626 C1624 1.394 . S
C1626 C1627 1.369 . S
C1626 C1630 1.531 . S
C1627 C1626 1.369 . S
C1627 C1628 1.410 . S
C1627 C1635 1.503 . S
C1628 C1627 1.410 . S
C1628 C1629 1.392 . S
C1628 C1631 1.511 . S
C1629 C1625 1.376 . S
C1629 C1628 1.392 . S
C1629 H1641 0.929 . S
C1630 C1626 1.531 . S
C1630 H1642 0.960 . S
C1630 H1643 0.962 . S
C1630 H1644 0.960 . S
C1631 C1628 1.511 . S
C1631 H1645 0.961 . S
C1631 H1646 0.961 . S
C1631 H1647 0.961 . S
C1632 C1633 1.370 . S
C1632 C1634 1.363 . S
C1632 H1648 0.931 . S
C1633 C1632 1.370 . S
C1633 C1637 1.408 . S
C1634 C1632 1.363 . S
C1634 C1635 1.370 . S
C1634 C1638 1.524 . S
C1635 C1627 1.503 . S
C1635 C1634 1.370 . S
C1635 C1636 1.403 . S
C1636 C1635 1.403 . S
C1636 C1637 1.404 . S
C1636 C1639 1.539 . S
C1637 C1633 1.408 . S
C1637 C1636 1.404 . S
C1637 H1649 0.930 . S
C1638 C1634 1.524 . S
C1638 H1650 0.956 . S
C1638 H1651 0.961 . S
C1638 H1652 0.961 . S
C1639 C1636 1.539 . S
C1639 H1653 0.958 . S
C1639 H1654 0.961 . S
C1639 H1655 0.960 . S
H1640 C1624 0.931 . S
H1641 C1629 0.929 . S
H1642 C1630 0.960 . S
H1643 C1630 0.962 . S
H1644 C1630 0.960 . S
H1645 C1631 0.961 . S
H1646 C1631 0.961 . S
H1647 C1631 0.961 . S
H1648 C1632 0.931 . S
H1649 C1637 0.930 . S
H1650 C1638 0.956 . S
H1651 C1638 0.961 . S
H1652 C1638 0.961 . S
H1653 C1639 0.958 . S
H1654 C1639 0.961 . S
H1655 C1639 0.960 . S
C1656 C1657 1.391 . S
C1656 C1658 1.394 . S
C1656 H1672 0.931 . S
C1657 C1656 1.391 . S
C1657 C1661 1.376 . S
C1658 C1656 1.394 . S
C1658 C1659 1.369 . S
C1658 C1662 1.531 . S
C1659 C1658 1.369 . S
C1659 C1660 1.410 . S
C1659 C1667 1.503 . S
C1660 C1659 1.410 . S
C1660 C1661 1.392 . S
C1660 C1663 1.511 . S
C1661 C1657 1.376 . S
C1661 C1660 1.392 . S
C1661 H1673 0.929 . S
C1662 C1658 1.531 . S
C1662 H1674 0.960 . S
C1662 H1675 0.962 . S
C1662 H1676 0.960 . S
C1663 C1660 1.511 . S
C1663 H1677 0.961 . S
C1663 H1678 0.961 . S
C1663 H1679 0.961 . S
C1664 C1665 1.370 . S
C1664 C1666 1.363 . S
C1664 H1680 0.931 . S
C1665 C1664 1.370 . S
C1665 C1669 1.408 . S
C1666 C1664 1.363 . S
C1666 C1667 1.370 . S
C1666 C1670 1.524 . S
C1667 C1659 1.503 . S
C1667 C1666 1.370 . S
C1667 C1668 1.403 . S
C1668 C1667 1.403 . S
C1668 C1669 1.404 . S
C1668 C1671 1.539 . S
C1669 C1665 1.408 . S
C1669 C1668 1.404 . S
C1669 H1681 0.930 . S
C1670 C1666 1.524 . S
C1670 H1682 0.956 . S
C1670 H1683 0.961 . S
C1670 H1684 0.961 . S
C1671 C1668 1.539 . S
C1671 H1685 0.958 . S
C1671 H1686 0.961 . S
C1671 H1687 0.960 . S
H1672 C1656 0.931 . S
H1673 C1661 0.929 . S
H1674 C1662 0.960 . S
H1675 C1662 0.962 . S
H1676 C1662 0.960 . S
H1677 C1663 0.961 . S
H1678 C1663 0.961 . S
H1679 C1663 0.961 . S
H1680 C1664 0.931 . S
H1681 C1669 0.930 . S
H1682 C1670 0.956 . S
H1683 C1670 0.961 . S
H1684 C1670 0.961 . S
H1685 C1671 0.958 . S
H1686 C1671 0.961 . S
H1687 C1671 0.960 . S
C1688 C1689 1.391 . S
C1688 C1690 1.394 . S
C1688 H1704 0.931 . S
C1689 C1688 1.391 . S
C1689 C1693 1.376 . S
C1690 C1688 1.394 . S
C1690 C1691 1.369 . S
C1690 C1694 1.531 . S
C1691 C1690 1.369 . S
C1691 C1692 1.410 . S
C1691 C1699 1.503 . S
C1692 C1691 1.410 . S
C1692 C1693 1.392 . S
C1692 C1695 1.511 . S
C1693 C1689 1.376 . S
C1693 C1692 1.392 . S
C1693 H1705 0.929 . S
C1694 C1690 1.531 . S
C1694 H1706 0.960 . S
C1694 H1707 0.962 . S
C1694 H1708 0.960 . S
C1695 C1692 1.511 . S
C1695 H1709 0.961 . S
C1695 H1710 0.961 . S
C1695 H1711 0.961 . S
C1696 C1697 1.370 . S
C1696 C1698 1.363 . S
C1696 H1712 0.931 . S
C1697 C1696 1.370 . S
C1697 C1701 1.408 . S
C1698 C1696 1.363 . S
C1698 C1699 1.370 . S
C1698 C1702 1.524 . S
C1699 C1691 1.503 . S
C1699 C1698 1.370 . S
C1699 C1700 1.403 . S
C1700 C1699 1.403 . S
C1700 C1701 1.404 . S
C1700 C1703 1.539 . S
C1701 C1697 1.408 . S
C1701 C1700 1.404 . S
C1701 H1713 0.930 . S
C1702 C1698 1.524 . S
C1702 H1714 0.956 . S
C1702 H1715 0.961 . S
C1702 H1716 0.961 . S
C1703 C1700 1.539 . S
C1703 H1717 0.958 . S
C1703 H1718 0.961 . S
C1703 H1719 0.960 . S
H1704 C1688 0.931 . S
H1705 C1693 0.929 . S
H1706 C1694 0.960 . S
H1707 C1694 0.962 . S
H1708 C1694 0.960 . S
H1709 C1695 0.961 . S
H1710 C1695 0.961 . S
H1711 C1695 0.961 . S
H1712 C1696 0.931 . S
H1713 C1701 0.930 . S
H1714 C1702 0.956 . S
H1715 C1702 0.961 . S
H1716 C1702 0.961 . S
H1717 C1703 0.958 . S
H1718 C1703 0.961 . S
H1719 C1703 0.960 . S
C1720 C1721 1.391 . S
C1720 C1722 1.394 . S
C1720 H1736 0.931 . S
C1721 C1720 1.391 . S
C1721 C1725 1.376 . S
C1722 C1720 1.394 . S
C1722 C1723 1.369 . S
C1722 C1726 1.531 . S
C1723 C1722 1.369 . S
C1723 C1724 1.410 . S
C1723 C1731 1.503 . S
C1724 C1723 1.410 . S
C1724 C1725 1.392 . S
C1724 C1727 1.511 . S
C1725 C1721 1.376 . S
C1725 C1724 1.392 . S
C1725 H1737 0.929 . S
C1726 C1722 1.531 . S
C1726 H1738 0.960 . S
C1726 H1739 0.962 . S
C1726 H1740 0.960 . S
C1727 C1724 1.511 . S
C1727 H1741 0.961 . S
C1727 H1742 0.961 . S
C1727 H1743 0.961 . S
C1728 C1729 1.370 . S
C1728 C1730 1.363 . S
C1728 H1744 0.931 . S
C1729 C1728 1.370 . S
C1729 C1733 1.408 . S
C1730 C1728 1.363 . S
C1730 C1731 1.370 . S
C1730 C1734 1.524 . S
C1731 C1723 1.503 . S
C1731 C1730 1.370 . S
C1731 C1732 1.403 . S
C1732 C1731 1.403 . S
C1732 C1733 1.404 . S
C1732 C1735 1.539 . S
C1733 C1729 1.408 . S
C1733 C1732 1.404 . S
C1733 H1745 0.930 . S
C1734 C1730 1.524 . S
C1734 H1746 0.956 . S
C1734 H1747 0.961 . S
C1734 H1748 0.961 . S
C1735 C1732 1.539 . S
C1735 H1749 0.958 . S
C1735 H1750 0.961 . S
C1735 H1751 0.960 . S
H1736 C1720 0.931 . S
H1737 C1725 0.929 . S
H1738 C1726 0.960 . S
H1739 C1726 0.962 . S
H1740 C1726 0.960 . S
H1741 C1727 0.961 . S
H1742 C1727 0.961 . S
H1743 C1727 0.961 . S
H1744 C1728 0.931 . S
H1745 C1733 0.930 . S
H1746 C1734 0.956 . S
H1747 C1734 0.961 . S
H1748 C1734 0.961 . S
H1749 C1735 0.958 . S
H1750 C1735 0.961 . S
H1751 C1735 0.960 . S
C1752 C1753 1.391 . S
C1752 C1754 1.394 . S
C1752 H1768 0.931 . S
C1753 C1752 1.391 . S
C1753 C1757 1.376 . S
C1754 C1752 1.394 . S
C1754 C1755 1.369 . S
C1754 C1758 1.531 . S
C1755 C1754 1.369 . S
C1755 C1756 1.410 . S
C1755 C1763 1.503 . S
C1756 C1755 1.410 . S
C1756 C1757 1.392 . S
C1756 C1759 1.511 . S
C1757 C1753 1.376 . S
C1757 C1756 1.392 . S
C1757 H1769 0.929 . S
C1758 C1754 1.531 . S
C1758 H1770 0.960 . S
C1758 H1771 0.962 . S
C1758 H1772 0.960 . S
C1759 C1756 1.511 . S
C1759 H1773 0.961 . S
C1759 H1774 0.961 . S
C1759 H1775 0.961 . S
C1760 C1761 1.370 . S
C1760 C1762 1.363 . S
C1760 H1776 0.931 . S
C1761 C1760 1.370 . S
C1761 C1765 1.408 . S
C1762 C1760 1.363 . S
C1762 C1763 1.370 . S
C1762 C1766 1.524 . S
C1763 C1755 1.503 . S
C1763 C1762 1.370 . S
C1763 C1764 1.403 . S
C1764 C1763 1.403 . S
C1764 C1765 1.404 . S
C1764 C1767 1.539 . S
C1765 C1761 1.408 . S
C1765 C1764 1.404 . S
C1765 H1777 0.930 . S
C1766 C1762 1.524 . S
C1766 H1778 0.956 . S
C1766 H1779 0.961 . S
C1766 H1780 0.961 . S
C1767 C1764 1.539 . S
C1767 H1781 0.958 . S
C1767 H1782 0.961 . S
C1767 H1783 0.960 . S
H1768 C1752 0.931 . S
H1769 C1757 0.929 . S
H1770 C1758 0.960 . S
H1771 C1758 0.962 . S
H1772 C1758 0.960 . S
H1773 C1759 0.961 . S
H1774 C1759 0.961 . S
H1775 C1759 0.961 . S
H1776 C1760 0.931 . S
H1777 C1765 0.930 . S
H1778 C1766 0.956 . S
H1779 C1766 0.961 . S
H1780 C1766 0.961 . S
H1781 C1767 0.958 . S
H1782 C1767 0.961 . S
H1783 C1767 0.960 . S
C1784 C1785 1.391 . S
C1784 C1786 1.394 . S
C1784 H1800 0.931 . S
C1785 C1784 1.391 . S
C1785 C1789 1.376 . S
C1786 C1784 1.394 . S
C1786 C1787 1.369 . S
C1786 C1790 1.531 . S
C1787 C1786 1.369 . S
C1787 C1788 1.410 . S
C1787 C1795 1.503 . S
C1788 C1787 1.410 . S
C1788 C1789 1.392 . S
C1788 C1791 1.511 . S
C1789 C1785 1.376 . S
C1789 C1788 1.392 . S
C1789 H1801 0.929 . S
C1790 C1786 1.531 . S
C1790 H1802 0.960 . S
C1790 H1803 0.962 . S
C1790 H1804 0.960 . S
C1791 C1788 1.511 . S
C1791 H1805 0.961 . S
C1791 H1806 0.961 . S
C1791 H1807 0.961 . S
C1792 C1793 1.370 . S
C1792 C1794 1.363 . S
C1792 H1808 0.931 . S
C1793 C1792 1.370 . S
C1793 C1797 1.408 . S
C1794 C1792 1.363 . S
C1794 C1795 1.370 . S
C1794 C1798 1.524 . S
C1795 C1787 1.503 . S
C1795 C1794 1.370 . S
C1795 C1796 1.403 . S
C1796 C1795 1.403 . S
C1796 C1797 1.404 . S
C1796 C1799 1.539 . S
C1797 C1793 1.408 . S
C1797 C1796 1.404 . S
C1797 H1809 0.930 . S
C1798 C1794 1.524 . S
C1798 H1810 0.956 . S
C1798 H1811 0.961 . S
C1798 H1812 0.961 . S
C1799 C1796 1.539 . S
C1799 H1813 0.958 . S
C1799 H1814 0.961 . S
C1799 H1815 0.960 . S
H1800 C1784 0.931 . S
H1801 C1789 0.929 . S
H1802 C1790 0.960 . S
H1803 C1790 0.962 . S
H1804 C1790 0.960 . S
H1805 C1791 0.961 . S
H1806 C1791 0.961 . S
H1807 C1791 0.961 . S
H1808 C1792 0.931 . S
H1809 C1797 0.930 . S
H1810 C1798 0.956 . S
H1811 C1798 0.961 . S
H1812 C1798 0.961 . S
H1813 C1799 0.958 . S
H1814 C1799 0.961 . S
H1815 C1799 0.960 . S
C1816 C1817 1.391 . S
C1816 C1818 1.394 . S
C1816 H1832 0.931 . S
C1817 C1816 1.391 . S
C1817 C1821 1.376 . S
C1818 C1816 1.394 . S
C1818 C1819 1.369 . S
C1818 C1822 1.531 . S
C1819 C1818 1.369 . S
C1819 C1820 1.410 . S
C1819 C1827 1.503 . S
C1820 C1819 1.410 . S
C1820 C1821 1.392 . S
C1820 C1823 1.511 . S
C1821 C1817 1.376 . S
C1821 C1820 1.392 . S
C1821 H1833 0.929 . S
C1822 C1818 1.531 . S
C1822 H1834 0.960 . S
C1822 H1835 0.962 . S
C1822 H1836 0.960 . S
C1823 C1820 1.511 . S
C1823 H1837 0.961 . S
C1823 H1838 0.961 . S
C1823 H1839 0.961 . S
C1824 C1825 1.370 . S
C1824 C1826 1.363 . S
C1824 H1840 0.931 . S
C1825 C1824 1.370 . S
C1825 C1829 1.408 . S
C1826 C1824 1.363 . S
C1826 C1827 1.370 . S
C1826 C1830 1.524 . S
C1827 C1819 1.503 . S
C1827 C1826 1.370 . S
C1827 C1828 1.403 . S
C1828 C1827 1.403 . S
C1828 C1829 1.404 . S
C1828 C1831 1.539 . S
C1829 C1825 1.408 . S
C1829 C1828 1.404 . S
C1829 H1841 0.930 . S
C1830 C1826 1.524 . S
C1830 H1842 0.956 . S
C1830 H1843 0.961 . S
C1830 H1844 0.961 . S
C1831 C1828 1.539 . S
C1831 H1845 0.958 . S
C1831 H1846 0.961 . S
C1831 H1847 0.960 . S
H1832 C1816 0.931 . S
H1833 C1821 0.929 . S
H1834 C1822 0.960 . S
H1835 C1822 0.962 . S
H1836 C1822 0.960 . S
H1837 C1823 0.961 . S
H1838 C1823 0.961 . S
H1839 C1823 0.961 . S
H1840 C1824 0.931 . S
H1841 C1829 0.930 . S
H1842 C1830 0.956 . S
H1843 C1830 0.961 . S
H1844 C1830 0.961 . S
H1845 C1831 0.958 . S
H1846 C1831 0.961 . S
H1847 C1831 0.960 . S
C313 C153 1.377 . S
C321 C8 1.367 . S
C345 C21 1.373 . S
C353 C114 1.414 . S
C377 C34 1.351 . S
C385 C127 1.394 . S
C409 C47 1.412 . S
C417 C140 1.414 . S
C441 C179 1.423 . S
C449 C60 1.395 . S
C473 C73 1.353 . S
C481 C192 1.393 . S
C505 C205 1.406 . S
C513 C86 1.395 . S
C537 C166 1.423 . S
C545 C99 1.395 . S
C569 C75 1.425 . S
C577 C112 1.395 . S
C601 C88 1.421 . S
C609 C125 1.396 . S
C633 C138 1.407 . S
C641 C101 1.405 . S
C665 C62 1.385 . S
C673 C151 1.386 . S
C697 C49 1.392 . S
C705 C164 1.366 . S
C729 C177 1.404 . S
C737 C10 1.403 . S
C761 C190 1.412 . S
C769 C23 1.408 . S
C793 C203 1.392 . S
C801 C36 1.417 . S
C825 C216 1.351 . S
C833 C309 1.408 . S
C857 C270 1.386 . S
C865 C229 1.387 . S
C889 C242 1.392 . S
C897 C231 1.417 . S
C921 C255 1.342 . S
C929 C244 1.397 . S
C953 C257 1.403 . S
C961 C268 1.368 . S
C985 C281 1.413 . S
C993 C296 1.410 . S
C1017 C218 1.398 . S
C1025 C294 1.392 . S
C1049 C283 1.392 . S
C1057 C307 1.390 . S
C1081 C5 1.291 . S
C1089 C83 1.309 . S
C1113 C18 1.305 . S
C1121 C96 1.320 . S
C1145 C31 1.295 . S
C1153 C57 1.316 . S
C1177 C70 1.303 . S
C1185 C44 1.319 . S
C1209 C135 1.287 . S
C1217 C109 1.308 . S
C1241 C122 1.331 . S
C1249 C148 1.331 . S
C1273 C161 1.344 . S
C1281 C187 1.336 . S
C1305 C200 1.283 . S
C1313 C174 1.309 . S
C1337 C226 1.353 . S
C1345 C213 1.335 . S
C1369 C239 1.291 . S
C1377 C304 1.309 . S
C1401 C252 1.294 . S
C1409 C278 1.315 . S
C1433 C265 1.300 . S
C1441 C291 1.312 . S
C1465 C0 0.942 . S
C1473 C65 0.988 . S
C1497 C13 0.988 . S
C1505 C78 0.958 . S
C1529 C26 0.992 . S
C1537 C91 0.958 . S
C1561 C52 0.992 . S
C1569 C39 0.958 . S
C1593 C104 1.005 . S
C1601 C299 0.971 . S
C1625 C117 0.995 . S
C1633 C273 0.978 . S
C1657 C286 1.005 . S
C1665 C130 0.972 . S
C1689 C143 1.008 . S
C1697 C208 0.962 . S
C1721 C260 1.006 . S
C1729 C156 0.961 . S
C1753 C221 0.978 . S
C1761 C169 0.959 . S
C1785 C182 1.008 . S
C1793 C234 0.967 . S
C1817 C247 0.961 . S
C1825 C195 0.988 . S
