# Generated by pormake.
# Topology uns, (4)-cn, num edge types: 1
# Building blocks:
#     Node 0, Type 0, BuildingBlock: KUFVIS_clean_sbu_0, # of connection points: 4
#     Node 1, Type 0, BuildingBlock: KUFVIS_clean_sbu_0, # of connection points: 4
#     Node 2, Type 0, BuildingBlock: KUFVIS_clean_sbu_0, # of connection points: 4
#     Node 3, Type 0, BuildingBlock: KUFVIS_clean_sbu_0, # of connection points: 4
#     Node 4, Type 0, BuildingBlock: KUFVIS_clean_sbu_0, # of connection points: 4
#     Node 5, Type 0, BuildingBlock: KUFVIS_clean_sbu_0, # of connection points: 4
#     Node 6, Type 0, BuildingBlock: KUFVIS_clean_sbu_0, # of connection points: 4
#     Node 7, Type 0, BuildingBlock: KUFVIS_clean_sbu_0, # of connection points: 4
#     Node 8, Type 0, BuildingBlock: KUFVIS_clean_sbu_0, # of connection points: 4
#     Node 9, Type 0, BuildingBlock: KUFVIS_clean_sbu_0, # of connection points: 4
#     Node 10, Type 0, BuildingBlock: KUFVIS_clean_sbu_0, # of connection points: 4
#     Node 11, Type 0, BuildingBlock: KUFVIS_clean_sbu_0, # of connection points: 4
#     Node 12, Type 0, BuildingBlock: KUFVIS_clean_sbu_0, # of connection points: 4
#     Node 13, Type 0, BuildingBlock: KUFVIS_clean_sbu_0, # of connection points: 4
#     Node 14, Type 0, BuildingBlock: KUFVIS_clean_sbu_0, # of connection points: 4
#     Node 15, Type 0, BuildingBlock: KUFVIS_clean_sbu_0, # of connection points: 4
#     Node 16, Type 0, BuildingBlock: KUFVIS_clean_sbu_0, # of connection points: 4
#     Node 17, Type 0, BuildingBlock: KUFVIS_clean_sbu_0, # of connection points: 4
#     Node 18, Type 0, BuildingBlock: KUFVIS_clean_sbu_0, # of connection points: 4
#     Node 19, Type 0, BuildingBlock: KUFVIS_clean_sbu_0, # of connection points: 4
#     Node 20, Type 0, BuildingBlock: KUFVIS_clean_sbu_0, # of connection points: 4
#     Node 21, Type 0, BuildingBlock: KUFVIS_clean_sbu_0, # of connection points: 4
#     Node 22, Type 0, BuildingBlock: KUFVIS_clean_sbu_0, # of connection points: 4
#     Node 23, Type 0, BuildingBlock: KUFVIS_clean_sbu_0, # of connection points: 4
#     Node 24, Type 0, BuildingBlock: KUFVIS_clean_sbu_0, # of connection points: 4
#     Node 25, Type 0, BuildingBlock: KUFVIS_clean_sbu_0, # of connection points: 4
#     Node 26, Type 0, BuildingBlock: KUFVIS_clean_sbu_0, # of connection points: 4
#     Node 27, Type 0, BuildingBlock: KUFVIS_clean_sbu_0, # of connection points: 4
#     Node 28, Type 0, BuildingBlock: KUFVIS_clean_sbu_0, # of connection points: 4
#     Node 29, Type 0, BuildingBlock: KUFVIS_clean_sbu_0, # of connection points: 4
#     Node 30, Type 0, BuildingBlock: KUFVIS_clean_sbu_0, # of connection points: 4
#     Node 31, Type 0, BuildingBlock: KUFVIS_clean_sbu_0, # of connection points: 4
#     Node 32, Type 0, BuildingBlock: KUFVIS_clean_sbu_0, # of connection points: 4
#     Node 33, Type 0, BuildingBlock: KUFVIS_clean_sbu_0, # of connection points: 4
#     Node 34, Type 0, BuildingBlock: KUFVIS_clean_sbu_0, # of connection points: 4
#     Node 35, Type 0, BuildingBlock: KUFVIS_clean_sbu_0, # of connection points: 4
#     Edge 36, Type (0, 0), BuildingBlock: KIFKEQ_clean_linker_1, # of connection points: 2
#     Edge 37, Type (0, 0), BuildingBlock: KIFKEQ_clean_linker_1, # of connection points: 2
#     Edge 38, Type (0, 0), BuildingBlock: KIFKEQ_clean_linker_1, # of connection points: 2
#     Edge 39, Type (0, 0), BuildingBlock: KIFKEQ_clean_linker_1, # of connection points: 2
#     Edge 40, Type (0, 0), BuildingBlock: KIFKEQ_clean_linker_1, # of connection points: 2
#     Edge 41, Type (0, 0), BuildingBlock: KIFKEQ_clean_linker_1, # of connection points: 2
#     Edge 42, Type (0, 0), BuildingBlock: KIFKEQ_clean_linker_1, # of connection points: 2
#     Edge 43, Type (0, 0), BuildingBlock: KIFKEQ_clean_linker_1, # of connection points: 2
#     Edge 44, Type (0, 0), BuildingBlock: KIFKEQ_clean_linker_1, # of connection points: 2
#     Edge 45, Type (0, 0), BuildingBlock: KIFKEQ_clean_linker_1, # of connection points: 2
#     Edge 46, Type (0, 0), BuildingBlock: KIFKEQ_clean_linker_1, # of connection points: 2
#     Edge 47, Type (0, 0), BuildingBlock: KIFKEQ_clean_linker_1, # of connection points: 2
#     Edge 48, Type (0, 0), BuildingBlock: KIFKEQ_clean_linker_1, # of connection points: 2
#     Edge 49, Type (0, 0), BuildingBlock: KIFKEQ_clean_linker_1, # of connection points: 2
#     Edge 50, Type (0, 0), BuildingBlock: KIFKEQ_clean_linker_1, # of connection points: 2
#     Edge 51, Type (0, 0), BuildingBlock: KIFKEQ_clean_linker_1, # of connection points: 2
#     Edge 52, Type (0, 0), BuildingBlock: KIFKEQ_clean_linker_1, # of connection points: 2
#     Edge 53, Type (0, 0), BuildingBlock: KIFKEQ_clean_linker_1, # of connection points: 2
#     Edge 54, Type (0, 0), BuildingBlock: KIFKEQ_clean_linker_1, # of connection points: 2
#     Edge 55, Type (0, 0), BuildingBlock: KIFKEQ_clean_linker_1, # of connection points: 2
#     Edge 56, Type (0, 0), BuildingBlock: KIFKEQ_clean_linker_1, # of connection points: 2
#     Edge 57, Type (0, 0), BuildingBlock: KIFKEQ_clean_linker_1, # of connection points: 2
#     Edge 58, Type (0, 0), BuildingBlock: KIFKEQ_clean_linker_1, # of connection points: 2
#     Edge 59, Type (0, 0), BuildingBlock: KIFKEQ_clean_linker_1, # of connection points: 2
#     Edge 60, Type (0, 0), BuildingBlock: KIFKEQ_clean_linker_1, # of connection points: 2
#     Edge 61, Type (0, 0), BuildingBlock: KIFKEQ_clean_linker_1, # of connection points: 2
#     Edge 62, Type (0, 0), BuildingBlock: KIFKEQ_clean_linker_1, # of connection points: 2
#     Edge 63, Type (0, 0), BuildingBlock: KIFKEQ_clean_linker_1, # of connection points: 2
#     Edge 64, Type (0, 0), BuildingBlock: KIFKEQ_clean_linker_1, # of connection points: 2
#     Edge 65, Type (0, 0), BuildingBlock: KIFKEQ_clean_linker_1, # of connection points: 2
#     Edge 66, Type (0, 0), BuildingBlock: KIFKEQ_clean_linker_1, # of connection points: 2
#     Edge 67, Type (0, 0), BuildingBlock: KIFKEQ_clean_linker_1, # of connection points: 2
#     Edge 68, Type (0, 0), BuildingBlock: KIFKEQ_clean_linker_1, # of connection points: 2
#     Edge 69, Type (0, 0), BuildingBlock: KIFKEQ_clean_linker_1, # of connection points: 2
#     Edge 70, Type (0, 0), BuildingBlock: KIFKEQ_clean_linker_1, # of connection points: 2
#     Edge 71, Type (0, 0), BuildingBlock: KIFKEQ_clean_linker_1, # of connection points: 2
#     Edge 72, Type (0, 0), BuildingBlock: KIFKEQ_clean_linker_1, # of connection points: 2
#     Edge 73, Type (0, 0), BuildingBlock: KIFKEQ_clean_linker_1, # of connection points: 2
#     Edge 74, Type (0, 0), BuildingBlock: KIFKEQ_clean_linker_1, # of connection points: 2
#     Edge 75, Type (0, 0), BuildingBlock: KIFKEQ_clean_linker_1, # of connection points: 2
#     Edge 76, Type (0, 0), BuildingBlock: KIFKEQ_clean_linker_1, # of connection points: 2
#     Edge 77, Type (0, 0), BuildingBlock: KIFKEQ_clean_linker_1, # of connection points: 2
#     Edge 78, Type (0, 0), BuildingBlock: KIFKEQ_clean_linker_1, # of connection points: 2
#     Edge 79, Type (0, 0), BuildingBlock: KIFKEQ_clean_linker_1, # of connection points: 2
#     Edge 80, Type (0, 0), BuildingBlock: KIFKEQ_clean_linker_1, # of connection points: 2
#     Edge 81, Type (0, 0), BuildingBlock: KIFKEQ_clean_linker_1, # of connection points: 2
#     Edge 82, Type (0, 0), BuildingBlock: KIFKEQ_clean_linker_1, # of connection points: 2
#     Edge 83, Type (0, 0), BuildingBlock: KIFKEQ_clean_linker_1, # of connection points: 2
#     Edge 84, Type (0, 0), BuildingBlock: KIFKEQ_clean_linker_1, # of connection points: 2
#     Edge 85, Type (0, 0), BuildingBlock: KIFKEQ_clean_linker_1, # of connection points: 2
#     Edge 86, Type (0, 0), BuildingBlock: KIFKEQ_clean_linker_1, # of connection points: 2
#     Edge 87, Type (0, 0), BuildingBlock: KIFKEQ_clean_linker_1, # of connection points: 2
#     Edge 88, Type (0, 0), BuildingBlock: KIFKEQ_clean_linker_1, # of connection points: 2
#     Edge 89, Type (0, 0), BuildingBlock: KIFKEQ_clean_linker_1, # of connection points: 2
#     Edge 90, Type (0, 0), BuildingBlock: KIFKEQ_clean_linker_1, # of connection points: 2
#     Edge 91, Type (0, 0), BuildingBlock: KIFKEQ_clean_linker_1, # of connection points: 2
#     Edge 92, Type (0, 0), BuildingBlock: KIFKEQ_clean_linker_1, # of connection points: 2
#     Edge 93, Type (0, 0), BuildingBlock: KIFKEQ_clean_linker_1, # of connection points: 2
#     Edge 94, Type (0, 0), BuildingBlock: KIFKEQ_clean_linker_1, # of connection points: 2
#     Edge 95, Type (0, 0), BuildingBlock: KIFKEQ_clean_linker_1, # of connection points: 2
#     Edge 96, Type (0, 0), BuildingBlock: KIFKEQ_clean_linker_1, # of connection points: 2
#     Edge 97, Type (0, 0), BuildingBlock: KIFKEQ_clean_linker_1, # of connection points: 2
#     Edge 98, Type (0, 0), BuildingBlock: KIFKEQ_clean_linker_1, # of connection points: 2
#     Edge 99, Type (0, 0), BuildingBlock: KIFKEQ_clean_linker_1, # of connection points: 2
#     Edge 100, Type (0, 0), BuildingBlock: KIFKEQ_clean_linker_1, # of connection points: 2
#     Edge 101, Type (0, 0), BuildingBlock: KIFKEQ_clean_linker_1, # of connection points: 2
#     Edge 102, Type (0, 0), BuildingBlock: KIFKEQ_clean_linker_1, # of connection points: 2
#     Edge 103, Type (0, 0), BuildingBlock: KIFKEQ_clean_linker_1, # of connection points: 2
#     Edge 104, Type (0, 0), BuildingBlock: KIFKEQ_clean_linker_1, # of connection points: 2
#     Edge 105, Type (0, 0), BuildingBlock: KIFKEQ_clean_linker_1, # of connection points: 2
#     Edge 106, Type (0, 0), BuildingBlock: KIFKEQ_clean_linker_1, # of connection points: 2
#     Edge 107, Type (0, 0), BuildingBlock: KIFKEQ_clean_linker_1, # of connection points: 2
# Relax obj value: 0.152
# Max RMSD: 0.298
# Mean RMSD: 0.277
data_MOF--net-uns--node1-KUFVIS_clean_sbu_0--edge1-KIFKEQ_clean_linker_1
_symmetry_space_group_name_H-M    P1
_symmetry_Int_Tables_number       1
_symmetry_cell_setting            triclinic
loop_
_symmetry_equiv_pos_as_xyz
'x, y, z'
_cell_length_a     53.19808
_cell_length_b     55.160268
_cell_length_c     58.821253
_cell_angle_alpha  89.098895
_cell_angle_beta   90.011005
_cell_angle_gamma 118.8456
loop_
_atom_site_label
_atom_site_type_symbol
_atom_site_fract_x
_atom_site_fract_y
_atom_site_fract_z
_atom_type_partial_charge
Mn0 Mn 0.29005 0.2016 0.05322 0.0
Mn1 Mn 0.22686 0.154 0.075 0.0
C2 C 0.24922 0.20174 0.04066 0.0
C3 C 0.33029 0.24368 0.06193 0.0
C4 C 0.26067 0.14168 0.03938 0.0
O5 O 0.29989 0.18438 0.07977 0.0
O6 O 0.25751 0.16167 0.09796 0.0
C7 C 0.22016 0.18512 0.11291 0.0
N8 N 0.21005 0.17076 0.09337 0.0
C9 C 0.168 0.17648 0.09459 0.0
C10 C 0.17784 0.19112 0.11483 0.0
C11 C 0.20406 0.1955 0.124 0.0
C12 C 0.18484 0.16641 0.0844 0.0
H13 H 0.24039 0.1887 0.11994 0.0
C14 C 0.28489 0.17212 0.09728 0.0
O15 O 0.33241 0.22704 0.04752 0.0
O16 O 0.30503 0.23643 0.06998 0.0
N17 N 0.19548 0.14525 0.05477 0.0
C18 C 0.18989 0.13231 0.03438 0.0
C19 C 0.16502 0.12738 0.0225 0.0
C20 C 0.14605 0.13561 0.03173 0.0
C21 C 0.15205 0.14862 0.05284 0.0
C22 C 0.17708 0.15284 0.06399 0.0
H23 H 0.20431 0.12589 0.02714 0.0
O24 O 0.27329 0.2158 0.02968 0.0
O25 O 0.25037 0.18934 0.05931 0.0
O26 O 0.27953 0.16668 0.03436 0.0
O27 O 0.24235 0.1351 0.05563 0.0
C28 C 0.13452 0.15813 0.063 0.0
C29 C 0.14248 0.17205 0.08386 0.0
H30 H 0.1656 0.19935 0.12335 0.0
H31 H 0.2119 0.20694 0.13954 0.0
H32 H 0.16054 0.11733 0.00621 0.0
H33 H 0.12703 0.13202 0.0224 0.0
H34 H 0.11508 0.15522 0.05474 0.0
H35 H 0.12904 0.17962 0.09133 0.0
Mn36 Mn 0.78921 0.0908 0.03925 0.0
Mn37 Mn 0.79388 0.15277 0.02597 0.0
C38 C 0.75037 0.09703 0.04607 0.0
C39 C 0.781 0.04776 0.02607 0.0
C40 C 0.81488 0.14111 0.07061 0.0
O41 O 0.82681 0.11087 0.02194 0.0
O42 O 0.82576 0.14951 0.01092 0.0
C43 C 0.78038 0.14135 0.97718 0.0
N44 N 0.77446 0.14853 0.99775 0.0
C45 C 0.73385 0.15118 0.98253 0.0
C46 C 0.73972 0.14414 0.96113 0.0
C47 C 0.76305 0.13912 0.95847 0.0
C48 C 0.75184 0.15302 0.00056 0.0
H49 H 0.79811 0.13721 0.9751 0.0
C50 C 0.83721 0.13375 0.01104 0.0
O51 O 0.79568 0.05815 0.04444 0.0
O52 O 0.77217 0.06277 0.01518 0.0
N53 N 0.76496 0.15986 0.03864 0.0
C54 C 0.76313 0.16795 0.06009 0.0
C55 C 0.74093 0.17377 0.06558 0.0
C56 C 0.72141 0.17211 0.0488 0.0
C57 C 0.72453 0.16503 0.02658 0.0
C58 C 0.74704 0.15939 0.02213 0.0
H59 H 0.77823 0.16955 0.07302 0.0
O60 O 0.75138 0.07555 0.05413 0.0
O61 O 0.77084 0.11286 0.03184 0.0
O62 O 0.80757 0.11558 0.06715 0.0
O63 O 0.81265 0.15719 0.05571 0.0
C64 C 0.70619 0.16337 0.00868 0.0
C65 C 0.71079 0.15636 0.98668 0.0
H66 H 0.7264 0.1424 0.94665 0.0
H67 H 0.76761 0.13349 0.94204 0.0
H68 H 0.73892 0.17959 0.08269 0.0
H69 H 0.70428 0.17656 0.05311 0.0
H70 H 0.68849 0.16745 0.01164 0.0
H71 H 0.69652 0.15509 0.97307 0.0
Mn72 Mn 0.90278 0.69626 0.03115 0.0
Mn73 Mn 0.84037 0.6377 0.02115 0.0
C74 C 0.90205 0.65439 0.03308 0.0
C75 C 0.94319 0.73537 0.01715 0.0
C76 C 0.85574 0.66403 0.06729 0.0
O77 O 0.87688 0.71092 0.0196 0.0
O78 O 0.83726 0.67109 0.0124 0.0
C79 C 0.84495 0.64443 0.97102 0.0
N80 N 0.84232 0.62899 0.99008 0.0
C81 C 0.84217 0.59265 0.9679 0.0
C82 C 0.84471 0.60808 0.94803 0.0
C83 C 0.84619 0.63413 0.94961 0.0
C84 C 0.84134 0.60412 0.98877 0.0
H85 H 0.84616 0.66448 0.97214 0.0
C86 C 0.85126 0.69751 0.01263 0.0
O87 O 0.93331 0.73462 0.03748 0.0
O88 O 0.92932 0.71365 0.00478 0.0
N89 N 0.83855 0.60293 0.02829 0.0
C90 C 0.8325 0.58924 0.04876 0.0
C91 C 0.82949 0.56252 0.05012 0.0
C92 C 0.83155 0.5497 0.0303 0.0
C93 C 0.83598 0.56349 0.00923 0.0
C94 C 0.83893 0.59014 0.00897 0.0
H95 H 0.83036 0.5988 0.06399 0.0
O96 O 0.92391 0.67669 0.0402 0.0
O97 O 0.88256 0.65777 0.02202 0.0
O98 O 0.88022 0.68445 0.06156 0.0
O99 O 0.83873 0.64579 0.05343 0.0
C100 C 0.83697 0.55162 0.98845 0.0
C101 C 0.8402 0.56624 0.9678 0.0
H102 H 0.84551 0.60014 0.93147 0.0
H103 H 0.84824 0.6462 0.93436 0.0
H104 H 0.82547 0.5518 0.06638 0.0
H105 H 0.82916 0.52907 0.0314 0.0
H106 H 0.83496 0.53113 0.98813 0.0
H107 H 0.84079 0.55684 0.95192 0.0
Mn108 Mn 0.20922 0.30639 0.4607 0.0
Mn109 Mn 0.2101 0.36652 0.47322 0.0
C110 C 0.25061 0.34718 0.45516 0.0
C111 C 0.21161 0.26739 0.47367 0.0
C112 C 0.19113 0.33926 0.42772 0.0
O113 O 0.17137 0.29347 0.47687 0.0
O114 O 0.17371 0.33422 0.48405 0.0
C115 C 0.21405 0.35948 0.52289 0.0
N116 N 0.2252 0.37449 0.50334 0.0
C117 C 0.26702 0.40798 0.52295 0.0
C118 C 0.25592 0.39293 0.5433 0.0
C119 C 0.22933 0.36857 0.54326 0.0
C120 C 0.25093 0.39777 0.50315 0.0
H121 H 0.19371 0.34064 0.52295 0.0
C122 C 0.16068 0.30776 0.4848 0.0
O123 O 0.19887 0.26709 0.45473 0.0
O124 O 0.22242 0.29009 0.48507 0.0
N125 N 0.24339 0.40027 0.46444 0.0
C126 C 0.24845 0.41477 0.44444 0.0
C127 C 0.27372 0.44019 0.44174 0.0
C128 C 0.29277 0.45108 0.45999 0.0
C129 C 0.28583 0.43691 0.48101 0.0
C130 C 0.26044 0.41157 0.48259 0.0
H131 H 0.23359 0.40663 0.43051 0.0
O132 O 0.24791 0.32442 0.44694 0.0
O133 O 0.23012 0.34496 0.46875 0.0
O134 O 0.1939 0.31783 0.43253 0.0
O135 O 0.19608 0.35867 0.44171 0.0
C136 C 0.30263 0.44736 0.50062 0.0
C137 C 0.29329 0.43283 0.52156 0.0
H138 H 0.26759 0.39994 0.55906 0.0
H139 H 0.22064 0.35681 0.55889 0.0
H140 H 0.27844 0.4514 0.42567 0.0
H141 H 0.31219 0.47074 0.45788 0.0
H142 H 0.32251 0.46678 0.49988 0.0
H143 H 0.30623 0.4412 0.53658 0.0
Mn144 Mn 0.706 0.91597 0.46274 0.0
Mn145 Mn 0.65027 0.85306 0.47656 0.0
C146 C 0.66031 0.90785 0.45597 0.0
C147 C 0.74019 0.95977 0.47494 0.0
C148 C 0.68203 0.86522 0.43158 0.0
O149 O 0.72488 0.89762 0.48057 0.0
O150 O 0.68646 0.85737 0.49029 0.0
C151 C 0.65011 0.86432 0.5256 0.0
N152 N 0.63613 0.857 0.50537 0.0
C153 C 0.59317 0.85343 0.52211 0.0
C154 C 0.60705 0.86075 0.54315 0.0
C155 C 0.63566 0.86627 0.54488 0.0
C156 C 0.60872 0.85197 0.50347 0.0
H157 H 0.67214 0.86872 0.52701 0.0
C158 C 0.71342 0.87423 0.49074 0.0
O159 O 0.74448 0.94905 0.45679 0.0
O160 O 0.7166 0.94474 0.48616 0.0
N161 N 0.61333 0.8448 0.46516 0.0
C162 C 0.6023 0.83581 0.44411 0.0
C163 C 0.57377 0.82907 0.4396 0.0
C164 C 0.55655 0.83068 0.45696 0.0
C165 C 0.56789 0.83857 0.4788 0.0
C166 C 0.59652 0.84514 0.48225 0.0
H167 H 0.61532 0.83419 0.43077 0.0
O168 O 0.68225 0.92962 0.44758 0.0
O169 O 0.66578 0.89287 0.47055 0.0
O170 O 0.70022 0.89073 0.43521 0.0
O171 O 0.6636 0.84903 0.44634 0.0
C172 C 0.55186 0.83997 0.4973 0.0
C173 C 0.56452 0.8475 0.51892 0.0
H174 H 0.59596 0.86222 0.55807 0.0
H175 H 0.64655 0.87203 0.56103 0.0
H176 H 0.56505 0.82258 0.4228 0.0
H177 H 0.53455 0.82548 0.45342 0.0
H178 H 0.52973 0.83519 0.49511 0.0
H179 H 0.55197 0.84848 0.53303 0.0
Mn180 Mn 0.09304 0.79443 0.4559 0.0
Mn181 Mn 0.06767 0.83314 0.43061 0.0
C182 C 0.05146 0.79189 0.46975 0.0
C183 C 0.09571 0.75361 0.45256 0.0
C184 C 0.1184 0.8563 0.46306 0.0
O185 O 0.11563 0.80817 0.42665 0.0
O186 O 0.09144 0.82614 0.40799 0.0
C187 C 0.02911 0.79313 0.39698 0.0
N188 N 0.03303 0.80996 0.41485 0.0
C189 C 0.98287 0.79698 0.41573 0.0
C190 C 0.97834 0.77969 0.39721 0.0
C191 C 0.00156 0.77772 0.38783 0.0
C192 C 0.01083 0.81197 0.42405 0.0
H193 H 0.04686 0.7914 0.38981 0.0
C194 C 0.11016 0.81783 0.4087 0.0
O195 O 0.1154 0.77448 0.46349 0.0
O196 O 0.07459 0.75623 0.44447 0.0
N197 N 0.04397 0.84105 0.45033 0.0
C198 C 0.05169 0.85781 0.46872 0.0
C199 C 0.0308 0.86153 0.48037 0.0
C200 C 0.00224 0.84814 0.47295 0.0
C201 C 0.99486 0.83129 0.45381 0.0
C202 C 0.01666 0.82857 0.44274 0.0
H203 H 0.07358 0.8682 0.47454 0.0
O204 O 0.06528 0.78236 0.48187 0.0
O205 O 0.06192 0.80147 0.44961 0.0
O206 O 0.11651 0.83322 0.46976 0.0
O207 O 0.10288 0.85837 0.44727 0.0
C208 C 0.96664 0.81672 0.44553 0.0
C209 C 0.96064 0.79954 0.42653 0.0
H210 H 0.95709 0.76764 0.39019 0.0
H211 H -0.00179 0.76429 0.37362 0.0
H212 H 0.03668 0.87459 0.49511 0.0
H213 H 0.98613 0.85082 0.48213 0.0
H214 H 0.94932 0.8183 0.45383 0.0
H215 H 0.93879 0.78816 0.42051 0.0
Mn216 Mn 0.71801 0.81715 0.9481 0.0
Mn217 Mn 0.74025 0.78588 0.91032 0.0
C218 C 0.74453 0.79684 0.9608 0.0
C219 C 0.72714 0.85904 0.96444 0.0
C220 C 0.67928 0.76021 0.92879 0.0
O221 O 0.70989 0.82904 0.91735 0.0
O222 O 0.73171 0.81283 0.89411 0.0
C223 C 0.79547 0.83442 0.89713 0.0
N224 N 0.78058 0.80791 0.90522 0.0
C225 C 0.82362 0.80399 0.90763 0.0
C226 C 0.83944 0.83121 0.89919 0.0
C227 C 0.82531 0.84653 0.89401 0.0
C228 C 0.79398 0.7931 0.91051 0.0
H229 H 0.78461 0.84618 0.89311 0.0
C230 C 0.7178 0.82596 0.89765 0.0
O231 O 0.70128 0.83814 0.96402 0.0
O232 O 0.7472 0.85562 0.9551 0.0
N233 N 0.74912 0.75873 0.92292 0.0
C234 C 0.73076 0.73285 0.93113 0.0
C235 C 0.74142 0.71476 0.93702 0.0
C236 C 0.77073 0.72328 0.93406 0.0
C237 C 0.78912 0.74983 0.92524 0.0
C238 C 0.77723 0.76686 0.9195 0.0
H239 H 0.70814 0.72603 0.93313 0.0
O240 O 0.73029 0.80334 0.97509 0.0
O241 O 0.74399 0.80369 0.9396 0.0
O242 O 0.68313 0.77839 0.94367 0.0
O243 O 0.69876 0.76182 0.91515 0.0
C244 C 0.81885 0.76017 0.92213 0.0
C245 C 0.83611 0.7873 0.91347 0.0
H246 H 0.86245 0.84061 0.89673 0.0
H247 H 0.83739 0.86758 0.88757 0.0
H248 H 0.72706 0.69426 0.94374 0.0
H249 H 0.77888 0.70929 0.93865 0.0
H250 H 0.82869 0.74755 0.92659 0.0
H251 H 0.85899 0.79514 0.9114 0.0
Mn252 Mn 0.17724 0.91822 0.9236 0.0
Mn253 Mn 0.19964 0.91183 0.97597 0.0
C254 C 0.22458 0.93153 0.92898 0.0
C255 C 0.15854 0.89692 0.88903 0.0
C256 C 0.19076 0.96029 0.96175 0.0
O257 O 0.13996 0.89399 0.9405 0.0
O258 O 0.15705 0.88926 0.97433 0.0
C259 C 0.18441 0.85285 0.97228 0.0
N260 N 0.20454 0.8797 0.97554 0.0
C261 C 0.24226 0.86751 0.97757 0.0
C262 C 0.2219 0.8397 0.97439 0.0
C263 C 0.19286 0.83236 0.97172 0.0
C264 C 0.23257 0.88702 0.97793 0.0
H265 H 0.1621 0.84713 0.97 0.0
C266 C 0.1364 0.88407 0.96065 0.0
O267 O 0.15661 0.91858 0.89506 0.0
O268 O 0.1699 0.88718 0.90339 0.0
N269 N 0.24022 0.93212 0.98047 0.0
C270 C 0.25662 0.95935 0.98559 0.0
C271 C 0.28613 0.96999 0.98938 0.0
C272 C 0.29831 0.9524 0.98838 0.0
C273 C 0.2807 0.92415 0.98427 0.0
C274 C 0.25141 0.91472 0.98082 0.0
H275 H 0.24734 0.97294 0.98646 0.0
O276 O 0.2164 0.93944 0.91096 0.0
O277 O 0.20448 0.91468 0.94295 0.0
O278 O 0.18321 0.95307 0.9411 0.0
O279 O 0.19606 0.9458 0.97627 0.0
C280 C 0.29097 0.90492 0.98382 0.0
C281 C 0.27178 0.87663 0.98039 0.0
H282 H 0.22833 0.82383 0.97394 0.0
H283 H 0.17704 0.81096 0.96916 0.0
H284 H 0.29946 0.99171 0.99297 0.0
H285 H 0.3211 0.9607 0.99116 0.0
H286 H 0.31355 0.91164 0.98626 0.0
H287 H 0.27991 0.86202 0.98014 0.0
Mn288 Mn 0.09257 0.26594 0.9252 0.0
Mn289 Mn 0.07836 0.2874 0.97477 0.0
C290 C 0.07594 0.29723 0.92407 0.0
C291 C 0.12591 0.2721 0.89701 0.0
C292 C 0.03678 0.23351 0.9526 0.0
O293 O 0.11013 0.25154 0.94851 0.0
O294 O 0.1022 0.26895 0.98033 0.0
C295 C 0.13814 0.33044 0.9835 0.0
N296 N 0.10993 0.32308 0.98089 0.0
C297 C 0.11954 0.3698 0.98698 0.0
C298 C 0.14864 0.37781 0.99 0.0
C299 C 0.15799 0.35805 0.98817 0.0
C300 C 0.10078 0.34199 0.98229 0.0
H301 H 0.14547 0.31537 0.98195 0.0
C302 C 0.11232 0.25536 0.96983 0.0
O303 O 0.10271 0.24844 0.89986 0.0
O304 O 0.13056 0.29108 0.91162 0.0
N305 N 0.05581 0.3059 0.9731 0.0
C306 C 0.02692 0.29472 0.9703 0.0
C307 C 0.01412 0.31176 0.97151 0.0
C308 C 0.03099 0.33996 0.97628 0.0
C309 C 0.06048 0.35081 0.98 0.0
C310 C 0.07204 0.33281 0.97855 0.0
H311 H 0.01374 0.27298 0.96714 0.0
O312 O 0.07563 0.2838 0.90616 0.0
O313 O 0.08794 0.29341 0.94219 0.0
O314 O 0.05197 0.2357 0.93498 0.0
O315 O 0.04483 0.25116 0.96857 0.0
C316 C 0.07891 0.37883 0.98489 0.0
C317 C 0.10844 0.38834 0.98829 0.0
H318 H 0.16402 0.39909 0.99361 0.0
H319 H 0.18045 0.36411 0.99033 0.0
H320 H 0.99128 0.30314 0.96885 0.0
H321 H 0.02106 0.35308 0.97708 0.0
H322 H 0.07063 0.39328 0.98596 0.0
H323 H 0.12243 0.40997 0.9919 0.0
Mn324 Mn 0.82181 0.73432 0.57605 0.0
Mn325 Mn 0.79248 0.71758 0.5239 0.0
C326 C 0.77312 0.70912 0.57318 0.0
C327 C 0.84149 0.7233 0.60717 0.0
C328 C 0.8119 0.77368 0.54472 0.0
O329 O 0.85579 0.74308 0.55575 0.0
O330 O 0.83421 0.72898 0.52198 0.0
C331 C 0.79831 0.66735 0.51785 0.0
N332 N 0.78148 0.67968 0.51859 0.0
C333 C 0.73913 0.63669 0.51076 0.0
C334 C 0.75603 0.62357 0.50974 0.0
C335 C 0.78574 0.63896 0.51336 0.0
C336 C 0.75286 0.66505 0.51524 0.0
H337 H 0.82113 0.67909 0.52071 0.0
C338 C 0.85649 0.73898 0.5346 0.0
O339 O 0.84679 0.74863 0.60331 0.0
O340 O 0.82644 0.70511 0.5922 0.0
N341 N 0.75234 0.70612 0.52266 0.0
C342 C 0.73898 0.72174 0.5248 0.0
C343 C 0.7091 0.70931 0.52217 0.0
C344 C 0.69335 0.68111 0.51698 0.0
C345 C 0.70766 0.66561 0.51434 0.0
C346 C 0.73748 0.67913 0.51712 0.0
H347 H 0.75096 0.74345 0.52874 0.0
O348 O 0.7849 0.72182 0.59174 0.0
O349 O 0.7904 0.71032 0.55686 0.0
O350 O 0.81996 0.76872 0.56394 0.0
O351 O 0.80242 0.75641 0.52853 0.0
C352 C 0.69343 0.63714 0.50955 0.0
C353 C 0.70915 0.62269 0.50779 0.0
H354 H 0.74641 0.60165 0.50636 0.0
H355 H 0.79891 0.62894 0.51271 0.0
H356 H 0.69823 0.72143 0.52419 0.0
H357 H 0.67027 0.67154 0.51517 0.0
H358 H 0.67037 0.6261 0.50742 0.0
H359 H 0.69793 0.60075 0.50431 0.0
Mn360 Mn 0.26781 0.08899 0.56665 0.0
Mn361 Mn 0.29086 0.08843 0.51336 0.0
C362 C 0.30004 0.07347 0.56109 0.0
C363 C 0.27577 0.11542 0.59938 0.0
C364 C 0.23406 0.04329 0.53238 0.0
O365 O 0.25365 0.11154 0.5486 0.0
O366 O 0.2733 0.11322 0.51441 0.0
C367 C 0.33742 0.14662 0.51216 0.0
N368 N 0.3288 0.11909 0.51072 0.0
C369 C 0.37757 0.12814 0.50644 0.0
C370 C 0.38696 0.15659 0.50773 0.0
C371 C 0.36679 0.16586 0.51062 0.0
C372 C 0.34805 0.10995 0.50814 0.0
H373 H 0.32203 0.15384 0.5146 0.0
C374 C 0.25898 0.11998 0.52799 0.0
O375 O 0.25095 0.09374 0.59592 0.0
O376 O 0.29472 0.1222 0.58342 0.0
N377 N 0.3086 0.06574 0.50942 0.0
C378 C 0.2958 0.03788 0.50627 0.0
C379 C 0.31291 0.0253 0.50252 0.0
C380 C 0.34292 0.04155 0.50156 0.0
C381 C 0.3555 0.07034 0.50367 0.0
C382 C 0.33733 0.08172 0.50717 0.0
H383 H 0.27273 0.02531 0.50691 0.0
O384 O 0.28609 0.06845 0.5801 0.0
O385 O 0.29587 0.08887 0.5462 0.0
O386 O 0.23641 0.05256 0.55266 0.0
O387 O 0.25226 0.05583 0.51629 0.0
C388 C 0.38531 0.08824 0.50207 0.0
C389 C 0.39635 0.11711 0.50354 0.0
H390 H 0.40959 0.1715 0.50655 0.0
H391 H 0.37387 0.18779 0.51172 0.0
H392 H 0.30299 0.00312 0.50049 0.0
H393 H 0.35606 0.03175 0.49882 0.0
H394 H 0.39992 0.08003 0.49955 0.0
H395 H 0.4193 0.13067 0.50223 0.0
Mn396 Mn 0.90824 0.19087 0.55125 0.0
Mn397 Mn 0.96002 0.22137 0.59048 0.0
C398 C 0.95561 0.2121 0.53975 0.0
C399 C 0.87621 0.14939 0.53405 0.0
C400 C 0.92434 0.24658 0.57187 0.0
O401 O 0.88719 0.1778 0.5815 0.0
O402 O 0.9243 0.19314 0.60568 0.0
C403 C 0.96802 0.17341 0.603 0.0
N404 N 0.97917 0.20009 0.59543 0.0
C405 C 0.02673 0.20537 0.59348 0.0
C406 C 0.0158 0.17798 0.60139 0.0
C407 C 0.9863 0.16191 0.60609 0.0
C408 C 0.00745 0.21565 0.59064 0.0
H409 H 0.94534 0.16106 0.60664 0.0
C410 C 0.89741 0.17998 0.60142 0.0
O411 O 0.87112 0.1702 0.53457 0.0
O412 O 0.89957 0.15274 0.54359 0.0
N413 N 0.99607 0.24959 0.57875 0.0
C414 C 0.00307 0.27548 0.57088 0.0
C415 C 0.03177 0.29421 0.56533 0.0
C416 C 0.05302 0.28629 0.56824 0.0
C417 C 0.04539 0.25972 0.57674 0.0
C418 C 0.01648 0.24203 0.58214 0.0
H419 H 0.9869 0.28181 0.56886 0.0
O420 O 0.93543 0.20585 0.52495 0.0
O421 O 0.94735 0.20448 0.5607 0.0
O422 O 0.91127 0.22911 0.55623 0.0
O423 O 0.94171 0.24474 0.58592 0.0
C424 C 0.06528 0.24998 0.57982 0.0
C425 C 0.05593 0.22278 0.58807 0.0
H426 H 0.02983 0.16904 0.6038 0.0
H427 H 0.97769 0.14073 0.61211 0.0
H428 H 0.03751 0.31472 0.55887 0.0
H429 H 0.07512 0.30075 0.56386 0.0
H430 H 0.08775 0.26314 0.57564 0.0
H431 H 0.07136 0.21541 0.59011 0.0
Mn432 Mn 0.96767 0.53596 0.38058 0.0
Mn433 Mn 0.90362 0.49601 0.40538 0.0
C434 C 0.92851 0.53865 0.36718 0.0
C435 C 0.01082 0.57691 0.38496 0.0
C436 C 0.93163 0.47443 0.37184 0.0
O437 O 0.97652 0.52114 0.40925 0.0
O438 O 0.93441 0.50277 0.42798 0.0
C439 C 0.90439 0.53474 0.43999 0.0
N440 N 0.89174 0.51846 0.42176 0.0
C441 C 0.8546 0.5315 0.42113 0.0
C442 C 0.86709 0.5482 0.44002 0.0
C443 C 0.89211 0.54985 0.44946 0.0
C444 C 0.86768 0.51675 0.41252 0.0
H445 H 0.92377 0.53627 0.44719 0.0
C446 C 0.96149 0.51123 0.42721 0.0
O447 O 0.01006 0.55675 0.37321 0.0
O448 O 0.98687 0.57353 0.39323 0.0
N449 N 0.87208 0.48844 0.38566 0.0
C450 C 0.86325 0.4722 0.36695 0.0
C451 C 0.8388 0.46883 0.35524 0.0
C452 C 0.82358 0.48206 0.36291 0.0
C453 C 0.83282 0.49837 0.38236 0.0
C454 C 0.85716 0.50071 0.3935 0.0
H455 H 0.87479 0.46195 0.36092 0.0
O456 O 0.952 0.54892 0.35518 0.0
O457 O 0.92936 0.52833 0.387 0.0
O458 O 0.95267 0.49784 0.36555 0.0
O459 O 0.91411 0.4716 0.38795 0.0
C460 C 0.81912 0.51275 0.39089 0.0
C461 C 0.83002 0.52934 0.41025 0.0
H462 H 0.85781 0.56005 0.44728 0.0
H463 H 0.90198 0.56284 0.46395 0.0
H464 H 0.83178 0.45617 0.34026 0.0
H465 H 0.80492 0.47966 0.35367 0.0
H466 H 0.80038 0.51148 0.38254 0.0
H467 H 0.8195 0.54057 0.41648 0.0
Mn468 Mn 0.46052 0.42447 0.36883 0.0
Mn469 Mn 0.46344 0.48462 0.35171 0.0
C470 C 0.42059 0.42949 0.37266 0.0
C471 C 0.45402 0.38116 0.35817 0.0
C472 C 0.48146 0.47616 0.39867 0.0
O473 O 0.49871 0.44432 0.35242 0.0
O474 O 0.49844 0.48324 0.34138 0.0
C475 C 0.4575 0.47097 0.30282 0.0
N476 N 0.44757 0.47754 0.32181 0.0
C477 C 0.40606 0.47316 0.30195 0.0
C478 C 0.41593 0.46649 0.28215 0.0
C479 C 0.44175 0.46537 0.28261 0.0
C480 C 0.42258 0.47835 0.32162 0.0
H481 H 0.47721 0.46986 0.3031 0.0
C482 C 0.51025 0.46783 0.34245 0.0
O483 O 0.46779 0.39277 0.37663 0.0
O484 O 0.44525 0.39516 0.34581 0.0
N485 N 0.43159 0.4899 0.35972 0.0
C486 C 0.42763 0.50102 0.37903 0.0
C487 C 0.40321 0.50438 0.38121 0.0
C488 C 0.38385 0.4975 0.36311 0.0
C489 C 0.38964 0.48822 0.34273 0.0
C490 C 0.41425 0.48514 0.34164 0.0
H491 H 0.44269 0.50668 0.39286 0.0
O492 O 0.42194 0.40901 0.38249 0.0
O493 O 0.44159 0.44497 0.35871 0.0
O494 O 0.47702 0.45127 0.39587 0.0
O495 O 0.47809 0.4909 0.38308 0.0
C496 C 0.37245 0.4827 0.32324 0.0
C497 C 0.3806 0.47506 0.30288 0.0
H498 H 0.40389 0.46225 0.26651 0.0
H499 H 0.44947 0.46017 0.26742 0.0
H500 H 0.39937 0.51234 0.39677 0.0
H501 H 0.36508 0.50019 0.36482 0.0
H502 H 0.35317 0.48468 0.32362 0.0
H503 H 0.36734 0.4711 0.28795 0.0
Mn504 Mn 0.57557 0.02684 0.36556 0.0
Mn505 Mn 0.51323 0.96819 0.35563 0.0
C506 C 0.57405 0.98488 0.37023 0.0
C507 C 0.61713 0.06493 0.35157 0.0
C508 C 0.52674 0.99675 0.40083 0.0
O509 O 0.55081 0.0413 0.35129 0.0
O510 O 0.51086 1.00142 0.34495 0.0
C511 C 0.52003 0.97277 0.30553 0.0
N512 N 0.5164 0.9581 0.32524 0.0
C513 C 0.5168 0.92065 0.30512 0.0
C514 C 0.52039 0.9353 0.28459 0.0
C515 C 0.52207 0.9615 0.28482 0.0
C516 C 0.51517 0.93305 0.32525 0.0
H517 H 0.52141 0.99295 0.30561 0.0
C518 C 0.5253 0.02783 0.34411 0.0
O519 O 0.60606 0.06552 0.37109 0.0
O520 O 0.60371 0.04242 0.34001 0.0
N521 N 0.51071 0.93358 0.36457 0.0
C522 C 0.50378 0.92081 0.38543 0.0
C523 C 0.50049 0.89409 0.3881 0.0
C524 C 0.50318 0.88031 0.36914 0.0
C525 C 0.50854 0.89319 0.3476 0.0
C526 C 0.51173 0.9199 0.34602 0.0
H527 H 0.50119 0.93112 0.39999 0.0
O528 O 0.59561 0.00737 0.37742 0.0
O529 O 0.55537 0.98793 0.35772 0.0
O530 O 0.5514 0.01693 0.39515 0.0
O531 O 0.51032 0.97771 0.38727 0.0
C532 C 0.51032 0.88037 0.32759 0.0
C533 C 0.51458 0.89415 0.30637 0.0
H534 H 0.52183 0.92661 0.26857 0.0
H535 H 0.52491 0.97297 0.26906 0.0
H536 H 0.49576 0.88409 0.40471 0.0
H537 H 0.50058 0.85968 0.37125 0.0
H538 H 0.50815 0.85981 0.3283 0.0
H539 H 0.51578 0.88403 0.29109 0.0
Mn540 Mn 0.87661 0.62848 0.79603 0.0
Mn541 Mn 0.87678 0.68768 0.81054 0.0
C542 C 0.91653 0.66996 0.78868 0.0
C543 C 0.8821 0.5905 0.80682 0.0
C544 C 0.85482 0.6605 0.76551 0.0
O545 O 0.84047 0.61447 0.81496 0.0
O546 O 0.8414 0.65465 0.82182 0.0
C547 C 0.88356 0.67979 0.85966 0.0
N548 N 0.89338 0.69533 0.84019 0.0
C549 C 0.93548 0.7294 0.85912 0.0
C550 C 0.92576 0.7138 0.87938 0.0
C551 C 0.89969 0.68888 0.87964 0.0
C552 C 0.91861 0.71917 0.8397 0.0
H553 H 0.86361 0.66057 0.85996 0.0
C554 C 0.82933 0.62826 0.82315 0.0
O555 O 0.86662 0.58941 0.78937 0.0
O556 O 0.89362 0.61323 0.81818 0.0
N557 N 0.90903 0.72211 0.80147 0.0
C558 C 0.91272 0.73687 0.78179 0.0
C559 C 0.93724 0.76286 0.77892 0.0
C560 C 0.95696 0.77397 0.79673 0.0
C561 C 0.95145 0.75938 0.8175 0.0
C562 C 0.92674 0.7335 0.81927 0.0
H563 H 0.89732 0.72857 0.76822 0.0
O564 O 0.91356 0.64752 0.77958 0.0
O565 O 0.89742 0.66713 0.80398 0.0
O566 O 0.85761 0.63896 0.76975 0.0
O567 O 0.86119 0.68018 0.77954 0.0
C568 C 0.96902 0.76989 0.83672 0.0
C569 C 0.96111 0.75484 0.8575 0.0
H570 H 0.93808 0.72081 0.89486 0.0
H571 H 0.89204 0.67671 0.89521 0.0
H572 H 0.94086 0.77433 0.76307 0.0
H573 H 0.9758 0.79405 0.79449 0.0
H574 H 0.9884 0.78973 0.83581 0.0
H575 H 0.97463 0.76325 0.87222 0.0
Mn576 Mn 0.37317 0.24174 0.7875 0.0
Mn577 Mn 0.31428 0.18003 0.7986 0.0
C578 C 0.32879 0.23738 0.78096 0.0
C579 C 0.40872 0.28363 0.80214 0.0
C580 C 0.34719 0.19334 0.75405 0.0
O581 O 0.38936 0.21988 0.80393 0.0
O582 O 0.34886 0.18085 0.81255 0.0
C583 C 0.31299 0.18824 0.84811 0.0
N584 N 0.29979 0.18304 0.82754 0.0
C585 C 0.2574 0.18099 0.84403 0.0
C586 C 0.27046 0.18612 0.86542 0.0
C587 C 0.29841 0.18982 0.86745 0.0
C588 C 0.27303 0.17975 0.82536 0.0
H589 H 0.33452 0.19125 0.84974 0.0
C590 C 0.37614 0.19601 0.81324 0.0
O591 O 0.41291 0.27395 0.78333 0.0
O592 O 0.38458 0.26854 0.81261 0.0
N593 N 0.27864 0.17508 0.78672 0.0
C594 C 0.26843 0.16859 0.76514 0.0
C595 C 0.24067 0.16407 0.76024 0.0
C596 C 0.22335 0.16534 0.77769 0.0
C597 C 0.23381 0.17073 0.79996 0.0
C598 C 0.26168 0.17514 0.80381 0.0
H599 H 0.28151 0.16729 0.75169 0.0
O600 O 0.3518 0.25878 0.77346 0.0
O601 O 0.33252 0.22035 0.79449 0.0
O602 O 0.36634 0.21827 0.75854 0.0
O603 O 0.32802 0.17699 0.76828 0.0
C604 C 0.21767 0.17187 0.8185 0.0
C605 C 0.22949 0.17709 0.84051 0.0
H606 H 0.25927 0.18732 0.88038 0.0
H607 H 0.30868 0.19391 0.88388 0.0
H608 H 0.23263 0.15955 0.74306 0.0
H609 H 0.20198 0.1619 0.77384 0.0
H610 H 0.19613 0.16873 0.81603 0.0
H611 H 0.21688 0.17794 0.85463 0.0
Mn612 Mn 0.7585 0.12787 0.78549 0.0
Mn613 Mn 0.73351 0.16832 0.76344 0.0
C614 C 0.7154 0.12228 0.79881 0.0
C615 C 0.76255 0.08864 0.77723 0.0
C616 C 0.78213 0.18787 0.79788 0.0
O617 O 0.78356 0.14658 0.75816 0.0
O618 O 0.75832 0.16383 0.74014 0.0
C619 C 0.69664 0.13211 0.72709 0.0
N620 N 0.69963 0.14681 0.74623 0.0
C621 C 0.64925 0.13299 0.74681 0.0
C622 C 0.6457 0.11791 0.72699 0.0
C623 C 0.6695 0.11744 0.71711 0.0
C624 C 0.67687 0.14736 0.7559 0.0
H625 H 0.71482 0.13148 0.71954 0.0
C626 C 0.778 0.15674 0.74058 0.0
O627 O 0.78055 0.10703 0.79109 0.0
O628 O 0.74202 0.09249 0.76954 0.0
N629 N 0.70879 0.17379 0.78398 0.0
C630 C 0.7156 0.18856 0.8035 0.0
C631 C 0.69404 0.19062 0.8157 0.0
C632 C 0.66575 0.17764 0.80766 0.0
C633 C 0.65931 0.16289 0.78738 0.0
C634 C 0.68175 0.1618 0.7758 0.0
H635 H 0.73726 0.19864 0.8098 0.0
O636 O 0.72852 0.11118 0.80985 0.0
O637 O 0.72737 0.13499 0.77985 0.0
O638 O 0.77977 0.16421 0.80325 0.0
O639 O 0.7679 0.19156 0.78181 0.0
C640 C 0.63142 0.14887 0.77838 0.0
C641 C 0.62639 0.13389 0.75813 0.0
H642 H 0.62476 0.10641 0.71933 0.0
H643 H 0.66689 0.1057 0.70189 0.0
H644 H 0.6992 0.2021 0.83132 0.0
H645 H 0.64913 0.17903 0.81726 0.0
H646 H 0.61362 0.14919 0.78704 0.0
H647 H 0.60479 0.12292 0.75154 0.0
Mn648 Mn 0.39197 0.14949 0.28487 0.0
Mn649 Mn 0.41158 0.11861 0.24483 0.0
C650 C 0.41847 0.12833 0.29549 0.0
C651 C 0.40197 0.19099 0.30224 0.0
C652 C 0.35139 0.09383 0.26483 0.0
O653 O 0.3827 0.16215 0.25491 0.0
O654 O 0.40407 0.14706 0.23012 0.0
C655 C 0.46745 0.16613 0.23142 0.0
N656 N 0.45188 0.13949 0.23907 0.0
C657 C 0.4938 0.13353 0.23965 0.0
C658 C 0.5103 0.16087 0.23165 0.0
C659 C 0.49708 0.17727 0.22761 0.0
C660 C 0.46441 0.12363 0.24325 0.0
H661 H 0.4573 0.17872 0.22827 0.0
C662 C 0.39016 0.15992 0.23479 0.0
O663 O 0.37608 0.17014 0.30217 0.0
O664 O 0.4217 0.18773 0.29207 0.0
N665 N 0.41932 0.09014 0.25605 0.0
C666 C 0.40043 0.06433 0.26409 0.0
C667 C 0.41018 0.04528 0.26898 0.0
C668 C 0.43913 0.05279 0.26524 0.0
C669 C 0.45807 0.07929 0.25662 0.0
C670 C 0.44707 0.09732 0.25189 0.0
H671 H 0.37808 0.05829 0.2667 0.0
O672 O 0.40519 0.13479 0.31072 0.0
O673 O 0.41703 0.13574 0.27463 0.0
O674 O 0.35657 0.11126 0.28064 0.0
O675 O 0.36996 0.0956 0.25017 0.0
C676 C 0.48749 0.08864 0.25275 0.0
C677 C 0.50538 0.1158 0.2444 0.0
H678 H 0.53315 0.16954 0.22867 0.0
H679 H 0.50969 0.19842 0.22152 0.0
H680 H 0.3954 0.02482 0.27554 0.0
H681 H 0.44658 0.03807 0.26908 0.0
H682 H 0.49665 0.07523 0.2564 0.0
H683 H 0.52803 0.12286 0.24175 0.0
Mn684 Mn 0.85015 0.24813 0.2587 0.0
Mn685 Mn 0.87492 0.24701 0.31124 0.0
C686 C 0.89824 0.2647 0.26344 0.0
C687 C 0.83137 0.22255 0.22561 0.0
C688 C 0.86128 0.29183 0.29473 0.0
O689 O 0.81396 0.22408 0.27687 0.0
O690 O 0.83276 0.22109 0.3103 0.0
C691 C 0.86547 0.18957 0.30997 0.0
N692 N 0.88362 0.21718 0.31217 0.0
C693 C 0.92452 0.2097 0.31479 0.0
C694 C 0.90624 0.18117 0.31271 0.0
C695 C 0.87658 0.17108 0.31027 0.0
C696 C 0.91221 0.22713 0.31433 0.0
H697 H 0.84269 0.18173 0.30787 0.0
C698 C 0.81137 0.21446 0.29705 0.0
O699 O 0.82765 0.24371 0.22992 0.0
O700 O 0.8445 0.21591 0.24085 0.0
N701 N 0.91525 0.27062 0.31502 0.0
C702 C 0.92952 0.29833 0.31898 0.0
C703 C 0.95931 0.31164 0.32239 0.0
C704 C 0.974 0.29624 0.32217 0.0
C705 C 0.95861 0.26752 0.31923 0.0
C706 C 0.92891 0.25538 0.31612 0.0
H707 H 0.91832 0.31026 0.31924 0.0
O708 O 0.88864 0.27007 0.24491 0.0
O709 O 0.87913 0.24837 0.27826 0.0
O710 O 0.85439 0.28355 0.27418 0.0
O711 O 0.86746 0.27881 0.31007 0.0
C712 C 0.9715 0.25041 0.31959 0.0
C713 C 0.95448 0.22153 0.31729 0.0
H714 H 0.91473 0.16684 0.31293 0.0
H715 H 0.86235 0.1491 0.30856 0.0
H716 H 0.97094 0.33373 0.32506 0.0
H717 H 0.997 0.30659 0.32465 0.0
H718 H 0.99445 0.25923 0.32179 0.0
H719 H 0.96462 0.20858 0.31766 0.0
Mn720 Mn 0.76419 0.6074 0.26185 0.0
Mn721 Mn 0.75947 0.63151 0.31317 0.0
C722 C 0.74565 0.63692 0.26418 0.0
C723 C 0.79169 0.61259 0.22957 0.0
C724 C 0.71543 0.57527 0.29633 0.0
O725 O 0.78842 0.59686 0.28172 0.0
O726 O 0.78515 0.61455 0.31505 0.0
C727 C 0.81966 0.67662 0.31418 0.0
N728 N 0.79103 0.66825 0.31471 0.0
C729 C 0.80003 0.71536 0.31601 0.0
C730 C 0.82961 0.72447 0.31563 0.0
C731 C 0.83946 0.70501 0.3147 0.0
C732 C 0.78133 0.68681 0.3154 0.0
H733 H 0.82734 0.66176 0.31327 0.0
C734 C 0.79447 0.60166 0.30264 0.0
O735 O 0.77001 0.58868 0.23509 0.0
O736 O 0.7981 0.63266 0.24346 0.0
N737 N 0.73564 0.64862 0.31454 0.0
C738 C 0.70659 0.63628 0.31716 0.0
C739 C 0.69324 0.6528 0.31902 0.0
C740 C 0.70996 0.68178 0.31869 0.0
C741 C 0.73993 0.69395 0.31722 0.0
C742 C 0.75201 0.67641 0.3156 0.0
H743 H 0.69366 0.61401 0.3175 0.0
O744 O 0.74158 0.62222 0.24626 0.0
O745 O 0.76192 0.63504 0.27996 0.0
O746 O 0.72719 0.57684 0.27692 0.0
O747 O 0.72603 0.59411 0.31137 0.0
C748 C 0.75833 0.72276 0.31767 0.0
C749 C 0.78835 0.73346 0.31698 0.0
H750 H 0.84495 0.74635 0.31604 0.0
H751 H 0.86226 0.71189 0.31432 0.0
H752 H 0.67013 0.64323 0.32059 0.0
H753 H 0.69959 0.69446 0.31998 0.0
H754 H 0.74961 0.73686 0.31873 0.0
H755 H 0.80228 0.75565 0.31742 0.0
Mn756 Mn 0.48175 0.05225 0.90296 0.0
Mn757 Mn 0.45272 0.02769 0.85173 0.0
C758 C 0.43358 0.0235 0.90068 0.0
C759 C 0.50378 0.04691 0.93541 0.0
C760 C 0.4662 0.08459 0.86777 0.0
O761 O 0.51635 0.06189 0.8832 0.0
O762 O 0.49527 0.04383 0.84997 0.0
C763 C 0.46646 0.98168 0.8516 0.0
N764 N 0.44666 0.99062 0.85076 0.0
C765 C 0.40779 0.94384 0.84987 0.0
C766 C 0.42778 0.93414 0.85058 0.0
C767 C 0.45724 0.95315 0.85147 0.0
C768 C 0.41826 0.97249 0.85011 0.0
H769 H 0.4891 0.99621 0.85249 0.0
C770 C 0.51749 0.05663 0.86238 0.0
O771 O 0.5065 0.07096 0.92967 0.0
O772 O 0.48973 0.02676 0.92168 0.0
N773 N 0.41185 0.01133 0.85024 0.0
C774 C 0.39567 0.02416 0.8472 0.0
C775 C 0.36573 0.00812 0.84535 0.0
C776 C 0.35286 0.97909 0.84608 0.0
C777 C 0.37014 0.96639 0.84793 0.0
C778 C 0.39985 0.98346 0.84956 0.0
H779 H 0.40549 0.04646 0.84654 0.0
O780 O 0.44445 0.0383 0.91852 0.0
O781 O 0.45154 0.02477 0.88498 0.0
O782 O 0.47605 0.08308 0.88737 0.0
O783 O 0.45766 0.06547 0.85297 0.0
C784 C 0.35909 0.93748 0.84785 0.0
C785 C 0.37791 0.9262 0.8489 0.0
H786 H 0.42076 0.91215 0.85046 0.0
H787 H 0.47279 0.94583 0.8521 0.0
H788 H 0.35261 0.0181 0.84347 0.0
H789 H 0.32976 0.96679 0.84479 0.0
H790 H 0.33619 0.92373 0.8468 0.0
H791 H 0.36918 0.90394 0.84874 0.0
Mn792 Mn 0.93268 0.41605 0.90642 0.0
Mn793 Mn 0.95638 0.40792 0.85542 0.0
C794 C 0.96364 0.39829 0.90536 0.0
C795 C 0.94023 0.44621 0.93627 0.0
C796 C 0.89777 0.36763 0.87518 0.0
O797 O 0.92028 0.43701 0.88467 0.0
O798 O 0.9422 0.43541 0.85246 0.0
C799 C 0.00644 0.46395 0.85052 0.0
N800 N 0.99537 0.43595 0.85115 0.0
C801 C 0.04204 0.44015 0.84505 0.0
C802 C 0.0539 0.46903 0.84409 0.0
C803 C 0.03603 0.48098 0.8469 0.0
C804 C 0.0124 0.42424 0.84863 0.0
H805 H 0.9928 0.47321 0.85284 0.0
C806 C 0.92747 0.44378 0.86394 0.0
O807 O 0.91515 0.42474 0.93323 0.0
O808 O 0.95985 0.45075 0.92131 0.0
N809 N 0.97099 0.38227 0.85527 0.0
C810 C 0.95633 0.35413 0.85726 0.0
C811 C 0.97121 0.33902 0.8554 0.0
C812 C 0.00089 0.35293 0.8511 0.0
C813 C 0.01541 0.38184 0.84854 0.0
C814 C -0.00057 0.3958 0.85052 0.0
H815 H 0.9335 0.34327 0.86042 0.0
O816 O 0.94912 0.39617 0.92362 0.0
O817 O 0.96086 0.4123 0.88837 0.0
O818 O 0.90044 0.37872 0.89467 0.0
O819 O 0.91651 0.37785 0.85919 0.0
C820 C 0.04521 0.39741 0.84461 0.0
C821 C 0.05853 0.42655 0.84291 0.0
H822 H 0.07673 0.48224 0.84138 0.0
H823 H 0.04505 0.50326 0.84634 0.0
H824 H 0.95982 0.31671 0.85732 0.0
H825 H 0.01234 0.34123 0.8499 0.0
H826 H 0.05815 0.38721 0.84312 0.0
H827 H 0.08151 0.4383 0.84013 0.0
Mn828 Mn 0.57554 0.51131 0.88593 0.0
Mn829 Mn 0.62644 0.54205 0.92577 0.0
C830 C 0.62324 0.53191 0.87522 0.0
C831 C 0.54365 0.46975 0.86856 0.0
C832 C 0.59147 0.56735 0.90582 0.0
O833 O 0.55371 0.49901 0.91599 0.0
O834 O 0.59037 0.51403 0.94063 0.0
C835 C 0.63406 0.49419 0.93945 0.0
N836 N 0.64543 0.52079 0.93163 0.0
C837 C 0.69305 0.52612 0.93102 0.0
C838 C 0.6819 0.49881 0.93919 0.0
C839 C 0.65226 0.48275 0.94334 0.0
C840 C 0.67384 0.53633 0.92735 0.0
H841 H 0.61129 0.48186 0.94269 0.0
C842 C 0.56354 0.50138 0.93609 0.0
O843 O 0.53885 0.49075 0.86863 0.0
O844 O 0.56653 0.47285 0.87881 0.0
N845 N 0.66278 0.57011 0.91437 0.0
C846 C 0.66999 0.59591 0.90615 0.0
C847 C 0.69886 0.61463 0.90111 0.0
C848 C 0.72004 0.6068 0.90488 0.0
C849 C 0.71217 0.58031 0.91369 0.0
C850 C 0.6831 0.56261 0.91855 0.0
H851 H 0.65387 0.60219 0.9035 0.0
O852 O 0.60348 0.52565 0.86003 0.0
O853 O 0.61438 0.52472 0.89609 0.0
O854 O 0.57887 0.54982 0.89011 0.0
O855 O 0.60831 0.56547 0.92038 0.0
C856 C 0.73199 0.57065 0.91762 0.0
C857 C 0.72241 0.54352 0.92616 0.0
H858 H 0.69587 0.48991 0.94223 0.0
H859 H 0.64349 0.46163 0.94956 0.0
H860 H 0.70478 0.63509 0.89439 0.0
H861 H 0.74227 0.62127 0.90093 0.0
H862 H 0.75459 0.5838 0.91388 0.0
H863 H 0.73779 0.53621 0.92885 0.0
Mn864 Mn 0.62664 0.86888 0.71246 0.0
Mn865 Mn 0.56144 0.82837 0.73483 0.0
C866 C 0.58923 0.87519 0.70004 0.0
C867 C 0.67027 0.90764 0.72094 0.0
C868 C 0.58956 0.80936 0.69914 0.0
O869 O 0.63308 0.8492 0.73907 0.0
O870 O 0.59109 0.83254 0.7577 0.0
C871 C 0.56152 0.8641 0.77189 0.0
N872 N 0.54948 0.84972 0.75267 0.0
C873 C 0.51318 0.86386 0.75294 0.0
C874 C 0.52504 0.87861 0.77284 0.0
C875 C 0.54934 0.87876 0.78234 0.0
C876 C 0.52613 0.8495 0.74336 0.0
H877 H 0.58036 0.86449 0.77915 0.0
C878 C 0.61777 0.83933 0.75688 0.0
O879 O 0.66949 0.88957 0.70655 0.0
O880 O 0.64608 0.90375 0.72908 0.0
N881 N 0.53097 0.82331 0.71474 0.0
C882 C 0.52253 0.80869 0.69515 0.0
C883 C 0.49877 0.80691 0.68334 0.0
C884 C 0.4838 0.82 0.69183 0.0
C885 C 0.49256 0.83454 0.7122 0.0
C886 C 0.5162 0.83535 0.72337 0.0
H887 H 0.53382 0.7985 0.6885 0.0
O888 O 0.61337 0.88651 0.68889 0.0
O889 O 0.58855 0.86191 0.71865 0.0
O890 O 0.6109 0.83309 0.69392 0.0
O891 O 0.5722 0.80535 0.71572 0.0
C892 C 0.479 0.84859 0.72167 0.0
C893 C 0.48933 0.86328 0.742 0.0
H894 H 0.51583 0.89009 0.78087 0.0
H895 H 0.55874 0.89024 0.79762 0.0
H896 H 0.49209 0.79557 0.66767 0.0
H897 H 0.46567 0.81882 0.68255 0.0
H898 H 0.46079 0.84848 0.71332 0.0
H899 H 0.47892 0.87426 0.74897 0.0
Mn900 Mn 0.12733 0.76669 0.70419 0.0
Mn901 Mn 0.12569 0.82388 0.68492 0.0
C902 C 0.08597 0.76913 0.70787 0.0
C903 C 0.12245 0.72361 0.69426 0.0
C904 C 0.14582 0.81956 0.73228 0.0
O905 O 0.16476 0.78721 0.68699 0.0
O906 O 0.16216 0.82476 0.67525 0.0
C907 C 0.12088 0.80823 0.63654 0.0
N908 N 0.10995 0.81455 0.65507 0.0
C909 C 0.06741 0.80629 0.63464 0.0
C910 C 0.0783 0.79983 0.61531 0.0
C911 C 0.10514 0.8008 0.61628 0.0
C912 C 0.084 0.81341 0.65438 0.0
H913 H 0.1414 0.80872 0.6372 0.0
C914 C 0.17522 0.81045 0.67667 0.0
O915 O 0.13649 0.73607 0.71241 0.0
O916 O 0.11266 0.73667 0.6819 0.0
N917 N 0.09216 0.82676 0.69215 0.0
C918 C 0.0867 0.83743 0.71109 0.0
C919 C 0.06101 0.83867 0.71272 0.0
C920 C 0.04176 0.83001 0.69447 0.0
C921 C 0.04883 0.821 0.67451 0.0
C922 C 0.07469 0.8201 0.67395 0.0
H923 H 0.10153 0.84429 0.72507 0.0
O924 O 0.08911 0.75011 0.71855 0.0
O925 O 0.10618 0.78467 0.69336 0.0
O926 O 0.14356 0.79528 0.73032 0.0
O927 O 0.14029 0.83229 0.7162 0.0
C928 C 0.03159 0.81356 0.65494 0.0
C929 C 0.04083 0.80611 0.63504 0.0
H930 H 0.06625 0.79416 0.59964 0.0
H931 H 0.11367 0.79577 0.60146 0.0
H932 H 0.05608 0.84631 0.72798 0.0
H933 H 0.02199 0.83104 0.69575 0.0
H934 H 0.01138 0.81385 0.65491 0.0
H935 H 0.02751 0.80064 0.62004 0.0
Mn936 Mn 0.24502 0.36883 0.70303 0.0
Mn937 Mn 0.18229 0.31059 0.69328 0.0
C938 C 0.2438 0.32679 0.70549 0.0
C939 C 0.28576 0.40719 0.68818 0.0
C940 C 0.19788 0.3376 0.73922 0.0
O941 O 0.21946 0.3837 0.69096 0.0
O942 O 0.17966 0.34404 0.68377 0.0
C943 C 0.18709 0.31613 0.64311 0.0
N944 N 0.18411 0.30104 0.66245 0.0
C945 C 0.18313 0.26377 0.64106 0.0
C946 C 0.18602 0.27884 0.6209 0.0
C947 C 0.18808 0.30517 0.62194 0.0
C948 C 0.18254 0.27587 0.66166 0.0
H949 H 0.18876 0.3364 0.64381 0.0
C950 C 0.19391 0.37046 0.6838 0.0
O951 O 0.27612 0.40743 0.70843 0.0
O952 O 0.27139 0.38494 0.67652 0.0
N953 N 0.18001 0.27579 0.70117 0.0
C954 C 0.17426 0.26278 0.72193 0.0
C955 C 0.17088 0.23596 0.72384 0.0
C956 C 0.17233 0.22237 0.70429 0.0
C957 C 0.1766 0.23555 0.68295 0.0
C958 C 0.17992 0.26233 0.68213 0.0
H959 H 0.17264 0.27294 0.73696 0.0
O960 O 0.26571 0.34903 0.71266 0.0
O961 O 0.22445 0.33024 0.69431 0.0
O962 O 0.22254 0.35781 0.73356 0.0
O963 O 0.18076 0.31948 0.72532 0.0
C964 C 0.17728 0.22301 0.66245 0.0
C965 C 0.18068 0.23716 0.64152 0.0
H966 H 0.18665 0.2704 0.60454 0.0
H967 H 0.1904 0.31697 0.60647 0.0
H968 H 0.16706 0.22574 0.74032 0.0
H969 H 0.1697 0.20167 0.70582 0.0
H970 H 0.17499 0.2024 0.66256 0.0
H971 H 0.18108 0.22728 0.62586 0.0
Mn972 Mn 0.54304 0.97103 0.13358 0.0
Mn973 Mn 0.53776 0.02905 0.14235 0.0
C974 C 0.58291 0.01341 0.12852 0.0
C975 C 0.54795 0.93405 0.1485 0.0
C976 C 0.52323 0.99941 0.09758 0.0
O977 O 0.50366 0.95604 0.14781 0.0
O978 O 0.50276 0.99562 0.15361 0.0
C979 C 0.54048 0.0261 0.19253 0.0
N980 N 0.5511 0.04029 0.17256 0.0
C981 C 0.58831 0.07901 0.19204 0.0
C982 C 0.57768 0.06487 0.21282 0.0
C983 C 0.5537 0.03827 0.21305 0.0
C984 C 0.57439 0.06572 0.17212 0.0
H985 H 0.52209 0.00563 0.1928 0.0
C986 C 0.49126 0.96926 0.15483 0.0
O987 O 0.53604 0.93251 0.1289 0.0
O988 O 0.55629 0.95676 0.1596 0.0
N989 N 0.56922 0.0638 0.1328 0.0
C990 C 0.57481 0.07581 0.11165 0.0
C991 C 0.59774 0.10275 0.10849 0.0
C992 C 0.61396 0.11746 0.12725 0.0
C993 C 0.60675 0.10529 0.14905 0.0
C994 C 0.58373 0.07833 0.15111 0.0
H995 H 0.56209 0.06477 0.09723 0.0
O996 O 0.58254 0.99105 0.12166 0.0
O997 O 0.56095 0.01011 0.14084 0.0
O998 O 0.52837 0.97974 0.1036 0.0
O999 O 0.52525 0.01843 0.11088 0.0
C1000 C 0.62119 0.119 0.16884 0.0
C1001 C 0.61206 0.10582 0.19032 0.0
H1002 H 0.58774 0.07424 0.2287 0.0
H1003 H 0.54541 0.02719 0.22902 0.0
H1004 H 0.6028 0.11218 0.09167 0.0
H1005 H 0.63162 0.13824 0.12476 0.0
H1006 H 0.6392 0.13977 0.16776 0.0
H1007 H 0.62327 0.1166 0.20543 0.0
Mn1008 Mn 0.0325 0.57838 0.12206 0.0
Mn1009 Mn 0.97534 0.51584 0.13428 0.0
C1010 C 0.98742 0.57209 0.11553 0.0
C1011 C 0.06751 0.62092 0.13578 0.0
C1012 C 0.00765 0.52911 0.08948 0.0
O1013 O 0.05015 0.5581 0.13874 0.0
O1014 O 0.01082 0.51832 0.14792 0.0
C1015 C 0.97479 0.52517 0.18366 0.0
N1016 N 0.9611 0.51904 0.16329 0.0
C1017 C 0.91845 0.51603 0.18013 0.0
C1018 C 0.93202 0.52212 0.20133 0.0
C1019 C 0.96034 0.52677 0.20308 0.0
C1020 C 0.93399 0.51486 0.16137 0.0
H1021 H 0.99661 0.5289 0.18508 0.0
C1022 C 0.03796 0.53436 0.14831 0.0
O1023 O 0.07162 0.61098 0.11709 0.0
O1024 O 0.04361 0.60584 0.1466 0.0
N1025 N 0.93894 0.50919 0.1228 0.0
C1026 C 0.92818 0.50144 0.1015 0.0
C1027 C 0.89995 0.49571 0.09691 0.0
C1028 C 0.88275 0.49705 0.11443 0.0
C1029 C 0.89379 0.50366 0.13647 0.0
C1030 C 0.92212 0.50926 0.14 0.0
H1031 H 0.94118 0.50004 0.08803 0.0
O1032 O 0.00987 0.59389 0.1078 0.0
O1033 O 0.99209 0.55596 0.12943 0.0
O1034 O 0.02619 0.55436 0.09361 0.0
O1035 O 0.98887 0.51267 0.10392 0.0
C1036 C 0.87776 0.50477 0.1551 0.0
C1037 C 0.89011 0.51105 0.1769 0.0
H1038 H 0.92092 0.52331 0.21635 0.0
H1039 H 0.971 0.53159 0.21936 0.0
H1040 H 0.89146 0.4902 0.07993 0.0
H1041 H 0.86099 0.49264 0.11082 0.0
H1042 H 0.85587 0.50073 0.15287 0.0
H1043 H 0.87757 0.51182 0.1911 0.0
Mn1044 Mn 0.4311 0.47292 0.12009 0.0
Mn1045 Mn 0.41121 0.51616 0.09576 0.0
C1046 C 0.38945 0.47151 0.13249 0.0
C1047 C 0.43102 0.43119 0.11372 0.0
C1048 C 0.45925 0.53387 0.13058 0.0
O1049 O 0.45679 0.48884 0.09259 0.0
O1050 O 0.43431 0.50806 0.07324 0.0
C1051 C 0.37263 0.4801 0.06008 0.0
N1052 N 0.37686 0.49594 0.07872 0.0
C1053 C 0.32744 0.48561 0.07898 0.0
C1054 C 0.32263 0.46939 0.05968 0.0
C1055 C 0.34533 0.46661 0.05021 0.0
C1056 C 0.35517 0.49876 0.08797 0.0
H1057 H 0.38993 0.47767 0.05286 0.0
C1058 C 0.45225 0.4988 0.07441 0.0
O1059 O 0.44994 0.44941 0.12719 0.0
O1060 O 0.41201 0.43677 0.10525 0.0
N1061 N 0.38817 0.52489 0.11555 0.0
C1062 C 0.39601 0.54037 0.1347 0.0
C1063 C 0.37558 0.54463 0.14651 0.0
C1064 C 0.34733 0.53304 0.1385 0.0
C1065 C 0.33982 0.51748 0.11862 0.0
C1066 C 0.36119 0.5142 0.1074 0.0
H1067 H 0.41764 0.54936 0.14101 0.0
O1068 O 0.40089 0.45938 0.14436 0.0
O1069 O 0.40215 0.48277 0.11334 0.0
O1070 O 0.45473 0.50969 0.13687 0.0
O1071 O 0.44625 0.53825 0.11393 0.0
C1072 C 0.31185 0.50469 0.10972 0.0
C1073 C 0.30565 0.48875 0.08993 0.0
H1074 H 0.30154 0.45877 0.05212 0.0
H1075 H 0.34174 0.45398 0.0354 0.0
H1076 H 0.38156 0.55671 0.16183 0.0
H1077 H 0.33155 0.53612 0.1478 0.0
H1078 H 0.29485 0.50672 0.11812 0.0
H1079 H 0.28398 0.47874 0.08341 0.0
Mn1080 Mn 0.06365 0.49337 0.61887 0.0
Mn1081 Mn 0.08466 0.46151 0.58071 0.0
C1082 C 0.08923 0.47186 0.63125 0.0
C1083 C 0.07333 0.53501 0.63597 0.0
C1084 C 0.02367 0.43734 0.59884 0.0
O1085 O 0.05609 0.50609 0.58815 0.0
O1086 O 0.07749 0.48952 0.56479 0.0
C1087 C 0.14088 0.50896 0.56793 0.0
N1088 N 0.12513 0.48244 0.57582 0.0
C1089 C 0.16714 0.47675 0.57823 0.0
C1090 C 0.18382 0.50397 0.57 0.0
C1091 C 0.17064 0.52017 0.56492 0.0
C1092 C 0.13762 0.46677 0.58099 0.0
H1093 H 0.13075 0.5214 0.56399 0.0
C1094 C 0.06392 0.50297 0.56841 0.0
O1095 O 0.04734 0.51439 0.63512 0.0
O1096 O 0.09332 0.53154 0.62652 0.0
N1097 N 0.09214 0.43336 0.59309 0.0
C1098 C 0.07303 0.40765 0.60118 0.0
C1099 C 0.08271 0.38878 0.60703 0.0
C1100 C 0.11181 0.39636 0.60418 0.0
C1101 C 0.13098 0.42275 0.59548 0.0
C1102 C 0.12005 0.4406 0.58978 0.0
H1103 H 0.05057 0.40157 0.60312 0.0
O1104 O 0.07525 0.47853 0.64565 0.0
O1105 O 0.08894 0.47917 0.61014 0.0
O1106 O 0.02813 0.45529 0.61405 0.0
O1107 O 0.04292 0.43849 0.58519 0.0
C1108 C 0.16056 0.43218 0.59248 0.0
C1109 C 0.17866 0.45922 0.58399 0.0
H1110 H 0.20678 0.51268 0.56764 0.0
H1111 H 0.18339 0.54122 0.55865 0.0
H1112 H 0.06776 0.3684 0.61365 0.0
H1113 H 0.11921 0.38178 0.60875 0.0
H1114 H 0.16967 0.41892 0.59691 0.0
H1115 H 0.20141 0.46634 0.58201 0.0
Mn1116 Mn 0.51029 0.58656 0.58347 0.0
Mn1117 Mn 0.53908 0.59302 0.63562 0.0
C1118 C 0.55901 0.60608 0.58646 0.0
C1119 C 0.49072 0.55793 0.55219 0.0
C1120 C 0.52074 0.63326 0.61604 0.0
O1121 O 0.47585 0.56303 0.60353 0.0
O1122 O 0.49732 0.56533 0.63691 0.0
C1123 C 0.53313 0.53693 0.63955 0.0
N1124 N 0.54999 0.56494 0.63974 0.0
C1125 C 0.59225 0.56065 0.64673 0.0
C1126 C 0.57531 0.53175 0.64679 0.0
C1127 C 0.54563 0.51985 0.64314 0.0
C1128 C 0.57858 0.57661 0.64312 0.0
H1129 H 0.51033 0.52771 0.63664 0.0
C1130 C 0.47498 0.55607 0.62436 0.0
O1131 O 0.48571 0.5785 0.55561 0.0
O1132 O 0.50546 0.55341 0.56748 0.0
N1133 N 0.57922 0.61875 0.63747 0.0
C1134 C 0.59262 0.64696 0.63652 0.0
C1135 C 0.62247 0.66205 0.63942 0.0
C1136 C 0.63815 0.64805 0.6437 0.0
C1137 C 0.6238 0.61905 0.64521 0.0
C1138 C 0.59401 0.60511 0.64221 0.0
H1139 H 0.5807 0.65786 0.63337 0.0
O1140 O 0.54742 0.60872 0.56791 0.0
O1141 O 0.5415 0.59048 0.60257 0.0
O1142 O 0.51293 0.62257 0.59632 0.0
O1143 O 0.5293 0.62302 0.63197 0.0
C1144 C 0.63796 0.60341 0.64912 0.0
C1145 C 0.62221 0.57423 0.64984 0.0
H1146 H 0.58488 0.51851 0.64948 0.0
H1147 H 0.53243 0.49757 0.64305 0.0
H1148 H 0.63336 0.68443 0.63832 0.0
H1149 H 0.6612 0.65976 0.64573 0.0
H1150 H 0.661 0.61361 0.65138 0.0
H1151 H 0.63337 0.56243 0.65265 0.0
Mn1152 Mn 0.42975 0.94824 0.59434 0.0
Mn1153 Mn 0.42567 0.97428 0.64494 0.0
C1154 C 0.4122 0.97851 0.59555 0.0
C1155 C 0.45735 0.9519 0.56251 0.0
C1156 C 0.38061 0.91802 0.62895 0.0
O1157 O 0.45319 0.93751 0.61484 0.0
O1158 O 0.45053 0.95648 0.64766 0.0
C1159 C 0.48635 0.0184 0.64551 0.0
N1160 N 0.45787 0.01071 0.64583 0.0
C1161 C 0.46813 0.05825 0.64575 0.0
C1162 C 0.49757 0.06667 0.64556 0.0
C1163 C 0.50671 0.04666 0.64543 0.0
C1164 C 0.44885 0.02981 0.64574 0.0
H1165 H 0.49349 0.00311 0.64521 0.0
C1166 C 0.45933 0.94285 0.63567 0.0
O1167 O 0.43521 0.92839 0.56823 0.0
O1168 O 0.46406 0.97245 0.57594 0.0
N1169 N 0.40269 0.9923 0.64555 0.0
C1170 C 0.37372 0.98068 0.64843 0.0
C1171 C 0.36104 0.99784 0.64959 0.0
C1172 C 0.37835 0.02673 0.64841 0.0
C1173 C 0.40825 0.03821 0.64682 0.0
C1174 C 0.41964 0.02006 0.64585 0.0
H1175 H 0.36036 0.95848 0.64946 0.0
O1176 O 0.40805 0.96334 0.57792 0.0
O1177 O 0.42811 0.9767 0.61169 0.0
O1178 O 0.39225 0.91872 0.60966 0.0
O1179 O 0.39163 0.93722 0.64367 0.0
C1180 C 0.42722 0.06693 0.64662 0.0
C1181 C 0.45715 0.07694 0.646 0.0
H1182 H 0.51333 0.08844 0.64552 0.0
H1183 H 0.52939 0.053 0.64521 0.0
H1184 H 0.33799 0.98881 0.65132 0.0
H1185 H 0.36849 0.0399 0.6492 0.0
H1186 H 0.41904 0.08148 0.64716 0.0
H1187 H 0.47153 0.09906 0.64596 0.0
Mn1188 Mn 0.15354 0.39809 0.23369 0.0
Mn1189 Mn 0.12632 0.37457 0.18185 0.0
C1190 C 0.10579 0.368 0.23049 0.0
C1191 C 0.17497 0.39253 0.26635 0.0
C1192 C 0.13685 0.43009 0.19914 0.0
O1193 O 0.18896 0.40963 0.21443 0.0
O1194 O 0.16907 0.39258 0.18064 0.0
C1195 C 0.14306 0.33061 0.18071 0.0
N1196 N 0.12226 0.33827 0.18005 0.0
C1197 C 0.08512 0.29078 0.17814 0.0
C1198 C 0.10616 0.28241 0.17866 0.0
C1199 C 0.13525 0.30242 0.17997 0.0
C1200 C 0.09419 0.31917 0.179 0.0
H1201 H 0.16543 0.3459 0.18192 0.0
C1202 C 0.19087 0.40553 0.19344 0.0
O1203 O 0.17705 0.41644 0.26105 0.0
O1204 O 0.16216 0.37282 0.252 0.0
N1205 N 0.08538 0.35655 0.17988 0.0
C1206 C 0.0681 0.36825 0.1771 0.0
C1207 C 0.03836 0.35114 0.1749 0.0
C1208 C 0.02682 0.32224 0.17502 0.0
C1209 C 0.04523 0.31075 0.17664 0.0
C1210 C 0.07469 0.32887 0.17864 0.0
H1211 H 0.0769 0.39047 0.17691 0.0
O1212 O 0.1157 0.38244 0.24864 0.0
O1213 O 0.12447 0.37048 0.215 0.0
O1214 O 0.14678 0.42849 0.21866 0.0
O1215 O 0.12918 0.41148 0.18394 0.0
C1216 C 0.03558 0.28208 0.17594 0.0
C1217 C 0.0555 0.27209 0.17677 0.0
H1218 H 0.10023 0.26068 0.17807 0.0
H1219 H 0.15162 0.29611 0.18045 0.0
H1220 H 0.02437 0.36019 0.1732 0.0
H1221 H 0.00387 0.30909 0.17344 0.0
H1222 H 0.0129 0.26754 0.17457 0.0
H1223 H 0.04784 0.25001 0.17613 0.0
Mn1224 Mn 0.60941 0.75899 0.24332 0.0
Mn1225 Mn 0.63392 0.75976 0.19031 0.0
C1226 C 0.64059 0.74211 0.23791 0.0
C1227 C 0.61695 0.78464 0.27643 0.0
C1228 C 0.57578 0.71518 0.20764 0.0
O1229 O 0.59689 0.78302 0.2255 0.0
O1230 O 0.61763 0.78561 0.19166 0.0
C1231 C 0.68194 0.8172 0.19117 0.0
N1232 N 0.67243 0.78959 0.1889 0.0
C1233 C 0.72075 0.79709 0.18544 0.0
C1234 C 0.73105 0.82561 0.18759 0.0
C1235 C 0.71156 0.8357 0.19048 0.0
C1236 C 0.69102 0.77965 0.18632 0.0
H1237 H 0.66706 0.82502 0.19362 0.0
C1238 C 0.6032 0.79232 0.20517 0.0
O1239 O 0.59194 0.76353 0.27234 0.0
O1240 O 0.63646 0.79122 0.26096 0.0
N1241 N 0.65052 0.73616 0.18598 0.0
C1242 C 0.63696 0.7085 0.18181 0.0
C1243 C 0.65334 0.6952 0.17786 0.0
C1244 C 0.68345 0.71059 0.17774 0.0
C1245 C 0.69687 0.73928 0.18084 0.0
C1246 C 0.67941 0.7514 0.18448 0.0
H1247 H 0.61382 0.6966 0.18179 0.0
O1248 O 0.62616 0.73698 0.25669 0.0
O1249 O 0.63757 0.75845 0.22324 0.0
O1250 O 0.57772 0.72361 0.22819 0.0
O1251 O 0.59467 0.72798 0.19204 0.0
C1252 C 0.72687 0.75639 0.18007 0.0
C1253 C 0.73881 0.78527 0.18246 0.0
H1254 H 0.75388 0.83995 0.18706 0.0
H1255 H 0.71934 0.85768 0.19224 0.0
H1256 H 0.64279 0.67314 0.17504 0.0
H1257 H 0.69602 0.70024 0.17484 0.0
H1258 H 0.74094 0.74758 0.17746 0.0
H1259 H 0.7619 0.79823 0.18177 0.0
Mn1260 Mn 0.23798 0.84678 0.21925 0.0
Mn1261 Mn 0.28975 0.8765 0.25858 0.0
C1262 C 0.28536 0.86794 0.20772 0.0
C1263 C 0.20565 0.80588 0.20151 0.0
C1264 C 0.25429 0.90217 0.2405 0.0
O1265 O 0.21686 0.83338 0.2495 0.0
O1266 O 0.254 0.84807 0.2736 0.0
C1267 C 0.29765 0.82831 0.27037 0.0
N1268 N 0.30886 0.85511 0.26314 0.0
C1269 C 0.35643 0.86044 0.26116 0.0
C1270 C 0.34545 0.83291 0.26872 0.0
C1271 C 0.31592 0.81675 0.27326 0.0
C1272 C 0.33717 0.87076 0.2585 0.0
H1273 H 0.27496 0.81589 0.2739 0.0
C1274 C 0.22709 0.8352 0.26938 0.0
O1275 O 0.2009 0.82687 0.2025 0.0
O1276 O 0.22884 0.80865 0.21101 0.0
N1277 N 0.32584 0.90489 0.24707 0.0
C1278 C 0.3329 0.93093 0.23957 0.0
C1279 C 0.36165 0.94978 0.23427 0.0
C1280 C 0.38289 0.94183 0.23706 0.0
C1281 C 0.3752 0.9151 0.24517 0.0
C1282 C 0.34624 0.89728 0.25034 0.0
H1283 H 0.31674 0.93729 0.23766 0.0
O1284 O 0.26517 0.862 0.19298 0.0
O1285 O 0.27709 0.86004 0.22863 0.0
O1286 O 0.2413 0.88501 0.22466 0.0
O1287 O 0.27152 0.90002 0.25449 0.0
C1288 C 0.39507 0.90532 0.24809 0.0
C1289 C 0.38567 0.87795 0.25596 0.0
H1290 H 0.35947 0.82393 0.27098 0.0
H1291 H 0.30727 0.79546 0.27901 0.0
H1292 H 0.36743 0.97042 0.2281 0.0
H1293 H 0.40502 0.95639 0.23288 0.0
H1294 H 0.41758 0.91856 0.24408 0.0
H1295 H 0.40109 0.87056 0.25788 0.0
H1296 H 0.34281 0.19898 0.10306 0.0
H1297 H 0.26319 0.14627 0.13872 0.0
H1298 H 0.36957 0.20087 0.13682 0.0
H1299 H 0.29047 0.14767 0.17267 0.0
H1300 H 0.34701 0.17364 0.23529 0.0
H1301 H 0.32174 0.17869 0.20244 0.0
H1302 H 0.38097 0.16971 0.15763 0.0
H1303 H 0.40651 0.16533 0.19023 0.0
C1304 C 0.33092 0.1875 0.11804 0.0
C1305 C 0.30073 0.17211 0.11802 0.0
C1306 C 0.34639 0.18865 0.13745 0.0
C1307 C 0.33221 0.17433 0.15739 0.0
C1308 C 0.30201 0.15918 0.1576 0.0
C1309 C 0.28639 0.15812 0.13809 0.0
C1310 C 0.35509 0.17348 0.21843 0.0
C1311 C 0.37873 0.16894 0.21541 0.0
C1312 C 0.34034 0.17597 0.19962 0.0
C1313 C 0.34909 0.17421 0.17745 0.0
C1314 C 0.37372 0.17131 0.17447 0.0
C1315 C 0.38838 0.16875 0.1932 0.0
H1316 H 0.84428 0.19511 0.08333 0.0
H1317 H 0.79874 0.11174 0.11083 0.0
H1318 H 0.84567 0.21339 0.12098 0.0
H1319 H 0.79948 0.12999 0.14845 0.0
H1320 H 0.81709 0.23824 0.18497 0.0
H1321 H 0.81376 0.21752 0.14778 0.0
H1322 H 0.82883 0.1545 0.17944 0.0
H1323 H 0.83115 0.17449 0.21628 0.0
C1324 C 0.83498 0.18066 0.0975 0.0
C1325 C 0.82155 0.15193 0.09404 0.0
C1326 C 0.83535 0.19116 0.11905 0.0
C1327 C 0.82218 0.17322 0.13775 0.0
C1328 C 0.80996 0.14449 0.1345 0.0
C1329 C 0.80974 0.13397 0.11293 0.0
C1330 C 0.81903 0.21962 0.18397 0.0
C1331 C 0.82446 0.2081 0.20357 0.0
C1332 C 0.81755 0.20794 0.16264 0.0
C1333 C 0.82146 0.18451 0.16051 0.0
C1334 C 0.82554 0.17237 0.18033 0.0
C1335 C 0.82697 0.18396 0.20152 0.0
H1336 H 0.83647 0.66102 0.21447 0.0
H1337 H 0.77857 0.57759 0.1936 0.0
H1338 H 0.85331 0.67401 0.17556 0.0
H1339 H 0.79627 0.59038 0.15455 0.0
H1340 H 0.89103 0.68404 0.10411 0.0
H1341 H 0.87877 0.66978 0.14383 0.0
H1342 H 0.79019 0.61781 0.12522 0.0
H1343 H 0.80256 0.6314 0.0856 0.0
C1344 C 0.82783 0.64523 0.20164 0.0
C1345 C 0.80592 0.61833 0.20706 0.0
C1346 C 0.83759 0.6527 0.17929 0.0
C1347 C 0.82581 0.63339 0.16183 0.0
C1348 C 0.80528 0.60595 0.16753 0.0
C1349 C 0.79538 0.5985 0.18993 0.0
C1350 C 0.86887 0.6699 0.10856 0.0
C1351 C 0.84777 0.65892 0.09168 0.0
C1352 C 0.86186 0.6616 0.13132 0.0
C1353 C 0.83356 0.6423 0.13769 0.0
C1354 C 0.81234 0.63209 0.12087 0.0
C1355 C 0.81937 0.6402 0.09816 0.0
H1356 H 0.17095 0.37327 0.41158 0.0
H1357 H 0.20173 0.31776 0.38973 0.0
H1358 H 0.16997 0.38701 0.37221 0.0
H1359 H 0.20191 0.3323 0.35049 0.0
H1360 H 0.16936 0.34337 0.28129 0.0
H1361 H 0.17243 0.32962 0.32 0.0
H1362 H 0.20111 0.41339 0.34177 0.0
H1363 H 0.19667 0.42691 0.30283 0.0
C1364 C 0.17726 0.36382 0.39834 0.0
C1365 C 0.18616 0.34424 0.40378 0.0
C1366 C 0.17714 0.37201 0.37578 0.0
C1367 C 0.18626 0.36109 0.35813 0.0
C1368 C 0.19446 0.34096 0.36356 0.0
C1369 C 0.19421 0.33249 0.3861 0.0
C1370 C 0.17673 0.35903 0.29424 0.0
C1371 C 0.18257 0.38622 0.28901 0.0
C1372 C 0.17858 0.35111 0.31652 0.0
C1373 C 0.18667 0.37027 0.33414 0.0
C1374 C 0.19412 0.39792 0.3287 0.0
C1375 C 0.19198 0.4058 0.30634 0.0
H1376 H 0.66548 0.83217 0.28578 0.0
H1377 H 0.587 0.7694 0.31704 0.0
H1378 H 0.68335 0.85205 0.32265 0.0
H1379 H 0.60463 0.78999 0.35422 0.0
H1380 H 0.65725 0.81132 0.41866 0.0
H1381 H 0.64055 0.79333 0.38093 0.0
H1382 H 0.67874 0.87689 0.3537 0.0
H1383 H 0.69603 0.89488 0.39145 0.0
C1384 C 0.65174 0.82289 0.30052 0.0
C1385 C 0.62483 0.79905 0.29847 0.0
C1386 C 0.66203 0.83442 0.32172 0.0
C1387 C 0.64566 0.82248 0.34152 0.0
C1388 C 0.6181 0.79938 0.33937 0.0
C1389 C 0.60778 0.78778 0.31805 0.0
C1390 C 0.66265 0.82587 0.40453 0.0
C1391 C 0.67811 0.85458 0.40811 0.0
C1392 C 0.65264 0.81554 0.38293 0.0
C1393 C 0.65772 0.83362 0.36429 0.0
C1394 C 0.67447 0.86231 0.36762 0.0
C1395 C 0.68464 0.87266 0.38927 0.0
H1396 H 0.10885 0.83925 0.36631 0.0
H1397 H 0.14592 0.7959 0.40321 0.0
H1398 H 0.13474 0.83892 0.33205 0.0
H1399 H 0.17047 0.79454 0.36909 0.0
H1400 H 0.16904 0.81693 0.26973 0.0
H1401 H 0.13865 0.80992 0.30296 0.0
H1402 H 0.21012 0.82639 0.34683 0.0
H1403 H 0.24006 0.83248 0.31392 0.0
C1404 C 0.12232 0.82952 0.36711 0.0
C1405 C 0.12548 0.81788 0.38762 0.0
C1406 C 0.1369 0.82906 0.34743 0.0
C1407 C 0.15477 0.81677 0.34784 0.0
C1408 C 0.15733 0.80461 0.36822 0.0
C1409 C 0.14308 0.80532 0.38784 0.0
C1410 C 0.17806 0.81836 0.28648 0.0
C1411 C 0.20709 0.82545 0.28911 0.0
C1412 C 0.16072 0.81471 0.30552 0.0
C1413 C 0.17202 0.81795 0.32755 0.0
C1414 C 0.20058 0.82351 0.33015 0.0
C1415 C 0.21784 0.8271 0.3112 0.0
H1416 H 0.59453 0.81637 0.7988 0.0
H1417 H 0.67539 0.86142 0.76268 0.0
H1418 H 0.62054 0.81699 0.83332 0.0
H1419 H 0.701 0.86272 0.79696 0.0
H1420 H 0.73354 0.82719 0.85333 0.0
H1421 H 0.70921 0.83129 0.81987 0.0
H1422 H 0.65298 0.84768 0.86229 0.0
H1423 H 0.6769 0.84274 0.89609 0.0
C1424 C 0.61774 0.82634 0.79819 0.0
C1425 C 0.63275 0.8384 0.77785 0.0
C1426 C 0.63267 0.82698 0.818 0.0
C1427 C 0.66287 0.83986 0.81786 0.0
C1428 C 0.67776 0.8522 0.79759 0.0
C1429 C 0.66295 0.85139 0.77787 0.0
C1430 C 0.71631 0.83212 0.8556 0.0
C1431 C 0.70709 0.83444 0.87746 0.0
C1432 C 0.70235 0.83453 0.83635 0.0
C1433 C 0.67892 0.83951 0.83841 0.0
C1434 C 0.67062 0.84331 0.86018 0.0
C1435 C 0.68461 0.84087 0.87952 0.0
H1436 H 0.17046 0.92583 0.84904 0.0
H1437 H 0.13465 0.84307 0.8771 0.0
H1438 H 0.17076 0.90847 0.81137 0.0
H1439 H 0.13249 0.82498 0.83924 0.0
H1440 H 0.15604 0.80064 0.77324 0.0
H1441 H 0.15863 0.81985 0.81076 0.0
H1442 H 0.14752 0.88589 0.78017 0.0
H1443 H 0.14783 0.86843 0.74312 0.0
C1444 C 0.16156 0.90372 0.84693 0.0
C1445 C 0.15226 0.88575 0.86587 0.0
C1446 C 0.16175 0.89362 0.82527 0.0
C1447 C 0.15187 0.86513 0.82194 0.0
C1448 C 0.14112 0.84707 0.84096 0.0
C1449 C 0.14177 0.85733 0.86267 0.0
C1450 C 0.15482 0.8196 0.77455 0.0
C1451 C 0.15147 0.83271 0.75501 0.0
C1452 C 0.15578 0.83045 0.79617 0.0
C1453 C 0.15278 0.85435 0.79886 0.0
C1454 C 0.15031 0.86777 0.77915 0.0
C1455 C 0.15016 0.85742 0.75765 0.0
H1456 H 0.17417 0.32053 0.88674 0.0
H1457 H 0.11572 0.24096 0.85891 0.0
H1458 H 0.19399 0.33777 0.84898 0.0
H1459 H 0.13617 0.25802 0.82114 0.0
H1460 H 0.14414 0.30764 0.75701 0.0
H1461 H 0.131 0.29056 0.79583 0.0
H1462 H 0.22001 0.33608 0.81539 0.0
H1463 H 0.23322 0.35366 0.77632 0.0
C1464 C 0.16613 0.30643 0.87265 0.0
C1465 C 0.14302 0.27949 0.87575 0.0
C1466 C 0.17755 0.31636 0.85098 0.0
C1467 C 0.16614 0.29951 0.83197 0.0
C1468 C 0.14485 0.27176 0.83539 0.0
C1469 C 0.13338 0.26184 0.85707 0.0
C1470 C 0.16091 0.31438 0.76963 0.0
C1471 C 0.18973 0.33203 0.76355 0.0
C1472 C 0.15342 0.30424 0.79184 0.0
C1473 C 0.17454 0.31136 0.80859 0.0
C1474 C 0.20324 0.33012 0.80284 0.0
C1475 C 0.21077 0.34039 0.78052 0.0
H1476 H 0.86703 0.75469 0.64447 0.0
H1477 H 0.82967 0.67117 0.61967 0.0
H1478 H 0.86953 0.73773 0.68254 0.0
H1479 H 0.83118 0.65417 0.65767 0.0
H1480 H 0.86062 0.63703 0.72664 0.0
H1481 H 0.86054 0.65271 0.68774 0.0
H1482 H 0.83545 0.71152 0.71208 0.0
H1483 H 0.83634 0.69642 0.751 0.0
C1484 C 0.85974 0.7328 0.64707 0.0
C1485 C 0.84801 0.71428 0.62911 0.0
C1486 C 0.86079 0.72301 0.66893 0.0
C1487 C 0.85001 0.6945 0.67325 0.0
C1488 C 0.83974 0.67624 0.65498 0.0
C1489 C 0.83885 0.68603 0.63316 0.0
C1490 C 0.85444 0.65286 0.72367 0.0
C1491 C 0.84851 0.66549 0.74195 0.0
C1492 C 0.85457 0.66198 0.70134 0.0
C1493 C 0.84853 0.68376 0.69682 0.0
C1494 C 0.84103 0.69528 0.71502 0.0
C1495 C 0.84111 0.68632 0.73731 0.0
H1496 H 0.32397 0.14019 0.7398 0.0
H1497 H 0.35893 0.22436 0.71476 0.0
H1498 H 0.30569 0.12312 0.70215 0.0
H1499 H 0.34005 0.20728 0.67705 0.0
H1500 H 0.3236 0.16407 0.60768 0.0
H1501 H 0.34334 0.18374 0.6443 0.0
H1502 H 0.26762 0.11952 0.67779 0.0
H1503 H 0.24815 0.09923 0.64088 0.0
C1504 C 0.32825 0.15508 0.7261 0.0
C1505 C 0.34306 0.18366 0.73028 0.0
C1506 C 0.31731 0.14527 0.70458 0.0
C1507 C 0.32074 0.16375 0.68663 0.0
C1508 C 0.337 0.1924 0.69045 0.0
C1509 C 0.34811 0.20224 0.71203 0.0
C1510 C 0.31089 0.15431 0.62282 0.0
C1511 C 0.28433 0.12993 0.62136 0.0
C1512 C 0.32226 0.16569 0.64388 0.0
C1513 C 0.30736 0.15303 0.66409 0.0
C1514 C 0.28002 0.12947 0.66258 0.0
C1515 C 0.26861 0.11803 0.64142 0.0
H1516 H 0.83959 0.16249 0.60159 0.0
H1517 H 0.90997 0.17621 0.64589 0.0
H1518 H 0.8089 0.15475 0.63477 0.0
H1519 H 0.8796 0.16915 0.6788 0.0
H1520 H 0.81273 0.13399 0.73375 0.0
H1521 H 0.83852 0.13508 0.69957 0.0
H1522 H 0.80565 0.18358 0.66511 0.0
H1523 H 0.77889 0.18194 0.6995 0.0
C1524 C 0.8484 0.16337 0.61835 0.0
C1525 C 0.87732 0.17011 0.62106 0.0
C1526 C 0.83089 0.15929 0.63734 0.0
C1527 C 0.8419 0.16167 0.6594 0.0
C1528 C 0.87036 0.16698 0.66206 0.0
C1529 C 0.88783 0.1711 0.64314 0.0
C1530 C 0.81099 0.14507 0.71899 0.0
C1531 C 0.79402 0.15829 0.71952 0.0
C1532 C 0.82584 0.14564 0.69934 0.0
C1533 C 0.82432 0.15956 0.67968 0.0
C1534 C 0.80702 0.17244 0.67997 0.0
C1535 C 0.79193 0.17175 0.69971 0.0
H1536 H 0.0192 0.53261 0.43225 0.0
H1537 H 0.93935 0.49154 0.47013 0.0
H1538 H 0.04565 0.53618 0.46654 0.0
H1539 H 0.9661 0.49388 0.50461 0.0
H1540 H 0.02315 0.52002 0.56665 0.0
H1541 H -0.0011 0.52429 0.53279 0.0
H1542 H 0.05483 0.50716 0.49066 0.0
H1543 H 0.07958 0.50398 0.52411 0.0
C1544 C 0.00716 0.52407 0.44787 0.0
C1545 C 0.97701 0.51163 0.44831 0.0
C1546 C 0.02245 0.52604 0.46761 0.0
C1547 C 0.00809 0.51521 0.48838 0.0
C1548 C 0.97791 0.5028 0.48895 0.0
C1549 C 0.96253 0.50112 0.46913 0.0
C1550 C 0.03077 0.51793 0.55011 0.0
C1551 C 0.05327 0.51151 0.54816 0.0
C1552 C 0.01656 0.51996 0.53071 0.0
C1553 C 0.0246 0.51569 0.50898 0.0
C1554 C 0.04813 0.51082 0.50704 0.0
C1555 C 0.06234 0.5089 0.52633 0.0
H1556 H 0.50432 0.53024 0.41078 0.0
H1557 H 0.46757 0.44732 0.43916 0.0
H1558 H 0.50335 0.54796 0.4482 0.0
H1559 H 0.46587 0.46494 0.47654 0.0
H1560 H 0.49545 0.5121 0.54367 0.0
H1561 H 0.49417 0.49191 0.5071 0.0
H1562 H 0.46954 0.54829 0.4751 0.0
H1563 H 0.47185 0.56931 0.51193 0.0
C1564 C 0.49638 0.51582 0.42508 0.0
C1565 C 0.4862 0.48736 0.42196 0.0
C1566 C 0.49539 0.52593 0.4465 0.0
C1567 C 0.48403 0.50786 0.46537 0.0
C1568 C 0.4749 0.47952 0.46244 0.0
C1569 C 0.47608 0.46941 0.441 0.0
C1570 C 0.48933 0.51999 0.5289 0.0
C1571 C 0.48396 0.54249 0.53069 0.0
C1572 C 0.48852 0.50829 0.50788 0.0
C1573 C 0.48217 0.51868 0.48803 0.0
C1574 C 0.47517 0.54018 0.48998 0.0
C1575 C 0.47607 0.55199 0.51111 0.0
H1576 H 0.4727 0.96591 0.41816 0.0
H1577 H 0.56074 0.01772 0.43816 0.0
H1578 H 0.45872 0.95395 0.4578 0.0
H1579 H 0.54688 0.00507 0.47789 0.0
H1580 H 0.50303 0.99941 0.54707 0.0
H1581 H 0.52093 0.01097 0.50832 0.0
H1582 H 0.46295 0.92707 0.4885 0.0
H1583 H 0.44417 0.91574 0.52737 0.0
C1584 C 0.48906 0.9749 0.43106 0.0
C1585 C 0.51782 0.99289 0.425 0.0
C1586 C 0.48111 0.96772 0.45378 0.0
C1587 C 0.50174 0.97815 0.47104 0.0
C1588 C 0.5304 0.99677 0.46505 0.0
C1589 C 0.53833 0.00415 0.44228 0.0
C1590 C 0.49437 0.98325 0.53455 0.0
C1591 C 0.47192 0.95672 0.54022 0.0
C1592 C 0.50475 0.9899 0.51229 0.0
C1593 C 0.49307 0.9701 0.49518 0.0
C1594 C 0.47191 0.94301 0.50118 0.0
C1595 C 0.46138 0.93639 0.52349 0.0
H1596 H 0.5257 0.08199 0.97132 0.0
H1597 H 0.50042 0.99859 0.95055 0.0
H1598 H 0.53133 0.06947 0.01028 0.0
H1599 H 0.50516 0.98591 0.98941 0.0
H1600 H 0.53714 0.97859 0.06053 0.0
H1601 H 0.53659 0.99138 0.02067 0.0
H1602 H 0.49815 0.04151 0.03998 0.0
H1603 H 0.49926 0.02926 0.07967 0.0
C1604 C 0.52179 0.06115 0.97499 0.0
C1605 C 0.5124 0.04125 0.95791 0.0
C1606 C 0.52467 0.05385 0.99735 0.0
C1607 C 0.51814 0.02652 0.00305 0.0
C1608 C 0.51043 0.00713 0.98565 0.0
C1609 C 0.50764 0.01443 0.96334 0.0
C1610 C 0.52806 0.9919 0.0562 0.0
C1611 C 0.51822 0.00288 0.07328 0.0
C1612 C 0.52793 0.99939 0.03337 0.0
C1613 C 0.51782 0.01789 0.02717 0.0
C1614 C 0.50686 0.02786 0.0442 0.0
C1615 C 0.50712 0.02052 0.06695 0.0
H1616 H 0.9105 0.434 0.97668 0.0
H1617 H 0.98872 0.49476 0.9437 0.0
H1618 H 0.929 0.45597 0.0132 0.0
H1619 H 0.00741 0.51625 0.98009 0.0
H1620 H 0.98386 0.47565 0.07598 0.0
H1621 H 0.96649 0.45811 0.0383 0.0
H1622 H 0.00323 0.5419 0.01185 0.0
H1623 H 0.02105 0.55954 0.04971 0.0
C1624 C 0.93135 0.45235 0.97714 0.0
C1625 C 0.94819 0.4625 0.95735 0.0
C1626 C 0.94215 0.46473 0.99809 0.0
C1627 C 0.96998 0.48753 0.99963 0.0
C1628 C 0.98596 0.49875 0.97956 0.0
C1629 C 0.9752 0.48637 0.95868 0.0
C1630 C 0.9888 0.49037 0.06205 0.0
C1631 C 0.00387 0.51901 0.06588 0.0
C1632 C 0.97842 0.48031 0.0405 0.0
C1633 C 0.98279 0.49859 0.02217 0.0
C1634 C -0.00059 0.52725 0.02563 0.0
C1635 C 0.00989 0.53737 0.04728 0.0
H1636 H 0.50718 0.48952 0.93598 0.0
H1637 H 0.57461 0.49578 0.98056 0.0
H1638 H 0.47793 0.48635 0.96904 0.0
H1639 H 0.54585 0.49338 0.01334 0.0
H1640 H 0.45567 0.5228 0.03222 0.0
H1641 H 0.47955 0.51857 0.9981 0.0
H1642 H 0.5037 0.46483 0.03518 0.0
H1643 H 0.4809 0.46961 0.06908 0.0
C1644 C 0.51552 0.48958 0.95279 0.0
C1645 C 0.54334 0.49305 0.9556 0.0
C1646 C 0.49891 0.48819 0.97172 0.0
C1647 C 0.50971 0.49004 0.99381 0.0
C1648 C 0.53676 0.49174 0.99659 0.0
C1649 C 0.55333 0.49317 0.97774 0.0
C1650 C 0.46622 0.51022 0.03306 0.0
C1651 C 0.46682 0.49703 0.05352 0.0
C1652 C 0.47962 0.50754 0.01347 0.0
C1653 C 0.49365 0.49144 0.01396 0.0
C1654 C 0.4936 0.4778 0.0343 0.0
C1655 C 0.4805 0.48063 0.0538 0.0
H1656 H 0.22103 0.01017 0.93934 0.0
H1657 H 0.17607 0.97302 0.00209 0.0
H1658 H 0.24149 0.05613 0.9563 0.0
H1659 H 0.19524 0.01854 0.01873 0.0
H1660 H 0.2574 0.09362 0.05397 0.0
H1661 H 0.24009 0.05098 0.03292 0.0
H1662 H 0.23553 0.09348 0.97198 0.0
H1663 H 0.25425 0.13669 0.99319 0.0
C1664 C 0.21469 0.01195 0.95646 0.0
C1665 C 0.19688 0.98805 0.96939 0.0
C1666 C 0.22658 0.03827 0.96627 0.0
C1667 C 0.22072 0.04113 0.98915 0.0
C1668 C 0.20116 0.01722 0.00137 0.0
C1669 C 0.1897 0.99108 0.99172 0.0
C1670 C 0.25352 0.09401 0.03591 0.0
C1671 C 0.25743 0.11847 0.02517 0.0
C1672 C 0.24307 0.06944 0.02387 0.0
C1673 C 0.23548 0.06843 0.00083 0.0
C1674 C 0.24106 0.09338 0.98969 0.0
C1675 C 0.25202 0.11821 0.00176 0.0
H1676 H 0.99228 0.2389 0.93747 0.0
H1677 H 0.01345 0.18128 0.97107 0.0
H1678 H 0.94264 0.21129 0.94896 0.0
H1679 H 0.96286 0.15153 0.98093 0.0
H1680 H 0.88382 0.13007 0.02517 0.0
H1681 H 0.93057 0.14944 0.00686 0.0
H1682 H 0.898 0.17566 0.94941 0.0
H1683 H 0.85214 0.15849 0.96905 0.0
C1684 C 0.98587 0.21952 0.94654 0.0
C1685 C 0.00649 0.21214 0.95344 0.0
C1686 C 0.9572 0.20342 0.95309 0.0
C1687 C 0.94826 0.17906 0.96633 0.0
C1688 C 0.96879 0.17051 0.97144 0.0
C1689 C 0.99774 0.18718 0.9654 0.0
C1690 C 0.88677 0.13992 0.00857 0.0
C1691 C 0.86456 0.14313 0.99864 0.0
C1692 C 0.91359 0.15083 0.99784 0.0
C1693 C 0.91863 0.16451 0.97651 0.0
C1694 C 0.8956 0.16619 0.96608 0.0
C1695 C 0.8691 0.15613 0.97722 0.0
H1696 H 0.87143 0.75358 0.01369 0.0
H1697 H 0.79782 0.67688 0.99418 0.0
H1698 H 0.84622 0.77883 0.00266 0.0
H1699 H 0.77297 0.70217 0.98286 0.0
H1700 H 0.80189 0.81589 0.95664 0.0
H1701 H 0.82885 0.79293 0.97 0.0
H1702 H 0.75093 0.72674 0.99944 0.0
H1703 H 0.7242 0.74949 0.98544 0.0
C1704 C 0.84997 0.7421 0.00691 0.0
C1705 C 0.83662 0.71315 0.00494 0.0
C1706 C 0.83557 0.75663 0.00052 0.0
C1707 C 0.80752 0.74252 0.99202 0.0
C1708 C 0.79437 0.71364 0.98974 0.0
C1709 C 0.80872 0.69914 0.99611 0.0
C1710 C 0.7907 0.79631 0.96581 0.0
C1711 C 0.76095 0.78363 0.96918 0.0
C1712 C 0.8061 0.78336 0.97376 0.0
C1713 C 0.79191 0.75769 0.98539 0.0
C1714 C 0.76234 0.74604 0.98994 0.0
C1715 C 0.74705 0.75905 0.98205 0.0
H1716 H 0.98411 0.26034 0.51634 0.0
H1717 H 0.99334 0.19249 0.5445 0.0
H1718 H 0.03399 0.28279 0.50318 0.0
H1719 H 0.04357 0.21506 0.5319 0.0
H1720 H 0.12356 0.25198 0.4855 0.0
H1721 H 0.07389 0.2282 0.49855 0.0
H1722 H 0.08138 0.30619 0.51931 0.0
H1723 H 0.13089 0.33014 0.50585 0.0
C1724 C 0.99705 0.25042 0.51981 0.0
C1725 C 0.98559 0.22541 0.53215 0.0
C1726 C 0.02557 0.26326 0.51242 0.0
C1727 C 0.04294 0.25099 0.51688 0.0
C1728 C 0.03081 0.2251 0.52821 0.0
C1729 C 0.00227 0.21234 0.53569 0.0
C1730 C 0.11472 0.26409 0.49299 0.0
C1731 C 0.13122 0.29305 0.49445 0.0
C1732 C 0.08623 0.25039 0.50055 0.0
C1733 C 0.07359 0.26531 0.5098 0.0
C1734 C 0.09031 0.29415 0.51186 0.0
C1735 C 0.11878 0.30786 0.50427 0.0
H1736 H 0.82396 0.806 0.50678 0.0
H1737 H 0.79027 0.79568 0.57506 0.0
H1738 H 0.80427 0.83664 0.49733 0.0
H1739 H 0.77019 0.82625 0.56556 0.0
H1740 H 0.69788 0.8315 0.52151 0.0
H1741 H 0.72851 0.81477 0.53866 0.0
H1742 H 0.80248 0.88077 0.5049 0.0
H1743 H 0.77193 0.89764 0.48769 0.0
C1744 C 0.81332 0.81122 0.52002 0.0
C1745 C 0.80869 0.79859 0.54164 0.0
C1746 C 0.80199 0.82873 0.51462 0.0
C1747 C 0.7854 0.83356 0.53064 0.0
C1748 C 0.78272 0.82269 0.55285 0.0
C1749 C 0.79452 0.80551 0.55837 0.0
C1750 C 0.72071 0.84268 0.51794 0.0
C1751 C 0.73236 0.86571 0.50299 0.0
C1752 C 0.73832 0.83327 0.52798 0.0
C1753 C 0.7679 0.8465 0.52312 0.0
C1754 C 0.77974 0.87014 0.50888 0.0
C1755 C 0.7622 0.87977 0.49905 0.0
H1756 H 0.22404 0.995 0.55312 0.0
H1757 H 0.19512 0.02812 0.49851 0.0
H1758 H 0.1969 0.9486 0.5375 0.0
H1759 H 0.16655 0.98184 0.48354 0.0
H1760 H 0.14971 0.90737 0.44401 0.0
H1761 H 0.17531 0.95133 0.46306 0.0
H1762 H 0.15405 0.90844 0.52823 0.0
H1763 H 0.12958 0.8641 0.50874 0.0
C1764 C 0.21078 0.99208 0.53833 0.0
C1765 C 0.21133 0.01503 0.52716 0.0
C1766 C 0.19534 0.96549 0.52923 0.0
C1767 C 0.17991 0.96129 0.50885 0.0
C1768 C 0.17889 0.98417 0.49877 0.0
C1769 C 0.19477 0.01071 0.50759 0.0
C1770 C 0.15095 0.90731 0.4624 0.0
C1771 C 0.13775 0.88227 0.47486 0.0
C1772 C 0.16525 0.93262 0.47343 0.0
C1773 C 0.16622 0.93378 0.49735 0.0
C1774 C 0.1539 0.90856 0.50982 0.0
C1775 C 0.13996 0.88307 0.49868 0.0
H1776 H 0.69017 0.87772 0.97815 0.0
H1777 H 0.78006 0.90063 0.9751 0.0
H1778 H 0.70277 0.92272 0.99459 0.0
H1779 H 0.79252 0.94527 0.99152 0.0
H1780 H 0.80119 0.01292 0.04114 0.0
H1781 H 0.78714 0.96617 0.02788 0.0
H1782 H 0.72861 0.97227 0.98025 0.0
H1783 H 0.74261 0.01871 0.99329 0.0
C1784 C 0.71254 0.89225 0.9811 0.0
C1785 C 0.7341 0.88567 0.9752 0.0
C1786 C 0.71978 0.91803 0.99043 0.0
C1787 C 0.74867 0.93754 0.99435 0.0
C1788 C 0.77009 0.93062 0.98893 0.0
C1789 C 0.76291 0.90509 0.97935 0.0
C1790 C 0.78536 0.00424 0.02783 0.0
C1791 C 0.77315 0.01959 0.0182 0.0
C1792 C 0.77733 0.97752 0.02023 0.0
C1793 C 0.75665 0.96549 0.00308 0.0
C1794 C 0.7443 0.98079 0.99367 0.0
C1795 C 0.75256 0.00753 0.00103 0.0
H1796 H 0.11209 0.88188 0.00185 0.0
H1797 H 0.09481 0.84211 0.93689 0.0
H1798 H 0.06407 0.84872 0.01506 0.0
H1799 H 0.04779 0.80727 0.95046 0.0
H1800 H 0.95685 0.75553 0.97374 0.0
H1801 H 0.00183 0.79384 0.95987 0.0
H1802 H 0.03584 0.80529 0.02814 0.0
H1803 H 0.98992 0.76872 0.04196 0.0
C1804 C 0.09795 0.86579 0.99049 0.0
C1805 C 0.107 0.86452 0.96838 0.0
C1806 C 0.07044 0.8465 0.9981 0.0
C1807 C 0.05167 0.82481 0.98403 0.0
C1808 C 0.061 0.82381 0.96178 0.0
C1809 C 0.08814 0.84368 0.95396 0.0
C1810 C 0.97395 0.7666 0.98571 0.0
C1811 C 0.96998 0.75929 0.00888 0.0
C1812 C -4e-05 0.78843 0.97778 0.0
C1813 C 0.02303 0.80286 0.99272 0.0
C1814 C 0.0187 0.7954 0.01601 0.0
C1815 C 0.99237 0.7742 0.02401 0.0
H1816 H 0.11403 0.20778 0.96194 0.0
H1817 H 0.14535 0.27681 0.0074 0.0
H1818 H 0.14192 0.18996 0.98194 0.0
H1819 H 0.17495 0.26028 0.02647 0.0
H1820 H 0.21849 0.22052 0.06436 0.0
H1821 H 0.18031 0.22899 0.04989 0.0
H1822 H 0.18919 0.20003 0.98392 0.0
H1823 H 0.22555 0.18976 0.99917 0.0
C1824 C 0.12706 0.2192 0.97618 0.0
C1825 C 0.12784 0.24383 0.98296 0.0
C1826 C 0.1432 0.20911 0.98759 0.0
C1827 C 0.16119 0.22385 0.00565 0.0
C1828 C 0.16115 0.24807 0.01288 0.0
C1829 C 0.14438 0.25776 0.00182 0.0
C1830 C 0.21128 0.215 0.04705 0.0
C1831 C 0.2239 0.20347 0.03307 0.0
C1832 C 0.18986 0.22036 0.03857 0.0
C1833 C 0.18147 0.21523 0.01566 0.0
C1834 C 0.19433 0.2036 0.00178 0.0
C1835 C 0.21535 0.19787 0.0104 0.0
H1836 H 0.90518 0.74709 0.5562 0.0
H1837 H 0.87171 0.74825 0.48947 0.0
H1838 H 0.95198 0.76082 0.53958 0.0
H1839 H 0.91906 0.76309 0.47283 0.0
H1840 H 0.00044 0.76 0.44972 0.0
H1841 H 0.95273 0.74727 0.46475 0.0
H1842 H 0.99175 0.79934 0.52268 0.0
H1843 H 0.03922 0.81095 0.50788 0.0
C1844 C 0.90787 0.75048 0.53797 0.0
C1845 C 0.88471 0.74661 0.52417 0.0
C1846 C 0.93482 0.75859 0.52844 0.0
C1847 C 0.93944 0.76339 0.50488 0.0
C1848 C 0.91621 0.75933 0.49101 0.0
C1849 C 0.88908 0.75088 0.50055 0.0
C1850 C -0.0014 0.76896 0.46548 0.0
C1851 C 0.02321 0.78697 0.47744 0.0
C1852 C 0.97136 0.76172 0.4741 0.0
C1853 C 0.96834 0.77224 0.49496 0.0
C1854 C 0.99322 0.79049 0.50676 0.0
C1855 C 0.02039 0.7974 0.49825 0.0
H1856 H 0.23201 0.26125 0.51452 0.0
H1857 H 0.199 0.21978 0.451 0.0
H1858 H 0.24082 0.22386 0.52718 0.0
H1859 H 0.20764 0.182 0.46386 0.0
H1860 H 0.23023 0.14151 0.55177 0.0
H1861 H 0.21555 0.17474 0.53842 0.0
H1862 H 0.2501 0.17571 0.47178 0.0
H1863 H 0.26457 0.14217 0.48498 0.0
C1864 C 0.22638 0.24399 0.50332 0.0
C1865 C 0.21487 0.24351 0.48172 0.0
C1866 C 0.23128 0.22246 0.51066 0.0
C1867 C 0.22493 0.19995 0.49654 0.0
C1868 C 0.21298 0.1992 0.47504 0.0
C1869 C 0.20788 0.22073 0.46774 0.0
C1870 C 0.23458 0.14861 0.53422 0.0
C1871 C 0.24878 0.13921 0.51952 0.0
C1872 C 0.22623 0.16777 0.5266 0.0
C1873 C 0.23178 0.17796 0.50407 0.0
C1874 C 0.24527 0.16805 0.48918 0.0
C1875 C 0.25373 0.14895 0.49682 0.0
H1876 H 0.79483 0.99431 0.45913 0.0
H1877 H 0.73126 0.98961 0.50728 0.0
H1878 H 0.8278 0.04131 0.47162 0.0
H1879 H 0.76403 0.03637 0.5196 0.0
H1880 H 0.82057 0.13085 0.52051 0.0
H1881 H 0.78776 0.08565 0.50462 0.0
H1882 H 0.85474 0.06279 0.50754 0.0
H1883 H 0.88734 0.10767 0.52341 0.0
C1884 C 0.78789 0.00329 0.47233 0.0
C1885 C 0.7605 0.98818 0.48229 0.0
C1886 C 0.80676 0.03016 0.4795 0.0
C1887 C 0.79845 0.04257 0.49653 0.0
C1888 C 0.77093 0.02753 0.50625 0.0
C1889 C 0.75226 1.00063 0.49931 0.0
C1890 C 0.82829 0.11623 0.51761 0.0
C1891 C 0.85648 0.12278 0.52332 0.0
C1892 C 0.80951 0.09033 0.50861 0.0
C1893 C 0.81869 0.07066 0.50485 0.0
C1894 C 0.8471 0.07756 0.51003 0.0
C1895 C 0.86571 0.10323 0.51927 0.0
H1896 H 0.93575 0.46915 0.32582 0.0
H1897 H 0.91093 0.42219 0.38883 0.0
H1898 H 0.91596 0.42606 0.30458 0.0
H1899 H 0.89266 0.3794 0.36802 0.0
H1900 H 0.83675 0.30471 0.32957 0.0
H1901 H 0.85411 0.34996 0.34654 0.0
H1902 H 0.91843 0.38662 0.29336 0.0
H1903 H 0.89951 0.34134 0.27575 0.0
C1904 C 0.92681 0.44963 0.33514 0.0
C1905 C 0.92494 0.44906 0.359 0.0
C1906 C 0.91531 0.42484 0.32297 0.0
C1907 C 0.90198 0.39892 0.33443 0.0
C1908 C 0.90166 0.39869 0.35839 0.0
C1909 C 0.91261 0.42332 0.37044 0.0
C1910 C 0.85387 0.32269 0.32109 0.0
C1911 C 0.86639 0.31964 0.30113 0.0
C1912 C 0.86435 0.34862 0.33107 0.0
C1913 C 0.88836 0.37214 0.32179 0.0
C1914 C 0.89989 0.36924 0.30105 0.0
C1915 C 0.88891 0.34329 0.2908 0.0
H1916 H 0.54969 0.45097 0.35247 0.0
H1917 H 0.53692 0.50893 0.31029 0.0
H1918 H 0.5994 0.47166 0.33915 0.0
H1919 H 0.58656 0.52933 0.29685 0.0
H1920 H 0.69226 0.55154 0.33737 0.0
H1921 H 0.64166 0.5207 0.34611 0.0
H1922 H 0.62165 0.51749 0.27473 0.0
H1923 H 0.6725 0.54812 0.26589 0.0
C1924 C 0.55731 0.46781 0.34008 0.0
C1925 C 0.5394 0.47847 0.33258 0.0
C1926 C 0.58578 0.47966 0.33252 0.0
C1927 C 0.59677 0.50205 0.31699 0.0
C1928 C 0.57854 0.5119 0.30867 0.0
C1929 C 0.5502 0.50036 0.31651 0.0
C1930 C 0.67717 0.54363 0.32349 0.0
C1931 C 0.6863 0.55218 0.30096 0.0
C1932 C 0.64824 0.52595 0.32849 0.0
C1933 C 0.62776 0.51688 0.3111 0.0
C1934 C 0.63703 0.52432 0.28844 0.0
C1935 C 0.66612 0.54161 0.28339 0.0
H1936 H 0.54597 0.08396 0.34397 0.0
H1937 H 0.47234 0.00718 0.32468 0.0
H1938 H 0.52085 0.10919 0.33272 0.0
H1939 H 0.44754 0.0325 0.31308 0.0
H1940 H 0.39873 0.08018 0.31894 0.0
H1941 H 0.42571 0.0568 0.33082 0.0
H1942 H 0.50268 0.12345 0.30061 0.0
H1943 H 0.47549 0.14699 0.28934 0.0
C1944 C 0.52457 0.07247 0.33709 0.0
C1945 C 0.5111 0.04348 0.33541 0.0
C1946 C 0.51021 0.08699 0.33057 0.0
C1947 C 0.4821 0.07285 0.3222 0.0
C1948 C 0.46898 0.04397 0.31988 0.0
C1949 C 0.48329 0.02946 0.32641 0.0
C1950 C 0.42142 0.08968 0.31489 0.0
C1951 C 0.43497 0.11463 0.30248 0.0
C1952 C 0.43684 0.07631 0.32154 0.0
C1953 C 0.46623 0.08796 0.31622 0.0
C1954 C 0.48008 0.11387 0.30493 0.0
C1955 C 0.46454 0.12717 0.2982 0.0
H1956 H 0.65258 0.57979 0.85152 0.0
H1957 H 0.6607 0.51214 0.88151 0.0
H1958 H 0.70288 0.60208 0.83955 0.0
H1959 H 0.71139 0.53458 0.87005 0.0
H1960 H 0.79328 0.57215 0.82477 0.0
H1961 H 0.74336 0.54787 0.8374 0.0
H1962 H 0.74938 0.62559 0.85718 0.0
H1963 H 0.79904 0.64994 0.84431 0.0
C1964 C 0.66536 0.56987 0.85564 0.0
C1965 C 0.65344 0.54498 0.86817 0.0
C1966 C 0.69412 0.58262 0.84893 0.0
C1967 C 0.71134 0.57041 0.85429 0.0
C1968 C 0.69877 0.54459 0.86573 0.0
C1969 C 0.66996 0.53191 0.87254 0.0
C1970 C 0.78407 0.58406 0.83205 0.0
C1971 C 0.80015 0.61307 0.83329 0.0
C1972 C 0.75544 0.57009 0.83934 0.0
C1973 C 0.74228 0.58482 0.84803 0.0
C1974 C 0.7587 0.61367 0.85014 0.0
C1975 C 0.78727 0.62763 0.84287 0.0
H1976 H 0.35793 0.15392 0.84493 0.0
H1977 H 0.43305 0.21218 0.80692 0.0
H1978 H 0.3851 0.13245 0.86074 0.0
H1979 H 0.46 0.19041 0.82259 0.0
H1980 H 0.47108 0.10949 0.82656 0.0
H1981 H 0.45298 0.14118 0.81597 0.0
H1982 H 0.42958 0.14293 0.88595 0.0
H1983 H 0.44823 0.11147 0.89666 0.0
C1984 C 0.38029 0.16232 0.84013 0.0
C1985 C 0.39324 0.18463 0.82453 0.0
C1986 C 0.39589 0.15017 0.84933 0.0
C1987 C 0.42464 0.15979 0.84288 0.0
C1988 C 0.43785 0.18258 0.82781 0.0
C1989 C 0.4224 0.19504 0.8189 0.0
C1990 C 0.46284 0.11729 0.83978 0.0
C1991 C 0.46115 0.10813 0.86243 0.0
C1992 C 0.45251 0.13543 0.83373 0.0
C1993 C 0.43974 0.14436 0.85013 0.0
C1994 C 0.43924 0.13625 0.87298 0.0
C1995 C 0.45015 0.1185 0.87912 0.0
H1996 H 0.85447 0.35453 0.84549 0.0
H1997 H 0.88923 0.31869 0.89317 0.0
H1998 H 0.8248 0.30919 0.82906 0.0
H1999 H 0.8608 0.27334 0.87604 0.0
H2000 H 0.7931 0.19095 0.84381 0.0
H2001 H 0.8166 0.23315 0.86635 0.0
H2002 H 0.83604 0.28263 0.80458 0.0
H2003 H 0.81187 0.24089 0.78253 0.0
C2004 C 0.85497 0.33667 0.85292 0.0
C2005 C 0.87365 0.33993 0.87082 0.0
C2006 C 0.83848 0.31075 0.84323 0.0
C2007 C 0.84097 0.2876 0.85073 0.0
C2008 C 0.85818 0.29055 0.8698 0.0
C2009 C 0.87432 0.31649 0.87978 0.0
C2010 C 0.80285 0.21091 0.83513 0.0
C2011 C 0.80059 0.21261 0.81141 0.0
C2012 C 0.81617 0.23512 0.84803 0.0
C2013 C 0.82764 0.26146 0.83742 0.0
C2014 C 0.82657 0.26287 0.81355 0.0
C2015 C 0.81306 0.23887 0.8008 0.0
H2016 H 0.36504 0.20909 0.3168 0.0
H2017 H 0.45508 0.2329 0.31235 0.0
H2018 H 0.37751 0.25431 0.33257 0.0
H2019 H 0.46745 0.27789 0.3282 0.0
H2020 H 0.4753 0.34804 0.37558 0.0
H2021 H 0.46208 0.30064 0.36435 0.0
H2022 H 0.40272 0.30278 0.31536 0.0
H2023 H 0.41592 0.3497 0.32627 0.0
C2024 C 0.38743 0.22384 0.31939 0.0
C2025 C 0.40906 0.21752 0.31316 0.0
C2026 C 0.39458 0.24973 0.32835 0.0
C2027 C 0.42347 0.26964 0.33157 0.0
C2028 C 0.44502 0.26291 0.32609 0.0
C2029 C 0.4379 0.23721 0.31685 0.0
C2030 C 0.45946 0.33832 0.36242 0.0
C2031 C 0.44679 0.35267 0.35175 0.0
C2032 C 0.45191 0.31126 0.35599 0.0
C2033 C 0.43119 0.29797 0.33909 0.0
C2034 C 0.41843 0.3123 0.32864 0.0
C2035 C 0.42624 0.33933 0.33479 0.0
H2036 H 0.64321 0.0705 0.3104 0.0
H2037 H 0.65305 0.11217 0.37401 0.0
H2038 H 0.6896 0.10768 0.29747 0.0
H2039 H 0.69944 0.14955 0.36095 0.0
H2040 H 0.76108 0.19167 0.27322 0.0
H2041 H 0.71359 0.15704 0.28638 0.0
H2042 H 0.74792 0.15585 0.35267 0.0
H2043 H 0.79548 0.19074 0.33966 0.0
C2044 C 0.65517 0.08771 0.32156 0.0
C2045 C 0.64448 0.08836 0.34325 0.0
C2046 C 0.68171 0.10909 0.3141 0.0
C2047 C 0.69824 0.13155 0.3282 0.0
C2048 C 0.68736 0.13238 0.34979 0.0
C2049 C 0.66071 0.11106 0.35721 0.0
C2050 C 0.75857 0.18418 0.29065 0.0
C2051 C 0.78224 0.19403 0.30535 0.0
C2052 C 0.73132 0.1642 0.29815 0.0
C2053 C 0.72699 0.15364 0.32054 0.0
C2054 C 0.75049 0.16378 0.33537 0.0
C2055 C 0.77781 0.18368 0.32785 0.0
H2056 H 0.90974 0.57027 0.38808 0.0
H2057 H 0.89688 0.52036 0.32911 0.0
H2058 H 0.87595 0.58459 0.37322 0.0
H2059 H 0.86197 0.53338 0.31453 0.0
H2060 H 0.83229 0.5896 0.28115 0.0
H2061 H 0.86256 0.57249 0.29787 0.0
H2062 H 0.82784 0.57215 0.36443 0.0
H2063 H 0.79844 0.59062 0.34767 0.0
C2064 C 0.89894 0.5618 0.37221 0.0
C2065 C 0.90516 0.54377 0.3599 0.0
C2066 C 0.87959 0.56993 0.36367 0.0
C2067 C 0.86625 0.56025 0.34259 0.0
C2068 C 0.8722 0.54168 0.33059 0.0
C2069 C 0.89189 0.53394 0.33899 0.0
C2070 C 0.83111 0.58589 0.29936 0.0
C2071 C 0.81302 0.59151 0.31309 0.0
C2072 C 0.8483 0.57581 0.30896 0.0
C2073 C 0.84751 0.57065 0.33252 0.0
C2074 C 0.8293 0.57621 0.34627 0.0
C2075 C 0.81239 0.58673 0.33667 0.0
H2076 H 0.5331 0.06922 0.81763 0.0
H2077 H 0.56657 0.0662 0.88391 0.0
H2078 H 0.58118 0.08791 0.80122 0.0
H2079 H 0.61413 0.08345 0.86749 0.0
H2080 H 0.66551 0.0917 0.7769 0.0
H2081 H 0.61703 0.07608 0.79158 0.0
H2082 H 0.65292 0.12347 0.85236 0.0
H2083 H 0.70115 0.13769 0.83793 0.0
C2084 C 0.55067 0.07221 0.82862 0.0
C2085 C 0.54612 0.06635 0.85205 0.0
C2086 C 0.57821 0.08286 0.81922 0.0
C2087 C 0.60165 0.08742 0.83304 0.0
C2088 C 0.59682 0.08096 0.8564 0.0
C2089 C 0.56947 0.0708 0.86582 0.0
C2090 C 0.66279 0.09901 0.79323 0.0
C2091 C 0.68672 0.11633 0.80616 0.0
C2092 C 0.63511 0.09014 0.80166 0.0
C2093 C 0.63097 0.09839 0.82324 0.0
C2094 C 0.65521 0.11624 0.8359 0.0
C2095 C 0.68282 0.12468 0.82759 0.0
H2096 H 0.95533 0.4814 0.82966 0.0
H2097 H 0.88043 0.44951 0.87335 0.0
H2098 H 0.94319 0.51577 0.81375 0.0
H2099 H 0.86798 0.48336 0.85685 0.0
H2100 H 0.84874 0.53514 0.79857 0.0
H2101 H 0.85829 0.49737 0.81045 0.0
H2102 H 0.93799 0.55675 0.84046 0.0
H2103 H 0.92816 0.59423 0.8294 0.0
C2104 C 0.93606 0.48142 0.83558 0.0
C2105 C 0.91894 0.46293 0.85287 0.0
C2106 C 0.92917 0.50104 0.82648 0.0
C2107 C 0.90464 0.50197 0.83408 0.0
C2108 C 0.88687 0.48281 0.85066 0.0
C2109 C 0.89412 0.46364 0.86016 0.0
C2110 C 0.86827 0.54004 0.80767 0.0
C2111 C 0.88765 0.56753 0.81318 0.0
C2112 C 0.87369 0.51852 0.81444 0.0
C2113 C 0.89892 0.52437 0.82619 0.0
C2114 C 0.9185 0.55186 0.83127 0.0
C2115 C 0.91277 0.57321 0.82505 0.0
H2116 H 0.48886 0.45195 0.85323 0.0
H2117 H 0.55482 0.42786 0.85828 0.0
H2118 H 0.4568 0.40751 0.83585 0.0
H2119 H 0.52294 0.38371 0.84081 0.0
H2120 H 0.46466 0.318 0.78861 0.0
H2121 H 0.49774 0.36396 0.80328 0.0
H2122 H 0.43202 0.35759 0.84982 0.0
H2123 H 0.39928 0.31193 0.83547 0.0
C2124 C 0.49656 0.43727 0.85051 0.0
C2125 C 0.5243 0.44337 0.85726 0.0
C2126 C 0.4782 0.41181 0.84063 0.0
C2127 C 0.48736 0.3921 0.83697 0.0
C2128 C 0.51534 0.39853 0.84322 0.0
C2129 C 0.53351 0.42377 0.85338 0.0
C2130 C 0.45737 0.32643 0.802 0.0
C2131 C 0.42939 0.31125 0.81092 0.0
C2132 C 0.47628 0.3527 0.81041 0.0
C2133 C 0.46741 0.36446 0.82762 0.0
C2134 C 0.43939 0.34929 0.83638 0.0
C2135 C 0.42071 0.32298 0.82825 0.0
H2136 H 0.56141 0.68235 0.59868 0.0
H2137 H 0.49036 0.64594 0.64592 0.0
H2138 H 0.57936 0.72699 0.61722 0.0
H2139 H 0.50712 0.69067 0.66379 0.0
H2140 H 0.59725 0.80837 0.65294 0.0
H2141 H 0.57706 0.76746 0.62881 0.0
H2142 H 0.54519 0.71488 0.68883 0.0
H2143 H 0.56432 0.75542 0.7125 0.0
C2144 C 0.54876 0.68435 0.61223 0.0
C2145 C 0.52426 0.66087 0.62067 0.0
C2146 C 0.5592 0.70988 0.62305 0.0
C2147 C 0.54518 0.71239 0.64247 0.0
C2148 C 0.51906 0.68939 0.64938 0.0
C2149 C 0.50899 0.66385 0.63883 0.0
C2150 C 0.58633 0.788 0.6609 0.0
C2151 C 0.58235 0.78513 0.68462 0.0
C2152 C 0.57457 0.76453 0.64708 0.0
C2153 C 0.55876 0.73774 0.65675 0.0
C2154 C 0.55621 0.73507 0.68059 0.0
C2155 C 0.56761 0.75837 0.69427 0.0
H2156 H 0.21552 0.79461 0.68614 0.0
H2157 H 0.20133 0.85246 0.64499 0.0
H2158 H 0.26504 0.81596 0.6725 0.0
H2159 H 0.25096 0.87359 0.63122 0.0
H2160 H 0.35778 0.89488 0.67016 0.0
H2161 H 0.30717 0.86487 0.67944 0.0
H2162 H 0.28598 0.86205 0.60835 0.0
H2163 H 0.33688 0.89183 0.59897 0.0
C2164 C 0.2228 0.81162 0.67394 0.0
C2165 C 0.20448 0.82197 0.66679 0.0
C2166 C 0.25119 0.82384 0.6662 0.0
C2167 C 0.26179 0.84639 0.65083 0.0
C2168 C 0.24323 0.85606 0.64292 0.0
C2169 C 0.21491 0.8441 0.65094 0.0
C2170 C 0.34241 0.88724 0.65646 0.0
C2171 C 0.35125 0.89556 0.63385 0.0
C2172 C 0.31346 0.87007 0.66176 0.0
C2173 C 0.29268 0.8613 0.64461 0.0
C2174 C 0.3016 0.86866 0.62188 0.0
C2175 C 0.3307 0.88542 0.61651 0.0
H2176 H 0.21461 0.42664 0.68438 0.0
H2177 H 0.14075 0.3502 0.66482 0.0
H2178 H 0.18992 0.45223 0.67285 0.0
H2179 H 0.11641 0.37583 0.65297 0.0
H2180 H 0.14646 0.49014 0.62695 0.0
H2181 H 0.17291 0.46656 0.64009 0.0
H2182 H 0.09456 0.40076 0.6693 0.0
H2183 H 0.06834 0.42416 0.65556 0.0
C2184 C 0.19321 0.41529 0.67747 0.0
C2185 C 0.17962 0.3863 0.67567 0.0
C2186 C 0.1791 0.43001 0.67078 0.0
C2187 C 0.15111 0.41608 0.66213 0.0
C2188 C 0.13776 0.38717 0.65995 0.0
C2189 C 0.15182 0.37247 0.66663 0.0
C2190 C 0.13505 0.4705 0.63602 0.0
C2191 C 0.10532 0.45817 0.63943 0.0
C2192 C 0.15016 0.45719 0.64382 0.0
C2193 C 0.13573 0.43147 0.65536 0.0
C2194 C 0.10617 0.4201 0.65988 0.0
C2195 C 0.09117 0.43348 0.65215 0.0
H2196 H 0.32386 0.84908 0.21193 0.0
H2197 H 0.31317 0.91651 0.18476 0.0
H2198 H 0.3742 0.87272 0.1995 0.0
H2199 H 0.36307 0.93997 0.17172 0.0
H2200 H 0.45949 0.98948 0.17574 0.0
H2201 H 0.40979 0.96394 0.18837 0.0
H2202 H 0.40574 0.8876 0.16683 0.0
H2203 H 0.45575 0.91309 0.15456 0.0
C2204 C 0.33248 0.86906 0.20336 0.0
C2205 C 0.31537 0.88172 0.20012 0.0
C2206 C 0.36109 0.88242 0.19597 0.0
C2207 C 0.37284 0.90853 0.18501 0.0
C2208 C 0.35498 0.92031 0.18072 0.0
C2209 C 0.32644 0.90689 0.18804 0.0
C2210 C 0.4481 0.96723 0.17377 0.0
C2211 C 0.46162 0.9534 0.16397 0.0
C2212 C 0.4195 0.95259 0.18091 0.0
C2213 C 0.40365 0.92375 0.17837 0.0
C2214 C 0.41737 0.90978 0.16916 0.0
C2215 C 0.44604 0.92443 0.16206 0.0
H2216 H 0.14011 0.45545 0.15843 0.0
H2217 H 0.11756 0.45484 0.22903 0.0
H2218 H 0.11978 0.48562 0.14897 0.0
H2219 H 0.09669 0.48476 0.21944 0.0
H2220 H 0.0954 0.55358 0.14183 0.0
H2221 H 0.12448 0.53378 0.1568 0.0
H2222 H 0.05127 0.47253 0.1947 0.0
H2223 H 0.02194 0.49206 0.17959 0.0
C2224 C 0.13145 0.46237 0.172 0.0
C2225 C 0.13047 0.4529 0.19446 0.0
C2226 C 0.11985 0.47965 0.1666 0.0
C2227 C 0.10654 0.48736 0.18347 0.0
C2228 C 0.10677 0.479 0.20613 0.0
C2229 C 0.11893 0.46213 0.21163 0.0
C2230 C 0.08556 0.53615 0.15362 0.0
C2231 C 0.05625 0.52422 0.15936 0.0
C2232 C 0.10224 0.52482 0.16213 0.0
C2233 C 0.09011 0.50167 0.17688 0.0
C2234 C 0.06121 0.49056 0.18352 0.0
C2235 C 0.04439 0.5016 0.17472 0.0
H2236 H 0.53903 0.70299 0.17249 0.0
H2237 H 0.56236 0.66539 0.22743 0.0
H2238 H 0.5102 0.65778 0.15575 0.0
H2239 H 0.53475 0.61996 0.21011 0.0
H2240 H 0.46632 0.53837 0.17691 0.0
H2241 H 0.49093 0.58131 0.19836 0.0
H2242 H 0.52043 0.62787 0.13516 0.0
H2243 H 0.49493 0.5854 0.11408 0.0
C2244 C 0.53735 0.68484 0.18126 0.0
C2245 C 0.55251 0.6876 0.20141 0.0
C2246 C 0.52131 0.65891 0.17145 0.0
C2247 C 0.52071 0.6351 0.18114 0.0
C2248 C 0.53455 0.63768 0.20212 0.0
C2249 C 0.55022 0.66369 0.21218 0.0
C2250 C 0.47857 0.5578 0.16772 0.0
C2251 C 0.47869 0.55854 0.14382 0.0
C2252 C 0.49256 0.58247 0.17999 0.0
C2253 C 0.50716 0.60834 0.16858 0.0
C2254 C 0.50858 0.60862 0.14466 0.0
C2255 C 0.49432 0.58417 0.13249 0.0
H2256 H 0.08358 0.69114 0.66342 0.0
H2257 H 0.14583 0.69161 0.71085 0.0
H2258 H 0.07147 0.64477 0.65213 0.0
H2259 H 0.13359 0.64449 0.69921 0.0
H2260 H 0.12637 0.57743 0.64589 0.0
H2261 H 0.13824 0.62182 0.66277 0.0
H2262 H 0.04802 0.59661 0.66861 0.0
H2263 H 0.03606 0.55211 0.65173 0.0
C2264 C 0.09475 0.68134 0.67149 0.0
C2265 C 0.11582 0.69519 0.68801 0.0
C2266 C 0.08755 0.65456 0.66511 0.0
C2267 C 0.10137 0.64086 0.67488 0.0
C2268 C 0.12259 0.65461 0.69138 0.0
C2269 C 0.12957 0.6815 0.69807 0.0
C2270 C 0.10903 0.58127 0.6509 0.0
C2271 C 0.08024 0.56134 0.64724 0.0
C2272 C 0.11587 0.60662 0.66076 0.0
C2273 C 0.0941 0.61275 0.66696 0.0
C2274 C 0.06529 0.59255 0.66383 0.0
C2275 C 0.05842 0.56706 0.65418 0.0
H2276 H 0.32358 0.45462 0.70975 0.0
H2277 H 0.30867 0.41251 0.64581 0.0
H2278 H 0.36892 0.49199 0.69475 0.0
H2279 H 0.35391 0.44946 0.63102 0.0
H2280 H 0.42263 0.53207 0.60356 0.0
H2281 H 0.37655 0.49793 0.61934 0.0
H2282 H 0.41685 0.49946 0.68343 0.0
H2283 H 0.4631 0.53406 0.66779 0.0
C2284 C 0.3299 0.4534 0.69248 0.0
C2285 C 0.31253 0.43061 0.67897 0.0
C2286 C 0.35595 0.4747 0.68395 0.0
C2287 C 0.36505 0.47371 0.66168 0.0
C2288 C 0.3474 0.45108 0.64812 0.0
C2289 C 0.3215 0.4298 0.65666 0.0
C2290 C 0.42177 0.52528 0.62106 0.0
C2291 C 0.44674 0.53582 0.63434 0.0
C2292 C 0.3953 0.50557 0.63007 0.0
C2293 C 0.39302 0.49584 0.65261 0.0
C2294 C 0.41782 0.50672 0.66607 0.0
C2295 C 0.44438 0.52645 0.65704 0.0
H2296 H 0.55913 0.85945 0.66121 0.0
H2297 H 0.5699 0.90561 0.72221 0.0
H2298 H 0.52516 0.87374 0.64686 0.0
H2299 H 0.53711 0.92137 0.70756 0.0
H2300 H 0.46121 0.92998 0.68059 0.0
H2301 H 0.48962 0.9104 0.69749 0.0
H2302 H 0.52773 0.91426 0.63166 0.0
H2303 H 0.49844 0.93235 0.61479 0.0
C2304 C 0.55387 0.87249 0.67157 0.0
C2305 C 0.5663 0.88094 0.69294 0.0
C2306 C 0.53475 0.88098 0.66332 0.0
C2307 C 0.52861 0.89902 0.67592 0.0
C2308 C 0.54099 0.90721 0.69751 0.0
C2309 C 0.55976 0.89827 0.70592 0.0
C2310 C 0.47572 0.92662 0.66982 0.0
C2311 C 0.47753 0.93254 0.64637 0.0
C2312 C 0.49204 0.91547 0.67949 0.0
C2313 C 0.51079 0.91047 0.66592 0.0
C2314 C 0.51294 0.91703 0.64255 0.0
C2315 C 0.49634 0.92768 0.63288 0.0
H2316 H 0.24039 0.41743 0.21542 0.0
H2317 H 0.20691 0.41916 0.14885 0.0
H2318 H 0.2883 0.43628 0.19934 0.0
H2319 H 0.2553 0.43942 0.13278 0.0
H2320 H 0.34002 0.44232 0.10976 0.0
H2321 H 0.29151 0.428 0.12361 0.0
H2322 H 0.32695 0.47633 0.18402 0.0
H2323 H 0.37525 0.48926 0.17043 0.0
C2324 C 0.24335 0.42213 0.19735 0.0
C2325 C 0.21988 0.41673 0.18339 0.0
C2326 C 0.27091 0.43323 0.18813 0.0
C2327 C 0.27581 0.43968 0.16476 0.0
C2328 C 0.25229 0.4344 0.15079 0.0
C2329 C 0.22457 0.42284 0.15999 0.0
C2330 C 0.33723 0.45024 0.12576 0.0
C2331 C 0.36106 0.46728 0.13891 0.0
C2332 C 0.30951 0.44211 0.13372 0.0
C2333 C 0.30522 0.45081 0.15506 0.0
C2334 C 0.32937 0.46873 0.16776 0.0
C2335 C 0.35702 0.47645 0.15993 0.0
H2336 H 0.53859 0.88672 0.12708 0.0
H2337 H 0.56974 0.93089 0.18976 0.0
H2338 H 0.5504 0.8514 0.14082 0.0
H2339 H 0.5818 0.89583 0.20335 0.0
H2340 H 0.60924 0.81494 0.16229 0.0
H2341 H 0.59404 0.84785 0.1489 0.0
H2342 H 0.55972 0.84713 0.21558 0.0
H2343 H 0.57516 0.81451 0.22912 0.0
C2344 C 0.54778 0.88881 0.14383 0.0
C2345 C 0.55326 0.91163 0.15731 0.0
C2346 C 0.55474 0.86868 0.15164 0.0
C2347 C 0.56715 0.87085 0.17315 0.0
C2348 C 0.57201 0.89337 0.1868 0.0
C2349 C 0.56521 0.91355 0.17896 0.0
C2350 C 0.59842 0.82172 0.17412 0.0
C2351 C 0.59353 0.81204 0.19683 0.0
C2352 C 0.58952 0.84047 0.16638 0.0
C2353 C 0.57565 0.85012 0.18116 0.0
C2354 C 0.57062 0.84034 0.20381 0.0
C2355 C 0.57938 0.82151 0.21154 0.0
H2356 H 0.1507 0.78913 0.18722 0.0
H2357 H 0.21576 0.76367 0.19014 0.0
H2358 H 0.11764 0.74506 0.16983 0.0
H2359 H 0.18284 0.71986 0.17273 0.0
H2360 H 0.12297 0.65492 0.12133 0.0
H2361 H 0.15673 0.70075 0.1357 0.0
H2362 H 0.09243 0.69517 0.18344 0.0
H2363 H 0.05893 0.64961 0.16929 0.0
C2364 C 0.15799 0.77422 0.18403 0.0
C2365 C 0.18577 0.77981 0.19016 0.0
C2366 C 0.13905 0.74898 0.17415 0.0
C2367 C 0.14766 0.729 0.16993 0.0
C2368 C 0.17567 0.73492 0.17557 0.0
C2369 C 0.19444 0.75995 0.1857 0.0
C2370 C 0.1161 0.66352 0.13488 0.0
C2371 C 0.08834 0.64859 0.14422 0.0
C2372 C 0.13541 0.6897 0.14313 0.0
C2373 C 0.12715 0.70159 0.16063 0.0
C2374 C 0.09931 0.68673 0.16976 0.0
C2375 C 0.0802 0.6605 0.16176 0.0
H2376 H 0.38081 0.27995 0.03976 0.0
H2377 H 0.33529 0.26473 0.10361 0.0
H2378 H 0.41682 0.32571 0.05315 0.0
H2379 H 0.37048 0.30978 0.11681 0.0
H2380 H 0.4332 0.3907 0.14023 0.0
H2381 H 0.41843 0.34329 0.12811 0.0
H2382 H 0.41233 0.36708 0.05882 0.0
H2383 H 0.4273 0.41394 0.07093 0.0
C2384 C 0.37888 0.28612 0.05678 0.0
C2385 C 0.35501 0.26909 0.07046 0.0
C2386 C 0.39939 0.31229 0.06446 0.0
C2387 C 0.39651 0.32157 0.08605 0.0
C2388 C 0.37374 0.3034 0.10025 0.0
C2389 C 0.35326 0.27763 0.09252 0.0
C2390 C 0.42984 0.38591 0.12233 0.0
C2391 C 0.43107 0.40574 0.10653 0.0
C2392 C 0.42114 0.35877 0.11536 0.0
C2393 C 0.41369 0.3512 0.09251 0.0
C2394 C 0.41798 0.37201 0.07647 0.0
C2395 C 0.4264 0.39889 0.08345 0.0
H2396 H 0.62706 0.05925 0.1476 0.0
H2397 H 0.58656 0.02423 0.08408 0.0
H2398 H 0.66766 0.0961 0.12698 0.0
H2399 H 0.6275 0.05835 0.06339 0.0
H2400 H 0.70489 0.09953 0.02656 0.0
H2401 H 0.66307 0.095 0.04722 0.0
H2402 H 0.70633 0.09924 0.11077 0.0
H2403 H 0.74843 0.10713 0.08992 0.0
C2404 C 0.62668 0.05991 0.1292 0.0
C2405 C 0.60374 0.03927 0.11735 0.0
C2406 C 0.65018 0.08068 0.11723 0.0
C2407 C 0.65194 0.08002 0.09325 0.0
C2408 C 0.62763 0.06031 0.08164 0.0
C2409 C 0.60395 0.04028 0.09355 0.0
C2410 C 0.7057 0.10102 0.04492 0.0
C2411 C 0.7297 0.10373 0.05673 0.0
C2412 C 0.6815 0.09774 0.05693 0.0
C2413 C 0.6802 0.09498 0.08092 0.0
C2414 C 0.70567 0.10087 0.09248 0.0
C2415 C 0.73007 0.10523 0.08049 0.0
H2416 H 0.90189 0.60946 0.01343 0.0
H2417 H 0.8947 0.64272 0.07734 0.0
H2418 H 0.90644 0.57281 0.03372 0.0
H2419 H 0.90187 0.60874 0.09767 0.0
H2420 H 0.97651 0.56287 0.07144 0.0
H2421 H 0.94212 0.57017 0.0503 0.0
H2422 H 0.90112 0.57212 0.11348 0.0
H2423 H 0.9386 0.56833 0.1345 0.0
C2424 C 0.90058 0.60842 0.03182 0.0
C2425 C 0.8975 0.62849 0.04388 0.0
C2426 C 0.90373 0.58776 0.04361 0.0
C2427 C 0.90568 0.58796 0.06762 0.0
C2428 C 0.90034 0.60708 0.07939 0.0
C2429 C 0.8964 0.62702 0.06767 0.0
C2430 C 0.95961 0.56415 0.08073 0.0
C2431 C 0.9602 0.56522 0.10451 0.0
C2432 C 0.93946 0.56816 0.06856 0.0
C2433 C 0.91923 0.57325 0.07995 0.0
C2434 C 0.91731 0.57005 0.10392 0.0
C2435 C 0.93835 0.56718 0.11613 0.0
H2436 H 0.30258 0.3813 0.47291 0.0
H2437 H 0.24994 0.3686 0.414 0.0
H2438 H 0.34452 0.41339 0.4513 0.0
H2439 H 0.29076 0.40346 0.39287 0.0
H2440 H 0.36943 0.41376 0.35292 0.0
H2441 H 0.32625 0.40389 0.37356 0.0
H2442 H 0.37756 0.44838 0.43135 0.0
H2443 H 0.4201 0.45453 0.41133 0.0
C2444 C 0.29987 0.38671 0.45563 0.0
C2445 C 0.27313 0.37299 0.44521 0.0
C2446 C 0.32396 0.40536 0.44305 0.0
C2447 C 0.32166 0.41091 0.41977 0.0
C2448 C 0.29405 0.39907 0.41027 0.0
C2449 C 0.27034 0.37945 0.42253 0.0
C2450 C 0.37134 0.42223 0.36973 0.0
C2451 C 0.39795 0.43518 0.38045 0.0
C2452 C 0.34646 0.41664 0.3818 0.0
C2453 C 0.34783 0.42433 0.4048 0.0
C2454 C 0.37513 0.44072 0.41423 0.0
C2455 C 0.39975 0.44497 0.40256 0.0
H2456 H 0.57418 0.93949 0.35191 0.0
H2457 H 0.56508 0.97399 0.41455 0.0
H2458 H 0.57831 0.90336 0.37335 0.0
H2459 H 0.57215 0.94066 0.43608 0.0
H2460 H 0.61113 0.90363 0.47462 0.0
H2461 H 0.57292 0.9055 0.45311 0.0
H2462 H 0.61374 0.90132 0.39053 0.0
H2463 H 0.64892 0.896 0.41227 0.0
C2464 C 0.57241 0.93884 0.37028 0.0
C2465 C 0.56903 0.95917 0.38165 0.0
C2466 C 0.57536 0.9185 0.38274 0.0
C2467 C 0.57696 0.91936 0.40677 0.0
C2468 C 0.57108 0.93858 0.41783 0.0
C2469 C 0.56723 0.95816 0.40542 0.0
C2470 C 0.61071 0.90159 0.45631 0.0
C2471 C 0.63276 0.89965 0.44501 0.0
C2472 C 0.58923 0.90335 0.4438 0.0
C2473 C 0.59088 0.90545 0.41977 0.0
C2474 C 0.61129 0.90022 0.4088 0.0
C2475 C 0.63189 0.89733 0.42132 0.0
H2476 H 0.06734 0.70298 0.47277 0.0
H2477 H 0.12564 0.74798 0.41784 0.0
H2478 H 0.05691 0.65928 0.45526 0.0
H2479 H 0.11502 0.70427 0.39995 0.0
H2480 H 0.03655 0.62713 0.36357 0.0
H2481 H 0.06797 0.67104 0.38178 0.0
H2482 H 0.07332 0.62646 0.44095 0.0
H2483 H 0.04202 0.58268 0.42252 0.0
C2484 C 0.079 0.70343 0.45752 0.0
C2485 C 0.09774 0.72873 0.4469 0.0
C2486 C 0.07295 0.67843 0.44738 0.0
C2487 C 0.08504 0.67829 0.42611 0.0
C2488 C 0.10534 0.70369 0.41628 0.0
C2489 C 0.11169 0.72869 0.42665 0.0
C2490 C 0.04577 0.62681 0.37992 0.0
C2491 C 0.03743 0.60161 0.39146 0.0
C2492 C 0.06364 0.65193 0.39046 0.0
C2493 C 0.07298 0.65224 0.41293 0.0
C2494 C 0.06641 0.62692 0.4237 0.0
C2495 C 0.04879 0.60185 0.41305 0.0
H2496 H 0.60639 0.60743 0.87333 0.0
H2497 H 0.57275 0.5847 0.94155 0.0
H2498 H 0.61736 0.65497 0.87983 0.0
H2499 H 0.58196 0.63189 0.94791 0.0
H2500 H 0.6429 0.74038 0.89336 0.0
H2501 H 0.60894 0.69172 0.88707 0.0
H2502 H 0.62434 0.67192 0.95538 0.0
H2503 H 0.65675 0.72068 0.96176 0.0
C2504 C 0.59996 0.6124 0.88932 0.0
C2505 C 0.58875 0.59258 0.90693 0.0
C2506 C 0.60624 0.63972 0.89315 0.0
C2507 C 0.60106 0.64762 0.91463 0.0
C2508 C 0.587 0.62687 0.9314 0.0
C2509 C 0.58132 0.59974 0.92769 0.0
C2510 C 0.63773 0.72565 0.90733 0.0
C2511 C 0.6521 0.73413 0.9281 0.0
C2512 C 0.61868 0.69769 0.90364 0.0
C2513 C 0.61431 0.67757 0.92046 0.0
C2514 C 0.62676 0.6866 0.942 0.0
C2515 C 0.64536 0.71466 0.9458 0.0
H2516 H 0.2523 0.90235 0.92074 0.0
H2517 H 0.2648 0.98255 0.93946 0.0
H2518 H 0.30329 0.92262 0.91135 0.0
H2519 H 0.31597 0.00239 0.93324 0.0
H2520 H 0.39605 0.04202 0.89497 0.0
H2521 H 0.34505 0.01697 0.90288 0.0
H2522 H 0.35154 0.94313 0.91851 0.0
H2523 H 0.40231 0.96803 0.9077 0.0
C2524 C 0.2664 0.92407 0.924 0.0
C2525 C 0.2551 0.94091 0.93135 0.0
C2526 C 0.2956 0.93578 0.91857 0.0
C2527 C 0.31389 0.96445 0.92078 0.0
C2528 C 0.30257 0.98056 0.93012 0.0
C2529 C 0.27335 0.96912 0.93443 0.0
C2530 C 0.38614 0.0201 0.89919 0.0
C2531 C 0.40253 0.00656 0.89995 0.0
C2532 C 0.35705 0.00583 0.90442 0.0
C2533 C 0.34408 0.97813 0.91228 0.0
C2534 C 0.36053 0.96433 0.91246 0.0
C2535 C 0.38957 0.97847 0.9062 0.0
H2536 H 0.09656 0.35237 0.93239 0.0
H2537 H 0.02255 0.27851 0.90973 0.0
H2538 H 0.07049 0.37858 0.92694 0.0
H2539 H 0.99749 0.30448 0.90233 0.0
H2540 H 0.02134 0.42129 0.89732 0.0
H2541 H 0.05047 0.39795 0.90144 0.0
H2542 H 0.97436 0.32294 0.92272 0.0
H2543 H 0.94564 0.34556 0.91654 0.0
C2544 C 0.07457 0.34179 0.92659 0.0
C2545 C 0.06073 0.31325 0.92282 0.0
C2546 C 0.05987 0.3568 0.92292 0.0
C2547 C 0.03153 0.3435 0.91473 0.0
C2548 C 0.01869 0.31522 0.90966 0.0
C2549 C 0.03304 0.30029 0.91382 0.0
C2550 C 0.01101 0.39952 0.90202 0.0
C2551 C 0.98122 0.3846 0.90535 0.0
C2552 C 0.02765 0.38632 0.90492 0.0
C2553 C 0.0147 0.35832 0.91195 0.0
C2554 C 0.98499 0.34408 0.91632 0.0
C2555 C 0.96847 0.35703 0.91291 0.0
H2556 H 0.73878 0.65462 0.56327 0.0
H2557 H 0.73785 0.72846 0.5849 0.0
H2558 H 0.68638 0.6286 0.56684 0.0
H2559 H 0.68646 0.70251 0.59078 0.0
H2560 H 0.59299 0.65955 0.57715 0.0
H2561 H 0.64446 0.68334 0.57156 0.0
H2562 H 0.6471 0.6087 0.5916 0.0
H2563 H 0.59463 0.58425 0.59492 0.0
C2564 C 0.72716 0.66528 0.56836 0.0
C2565 C 0.74182 0.69371 0.57259 0.0
C2566 C 0.69731 0.65033 0.57101 0.0
C2567 C 0.68195 0.66348 0.57881 0.0
C2568 C 0.69718 0.6918 0.58387 0.0
C2569 C 0.72668 0.70672 0.58063 0.0
C2570 C 0.60474 0.64843 0.58067 0.0
C2571 C 0.59028 0.62056 0.58752 0.0
C2572 C 0.63429 0.66205 0.57759 0.0
C2573 C 0.65025 0.64821 0.5816 0.0
C2574 C 0.63559 0.62005 0.58825 0.0
C2575 C 0.60569 0.60618 0.59075 0.0
H2576 H 0.28705 0.02119 0.55321 0.0
H2577 H 0.35736 0.10191 0.56716 0.0
H2578 H 0.31732 1.0005 0.56071 0.0
H2579 H 0.38701 0.08108 0.57813 0.0
H2580 H 0.43791 0.03359 0.58648 0.0
H2581 H 0.41322 0.05882 0.57359 0.0
H2582 H 0.33181 0.98755 0.59179 0.0
H2583 H 0.35656 0.96188 0.60156 0.0
C2584 C 0.30939 0.03452 0.55736 0.0
C2585 C 0.32036 0.06309 0.55875 0.0
C2586 C 0.32658 0.02265 0.5625 0.0
C2587 C 0.35441 0.03884 0.57114 0.0
C2588 C 0.36582 0.0678 0.57153 0.0
C2589 C 0.34894 0.07984 0.56516 0.0
C2590 C 0.41477 0.02383 0.58812 0.0
C2591 C 0.39899 0.99624 0.5956 0.0
C2592 C 0.40052 0.03816 0.58065 0.0
C2593 C 0.37029 0.0251 0.58089 0.0
C2594 C 0.35494 0.99805 0.59011 0.0
C2595 C 0.36908 0.98348 0.59648 0.0
H2596 H -0.00172 0.39665 0.63064 0.0
H2597 H 0.98779 0.42121 0.56297 0.0
H2598 H 0.96237 0.34919 0.62316 0.0
H2599 H 0.9504 0.37401 0.55561 0.0
H2600 H 0.90574 0.264 0.60763 0.0
H2601 H 0.91799 0.31187 0.61492 0.0
H2602 H 0.95467 0.33517 0.54723 0.0
H2603 H 0.9407 0.28712 0.53982 0.0
C2604 C 0.98702 0.39207 0.6146 0.0
C2605 C 0.9956 0.41238 0.5974 0.0
C2606 C 0.96636 0.36479 0.61018 0.0
C2607 C 0.95369 0.35744 0.58853 0.0
C2608 C 0.96017 0.37865 0.57224 0.0
C2609 C 0.98126 0.40577 0.57653 0.0
C2610 C 0.91512 0.27929 0.59402 0.0
C2611 C 0.92218 0.27206 0.57314 0.0
C2612 C 0.92257 0.30679 0.59826 0.0
C2613 C 0.93807 0.32772 0.58194 0.0
C2614 C 0.94257 0.31983 0.56025 0.0
C2615 C 0.93452 0.29219 0.55587 0.0
H2616 H 0.9134 0.69027 0.74761 0.0
H2617 H 0.96811 0.70658 0.80573 0.0
H2618 H 0.95206 0.72797 0.7265 0.0
H2619 H 0.00802 0.74221 0.78418 0.0
H2620 H 0.08135 0.7938 0.74543 0.0
H2621 H 0.03652 0.78136 0.76508 0.0
H2622 H 0.99015 0.73298 0.70704 0.0
H2623 H 0.035 0.74857 0.68681 0.0
C2624 C 0.93375 0.70244 0.75595 0.0
C2625 C 0.93778 0.69621 0.7784 0.0
C2626 C 0.95616 0.72381 0.74375 0.0
C2627 C 0.98375 0.7381 0.75318 0.0
C2628 C 0.98725 0.73237 0.77615 0.0
C2629 C 0.96442 0.71171 0.78864 0.0
C2630 C 0.06137 0.78203 0.73645 0.0
C2631 C 0.06143 0.77249 0.71451 0.0
C2632 C 0.03558 0.77423 0.74791 0.0
C2633 C 0.00941 0.75487 0.73832 0.0
C2634 C 0.00953 0.74781 0.71533 0.0
C2635 C 0.03536 0.75677 0.70351 0.0
H2636 H 0.23803 0.31387 0.74958 0.0
H2637 H 0.24262 0.28243 0.68406 0.0
H2638 H 0.24573 0.27911 0.76819 0.0
H2639 H 0.24729 0.2449 0.70258 0.0
H2640 H 0.28157 0.23507 0.80166 0.0
H2641 H 0.24462 0.24159 0.78242 0.0
H2642 H 0.28298 0.24089 0.71751 0.0
H2643 H 0.31675 0.23092 0.73684 0.0
C2644 C 0.23936 0.29845 0.73922 0.0
C2645 C 0.23958 0.30062 0.71547 0.0
C2646 C 0.24353 0.27805 0.74993 0.0
C2647 C 0.24805 0.25909 0.73712 0.0
C2648 C 0.24525 0.25968 0.71321 0.0
C2649 C 0.24198 0.28083 0.70245 0.0
C2650 C 0.28081 0.23481 0.78326 0.0
C2651 C 0.30172 0.23236 0.77065 0.0
C2652 C 0.2601 0.23925 0.77209 0.0
C2653 C 0.26143 0.24347 0.74822 0.0
C2654 C 0.28077 0.23809 0.73575 0.0
C2655 C 0.30055 0.23254 0.74687 0.0
H2656 H 0.6814 0.92316 0.76429 0.0
H2657 H 0.71831 0.94514 0.69692 0.0
H2658 H 0.7167 0.96783 0.77805 0.0
H2659 H 0.75471 0.99034 0.71081 0.0
H2660 H 0.75777 0.0732 0.73386 0.0
H2661 H 0.74736 0.02826 0.72002 0.0
H2662 H 0.76246 0.0051 0.78716 0.0
H2663 H 0.77231 0.05058 0.80113 0.0
C2664 C 0.69785 0.93736 0.75258 0.0
C2665 C 0.69687 0.93101 0.72947 0.0
C2666 C 0.71838 0.96299 0.76054 0.0
C2667 C 0.73839 0.98309 0.74551 0.0
C2668 C 0.73928 0.97554 0.72279 0.0
C2669 C 0.71863 0.94962 0.71481 0.0
C2670 C 0.75974 0.05879 0.74552 0.0
C2671 C 0.76532 0.06507 0.76862 0.0
C2672 C 0.75403 0.033 0.73752 0.0
C2673 C 0.7535 0.01267 0.75251 0.0
C2674 C 0.76215 0.02009 0.77522 0.0
C2675 C 0.76804 0.04617 0.78323 0.0
H2676 H 0.26896 0.94221 0.20818 0.0
H2677 H 0.23716 0.92001 0.27691 0.0
H2678 H 0.28219 0.99016 0.21517 0.0
H2679 H 0.24853 0.96772 0.2838 0.0
H2680 H 0.32767 0.05391 0.29741 0.0
H2681 H 0.29233 0.006 0.29094 0.0
H2682 H 0.27732 0.02854 0.22346 0.0
H2683 H 0.31426 0.0762 0.22974 0.0
C2684 C 0.26335 0.94744 0.2244 0.0
C2685 C 0.25214 0.92764 0.24201 0.0
C2686 C 0.27094 0.97501 0.22853 0.0
C2687 C 0.26704 0.98317 0.25031 0.0
C2688 C 0.25267 0.96248 0.26706 0.0
C2689 C 0.24574 0.93506 0.26306 0.0
C2690 C 0.31588 0.04872 0.2816 0.0
C2691 C 0.32355 0.06852 0.26407 0.0
C2692 C 0.29553 0.02117 0.27777 0.0
C2693 C 0.28222 0.01305 0.2564 0.0
C2694 C 0.28766 0.03376 0.23986 0.0
C2695 C 0.30849 0.06115 0.24353 0.0
H2696 H 0.93604 0.31716 0.27236 0.0
H2697 H 0.929 0.23846 0.25556 0.0
H2698 H 0.98707 0.33989 0.26457 0.0
H2699 H 0.97959 0.26143 0.24447 0.0
H2700 H 0.07817 0.31251 0.23754 0.0
H2701 H 0.02807 0.28504 0.24952 0.0
H2702 H 0.01469 0.35495 0.23352 0.0
H2703 H 0.06523 0.38274 0.22465 0.0
C2704 C 0.94581 0.30471 0.26749 0.0
C2705 C 0.92914 0.2761 0.2654 0.0
C2706 C 0.97491 0.31777 0.26221 0.0
C2707 C 0.98752 0.30281 0.25283 0.0
C2708 C 0.97091 0.27379 0.25166 0.0
C2709 C 0.94194 0.26052 0.2581 0.0
C2710 C 0.06406 0.3215 0.23615 0.0
C2711 C 0.07502 0.34933 0.22963 0.0
C2712 C 0.03538 0.30588 0.24311 0.0
C2713 C 0.01723 0.31788 0.24328 0.0
C2714 C 0.02807 0.3452 0.23487 0.0
C2715 C 0.05687 0.36101 0.22902 0.0
H2716 H 0.6899 0.62103 0.26897 0.0
H2717 H 0.77257 0.69253 0.25754 0.0
H2718 H 0.66653 0.64857 0.26173 0.0
H2719 H 0.74939 0.71994 0.24708 0.0
H2720 H 0.69783 0.76703 0.24477 0.0
H2721 H 0.72515 0.74316 0.25358 0.0
H2722 H 0.6522 0.66577 0.23377 0.0
H2723 H 0.62431 0.68937 0.2285 0.0
C2724 C 0.703 0.64293 0.26509 0.0
C2725 C 0.73288 0.65507 0.26467 0.0
C2726 C 0.68965 0.65869 0.2602 0.0
C2727 C 0.7058 0.68654 0.2529 0.0
C2728 C 0.73601 0.69876 0.25279 0.0
C2729 C 0.74942 0.68316 0.25883 0.0
C2730 C 0.68815 0.74499 0.24187 0.0
C2731 C 0.65941 0.73001 0.23529 0.0
C2732 C 0.70372 0.73118 0.24697 0.0
C2733 C 0.69086 0.70216 0.2451 0.0
C2734 C 0.66267 0.68779 0.23667 0.0
C2735 C 0.64681 0.70139 0.23282 0.0
loop_
_geom_bond_atom_site_label_1
_geom_bond_atom_site_label_2
_geom_bond_distance
_geom_bond_site_symmetry_2
_ccdc_geom_bond_type
Mn0 O5 2.095 . S
Mn0 O15 2.162 . S
Mn0 O16 2.297 . S
Mn0 O24 2.385 . S
Mn0 O25 2.209 . S
Mn0 O26 2.094 . S
Mn1 O6 2.121 . S
Mn1 N8 2.257 . S
Mn1 N17 2.282 . S
Mn1 O25 2.215 . S
Mn1 O27 2.117 . S
C2 O24 1.234 . S
C2 O25 1.283 . S
C3 O15 1.281 . S
C3 O16 1.236 . S
C4 O26 1.240 . S
C4 O27 1.264 . S
O5 Mn0 2.095 . S
O5 C14 1.250 . S
O6 Mn1 2.121 . S
O6 C14 1.258 . S
C7 N8 1.326 . S
C7 C11 1.460 . S
C7 H13 0.929 . S
N8 Mn1 2.257 . S
N8 C7 1.326 . S
N8 C12 1.362 . S
C9 C10 1.258 . S
C9 C12 1.431 . S
C9 C29 1.449 . S
C10 C9 1.258 . S
C10 C11 1.477 . S
C10 H30 0.931 . S
C11 C7 1.460 . S
C11 C10 1.477 . S
C11 H31 0.930 . S
C12 N8 1.362 . S
C12 C9 1.431 . S
C12 C22 1.476 . S
H13 C7 0.929 . S
C14 O5 1.250 . S
C14 O6 1.258 . S
O15 Mn0 2.162 . S
O15 C3 1.281 . S
O16 Mn0 2.297 . S
O16 C3 1.236 . S
N17 Mn1 2.282 . S
N17 C18 1.328 . S
N17 C22 1.318 . S
C18 N17 1.328 . S
C18 C19 1.457 . S
C18 H23 0.929 . S
C19 C18 1.457 . S
C19 C20 1.291 . S
C19 H32 0.931 . S
C20 C19 1.291 . S
C20 C21 1.373 . S
C20 H33 0.929 . S
C21 C20 1.373 . S
C21 C22 1.396 . S
C21 C28 1.403 . S
C22 C12 1.476 . S
C22 N17 1.318 . S
C22 C21 1.396 . S
H23 C18 0.929 . S
O24 Mn0 2.385 . S
O24 C2 1.234 . S
O25 Mn0 2.209 . S
O25 Mn1 2.215 . S
O25 C2 1.283 . S
O26 Mn0 2.094 . S
O26 C4 1.240 . S
O27 Mn1 2.117 . S
O27 C4 1.264 . S
C28 C21 1.403 . S
C28 C29 1.399 . S
C28 H34 0.929 . S
C29 C9 1.449 . S
C29 C28 1.399 . S
C29 H35 0.930 . S
H30 C10 0.931 . S
H31 C11 0.930 . S
H32 C19 0.931 . S
H33 C20 0.929 . S
H34 C28 0.929 . S
H35 C29 0.930 . S
Mn36 O41 2.095 . S
Mn36 O51 2.162 . S
Mn36 O52 2.297 . S
Mn36 O60 2.385 . S
Mn36 O61 2.209 . S
Mn36 O62 2.094 . S
Mn37 O42 2.121 . S
Mn37 N44 2.257 . S
Mn37 N53 2.282 . S
Mn37 O61 2.215 . S
Mn37 O63 2.117 . S
C38 O60 1.234 . S
C38 O61 1.283 . S
C39 O51 1.281 . S
C39 O52 1.236 . S
C40 O62 1.240 . S
C40 O63 1.264 . S
O41 Mn36 2.095 . S
O41 C50 1.250 . S
O42 Mn37 2.121 . S
O42 C50 1.258 . S
C43 N44 1.326 . S
C43 C47 1.460 . S
C43 H49 0.929 . S
N44 Mn37 2.257 . S
N44 C43 1.326 . S
N44 C48 1.362 . S
C45 C46 1.258 . S
C45 C48 1.431 . S
C45 C65 1.449 . S
C46 C45 1.258 . S
C46 C47 1.477 . S
C46 H66 0.931 . S
C47 C43 1.460 . S
C47 C46 1.477 . S
C47 H67 0.930 1_554 S
C48 N44 1.362 . S
C48 C45 1.431 . S
C48 C58 1.476 . S
H49 C43 0.929 . S
C50 O41 1.250 . S
C50 O42 1.258 . S
O51 Mn36 2.162 . S
O51 C39 1.281 . S
O52 Mn36 2.297 . S
O52 C39 1.236 . S
N53 Mn37 2.282 . S
N53 C54 1.328 . S
N53 C58 1.318 . S
C54 N53 1.328 . S
C54 C55 1.457 . S
C54 H59 0.929 . S
C55 C54 1.457 . S
C55 C56 1.291 . S
C55 H68 0.931 . S
C56 C55 1.291 . S
C56 C57 1.373 . S
C56 H69 0.929 . S
C57 C56 1.373 . S
C57 C58 1.396 . S
C57 C64 1.403 . S
C58 C48 1.476 . S
C58 N53 1.318 . S
C58 C57 1.396 . S
H59 C54 0.929 . S
O60 Mn36 2.385 . S
O60 C38 1.234 . S
O61 Mn36 2.209 . S
O61 Mn37 2.215 . S
O61 C38 1.283 . S
O62 Mn36 2.094 . S
O62 C40 1.240 . S
O63 Mn37 2.117 . S
O63 C40 1.264 . S
C64 C57 1.403 . S
C64 C65 1.399 . S
C64 H70 0.929 . S
C65 C45 1.449 . S
C65 C64 1.399 . S
C65 H71 0.930 . S
H66 C46 0.931 . S
H67 C47 0.930 1_556 S
H68 C55 0.931 . S
H69 C56 0.929 . S
H70 C64 0.929 . S
H71 C65 0.930 . S
Mn72 O77 2.095 . S
Mn72 O87 2.162 . S
Mn72 O88 2.297 . S
Mn72 O96 2.385 . S
Mn72 O97 2.209 . S
Mn72 O98 2.094 . S
Mn73 O78 2.121 . S
Mn73 N80 2.257 . S
Mn73 N89 2.282 . S
Mn73 O97 2.215 . S
Mn73 O99 2.117 . S
C74 O96 1.234 . S
C74 O97 1.283 . S
C75 O87 1.281 . S
C75 O88 1.236 . S
C76 O98 1.240 . S
C76 O99 1.264 . S
O77 Mn72 2.095 . S
O77 C86 1.250 . S
O78 Mn73 2.121 . S
O78 C86 1.258 . S
C79 N80 1.326 . S
C79 C83 1.460 . S
C79 H85 0.929 . S
N80 Mn73 2.257 . S
N80 C79 1.326 . S
N80 C84 1.362 . S
C81 C82 1.258 . S
C81 C84 1.431 . S
C81 C101 1.449 . S
C82 C81 1.258 . S
C82 C83 1.477 . S
C82 H102 0.931 . S
C83 C79 1.460 . S
C83 C82 1.477 . S
C83 H103 0.930 1_554 S
C84 N80 1.362 . S
C84 C81 1.431 . S
C84 C94 1.476 . S
H85 C79 0.929 . S
C86 O77 1.250 . S
C86 O78 1.258 . S
O87 Mn72 2.162 . S
O87 C75 1.281 . S
O88 Mn72 2.297 . S
O88 C75 1.236 . S
N89 Mn73 2.282 . S
N89 C90 1.328 . S
N89 C94 1.318 . S
C90 N89 1.328 . S
C90 C91 1.457 . S
C90 H95 0.929 . S
C91 C90 1.457 . S
C91 C92 1.291 . S
C91 H104 0.931 . S
C92 C91 1.291 . S
C92 C93 1.373 . S
C92 H105 0.929 . S
C93 C92 1.373 . S
C93 C94 1.396 . S
C93 C100 1.403 . S
C94 C84 1.476 . S
C94 N89 1.318 . S
C94 C93 1.396 . S
H95 C90 0.929 . S
O96 Mn72 2.385 . S
O96 C74 1.234 . S
O97 Mn72 2.209 . S
O97 Mn73 2.215 . S
O97 C74 1.283 . S
O98 Mn72 2.094 . S
O98 C76 1.240 . S
O99 Mn73 2.117 . S
O99 C76 1.264 . S
C100 C93 1.403 . S
C100 C101 1.399 . S
C100 H106 0.929 . S
C101 C81 1.449 . S
C101 C100 1.399 . S
C101 H107 0.930 . S
H102 C82 0.931 . S
H103 C83 0.930 1_556 S
H104 C91 0.931 . S
H105 C92 0.929 . S
H106 C100 0.929 . S
H107 C101 0.930 . S
Mn108 O113 2.095 . S
Mn108 O123 2.162 . S
Mn108 O124 2.297 . S
Mn108 O132 2.385 . S
Mn108 O133 2.209 . S
Mn108 O134 2.094 . S
Mn109 O114 2.121 . S
Mn109 N116 2.257 . S
Mn109 N125 2.282 . S
Mn109 O133 2.215 . S
Mn109 O135 2.117 . S
C110 O132 1.234 . S
C110 O133 1.283 . S
C111 O123 1.281 . S
C111 O124 1.236 . S
C112 O134 1.240 . S
C112 O135 1.264 . S
O113 Mn108 2.095 . S
O113 C122 1.250 . S
O114 Mn109 2.121 . S
O114 C122 1.258 . S
C115 N116 1.326 . S
C115 C119 1.460 . S
C115 H121 0.929 . S
N116 Mn109 2.257 . S
N116 C115 1.326 . S
N116 C120 1.362 . S
C117 C118 1.258 . S
C117 C120 1.431 . S
C117 C137 1.449 . S
C118 C117 1.258 . S
C118 C119 1.477 . S
C118 H138 0.931 . S
C119 C115 1.460 . S
C119 C118 1.477 . S
C119 H139 0.930 . S
C120 N116 1.362 . S
C120 C117 1.431 . S
C120 C130 1.476 . S
H121 C115 0.929 . S
C122 O113 1.250 . S
C122 O114 1.258 . S
O123 Mn108 2.162 . S
O123 C111 1.281 . S
O124 Mn108 2.297 . S
O124 C111 1.236 . S
N125 Mn109 2.282 . S
N125 C126 1.328 . S
N125 C130 1.318 . S
C126 N125 1.328 . S
C126 C127 1.457 . S
C126 H131 0.929 . S
C127 C126 1.457 . S
C127 C128 1.291 . S
C127 H140 0.931 . S
C128 C127 1.291 . S
C128 C129 1.373 . S
C128 H141 0.929 . S
C129 C128 1.373 . S
C129 C130 1.396 . S
C129 C136 1.403 . S
C130 C120 1.476 . S
C130 N125 1.318 . S
C130 C129 1.396 . S
H131 C126 0.929 . S
O132 Mn108 2.385 . S
O132 C110 1.234 . S
O133 Mn108 2.209 . S
O133 Mn109 2.215 . S
O133 C110 1.283 . S
O134 Mn108 2.094 . S
O134 C112 1.240 . S
O135 Mn109 2.117 . S
O135 C112 1.264 . S
C136 C129 1.403 . S
C136 C137 1.399 . S
C136 H142 0.929 . S
C137 C117 1.449 . S
C137 C136 1.399 . S
C137 H143 0.930 . S
H138 C118 0.931 . S
H139 C119 0.930 . S
H140 C127 0.931 . S
H141 C128 0.929 . S
H142 C136 0.929 . S
H143 C137 0.930 . S
Mn144 O149 2.095 . S
Mn144 O159 2.162 . S
Mn144 O160 2.297 . S
Mn144 O168 2.385 . S
Mn144 O169 2.209 . S
Mn144 O170 2.094 . S
Mn145 O150 2.121 . S
Mn145 N152 2.257 . S
Mn145 N161 2.282 . S
Mn145 O169 2.215 . S
Mn145 O171 2.117 . S
C146 O168 1.234 . S
C146 O169 1.283 . S
C147 O159 1.281 . S
C147 O160 1.236 . S
C148 O170 1.240 . S
C148 O171 1.264 . S
O149 Mn144 2.095 . S
O149 C158 1.250 . S
O150 Mn145 2.121 . S
O150 C158 1.258 . S
C151 N152 1.326 . S
C151 C155 1.460 . S
C151 H157 0.929 . S
N152 Mn145 2.257 . S
N152 C151 1.326 . S
N152 C156 1.362 . S
C153 C154 1.258 . S
C153 C156 1.431 . S
C153 C173 1.449 . S
C154 C153 1.258 . S
C154 C155 1.477 . S
C154 H174 0.931 . S
C155 C151 1.460 . S
C155 C154 1.477 . S
C155 H175 0.930 . S
C156 N152 1.362 . S
C156 C153 1.431 . S
C156 C166 1.476 . S
H157 C151 0.929 . S
C158 O149 1.250 . S
C158 O150 1.258 . S
O159 Mn144 2.162 . S
O159 C147 1.281 . S
O160 Mn144 2.297 . S
O160 C147 1.236 . S
N161 Mn145 2.282 . S
N161 C162 1.328 . S
N161 C166 1.318 . S
C162 N161 1.328 . S
C162 C163 1.457 . S
C162 H167 0.929 . S
C163 C162 1.457 . S
C163 C164 1.291 . S
C163 H176 0.931 . S
C164 C163 1.291 . S
C164 C165 1.373 . S
C164 H177 0.929 . S
C165 C164 1.373 . S
C165 C166 1.396 . S
C165 C172 1.403 . S
C166 C156 1.476 . S
C166 N161 1.318 . S
C166 C165 1.396 . S
H167 C162 0.929 . S
O168 Mn144 2.385 . S
O168 C146 1.234 . S
O169 Mn144 2.209 . S
O169 Mn145 2.215 . S
O169 C146 1.283 . S
O170 Mn144 2.094 . S
O170 C148 1.240 . S
O171 Mn145 2.117 . S
O171 C148 1.264 . S
C172 C165 1.403 . S
C172 C173 1.399 . S
C172 H178 0.929 . S
C173 C153 1.449 . S
C173 C172 1.399 . S
C173 H179 0.930 . S
H174 C154 0.931 . S
H175 C155 0.930 . S
H176 C163 0.931 . S
H177 C164 0.929 . S
H178 C172 0.929 . S
H179 C173 0.930 . S
Mn180 O185 2.095 . S
Mn180 O195 2.162 . S
Mn180 O196 2.297 . S
Mn180 O204 2.385 . S
Mn180 O205 2.209 . S
Mn180 O206 2.094 . S
Mn181 O186 2.121 . S
Mn181 N188 2.257 . S
Mn181 N197 2.282 . S
Mn181 O205 2.215 . S
Mn181 O207 2.117 . S
C182 O204 1.234 . S
C182 O205 1.283 . S
C183 O195 1.281 . S
C183 O196 1.236 . S
C184 O206 1.240 . S
C184 O207 1.264 . S
O185 Mn180 2.095 . S
O185 C194 1.250 . S
O186 Mn181 2.121 . S
O186 C194 1.258 . S
C187 N188 1.326 . S
C187 C191 1.460 . S
C187 H193 0.929 . S
N188 Mn181 2.257 . S
N188 C187 1.326 . S
N188 C192 1.362 . S
C189 C190 1.258 . S
C189 C192 1.431 . S
C189 C209 1.449 1_455 S
C190 C189 1.258 . S
C190 C191 1.477 . S
C190 H210 0.931 1_455 S
C191 C187 1.460 . S
C191 C190 1.477 . S
C191 H211 0.930 . S
C192 N188 1.362 . S
C192 C189 1.431 . S
C192 C202 1.476 . S
H193 C187 0.929 . S
C194 O185 1.250 . S
C194 O186 1.258 . S
O195 Mn180 2.162 . S
O195 C183 1.281 . S
O196 Mn180 2.297 . S
O196 C183 1.236 . S
N197 Mn181 2.282 . S
N197 C198 1.328 . S
N197 C202 1.318 . S
C198 N197 1.328 . S
C198 C199 1.457 . S
C198 H203 0.929 . S
C199 C198 1.457 . S
C199 C200 1.291 . S
C199 H212 0.931 . S
C200 C199 1.291 . S
C200 C201 1.373 . S
C200 H213 0.929 . S
C201 C200 1.373 . S
C201 C202 1.396 . S
C201 C208 1.403 1_455 S
C202 C192 1.476 . S
C202 N197 1.318 . S
C202 C201 1.396 . S
H203 C198 0.929 . S
O204 Mn180 2.385 . S
O204 C182 1.234 . S
O205 Mn180 2.209 . S
O205 Mn181 2.215 . S
O205 C182 1.283 . S
O206 Mn180 2.094 . S
O206 C184 1.240 . S
O207 Mn181 2.117 . S
O207 C184 1.264 . S
C208 C201 1.403 1_655 S
C208 C209 1.399 . S
C208 H214 0.929 . S
C209 C189 1.449 1_655 S
C209 C208 1.399 . S
C209 H215 0.930 . S
H210 C190 0.931 1_655 S
H211 C191 0.930 . S
H212 C199 0.931 . S
H213 C200 0.929 . S
H214 C208 0.929 . S
H215 C209 0.930 . S
Mn216 O221 2.095 . S
Mn216 O231 2.162 . S
Mn216 O232 2.297 . S
Mn216 O240 2.385 . S
Mn216 O241 2.209 . S
Mn216 O242 2.094 . S
Mn217 O222 2.121 . S
Mn217 N224 2.257 . S
Mn217 N233 2.282 . S
Mn217 O241 2.215 . S
Mn217 O243 2.117 . S
C218 O240 1.234 . S
C218 O241 1.283 . S
C219 O231 1.281 . S
C219 O232 1.236 . S
C220 O242 1.240 . S
C220 O243 1.264 . S
O221 Mn216 2.095 . S
O221 C230 1.250 . S
O222 Mn217 2.121 . S
O222 C230 1.258 . S
C223 N224 1.326 . S
C223 C227 1.460 . S
C223 H229 0.929 . S
N224 Mn217 2.257 . S
N224 C223 1.326 . S
N224 C228 1.362 . S
C225 C226 1.258 . S
C225 C228 1.431 . S
C225 C245 1.449 . S
C226 C225 1.258 . S
C226 C227 1.477 . S
C226 H246 0.931 . S
C227 C223 1.460 . S
C227 C226 1.477 . S
C227 H247 0.930 . S
C228 N224 1.362 . S
C228 C225 1.431 . S
C228 C238 1.476 . S
H229 C223 0.929 . S
C230 O221 1.250 . S
C230 O222 1.258 . S
O231 Mn216 2.162 . S
O231 C219 1.281 . S
O232 Mn216 2.297 . S
O232 C219 1.236 . S
N233 Mn217 2.282 . S
N233 C234 1.328 . S
N233 C238 1.318 . S
C234 N233 1.328 . S
C234 C235 1.457 . S
C234 H239 0.929 . S
C235 C234 1.457 . S
C235 C236 1.291 . S
C235 H248 0.931 . S
C236 C235 1.291 . S
C236 C237 1.373 . S
C236 H249 0.929 . S
C237 C236 1.373 . S
C237 C238 1.396 . S
C237 C244 1.403 . S
C238 C228 1.476 . S
C238 N233 1.318 . S
C238 C237 1.396 . S
H239 C234 0.929 . S
O240 Mn216 2.385 . S
O240 C218 1.234 . S
O241 Mn216 2.209 . S
O241 Mn217 2.215 . S
O241 C218 1.283 . S
O242 Mn216 2.094 . S
O242 C220 1.240 . S
O243 Mn217 2.117 . S
O243 C220 1.264 . S
C244 C237 1.403 . S
C244 C245 1.399 . S
C244 H250 0.929 . S
C245 C225 1.449 . S
C245 C244 1.399 . S
C245 H251 0.930 . S
H246 C226 0.931 . S
H247 C227 0.930 . S
H248 C235 0.931 . S
H249 C236 0.929 . S
H250 C244 0.929 . S
H251 C245 0.930 . S
Mn252 O257 2.095 . S
Mn252 O267 2.162 . S
Mn252 O268 2.297 . S
Mn252 O276 2.385 . S
Mn252 O277 2.209 . S
Mn252 O278 2.094 . S
Mn253 O258 2.121 . S
Mn253 N260 2.257 1_556 S
Mn253 N269 2.282 . S
Mn253 O277 2.215 . S
Mn253 O279 2.117 . S
C254 O276 1.234 . S
C254 O277 1.283 . S
C255 O267 1.281 . S
C255 O268 1.236 . S
C256 O278 1.240 . S
C256 O279 1.264 . S
O257 Mn252 2.095 . S
O257 C266 1.250 . S
O258 Mn253 2.121 . S
O258 C266 1.258 . S
C259 N260 1.326 . S
C259 C263 1.460 . S
C259 H265 0.929 . S
N260 Mn253 2.257 1_554 S
N260 C259 1.326 . S
N260 C264 1.362 . S
C261 C262 1.258 . S
C261 C264 1.431 . S
C261 C281 1.449 . S
C262 C261 1.258 . S
C262 C263 1.477 . S
C262 H282 0.931 . S
C263 C259 1.460 . S
C263 C262 1.477 . S
C263 H283 0.930 . S
C264 N260 1.362 . S
C264 C261 1.431 . S
C264 C274 1.476 1_554 S
H265 C259 0.929 . S
C266 O257 1.250 . S
C266 O258 1.258 . S
O267 Mn252 2.162 . S
O267 C255 1.281 . S
O268 Mn252 2.297 . S
O268 C255 1.236 . S
N269 Mn253 2.282 . S
N269 C270 1.328 . S
N269 C274 1.318 . S
C270 N269 1.328 . S
C270 C271 1.457 1_565 S
C270 H275 0.932 . S
C271 C270 1.457 1_545 S
C271 C272 1.291 . S
C271 H284 0.931 . S
C272 C271 1.291 . S
C272 C273 1.376 1_545 S
C272 H285 0.929 . S
C273 C272 1.376 1_565 S
C273 C274 1.397 . S
C273 C280 1.399 1_556 S
C274 C264 1.476 1_556 S
C274 N269 1.318 . S
C274 C273 1.397 . S
H275 C270 0.932 . S
O276 Mn252 2.385 . S
O276 C254 1.234 . S
O277 Mn252 2.209 . S
O277 Mn253 2.215 . S
O277 C254 1.283 . S
O278 Mn252 2.094 . S
O278 C256 1.240 . S
O279 Mn253 2.117 . S
O279 C256 1.264 . S
C280 C273 1.399 1_554 S
C280 C281 1.399 . S
C280 H286 0.929 . S
C281 C261 1.449 . S
C281 C280 1.399 . S
C281 H287 0.930 . S
H282 C262 0.931 . S
H283 C263 0.930 . S
H284 C271 0.931 . S
H285 C272 0.929 . S
H286 C280 0.929 . S
H287 C281 0.930 . S
Mn288 O293 2.095 . S
Mn288 O303 2.162 . S
Mn288 O304 2.297 . S
Mn288 O312 2.385 . S
Mn288 O313 2.209 . S
Mn288 O314 2.094 . S
Mn289 O294 2.121 . S
Mn289 N296 2.257 1_556 S
Mn289 N305 2.282 . S
Mn289 O313 2.215 . S
Mn289 O315 2.117 . S
C290 O312 1.234 . S
C290 O313 1.283 . S
C291 O303 1.281 . S
C291 O304 1.236 . S
C292 O314 1.240 . S
C292 O315 1.264 . S
O293 Mn288 2.095 . S
O293 C302 1.250 . S
O294 Mn289 2.121 . S
O294 C302 1.258 . S
C295 N296 1.326 . S
C295 C299 1.460 . S
C295 H301 0.929 . S
N296 Mn289 2.257 1_554 S
N296 C295 1.326 . S
N296 C300 1.362 . S
C297 C298 1.258 . S
C297 C300 1.431 . S
C297 C317 1.449 . S
C298 C297 1.258 . S
C298 C299 1.477 . S
C298 H318 0.931 . S
C299 C295 1.460 . S
C299 C298 1.477 . S
C299 H319 0.930 . S
C300 N296 1.362 . S
C300 C297 1.431 . S
C300 C310 1.476 . S
H301 C295 0.929 . S
C302 O293 1.250 . S
C302 O294 1.258 . S
O303 Mn288 2.162 . S
O303 C291 1.281 . S
O304 Mn288 2.297 . S
O304 C291 1.236 . S
N305 Mn289 2.282 . S
N305 C306 1.328 . S
N305 C310 1.318 1_556 S
C306 N305 1.328 . S
C306 C307 1.457 1_455 S
C306 H311 0.929 1_455 S
C307 C306 1.457 1_655 S
C307 C308 1.291 . S
C307 H320 0.931 . S
C308 C307 1.291 . S
C308 C309 1.373 1_656 S
C308 H321 0.930 . S
C309 C308 1.373 1_454 S
C309 C310 1.396 . S
C309 C316 1.403 . S
C310 C300 1.476 . S
C310 N305 1.318 1_554 S
C310 C309 1.396 . S
H311 C306 0.929 1_655 S
O312 Mn288 2.385 . S
O312 C290 1.234 . S
O313 Mn288 2.209 . S
O313 Mn289 2.215 . S
O313 C290 1.283 . S
O314 Mn288 2.094 . S
O314 C292 1.240 . S
O315 Mn289 2.117 . S
O315 C292 1.264 . S
C316 C309 1.403 . S
C316 C317 1.399 . S
C316 H322 0.929 . S
C317 C297 1.449 . S
C317 C316 1.399 . S
C317 H323 0.930 . S
H318 C298 0.931 . S
H319 C299 0.930 . S
H320 C307 0.931 . S
H321 C308 0.930 . S
H322 C316 0.929 . S
H323 C317 0.930 . S
Mn324 O329 2.095 . S
Mn324 O339 2.162 . S
Mn324 O340 2.297 . S
Mn324 O348 2.385 . S
Mn324 O349 2.209 . S
Mn324 O350 2.094 . S
Mn325 O330 2.121 . S
Mn325 N332 2.257 . S
Mn325 N341 2.282 . S
Mn325 O349 2.215 . S
Mn325 O351 2.117 . S
C326 O348 1.234 . S
C326 O349 1.283 . S
C327 O339 1.281 . S
C327 O340 1.236 . S
C328 O350 1.240 . S
C328 O351 1.264 . S
O329 Mn324 2.095 . S
O329 C338 1.250 . S
O330 Mn325 2.121 . S
O330 C338 1.258 . S
C331 N332 1.326 . S
C331 C335 1.460 . S
C331 H337 0.929 . S
N332 Mn325 2.257 . S
N332 C331 1.326 . S
N332 C336 1.362 . S
C333 C334 1.258 . S
C333 C336 1.431 . S
C333 C353 1.449 . S
C334 C333 1.258 . S
C334 C335 1.477 . S
C334 H354 0.931 . S
C335 C331 1.460 . S
C335 C334 1.477 . S
C335 H355 0.930 . S
C336 N332 1.362 . S
C336 C333 1.431 . S
C336 C346 1.476 . S
H337 C331 0.929 . S
C338 O329 1.250 . S
C338 O330 1.258 . S
O339 Mn324 2.162 . S
O339 C327 1.281 . S
O340 Mn324 2.297 . S
O340 C327 1.236 . S
N341 Mn325 2.282 . S
N341 C342 1.328 . S
N341 C346 1.318 . S
C342 N341 1.328 . S
C342 C343 1.457 . S
C342 H347 0.929 . S
C343 C342 1.457 . S
C343 C344 1.291 . S
C343 H356 0.931 . S
C344 C343 1.291 . S
C344 C345 1.373 . S
C344 H357 0.929 . S
C345 C344 1.373 . S
C345 C346 1.396 . S
C345 C352 1.403 . S
C346 C336 1.476 . S
C346 N341 1.318 . S
C346 C345 1.396 . S
H347 C342 0.929 . S
O348 Mn324 2.385 . S
O348 C326 1.234 . S
O349 Mn324 2.209 . S
O349 Mn325 2.215 . S
O349 C326 1.283 . S
O350 Mn324 2.094 . S
O350 C328 1.240 . S
O351 Mn325 2.117 . S
O351 C328 1.264 . S
C352 C345 1.403 . S
C352 C353 1.399 . S
C352 H358 0.929 . S
C353 C333 1.449 . S
C353 C352 1.399 . S
C353 H359 0.930 . S
H354 C334 0.931 . S
H355 C335 0.930 . S
H356 C343 0.931 . S
H357 C344 0.929 . S
H358 C352 0.929 . S
H359 C353 0.930 . S
Mn360 O365 2.095 . S
Mn360 O375 2.162 . S
Mn360 O376 2.297 . S
Mn360 O384 2.385 . S
Mn360 O385 2.209 . S
Mn360 O386 2.094 . S
Mn361 O366 2.121 . S
Mn361 N368 2.257 . S
Mn361 N377 2.282 . S
Mn361 O385 2.215 . S
Mn361 O387 2.117 . S
C362 O384 1.234 . S
C362 O385 1.283 . S
C363 O375 1.281 . S
C363 O376 1.236 . S
C364 O386 1.240 . S
C364 O387 1.264 . S
O365 Mn360 2.095 . S
O365 C374 1.250 . S
O366 Mn361 2.121 . S
O366 C374 1.258 . S
C367 N368 1.326 . S
C367 C371 1.460 . S
C367 H373 0.929 . S
N368 Mn361 2.257 . S
N368 C367 1.326 . S
N368 C372 1.362 . S
C369 C370 1.258 . S
C369 C372 1.431 . S
C369 C389 1.449 . S
C370 C369 1.258 . S
C370 C371 1.477 . S
C370 H390 0.931 . S
C371 C367 1.460 . S
C371 C370 1.477 . S
C371 H391 0.930 . S
C372 N368 1.362 . S
C372 C369 1.431 . S
C372 C382 1.476 . S
H373 C367 0.929 . S
C374 O365 1.250 . S
C374 O366 1.258 . S
O375 Mn360 2.162 . S
O375 C363 1.281 . S
O376 Mn360 2.297 . S
O376 C363 1.236 . S
N377 Mn361 2.282 . S
N377 C378 1.328 . S
N377 C382 1.318 . S
C378 N377 1.328 . S
C378 C379 1.457 1_545 S
C378 H383 0.929 1_545 S
C379 C378 1.457 1_565 S
C379 C380 1.291 . S
C379 H392 0.931 . S
C380 C379 1.291 . S
C380 C381 1.373 1_565 S
C380 H393 0.929 . S
C381 C380 1.373 1_545 S
C381 C382 1.396 . S
C381 C388 1.403 . S
C382 C372 1.476 . S
C382 N377 1.318 . S
C382 C381 1.396 . S
H383 C378 0.929 1_565 S
O384 Mn360 2.385 . S
O384 C362 1.234 . S
O385 Mn360 2.209 . S
O385 Mn361 2.215 . S
O385 C362 1.283 . S
O386 Mn360 2.094 . S
O386 C364 1.240 . S
O387 Mn361 2.117 . S
O387 C364 1.264 . S
C388 C381 1.403 . S
C388 C389 1.399 . S
C388 H394 0.929 . S
C389 C369 1.449 . S
C389 C388 1.399 . S
C389 H395 0.930 . S
H390 C370 0.931 . S
H391 C371 0.930 . S
H392 C379 0.931 . S
H393 C380 0.929 . S
H394 C388 0.929 . S
H395 C389 0.930 . S
Mn396 O401 2.095 . S
Mn396 O411 2.162 . S
Mn396 O412 2.297 . S
Mn396 O420 2.385 . S
Mn396 O421 2.209 . S
Mn396 O422 2.094 . S
Mn397 O402 2.121 . S
Mn397 N404 2.257 . S
Mn397 N413 2.282 1_655 S
Mn397 O421 2.215 . S
Mn397 O423 2.117 . S
C398 O420 1.234 . S
C398 O421 1.283 . S
C399 O411 1.281 . S
C399 O412 1.236 . S
C400 O422 1.240 . S
C400 O423 1.264 . S
O401 Mn396 2.095 . S
O401 C410 1.250 . S
O402 Mn397 2.121 . S
O402 C410 1.258 . S
C403 N404 1.326 . S
C403 C407 1.460 1_655 S
C403 H409 0.929 . S
N404 Mn397 2.257 . S
N404 C403 1.326 . S
N404 C408 1.362 1_655 S
C405 C406 1.258 . S
C405 C408 1.431 . S
C405 C425 1.449 . S
C406 C405 1.258 . S
C406 C407 1.477 . S
C406 H426 0.931 . S
C407 C403 1.460 1_455 S
C407 C406 1.477 . S
C407 H427 0.930 1_455 S
C408 N404 1.362 1_455 S
C408 C405 1.431 . S
C408 C418 1.476 . S
H409 C403 0.929 . S
C410 O401 1.250 . S
C410 O402 1.258 . S
O411 Mn396 2.162 . S
O411 C399 1.281 . S
O412 Mn396 2.297 . S
O412 C399 1.236 . S
N413 Mn397 2.282 1_455 S
N413 C414 1.328 . S
N413 C418 1.318 . S
C414 N413 1.328 . S
C414 C415 1.457 . S
C414 H419 0.929 . S
C415 C414 1.457 . S
C415 C416 1.291 . S
C415 H428 0.931 . S
C416 C415 1.291 . S
C416 C417 1.373 . S
C416 H429 0.929 . S
C417 C416 1.373 . S
C417 C418 1.396 . S
C417 C424 1.403 . S
C418 C408 1.476 . S
C418 N413 1.318 . S
C418 C417 1.396 . S
H419 C414 0.929 . S
O420 Mn396 2.385 . S
O420 C398 1.234 . S
O421 Mn396 2.209 . S
O421 Mn397 2.215 . S
O421 C398 1.283 . S
O422 Mn396 2.094 . S
O422 C400 1.240 . S
O423 Mn397 2.117 . S
O423 C400 1.264 . S
C424 C417 1.403 . S
C424 C425 1.399 . S
C424 H430 0.929 . S
C425 C405 1.449 . S
C425 C424 1.399 . S
C425 H431 0.930 . S
H426 C406 0.931 . S
H427 C407 0.930 1_655 S
H428 C415 0.931 . S
H429 C416 0.929 . S
H430 C424 0.929 . S
H431 C425 0.930 . S
Mn432 O437 2.095 . S
Mn432 O447 2.162 . S
Mn432 O448 2.297 . S
Mn432 O456 2.385 . S
Mn432 O457 2.209 . S
Mn432 O458 2.094 . S
Mn433 O438 2.121 . S
Mn433 N440 2.257 . S
Mn433 N449 2.282 . S
Mn433 O457 2.215 . S
Mn433 O459 2.117 . S
C434 O456 1.234 . S
C434 O457 1.283 . S
C435 O447 1.281 . S
C435 O448 1.236 . S
C436 O458 1.240 . S
C436 O459 1.264 . S
O437 Mn432 2.095 . S
O437 C446 1.250 . S
O438 Mn433 2.121 . S
O438 C446 1.258 . S
C439 N440 1.326 . S
C439 C443 1.460 . S
C439 H445 0.929 . S
N440 Mn433 2.257 . S
N440 C439 1.326 . S
N440 C444 1.362 . S
C441 C442 1.258 . S
C441 C444 1.431 . S
C441 C461 1.449 . S
C442 C441 1.258 . S
C442 C443 1.477 . S
C442 H462 0.931 . S
C443 C439 1.460 . S
C443 C442 1.477 . S
C443 H463 0.930 . S
C444 N440 1.362 . S
C444 C441 1.431 . S
C444 C454 1.476 . S
H445 C439 0.929 . S
C446 O437 1.250 . S
C446 O438 1.258 . S
O447 Mn432 2.162 . S
O447 C435 1.281 . S
O448 Mn432 2.297 . S
O448 C435 1.236 . S
N449 Mn433 2.282 . S
N449 C450 1.328 . S
N449 C454 1.318 . S
C450 N449 1.328 . S
C450 C451 1.457 . S
C450 H455 0.929 . S
C451 C450 1.457 . S
C451 C452 1.291 . S
C451 H464 0.931 . S
C452 C451 1.291 . S
C452 C453 1.373 . S
C452 H465 0.929 . S
C453 C452 1.373 . S
C453 C454 1.396 . S
C453 C460 1.403 . S
C454 C444 1.476 . S
C454 N449 1.318 . S
C454 C453 1.396 . S
H455 C450 0.929 . S
O456 Mn432 2.385 . S
O456 C434 1.234 . S
O457 Mn432 2.209 . S
O457 Mn433 2.215 . S
O457 C434 1.283 . S
O458 Mn432 2.094 . S
O458 C436 1.240 . S
O459 Mn433 2.117 . S
O459 C436 1.264 . S
C460 C453 1.403 . S
C460 C461 1.399 . S
C460 H466 0.929 . S
C461 C441 1.449 . S
C461 C460 1.399 . S
C461 H467 0.930 . S
H462 C442 0.931 . S
H463 C443 0.930 . S
H464 C451 0.931 . S
H465 C452 0.929 . S
H466 C460 0.929 . S
H467 C461 0.930 . S
Mn468 O473 2.095 . S
Mn468 O483 2.162 . S
Mn468 O484 2.297 . S
Mn468 O492 2.385 . S
Mn468 O493 2.209 . S
Mn468 O494 2.094 . S
Mn469 O474 2.121 . S
Mn469 N476 2.257 . S
Mn469 N485 2.282 . S
Mn469 O493 2.215 . S
Mn469 O495 2.117 . S
C470 O492 1.234 . S
C470 O493 1.283 . S
C471 O483 1.281 . S
C471 O484 1.236 . S
C472 O494 1.240 . S
C472 O495 1.264 . S
O473 Mn468 2.095 . S
O473 C482 1.250 . S
O474 Mn469 2.121 . S
O474 C482 1.258 . S
C475 N476 1.326 . S
C475 C479 1.460 . S
C475 H481 0.929 . S
N476 Mn469 2.257 . S
N476 C475 1.326 . S
N476 C480 1.362 . S
C477 C478 1.258 . S
C477 C480 1.431 . S
C477 C497 1.449 . S
C478 C477 1.258 . S
C478 C479 1.477 . S
C478 H498 0.931 . S
C479 C475 1.460 . S
C479 C478 1.477 . S
C479 H499 0.930 . S
C480 N476 1.362 . S
C480 C477 1.431 . S
C480 C490 1.476 . S
H481 C475 0.929 . S
C482 O473 1.250 . S
C482 O474 1.258 . S
O483 Mn468 2.162 . S
O483 C471 1.281 . S
O484 Mn468 2.297 . S
O484 C471 1.236 . S
N485 Mn469 2.282 . S
N485 C486 1.328 . S
N485 C490 1.318 . S
C486 N485 1.328 . S
C486 C487 1.457 . S
C486 H491 0.929 . S
C487 C486 1.457 . S
C487 C488 1.291 . S
C487 H500 0.931 . S
C488 C487 1.291 . S
C488 C489 1.373 . S
C488 H501 0.929 . S
C489 C488 1.373 . S
C489 C490 1.396 . S
C489 C496 1.403 . S
C490 C480 1.476 . S
C490 N485 1.318 . S
C490 C489 1.396 . S
H491 C486 0.929 . S
O492 Mn468 2.385 . S
O492 C470 1.234 . S
O493 Mn468 2.209 . S
O493 Mn469 2.215 . S
O493 C470 1.283 . S
O494 Mn468 2.094 . S
O494 C472 1.240 . S
O495 Mn469 2.117 . S
O495 C472 1.264 . S
C496 C489 1.403 . S
C496 C497 1.399 . S
C496 H502 0.929 . S
C497 C477 1.449 . S
C497 C496 1.399 . S
C497 H503 0.930 . S
H498 C478 0.931 . S
H499 C479 0.930 . S
H500 C487 0.931 . S
H501 C488 0.929 . S
H502 C496 0.929 . S
H503 C497 0.930 . S
Mn504 O509 2.095 . S
Mn504 O519 2.162 . S
Mn504 O520 2.297 . S
Mn504 O528 2.385 . S
Mn504 O529 2.209 . S
Mn504 O530 2.094 . S
Mn505 O510 2.121 . S
Mn505 N512 2.257 1_545 S
Mn505 N521 2.282 1_545 S
Mn505 O529 2.215 . S
Mn505 O531 2.117 . S
C506 O528 1.234 . S
C506 O529 1.283 . S
C507 O519 1.281 . S
C507 O520 1.236 . S
C508 O530 1.240 . S
C508 O531 1.264 . S
O509 Mn504 2.095 . S
O509 C518 1.250 . S
O510 Mn505 2.121 . S
O510 C518 1.258 . S
C511 N512 1.326 . S
C511 C515 1.460 . S
C511 H517 0.929 . S
N512 Mn505 2.257 1_565 S
N512 C511 1.326 . S
N512 C516 1.362 . S
C513 C514 1.258 . S
C513 C516 1.431 . S
C513 C533 1.449 . S
C514 C513 1.258 . S
C514 C515 1.477 . S
C514 H534 0.931 . S
C515 C511 1.460 . S
C515 C514 1.477 . S
C515 H535 0.930 . S
C516 N512 1.362 . S
C516 C513 1.431 . S
C516 C526 1.476 . S
H517 C511 0.929 . S
C518 O509 1.250 . S
C518 O510 1.258 . S
O519 Mn504 2.162 . S
O519 C507 1.281 . S
O520 Mn504 2.297 . S
O520 C507 1.236 . S
N521 Mn505 2.282 1_565 S
N521 C522 1.328 . S
N521 C526 1.318 . S
C522 N521 1.328 . S
C522 C523 1.457 . S
C522 H527 0.929 . S
C523 C522 1.457 . S
C523 C524 1.291 . S
C523 H536 0.931 . S
C524 C523 1.291 . S
C524 C525 1.373 . S
C524 H537 0.929 . S
C525 C524 1.373 . S
C525 C526 1.396 . S
C525 C532 1.403 . S
C526 C516 1.476 . S
C526 N521 1.318 . S
C526 C525 1.396 . S
H527 C522 0.929 . S
O528 Mn504 2.385 . S
O528 C506 1.234 . S
O529 Mn504 2.209 . S
O529 Mn505 2.215 . S
O529 C506 1.283 . S
O530 Mn504 2.094 . S
O530 C508 1.240 . S
O531 Mn505 2.117 . S
O531 C508 1.264 . S
C532 C525 1.403 . S
C532 C533 1.399 . S
C532 H538 0.929 . S
C533 C513 1.449 . S
C533 C532 1.399 . S
C533 H539 0.930 . S
H534 C514 0.931 . S
H535 C515 0.930 . S
H536 C523 0.931 . S
H537 C524 0.929 . S
H538 C532 0.929 . S
H539 C533 0.930 . S
Mn540 O545 2.095 . S
Mn540 O555 2.162 . S
Mn540 O556 2.297 . S
Mn540 O564 2.385 . S
Mn540 O565 2.209 . S
Mn540 O566 2.094 . S
Mn541 O546 2.121 . S
Mn541 N548 2.257 . S
Mn541 N557 2.282 . S
Mn541 O565 2.215 . S
Mn541 O567 2.117 . S
C542 O564 1.234 . S
C542 O565 1.283 . S
C543 O555 1.281 . S
C543 O556 1.236 . S
C544 O566 1.240 . S
C544 O567 1.264 . S
O545 Mn540 2.095 . S
O545 C554 1.250 . S
O546 Mn541 2.121 . S
O546 C554 1.258 . S
C547 N548 1.326 . S
C547 C551 1.460 . S
C547 H553 0.929 . S
N548 Mn541 2.257 . S
N548 C547 1.326 . S
N548 C552 1.362 . S
C549 C550 1.258 . S
C549 C552 1.431 . S
C549 C569 1.449 . S
C550 C549 1.258 . S
C550 C551 1.477 . S
C550 H570 0.931 . S
C551 C547 1.460 . S
C551 C550 1.477 . S
C551 H571 0.930 . S
C552 N548 1.362 . S
C552 C549 1.431 . S
C552 C562 1.476 . S
H553 C547 0.929 . S
C554 O545 1.250 . S
C554 O546 1.258 . S
O555 Mn540 2.162 . S
O555 C543 1.281 . S
O556 Mn540 2.297 . S
O556 C543 1.236 . S
N557 Mn541 2.282 . S
N557 C558 1.328 . S
N557 C562 1.318 . S
C558 N557 1.328 . S
C558 C559 1.457 . S
C558 H563 0.929 . S
C559 C558 1.457 . S
C559 C560 1.291 . S
C559 H572 0.931 . S
C560 C559 1.291 . S
C560 C561 1.373 . S
C560 H573 0.929 . S
C561 C560 1.373 . S
C561 C562 1.396 . S
C561 C568 1.403 . S
C562 C552 1.476 . S
C562 N557 1.318 . S
C562 C561 1.396 . S
H563 C558 0.929 . S
O564 Mn540 2.385 . S
O564 C542 1.234 . S
O565 Mn540 2.209 . S
O565 Mn541 2.215 . S
O565 C542 1.283 . S
O566 Mn540 2.094 . S
O566 C544 1.240 . S
O567 Mn541 2.117 . S
O567 C544 1.264 . S
C568 C561 1.403 . S
C568 C569 1.399 . S
C568 H574 0.929 . S
C569 C549 1.449 . S
C569 C568 1.399 . S
C569 H575 0.930 . S
H570 C550 0.931 . S
H571 C551 0.930 . S
H572 C559 0.931 . S
H573 C560 0.929 . S
H574 C568 0.929 . S
H575 C569 0.930 . S
Mn576 O581 2.095 . S
Mn576 O591 2.162 . S
Mn576 O592 2.297 . S
Mn576 O600 2.385 . S
Mn576 O601 2.209 . S
Mn576 O602 2.094 . S
Mn577 O582 2.121 . S
Mn577 N584 2.257 . S
Mn577 N593 2.282 . S
Mn577 O601 2.215 . S
Mn577 O603 2.117 . S
C578 O600 1.234 . S
C578 O601 1.283 . S
C579 O591 1.281 . S
C579 O592 1.236 . S
C580 O602 1.240 . S
C580 O603 1.264 . S
O581 Mn576 2.095 . S
O581 C590 1.250 . S
O582 Mn577 2.121 . S
O582 C590 1.258 . S
C583 N584 1.326 . S
C583 C587 1.460 . S
C583 H589 0.929 . S
N584 Mn577 2.257 . S
N584 C583 1.326 . S
N584 C588 1.362 . S
C585 C586 1.258 . S
C585 C588 1.431 . S
C585 C605 1.449 . S
C586 C585 1.258 . S
C586 C587 1.477 . S
C586 H606 0.931 . S
C587 C583 1.460 . S
C587 C586 1.477 . S
C587 H607 0.930 . S
C588 N584 1.362 . S
C588 C585 1.431 . S
C588 C598 1.476 . S
H589 C583 0.929 . S
C590 O581 1.250 . S
C590 O582 1.258 . S
O591 Mn576 2.162 . S
O591 C579 1.281 . S
O592 Mn576 2.297 . S
O592 C579 1.236 . S
N593 Mn577 2.282 . S
N593 C594 1.328 . S
N593 C598 1.318 . S
C594 N593 1.328 . S
C594 C595 1.457 . S
C594 H599 0.929 . S
C595 C594 1.457 . S
C595 C596 1.291 . S
C595 H608 0.931 . S
C596 C595 1.291 . S
C596 C597 1.373 . S
C596 H609 0.929 . S
C597 C596 1.373 . S
C597 C598 1.396 . S
C597 C604 1.403 . S
C598 C588 1.476 . S
C598 N593 1.318 . S
C598 C597 1.396 . S
H599 C594 0.929 . S
O600 Mn576 2.385 . S
O600 C578 1.234 . S
O601 Mn576 2.209 . S
O601 Mn577 2.215 . S
O601 C578 1.283 . S
O602 Mn576 2.094 . S
O602 C580 1.240 . S
O603 Mn577 2.117 . S
O603 C580 1.264 . S
C604 C597 1.403 . S
C604 C605 1.399 . S
C604 H610 0.929 . S
C605 C585 1.449 . S
C605 C604 1.399 . S
C605 H611 0.930 . S
H606 C586 0.931 . S
H607 C587 0.930 . S
H608 C595 0.931 . S
H609 C596 0.929 . S
H610 C604 0.929 . S
H611 C605 0.930 . S
Mn612 O617 2.095 . S
Mn612 O627 2.162 . S
Mn612 O628 2.297 . S
Mn612 O636 2.385 . S
Mn612 O637 2.209 . S
Mn612 O638 2.094 . S
Mn613 O618 2.121 . S
Mn613 N620 2.257 . S
Mn613 N629 2.282 . S
Mn613 O637 2.215 . S
Mn613 O639 2.117 . S
C614 O636 1.234 . S
C614 O637 1.283 . S
C615 O627 1.281 . S
C615 O628 1.236 . S
C616 O638 1.240 . S
C616 O639 1.264 . S
O617 Mn612 2.095 . S
O617 C626 1.250 . S
O618 Mn613 2.121 . S
O618 C626 1.258 . S
C619 N620 1.326 . S
C619 C623 1.460 . S
C619 H625 0.929 . S
N620 Mn613 2.257 . S
N620 C619 1.326 . S
N620 C624 1.362 . S
C621 C622 1.258 . S
C621 C624 1.431 . S
C621 C641 1.449 . S
C622 C621 1.258 . S
C622 C623 1.477 . S
C622 H642 0.931 . S
C623 C619 1.460 . S
C623 C622 1.477 . S
C623 H643 0.930 . S
C624 N620 1.362 . S
C624 C621 1.431 . S
C624 C634 1.476 . S
H625 C619 0.929 . S
C626 O617 1.250 . S
C626 O618 1.258 . S
O627 Mn612 2.162 . S
O627 C615 1.281 . S
O628 Mn612 2.297 . S
O628 C615 1.236 . S
N629 Mn613 2.282 . S
N629 C630 1.328 . S
N629 C634 1.318 . S
C630 N629 1.328 . S
C630 C631 1.457 . S
C630 H635 0.929 . S
C631 C630 1.457 . S
C631 C632 1.291 . S
C631 H644 0.931 . S
C632 C631 1.291 . S
C632 C633 1.373 . S
C632 H645 0.929 . S
C633 C632 1.373 . S
C633 C634 1.396 . S
C633 C640 1.403 . S
C634 C624 1.476 . S
C634 N629 1.318 . S
C634 C633 1.396 . S
H635 C630 0.929 . S
O636 Mn612 2.385 . S
O636 C614 1.234 . S
O637 Mn612 2.209 . S
O637 Mn613 2.215 . S
O637 C614 1.283 . S
O638 Mn612 2.094 . S
O638 C616 1.240 . S
O639 Mn613 2.117 . S
O639 C616 1.264 . S
C640 C633 1.403 . S
C640 C641 1.399 . S
C640 H646 0.929 . S
C641 C621 1.449 . S
C641 C640 1.399 . S
C641 H647 0.930 . S
H642 C622 0.931 . S
H643 C623 0.930 . S
H644 C631 0.931 . S
H645 C632 0.929 . S
H646 C640 0.929 . S
H647 C641 0.930 . S
Mn648 O653 2.095 . S
Mn648 O663 2.162 . S
Mn648 O664 2.297 . S
Mn648 O672 2.385 . S
Mn648 O673 2.209 . S
Mn648 O674 2.094 . S
Mn649 O654 2.121 . S
Mn649 N656 2.257 . S
Mn649 N665 2.282 . S
Mn649 O673 2.215 . S
Mn649 O675 2.117 . S
C650 O672 1.234 . S
C650 O673 1.283 . S
C651 O663 1.281 . S
C651 O664 1.236 . S
C652 O674 1.240 . S
C652 O675 1.264 . S
O653 Mn648 2.095 . S
O653 C662 1.250 . S
O654 Mn649 2.121 . S
O654 C662 1.258 . S
C655 N656 1.326 . S
C655 C659 1.460 . S
C655 H661 0.929 . S
N656 Mn649 2.257 . S
N656 C655 1.326 . S
N656 C660 1.362 . S
C657 C658 1.258 . S
C657 C660 1.431 . S
C657 C677 1.449 . S
C658 C657 1.258 . S
C658 C659 1.477 . S
C658 H678 0.931 . S
C659 C655 1.460 . S
C659 C658 1.477 . S
C659 H679 0.930 . S
C660 N656 1.362 . S
C660 C657 1.431 . S
C660 C670 1.476 . S
H661 C655 0.929 . S
C662 O653 1.250 . S
C662 O654 1.258 . S
O663 Mn648 2.162 . S
O663 C651 1.281 . S
O664 Mn648 2.297 . S
O664 C651 1.236 . S
N665 Mn649 2.282 . S
N665 C666 1.328 . S
N665 C670 1.318 . S
C666 N665 1.328 . S
C666 C667 1.457 . S
C666 H671 0.929 . S
C667 C666 1.457 . S
C667 C668 1.291 . S
C667 H680 0.931 . S
C668 C667 1.291 . S
C668 C669 1.373 . S
C668 H681 0.929 . S
C669 C668 1.373 . S
C669 C670 1.396 . S
C669 C676 1.403 . S
C670 C660 1.476 . S
C670 N665 1.318 . S
C670 C669 1.396 . S
H671 C666 0.929 . S
O672 Mn648 2.385 . S
O672 C650 1.234 . S
O673 Mn648 2.209 . S
O673 Mn649 2.215 . S
O673 C650 1.283 . S
O674 Mn648 2.094 . S
O674 C652 1.240 . S
O675 Mn649 2.117 . S
O675 C652 1.264 . S
C676 C669 1.403 . S
C676 C677 1.399 . S
C676 H682 0.929 . S
C677 C657 1.449 . S
C677 C676 1.399 . S
C677 H683 0.930 . S
H678 C658 0.931 . S
H679 C659 0.930 . S
H680 C667 0.931 . S
H681 C668 0.929 . S
H682 C676 0.929 . S
H683 C677 0.930 . S
Mn684 O689 2.095 . S
Mn684 O699 2.162 . S
Mn684 O700 2.297 . S
Mn684 O708 2.385 . S
Mn684 O709 2.209 . S
Mn684 O710 2.094 . S
Mn685 O690 2.121 . S
Mn685 N692 2.257 . S
Mn685 N701 2.282 . S
Mn685 O709 2.215 . S
Mn685 O711 2.117 . S
C686 O708 1.234 . S
C686 O709 1.283 . S
C687 O699 1.281 . S
C687 O700 1.236 . S
C688 O710 1.240 . S
C688 O711 1.264 . S
O689 Mn684 2.095 . S
O689 C698 1.250 . S
O690 Mn685 2.121 . S
O690 C698 1.258 . S
C691 N692 1.326 . S
C691 C695 1.460 . S
C691 H697 0.929 . S
N692 Mn685 2.257 . S
N692 C691 1.326 . S
N692 C696 1.362 . S
C693 C694 1.258 . S
C693 C696 1.431 . S
C693 C713 1.449 . S
C694 C693 1.258 . S
C694 C695 1.477 . S
C694 H714 0.931 . S
C695 C691 1.460 . S
C695 C694 1.477 . S
C695 H715 0.930 . S
C696 N692 1.362 . S
C696 C693 1.431 . S
C696 C706 1.476 . S
H697 C691 0.929 . S
C698 O689 1.250 . S
C698 O690 1.258 . S
O699 Mn684 2.162 . S
O699 C687 1.281 . S
O700 Mn684 2.297 . S
O700 C687 1.236 . S
N701 Mn685 2.282 . S
N701 C702 1.328 . S
N701 C706 1.318 . S
C702 N701 1.328 . S
C702 C703 1.457 . S
C702 H707 0.929 . S
C703 C702 1.457 . S
C703 C704 1.291 . S
C703 H716 0.931 . S
C704 C703 1.291 . S
C704 C705 1.373 . S
C704 H717 0.929 1_655 S
C705 C704 1.373 . S
C705 C706 1.396 . S
C705 C712 1.420 . S
C706 C696 1.476 . S
C706 N701 1.318 . S
C706 C705 1.396 . S
H707 C702 0.929 . S
O708 Mn684 2.385 . S
O708 C686 1.234 . S
O709 Mn684 2.209 . S
O709 Mn685 2.215 . S
O709 C686 1.283 . S
O710 Mn684 2.094 . S
O710 C688 1.240 . S
O711 Mn685 2.117 . S
O711 C688 1.264 . S
C712 C705 1.420 . S
C712 C713 1.398 . S
C712 H718 0.913 1_655 S
C713 C693 1.449 . S
C713 C712 1.398 . S
C713 H719 0.920 1_655 S
H714 C694 0.931 . S
H715 C695 0.930 . S
H716 C703 0.931 . S
H717 C704 0.929 1_455 S
H718 C712 0.913 1_455 S
H719 C713 0.920 1_455 S
Mn720 O725 2.095 . S
Mn720 O735 2.162 . S
Mn720 O736 2.297 . S
Mn720 O744 2.385 . S
Mn720 O745 2.209 . S
Mn720 O746 2.094 . S
Mn721 O726 2.121 . S
Mn721 N728 2.257 . S
Mn721 N737 2.282 . S
Mn721 O745 2.215 . S
Mn721 O747 2.117 . S
C722 O744 1.234 . S
C722 O745 1.283 . S
C723 O735 1.281 . S
C723 O736 1.236 . S
C724 O746 1.240 . S
C724 O747 1.264 . S
O725 Mn720 2.095 . S
O725 C734 1.250 . S
O726 Mn721 2.121 . S
O726 C734 1.258 . S
C727 N728 1.326 . S
C727 C731 1.460 . S
C727 H733 0.929 . S
N728 Mn721 2.257 . S
N728 C727 1.326 . S
N728 C732 1.362 . S
C729 C730 1.258 . S
C729 C732 1.431 . S
C729 C749 1.449 . S
C730 C729 1.258 . S
C730 C731 1.477 . S
C730 H750 0.931 . S
C731 C727 1.460 . S
C731 C730 1.477 . S
C731 H751 0.930 . S
C732 N728 1.362 . S
C732 C729 1.431 . S
C732 C742 1.476 . S
H733 C727 0.929 . S
C734 O725 1.250 . S
C734 O726 1.258 . S
O735 Mn720 2.162 . S
O735 C723 1.281 . S
O736 Mn720 2.297 . S
O736 C723 1.236 . S
N737 Mn721 2.282 . S
N737 C738 1.328 . S
N737 C742 1.318 . S
C738 N737 1.328 . S
C738 C739 1.457 . S
C738 H743 0.929 . S
C739 C738 1.457 . S
C739 C740 1.291 . S
C739 H752 0.931 . S
C740 C739 1.291 . S
C740 C741 1.373 . S
C740 H753 0.929 . S
C741 C740 1.373 . S
C741 C742 1.396 . S
C741 C748 1.403 . S
C742 C732 1.476 . S
C742 N737 1.318 . S
C742 C741 1.396 . S
H743 C738 0.929 . S
O744 Mn720 2.385 . S
O744 C722 1.234 . S
O745 Mn720 2.209 . S
O745 Mn721 2.215 . S
O745 C722 1.283 . S
O746 Mn720 2.094 . S
O746 C724 1.240 . S
O747 Mn721 2.117 . S
O747 C724 1.264 . S
C748 C741 1.403 . S
C748 C749 1.399 . S
C748 H754 0.929 . S
C749 C729 1.449 . S
C749 C748 1.399 . S
C749 H755 0.930 . S
H750 C730 0.931 . S
H751 C731 0.930 . S
H752 C739 0.931 . S
H753 C740 0.929 . S
H754 C748 0.929 . S
H755 C749 0.930 . S
Mn756 O761 2.095 . S
Mn756 O771 2.162 . S
Mn756 O772 2.297 . S
Mn756 O780 2.385 . S
Mn756 O781 2.209 . S
Mn756 O782 2.094 . S
Mn757 O762 2.121 . S
Mn757 N764 2.257 . S
Mn757 N773 2.282 . S
Mn757 O781 2.215 . S
Mn757 O783 2.117 . S
C758 O780 1.234 . S
C758 O781 1.283 . S
C759 O771 1.281 . S
C759 O772 1.236 . S
C760 O782 1.240 . S
C760 O783 1.264 . S
O761 Mn756 2.095 . S
O761 C770 1.250 . S
O762 Mn757 2.121 . S
O762 C770 1.258 . S
C763 N764 1.326 1_565 S
C763 C767 1.460 . S
C763 H769 0.929 1_565 S
N764 Mn757 2.257 . S
N764 C763 1.326 1_545 S
N764 C768 1.362 . S
C765 C766 1.258 . S
C765 C768 1.431 1_565 S
C765 C785 1.449 . S
C766 C765 1.258 . S
C766 C767 1.477 . S
C766 H786 0.931 . S
C767 C763 1.460 . S
C767 C766 1.477 . S
C767 H787 0.930 . S
C768 N764 1.362 . S
C768 C765 1.431 1_545 S
C768 C778 1.476 . S
H769 C763 0.929 1_545 S
C770 O761 1.250 . S
C770 O762 1.258 . S
O771 Mn756 2.162 . S
O771 C759 1.281 . S
O772 Mn756 2.297 . S
O772 C759 1.236 . S
N773 Mn757 2.282 . S
N773 C774 1.328 . S
N773 C778 1.318 . S
C774 N773 1.328 . S
C774 C775 1.457 . S
C774 H779 0.929 . S
C775 C774 1.457 . S
C775 C776 1.291 . S
C775 H788 0.931 . S
C776 C775 1.291 . S
C776 C777 1.373 . S
C776 H789 0.929 . S
C777 C776 1.373 . S
C777 C778 1.396 . S
C777 C784 1.403 1_545 S
C778 C768 1.476 . S
C778 N773 1.318 . S
C778 C777 1.396 . S
H779 C774 0.929 . S
O780 Mn756 2.385 . S
O780 C758 1.234 . S
O781 Mn756 2.209 . S
O781 Mn757 2.215 . S
O781 C758 1.283 . S
O782 Mn756 2.094 . S
O782 C760 1.240 . S
O783 Mn757 2.117 . S
O783 C760 1.264 . S
C784 C777 1.403 1_565 S
C784 C785 1.399 . S
C784 H790 0.929 . S
C785 C765 1.449 . S
C785 C784 1.399 . S
C785 H791 0.930 . S
H786 C766 0.931 . S
H787 C767 0.930 . S
H788 C775 0.931 . S
H789 C776 0.929 . S
H790 C784 0.929 . S
H791 C785 0.930 . S
Mn792 O797 2.095 . S
Mn792 O807 2.162 . S
Mn792 O808 2.297 . S
Mn792 O816 2.385 . S
Mn792 O817 2.209 . S
Mn792 O818 2.094 . S
Mn793 O798 2.121 . S
Mn793 N800 2.257 . S
Mn793 N809 2.282 . S
Mn793 O817 2.215 . S
Mn793 O819 2.117 . S
C794 O816 1.234 . S
C794 O817 1.283 . S
C795 O807 1.281 . S
C795 O808 1.236 . S
C796 O818 1.240 . S
C796 O819 1.264 . S
O797 Mn792 2.095 . S
O797 C806 1.250 . S
O798 Mn793 2.121 . S
O798 C806 1.258 . S
C799 N800 1.326 1_455 S
C799 C803 1.460 . S
C799 H805 0.965 . S
N800 Mn793 2.257 . S
N800 C799 1.326 1_655 S
N800 C804 1.362 1_655 S
C801 C802 1.258 . S
C801 C804 1.431 . S
C801 C821 1.449 . S
C802 C801 1.258 . S
C802 C803 1.477 . S
C802 H822 0.931 . S
C803 C799 1.460 . S
C803 C802 1.477 . S
C803 H823 0.930 . S
C804 N800 1.362 1_455 S
C804 C801 1.431 . S
C804 C814 1.476 1_455 S
H805 C799 0.965 . S
C806 O797 1.250 . S
C806 O798 1.258 . S
O807 Mn792 2.162 . S
O807 C795 1.281 . S
O808 Mn792 2.297 . S
O808 C795 1.236 . S
N809 Mn793 2.282 . S
N809 C810 1.328 . S
N809 C814 1.318 . S
C810 N809 1.328 . S
C810 C811 1.457 . S
C810 H815 0.929 . S
C811 C810 1.457 . S
C811 C812 1.291 . S
C811 H824 0.931 . S
C812 C811 1.291 . S
C812 C813 1.373 . S
C812 H825 0.929 . S
C813 C812 1.373 . S
C813 C814 1.398 . S
C813 C820 1.400 1_655 S
C814 C804 1.476 1_655 S
C814 N809 1.318 . S
C814 C813 1.398 . S
H815 C810 0.929 . S
O816 Mn792 2.385 . S
O816 C794 1.234 . S
O817 Mn792 2.209 . S
O817 Mn793 2.215 . S
O817 C794 1.283 . S
O818 Mn792 2.094 . S
O818 C796 1.240 . S
O819 Mn793 2.117 . S
O819 C796 1.264 . S
C820 C813 1.400 1_455 S
C820 C821 1.399 . S
C820 H826 0.929 . S
C821 C801 1.449 . S
C821 C820 1.399 . S
C821 H827 0.930 . S
H822 C802 0.931 . S
H823 C803 0.930 . S
H824 C811 0.931 . S
H825 C812 0.929 . S
H826 C820 0.929 . S
H827 C821 0.930 . S
Mn828 O833 2.095 . S
Mn828 O843 2.162 . S
Mn828 O844 2.297 . S
Mn828 O852 2.385 . S
Mn828 O853 2.209 . S
Mn828 O854 2.094 . S
Mn829 O834 2.121 . S
Mn829 N836 2.257 . S
Mn829 N845 2.282 . S
Mn829 O853 2.215 . S
Mn829 O855 2.117 . S
C830 O852 1.234 . S
C830 O853 1.283 . S
C831 O843 1.281 . S
C831 O844 1.236 . S
C832 O854 1.240 . S
C832 O855 1.264 . S
O833 Mn828 2.095 . S
O833 C842 1.250 . S
O834 Mn829 2.121 . S
O834 C842 1.258 . S
C835 N836 1.326 . S
C835 C839 1.460 . S
C835 H841 0.929 . S
N836 Mn829 2.257 . S
N836 C835 1.326 . S
N836 C840 1.362 . S
C837 C838 1.258 . S
C837 C840 1.431 . S
C837 C857 1.449 . S
C838 C837 1.258 . S
C838 C839 1.477 . S
C838 H858 0.931 . S
C839 C835 1.460 . S
C839 C838 1.477 . S
C839 H859 0.930 . S
C840 N836 1.362 . S
C840 C837 1.431 . S
C840 C850 1.476 . S
H841 C835 0.929 . S
C842 O833 1.250 . S
C842 O834 1.258 . S
O843 Mn828 2.162 . S
O843 C831 1.281 . S
O844 Mn828 2.297 . S
O844 C831 1.236 . S
N845 Mn829 2.282 . S
N845 C846 1.328 . S
N845 C850 1.318 . S
C846 N845 1.328 . S
C846 C847 1.457 . S
C846 H851 0.929 . S
C847 C846 1.457 . S
C847 C848 1.291 . S
C847 H860 0.931 . S
C848 C847 1.291 . S
C848 C849 1.373 . S
C848 H861 0.929 . S
C849 C848 1.373 . S
C849 C850 1.396 . S
C849 C856 1.403 . S
C850 C840 1.476 . S
C850 N845 1.318 . S
C850 C849 1.396 . S
H851 C846 0.929 . S
O852 Mn828 2.385 . S
O852 C830 1.234 . S
O853 Mn828 2.209 . S
O853 Mn829 2.215 . S
O853 C830 1.283 . S
O854 Mn828 2.094 . S
O854 C832 1.240 . S
O855 Mn829 2.117 . S
O855 C832 1.264 . S
C856 C849 1.403 . S
C856 C857 1.399 . S
C856 H862 0.929 . S
C857 C837 1.449 . S
C857 C856 1.399 . S
C857 H863 0.930 . S
H858 C838 0.931 . S
H859 C839 0.930 . S
H860 C847 0.931 . S
H861 C848 0.929 . S
H862 C856 0.929 . S
H863 C857 0.930 . S
Mn864 O869 2.095 . S
Mn864 O879 2.162 . S
Mn864 O880 2.297 . S
Mn864 O888 2.385 . S
Mn864 O889 2.209 . S
Mn864 O890 2.094 . S
Mn865 O870 2.121 . S
Mn865 N872 2.257 . S
Mn865 N881 2.282 . S
Mn865 O889 2.215 . S
Mn865 O891 2.117 . S
C866 O888 1.234 . S
C866 O889 1.283 . S
C867 O879 1.281 . S
C867 O880 1.236 . S
C868 O890 1.240 . S
C868 O891 1.264 . S
O869 Mn864 2.095 . S
O869 C878 1.250 . S
O870 Mn865 2.121 . S
O870 C878 1.258 . S
C871 N872 1.326 . S
C871 C875 1.460 . S
C871 H877 0.929 . S
N872 Mn865 2.257 . S
N872 C871 1.326 . S
N872 C876 1.362 . S
C873 C874 1.258 . S
C873 C876 1.431 . S
C873 C893 1.449 . S
C874 C873 1.258 . S
C874 C875 1.477 . S
C874 H894 0.931 . S
C875 C871 1.460 . S
C875 C874 1.477 . S
C875 H895 0.930 . S
C876 N872 1.362 . S
C876 C873 1.431 . S
C876 C886 1.476 . S
H877 C871 0.929 . S
C878 O869 1.250 . S
C878 O870 1.258 . S
O879 Mn864 2.162 . S
O879 C867 1.281 . S
O880 Mn864 2.297 . S
O880 C867 1.236 . S
N881 Mn865 2.282 . S
N881 C882 1.328 . S
N881 C886 1.318 . S
C882 N881 1.328 . S
C882 C883 1.457 . S
C882 H887 0.929 . S
C883 C882 1.457 . S
C883 C884 1.291 . S
C883 H896 0.931 . S
C884 C883 1.291 . S
C884 C885 1.373 . S
C884 H897 0.929 . S
C885 C884 1.373 . S
C885 C886 1.396 . S
C885 C892 1.403 . S
C886 C876 1.476 . S
C886 N881 1.318 . S
C886 C885 1.396 . S
H887 C882 0.929 . S
O888 Mn864 2.385 . S
O888 C866 1.234 . S
O889 Mn864 2.209 . S
O889 Mn865 2.215 . S
O889 C866 1.283 . S
O890 Mn864 2.094 . S
O890 C868 1.240 . S
O891 Mn865 2.117 . S
O891 C868 1.264 . S
C892 C885 1.403 . S
C892 C893 1.399 . S
C892 H898 0.929 . S
C893 C873 1.449 . S
C893 C892 1.399 . S
C893 H899 0.930 . S
H894 C874 0.931 . S
H895 C875 0.930 . S
H896 C883 0.931 . S
H897 C884 0.929 . S
H898 C892 0.929 . S
H899 C893 0.930 . S
Mn900 O905 2.095 . S
Mn900 O915 2.162 . S
Mn900 O916 2.297 . S
Mn900 O924 2.385 . S
Mn900 O925 2.209 . S
Mn900 O926 2.094 . S
Mn901 O906 2.121 . S
Mn901 N908 2.257 . S
Mn901 N917 2.282 . S
Mn901 O925 2.215 . S
Mn901 O927 2.117 . S
C902 O924 1.234 . S
C902 O925 1.283 . S
C903 O915 1.281 . S
C903 O916 1.236 . S
C904 O926 1.240 . S
C904 O927 1.264 . S
O905 Mn900 2.095 . S
O905 C914 1.250 . S
O906 Mn901 2.121 . S
O906 C914 1.258 . S
C907 N908 1.326 . S
C907 C911 1.460 . S
C907 H913 0.929 . S
N908 Mn901 2.257 . S
N908 C907 1.326 . S
N908 C912 1.362 . S
C909 C910 1.258 . S
C909 C912 1.431 . S
C909 C929 1.449 . S
C910 C909 1.258 . S
C910 C911 1.477 . S
C910 H930 0.931 . S
C911 C907 1.460 . S
C911 C910 1.477 . S
C911 H931 0.930 . S
C912 N908 1.362 . S
C912 C909 1.431 . S
C912 C922 1.476 . S
H913 C907 0.929 . S
C914 O905 1.250 . S
C914 O906 1.258 . S
O915 Mn900 2.162 . S
O915 C903 1.281 . S
O916 Mn900 2.297 . S
O916 C903 1.236 . S
N917 Mn901 2.282 . S
N917 C918 1.328 . S
N917 C922 1.318 . S
C918 N917 1.328 . S
C918 C919 1.457 . S
C918 H923 0.929 . S
C919 C918 1.457 . S
C919 C920 1.291 . S
C919 H932 0.931 . S
C920 C919 1.291 . S
C920 C921 1.373 . S
C920 H933 0.929 . S
C921 C920 1.373 . S
C921 C922 1.396 . S
C921 C928 1.403 . S
C922 C912 1.476 . S
C922 N917 1.318 . S
C922 C921 1.396 . S
H923 C918 0.929 . S
O924 Mn900 2.385 . S
O924 C902 1.234 . S
O925 Mn900 2.209 . S
O925 Mn901 2.215 . S
O925 C902 1.283 . S
O926 Mn900 2.094 . S
O926 C904 1.240 . S
O927 Mn901 2.117 . S
O927 C904 1.264 . S
C928 C921 1.403 . S
C928 C929 1.399 . S
C928 H934 0.929 . S
C929 C909 1.449 . S
C929 C928 1.399 . S
C929 H935 0.930 . S
H930 C910 0.931 . S
H931 C911 0.930 . S
H932 C919 0.931 . S
H933 C920 0.929 . S
H934 C928 0.929 . S
H935 C929 0.930 . S
Mn936 O941 2.095 . S
Mn936 O951 2.162 . S
Mn936 O952 2.297 . S
Mn936 O960 2.385 . S
Mn936 O961 2.209 . S
Mn936 O962 2.094 . S
Mn937 O942 2.121 . S
Mn937 N944 2.257 . S
Mn937 N953 2.282 . S
Mn937 O961 2.215 . S
Mn937 O963 2.117 . S
C938 O960 1.234 . S
C938 O961 1.283 . S
C939 O951 1.281 . S
C939 O952 1.236 . S
C940 O962 1.240 . S
C940 O963 1.264 . S
O941 Mn936 2.095 . S
O941 C950 1.250 . S
O942 Mn937 2.121 . S
O942 C950 1.258 . S
C943 N944 1.326 . S
C943 C947 1.460 . S
C943 H949 0.929 . S
N944 Mn937 2.257 . S
N944 C943 1.326 . S
N944 C948 1.362 . S
C945 C946 1.258 . S
C945 C948 1.431 . S
C945 C965 1.449 . S
C946 C945 1.258 . S
C946 C947 1.477 . S
C946 H966 0.931 . S
C947 C943 1.460 . S
C947 C946 1.477 . S
C947 H967 0.930 . S
C948 N944 1.362 . S
C948 C945 1.431 . S
C948 C958 1.476 . S
H949 C943 0.929 . S
C950 O941 1.250 . S
C950 O942 1.258 . S
O951 Mn936 2.162 . S
O951 C939 1.281 . S
O952 Mn936 2.297 . S
O952 C939 1.236 . S
N953 Mn937 2.282 . S
N953 C954 1.328 . S
N953 C958 1.318 . S
C954 N953 1.328 . S
C954 C955 1.457 . S
C954 H959 0.929 . S
C955 C954 1.457 . S
C955 C956 1.291 . S
C955 H968 0.931 . S
C956 C955 1.291 . S
C956 C957 1.373 . S
C956 H969 0.929 . S
C957 C956 1.373 . S
C957 C958 1.396 . S
C957 C964 1.403 . S
C958 C948 1.476 . S
C958 N953 1.318 . S
C958 C957 1.396 . S
H959 C954 0.929 . S
O960 Mn936 2.385 . S
O960 C938 1.234 . S
O961 Mn936 2.209 . S
O961 Mn937 2.215 . S
O961 C938 1.283 . S
O962 Mn936 2.094 . S
O962 C940 1.240 . S
O963 Mn937 2.117 . S
O963 C940 1.264 . S
C964 C957 1.403 . S
C964 C965 1.399 . S
C964 H970 0.929 . S
C965 C945 1.449 . S
C965 C964 1.399 . S
C965 H971 0.930 . S
H966 C946 0.931 . S
H967 C947 0.930 . S
H968 C955 0.931 . S
H969 C956 0.929 . S
H970 C964 0.929 . S
H971 C965 0.930 . S
Mn972 O977 2.095 . S
Mn972 O987 2.162 . S
Mn972 O988 2.297 . S
Mn972 O996 2.385 . S
Mn972 O997 2.209 . S
Mn972 O998 2.094 . S
Mn973 O978 2.121 . S
Mn973 N980 2.257 1_565 S
Mn973 N989 2.282 1_565 S
Mn973 O997 2.215 . S
Mn973 O999 2.117 . S
C974 O996 1.234 . S
C974 O997 1.283 . S
C975 O987 1.281 . S
C975 O988 1.236 . S
C976 O998 1.240 . S
C976 O999 1.264 . S
O977 Mn972 2.095 . S
O977 C986 1.250 . S
O978 Mn973 2.121 . S
O978 C986 1.258 . S
C979 N980 1.326 . S
C979 C983 1.460 . S
C979 H985 0.929 . S
N980 Mn973 2.257 1_545 S
N980 C979 1.326 . S
N980 C984 1.362 . S
C981 C982 1.258 . S
C981 C984 1.431 . S
C981 C1001 1.449 . S
C982 C981 1.258 . S
C982 C983 1.477 . S
C982 H1002 0.931 . S
C983 C979 1.460 . S
C983 C982 1.477 . S
C983 H1003 0.930 . S
C984 N980 1.362 . S
C984 C981 1.431 . S
C984 C994 1.476 . S
H985 C979 0.929 . S
C986 O977 1.250 . S
C986 O978 1.258 . S
O987 Mn972 2.162 . S
O987 C975 1.281 . S
O988 Mn972 2.297 . S
O988 C975 1.236 . S
N989 Mn973 2.282 1_545 S
N989 C990 1.328 . S
N989 C994 1.318 . S
C990 N989 1.328 . S
C990 C991 1.457 . S
C990 H995 0.929 . S
C991 C990 1.457 . S
C991 C992 1.291 . S
C991 H1004 0.931 . S
C992 C991 1.291 . S
C992 C993 1.373 . S
C992 H1005 0.929 . S
C993 C992 1.373 . S
C993 C994 1.396 . S
C993 C1000 1.403 . S
C994 C984 1.476 . S
C994 N989 1.318 . S
C994 C993 1.396 . S
H995 C990 0.929 . S
O996 Mn972 2.385 . S
O996 C974 1.234 . S
O997 Mn972 2.209 . S
O997 Mn973 2.215 . S
O997 C974 1.283 . S
O998 Mn972 2.094 . S
O998 C976 1.240 . S
O999 Mn973 2.117 . S
O999 C976 1.264 . S
C1000 C993 1.403 . S
C1000 C1001 1.399 . S
C1000 H1006 0.929 . S
C1001 C981 1.449 . S
C1001 C1000 1.399 . S
C1001 H1007 0.930 . S
H1002 C982 0.931 . S
H1003 C983 0.930 . S
H1004 C991 0.931 . S
H1005 C992 0.929 . S
H1006 C1000 0.929 . S
H1007 C1001 0.930 . S
Mn1008 O1013 2.095 . S
Mn1008 O1023 2.162 . S
Mn1008 O1024 2.297 . S
Mn1008 O1032 2.385 . S
Mn1008 O1033 2.209 . S
Mn1008 O1034 2.094 . S
Mn1009 O1014 2.121 . S
Mn1009 N1016 2.257 1_455 S
Mn1009 N1025 2.282 1_455 S
Mn1009 O1033 2.215 . S
Mn1009 O1035 2.117 . S
C1010 O1032 1.234 . S
C1010 O1033 1.283 . S
C1011 O1023 1.281 . S
C1011 O1024 1.236 . S
C1012 O1034 1.240 . S
C1012 O1035 1.264 . S
O1013 Mn1008 2.095 . S
O1013 C1022 1.250 . S
O1014 Mn1009 2.121 . S
O1014 C1022 1.258 . S
C1015 N1016 1.326 . S
C1015 C1019 1.460 . S
C1015 H1021 0.929 . S
N1016 Mn1009 2.257 1_655 S
N1016 C1015 1.326 . S
N1016 C1020 1.362 . S
C1017 C1018 1.258 . S
C1017 C1020 1.431 . S
C1017 C1037 1.449 . S
C1018 C1017 1.258 . S
C1018 C1019 1.477 . S
C1018 H1038 0.931 . S
C1019 C1015 1.460 . S
C1019 C1018 1.477 . S
C1019 H1039 0.930 . S
C1020 N1016 1.362 . S
C1020 C1017 1.431 . S
C1020 C1030 1.476 . S
H1021 C1015 0.929 . S
C1022 O1013 1.250 . S
C1022 O1014 1.258 . S
O1023 Mn1008 2.162 . S
O1023 C1011 1.281 . S
O1024 Mn1008 2.297 . S
O1024 C1011 1.236 . S
N1025 Mn1009 2.282 1_655 S
N1025 C1026 1.328 . S
N1025 C1030 1.318 . S
C1026 N1025 1.328 . S
C1026 C1027 1.457 . S
C1026 H1031 0.929 . S
C1027 C1026 1.457 . S
C1027 C1028 1.291 . S
C1027 H1040 0.931 . S
C1028 C1027 1.291 . S
C1028 C1029 1.373 . S
C1028 H1041 0.929 . S
C1029 C1028 1.373 . S
C1029 C1030 1.396 . S
C1029 C1036 1.403 . S
C1030 C1020 1.476 . S
C1030 N1025 1.318 . S
C1030 C1029 1.396 . S
H1031 C1026 0.929 . S
O1032 Mn1008 2.385 . S
O1032 C1010 1.234 . S
O1033 Mn1008 2.209 . S
O1033 Mn1009 2.215 . S
O1033 C1010 1.283 . S
O1034 Mn1008 2.094 . S
O1034 C1012 1.240 . S
O1035 Mn1009 2.117 . S
O1035 C1012 1.264 . S
C1036 C1029 1.403 . S
C1036 C1037 1.399 . S
C1036 H1042 0.929 . S
C1037 C1017 1.449 . S
C1037 C1036 1.399 . S
C1037 H1043 0.930 . S
H1038 C1018 0.931 . S
H1039 C1019 0.930 . S
H1040 C1027 0.931 . S
H1041 C1028 0.929 . S
H1042 C1036 0.929 . S
H1043 C1037 0.930 . S
Mn1044 O1049 2.095 . S
Mn1044 O1059 2.162 . S
Mn1044 O1060 2.297 . S
Mn1044 O1068 2.385 . S
Mn1044 O1069 2.209 . S
Mn1044 O1070 2.094 . S
Mn1045 O1050 2.121 . S
Mn1045 N1052 2.257 . S
Mn1045 N1061 2.282 . S
Mn1045 O1069 2.215 . S
Mn1045 O1071 2.117 . S
C1046 O1068 1.234 . S
C1046 O1069 1.283 . S
C1047 O1059 1.281 . S
C1047 O1060 1.236 . S
C1048 O1070 1.240 . S
C1048 O1071 1.264 . S
O1049 Mn1044 2.095 . S
O1049 C1058 1.250 . S
O1050 Mn1045 2.121 . S
O1050 C1058 1.258 . S
C1051 N1052 1.326 . S
C1051 C1055 1.460 . S
C1051 H1057 0.929 . S
N1052 Mn1045 2.257 . S
N1052 C1051 1.326 . S
N1052 C1056 1.362 . S
C1053 C1054 1.258 . S
C1053 C1056 1.431 . S
C1053 C1073 1.449 . S
C1054 C1053 1.258 . S
C1054 C1055 1.477 . S
C1054 H1074 0.931 . S
C1055 C1051 1.460 . S
C1055 C1054 1.477 . S
C1055 H1075 0.930 . S
C1056 N1052 1.362 . S
C1056 C1053 1.431 . S
C1056 C1066 1.476 . S
H1057 C1051 0.929 . S
C1058 O1049 1.250 . S
C1058 O1050 1.258 . S
O1059 Mn1044 2.162 . S
O1059 C1047 1.281 . S
O1060 Mn1044 2.297 . S
O1060 C1047 1.236 . S
N1061 Mn1045 2.282 . S
N1061 C1062 1.328 . S
N1061 C1066 1.318 . S
C1062 N1061 1.328 . S
C1062 C1063 1.457 . S
C1062 H1067 0.929 . S
C1063 C1062 1.457 . S
C1063 C1064 1.291 . S
C1063 H1076 0.931 . S
C1064 C1063 1.291 . S
C1064 C1065 1.373 . S
C1064 H1077 0.929 . S
C1065 C1064 1.373 . S
C1065 C1066 1.396 . S
C1065 C1072 1.403 . S
C1066 C1056 1.476 . S
C1066 N1061 1.318 . S
C1066 C1065 1.396 . S
H1067 C1062 0.929 . S
O1068 Mn1044 2.385 . S
O1068 C1046 1.234 . S
O1069 Mn1044 2.209 . S
O1069 Mn1045 2.215 . S
O1069 C1046 1.283 . S
O1070 Mn1044 2.094 . S
O1070 C1048 1.240 . S
O1071 Mn1045 2.117 . S
O1071 C1048 1.264 . S
C1072 C1065 1.403 . S
C1072 C1073 1.399 . S
C1072 H1078 0.929 . S
C1073 C1053 1.449 . S
C1073 C1072 1.399 . S
C1073 H1079 0.930 . S
H1074 C1054 0.931 . S
H1075 C1055 0.930 . S
H1076 C1063 0.931 . S
H1077 C1064 0.929 . S
H1078 C1072 0.929 . S
H1079 C1073 0.930 . S
Mn1080 O1085 2.095 . S
Mn1080 O1095 2.162 . S
Mn1080 O1096 2.297 . S
Mn1080 O1104 2.385 . S
Mn1080 O1105 2.209 . S
Mn1080 O1106 2.094 . S
Mn1081 O1086 2.121 . S
Mn1081 N1088 2.257 . S
Mn1081 N1097 2.282 . S
Mn1081 O1105 2.215 . S
Mn1081 O1107 2.117 . S
C1082 O1104 1.234 . S
C1082 O1105 1.283 . S
C1083 O1095 1.281 . S
C1083 O1096 1.236 . S
C1084 O1106 1.240 . S
C1084 O1107 1.264 . S
O1085 Mn1080 2.095 . S
O1085 C1094 1.250 . S
O1086 Mn1081 2.121 . S
O1086 C1094 1.258 . S
C1087 N1088 1.326 . S
C1087 C1091 1.460 . S
C1087 H1093 0.929 . S
N1088 Mn1081 2.257 . S
N1088 C1087 1.326 . S
N1088 C1092 1.362 . S
C1089 C1090 1.258 . S
C1089 C1092 1.431 . S
C1089 C1109 1.449 . S
C1090 C1089 1.258 . S
C1090 C1091 1.477 . S
C1090 H1110 0.931 . S
C1091 C1087 1.460 . S
C1091 C1090 1.477 . S
C1091 H1111 0.930 . S
C1092 N1088 1.362 . S
C1092 C1089 1.431 . S
C1092 C1102 1.476 . S
H1093 C1087 0.929 . S
C1094 O1085 1.250 . S
C1094 O1086 1.258 . S
O1095 Mn1080 2.162 . S
O1095 C1083 1.281 . S
O1096 Mn1080 2.297 . S
O1096 C1083 1.236 . S
N1097 Mn1081 2.282 . S
N1097 C1098 1.328 . S
N1097 C1102 1.318 . S
C1098 N1097 1.328 . S
C1098 C1099 1.457 . S
C1098 H1103 0.929 . S
C1099 C1098 1.457 . S
C1099 C1100 1.291 . S
C1099 H1112 0.931 . S
C1100 C1099 1.291 . S
C1100 C1101 1.373 . S
C1100 H1113 0.929 . S
C1101 C1100 1.373 . S
C1101 C1102 1.396 . S
C1101 C1108 1.403 . S
C1102 C1092 1.476 . S
C1102 N1097 1.318 . S
C1102 C1101 1.396 . S
H1103 C1098 0.929 . S
O1104 Mn1080 2.385 . S
O1104 C1082 1.234 . S
O1105 Mn1080 2.209 . S
O1105 Mn1081 2.215 . S
O1105 C1082 1.283 . S
O1106 Mn1080 2.094 . S
O1106 C1084 1.240 . S
O1107 Mn1081 2.117 . S
O1107 C1084 1.264 . S
C1108 C1101 1.403 . S
C1108 C1109 1.399 . S
C1108 H1114 0.929 . S
C1109 C1089 1.449 . S
C1109 C1108 1.399 . S
C1109 H1115 0.930 . S
H1110 C1090 0.931 . S
H1111 C1091 0.930 . S
H1112 C1099 0.931 . S
H1113 C1100 0.929 . S
H1114 C1108 0.929 . S
H1115 C1109 0.930 . S
Mn1116 O1121 2.095 . S
Mn1116 O1131 2.162 . S
Mn1116 O1132 2.297 . S
Mn1116 O1140 2.385 . S
Mn1116 O1141 2.209 . S
Mn1116 O1142 2.094 . S
Mn1117 O1122 2.121 . S
Mn1117 N1124 2.257 . S
Mn1117 N1133 2.282 . S
Mn1117 O1141 2.215 . S
Mn1117 O1143 2.117 . S
C1118 O1140 1.234 . S
C1118 O1141 1.283 . S
C1119 O1131 1.281 . S
C1119 O1132 1.236 . S
C1120 O1142 1.240 . S
C1120 O1143 1.264 . S
O1121 Mn1116 2.095 . S
O1121 C1130 1.250 . S
O1122 Mn1117 2.121 . S
O1122 C1130 1.258 . S
C1123 N1124 1.326 . S
C1123 C1127 1.460 . S
C1123 H1129 0.929 . S
N1124 Mn1117 2.257 . S
N1124 C1123 1.326 . S
N1124 C1128 1.362 . S
C1125 C1126 1.258 . S
C1125 C1128 1.431 . S
C1125 C1145 1.449 . S
C1126 C1125 1.258 . S
C1126 C1127 1.477 . S
C1126 H1146 0.931 . S
C1127 C1123 1.460 . S
C1127 C1126 1.477 . S
C1127 H1147 0.930 . S
C1128 N1124 1.362 . S
C1128 C1125 1.431 . S
C1128 C1138 1.476 . S
H1129 C1123 0.929 . S
C1130 O1121 1.250 . S
C1130 O1122 1.258 . S
O1131 Mn1116 2.162 . S
O1131 C1119 1.281 . S
O1132 Mn1116 2.297 . S
O1132 C1119 1.236 . S
N1133 Mn1117 2.282 . S
N1133 C1134 1.328 . S
N1133 C1138 1.318 . S
C1134 N1133 1.328 . S
C1134 C1135 1.457 . S
C1134 H1139 0.929 . S
C1135 C1134 1.457 . S
C1135 C1136 1.291 . S
C1135 H1148 0.931 . S
C1136 C1135 1.291 . S
C1136 C1137 1.373 . S
C1136 H1149 0.929 . S
C1137 C1136 1.373 . S
C1137 C1138 1.396 . S
C1137 C1144 1.403 . S
C1138 C1128 1.476 . S
C1138 N1133 1.318 . S
C1138 C1137 1.396 . S
H1139 C1134 0.929 . S
O1140 Mn1116 2.385 . S
O1140 C1118 1.234 . S
O1141 Mn1116 2.209 . S
O1141 Mn1117 2.215 . S
O1141 C1118 1.283 . S
O1142 Mn1116 2.094 . S
O1142 C1120 1.240 . S
O1143 Mn1117 2.117 . S
O1143 C1120 1.264 . S
C1144 C1137 1.403 . S
C1144 C1145 1.399 . S
C1144 H1150 0.929 . S
C1145 C1125 1.449 . S
C1145 C1144 1.399 . S
C1145 H1151 0.930 . S
H1146 C1126 0.931 . S
H1147 C1127 0.930 . S
H1148 C1135 0.931 . S
H1149 C1136 0.929 . S
H1150 C1144 0.929 . S
H1151 C1145 0.930 . S
Mn1152 O1157 2.095 . S
Mn1152 O1167 2.162 . S
Mn1152 O1168 2.297 . S
Mn1152 O1176 2.385 . S
Mn1152 O1177 2.209 . S
Mn1152 O1178 2.094 . S
Mn1153 O1158 2.121 . S
Mn1153 N1160 2.257 . S
Mn1153 N1169 2.282 . S
Mn1153 O1177 2.215 . S
Mn1153 O1179 2.117 . S
C1154 O1176 1.234 . S
C1154 O1177 1.283 . S
C1155 O1167 1.281 . S
C1155 O1168 1.236 . S
C1156 O1178 1.240 . S
C1156 O1179 1.264 . S
O1157 Mn1152 2.095 . S
O1157 C1166 1.250 . S
O1158 Mn1153 2.121 . S
O1158 C1166 1.258 . S
C1159 N1160 1.327 . S
C1159 C1163 1.452 1_565 S
C1159 H1165 0.937 . S
N1160 Mn1153 2.257 . S
N1160 C1159 1.327 . S
N1160 C1164 1.362 . S
C1161 C1162 1.258 . S
C1161 C1164 1.431 1_545 S
C1161 C1181 1.449 . S
C1162 C1161 1.258 . S
C1162 C1163 1.477 . S
C1162 H1182 0.931 . S
C1163 C1159 1.452 1_545 S
C1163 C1162 1.477 . S
C1163 H1183 0.930 . S
C1164 N1160 1.362 . S
C1164 C1161 1.431 1_565 S
C1164 C1174 1.476 . S
H1165 C1159 0.937 . S
C1166 O1157 1.250 . S
C1166 O1158 1.258 . S
O1167 Mn1152 2.162 . S
O1167 C1155 1.281 . S
O1168 Mn1152 2.297 . S
O1168 C1155 1.236 . S
N1169 Mn1153 2.282 . S
N1169 C1170 1.328 . S
N1169 C1174 1.318 . S
C1170 N1169 1.328 . S
C1170 C1171 1.457 . S
C1170 H1175 0.929 . S
C1171 C1170 1.457 . S
C1171 C1172 1.291 . S
C1171 H1184 0.931 . S
C1172 C1171 1.291 . S
C1172 C1173 1.373 . S
C1172 H1185 0.929 . S
C1173 C1172 1.373 . S
C1173 C1174 1.396 . S
C1173 C1180 1.403 1_565 S
C1174 C1164 1.476 . S
C1174 N1169 1.318 . S
C1174 C1173 1.396 . S
H1175 C1170 0.929 . S
O1176 Mn1152 2.385 . S
O1176 C1154 1.234 . S
O1177 Mn1152 2.209 . S
O1177 Mn1153 2.215 . S
O1177 C1154 1.283 . S
O1178 Mn1152 2.094 . S
O1178 C1156 1.240 . S
O1179 Mn1153 2.117 . S
O1179 C1156 1.264 . S
C1180 C1173 1.403 1_545 S
C1180 C1181 1.399 . S
C1180 H1186 0.929 . S
C1181 C1161 1.449 . S
C1181 C1180 1.399 . S
C1181 H1187 0.930 . S
H1182 C1162 0.931 . S
H1183 C1163 0.930 . S
H1184 C1171 0.931 . S
H1185 C1172 0.929 . S
H1186 C1180 0.929 . S
H1187 C1181 0.930 . S
Mn1188 O1193 2.095 . S
Mn1188 O1203 2.162 . S
Mn1188 O1204 2.297 . S
Mn1188 O1212 2.385 . S
Mn1188 O1213 2.209 . S
Mn1188 O1214 2.094 . S
Mn1189 O1194 2.121 . S
Mn1189 N1196 2.257 . S
Mn1189 N1205 2.282 . S
Mn1189 O1213 2.215 . S
Mn1189 O1215 2.117 . S
C1190 O1212 1.234 . S
C1190 O1213 1.283 . S
C1191 O1203 1.281 . S
C1191 O1204 1.236 . S
C1192 O1214 1.240 . S
C1192 O1215 1.264 . S
O1193 Mn1188 2.095 . S
O1193 C1202 1.250 . S
O1194 Mn1189 2.121 . S
O1194 C1202 1.258 . S
C1195 N1196 1.326 . S
C1195 C1199 1.460 . S
C1195 H1201 0.929 . S
N1196 Mn1189 2.257 . S
N1196 C1195 1.326 . S
N1196 C1200 1.362 . S
C1197 C1198 1.258 . S
C1197 C1200 1.431 . S
C1197 C1217 1.449 . S
C1198 C1197 1.258 . S
C1198 C1199 1.477 . S
C1198 H1218 0.931 . S
C1199 C1195 1.460 . S
C1199 C1198 1.477 . S
C1199 H1219 0.930 . S
C1200 N1196 1.362 . S
C1200 C1197 1.431 . S
C1200 C1210 1.476 . S
H1201 C1195 0.929 . S
C1202 O1193 1.250 . S
C1202 O1194 1.258 . S
O1203 Mn1188 2.162 . S
O1203 C1191 1.281 . S
O1204 Mn1188 2.297 . S
O1204 C1191 1.236 . S
N1205 Mn1189 2.282 . S
N1205 C1206 1.328 . S
N1205 C1210 1.318 . S
C1206 N1205 1.328 . S
C1206 C1207 1.457 . S
C1206 H1211 0.929 . S
C1207 C1206 1.457 . S
C1207 C1208 1.291 . S
C1207 H1220 0.931 . S
C1208 C1207 1.291 . S
C1208 C1209 1.373 . S
C1208 H1221 0.929 1_455 S
C1209 C1208 1.373 . S
C1209 C1210 1.396 . S
C1209 C1216 1.403 . S
C1210 C1200 1.476 . S
C1210 N1205 1.318 . S
C1210 C1209 1.396 . S
H1211 C1206 0.929 . S
O1212 Mn1188 2.385 . S
O1212 C1190 1.234 . S
O1213 Mn1188 2.209 . S
O1213 Mn1189 2.215 . S
O1213 C1190 1.283 . S
O1214 Mn1188 2.094 . S
O1214 C1192 1.240 . S
O1215 Mn1189 2.117 . S
O1215 C1192 1.264 . S
C1216 C1209 1.403 . S
C1216 C1217 1.399 . S
C1216 H1222 0.929 1_455 S
C1217 C1197 1.449 . S
C1217 C1216 1.399 . S
C1217 H1223 0.930 . S
H1218 C1198 0.931 . S
H1219 C1199 0.930 . S
H1220 C1207 0.931 . S
H1221 C1208 0.929 1_655 S
H1222 C1216 0.929 1_655 S
H1223 C1217 0.930 . S
Mn1224 O1229 2.095 . S
Mn1224 O1239 2.162 . S
Mn1224 O1240 2.297 . S
Mn1224 O1248 2.385 . S
Mn1224 O1249 2.209 . S
Mn1224 O1250 2.094 . S
Mn1225 O1230 2.121 . S
Mn1225 N1232 2.257 . S
Mn1225 N1241 2.282 . S
Mn1225 O1249 2.215 . S
Mn1225 O1251 2.117 . S
C1226 O1248 1.234 . S
C1226 O1249 1.283 . S
C1227 O1239 1.281 . S
C1227 O1240 1.236 . S
C1228 O1250 1.240 . S
C1228 O1251 1.264 . S
O1229 Mn1224 2.095 . S
O1229 C1238 1.250 . S
O1230 Mn1225 2.121 . S
O1230 C1238 1.258 . S
C1231 N1232 1.326 . S
C1231 C1235 1.460 . S
C1231 H1237 0.929 . S
N1232 Mn1225 2.257 . S
N1232 C1231 1.326 . S
N1232 C1236 1.362 . S
C1233 C1234 1.258 . S
C1233 C1236 1.431 . S
C1233 C1253 1.449 . S
C1234 C1233 1.258 . S
C1234 C1235 1.477 . S
C1234 H1254 0.931 . S
C1235 C1231 1.460 . S
C1235 C1234 1.477 . S
C1235 H1255 0.930 . S
C1236 N1232 1.362 . S
C1236 C1233 1.431 . S
C1236 C1246 1.476 . S
H1237 C1231 0.929 . S
C1238 O1229 1.250 . S
C1238 O1230 1.258 . S
O1239 Mn1224 2.162 . S
O1239 C1227 1.281 . S
O1240 Mn1224 2.297 . S
O1240 C1227 1.236 . S
N1241 Mn1225 2.282 . S
N1241 C1242 1.328 . S
N1241 C1246 1.318 . S
C1242 N1241 1.328 . S
C1242 C1243 1.457 . S
C1242 H1247 0.929 . S
C1243 C1242 1.457 . S
C1243 C1244 1.291 . S
C1243 H1256 0.931 . S
C1244 C1243 1.291 . S
C1244 C1245 1.373 . S
C1244 H1257 0.929 . S
C1245 C1244 1.373 . S
C1245 C1246 1.396 . S
C1245 C1252 1.403 . S
C1246 C1236 1.476 . S
C1246 N1241 1.318 . S
C1246 C1245 1.396 . S
H1247 C1242 0.929 . S
O1248 Mn1224 2.385 . S
O1248 C1226 1.234 . S
O1249 Mn1224 2.209 . S
O1249 Mn1225 2.215 . S
O1249 C1226 1.283 . S
O1250 Mn1224 2.094 . S
O1250 C1228 1.240 . S
O1251 Mn1225 2.117 . S
O1251 C1228 1.264 . S
C1252 C1245 1.403 . S
C1252 C1253 1.399 . S
C1252 H1258 0.929 . S
C1253 C1233 1.449 . S
C1253 C1252 1.399 . S
C1253 H1259 0.930 . S
H1254 C1234 0.931 . S
H1255 C1235 0.930 . S
H1256 C1243 0.931 . S
H1257 C1244 0.929 . S
H1258 C1252 0.929 . S
H1259 C1253 0.930 . S
Mn1260 O1265 2.095 . S
Mn1260 O1275 2.162 . S
Mn1260 O1276 2.297 . S
Mn1260 O1284 2.385 . S
Mn1260 O1285 2.209 . S
Mn1260 O1286 2.094 . S
Mn1261 O1266 2.121 . S
Mn1261 N1268 2.257 . S
Mn1261 N1277 2.282 . S
Mn1261 O1285 2.215 . S
Mn1261 O1287 2.117 . S
C1262 O1284 1.234 . S
C1262 O1285 1.283 . S
C1263 O1275 1.281 . S
C1263 O1276 1.236 . S
C1264 O1286 1.240 . S
C1264 O1287 1.264 . S
O1265 Mn1260 2.095 . S
O1265 C1274 1.250 . S
O1266 Mn1261 2.121 . S
O1266 C1274 1.258 . S
C1267 N1268 1.326 . S
C1267 C1271 1.460 . S
C1267 H1273 0.929 . S
N1268 Mn1261 2.257 . S
N1268 C1267 1.326 . S
N1268 C1272 1.362 . S
C1269 C1270 1.258 . S
C1269 C1272 1.431 . S
C1269 C1289 1.449 . S
C1270 C1269 1.258 . S
C1270 C1271 1.477 . S
C1270 H1290 0.931 . S
C1271 C1267 1.460 . S
C1271 C1270 1.477 . S
C1271 H1291 0.930 . S
C1272 N1268 1.362 . S
C1272 C1269 1.431 . S
C1272 C1282 1.476 . S
H1273 C1267 0.929 . S
C1274 O1265 1.250 . S
C1274 O1266 1.258 . S
O1275 Mn1260 2.162 . S
O1275 C1263 1.281 . S
O1276 Mn1260 2.297 . S
O1276 C1263 1.236 . S
N1277 Mn1261 2.282 . S
N1277 C1278 1.328 . S
N1277 C1282 1.318 . S
C1278 N1277 1.328 . S
C1278 C1279 1.457 . S
C1278 H1283 0.929 . S
C1279 C1278 1.457 . S
C1279 C1280 1.291 . S
C1279 H1292 0.931 . S
C1280 C1279 1.291 . S
C1280 C1281 1.373 . S
C1280 H1293 0.929 . S
C1281 C1280 1.373 . S
C1281 C1282 1.396 . S
C1281 C1288 1.403 . S
C1282 C1272 1.476 . S
C1282 N1277 1.318 . S
C1282 C1281 1.396 . S
H1283 C1278 0.929 . S
O1284 Mn1260 2.385 . S
O1284 C1262 1.234 . S
O1285 Mn1260 2.209 . S
O1285 Mn1261 2.215 . S
O1285 C1262 1.283 . S
O1286 Mn1260 2.094 . S
O1286 C1264 1.240 . S
O1287 Mn1261 2.117 . S
O1287 C1264 1.264 . S
C1288 C1281 1.403 . S
C1288 C1289 1.399 . S
C1288 H1294 0.929 . S
C1289 C1269 1.449 . S
C1289 C1288 1.399 . S
C1289 H1295 0.930 . S
H1290 C1270 0.931 . S
H1291 C1271 0.930 . S
H1292 C1279 0.931 . S
H1293 C1280 0.929 . S
H1294 C1288 0.929 . S
H1295 C1289 0.930 . S
H1296 C1304 0.950 . S
H1297 C1309 0.950 . S
H1298 C1306 0.950 . S
H1299 C1308 0.950 . S
H1300 C1310 0.950 . S
H1301 C1312 0.950 . S
H1302 C1314 0.950 . S
H1303 C1315 0.950 . S
C1304 H1296 0.950 . S
C1304 C1305 1.386 . S
C1304 C1306 1.391 . S
C1305 C1304 1.386 . S
C1305 C1309 1.393 . S
C1306 H1298 0.950 . S
C1306 C1304 1.391 . S
C1306 C1307 1.400 . S
C1307 C1306 1.400 . S
C1307 C1308 1.398 . S
C1307 C1313 1.491 . S
C1308 H1299 0.950 . S
C1308 C1307 1.398 . S
C1308 C1309 1.391 . S
C1309 H1297 0.950 . S
C1309 C1305 1.393 . S
C1309 C1308 1.391 . S
C1310 H1300 0.950 . S
C1310 C1311 1.386 . S
C1310 C1312 1.391 . S
C1311 C1310 1.386 . S
C1311 C1315 1.393 . S
C1312 H1301 0.950 . S
C1312 C1310 1.391 . S
C1312 C1313 1.400 . S
C1313 C1307 1.491 . S
C1313 C1312 1.400 . S
C1313 C1314 1.398 . S
C1314 H1302 0.950 . S
C1314 C1313 1.398 . S
C1314 C1315 1.391 . S
C1315 H1303 0.950 . S
C1315 C1311 1.393 . S
C1315 C1314 1.391 . S
H1316 C1324 0.950 . S
H1317 C1329 0.950 . S
H1318 C1326 0.950 . S
H1319 C1328 0.950 . S
H1320 C1330 0.950 . S
H1321 C1332 0.950 . S
H1322 C1334 0.950 . S
H1323 C1335 0.950 . S
C1324 H1316 0.950 . S
C1324 C1325 1.386 . S
C1324 C1326 1.391 . S
C1325 C1324 1.386 . S
C1325 C1329 1.393 . S
C1326 H1318 0.950 . S
C1326 C1324 1.391 . S
C1326 C1327 1.400 . S
C1327 C1326 1.400 . S
C1327 C1328 1.398 . S
C1327 C1333 1.491 . S
C1328 H1319 0.950 . S
C1328 C1327 1.398 . S
C1328 C1329 1.391 . S
C1329 H1317 0.950 . S
C1329 C1325 1.393 . S
C1329 C1328 1.391 . S
C1330 H1320 0.950 . S
C1330 C1331 1.386 . S
C1330 C1332 1.391 . S
C1331 C1330 1.386 . S
C1331 C1335 1.393 . S
C1332 H1321 0.950 . S
C1332 C1330 1.391 . S
C1332 C1333 1.400 . S
C1333 C1327 1.491 . S
C1333 C1332 1.400 . S
C1333 C1334 1.398 . S
C1334 H1322 0.950 . S
C1334 C1333 1.398 . S
C1334 C1335 1.391 . S
C1335 H1323 0.950 . S
C1335 C1331 1.393 . S
C1335 C1334 1.391 . S
H1336 C1344 0.950 . S
H1337 C1349 0.950 . S
H1338 C1346 0.950 . S
H1339 C1348 0.950 . S
H1340 C1350 0.950 . S
H1341 C1352 0.950 . S
H1342 C1354 0.950 . S
H1343 C1355 0.950 . S
C1344 H1336 0.950 . S
C1344 C1345 1.386 . S
C1344 C1346 1.391 . S
C1345 C1344 1.386 . S
C1345 C1349 1.393 . S
C1346 H1338 0.950 . S
C1346 C1344 1.391 . S
C1346 C1347 1.400 . S
C1347 C1346 1.400 . S
C1347 C1348 1.398 . S
C1347 C1353 1.491 . S
C1348 H1339 0.950 . S
C1348 C1347 1.398 . S
C1348 C1349 1.391 . S
C1349 H1337 0.950 . S
C1349 C1345 1.393 . S
C1349 C1348 1.391 . S
C1350 H1340 0.950 . S
C1350 C1351 1.386 . S
C1350 C1352 1.391 . S
C1351 C1350 1.386 . S
C1351 C1355 1.393 . S
C1352 H1341 0.950 . S
C1352 C1350 1.391 . S
C1352 C1353 1.400 . S
C1353 C1347 1.491 . S
C1353 C1352 1.400 . S
C1353 C1354 1.398 . S
C1354 H1342 0.950 . S
C1354 C1353 1.398 . S
C1354 C1355 1.391 . S
C1355 H1343 0.950 . S
C1355 C1351 1.393 . S
C1355 C1354 1.391 . S
H1356 C1364 0.950 . S
H1357 C1369 0.950 . S
H1358 C1366 0.950 . S
H1359 C1368 0.950 . S
H1360 C1370 0.950 . S
H1361 C1372 0.950 . S
H1362 C1374 0.950 . S
H1363 C1375 0.950 . S
C1364 H1356 0.950 . S
C1364 C1365 1.386 . S
C1364 C1366 1.391 . S
C1365 C1364 1.386 . S
C1365 C1369 1.393 . S
C1366 H1358 0.950 . S
C1366 C1364 1.391 . S
C1366 C1367 1.400 . S
C1367 C1366 1.400 . S
C1367 C1368 1.398 . S
C1367 C1373 1.491 . S
C1368 H1359 0.950 . S
C1368 C1367 1.398 . S
C1368 C1369 1.391 . S
C1369 H1357 0.950 . S
C1369 C1365 1.393 . S
C1369 C1368 1.391 . S
C1370 H1360 0.950 . S
C1370 C1371 1.386 . S
C1370 C1372 1.391 . S
C1371 C1370 1.386 . S
C1371 C1375 1.393 . S
C1372 H1361 0.950 . S
C1372 C1370 1.391 . S
C1372 C1373 1.400 . S
C1373 C1367 1.491 . S
C1373 C1372 1.400 . S
C1373 C1374 1.398 . S
C1374 H1362 0.950 . S
C1374 C1373 1.398 . S
C1374 C1375 1.391 . S
C1375 H1363 0.950 . S
C1375 C1371 1.393 . S
C1375 C1374 1.391 . S
H1376 C1384 0.950 . S
H1377 C1389 0.950 . S
H1378 C1386 0.950 . S
H1379 C1388 0.950 . S
H1380 C1390 0.950 . S
H1381 C1392 0.950 . S
H1382 C1394 0.950 . S
H1383 C1395 0.950 . S
C1384 H1376 0.950 . S
C1384 C1385 1.386 . S
C1384 C1386 1.391 . S
C1385 C1384 1.386 . S
C1385 C1389 1.393 . S
C1386 H1378 0.950 . S
C1386 C1384 1.391 . S
C1386 C1387 1.400 . S
C1387 C1386 1.400 . S
C1387 C1388 1.398 . S
C1387 C1393 1.491 . S
C1388 H1379 0.950 . S
C1388 C1387 1.398 . S
C1388 C1389 1.391 . S
C1389 H1377 0.950 . S
C1389 C1385 1.393 . S
C1389 C1388 1.391 . S
C1390 H1380 0.950 . S
C1390 C1391 1.386 . S
C1390 C1392 1.391 . S
C1391 C1390 1.386 . S
C1391 C1395 1.393 . S
C1392 H1381 0.950 . S
C1392 C1390 1.391 . S
C1392 C1393 1.400 . S
C1393 C1387 1.491 . S
C1393 C1392 1.400 . S
C1393 C1394 1.398 . S
C1394 H1382 0.950 . S
C1394 C1393 1.398 . S
C1394 C1395 1.391 . S
C1395 H1383 0.950 . S
C1395 C1391 1.393 . S
C1395 C1394 1.391 . S
H1396 C1404 0.950 . S
H1397 C1409 0.950 . S
H1398 C1406 0.950 . S
H1399 C1408 0.950 . S
H1400 C1410 0.950 . S
H1401 C1412 0.950 . S
H1402 C1414 0.950 . S
H1403 C1415 0.950 . S
C1404 H1396 0.950 . S
C1404 C1405 1.386 . S
C1404 C1406 1.391 . S
C1405 C1404 1.386 . S
C1405 C1409 1.393 . S
C1406 H1398 0.950 . S
C1406 C1404 1.391 . S
C1406 C1407 1.400 . S
C1407 C1406 1.400 . S
C1407 C1408 1.398 . S
C1407 C1413 1.491 . S
C1408 H1399 0.950 . S
C1408 C1407 1.398 . S
C1408 C1409 1.391 . S
C1409 H1397 0.950 . S
C1409 C1405 1.393 . S
C1409 C1408 1.391 . S
C1410 H1400 0.950 . S
C1410 C1411 1.386 . S
C1410 C1412 1.391 . S
C1411 C1410 1.386 . S
C1411 C1415 1.393 . S
C1412 H1401 0.950 . S
C1412 C1410 1.391 . S
C1412 C1413 1.400 . S
C1413 C1407 1.491 . S
C1413 C1412 1.400 . S
C1413 C1414 1.398 . S
C1414 H1402 0.950 . S
C1414 C1413 1.398 . S
C1414 C1415 1.391 . S
C1415 H1403 0.950 . S
C1415 C1411 1.393 . S
C1415 C1414 1.391 . S
H1416 C1424 0.950 . S
H1417 C1429 0.950 . S
H1418 C1426 0.950 . S
H1419 C1428 0.950 . S
H1420 C1430 0.950 . S
H1421 C1432 0.950 . S
H1422 C1434 0.950 . S
H1423 C1435 0.950 . S
C1424 H1416 0.950 . S
C1424 C1425 1.386 . S
C1424 C1426 1.391 . S
C1425 C1424 1.386 . S
C1425 C1429 1.393 . S
C1426 H1418 0.950 . S
C1426 C1424 1.391 . S
C1426 C1427 1.400 . S
C1427 C1426 1.400 . S
C1427 C1428 1.398 . S
C1427 C1433 1.491 . S
C1428 H1419 0.950 . S
C1428 C1427 1.398 . S
C1428 C1429 1.391 . S
C1429 H1417 0.950 . S
C1429 C1425 1.393 . S
C1429 C1428 1.391 . S
C1430 H1420 0.950 . S
C1430 C1431 1.386 . S
C1430 C1432 1.391 . S
C1431 C1430 1.386 . S
C1431 C1435 1.393 . S
C1432 H1421 0.950 . S
C1432 C1430 1.391 . S
C1432 C1433 1.400 . S
C1433 C1427 1.491 . S
C1433 C1432 1.400 . S
C1433 C1434 1.398 . S
C1434 H1422 0.950 . S
C1434 C1433 1.398 . S
C1434 C1435 1.391 . S
C1435 H1423 0.950 . S
C1435 C1431 1.393 . S
C1435 C1434 1.391 . S
H1436 C1444 0.950 . S
H1437 C1449 0.950 . S
H1438 C1446 0.950 . S
H1439 C1448 0.950 . S
H1440 C1450 0.950 . S
H1441 C1452 0.950 . S
H1442 C1454 0.950 . S
H1443 C1455 0.950 . S
C1444 H1436 0.950 . S
C1444 C1445 1.386 . S
C1444 C1446 1.391 . S
C1445 C1444 1.386 . S
C1445 C1449 1.393 . S
C1446 H1438 0.950 . S
C1446 C1444 1.391 . S
C1446 C1447 1.400 . S
C1447 C1446 1.400 . S
C1447 C1448 1.398 . S
C1447 C1453 1.491 . S
C1448 H1439 0.950 . S
C1448 C1447 1.398 . S
C1448 C1449 1.391 . S
C1449 H1437 0.950 . S
C1449 C1445 1.393 . S
C1449 C1448 1.391 . S
C1450 H1440 0.950 . S
C1450 C1451 1.386 . S
C1450 C1452 1.391 . S
C1451 C1450 1.386 . S
C1451 C1455 1.393 . S
C1452 H1441 0.950 . S
C1452 C1450 1.391 . S
C1452 C1453 1.400 . S
C1453 C1447 1.491 . S
C1453 C1452 1.400 . S
C1453 C1454 1.398 . S
C1454 H1442 0.950 . S
C1454 C1453 1.398 . S
C1454 C1455 1.391 . S
C1455 H1443 0.950 . S
C1455 C1451 1.393 . S
C1455 C1454 1.391 . S
H1456 C1464 0.950 . S
H1457 C1469 0.950 . S
H1458 C1466 0.950 . S
H1459 C1468 0.950 . S
H1460 C1470 0.950 . S
H1461 C1472 0.950 . S
H1462 C1474 0.950 . S
H1463 C1475 0.950 . S
C1464 H1456 0.950 . S
C1464 C1465 1.386 . S
C1464 C1466 1.391 . S
C1465 C1464 1.386 . S
C1465 C1469 1.393 . S
C1466 H1458 0.950 . S
C1466 C1464 1.391 . S
C1466 C1467 1.400 . S
C1467 C1466 1.400 . S
C1467 C1468 1.398 . S
C1467 C1473 1.491 . S
C1468 H1459 0.950 . S
C1468 C1467 1.398 . S
C1468 C1469 1.391 . S
C1469 H1457 0.950 . S
C1469 C1465 1.393 . S
C1469 C1468 1.391 . S
C1470 H1460 0.950 . S
C1470 C1471 1.386 . S
C1470 C1472 1.391 . S
C1471 C1470 1.386 . S
C1471 C1475 1.393 . S
C1472 H1461 0.950 . S
C1472 C1470 1.391 . S
C1472 C1473 1.400 . S
C1473 C1467 1.491 . S
C1473 C1472 1.400 . S
C1473 C1474 1.398 . S
C1474 H1462 0.950 . S
C1474 C1473 1.398 . S
C1474 C1475 1.391 . S
C1475 H1463 0.950 . S
C1475 C1471 1.393 . S
C1475 C1474 1.391 . S
H1476 C1484 0.950 . S
H1477 C1489 0.950 . S
H1478 C1486 0.950 . S
H1479 C1488 0.950 . S
H1480 C1490 0.950 . S
H1481 C1492 0.950 . S
H1482 C1494 0.950 . S
H1483 C1495 0.950 . S
C1484 H1476 0.950 . S
C1484 C1485 1.386 . S
C1484 C1486 1.391 . S
C1485 C1484 1.386 . S
C1485 C1489 1.393 . S
C1486 H1478 0.950 . S
C1486 C1484 1.391 . S
C1486 C1487 1.400 . S
C1487 C1486 1.400 . S
C1487 C1488 1.398 . S
C1487 C1493 1.491 . S
C1488 H1479 0.950 . S
C1488 C1487 1.398 . S
C1488 C1489 1.391 . S
C1489 H1477 0.950 . S
C1489 C1485 1.393 . S
C1489 C1488 1.391 . S
C1490 H1480 0.950 . S
C1490 C1491 1.386 . S
C1490 C1492 1.391 . S
C1491 C1490 1.386 . S
C1491 C1495 1.393 . S
C1492 H1481 0.950 . S
C1492 C1490 1.391 . S
C1492 C1493 1.400 . S
C1493 C1487 1.491 . S
C1493 C1492 1.400 . S
C1493 C1494 1.398 . S
C1494 H1482 0.950 . S
C1494 C1493 1.398 . S
C1494 C1495 1.391 . S
C1495 H1483 0.950 . S
C1495 C1491 1.393 . S
C1495 C1494 1.391 . S
H1496 C1504 0.950 . S
H1497 C1509 0.950 . S
H1498 C1506 0.950 . S
H1499 C1508 0.950 . S
H1500 C1510 0.950 . S
H1501 C1512 0.950 . S
H1502 C1514 0.950 . S
H1503 C1515 0.950 . S
C1504 H1496 0.950 . S
C1504 C1505 1.386 . S
C1504 C1506 1.391 . S
C1505 C1504 1.386 . S
C1505 C1509 1.393 . S
C1506 H1498 0.950 . S
C1506 C1504 1.391 . S
C1506 C1507 1.400 . S
C1507 C1506 1.400 . S
C1507 C1508 1.398 . S
C1507 C1513 1.491 . S
C1508 H1499 0.950 . S
C1508 C1507 1.398 . S
C1508 C1509 1.391 . S
C1509 H1497 0.950 . S
C1509 C1505 1.393 . S
C1509 C1508 1.391 . S
C1510 H1500 0.950 . S
C1510 C1511 1.386 . S
C1510 C1512 1.391 . S
C1511 C1510 1.386 . S
C1511 C1515 1.393 . S
C1512 H1501 0.950 . S
C1512 C1510 1.391 . S
C1512 C1513 1.400 . S
C1513 C1507 1.491 . S
C1513 C1512 1.400 . S
C1513 C1514 1.398 . S
C1514 H1502 0.950 . S
C1514 C1513 1.398 . S
C1514 C1515 1.391 . S
C1515 H1503 0.950 . S
C1515 C1511 1.393 . S
C1515 C1514 1.391 . S
H1516 C1524 0.950 . S
H1517 C1529 0.950 . S
H1518 C1526 0.950 . S
H1519 C1528 0.950 . S
H1520 C1530 0.950 . S
H1521 C1532 0.950 . S
H1522 C1534 0.950 . S
H1523 C1535 0.950 . S
C1524 H1516 0.950 . S
C1524 C1525 1.386 . S
C1524 C1526 1.391 . S
C1525 C1524 1.386 . S
C1525 C1529 1.393 . S
C1526 H1518 0.950 . S
C1526 C1524 1.391 . S
C1526 C1527 1.400 . S
C1527 C1526 1.400 . S
C1527 C1528 1.398 . S
C1527 C1533 1.491 . S
C1528 H1519 0.950 . S
C1528 C1527 1.398 . S
C1528 C1529 1.391 . S
C1529 H1517 0.950 . S
C1529 C1525 1.393 . S
C1529 C1528 1.391 . S
C1530 H1520 0.950 . S
C1530 C1531 1.386 . S
C1530 C1532 1.391 . S
C1531 C1530 1.386 . S
C1531 C1535 1.393 . S
C1532 H1521 0.950 . S
C1532 C1530 1.391 . S
C1532 C1533 1.400 . S
C1533 C1527 1.491 . S
C1533 C1532 1.400 . S
C1533 C1534 1.398 . S
C1534 H1522 0.950 . S
C1534 C1533 1.398 . S
C1534 C1535 1.391 . S
C1535 H1523 0.950 . S
C1535 C1531 1.393 . S
C1535 C1534 1.391 . S
H1536 C1544 0.950 . S
H1537 C1549 0.950 . S
H1538 C1546 0.950 1_455 S
H1539 C1548 0.950 . S
H1540 C1550 0.950 . S
H1541 C1552 0.955 1_655 S
H1542 C1554 0.950 . S
H1543 C1555 0.950 . S
C1544 H1536 0.950 . S
C1544 C1545 1.386 . S
C1544 C1546 1.391 . S
C1545 C1544 1.386 . S
C1545 C1549 1.393 . S
C1546 H1538 0.950 1_655 S
C1546 C1544 1.391 . S
C1546 C1547 1.400 . S
C1547 C1546 1.400 . S
C1547 C1548 1.398 . S
C1547 C1553 1.491 1_655 S
C1548 H1539 0.950 . S
C1548 C1547 1.398 . S
C1548 C1549 1.391 . S
C1549 H1537 0.950 . S
C1549 C1545 1.393 . S
C1549 C1548 1.391 . S
C1550 H1540 0.950 . S
C1550 C1551 1.386 . S
C1550 C1552 1.388 . S
C1551 C1550 1.386 . S
C1551 C1555 1.393 . S
C1552 H1541 0.955 1_455 S
C1552 C1550 1.388 . S
C1552 C1553 1.399 . S
C1553 C1547 1.491 1_455 S
C1553 C1552 1.399 . S
C1553 C1554 1.398 . S
C1554 H1542 0.950 . S
C1554 C1553 1.398 . S
C1554 C1555 1.391 . S
C1555 H1543 0.950 . S
C1555 C1551 1.393 . S
C1555 C1554 1.391 . S
H1556 C1564 0.950 . S
H1557 C1569 0.950 . S
H1558 C1566 0.950 . S
H1559 C1568 0.950 . S
H1560 C1570 0.950 . S
H1561 C1572 0.950 . S
H1562 C1574 0.950 . S
H1563 C1575 0.950 . S
C1564 H1556 0.950 . S
C1564 C1565 1.386 . S
C1564 C1566 1.391 . S
C1565 C1564 1.386 . S
C1565 C1569 1.393 . S
C1566 H1558 0.950 . S
C1566 C1564 1.391 . S
C1566 C1567 1.400 . S
C1567 C1566 1.400 . S
C1567 C1568 1.398 . S
C1567 C1573 1.491 . S
C1568 H1559 0.950 . S
C1568 C1567 1.398 . S
C1568 C1569 1.391 . S
C1569 H1557 0.950 . S
C1569 C1565 1.393 . S
C1569 C1568 1.391 . S
C1570 H1560 0.950 . S
C1570 C1571 1.386 . S
C1570 C1572 1.391 . S
C1571 C1570 1.386 . S
C1571 C1575 1.393 . S
C1572 H1561 0.950 . S
C1572 C1570 1.391 . S
C1572 C1573 1.400 . S
C1573 C1567 1.491 . S
C1573 C1572 1.400 . S
C1573 C1574 1.398 . S
C1574 H1562 0.950 . S
C1574 C1573 1.398 . S
C1574 C1575 1.391 . S
C1575 H1563 0.950 . S
C1575 C1571 1.393 . S
C1575 C1574 1.391 . S
H1576 C1584 0.950 . S
H1577 C1589 0.950 . S
H1578 C1586 0.966 . S
H1579 C1588 0.950 . S
H1580 C1590 0.950 . S
H1581 C1592 0.950 . S
H1582 C1594 0.950 . S
H1583 C1595 0.950 . S
C1584 H1576 0.950 . S
C1584 C1585 1.386 . S
C1584 C1586 1.386 1_545 S
C1585 C1584 1.386 . S
C1585 C1589 1.393 . S
C1586 H1578 0.966 . S
C1586 C1584 1.386 1_565 S
C1586 C1587 1.390 1_565 S
C1587 C1586 1.390 1_545 S
C1587 C1588 1.398 . S
C1587 C1593 1.491 1_545 S
C1588 H1579 0.950 . S
C1588 C1587 1.398 . S
C1588 C1589 1.391 . S
C1589 H1577 0.950 . S
C1589 C1585 1.393 . S
C1589 C1588 1.391 . S
C1590 H1580 0.950 . S
C1590 C1591 1.386 . S
C1590 C1592 1.391 1_565 S
C1591 C1590 1.386 . S
C1591 C1595 1.393 . S
C1592 H1581 0.950 . S
C1592 C1590 1.391 1_545 S
C1592 C1593 1.400 1_545 S
C1593 C1587 1.491 1_565 S
C1593 C1592 1.400 1_565 S
C1593 C1594 1.398 . S
C1594 H1582 0.950 . S
C1594 C1593 1.398 . S
C1594 C1595 1.391 . S
C1595 H1583 0.950 . S
C1595 C1591 1.393 . S
C1595 C1594 1.391 . S
H1596 C1604 0.950 . S
H1597 C1609 0.950 . S
H1598 C1606 0.943 1_554 S
H1599 C1608 0.950 1_565 S
H1600 C1610 0.950 . S
H1601 C1612 0.950 1_556 S
H1602 C1614 0.950 . S
H1603 C1615 0.950 . S
C1604 H1596 0.950 . S
C1604 C1605 1.386 . S
C1604 C1606 1.391 . S
C1605 C1604 1.386 . S
C1605 C1609 1.393 . S
C1606 H1598 0.943 1_556 S
C1606 C1604 1.391 . S
C1606 C1607 1.400 . S
C1607 C1606 1.400 . S
C1607 C1608 1.398 . S
C1607 C1613 1.491 1_546 S
C1608 H1599 0.950 1_545 S
C1608 C1607 1.398 . S
C1608 C1609 1.391 . S
C1609 H1597 0.950 . S
C1609 C1605 1.393 . S
C1609 C1608 1.391 . S
C1610 H1600 0.950 . S
C1610 C1611 1.386 . S
C1610 C1612 1.391 . S
C1611 C1610 1.386 . S
C1611 C1615 1.393 . S
C1612 H1601 0.950 1_554 S
C1612 C1610 1.391 . S
C1612 C1613 1.400 . S
C1613 C1607 1.491 1_564 S
C1613 C1612 1.400 . S
C1613 C1614 1.398 . S
C1614 H1602 0.950 . S
C1614 C1613 1.398 . S
C1614 C1615 1.391 . S
C1615 H1603 0.950 . S
C1615 C1611 1.393 . S
C1615 C1614 1.391 . S
H1616 C1624 0.950 . S
H1617 C1629 0.950 . S
H1618 C1626 0.950 . S
H1619 C1628 0.950 . S
H1620 C1630 0.950 . S
H1621 C1632 0.950 1_556 S
H1622 C1634 0.941 1_655 S
H1623 C1635 0.950 . S
C1624 H1616 0.950 . S
C1624 C1625 1.386 . S
C1624 C1626 1.391 . S
C1625 C1624 1.386 . S
C1625 C1629 1.393 . S
C1626 H1618 0.950 . S
C1626 C1624 1.391 . S
C1626 C1627 1.400 . S
C1627 C1626 1.400 . S
C1627 C1628 1.398 1_655 S
C1627 C1633 1.491 1_656 S
C1628 H1619 0.950 . S
C1628 C1627 1.398 1_455 S
C1628 C1629 1.391 1_455 S
C1629 H1617 0.950 . S
C1629 C1625 1.393 . S
C1629 C1628 1.391 1_655 S
C1630 H1620 0.950 . S
C1630 C1631 1.386 . S
C1630 C1632 1.391 . S
C1631 C1630 1.386 . S
C1631 C1635 1.393 . S
C1632 H1621 0.950 1_554 S
C1632 C1630 1.391 . S
C1632 C1633 1.400 . S
C1633 C1627 1.491 1_454 S
C1633 C1632 1.400 . S
C1633 C1634 1.405 . S
C1634 H1622 0.941 1_455 S
C1634 C1633 1.405 . S
C1634 C1635 1.393 . S
C1635 H1623 0.950 . S
C1635 C1631 1.393 . S
C1635 C1634 1.393 . S
H1636 C1644 0.950 . S
H1637 C1649 0.950 . S
H1638 C1646 0.950 . S
H1639 C1648 0.950 . S
H1640 C1650 0.950 . S
H1641 C1652 0.950 . S
H1642 C1654 0.948 . S
H1643 C1655 0.950 . S
C1644 H1636 0.950 . S
C1644 C1645 1.386 . S
C1644 C1646 1.391 . S
C1645 C1644 1.386 . S
C1645 C1649 1.393 . S
C1646 H1638 0.950 . S
C1646 C1644 1.391 . S
C1646 C1647 1.400 . S
C1647 C1646 1.400 . S
C1647 C1648 1.398 . S
C1647 C1653 1.491 1_556 S
C1648 H1639 0.950 . S
C1648 C1647 1.398 . S
C1648 C1649 1.391 . S
C1649 H1637 0.950 . S
C1649 C1645 1.393 . S
C1649 C1648 1.391 . S
C1650 H1640 0.950 . S
C1650 C1651 1.386 . S
C1650 C1652 1.391 . S
C1651 C1650 1.386 . S
C1651 C1655 1.393 . S
C1652 H1641 0.950 . S
C1652 C1650 1.391 . S
C1652 C1653 1.400 . S
C1653 C1647 1.491 1_554 S
C1653 C1652 1.400 . S
C1653 C1654 1.398 . S
C1654 H1642 0.948 . S
C1654 C1653 1.398 . S
C1654 C1655 1.391 . S
C1655 H1643 0.950 . S
C1655 C1651 1.393 . S
C1655 C1654 1.391 . S
H1656 C1664 0.950 . S
H1657 C1669 0.950 1_565 S
H1658 C1666 0.950 . S
H1659 C1668 0.950 1_554 S
H1660 C1670 0.950 . S
H1661 C1672 0.950 . S
H1662 C1674 0.950 . S
H1663 C1675 0.950 . S
C1664 H1656 0.950 . S
C1664 C1665 1.386 1_545 S
C1664 C1666 1.391 . S
C1665 C1664 1.386 1_565 S
C1665 C1669 1.393 1_565 S
C1666 H1658 0.950 . S
C1666 C1664 1.391 . S
C1666 C1667 1.400 . S
C1667 C1666 1.400 . S
C1667 C1668 1.398 . S
C1667 C1673 1.491 1_556 S
C1668 H1659 0.950 1_556 S
C1668 C1667 1.398 . S
C1668 C1669 1.391 . S
C1669 H1657 0.950 1_545 S
C1669 C1665 1.393 1_545 S
C1669 C1668 1.391 . S
C1670 H1660 0.950 . S
C1670 C1671 1.386 . S
C1670 C1672 1.391 . S
C1671 C1670 1.386 . S
C1671 C1675 1.393 . S
C1672 H1661 0.950 . S
C1672 C1670 1.391 . S
C1672 C1673 1.400 . S
C1673 C1667 1.491 1_554 S
C1673 C1672 1.400 . S
C1673 C1674 1.398 1_554 S
C1674 H1662 0.950 . S
C1674 C1673 1.398 1_556 S
C1674 C1675 1.391 1_556 S
C1675 H1663 0.950 . S
C1675 C1671 1.393 . S
C1675 C1674 1.391 1_554 S
H1676 C1684 0.950 . S
H1677 C1689 0.950 1_455 S
H1678 C1686 0.950 . S
H1679 C1688 0.931 1_554 S
H1680 C1690 0.950 . S
H1681 C1692 0.950 . S
H1682 C1694 0.950 1_556 S
H1683 C1695 0.950 . S
C1684 H1676 0.950 . S
C1684 C1685 1.386 1_655 S
C1684 C1686 1.391 . S
C1685 C1684 1.386 1_455 S
C1685 C1689 1.393 1_455 S
C1686 H1678 0.950 . S
C1686 C1684 1.391 . S
C1686 C1687 1.400 . S
C1687 C1686 1.400 . S
C1687 C1688 1.405 . S
C1687 C1693 1.491 1_556 S
C1688 H1679 0.931 1_556 S
C1688 C1687 1.405 . S
C1688 C1689 1.403 . S
C1689 H1677 0.950 1_655 S
C1689 C1685 1.393 1_655 S
C1689 C1688 1.403 . S
C1690 H1680 0.950 . S
C1690 C1691 1.386 . S
C1690 C1692 1.391 . S
C1691 C1690 1.386 . S
C1691 C1695 1.393 . S
C1692 H1681 0.950 . S
C1692 C1690 1.391 . S
C1692 C1693 1.400 . S
C1693 C1687 1.491 1_554 S
C1693 C1692 1.400 . S
C1693 C1694 1.398 . S
C1694 H1682 0.950 1_554 S
C1694 C1693 1.398 . S
C1694 C1695 1.391 . S
C1695 H1683 0.950 . S
C1695 C1691 1.393 . S
C1695 C1694 1.391 . S
H1696 C1704 0.950 . S
H1697 C1709 0.977 . S
H1698 C1706 0.950 . S
H1699 C1708 0.950 . S
H1700 C1710 0.950 . S
H1701 C1712 0.950 . S
H1702 C1714 0.950 1_554 S
H1703 C1715 0.950 . S
C1704 H1696 0.950 . S
C1704 C1705 1.386 . S
C1704 C1706 1.391 . S
C1705 C1704 1.386 . S
C1705 C1709 1.341 1_554 S
C1706 H1698 0.950 . S
C1706 C1704 1.391 . S
C1706 C1707 1.400 1_554 S
C1707 C1706 1.400 1_556 S
C1707 C1708 1.398 . S
C1707 C1713 1.491 . S
C1708 H1699 0.950 . S
C1708 C1707 1.398 . S
C1708 C1709 1.416 . S
C1709 H1697 0.977 . S
C1709 C1705 1.341 1_556 S
C1709 C1708 1.416 . S
C1710 H1700 0.950 . S
C1710 C1711 1.386 . S
C1710 C1712 1.391 . S
C1711 C1710 1.386 . S
C1711 C1715 1.393 . S
C1712 H1701 0.950 . S
C1712 C1710 1.391 . S
C1712 C1713 1.400 . S
C1713 C1707 1.491 . S
C1713 C1712 1.400 . S
C1713 C1714 1.398 . S
C1714 H1702 0.950 1_556 S
C1714 C1713 1.398 . S
C1714 C1715 1.391 . S
C1715 H1703 0.950 . S
C1715 C1711 1.393 . S
C1715 C1714 1.391 . S
H1716 C1724 0.950 1_655 S
H1717 C1729 0.950 1_655 S
H1718 C1726 0.950 . S
H1719 C1728 0.950 . S
H1720 C1730 0.950 . S
H1721 C1732 0.950 . S
H1722 C1734 0.950 . S
H1723 C1735 0.950 . S
C1724 H1716 0.950 1_455 S
C1724 C1725 1.386 1_455 S
C1724 C1726 1.391 . S
C1725 C1724 1.386 1_655 S
C1725 C1729 1.393 1_655 S
C1726 H1718 0.950 . S
C1726 C1724 1.391 . S
C1726 C1727 1.400 . S
C1727 C1726 1.400 . S
C1727 C1728 1.398 . S
C1727 C1733 1.491 . S
C1728 H1719 0.950 . S
C1728 C1727 1.398 . S
C1728 C1729 1.391 . S
C1729 H1717 0.950 1_455 S
C1729 C1725 1.393 1_455 S
C1729 C1728 1.391 . S
C1730 H1720 0.950 . S
C1730 C1731 1.386 . S
C1730 C1732 1.391 . S
C1731 C1730 1.386 . S
C1731 C1735 1.393 . S
C1732 H1721 0.950 . S
C1732 C1730 1.391 . S
C1732 C1733 1.400 . S
C1733 C1727 1.491 . S
C1733 C1732 1.400 . S
C1733 C1734 1.398 . S
C1734 H1722 0.950 . S
C1734 C1733 1.398 . S
C1734 C1735 1.391 . S
C1735 H1723 0.950 . S
C1735 C1731 1.393 . S
C1735 C1734 1.391 . S
H1736 C1744 0.950 . S
H1737 C1749 0.950 . S
H1738 C1746 0.950 . S
H1739 C1748 0.950 . S
H1740 C1750 0.950 . S
H1741 C1752 0.950 . S
H1742 C1754 0.950 . S
H1743 C1755 0.950 . S
C1744 H1736 0.950 . S
C1744 C1745 1.386 . S
C1744 C1746 1.391 . S
C1745 C1744 1.386 . S
C1745 C1749 1.393 . S
C1746 H1738 0.950 . S
C1746 C1744 1.391 . S
C1746 C1747 1.400 . S
C1747 C1746 1.400 . S
C1747 C1748 1.398 . S
C1747 C1753 1.491 . S
C1748 H1739 0.950 . S
C1748 C1747 1.398 . S
C1748 C1749 1.391 . S
C1749 H1737 0.950 . S
C1749 C1745 1.393 . S
C1749 C1748 1.391 . S
C1750 H1740 0.950 . S
C1750 C1751 1.386 . S
C1750 C1752 1.391 . S
C1751 C1750 1.386 . S
C1751 C1755 1.393 . S
C1752 H1741 0.950 . S
C1752 C1750 1.391 . S
C1752 C1753 1.400 . S
C1753 C1747 1.491 . S
C1753 C1752 1.400 . S
C1753 C1754 1.398 . S
C1754 H1742 0.950 . S
C1754 C1753 1.398 . S
C1754 C1755 1.391 . S
C1755 H1743 0.950 . S
C1755 C1751 1.393 . S
C1755 C1754 1.391 . S
H1756 C1764 0.950 . S
H1757 C1769 0.950 1_545 S
H1758 C1766 0.950 . S
H1759 C1768 0.950 . S
H1760 C1770 0.950 . S
H1761 C1772 0.950 . S
H1762 C1774 0.950 . S
H1763 C1775 0.950 . S
C1764 H1756 0.950 . S
C1764 C1765 1.346 1_565 S
C1764 C1766 1.391 . S
C1765 C1764 1.346 1_545 S
C1765 C1769 1.401 1_545 S
C1766 H1758 0.950 . S
C1766 C1764 1.391 . S
C1766 C1767 1.400 . S
C1767 C1766 1.400 . S
C1767 C1768 1.398 . S
C1767 C1773 1.491 . S
C1768 H1759 0.950 . S
C1768 C1767 1.398 . S
C1768 C1769 1.391 . S
C1769 H1757 0.950 1_565 S
C1769 C1765 1.401 1_565 S
C1769 C1768 1.391 . S
C1770 H1760 0.950 . S
C1770 C1771 1.386 . S
C1770 C1772 1.391 . S
C1771 C1770 1.386 . S
C1771 C1775 1.393 . S
C1772 H1761 0.950 . S
C1772 C1770 1.391 . S
C1772 C1773 1.400 . S
C1773 C1767 1.491 . S
C1773 C1772 1.400 . S
C1773 C1774 1.398 . S
C1774 H1762 0.950 . S
C1774 C1773 1.398 . S
C1774 C1775 1.391 . S
C1775 H1763 0.950 . S
C1775 C1771 1.393 . S
C1775 C1774 1.391 . S
H1776 C1784 0.950 . S
H1777 C1789 0.951 . S
H1778 C1786 0.950 . S
H1779 C1788 0.950 . S
H1780 C1790 0.950 . S
H1781 C1792 0.950 . S
H1782 C1794 0.950 . S
H1783 C1795 0.950 1_545 S
C1784 H1776 0.950 . S
C1784 C1785 1.386 . S
C1784 C1786 1.391 . S
C1785 C1784 1.386 . S
C1785 C1789 1.393 . S
C1786 H1778 0.950 . S
C1786 C1784 1.391 . S
C1786 C1787 1.400 1_556 S
C1787 C1786 1.400 1_554 S
C1787 C1788 1.398 . S
C1787 C1793 1.491 . S
C1788 H1779 0.950 . S
C1788 C1787 1.398 . S
C1788 C1789 1.391 1_554 S
C1789 H1777 0.951 . S
C1789 C1785 1.393 . S
C1789 C1788 1.391 1_556 S
C1790 H1780 0.950 . S
C1790 C1791 1.386 . S
C1790 C1792 1.391 . S
C1791 C1790 1.386 . S
C1791 C1795 1.393 . S
C1792 H1781 0.950 . S
C1792 C1790 1.391 . S
C1792 C1793 1.400 . S
C1793 C1787 1.491 . S
C1793 C1792 1.400 . S
C1793 C1794 1.398 . S
C1794 H1782 0.950 . S
C1794 C1793 1.398 . S
C1794 C1795 1.391 . S
C1795 H1783 0.950 1_565 S
C1795 C1791 1.393 . S
C1795 C1794 1.391 . S
H1796 C1804 0.950 1_554 S
H1797 C1809 0.950 . S
H1798 C1806 0.950 . S
H1799 C1808 0.950 . S
H1800 C1810 0.950 1_655 S
H1801 C1812 0.950 1_556 S
H1802 C1814 0.950 . S
H1803 C1815 0.950 . S
C1804 H1796 0.950 1_556 S
C1804 C1805 1.386 . S
C1804 C1806 1.391 1_556 S
C1805 C1804 1.386 . S
C1805 C1809 1.393 . S
C1806 H1798 0.950 . S
C1806 C1804 1.391 1_554 S
C1806 C1807 1.400 . S
C1807 C1806 1.400 . S
C1807 C1808 1.398 1_554 S
C1807 C1813 1.491 . S
C1808 H1799 0.950 . S
C1808 C1807 1.398 1_556 S
C1808 C1809 1.391 . S
C1809 H1797 0.950 . S
C1809 C1805 1.393 . S
C1809 C1808 1.391 . S
C1810 H1800 0.950 1_455 S
C1810 C1811 1.386 . S
C1810 C1812 1.391 . S
C1811 C1810 1.386 . S
C1811 C1815 1.393 . S
C1812 H1801 0.950 1_554 S
C1812 C1810 1.391 . S
C1812 C1813 1.400 . S
C1813 C1807 1.491 . S
C1813 C1812 1.400 . S
C1813 C1814 1.398 . S
C1814 H1802 0.950 . S
C1814 C1813 1.398 . S
C1814 C1815 1.391 . S
C1815 H1803 0.950 . S
C1815 C1811 1.393 . S
C1815 C1814 1.391 . S
H1816 C1824 0.950 . S
H1817 C1829 0.950 . S
H1818 C1826 0.950 . S
H1819 C1828 0.950 . S
H1820 C1830 0.950 . S
H1821 C1832 0.950 . S
H1822 C1834 0.950 . S
H1823 C1835 0.950 . S
C1824 H1816 0.950 . S
C1824 C1825 1.386 . S
C1824 C1826 1.391 . S
C1825 C1824 1.386 . S
C1825 C1829 1.393 1_556 S
C1826 H1818 0.950 . S
C1826 C1824 1.391 . S
C1826 C1827 1.400 1_556 S
C1827 C1826 1.400 1_554 S
C1827 C1828 1.398 . S
C1827 C1833 1.491 . S
C1828 H1819 0.950 . S
C1828 C1827 1.398 . S
C1828 C1829 1.391 . S
C1829 H1817 0.950 . S
C1829 C1825 1.393 1_554 S
C1829 C1828 1.391 . S
C1830 H1820 0.950 . S
C1830 C1831 1.386 . S
C1830 C1832 1.391 . S
C1831 C1830 1.386 . S
C1831 C1835 1.393 . S
C1832 H1821 0.950 . S
C1832 C1830 1.391 . S
C1832 C1833 1.400 . S
C1833 C1827 1.491 . S
C1833 C1832 1.400 . S
C1833 C1834 1.398 . S
C1834 H1822 0.950 . S
C1834 C1833 1.398 . S
C1834 C1835 1.391 . S
C1835 H1823 0.950 . S
C1835 C1831 1.393 . S
C1835 C1834 1.391 . S
H1836 C1844 0.950 . S
H1837 C1849 0.950 . S
H1838 C1846 0.950 . S
H1839 C1848 0.950 . S
H1840 C1850 0.921 1_455 S
H1841 C1852 0.950 . S
H1842 C1854 0.950 . S
H1843 C1855 0.952 1_455 S
C1844 H1836 0.950 . S
C1844 C1845 1.386 . S
C1844 C1846 1.391 . S
C1845 C1844 1.386 . S
C1845 C1849 1.393 . S
C1846 H1838 0.950 . S
C1846 C1844 1.391 . S
C1846 C1847 1.400 . S
C1847 C1846 1.400 . S
C1847 C1848 1.398 . S
C1847 C1853 1.491 . S
C1848 H1839 0.950 . S
C1848 C1847 1.398 . S
C1848 C1849 1.391 . S
C1849 H1837 0.950 . S
C1849 C1845 1.393 . S
C1849 C1848 1.391 . S
C1850 H1840 0.921 1_655 S
C1850 C1851 1.386 1_655 S
C1850 C1852 1.391 . S
C1851 C1850 1.386 1_455 S
C1851 C1855 1.393 1_455 S
C1852 H1841 0.950 . S
C1852 C1850 1.391 . S
C1852 C1853 1.400 . S
C1853 C1847 1.491 . S
C1853 C1852 1.400 . S
C1853 C1854 1.398 . S
C1854 H1842 0.950 . S
C1854 C1853 1.398 . S
C1854 C1855 1.391 . S
C1855 H1843 0.952 1_655 S
C1855 C1851 1.393 1_655 S
C1855 C1854 1.391 . S
H1856 C1864 0.950 . S
H1857 C1869 0.950 . S
H1858 C1866 0.950 . S
H1859 C1868 0.950 . S
H1860 C1870 0.950 . S
H1861 C1872 0.950 . S
H1862 C1874 0.950 . S
H1863 C1875 0.950 . S
C1864 H1856 0.950 . S
C1864 C1865 1.386 . S
C1864 C1866 1.391 . S
C1865 C1864 1.386 . S
C1865 C1869 1.393 . S
C1866 H1858 0.950 . S
C1866 C1864 1.391 . S
C1866 C1867 1.400 . S
C1867 C1866 1.400 . S
C1867 C1868 1.398 . S
C1867 C1873 1.491 . S
C1868 H1859 0.950 . S
C1868 C1867 1.398 . S
C1868 C1869 1.391 . S
C1869 H1857 0.950 . S
C1869 C1865 1.393 . S
C1869 C1868 1.391 . S
C1870 H1860 0.950 . S
C1870 C1871 1.386 . S
C1870 C1872 1.391 . S
C1871 C1870 1.386 . S
C1871 C1875 1.393 . S
C1872 H1861 0.950 . S
C1872 C1870 1.391 . S
C1872 C1873 1.400 . S
C1873 C1867 1.491 . S
C1873 C1872 1.400 . S
C1873 C1874 1.398 . S
C1874 H1862 0.950 . S
C1874 C1873 1.398 . S
C1874 C1875 1.391 . S
C1875 H1863 0.950 . S
C1875 C1871 1.393 . S
C1875 C1874 1.391 . S
H1876 C1884 0.950 1_565 S
H1877 C1889 0.950 . S
H1878 C1886 0.950 . S
H1879 C1888 0.950 . S
H1880 C1890 0.950 . S
H1881 C1892 0.950 . S
H1882 C1894 0.950 . S
H1883 C1895 0.950 . S
C1884 H1876 0.950 1_545 S
C1884 C1885 1.386 . S
C1884 C1886 1.391 . S
C1885 C1884 1.386 . S
C1885 C1889 1.393 . S
C1886 H1878 0.950 . S
C1886 C1884 1.391 . S
C1886 C1887 1.400 . S
C1887 C1886 1.400 . S
C1887 C1888 1.398 . S
C1887 C1893 1.491 . S
C1888 H1879 0.950 . S
C1888 C1887 1.398 . S
C1888 C1889 1.391 . S
C1889 H1877 0.950 . S
C1889 C1885 1.393 . S
C1889 C1888 1.391 . S
C1890 H1880 0.950 . S
C1890 C1891 1.386 . S
C1890 C1892 1.391 . S
C1891 C1890 1.386 . S
C1891 C1895 1.393 . S
C1892 H1881 0.950 . S
C1892 C1890 1.391 . S
C1892 C1893 1.400 . S
C1893 C1887 1.491 . S
C1893 C1892 1.400 . S
C1893 C1894 1.398 . S
C1894 H1882 0.950 . S
C1894 C1893 1.398 . S
C1894 C1895 1.391 . S
C1895 H1883 0.950 . S
C1895 C1891 1.393 . S
C1895 C1894 1.391 . S
H1896 C1904 0.950 . S
H1897 C1909 0.950 . S
H1898 C1906 0.950 . S
H1899 C1908 0.950 . S
H1900 C1910 0.950 . S
H1901 C1912 0.950 . S
H1902 C1914 0.950 . S
H1903 C1915 0.950 . S
C1904 H1896 0.950 . S
C1904 C1905 1.386 . S
C1904 C1906 1.391 . S
C1905 C1904 1.386 . S
C1905 C1909 1.393 . S
C1906 H1898 0.950 . S
C1906 C1904 1.391 . S
C1906 C1907 1.400 . S
C1907 C1906 1.400 . S
C1907 C1908 1.398 . S
C1907 C1913 1.491 . S
C1908 H1899 0.950 . S
C1908 C1907 1.398 . S
C1908 C1909 1.391 . S
C1909 H1897 0.950 . S
C1909 C1905 1.393 . S
C1909 C1908 1.391 . S
C1910 H1900 0.950 . S
C1910 C1911 1.386 . S
C1910 C1912 1.391 . S
C1911 C1910 1.386 . S
C1911 C1915 1.393 . S
C1912 H1901 0.950 . S
C1912 C1910 1.391 . S
C1912 C1913 1.400 . S
C1913 C1907 1.491 . S
C1913 C1912 1.400 . S
C1913 C1914 1.398 . S
C1914 H1902 0.950 . S
C1914 C1913 1.398 . S
C1914 C1915 1.391 . S
C1915 H1903 0.950 . S
C1915 C1911 1.393 . S
C1915 C1914 1.391 . S
H1916 C1924 0.950 . S
H1917 C1929 0.950 . S
H1918 C1926 0.950 . S
H1919 C1928 0.950 . S
H1920 C1930 0.950 . S
H1921 C1932 0.950 . S
H1922 C1934 0.950 . S
H1923 C1935 0.950 . S
C1924 H1916 0.950 . S
C1924 C1925 1.386 . S
C1924 C1926 1.391 . S
C1925 C1924 1.386 . S
C1925 C1929 1.393 . S
C1926 H1918 0.950 . S
C1926 C1924 1.391 . S
C1926 C1927 1.400 . S
C1927 C1926 1.400 . S
C1927 C1928 1.398 . S
C1927 C1933 1.491 . S
C1928 H1919 0.950 . S
C1928 C1927 1.398 . S
C1928 C1929 1.391 . S
C1929 H1917 0.950 . S
C1929 C1925 1.393 . S
C1929 C1928 1.391 . S
C1930 H1920 0.950 . S
C1930 C1931 1.386 . S
C1930 C1932 1.391 . S
C1931 C1930 1.386 . S
C1931 C1935 1.393 . S
C1932 H1921 0.950 . S
C1932 C1930 1.391 . S
C1932 C1933 1.400 . S
C1933 C1927 1.491 . S
C1933 C1932 1.400 . S
C1933 C1934 1.398 . S
C1934 H1922 0.950 . S
C1934 C1933 1.398 . S
C1934 C1935 1.391 . S
C1935 H1923 0.950 . S
C1935 C1931 1.393 . S
C1935 C1934 1.391 . S
H1936 C1944 0.950 . S
H1937 C1949 0.950 . S
H1938 C1946 0.950 . S
H1939 C1948 0.950 . S
H1940 C1950 0.950 . S
H1941 C1952 0.950 . S
H1942 C1954 0.950 . S
H1943 C1955 0.950 . S
C1944 H1936 0.950 . S
C1944 C1945 1.386 . S
C1944 C1946 1.391 . S
C1945 C1944 1.386 . S
C1945 C1949 1.393 . S
C1946 H1938 0.950 . S
C1946 C1944 1.391 . S
C1946 C1947 1.400 . S
C1947 C1946 1.400 . S
C1947 C1948 1.398 . S
C1947 C1953 1.491 . S
C1948 H1939 0.950 . S
C1948 C1947 1.398 . S
C1948 C1949 1.391 . S
C1949 H1937 0.950 . S
C1949 C1945 1.393 . S
C1949 C1948 1.391 . S
C1950 H1940 0.950 . S
C1950 C1951 1.386 . S
C1950 C1952 1.391 . S
C1951 C1950 1.386 . S
C1951 C1955 1.393 . S
C1952 H1941 0.950 . S
C1952 C1950 1.391 . S
C1952 C1953 1.400 . S
C1953 C1947 1.491 . S
C1953 C1952 1.400 . S
C1953 C1954 1.398 . S
C1954 H1942 0.950 . S
C1954 C1953 1.398 . S
C1954 C1955 1.391 . S
C1955 H1943 0.950 . S
C1955 C1951 1.393 . S
C1955 C1954 1.391 . S
H1956 C1964 0.950 . S
H1957 C1969 0.950 . S
H1958 C1966 0.950 . S
H1959 C1968 0.950 . S
H1960 C1970 0.950 . S
H1961 C1972 0.950 . S
H1962 C1974 0.950 . S
H1963 C1975 0.950 . S
C1964 H1956 0.950 . S
C1964 C1965 1.386 . S
C1964 C1966 1.391 . S
C1965 C1964 1.386 . S
C1965 C1969 1.393 . S
C1966 H1958 0.950 . S
C1966 C1964 1.391 . S
C1966 C1967 1.400 . S
C1967 C1966 1.400 . S
C1967 C1968 1.398 . S
C1967 C1973 1.491 . S
C1968 H1959 0.950 . S
C1968 C1967 1.398 . S
C1968 C1969 1.391 . S
C1969 H1957 0.950 . S
C1969 C1965 1.393 . S
C1969 C1968 1.391 . S
C1970 H1960 0.950 . S
C1970 C1971 1.386 . S
C1970 C1972 1.391 . S
C1971 C1970 1.386 . S
C1971 C1975 1.393 . S
C1972 H1961 0.950 . S
C1972 C1970 1.391 . S
C1972 C1973 1.400 . S
C1973 C1967 1.491 . S
C1973 C1972 1.400 . S
C1973 C1974 1.398 . S
C1974 H1962 0.950 . S
C1974 C1973 1.398 . S
C1974 C1975 1.391 . S
C1975 H1963 0.950 . S
C1975 C1971 1.393 . S
C1975 C1974 1.391 . S
H1976 C1984 0.950 . S
H1977 C1989 0.950 . S
H1978 C1986 0.950 . S
H1979 C1988 0.950 . S
H1980 C1990 0.950 . S
H1981 C1992 0.950 . S
H1982 C1994 0.950 . S
H1983 C1995 0.950 . S
C1984 H1976 0.950 . S
C1984 C1985 1.386 . S
C1984 C1986 1.391 . S
C1985 C1984 1.386 . S
C1985 C1989 1.393 . S
C1986 H1978 0.950 . S
C1986 C1984 1.391 . S
C1986 C1987 1.400 . S
C1987 C1986 1.400 . S
C1987 C1988 1.398 . S
C1987 C1993 1.491 . S
C1988 H1979 0.950 . S
C1988 C1987 1.398 . S
C1988 C1989 1.391 . S
C1989 H1977 0.950 . S
C1989 C1985 1.393 . S
C1989 C1988 1.391 . S
C1990 H1980 0.950 . S
C1990 C1991 1.386 . S
C1990 C1992 1.391 . S
C1991 C1990 1.386 . S
C1991 C1995 1.393 . S
C1992 H1981 0.950 . S
C1992 C1990 1.391 . S
C1992 C1993 1.400 . S
C1993 C1987 1.491 . S
C1993 C1992 1.400 . S
C1993 C1994 1.398 . S
C1994 H1982 0.950 . S
C1994 C1993 1.398 . S
C1994 C1995 1.391 . S
C1995 H1983 0.950 . S
C1995 C1991 1.393 . S
C1995 C1994 1.391 . S
H1996 C2004 0.950 . S
H1997 C2009 0.950 . S
H1998 C2006 0.950 . S
H1999 C2008 0.950 . S
H2000 C2010 0.950 . S
H2001 C2012 0.950 . S
H2002 C2014 0.950 . S
H2003 C2015 0.950 . S
C2004 H1996 0.950 . S
C2004 C2005 1.386 . S
C2004 C2006 1.391 . S
C2005 C2004 1.386 . S
C2005 C2009 1.393 . S
C2006 H1998 0.950 . S
C2006 C2004 1.391 . S
C2006 C2007 1.400 . S
C2007 C2006 1.400 . S
C2007 C2008 1.398 . S
C2007 C2013 1.491 . S
C2008 H1999 0.950 . S
C2008 C2007 1.398 . S
C2008 C2009 1.391 . S
C2009 H1997 0.950 . S
C2009 C2005 1.393 . S
C2009 C2008 1.391 . S
C2010 H2000 0.950 . S
C2010 C2011 1.386 . S
C2010 C2012 1.391 . S
C2011 C2010 1.386 . S
C2011 C2015 1.393 . S
C2012 H2001 0.950 . S
C2012 C2010 1.391 . S
C2012 C2013 1.400 . S
C2013 C2007 1.491 . S
C2013 C2012 1.400 . S
C2013 C2014 1.398 . S
C2014 H2002 0.950 . S
C2014 C2013 1.398 . S
C2014 C2015 1.391 . S
C2015 H2003 0.950 . S
C2015 C2011 1.393 . S
C2015 C2014 1.391 . S
H2016 C2024 0.950 . S
H2017 C2029 0.950 . S
H2018 C2026 0.950 . S
H2019 C2028 0.950 . S
H2020 C2030 0.950 . S
H2021 C2032 0.950 . S
H2022 C2034 0.950 . S
H2023 C2035 0.950 . S
C2024 H2016 0.950 . S
C2024 C2025 1.386 . S
C2024 C2026 1.391 . S
C2025 C2024 1.386 . S
C2025 C2029 1.393 . S
C2026 H2018 0.950 . S
C2026 C2024 1.391 . S
C2026 C2027 1.400 . S
C2027 C2026 1.400 . S
C2027 C2028 1.398 . S
C2027 C2033 1.491 . S
C2028 H2019 0.950 . S
C2028 C2027 1.398 . S
C2028 C2029 1.391 . S
C2029 H2017 0.950 . S
C2029 C2025 1.393 . S
C2029 C2028 1.391 . S
C2030 H2020 0.950 . S
C2030 C2031 1.386 . S
C2030 C2032 1.391 . S
C2031 C2030 1.386 . S
C2031 C2035 1.393 . S
C2032 H2021 0.950 . S
C2032 C2030 1.391 . S
C2032 C2033 1.400 . S
C2033 C2027 1.491 . S
C2033 C2032 1.400 . S
C2033 C2034 1.398 . S
C2034 H2022 0.950 . S
C2034 C2033 1.398 . S
C2034 C2035 1.391 . S
C2035 H2023 0.950 . S
C2035 C2031 1.393 . S
C2035 C2034 1.391 . S
H2036 C2044 0.950 . S
H2037 C2049 0.950 . S
H2038 C2046 0.950 . S
H2039 C2048 0.950 . S
H2040 C2050 0.950 . S
H2041 C2052 0.950 . S
H2042 C2054 0.950 . S
H2043 C2055 0.950 . S
C2044 H2036 0.950 . S
C2044 C2045 1.386 . S
C2044 C2046 1.391 . S
C2045 C2044 1.386 . S
C2045 C2049 1.393 . S
C2046 H2038 0.950 . S
C2046 C2044 1.391 . S
C2046 C2047 1.400 . S
C2047 C2046 1.400 . S
C2047 C2048 1.398 . S
C2047 C2053 1.491 . S
C2048 H2039 0.950 . S
C2048 C2047 1.398 . S
C2048 C2049 1.391 . S
C2049 H2037 0.950 . S
C2049 C2045 1.393 . S
C2049 C2048 1.391 . S
C2050 H2040 0.950 . S
C2050 C2051 1.386 . S
C2050 C2052 1.391 . S
C2051 C2050 1.386 . S
C2051 C2055 1.393 . S
C2052 H2041 0.950 . S
C2052 C2050 1.391 . S
C2052 C2053 1.400 . S
C2053 C2047 1.491 . S
C2053 C2052 1.400 . S
C2053 C2054 1.398 . S
C2054 H2042 0.950 . S
C2054 C2053 1.398 . S
C2054 C2055 1.391 . S
C2055 H2043 0.950 . S
C2055 C2051 1.393 . S
C2055 C2054 1.391 . S
H2056 C2064 0.950 . S
H2057 C2069 0.950 . S
H2058 C2066 0.950 . S
H2059 C2068 0.950 . S
H2060 C2070 0.950 . S
H2061 C2072 0.950 . S
H2062 C2074 0.950 . S
H2063 C2075 0.950 . S
C2064 H2056 0.950 . S
C2064 C2065 1.386 . S
C2064 C2066 1.391 . S
C2065 C2064 1.386 . S
C2065 C2069 1.393 . S
C2066 H2058 0.950 . S
C2066 C2064 1.391 . S
C2066 C2067 1.400 . S
C2067 C2066 1.400 . S
C2067 C2068 1.398 . S
C2067 C2073 1.491 . S
C2068 H2059 0.950 . S
C2068 C2067 1.398 . S
C2068 C2069 1.391 . S
C2069 H2057 0.950 . S
C2069 C2065 1.393 . S
C2069 C2068 1.391 . S
C2070 H2060 0.950 . S
C2070 C2071 1.386 . S
C2070 C2072 1.391 . S
C2071 C2070 1.386 . S
C2071 C2075 1.393 . S
C2072 H2061 0.950 . S
C2072 C2070 1.391 . S
C2072 C2073 1.400 . S
C2073 C2067 1.491 . S
C2073 C2072 1.400 . S
C2073 C2074 1.398 . S
C2074 H2062 0.950 . S
C2074 C2073 1.398 . S
C2074 C2075 1.391 . S
C2075 H2063 0.950 . S
C2075 C2071 1.393 . S
C2075 C2074 1.391 . S
H2076 C2084 0.950 . S
H2077 C2089 0.950 . S
H2078 C2086 0.950 . S
H2079 C2088 0.950 . S
H2080 C2090 0.950 . S
H2081 C2092 0.950 . S
H2082 C2094 0.950 . S
H2083 C2095 0.950 . S
C2084 H2076 0.950 . S
C2084 C2085 1.386 . S
C2084 C2086 1.391 . S
C2085 C2084 1.386 . S
C2085 C2089 1.393 . S
C2086 H2078 0.950 . S
C2086 C2084 1.391 . S
C2086 C2087 1.400 . S
C2087 C2086 1.400 . S
C2087 C2088 1.398 . S
C2087 C2093 1.491 . S
C2088 H2079 0.950 . S
C2088 C2087 1.398 . S
C2088 C2089 1.391 . S
C2089 H2077 0.950 . S
C2089 C2085 1.393 . S
C2089 C2088 1.391 . S
C2090 H2080 0.950 . S
C2090 C2091 1.386 . S
C2090 C2092 1.391 . S
C2091 C2090 1.386 . S
C2091 C2095 1.393 . S
C2092 H2081 0.950 . S
C2092 C2090 1.391 . S
C2092 C2093 1.400 . S
C2093 C2087 1.491 . S
C2093 C2092 1.400 . S
C2093 C2094 1.398 . S
C2094 H2082 0.950 . S
C2094 C2093 1.398 . S
C2094 C2095 1.391 . S
C2095 H2083 0.950 . S
C2095 C2091 1.393 . S
C2095 C2094 1.391 . S
H2096 C2104 0.950 . S
H2097 C2109 0.950 . S
H2098 C2106 0.950 . S
H2099 C2108 0.950 . S
H2100 C2110 0.950 . S
H2101 C2112 0.950 . S
H2102 C2114 0.950 . S
H2103 C2115 0.950 . S
C2104 H2096 0.950 . S
C2104 C2105 1.386 . S
C2104 C2106 1.391 . S
C2105 C2104 1.386 . S
C2105 C2109 1.393 . S
C2106 H2098 0.950 . S
C2106 C2104 1.391 . S
C2106 C2107 1.400 . S
C2107 C2106 1.400 . S
C2107 C2108 1.398 . S
C2107 C2113 1.491 . S
C2108 H2099 0.950 . S
C2108 C2107 1.398 . S
C2108 C2109 1.391 . S
C2109 H2097 0.950 . S
C2109 C2105 1.393 . S
C2109 C2108 1.391 . S
C2110 H2100 0.950 . S
C2110 C2111 1.386 . S
C2110 C2112 1.391 . S
C2111 C2110 1.386 . S
C2111 C2115 1.393 . S
C2112 H2101 0.950 . S
C2112 C2110 1.391 . S
C2112 C2113 1.400 . S
C2113 C2107 1.491 . S
C2113 C2112 1.400 . S
C2113 C2114 1.398 . S
C2114 H2102 0.950 . S
C2114 C2113 1.398 . S
C2114 C2115 1.391 . S
C2115 H2103 0.950 . S
C2115 C2111 1.393 . S
C2115 C2114 1.391 . S
H2116 C2124 0.950 . S
H2117 C2129 0.950 . S
H2118 C2126 0.950 . S
H2119 C2128 0.950 . S
H2120 C2130 0.950 . S
H2121 C2132 0.950 . S
H2122 C2134 0.950 . S
H2123 C2135 0.950 . S
C2124 H2116 0.950 . S
C2124 C2125 1.386 . S
C2124 C2126 1.391 . S
C2125 C2124 1.386 . S
C2125 C2129 1.393 . S
C2126 H2118 0.950 . S
C2126 C2124 1.391 . S
C2126 C2127 1.400 . S
C2127 C2126 1.400 . S
C2127 C2128 1.398 . S
C2127 C2133 1.491 . S
C2128 H2119 0.950 . S
C2128 C2127 1.398 . S
C2128 C2129 1.391 . S
C2129 H2117 0.950 . S
C2129 C2125 1.393 . S
C2129 C2128 1.391 . S
C2130 H2120 0.950 . S
C2130 C2131 1.386 . S
C2130 C2132 1.391 . S
C2131 C2130 1.386 . S
C2131 C2135 1.393 . S
C2132 H2121 0.950 . S
C2132 C2130 1.391 . S
C2132 C2133 1.400 . S
C2133 C2127 1.491 . S
C2133 C2132 1.400 . S
C2133 C2134 1.398 . S
C2134 H2122 0.950 . S
C2134 C2133 1.398 . S
C2134 C2135 1.391 . S
C2135 H2123 0.950 . S
C2135 C2131 1.393 . S
C2135 C2134 1.391 . S
H2136 C2144 0.950 . S
H2137 C2149 0.950 . S
H2138 C2146 0.950 . S
H2139 C2148 0.950 . S
H2140 C2150 0.950 . S
H2141 C2152 0.950 . S
H2142 C2154 0.950 . S
H2143 C2155 0.950 . S
C2144 H2136 0.950 . S
C2144 C2145 1.386 . S
C2144 C2146 1.391 . S
C2145 C2144 1.386 . S
C2145 C2149 1.393 . S
C2146 H2138 0.950 . S
C2146 C2144 1.391 . S
C2146 C2147 1.400 . S
C2147 C2146 1.400 . S
C2147 C2148 1.398 . S
C2147 C2153 1.491 . S
C2148 H2139 0.950 . S
C2148 C2147 1.398 . S
C2148 C2149 1.391 . S
C2149 H2137 0.950 . S
C2149 C2145 1.393 . S
C2149 C2148 1.391 . S
C2150 H2140 0.950 . S
C2150 C2151 1.386 . S
C2150 C2152 1.391 . S
C2151 C2150 1.386 . S
C2151 C2155 1.393 . S
C2152 H2141 0.950 . S
C2152 C2150 1.391 . S
C2152 C2153 1.400 . S
C2153 C2147 1.491 . S
C2153 C2152 1.400 . S
C2153 C2154 1.398 . S
C2154 H2142 0.950 . S
C2154 C2153 1.398 . S
C2154 C2155 1.391 . S
C2155 H2143 0.950 . S
C2155 C2151 1.393 . S
C2155 C2154 1.391 . S
H2156 C2164 0.950 . S
H2157 C2169 0.950 . S
H2158 C2166 0.950 . S
H2159 C2168 0.950 . S
H2160 C2170 0.950 . S
H2161 C2172 0.950 . S
H2162 C2174 0.950 . S
H2163 C2175 0.950 . S
C2164 H2156 0.950 . S
C2164 C2165 1.386 . S
C2164 C2166 1.391 . S
C2165 C2164 1.386 . S
C2165 C2169 1.393 . S
C2166 H2158 0.950 . S
C2166 C2164 1.391 . S
C2166 C2167 1.400 . S
C2167 C2166 1.400 . S
C2167 C2168 1.398 . S
C2167 C2173 1.491 . S
C2168 H2159 0.950 . S
C2168 C2167 1.398 . S
C2168 C2169 1.391 . S
C2169 H2157 0.950 . S
C2169 C2165 1.393 . S
C2169 C2168 1.391 . S
C2170 H2160 0.950 . S
C2170 C2171 1.386 . S
C2170 C2172 1.391 . S
C2171 C2170 1.386 . S
C2171 C2175 1.393 . S
C2172 H2161 0.950 . S
C2172 C2170 1.391 . S
C2172 C2173 1.400 . S
C2173 C2167 1.491 . S
C2173 C2172 1.400 . S
C2173 C2174 1.398 . S
C2174 H2162 0.950 . S
C2174 C2173 1.398 . S
C2174 C2175 1.391 . S
C2175 H2163 0.950 . S
C2175 C2171 1.393 . S
C2175 C2174 1.391 . S
H2176 C2184 0.950 . S
H2177 C2189 0.950 . S
H2178 C2186 0.950 . S
H2179 C2188 0.950 . S
H2180 C2190 0.950 . S
H2181 C2192 0.950 . S
H2182 C2194 0.950 . S
H2183 C2195 0.950 . S
C2184 H2176 0.950 . S
C2184 C2185 1.386 . S
C2184 C2186 1.391 . S
C2185 C2184 1.386 . S
C2185 C2189 1.393 . S
C2186 H2178 0.950 . S
C2186 C2184 1.391 . S
C2186 C2187 1.400 . S
C2187 C2186 1.400 . S
C2187 C2188 1.398 . S
C2187 C2193 1.491 . S
C2188 H2179 0.950 . S
C2188 C2187 1.398 . S
C2188 C2189 1.391 . S
C2189 H2177 0.950 . S
C2189 C2185 1.393 . S
C2189 C2188 1.391 . S
C2190 H2180 0.950 . S
C2190 C2191 1.386 . S
C2190 C2192 1.391 . S
C2191 C2190 1.386 . S
C2191 C2195 1.393 . S
C2192 H2181 0.950 . S
C2192 C2190 1.391 . S
C2192 C2193 1.400 . S
C2193 C2187 1.491 . S
C2193 C2192 1.400 . S
C2193 C2194 1.398 . S
C2194 H2182 0.950 . S
C2194 C2193 1.398 . S
C2194 C2195 1.391 . S
C2195 H2183 0.950 . S
C2195 C2191 1.393 . S
C2195 C2194 1.391 . S
H2196 C2204 0.950 . S
H2197 C2209 0.950 . S
H2198 C2206 0.950 . S
H2199 C2208 0.950 . S
H2200 C2210 0.950 . S
H2201 C2212 0.950 . S
H2202 C2214 0.950 . S
H2203 C2215 0.950 . S
C2204 H2196 0.950 . S
C2204 C2205 1.386 . S
C2204 C2206 1.391 . S
C2205 C2204 1.386 . S
C2205 C2209 1.393 . S
C2206 H2198 0.950 . S
C2206 C2204 1.391 . S
C2206 C2207 1.400 . S
C2207 C2206 1.400 . S
C2207 C2208 1.398 . S
C2207 C2213 1.491 . S
C2208 H2199 0.950 . S
C2208 C2207 1.398 . S
C2208 C2209 1.391 . S
C2209 H2197 0.950 . S
C2209 C2205 1.393 . S
C2209 C2208 1.391 . S
C2210 H2200 0.950 . S
C2210 C2211 1.386 . S
C2210 C2212 1.391 . S
C2211 C2210 1.386 . S
C2211 C2215 1.393 . S
C2212 H2201 0.950 . S
C2212 C2210 1.391 . S
C2212 C2213 1.400 . S
C2213 C2207 1.491 . S
C2213 C2212 1.400 . S
C2213 C2214 1.398 . S
C2214 H2202 0.950 . S
C2214 C2213 1.398 . S
C2214 C2215 1.391 . S
C2215 H2203 0.950 . S
C2215 C2211 1.393 . S
C2215 C2214 1.391 . S
H2216 C2224 0.950 . S
H2217 C2229 0.950 . S
H2218 C2226 0.950 . S
H2219 C2228 0.950 . S
H2220 C2230 0.950 . S
H2221 C2232 0.950 . S
H2222 C2234 0.950 . S
H2223 C2235 0.950 . S
C2224 H2216 0.950 . S
C2224 C2225 1.386 . S
C2224 C2226 1.391 . S
C2225 C2224 1.386 . S
C2225 C2229 1.393 . S
C2226 H2218 0.950 . S
C2226 C2224 1.391 . S
C2226 C2227 1.400 . S
C2227 C2226 1.400 . S
C2227 C2228 1.398 . S
C2227 C2233 1.491 . S
C2228 H2219 0.950 . S
C2228 C2227 1.398 . S
C2228 C2229 1.391 . S
C2229 H2217 0.950 . S
C2229 C2225 1.393 . S
C2229 C2228 1.391 . S
C2230 H2220 0.950 . S
C2230 C2231 1.386 . S
C2230 C2232 1.391 . S
C2231 C2230 1.386 . S
C2231 C2235 1.393 . S
C2232 H2221 0.950 . S
C2232 C2230 1.391 . S
C2232 C2233 1.400 . S
C2233 C2227 1.491 . S
C2233 C2232 1.400 . S
C2233 C2234 1.398 . S
C2234 H2222 0.950 . S
C2234 C2233 1.398 . S
C2234 C2235 1.391 . S
C2235 H2223 0.950 . S
C2235 C2231 1.393 . S
C2235 C2234 1.391 . S
H2236 C2244 0.950 . S
H2237 C2249 0.950 . S
H2238 C2246 0.950 . S
H2239 C2248 0.950 . S
H2240 C2250 0.950 . S
H2241 C2252 0.950 . S
H2242 C2254 0.950 . S
H2243 C2255 0.950 . S
C2244 H2236 0.950 . S
C2244 C2245 1.386 . S
C2244 C2246 1.391 . S
C2245 C2244 1.386 . S
C2245 C2249 1.393 . S
C2246 H2238 0.950 . S
C2246 C2244 1.391 . S
C2246 C2247 1.400 . S
C2247 C2246 1.400 . S
C2247 C2248 1.398 . S
C2247 C2253 1.491 . S
C2248 H2239 0.950 . S
C2248 C2247 1.398 . S
C2248 C2249 1.391 . S
C2249 H2237 0.950 . S
C2249 C2245 1.393 . S
C2249 C2248 1.391 . S
C2250 H2240 0.950 . S
C2250 C2251 1.386 . S
C2250 C2252 1.391 . S
C2251 C2250 1.386 . S
C2251 C2255 1.393 . S
C2252 H2241 0.950 . S
C2252 C2250 1.391 . S
C2252 C2253 1.400 . S
C2253 C2247 1.491 . S
C2253 C2252 1.400 . S
C2253 C2254 1.398 . S
C2254 H2242 0.950 . S
C2254 C2253 1.398 . S
C2254 C2255 1.391 . S
C2255 H2243 0.950 . S
C2255 C2251 1.393 . S
C2255 C2254 1.391 . S
H2256 C2264 0.950 . S
H2257 C2269 0.950 . S
H2258 C2266 0.950 . S
H2259 C2268 0.950 . S
H2260 C2270 0.950 . S
H2261 C2272 0.950 . S
H2262 C2274 0.950 . S
H2263 C2275 0.950 . S
C2264 H2256 0.950 . S
C2264 C2265 1.386 . S
C2264 C2266 1.391 . S
C2265 C2264 1.386 . S
C2265 C2269 1.393 . S
C2266 H2258 0.950 . S
C2266 C2264 1.391 . S
C2266 C2267 1.400 . S
C2267 C2266 1.400 . S
C2267 C2268 1.398 . S
C2267 C2273 1.491 . S
C2268 H2259 0.950 . S
C2268 C2267 1.398 . S
C2268 C2269 1.391 . S
C2269 H2257 0.950 . S
C2269 C2265 1.393 . S
C2269 C2268 1.391 . S
C2270 H2260 0.950 . S
C2270 C2271 1.386 . S
C2270 C2272 1.391 . S
C2271 C2270 1.386 . S
C2271 C2275 1.393 . S
C2272 H2261 0.950 . S
C2272 C2270 1.391 . S
C2272 C2273 1.400 . S
C2273 C2267 1.491 . S
C2273 C2272 1.400 . S
C2273 C2274 1.398 . S
C2274 H2262 0.950 . S
C2274 C2273 1.398 . S
C2274 C2275 1.391 . S
C2275 H2263 0.950 . S
C2275 C2271 1.393 . S
C2275 C2274 1.391 . S
H2276 C2284 0.950 . S
H2277 C2289 0.950 . S
H2278 C2286 0.950 . S
H2279 C2288 0.950 . S
H2280 C2290 0.950 . S
H2281 C2292 0.950 . S
H2282 C2294 0.950 . S
H2283 C2295 0.950 . S
C2284 H2276 0.950 . S
C2284 C2285 1.386 . S
C2284 C2286 1.391 . S
C2285 C2284 1.386 . S
C2285 C2289 1.393 . S
C2286 H2278 0.950 . S
C2286 C2284 1.391 . S
C2286 C2287 1.400 . S
C2287 C2286 1.400 . S
C2287 C2288 1.398 . S
C2287 C2293 1.491 . S
C2288 H2279 0.950 . S
C2288 C2287 1.398 . S
C2288 C2289 1.391 . S
C2289 H2277 0.950 . S
C2289 C2285 1.393 . S
C2289 C2288 1.391 . S
C2290 H2280 0.950 . S
C2290 C2291 1.386 . S
C2290 C2292 1.391 . S
C2291 C2290 1.386 . S
C2291 C2295 1.393 . S
C2292 H2281 0.950 . S
C2292 C2290 1.391 . S
C2292 C2293 1.400 . S
C2293 C2287 1.491 . S
C2293 C2292 1.400 . S
C2293 C2294 1.398 . S
C2294 H2282 0.950 . S
C2294 C2293 1.398 . S
C2294 C2295 1.391 . S
C2295 H2283 0.950 . S
C2295 C2291 1.393 . S
C2295 C2294 1.391 . S
H2296 C2304 0.950 . S
H2297 C2309 0.950 . S
H2298 C2306 0.950 . S
H2299 C2308 0.950 . S
H2300 C2310 0.950 . S
H2301 C2312 0.950 . S
H2302 C2314 0.950 . S
H2303 C2315 0.950 . S
C2304 H2296 0.950 . S
C2304 C2305 1.386 . S
C2304 C2306 1.391 . S
C2305 C2304 1.386 . S
C2305 C2309 1.393 . S
C2306 H2298 0.950 . S
C2306 C2304 1.391 . S
C2306 C2307 1.400 . S
C2307 C2306 1.400 . S
C2307 C2308 1.398 . S
C2307 C2313 1.491 . S
C2308 H2299 0.950 . S
C2308 C2307 1.398 . S
C2308 C2309 1.391 . S
C2309 H2297 0.950 . S
C2309 C2305 1.393 . S
C2309 C2308 1.391 . S
C2310 H2300 0.950 . S
C2310 C2311 1.386 . S
C2310 C2312 1.391 . S
C2311 C2310 1.386 . S
C2311 C2315 1.393 . S
C2312 H2301 0.950 . S
C2312 C2310 1.391 . S
C2312 C2313 1.400 . S
C2313 C2307 1.491 . S
C2313 C2312 1.400 . S
C2313 C2314 1.398 . S
C2314 H2302 0.950 . S
C2314 C2313 1.398 . S
C2314 C2315 1.391 . S
C2315 H2303 0.950 . S
C2315 C2311 1.393 . S
C2315 C2314 1.391 . S
H2316 C2324 0.950 . S
H2317 C2329 0.950 . S
H2318 C2326 0.950 . S
H2319 C2328 0.950 . S
H2320 C2330 0.950 . S
H2321 C2332 0.950 . S
H2322 C2334 0.950 . S
H2323 C2335 0.950 . S
C2324 H2316 0.950 . S
C2324 C2325 1.386 . S
C2324 C2326 1.391 . S
C2325 C2324 1.386 . S
C2325 C2329 1.393 . S
C2326 H2318 0.950 . S
C2326 C2324 1.391 . S
C2326 C2327 1.400 . S
C2327 C2326 1.400 . S
C2327 C2328 1.398 . S
C2327 C2333 1.491 . S
C2328 H2319 0.950 . S
C2328 C2327 1.398 . S
C2328 C2329 1.391 . S
C2329 H2317 0.950 . S
C2329 C2325 1.393 . S
C2329 C2328 1.391 . S
C2330 H2320 0.950 . S
C2330 C2331 1.386 . S
C2330 C2332 1.391 . S
C2331 C2330 1.386 . S
C2331 C2335 1.393 . S
C2332 H2321 0.950 . S
C2332 C2330 1.391 . S
C2332 C2333 1.400 . S
C2333 C2327 1.491 . S
C2333 C2332 1.400 . S
C2333 C2334 1.398 . S
C2334 H2322 0.950 . S
C2334 C2333 1.398 . S
C2334 C2335 1.391 . S
C2335 H2323 0.950 . S
C2335 C2331 1.393 . S
C2335 C2334 1.391 . S
H2336 C2344 0.950 . S
H2337 C2349 0.950 . S
H2338 C2346 0.950 . S
H2339 C2348 0.950 . S
H2340 C2350 0.950 . S
H2341 C2352 0.950 . S
H2342 C2354 0.950 . S
H2343 C2355 0.950 . S
C2344 H2336 0.950 . S
C2344 C2345 1.386 . S
C2344 C2346 1.391 . S
C2345 C2344 1.386 . S
C2345 C2349 1.393 . S
C2346 H2338 0.950 . S
C2346 C2344 1.391 . S
C2346 C2347 1.400 . S
C2347 C2346 1.400 . S
C2347 C2348 1.398 . S
C2347 C2353 1.491 . S
C2348 H2339 0.950 . S
C2348 C2347 1.398 . S
C2348 C2349 1.391 . S
C2349 H2337 0.950 . S
C2349 C2345 1.393 . S
C2349 C2348 1.391 . S
C2350 H2340 0.950 . S
C2350 C2351 1.386 . S
C2350 C2352 1.391 . S
C2351 C2350 1.386 . S
C2351 C2355 1.393 . S
C2352 H2341 0.950 . S
C2352 C2350 1.391 . S
C2352 C2353 1.400 . S
C2353 C2347 1.491 . S
C2353 C2352 1.400 . S
C2353 C2354 1.398 . S
C2354 H2342 0.950 . S
C2354 C2353 1.398 . S
C2354 C2355 1.391 . S
C2355 H2343 0.950 . S
C2355 C2351 1.393 . S
C2355 C2354 1.391 . S
H2356 C2364 0.950 . S
H2357 C2369 0.950 . S
H2358 C2366 0.950 . S
H2359 C2368 0.950 . S
H2360 C2370 0.950 . S
H2361 C2372 0.950 . S
H2362 C2374 0.950 . S
H2363 C2375 0.950 . S
C2364 H2356 0.950 . S
C2364 C2365 1.386 . S
C2364 C2366 1.391 . S
C2365 C2364 1.386 . S
C2365 C2369 1.393 . S
C2366 H2358 0.950 . S
C2366 C2364 1.391 . S
C2366 C2367 1.400 . S
C2367 C2366 1.400 . S
C2367 C2368 1.398 . S
C2367 C2373 1.491 . S
C2368 H2359 0.950 . S
C2368 C2367 1.398 . S
C2368 C2369 1.391 . S
C2369 H2357 0.950 . S
C2369 C2365 1.393 . S
C2369 C2368 1.391 . S
C2370 H2360 0.950 . S
C2370 C2371 1.386 . S
C2370 C2372 1.391 . S
C2371 C2370 1.386 . S
C2371 C2375 1.393 . S
C2372 H2361 0.950 . S
C2372 C2370 1.391 . S
C2372 C2373 1.400 . S
C2373 C2367 1.491 . S
C2373 C2372 1.400 . S
C2373 C2374 1.398 . S
C2374 H2362 0.950 . S
C2374 C2373 1.398 . S
C2374 C2375 1.391 . S
C2375 H2363 0.950 . S
C2375 C2371 1.393 . S
C2375 C2374 1.391 . S
H2376 C2384 0.950 . S
H2377 C2389 0.950 . S
H2378 C2386 0.950 . S
H2379 C2388 0.950 . S
H2380 C2390 0.950 . S
H2381 C2392 0.950 . S
H2382 C2394 0.950 . S
H2383 C2395 0.950 . S
C2384 H2376 0.950 . S
C2384 C2385 1.386 . S
C2384 C2386 1.391 . S
C2385 C2384 1.386 . S
C2385 C2389 1.393 . S
C2386 H2378 0.950 . S
C2386 C2384 1.391 . S
C2386 C2387 1.400 . S
C2387 C2386 1.400 . S
C2387 C2388 1.398 . S
C2387 C2393 1.491 . S
C2388 H2379 0.950 . S
C2388 C2387 1.398 . S
C2388 C2389 1.391 . S
C2389 H2377 0.950 . S
C2389 C2385 1.393 . S
C2389 C2388 1.391 . S
C2390 H2380 0.950 . S
C2390 C2391 1.386 . S
C2390 C2392 1.391 . S
C2391 C2390 1.386 . S
C2391 C2395 1.393 . S
C2392 H2381 0.950 . S
C2392 C2390 1.391 . S
C2392 C2393 1.400 . S
C2393 C2387 1.491 . S
C2393 C2392 1.400 . S
C2393 C2394 1.398 . S
C2394 H2382 0.950 . S
C2394 C2393 1.398 . S
C2394 C2395 1.391 . S
C2395 H2383 0.950 . S
C2395 C2391 1.393 . S
C2395 C2394 1.391 . S
H2396 C2404 0.950 . S
H2397 C2409 0.950 . S
H2398 C2406 0.950 . S
H2399 C2408 0.950 . S
H2400 C2410 0.950 . S
H2401 C2412 0.950 . S
H2402 C2414 0.969 . S
H2403 C2415 0.950 . S
C2404 H2396 0.950 . S
C2404 C2405 1.386 . S
C2404 C2406 1.391 . S
C2405 C2404 1.386 . S
C2405 C2409 1.393 1_565 S
C2406 H2398 0.950 . S
C2406 C2404 1.391 . S
C2406 C2407 1.400 1_565 S
C2407 C2406 1.400 1_545 S
C2407 C2408 1.398 . S
C2407 C2413 1.491 . S
C2408 H2399 0.950 . S
C2408 C2407 1.398 . S
C2408 C2409 1.391 . S
C2409 H2397 0.950 . S
C2409 C2405 1.393 1_545 S
C2409 C2408 1.391 . S
C2410 H2400 0.950 . S
C2410 C2411 1.386 . S
C2410 C2412 1.391 . S
C2411 C2410 1.386 . S
C2411 C2415 1.393 . S
C2412 H2401 0.950 . S
C2412 C2410 1.391 . S
C2412 C2413 1.400 . S
C2413 C2407 1.491 . S
C2413 C2412 1.400 . S
C2413 C2414 1.398 . S
C2414 H2402 0.969 . S
C2414 C2413 1.398 . S
C2414 C2415 1.391 . S
C2415 H2403 0.950 . S
C2415 C2411 1.393 . S
C2415 C2414 1.391 . S
H2416 C2424 0.950 . S
H2417 C2429 0.950 . S
H2418 C2426 0.950 . S
H2419 C2428 0.950 1_455 S
H2420 C2430 0.950 . S
H2421 C2432 0.950 . S
H2422 C2434 0.950 . S
H2423 C2435 0.950 . S
C2424 H2416 0.950 . S
C2424 C2425 1.386 . S
C2424 C2426 1.391 . S
C2425 C2424 1.386 . S
C2425 C2429 1.393 . S
C2426 H2418 0.950 . S
C2426 C2424 1.391 . S
C2426 C2427 1.400 . S
C2427 C2426 1.400 . S
C2427 C2428 1.398 . S
C2427 C2433 1.491 . S
C2428 H2419 0.950 1_655 S
C2428 C2427 1.398 . S
C2428 C2429 1.391 . S
C2429 H2417 0.950 . S
C2429 C2425 1.393 . S
C2429 C2428 1.391 . S
C2430 H2420 0.950 . S
C2430 C2431 1.386 . S
C2430 C2432 1.391 . S
C2431 C2430 1.386 . S
C2431 C2435 1.393 1_455 S
C2432 H2421 0.950 . S
C2432 C2430 1.391 . S
C2432 C2433 1.400 1_455 S
C2433 C2427 1.491 . S
C2433 C2432 1.400 1_655 S
C2433 C2434 1.398 . S
C2434 H2422 0.950 . S
C2434 C2433 1.398 . S
C2434 C2435 1.391 . S
C2435 H2423 0.950 . S
C2435 C2431 1.393 1_655 S
C2435 C2434 1.391 . S
H2436 C2444 0.950 . S
H2437 C2449 0.950 . S
H2438 C2446 0.950 . S
H2439 C2448 0.950 . S
H2440 C2450 0.950 . S
H2441 C2452 0.950 . S
H2442 C2454 0.950 . S
H2443 C2455 0.950 . S
C2444 H2436 0.950 . S
C2444 C2445 1.386 . S
C2444 C2446 1.391 . S
C2445 C2444 1.386 . S
C2445 C2449 1.393 . S
C2446 H2438 0.950 . S
C2446 C2444 1.391 . S
C2446 C2447 1.400 . S
C2447 C2446 1.400 . S
C2447 C2448 1.398 . S
C2447 C2453 1.491 . S
C2448 H2439 0.950 . S
C2448 C2447 1.398 . S
C2448 C2449 1.391 . S
C2449 H2437 0.950 . S
C2449 C2445 1.393 . S
C2449 C2448 1.391 . S
C2450 H2440 0.950 . S
C2450 C2451 1.386 . S
C2450 C2452 1.391 . S
C2451 C2450 1.386 . S
C2451 C2455 1.393 . S
C2452 H2441 0.950 . S
C2452 C2450 1.391 . S
C2452 C2453 1.400 . S
C2453 C2447 1.491 . S
C2453 C2452 1.400 . S
C2453 C2454 1.398 . S
C2454 H2442 0.950 . S
C2454 C2453 1.398 . S
C2454 C2455 1.391 . S
C2455 H2443 0.950 . S
C2455 C2451 1.393 . S
C2455 C2454 1.391 . S
H2456 C2464 0.950 . S
H2457 C2469 0.950 . S
H2458 C2466 0.950 . S
H2459 C2468 0.950 . S
H2460 C2470 0.950 . S
H2461 C2472 0.984 . S
H2462 C2474 0.950 . S
H2463 C2475 0.950 . S
C2464 H2456 0.950 . S
C2464 C2465 1.386 1_565 S
C2464 C2466 1.391 . S
C2465 C2464 1.386 1_545 S
C2465 C2469 1.393 . S
C2466 H2458 0.950 . S
C2466 C2464 1.391 . S
C2466 C2467 1.400 . S
C2467 C2466 1.400 . S
C2467 C2468 1.398 1_565 S
C2467 C2473 1.491 . S
C2468 H2459 0.950 . S
C2468 C2467 1.398 1_545 S
C2468 C2469 1.391 . S
C2469 H2457 0.950 . S
C2469 C2465 1.393 . S
C2469 C2468 1.391 . S
C2470 H2460 0.950 . S
C2470 C2471 1.386 . S
C2470 C2472 1.391 . S
C2471 C2470 1.386 . S
C2471 C2475 1.393 . S
C2472 H2461 0.984 . S
C2472 C2470 1.391 . S
C2472 C2473 1.400 . S
C2473 C2467 1.491 . S
C2473 C2472 1.400 . S
C2473 C2474 1.398 . S
C2474 H2462 0.950 . S
C2474 C2473 1.398 . S
C2474 C2475 1.391 . S
C2475 H2463 0.950 . S
C2475 C2471 1.393 . S
C2475 C2474 1.391 . S
H2476 C2484 0.950 . S
H2477 C2489 0.950 . S
H2478 C2486 0.950 . S
H2479 C2488 0.950 . S
H2480 C2490 0.950 . S
H2481 C2492 0.950 . S
H2482 C2494 0.950 . S
H2483 C2495 0.950 . S
C2484 H2476 0.950 . S
C2484 C2485 1.386 . S
C2484 C2486 1.391 . S
C2485 C2484 1.386 . S
C2485 C2489 1.393 . S
C2486 H2478 0.950 . S
C2486 C2484 1.391 . S
C2486 C2487 1.400 . S
C2487 C2486 1.400 . S
C2487 C2488 1.398 . S
C2487 C2493 1.491 . S
C2488 H2479 0.950 . S
C2488 C2487 1.398 . S
C2488 C2489 1.391 . S
C2489 H2477 0.950 . S
C2489 C2485 1.393 . S
C2489 C2488 1.391 . S
C2490 H2480 0.950 . S
C2490 C2491 1.386 1_455 S
C2490 C2492 1.391 . S
C2491 C2490 1.386 1_655 S
C2491 C2495 1.393 . S
C2492 H2481 0.950 . S
C2492 C2490 1.391 . S
C2492 C2493 1.400 . S
C2493 C2487 1.491 . S
C2493 C2492 1.400 . S
C2493 C2494 1.398 1_455 S
C2494 H2482 0.950 . S
C2494 C2493 1.398 1_655 S
C2494 C2495 1.391 . S
C2495 H2483 0.950 . S
C2495 C2491 1.393 . S
C2495 C2494 1.391 . S
H2496 C2504 0.950 . S
H2497 C2509 0.950 . S
H2498 C2506 0.950 . S
H2499 C2508 0.950 . S
H2500 C2510 0.950 . S
H2501 C2512 0.950 . S
H2502 C2514 0.950 . S
H2503 C2515 0.950 . S
C2504 H2496 0.950 . S
C2504 C2505 1.386 . S
C2504 C2506 1.391 . S
C2505 C2504 1.386 . S
C2505 C2509 1.393 . S
C2506 H2498 0.950 . S
C2506 C2504 1.391 . S
C2506 C2507 1.400 . S
C2507 C2506 1.400 . S
C2507 C2508 1.398 . S
C2507 C2513 1.491 . S
C2508 H2499 0.950 . S
C2508 C2507 1.398 . S
C2508 C2509 1.391 . S
C2509 H2497 0.950 . S
C2509 C2505 1.393 . S
C2509 C2508 1.391 . S
C2510 H2500 0.950 . S
C2510 C2511 1.386 . S
C2510 C2512 1.391 . S
C2511 C2510 1.386 . S
C2511 C2515 1.393 . S
C2512 H2501 0.950 . S
C2512 C2510 1.391 . S
C2512 C2513 1.400 . S
C2513 C2507 1.491 . S
C2513 C2512 1.400 . S
C2513 C2514 1.398 . S
C2514 H2502 0.950 . S
C2514 C2513 1.398 . S
C2514 C2515 1.391 . S
C2515 H2503 0.950 . S
C2515 C2511 1.393 . S
C2515 C2514 1.391 . S
H2516 C2524 0.950 . S
H2517 C2529 0.950 . S
H2518 C2526 0.950 . S
H2519 C2528 0.950 . S
H2520 C2530 0.950 . S
H2521 C2532 0.950 . S
H2522 C2534 0.950 . S
H2523 C2535 0.950 . S
C2524 H2516 0.950 . S
C2524 C2525 1.386 . S
C2524 C2526 1.391 . S
C2525 C2524 1.386 . S
C2525 C2529 1.393 . S
C2526 H2518 0.950 . S
C2526 C2524 1.391 . S
C2526 C2527 1.400 . S
C2527 C2526 1.400 . S
C2527 C2528 1.398 . S
C2527 C2533 1.491 . S
C2528 H2519 0.950 . S
C2528 C2527 1.398 . S
C2528 C2529 1.391 . S
C2529 H2517 0.950 . S
C2529 C2525 1.393 . S
C2529 C2528 1.391 . S
C2530 H2520 0.950 . S
C2530 C2531 1.386 . S
C2530 C2532 1.391 . S
C2531 C2530 1.386 . S
C2531 C2535 1.393 1_545 S
C2532 H2521 0.950 . S
C2532 C2530 1.391 . S
C2532 C2533 1.400 1_545 S
C2533 C2527 1.491 . S
C2533 C2532 1.400 1_565 S
C2533 C2534 1.398 . S
C2534 H2522 0.950 . S
C2534 C2533 1.398 . S
C2534 C2535 1.391 . S
C2535 H2523 0.950 . S
C2535 C2531 1.393 1_565 S
C2535 C2534 1.391 . S
H2536 C2544 0.950 . S
H2537 C2549 0.950 . S
H2538 C2546 0.950 . S
H2539 C2548 0.950 . S
H2540 C2550 0.950 . S
H2541 C2552 0.950 . S
H2542 C2554 0.950 . S
H2543 C2555 0.950 . S
C2544 H2536 0.950 . S
C2544 C2545 1.386 . S
C2544 C2546 1.391 . S
C2545 C2544 1.386 . S
C2545 C2549 1.393 . S
C2546 H2538 0.950 . S
C2546 C2544 1.391 . S
C2546 C2547 1.400 . S
C2547 C2546 1.400 . S
C2547 C2548 1.398 . S
C2547 C2553 1.491 . S
C2548 H2539 0.950 . S
C2548 C2547 1.398 . S
C2548 C2549 1.391 . S
C2549 H2537 0.950 . S
C2549 C2545 1.393 . S
C2549 C2548 1.391 . S
C2550 H2540 0.950 . S
C2550 C2551 1.386 1_455 S
C2550 C2552 1.391 . S
C2551 C2550 1.386 1_655 S
C2551 C2555 1.393 . S
C2552 H2541 0.950 . S
C2552 C2550 1.391 . S
C2552 C2553 1.400 . S
C2553 C2547 1.491 . S
C2553 C2552 1.400 . S
C2553 C2554 1.398 . S
C2554 H2542 0.950 . S
C2554 C2553 1.398 . S
C2554 C2555 1.391 1_455 S
C2555 H2543 0.950 . S
C2555 C2551 1.393 . S
C2555 C2554 1.391 1_655 S
H2556 C2564 0.950 . S
H2557 C2569 0.950 . S
H2558 C2566 0.950 . S
H2559 C2568 0.950 . S
H2560 C2570 0.950 . S
H2561 C2572 0.950 . S
H2562 C2574 0.950 . S
H2563 C2575 0.950 . S
C2564 H2556 0.950 . S
C2564 C2565 1.386 . S
C2564 C2566 1.391 . S
C2565 C2564 1.386 . S
C2565 C2569 1.393 . S
C2566 H2558 0.950 . S
C2566 C2564 1.391 . S
C2566 C2567 1.400 . S
C2567 C2566 1.400 . S
C2567 C2568 1.398 . S
C2567 C2573 1.491 . S
C2568 H2559 0.950 . S
C2568 C2567 1.398 . S
C2568 C2569 1.391 . S
C2569 H2557 0.950 . S
C2569 C2565 1.393 . S
C2569 C2568 1.391 . S
C2570 H2560 0.950 . S
C2570 C2571 1.386 . S
C2570 C2572 1.391 . S
C2571 C2570 1.386 . S
C2571 C2575 1.393 . S
C2572 H2561 0.950 . S
C2572 C2570 1.391 . S
C2572 C2573 1.400 . S
C2573 C2567 1.491 . S
C2573 C2572 1.400 . S
C2573 C2574 1.398 . S
C2574 H2562 0.950 . S
C2574 C2573 1.398 . S
C2574 C2575 1.391 . S
C2575 H2563 0.950 . S
C2575 C2571 1.393 . S
C2575 C2574 1.391 . S
H2576 C2584 0.950 . S
H2577 C2589 0.950 . S
H2578 C2586 0.950 . S
H2579 C2588 0.950 . S
H2580 C2590 0.953 . S
H2581 C2592 0.950 . S
H2582 C2594 0.950 . S
H2583 C2595 0.950 . S
C2584 H2576 0.950 . S
C2584 C2585 1.386 . S
C2584 C2586 1.391 . S
C2585 C2584 1.386 . S
C2585 C2589 1.393 . S
C2586 H2578 0.950 . S
C2586 C2584 1.391 . S
C2586 C2587 1.400 . S
C2587 C2586 1.400 . S
C2587 C2588 1.398 . S
C2587 C2593 1.491 . S
C2588 H2579 0.950 . S
C2588 C2587 1.398 . S
C2588 C2589 1.391 . S
C2589 H2577 0.950 . S
C2589 C2585 1.393 . S
C2589 C2588 1.391 . S
C2590 H2580 0.953 . S
C2590 C2591 1.380 1_545 S
C2590 C2592 1.404 . S
C2591 C2590 1.380 1_565 S
C2591 C2595 1.393 . S
C2592 H2581 0.950 . S
C2592 C2590 1.404 . S
C2592 C2593 1.400 . S
C2593 C2587 1.491 . S
C2593 C2592 1.400 . S
C2593 C2594 1.398 . S
C2594 H2582 0.950 . S
C2594 C2593 1.398 . S
C2594 C2595 1.391 1_545 S
C2595 H2583 0.950 . S
C2595 C2591 1.393 . S
C2595 C2594 1.391 1_565 S
H2596 C2604 0.950 . S
H2597 C2609 0.950 . S
H2598 C2606 0.950 . S
H2599 C2608 0.950 . S
H2600 C2610 0.950 . S
H2601 C2612 0.950 . S
H2602 C2614 0.950 1_455 S
H2603 C2615 0.950 . S
C2604 H2596 0.950 . S
C2604 C2605 1.386 . S
C2604 C2606 1.391 . S
C2605 C2604 1.386 . S
C2605 C2609 1.393 1_455 S
C2606 H2598 0.950 . S
C2606 C2604 1.391 . S
C2606 C2607 1.400 1_455 S
C2607 C2606 1.400 1_655 S
C2607 C2608 1.398 . S
C2607 C2613 1.491 . S
C2608 H2599 0.950 . S
C2608 C2607 1.398 . S
C2608 C2609 1.391 . S
C2609 H2597 0.950 . S
C2609 C2605 1.393 1_655 S
C2609 C2608 1.391 . S
C2610 H2600 0.950 . S
C2610 C2611 1.386 . S
C2610 C2612 1.391 . S
C2611 C2610 1.386 . S
C2611 C2615 1.393 . S
C2612 H2601 0.950 . S
C2612 C2610 1.391 . S
C2612 C2613 1.400 . S
C2613 C2607 1.491 . S
C2613 C2612 1.400 . S
C2613 C2614 1.398 . S
C2614 H2602 0.950 1_655 S
C2614 C2613 1.398 . S
C2614 C2615 1.391 . S
C2615 H2603 0.950 . S
C2615 C2611 1.393 . S
C2615 C2614 1.391 . S
H2616 C2624 0.950 . S
H2617 C2629 0.950 . S
H2618 C2626 0.950 . S
H2619 C2628 0.950 . S
H2620 C2630 0.950 . S
H2621 C2632 0.950 . S
H2622 C2634 0.950 . S
H2623 C2635 0.950 . S
C2624 H2616 0.950 . S
C2624 C2625 1.386 . S
C2624 C2626 1.391 . S
C2625 C2624 1.386 . S
C2625 C2629 1.393 . S
C2626 H2618 0.950 . S
C2626 C2624 1.391 . S
C2626 C2627 1.400 . S
C2627 C2626 1.400 . S
C2627 C2628 1.398 . S
C2627 C2633 1.491 1_655 S
C2628 H2619 0.950 . S
C2628 C2627 1.398 . S
C2628 C2629 1.391 . S
C2629 H2617 0.950 . S
C2629 C2625 1.393 . S
C2629 C2628 1.391 . S
C2630 H2620 0.950 . S
C2630 C2631 1.386 . S
C2630 C2632 1.391 . S
C2631 C2630 1.386 . S
C2631 C2635 1.393 . S
C2632 H2621 0.950 . S
C2632 C2630 1.391 . S
C2632 C2633 1.400 . S
C2633 C2627 1.491 1_455 S
C2633 C2632 1.400 . S
C2633 C2634 1.398 . S
C2634 H2622 0.950 . S
C2634 C2633 1.398 . S
C2634 C2635 1.391 . S
C2635 H2623 0.950 . S
C2635 C2631 1.393 . S
C2635 C2634 1.391 . S
H2636 C2644 0.950 . S
H2637 C2649 0.950 . S
H2638 C2646 0.950 . S
H2639 C2648 0.950 . S
H2640 C2650 0.950 . S
H2641 C2652 0.950 . S
H2642 C2654 0.950 . S
H2643 C2655 0.950 . S
C2644 H2636 0.950 . S
C2644 C2645 1.386 . S
C2644 C2646 1.391 . S
C2645 C2644 1.386 . S
C2645 C2649 1.393 . S
C2646 H2638 0.950 . S
C2646 C2644 1.391 . S
C2646 C2647 1.400 . S
C2647 C2646 1.400 . S
C2647 C2648 1.398 . S
C2647 C2653 1.491 . S
C2648 H2639 0.950 . S
C2648 C2647 1.398 . S
C2648 C2649 1.391 . S
C2649 H2637 0.950 . S
C2649 C2645 1.393 . S
C2649 C2648 1.391 . S
C2650 H2640 0.950 . S
C2650 C2651 1.386 . S
C2650 C2652 1.391 . S
C2651 C2650 1.386 . S
C2651 C2655 1.393 . S
C2652 H2641 0.950 . S
C2652 C2650 1.391 . S
C2652 C2653 1.400 . S
C2653 C2647 1.491 . S
C2653 C2652 1.400 . S
C2653 C2654 1.398 . S
C2654 H2642 0.950 . S
C2654 C2653 1.398 . S
C2654 C2655 1.391 . S
C2655 H2643 0.950 . S
C2655 C2651 1.393 . S
C2655 C2654 1.391 . S
H2656 C2664 0.950 . S
H2657 C2669 0.950 . S
H2658 C2666 0.950 . S
H2659 C2668 0.950 . S
H2660 C2670 0.950 . S
H2661 C2672 0.950 . S
H2662 C2674 0.950 . S
H2663 C2675 0.950 . S
C2664 H2656 0.950 . S
C2664 C2665 1.386 . S
C2664 C2666 1.391 . S
C2665 C2664 1.386 . S
C2665 C2669 1.393 . S
C2666 H2658 0.950 . S
C2666 C2664 1.391 . S
C2666 C2667 1.400 . S
C2667 C2666 1.400 . S
C2667 C2668 1.398 . S
C2667 C2673 1.491 1_565 S
C2668 H2659 0.950 . S
C2668 C2667 1.398 . S
C2668 C2669 1.391 . S
C2669 H2657 0.950 . S
C2669 C2665 1.393 . S
C2669 C2668 1.391 . S
C2670 H2660 0.950 . S
C2670 C2671 1.386 . S
C2670 C2672 1.391 . S
C2671 C2670 1.386 . S
C2671 C2675 1.393 . S
C2672 H2661 0.950 . S
C2672 C2670 1.391 . S
C2672 C2673 1.400 . S
C2673 C2667 1.491 1_545 S
C2673 C2672 1.400 . S
C2673 C2674 1.398 . S
C2674 H2662 0.950 . S
C2674 C2673 1.398 . S
C2674 C2675 1.391 . S
C2675 H2663 0.950 . S
C2675 C2671 1.393 . S
C2675 C2674 1.391 . S
H2676 C2684 0.950 . S
H2677 C2689 0.950 . S
H2678 C2686 0.950 . S
H2679 C2688 0.950 . S
H2680 C2690 0.950 . S
H2681 C2692 0.979 . S
H2682 C2694 0.950 . S
H2683 C2695 0.950 . S
C2684 H2676 0.950 . S
C2684 C2685 1.386 . S
C2684 C2686 1.391 . S
C2685 C2684 1.386 . S
C2685 C2689 1.393 . S
C2686 H2678 0.950 . S
C2686 C2684 1.391 . S
C2686 C2687 1.400 . S
C2687 C2686 1.400 . S
C2687 C2688 1.398 . S
C2687 C2693 1.491 1_565 S
C2688 H2679 0.950 . S
C2688 C2687 1.398 . S
C2688 C2689 1.391 . S
C2689 H2677 0.950 . S
C2689 C2685 1.393 . S
C2689 C2688 1.391 . S
C2690 H2680 0.950 . S
C2690 C2691 1.386 . S
C2690 C2692 1.391 . S
C2691 C2690 1.386 . S
C2691 C2695 1.393 . S
C2692 H2681 0.979 . S
C2692 C2690 1.391 . S
C2692 C2693 1.400 . S
C2693 C2687 1.491 1_545 S
C2693 C2692 1.400 . S
C2693 C2694 1.398 . S
C2694 H2682 0.950 . S
C2694 C2693 1.398 . S
C2694 C2695 1.391 . S
C2695 H2683 0.950 . S
C2695 C2691 1.393 . S
C2695 C2694 1.391 . S
H2696 C2704 0.950 . S
H2697 C2709 0.950 . S
H2698 C2706 0.950 . S
H2699 C2708 0.950 . S
H2700 C2710 0.950 . S
H2701 C2712 0.950 . S
H2702 C2714 0.950 . S
H2703 C2715 0.950 . S
C2704 H2696 0.950 . S
C2704 C2705 1.386 . S
C2704 C2706 1.391 . S
C2705 C2704 1.386 . S
C2705 C2709 1.393 . S
C2706 H2698 0.950 . S
C2706 C2704 1.391 . S
C2706 C2707 1.400 . S
C2707 C2706 1.400 . S
C2707 C2708 1.398 . S
C2707 C2713 1.491 1_655 S
C2708 H2699 0.950 . S
C2708 C2707 1.398 . S
C2708 C2709 1.391 . S
C2709 H2697 0.950 . S
C2709 C2705 1.393 . S
C2709 C2708 1.391 . S
C2710 H2700 0.950 . S
C2710 C2711 1.386 . S
C2710 C2712 1.391 . S
C2711 C2710 1.386 . S
C2711 C2715 1.393 . S
C2712 H2701 0.950 . S
C2712 C2710 1.391 . S
C2712 C2713 1.400 . S
C2713 C2707 1.491 1_455 S
C2713 C2712 1.400 . S
C2713 C2714 1.398 . S
C2714 H2702 0.950 . S
C2714 C2713 1.398 . S
C2714 C2715 1.391 . S
C2715 H2703 0.950 . S
C2715 C2711 1.393 . S
C2715 C2714 1.391 . S
H2716 C2724 0.950 . S
H2717 C2729 0.950 . S
H2718 C2726 0.950 . S
H2719 C2728 0.950 . S
H2720 C2730 0.950 . S
H2721 C2732 0.950 . S
H2722 C2734 0.950 . S
H2723 C2735 0.950 . S
C2724 H2716 0.950 . S
C2724 C2725 1.386 . S
C2724 C2726 1.391 . S
C2725 C2724 1.386 . S
C2725 C2729 1.393 . S
C2726 H2718 0.950 . S
C2726 C2724 1.391 . S
C2726 C2727 1.400 . S
C2727 C2726 1.400 . S
C2727 C2728 1.398 . S
C2727 C2733 1.491 . S
C2728 H2719 0.950 . S
C2728 C2727 1.398 . S
C2728 C2729 1.391 . S
C2729 H2717 0.950 . S
C2729 C2725 1.393 . S
C2729 C2728 1.391 . S
C2730 H2720 0.950 . S
C2730 C2731 1.386 . S
C2730 C2732 1.391 . S
C2731 C2730 1.386 . S
C2731 C2735 1.393 . S
C2732 H2721 0.950 . S
C2732 C2730 1.391 . S
C2732 C2733 1.400 . S
C2733 C2727 1.491 . S
C2733 C2732 1.400 . S
C2733 C2734 1.398 . S
C2734 H2722 0.950 . S
C2734 C2733 1.398 . S
C2734 C2735 1.391 . S
C2735 H2723 0.950 . S
C2735 C2731 1.393 . S
C2735 C2734 1.391 . S
C1305 C14 1.456 . S
C1311 C662 1.375 . S
C1325 C40 1.292 . S
C1331 C687 1.343 . S
C1345 C723 1.367 . S
C1351 C76 1.319 . S
C1365 C112 1.334 . S
C1371 C1191 1.377 . S
C1385 C1227 1.350 . S
C1391 C148 1.305 . S
C1405 C194 1.445 . S
C1411 C1274 1.385 . S
C1425 C878 1.444 . S
C1431 C230 1.408 . S
C1445 C255 1.357 . S
C1451 C904 1.310 . S
C1465 C291 1.376 . S
C1471 C940 1.334 . S
C1485 C327 1.367 . S
C1491 C544 1.318 . S
C1505 C580 1.303 . S
C1511 C363 1.352 . S
C1525 C410 1.408 . S
C1531 C626 1.447 . S
C1545 C446 1.456 . S
C1551 C1094 1.376 . S
C1565 C472 1.293 . S
C1571 C1119 1.345 . S
C1585 C508 1.337 . S
C1591 C1155 1.379 . S
C1605 C759 1.366 . S
C1611 C976 1.316 . S
C1625 C795 1.359 . S
C1631 C1012 1.314 . S
C1645 C842 1.395 . S
C1651 C1058 1.457 . S
C1665 C256 1.331 . S
C1671 C4 1.365 . S
C1685 C292 1.273 . S
C1691 C50 1.278 . S
C1705 C86 1.424 . S
C1711 C218 1.342 . S
C1725 C398 1.368 . S
C1731 C122 1.413 . S
C1745 C328 1.246 . S
C1751 C158 1.297 . S
C1765 C364 1.373 . S
C1771 C184 1.356 . S
C1785 C219 1.387 . S
C1791 C39 1.369 1_565 S
C1805 C266 1.243 . S
C1811 C75 1.285 1_455 S
C1825 C302 1.370 . S
C1831 C2 1.354 . S
C1845 C338 1.381 . S
C1851 C182 1.371 . S
C1865 C111 1.291 . S
C1871 C374 1.252 . S
C1885 C147 1.379 1_545 S
C1891 C399 1.380 . S
C1905 C436 1.369 . S
C1911 C688 1.345 . S
C1925 C482 1.290 . S
C1931 C724 1.262 . S
C1945 C518 1.425 . S
C1951 C650 1.352 . S
C1965 C830 1.361 . S
C1971 C554 1.415 . S
C1985 C590 1.279 . S
C1991 C760 1.261 . S
C2005 C796 1.331 . S
C2011 C616 1.345 . S
C2025 C651 1.389 . S
C2031 C471 1.376 . S
C2045 C507 1.289 . S
C2051 C698 1.249 . S
C2065 C434 1.352 . S
C2071 C734 1.364 . S
C2085 C770 1.380 . S
C2091 C614 1.370 . S
C2105 C806 1.244 . S
C2111 C543 1.286 . S
C2125 C831 1.384 . S
C2131 C579 1.364 . S
C2145 C1120 1.337 . S
C2151 C868 1.348 . S
C2165 C914 1.289 . S
C2171 C1156 1.265 . S
C2185 C950 1.424 . S
C2191 C1082 1.343 . S
C2205 C1262 1.351 . S
C2211 C986 1.426 . S
C2225 C1192 1.249 . S
C2231 C1022 1.287 . S
C2245 C1228 1.317 . S
C2251 C1048 1.349 . S
C2265 C903 1.360 . S
C2271 C1083 1.375 . S
C2285 C939 1.287 . S
C2291 C1130 1.247 . S
C2305 C866 1.362 . S
C2311 C1166 1.377 . S
C2325 C1202 1.387 . S
C2331 C1046 1.374 . S
C2345 C975 1.296 . S
C2351 C1238 1.263 . S
C2365 C1263 1.389 . S
C2371 C1011 1.374 . S
C2385 C3 0.811 . S
C2391 C1047 0.816 . S
C2405 C974 0.860 . S
C2411 C38 0.872 . S
C2425 C74 0.904 . S
C2431 C1010 0.905 . S
C2445 C110 0.900 . S
C2451 C470 0.907 . S
C2465 C506 0.884 . S
C2471 C146 0.909 . S
C2485 C183 0.785 . S
C2491 C435 0.796 . S
C2505 C832 0.826 . S
C2511 C220 0.842 . S
C2525 C254 0.878 . S
C2531 C758 0.908 . S
C2545 C290 0.922 . S
C2551 C794 0.886 . S
C2565 C326 0.887 . S
C2571 C1118 0.919 . S
C2585 C362 0.904 . S
C2591 C1154 0.932 . S
C2605 C1084 0.834 . S
C2611 C400 0.839 . S
C2625 C542 0.909 . S
C2631 C902 0.897 . S
C2645 C938 0.863 . S
C2651 C578 0.866 . S
C2665 C867 0.791 . S
C2671 C615 0.783 . S
C2685 C1264 0.837 . S
C2691 C652 0.801 . S
C2705 C686 0.926 . S
C2711 C1190 0.928 . S
C2725 C722 0.929 . S
C2731 C1226 0.896 . S
