# Generated by pormake.
# Topology fnd, (5)-cn, num edge types: 1
# Building blocks:
#     Node 0, Type 0, BuildingBlock: XOMCOT_clean_sbu_1, # of connection points: 5
#     Node 1, Type 0, BuildingBlock: XOMCOT_clean_sbu_1, # of connection points: 5
#     Node 2, Type 0, BuildingBlock: XOMCOT_clean_sbu_1, # of connection points: 5
#     Node 3, Type 0, BuildingBlock: XOMCOT_clean_sbu_1, # of connection points: 5
#     Node 4, Type 0, BuildingBlock: XOMCOT_clean_sbu_1, # of connection points: 5
#     Node 5, Type 0, BuildingBlock: XOMCOT_clean_sbu_1, # of connection points: 5
#     Node 6, Type 0, BuildingBlock: XOMCOT_clean_sbu_1, # of connection points: 5
#     Node 7, Type 0, BuildingBlock: XOMCOT_clean_sbu_1, # of connection points: 5
#     Node 8, Type 0, BuildingBlock: XOMCOT_clean_sbu_1, # of connection points: 5
#     Node 9, Type 0, BuildingBlock: XOMCOT_clean_sbu_1, # of connection points: 5
#     Node 10, Type 0, BuildingBlock: XOMCOT_clean_sbu_1, # of connection points: 5
#     Node 11, Type 0, BuildingBlock: XOMCOT_clean_sbu_1, # of connection points: 5
#     Node 12, Type 0, BuildingBlock: XOMCOT_clean_sbu_1, # of connection points: 5
#     Node 13, Type 0, BuildingBlock: XOMCOT_clean_sbu_1, # of connection points: 5
#     Node 14, Type 0, BuildingBlock: XOMCOT_clean_sbu_1, # of connection points: 5
#     Node 15, Type 0, BuildingBlock: XOMCOT_clean_sbu_1, # of connection points: 5
#     Node 16, Type 0, BuildingBlock: XOMCOT_clean_sbu_1, # of connection points: 5
#     Node 17, Type 0, BuildingBlock: XOMCOT_clean_sbu_1, # of connection points: 5
#     Edge 18, Type (0, 0), BuildingBlock: XIVTED_clean_linker_0, # of connection points: 2
#     Edge 19, Type (0, 0), BuildingBlock: XIVTED_clean_linker_0, # of connection points: 2
#     Edge 20, Type (0, 0), BuildingBlock: XIVTED_clean_linker_0, # of connection points: 2
#     Edge 21, Type (0, 0), BuildingBlock: XIVTED_clean_linker_0, # of connection points: 2
#     Edge 22, Type (0, 0), BuildingBlock: XIVTED_clean_linker_0, # of connection points: 2
#     Edge 23, Type (0, 0), BuildingBlock: XIVTED_clean_linker_0, # of connection points: 2
#     Edge 24, Type (0, 0), BuildingBlock: XIVTED_clean_linker_0, # of connection points: 2
#     Edge 25, Type (0, 0), BuildingBlock: XIVTED_clean_linker_0, # of connection points: 2
#     Edge 26, Type (0, 0), BuildingBlock: XIVTED_clean_linker_0, # of connection points: 2
#     Edge 27, Type (0, 0), BuildingBlock: XIVTED_clean_linker_0, # of connection points: 2
#     Edge 28, Type (0, 0), BuildingBlock: XIVTED_clean_linker_0, # of connection points: 2
#     Edge 29, Type (0, 0), BuildingBlock: XIVTED_clean_linker_0, # of connection points: 2
#     Edge 30, Type (0, 0), BuildingBlock: XIVTED_clean_linker_0, # of connection points: 2
#     Edge 31, Type (0, 0), BuildingBlock: XIVTED_clean_linker_0, # of connection points: 2
#     Edge 32, Type (0, 0), BuildingBlock: XIVTED_clean_linker_0, # of connection points: 2
#     Edge 33, Type (0, 0), BuildingBlock: XIVTED_clean_linker_0, # of connection points: 2
#     Edge 34, Type (0, 0), BuildingBlock: XIVTED_clean_linker_0, # of connection points: 2
#     Edge 35, Type (0, 0), BuildingBlock: XIVTED_clean_linker_0, # of connection points: 2
#     Edge 36, Type (0, 0), BuildingBlock: XIVTED_clean_linker_0, # of connection points: 2
#     Edge 37, Type (0, 0), BuildingBlock: XIVTED_clean_linker_0, # of connection points: 2
#     Edge 38, Type (0, 0), BuildingBlock: XIVTED_clean_linker_0, # of connection points: 2
#     Edge 39, Type (0, 0), BuildingBlock: XIVTED_clean_linker_0, # of connection points: 2
#     Edge 40, Type (0, 0), BuildingBlock: XIVTED_clean_linker_0, # of connection points: 2
#     Edge 41, Type (0, 0), BuildingBlock: XIVTED_clean_linker_0, # of connection points: 2
#     Edge 42, Type (0, 0), BuildingBlock: XIVTED_clean_linker_0, # of connection points: 2
#     Edge 43, Type (0, 0), BuildingBlock: XIVTED_clean_linker_0, # of connection points: 2
#     Edge 44, Type (0, 0), BuildingBlock: XIVTED_clean_linker_0, # of connection points: 2
#     Edge 45, Type (0, 0), BuildingBlock: XIVTED_clean_linker_0, # of connection points: 2
#     Edge 46, Type (0, 0), BuildingBlock: XIVTED_clean_linker_0, # of connection points: 2
#     Edge 47, Type (0, 0), BuildingBlock: XIVTED_clean_linker_0, # of connection points: 2
#     Edge 48, Type (0, 0), BuildingBlock: XIVTED_clean_linker_0, # of connection points: 2
#     Edge 49, Type (0, 0), BuildingBlock: XIVTED_clean_linker_0, # of connection points: 2
#     Edge 50, Type (0, 0), BuildingBlock: XIVTED_clean_linker_0, # of connection points: 2
#     Edge 51, Type (0, 0), BuildingBlock: XIVTED_clean_linker_0, # of connection points: 2
#     Edge 52, Type (0, 0), BuildingBlock: XIVTED_clean_linker_0, # of connection points: 2
#     Edge 53, Type (0, 0), BuildingBlock: XIVTED_clean_linker_0, # of connection points: 2
#     Edge 54, Type (0, 0), BuildingBlock: XIVTED_clean_linker_0, # of connection points: 2
#     Edge 55, Type (0, 0), BuildingBlock: XIVTED_clean_linker_0, # of connection points: 2
#     Edge 56, Type (0, 0), BuildingBlock: XIVTED_clean_linker_0, # of connection points: 2
#     Edge 57, Type (0, 0), BuildingBlock: XIVTED_clean_linker_0, # of connection points: 2
#     Edge 58, Type (0, 0), BuildingBlock: XIVTED_clean_linker_0, # of connection points: 2
#     Edge 59, Type (0, 0), BuildingBlock: XIVTED_clean_linker_0, # of connection points: 2
#     Edge 60, Type (0, 0), BuildingBlock: XIVTED_clean_linker_0, # of connection points: 2
#     Edge 61, Type (0, 0), BuildingBlock: XIVTED_clean_linker_0, # of connection points: 2
#     Edge 62, Type (0, 0), BuildingBlock: XIVTED_clean_linker_0, # of connection points: 2
# Relax obj value: 0.033
# Max RMSD: 0.083
# Mean RMSD: 0.083
data_MOF--net-fnd--node1-XOMCOT_clean_sbu_1--edge1-XIVTED_clean_linker_0
_symmetry_space_group_name_H-M    P1
_symmetry_Int_Tables_number       1
_symmetry_cell_setting            triclinic
loop_
_symmetry_equiv_pos_as_xyz
'x, y, z'
_cell_length_a     83.869921
_cell_length_b     84.013599
_cell_length_c     17.702296
_cell_angle_alpha  90.016209
_cell_angle_beta   90.003214
_cell_angle_gamma 119.94674
loop_
_atom_site_label
_atom_site_type_symbol
_atom_site_fract_x
_atom_site_fract_y
_atom_site_fract_z
_atom_type_partial_charge
C0 C 0.14498 0.2546 0.50149 0.0
C1 C 0.14762 0.25547 0.57831 0.0
N2 N 0.13107 0.24843 0.61245 0.0
N3 N 0.12689 0.24697 0.48697 0.0
C4 C 0.11873 0.24346 0.55543 0.0
H5 H 0.15553 0.25887 0.45862 0.0
Co6 Co 0.11735 0.24226 0.39025 0.0
C7 C 0.07926 0.21189 0.40201 0.0
O8 O 0.08343 0.20428 0.34623 0.0
N9 N 0.10795 0.23823 0.29028 0.0
C10 C 0.09062 0.23786 0.19401 0.0
C11 C 0.09298 0.23943 0.27079 0.0
C12 C 0.11479 0.23654 0.22328 0.0
N13 N 0.10439 0.23612 0.1641 0.0
O14 O 0.11566 0.2643 0.39511 0.0
H15 H 0.08462 0.242 0.30995 0.0
H16 H 0.12745 0.23634 0.21688 0.0
O17 O 0.0917 0.22736 0.42876 0.0
C18 C 0.12698 0.27749 0.35331 0.0
O19 O 0.1378 0.27481 0.30785 0.0
N20 N 0.12107 0.22169 0.38766 0.0
C21 C 0.13463 0.19735 0.4045 0.0
C22 C 0.11966 0.19525 0.44751 0.0
C23 C 0.11335 0.20774 0.43943 0.0
C24 C 0.1359 0.22413 0.34668 0.0
C25 C 0.14259 0.21189 0.35268 0.0
H26 H 0.10309 0.2068 0.47871 0.0
H27 H 0.14363 0.23649 0.31386 0.0
H28 H 0.10404 0.23731 0.56316 0.0
H29 H 0.16071 0.26048 0.60645 0.0
H30 H 0.08016 0.23894 0.1623 0.0
H31 H 0.11335 0.1845 0.48957 0.0
H32 H 0.15473 0.21458 0.32097 0.0
C33 C 0.75966 0.88383 0.52624 0.0
C34 C 0.75623 0.88214 0.60267 0.0
N35 N 0.76397 0.87292 0.63337 0.0
N36 N 0.76957 0.87576 0.50827 0.0
C37 C 0.77169 0.86892 0.57447 0.0
H38 H 0.75597 0.89127 0.4867 0.0
Co39 Co 0.77935 0.877 0.41158 0.0
C40 C 0.81101 0.87198 0.46623 0.0
O41 O 0.82318 0.88945 0.45836 0.0
N42 N 0.78863 0.8779 0.31198 0.0
C43 C 0.80704 0.8826 0.21336 0.0
C44 C 0.80617 0.88381 0.29042 0.0
C45 C 0.77917 0.87339 0.24573 0.0
N46 N 0.79002 0.87601 0.18494 0.0
O47 O 0.75902 0.85273 0.39193 0.0
H48 H 0.81793 0.88945 0.32706 0.0
H49 H 0.7646 0.86835 0.24158 0.0
O50 O 0.79405 0.86596 0.44969 0.0
C51 C 0.745 0.85325 0.36715 0.0
O52 O 0.74638 0.86933 0.35509 0.0
N53 N 0.79809 0.90187 0.43128 0.0
C54 C 0.81969 0.93955 0.46288 0.0
C55 C 0.81675 0.92638 0.51784 0.0
C56 C 0.80583 0.90772 0.50125 0.0
C57 C 0.80062 0.91462 0.37751 0.0
C58 C 0.81168 0.93346 0.39154 0.0
H59 H 0.80363 0.89798 0.54535 0.0
H60 H 0.79346 0.9103 0.32414 0.0
H61 H 0.77951 0.86194 0.58 0.0
H62 H 0.7495 0.88824 0.63369 0.0
H63 H 0.81944 0.88692 0.18069 0.0
H64 H 0.82268 0.93047 0.57374 0.0
H65 H 0.8132 0.94319 0.34807 0.0
C66 C 0.12821 0.87813 0.5007 0.0
C67 C 0.12667 0.87549 0.57764 0.0
N68 N 0.13621 0.89201 0.61177 0.0
N69 N 0.1386 0.8962 0.48613 0.0
C70 C 0.14341 0.90431 0.55469 0.0
H71 H 0.12179 0.86761 0.45788 0.0
Co72 Co 0.14315 0.90609 0.38969 0.0
C73 C 0.15102 0.94424 0.4096 0.0
O74 O 0.13905 0.94108 0.35553 0.0
N75 N 0.14824 0.91596 0.29026 0.0
C76 C 0.1648 0.93373 0.19427 0.0
C77 C 0.16396 0.93142 0.27113 0.0
C78 C 0.1401 0.90878 0.2229 0.0
N79 N 0.14982 0.91942 0.16386 0.0
O80 O 0.16686 0.90759 0.39184 0.0
H81 H 0.1747 0.94009 0.31039 0.0
H82 H 0.12782 0.89563 0.21614 0.0
O83 O 0.15406 0.9314 0.43084 0.0
C84 C 0.16836 0.89622 0.3488 0.0
O85 O 0.15454 0.88558 0.30439 0.0
N86 N 0.11889 0.90252 0.38912 0.0
C87 C 0.08096 0.88902 0.40518 0.0
C88 C 0.09372 0.90347 0.45056 0.0
C89 C 0.11256 0.9098 0.44259 0.0
C90 C 0.10657 0.88808 0.34631 0.0
C91 C 0.08765 0.88148 0.35179 0.0
H92 H 0.12183 0.9197 0.48305 0.0
H93 H 0.11122 0.88054 0.31233 0.0
H94 H 0.15191 0.91897 0.56252 0.0
H95 H 0.11866 0.86243 0.60589 0.0
H96 H 0.17612 0.9445 0.1629 0.0
H97 H 0.08915 0.90936 0.49405 0.0
H98 H 0.07827 0.86968 0.31834 0.0
C99 C 0.27239 0.13045 0.47235 0.0
C100 C 0.27471 0.12968 0.39581 0.0
N101 N 0.25934 0.11537 0.36712 0.0
N102 N 0.25568 0.11663 0.49241 0.0
C103 C 0.24801 0.10767 0.42709 0.0
H104 H 0.28209 0.14074 0.51075 0.0
Co105 Co 0.24623 0.11324 0.59008 0.0
C106 C 0.21565 0.07436 0.59758 0.0
O107 O 0.20628 0.07926 0.64175 0.0
N108 N 0.23687 0.11029 0.69184 0.0
C109 C 0.22151 0.11097 0.79386 0.0
C110 C 0.2238 0.11395 0.71759 0.0
C111 C 0.24221 0.10503 0.75526 0.0
N112 N 0.23317 0.10547 0.81787 0.0
O113 O 0.26637 0.11017 0.62389 0.0
H114 H 0.21601 0.11837 0.68403 0.0
H115 H 0.25258 0.10097 0.75611 0.0
O116 O 0.23133 0.08655 0.57202 0.0
C117 C 0.27921 0.12391 0.65859 0.0
O118 O 0.27679 0.13772 0.67671 0.0
N119 N 0.22819 0.11841 0.55385 0.0
C120 C 0.20576 0.13265 0.5105 0.0
C121 C 0.20065 0.11435 0.49402 0.0
C122 C 0.21216 0.10747 0.51587 0.0
C123 C 0.23395 0.13655 0.56481 0.0
C124 C 0.22282 0.14385 0.54506 0.0
H125 H 0.20815 0.0935 0.50155 0.0
H126 H 0.24706 0.14523 0.59188 0.0
H127 H 0.2343 0.09589 0.42345 0.0
H128 H 0.28654 0.13941 0.36342 0.0
H129 H 0.21235 0.11328 0.8294 0.0
H130 H 0.18775 0.10537 0.46586 0.0
H131 H 0.22752 0.15818 0.55689 0.0
C132 C 0.88405 0.1312 0.50538 0.0
C133 C 0.88218 0.13279 0.42898 0.0
N134 N 0.89909 0.14204 0.39785 0.0
N135 N 0.90206 0.13934 0.5229 0.0
C136 C 0.91091 0.14612 0.45647 0.0
H137 H 0.87299 0.12382 0.54527 0.0
Co138 Co 0.91081 0.13849 0.61958 0.0
C139 C 0.94674 0.14197 0.56395 0.0
O140 O 0.94082 0.12441 0.57357 0.0
N141 N 0.9194 0.13805 0.71915 0.0
C142 C 0.9338 0.13458 0.81831 0.0
C143 C 0.93182 0.1332 0.74128 0.0
C144 C 0.91391 0.14213 0.78504 0.0
N145 N 0.92255 0.14025 0.84618 0.0
O146 O 0.91556 0.1631 0.63654 0.0
H147 H 0.93872 0.12832 0.70516 0.0
H148 H 0.9037 0.14633 0.78851 0.0
O149 O 0.93632 0.14863 0.57999 0.0
C150 C 0.90128 0.16324 0.66029 0.0
O151 O 0.88617 0.14752 0.67241 0.0
N152 N 0.90398 0.11327 0.60287 0.0
C153 C 0.88773 0.07521 0.57735 0.0
C154 C 0.89728 0.08791 0.51974 0.0
C155 C 0.90511 0.10673 0.53333 0.0
C156 C 0.89434 0.10106 0.65905 0.0
C157 C 0.8865 0.08211 0.64809 0.0
H158 H 0.91215 0.11603 0.4873 0.0
H159 H 0.89211 0.10587 0.71245 0.0
H160 H 0.92571 0.15323 0.45071 0.0
H161 H 0.8693 0.12666 0.39835 0.0
H162 H 0.94246 0.13107 0.85133 0.0
H163 H 0.89826 0.08343 0.46346 0.0
H164 H 0.87928 0.07298 0.69467 0.0
C165 C 0.8736 0.74772 0.45492 0.0
C166 C 0.87035 0.74609 0.37846 0.0
N167 N 0.87317 0.76233 0.3519 0.0
N168 N 0.8783 0.76485 0.47706 0.0
C169 C 0.87797 0.77349 0.41304 0.0
H170 H 0.87312 0.73723 0.49176 0.0
Co171 Co 0.88528 0.77344 0.57524 0.0
C172 C 0.87613 0.8031 0.59923 0.0
O173 O 0.89014 0.8114 0.64571 0.0
N174 N 0.89259 0.78174 0.67698 0.0
C175 C 0.9095 0.79473 0.78003 0.0
C176 C 0.90992 0.79234 0.70365 0.0
C177 C 0.88191 0.77785 0.73968 0.0
N178 N 0.89189 0.78556 0.80293 0.0
O179 O 0.86238 0.75308 0.61053 0.0
H180 H 0.92239 0.79812 0.6709 0.0
H181 H 0.86706 0.76952 0.73919 0.0
O182 O 0.87321 0.78841 0.56537 0.0
C183 C 0.86324 0.74037 0.64647 0.0
O184 O 0.87944 0.74263 0.66438 0.0
N185 N 0.90815 0.79191 0.53767 0.0
C186 C 0.94472 0.81517 0.49545 0.0
C187 C 0.93176 0.82106 0.49019 0.0
C188 C 0.91342 0.80914 0.51135 0.0
C189 C 0.92023 0.78551 0.53644 0.0
C190 C 0.93864 0.797 0.5171 0.0
H191 H 0.90368 0.81389 0.50638 0.0
H192 H 0.91567 0.7716 0.55461 0.0
H193 H 0.88152 0.78775 0.41114 0.0
H194 H 0.86702 0.7341 0.34456 0.0
H195 H 0.92135 0.80214 0.81639 0.0
H196 H 0.93588 0.8349 0.47202 0.0
H197 H 0.9481 0.79177 0.52007 0.0
C198 C 0.7982 0.60191 0.8925 0.0
C199 C 0.79659 0.60332 0.96915 0.0
N200 N 0.78412 0.58667 0.99596 0.0
N201 N 0.78667 0.5845 0.87048 0.0
C202 C 0.77829 0.57549 0.93479 0.0
H203 H 0.80769 0.61277 0.85556 0.0
Co204 Co 0.78541 0.57578 0.77255 0.0
C205 C 0.7463 0.54605 0.74856 0.0
O206 O 0.75134 0.53799 0.69793 0.0
N207 N 0.78477 0.56733 0.67188 0.0
C208 C 0.79032 0.55522 0.57004 0.0
C209 C 0.79273 0.55774 0.64662 0.0
C210 C 0.77774 0.57059 0.6084 0.0
N211 N 0.78096 0.56338 0.54577 0.0
O212 O 0.78255 0.59583 0.73547 0.0
H213 H 0.80031 0.55312 0.68058 0.0
H214 H 0.7705 0.57824 0.60789 0.0
O215 O 0.75847 0.56049 0.78257 0.0
C216 C 0.79617 0.60844 0.69936 0.0
O217 O 0.81018 0.60615 0.683 0.0
N218 N 0.7902 0.5577 0.81154 0.0
C219 C 0.80487 0.53606 0.86151 0.0
C220 C 0.78576 0.52853 0.85333 0.0
C221 C 0.77864 0.53966 0.82916 0.0
C222 C 0.80869 0.56535 0.82215 0.0
C223 C 0.8163 0.55483 0.84663 0.0
H224 H 0.76396 0.53363 0.82506 0.0
H225 H 0.81764 0.57972 0.80901 0.0
H226 H 0.76845 0.56093 0.93685 0.0
H227 H 0.80468 0.61549 1.00299 0.0
H228 H 0.79579 0.5486 0.53445 0.0
H229 H 0.77639 0.51419 0.86592 0.0
H230 H 0.83112 0.56127 0.85152 0.0
C231 C 0.41928 0.20414 0.88358 0.0
C232 C 0.41704 0.2009 0.95998 0.0
N233 N 0.43256 0.20214 0.98814 0.0
N234 N 0.43607 0.2073 0.86303 0.0
C235 C 0.44391 0.20606 0.92796 0.0
H236 H 0.40944 0.20463 0.84557 0.0
Co237 Co 0.44512 0.21347 0.76497 0.0
C238 C 0.47539 0.20486 0.75054 0.0
O239 O 0.48429 0.21919 0.7063 0.0
N240 N 0.45397 0.22001 0.66276 0.0
C241 C 0.46864 0.2361 0.55993 0.0
C242 C 0.4663 0.23689 0.63611 0.0
C243 C 0.44906 0.20921 0.59997 0.0
N244 N 0.45773 0.21872 0.53692 0.0
O245 O 0.42485 0.19036 0.73141 0.0
H246 H 0.47357 0.24929 0.6689 0.0
H247 H 0.43933 0.19463 0.60001 0.0
O248 O 0.46008 0.20152 0.78002 0.0
C249 C 0.41196 0.19112 0.69632 0.0
O250 O 0.41423 0.20724 0.6775 0.0
N251 N 0.46337 0.2366 0.80097 0.0
C252 C 0.48639 0.27336 0.84058 0.0
C253 C 0.49171 0.26022 0.85479 0.0
C254 C 0.4799 0.24177 0.83486 0.0
C255 C 0.45739 0.24892 0.79326 0.0
C256 C 0.46881 0.26741 0.81106 0.0
H257 H 0.48413 0.23185 0.84686 0.0
H258 H 0.44392 0.24443 0.76943 0.0
H259 H 0.45773 0.20822 0.93116 0.0
H260 H 0.40516 0.19856 0.99267 0.0
H261 H 0.47732 0.2476 0.52375 0.0
H262 H 0.50503 0.26423 0.87926 0.0
H263 H 0.46397 0.27701 0.80114 0.0
C264 C 0.80462 0.21139 0.87118 0.0
C265 C 0.80648 0.20974 0.94753 0.0
N266 N 0.8153 0.22669 0.97823 0.0
N267 N 0.81217 0.22929 0.85328 0.0
C268 C 0.81886 0.23832 0.91942 0.0
H269 H 0.79745 0.20022 0.83162 0.0
Co270 Co 0.81072 0.23755 0.75642 0.0
C271 C 0.81375 0.2734 0.80953 0.0
O272 O 0.79599 0.26687 0.80255 0.0
N273 N 0.80967 0.24567 0.6566 0.0
C274 C 0.80482 0.25911 0.55754 0.0
C275 C 0.80348 0.25702 0.63453 0.0
C276 C 0.8145 0.2409 0.59071 0.0
N277 N 0.81181 0.24899 0.52967 0.0
O278 O 0.83545 0.24264 0.73813 0.0
H279 H 0.79758 0.26296 0.67071 0.0
H280 H 0.81984 0.2316 0.58709 0.0
O281 O 0.8207 0.26321 0.79401 0.0
C282 C 0.8357 0.22841 0.71466 0.0
O283 O 0.82 0.21323 0.70299 0.0
N284 N 0.78538 0.23028 0.7746 0.0
C285 C 0.74738 0.21354 0.80204 0.0
C286 C 0.76014 0.2234 0.85893 0.0
C287 C 0.77897 0.23147 0.84441 0.0
C288 C 0.77303 0.22024 0.71927 0.0
C289 C 0.75404 0.21215 0.73119 0.0
H290 H 0.78838 0.23886 0.88972 0.0
H291 H 0.77776 0.21784 0.66601 0.0
H292 H 0.82548 0.25309 0.92489 0.0
H293 H 0.8008 0.19695 0.97847 0.0
H294 H 0.80035 0.26701 0.52451 0.0
H295 H 0.75561 0.2248 0.91458 0.0
H296 H 0.74465 0.20419 0.68629 0.0
C297 C 0.93137 0.4725 0.85233 0.0
C298 C 0.9346 0.47483 0.7758 0.0
N299 N 0.92803 0.45815 0.74353 0.0
N300 N 0.9227 0.45445 0.8687 0.0
C301 C 0.92111 0.44606 0.80156 0.0
H302 H 0.93454 0.48324 0.89328 0.0
Co303 Co 0.91425 0.44476 0.96526 0.0
C304 C 0.8819 0.40909 0.908 0.0
O305 O 0.87015 0.41462 0.92369 0.0
N306 N 0.90643 0.43519 0.06467 0.0
C307 C 0.89038 0.41873 0.16415 0.0
C308 C 0.89041 0.42056 0.08724 0.0
C309 C 0.91586 0.44205 0.13019 0.0
N310 N 0.90641 0.43223 0.19156 0.0
O311 O 0.9347 0.44055 0.97407 0.0
H312 H 0.87904 0.41176 0.05165 0.0
H313 H 0.92934 0.45413 0.1331 0.0
O314 O 0.89905 0.41956 0.92243 0.0
C315 C 0.9491 0.45471 0.99846 0.0
O316 O 0.94818 0.46942 0.01588 0.0
N317 N 0.89523 0.45109 0.95713 0.0
C318 C 0.87227 0.46653 0.94593 0.0
C319 C 0.87505 0.45783 0.88379 0.0
C320 C 0.88676 0.45052 0.89014 0.0
C321 C 0.89295 0.45988 0.0176 0.0
C322 C 0.88135 0.46737 0.01364 0.0
H323 H 0.88892 0.4443 0.84071 0.0
H324 H 0.90064 0.46183 0.06895 0.0
H325 H 0.91461 0.43133 0.79519 0.0
H326 H 0.94061 0.4878 0.74611 0.0
H327 H 0.87909 0.40849 0.19744 0.0
H328 H 0.86875 0.45723 0.82967 0.0
H329 H 0.8798 0.47405 0.06313 0.0
C330 C 0.54912 0.4615 0.82691 0.0
C331 C 0.54675 0.45998 0.74976 0.0
N332 N 0.56326 0.46556 0.71726 0.0
N333 N 0.567 0.46799 0.84299 0.0
C334 C 0.57528 0.47038 0.77526 0.0
H335 H 0.53851 0.45812 0.86882 0.0
Co336 Co 0.57656 0.47203 0.93972 0.0
C337 C 0.61491 0.48002 0.92222 0.0
O338 O 0.61168 0.468 0.97601 0.0
N339 N 0.58614 0.47665 0.03919 0.0
C340 C 0.60335 0.49311 0.1364 0.0
C341 C 0.60114 0.49262 0.05961 0.0
C342 C 0.57922 0.46786 0.10557 0.0
N343 N 0.5895 0.47754 0.1655 0.0
O344 O 0.5783 0.49585 0.93871 0.0
H345 H 0.60952 0.50372 0.02126 0.0
H346 H 0.56651 0.45503 0.11089 0.0
O347 O 0.60203 0.48294 0.90015 0.0
C348 C 0.56701 0.49746 0.98197 0.0
O349 O 0.55623 0.48366 0.0261 0.0
N350 N 0.57268 0.44771 0.93933 0.0
C351 C 0.55891 0.40977 0.92481 0.0
C352 C 0.57402 0.4224 0.88179 0.0
C353 C 0.58048 0.44125 0.88889 0.0
C354 C 0.55759 0.43554 0.97946 0.0
C355 C 0.5508 0.41661 0.97473 0.0
H356 H 0.59105 0.45043 0.85041 0.0
H357 H 0.54992 0.44042 1.01145 0.0
H358 H 0.5898 0.47521 0.76862 0.0
H359 H 0.53389 0.45534 0.72013 0.0
H360 H 0.61372 0.50457 0.16857 0.0
H361 H 0.58041 0.41772 0.84101 0.0
H362 H 0.53856 0.40737 1.00629 0.0
C363 C 0.55595 0.08771 0.81659 0.0
C364 C 0.55451 0.08442 0.74005 0.0
N365 N 0.54452 0.09135 0.70954 0.0
N366 N 0.547 0.09675 0.83467 0.0
C367 C 0.53988 0.09847 0.7686 0.0
H368 H 0.56372 0.08445 0.85621 0.0
Co369 Co 0.54699 0.10583 0.93136 0.0
C370 C 0.54344 0.13813 0.87454 0.0
O371 O 0.56093 0.14988 0.88601 0.0
N372 N 0.5465 0.11427 0.03061 0.0
C373 C 0.54832 0.13121 0.13062 0.0
C374 C 0.54987 0.13101 0.05354 0.0
C375 C 0.54308 0.1046 0.09582 0.0
N376 N 0.54401 0.11457 0.15752 0.0
O377 O 0.52236 0.08562 0.94503 0.0
H378 H 0.55375 0.14271 0.0179 0.0
H379 H 0.54007 0.09053 0.09823 0.0
O380 O 0.53679 0.12109 0.89073 0.0
C381 C 0.52243 0.07119 0.96694 0.0
O382 O 0.53827 0.07205 0.97953 0.0
N383 N 0.57228 0.12453 0.91812 0.0
C384 C 0.61059 0.14643 0.8975 0.0
C385 C 0.5983 0.14338 0.83812 0.0
C386 C 0.57935 0.13234 0.84931 0.0
C387 C 0.58409 0.12711 0.97612 0.0
C388 C 0.60314 0.13825 0.96757 0.0
H389 H 0.57038 0.13007 0.80188 0.0
H390 H 0.57893 0.11999 0.02907 0.0
H391 H 0.53201 0.10541 0.76351 0.0
H392 H 0.56119 0.07828 0.70898 0.0
H393 H 0.55079 0.14297 0.16432 0.0
H394 H 0.60322 0.14891 0.7823 0.0
H395 H 0.61193 0.14011 0.01547 0.0
C396 C 0.4633 0.9339 0.22497 0.0
C397 C 0.4619 0.93546 0.3017 0.0
N398 N 0.44933 0.9189 0.3291 0.0
N399 N 0.45157 0.91649 0.20357 0.0
C400 C 0.44326 0.90764 0.26823 0.0
H401 H 0.4727 0.94468 0.18751 0.0
Co402 Co 0.4497 0.90744 0.10586 0.0
C403 C 0.41043 0.87773 0.08633 0.0
O404 O 0.41512 0.86969 0.03435 0.0
N405 N 0.44839 0.8986 1.00508 0.0
C406 C 0.45272 0.88558 0.90316 0.0
C407 C 0.45529 0.88805 0.97967 0.0
C408 C 0.44176 0.90239 0.94164 0.0
N409 N 0.44431 0.89468 0.87898 0.0
O410 O 0.44674 0.92746 0.06869 0.0
H411 H 0.46218 0.88262 0.01339 0.0
H412 H 0.43531 0.91077 0.94107 0.0
O413 O 0.42283 0.89226 0.11903 0.0
C414 C 0.4605 0.94002 0.03303 0.0
O415 O 0.4746 0.93773 0.01869 0.0
N416 N 0.4546 0.88937 0.14454 0.0
C417 C 0.46915 0.86738 0.19196 0.0
C418 C 0.45001 0.86034 0.18938 0.0
C419 C 0.44298 0.87162 0.16614 0.0
C420 C 0.47315 0.89663 0.15003 0.0
C421 C 0.4807 0.8859 0.17266 0.0
H422 H 0.4283 0.86596 0.16604 0.0
H423 H 0.48217 0.91078 0.13381 0.0
H424 H 0.4332 0.89315 0.27068 0.0
H425 H 0.47014 0.94767 0.33509 0.0
H426 H 0.45746 0.8783 0.86755 0.0
H427 H 0.44054 0.84628 0.20563 0.0
H428 H 0.49552 0.89203 0.17274 0.0
C429 C 0.09001 0.54138 0.19251 0.0
C430 C 0.08743 0.53869 0.26924 0.0
N431 N 0.10118 0.53662 0.29783 0.0
N432 N 0.10527 0.54093 0.17248 0.0
C433 C 0.11176 0.53797 0.23777 0.0
H434 H 0.08156 0.54397 0.15395 0.0
Co435 Co 0.11483 0.54513 0.075 0.0
C436 C 0.14631 0.53789 0.08589 0.0
O437 O 0.15675 0.55256 0.04558 0.0
N438 N 0.12442 0.54963 0.97318 0.0
C439 C 0.14117 0.56352 0.87048 0.0
C440 C 0.13952 0.56485 0.94681 0.0
C441 C 0.1172 0.53925 0.90992 0.0
N442 N 0.12705 0.54747 0.847 0.0
O443 O 0.09476 0.52138 0.04676 0.0
H444 H 0.14911 0.57647 0.98017 0.0
H445 H 0.10489 0.52594 0.90906 0.0
O446 O 0.1298 0.53376 0.10165 0.0
C447 C 0.08145 0.52214 0.0155 0.0
O448 O 0.08359 0.5383 0.998 0.0
N449 N 0.13275 0.56897 0.10525 0.0
C450 C 0.15533 0.60615 0.14011 0.0
C451 C 0.15882 0.5928 0.17127 0.0
C452 C 0.14722 0.57418 0.1537 0.0
C453 C 0.12847 0.58163 0.07898 0.0
C454 C 0.13974 0.60028 0.09434 0.0
H455 H 0.14983 0.56411 0.17975 0.0
H456 H 0.11639 0.57717 0.04401 0.0
H457 H 0.12416 0.53708 0.24142 0.0
H458 H 0.07665 0.539 0.30171 0.0
H459 H 0.1516 0.57394 0.83456 0.0
H460 H 0.17047 0.5967 0.20831 0.0
H461 H 0.13615 0.61001 0.07119 0.0
C462 C 0.4847 0.55491 0.16326 0.0
C463 C 0.48757 0.55542 0.23995 0.0
N464 N 0.48651 0.56967 0.26923 0.0
N465 N 0.48194 0.56885 0.14376 0.0
C466 C 0.48309 0.5776 0.2095 0.0
H467 H 0.48419 0.54474 0.12439 0.0
Co468 Co 0.47629 0.57291 0.04629 0.0
C469 C 0.48349 0.61155 0.04722 0.0
O470 O 0.46936 0.60693 1.00252 0.0
N471 N 0.47029 0.57661 0.94478 0.0
C472 C 0.45451 0.57674 0.84314 0.0
C473 C 0.4538 0.57377 0.91941 0.0
C474 C 0.48077 0.58138 0.88106 0.0
N475 N 0.47143 0.5814 0.81869 0.0
O476 O 0.4999 0.57673 0.01355 0.0
H477 H 0.44172 0.56987 0.9533 0.0
H478 H 0.49498 0.58469 0.87969 0.0
O479 O 0.48736 0.59935 0.06897 0.0
C480 C 0.49897 0.56289 0.97955 0.0
O481 O 0.48269 0.54902 0.96233 0.0
N482 N 0.4527 0.56677 0.08082 0.0
C483 C 0.4156 0.55045 0.12258 0.0
C484 C 0.42814 0.56883 0.14165 0.0
C485 C 0.44675 0.57671 0.12104 0.0
C486 C 0.44093 0.54874 0.0651 0.0
C487 C 0.42236 0.54044 0.08401 0.0
H488 H 0.45622 0.59058 0.13861 0.0
H489 H 0.44599 0.54091 0.03534 0.0
H490 H 0.48124 0.58942 0.21359 0.0
H491 H 0.48956 0.54557 0.27194 0.0
H492 H 0.44317 0.57492 0.80789 0.0
H493 H 0.42371 0.57695 0.17337 0.0
H494 H 0.41337 0.52632 0.0671 0.0
C495 C 0.59258 0.80438 0.18406 0.0
C496 C 0.59365 0.80681 0.10693 0.0
N497 N 0.58585 0.79014 0.07362 0.0
N498 N 0.58413 0.78629 0.19946 0.0
C499 C 0.58033 0.77797 0.13126 0.0
H500 H 0.59722 0.81506 0.22639 0.0
Co501 Co 0.57818 0.7763 0.29571 0.0
C502 C 0.54705 0.73847 0.27112 0.0
O503 O 0.5378 0.74129 0.32433 0.0
N504 N 0.57267 0.76624 0.39473 0.0
C505 C 0.57034 0.74816 0.49137 0.0
C506 C 0.57174 0.75023 0.41433 0.0
C507 C 0.57241 0.77389 0.46184 0.0
N508 N 0.57089 0.76313 0.52129 0.0
O509 O 0.59976 0.77368 0.295 0.0
H510 H 0.57308 0.74105 0.3754 0.0
H511 H 0.5743 0.78747 0.46817 0.0
O512 O 0.56319 0.75133 0.25324 0.0
C513 C 0.61257 0.7849 0.33869 0.0
O514 O 0.60964 0.79608 0.38075 0.0
N515 N 0.55833 0.78109 0.29587 0.0
C516 C 0.53597 0.79717 0.28406 0.0
C517 C 0.53269 0.78205 0.2389 0.0
C518 C 0.54422 0.77443 0.24467 0.0
C519 C 0.56197 0.79606 0.33826 0.0
C520 C 0.5507 0.80387 0.33527 0.0
H521 H 0.54246 0.76404 0.20434 0.0
H522 H 0.57453 0.80296 0.37051 0.0
H523 H 0.57352 0.76325 0.12397 0.0
H524 H 0.59923 0.81985 0.07798 0.0
H525 H 0.57018 0.73707 0.52312 0.0
H526 H 0.52202 0.77682 0.19621 0.0
H527 H 0.55408 0.8156 0.37096 0.0
C528 C 0.21974 0.80392 0.18728 0.0
C529 C 0.21949 0.80646 0.11057 0.0
N530 N 0.23596 0.81042 0.08191 0.0
N531 N 0.2363 0.80633 0.20721 0.0
C532 C 0.24592 0.81035 0.14191 0.0
H533 H 0.2084 0.80006 0.22587 0.0
Co534 Co 0.24242 0.80295 0.3047 0.0
C535 C 0.28114 0.81034 0.28652 0.0
O536 O 0.27711 0.79508 0.3219 0.0
N537 N 0.24835 0.79933 0.40644 0.0
C538 C 0.25308 0.78669 0.509 0.0
C539 C 0.25013 0.78513 0.43265 0.0
C540 C 0.25029 0.80931 0.46986 0.0
N541 N 0.25307 0.80184 0.53268 0.0
O542 O 0.24572 0.82667 0.33074 0.0
H543 H 0.24914 0.77391 0.39931 0.0
H544 H 0.24957 0.82177 0.47099 0.0
O545 O 0.2687 0.81468 0.27591 0.0
C546 C 0.2314 0.82577 0.36025 0.0
O547 O 0.21751 0.80956 0.37797 0.0
N548 N 0.23681 0.77903 0.27666 0.0
C549 C 0.2227 0.74187 0.24236 0.0
C550 C 0.23851 0.7555 0.20571 0.0
C551 C 0.24525 0.77408 0.22304 0.0
C552 C 0.22078 0.76604 0.30886 0.0
C553 C 0.21372 0.74741 0.29388 0.0
H554 H 0.25706 0.78437 0.19262 0.0
H555 H 0.21361 0.77023 0.34769 0.0
H556 H 0.25985 0.81286 0.1381 0.0
H557 H 0.2078 0.80474 0.07813 0.0
H558 H 0.25432 0.77692 0.54485 0.0
H559 H 0.24564 0.75186 0.16425 0.0
H560 H 0.20112 0.73744 0.32146 0.0
C561 C 0.20983 0.41693 0.18046 0.0
C562 C 0.20701 0.41484 0.10366 0.0
N563 N 0.2083 0.43035 0.07544 0.0
N564 N 0.21278 0.43362 0.20097 0.0
C565 C 0.21179 0.4415 0.13584 0.0
H566 H 0.21016 0.40706 0.21872 0.0
Co567 Co 0.21842 0.4431 0.29854 0.0
C568 C 0.21058 0.47413 0.30091 0.0
O569 O 0.22425 0.48338 0.34793 0.0
N570 N 0.22441 0.45257 0.40004 0.0
C571 C 0.24015 0.46789 0.50256 0.0
C572 C 0.24101 0.46573 0.42629 0.0
C573 C 0.2137 0.44706 0.46308 0.0
N574 N 0.22301 0.45606 0.52601 0.0
O575 O 0.19484 0.4234 0.33076 0.0
H576 H 0.25329 0.47355 0.39311 0.0
H577 H 0.19935 0.43655 0.46355 0.0
O578 O 0.20727 0.45841 0.27683 0.0
C579 C 0.19548 0.41035 0.36491 0.0
O580 O 0.21161 0.4125 0.38331 0.0
N581 N 0.24198 0.4606 0.26429 0.0
C582 C 0.27903 0.48131 0.22227 0.0
C583 C 0.26664 0.48758 0.20648 0.0
C584 C 0.24804 0.47688 0.2272 0.0
C585 C 0.25362 0.45399 0.27705 0.0
C586 C 0.27216 0.46419 0.25787 0.0
H587 H 0.23866 0.48164 0.21223 0.0
H588 H 0.24847 0.44083 0.30459 0.0
H589 H 0.21382 0.45525 0.13273 0.0
H590 H 0.2049 0.40307 0.07091 0.0
H591 H 0.25153 0.477 0.53852 0.0
H592 H 0.27117 0.50045 0.17719 0.0
H593 H 0.28106 0.45875 0.27224 0.0
H594 H 0.18759 0.13049 0.37789 0.0
H595 H 0.14159 0.18711 0.54169 0.0
H596 H 0.19599 0.15201 0.60456 0.0
H597 H 0.14755 0.18164 0.30252 0.0
H598 H 0.15723 0.16976 0.56698 0.0
H599 H 0.16879 0.14483 0.35065 0.0
C600 C 0.18533 0.13809 0.42201 0.0
C601 C 0.19344 0.14018 0.49342 0.0
C602 C 0.15505 0.17226 0.5089 0.0
C603 C 0.17197 0.15648 0.46295 0.0
C604 C 0.14596 0.18204 0.49436 0.0
C605 C 0.14318 0.18581 0.41978 0.0
C606 C 0.16135 0.16602 0.44855 0.0
C607 C 0.1495 0.17915 0.36086 0.0
C608 C 0.17472 0.14634 0.40636 0.0
C609 C 0.19017 0.15024 0.54849 0.0
N610 N 0.15827 0.16956 0.37646 0.0
N611 N 0.17969 0.15797 0.53217 0.0
H612 H 0.89886 0.0564 0.48289 0.0
H613 H 0.81631 0.95666 0.58819 0.0
H614 H 0.85525 0.04754 0.63719 0.0
H615 H 0.84675 0.96776 0.37997 0.0
H616 H 0.83331 0.98949 0.61793 0.0
H617 H 0.8826 0.02354 0.45474 0.0
C618 C 0.88587 0.04765 0.51079 0.0
C619 C 0.87847 0.05498 0.56246 0.0
C620 C 0.83629 0.98475 0.56576 0.0
C621 C 0.85999 0.01712 0.53141 0.0
C622 C 0.82668 0.96601 0.54897 0.0
C623 C 0.83015 0.95946 0.48154 0.0
C624 C 0.84968 0.99708 0.51531 0.0
C625 C 0.84357 0.97224 0.43232 0.0
C626 C 0.87665 0.02884 0.49481 0.0
C627 C 0.86177 0.04268 0.59797 0.0
N628 N 0.85293 0.99043 0.45035 0.0
N629 N 0.85315 0.02441 0.5819 0.0
H630 H 0.96128 0.83752 0.37254 0.0
H631 H 0.06308 0.87982 0.54107 0.0
H632 H 0.9734 0.8217 0.58715 0.0
H633 H 0.05294 0.87817 0.30153 0.0
H634 H 0.02989 0.86347 0.56346 0.0
H635 H 0.99456 0.85719 0.34997 0.0
C636 C 0.97094 0.83831 0.41504 0.0
C637 C 0.96463 0.82789 0.48154 0.0
C638 C 0.03492 0.86679 0.506 0.0
C639 C 1.0025 0.8504 0.45665 0.0
C640 C 0.05387 0.87627 0.4932 0.0
C641 C 0.06082 0.8804 0.41927 0.0
C642 C 0.02272 0.86153 0.44459 0.0
C643 C 0.04817 0.87515 0.35937 0.0
C644 C 0.98987 0.84944 0.40203 0.0
C645 C 0.9777 0.82936 0.53476 0.0
N646 N 0.02972 0.86601 0.37329 0.0
N647 N 0.99597 0.84041 0.5213 0.0
H648 H 0.79728 0.83505 0.43568 0.0
H649 H 0.87922 0.83385 0.6642 0.0
H650 H 0.84018 0.881 0.5572 0.0
H651 H 0.84675 0.79191 0.50045 0.0
H652 H 0.8614 0.84873 0.63822 0.0
H653 H 0.8116 0.81659 0.47134 0.0
C654 C 0.80951 0.84115 0.47066 0.0
C655 C 0.81764 0.85961 0.49316 0.0
C656 C 0.85809 0.83627 0.60779 0.0
C657 C 0.83395 0.83873 0.53392 0.0
C658 C 0.86831 0.82771 0.62262 0.0
C659 C 0.86465 0.81165 0.58396 0.0
C660 C 0.84397 0.82882 0.55373 0.0
C661 C 0.85014 0.80434 0.53127 0.0
C662 C 0.81773 0.83068 0.49046 0.0
C663 C 0.83354 0.86689 0.53794 0.0
N664 N 0.84034 0.81303 0.51742 0.0
N665 N 0.84113 0.85648 0.55664 0.0
H666 H 0.23215 0.05603 0.53517 0.0
H667 H 0.13769 0.96741 0.42906 0.0
H668 H 0.17937 0.04837 0.60339 0.0
H669 H 0.18618 0.96316 0.46816 0.0
H670 H 0.1539 0.99878 0.47772 0.0
H671 H 0.2168 0.0236 0.49501 0.0
C672 C 0.21738 0.04757 0.54165 0.0
C673 C 0.20703 0.05493 0.57267 0.0
C674 C 0.16099 0.99098 0.47616 0.0
C675 C 0.18949 0.01809 0.52635 0.0
C676 C 0.15176 0.97309 0.44827 0.0
C677 C 0.1606 0.96267 0.4448 0.0
C678 C 0.17939 0.99878 0.49929 0.0
C679 C 0.17885 0.97071 0.47055 0.0
C680 C 0.20869 0.02908 0.51921 0.0
C681 C 0.18794 0.04332 0.58006 0.0
N682 N 0.18777 0.98843 0.49595 0.0
N683 N 0.17981 0.0256 0.55648 0.0
H684 H 0.9692 0.17982 0.57474 0.0
H685 H 0.05358 0.17628 0.37959 0.0
H686 H 0.9683 0.13085 0.49485 0.0
H687 H 0.06113 0.22549 0.48903 0.0
H688 H 0.02161 0.16043 0.41731 0.0
H689 H 1.00196 0.19785 0.53848 0.0
C690 C 0.97581 0.1729 0.54913 0.0
C691 C 0.96599 0.15377 0.53811 0.0
C692 C 0.03015 0.17467 0.4336 0.0
C693 C 1.00326 0.17418 0.49703 0.0
C694 C 0.04852 0.18379 0.41193 0.0
C695 C 0.06011 0.20229 0.43098 0.0
C696 C 0.02302 0.18402 0.47465 0.0
C697 C 0.05267 0.21119 0.47342 0.0
C698 C 0.9945 0.18316 0.52898 0.0
C699 C 0.97526 0.1455 0.50509 0.0
N700 N 0.03451 0.20198 0.4936 0.0
N701 N 0.99324 0.15571 0.48592 0.0
H702 H 0.8398 0.45451 0.8677 0.0
H703 H 0.8335 0.5447 0.95893 0.0
H704 H 0.87867 0.49925 1.00743 0.0
H705 H 0.79515 0.50124 0.81305 0.0
H706 H 0.84885 0.52706 0.98398 0.0
H707 H 0.82216 0.47033 0.8526 0.0
C708 C 0.84465 0.46764 0.89525 0.0
C709 C 0.86082 0.47551 0.93891 0.0
C710 C 0.83702 0.5213 0.94677 0.0
C711 C 0.84053 0.49367 0.92227 0.0
C712 C 0.82826 0.53141 0.93224 0.0
C713 C 0.81309 0.52455 0.8832 0.0
C714 C 0.83065 0.50415 0.91191 0.0
C715 C 0.80673 0.50705 0.85152 0.0
C716 C 0.83449 0.47663 0.88691 0.0
C717 C 0.8662 0.49246 0.97412 0.0
N718 N 0.81562 0.49753 0.86593 0.0
N719 N 0.85615 0.50096 0.96478 0.0
H720 H 0.50608 0.29044 0.96899 0.0
H721 H 0.55185 0.39144 0.79008 0.0
H722 H 0.49542 0.30157 0.74252 0.0
H723 H 0.54631 0.38211 0.03067 0.0
H724 H 0.53592 0.35823 0.76967 0.0
H725 H 0.52541 0.32374 0.99053 0.0
C726 C 0.50796 0.29989 0.92369 0.0
C727 C 0.49906 0.29328 0.85406 0.0
C728 C 0.53829 0.36344 0.82697 0.0
C729 C 0.52117 0.33121 0.87791 0.0
C730 C 0.54752 0.38241 0.83871 0.0
C731 C 0.55045 0.3896 0.91226 0.0
C732 C 0.53204 0.35146 0.88915 0.0
C733 C 0.54423 0.37716 0.97303 0.0
C734 C 0.51888 0.31885 0.93608 0.0
C735 C 0.50187 0.3061 0.7973 0.0
N736 N 0.53534 0.3587 0.96017 0.0
N737 N 0.51268 0.3244 0.81039 0.0
H738 H 0.72908 0.19244 0.92454 0.0
H739 H 0.63033 0.17643 0.80444 0.0
H740 H 0.71992 0.21299 0.7154 0.0
H741 H 0.63766 0.14127 0.96178 0.0
H742 H 0.66346 0.19287 0.78088 0.0
H743 H 0.69596 0.17671 0.94952 0.0
C744 C 0.7201 0.19374 0.8841 0.0
C745 C 0.72728 0.20407 0.8178 0.0
C746 C 0.65777 0.18156 0.82062 0.0
C747 C 0.68933 0.1861 0.84613 0.0
C748 C 0.6388 0.17207 0.83398 0.0
C749 C 0.63096 0.15729 0.88519 0.0
C750 C 0.66913 0.17647 0.85936 0.0
C751 C 0.64291 0.1527 0.92284 0.0
C752 C 0.70119 0.18467 0.89817 0.0
C753 C 0.71495 0.20507 0.76693 0.0
N754 N 0.66133 0.16226 0.90928 0.0
N755 N 0.6966 0.19628 0.78232 0.0
H756 H 0.46212 0.17374 0.8405 0.0
H757 H 0.55388 0.16799 0.78666 0.0
H758 H 0.50792 0.20954 0.69795 0.0
H759 H 0.50649 0.12543 0.90236 0.0
H760 H 0.53633 0.18283 0.75396 0.0
H761 H 0.47721 0.15551 0.86562 0.0
C762 C 0.47528 0.17776 0.81445 0.0
C763 C 0.48378 0.19329 0.76729 0.0
C764 C 0.5296 0.17018 0.78604 0.0
C765 C 0.50103 0.17253 0.7956 0.0
C766 C 0.53966 0.16167 0.80473 0.0
C767 C 0.53166 0.14548 0.84752 0.0
C768 C 0.51134 0.16267 0.81101 0.0
C769 C 0.51313 0.13787 0.86894 0.0
C770 C 0.48384 0.16732 0.82862 0.0
C771 C 0.50081 0.19779 0.73493 0.0
N772 N 0.50361 0.14665 0.85118 0.0
N773 N 0.50881 0.18755 0.74987 0.0
H774 H 0.80201 0.29663 0.85472 0.0
H775 H 0.89881 0.38778 0.90591 0.0
H776 H 0.85196 0.29548 0.80794 0.0
H777 H 0.84744 0.38587 0.85736 0.0
H778 H 0.88355 0.35434 0.88231 0.0
H779 H 0.81992 0.32941 0.87441 0.0
C780 C 0.81681 0.30325 0.84869 0.0
C781 C 0.82541 0.29319 0.8286 0.0
C782 C 0.87578 0.36139 0.87628 0.0
C783 C 0.84625 0.33127 0.85115 0.0
C784 C 0.88446 0.38044 0.88944 0.0
C785 C 0.87434 0.38964 0.88462 0.0
C786 C 0.85689 0.35162 0.85898 0.0
C787 C 0.85579 0.37943 0.86306 0.0
C788 C 0.82707 0.3221 0.85971 0.0
C789 C 0.84474 0.3027 0.82297 0.0
N790 N 0.84771 0.36107 0.85187 0.0
N791 N 0.85457 0.3213 0.834 0.0
H792 H 0.63773 0.46647 0.89714 0.0
H793 H 0.72799 0.5614 0.82019 0.0
H794 H 0.63444 0.51578 0.87204 0.0
H795 H 0.7198 0.51033 0.72753 0.0
H796 H 0.69522 0.54573 0.85611 0.0
H797 H 0.66943 0.483 0.85104 0.0
C798 C 0.64369 0.48079 0.88146 0.0
C799 C 0.63347 0.48977 0.88807 0.0
C800 C 0.70066 0.53807 0.8275 0.0
C801 C 0.6699 0.50891 0.83697 0.0
C802 C 0.71933 0.54693 0.80746 0.0
C803 C 0.72664 0.53716 0.77082 0.0
C804 C 0.68942 0.51923 0.81241 0.0
C805 C 0.71479 0.51845 0.75541 0.0
C806 C 0.66175 0.4902 0.85508 0.0
C807 C 0.64184 0.50835 0.86702 0.0
N808 N 0.69686 0.51008 0.77696 0.0
N809 N 0.65971 0.51742 0.8433 0.0
H810 H 0.45639 0.83084 0.15787 0.0
H811 H 0.54855 0.83424 0.29425 0.0
H812 H 0.50054 0.87705 0.27387 0.0
H813 H 0.4991 0.78279 0.24772 0.0
H814 H 0.53134 0.85017 0.27867 0.0
H815 H 0.47162 0.81295 0.18382 0.0
C816 C 0.46914 0.8372 0.18949 0.0
C817 C 0.47725 0.85564 0.21283 0.0
C818 C 0.52417 0.83537 0.27236 0.0
C819 C 0.49492 0.83528 0.24133 0.0
C820 C 0.534 0.82616 0.28186 0.0
C821 C 0.5253 0.80696 0.27369 0.0
C822 C 0.50545 0.8255 0.25324 0.0
C823 C 0.50649 0.79756 0.25437 0.0
C824 C 0.47788 0.82698 0.20386 0.0
C825 C 0.49393 0.86309 0.25292 0.0
N826 N 0.49721 0.80692 0.24463 0.0
N827 N 0.50223 0.85297 0.26522 0.0
H828 H 0.21833 0.72508 0.10454 0.0
H829 H 0.17027 0.62302 0.27572 0.0
H830 H 0.2097 0.71332 0.343 0.0
H831 H 0.16811 0.63473 0.03991 0.0
H832 H 0.18859 0.6561 0.30052 0.0
H833 H 0.20385 0.69207 0.0791 0.0
C834 C 0.21358 0.71557 0.15159 0.0
C835 C 0.21513 0.72198 0.22598 0.0
C836 C 0.18417 0.65142 0.2433 0.0
C837 C 0.19846 0.68415 0.1973 0.0
C838 C 0.17381 0.63254 0.22906 0.0
C839 C 0.16753 0.62609 0.15572 0.0
C840 C 0.18844 0.66397 0.18367 0.0
C841 C 0.17243 0.63909 0.09751 0.0
C842 C 0.2052 0.69672 0.13702 0.0
C843 C 0.20856 0.70898 0.2847 0.0
N844 N 0.18255 0.65737 0.11272 0.0
N845 N 0.20051 0.69073 0.26913 0.0
H846 H 0.3929 0.56561 0.1247 0.0
H847 H 0.30156 0.46863 0.17134 0.0
H848 H 0.39247 0.51473 0.16588 0.0
H849 H 0.30222 0.51903 0.22636 0.0
H850 H 0.33461 0.48605 0.15062 0.0
H851 H 0.35956 0.5496 0.14777 0.0
C852 C 0.38591 0.55117 0.13914 0.0
C853 C 0.39561 0.54151 0.14217 0.0
C854 C 0.32755 0.49332 0.16733 0.0
C855 C 0.35741 0.52309 0.1668 0.0
C856 C 0.30862 0.48336 0.1795 0.0
C857 C 0.29899 0.49226 0.20223 0.0
C858 C 0.3371 0.51246 0.17672 0.0
C859 C 0.30898 0.51153 0.20888 0.0
C860 C 0.36686 0.54203 0.15182 0.0
C861 C 0.38565 0.52273 0.16059 0.0
N862 N 0.32751 0.521 0.19637 0.0
N863 N 0.36718 0.51416 0.17145 0.0
H864 H 0.12902 0.5022 0.13914 0.0
H865 H 0.22124 0.5105 0.30275 0.0
H866 H 0.18265 0.54999 0.10837 0.0
H867 H 0.17668 0.45794 0.23036 0.0
H868 H 0.20485 0.52528 0.25209 0.0
H869 H 0.14396 0.48572 0.192 0.0
C870 C 0.14387 0.50922 0.14365 0.0
C871 C 0.15461 0.52747 0.11901 0.0
C872 C 0.19863 0.5105 0.24731 0.0
C873 C 0.17162 0.5089 0.18012 0.0
C874 C 0.20794 0.50202 0.2765 0.0
C875 C 0.20035 0.48293 0.27068 0.0
C876 C 0.18139 0.49986 0.21299 0.0
C877 C 0.18307 0.47271 0.23569 0.0
C878 C 0.15236 0.4998 0.17339 0.0
C879 C 0.17381 0.53591 0.12606 0.0
N880 N 0.17408 0.48129 0.20847 0.0
N881 N 0.18165 0.52663 0.15638 0.0
H882 H 0.56428 0.72172 0.20213 0.0
H883 H 0.47131 0.63606 0.05547 0.0
H884 H 0.51059 0.71377 0.2553 0.0
H885 H 0.51833 0.63026 0.10933 0.0
H886 H 0.48735 0.66715 0.10688 0.0
H887 H 0.54943 0.69066 0.14648 0.0
C888 C 0.5494 0.71352 0.20153 0.0
C889 C 0.53863 0.7203 0.23348 0.0
C890 C 0.49418 0.6591 0.10739 0.0
C891 C 0.52169 0.68506 0.16954 0.0
C892 C 0.48507 0.64135 0.07777 0.0
C893 C 0.49347 0.63049 0.07815 0.0
C894 C 0.51202 0.6663 0.1365 0.0
C895 C 0.51132 0.63813 0.10826 0.0
C896 C 0.54098 0.6958 0.17034 0.0
C897 C 0.51942 0.70906 0.23169 0.0
N898 N 0.52008 0.65564 0.13584 0.0
N899 N 0.51158 0.69209 0.19986 0.0
H900 H 0.38358 0.84242 0.06011 0.0
H901 H 0.30038 0.84742 0.25301 0.0
H902 H 0.39295 0.89206 0.17167 0.0
H903 H 0.3043 0.79816 0.24438 0.0
H904 H 0.332 0.86491 0.20233 0.0
H905 H 0.35192 0.82688 0.10533 0.0
C906 C 0.37897 0.85012 0.09378 0.0
C907 C 0.39102 0.86859 0.11237 0.0
C908 C 0.32583 0.85027 0.21167 0.0
C909 C 0.35454 0.85078 0.1639 0.0
C910 C 0.30783 0.84029 0.24008 0.0
C911 C 0.29976 0.82134 0.2533 0.0
C912 C 0.33553 0.84107 0.19467 0.0
C913 C 0.31001 0.81277 0.23576 0.0
C914 C 0.36087 0.84119 0.11979 0.0
C915 C 0.38416 0.87778 0.15641 0.0
N916 N 0.32725 0.82265 0.207 0.0
N917 N 0.36632 0.8688 0.18053 0.0
H918 H 0.128 0.29604 0.48217 0.0
H919 H 0.1672 0.39208 0.26499 0.0
H920 H 0.13324 0.30168 0.2401 0.0
H921 H 0.18717 0.38662 0.48225 0.0
H922 H 0.14473 0.35899 0.26663 0.0
H923 H 0.13981 0.32933 0.49247 0.0
C924 C 0.13106 0.30419 0.43119 0.0
C925 C 0.12976 0.29622 0.3602 0.0
C926 C 0.15371 0.36518 0.31477 0.0
C927 C 0.14307 0.33401 0.37145 0.0
C928 C 0.16639 0.38404 0.31417 0.0
C929 C 0.17904 0.39199 0.37348 0.0
C930 C 0.15353 0.35435 0.3757 0.0
C931 C 0.17767 0.38092 0.4353 0.0
C932 C 0.1379 0.32315 0.4371 0.0
C933 C 0.13416 0.30738 0.29586 0.0
N934 N 0.16524 0.36263 0.43466 0.0
N935 N 0.1407 0.32573 0.30298 0.0
H936 H 0.63331 0.78611 0.21683 0.0
H937 H 0.7253 0.82487 0.46503 0.0
H938 H 0.63439 0.7899 0.45972 0.0
H939 H 0.72353 0.8447 0.24258 0.0
H940 H 0.69229 0.80211 0.45429 0.0
H941 H 0.6667 0.79767 0.21769 0.0
C942 C 0.64046 0.78876 0.27035 0.0
C943 C 0.63119 0.78715 0.3383 0.0
C944 C 0.69929 0.81112 0.40707 0.0
C945 C 0.66912 0.80025 0.33977 0.0
C946 C 0.71811 0.82395 0.41293 0.0
C947 C 0.72703 0.8366 0.35456 0.0
C948 C 0.68953 0.81082 0.34193 0.0
C949 C 0.71706 0.83515 0.28878 0.0
C950 C 0.65949 0.79548 0.27081 0.0
C951 C 0.64111 0.79106 0.40614 0.0
N952 N 0.69882 0.82258 0.28434 0.0
N953 N 0.65956 0.79753 0.4052 0.0
H954 H 0.21614 0.83383 0.47879 0.0
H955 H 0.18553 0.88987 0.23263 0.0
H956 H 0.24068 0.85393 0.26047 0.0
H957 H 0.18615 0.89423 0.47525 0.0
H958 H 0.2067 0.87783 0.24119 0.0
H959 H 0.20609 0.85665 0.48127 0.0
C960 C 0.2198 0.84339 0.43221 0.0
C961 C 0.22926 0.84207 0.3694 0.0
C962 C 0.2026 0.88183 0.29252 0.0
C963 C 0.21729 0.86776 0.37063 0.0
C964 C 0.19052 0.8887 0.28765 0.0
C965 C 0.18415 0.89306 0.35333 0.0
C966 C 0.20786 0.87871 0.36377 0.0
C967 C 0.19088 0.89116 0.42328 0.0
C968 C 0.21408 0.85641 0.43364 0.0
C969 C 0.23355 0.85465 0.3102 0.0
N970 N 0.20205 0.8837 0.42683 0.0
N971 N 0.22715 0.86671 0.31141 0.0
H972 H 0.3916 0.16541 0.80257 0.0
H973 H 0.29987 0.11883 0.55273 0.0
H974 H 0.39025 0.18065 0.57126 0.0
H975 H 0.30079 0.13529 0.78396 0.0
H976 H 0.33322 0.13045 0.56004 0.0
H977 H 0.35837 0.14327 0.79547 0.0
C978 C 0.38443 0.16359 0.74954 0.0
C979 C 0.39357 0.17478 0.6873 0.0
C980 C 0.32596 0.13099 0.60971 0.0
C981 C 0.35588 0.14957 0.67875 0.0
C982 C 0.30698 0.12424 0.60581 0.0
C983 C 0.29768 0.12612 0.66795 0.0
C984 C 0.33551 0.13922 0.67672 0.0
C985 C 0.30754 0.13361 0.73496 0.0
C986 C 0.36552 0.15111 0.74576 0.0
C987 C 0.38363 0.17222 0.62035 0.0
N988 N 0.32596 0.13995 0.73758 0.0
N989 N 0.36528 0.15991 0.61782 0.0
H990 H 0.84836 0.22255 0.58307 0.0
H991 H 0.89541 0.17596 0.79163 0.0
H992 H 0.86062 0.23142 0.82063 0.0
H993 H 0.90403 0.18792 0.55384 0.0
H994 H 0.88554 0.19877 0.80487 0.0
H995 H 0.87125 0.21275 0.5696 0.0
C996 C 0.8564 0.22304 0.63186 0.0
C997 C 0.85284 0.22798 0.70282 0.0
C998 C 0.89011 0.19686 0.75014 0.0
C999 C 0.87839 0.21599 0.68882 0.0
C1000 C 0.89582 0.18391 0.74272 0.0
C1001 C 0.90072 0.1803 0.67178 0.0
C1002 C 0.88864 0.20577 0.68553 0.0
C1003 C 0.90061 0.19058 0.60968 0.0
C1004 C 0.86939 0.21737 0.62432 0.0
C1005 C 0.86323 0.22797 0.76477 0.0
N1006 N 0.89425 0.20258 0.61763 0.0
N1007 N 0.87527 0.22165 0.75672 0.0
H1008 H 0.79037 0.6295 0.8008 0.0
H1009 H 0.83689 0.71958 0.54292 0.0
H1010 H 0.80768 0.62917 0.5719 0.0
H1011 H 0.85324 0.71944 0.77358 0.0
H1012 H 0.81461 0.68649 0.55342 0.0
H1013 H 0.8019 0.66271 0.7896 0.0
C1014 C 0.79596 0.63629 0.74735 0.0
C1015 C 0.79815 0.6267 0.68713 0.0
C1016 C 0.82272 0.69389 0.60224 0.0
C1017 C 0.81106 0.66434 0.67387 0.0
C1018 C 0.83529 0.71272 0.59653 0.0
C1019 C 0.84685 0.72213 0.65756 0.0
C1020 C 0.82145 0.68464 0.67001 0.0
C1021 C 0.84454 0.71259 0.72536 0.0
C1022 C 0.80263 0.65519 0.74126 0.0
C1023 C 0.80578 0.63615 0.61951 0.0
N1024 N 0.83212 0.69432 0.72979 0.0
N1025 N 0.81204 0.65449 0.6147 0.0
H1026 H 0.05976 0.51326 0.89119 0.0
H1027 H 0.97021 0.45974 0.12177 0.0
H1028 H 0.0614 0.49458 0.1161 0.0
H1029 H 0.96957 0.45437 0.87978 0.0
H1030 H 1.00334 0.47069 0.12193 0.0
H1031 H 0.02696 0.49042 0.88356 0.0
C1032 C 0.05326 0.50397 0.9382 0.0
C1033 C 0.06322 0.5057 1.00423 0.0
C1034 C 0.99589 0.46658 0.06897 0.0
C1035 C 0.02561 0.48002 0.99713 0.0
C1036 C 0.977 0.46027 0.06896 0.0
C1037 C 0.96722 0.45593 1.00079 0.0
C1038 C 1.00516 0.46925 0.99996 0.0
C1039 C 0.97664 0.45729 0.93356 0.0
C1040 C 0.03456 0.49095 0.93389 0.0
C1041 C 0.05418 0.49351 0.06393 0.0
N1042 N 0.9952 0.46424 0.93459 0.0
N1043 N 0.03575 0.48145 0.05972 0.0
H1044 H 0.50685 0.54826 0.8582 0.0
H1045 H 0.5613 0.5147 0.09955 0.0
H1046 H 0.52717 0.57131 0.07847 0.0
H1047 H 0.56533 0.51578 0.85679 0.0
H1048 H 0.55005 0.53652 0.09311 0.0
H1049 H 0.52917 0.53754 0.85351 0.0
C1050 C 0.51639 0.55149 0.90469 0.0
C1051 C 0.51524 0.56071 0.96871 0.0
C1052 C 0.5538 0.53236 0.04127 0.0
C1053 C 0.54033 0.54793 0.965 0.0
C1054 C 0.56021 0.51991 0.04495 0.0
C1055 C 0.56426 0.5135 0.97861 0.0
C1056 C 0.55081 0.53798 0.97057 0.0
C1057 C 0.5625 0.52054 0.90923 0.0
C1058 C 0.52911 0.54536 0.90204 0.0
C1059 C 0.52776 0.56441 0.02779 0.0
N1060 N 0.55548 0.53209 0.90685 0.0
N1061 N 0.5395 0.55761 0.02533 0.0
H1062 H 0.50393 0.04847 0.85051 0.0
H1063 H 0.45125 0.96092 0.12164 0.0
H1064 H 0.50447 0.05238 0.09306 0.0
H1065 H 0.47424 0.96006 0.90502 0.0
H1066 H 0.46081 0.9935 0.10127 0.0
H1067 H 0.48283 0.01518 0.8603 0.0
C1068 C 0.49893 0.0424 0.90562 0.0
C1069 C 0.50563 0.0531 0.97107 0.0
C1070 C 0.46333 0.986 0.05751 0.0
C1071 C 0.48196 0.01516 0.98289 0.0
C1072 C 0.45775 0.96743 0.06881 0.0
C1073 C 0.46204 0.95789 0.01493 0.0
C1074 C 0.4729 0.99489 0.99132 0.0
C1075 C 0.47077 0.967 0.94801 0.0
C1076 C 0.4871 0.02342 0.91126 0.0
C1077 C 0.49932 0.04455 0.04137 0.0
N1078 N 0.47599 0.985 0.93821 0.0
N1079 N 0.48792 0.02604 0.04556 0.0
H1080 H 0.1553 0.26595 0.72717 0.0
H1081 H 0.07953 0.22115 0.05116 0.0
H1082 H 0.0985 0.22565 0.68275 0.0
H1083 H 0.13783 0.25126 0.09598 0.0
H1084 H 0.08602 0.2234 0.91567 0.0
H1085 H 0.14902 0.26158 0.86206 0.0
C1086 C 0.14153 0.2561 0.74537 0.0
C1087 C 0.12743 0.24616 0.6927 0.0
C1088 C 0.09741 0.22941 0.9551 0.0
C1089 C 0.12011 0.2413 0.8481 0.0
C1090 C 0.0937 0.22817 0.03235 0.0
C1091 C 0.10816 0.23607 0.08479 0.0
C1092 C 0.11573 0.2388 0.92993 0.0
C1093 C 0.12629 0.24484 0.05754 0.0
C1094 C 0.13795 0.25366 0.82273 0.0
C1095 C 0.10978 0.23384 0.7206 0.0
N1096 N 0.12956 0.24611 0.98192 0.0
N1097 N 0.10663 0.23181 0.79627 0.0
H1098 H 0.74173 0.87174 0.74793 0.0
H1099 H 0.80774 0.86967 0.07041 0.0
H1100 H 0.79083 0.86893 0.70273 0.0
H1101 H 0.76064 0.87587 0.11743 0.0
H1102 H 0.8003 0.867 0.93625 0.0
H1103 H 0.74694 0.87081 0.88332 0.0
C1104 C 0.75358 0.87087 0.76625 0.0
C1105 C 0.76591 0.87055 0.71326 0.0
C1106 C 0.79154 0.86889 0.97583 0.0
C1107 C 0.77191 0.86937 0.86899 0.0
C1108 C 0.79584 0.87052 0.0527 0.0
C1109 C 0.78495 0.87322 0.1058 0.0
C1110 C 0.77619 0.86996 0.95113 0.0
C1111 C 0.76943 0.87374 0.07901 0.0
C1112 C 0.75651 0.87028 0.84376 0.0
C1113 C 0.78084 0.86907 0.74089 0.0
N1114 N 0.76559 0.87225 1.00364 0.0
N1115 N 0.78347 0.86866 0.81662 0.0
H1116 H 0.12995 0.86799 0.72682 0.0
H1117 H 0.15904 0.94393 0.04996 0.0
H1118 H 0.14574 0.92452 0.68188 0.0
H1119 H 0.13302 0.88588 0.09604 0.0
H1120 H 0.15522 0.93723 0.91461 0.0
H1121 H 0.13193 0.87439 0.86182 0.0
C1122 C 0.13374 0.88173 0.74493 0.0
C1123 C 0.13767 0.89571 0.69207 0.0
C1124 C 0.15024 0.92594 0.95427 0.0
C1125 C 0.14019 0.90317 0.84754 0.0
C1126 C 0.15247 0.92977 0.03151 0.0
C1127 C 0.14637 0.91545 0.08436 0.0
C1128 C 0.142 0.90765 0.92943 0.0
C1129 C 0.13776 0.89732 0.05738 0.0
C1130 C 0.13492 0.88537 0.82233 0.0
C1131 C 0.14282 0.91331 0.71983 0.0
N1132 N 0.13596 0.89394 0.98177 0.0
N1133 N 0.14396 0.91653 0.79548 0.0
H1134 H 0.20794 0.09179 0.93006 0.0
H1135 H 0.28391 0.12186 0.25459 0.0
H1136 H 0.26558 0.11329 0.88413 0.0
H1137 H 0.22583 0.09825 0.29803 0.0
H1138 H 0.27735 0.11655 0.11952 0.0
H1139 H 0.21399 0.09147 0.06482 0.0
C1140 C 0.22187 0.0963 0.94841 0.0
C1141 C 0.2363 0.10274 0.89579 0.0
C1142 C 0.26602 0.11238 0.1586 0.0
C1143 C 0.24341 0.10253 0.05058 0.0
C1144 C 0.26976 0.1155 0.23585 0.0
C1145 C 0.25543 0.11068 0.28805 0.0
C1146 C 0.24778 0.10444 0.13289 0.0
C1147 C 0.23733 0.10213 0.26027 0.0
C1148 C 0.22533 0.09609 0.02543 0.0
C1149 C 0.25404 0.10815 0.92267 0.0
N1150 N 0.23406 0.09946 0.1847 0.0
N1151 N 0.25714 0.10814 0.99827 0.0
H1152 H 0.94708 0.14833 0.96035 0.0
H1153 H 0.87752 0.1425 0.28365 0.0
H1154 H 0.89239 0.13849 0.91367 0.0
H1155 H 0.93027 0.14708 0.32774 0.0
H1156 H 0.88366 0.14377 0.14817 0.0
H1157 H 0.94206 0.15066 0.09442 0.0
C1158 C 0.93397 0.1466 0.97813 0.0
C1159 C 0.92006 0.14295 0.92517 0.0
C1160 C 0.89393 0.1446 0.18754 0.0
C1161 C 0.91427 0.14583 0.0798 0.0
C1162 C 0.89042 0.14382 0.26512 0.0
C1163 C 0.90331 0.14454 0.31786 0.0
C1164 C 0.91049 0.14614 0.16199 0.0
C1165 C 0.91993 0.14661 0.28987 0.0
C1166 C 0.93115 0.14804 0.05496 0.0
C1167 C 0.90354 0.14135 0.95204 0.0
N1168 N 0.92297 0.14723 0.21411 0.0
N1169 N 0.90107 0.14269 0.02743 0.0
H1170 H 0.89313 0.79589 0.28573 0.0
H1171 H 0.86304 0.75553 0.86666 0.0
H1172 H 0.853 0.73941 0.23804 0.0
H1173 H 0.90696 0.81028 0.91638 0.0
H1174 H 0.85579 0.75063 1.00194 0.0
H1175 H 0.89502 0.80264 0.15061 0.0
C1176 C 0.88451 0.78496 0.24708 0.0
C1177 C 0.87303 0.767 0.27342 0.0
C1178 C 0.8669 0.76379 0.98314 0.0
C1179 C 0.87528 0.77458 0.11815 0.0
C1180 C 0.87093 0.76662 0.90587 0.0
C1181 C 0.88574 0.78327 0.88035 0.0
C1182 C 0.87771 0.77774 0.03514 0.0
C1183 C 0.89563 0.79713 0.93378 0.0
C1184 C 0.88569 0.78879 0.16974 0.0
C1185 C 0.8623 0.75337 0.22025 0.0
N1186 N 0.89153 0.79402 1.0085 0.0
N1187 N 0.86378 0.7574 0.14528 0.0
H1188 H 0.77329 0.55351 0.0617 0.0
H1189 H 0.77979 0.59223 0.48178 0.0
H1190 H 0.78519 0.60868 0.11059 0.0
H1191 H 0.774 0.53939 0.43131 0.0
H1192 H 0.77734 0.59693 0.34646 0.0
H1193 H 0.76908 0.54656 0.19682 0.0
C1194 C 0.77476 0.56409 0.10063 0.0
C1195 C 0.77978 0.58177 0.07458 0.0
C1196 C 0.77644 0.58423 0.36508 0.0
C1197 C 0.77517 0.57397 0.22986 0.0
C1198 C 0.77769 0.58149 0.4424 0.0
C1199 C 0.77726 0.56546 0.46783 0.0
C1200 C 0.77465 0.5708 0.31285 0.0
C1201 C 0.77471 0.55208 0.41407 0.0
C1202 C 0.77248 0.56016 0.17796 0.0
C1203 C 0.78167 0.59497 0.12811 0.0
N1204 N 0.77361 0.55509 0.3393 0.0
N1205 N 0.77947 0.59084 0.20306 0.0
H1206 H 0.48324 0.23051 0.42596 0.0
H1207 H 0.40805 0.18343 0.0999 0.0
H1208 H 0.42579 0.19336 0.47046 0.0
H1209 H 0.46603 0.21878 0.05762 0.0
H1210 H 0.41451 0.18458 0.23497 0.0
H1211 H 0.47757 0.22387 0.29115 0.0
C1212 C 0.46944 0.2208 0.40724 0.0
C1213 C 0.45493 0.21261 0.45939 0.0
C1214 C 0.42585 0.19196 0.19615 0.0
C1215 C 0.44825 0.20501 0.30465 0.0
C1216 C 0.42216 0.19139 0.1189 0.0
C1217 C 0.43649 0.2012 0.06705 0.0
C1218 C 0.44402 0.2025 0.22225 0.0
C1219 C 0.45454 0.21095 0.09514 0.0
C1220 C 0.4662 0.21699 0.33024 0.0
C1221 C 0.43736 0.19992 0.43221 0.0
N1222 N 0.45775 0.2115 0.17075 0.0
N1223 N 0.43446 0.19669 0.35659 0.0
H1224 H 0.81824 0.27313 0.41578 0.0
H1225 H 0.8173 0.20599 0.09221 0.0
H1226 H 0.81252 0.2201 0.46205 0.0
H1227 H 0.81868 0.25719 0.04816 0.0
H1228 H 0.81829 0.21202 0.22769 0.0
H1229 H 0.82114 0.26859 0.28165 0.0
C1230 C 0.81755 0.26049 0.39788 0.0
C1231 C 0.81488 0.24689 0.45071 0.0
C1232 C 0.81849 0.22199 0.18835 0.0
C1233 C 0.81841 0.24166 0.2961 0.0
C1234 C 0.81786 0.21853 0.11079 0.0
C1235 C 0.81775 0.23101 0.0581 0.0
C1236 C 0.81902 0.23807 0.21392 0.0
C1237 C 0.81887 0.2472 0.08606 0.0
C1238 C 0.81931 0.25795 0.32103 0.0
C1239 C 0.81459 0.231 0.42376 0.0
N1240 N 0.81934 0.25018 0.16183 0.0
N1241 N 0.8162 0.22878 0.34838 0.0
H1242 H 0.94841 0.48138 0.62971 0.0
H1243 H 0.89403 0.40729 0.30557 0.0
H1244 H 0.90504 0.42579 0.67232 0.0
H1245 H 0.93068 0.46475 0.25899 0.0
H1246 H 0.90063 0.41333 0.4397 0.0
H1247 H 0.94467 0.47502 0.49423 0.0
C1248 C 0.9381 0.46784 0.61099 0.0
C1249 C 0.92694 0.45417 0.66338 0.0
C1250 C 0.90729 0.42464 0.40027 0.0
C1251 C 0.92277 0.44676 0.50743 0.0
C1252 C 0.90346 0.42122 0.32339 0.0
C1253 C 0.91158 0.43557 0.27046 0.0
C1254 C 0.91942 0.44258 0.42519 0.0
C1255 C 0.9241 0.45324 0.29739 0.0
C1256 C 0.93604 0.46421 0.53336 0.0
C1257 C 0.9141 0.43678 0.63492 0.0
N1258 N 0.92755 0.45626 0.37287 0.0
N1259 N 0.91234 0.43363 0.55916 0.0
H1260 H 0.5964 0.4862 0.6482 0.0
H1261 H 0.55597 0.45626 0.23124 0.0
H1262 H 0.53942 0.44668 0.60302 0.0
H1263 H 0.61383 0.48978 0.2815 0.0
H1264 H 0.5495 0.45198 0.36662 0.0
H1265 H 0.6029 0.48737 0.51386 0.0
C1266 C 0.58524 0.47763 0.61038 0.0
C1267 C 0.5673 0.4663 0.63759 0.0
C1268 C 0.56363 0.46018 0.34794 0.0
C1269 C 0.57467 0.46782 0.48254 0.0
C1270 C 0.56735 0.46253 0.27052 0.0
C1271 C 0.58549 0.47353 0.24473 0.0
C1272 C 0.57813 0.46893 0.39996 0.0
C1273 C 0.59962 0.48149 0.29866 0.0
C1274 C 0.58897 0.47838 0.53332 0.0
C1275 C 0.5534 0.4558 0.58493 0.0
N1276 N 0.59563 0.47912 0.37354 0.0
N1277 N 0.55737 0.45686 0.50999 0.0
H1278 H 0.53692 0.11599 0.64174 0.0
H1279 H 0.54838 0.08747 0.22231 0.0
H1280 H 0.54589 0.07067 0.59362 0.0
H1281 H 0.53435 0.12922 0.27352 0.0
H1282 H 0.54632 0.08012 0.35708 0.0
H1283 H 0.53465 0.12002 0.50679 0.0
C1284 C 0.53819 0.1067 0.60317 0.0
C1285 C 0.54171 0.09299 0.62984 0.0
C1286 C 0.54362 0.09084 0.33867 0.0
C1287 C 0.53944 0.09782 0.47388 0.0
C1288 C 0.5447 0.09499 0.26155 0.0
C1289 C 0.54174 0.10915 0.23616 0.0
C1290 C 0.53954 0.10092 0.39096 0.0
C1291 C 0.53716 0.11849 0.2902 0.0
C1292 C 0.53701 0.10911 0.52569 0.0
C1293 C 0.54348 0.08162 0.57611 0.0
N1294 N 0.53631 0.11428 0.36474 0.0
N1295 N 0.54244 0.08435 0.50088 0.0
H1296 H 0.43732 0.88553 0.395 0.0
H1297 H 0.44532 0.92465 0.81517 0.0
H1298 H 0.45146 0.94138 0.44395 0.0
H1299 H 0.43593 0.87044 0.76432 0.0
H1300 H 0.4435 0.92981 0.67982 0.0
H1301 H 0.43272 0.87858 0.52993 0.0
C1302 C 0.43922 0.89628 0.43387 0.0
C1303 C 0.44496 0.91413 0.40783 0.0
C1304 C 0.44167 0.91672 0.69836 0.0
C1305 C 0.4399 0.9063 0.56306 0.0
C1306 C 0.44256 0.91372 0.7757 0.0
C1307 C 0.44094 0.89715 0.80105 0.0
C1308 C 0.43906 0.903 0.64603 0.0
C1309 C 0.43757 0.88354 0.74717 0.0
C1310 C 0.43671 0.89233 0.51114 0.0
C1311 C 0.44738 0.92753 0.4614 0.0
N1312 N 0.43686 0.8868 0.6724 0.0
N1313 N 0.44494 0.92337 0.53631 0.0
H1314 H 0.13414 0.54653 0.36416 0.0
H1315 H 0.09304 0.52768 0.78407 0.0
H1316 H 0.0763 0.52328 0.4127 0.0
H1317 H 0.15095 0.55455 0.73213 0.0
H1318 H 0.08613 0.5221 0.64876 0.0
H1319 H 0.14002 0.54584 0.4986 0.0
C1320 C 0.12262 0.54106 0.40279 0.0
C1321 C 0.10469 0.53507 0.37669 0.0
C1322 C 0.10035 0.52906 0.66707 0.0
C1323 C 0.11141 0.53448 0.53169 0.0
C1324 C 0.10428 0.5321 0.74435 0.0
C1325 C 0.12261 0.54176 0.76932 0.0
C1326 C 0.11485 0.53564 0.61453 0.0
C1327 C 0.13664 0.54734 0.71523 0.0
C1328 C 0.12601 0.54077 0.47988 0.0
C1329 C 0.09038 0.52834 0.43015 0.0
N1330 N 0.13249 0.54432 0.64056 0.0
N1331 N 0.09405 0.52832 0.50502 0.0
H1332 H 0.46058 0.59558 0.70593 0.0
H1333 H 0.50402 0.56248 0.38214 0.0
H1334 H 0.4949 0.57201 0.75253 0.0
H1335 H 0.47069 0.58735 0.33832 0.0
H1336 H 0.503 0.56804 0.51712 0.0
H1337 H 0.46654 0.5952 0.57113 0.0
C1338 C 0.46951 0.59046 0.68772 0.0
C1339 C 0.47711 0.58366 0.74057 0.0
C1340 C 0.49602 0.57241 0.47794 0.0
C1341 C 0.48395 0.58306 0.58573 0.0
C1342 C 0.49651 0.56914 0.40074 0.0
C1343 C 0.48728 0.57428 0.34842 0.0
C1344 C 0.48616 0.58082 0.50349 0.0
C1345 C 0.47809 0.58322 0.3761 0.0
C1346 C 0.47293 0.59026 0.61067 0.0
C1347 C 0.48882 0.57745 0.71383 0.0
N1348 N 0.47765 0.58605 0.4516 0.0
N1349 N 0.49171 0.5771 0.63821 0.0
H1350 H 0.56124 0.75782 1.00636 0.0
H1351 H 0.5895 0.79696 0.58608 0.0
H1352 H 0.60405 0.81325 0.95652 0.0
H1353 H 0.55521 0.73941 0.63767 0.0
H1354 H 0.59266 0.80384 0.72136 0.0
H1355 H 0.55697 0.75141 0.87154 0.0
C1356 C 0.56987 0.76865 0.96747 0.0
C1357 C 0.58315 0.78613 0.99364 0.0
C1358 C 0.5844 0.78971 0.70307 0.0
C1359 C 0.57799 0.77887 0.83813 0.0
C1360 C 0.58245 0.78579 0.62579 0.0
C1361 C 0.57206 0.76757 0.60052 0.0
C1362 C 0.57578 0.77532 0.75552 0.0
C1363 C 0.56349 0.75362 0.65473 0.0
C1364 C 0.56731 0.76498 0.89016 0.0
C1365 C 0.59355 0.79964 0.93955 0.0
N1366 N 0.56553 0.75778 0.72959 0.0
N1367 N 0.59074 0.79573 0.86452 0.0
H1368 H 0.23561 0.81857 0.59552 0.0
H1369 H 0.26146 0.80392 0.01566 0.0
H1370 H 0.27154 0.79716 0.64781 0.0
H1371 H 0.22207 0.82134 0.96687 0.0
H1372 H 0.26823 0.80522 0.88122 0.0
H1373 H 0.23351 0.82364 0.73076 0.0
C1374 C 0.24331 0.81524 0.6353 0.0
C1375 C 0.25362 0.80726 0.61043 0.0
C1376 C 0.25818 0.80888 0.89988 0.0
C1377 C 0.25113 0.8128 0.76517 0.0
C1378 C 0.25438 0.80825 0.97697 0.0
C1379 C 0.24106 0.81241 1.00301 0.0
C1380 C 0.24861 0.81368 0.84798 0.0
C1381 C 0.23221 0.81771 0.94946 0.0
C1382 C 0.242 0.81799 0.71254 0.0
C1383 C 0.26318 0.80304 0.66461 0.0
N1384 N 0.23606 0.8181 0.87458 0.0
N1385 N 0.26162 0.80575 0.73925 0.0
H1386 H 0.19836 0.42336 0.58928 0.0
H1387 H 0.22421 0.46411 1.00926 0.0
H1388 H 0.23442 0.48062 0.64071 0.0
H1389 H 0.19104 0.40622 0.96053 0.0
H1390 H 0.22482 0.47068 0.87474 0.0
H1391 H 0.19212 0.41713 0.72469 0.0
C1392 C 0.20469 0.43467 0.62891 0.0
C1393 C 0.21707 0.45251 0.60375 0.0
C1394 C 0.2173 0.45653 0.89346 0.0
C1395 C 0.21021 0.44548 0.75871 0.0
C1396 C 0.21685 0.45276 0.97057 0.0
C1397 C 0.20768 0.43454 0.99663 0.0
C1398 C 0.20852 0.442 0.84161 0.0
C1399 C 0.19857 0.42045 0.94314 0.0
C1400 C 0.20125 0.43109 0.70626 0.0
C1401 C 0.22504 0.46661 0.65775 0.0
N1402 N 0.19931 0.42446 0.8683 0.0
N1403 N 0.22158 0.46278 0.7325 0.0
loop_
_geom_bond_atom_site_label_1
_geom_bond_atom_site_label_2
_geom_bond_distance
_geom_bond_site_symmetry_2
_ccdc_geom_bond_type
C0 C1 1.351 . S
C0 N3 1.368 . S
C0 H5 0.931 . S
C1 C0 1.351 . S
C1 N2 1.373 . S
C1 H29 0.930 . S
N2 C1 1.373 . S
N2 C4 1.340 . S
N3 C0 1.368 . S
N3 C4 1.321 . S
N3 Co6 2.135 . S
C4 N2 1.340 . S
C4 N3 1.321 . S
C4 H28 0.930 . S
H5 C0 0.931 . S
Co6 N3 2.135 . S
Co6 N9 2.121 . S
Co6 O14 2.055 . S
Co6 O17 2.039 . S
Co6 N20 2.140 . S
C7 O8 1.227 . S
C7 O17 1.265 . S
O8 C7 1.227 . S
N9 Co6 2.121 . S
N9 C11 1.375 . S
N9 C12 1.313 . S
C10 C11 1.338 . S
C10 N13 1.377 . S
C10 H30 0.930 . S
C11 N9 1.375 . S
C11 C10 1.338 . S
C11 H15 0.931 . S
C12 N9 1.313 . S
C12 N13 1.344 . S
C12 H16 0.930 . S
N13 C10 1.377 . S
N13 C12 1.344 . S
O14 Co6 2.055 . S
O14 C18 1.253 . S
H15 C11 0.931 . S
H16 C12 0.930 . S
O17 Co6 2.039 . S
O17 C7 1.265 . S
C18 O14 1.253 . S
C18 O19 1.227 . S
O19 C18 1.227 . S
N20 Co6 2.140 . S
N20 C23 1.346 . S
N20 C24 1.345 . S
C21 C22 1.387 . S
C21 C25 1.391 . S
C22 C21 1.387 . S
C22 C23 1.369 . S
C22 H31 0.929 . S
C23 N20 1.346 . S
C23 C22 1.369 . S
C23 H26 0.928 . S
C24 N20 1.345 . S
C24 C25 1.371 . S
C24 H27 0.931 . S
C25 C21 1.391 . S
C25 C24 1.371 . S
C25 H32 0.930 . S
H26 C23 0.928 . S
H27 C24 0.931 . S
H28 C4 0.930 . S
H29 C1 0.930 . S
H30 C10 0.930 . S
H31 C22 0.929 . S
H32 C25 0.930 . S
C33 C34 1.351 . S
C33 N36 1.368 . S
C33 H38 0.931 . S
C34 C33 1.351 . S
C34 N35 1.373 . S
C34 H62 0.930 . S
N35 C34 1.373 . S
N35 C37 1.340 . S
N36 C33 1.368 . S
N36 C37 1.321 . S
N36 Co39 2.135 . S
C37 N35 1.340 . S
C37 N36 1.321 . S
C37 H61 0.930 . S
H38 C33 0.931 . S
Co39 N36 2.135 . S
Co39 N42 2.121 . S
Co39 O47 2.055 . S
Co39 O50 2.039 . S
Co39 N53 2.140 . S
C40 O41 1.227 . S
C40 O50 1.265 . S
O41 C40 1.227 . S
N42 Co39 2.121 . S
N42 C44 1.375 . S
N42 C45 1.313 . S
C43 C44 1.338 . S
C43 N46 1.377 . S
C43 H63 0.930 . S
C44 N42 1.375 . S
C44 C43 1.338 . S
C44 H48 0.931 . S
C45 N42 1.313 . S
C45 N46 1.344 . S
C45 H49 0.930 . S
N46 C43 1.377 . S
N46 C45 1.344 . S
O47 Co39 2.055 . S
O47 C51 1.253 . S
H48 C44 0.931 . S
H49 C45 0.930 . S
O50 Co39 2.039 . S
O50 C40 1.265 . S
C51 O47 1.253 . S
C51 O52 1.227 . S
O52 C51 1.227 . S
N53 Co39 2.140 . S
N53 C56 1.346 . S
N53 C57 1.345 . S
C54 C55 1.387 . S
C54 C58 1.391 . S
C55 C54 1.387 . S
C55 C56 1.369 . S
C55 H64 0.929 . S
C56 N53 1.346 . S
C56 C55 1.369 . S
C56 H59 0.928 . S
C57 N53 1.345 . S
C57 C58 1.371 . S
C57 H60 0.931 . S
C58 C54 1.391 . S
C58 C57 1.371 . S
C58 H65 0.930 . S
H59 C56 0.928 . S
H60 C57 0.931 . S
H61 C37 0.930 . S
H62 C34 0.930 . S
H63 C43 0.930 . S
H64 C55 0.929 . S
H65 C58 0.930 . S
C66 C67 1.351 . S
C66 N69 1.368 . S
C66 H71 0.931 . S
C67 C66 1.351 . S
C67 N68 1.373 . S
C67 H95 0.930 . S
N68 C67 1.373 . S
N68 C70 1.340 . S
N69 C66 1.368 . S
N69 C70 1.321 . S
N69 Co72 2.135 . S
C70 N68 1.340 . S
C70 N69 1.321 . S
C70 H94 0.930 . S
H71 C66 0.931 . S
Co72 N69 2.135 . S
Co72 N75 2.121 . S
Co72 O80 2.055 . S
Co72 O83 2.039 . S
Co72 N86 2.140 . S
C73 O74 1.227 . S
C73 O83 1.265 . S
O74 C73 1.227 . S
N75 Co72 2.121 . S
N75 C77 1.375 . S
N75 C78 1.313 . S
C76 C77 1.338 . S
C76 N79 1.377 . S
C76 H96 0.930 . S
C77 N75 1.375 . S
C77 C76 1.338 . S
C77 H81 0.931 . S
C78 N75 1.313 . S
C78 N79 1.344 . S
C78 H82 0.930 . S
N79 C76 1.377 . S
N79 C78 1.344 . S
O80 Co72 2.055 . S
O80 C84 1.253 . S
H81 C77 0.931 . S
H82 C78 0.930 . S
O83 Co72 2.039 . S
O83 C73 1.265 . S
C84 O80 1.253 . S
C84 O85 1.227 . S
O85 C84 1.227 . S
N86 Co72 2.140 . S
N86 C89 1.346 . S
N86 C90 1.345 . S
C87 C88 1.387 . S
C87 C91 1.391 . S
C88 C87 1.387 . S
C88 C89 1.369 . S
C88 H97 0.929 . S
C89 N86 1.346 . S
C89 C88 1.369 . S
C89 H92 0.928 . S
C90 N86 1.345 . S
C90 C91 1.371 . S
C90 H93 0.931 . S
C91 C87 1.391 . S
C91 C90 1.371 . S
C91 H98 0.930 . S
H92 C89 0.928 . S
H93 C90 0.931 . S
H94 C70 0.930 . S
H95 C67 0.930 . S
H96 C76 0.930 . S
H97 C88 0.929 . S
H98 C91 0.930 . S
C99 C100 1.351 . S
C99 N102 1.368 . S
C99 H104 0.931 . S
C100 C99 1.351 . S
C100 N101 1.373 . S
C100 H128 0.930 . S
N101 C100 1.373 . S
N101 C103 1.340 . S
N102 C99 1.368 . S
N102 C103 1.321 . S
N102 Co105 2.135 . S
C103 N101 1.340 . S
C103 N102 1.321 . S
C103 H127 0.930 . S
H104 C99 0.931 . S
Co105 N102 2.135 . S
Co105 N108 2.121 . S
Co105 O113 2.055 . S
Co105 O116 2.039 . S
Co105 N119 2.140 . S
C106 O107 1.227 . S
C106 O116 1.265 . S
O107 C106 1.227 . S
N108 Co105 2.121 . S
N108 C110 1.375 . S
N108 C111 1.313 . S
C109 C110 1.338 . S
C109 N112 1.377 . S
C109 H129 0.930 . S
C110 N108 1.375 . S
C110 C109 1.338 . S
C110 H114 0.931 . S
C111 N108 1.313 . S
C111 N112 1.344 . S
C111 H115 0.930 . S
N112 C109 1.377 . S
N112 C111 1.344 . S
O113 Co105 2.055 . S
O113 C117 1.253 . S
H114 C110 0.931 . S
H115 C111 0.930 . S
O116 Co105 2.039 . S
O116 C106 1.265 . S
C117 O113 1.253 . S
C117 O118 1.227 . S
O118 C117 1.227 . S
N119 Co105 2.140 . S
N119 C122 1.346 . S
N119 C123 1.345 . S
C120 C121 1.387 . S
C120 C124 1.391 . S
C121 C120 1.387 . S
C121 C122 1.369 . S
C121 H130 0.929 . S
C122 N119 1.346 . S
C122 C121 1.369 . S
C122 H125 0.928 . S
C123 N119 1.345 . S
C123 C124 1.371 . S
C123 H126 0.931 . S
C124 C120 1.391 . S
C124 C123 1.371 . S
C124 H131 0.930 . S
H125 C122 0.928 . S
H126 C123 0.931 . S
H127 C103 0.930 . S
H128 C100 0.930 . S
H129 C109 0.930 . S
H130 C121 0.929 . S
H131 C124 0.930 . S
C132 C133 1.351 . S
C132 N135 1.368 . S
C132 H137 0.931 . S
C133 C132 1.351 . S
C133 N134 1.373 . S
C133 H161 0.930 . S
N134 C133 1.373 . S
N134 C136 1.340 . S
N135 C132 1.368 . S
N135 C136 1.321 . S
N135 Co138 2.135 . S
C136 N134 1.340 . S
C136 N135 1.321 . S
C136 H160 0.930 . S
H137 C132 0.931 . S
Co138 N135 2.135 . S
Co138 N141 2.121 . S
Co138 O146 2.055 . S
Co138 O149 2.039 . S
Co138 N152 2.140 . S
C139 O140 1.227 . S
C139 O149 1.265 . S
O140 C139 1.227 . S
N141 Co138 2.121 . S
N141 C143 1.375 . S
N141 C144 1.313 . S
C142 C143 1.338 . S
C142 N145 1.377 . S
C142 H162 0.930 . S
C143 N141 1.375 . S
C143 C142 1.338 . S
C143 H147 0.931 . S
C144 N141 1.313 . S
C144 N145 1.344 . S
C144 H148 0.930 . S
N145 C142 1.377 . S
N145 C144 1.344 . S
O146 Co138 2.055 . S
O146 C150 1.253 . S
H147 C143 0.931 . S
H148 C144 0.930 . S
O149 Co138 2.039 . S
O149 C139 1.265 . S
C150 O146 1.253 . S
C150 O151 1.227 . S
O151 C150 1.227 . S
N152 Co138 2.140 . S
N152 C155 1.346 . S
N152 C156 1.345 . S
C153 C154 1.387 . S
C153 C157 1.391 . S
C154 C153 1.387 . S
C154 C155 1.369 . S
C154 H163 0.929 . S
C155 N152 1.346 . S
C155 C154 1.369 . S
C155 H158 0.928 . S
C156 N152 1.345 . S
C156 C157 1.371 . S
C156 H159 0.931 . S
C157 C153 1.391 . S
C157 C156 1.371 . S
C157 H164 0.930 . S
H158 C155 0.928 . S
H159 C156 0.931 . S
H160 C136 0.930 . S
H161 C133 0.930 . S
H162 C142 0.930 . S
H163 C154 0.929 . S
H164 C157 0.930 . S
C165 C166 1.351 . S
C165 N168 1.368 . S
C165 H170 0.931 . S
C166 C165 1.351 . S
C166 N167 1.373 . S
C166 H194 0.930 . S
N167 C166 1.373 . S
N167 C169 1.340 . S
N168 C165 1.368 . S
N168 C169 1.321 . S
N168 Co171 2.135 . S
C169 N167 1.340 . S
C169 N168 1.321 . S
C169 H193 0.930 . S
H170 C165 0.931 . S
Co171 N168 2.135 . S
Co171 N174 2.121 . S
Co171 O179 2.055 . S
Co171 O182 2.039 . S
Co171 N185 2.140 . S
C172 O173 1.227 . S
C172 O182 1.265 . S
O173 C172 1.227 . S
N174 Co171 2.121 . S
N174 C176 1.375 . S
N174 C177 1.313 . S
C175 C176 1.338 . S
C175 N178 1.377 . S
C175 H195 0.930 . S
C176 N174 1.375 . S
C176 C175 1.338 . S
C176 H180 0.931 . S
C177 N174 1.313 . S
C177 N178 1.344 . S
C177 H181 0.930 . S
N178 C175 1.377 . S
N178 C177 1.344 . S
O179 Co171 2.055 . S
O179 C183 1.253 . S
H180 C176 0.931 . S
H181 C177 0.930 . S
O182 Co171 2.039 . S
O182 C172 1.265 . S
C183 O179 1.253 . S
C183 O184 1.227 . S
O184 C183 1.227 . S
N185 Co171 2.140 . S
N185 C188 1.346 . S
N185 C189 1.345 . S
C186 C187 1.387 . S
C186 C190 1.391 . S
C187 C186 1.387 . S
C187 C188 1.369 . S
C187 H196 0.929 . S
C188 N185 1.346 . S
C188 C187 1.369 . S
C188 H191 0.928 . S
C189 N185 1.345 . S
C189 C190 1.371 . S
C189 H192 0.931 . S
C190 C186 1.391 . S
C190 C189 1.371 . S
C190 H197 0.930 . S
H191 C188 0.928 . S
H192 C189 0.931 . S
H193 C169 0.930 . S
H194 C166 0.930 . S
H195 C175 0.930 . S
H196 C187 0.929 . S
H197 C190 0.930 . S
C198 C199 1.351 . S
C198 N201 1.368 . S
C198 H203 0.931 . S
C199 C198 1.351 . S
C199 N200 1.373 1_556 S
C199 H227 0.930 1_556 S
N200 C199 1.373 1_554 S
N200 C202 1.340 1_554 S
N201 C198 1.368 . S
N201 C202 1.321 . S
N201 Co204 2.135 . S
C202 N200 1.340 1_556 S
C202 N201 1.321 . S
C202 H226 0.930 . S
H203 C198 0.931 . S
Co204 N201 2.135 . S
Co204 N207 2.121 . S
Co204 O212 2.055 . S
Co204 O215 2.039 . S
Co204 N218 2.140 . S
C205 O206 1.227 . S
C205 O215 1.265 . S
O206 C205 1.227 . S
N207 Co204 2.121 . S
N207 C209 1.375 . S
N207 C210 1.313 . S
C208 C209 1.338 . S
C208 N211 1.377 . S
C208 H228 0.930 . S
C209 N207 1.375 . S
C209 C208 1.338 . S
C209 H213 0.931 . S
C210 N207 1.313 . S
C210 N211 1.344 . S
C210 H214 0.930 . S
N211 C208 1.377 . S
N211 C210 1.344 . S
O212 Co204 2.055 . S
O212 C216 1.253 . S
H213 C209 0.931 . S
H214 C210 0.930 . S
O215 Co204 2.039 . S
O215 C205 1.265 . S
C216 O212 1.253 . S
C216 O217 1.227 . S
O217 C216 1.227 . S
N218 Co204 2.140 . S
N218 C221 1.346 . S
N218 C222 1.345 . S
C219 C220 1.387 . S
C219 C223 1.391 . S
C220 C219 1.387 . S
C220 C221 1.369 . S
C220 H229 0.929 . S
C221 N218 1.346 . S
C221 C220 1.369 . S
C221 H224 0.928 . S
C222 N218 1.345 . S
C222 C223 1.371 . S
C222 H225 0.931 . S
C223 C219 1.391 . S
C223 C222 1.371 . S
C223 H230 0.930 . S
H224 C221 0.928 . S
H225 C222 0.931 . S
H226 C202 0.930 . S
H227 C199 0.930 1_554 S
H228 C208 0.930 . S
H229 C220 0.929 . S
H230 C223 0.930 . S
C231 C232 1.351 . S
C231 N234 1.368 . S
C231 H236 0.931 . S
C232 C231 1.351 . S
C232 N233 1.373 1_556 S
C232 H260 0.930 1_556 S
N233 C232 1.373 1_554 S
N233 C235 1.340 1_554 S
N234 C231 1.368 . S
N234 C235 1.321 . S
N234 Co237 2.135 . S
C235 N233 1.340 1_556 S
C235 N234 1.321 . S
C235 H259 0.930 . S
H236 C231 0.931 . S
Co237 N234 2.135 . S
Co237 N240 2.121 . S
Co237 O245 2.055 . S
Co237 O248 2.039 . S
Co237 N251 2.140 . S
C238 O239 1.227 . S
C238 O248 1.265 . S
O239 C238 1.227 . S
N240 Co237 2.121 . S
N240 C242 1.375 . S
N240 C243 1.313 . S
C241 C242 1.338 . S
C241 N244 1.377 . S
C241 H261 0.930 . S
C242 N240 1.375 . S
C242 C241 1.338 . S
C242 H246 0.931 . S
C243 N240 1.313 . S
C243 N244 1.344 . S
C243 H247 0.930 . S
N244 C241 1.377 . S
N244 C243 1.344 . S
O245 Co237 2.055 . S
O245 C249 1.253 . S
H246 C242 0.931 . S
H247 C243 0.930 . S
O248 Co237 2.039 . S
O248 C238 1.265 . S
C249 O245 1.253 . S
C249 O250 1.227 . S
O250 C249 1.227 . S
N251 Co237 2.140 . S
N251 C254 1.346 . S
N251 C255 1.345 . S
C252 C253 1.387 . S
C252 C256 1.391 . S
C253 C252 1.387 . S
C253 C254 1.369 . S
C253 H262 0.929 . S
C254 N251 1.346 . S
C254 C253 1.369 . S
C254 H257 0.928 . S
C255 N251 1.345 . S
C255 C256 1.371 . S
C255 H258 0.931 . S
C256 C252 1.391 . S
C256 C255 1.371 . S
C256 H263 0.930 . S
H257 C254 0.928 . S
H258 C255 0.931 . S
H259 C235 0.930 . S
H260 C232 0.930 1_554 S
H261 C241 0.930 . S
H262 C253 0.929 . S
H263 C256 0.930 . S
C264 C265 1.351 . S
C264 N267 1.368 . S
C264 H269 0.931 . S
C265 C264 1.351 . S
C265 N266 1.373 1_556 S
C265 H293 0.930 1_556 S
N266 C265 1.373 1_554 S
N266 C268 1.340 1_554 S
N267 C264 1.368 . S
N267 C268 1.321 . S
N267 Co270 2.135 . S
C268 N266 1.340 1_556 S
C268 N267 1.321 . S
C268 H292 0.930 . S
H269 C264 0.931 . S
Co270 N267 2.135 . S
Co270 N273 2.121 . S
Co270 O278 2.055 . S
Co270 O281 2.039 . S
Co270 N284 2.140 . S
C271 O272 1.227 . S
C271 O281 1.265 . S
O272 C271 1.227 . S
N273 Co270 2.121 . S
N273 C275 1.375 . S
N273 C276 1.313 . S
C274 C275 1.338 . S
C274 N277 1.377 . S
C274 H294 0.930 . S
C275 N273 1.375 . S
C275 C274 1.338 . S
C275 H279 0.931 . S
C276 N273 1.313 . S
C276 N277 1.344 . S
C276 H280 0.930 . S
N277 C274 1.377 . S
N277 C276 1.344 . S
O278 Co270 2.055 . S
O278 C282 1.253 . S
H279 C275 0.931 . S
H280 C276 0.930 . S
O281 Co270 2.039 . S
O281 C271 1.265 . S
C282 O278 1.253 . S
C282 O283 1.227 . S
O283 C282 1.227 . S
N284 Co270 2.140 . S
N284 C287 1.346 . S
N284 C288 1.345 . S
C285 C286 1.387 . S
C285 C289 1.391 . S
C286 C285 1.387 . S
C286 C287 1.369 . S
C286 H295 0.929 . S
C287 N284 1.346 . S
C287 C286 1.369 . S
C287 H290 0.928 . S
C288 N284 1.345 . S
C288 C289 1.371 . S
C288 H291 0.931 . S
C289 C285 1.391 . S
C289 C288 1.371 . S
C289 H296 0.930 . S
H290 C287 0.928 . S
H291 C288 0.931 . S
H292 C268 0.930 . S
H293 C265 0.930 1_554 S
H294 C274 0.930 . S
H295 C286 0.929 . S
H296 C289 0.930 . S
C297 C298 1.351 . S
C297 N300 1.368 . S
C297 H302 0.931 . S
C298 C297 1.351 . S
C298 N299 1.373 . S
C298 H326 0.930 . S
N299 C298 1.373 . S
N299 C301 1.340 . S
N300 C297 1.368 . S
N300 C301 1.321 . S
N300 Co303 2.135 . S
C301 N299 1.340 . S
C301 N300 1.321 . S
C301 H325 0.930 . S
H302 C297 0.931 . S
Co303 N300 2.135 . S
Co303 N306 2.121 1_556 S
Co303 O311 2.055 . S
Co303 O314 2.039 . S
Co303 N317 2.140 . S
C304 O305 1.227 . S
C304 O314 1.265 . S
O305 C304 1.227 . S
N306 Co303 2.121 1_554 S
N306 C308 1.375 . S
N306 C309 1.313 . S
C307 C308 1.338 . S
C307 N310 1.377 . S
C307 H327 0.930 . S
C308 N306 1.375 . S
C308 C307 1.338 . S
C308 H312 0.931 . S
C309 N306 1.313 . S
C309 N310 1.344 . S
C309 H313 0.930 . S
N310 C307 1.377 . S
N310 C309 1.344 . S
O311 Co303 2.055 . S
O311 C315 1.253 . S
H312 C308 0.931 . S
H313 C309 0.930 . S
O314 Co303 2.039 . S
O314 C304 1.265 . S
C315 O311 1.253 . S
C315 O316 1.227 . S
O316 C315 1.227 . S
N317 Co303 2.140 . S
N317 C320 1.346 . S
N317 C321 1.345 . S
C318 C319 1.387 . S
C318 C322 1.391 . S
C319 C318 1.387 . S
C319 C320 1.369 . S
C319 H328 0.929 . S
C320 N317 1.346 . S
C320 C319 1.369 . S
C320 H323 0.928 . S
C321 N317 1.345 . S
C321 C322 1.371 . S
C321 H324 0.931 . S
C322 C318 1.391 . S
C322 C321 1.371 . S
C322 H329 0.930 . S
H323 C320 0.928 . S
H324 C321 0.931 . S
H325 C301 0.930 . S
H326 C298 0.930 . S
H327 C307 0.930 . S
H328 C319 0.929 . S
H329 C322 0.930 . S
C330 C331 1.351 . S
C330 N333 1.368 . S
C330 H335 0.931 . S
C331 C330 1.351 . S
C331 N332 1.373 . S
C331 H359 0.930 . S
N332 C331 1.373 . S
N332 C334 1.340 . S
N333 C330 1.368 . S
N333 C334 1.321 . S
N333 Co336 2.135 . S
C334 N332 1.340 . S
C334 N333 1.321 . S
C334 H358 0.930 . S
H335 C330 0.931 . S
Co336 N333 2.135 . S
Co336 N339 2.121 1_556 S
Co336 O344 2.055 . S
Co336 O347 2.039 . S
Co336 N350 2.140 . S
C337 O338 1.227 . S
C337 O347 1.265 . S
O338 C337 1.227 . S
N339 Co336 2.121 1_554 S
N339 C341 1.375 . S
N339 C342 1.313 . S
C340 C341 1.338 . S
C340 N343 1.377 . S
C340 H360 0.930 . S
C341 N339 1.375 . S
C341 C340 1.338 . S
C341 H345 0.931 . S
C342 N339 1.313 . S
C342 N343 1.344 . S
C342 H346 0.930 . S
N343 C340 1.377 . S
N343 C342 1.344 . S
O344 Co336 2.055 . S
O344 C348 1.253 . S
H345 C341 0.931 . S
H346 C342 0.930 . S
O347 Co336 2.039 . S
O347 C337 1.265 . S
C348 O344 1.253 . S
C348 O349 1.227 . S
O349 C348 1.227 . S
N350 Co336 2.140 . S
N350 C353 1.346 . S
N350 C354 1.345 . S
C351 C352 1.387 . S
C351 C355 1.391 . S
C352 C351 1.387 . S
C352 C353 1.369 . S
C352 H361 0.929 . S
C353 N350 1.346 . S
C353 C352 1.369 . S
C353 H356 0.928 . S
C354 N350 1.345 . S
C354 C355 1.371 . S
C354 H357 0.931 . S
C355 C351 1.391 . S
C355 C354 1.371 . S
C355 H362 0.930 . S
H356 C353 0.928 . S
H357 C354 0.931 . S
H358 C334 0.930 . S
H359 C331 0.930 . S
H360 C340 0.930 . S
H361 C352 0.929 . S
H362 C355 0.930 . S
C363 C364 1.351 . S
C363 N366 1.368 . S
C363 H368 0.931 . S
C364 C363 1.351 . S
C364 N365 1.373 . S
C364 H392 0.930 . S
N365 C364 1.373 . S
N365 C367 1.340 . S
N366 C363 1.368 . S
N366 C367 1.321 . S
N366 Co369 2.135 . S
C367 N365 1.340 . S
C367 N366 1.321 . S
C367 H391 0.930 . S
H368 C363 0.931 . S
Co369 N366 2.135 . S
Co369 N372 2.121 1_556 S
Co369 O377 2.055 . S
Co369 O380 2.039 . S
Co369 N383 2.140 . S
C370 O371 1.227 . S
C370 O380 1.265 . S
O371 C370 1.227 . S
N372 Co369 2.121 1_554 S
N372 C374 1.375 . S
N372 C375 1.313 . S
C373 C374 1.338 . S
C373 N376 1.377 . S
C373 H393 0.930 . S
C374 N372 1.375 . S
C374 C373 1.338 . S
C374 H378 0.931 . S
C375 N372 1.313 . S
C375 N376 1.344 . S
C375 H379 0.930 . S
N376 C373 1.377 . S
N376 C375 1.344 . S
O377 Co369 2.055 . S
O377 C381 1.253 . S
H378 C374 0.931 . S
H379 C375 0.930 . S
O380 Co369 2.039 . S
O380 C370 1.265 . S
C381 O377 1.253 . S
C381 O382 1.227 . S
O382 C381 1.227 . S
N383 Co369 2.140 . S
N383 C386 1.346 . S
N383 C387 1.345 . S
C384 C385 1.387 . S
C384 C388 1.391 . S
C385 C384 1.387 . S
C385 C386 1.369 . S
C385 H394 0.929 . S
C386 N383 1.346 . S
C386 C385 1.369 . S
C386 H389 0.928 . S
C387 N383 1.345 . S
C387 C388 1.371 . S
C387 H390 0.931 . S
C388 C384 1.391 . S
C388 C387 1.371 . S
C388 H395 0.930 . S
H389 C386 0.928 . S
H390 C387 0.931 . S
H391 C367 0.930 . S
H392 C364 0.930 . S
H393 C373 0.930 . S
H394 C385 0.929 . S
H395 C388 0.930 . S
C396 C397 1.351 . S
C396 N399 1.368 . S
C396 H401 0.931 . S
C397 C396 1.351 . S
C397 N398 1.373 . S
C397 H425 0.930 . S
N398 C397 1.373 . S
N398 C400 1.340 . S
N399 C396 1.368 . S
N399 C400 1.321 . S
N399 Co402 2.135 . S
C400 N398 1.340 . S
C400 N399 1.321 . S
C400 H424 0.930 . S
H401 C396 0.931 . S
Co402 N399 2.135 . S
Co402 N405 2.121 1_554 S
Co402 O410 2.055 . S
Co402 O413 2.039 . S
Co402 N416 2.140 . S
C403 O404 1.227 . S
C403 O413 1.265 . S
O404 C403 1.227 . S
N405 Co402 2.121 1_556 S
N405 C407 1.375 . S
N405 C408 1.313 . S
C406 C407 1.338 . S
C406 N409 1.377 . S
C406 H426 0.930 . S
C407 N405 1.375 . S
C407 C406 1.338 . S
C407 H411 0.931 . S
C408 N405 1.313 . S
C408 N409 1.344 . S
C408 H412 0.930 . S
N409 C406 1.377 . S
N409 C408 1.344 . S
O410 Co402 2.055 . S
O410 C414 1.253 . S
H411 C407 0.931 . S
H412 C408 0.930 . S
O413 Co402 2.039 . S
O413 C403 1.265 . S
C414 O410 1.253 . S
C414 O415 1.227 . S
O415 C414 1.227 . S
N416 Co402 2.140 . S
N416 C419 1.346 . S
N416 C420 1.345 . S
C417 C418 1.387 . S
C417 C421 1.391 . S
C418 C417 1.387 . S
C418 C419 1.369 . S
C418 H427 0.929 . S
C419 N416 1.346 . S
C419 C418 1.369 . S
C419 H422 0.928 . S
C420 N416 1.345 . S
C420 C421 1.371 . S
C420 H423 0.931 . S
C421 C417 1.391 . S
C421 C420 1.371 . S
C421 H428 0.930 . S
H422 C419 0.928 . S
H423 C420 0.931 . S
H424 C400 0.930 . S
H425 C397 0.930 . S
H426 C406 0.930 . S
H427 C418 0.929 . S
H428 C421 0.930 . S
C429 C430 1.351 . S
C429 N432 1.368 . S
C429 H434 0.931 . S
C430 C429 1.351 . S
C430 N431 1.373 . S
C430 H458 0.930 . S
N431 C430 1.373 . S
N431 C433 1.340 . S
N432 C429 1.368 . S
N432 C433 1.321 . S
N432 Co435 2.135 . S
C433 N431 1.340 . S
C433 N432 1.321 . S
C433 H457 0.930 . S
H434 C429 0.931 . S
Co435 N432 2.135 . S
Co435 N438 2.121 1_554 S
Co435 O443 2.055 . S
Co435 O446 2.039 . S
Co435 N449 2.140 . S
C436 O437 1.227 . S
C436 O446 1.265 . S
O437 C436 1.227 . S
N438 Co435 2.121 1_556 S
N438 C440 1.375 . S
N438 C441 1.313 . S
C439 C440 1.338 . S
C439 N442 1.377 . S
C439 H459 0.930 . S
C440 N438 1.375 . S
C440 C439 1.338 . S
C440 H444 0.931 . S
C441 N438 1.313 . S
C441 N442 1.344 . S
C441 H445 0.930 . S
N442 C439 1.377 . S
N442 C441 1.344 . S
O443 Co435 2.055 . S
O443 C447 1.253 . S
H444 C440 0.931 . S
H445 C441 0.930 . S
O446 Co435 2.039 . S
O446 C436 1.265 . S
C447 O443 1.253 . S
C447 O448 1.227 . S
O448 C447 1.227 . S
N449 Co435 2.140 . S
N449 C452 1.346 . S
N449 C453 1.345 . S
C450 C451 1.387 . S
C450 C454 1.391 . S
C451 C450 1.387 . S
C451 C452 1.369 . S
C451 H460 0.929 . S
C452 N449 1.346 . S
C452 C451 1.369 . S
C452 H455 0.928 . S
C453 N449 1.345 . S
C453 C454 1.371 . S
C453 H456 0.931 . S
C454 C450 1.391 . S
C454 C453 1.371 . S
C454 H461 0.930 . S
H455 C452 0.928 . S
H456 C453 0.931 . S
H457 C433 0.930 . S
H458 C430 0.930 . S
H459 C439 0.930 . S
H460 C451 0.929 . S
H461 C454 0.930 . S
C462 C463 1.351 . S
C462 N465 1.368 . S
C462 H467 0.931 . S
C463 C462 1.351 . S
C463 N464 1.373 . S
C463 H491 0.930 . S
N464 C463 1.373 . S
N464 C466 1.340 . S
N465 C462 1.368 . S
N465 C466 1.321 . S
N465 Co468 2.135 . S
C466 N464 1.340 . S
C466 N465 1.321 . S
C466 H490 0.930 . S
H467 C462 0.931 . S
Co468 N465 2.135 . S
Co468 N471 2.121 1_554 S
Co468 O476 2.055 . S
Co468 O479 2.039 . S
Co468 N482 2.140 . S
C469 O470 1.227 . S
C469 O479 1.265 . S
O470 C469 1.227 . S
N471 Co468 2.121 1_556 S
N471 C473 1.375 . S
N471 C474 1.313 . S
C472 C473 1.338 . S
C472 N475 1.377 . S
C472 H492 0.930 . S
C473 N471 1.375 . S
C473 C472 1.338 . S
C473 H477 0.931 . S
C474 N471 1.313 . S
C474 N475 1.344 . S
C474 H478 0.930 . S
N475 C472 1.377 . S
N475 C474 1.344 . S
O476 Co468 2.055 . S
O476 C480 1.253 . S
H477 C473 0.931 . S
H478 C474 0.930 . S
O479 Co468 2.039 . S
O479 C469 1.265 . S
C480 O476 1.253 . S
C480 O481 1.227 . S
O481 C480 1.227 . S
N482 Co468 2.140 . S
N482 C485 1.346 . S
N482 C486 1.345 . S
C483 C484 1.387 . S
C483 C487 1.391 . S
C484 C483 1.387 . S
C484 C485 1.369 . S
C484 H493 0.929 . S
C485 N482 1.346 . S
C485 C484 1.369 . S
C485 H488 0.928 . S
C486 N482 1.345 . S
C486 C487 1.371 . S
C486 H489 0.931 . S
C487 C483 1.391 . S
C487 C486 1.371 . S
C487 H494 0.930 . S
H488 C485 0.928 . S
H489 C486 0.931 . S
H490 C466 0.930 . S
H491 C463 0.930 . S
H492 C472 0.930 . S
H493 C484 0.929 . S
H494 C487 0.930 . S
C495 C496 1.351 . S
C495 N498 1.368 . S
C495 H500 0.931 . S
C496 C495 1.351 . S
C496 N497 1.373 1_554 S
C496 H524 0.930 1_554 S
N497 C496 1.373 1_556 S
N497 C499 1.340 1_556 S
N498 C495 1.368 . S
N498 C499 1.321 . S
N498 Co501 2.135 . S
C499 N497 1.340 1_554 S
C499 N498 1.321 . S
C499 H523 0.930 . S
H500 C495 0.931 . S
Co501 N498 2.135 . S
Co501 N504 2.121 . S
Co501 O509 2.055 . S
Co501 O512 2.039 . S
Co501 N515 2.140 . S
C502 O503 1.227 . S
C502 O512 1.265 . S
O503 C502 1.227 . S
N504 Co501 2.121 . S
N504 C506 1.375 . S
N504 C507 1.313 . S
C505 C506 1.338 . S
C505 N508 1.377 . S
C505 H525 0.930 . S
C506 N504 1.375 . S
C506 C505 1.338 . S
C506 H510 0.931 . S
C507 N504 1.313 . S
C507 N508 1.344 . S
C507 H511 0.930 . S
N508 C505 1.377 . S
N508 C507 1.344 . S
O509 Co501 2.055 . S
O509 C513 1.253 . S
H510 C506 0.931 . S
H511 C507 0.930 . S
O512 Co501 2.039 . S
O512 C502 1.265 . S
C513 O509 1.253 . S
C513 O514 1.227 . S
O514 C513 1.227 . S
N515 Co501 2.140 . S
N515 C518 1.346 . S
N515 C519 1.345 . S
C516 C517 1.387 . S
C516 C520 1.391 . S
C517 C516 1.387 . S
C517 C518 1.369 . S
C517 H526 0.929 . S
C518 N515 1.346 . S
C518 C517 1.369 . S
C518 H521 0.928 . S
C519 N515 1.345 . S
C519 C520 1.371 . S
C519 H522 0.931 . S
C520 C516 1.391 . S
C520 C519 1.371 . S
C520 H527 0.930 . S
H521 C518 0.928 . S
H522 C519 0.931 . S
H523 C499 0.930 . S
H524 C496 0.930 1_556 S
H525 C505 0.930 . S
H526 C517 0.929 . S
H527 C520 0.930 . S
C528 C529 1.351 . S
C528 N531 1.368 . S
C528 H533 0.931 . S
C529 C528 1.351 . S
C529 N530 1.373 1_554 S
C529 H557 0.930 1_554 S
N530 C529 1.373 1_556 S
N530 C532 1.340 1_556 S
N531 C528 1.368 . S
N531 C532 1.321 . S
N531 Co534 2.135 . S
C532 N530 1.340 1_554 S
C532 N531 1.321 . S
C532 H556 0.930 . S
H533 C528 0.931 . S
Co534 N531 2.135 . S
Co534 N537 2.121 . S
Co534 O542 2.055 . S
Co534 O545 2.039 . S
Co534 N548 2.140 . S
C535 O536 1.227 . S
C535 O545 1.265 . S
O536 C535 1.227 . S
N537 Co534 2.121 . S
N537 C539 1.375 . S
N537 C540 1.313 . S
C538 C539 1.338 . S
C538 N541 1.377 . S
C538 H558 0.930 . S
C539 N537 1.375 . S
C539 C538 1.338 . S
C539 H543 0.931 . S
C540 N537 1.313 . S
C540 N541 1.344 . S
C540 H544 0.930 . S
N541 C538 1.377 . S
N541 C540 1.344 . S
O542 Co534 2.055 . S
O542 C546 1.253 . S
H543 C539 0.931 . S
H544 C540 0.930 . S
O545 Co534 2.039 . S
O545 C535 1.265 . S
C546 O542 1.253 . S
C546 O547 1.227 . S
O547 C546 1.227 . S
N548 Co534 2.140 . S
N548 C551 1.346 . S
N548 C552 1.345 . S
C549 C550 1.387 . S
C549 C553 1.391 . S
C550 C549 1.387 . S
C550 C551 1.369 . S
C550 H559 0.929 . S
C551 N548 1.346 . S
C551 C550 1.369 . S
C551 H554 0.928 . S
C552 N548 1.345 . S
C552 C553 1.371 . S
C552 H555 0.931 . S
C553 C549 1.391 . S
C553 C552 1.371 . S
C553 H560 0.930 . S
H554 C551 0.928 . S
H555 C552 0.931 . S
H556 C532 0.930 . S
H557 C529 0.930 1_556 S
H558 C538 0.930 . S
H559 C550 0.929 . S
H560 C553 0.930 . S
C561 C562 1.351 . S
C561 N564 1.368 . S
C561 H566 0.931 . S
C562 C561 1.351 . S
C562 N563 1.373 1_554 S
C562 H590 0.930 1_554 S
N563 C562 1.373 1_556 S
N563 C565 1.340 1_556 S
N564 C561 1.368 . S
N564 C565 1.321 . S
N564 Co567 2.135 . S
C565 N563 1.340 1_554 S
C565 N564 1.321 . S
C565 H589 0.930 . S
H566 C561 0.931 . S
Co567 N564 2.135 . S
Co567 N570 2.121 . S
Co567 O575 2.055 . S
Co567 O578 2.039 . S
Co567 N581 2.140 . S
C568 O569 1.227 . S
C568 O578 1.265 . S
O569 C568 1.227 . S
N570 Co567 2.121 . S
N570 C572 1.375 . S
N570 C573 1.313 . S
C571 C572 1.338 . S
C571 N574 1.377 . S
C571 H591 0.930 . S
C572 N570 1.375 . S
C572 C571 1.338 . S
C572 H576 0.931 . S
C573 N570 1.313 . S
C573 N574 1.344 . S
C573 H577 0.930 . S
N574 C571 1.377 . S
N574 C573 1.344 . S
O575 Co567 2.055 . S
O575 C579 1.253 . S
H576 C572 0.931 . S
H577 C573 0.930 . S
O578 Co567 2.039 . S
O578 C568 1.265 . S
C579 O575 1.253 . S
C579 O580 1.227 . S
O580 C579 1.227 . S
N581 Co567 2.140 . S
N581 C584 1.346 . S
N581 C585 1.345 . S
C582 C583 1.387 . S
C582 C586 1.391 . S
C583 C582 1.387 . S
C583 C584 1.369 . S
C583 H592 0.929 . S
C584 N581 1.346 . S
C584 C583 1.369 . S
C584 H587 0.928 . S
C585 N581 1.345 . S
C585 C586 1.371 . S
C585 H588 0.931 . S
C586 C582 1.391 . S
C586 C585 1.371 . S
C586 H593 0.930 . S
H587 C584 0.928 . S
H588 C585 0.931 . S
H589 C565 0.930 . S
H590 C562 0.930 1_556 S
H591 C571 0.930 . S
H592 C583 0.929 . S
H593 C586 0.930 . S
H594 C600 0.930 . S
H595 C604 0.930 . S
H596 C609 0.929 . S
H597 C607 0.929 . S
H598 C602 0.929 . S
H599 C608 0.929 . S
C600 H594 0.930 . S
C600 C601 1.367 . S
C600 C608 1.378 . S
C601 C600 1.367 . S
C601 C609 1.433 . S
C602 H598 0.929 . S
C602 C604 1.378 . S
C602 C606 1.350 . S
C603 C606 1.463 . S
C603 C608 1.350 . S
C603 N611 1.427 . S
C604 H595 0.930 . S
C604 C602 1.378 . S
C604 C605 1.367 . S
C605 C604 1.367 . S
C605 C607 1.433 . S
C606 C602 1.350 . S
C606 C603 1.463 . S
C606 N610 1.427 . S
C607 H597 0.929 . S
C607 C605 1.433 . S
C607 N610 1.384 . S
C608 H599 0.929 . S
C608 C600 1.378 . S
C608 C603 1.350 . S
C609 H596 0.929 . S
C609 C601 1.433 . S
C609 N611 1.384 . S
N610 C606 1.427 . S
N610 C607 1.384 . S
N611 C603 1.427 . S
N611 C609 1.384 . S
H612 C618 0.930 . S
H613 C622 0.930 . S
H614 C627 0.929 . S
H615 C625 0.929 . S
H616 C620 0.929 . S
H617 C626 0.929 . S
C618 H612 0.930 . S
C618 C619 1.367 . S
C618 C626 1.378 . S
C619 C618 1.367 . S
C619 C627 1.433 . S
C620 H616 0.929 . S
C620 C622 1.378 . S
C620 C624 1.350 . S
C621 C624 1.463 1_545 S
C621 C626 1.350 . S
C621 N629 1.427 . S
C622 H613 0.930 . S
C622 C620 1.378 . S
C622 C623 1.367 . S
C623 C622 1.367 . S
C623 C625 1.433 . S
C624 C620 1.350 . S
C624 C621 1.463 1_565 S
C624 N628 1.427 . S
C625 H615 0.929 . S
C625 C623 1.433 . S
C625 N628 1.384 . S
C626 H617 0.929 . S
C626 C618 1.378 . S
C626 C621 1.350 . S
C627 H614 0.929 . S
C627 C619 1.433 . S
C627 N629 1.384 . S
N628 C624 1.427 . S
N628 C625 1.384 . S
N629 C621 1.427 . S
N629 C627 1.384 . S
H630 C636 0.930 . S
H631 C640 0.930 . S
H632 C645 0.929 . S
H633 C643 0.929 . S
H634 C638 0.929 . S
H635 C644 0.929 . S
C636 H630 0.930 . S
C636 C637 1.367 . S
C636 C644 1.378 . S
C637 C636 1.367 . S
C637 C645 1.433 . S
C638 H634 0.929 . S
C638 C640 1.378 . S
C638 C642 1.350 . S
C639 C642 1.463 1_655 S
C639 C644 1.350 . S
C639 N647 1.427 . S
C640 H631 0.930 . S
C640 C638 1.378 . S
C640 C641 1.367 . S
C641 C640 1.367 . S
C641 C643 1.433 . S
C642 C638 1.350 . S
C642 C639 1.463 1_455 S
C642 N646 1.427 . S
C643 H633 0.929 . S
C643 C641 1.433 . S
C643 N646 1.384 . S
C644 H635 0.929 . S
C644 C636 1.378 . S
C644 C639 1.350 . S
C645 H632 0.929 . S
C645 C637 1.433 . S
C645 N647 1.384 . S
N646 C642 1.427 . S
N646 C643 1.384 . S
N647 C639 1.427 . S
N647 C645 1.384 . S
H648 C654 0.930 . S
H649 C658 0.930 . S
H650 C663 0.929 . S
H651 C661 0.929 . S
H652 C656 0.929 . S
H653 C662 0.929 . S
C654 H648 0.930 . S
C654 C655 1.367 . S
C654 C662 1.378 . S
C655 C654 1.367 . S
C655 C663 1.433 . S
C656 H652 0.929 . S
C656 C658 1.378 . S
C656 C660 1.350 . S
C657 C660 1.463 . S
C657 C662 1.350 . S
C657 N665 1.427 . S
C658 H649 0.930 . S
C658 C656 1.378 . S
C658 C659 1.367 . S
C659 C658 1.367 . S
C659 C661 1.433 . S
C660 C656 1.350 . S
C660 C657 1.463 . S
C660 N664 1.427 . S
C661 H651 0.929 . S
C661 C659 1.433 . S
C661 N664 1.384 . S
C662 H653 0.929 . S
C662 C654 1.378 . S
C662 C657 1.350 . S
C663 H650 0.929 . S
C663 C655 1.433 . S
C663 N665 1.384 . S
N664 C660 1.427 . S
N664 C661 1.384 . S
N665 C657 1.427 . S
N665 C663 1.384 . S
H666 C672 0.930 . S
H667 C676 0.930 . S
H668 C681 0.929 . S
H669 C679 0.929 . S
H670 C674 0.929 . S
H671 C680 0.929 . S
C672 H666 0.930 . S
C672 C673 1.367 . S
C672 C680 1.378 . S
C673 C672 1.367 . S
C673 C681 1.433 . S
C674 H670 0.929 . S
C674 C676 1.378 . S
C674 C678 1.350 . S
C675 C678 1.463 1_545 S
C675 C680 1.350 . S
C675 N683 1.427 . S
C676 H667 0.930 . S
C676 C674 1.378 . S
C676 C677 1.367 . S
C677 C676 1.367 . S
C677 C679 1.433 . S
C678 C674 1.350 . S
C678 C675 1.463 1_565 S
C678 N682 1.427 . S
C679 H669 0.929 . S
C679 C677 1.433 . S
C679 N682 1.384 . S
C680 H671 0.929 . S
C680 C672 1.378 . S
C680 C675 1.350 . S
C681 H668 0.929 . S
C681 C673 1.433 . S
C681 N683 1.384 . S
N682 C678 1.427 . S
N682 C679 1.384 . S
N683 C675 1.427 . S
N683 C681 1.384 . S
H684 C690 0.930 . S
H685 C694 0.930 . S
H686 C699 0.929 . S
H687 C697 0.929 . S
H688 C692 0.929 . S
H689 C698 0.929 . S
C690 H684 0.930 . S
C690 C691 1.367 . S
C690 C698 1.378 . S
C691 C690 1.367 . S
C691 C699 1.433 . S
C692 H688 0.929 . S
C692 C694 1.378 . S
C692 C696 1.350 . S
C693 C696 1.463 1_655 S
C693 C698 1.350 . S
C693 N701 1.427 . S
C694 H685 0.930 . S
C694 C692 1.378 . S
C694 C695 1.367 . S
C695 C694 1.367 . S
C695 C697 1.433 . S
C696 C692 1.350 . S
C696 C693 1.463 1_455 S
C696 N700 1.427 . S
C697 H687 0.929 . S
C697 C695 1.433 . S
C697 N700 1.384 . S
C698 H689 0.929 . S
C698 C690 1.378 . S
C698 C693 1.350 . S
C699 H686 0.929 . S
C699 C691 1.433 . S
C699 N701 1.384 . S
N700 C696 1.427 . S
N700 C697 1.384 . S
N701 C693 1.427 . S
N701 C699 1.384 . S
H702 C708 0.930 . S
H703 C712 0.930 . S
H704 C717 0.929 . S
H705 C715 0.929 . S
H706 C710 0.929 . S
H707 C716 0.929 . S
C708 H702 0.930 . S
C708 C709 1.367 . S
C708 C716 1.378 . S
C709 C708 1.367 . S
C709 C717 1.433 . S
C710 H706 0.929 . S
C710 C712 1.378 . S
C710 C714 1.350 . S
C711 C714 1.463 . S
C711 C716 1.350 . S
C711 N719 1.427 . S
C712 H703 0.930 . S
C712 C710 1.378 . S
C712 C713 1.367 . S
C713 C712 1.367 . S
C713 C715 1.433 . S
C714 C710 1.350 . S
C714 C711 1.463 . S
C714 N718 1.427 . S
C715 H705 0.929 . S
C715 C713 1.433 . S
C715 N718 1.384 . S
C716 H707 0.929 . S
C716 C708 1.378 . S
C716 C711 1.350 . S
C717 H704 0.929 . S
C717 C709 1.433 . S
C717 N719 1.384 . S
N718 C714 1.427 . S
N718 C715 1.384 . S
N719 C711 1.427 . S
N719 C717 1.384 . S
H720 C726 0.930 . S
H721 C730 0.930 . S
H722 C735 0.929 . S
H723 C733 0.929 . S
H724 C728 0.929 . S
H725 C734 0.929 . S
C726 H720 0.930 . S
C726 C727 1.367 . S
C726 C734 1.378 . S
C727 C726 1.367 . S
C727 C735 1.433 . S
C728 H724 0.929 . S
C728 C730 1.378 . S
C728 C732 1.350 . S
C729 C732 1.463 . S
C729 C734 1.350 . S
C729 N737 1.427 . S
C730 H721 0.930 . S
C730 C728 1.378 . S
C730 C731 1.367 . S
C731 C730 1.367 . S
C731 C733 1.433 . S
C732 C728 1.350 . S
C732 C729 1.463 . S
C732 N736 1.427 . S
C733 H723 0.929 . S
C733 C731 1.433 . S
C733 N736 1.384 . S
C734 H725 0.929 . S
C734 C726 1.378 . S
C734 C729 1.350 . S
C735 H722 0.929 . S
C735 C727 1.433 . S
C735 N737 1.384 . S
N736 C732 1.427 . S
N736 C733 1.384 . S
N737 C729 1.427 . S
N737 C735 1.384 . S
H738 C744 0.930 . S
H739 C748 0.930 . S
H740 C753 0.929 . S
H741 C751 0.929 . S
H742 C746 0.929 . S
H743 C752 0.929 . S
C744 H738 0.930 . S
C744 C745 1.367 . S
C744 C752 1.378 . S
C745 C744 1.367 . S
C745 C753 1.433 . S
C746 H742 0.929 . S
C746 C748 1.378 . S
C746 C750 1.350 . S
C747 C750 1.463 . S
C747 C752 1.350 . S
C747 N755 1.427 . S
C748 H739 0.930 . S
C748 C746 1.378 . S
C748 C749 1.367 . S
C749 C748 1.367 . S
C749 C751 1.433 . S
C750 C746 1.350 . S
C750 C747 1.463 . S
C750 N754 1.427 . S
C751 H741 0.929 . S
C751 C749 1.433 . S
C751 N754 1.384 . S
C752 H743 0.929 . S
C752 C744 1.378 . S
C752 C747 1.350 . S
C753 H740 0.929 . S
C753 C745 1.433 . S
C753 N755 1.384 . S
N754 C750 1.427 . S
N754 C751 1.384 . S
N755 C747 1.427 . S
N755 C753 1.384 . S
H756 C762 0.930 . S
H757 C766 0.930 . S
H758 C771 0.929 . S
H759 C769 0.929 . S
H760 C764 0.929 . S
H761 C770 0.929 . S
C762 H756 0.930 . S
C762 C763 1.367 . S
C762 C770 1.378 . S
C763 C762 1.367 . S
C763 C771 1.433 . S
C764 H760 0.929 . S
C764 C766 1.378 . S
C764 C768 1.350 . S
C765 C768 1.463 . S
C765 C770 1.350 . S
C765 N773 1.427 . S
C766 H757 0.930 . S
C766 C764 1.378 . S
C766 C767 1.367 . S
C767 C766 1.367 . S
C767 C769 1.433 . S
C768 C764 1.350 . S
C768 C765 1.463 . S
C768 N772 1.427 . S
C769 H759 0.929 . S
C769 C767 1.433 . S
C769 N772 1.384 . S
C770 H761 0.929 . S
C770 C762 1.378 . S
C770 C765 1.350 . S
C771 H758 0.929 . S
C771 C763 1.433 . S
C771 N773 1.384 . S
N772 C768 1.427 . S
N772 C769 1.384 . S
N773 C765 1.427 . S
N773 C771 1.384 . S
H774 C780 0.930 . S
H775 C784 0.930 . S
H776 C789 0.929 . S
H777 C787 0.929 . S
H778 C782 0.929 . S
H779 C788 0.929 . S
C780 H774 0.930 . S
C780 C781 1.367 . S
C780 C788 1.378 . S
C781 C780 1.367 . S
C781 C789 1.433 . S
C782 H778 0.929 . S
C782 C784 1.378 . S
C782 C786 1.350 . S
C783 C786 1.463 . S
C783 C788 1.350 . S
C783 N791 1.427 . S
C784 H775 0.930 . S
C784 C782 1.378 . S
C784 C785 1.367 . S
C785 C784 1.367 . S
C785 C787 1.433 . S
C786 C782 1.350 . S
C786 C783 1.463 . S
C786 N790 1.427 . S
C787 H777 0.929 . S
C787 C785 1.433 . S
C787 N790 1.384 . S
C788 H779 0.929 . S
C788 C780 1.378 . S
C788 C783 1.350 . S
C789 H776 0.929 . S
C789 C781 1.433 . S
C789 N791 1.384 . S
N790 C786 1.427 . S
N790 C787 1.384 . S
N791 C783 1.427 . S
N791 C789 1.384 . S
H792 C798 0.930 . S
H793 C802 0.930 . S
H794 C807 0.929 . S
H795 C805 0.929 . S
H796 C800 0.929 . S
H797 C806 0.929 . S
C798 H792 0.930 . S
C798 C799 1.367 . S
C798 C806 1.378 . S
C799 C798 1.367 . S
C799 C807 1.433 . S
C800 H796 0.929 . S
C800 C802 1.378 . S
C800 C804 1.350 . S
C801 C804 1.463 . S
C801 C806 1.350 . S
C801 N809 1.427 . S
C802 H793 0.930 . S
C802 C800 1.378 . S
C802 C803 1.367 . S
C803 C802 1.367 . S
C803 C805 1.433 . S
C804 C800 1.350 . S
C804 C801 1.463 . S
C804 N808 1.427 . S
C805 H795 0.929 . S
C805 C803 1.433 . S
C805 N808 1.384 . S
C806 H797 0.929 . S
C806 C798 1.378 . S
C806 C801 1.350 . S
C807 H794 0.929 . S
C807 C799 1.433 . S
C807 N809 1.384 . S
N808 C804 1.427 . S
N808 C805 1.384 . S
N809 C801 1.427 . S
N809 C807 1.384 . S
H810 C816 0.930 . S
H811 C820 0.930 . S
H812 C825 0.929 . S
H813 C823 0.929 . S
H814 C818 0.929 . S
H815 C824 0.929 . S
C816 H810 0.930 . S
C816 C817 1.367 . S
C816 C824 1.378 . S
C817 C816 1.367 . S
C817 C825 1.433 . S
C818 H814 0.929 . S
C818 C820 1.378 . S
C818 C822 1.350 . S
C819 C822 1.463 . S
C819 C824 1.350 . S
C819 N827 1.427 . S
C820 H811 0.930 . S
C820 C818 1.378 . S
C820 C821 1.367 . S
C821 C820 1.367 . S
C821 C823 1.433 . S
C822 C818 1.350 . S
C822 C819 1.463 . S
C822 N826 1.427 . S
C823 H813 0.929 . S
C823 C821 1.433 . S
C823 N826 1.384 . S
C824 H815 0.929 . S
C824 C816 1.378 . S
C824 C819 1.350 . S
C825 H812 0.929 . S
C825 C817 1.433 . S
C825 N827 1.384 . S
N826 C822 1.427 . S
N826 C823 1.384 . S
N827 C819 1.427 . S
N827 C825 1.384 . S
H828 C834 0.930 . S
H829 C838 0.930 . S
H830 C843 0.929 . S
H831 C841 0.929 . S
H832 C836 0.929 . S
H833 C842 0.929 . S
C834 H828 0.930 . S
C834 C835 1.367 . S
C834 C842 1.378 . S
C835 C834 1.367 . S
C835 C843 1.433 . S
C836 H832 0.929 . S
C836 C838 1.378 . S
C836 C840 1.350 . S
C837 C840 1.463 . S
C837 C842 1.350 . S
C837 N845 1.427 . S
C838 H829 0.930 . S
C838 C836 1.378 . S
C838 C839 1.367 . S
C839 C838 1.367 . S
C839 C841 1.433 . S
C840 C836 1.350 . S
C840 C837 1.463 . S
C840 N844 1.427 . S
C841 H831 0.929 . S
C841 C839 1.433 . S
C841 N844 1.384 . S
C842 H833 0.929 . S
C842 C834 1.378 . S
C842 C837 1.350 . S
C843 H830 0.929 . S
C843 C835 1.433 . S
C843 N845 1.384 . S
N844 C840 1.427 . S
N844 C841 1.384 . S
N845 C837 1.427 . S
N845 C843 1.384 . S
H846 C852 0.930 . S
H847 C856 0.930 . S
H848 C861 0.929 . S
H849 C859 0.929 . S
H850 C854 0.929 . S
H851 C860 0.929 . S
C852 H846 0.930 . S
C852 C853 1.367 . S
C852 C860 1.378 . S
C853 C852 1.367 . S
C853 C861 1.433 . S
C854 H850 0.929 . S
C854 C856 1.378 . S
C854 C858 1.350 . S
C855 C858 1.463 . S
C855 C860 1.350 . S
C855 N863 1.427 . S
C856 H847 0.930 . S
C856 C854 1.378 . S
C856 C857 1.367 . S
C857 C856 1.367 . S
C857 C859 1.433 . S
C858 C854 1.350 . S
C858 C855 1.463 . S
C858 N862 1.427 . S
C859 H849 0.929 . S
C859 C857 1.433 . S
C859 N862 1.384 . S
C860 H851 0.929 . S
C860 C852 1.378 . S
C860 C855 1.350 . S
C861 H848 0.929 . S
C861 C853 1.433 . S
C861 N863 1.384 . S
N862 C858 1.427 . S
N862 C859 1.384 . S
N863 C855 1.427 . S
N863 C861 1.384 . S
H864 C870 0.930 . S
H865 C874 0.930 . S
H866 C879 0.929 . S
H867 C877 0.929 . S
H868 C872 0.929 . S
H869 C878 0.929 . S
C870 H864 0.930 . S
C870 C871 1.367 . S
C870 C878 1.378 . S
C871 C870 1.367 . S
C871 C879 1.433 . S
C872 H868 0.929 . S
C872 C874 1.378 . S
C872 C876 1.350 . S
C873 C876 1.463 . S
C873 C878 1.350 . S
C873 N881 1.427 . S
C874 H865 0.930 . S
C874 C872 1.378 . S
C874 C875 1.367 . S
C875 C874 1.367 . S
C875 C877 1.433 . S
C876 C872 1.350 . S
C876 C873 1.463 . S
C876 N880 1.427 . S
C877 H867 0.929 . S
C877 C875 1.433 . S
C877 N880 1.384 . S
C878 H869 0.929 . S
C878 C870 1.378 . S
C878 C873 1.350 . S
C879 H866 0.929 . S
C879 C871 1.433 . S
C879 N881 1.384 . S
N880 C876 1.427 . S
N880 C877 1.384 . S
N881 C873 1.427 . S
N881 C879 1.384 . S
H882 C888 0.930 . S
H883 C892 0.930 . S
H884 C897 0.929 . S
H885 C895 0.929 . S
H886 C890 0.929 . S
H887 C896 0.929 . S
C888 H882 0.930 . S
C888 C889 1.367 . S
C888 C896 1.378 . S
C889 C888 1.367 . S
C889 C897 1.433 . S
C890 H886 0.929 . S
C890 C892 1.378 . S
C890 C894 1.350 . S
C891 C894 1.463 . S
C891 C896 1.350 . S
C891 N899 1.427 . S
C892 H883 0.930 . S
C892 C890 1.378 . S
C892 C893 1.367 . S
C893 C892 1.367 . S
C893 C895 1.433 . S
C894 C890 1.350 . S
C894 C891 1.463 . S
C894 N898 1.427 . S
C895 H885 0.929 . S
C895 C893 1.433 . S
C895 N898 1.384 . S
C896 H887 0.929 . S
C896 C888 1.378 . S
C896 C891 1.350 . S
C897 H884 0.929 . S
C897 C889 1.433 . S
C897 N899 1.384 . S
N898 C894 1.427 . S
N898 C895 1.384 . S
N899 C891 1.427 . S
N899 C897 1.384 . S
H900 C906 0.930 . S
H901 C910 0.930 . S
H902 C915 0.929 . S
H903 C913 0.929 . S
H904 C908 0.929 . S
H905 C914 0.929 . S
C906 H900 0.930 . S
C906 C907 1.367 . S
C906 C914 1.378 . S
C907 C906 1.367 . S
C907 C915 1.433 . S
C908 H904 0.929 . S
C908 C910 1.378 . S
C908 C912 1.350 . S
C909 C912 1.463 . S
C909 C914 1.350 . S
C909 N917 1.427 . S
C910 H901 0.930 . S
C910 C908 1.378 . S
C910 C911 1.367 . S
C911 C910 1.367 . S
C911 C913 1.433 . S
C912 C908 1.350 . S
C912 C909 1.463 . S
C912 N916 1.427 . S
C913 H903 0.929 . S
C913 C911 1.433 . S
C913 N916 1.384 . S
C914 H905 0.929 . S
C914 C906 1.378 . S
C914 C909 1.350 . S
C915 H902 0.929 . S
C915 C907 1.433 . S
C915 N917 1.384 . S
N916 C912 1.427 . S
N916 C913 1.384 . S
N917 C909 1.427 . S
N917 C915 1.384 . S
H918 C924 0.930 . S
H919 C928 0.930 . S
H920 C933 0.929 . S
H921 C931 0.929 . S
H922 C926 0.929 . S
H923 C932 0.929 . S
C924 H918 0.930 . S
C924 C925 1.367 . S
C924 C932 1.378 . S
C925 C924 1.367 . S
C925 C933 1.433 . S
C926 H922 0.929 . S
C926 C928 1.378 . S
C926 C930 1.350 . S
C927 C930 1.463 . S
C927 C932 1.350 . S
C927 N935 1.427 . S
C928 H919 0.930 . S
C928 C926 1.378 . S
C928 C929 1.367 . S
C929 C928 1.367 . S
C929 C931 1.433 . S
C930 C926 1.350 . S
C930 C927 1.463 . S
C930 N934 1.427 . S
C931 H921 0.929 . S
C931 C929 1.433 . S
C931 N934 1.384 . S
C932 H923 0.929 . S
C932 C924 1.378 . S
C932 C927 1.350 . S
C933 H920 0.929 . S
C933 C925 1.433 . S
C933 N935 1.384 . S
N934 C930 1.427 . S
N934 C931 1.384 . S
N935 C927 1.427 . S
N935 C933 1.384 . S
H936 C942 0.930 . S
H937 C946 0.930 . S
H938 C951 0.929 . S
H939 C949 0.929 . S
H940 C944 0.929 . S
H941 C950 0.929 . S
C942 H936 0.930 . S
C942 C943 1.367 . S
C942 C950 1.378 . S
C943 C942 1.367 . S
C943 C951 1.433 . S
C944 H940 0.929 . S
C944 C946 1.378 . S
C944 C948 1.350 . S
C945 C948 1.463 . S
C945 C950 1.350 . S
C945 N953 1.427 . S
C946 H937 0.930 . S
C946 C944 1.378 . S
C946 C947 1.367 . S
C947 C946 1.367 . S
C947 C949 1.433 . S
C948 C944 1.350 . S
C948 C945 1.463 . S
C948 N952 1.427 . S
C949 H939 0.929 . S
C949 C947 1.433 . S
C949 N952 1.384 . S
C950 H941 0.929 . S
C950 C942 1.378 . S
C950 C945 1.350 . S
C951 H938 0.929 . S
C951 C943 1.433 . S
C951 N953 1.384 . S
N952 C948 1.427 . S
N952 C949 1.384 . S
N953 C945 1.427 . S
N953 C951 1.384 . S
H954 C960 0.930 . S
H955 C964 0.930 . S
H956 C969 0.929 . S
H957 C967 0.929 . S
H958 C962 0.929 . S
H959 C968 0.929 . S
C960 H954 0.930 . S
C960 C961 1.367 . S
C960 C968 1.378 . S
C961 C960 1.367 . S
C961 C969 1.433 . S
C962 H958 0.929 . S
C962 C964 1.378 . S
C962 C966 1.350 . S
C963 C966 1.463 . S
C963 C968 1.350 . S
C963 N971 1.427 . S
C964 H955 0.930 . S
C964 C962 1.378 . S
C964 C965 1.367 . S
C965 C964 1.367 . S
C965 C967 1.433 . S
C966 C962 1.350 . S
C966 C963 1.463 . S
C966 N970 1.427 . S
C967 H957 0.929 . S
C967 C965 1.433 . S
C967 N970 1.384 . S
C968 H959 0.929 . S
C968 C960 1.378 . S
C968 C963 1.350 . S
C969 H956 0.929 . S
C969 C961 1.433 . S
C969 N971 1.384 . S
N970 C966 1.427 . S
N970 C967 1.384 . S
N971 C963 1.427 . S
N971 C969 1.384 . S
H972 C978 0.930 . S
H973 C982 0.930 . S
H974 C987 0.929 . S
H975 C985 0.929 . S
H976 C980 0.929 . S
H977 C986 0.929 . S
C978 H972 0.930 . S
C978 C979 1.367 . S
C978 C986 1.378 . S
C979 C978 1.367 . S
C979 C987 1.433 . S
C980 H976 0.929 . S
C980 C982 1.378 . S
C980 C984 1.350 . S
C981 C984 1.463 . S
C981 C986 1.350 . S
C981 N989 1.427 . S
C982 H973 0.930 . S
C982 C980 1.378 . S
C982 C983 1.367 . S
C983 C982 1.367 . S
C983 C985 1.433 . S
C984 C980 1.350 . S
C984 C981 1.463 . S
C984 N988 1.427 . S
C985 H975 0.929 . S
C985 C983 1.433 . S
C985 N988 1.384 . S
C986 H977 0.929 . S
C986 C978 1.378 . S
C986 C981 1.350 . S
C987 H974 0.929 . S
C987 C979 1.433 . S
C987 N989 1.384 . S
N988 C984 1.427 . S
N988 C985 1.384 . S
N989 C981 1.427 . S
N989 C987 1.384 . S
H990 C996 0.930 . S
H991 C1000 0.930 . S
H992 C1005 0.929 . S
H993 C1003 0.929 . S
H994 C998 0.929 . S
H995 C1004 0.929 . S
C996 H990 0.930 . S
C996 C997 1.367 . S
C996 C1004 1.378 . S
C997 C996 1.367 . S
C997 C1005 1.433 . S
C998 H994 0.929 . S
C998 C1000 1.378 . S
C998 C1002 1.350 . S
C999 C1002 1.463 . S
C999 C1004 1.350 . S
C999 N1007 1.427 . S
C1000 H991 0.930 . S
C1000 C998 1.378 . S
C1000 C1001 1.367 . S
C1001 C1000 1.367 . S
C1001 C1003 1.433 . S
C1002 C998 1.350 . S
C1002 C999 1.463 . S
C1002 N1006 1.427 . S
C1003 H993 0.929 . S
C1003 C1001 1.433 . S
C1003 N1006 1.384 . S
C1004 H995 0.929 . S
C1004 C996 1.378 . S
C1004 C999 1.350 . S
C1005 H992 0.929 . S
C1005 C997 1.433 . S
C1005 N1007 1.384 . S
N1006 C1002 1.427 . S
N1006 C1003 1.384 . S
N1007 C999 1.427 . S
N1007 C1005 1.384 . S
H1008 C1014 0.930 . S
H1009 C1018 0.930 . S
H1010 C1023 0.929 . S
H1011 C1021 0.929 . S
H1012 C1016 0.929 . S
H1013 C1022 0.929 . S
C1014 H1008 0.930 . S
C1014 C1015 1.367 . S
C1014 C1022 1.378 . S
C1015 C1014 1.367 . S
C1015 C1023 1.433 . S
C1016 H1012 0.929 . S
C1016 C1018 1.378 . S
C1016 C1020 1.350 . S
C1017 C1020 1.463 . S
C1017 C1022 1.350 . S
C1017 N1025 1.427 . S
C1018 H1009 0.930 . S
C1018 C1016 1.378 . S
C1018 C1019 1.367 . S
C1019 C1018 1.367 . S
C1019 C1021 1.433 . S
C1020 C1016 1.350 . S
C1020 C1017 1.463 . S
C1020 N1024 1.427 . S
C1021 H1011 0.929 . S
C1021 C1019 1.433 . S
C1021 N1024 1.384 . S
C1022 H1013 0.929 . S
C1022 C1014 1.378 . S
C1022 C1017 1.350 . S
C1023 H1010 0.929 . S
C1023 C1015 1.433 . S
C1023 N1025 1.384 . S
N1024 C1020 1.427 . S
N1024 C1021 1.384 . S
N1025 C1017 1.427 . S
N1025 C1023 1.384 . S
H1026 C1032 0.930 . S
H1027 C1036 0.930 . S
H1028 C1041 0.929 . S
H1029 C1039 0.929 . S
H1030 C1034 0.929 . S
H1031 C1040 0.929 . S
C1032 H1026 0.930 . S
C1032 C1033 1.367 1_556 S
C1032 C1040 1.378 . S
C1033 C1032 1.367 1_554 S
C1033 C1041 1.433 . S
C1034 H1030 0.929 . S
C1034 C1036 1.378 . S
C1034 C1038 1.350 1_554 S
C1035 C1038 1.463 1_454 S
C1035 C1040 1.350 1_554 S
C1035 N1043 1.427 . S
C1036 H1027 0.930 . S
C1036 C1034 1.378 . S
C1036 C1037 1.367 1_554 S
C1037 C1036 1.367 1_556 S
C1037 C1039 1.433 . S
C1038 C1034 1.350 1_556 S
C1038 C1035 1.463 1_656 S
C1038 N1042 1.427 . S
C1039 H1029 0.929 . S
C1039 C1037 1.433 . S
C1039 N1042 1.384 . S
C1040 H1031 0.929 . S
C1040 C1032 1.378 . S
C1040 C1035 1.350 1_556 S
C1041 H1028 0.929 . S
C1041 C1033 1.433 . S
C1041 N1043 1.384 . S
N1042 C1038 1.427 . S
N1042 C1039 1.384 . S
N1043 C1035 1.427 . S
N1043 C1041 1.384 . S
H1044 C1050 0.930 1_556 S
H1045 C1054 0.930 1_554 S
H1046 C1059 0.929 . S
H1047 C1057 0.929 . S
H1048 C1052 0.929 . S
H1049 C1058 0.929 . S
C1050 H1044 0.930 1_554 S
C1050 C1051 1.367 . S
C1050 C1058 1.378 1_554 S
C1051 C1050 1.367 . S
C1051 C1059 1.433 . S
C1052 H1048 0.929 . S
C1052 C1054 1.378 1_554 S
C1052 C1056 1.350 1_554 S
C1053 C1056 1.463 1_554 S
C1053 C1058 1.350 1_554 S
C1053 N1061 1.427 . S
C1054 H1045 0.930 1_556 S
C1054 C1052 1.378 1_556 S
C1054 C1055 1.367 . S
C1055 C1054 1.367 . S
C1055 C1057 1.433 . S
C1056 C1052 1.350 1_556 S
C1056 C1053 1.463 1_556 S
C1056 N1060 1.427 . S
C1057 H1047 0.929 . S
C1057 C1055 1.433 . S
C1057 N1060 1.384 . S
C1058 H1049 0.929 . S
C1058 C1050 1.378 1_556 S
C1058 C1053 1.350 1_556 S
C1059 H1046 0.929 . S
C1059 C1051 1.433 . S
C1059 N1061 1.384 . S
N1060 C1056 1.427 . S
N1060 C1057 1.384 . S
N1061 C1053 1.427 . S
N1061 C1059 1.384 . S
H1062 C1068 0.930 . S
H1063 C1072 0.930 . S
H1064 C1077 0.929 . S
H1065 C1075 0.929 . S
H1066 C1070 0.929 . S
H1067 C1076 0.929 . S
C1068 H1062 0.930 . S
C1068 C1069 1.367 . S
C1068 C1076 1.378 . S
C1069 C1068 1.367 . S
C1069 C1077 1.433 1_556 S
C1070 H1066 0.929 . S
C1070 C1072 1.378 . S
C1070 C1074 1.350 . S
C1071 C1074 1.463 1_546 S
C1071 C1076 1.350 . S
C1071 N1079 1.427 1_556 S
C1072 H1063 0.930 . S
C1072 C1070 1.378 . S
C1072 C1073 1.367 . S
C1073 C1072 1.367 . S
C1073 C1075 1.433 1_554 S
C1074 C1070 1.350 . S
C1074 C1071 1.463 1_564 S
C1074 N1078 1.427 1_554 S
C1075 H1065 0.929 . S
C1075 C1073 1.433 1_556 S
C1075 N1078 1.384 . S
C1076 H1067 0.929 . S
C1076 C1068 1.378 . S
C1076 C1071 1.350 . S
C1077 H1064 0.929 . S
C1077 C1069 1.433 1_554 S
C1077 N1079 1.384 . S
N1078 C1074 1.427 1_556 S
N1078 C1075 1.384 . S
N1079 C1071 1.427 1_554 S
N1079 C1077 1.384 . S
H1080 C1086 0.930 . S
H1081 C1090 0.930 . S
H1082 C1095 0.929 . S
H1083 C1093 0.929 . S
H1084 C1088 0.929 1_556 S
H1085 C1094 0.929 . S
C1086 H1080 0.930 . S
C1086 C1087 1.367 . S
C1086 C1094 1.378 . S
C1087 C1086 1.367 . S
C1087 C1095 1.433 . S
C1088 H1084 0.929 1_554 S
C1088 C1090 1.378 . S
C1088 C1092 1.350 1_554 S
C1089 C1092 1.463 . S
C1089 C1094 1.350 . S
C1089 N1097 1.427 . S
C1090 H1081 0.930 . S
C1090 C1088 1.378 . S
C1090 C1091 1.367 . S
C1091 C1090 1.367 . S
C1091 C1093 1.433 . S
C1092 C1088 1.350 1_556 S
C1092 C1089 1.463 . S
C1092 N1096 1.427 1_556 S
C1093 H1083 0.929 . S
C1093 C1091 1.433 . S
C1093 N1096 1.384 . S
C1094 H1085 0.929 . S
C1094 C1086 1.378 . S
C1094 C1089 1.350 . S
C1095 H1082 0.929 . S
C1095 C1087 1.433 . S
C1095 N1097 1.384 . S
N1096 C1092 1.427 1_554 S
N1096 C1093 1.384 . S
N1097 C1089 1.427 . S
N1097 C1095 1.384 . S
H1098 C1104 0.930 . S
H1099 C1108 0.930 . S
H1100 C1113 0.929 . S
H1101 C1111 0.929 . S
H1102 C1106 0.929 1_556 S
H1103 C1112 0.929 . S
C1104 H1098 0.930 . S
C1104 C1105 1.367 . S
C1104 C1112 1.378 . S
C1105 C1104 1.367 . S
C1105 C1113 1.433 . S
C1106 H1102 0.929 1_554 S
C1106 C1108 1.378 . S
C1106 C1110 1.350 1_554 S
C1107 C1110 1.463 . S
C1107 C1112 1.350 . S
C1107 N1115 1.427 . S
C1108 H1099 0.930 . S
C1108 C1106 1.378 . S
C1108 C1109 1.367 . S
C1109 C1108 1.367 . S
C1109 C1111 1.433 . S
C1110 C1106 1.350 1_556 S
C1110 C1107 1.463 . S
C1110 N1114 1.427 1_556 S
C1111 H1101 0.929 . S
C1111 C1109 1.433 . S
C1111 N1114 1.384 . S
C1112 H1103 0.929 . S
C1112 C1104 1.378 . S
C1112 C1107 1.350 . S
C1113 H1100 0.929 . S
C1113 C1105 1.433 . S
C1113 N1115 1.384 . S
N1114 C1110 1.427 1_554 S
N1114 C1111 1.384 . S
N1115 C1107 1.427 . S
N1115 C1113 1.384 . S
H1116 C1122 0.930 . S
H1117 C1126 0.930 . S
H1118 C1131 0.929 . S
H1119 C1129 0.929 . S
H1120 C1124 0.929 1_556 S
H1121 C1130 0.929 . S
C1122 H1116 0.930 . S
C1122 C1123 1.367 . S
C1122 C1130 1.378 . S
C1123 C1122 1.367 . S
C1123 C1131 1.433 . S
C1124 H1120 0.929 1_554 S
C1124 C1126 1.378 . S
C1124 C1128 1.350 1_554 S
C1125 C1128 1.463 . S
C1125 C1130 1.350 . S
C1125 N1133 1.427 . S
C1126 H1117 0.930 . S
C1126 C1124 1.378 . S
C1126 C1127 1.367 . S
C1127 C1126 1.367 . S
C1127 C1129 1.433 . S
C1128 C1124 1.350 1_556 S
C1128 C1125 1.463 . S
C1128 N1132 1.427 1_556 S
C1129 H1119 0.929 . S
C1129 C1127 1.433 . S
C1129 N1132 1.384 . S
C1130 H1121 0.929 . S
C1130 C1122 1.378 . S
C1130 C1125 1.350 . S
C1131 H1118 0.929 . S
C1131 C1123 1.433 . S
C1131 N1133 1.384 . S
N1132 C1128 1.427 1_554 S
N1132 C1129 1.384 . S
N1133 C1125 1.427 . S
N1133 C1131 1.384 . S
H1134 C1140 0.930 . S
H1135 C1144 0.930 . S
H1136 C1149 0.929 . S
H1137 C1147 0.929 . S
H1138 C1142 0.929 . S
H1139 C1148 0.929 1_554 S
C1140 H1134 0.930 . S
C1140 C1141 1.367 . S
C1140 C1148 1.378 . S
C1141 C1140 1.367 . S
C1141 C1149 1.433 . S
C1142 H1138 0.929 . S
C1142 C1144 1.378 . S
C1142 C1146 1.350 . S
C1143 C1146 1.463 . S
C1143 C1148 1.350 1_554 S
C1143 N1151 1.427 1_554 S
C1144 H1135 0.930 . S
C1144 C1142 1.378 . S
C1144 C1145 1.367 . S
C1145 C1144 1.367 . S
C1145 C1147 1.433 . S
C1146 C1142 1.350 . S
C1146 C1143 1.463 . S
C1146 N1150 1.427 . S
C1147 H1137 0.929 . S
C1147 C1145 1.433 . S
C1147 N1150 1.384 . S
C1148 H1139 0.929 1_556 S
C1148 C1140 1.378 . S
C1148 C1143 1.350 1_556 S
C1149 H1136 0.929 . S
C1149 C1141 1.433 . S
C1149 N1151 1.384 . S
N1150 C1146 1.427 . S
N1150 C1147 1.384 . S
N1151 C1143 1.427 1_556 S
N1151 C1149 1.384 . S
H1152 C1158 0.930 . S
H1153 C1162 0.930 . S
H1154 C1167 0.929 . S
H1155 C1165 0.929 . S
H1156 C1160 0.929 . S
H1157 C1166 0.929 1_554 S
C1158 H1152 0.930 . S
C1158 C1159 1.367 . S
C1158 C1166 1.378 . S
C1159 C1158 1.367 . S
C1159 C1167 1.433 . S
C1160 H1156 0.929 . S
C1160 C1162 1.378 . S
C1160 C1164 1.350 . S
C1161 C1164 1.463 . S
C1161 C1166 1.350 1_554 S
C1161 N1169 1.427 1_554 S
C1162 H1153 0.930 . S
C1162 C1160 1.378 . S
C1162 C1163 1.367 . S
C1163 C1162 1.367 . S
C1163 C1165 1.433 . S
C1164 C1160 1.350 . S
C1164 C1161 1.463 . S
C1164 N1168 1.427 . S
C1165 H1155 0.929 . S
C1165 C1163 1.433 . S
C1165 N1168 1.384 . S
C1166 H1157 0.929 1_556 S
C1166 C1158 1.378 . S
C1166 C1161 1.350 1_556 S
C1167 H1154 0.929 . S
C1167 C1159 1.433 . S
C1167 N1169 1.384 . S
N1168 C1164 1.427 . S
N1168 C1165 1.384 . S
N1169 C1161 1.427 1_556 S
N1169 C1167 1.384 . S
H1170 C1176 0.930 . S
H1171 C1180 0.930 . S
H1172 C1185 0.929 . S
H1173 C1183 0.929 . S
H1174 C1178 0.929 1_554 S
H1175 C1184 0.929 . S
C1176 H1170 0.930 . S
C1176 C1177 1.367 . S
C1176 C1184 1.378 . S
C1177 C1176 1.367 . S
C1177 C1185 1.433 . S
C1178 H1174 0.929 1_556 S
C1178 C1180 1.378 . S
C1178 C1182 1.350 1_556 S
C1179 C1182 1.463 . S
C1179 C1184 1.350 . S
C1179 N1187 1.427 . S
C1180 H1171 0.930 . S
C1180 C1178 1.378 . S
C1180 C1181 1.367 . S
C1181 C1180 1.367 . S
C1181 C1183 1.433 . S
C1182 C1178 1.350 1_554 S
C1182 C1179 1.463 . S
C1182 N1186 1.427 1_554 S
C1183 H1173 0.929 . S
C1183 C1181 1.433 . S
C1183 N1186 1.384 . S
C1184 H1175 0.929 . S
C1184 C1176 1.378 . S
C1184 C1179 1.350 . S
C1185 H1172 0.929 . S
C1185 C1177 1.433 . S
C1185 N1187 1.384 . S
N1186 C1182 1.427 1_556 S
N1186 C1183 1.384 . S
N1187 C1179 1.427 . S
N1187 C1185 1.384 . S
H1188 C1194 0.930 . S
H1189 C1198 0.930 . S
H1190 C1203 0.929 . S
H1191 C1201 0.929 . S
H1192 C1196 0.929 . S
H1193 C1202 0.929 . S
C1194 H1188 0.930 . S
C1194 C1195 1.367 . S
C1194 C1202 1.378 . S
C1195 C1194 1.367 . S
C1195 C1203 1.433 . S
C1196 H1192 0.929 . S
C1196 C1198 1.378 . S
C1196 C1200 1.350 . S
C1197 C1200 1.463 . S
C1197 C1202 1.350 . S
C1197 N1205 1.427 . S
C1198 H1189 0.930 . S
C1198 C1196 1.378 . S
C1198 C1199 1.367 . S
C1199 C1198 1.367 . S
C1199 C1201 1.433 . S
C1200 C1196 1.350 . S
C1200 C1197 1.463 . S
C1200 N1204 1.427 . S
C1201 H1191 0.929 . S
C1201 C1199 1.433 . S
C1201 N1204 1.384 . S
C1202 H1193 0.929 . S
C1202 C1194 1.378 . S
C1202 C1197 1.350 . S
C1203 H1190 0.929 . S
C1203 C1195 1.433 . S
C1203 N1205 1.384 . S
N1204 C1200 1.427 . S
N1204 C1201 1.384 . S
N1205 C1197 1.427 . S
N1205 C1203 1.384 . S
H1206 C1212 0.930 . S
H1207 C1216 0.930 . S
H1208 C1221 0.929 . S
H1209 C1219 0.929 . S
H1210 C1214 0.929 . S
H1211 C1220 0.929 . S
C1212 H1206 0.930 . S
C1212 C1213 1.367 . S
C1212 C1220 1.378 . S
C1213 C1212 1.367 . S
C1213 C1221 1.433 . S
C1214 H1210 0.929 . S
C1214 C1216 1.378 . S
C1214 C1218 1.350 . S
C1215 C1218 1.463 . S
C1215 C1220 1.350 . S
C1215 N1223 1.427 . S
C1216 H1207 0.930 . S
C1216 C1214 1.378 . S
C1216 C1217 1.367 . S
C1217 C1216 1.367 . S
C1217 C1219 1.433 . S
C1218 C1214 1.350 . S
C1218 C1215 1.463 . S
C1218 N1222 1.427 . S
C1219 H1209 0.929 . S
C1219 C1217 1.433 . S
C1219 N1222 1.384 . S
C1220 H1211 0.929 . S
C1220 C1212 1.378 . S
C1220 C1215 1.350 . S
C1221 H1208 0.929 . S
C1221 C1213 1.433 . S
C1221 N1223 1.384 . S
N1222 C1218 1.427 . S
N1222 C1219 1.384 . S
N1223 C1215 1.427 . S
N1223 C1221 1.384 . S
H1224 C1230 0.930 . S
H1225 C1234 0.930 . S
H1226 C1239 0.929 . S
H1227 C1237 0.929 . S
H1228 C1232 0.929 . S
H1229 C1238 0.929 . S
C1230 H1224 0.930 . S
C1230 C1231 1.367 . S
C1230 C1238 1.378 . S
C1231 C1230 1.367 . S
C1231 C1239 1.433 . S
C1232 H1228 0.929 . S
C1232 C1234 1.378 . S
C1232 C1236 1.350 . S
C1233 C1236 1.463 . S
C1233 C1238 1.350 . S
C1233 N1241 1.427 . S
C1234 H1225 0.930 . S
C1234 C1232 1.378 . S
C1234 C1235 1.367 . S
C1235 C1234 1.367 . S
C1235 C1237 1.433 . S
C1236 C1232 1.350 . S
C1236 C1233 1.463 . S
C1236 N1240 1.427 . S
C1237 H1227 0.929 . S
C1237 C1235 1.433 . S
C1237 N1240 1.384 . S
C1238 H1229 0.929 . S
C1238 C1230 1.378 . S
C1238 C1233 1.350 . S
C1239 H1226 0.929 . S
C1239 C1231 1.433 . S
C1239 N1241 1.384 . S
N1240 C1236 1.427 . S
N1240 C1237 1.384 . S
N1241 C1233 1.427 . S
N1241 C1239 1.384 . S
H1242 C1248 0.930 . S
H1243 C1252 0.930 . S
H1244 C1257 0.929 . S
H1245 C1255 0.929 . S
H1246 C1250 0.929 . S
H1247 C1256 0.929 . S
C1248 H1242 0.930 . S
C1248 C1249 1.367 . S
C1248 C1256 1.378 . S
C1249 C1248 1.367 . S
C1249 C1257 1.433 . S
C1250 H1246 0.929 . S
C1250 C1252 1.378 . S
C1250 C1254 1.350 . S
C1251 C1254 1.463 . S
C1251 C1256 1.350 . S
C1251 N1259 1.427 . S
C1252 H1243 0.930 . S
C1252 C1250 1.378 . S
C1252 C1253 1.367 . S
C1253 C1252 1.367 . S
C1253 C1255 1.433 . S
C1254 C1250 1.350 . S
C1254 C1251 1.463 . S
C1254 N1258 1.427 . S
C1255 H1245 0.929 . S
C1255 C1253 1.433 . S
C1255 N1258 1.384 . S
C1256 H1247 0.929 . S
C1256 C1248 1.378 . S
C1256 C1251 1.350 . S
C1257 H1244 0.929 . S
C1257 C1249 1.433 . S
C1257 N1259 1.384 . S
N1258 C1254 1.427 . S
N1258 C1255 1.384 . S
N1259 C1251 1.427 . S
N1259 C1257 1.384 . S
H1260 C1266 0.930 . S
H1261 C1270 0.930 . S
H1262 C1275 0.929 . S
H1263 C1273 0.929 . S
H1264 C1268 0.929 . S
H1265 C1274 0.929 . S
C1266 H1260 0.930 . S
C1266 C1267 1.367 . S
C1266 C1274 1.378 . S
C1267 C1266 1.367 . S
C1267 C1275 1.433 . S
C1268 H1264 0.929 . S
C1268 C1270 1.378 . S
C1268 C1272 1.350 . S
C1269 C1272 1.463 . S
C1269 C1274 1.350 . S
C1269 N1277 1.427 . S
C1270 H1261 0.930 . S
C1270 C1268 1.378 . S
C1270 C1271 1.367 . S
C1271 C1270 1.367 . S
C1271 C1273 1.433 . S
C1272 C1268 1.350 . S
C1272 C1269 1.463 . S
C1272 N1276 1.427 . S
C1273 H1263 0.929 . S
C1273 C1271 1.433 . S
C1273 N1276 1.384 . S
C1274 H1265 0.929 . S
C1274 C1266 1.378 . S
C1274 C1269 1.350 . S
C1275 H1262 0.929 . S
C1275 C1267 1.433 . S
C1275 N1277 1.384 . S
N1276 C1272 1.427 . S
N1276 C1273 1.384 . S
N1277 C1269 1.427 . S
N1277 C1275 1.384 . S
H1278 C1284 0.930 . S
H1279 C1288 0.930 . S
H1280 C1293 0.929 . S
H1281 C1291 0.929 . S
H1282 C1286 0.929 . S
H1283 C1292 0.929 . S
C1284 H1278 0.930 . S
C1284 C1285 1.367 . S
C1284 C1292 1.378 . S
C1285 C1284 1.367 . S
C1285 C1293 1.433 . S
C1286 H1282 0.929 . S
C1286 C1288 1.378 . S
C1286 C1290 1.350 . S
C1287 C1290 1.463 . S
C1287 C1292 1.350 . S
C1287 N1295 1.427 . S
C1288 H1279 0.930 . S
C1288 C1286 1.378 . S
C1288 C1289 1.367 . S
C1289 C1288 1.367 . S
C1289 C1291 1.433 . S
C1290 C1286 1.350 . S
C1290 C1287 1.463 . S
C1290 N1294 1.427 . S
C1291 H1281 0.929 . S
C1291 C1289 1.433 . S
C1291 N1294 1.384 . S
C1292 H1283 0.929 . S
C1292 C1284 1.378 . S
C1292 C1287 1.350 . S
C1293 H1280 0.929 . S
C1293 C1285 1.433 . S
C1293 N1295 1.384 . S
N1294 C1290 1.427 . S
N1294 C1291 1.384 . S
N1295 C1287 1.427 . S
N1295 C1293 1.384 . S
H1296 C1302 0.930 . S
H1297 C1306 0.930 . S
H1298 C1311 0.929 . S
H1299 C1309 0.929 . S
H1300 C1304 0.929 . S
H1301 C1310 0.929 . S
C1302 H1296 0.930 . S
C1302 C1303 1.367 . S
C1302 C1310 1.378 . S
C1303 C1302 1.367 . S
C1303 C1311 1.433 . S
C1304 H1300 0.929 . S
C1304 C1306 1.378 . S
C1304 C1308 1.350 . S
C1305 C1308 1.463 . S
C1305 C1310 1.350 . S
C1305 N1313 1.427 . S
C1306 H1297 0.930 . S
C1306 C1304 1.378 . S
C1306 C1307 1.367 . S
C1307 C1306 1.367 . S
C1307 C1309 1.433 . S
C1308 C1304 1.350 . S
C1308 C1305 1.463 . S
C1308 N1312 1.427 . S
C1309 H1299 0.929 . S
C1309 C1307 1.433 . S
C1309 N1312 1.384 . S
C1310 H1301 0.929 . S
C1310 C1302 1.378 . S
C1310 C1305 1.350 . S
C1311 H1298 0.929 . S
C1311 C1303 1.433 . S
C1311 N1313 1.384 . S
N1312 C1308 1.427 . S
N1312 C1309 1.384 . S
N1313 C1305 1.427 . S
N1313 C1311 1.384 . S
H1314 C1320 0.930 . S
H1315 C1324 0.930 . S
H1316 C1329 0.929 . S
H1317 C1327 0.929 . S
H1318 C1322 0.929 . S
H1319 C1328 0.929 . S
C1320 H1314 0.930 . S
C1320 C1321 1.367 . S
C1320 C1328 1.378 . S
C1321 C1320 1.367 . S
C1321 C1329 1.433 . S
C1322 H1318 0.929 . S
C1322 C1324 1.378 . S
C1322 C1326 1.350 . S
C1323 C1326 1.463 . S
C1323 C1328 1.350 . S
C1323 N1331 1.427 . S
C1324 H1315 0.930 . S
C1324 C1322 1.378 . S
C1324 C1325 1.367 . S
C1325 C1324 1.367 . S
C1325 C1327 1.433 . S
C1326 C1322 1.350 . S
C1326 C1323 1.463 . S
C1326 N1330 1.427 . S
C1327 H1317 0.929 . S
C1327 C1325 1.433 . S
C1327 N1330 1.384 . S
C1328 H1319 0.929 . S
C1328 C1320 1.378 . S
C1328 C1323 1.350 . S
C1329 H1316 0.929 . S
C1329 C1321 1.433 . S
C1329 N1331 1.384 . S
N1330 C1326 1.427 . S
N1330 C1327 1.384 . S
N1331 C1323 1.427 . S
N1331 C1329 1.384 . S
H1332 C1338 0.930 . S
H1333 C1342 0.930 . S
H1334 C1347 0.929 . S
H1335 C1345 0.929 . S
H1336 C1340 0.929 . S
H1337 C1346 0.929 . S
C1338 H1332 0.930 . S
C1338 C1339 1.367 . S
C1338 C1346 1.378 . S
C1339 C1338 1.367 . S
C1339 C1347 1.433 . S
C1340 H1336 0.929 . S
C1340 C1342 1.378 . S
C1340 C1344 1.350 . S
C1341 C1344 1.463 . S
C1341 C1346 1.350 . S
C1341 N1349 1.427 . S
C1342 H1333 0.930 . S
C1342 C1340 1.378 . S
C1342 C1343 1.367 . S
C1343 C1342 1.367 . S
C1343 C1345 1.433 . S
C1344 C1340 1.350 . S
C1344 C1341 1.463 . S
C1344 N1348 1.427 . S
C1345 H1335 0.929 . S
C1345 C1343 1.433 . S
C1345 N1348 1.384 . S
C1346 H1337 0.929 . S
C1346 C1338 1.378 . S
C1346 C1341 1.350 . S
C1347 H1334 0.929 . S
C1347 C1339 1.433 . S
C1347 N1349 1.384 . S
N1348 C1344 1.427 . S
N1348 C1345 1.384 . S
N1349 C1341 1.427 . S
N1349 C1347 1.384 . S
H1350 C1356 0.930 . S
H1351 C1360 0.930 . S
H1352 C1365 0.929 . S
H1353 C1363 0.929 . S
H1354 C1358 0.929 . S
H1355 C1364 0.929 . S
C1356 H1350 0.930 . S
C1356 C1357 1.367 . S
C1356 C1364 1.378 . S
C1357 C1356 1.367 . S
C1357 C1365 1.433 . S
C1358 H1354 0.929 . S
C1358 C1360 1.378 . S
C1358 C1362 1.350 . S
C1359 C1362 1.463 . S
C1359 C1364 1.350 . S
C1359 N1367 1.427 . S
C1360 H1351 0.930 . S
C1360 C1358 1.378 . S
C1360 C1361 1.367 . S
C1361 C1360 1.367 . S
C1361 C1363 1.433 . S
C1362 C1358 1.350 . S
C1362 C1359 1.463 . S
C1362 N1366 1.427 . S
C1363 H1353 0.929 . S
C1363 C1361 1.433 . S
C1363 N1366 1.384 . S
C1364 H1355 0.929 . S
C1364 C1356 1.378 . S
C1364 C1359 1.350 . S
C1365 H1352 0.929 . S
C1365 C1357 1.433 . S
C1365 N1367 1.384 . S
N1366 C1362 1.427 . S
N1366 C1363 1.384 . S
N1367 C1359 1.427 . S
N1367 C1365 1.384 . S
H1368 C1374 0.930 . S
H1369 C1378 0.930 . S
H1370 C1383 0.929 . S
H1371 C1381 0.929 . S
H1372 C1376 0.929 . S
H1373 C1382 0.929 . S
C1374 H1368 0.930 . S
C1374 C1375 1.367 . S
C1374 C1382 1.378 . S
C1375 C1374 1.367 . S
C1375 C1383 1.433 . S
C1376 H1372 0.929 . S
C1376 C1378 1.378 . S
C1376 C1380 1.350 . S
C1377 C1380 1.463 . S
C1377 C1382 1.350 . S
C1377 N1385 1.427 . S
C1378 H1369 0.930 . S
C1378 C1376 1.378 . S
C1378 C1379 1.367 . S
C1379 C1378 1.367 . S
C1379 C1381 1.433 . S
C1380 C1376 1.350 . S
C1380 C1377 1.463 . S
C1380 N1384 1.427 . S
C1381 H1371 0.929 . S
C1381 C1379 1.433 . S
C1381 N1384 1.384 . S
C1382 H1373 0.929 . S
C1382 C1374 1.378 . S
C1382 C1377 1.350 . S
C1383 H1370 0.929 . S
C1383 C1375 1.433 . S
C1383 N1385 1.384 . S
N1384 C1380 1.427 . S
N1384 C1381 1.384 . S
N1385 C1377 1.427 . S
N1385 C1383 1.384 . S
H1386 C1392 0.930 . S
H1387 C1396 0.930 . S
H1388 C1401 0.929 . S
H1389 C1399 0.929 . S
H1390 C1394 0.929 . S
H1391 C1400 0.929 . S
C1392 H1386 0.930 . S
C1392 C1393 1.367 . S
C1392 C1400 1.378 . S
C1393 C1392 1.367 . S
C1393 C1401 1.433 . S
C1394 H1390 0.929 . S
C1394 C1396 1.378 . S
C1394 C1398 1.350 . S
C1395 C1398 1.463 . S
C1395 C1400 1.350 . S
C1395 N1403 1.427 . S
C1396 H1387 0.930 . S
C1396 C1394 1.378 . S
C1396 C1397 1.367 . S
C1397 C1396 1.367 . S
C1397 C1399 1.433 . S
C1398 C1394 1.350 . S
C1398 C1395 1.463 . S
C1398 N1402 1.427 . S
C1399 H1389 0.929 . S
C1399 C1397 1.433 . S
C1399 N1402 1.384 . S
C1400 H1391 0.929 . S
C1400 C1392 1.378 . S
C1400 C1395 1.350 . S
C1401 H1388 0.929 . S
C1401 C1393 1.433 . S
C1401 N1403 1.384 . S
N1402 C1398 1.427 . S
N1402 C1399 1.384 . S
N1403 C1395 1.427 . S
N1403 C1401 1.384 . S
C601 C120 1.488 . S
C605 C21 1.487 . S
C619 C153 1.488 . S
C623 C54 1.487 . S
C637 C186 1.487 . S
C641 C87 1.488 . S
C655 C40 1.468 . S
C659 C172 1.468 . S
C673 C106 1.463 . S
C677 C73 1.463 . S
C691 C139 1.464 . S
C695 C7 1.463 . S
C709 C318 1.489 . S
C713 C219 1.488 . S
C727 C252 1.488 . S
C731 C351 1.487 . S
C745 C285 1.488 . S
C749 C384 1.488 . S
C763 C238 1.468 . S
C767 C370 1.468 . S
C781 C271 1.467 . S
C785 C304 1.467 . S
C799 C337 1.464 . S
C803 C205 1.465 . S
C817 C417 1.488 . S
C821 C516 1.488 . S
C835 C549 1.487 . S
C839 C450 1.488 . S
C853 C483 1.489 . S
C857 C582 1.488 . S
C871 C436 1.464 . S
C875 C568 1.463 . S
C889 C502 1.468 . S
C893 C469 1.468 . S
C907 C403 1.467 . S
C911 C535 1.467 . S
C925 C18 1.549 . S
C929 C579 1.549 . S
C943 C513 1.550 . S
C947 C51 1.550 . S
C961 C546 1.546 . S
C965 C84 1.546 . S
C979 C249 1.548 . S
C983 C117 1.548 . S
C997 C282 1.546 . S
C1001 C150 1.546 . S
C1015 C216 1.549 . S
C1019 C183 1.549 . S
C1033 C447 1.546 . S
C1037 C315 1.546 . S
C1051 C480 1.547 . S
C1055 C348 1.547 . S
C1069 C381 1.550 . S
C1073 C414 1.550 . S
C1087 N2 1.401 . S
C1091 N13 1.403 . S
C1105 N35 1.398 . S
C1109 N46 1.400 . S
C1123 N68 1.402 . S
C1127 N79 1.404 . S
C1141 N112 1.402 . S
C1145 N101 1.400 . S
C1159 N145 1.402 . S
C1163 N134 1.400 . S
C1177 N167 1.405 . S
C1181 N178 1.407 . S
C1195 N200 1.405 . S
C1199 N211 1.406 . S
C1213 N244 1.402 . S
C1217 N233 1.400 . S
C1231 N277 1.403 . S
C1235 N266 1.401 . S
C1249 N299 1.398 . S
C1253 N310 1.400 . S
C1267 N332 1.405 . S
C1271 N343 1.407 . S
C1285 N365 1.405 . S
C1289 N376 1.406 . S
C1303 N398 1.404 . S
C1307 N409 1.406 . S
C1321 N431 1.406 . S
C1325 N442 1.408 . S
C1339 N475 1.402 . S
C1343 N464 1.400 . S
C1357 N497 1.409 . S
C1361 N508 1.411 . S
C1375 N541 1.409 . S
C1379 N530 1.407 . S
C1393 N574 1.411 . S
C1397 N563 1.409 . S
