# Generated by pormake.
# Topology lcy-a, (4)-cn, num edge types: 1
# Building blocks:
#     Node 0, Type 0, BuildingBlock: NAHDIM_clean_sbu_0, # of connection points: 4
#     Node 1, Type 0, BuildingBlock: NAHDIM_clean_sbu_0, # of connection points: 4
#     Node 2, Type 0, BuildingBlock: NAHDIM_clean_sbu_0, # of connection points: 4
#     Node 3, Type 0, BuildingBlock: NAHDIM_clean_sbu_0, # of connection points: 4
#     Node 4, Type 0, BuildingBlock: NAHDIM_clean_sbu_0, # of connection points: 4
#     Node 5, Type 0, BuildingBlock: NAHDIM_clean_sbu_0, # of connection points: 4
#     Node 6, Type 0, BuildingBlock: NAHDIM_clean_sbu_0, # of connection points: 4
#     Node 7, Type 0, BuildingBlock: NAHDIM_clean_sbu_0, # of connection points: 4
#     Node 8, Type 0, BuildingBlock: NAHDIM_clean_sbu_0, # of connection points: 4
#     Node 9, Type 0, BuildingBlock: NAHDIM_clean_sbu_0, # of connection points: 4
#     Node 10, Type 0, BuildingBlock: NAHDIM_clean_sbu_0, # of connection points: 4
#     Node 11, Type 0, BuildingBlock: NAHDIM_clean_sbu_0, # of connection points: 4
#     Node 12, Type 0, BuildingBlock: NAHDIM_clean_sbu_0, # of connection points: 4
#     Node 13, Type 0, BuildingBlock: NAHDIM_clean_sbu_0, # of connection points: 4
#     Node 14, Type 0, BuildingBlock: NAHDIM_clean_sbu_0, # of connection points: 4
#     Node 15, Type 0, BuildingBlock: NAHDIM_clean_sbu_0, # of connection points: 4
#     Node 16, Type 0, BuildingBlock: NAHDIM_clean_sbu_0, # of connection points: 4
#     Node 17, Type 0, BuildingBlock: NAHDIM_clean_sbu_0, # of connection points: 4
#     Node 18, Type 0, BuildingBlock: NAHDIM_clean_sbu_0, # of connection points: 4
#     Node 19, Type 0, BuildingBlock: NAHDIM_clean_sbu_0, # of connection points: 4
#     Node 20, Type 0, BuildingBlock: NAHDIM_clean_sbu_0, # of connection points: 4
#     Node 21, Type 0, BuildingBlock: NAHDIM_clean_sbu_0, # of connection points: 4
#     Node 22, Type 0, BuildingBlock: NAHDIM_clean_sbu_0, # of connection points: 4
#     Node 23, Type 0, BuildingBlock: NAHDIM_clean_sbu_0, # of connection points: 4
#     Edge 24, Type (0, 0), BuildingBlock: UVAHIK_clean_linker_0, # of connection points: 2
#     Edge 25, Type (0, 0), BuildingBlock: UVAHIK_clean_linker_0, # of connection points: 2
#     Edge 26, Type (0, 0), BuildingBlock: UVAHIK_clean_linker_0, # of connection points: 2
#     Edge 27, Type (0, 0), BuildingBlock: UVAHIK_clean_linker_0, # of connection points: 2
#     Edge 28, Type (0, 0), BuildingBlock: UVAHIK_clean_linker_0, # of connection points: 2
#     Edge 29, Type (0, 0), BuildingBlock: UVAHIK_clean_linker_0, # of connection points: 2
#     Edge 30, Type (0, 0), BuildingBlock: UVAHIK_clean_linker_0, # of connection points: 2
#     Edge 31, Type (0, 0), BuildingBlock: UVAHIK_clean_linker_0, # of connection points: 2
#     Edge 32, Type (0, 0), BuildingBlock: UVAHIK_clean_linker_0, # of connection points: 2
#     Edge 33, Type (0, 0), BuildingBlock: UVAHIK_clean_linker_0, # of connection points: 2
#     Edge 34, Type (0, 0), BuildingBlock: UVAHIK_clean_linker_0, # of connection points: 2
#     Edge 35, Type (0, 0), BuildingBlock: UVAHIK_clean_linker_0, # of connection points: 2
#     Edge 36, Type (0, 0), BuildingBlock: UVAHIK_clean_linker_0, # of connection points: 2
#     Edge 37, Type (0, 0), BuildingBlock: UVAHIK_clean_linker_0, # of connection points: 2
#     Edge 38, Type (0, 0), BuildingBlock: UVAHIK_clean_linker_0, # of connection points: 2
#     Edge 39, Type (0, 0), BuildingBlock: UVAHIK_clean_linker_0, # of connection points: 2
#     Edge 40, Type (0, 0), BuildingBlock: UVAHIK_clean_linker_0, # of connection points: 2
#     Edge 41, Type (0, 0), BuildingBlock: UVAHIK_clean_linker_0, # of connection points: 2
#     Edge 42, Type (0, 0), BuildingBlock: UVAHIK_clean_linker_0, # of connection points: 2
#     Edge 43, Type (0, 0), BuildingBlock: UVAHIK_clean_linker_0, # of connection points: 2
#     Edge 44, Type (0, 0), BuildingBlock: UVAHIK_clean_linker_0, # of connection points: 2
#     Edge 45, Type (0, 0), BuildingBlock: UVAHIK_clean_linker_0, # of connection points: 2
#     Edge 46, Type (0, 0), BuildingBlock: UVAHIK_clean_linker_0, # of connection points: 2
#     Edge 47, Type (0, 0), BuildingBlock: UVAHIK_clean_linker_0, # of connection points: 2
#     Edge 48, Type (0, 0), BuildingBlock: UVAHIK_clean_linker_0, # of connection points: 2
#     Edge 49, Type (0, 0), BuildingBlock: UVAHIK_clean_linker_0, # of connection points: 2
#     Edge 50, Type (0, 0), BuildingBlock: UVAHIK_clean_linker_0, # of connection points: 2
#     Edge 51, Type (0, 0), BuildingBlock: UVAHIK_clean_linker_0, # of connection points: 2
#     Edge 52, Type (0, 0), BuildingBlock: UVAHIK_clean_linker_0, # of connection points: 2
#     Edge 53, Type (0, 0), BuildingBlock: UVAHIK_clean_linker_0, # of connection points: 2
#     Edge 54, Type (0, 0), BuildingBlock: UVAHIK_clean_linker_0, # of connection points: 2
#     Edge 55, Type (0, 0), BuildingBlock: UVAHIK_clean_linker_0, # of connection points: 2
#     Edge 56, Type (0, 0), BuildingBlock: UVAHIK_clean_linker_0, # of connection points: 2
#     Edge 57, Type (0, 0), BuildingBlock: UVAHIK_clean_linker_0, # of connection points: 2
#     Edge 58, Type (0, 0), BuildingBlock: UVAHIK_clean_linker_0, # of connection points: 2
#     Edge 59, Type (0, 0), BuildingBlock: UVAHIK_clean_linker_0, # of connection points: 2
#     Edge 60, Type (0, 0), BuildingBlock: UVAHIK_clean_linker_0, # of connection points: 2
#     Edge 61, Type (0, 0), BuildingBlock: UVAHIK_clean_linker_0, # of connection points: 2
#     Edge 62, Type (0, 0), BuildingBlock: UVAHIK_clean_linker_0, # of connection points: 2
#     Edge 63, Type (0, 0), BuildingBlock: UVAHIK_clean_linker_0, # of connection points: 2
#     Edge 64, Type (0, 0), BuildingBlock: UVAHIK_clean_linker_0, # of connection points: 2
#     Edge 65, Type (0, 0), BuildingBlock: UVAHIK_clean_linker_0, # of connection points: 2
#     Edge 66, Type (0, 0), BuildingBlock: UVAHIK_clean_linker_0, # of connection points: 2
#     Edge 67, Type (0, 0), BuildingBlock: UVAHIK_clean_linker_0, # of connection points: 2
#     Edge 68, Type (0, 0), BuildingBlock: UVAHIK_clean_linker_0, # of connection points: 2
#     Edge 69, Type (0, 0), BuildingBlock: UVAHIK_clean_linker_0, # of connection points: 2
#     Edge 70, Type (0, 0), BuildingBlock: UVAHIK_clean_linker_0, # of connection points: 2
#     Edge 71, Type (0, 0), BuildingBlock: UVAHIK_clean_linker_0, # of connection points: 2
# Relax obj value: 0.398
# Max RMSD: 0.211
# Mean RMSD: 0.211
data_MOF--net-lcy-a--node1-NAHDIM_clean_sbu_0--edge1-UVAHIK_clean_linker_0
_symmetry_space_group_name_H-M    P1
_symmetry_Int_Tables_number       1
_symmetry_cell_setting            triclinic
loop_
_symmetry_equiv_pos_as_xyz
'x, y, z'
_cell_length_a     71.956345
_cell_length_b     71.952877
_cell_length_c     71.934047
_cell_angle_alpha  89.972581
_cell_angle_beta   90.008605
_cell_angle_gamma 90.01065
loop_
_atom_site_label
_atom_site_type_symbol
_atom_site_fract_x
_atom_site_fract_y
_atom_site_fract_z
_atom_type_partial_charge
C0 C 0.1595 0.27816 0.39529 0.0
O1 O 0.16489 0.27249 0.37879 0.0
O2 O 0.20394 0.28428 0.38002 0.0
Zn3 Zn 0.1873 0.30513 0.38824 0.0
O4 O 0.20194 0.32073 0.40614 0.0
C5 C 0.17919 0.31294 0.35009 0.0
O6 O 0.18098 0.29482 0.34884 0.0
O7 O 0.166 0.2933 0.40165 0.0
C8 C 0.21826 0.32562 0.40149 0.0
O9 O 0.22455 0.32091 0.385 0.0
C10 C 0.21088 0.27352 0.39218 0.0
O11 O 0.20732 0.27655 0.40984 0.0
O12 O 0.18018 0.32054 0.36601 0.0
C13 C 0.96572 0.90686 0.65229 0.0
O14 O 0.97289 0.91382 0.63702 0.0
O15 O 0.95607 0.94966 0.63479 0.0
Zn16 Zn 0.9364 0.93114 0.64203 0.0
O17 O 0.91844 0.9445 0.65867 0.0
C18 C 0.93244 0.92016 0.60397 0.0
O19 O 0.95068 0.92021 0.60482 0.0
O20 O 0.94911 0.91101 0.65659 0.0
C21 C 0.91141 0.95963 0.65289 0.0
O22 O 0.91533 0.96532 0.63597 0.0
C23 C 0.96271 0.96058 0.64698 0.0
O24 O 0.95646 0.95969 0.66412 0.0
O25 O 0.92321 0.92299 0.61876 0.0
C26 C 0.33974 0.71123 0.8997 0.0
O27 O 0.33286 0.71762 0.88403 0.0
O28 O 0.29614 0.70321 0.8833 0.0
Zn29 Zn 0.31276 0.68302 0.89316 0.0
O30 O 0.29844 0.66874 0.91239 0.0
C31 C 0.32818 0.67094 0.85768 0.0
O32 O 0.33562 0.6876 0.85719 0.0
O33 O 0.33437 0.69548 0.90562 0.0
C34 C 0.28215 0.66314 0.90855 0.0
O35 O 0.27533 0.6664 0.89192 0.0
C36 C 0.28695 0.71338 0.89443 0.0
O37 O 0.28811 0.71028 0.91239 0.0
O38 O 0.31916 0.66596 0.87202 0.0
C39 C 0.53302 0.08956 0.14666 0.0
O40 O 0.52454 0.08269 0.13201 0.0
O41 O 0.53776 0.04511 0.13013 0.0
Zn42 Zn 0.5593 0.06117 0.13793 0.0
O43 O 0.57476 0.04696 0.15632 0.0
C44 C 0.56659 0.06912 0.09977 0.0
O45 O 0.54834 0.06908 0.09917 0.0
O46 O 0.54902 0.08347 0.15095 0.0
C47 C 0.57812 0.02978 0.15401 0.0
O48 O 0.57192 0.02144 0.139 0.0
C49 C 0.52813 0.03602 0.14182 0.0
O50 O 0.53248 0.03677 0.15954 0.0
O51 O 0.57463 0.06715 0.11538 0.0
C52 C 0.65476 0.21079 0.59539 0.0
O53 O 0.66247 0.2189 0.60982 0.0
O54 O 0.69941 0.20369 0.6101 0.0
Zn55 Zn 0.68148 0.18305 0.6042 0.0
O56 O 0.69431 0.16574 0.58653 0.0
C57 C 0.67489 0.1785 0.64305 0.0
O58 O 0.67656 0.19668 0.64261 0.0
O59 O 0.65965 0.19436 0.59119 0.0
C60 C 0.71057 0.16003 0.59036 0.0
O61 O 0.71816 0.16489 0.60625 0.0
C62 C 0.70894 0.21135 0.59736 0.0
O63 O 0.70716 0.20556 0.58013 0.0
O64 O 0.67528 0.16952 0.62785 0.0
C65 C 0.0289 0.40739 0.84545 0.0
O66 O 0.02258 0.41432 0.86111 0.0
O67 O 0.03792 0.45157 0.8602 0.0
Zn68 Zn 0.05773 0.4334 0.85262 0.0
O69 O 0.07442 0.44634 0.83442 0.0
C70 C 0.06411 0.42498 0.8909 0.0
O71 O 0.04595 0.42675 0.8914 0.0
O72 O 0.04484 0.41237 0.83971 0.0
C73 C 0.0807 0.46231 0.83856 0.0
O74 O 0.07666 0.46945 0.85487 0.0
C75 C 0.02817 0.45965 0.84789 0.0
O76 O 0.03154 0.45634 0.83025 0.0
O77 O 0.07236 0.42608 0.87531 0.0
C78 C 0.84229 0.78164 0.09473 0.0
O79 O 0.83608 0.77445 0.11032 0.0
O80 O 0.79872 0.78789 0.11183 0.0
Zn81 Zn 0.81526 0.80891 0.10379 0.0
O82 O 0.80035 0.82472 0.08633 0.0
C83 C 0.82606 0.81576 0.14161 0.0
O84 O 0.82932 0.7978 0.14135 0.0
O85 O 0.83667 0.79766 0.08988 0.0
C86 C 0.78454 0.83039 0.09177 0.0
O87 O 0.77901 0.82627 0.10869 0.0
C88 C 0.79078 0.77773 0.09977 0.0
O89 O 0.79335 0.78129 0.08203 0.0
O90 O 0.82158 0.82384 0.12655 0.0
C91 C 0.46579 0.59004 0.34494 0.0
O92 O 0.47213 0.58417 0.36103 0.0
O93 O 0.45967 0.54576 0.36085 0.0
Zn94 Zn 0.43882 0.56243 0.35265 0.0
O95 O 0.42299 0.54778 0.33499 0.0
C96 C 0.4314 0.57034 0.39089 0.0
O97 O 0.44958 0.56898 0.39186 0.0
O98 O 0.45035 0.58382 0.33906 0.0
C99 C 0.41753 0.53179 0.34009 0.0
O100 O 0.42191 0.52584 0.3568 0.0
C101 C 0.4699 0.5377 0.34893 0.0
O102 O 0.46649 0.54012 0.33115 0.0
O103 O 0.4236 0.56936 0.37506 0.0
C104 C 0.42328 0.16234 0.29514 0.0
O105 O 0.43156 0.17064 0.30914 0.0
O106 O 0.38462 0.20424 0.2833 0.0
Zn107 Zn 0.39361 0.18768 0.30384 0.0
O108 O 0.41176 0.20263 0.31891 0.0
C109 C 0.35627 0.17697 0.31133 0.0
O110 O 0.35565 0.17694 0.29307 0.0
O111 O 0.40651 0.1664 0.29142 0.0
C112 C 0.40747 0.21109 0.3338 0.0
O113 O 0.39046 0.20973 0.34029 0.0
C114 C 0.39647 0.21202 0.27276 0.0
O115 O 0.41426 0.20918 0.27577 0.0
O116 O 0.3717 0.18005 0.31934 0.0
C117 C 0.09081 0.14792 0.52741 0.0
O118 O 0.08202 0.13299 0.52162 0.0
O119 O 0.04411 0.14206 0.5329 0.0
Zn120 Zn 0.06163 0.14758 0.55392 0.0
O121 O 0.05118 0.16901 0.5685 0.0
C122 C 0.05068 0.12139 0.58109 0.0
O123 O 0.03752 0.13388 0.58306 0.0
O124 O 0.08554 0.15564 0.54238 0.0
C125 C 0.05507 0.17278 0.5853 0.0
O126 O 0.06685 0.16223 0.59443 0.0
C127 C 0.03454 0.15464 0.52501 0.0
O128 O 0.03571 0.17186 0.53095 0.0
O129 O 0.06361 0.12432 0.5694 0.0
C130 C 0.0967 0.84582 0.788 0.0
O131 O 0.11223 0.83965 0.78067 0.0
O132 O 0.1102 0.80033 0.7912 0.0
Zn133 Zn 0.10447 0.81656 0.81319 0.0
O134 O 0.0872 0.80207 0.82959 0.0
C135 C 0.14349 0.82245 0.81773 0.0
O136 O 0.14271 0.8229 0.79949 0.0
O137 O 0.09128 0.83909 0.8034 0.0
C138 C 0.09236 0.78599 0.83475 0.0
O139 O 0.10896 0.78008 0.82997 0.0
C140 C 0.09746 0.7912 0.78306 0.0
O141 O 0.08031 0.79235 0.7892 0.0
O142 O 0.12842 0.82133 0.82688 0.0
C143 C 0.40538 0.84563 0.03034 0.0
O144 O 0.41306 0.86062 0.02331 0.0
O145 O 0.44966 0.86014 0.03899 0.0
Zn146 Zn 0.43168 0.85283 0.05908 0.0
O147 O 0.4445 0.83414 0.07531 0.0
C148 C 0.42283 0.891 0.06556 0.0
O149 O 0.4215 0.89092 0.04736 0.0
O150 O 0.41 0.84045 0.0466 0.0
C151 C 0.46029 0.83817 0.08208 0.0
O152 O 0.46732 0.85472 0.0789 0.0
C153 C 0.45792 0.84781 0.02943 0.0
O154 O 0.45488 0.83018 0.03308 0.0
O155 O 0.4257 0.87573 0.07397 0.0
C156 C 0.89724 0.33669 0.71499 0.0
O157 O 0.88136 0.33053 0.72158 0.0
O158 O 0.88483 0.29083 0.71306 0.0
Zn159 Zn 0.89232 0.30593 0.69082 0.0
O160 O 0.91193 0.2912 0.67756 0.0
C161 C 0.86813 0.30619 0.65819 0.0
O162 O 0.88305 0.30076 0.6492 0.0
O163 O 0.90389 0.32926 0.70043 0.0
C164 C 0.923 0.2979 0.66555 0.0
O165 O 0.92123 0.31532 0.66035 0.0
C166 C 0.89718 0.28419 0.72382 0.0
O167 O 0.91479 0.2873 0.72015 0.0
O168 O 0.86933 0.31001 0.67539 0.0
C169 C 0.90182 0.65048 0.95863 0.0
O170 O 0.90738 0.63444 0.96534 0.0
O171 O 0.94685 0.63579 0.95576 0.0
Zn172 Zn 0.93128 0.64305 0.93369 0.0
O173 O 0.94657 0.66078 0.91856 0.0
C174 C 0.9251 0.60446 0.92659 0.0
O175 O 0.92565 0.60384 0.94483 0.0
O176 O 0.90897 0.65637 0.9436 0.0
C177 C 0.96297 0.65591 0.91421 0.0
O178 O 0.9688 0.63927 0.91896 0.0
C179 C 0.95518 0.64819 0.96518 0.0
O180 O 0.95362 0.6657 0.96024 0.0
O181 O 0.92588 0.62017 0.91854 0.0
C182 C 0.59929 0.65817 0.21471 0.0
O183 O 0.61536 0.66336 0.22164 0.0
O184 O 0.6151 0.70292 0.212 0.0
Zn185 Zn 0.6077 0.68757 0.18989 0.0
O186 O 0.59095 0.70368 0.17439 0.0
C187 C 0.64621 0.67998 0.18309 0.0
O188 O 0.64694 0.68105 0.2013 0.0
O189 O 0.59367 0.66562 0.19972 0.0
C190 C 0.57466 0.69913 0.1693 0.0
O191 O 0.56819 0.68261 0.17363 0.0
C192 C 0.60251 0.71067 0.22164 0.0
O193 O 0.58503 0.70859 0.21678 0.0
O194 O 0.63051 0.68116 0.17507 0.0
C195 C 0.58006 0.32697 0.45269 0.0
O196 O 0.57037 0.31938 0.43923 0.0
O197 O 0.54149 0.36799 0.4692 0.0
Zn198 Zn 0.55526 0.35814 0.44707 0.0
O199 O 0.53747 0.34129 0.43366 0.0
C200 C 0.56557 0.39531 0.43736 0.0
O201 O 0.56617 0.39707 0.45553 0.0
O202 O 0.57695 0.34376 0.45716 0.0
C203 C 0.53899 0.33704 0.4166 0.0
O204 O 0.55296 0.34372 0.40691 0.0
C205 C 0.53587 0.35648 0.48137 0.0
O206 O 0.53933 0.3387 0.47902 0.0
O207 O 0.5623 0.37941 0.43041 0.0
C208 C 0.27909 0.40211 0.15399 0.0
O209 O 0.27304 0.38582 0.15959 0.0
O210 O 0.2844 0.38686 0.19863 0.0
Zn211 Zn 0.30551 0.39473 0.18214 0.0
O212 O 0.32133 0.41223 0.19698 0.0
C213 C 0.31251 0.35635 0.17467 0.0
O214 O 0.29434 0.35559 0.17623 0.0
O215 O 0.29424 0.40831 0.1606 0.0
C216 C 0.32643 0.40699 0.21306 0.0
O217 O 0.32176 0.39029 0.21881 0.0
C218 C 0.27402 0.39894 0.20625 0.0
O219 O 0.27744 0.41666 0.20346 0.0
O220 O 0.3205 0.37209 0.1754 0.0
C221 C 0.7806 0.09364 0.83962 0.0
O222 O 0.77418 0.1099 0.83436 0.0
O223 O 0.78567 0.1105 0.79546 0.0
Zn224 Zn 0.80692 0.1018 0.81139 0.0
O225 O 0.82194 0.08408 0.79595 0.0
C226 C 0.8149 0.13966 0.82027 0.0
O227 O 0.7967 0.14076 0.81941 0.0
O228 O 0.79584 0.08789 0.83282 0.0
C229 C 0.8258 0.08856 0.77931 0.0
O230 O 0.82058 0.10493 0.7731 0.0
C231 C 0.77451 0.09866 0.78859 0.0
O232 O 0.77723 0.08091 0.7919 0.0
O233 O 0.82259 0.12387 0.81845 0.0
C234 C 0.14301 0.53072 0.08807 0.0
O235 O 0.12685 0.52386 0.083 0.0
O236 O 0.12782 0.5333 0.0432 0.0
Zn237 Zn 0.13433 0.55544 0.05884 0.0
O238 O 0.15038 0.57198 0.04299 0.0
C239 C 0.10867 0.58574 0.06527 0.0
O240 O 0.12342 0.59612 0.06241 0.0
O241 O 0.14859 0.54573 0.08065 0.0
C242 C 0.16686 0.57663 0.04732 0.0
O243 O 0.1738 0.57116 0.0633 0.0
C244 C 0.14063 0.52312 0.03655 0.0
O245 O 0.15806 0.52744 0.03987 0.0
O246 O 0.11046 0.56817 0.06555 0.0
C247 C 0.71322 0.90133 0.34118 0.0
O248 O 0.71924 0.88478 0.33637 0.0
O249 O 0.70963 0.8862 0.29622 0.0
Zn250 Zn 0.68803 0.89274 0.31264 0.0
O251 O 0.67044 0.90795 0.29713 0.0
C252 C 0.65876 0.86619 0.32036 0.0
O253 O 0.64776 0.8803 0.31673 0.0
O254 O 0.69844 0.90748 0.33376 0.0
C255 C 0.66981 0.92557 0.29801 0.0
O256 O 0.68034 0.9343 0.3101 0.0
C257 C 0.70807 0.87333 0.28426 0.0
O258 O 0.69212 0.86457 0.28266 0.0
O259 O 0.67622 0.86877 0.32065 0.0
C260 C 0.31888 0.45169 0.58239 0.0
O261 O 0.31044 0.43927 0.57202 0.0
O262 O 0.35896 0.46198 0.54331 0.0
Zn263 Zn 0.35068 0.4415 0.56037 0.0
O264 O 0.33451 0.42427 0.54551 0.0
C265 C 0.38816 0.43708 0.57225 0.0
O266 O 0.38765 0.45531 0.57114 0.0
O267 O 0.33632 0.45389 0.58074 0.0
C268 C 0.34029 0.41867 0.52979 0.0
O269 O 0.35692 0.42369 0.52416 0.0
C270 C 0.347 0.47176 0.53476 0.0
O271 O 0.32925 0.46807 0.53699 0.0
O272 O 0.37334 0.42793 0.56934 0.0
C273 C 0.21399 0.6016 0.65939 0.0
O274 O 0.22256 0.61691 0.66445 0.0
O275 O 0.21372 0.61758 0.70516 0.0
Zn276 Zn 0.19099 0.61072 0.69045 0.0
O277 O 0.17561 0.59405 0.70684 0.0
C278 C 0.15965 0.63551 0.68567 0.0
O279 O 0.14984 0.62043 0.68884 0.0
O280 O 0.19915 0.59694 0.66771 0.0
C281 C 0.17105 0.57759 0.70233 0.0
O282 O 0.1759 0.57112 0.68597 0.0
C283 C 0.22662 0.60594 0.70836 0.0
O284 O 0.22518 0.58897 0.70177 0.0
O285 O 0.17724 0.63429 0.68474 0.0
C286 C 0.64859 0.96046 0.90465 0.0
O287 O 0.6326 0.96711 0.91042 0.0
O288 O 0.63403 0.95709 0.94971 0.0
Zn289 Zn 0.64153 0.93522 0.93405 0.0
O290 O 0.65955 0.92023 0.94915 0.0
C291 C 0.60305 0.92765 0.92775 0.0
O292 O 0.60223 0.94588 0.92824 0.0
O293 O 0.65459 0.9454 0.91166 0.0
C294 C 0.65501 0.91607 0.96571 0.0
O295 O 0.63857 0.92106 0.97189 0.0
C296 C 0.64636 0.96778 0.95645 0.0
O297 O 0.66397 0.9642 0.95324 0.0
O298 O 0.61884 0.91979 0.92865 0.0
C299 C 0.84835 0.03068 0.40767 0.0
O300 O 0.8649 0.02428 0.41197 0.0
O301 O 0.86685 0.03388 0.4511 0.0
Zn302 Zn 0.85747 0.05576 0.43655 0.0
O303 O 0.84106 0.07056 0.45371 0.0
C304 C 0.88003 0.08835 0.42965 0.0
O305 O 0.86473 0.09733 0.43398 0.0
O306 O 0.84265 0.04547 0.4154 0.0
C307 C 0.82428 0.07456 0.4499 0.0
O308 O 0.81731 0.06952 0.4338 0.0
C309 C 0.85558 0.02375 0.46018 0.0
O310 O 0.83782 0.02798 0.4602 0.0
O311 O 0.87966 0.07072 0.42871 0.0
C312 C 0.10557 0.15208 0.49622 0.0
C313 C 0.10311 0.15823 0.51459 0.0
C314 C 0.11363 0.16375 0.48295 0.0
C315 C 0.13953 0.20795 0.47659 0.0
H316 H 0.11091 0.21114 0.43098 0.0
C317 C 0.14747 0.26962 0.42676 0.0
C318 C 0.14978 0.26517 0.40788 0.0
C319 C 0.14155 0.25613 0.43938 0.0
C320 C 0.11913 0.21029 0.44357 0.0
H321 H 0.10866 0.18078 0.53384 0.0
H322 H 0.12255 0.20112 0.51074 0.0
H323 H 0.10348 0.18721 0.45381 0.0
H324 H 0.1465 0.24342 0.38723 0.0
H325 H 0.13607 0.21991 0.40929 0.0
H326 H 0.15497 0.23125 0.46645 0.0
C327 C 0.11828 0.18731 0.50652 0.0
C328 C 0.11497 0.19652 0.4566 0.0
C329 C 0.11025 0.17565 0.51977 0.0
C330 C 0.14491 0.24729 0.4017 0.0
C331 C 0.13892 0.23381 0.41432 0.0
C332 C 0.14365 0.22175 0.46359 0.0
C333 C 0.11942 0.18175 0.48783 0.0
C334 C 0.12502 0.1953 0.47333 0.0
C335 C 0.13772 0.23795 0.43337 0.0
C336 C 0.13337 0.22318 0.44703 0.0
H337 H 0.10037 0.13866 0.49181 0.0
H338 H 0.1147 0.15893 0.46873 0.0
H339 H 0.14767 0.20722 0.48924 0.0
H340 H 0.15101 0.28329 0.43197 0.0
H341 H 0.14036 0.25981 0.45393 0.0
C342 C 0.97156 0.89405 0.68416 0.0
C343 C 0.978 0.89788 0.6661 0.0
C344 C 0.98398 0.88871 0.69811 0.0
C345 C 0.0333 0.89349 0.71023 0.0
H346 H 0.0228 0.85563 0.74711 0.0
C347 C 0.08896 0.86241 0.75852 0.0
C348 C 0.08376 0.85689 0.77652 0.0
C349 C 0.07577 0.86952 0.74621 0.0
C350 C 0.02579 0.86648 0.73711 0.0
H351 H 0.0023 0.89785 0.64823 0.0
H352 H 0.02386 0.8883 0.67249 0.0
H353 H 0.00012 0.86202 0.72272 0.0
H354 H 0.06091 0.85585 0.79619 0.0
H355 H 0.03793 0.86853 0.77473 0.0
H356 H 0.05902 0.89789 0.72451 0.0
C357 C 0.0093 0.88986 0.67596 0.0
C358 C 0.01284 0.87006 0.72309 0.0
C359 C 0.9969 0.89517 0.66202 0.0
C360 C 0.06535 0.85986 0.78238 0.0
C361 C 0.05215 0.86696 0.77004 0.0
C362 C 0.04623 0.88995 0.72425 0.0
C363 C 0.00306 0.8871 0.69426 0.0
C364 C 0.01657 0.88344 0.70938 0.0
C365 C 0.0571 0.8713 0.75164 0.0
C366 C 0.04271 0.87627 0.73773 0.0
H367 H 0.95708 0.896 0.68776 0.0
H368 H 0.97877 0.88669 0.71209 0.0
H369 H 0.03638 0.90419 0.70009 0.0
H370 H 0.10304 0.86036 0.75358 0.0
H371 H 0.08004 0.87264 0.73211 0.0
C372 C 0.35428 0.74204 0.9064 0.0
C373 C 0.35012 0.72385 0.91215 0.0
C374 C 0.3609 0.75509 0.91914 0.0
C375 C 0.38093 0.76078 0.96621 0.0
H376 H 0.35671 0.80891 0.96389 0.0
C377 C 0.39036 0.81487 0.02416 0.0
C378 C 0.39494 0.83287 0.0181 0.0
C379 C 0.38366 0.80168 0.01159 0.0
C380 C 0.36368 0.79558 0.96464 0.0
H381 H 0.35081 0.70474 0.9355 0.0
H382 H 0.36225 0.72753 0.95771 0.0
H383 H 0.34951 0.78539 0.9406 0.0
H384 H 0.39489 0.85151 0.99437 0.0
H385 H 0.38321 0.82853 0.97249 0.0
H386 H 0.39507 0.77099 0.99029 0.0
C387 C 0.36045 0.73172 0.94336 0.0
C388 C 0.35964 0.78214 0.95126 0.0
C389 C 0.35385 0.71865 0.93062 0.0
C390 C 0.39155 0.83775 -0.00051 0.0
C391 C 0.38481 0.82459 0.98694 0.0
C392 C 0.38495 0.77422 0.97962 0.0
C393 C 0.3635 0.75022 0.93788 0.0
C394 C 0.36826 0.76461 0.95186 0.0
C395 C 0.38132 0.80627 0.99274 0.0
C396 C 0.37638 0.79177 0.97896 0.0
H397 H 0.35171 0.74646 0.89224 0.0
H398 H 0.36354 0.76914 0.9144 0.0
H399 H 0.38793 0.74748 0.96695 0.0
H400 H 0.39273 0.81068 0.03843 0.0
H401 H 0.38075 0.78776 0.01653 0.0
C402 C 0.50343 0.10393 0.15779 0.0
C403 C 0.52257 0.10089 0.16021 0.0
C404 C 0.4928 0.11144 0.17218 0.0
C405 C 0.49515 0.1363 0.21701 0.0
H406 H 0.45 0.10886 0.22782 0.0
C407 C 0.45359 0.14958 0.28387 0.0
C408 C 0.43431 0.1516 0.28156 0.0
C409 C 0.46449 0.14235 0.26953 0.0
C410 C 0.46248 0.11676 0.2249 0.0
H411 H 0.54581 0.10464 0.17908 0.0
H412 H 0.52725 0.11777 0.20414 0.0
H413 H 0.46865 0.10048 0.20082 0.0
H414 H 0.41119 0.14654 0.26283 0.0
H415 H 0.43019 0.13409 0.23784 0.0
H416 H 0.48894 0.15265 0.24104 0.0
C417 C 0.52045 0.11429 0.19116 0.0
C418 C 0.47312 0.11202 0.2094 0.0
C419 C 0.53108 0.10673 0.17681 0.0
C420 C 0.42602 0.1452 0.26506 0.0
C421 C 0.43691 0.13801 0.25073 0.0
C422 C 0.48448 0.14109 0.23249 0.0
C423 C 0.50112 0.11615 0.18921 0.0
C424 C 0.48955 0.12175 0.20528 0.0
C425 C 0.45632 0.13699 0.25261 0.0
C426 C 0.46802 0.13136 0.23661 0.0
H427 H 0.49646 0.0997 0.14513 0.0
H428 H 0.47797 0.11307 0.17016 0.0
H429 H 0.50768 0.14413 0.2141 0.0
H430 H 0.46039 0.15426 0.29646 0.0
H431 H 0.47938 0.14136 0.27153 0.0
C432 C 0.63742 0.21384 0.56539 0.0
C433 C 0.64384 0.22189 0.582 0.0
C434 C 0.63007 0.22495 0.55127 0.0
C435 C 0.63354 0.27251 0.53361 0.0
H436 H 0.59105 0.25899 0.50336 0.0
C437 C 0.59905 0.32258 0.48147 0.0
C438 C 0.59139 0.31514 0.4651 0.0
C439 C 0.60678 0.31092 0.49489 0.0
C440 C 0.60313 0.2628 0.51149 0.0
H441 H 0.6464 0.24775 0.59731 0.0
H442 H 0.63341 0.26708 0.57271 0.0
H443 H 0.60007 0.2392 0.52939 0.0
H444 H 0.58706 0.28977 0.4494 0.0
H445 H 0.6009 0.26944 0.47272 0.0
H446 H 0.63667 0.29606 0.51572 0.0
C447 C 0.63441 0.25223 0.5705 0.0
C448 C 0.60821 0.25152 0.52645 0.0
C449 C 0.6417 0.24112 0.58464 0.0
C450 C 0.59272 0.29592 0.46192 0.0
C451 C 0.60049 0.28425 0.47535 0.0
C452 C 0.6285 0.28375 0.51862 0.0
C453 C 0.62903 0.24432 0.55348 0.0
C454 C 0.62339 0.25633 0.53773 0.0
C455 C 0.6071 0.29157 0.49221 0.0
C456 C 0.61318 0.27908 0.50745 0.0
H457 H 0.63883 0.19906 0.56293 0.0
H458 H 0.62606 0.21847 0.53828 0.0
H459 H 0.64555 0.27636 0.54183 0.0
H460 H 0.59827 0.33733 0.48435 0.0
H461 H 0.61166 0.317 0.50777 0.0
C462 C 0.90383 0.35336 0.74475 0.0
C463 C 0.9093 0.34855 0.72663 0.0
C464 C 0.91661 0.36112 0.75713 0.0
C465 C 0.96674 0.36097 0.76564 0.0
H466 H 0.95518 0.39841 0.80259 0.0
C467 C 0.02168 0.393 0.81463 0.0
C468 C 0.01618 0.39731 0.83287 0.0
C469 C 0.00874 0.38642 0.80176 0.0
C470 C 0.95853 0.38776 0.79251 0.0
H471 H 0.93201 0.34958 0.70678 0.0
H472 H 0.95419 0.36335 0.72833 0.0
H473 H 0.93208 0.39038 0.77909 0.0
H474 H 0.99307 0.39695 0.85225 0.0
H475 H 0.97057 0.38517 0.82985 0.0
H476 H 0.99311 0.35823 0.7791 0.0
C477 C 0.94016 0.3607 0.73309 0.0
C478 C 0.94533 0.38324 0.779 0.0
C479 C 0.92739 0.35295 0.72071 0.0
C480 C -0.00227 0.39388 0.83826 0.0
C481 C 0.98479 0.3873 0.82539 0.0
C482 C 0.97991 0.36546 0.77915 0.0
C483 C 0.93508 0.36425 0.7516 0.0
C484 C 0.9493 0.36979 0.76544 0.0
C485 C 0.99005 0.38399 0.80688 0.0
C486 C 0.97594 0.37887 0.79275 0.0
H487 H 0.88999 0.35019 0.74974 0.0
H488 H 0.91229 0.36368 0.77132 0.0
H489 H 0.97006 0.35026 0.7556 0.0
H490 H 0.0358 0.39548 0.81003 0.0
H491 H 0.01321 0.38407 0.78758 0.0
C492 C 0.85546 0.7509 0.08553 0.0
C493 C 0.85178 0.76956 0.0811 0.0
C494 C 0.86092 0.73842 0.07174 0.0
C495 C 0.87924 0.73445 0.02407 0.0
H496 H 0.85216 0.6878 0.02417 0.0
C497 C 0.88788 0.68175 0.96479 0.0
C498 C 0.89111 0.66335 0.97052 0.0
C499 C 0.88118 0.69492 0.97738 0.0
C500 C 0.85991 0.7007 0.02401 0.0
H501 H 0.85224 0.79006 0.05895 0.0
H502 H 0.86186 0.76823 0.03488 0.0
H503 H 0.8464 0.71058 0.04856 0.0
H504 H 0.88852 0.64403 0.99355 0.0
H505 H 0.87699 0.66697 0.01547 0.0
H506 H 0.89294 0.72448 -0.00034 0.0
C507 C 0.86045 0.76326 0.04902 0.0
C508 C 0.85667 0.71372 0.03801 0.0
C509 C 0.85493 0.77576 0.06282 0.0
C510 C 0.88625 0.6581 0.9887 0.0
C511 C 0.87957 0.67126 0.00127 0.0
C512 C 0.88253 0.7214 0.01009 0.0
C513 C 0.86289 0.74435 0.05324 0.0
C514 C 0.86642 0.73065 0.03829 0.0
C515 C 0.87754 0.68994 0.99592 0.0
C516 C 0.873 0.70432 0.00998 0.0
H517 H 0.85331 0.74569 0.0995 0.0
H518 H 0.86312 0.724 0.07547 0.0
H519 H 0.88702 0.74733 0.024 0.0
H520 H 0.89136 0.68622 0.95084 0.0
H521 H 0.87937 0.70913 0.97273 0.0
C522 C 0.59127 0.64179 0.24425 0.0
C523 C 0.58625 0.6472 0.22617 0.0
C524 C 0.57799 0.63452 0.25638 0.0
C525 C 0.52763 0.63604 0.26445 0.0
H526 H 0.53845 0.59818 0.30126 0.0
C527 C 0.47258 0.60415 0.31384 0.0
C528 C 0.47823 0.60023 0.33215 0.0
C529 C 0.48538 0.61068 0.30078 0.0
C530 C 0.53531 0.60893 0.29119 0.0
H531 H 0.56366 0.64796 0.20618 0.0
H532 H 0.54057 0.63491 0.22727 0.0
H533 H 0.56165 0.60581 0.27777 0.0
H534 H 0.50142 0.60131 0.35141 0.0
H535 H 0.52366 0.61288 0.32865 0.0
H536 H 0.50125 0.6391 0.27789 0.0
C537 C 0.55468 0.63674 0.2322 0.0
C538 C 0.54857 0.61324 0.2777 0.0
C539 C 0.56795 0.64405 0.22007 0.0
C540 C 0.49664 0.60406 0.3374 0.0
C541 C 0.50943 0.61053 0.32433 0.0
C542 C 0.51433 0.63167 0.27791 0.0
C543 C 0.55943 0.63242 0.25066 0.0
C544 C 0.54493 0.62693 0.26425 0.0
C545 C 0.50406 0.61339 0.30578 0.0
C546 C 0.5181 0.61818 0.2915 0.0
H547 H 0.60524 0.64401 0.24938 0.0
H548 H 0.5821 0.63142 0.27053 0.0
H549 H 0.52451 0.64689 0.25449 0.0
H550 H 0.45848 0.60137 0.30936 0.0
H551 H 0.48084 0.61274 0.28658 0.0
C552 C 0.24835 0.40895 0.13941 0.0
C553 C 0.2665 0.41469 0.14374 0.0
C554 C 0.23527 0.42174 0.13298 0.0
C555 C 0.2292 0.46854 0.113 0.0
H556 H 0.18165 0.46663 0.13838 0.0
C557 C 0.17436 0.52548 0.10215 0.0
C558 C 0.1562 0.51914 0.09872 0.0
C559 C 0.18785 0.51337 0.10909 0.0
C560 C 0.1948 0.46727 0.13107 0.0
H561 H 0.28554 0.4381 0.14348 0.0
H562 H 0.26268 0.46041 0.13218 0.0
H563 H 0.2054 0.44356 0.14553 0.0
H564 H 0.13766 0.49547 0.10101 0.0
H565 H 0.16118 0.47435 0.11295 0.0
H566 H 0.21855 0.49213 0.09839 0.0
C567 C 0.25856 0.44603 0.13382 0.0
C568 C 0.20837 0.45402 0.13511 0.0
C569 C 0.27164 0.43324 0.14032 0.0
C570 C 0.15152 0.50079 0.10348 0.0
C571 C 0.16502 0.48868 0.11037 0.0
C572 C 0.21559 0.48176 0.1089 0.0
C573 C 0.2401 0.44051 0.13066 0.0
C574 C 0.22567 0.45446 0.12606 0.0
C575 C 0.18345 0.49469 0.11274 0.0
C576 C 0.19821 0.48123 0.11785 0.0
H577 H 0.24396 0.39474 0.14176 0.0
H578 H 0.22122 0.41704 0.13027 0.0
H579 H 0.24236 0.46914 0.10572 0.0
H580 H 0.17839 0.53959 0.09874 0.0
H581 H 0.20184 0.51853 0.11115 0.0
C582 C 0.67954 0.96653 0.88996 0.0
C583 C 0.66129 0.97238 0.89375 0.0
C584 C 0.69261 0.97905 0.88295 0.0
C585 C 0.69817 0.02564 0.86155 0.0
H586 H 0.74587 0.02481 0.88672 0.0
C587 C 0.75 0.08567 0.85396 0.0
C588 C 0.76834 0.08054 0.84964 0.0
C589 C 0.73729 0.07239 0.86015 0.0
C590 C 0.73267 0.02512 0.87948 0.0
H591 H 0.64212 0.99559 0.89192 0.0
H592 H 0.66491 0.01741 0.87984 0.0
H593 H 0.72278 0.001 0.89375 0.0
H594 H 0.78807 0.05772 0.84966 0.0
H595 H 0.76586 0.03457 0.86054 0.0
H596 H 0.70802 0.04987 0.84742 0.0
C597 C 0.66915 0.00316 0.88222 0.0
C598 C 0.71948 0.01143 0.88341 0.0
C599 C 0.65607 0.99064 0.8892 0.0
C600 C 0.77402 0.06212 0.85282 0.0
C601 C 0.76131 0.04885 0.85907 0.0
C602 C 0.71134 0.03935 0.85766 0.0
C603 C 0.6877 0.99765 0.87957 0.0
C604 C 0.70206 0.01158 0.87453 0.0
C605 C 0.74268 0.05374 0.86224 0.0
C606 C 0.72868 0.03929 0.86666 0.0
H607 H 0.68397 0.95251 0.89319 0.0
H608 H 0.7067 0.97429 0.88066 0.0
H609 H 0.68498 0.026 0.8543 0.0
H610 H 0.7452 0.09977 0.85177 0.0
H611 H 0.7231 0.07663 0.86287 0.0
C612 C 0.71991 0.93247 0.35515 0.0
C613 C 0.72539 0.91403 0.35177 0.0
C614 C 0.7326 0.94535 0.3622 0.0
C615 C 0.77893 0.94993 0.38443 0.0
H616 H 0.77936 -0.00222 0.35954 0.0
C617 C 0.83991 0.00049 0.39275 0.0
C618 C 0.83505 0.0188 0.39748 0.0
C619 C 0.82644 0.98812 0.38631 0.0
C620 C 0.77932 0.98453 0.36668 0.0
H621 H 0.74813 0.89437 0.35421 0.0
H622 H 0.77026 0.91684 0.36627 0.0
H623 H 0.75525 0.97517 0.352 0.0
H624 H 0.81253 0.03886 0.39795 0.0
H625 H 0.78904 0.01725 0.38657 0.0
H626 H 0.80317 0.95922 0.39892 0.0
C627 C 0.75616 0.92136 0.36361 0.0
C628 C 0.76546 0.97161 0.36247 0.0
C629 C 0.74346 0.90847 0.35663 0.0
C630 C 0.81671 0.02483 0.39447 0.0
C631 C 0.80325 0.01246 0.38794 0.0
C632 C 0.79284 0.9628 0.38856 0.0
C633 C 0.75102 0.94006 0.36598 0.0
C634 C 0.76514 0.95414 0.37126 0.0
C635 C 0.80788 0.99385 0.38435 0.0
C636 C 0.79322 0.98018 0.37966 0.0
H637 H 0.70603 0.93716 0.35167 0.0
H638 H 0.7281 0.95957 0.36426 0.0
H639 H 0.77893 0.93671 0.39164 0.0
H640 H 0.85394 0.99543 0.39481 0.0
H641 H 0.83044 0.97393 0.3833 0.0
C642 C 0.24252 0.5899 0.64347 0.0
C643 C 0.22353 0.58785 0.64753 0.0
C644 C 0.25246 0.57528 0.63548 0.0
C645 C 0.24842 0.53102 0.61031 0.0
H646 H 0.2934 0.51813 0.63712 0.0
C647 C 0.28847 0.46375 0.59417 0.0
C648 C 0.30789 0.46538 0.59302 0.0
C649 C 0.27783 0.47813 0.6017 0.0
C650 C 0.28099 0.52164 0.62935 0.0
H651 H 0.19976 0.56944 0.64512 0.0
H652 H 0.21711 0.54401 0.63095 0.0
H653 H 0.27564 0.54543 0.64634 0.0
H654 H 0.33145 0.48302 0.59966 0.0
H655 H 0.31295 0.50815 0.61244 0.0
H656 H 0.25389 0.50742 0.59311 0.0
C657 C 0.22431 0.55685 0.63408 0.0
C658 C 0.27085 0.53729 0.63461 0.0
C659 C 0.2144 0.5714 0.64223 0.0
C660 C 0.31652 0.48129 0.60037 0.0
C661 C 0.30589 0.4957 0.60777 0.0
C662 C 0.25866 0.51543 0.60492 0.0
C663 C 0.24355 0.55844 0.63122 0.0
C664 C 0.2545 0.54215 0.62512 0.0
C665 C 0.28639 0.49448 0.60814 0.0
C666 C 0.27508 0.51057 0.61437 0.0
H667 H 0.24996 0.6024 0.64734 0.0
H668 H 0.26724 0.57694 0.63313 0.0
H669 H 0.23589 0.53452 0.60272 0.0
H670 H 0.28142 0.45161 0.58874 0.0
H671 H 0.26287 0.47658 0.60216 0.0
C672 C 0.30986 0.40311 0.52309 0.0
C673 C 0.328 0.4077 0.51749 0.0
C674 C 0.29793 0.39362 0.51104 0.0
C675 C 0.29733 0.36455 0.46866 0.0
H676 H 0.24626 0.38136 0.46482 0.0
C677 C 0.24873 0.34012 0.4099 0.0
C678 C 0.23039 0.33554 0.4148 0.0
C679 C 0.26048 0.34878 0.4227 0.0
C680 C 0.26042 0.37637 0.46588 0.0
H681 H 0.34796 0.40567 0.49497 0.0
H682 H 0.32711 0.38928 0.47393 0.0
H683 H 0.26719 0.39623 0.48695 0.0
H684 H 0.20992 0.33664 0.43693 0.0
H685 H 0.23048 0.35169 0.45929 0.0
H686 H 0.29058 0.34477 0.44751 0.0
C687 C 0.32216 0.39282 0.4877 0.0
C688 C 0.27241 0.38486 0.47858 0.0
C689 C 0.33408 0.40231 0.49973 0.0
C690 C 0.22397 0.34002 0.4327 0.0
C691 C 0.23572 0.34871 0.4455 0.0
C692 C 0.28535 0.35607 0.45596 0.0
C693 C 0.3039 0.38851 0.49315 0.0
C694 C 0.29102 0.3791 0.48005 0.0
C695 C 0.25414 0.35307 0.44068 0.0
C696 C 0.26678 0.36194 0.45437 0.0
H697 H 0.30476 0.40701 0.53671 0.0
H698 H 0.28404 0.39027 0.51576 0.0
H699 H 0.3115 0.35959 0.46966 0.0
H700 H 0.2541 0.33691 0.39621 0.0
H701 H 0.27451 0.35221 0.41847 0.0
C702 C 0.89416 0.98905 0.65966 0.0
C703 C 0.90056 0.97158 0.66561 0.0
C704 C 0.88518 0.00099 0.67205 0.0
C705 C 0.88107 0.01075 0.72213 0.0
H706 H 0.83939 0.04122 0.70668 0.0
C707 C 0.83997 0.05735 0.77312 0.0
C708 C 0.83491 0.07511 0.76672 0.0
C709 C 0.84777 0.04436 0.76097 0.0
C710 C 0.85113 0.03293 0.71114 0.0
H711 H 0.90205 0.95271 0.6891 0.0
H712 H 0.88617 0.97348 0.71066 0.0
H713 H 0.85263 0.01876 0.68504 0.0
H714 H 0.83434 0.09324 0.74262 0.0
H715 H 0.84809 0.07064 0.7215 0.0
H716 H 0.8796 0.02498 0.74822 0.0
C717 C 0.88836 0.97806 0.69649 0.0
C718 C 0.85871 0.02005 0.69875 0.0
C719 C 0.89735 0.96611 0.68409 0.0
C720 C 0.83804 0.07967 0.74799 0.0
C721 C 0.84579 0.06668 0.73584 0.0
C722 C 0.87347 0.02361 0.73453 0.0
C723 C 0.88239 0.99573 0.69067 0.0
C724 C 0.87383 0.00889 0.70407 0.0
C725 C 0.85063 0.04884 0.74217 0.0
C726 C 0.8585 0.03492 0.72913 0.0
H727 H 0.89643 0.99371 0.64553 0.0
H728 H 0.88094 0.01458 0.66716 0.0
H729 H 0.8929 0.00257 0.72656 0.0
H730 H 0.83771 0.05338 0.78747 0.0
H731 H 0.8512 0.03068 0.76623 0.0
C732 C 0.27789 0.65045 0.94072 0.0
C733 C 0.27069 0.65384 0.92287 0.0
C734 C 0.26686 0.64218 0.9544 0.0
C735 C 0.22443 0.6139 0.96071 0.0
H736 H 0.22626 0.63279 0.01118 0.0
C737 C 0.17145 0.59141 0.01616 0.0
C738 C 0.17849 0.5869 0.03383 0.0
C739 C 0.18275 0.6 0.00294 0.0
C740 C 0.22573 0.62726 0.99719 0.0
H741 H 0.24628 0.65114 0.90537 0.0
H742 H 0.227 0.6369 0.92927 0.0
H743 H 0.24608 0.6466 0.98735 0.0
H744 H 0.20281 0.58831 0.05161 0.0
H745 H 0.22256 0.60332 0.02846 0.0
H746 H 0.20404 0.59463 0.97052 0.0
C747 C 0.24125 0.6404 0.93264 0.0
C748 C 0.2371 0.63514 0.98354 0.0
C749 C 0.25228 0.64865 0.91896 0.0
C750 C 0.19696 0.5916 0.03813 0.0
C751 C 0.20826 0.60026 0.0249 0.0
C752 C 0.21305 0.60606 0.97433 0.0
C753 C 0.24839 0.63712 0.95054 0.0
C754 C 0.23654 0.62858 0.96513 0.0
C755 C 0.20134 0.60433 0.00709 0.0
C756 C 0.21353 0.61269 0.9927 0.0
H757 H 0.29205 0.65424 0.94418 0.0
H758 H 0.27286 0.63961 0.96797 0.0
H759 H 0.2239 0.60831 0.94675 0.0
H760 H 0.15726 0.58806 0.01241 0.0
H761 H 0.17693 0.60324 0.98943 0.0
C762 C 0.58955 -0.00029 0.1673 0.0
C763 C 0.58789 0.01912 0.16862 0.0
C764 C 0.59805 0.98956 0.18151 0.0
C765 C 0.61074 0.99253 0.23129 0.0
H766 H 0.64275 0.95087 0.21936 0.0
C767 C 0.6576 0.95564 0.28534 0.0
C768 C 0.6586 0.93615 0.2844 0.0
C769 C 0.64814 0.96569 0.27167 0.0
C770 C 0.63368 0.96234 0.22291 0.0
H771 H 0.59415 0.04314 0.18575 0.0
H772 H 0.60928 0.02547 0.21035 0.0
H773 H 0.62846 0.96869 0.19434 0.0
H774 H 0.64998 0.91191 0.26864 0.0
H775 H 0.63349 0.92948 0.24482 0.0
H776 H 0.61621 0.98627 0.25989 0.0
C777 C 0.60369 0.01804 0.19851 0.0
C778 C 0.62548 0.97255 0.20858 0.0
C779 C 0.59514 0.02818 0.18434 0.0
C780 C 0.64954 0.92691 0.26975 0.0
C781 C 0.64019 0.93697 0.25604 0.0
C782 C 0.61903 0.98237 0.24563 0.0
C783 C 0.60514 -0.00141 0.19733 0.0
C784 C 0.6139 0.98776 0.21259 0.0
C785 C 0.63958 0.95647 0.25672 0.0
C786 C 0.63056 0.96716 0.24158 0.0
H787 H 0.58404 0.99229 0.15542 0.0
H788 H 0.59872 0.97457 0.18026 0.0
H789 H 0.60165 0.00397 0.23488 0.0
H790 H 0.6644 0.96317 0.29645 0.0
H791 H 0.648 0.98072 0.27249 0.0
C792 C 0.71362 0.14509 0.55907 0.0
C793 C 0.72142 0.14953 0.57642 0.0
C794 C 0.72428 0.13631 0.54543 0.0
C795 C 0.76727 0.10906 0.53833 0.0
H796 H 0.76351 0.12734 0.48773 0.0
C797 C 0.81968 0.08827 0.48155 0.0
C798 C 0.81247 0.08381 0.46394 0.0
C799 C 0.80833 0.09618 0.49514 0.0
C800 C 0.76457 0.12194 0.50175 0.0
H801 H 0.74642 0.14787 0.5932 0.0
H802 H 0.76505 0.1327 0.56936 0.0
H803 H 0.74388 0.14072 0.51189 0.0
H804 H 0.78771 0.08445 0.44672 0.0
H805 H 0.76787 0.09822 0.47051 0.0
H806 H 0.78804 0.09036 0.5282 0.0
C807 C 0.75064 0.13584 0.56635 0.0
C808 C 0.75331 0.12958 0.51559 0.0
C809 C 0.73998 0.14461 0.58 0.0
C810 C 0.79371 0.08774 0.46013 0.0
C811 C 0.78236 0.09569 0.47373 0.0
C812 C 0.77854 0.10143 0.52449 0.0
C813 C 0.74297 0.13177 0.54884 0.0
C814 C 0.75457 0.12327 0.53405 0.0
C815 C 0.78951 0.09986 0.49143 0.0
C816 C 0.77737 0.10784 0.50607 0.0
H817 H 0.69934 0.14863 0.55589 0.0
H818 H 0.71788 0.1331 0.53218 0.0
H819 H 0.76838 0.10369 0.55236 0.0
H820 H 0.83409 0.08549 0.48492 0.0
H821 H 0.81432 0.0995 0.50855 0.0
C822 C 0.15723 0.57209 0.73379 0.0
C823 C 0.1613 0.56554 0.71584 0.0
C824 C 0.14883 0.56047 0.74687 0.0
C825 C 0.12093 0.51782 0.75158 0.0
H826 H 0.13959 0.5183 0.80217 0.0
C827 C 0.09508 0.4659 0.80703 0.0
C828 C 0.09136 0.47321 0.82476 0.0
C829 C 0.1043 0.4766 0.79369 0.0
C830 C 0.13411 0.51813 0.78815 0.0
H831 H 0.15944 0.54171 0.69746 0.0
H832 H 0.14479 0.5214 0.72034 0.0
H833 H 0.15391 0.53826 0.77881 0.0
H834 H 0.09466 0.49738 0.84249 0.0
H835 H 0.11056 0.51607 0.81918 0.0
H836 H 0.10102 0.4978 0.76094 0.0
C837 C 0.14802 0.53558 0.72424 0.0
C838 C 0.1423 0.52957 0.77477 0.0
C839 C 0.15648 0.5472 0.71116 0.0
C840 C 0.09734 0.49131 0.82898 0.0
C841 C 0.10655 0.502 0.81564 0.0
C842 C 0.11271 0.5064 0.76497 0.0
C843 C 0.14425 0.54205 0.74228 0.0
C844 C 0.13574 0.52962 0.75637 0.0
C845 C 0.11 0.49483 0.7978 0.0
C846 C 0.11914 0.5065 0.78343 0.0
H847 H 0.1607 0.58617 0.73784 0.0
H848 H 0.14584 0.56595 0.76056 0.0
H849 H 0.11542 0.51771 0.73756 0.0
H850 H 0.09071 0.45197 0.80336 0.0
H851 H 0.10698 0.47058 0.78016 0.0
C852 C 0.6863 0.90206 0.97189 0.0
C853 C 0.66841 0.90676 0.9782 0.0
C854 C 0.69921 0.89402 0.98398 0.0
C855 C 0.70998 0.88926 0.03385 0.0
H856 H 0.74121 0.84847 0.01762 0.0
C857 C 0.75427 0.84597 0.08473 0.0
C858 C 0.77207 0.84047 0.0789 0.0
C859 C 0.74211 0.85468 0.07235 0.0
C860 C 0.73277 0.86001 0.02228 0.0
H861 H 0.64996 0.90639 0.00205 0.0
H862 H 0.67241 0.8922 0.02305 0.0
H863 H 0.71886 0.86207 0.99605 0.0
H864 H 0.79122 0.84012 0.0556 0.0
H865 H 0.77005 0.85551 0.03406 0.0
H866 H 0.72383 0.88719 0.06009 0.0
C867 C 0.67654 0.89499 0.00884 0.0
C868 C 0.71995 0.86779 0.00994 0.0
C869 C 0.66364 0.903 0.99676 0.0
C870 C 0.77757 0.84414 0.06051 0.0
C871 C 0.7654 0.85285 0.04813 0.0
C872 C 0.7228 0.8815 0.04618 0.0
C873 C 0.69451 0.89053 0.00262 0.0
C874 C 0.70834 0.88243 0.01562 0.0
C875 C 0.74748 0.85809 0.05387 0.0
C876 C 0.73427 0.86673 0.04058 0.0
H877 H 0.69043 0.90482 0.95768 0.0
H878 H 0.71299 0.89089 0.97881 0.0
H879 H 0.70146 0.90075 0.03854 0.0
H880 H 0.74958 0.84332 0.09879 0.0
H881 H 0.72833 0.85834 0.07716 0.0
C882 C 0.34115 0.41428 0.2437 0.0
C883 C 0.33647 0.41984 0.22557 0.0
C884 C 0.34984 0.42666 0.25586 0.0
C885 C 0.37725 0.46992 0.25741 0.0
H886 H 0.36007 0.47191 0.30847 0.0
C887 C 0.40296 0.52572 0.30903 0.0
C888 C 0.40723 0.51964 0.3271 0.0
C889 C 0.39389 0.51393 0.29655 0.0
C890 C 0.36515 0.47139 0.29431 0.0
H891 H 0.33749 0.44267 0.20587 0.0
H892 H 0.35261 0.46431 0.22716 0.0
H893 H 0.34551 0.4504 0.28673 0.0
H894 H 0.40515 0.49646 0.3463 0.0
H895 H 0.38951 0.47586 0.32449 0.0
H896 H 0.39696 0.49085 0.26502 0.0
C897 C 0.34968 0.45032 0.23192 0.0
C898 C 0.35682 0.45906 0.28186 0.0
C899 C 0.34095 0.43795 0.21975 0.0
C900 C 0.40202 0.5016 0.3325 0.0
C901 C 0.39296 0.48982 0.32002 0.0
C902 C 0.3856 0.48224 0.26988 0.0
C903 C 0.35407 0.44486 0.25016 0.0
C904 C 0.36283 0.45813 0.26329 0.0
C905 C 0.38888 0.49581 0.30187 0.0
C906 C 0.37969 0.48306 0.28849 0.0
H907 H 0.33796 0.40041 0.2486 0.0
H908 H 0.35331 0.42194 0.26974 0.0
H909 H 0.38233 0.46937 0.24325 0.0
H910 H 0.40673 0.53956 0.30445 0.0
H911 H 0.39071 0.51904 0.28274 0.0
C912 C 0.50934 0.31893 0.41778 0.0
C913 C 0.52545 0.32417 0.40803 0.0
C914 C 0.49663 0.30659 0.40989 0.0
C915 C 0.49265 0.26948 0.37529 0.0
H916 H 0.43987 0.28013 0.37764 0.0
C917 C 0.43859 0.22654 0.33466 0.0
C918 C 0.42131 0.22311 0.34309 0.0
C919 C 0.45141 0.23852 0.34295 0.0
C920 C 0.45454 0.27679 0.37711 0.0
H921 H 0.54084 0.32057 0.38236 0.0
H922 H 0.51861 0.29888 0.36861 0.0
H923 H 0.462 0.3019 0.39122 0.0
H924 H 0.40408 0.22924 0.36705 0.0
H925 H 0.42662 0.24984 0.38174 0.0
H926 H 0.48526 0.24427 0.3614 0.0
C927 C 0.5159 0.30432 0.38239 0.0
C928 C 0.4672 0.28931 0.38482 0.0
C929 C 0.52856 0.31681 0.39021 0.0
C930 C 0.41724 0.23167 0.36015 0.0
C931 C 0.43012 0.24358 0.36851 0.0
C932 C 0.47999 0.25689 0.36769 0.0
C933 C 0.49981 0.2991 0.39215 0.0
C934 C 0.48639 0.28581 0.38394 0.0
C935 C 0.4473 0.24726 0.35993 0.0
C936 C 0.46077 0.26042 0.36844 0.0
H937 H 0.50653 0.32435 0.43154 0.0
H938 H 0.48443 0.30268 0.4178 0.0
H939 H 0.50736 0.26631 0.37465 0.0
H940 H 0.44214 0.22024 0.32146 0.0
H941 H 0.46437 0.24124 0.3358 0.0
C942 C 0.0426 0.18754 0.6142 0.0
C943 C 0.04489 0.18781 0.59481 0.0
C944 C 0.0312 0.20064 0.62289 0.0
C945 C 0.00969 0.2464 0.6181 0.0
H946 H 0.96929 0.22552 0.647 0.0
C947 C 0.94664 0.29056 0.64107 0.0
C948 C 0.93809 0.28621 0.65806 0.0
C949 C 0.96074 0.27919 0.63399 0.0
C950 C 0.98066 0.2317 0.63933 0.0
H951 H 0.03788 0.2025 0.56942 0.0
H952 H 0.01831 0.22565 0.58471 0.0
H953 H 0.99303 0.20511 0.63431 0.0
H954 H 0.93796 0.26702 0.6813 0.0
H955 H 0.96297 0.24773 0.66945 0.0
H956 H 0.99761 0.27303 0.62334 0.0
C957 C 0.02519 0.21521 0.59312 0.0
C958 C 0.99422 0.21995 0.632 0.0
C959 C 0.03629 0.20192 0.58439 0.0
C960 C 0.94413 0.27056 0.66802 0.0
C961 C 0.95842 0.25943 0.66115 0.0
C962 C 0.99629 0.25823 0.62571 0.0
C963 C 0.02222 0.21443 0.61238 0.0
C964 C 0.00874 0.22717 0.6212 0.0
C965 C 0.96679 0.26344 0.64394 0.0
C966 C 0.98148 0.25102 0.63629 0.0
H967 H 0.04902 0.17679 0.62257 0.0
H968 H 0.02914 0.19984 0.63779 0.0
H969 H 0.02083 0.25227 0.60985 0.0
H970 H 0.9422 0.30252 0.63308 0.0
H971 H 0.9666 0.28259 0.62056 0.0
C972 C 0.99424 0.66417 0.90144 0.0
C973 C 0.97578 0.66927 0.90527 0.0
C974 C 0.00668 0.67708 0.89401 0.0
C975 C 0.00913 0.72166 0.8688 0.0
H976 H 0.05908 0.72348 0.88899 0.0
C977 C 0.06107 0.77926 0.84849 0.0
C978 C 0.07932 0.7735 0.84457 0.0
C979 C 0.0484 0.76699 0.85663 0.0
C980 C 0.04524 0.72304 0.8831 0.0
H981 H 0.95583 0.69185 0.90402 0.0
H982 H 0.9776 0.7144 0.89114 0.0
H983 H 0.0369 0.70094 0.90117 0.0
H984 H 0.09869 0.75047 0.84648 0.0
H985 H 0.07656 0.72906 0.86053 0.0
H986 H 0.0175 0.7437 0.85066 0.0
C987 C 0.9824 0.70037 0.89374 0.0
C988 C 0.03254 0.71012 0.89005 0.0
C989 C 0.96995 0.68746 0.90119 0.0
C990 C 0.08475 0.75536 0.84934 0.0
C991 C 0.07209 0.7431 0.85748 0.0
C992 C 0.02183 0.73459 0.86183 0.0
C993 C 0.00095 0.69537 0.89024 0.0
C994 C 0.01437 0.70923 0.88293 0.0
C995 C 0.05372 0.74871 0.86104 0.0
C996 C 0.04005 0.73537 0.86886 0.0
H997 H -0.00084 0.65025 0.90436 0.0
H998 H 0.02081 0.67271 0.89119 0.0
H999 H 0.9953 0.72117 0.86287 0.0
H1000 H 0.05646 0.79317 0.84504 0.0
H1001 H 0.03442 0.77181 0.85944 0.0
C1002 C 0.56922 0.73101 0.15654 0.0
C1003 C 0.56281 0.7128 0.15953 0.0
C1004 C 0.55785 0.7442 0.14801 0.0
C1005 C 0.5087 0.75486 0.13811 0.0
H1006 H 0.52988 0.78987 0.103 0.0
C1007 C 0.46425 0.80587 0.09452 0.0
C1008 C 0.47121 0.82398 0.09219 0.0
C1009 C 0.47505 0.79217 0.10306 0.0
C1010 C 0.5238 0.78032 0.11294 0.0
H1011 H 0.53948 0.69409 0.15566 0.0
H1012 H 0.51969 0.7171 0.14049 0.0
H1013 H 0.5495 0.76587 0.1166 0.0
H1014 H 0.49477 0.84204 0.09746 0.0
H1015 H 0.51354 0.81819 0.1125 0.0
H1016 H 0.48297 0.76934 0.13436 0.0
C1017 C 0.53344 0.72123 0.14502 0.0
C1018 C 0.53503 0.76656 0.12072 0.0
C1019 C 0.54482 0.70801 0.1536 0.0
C1020 C 0.48903 0.8282 0.09895 0.0
C1021 C 0.49984 0.81451 0.10746 0.0
C1022 C 0.49744 0.76862 0.13028 0.0
C1023 C 0.5398 0.7395 0.14221 0.0
C1024 C 0.52765 0.75373 0.13348 0.0
C1025 C 0.49305 0.79629 0.10942 0.0
C1026 C 0.5049 0.78157 0.11769 0.0
H1027 H 0.58297 0.7352 0.16102 0.0
H1028 H 0.56309 0.75821 0.14631 0.0
H1029 H 0.50264 0.74535 0.14809 0.0
H1030 H 0.45057 0.80215 0.08944 0.0
H1031 H 0.46949 0.77823 0.10423 0.0
C1032 C 0.17947 0.34401 0.33432 0.0
C1033 C 0.17986 0.32452 0.33311 0.0
C1034 C 0.1837 0.35492 0.3188 0.0
C1035 C 0.19371 0.35284 0.26775 0.0
H1036 H 0.23021 0.39056 0.27999 0.0
C1037 C 0.25329 0.37427 0.21923 0.0
C1038 C 0.25862 0.39305 0.21848 0.0
C1039 C 0.23941 0.36847 0.23148 0.0
C1040 C 0.21977 0.38036 0.2763 0.0
H1041 H 0.18348 0.30123 0.31431 0.0
H1042 H 0.19128 0.32012 0.28751 0.0
H1043 H 0.21248 0.3759 0.3047 0.0
H1044 H 0.25319 0.42055 0.22956 0.0
H1045 H 0.22907 0.41029 0.2512 0.0
H1046 H 0.20195 0.35664 0.23937 0.0
C1047 C 0.18751 0.32709 0.3003 0.0
C1048 C 0.20953 0.37196 0.29048 0.0
C1049 C 0.18315 0.31621 0.31575 0.0
C1050 C 0.24943 0.40598 0.22988 0.0
C1051 C 0.23565 0.40012 0.24227 0.0
C1052 C 0.20409 0.36113 0.25358 0.0
C1053 C 0.18852 0.34656 0.3018 0.0
C1054 C 0.19676 0.3577 0.28644 0.0
C1055 C 0.23066 0.38127 0.24334 0.0
C1056 C 0.21759 0.3746 0.25779 0.0
H1057 H 0.17675 0.35085 0.34745 0.0
H1058 H 0.18394 0.36989 0.32033 0.0
H1059 H 0.18374 0.34217 0.26411 0.0
H1060 H 0.26003 0.36398 0.21056 0.0
H1061 H 0.23602 0.35381 0.23216 0.0
C1062 C 0.88055 0.00093 0.46813 0.0
C1063 C 0.86252 0.0078 0.47109 0.0
C1064 C 0.88755 0.98659 0.47917 0.0
C1065 C 0.87433 0.95101 0.51468 0.0
H1066 H 0.92488 0.95898 0.53151 0.0
C1067 C 0.90402 0.92553 0.58459 0.0
C1068 C 0.92309 0.92139 0.58568 0.0
C1069 C 0.8961 0.93103 0.56772 0.0
C1070 C 0.91088 0.95625 0.52668 0.0
H1071 H 0.83746 0.00463 0.48752 0.0
H1072 H 0.84988 0.98009 0.50724 0.0
H1073 H 0.91212 0.97875 0.50745 0.0
H1074 H 0.94831 0.91777 0.56955 0.0
H1075 H 0.93444 0.92725 0.54013 0.0
H1076 H 0.87296 0.92903 0.53481 0.0
C1077 C 0.8585 0.98544 0.49613 0.0
C1078 C 0.90353 0.96763 0.51283 0.0
C1079 C 0.85142 -0.00036 0.48491 0.0
C1080 C 0.93364 0.92113 0.56925 0.0
C1081 C 0.92572 0.92663 0.55239 0.0
C1082 C 0.88167 0.93968 0.52869 0.0
C1083 C 0.87678 0.97895 0.49361 0.0
C1084 C 0.88505 0.96541 0.50688 0.0
C1085 C 0.9071 0.93245 0.55164 0.0
C1086 C 0.89994 0.94241 0.53505 0.0
H1087 H 0.88934 0.00675 0.45738 0.0
H1088 H 0.90153 0.98168 0.47656 0.0
H1089 H 0.86014 0.94871 0.51021 0.0
H1090 H 0.89546 0.92574 0.59697 0.0
H1091 H 0.88172 0.93546 0.56761 0.0
C1092 C 0.25736 0.5988 0.72326 0.0
C1093 C 0.2427 0.61131 0.72001 0.0
C1094 C 0.272 0.60363 0.73512 0.0
C1095 C 0.29337 0.64402 0.75961 0.0
H1096 H 0.30749 0.60711 0.79624 0.0
C1097 C 0.33459 0.66609 0.82375 0.0
C1098 C 0.32676 0.65973 0.84048 0.0
C1099 C 0.32999 0.65758 0.80688 0.0
C1100 C 0.30377 0.61758 0.78608 0.0
H1101 H 0.23216 0.63885 0.72627 0.0
H1102 H 0.2573 0.64707 0.74716 0.0
H1103 H 0.28776 0.59818 0.77025 0.0
H1104 H 0.3093 0.63842 0.8528 0.0
H1105 H 0.30093 0.62402 0.82357 0.0
H1106 H 0.3081 0.66374 0.77613 0.0
C1107 C 0.25779 0.63367 0.74033 0.0
C1108 C 0.29262 0.6124 0.77103 0.0
C1109 C 0.24323 0.62889 0.72845 0.0
C1110 C 0.31549 0.64378 0.84015 0.0
C1111 C 0.31079 0.63539 0.82332 0.0
C1112 C 0.30436 0.64923 0.77473 0.0
C1113 C 0.27226 0.62105 0.74398 0.0
C1114 C 0.28672 0.62573 0.758 0.0
C1115 C 0.31738 0.64264 0.80639 0.0
C1116 C 0.30913 0.63622 0.78853 0.0
H1117 H 0.25742 0.58519 0.71685 0.0
H1118 H 0.28302 0.59366 0.73747 0.0
H1119 H 0.28945 0.65455 0.74958 0.0
H1120 H 0.34352 0.6782 0.82355 0.0
H1121 H 0.33568 0.66325 0.79414 0.0
C1122 C 0.59699 0.06736 0.0829 0.0
C1123 C 0.57747 0.06756 0.08241 0.0
C1124 C 0.60718 0.06232 0.06715 0.0
C1125 C 0.60285 0.05057 0.01658 0.0
H1126 H 0.64054 0.01401 0.02874 0.0
C1127 C 0.62219 0.98909 0.96943 0.0
C1128 C 0.64091 0.98367 0.96824 0.0
C1129 C 0.61684 0.00342 0.98135 0.0
C1130 C 0.63033 0.02444 0.02506 0.0
H1131 H 0.55339 0.06406 0.0646 0.0
H1132 H 0.571 0.05478 0.03742 0.0
H1133 H 0.62702 0.03275 0.05332 0.0
H1134 H 0.66879 0.98942 0.97817 0.0
H1135 H 0.65935 0.01432 -0.00074 0.0
H1136 H 0.60551 0.0413 0.98838 0.0
C1137 C 0.57857 0.05876 0.0498 0.0
C1138 C 0.62259 0.03528 0.03915 0.0
C1139 C 0.56842 0.06398 0.06548 0.0
C1140 C 0.65425 0.99323 0.97884 0.0
C1141 C 0.64886 0.00746 0.99092 0.0
C1142 C 0.61048 0.03958 0.00249 0.0
C1143 C 0.59805 0.05719 0.05063 0.0
C1144 C 0.60838 0.04813 0.03518 0.0
C1145 C 0.63007 0.01253 0.99246 0.0
C1146 C 0.62395 0.02608 0.00669 0.0
H1147 H 0.6044 0.0703 0.09568 0.0
H1148 H 0.62218 0.06171 0.06815 0.0
H1149 H 0.59221 0.06058 0.01296 0.0
H1150 H 0.61159 0.98206 0.96136 0.0
H1151 H 0.60222 0.00688 0.98242 0.0
C1152 C 0.68127 0.17813 0.67719 0.0
C1153 C 0.67647 0.16845 0.66092 0.0
C1154 C 0.68645 0.16849 0.69322 0.0
C1155 C 0.70755 0.12372 0.70553 0.0
H1156 H 0.70386 0.14341 0.75557 0.0
C1157 C 0.74854 0.09178 0.76646 0.0
C1158 C 0.759 0.10479 0.7766 0.0
C1159 C 0.73462 0.09769 0.75427 0.0
C1160 C 0.70494 0.13772 0.74167 0.0
H1161 H 0.67158 0.14109 0.64925 0.0
H1162 H 0.68014 0.12426 0.6774 0.0
H1163 H 0.68489 0.15682 0.73079 0.0
H1164 H 0.76255 0.13415 0.7825 0.0
H1165 H 0.73829 0.14444 0.76122 0.0
H1166 H 0.72788 0.10493 0.71631 0.0
C1167 C 0.68048 0.1393 0.67759 0.0
C1168 C 0.69411 0.14541 0.72747 0.0
C1169 C 0.67546 0.14895 0.66149 0.0
C1170 C 0.75481 0.12378 0.77481 0.0
C1171 C 0.7408 0.12967 0.76275 0.0
C1172 C 0.71823 0.11596 0.71974 0.0
C1173 C 0.68678 0.14894 0.6934 0.0
C1174 C 0.6957 0.13886 0.70911 0.0
C1175 C 0.73076 0.11672 0.75213 0.0
C1176 C 0.71743 0.12322 0.73783 0.0
H1177 H 0.68214 0.19316 0.67725 0.0
H1178 H 0.69134 0.17642 0.70503 0.0
H1179 H 0.70941 0.1185 0.69154 0.0
H1180 H 0.75138 0.07704 0.7676 0.0
H1181 H 0.72701 0.0874 0.74633 0.0
C1182 C 0.11743 0.50096 0.02322 0.0
C1183 C 0.13592 0.50705 0.02466 0.0
C1184 C 0.11273 0.48656 0.01111 0.0
C1185 C 0.12745 0.46665 0.96729 0.0
H1186 H 0.08964 0.42979 0.9781 0.0
C1187 C 0.09449 0.42552 0.90796 0.0
C1188 C 0.07496 0.42563 0.90835 0.0
C1189 C 0.10467 0.42985 0.92394 0.0
C1190 C 0.10023 0.43998 0.97485 0.0
H1191 H 0.16411 0.50236 0.01505 0.0
H1192 H 0.1558 0.47732 0.99364 0.0
H1193 H 0.10248 0.44859 0.00328 0.0
H1194 H 0.05085 0.42879 0.92619 0.0
H1195 H 0.06846 0.43677 0.95377 0.0
H1196 H 0.1245 0.45901 0.9388 0.0
C1197 C 0.14498 0.48373 0.00192 0.0
C1198 C 0.10759 0.4507 0.98928 0.0
C1199 C 0.14972 0.49803 0.01418 0.0
C1200 C 0.06588 0.42869 0.92537 0.0
C1201 C 0.07604 0.43315 0.94128 0.0
C1202 C 0.11999 0.45606 0.95285 0.0
C1203 C 0.12639 0.47803 8e-05 0.0
C1204 C 0.12087 0.46453 0.98554 0.0
C1205 C 0.09553 0.4345 0.94059 0.0
C1206 C 0.10585 0.44301 0.95636 0.0
H1207 H 0.10649 0.50754 0.03119 0.0
H1208 H 0.09825 0.48263 0.00982 0.0
H1209 H 0.13754 0.47732 0.96395 0.0
H1210 H 0.10192 0.42298 0.89512 0.0
H1211 H 0.11969 0.43034 0.92303 0.0
C1212 C 0.72235 0.85374 0.25937 0.0
C1213 C 0.72402 0.86822 0.27235 0.0
C1214 C 0.73732 0.84894 0.24802 0.0
C1215 C 0.78037 0.86752 0.22792 0.0
H1216 H 0.78864 0.8157 0.21574 0.0
C1217 C 0.82585 0.81575 0.17638 0.0
C1218 C 0.8228 0.82523 0.15957 0.0
C1219 C 0.8186 0.82267 0.19302 0.0
C1220 C 0.78686 0.83023 0.21924 0.0
H1221 H 0.74279 0.88894 0.28369 0.0
H1222 H 0.76899 0.88046 0.26383 0.0
H1223 H 0.76613 0.82382 0.23954 0.0
H1224 H 0.81144 0.85036 0.14733 0.0
H1225 H 0.79854 0.86219 0.17617 0.0
H1226 H 0.80098 0.87391 0.2074 0.0
C1227 C 0.75603 0.87294 0.26238 0.0
C1228 C 0.77372 0.83489 0.2327 0.0
C1229 C 0.74104 0.87774 0.27379 0.0
C1230 C 0.81393 0.84263 0.16002 0.0
C1231 C 0.80659 0.84948 0.17662 0.0
C1232 C 0.79357 0.86286 0.21443 0.0
C1233 C 0.75432 0.85848 0.24938 0.0
C1234 C 0.76993 0.85359 0.23681 0.0
C1235 C 0.80808 0.83914 0.19315 0.0
C1236 C 0.79661 0.84417 0.20958 0.0
H1237 H 0.70943 0.84616 0.25788 0.0
H1238 H 0.73544 0.83794 0.23791 0.0
H1239 H 0.77775 0.88207 0.23077 0.0
H1240 H 0.83287 0.80244 0.17655 0.0
H1241 H 0.8204 0.8146 0.20561 0.0
C1242 C 0.3718 0.49225 0.52158 0.0
C1243 C 0.35304 0.48686 0.52221 0.0
C1244 C 0.37769 0.50601 0.50923 0.0
C1245 C 0.36593 0.52584 0.46427 0.0
H1246 H 0.40343 0.5624 0.47704 0.0
C1247 C 0.40058 0.56873 0.40704 0.0
C1248 C 0.42009 0.56891 0.408 0.0
C1249 C 0.39001 0.56366 0.42254 0.0
C1250 C 0.39297 0.55227 0.47324 0.0
H1251 H 0.32565 0.49201 0.51069 0.0
H1252 H 0.33603 0.51595 0.48893 0.0
H1253 H 0.38939 0.54345 0.50148 0.0
H1254 H 0.44372 0.56542 0.42641 0.0
H1255 H 0.42544 0.5562 0.45318 0.0
H1256 H 0.37011 0.53381 0.43601 0.0
C1257 C 0.34614 0.50948 0.49802 0.0
C1258 C 0.38493 0.54145 0.48724 0.0
C1259 C 0.34022 0.49581 0.51049 0.0
C1260 C 0.42872 0.56533 0.42515 0.0
C1261 C 0.41818 0.56014 0.44059 0.0
C1262 C 0.37407 0.53653 0.45027 0.0
C1263 C 0.36497 0.5146 0.49715 0.0
C1264 C 0.37166 0.52782 0.48282 0.0
C1265 C 0.39874 0.55856 0.43928 0.0
C1266 C 0.38804 0.54955 0.45451 0.0
H1267 H 0.38202 0.48567 0.53047 0.0
H1268 H 0.39233 0.50949 0.50871 0.0
H1269 H 0.35589 0.51531 0.46042 0.0
H1270 H 0.39348 0.57163 0.39407 0.0
H1271 H 0.37504 0.56301 0.42117 0.0
C1272 C 0.23374 0.24841 0.3998 0.0
C1273 C 0.22309 0.25802 0.38653 0.0
C1274 C 0.24608 0.23447 0.39428 0.0
C1275 C 0.25835 0.20304 0.35561 0.0
H1276 H 0.30899 0.21065 0.37231 0.0
C1277 C 0.32181 0.18058 0.31327 0.0
C1278 C 0.33888 0.17755 0.32225 0.0
C1279 C 0.30599 0.18514 0.32353 0.0
C1280 C 0.2949 0.20788 0.36783 0.0
H1281 H 0.21641 0.26002 0.35718 0.0
H1282 H 0.23792 0.23567 0.34758 0.0
H1283 H 0.28407 0.22876 0.38599 0.0
H1284 H 0.35232 0.17494 0.34911 0.0
H1285 H 0.32455 0.18227 0.36707 0.0
H1286 H 0.26922 0.18241 0.33716 0.0
C1287 C 0.2367 0.23889 0.36224 0.0
C1288 C 0.2806 0.21837 0.37566 0.0
C1289 C 0.22452 0.25295 0.36773 0.0
C1290 C 0.33942 0.17748 0.34177 0.0
C1291 C 0.32353 0.18181 0.35206 0.0
C1292 C 0.27264 0.19238 0.34791 0.0
C1293 C 0.24782 0.22973 0.37542 0.0
C1294 C 0.26229 0.21648 0.36922 0.0
C1295 C 0.30683 0.18652 0.34302 0.0
C1296 C 0.29119 0.19511 0.35348 0.0
H1297 H 0.23289 0.25196 0.41441 0.0
H1298 H 0.25444 0.22756 0.40473 0.0
H1299 H 0.24429 0.20114 0.35059 0.0
H1300 H 0.3209 0.18069 0.29824 0.0
H1301 H 0.29347 0.18879 0.31603 0.0
C1302 C 0.9871 0.97263 0.62534 0.0
C1303 C 0.97675 0.97458 0.64177 0.0
C1304 C -0.0002 0.98633 0.62001 0.0
C1305 C 0.02383 0.02932 0.63699 0.0
H1306 H 0.02426 0.04176 0.58454 0.0
C1307 C 0.03813 0.10195 0.60683 0.0
C1308 C 0.04895 0.10335 0.59065 0.0
C1309 C 0.03404 0.08459 0.61445 0.0
C1310 C 0.02458 0.03824 0.59918 0.0
H1311 H 0.97175 0.99221 0.66567 0.0
H1312 H 0.99318 0.01647 0.65604 0.0
H1313 H 0.0076 0.01431 0.595 0.0
H1314 H 0.06474 0.08781 0.57022 0.0
H1315 H 0.05713 0.05731 0.58334 0.0
H1316 H 0.03981 0.05416 0.64111 0.0
C1317 C 0.99204 0.00415 0.64749 0.0
C1318 C 0.01505 0.02245 0.60522 0.0
C1319 C 0.97959 0.9903 0.65296 0.0
C1320 C 0.0564 0.08712 0.58274 0.0
C1321 C 0.052 0.0697 0.59017 0.0
C1322 C 0.0331 0.04529 0.63095 0.0
C1323 C 0.00218 0.00246 0.63084 0.0
C1324 C 0.0142 0.01799 0.62426 0.0
C1325 C 0.04044 0.0683 0.60585 0.0
C1326 C 0.03324 0.05006 0.61204 0.0
H1327 H 0.98536 0.96053 0.61656 0.0
H1328 H 0.00761 0.98433 0.60731 0.0
H1329 H 0.02388 0.0261 0.65169 0.0
H1330 H 0.03229 0.11425 0.61325 0.0
H1331 H 0.02498 0.08387 0.62646 0.0
C1332 C 0.27678 0.73442 0.8687 0.0
C1333 C 0.27499 0.72842 0.88719 0.0
C1334 C 0.2651 0.74823 0.86165 0.0
C1335 C 0.23075 0.78455 0.87546 0.0
H1336 H 0.21206 0.77614 0.82563 0.0
C1337 C 0.16213 0.81452 0.84609 0.0
C1338 C 0.16149 0.81897 0.82706 0.0
C1339 C 0.17839 0.80736 0.85397 0.0
C1340 C 0.21739 0.77892 0.83943 0.0
H1341 H 0.2598 0.73239 0.91291 0.0
H1342 H 0.23898 0.75601 0.90046 0.0
H1343 H 0.23563 0.7556 0.83821 0.0
H1344 H 0.1779 0.8211 0.80183 0.0
H1345 H 0.20622 0.80869 0.81563 0.0
H1346 H 0.2117 0.80746 0.87681 0.0
C1347 C 0.24968 0.75041 0.89149 0.0
C1348 C 0.23095 0.76713 0.84668 0.0
C1349 C 0.26152 0.73675 0.8986 0.0
C1350 C 0.17785 0.8176 0.81648 0.0
C1351 C 0.19406 0.81041 0.82435 0.0
C1352 C 0.21701 0.79628 0.86824 0.0
C1353 C 0.25119 0.75618 0.87286 0.0
C1354 C 0.23768 0.76965 0.86485 0.0
C1355 C 0.19427 0.80452 0.84297 0.0
C1356 C 0.21009 0.79347 0.8502 0.0
H1357 H 0.2872 0.72844 0.85963 0.0
H1358 H 0.26694 0.75259 0.84736 0.0
H1359 H 0.23582 0.78708 0.8894 0.0
H1360 H 0.14979 0.81549 0.85465 0.0
H1361 H 0.17812 0.80291 0.86836 0.0
C1362 C 0.50548 0.01006 0.14667 0.0
C1363 C 0.5126 0.02427 0.13535 0.0
C1364 C 0.49166 -0.00186 0.13998 0.0
C1365 C 0.47291 0.98093 0.09539 0.0
H1366 H 0.43594 0.95765 0.12698 0.0
C1367 C 0.42468 0.92568 0.06568 0.0
C1368 C 0.42524 0.90882 0.07553 0.0
C1369 C 0.43095 0.94209 0.07392 0.0
C1370 C 0.44616 0.96411 0.118 0.0
H1371 H 0.51014 0.03787 0.10856 0.0
H1372 H 0.48569 0.01752 0.09709 0.0
H1373 H 0.45563 0.98238 0.13952 0.0
H1374 H 0.43114 0.8963 0.10235 0.0
H1375 H 0.44216 0.92495 0.11668 0.0
H1376 H 0.46371 0.96256 0.07399 0.0
C1377 C 0.49114 0.01512 0.11091 0.0
C1378 C 0.4575 0.9782 0.12518 0.0
C1379 C 0.50511 0.02685 0.11751 0.0
C1380 C 0.43064 0.90903 0.09433 0.0
C1381 C 0.43689 0.92547 0.10258 0.0
C1382 C 0.4615 0.96703 0.0882 0.0
C1383 C 0.48453 0.00034 0.12189 0.0
C1384 C 0.47124 0.98657 0.11403 0.0
C1385 C 0.43785 0.94199 0.09219 0.0
C1386 C 0.4482 0.95826 0.09948 0.0
H1387 H 0.511 0.00773 0.16049 0.0
H1388 H 0.4871 0.98679 0.14875 0.0
H1389 H 0.48357 0.98672 0.08647 0.0
H1390 H 0.42039 0.92606 0.05125 0.0
H1391 H 0.43122 0.95471 0.06569 0.0
C1392 C 0.7215 0.23513 0.61932 0.0
C1393 C 0.72245 0.22606 0.60208 0.0
C1394 C 0.73493 0.24823 0.6243 0.0
C1395 C 0.77454 0.27636 0.60589 0.0
H1396 H 0.79202 0.27224 0.6567 0.0
C1397 C 0.84781 0.2973 0.63134 0.0
C1398 C 0.84959 0.30436 0.64947 0.0
C1399 C 0.83039 0.29217 0.62444 0.0
C1400 C 0.78709 0.27386 0.64256 0.0
H1401 H 0.73787 0.22394 0.57628 0.0
H1402 H 0.7617 0.24626 0.5852 0.0
H1403 H 0.76513 0.25447 0.64693 0.0
H1404 H 0.83427 0.31319 0.67392 0.0
H1405 H 0.80392 0.30425 0.66184 0.0
H1406 H 0.79729 0.29513 0.60146 0.0
C1407 C 0.75036 0.24365 0.59474 0.0
C1408 C 0.77162 0.26367 0.63693 0.0
C1409 C 0.73677 0.23073 0.58967 0.0
C1410 C 0.83343 0.30757 0.65998 0.0
C1411 C 0.81604 0.3024 0.6531 0.0
C1412 C 0.79018 0.28646 0.61151 0.0
C1413 C 0.74978 0.25234 0.61226 0.0
C1414 C 0.76526 0.26457 0.61846 0.0
C1415 C 0.81444 0.294 0.63555 0.0
C1416 C 0.79674 0.28512 0.62985 0.0
H1417 H 0.71046 0.23201 0.62908 0.0
H1418 H 0.73378 0.25494 0.63772 0.0
H1419 H 0.76985 0.27763 0.59164 0.0
H1420 H 0.85997 0.29477 0.62283 0.0
H1421 H 0.82959 0.28568 0.61087 0.0
C1422 C 0.00755 0.47372 0.87207 0.0
C1423 C 0.01318 0.47256 0.8534 0.0
C1424 C 0.9937 0.4862 0.87741 0.0
C1425 C 0.97371 0.53066 0.86425 0.0
H1426 H 0.93612 0.51811 0.9008 0.0
C1427 C 0.92859 0.58783 0.89617 0.0
C1428 C 0.92755 0.58721 0.91568 0.0
C1429 C 0.93446 0.57226 0.88614 0.0
C1430 C 0.94654 0.52186 0.89061 0.0
H1431 H 0.00845 0.48333 0.82563 0.0
H1432 H 0.98438 0.50537 0.83505 0.0
H1433 H 0.95583 0.49368 0.88789 0.0
H1434 H 0.93045 0.56934 0.93981 0.0
H1435 H 0.94107 0.54248 0.92247 0.0
H1436 H 0.96525 0.55888 0.86759 0.0
C1437 C 0.99071 0.49657 0.84551 0.0
C1438 C 0.95779 0.50786 0.88321 0.0
C1439 C 0.00446 0.48394 0.84013 0.0
C1440 C 0.93118 0.57033 0.9248 0.0
C1441 C 0.93718 0.55484 0.9148 0.0
C1442 C 0.96259 0.54467 0.87176 0.0
C1443 C 0.98528 0.49789 0.86422 0.0
C1444 C 0.97177 0.5122 0.87029 0.0
C1445 C 0.93953 0.55581 0.89541 0.0
C1446 C 0.94917 0.54052 0.88538 0.0
H1447 H 0.01394 0.46507 0.88262 0.0
H1448 H 0.98996 0.48708 0.89197 0.0
H1449 H 0.98449 0.53444 0.85445 0.0
H1450 H 0.92569 0.60057 0.8887 0.0
H1451 H 0.93571 0.57336 0.87118 0.0
C1452 C 0.66279 0.68119 0.15248 0.0
C1453 C 0.66347 0.6813 0.17201 0.0
C1454 C 0.67845 0.68602 0.14206 0.0
C1455 C 0.72914 0.69724 0.14556 0.0
H1456 H 0.71699 0.73367 0.10771 0.0
C1457 C 0.77761 0.75713 0.12447 0.0
C1458 C 0.77846 0.7624 0.10568 0.0
C1459 C 0.76532 0.74327 0.13026 0.0
C1460 C 0.72066 0.72327 0.11797 0.0
H1461 H 0.68154 0.6851 0.19586 0.0
H1462 H 0.7086 0.69394 0.17781 0.0
H1463 H 0.69232 0.71547 0.12184 0.0
H1464 H 0.7675 0.75689 0.07813 0.0
H1465 H 0.74583 0.7328 0.08834 0.0
H1466 H 0.75745 0.70593 0.14228 0.0
C1467 C 0.6961 0.68993 0.17044 0.0
C1468 C 0.70651 0.71276 0.12606 0.0
C1469 C 0.6805 0.68496 0.18084 0.0
C1470 C 0.76711 0.75319 0.09272 0.0
C1471 C 0.75469 0.73943 0.09855 0.0
C1472 C 0.74329 0.70789 0.13755 0.0
C1473 C 0.69508 0.69119 0.15095 0.0
C1474 C 0.7105 0.69996 0.14031 0.0
C1475 C 0.75353 0.73449 0.11742 0.0
C1476 C 0.73911 0.72134 0.12402 0.0
H1477 H 0.64993 0.6782 0.14524 0.0
H1478 H 0.67731 0.68643 0.12705 0.0
H1479 H 0.73275 0.68727 0.15624 0.0
H1480 H 0.78625 0.76389 0.13479 0.0
H1481 H 0.76458 0.73993 0.14493 0.0
C1482 C 0.49068 0.52519 0.37382 0.0
C1483 C 0.48517 0.52542 0.35508 0.0
C1484 C 0.50447 0.51296 0.37987 0.0
C1485 C 0.52339 0.46755 0.36923 0.0
H1486 H 0.5605 0.48057 0.40609 0.0
C1487 C 0.5642 0.41023 0.40593 0.0
C1488 C 0.56471 0.412 0.42538 0.0
C1489 C 0.55972 0.42548 0.39477 0.0
C1490 C 0.5502 0.47669 0.39582 0.0
H1491 H 0.49017 0.51342 0.32787 0.0
H1492 H 0.51411 0.4918 0.33857 0.0
H1493 H 0.54212 0.50502 0.39134 0.0
H1494 H 0.56239 0.43148 0.44826 0.0
H1495 H 0.55407 0.45784 0.42897 0.0
H1496 H 0.53051 0.43925 0.37437 0.0
C1497 C 0.50774 0.50113 0.34852 0.0
C1498 C 0.53973 0.4907 0.38735 0.0
C1499 C 0.49407 0.51351 0.34242 0.0
C1500 C 0.56205 0.42962 0.43333 0.0
C1501 C 0.55737 0.44482 0.42219 0.0
C1502 C 0.5337 0.45355 0.37781 0.0
C1503 C 0.51292 0.50059 0.36735 0.0
C1504 C 0.5259 0.48621 0.37432 0.0
C1505 C 0.55546 0.44277 0.40283 0.0
C1506 C 0.5469 0.45789 0.39158 0.0
H1507 H 0.48416 0.53427 0.38389 0.0
H1508 H 0.50801 0.5127 0.39451 0.0
H1509 H 0.51268 0.46366 0.35937 0.0
H1510 H 0.56644 0.39686 0.39937 0.0
H1511 H 0.55884 0.42352 0.37987 0.0
C1512 C 0.37142 0.22549 0.25274 0.0
C1513 C 0.39031 0.22443 0.25759 0.0
C1514 C 0.36548 0.23778 0.23895 0.0
C1515 C 0.37773 0.28217 0.21836 0.0
H1516 H 0.33924 0.26989 0.18267 0.0
C1517 C 0.34315 0.33981 0.17595 0.0
C1518 C 0.32363 0.33911 0.17607 0.0
C1519 C 0.35358 0.32418 0.1809 0.0
C1520 C 0.34998 0.27356 0.19256 0.0
H1521 H 0.41785 0.2351 0.25145 0.0
H1522 H 0.40736 0.25679 0.2275 0.0
H1523 H 0.35317 0.24532 0.20153 0.0
H1524 H 0.2998 0.32105 0.17999 0.0
H1525 H 0.31783 0.29409 0.18905 0.0
H1526 H 0.37392 0.31045 0.21031 0.0
C1527 C 0.3972 0.24807 0.23439 0.0
C1528 C 0.35796 0.25948 0.20332 0.0
C1529 C 0.40319 0.23563 0.24807 0.0
C1530 C 0.31481 0.32211 0.17985 0.0
C1531 C 0.32521 0.30655 0.18494 0.0
C1532 C 0.36964 0.29626 0.20775 0.0
C1533 C 0.37827 0.24939 0.22982 0.0
C1534 C 0.37159 0.26373 0.21664 0.0
C1535 C 0.34469 0.30758 0.18619 0.0
C1536 C 0.35532 0.29221 0.19506 0.0
H1537 H 0.36117 0.21699 0.25976 0.0
H1538 H 0.35076 0.23867 0.23588 0.0
H1539 H 0.38807 0.28589 0.22866 0.0
H1540 H 0.35038 0.35266 0.17288 0.0
H1541 H 0.36858 0.32533 0.18129 0.0
C1542 C 0.84577 0.15581 0.81937 0.0
C1543 C 0.82626 0.15678 0.81947 0.0
C1544 C 0.85639 0.17151 0.81506 0.0
C1545 C 0.85332 0.22264 0.80541 0.0
H1546 H 0.89078 0.21119 0.76841 0.0
C1547 C 0.87306 0.27129 0.74527 0.0
C1548 C 0.89175 0.27234 0.7397 0.0
C1549 C 0.86767 0.25913 0.75939 0.0
C1550 C 0.88065 0.21466 0.77898 0.0
H1551 H 0.80267 0.17533 0.81659 0.0
H1552 H 0.82101 0.20242 0.80858 0.0
H1553 H 0.87678 0.18617 0.78621 0.0
H1554 H 0.91955 0.26197 0.74504 0.0
H1555 H 0.91003 0.24046 0.76957 0.0
H1556 H 0.85649 0.25111 0.79718 0.0
C1557 C 0.82825 0.18969 0.81207 0.0
C1558 C 0.87263 0.2003 0.78928 0.0
C1559 C 0.81767 0.17407 0.81655 0.0
C1560 C 0.90503 0.26142 0.74897 0.0
C1561 C 0.8996 0.24909 0.76298 0.0
C1562 C 0.86122 0.23699 0.79495 0.0
C1563 C 0.84771 0.18846 0.81059 0.0
C1564 C 0.85846 0.20404 0.80224 0.0
C1565 C 0.88082 0.24764 0.76814 0.0
C1566 C 0.87459 0.23306 0.78128 0.0
H1567 H 0.85283 0.14274 0.8218 0.0
H1568 H 0.87136 0.17016 0.81448 0.0
H1569 H 0.84273 0.22607 0.81554 0.0
H1570 H 0.86251 0.27961 0.73847 0.0
H1571 H 0.85307 0.25815 0.76292 0.0
C1572 C 0.98057 0.65526 0.98786 0.0
C1573 C 0.96724 0.64281 0.98089 0.0
C1574 C 0.993 0.64963 0.00168 0.0
C1575 C 0.01395 0.60671 0.02022 0.0
H1576 H 0.03569 0.64037 0.05628 0.0
C1577 C 0.07408 0.58242 0.06543 0.0
C1578 C 0.08984 0.5939 0.06402 0.0
C1579 C 0.05661 0.58903 0.06021 0.0
C1580 C 0.02967 0.63081 0.04633 0.0
H1581 H 0.9557 0.61512 0.9837 0.0
H1582 H 0.97698 0.60547 0.00818 0.0
H1583 H 0.00924 0.65059 0.03752 0.0
H1584 H 0.0993 0.62185 0.05781 0.0
H1585 H 0.06881 0.63333 0.04856 0.0
H1586 H 0.03451 0.58709 0.02869 0.0
C1587 C 0.97827 0.61939 0.0026 0.0
C1588 C 0.01459 0.63667 0.03552 0.0
C1589 C 0.96601 0.62493 0.98861 0.0
C1590 C 0.08747 0.61261 0.05893 0.0
C1591 C 0.06997 0.61923 0.0537 0.0
C1592 C 0.02886 0.60084 0.0311 0.0
C1593 C 0.99223 0.6315 0.00899 0.0
C1594 C 0.0068 0.6248 0.02205 0.0
C1595 C 0.05453 0.60726 0.05351 0.0
C1596 C 0.03713 0.61292 0.04402 0.0
H1597 H 0.98185 0.66914 0.98216 0.0
H1598 H 0.00369 0.65927 0.00606 0.0
H1599 H 0.00862 0.59729 0.00977 0.0
H1600 H 0.07537 0.568 0.06956 0.0
H1601 H 0.04488 0.5796 0.06054 0.0
C1602 C 0.63287 0.84356 0.31493 0.0
C1603 C 0.65148 0.84696 0.31979 0.0
C1604 C 0.62707 0.82564 0.31019 0.0
C1605 C 0.64733 0.78524 0.28811 0.0
H1606 H 0.59853 0.76343 0.29488 0.0
C1607 C 0.62551 0.72192 0.24514 0.0
C1608 C 0.60754 0.7226 0.23755 0.0
C1609 C 0.63067 0.73412 0.25932 0.0
C1610 C 0.6122 0.76938 0.2928 0.0
H1611 H 0.67808 0.8339 0.32547 0.0
H1612 H 0.66791 0.80268 0.31727 0.0
H1613 H 0.60767 0.79036 0.31351 0.0
H1614 H 0.58067 0.73611 0.23931 0.0
H1615 H 0.58984 0.75787 0.26352 0.0
H1616 H 0.65163 0.76517 0.26678 0.0
C1617 C 0.65791 0.81392 0.31677 0.0
C1618 C 0.61744 0.78473 0.30354 0.0
C1619 C 0.66371 0.83181 0.32152 0.0
C1620 C 0.59463 0.73527 0.24488 0.0
C1621 C 0.59986 0.74765 0.25889 0.0
C1622 C 0.64206 0.77006 0.2773 0.0
C1623 C 0.63978 0.81081 0.31025 0.0
C1624 C 0.63495 0.79301 0.30105 0.0
C1625 C 0.61806 0.74747 0.26605 0.0
C1626 C 0.62429 0.76215 0.27922 0.0
H1627 H 0.62306 0.85491 0.31359 0.0
H1628 H 0.61301 0.82369 0.30518 0.0
H1629 H 0.66078 0.79151 0.28559 0.0
H1630 H 0.63568 0.7121 0.23996 0.0
H1631 H 0.64467 0.7333 0.26478 0.0
C1632 C 0.42269 0.43698 0.5689 0.0
C1633 C 0.40621 0.42729 0.5728 0.0
C1634 C 0.43916 0.42734 0.56541 0.0
C1635 C 0.45305 0.38171 0.54725 0.0
H1636 H 0.50242 0.40289 0.55148 0.0
C1637 C 0.5152 0.34995 0.50858 0.0
C1638 C 0.52455 0.36286 0.49727 0.0
C1639 C 0.50312 0.35601 0.52252 0.0
C1640 C 0.48872 0.39676 0.55031 0.0
H1641 H 0.39446 0.40005 0.57812 0.0
H1642 H 0.42336 0.38324 0.5727 0.0
H1643 H 0.47676 0.4165 0.56907 0.0
H1644 H 0.52938 0.39222 0.49238 0.0
H1645 H 0.5083 0.40278 0.51672 0.0
H1646 H 0.46493 0.36226 0.52821 0.0
C1647 C 0.42344 0.39825 0.57162 0.0
C1648 C 0.47401 0.40457 0.56032 0.0
C1649 C 0.40689 0.40788 0.57485 0.0
C1650 C 0.52228 0.38193 0.50078 0.0
C1651 C 0.51034 0.38798 0.51483 0.0
C1652 C 0.46778 0.37381 0.53744 0.0
C1653 C 0.43956 0.40779 0.56599 0.0
C1654 C 0.45585 0.39753 0.55841 0.0
C1655 C 0.50032 0.37509 0.52555 0.0
C1656 C 0.48563 0.38161 0.53841 0.0
H1657 H 0.42265 0.45195 0.56727 0.0
H1658 H 0.45119 0.43522 0.561 0.0
H1659 H 0.43927 0.37605 0.54511 0.0
H1660 H 0.51673 0.33515 0.50629 0.0
H1661 H 0.49565 0.34578 0.53067 0.0
C1662 C 0.13243 0.65591 0.69305 0.0
C1663 C 0.15092 0.65407 0.68702 0.0
C1664 C 0.12543 0.67332 0.69811 0.0
C1665 C 0.14337 0.71603 0.71809 0.0
H1666 H 0.09258 0.73344 0.71368 0.0
C1667 C 0.11944 0.78013 0.75858 0.0
C1668 C 0.10218 0.77861 0.76756 0.0
C1669 C 0.12455 0.76736 0.7449 0.0
C1670 C 0.1068 0.72871 0.7151 0.0
H1671 H 0.17592 0.66928 0.6797 0.0
H1672 H 0.16365 0.6996 0.68837 0.0
H1673 H 0.10278 0.70653 0.69558 0.0
H1674 H 0.07645 0.76298 0.76883 0.0
H1675 H 0.08561 0.74029 0.74544 0.0
H1676 H 0.14731 0.73741 0.73819 0.0
C1677 C 0.15471 0.68755 0.68959 0.0
C1678 C 0.11264 0.71337 0.70468 0.0
C1679 C 0.16171 0.67017 0.68457 0.0
C1680 C 0.08985 0.76449 0.76213 0.0
C1681 C 0.09506 0.75156 0.74861 0.0
C1682 C 0.13753 0.73122 0.72857 0.0
C1683 C 0.13679 0.68918 0.69717 0.0
C1684 C 0.13093 0.70672 0.70628 0.0
C1685 C 0.11263 0.75262 0.74009 0.0
C1686 C 0.11911 0.73761 0.72744 0.0
H1687 H 0.12371 0.64379 0.69499 0.0
H1688 H 0.11158 0.67412 0.70394 0.0
H1689 H 0.15745 0.71103 0.71996 0.0
H1690 H 0.12912 0.79104 0.76228 0.0
H1691 H 0.13801 0.76886 0.73834 0.0
C1692 C 0.4718 0.87193 0.00861 0.0
C1693 C 0.47084 0.85332 0.01444 0.0
C1694 C 0.48437 0.8773 0.99483 0.0
C1695 C 0.52927 0.86457 0.9756 0.0
H1696 H 0.51688 0.9008 0.93764 0.0
C1697 C 0.58673 0.89705 0.93118 0.0
C1698 C 0.5859 0.91654 0.93006 0.0
C1699 C 0.5712 0.88684 0.93687 0.0
C1700 C 0.52058 0.8907 0.94817 0.0
H1701 H 0.48202 0.82565 0.01013 0.0
H1702 H 0.5042 0.83514 0.9862 0.0
H1703 H 0.4923 0.88765 0.95702 0.0
H1704 H 0.56772 0.94045 0.93265 0.0
H1705 H 0.54092 0.92281 0.94296 0.0
H1706 H 0.55758 0.86824 0.96757 0.0
C1707 C 0.49519 0.84553 0.99231 0.0
C1708 C 0.5065 0.88316 0.95923 0.0
C1709 C 0.48248 0.84012 0.00597 0.0
C1710 C 0.56887 0.92546 0.93344 0.0
C1711 C 0.55341 0.91529 0.93926 0.0
C1712 C 0.54336 0.87221 0.96466 0.0
C1713 C 0.49634 0.86421 0.9867 0.0
C1714 C 0.51078 0.87036 0.97335 0.0
C1715 C 0.55457 0.89592 0.94168 0.0
C1716 C 0.53926 0.88572 0.95112 0.0
H1717 H 0.46296 0.88243 0.01479 0.0
H1718 H 0.48511 0.89184 0.99097 0.0
H1719 H 0.53301 0.85487 0.9865 0.0
H1720 H 0.5996 0.88972 0.92846 0.0
H1721 H 0.57245 0.8719 0.93818 0.0
C1722 C 0.89945 0.11644 0.4364 0.0
C1723 C 0.89819 0.09799 0.43009 0.0
C1724 C 0.91671 0.12409 0.44099 0.0
C1725 C 0.9604 0.10735 0.45963 0.0
H1726 H 0.97573 0.15891 0.45648 0.0
C1727 C 0.02383 0.13272 0.50033 0.0
C1728 C 0.02181 0.14972 0.50968 0.0
C1729 C 0.01113 0.12745 0.48664 0.0
C1730 C 0.97159 0.14448 0.45754 0.0
H1731 H 0.91419 0.07386 0.42164 0.0
H1732 H 0.94425 0.08729 0.42951 0.0
H1733 H 0.94903 0.14814 0.43836 0.0
H1734 H 0.00533 0.17485 0.51161 0.0
H1735 H 0.98272 0.16538 0.48824 0.0
H1736 H 0.98211 0.10373 0.47943 0.0
C1737 C 0.93187 0.09567 0.43132 0.0
C1738 C 0.95637 0.13832 0.4471 0.0
C1739 C 0.91465 0.08801 0.42676 0.0
C1740 C 0.00722 0.16165 0.50464 0.0
C1741 C 0.99434 0.15627 0.49112 0.0
C1742 C 0.97545 0.11351 0.47014 0.0
C1743 C 0.93299 0.11345 0.43931 0.0
C1744 C 0.95047 0.11974 0.44826 0.0
C1745 C 0.99594 0.13894 0.48219 0.0
C1746 C 0.98108 0.13221 0.46948 0.0
H1747 H 0.88704 0.12455 0.43901 0.0
H1748 H 0.91711 0.13783 0.44714 0.0
H1749 H 0.95598 0.09304 0.46116 0.0
H1750 H 0.03513 0.12336 0.50371 0.0
H1751 H 0.01307 0.11421 0.47976 0.0
loop_
_geom_bond_atom_site_label_1
_geom_bond_atom_site_label_2
_geom_bond_distance
_geom_bond_site_symmetry_2
_ccdc_geom_bond_type
C0 O1 1.160 . S
C0 O7 1.185 . S
O1 C0 1.160 . S
O2 Zn3 1.899 . S
O2 C10 1.284 . S
Zn3 O2 1.899 . S
Zn3 O4 2.032 . S
Zn3 O7 2.086 . S
Zn3 O12 1.977 . S
O4 Zn3 2.032 . S
O4 C8 1.278 . S
C5 O6 1.203 . S
C5 O12 1.267 . S
O6 C5 1.203 . S
O7 C0 1.185 . S
O7 Zn3 2.086 . S
C8 O4 1.278 . S
C8 O9 1.211 . S
O9 C8 1.211 . S
C10 O2 1.284 . S
C10 O11 1.273 . S
O11 C10 1.273 . S
O12 Zn3 1.977 . S
O12 C5 1.267 . S
C13 O14 1.160 . S
C13 O20 1.185 . S
O14 C13 1.160 . S
O15 Zn16 1.899 . S
O15 C23 1.284 . S
Zn16 O15 1.899 . S
Zn16 O17 2.032 . S
Zn16 O20 2.086 . S
Zn16 O25 1.977 . S
O17 Zn16 2.032 . S
O17 C21 1.278 . S
C18 O19 1.203 . S
C18 O25 1.267 . S
O19 C18 1.203 . S
O20 C13 1.185 . S
O20 Zn16 2.086 . S
C21 O17 1.278 . S
C21 O22 1.211 . S
O22 C21 1.211 . S
C23 O15 1.284 . S
C23 O24 1.273 . S
O24 C23 1.273 . S
O25 Zn16 1.977 . S
O25 C18 1.267 . S
C26 O27 1.160 . S
C26 O33 1.185 . S
O27 C26 1.160 . S
O28 Zn29 1.899 . S
O28 C36 1.284 . S
Zn29 O28 1.899 . S
Zn29 O30 2.032 . S
Zn29 O33 2.086 . S
Zn29 O38 1.977 . S
O30 Zn29 2.032 . S
O30 C34 1.278 . S
C31 O32 1.203 . S
C31 O38 1.267 . S
O32 C31 1.203 . S
O33 C26 1.185 . S
O33 Zn29 2.086 . S
C34 O30 1.278 . S
C34 O35 1.211 . S
O35 C34 1.211 . S
C36 O28 1.284 . S
C36 O37 1.273 . S
O37 C36 1.273 . S
O38 Zn29 1.977 . S
O38 C31 1.267 . S
C39 O40 1.160 . S
C39 O46 1.185 . S
O40 C39 1.160 . S
O41 Zn42 1.899 . S
O41 C49 1.284 . S
Zn42 O41 1.899 . S
Zn42 O43 2.032 . S
Zn42 O46 2.086 . S
Zn42 O51 1.977 . S
O43 Zn42 2.032 . S
O43 C47 1.278 . S
C44 O45 1.203 . S
C44 O51 1.267 . S
O45 C44 1.203 . S
O46 C39 1.185 . S
O46 Zn42 2.086 . S
C47 O43 1.278 . S
C47 O48 1.211 . S
O48 C47 1.211 . S
C49 O41 1.284 . S
C49 O50 1.273 . S
O50 C49 1.273 . S
O51 Zn42 1.977 . S
O51 C44 1.267 . S
C52 O53 1.160 . S
C52 O59 1.185 . S
O53 C52 1.160 . S
O54 Zn55 1.899 . S
O54 C62 1.284 . S
Zn55 O54 1.899 . S
Zn55 O56 2.032 . S
Zn55 O59 2.086 . S
Zn55 O64 1.977 . S
O56 Zn55 2.032 . S
O56 C60 1.278 . S
C57 O58 1.203 . S
C57 O64 1.267 . S
O58 C57 1.203 . S
O59 C52 1.185 . S
O59 Zn55 2.086 . S
C60 O56 1.278 . S
C60 O61 1.211 . S
O61 C60 1.211 . S
C62 O54 1.284 . S
C62 O63 1.273 . S
O63 C62 1.273 . S
O64 Zn55 1.977 . S
O64 C57 1.267 . S
C65 O66 1.160 . S
C65 O72 1.185 . S
O66 C65 1.160 . S
O67 Zn68 1.899 . S
O67 C75 1.284 . S
Zn68 O67 1.899 . S
Zn68 O69 2.032 . S
Zn68 O72 2.086 . S
Zn68 O77 1.977 . S
O69 Zn68 2.032 . S
O69 C73 1.278 . S
C70 O71 1.203 . S
C70 O77 1.267 . S
O71 C70 1.203 . S
O72 C65 1.185 . S
O72 Zn68 2.086 . S
C73 O69 1.278 . S
C73 O74 1.211 . S
O74 C73 1.211 . S
C75 O67 1.284 . S
C75 O76 1.273 . S
O76 C75 1.273 . S
O77 Zn68 1.977 . S
O77 C70 1.267 . S
C78 O79 1.160 . S
C78 O85 1.185 . S
O79 C78 1.160 . S
O80 Zn81 1.899 . S
O80 C88 1.284 . S
Zn81 O80 1.899 . S
Zn81 O82 2.032 . S
Zn81 O85 2.086 . S
Zn81 O90 1.977 . S
O82 Zn81 2.032 . S
O82 C86 1.278 . S
C83 O84 1.203 . S
C83 O90 1.267 . S
O84 C83 1.203 . S
O85 C78 1.185 . S
O85 Zn81 2.086 . S
C86 O82 1.278 . S
C86 O87 1.211 . S
O87 C86 1.211 . S
C88 O80 1.284 . S
C88 O89 1.273 . S
O89 C88 1.273 . S
O90 Zn81 1.977 . S
O90 C83 1.267 . S
C91 O92 1.160 . S
C91 O98 1.185 . S
O92 C91 1.160 . S
O93 Zn94 1.899 . S
O93 C101 1.284 . S
Zn94 O93 1.899 . S
Zn94 O95 2.032 . S
Zn94 O98 2.086 . S
Zn94 O103 1.977 . S
O95 Zn94 2.032 . S
O95 C99 1.278 . S
C96 O97 1.203 . S
C96 O103 1.267 . S
O97 C96 1.203 . S
O98 C91 1.185 . S
O98 Zn94 2.086 . S
C99 O95 1.278 . S
C99 O100 1.211 . S
O100 C99 1.211 . S
C101 O93 1.284 . S
C101 O102 1.273 . S
O102 C101 1.273 . S
O103 Zn94 1.977 . S
O103 C96 1.267 . S
C104 O105 1.160 . S
C104 O111 1.185 . S
O105 C104 1.160 . S
O106 Zn107 1.899 . S
O106 C114 1.284 . S
Zn107 O106 1.899 . S
Zn107 O108 2.032 . S
Zn107 O111 2.086 . S
Zn107 O116 1.977 . S
O108 Zn107 2.032 . S
O108 C112 1.278 . S
C109 O110 1.203 . S
C109 O116 1.267 . S
O110 C109 1.203 . S
O111 C104 1.185 . S
O111 Zn107 2.086 . S
C112 O108 1.278 . S
C112 O113 1.211 . S
O113 C112 1.211 . S
C114 O106 1.284 . S
C114 O115 1.273 . S
O115 C114 1.273 . S
O116 Zn107 1.977 . S
O116 C109 1.267 . S
C117 O118 1.160 . S
C117 O124 1.185 . S
O118 C117 1.160 . S
O119 Zn120 1.899 . S
O119 C127 1.284 . S
Zn120 O119 1.899 . S
Zn120 O121 2.032 . S
Zn120 O124 2.086 . S
Zn120 O129 1.977 . S
O121 Zn120 2.032 . S
O121 C125 1.278 . S
C122 O123 1.203 . S
C122 O129 1.267 . S
O123 C122 1.203 . S
O124 C117 1.185 . S
O124 Zn120 2.086 . S
C125 O121 1.278 . S
C125 O126 1.211 . S
O126 C125 1.211 . S
C127 O119 1.284 . S
C127 O128 1.273 . S
O128 C127 1.273 . S
O129 Zn120 1.977 . S
O129 C122 1.267 . S
C130 O131 1.160 . S
C130 O137 1.185 . S
O131 C130 1.160 . S
O132 Zn133 1.899 . S
O132 C140 1.284 . S
Zn133 O132 1.899 . S
Zn133 O134 2.032 . S
Zn133 O137 2.086 . S
Zn133 O142 1.977 . S
O134 Zn133 2.032 . S
O134 C138 1.278 . S
C135 O136 1.203 . S
C135 O142 1.267 . S
O136 C135 1.203 . S
O137 C130 1.185 . S
O137 Zn133 2.086 . S
C138 O134 1.278 . S
C138 O139 1.211 . S
O139 C138 1.211 . S
C140 O132 1.284 . S
C140 O141 1.273 . S
O141 C140 1.273 . S
O142 Zn133 1.977 . S
O142 C135 1.267 . S
C143 O144 1.160 . S
C143 O150 1.185 . S
O144 C143 1.160 . S
O145 Zn146 1.899 . S
O145 C153 1.284 . S
Zn146 O145 1.899 . S
Zn146 O147 2.032 . S
Zn146 O150 2.086 . S
Zn146 O155 1.977 . S
O147 Zn146 2.032 . S
O147 C151 1.278 . S
C148 O149 1.203 . S
C148 O155 1.267 . S
O149 C148 1.203 . S
O150 C143 1.185 . S
O150 Zn146 2.086 . S
C151 O147 1.278 . S
C151 O152 1.211 . S
O152 C151 1.211 . S
C153 O145 1.284 . S
C153 O154 1.273 . S
O154 C153 1.273 . S
O155 Zn146 1.977 . S
O155 C148 1.267 . S
C156 O157 1.160 . S
C156 O163 1.185 . S
O157 C156 1.160 . S
O158 Zn159 1.899 . S
O158 C166 1.284 . S
Zn159 O158 1.899 . S
Zn159 O160 2.032 . S
Zn159 O163 2.086 . S
Zn159 O168 1.977 . S
O160 Zn159 2.032 . S
O160 C164 1.278 . S
C161 O162 1.203 . S
C161 O168 1.267 . S
O162 C161 1.203 . S
O163 C156 1.185 . S
O163 Zn159 2.086 . S
C164 O160 1.278 . S
C164 O165 1.211 . S
O165 C164 1.211 . S
C166 O158 1.284 . S
C166 O167 1.273 . S
O167 C166 1.273 . S
O168 Zn159 1.977 . S
O168 C161 1.267 . S
C169 O170 1.160 . S
C169 O176 1.185 . S
O170 C169 1.160 . S
O171 Zn172 1.899 . S
O171 C179 1.284 . S
Zn172 O171 1.899 . S
Zn172 O173 2.032 . S
Zn172 O176 2.086 . S
Zn172 O181 1.977 . S
O173 Zn172 2.032 . S
O173 C177 1.278 . S
C174 O175 1.203 . S
C174 O181 1.267 . S
O175 C174 1.203 . S
O176 C169 1.185 . S
O176 Zn172 2.086 . S
C177 O173 1.278 . S
C177 O178 1.211 . S
O178 C177 1.211 . S
C179 O171 1.284 . S
C179 O180 1.273 . S
O180 C179 1.273 . S
O181 Zn172 1.977 . S
O181 C174 1.267 . S
C182 O183 1.160 . S
C182 O189 1.185 . S
O183 C182 1.160 . S
O184 Zn185 1.899 . S
O184 C192 1.284 . S
Zn185 O184 1.899 . S
Zn185 O186 2.032 . S
Zn185 O189 2.086 . S
Zn185 O194 1.977 . S
O186 Zn185 2.032 . S
O186 C190 1.278 . S
C187 O188 1.203 . S
C187 O194 1.267 . S
O188 C187 1.203 . S
O189 C182 1.185 . S
O189 Zn185 2.086 . S
C190 O186 1.278 . S
C190 O191 1.211 . S
O191 C190 1.211 . S
C192 O184 1.284 . S
C192 O193 1.273 . S
O193 C192 1.273 . S
O194 Zn185 1.977 . S
O194 C187 1.267 . S
C195 O196 1.160 . S
C195 O202 1.185 . S
O196 C195 1.160 . S
O197 Zn198 1.899 . S
O197 C205 1.284 . S
Zn198 O197 1.899 . S
Zn198 O199 2.032 . S
Zn198 O202 2.086 . S
Zn198 O207 1.977 . S
O199 Zn198 2.032 . S
O199 C203 1.278 . S
C200 O201 1.203 . S
C200 O207 1.267 . S
O201 C200 1.203 . S
O202 C195 1.185 . S
O202 Zn198 2.086 . S
C203 O199 1.278 . S
C203 O204 1.211 . S
O204 C203 1.211 . S
C205 O197 1.284 . S
C205 O206 1.273 . S
O206 C205 1.273 . S
O207 Zn198 1.977 . S
O207 C200 1.267 . S
C208 O209 1.160 . S
C208 O215 1.185 . S
O209 C208 1.160 . S
O210 Zn211 1.899 . S
O210 C218 1.284 . S
Zn211 O210 1.899 . S
Zn211 O212 2.032 . S
Zn211 O215 2.086 . S
Zn211 O220 1.977 . S
O212 Zn211 2.032 . S
O212 C216 1.278 . S
C213 O214 1.203 . S
C213 O220 1.267 . S
O214 C213 1.203 . S
O215 C208 1.185 . S
O215 Zn211 2.086 . S
C216 O212 1.278 . S
C216 O217 1.211 . S
O217 C216 1.211 . S
C218 O210 1.284 . S
C218 O219 1.273 . S
O219 C218 1.273 . S
O220 Zn211 1.977 . S
O220 C213 1.267 . S
C221 O222 1.160 . S
C221 O228 1.185 . S
O222 C221 1.160 . S
O223 Zn224 1.899 . S
O223 C231 1.284 . S
Zn224 O223 1.899 . S
Zn224 O225 2.032 . S
Zn224 O228 2.086 . S
Zn224 O233 1.977 . S
O225 Zn224 2.032 . S
O225 C229 1.278 . S
C226 O227 1.203 . S
C226 O233 1.267 . S
O227 C226 1.203 . S
O228 C221 1.185 . S
O228 Zn224 2.086 . S
C229 O225 1.278 . S
C229 O230 1.211 . S
O230 C229 1.211 . S
C231 O223 1.284 . S
C231 O232 1.273 . S
O232 C231 1.273 . S
O233 Zn224 1.977 . S
O233 C226 1.267 . S
C234 O235 1.160 . S
C234 O241 1.185 . S
O235 C234 1.160 . S
O236 Zn237 1.899 . S
O236 C244 1.284 . S
Zn237 O236 1.899 . S
Zn237 O238 2.032 . S
Zn237 O241 2.086 . S
Zn237 O246 1.977 . S
O238 Zn237 2.032 . S
O238 C242 1.278 . S
C239 O240 1.203 . S
C239 O246 1.267 . S
O240 C239 1.203 . S
O241 C234 1.185 . S
O241 Zn237 2.086 . S
C242 O238 1.278 . S
C242 O243 1.211 . S
O243 C242 1.211 . S
C244 O236 1.284 . S
C244 O245 1.273 . S
O245 C244 1.273 . S
O246 Zn237 1.977 . S
O246 C239 1.267 . S
C247 O248 1.160 . S
C247 O254 1.185 . S
O248 C247 1.160 . S
O249 Zn250 1.899 . S
O249 C257 1.284 . S
Zn250 O249 1.899 . S
Zn250 O251 2.032 . S
Zn250 O254 2.086 . S
Zn250 O259 1.977 . S
O251 Zn250 2.032 . S
O251 C255 1.278 . S
C252 O253 1.203 . S
C252 O259 1.267 . S
O253 C252 1.203 . S
O254 C247 1.185 . S
O254 Zn250 2.086 . S
C255 O251 1.278 . S
C255 O256 1.211 . S
O256 C255 1.211 . S
C257 O249 1.284 . S
C257 O258 1.273 . S
O258 C257 1.273 . S
O259 Zn250 1.977 . S
O259 C252 1.267 . S
C260 O261 1.160 . S
C260 O267 1.185 . S
O261 C260 1.160 . S
O262 Zn263 1.899 . S
O262 C270 1.284 . S
Zn263 O262 1.899 . S
Zn263 O264 2.032 . S
Zn263 O267 2.086 . S
Zn263 O272 1.977 . S
O264 Zn263 2.032 . S
O264 C268 1.278 . S
C265 O266 1.203 . S
C265 O272 1.267 . S
O266 C265 1.203 . S
O267 C260 1.185 . S
O267 Zn263 2.086 . S
C268 O264 1.278 . S
C268 O269 1.211 . S
O269 C268 1.211 . S
C270 O262 1.284 . S
C270 O271 1.273 . S
O271 C270 1.273 . S
O272 Zn263 1.977 . S
O272 C265 1.267 . S
C273 O274 1.160 . S
C273 O280 1.185 . S
O274 C273 1.160 . S
O275 Zn276 1.899 . S
O275 C283 1.284 . S
Zn276 O275 1.899 . S
Zn276 O277 2.032 . S
Zn276 O280 2.086 . S
Zn276 O285 1.977 . S
O277 Zn276 2.032 . S
O277 C281 1.278 . S
C278 O279 1.203 . S
C278 O285 1.267 . S
O279 C278 1.203 . S
O280 C273 1.185 . S
O280 Zn276 2.086 . S
C281 O277 1.278 . S
C281 O282 1.211 . S
O282 C281 1.211 . S
C283 O275 1.284 . S
C283 O284 1.273 . S
O284 C283 1.273 . S
O285 Zn276 1.977 . S
O285 C278 1.267 . S
C286 O287 1.160 . S
C286 O293 1.185 . S
O287 C286 1.160 . S
O288 Zn289 1.899 . S
O288 C296 1.284 . S
Zn289 O288 1.899 . S
Zn289 O290 2.032 . S
Zn289 O293 2.086 . S
Zn289 O298 1.977 . S
O290 Zn289 2.032 . S
O290 C294 1.278 . S
C291 O292 1.203 . S
C291 O298 1.267 . S
O292 C291 1.203 . S
O293 C286 1.185 . S
O293 Zn289 2.086 . S
C294 O290 1.278 . S
C294 O295 1.211 . S
O295 C294 1.211 . S
C296 O288 1.284 . S
C296 O297 1.273 . S
O297 C296 1.273 . S
O298 Zn289 1.977 . S
O298 C291 1.267 . S
C299 O300 1.160 . S
C299 O306 1.185 . S
O300 C299 1.160 . S
O301 Zn302 1.899 . S
O301 C309 1.284 . S
Zn302 O301 1.899 . S
Zn302 O303 2.032 . S
Zn302 O306 2.086 . S
Zn302 O311 1.977 . S
O303 Zn302 2.032 . S
O303 C307 1.278 . S
C304 O305 1.203 . S
C304 O311 1.267 . S
O305 C304 1.203 . S
O306 C299 1.185 . S
O306 Zn302 2.086 . S
C307 O303 1.278 . S
C307 O308 1.211 . S
O308 C307 1.211 . S
C309 O301 1.284 . S
C309 O310 1.273 . S
O310 C309 1.273 . S
O311 Zn302 1.977 . S
O311 C304 1.267 . S
C312 C313 1.349 . S
C312 C314 1.327 . S
C312 H337 0.950 . S
C313 C312 1.349 . S
C313 C329 1.349 . S
C314 C312 1.327 . S
C314 C333 1.429 . S
C314 H338 0.950 . S
C315 C332 1.574 . S
C315 C334 1.368 . S
C315 H339 0.949 . S
H316 C320 0.949 . S
C317 C318 1.349 . S
C317 C319 1.327 . S
C317 H340 0.950 . S
C318 C317 1.349 . S
C318 C330 1.349 . S
C319 C317 1.327 . S
C319 C335 1.429 . S
C319 H341 0.950 . S
C320 H316 0.949 . S
C320 C328 1.574 . S
C320 C336 1.368 . S
H321 C329 0.950 . S
H322 C327 0.950 . S
H323 C328 0.949 . S
H324 C330 0.950 . S
H325 C331 0.950 . S
H326 C332 0.949 . S
C327 H322 0.950 . S
C327 C329 1.327 . S
C327 C333 1.429 . S
C328 C320 1.574 . S
C328 H323 0.949 . S
C328 C334 1.368 . S
C329 C313 1.349 . S
C329 H321 0.950 . S
C329 C327 1.327 . S
C330 C318 1.349 . S
C330 H324 0.950 . S
C330 C331 1.327 . S
C331 H325 0.950 . S
C331 C330 1.327 . S
C331 C335 1.429 . S
C332 C315 1.574 . S
C332 H326 0.949 . S
C332 C336 1.368 . S
C333 C314 1.429 . S
C333 C327 1.429 . S
C333 C334 1.523 . S
C334 C315 1.368 . S
C334 C328 1.368 . S
C334 C333 1.523 . S
C335 C319 1.429 . S
C335 C331 1.429 . S
C335 C336 1.523 . S
C336 C320 1.368 . S
C336 C332 1.368 . S
C336 C335 1.523 . S
H337 C312 0.950 . S
H338 C314 0.950 . S
H339 C315 0.949 . S
H340 C317 0.950 . S
H341 C319 0.950 . S
C342 C343 1.349 . S
C342 C344 1.327 . S
C342 H367 0.950 . S
C343 C342 1.349 . S
C343 C359 1.349 . S
C344 C342 1.327 . S
C344 C363 1.429 1_655 S
C344 H368 0.950 . S
C345 C362 1.574 . S
C345 C364 1.368 . S
C345 H369 0.949 . S
H346 C350 0.949 . S
C347 C348 1.349 . S
C347 C349 1.327 . S
C347 H370 0.950 . S
C348 C347 1.349 . S
C348 C360 1.349 . S
C349 C347 1.327 . S
C349 C365 1.429 . S
C349 H371 0.950 . S
C350 H346 0.949 . S
C350 C358 1.574 . S
C350 C366 1.368 . S
H351 C359 0.950 . S
H352 C357 0.950 . S
H353 C358 0.949 . S
H354 C360 0.950 . S
H355 C361 0.950 . S
H356 C362 0.949 . S
C357 H352 0.950 . S
C357 C359 1.327 1_455 S
C357 C363 1.429 . S
C358 C350 1.574 . S
C358 H353 0.949 . S
C358 C364 1.368 . S
C359 C343 1.349 . S
C359 H351 0.950 . S
C359 C357 1.327 1_655 S
C360 C348 1.349 . S
C360 H354 0.950 . S
C360 C361 1.327 . S
C361 H355 0.950 . S
C361 C360 1.327 . S
C361 C365 1.429 . S
C362 C345 1.574 . S
C362 H356 0.949 . S
C362 C366 1.368 . S
C363 C344 1.429 1_455 S
C363 C357 1.429 . S
C363 C364 1.523 . S
C364 C345 1.368 . S
C364 C358 1.368 . S
C364 C363 1.523 . S
C365 C349 1.429 . S
C365 C361 1.429 . S
C365 C366 1.523 . S
C366 C350 1.368 . S
C366 C362 1.368 . S
C366 C365 1.523 . S
H367 C342 0.950 . S
H368 C344 0.950 . S
H369 C345 0.949 . S
H370 C347 0.950 . S
H371 C349 0.950 . S
C372 C373 1.349 . S
C372 C374 1.327 . S
C372 H397 0.950 . S
C373 C372 1.349 . S
C373 C389 1.349 . S
C374 C372 1.327 . S
C374 C393 1.429 . S
C374 H398 0.950 . S
C375 C392 1.574 . S
C375 C394 1.368 . S
C375 H399 0.949 . S
H376 C380 0.949 . S
C377 C378 1.349 . S
C377 C379 1.327 . S
C377 H400 0.950 . S
C378 C377 1.349 . S
C378 C390 1.349 . S
C379 C377 1.327 . S
C379 C395 1.429 1_554 S
C379 H401 0.950 . S
C380 H376 0.949 . S
C380 C388 1.574 . S
C380 C396 1.368 . S
H381 C389 0.950 . S
H382 C387 0.950 . S
H383 C388 0.949 . S
H384 C390 0.950 . S
H385 C391 0.950 . S
H386 C392 0.949 1_554 S
C387 H382 0.950 . S
C387 C389 1.327 . S
C387 C393 1.429 . S
C388 C380 1.574 . S
C388 H383 0.949 . S
C388 C394 1.368 . S
C389 C373 1.349 . S
C389 H381 0.950 . S
C389 C387 1.327 . S
C390 C378 1.349 . S
C390 H384 0.950 . S
C390 C391 1.327 1_554 S
C391 H385 0.950 . S
C391 C390 1.327 1_556 S
C391 C395 1.429 . S
C392 C375 1.574 . S
C392 H386 0.949 1_556 S
C392 C396 1.368 . S
C393 C374 1.429 . S
C393 C387 1.429 . S
C393 C394 1.523 . S
C394 C375 1.368 . S
C394 C388 1.368 . S
C394 C393 1.523 . S
C395 C379 1.429 1_556 S
C395 C391 1.429 . S
C395 C396 1.523 . S
C396 C380 1.368 . S
C396 C392 1.368 . S
C396 C395 1.523 . S
H397 C372 0.950 . S
H398 C374 0.950 . S
H399 C375 0.949 . S
H400 C377 0.950 . S
H401 C379 0.950 . S
C402 C403 1.349 . S
C402 C404 1.327 . S
C402 H427 0.950 . S
C403 C402 1.349 . S
C403 C419 1.349 . S
C404 C402 1.327 . S
C404 C423 1.429 . S
C404 H428 0.950 . S
C405 C422 1.574 . S
C405 C424 1.368 . S
C405 H429 0.949 . S
H406 C410 0.949 . S
C407 C408 1.349 . S
C407 C409 1.327 . S
C407 H430 0.950 . S
C408 C407 1.349 . S
C408 C420 1.349 . S
C409 C407 1.327 . S
C409 C425 1.429 . S
C409 H431 0.950 . S
C410 H406 0.949 . S
C410 C418 1.574 . S
C410 C426 1.368 . S
H411 C419 0.950 . S
H412 C417 0.950 . S
H413 C418 0.949 . S
H414 C420 0.950 . S
H415 C421 0.950 . S
H416 C422 0.949 . S
C417 H412 0.950 . S
C417 C419 1.327 . S
C417 C423 1.429 . S
C418 C410 1.574 . S
C418 H413 0.949 . S
C418 C424 1.368 . S
C419 C403 1.349 . S
C419 H411 0.950 . S
C419 C417 1.327 . S
C420 C408 1.349 . S
C420 H414 0.950 . S
C420 C421 1.327 . S
C421 H415 0.950 . S
C421 C420 1.327 . S
C421 C425 1.429 . S
C422 C405 1.574 . S
C422 H416 0.949 . S
C422 C426 1.368 . S
C423 C404 1.429 . S
C423 C417 1.429 . S
C423 C424 1.523 . S
C424 C405 1.368 . S
C424 C418 1.368 . S
C424 C423 1.523 . S
C425 C409 1.429 . S
C425 C421 1.429 . S
C425 C426 1.523 . S
C426 C410 1.368 . S
C426 C422 1.368 . S
C426 C425 1.523 . S
H427 C402 0.950 . S
H428 C404 0.950 . S
H429 C405 0.949 . S
H430 C407 0.950 . S
H431 C409 0.950 . S
C432 C433 1.349 . S
C432 C434 1.327 . S
C432 H457 0.950 . S
C433 C432 1.349 . S
C433 C449 1.349 . S
C434 C432 1.327 . S
C434 C453 1.429 . S
C434 H458 0.950 . S
C435 C452 1.574 . S
C435 C454 1.368 . S
C435 H459 0.949 . S
H436 C440 0.949 . S
C437 C438 1.349 . S
C437 C439 1.327 . S
C437 H460 0.950 . S
C438 C437 1.349 . S
C438 C450 1.349 . S
C439 C437 1.327 . S
C439 C455 1.429 . S
C439 H461 0.950 . S
C440 H436 0.949 . S
C440 C448 1.574 . S
C440 C456 1.368 . S
H441 C449 0.950 . S
H442 C447 0.950 . S
H443 C448 0.949 . S
H444 C450 0.950 . S
H445 C451 0.950 . S
H446 C452 0.949 . S
C447 H442 0.950 . S
C447 C449 1.327 . S
C447 C453 1.429 . S
C448 C440 1.574 . S
C448 H443 0.949 . S
C448 C454 1.368 . S
C449 C433 1.349 . S
C449 H441 0.950 . S
C449 C447 1.327 . S
C450 C438 1.349 . S
C450 H444 0.950 . S
C450 C451 1.327 . S
C451 H445 0.950 . S
C451 C450 1.327 . S
C451 C455 1.429 . S
C452 C435 1.574 . S
C452 H446 0.949 . S
C452 C456 1.368 . S
C453 C434 1.429 . S
C453 C447 1.429 . S
C453 C454 1.523 . S
C454 C435 1.368 . S
C454 C448 1.368 . S
C454 C453 1.523 . S
C455 C439 1.429 . S
C455 C451 1.429 . S
C455 C456 1.523 . S
C456 C440 1.368 . S
C456 C452 1.368 . S
C456 C455 1.523 . S
H457 C432 0.950 . S
H458 C434 0.950 . S
H459 C435 0.949 . S
H460 C437 0.950 . S
H461 C439 0.950 . S
C462 C463 1.349 . S
C462 C464 1.327 . S
C462 H487 0.950 . S
C463 C462 1.349 . S
C463 C479 1.349 . S
C464 C462 1.327 . S
C464 C483 1.429 . S
C464 H488 0.950 . S
C465 C482 1.574 . S
C465 C484 1.368 . S
C465 H489 0.949 . S
H466 C470 0.949 . S
C467 C468 1.349 . S
C467 C469 1.327 . S
C467 H490 0.950 . S
C468 C467 1.349 . S
C468 C480 1.349 . S
C469 C467 1.327 . S
C469 C485 1.429 1_455 S
C469 H491 0.950 . S
C470 H466 0.949 . S
C470 C478 1.574 . S
C470 C486 1.368 . S
H471 C479 0.950 . S
H472 C477 0.950 . S
H473 C478 0.949 . S
H474 C480 0.950 . S
H475 C481 0.950 . S
H476 C482 0.949 . S
C477 H472 0.950 . S
C477 C479 1.327 . S
C477 C483 1.429 . S
C478 C470 1.574 . S
C478 H473 0.949 . S
C478 C484 1.368 . S
C479 C463 1.349 . S
C479 H471 0.950 . S
C479 C477 1.327 . S
C480 C468 1.349 . S
C480 H474 0.950 . S
C480 C481 1.327 1_455 S
C481 H475 0.950 . S
C481 C480 1.327 1_655 S
C481 C485 1.429 . S
C482 C465 1.574 . S
C482 H476 0.949 . S
C482 C486 1.368 . S
C483 C464 1.429 . S
C483 C477 1.429 . S
C483 C484 1.523 . S
C484 C465 1.368 . S
C484 C478 1.368 . S
C484 C483 1.523 . S
C485 C469 1.429 1_655 S
C485 C481 1.429 . S
C485 C486 1.523 . S
C486 C470 1.368 . S
C486 C482 1.368 . S
C486 C485 1.523 . S
H487 C462 0.950 . S
H488 C464 0.950 . S
H489 C465 0.949 . S
H490 C467 0.950 . S
H491 C469 0.950 . S
C492 C493 1.349 . S
C492 C494 1.327 . S
C492 H517 0.950 . S
C493 C492 1.349 . S
C493 C509 1.349 . S
C494 C492 1.327 . S
C494 C513 1.429 . S
C494 H518 0.950 . S
C495 C512 1.574 . S
C495 C514 1.368 . S
C495 H519 0.949 . S
H496 C500 0.949 . S
C497 C498 1.349 . S
C497 C499 1.327 . S
C497 H520 0.950 . S
C498 C497 1.349 . S
C498 C510 1.349 . S
C499 C497 1.327 . S
C499 C515 1.429 1_556 S
C499 H521 0.950 . S
C500 H496 0.949 . S
C500 C508 1.574 . S
C500 C516 1.368 . S
H501 C509 0.950 . S
H502 C507 0.950 . S
H503 C508 0.949 . S
H504 C510 0.950 . S
H505 C511 0.950 . S
H506 C512 0.949 1_556 S
C507 H502 0.950 . S
C507 C509 1.327 . S
C507 C513 1.429 . S
C508 C500 1.574 . S
C508 H503 0.949 . S
C508 C514 1.368 . S
C509 C493 1.349 . S
C509 H501 0.950 . S
C509 C507 1.327 . S
C510 C498 1.349 . S
C510 H504 0.950 . S
C510 C511 1.327 1_556 S
C511 H505 0.950 . S
C511 C510 1.327 1_554 S
C511 C515 1.429 . S
C512 C495 1.574 . S
C512 H506 0.949 1_554 S
C512 C516 1.368 . S
C513 C494 1.429 . S
C513 C507 1.429 . S
C513 C514 1.523 . S
C514 C495 1.368 . S
C514 C508 1.368 . S
C514 C513 1.523 . S
C515 C499 1.429 1_554 S
C515 C511 1.429 . S
C515 C516 1.523 . S
C516 C500 1.368 . S
C516 C512 1.368 . S
C516 C515 1.523 . S
H517 C492 0.950 . S
H518 C494 0.950 . S
H519 C495 0.949 . S
H520 C497 0.950 . S
H521 C499 0.950 . S
C522 C523 1.349 . S
C522 C524 1.327 . S
C522 H547 0.950 . S
C523 C522 1.349 . S
C523 C539 1.349 . S
C524 C522 1.327 . S
C524 C543 1.429 . S
C524 H548 0.950 . S
C525 C542 1.574 . S
C525 C544 1.368 . S
C525 H549 0.949 . S
H526 C530 0.949 . S
C527 C528 1.349 . S
C527 C529 1.327 . S
C527 H550 0.950 . S
C528 C527 1.349 . S
C528 C540 1.349 . S
C529 C527 1.327 . S
C529 C545 1.429 . S
C529 H551 0.950 . S
C530 H526 0.949 . S
C530 C538 1.574 . S
C530 C546 1.368 . S
H531 C539 0.950 . S
H532 C537 0.950 . S
H533 C538 0.949 . S
H534 C540 0.950 . S
H535 C541 0.950 . S
H536 C542 0.949 . S
C537 H532 0.950 . S
C537 C539 1.327 . S
C537 C543 1.429 . S
C538 C530 1.574 . S
C538 H533 0.949 . S
C538 C544 1.368 . S
C539 C523 1.349 . S
C539 H531 0.950 . S
C539 C537 1.327 . S
C540 C528 1.349 . S
C540 H534 0.950 . S
C540 C541 1.327 . S
C541 H535 0.950 . S
C541 C540 1.327 . S
C541 C545 1.429 . S
C542 C525 1.574 . S
C542 H536 0.949 . S
C542 C546 1.368 . S
C543 C524 1.429 . S
C543 C537 1.429 . S
C543 C544 1.523 . S
C544 C525 1.368 . S
C544 C538 1.368 . S
C544 C543 1.523 . S
C545 C529 1.429 . S
C545 C541 1.429 . S
C545 C546 1.523 . S
C546 C530 1.368 . S
C546 C542 1.368 . S
C546 C545 1.523 . S
H547 C522 0.950 . S
H548 C524 0.950 . S
H549 C525 0.949 . S
H550 C527 0.950 . S
H551 C529 0.950 . S
C552 C553 1.349 . S
C552 C554 1.327 . S
C552 H577 0.950 . S
C553 C552 1.349 . S
C553 C569 1.349 . S
C554 C552 1.327 . S
C554 C573 1.429 . S
C554 H578 0.950 . S
C555 C572 1.574 . S
C555 C574 1.368 . S
C555 H579 0.949 . S
H556 C560 0.949 . S
C557 C558 1.349 . S
C557 C559 1.327 . S
C557 H580 0.950 . S
C558 C557 1.349 . S
C558 C570 1.349 . S
C559 C557 1.327 . S
C559 C575 1.429 . S
C559 H581 0.950 . S
C560 H556 0.949 . S
C560 C568 1.574 . S
C560 C576 1.368 . S
H561 C569 0.950 . S
H562 C567 0.950 . S
H563 C568 0.949 . S
H564 C570 0.950 . S
H565 C571 0.950 . S
H566 C572 0.949 . S
C567 H562 0.950 . S
C567 C569 1.327 . S
C567 C573 1.429 . S
C568 C560 1.574 . S
C568 H563 0.949 . S
C568 C574 1.368 . S
C569 C553 1.349 . S
C569 H561 0.950 . S
C569 C567 1.327 . S
C570 C558 1.349 . S
C570 H564 0.950 . S
C570 C571 1.327 . S
C571 H565 0.950 . S
C571 C570 1.327 . S
C571 C575 1.429 . S
C572 C555 1.574 . S
C572 H566 0.949 . S
C572 C576 1.368 . S
C573 C554 1.429 . S
C573 C567 1.429 . S
C573 C574 1.523 . S
C574 C555 1.368 . S
C574 C568 1.368 . S
C574 C573 1.523 . S
C575 C559 1.429 . S
C575 C571 1.429 . S
C575 C576 1.523 . S
C576 C560 1.368 . S
C576 C572 1.368 . S
C576 C575 1.523 . S
H577 C552 0.950 . S
H578 C554 0.950 . S
H579 C555 0.949 . S
H580 C557 0.950 . S
H581 C559 0.950 . S
C582 C583 1.349 . S
C582 C584 1.327 . S
C582 H607 0.950 . S
C583 C582 1.349 . S
C583 C599 1.349 . S
C584 C582 1.327 . S
C584 C603 1.429 1_565 S
C584 H608 0.958 . S
C585 C602 1.574 . S
C585 C604 1.368 . S
C585 H609 0.949 . S
H586 C590 0.949 . S
C587 C588 1.349 . S
C587 C589 1.327 . S
C587 H610 0.950 . S
C588 C587 1.349 . S
C588 C600 1.349 . S
C589 C587 1.327 . S
C589 C605 1.429 . S
C589 H611 0.950 . S
C590 H586 0.949 . S
C590 C598 1.574 . S
C590 C606 1.368 . S
H591 C599 0.950 . S
H592 C597 0.950 1_545 S
H593 C598 0.949 . S
H594 C600 0.950 . S
H595 C601 0.950 . S
H596 C602 0.949 . S
C597 H592 0.950 1_565 S
C597 C599 1.327 . S
C597 C603 1.429 1_565 S
C598 C590 1.574 . S
C598 H593 0.949 . S
C598 C604 1.368 . S
C599 C583 1.349 . S
C599 H591 0.950 . S
C599 C597 1.327 . S
C600 C588 1.349 . S
C600 H594 0.950 . S
C600 C601 1.327 . S
C601 H595 0.950 . S
C601 C600 1.327 . S
C601 C605 1.429 . S
C602 C585 1.574 . S
C602 H596 0.949 . S
C602 C606 1.368 . S
C603 C584 1.429 1_545 S
C603 C597 1.429 1_545 S
C603 C604 1.523 . S
C604 C585 1.368 . S
C604 C598 1.368 . S
C604 C603 1.523 . S
C605 C589 1.429 . S
C605 C601 1.429 . S
C605 C606 1.523 . S
C606 C590 1.368 . S
C606 C602 1.368 . S
C606 C605 1.523 . S
H607 C582 0.950 . S
H608 C584 0.958 . S
H609 C585 0.949 . S
H610 C587 0.950 . S
H611 C589 0.950 . S
C612 C613 1.349 . S
C612 C614 1.327 . S
C612 H637 0.950 . S
C613 C612 1.349 . S
C613 C629 1.349 . S
C614 C612 1.327 . S
C614 C633 1.429 . S
C614 H638 0.950 . S
C615 C632 1.574 . S
C615 C634 1.368 . S
C615 H639 0.949 . S
H616 C620 0.949 1_545 S
C617 C618 1.349 . S
C617 C619 1.327 1_545 S
C617 H640 0.937 1_545 S
C618 C617 1.349 . S
C618 C630 1.349 . S
C619 C617 1.327 1_565 S
C619 C635 1.429 . S
C619 H641 0.950 . S
C620 H616 0.949 1_565 S
C620 C628 1.574 . S
C620 C636 1.368 . S
H621 C629 0.950 . S
H622 C627 0.950 . S
H623 C628 0.949 . S
H624 C630 0.950 . S
H625 C631 0.950 . S
H626 C632 0.949 . S
C627 H622 0.950 . S
C627 C629 1.327 . S
C627 C633 1.429 . S
C628 C620 1.574 . S
C628 H623 0.949 . S
C628 C634 1.368 . S
C629 C613 1.349 . S
C629 H621 0.950 . S
C629 C627 1.327 . S
C630 C618 1.349 . S
C630 H624 0.950 . S
C630 C631 1.327 . S
C631 H625 0.950 . S
C631 C630 1.327 . S
C631 C635 1.429 1_545 S
C632 C615 1.574 . S
C632 H626 0.949 . S
C632 C636 1.368 . S
C633 C614 1.429 . S
C633 C627 1.429 . S
C633 C634 1.523 . S
C634 C615 1.368 . S
C634 C628 1.368 . S
C634 C633 1.523 . S
C635 C619 1.429 . S
C635 C631 1.429 1_565 S
C635 C636 1.523 . S
C636 C620 1.368 . S
C636 C632 1.368 . S
C636 C635 1.523 . S
H637 C612 0.950 . S
H638 C614 0.950 . S
H639 C615 0.949 . S
H640 C617 0.937 1_565 S
H641 C619 0.950 . S
C642 C643 1.349 . S
C642 C644 1.327 . S
C642 H667 0.950 . S
C643 C642 1.349 . S
C643 C659 1.349 . S
C644 C642 1.327 . S
C644 C663 1.429 . S
C644 H668 0.950 . S
C645 C662 1.574 . S
C645 C664 1.368 . S
C645 H669 0.949 . S
H646 C650 0.949 . S
C647 C648 1.349 . S
C647 C649 1.327 . S
C647 H670 0.950 . S
C648 C647 1.349 . S
C648 C660 1.349 . S
C649 C647 1.327 . S
C649 C665 1.429 . S
C649 H671 0.950 . S
C650 H646 0.949 . S
C650 C658 1.574 . S
C650 C666 1.368 . S
H651 C659 0.950 . S
H652 C657 0.950 . S
H653 C658 0.949 . S
H654 C660 0.950 . S
H655 C661 0.950 . S
H656 C662 0.949 . S
C657 H652 0.950 . S
C657 C659 1.327 . S
C657 C663 1.429 . S
C658 C650 1.574 . S
C658 H653 0.949 . S
C658 C664 1.368 . S
C659 C643 1.349 . S
C659 H651 0.950 . S
C659 C657 1.327 . S
C660 C648 1.349 . S
C660 H654 0.950 . S
C660 C661 1.327 . S
C661 H655 0.950 . S
C661 C660 1.327 . S
C661 C665 1.429 . S
C662 C645 1.574 . S
C662 H656 0.949 . S
C662 C666 1.368 . S
C663 C644 1.429 . S
C663 C657 1.429 . S
C663 C664 1.523 . S
C664 C645 1.368 . S
C664 C658 1.368 . S
C664 C663 1.523 . S
C665 C649 1.429 . S
C665 C661 1.429 . S
C665 C666 1.523 . S
C666 C650 1.368 . S
C666 C662 1.368 . S
C666 C665 1.523 . S
H667 C642 0.950 . S
H668 C644 0.950 . S
H669 C645 0.949 . S
H670 C647 0.950 . S
H671 C649 0.950 . S
C672 C673 1.349 . S
C672 C674 1.327 . S
C672 H697 0.950 . S
C673 C672 1.349 . S
C673 C689 1.349 . S
C674 C672 1.327 . S
C674 C693 1.429 . S
C674 H698 0.950 . S
C675 C692 1.574 . S
C675 C694 1.368 . S
C675 H699 0.949 . S
H676 C680 0.949 . S
C677 C678 1.349 . S
C677 C679 1.327 . S
C677 H700 0.950 . S
C678 C677 1.349 . S
C678 C690 1.349 . S
C679 C677 1.327 . S
C679 C695 1.429 . S
C679 H701 0.950 . S
C680 H676 0.949 . S
C680 C688 1.574 . S
C680 C696 1.368 . S
H681 C689 0.950 . S
H682 C687 0.950 . S
H683 C688 0.949 . S
H684 C690 0.950 . S
H685 C691 0.950 . S
H686 C692 0.949 . S
C687 H682 0.950 . S
C687 C689 1.327 . S
C687 C693 1.429 . S
C688 C680 1.574 . S
C688 H683 0.949 . S
C688 C694 1.368 . S
C689 C673 1.349 . S
C689 H681 0.950 . S
C689 C687 1.327 . S
C690 C678 1.349 . S
C690 H684 0.950 . S
C690 C691 1.327 . S
C691 H685 0.950 . S
C691 C690 1.327 . S
C691 C695 1.429 . S
C692 C675 1.574 . S
C692 H686 0.949 . S
C692 C696 1.368 . S
C693 C674 1.429 . S
C693 C687 1.429 . S
C693 C694 1.523 . S
C694 C675 1.368 . S
C694 C688 1.368 . S
C694 C693 1.523 . S
C695 C679 1.429 . S
C695 C691 1.429 . S
C695 C696 1.523 . S
C696 C680 1.368 . S
C696 C692 1.368 . S
C696 C695 1.523 . S
H697 C672 0.950 . S
H698 C674 0.950 . S
H699 C675 0.949 . S
H700 C677 0.950 . S
H701 C679 0.950 . S
C702 C703 1.349 . S
C702 C704 1.363 . S
C702 H727 0.950 . S
C703 C702 1.349 . S
C703 C719 1.349 . S
C704 C702 1.363 . S
C704 C723 1.438 . S
C704 H728 0.906 1_565 S
C705 C722 1.574 . S
C705 C724 1.368 . S
C705 H729 0.949 1_545 S
H706 C710 0.949 . S
C707 C708 1.349 . S
C707 C709 1.327 . S
C707 H730 0.950 . S
C708 C707 1.349 . S
C708 C720 1.349 . S
C709 C707 1.327 . S
C709 C725 1.429 . S
C709 H731 0.950 . S
C710 H706 0.949 . S
C710 C718 1.574 . S
C710 C726 1.368 . S
H711 C719 0.950 . S
H712 C717 0.950 . S
H713 C718 0.949 . S
H714 C720 0.950 . S
H715 C721 0.950 . S
H716 C722 0.949 . S
C717 H712 0.950 . S
C717 C719 1.327 . S
C717 C723 1.429 . S
C718 C710 1.574 . S
C718 H713 0.949 . S
C718 C724 1.368 . S
C719 C703 1.349 . S
C719 H711 0.950 . S
C719 C717 1.327 . S
C720 C708 1.349 . S
C720 H714 0.950 . S
C720 C721 1.327 . S
C721 H715 0.950 . S
C721 C720 1.327 . S
C721 C725 1.429 . S
C722 C705 1.574 . S
C722 H716 0.949 . S
C722 C726 1.368 . S
C723 C704 1.438 . S
C723 C717 1.429 . S
C723 C724 1.523 1_565 S
C724 C705 1.368 . S
C724 C718 1.368 . S
C724 C723 1.523 1_545 S
C725 C709 1.429 . S
C725 C721 1.429 . S
C725 C726 1.523 . S
C726 C710 1.368 . S
C726 C722 1.368 . S
C726 C725 1.523 . S
H727 C702 0.950 . S
H728 C704 0.906 1_545 S
H729 C705 0.949 1_565 S
H730 C707 0.950 . S
H731 C709 0.950 . S
C732 C733 1.349 . S
C732 C734 1.327 . S
C732 H757 0.950 . S
C733 C732 1.349 . S
C733 C749 1.349 . S
C734 C732 1.327 . S
C734 C753 1.429 . S
C734 H758 0.950 . S
C735 C752 1.574 . S
C735 C754 1.368 . S
C735 H759 0.949 . S
H736 C740 0.976 . S
C737 C738 1.349 . S
C737 C739 1.327 . S
C737 H760 0.950 . S
C738 C737 1.349 . S
C738 C750 1.349 . S
C739 C737 1.327 . S
C739 C755 1.429 . S
C739 H761 0.950 1_554 S
C740 H736 0.976 . S
C740 C748 1.574 . S
C740 C756 1.368 . S
H741 C749 0.950 . S
H742 C747 0.950 . S
H743 C748 0.949 . S
H744 C750 0.950 . S
H745 C751 0.950 . S
H746 C752 0.949 . S
C747 H742 0.950 . S
C747 C749 1.327 . S
C747 C753 1.429 . S
C748 C740 1.574 . S
C748 H743 0.949 . S
C748 C754 1.368 . S
C749 C733 1.349 . S
C749 H741 0.950 . S
C749 C747 1.327 . S
C750 C738 1.349 . S
C750 H744 0.950 . S
C750 C751 1.327 . S
C751 H745 0.950 . S
C751 C750 1.327 . S
C751 C755 1.429 . S
C752 C735 1.574 . S
C752 H746 0.949 . S
C752 C756 1.368 . S
C753 C734 1.429 . S
C753 C747 1.429 . S
C753 C754 1.523 . S
C754 C735 1.368 . S
C754 C748 1.368 . S
C754 C753 1.523 . S
C755 C739 1.429 . S
C755 C751 1.429 . S
C755 C756 1.523 1_554 S
C756 C740 1.368 . S
C756 C752 1.368 . S
C756 C755 1.523 1_556 S
H757 C732 0.950 . S
H758 C734 0.950 . S
H759 C735 0.949 . S
H760 C737 0.950 . S
H761 C739 0.950 1_556 S
C762 C763 1.349 . S
C762 C764 1.327 . S
C762 H787 0.950 . S
C763 C762 1.349 . S
C763 C779 1.349 . S
C764 C762 1.327 . S
C764 C783 1.429 . S
C764 H788 0.950 . S
C765 C782 1.574 . S
C765 C784 1.368 . S
C765 H789 0.949 . S
H766 C770 0.949 . S
C767 C768 1.349 . S
C767 C769 1.327 . S
C767 H790 0.950 . S
C768 C767 1.349 . S
C768 C780 1.349 . S
C769 C767 1.327 . S
C769 C785 1.429 . S
C769 H791 0.950 . S
C770 H766 0.949 . S
C770 C778 1.574 . S
C770 C786 1.368 . S
H771 C779 0.950 . S
H772 C777 0.950 . S
H773 C778 0.949 . S
H774 C780 0.950 . S
H775 C781 0.950 . S
H776 C782 0.949 . S
C777 H772 0.950 . S
C777 C779 1.327 . S
C777 C783 1.429 . S
C778 C770 1.574 . S
C778 H773 0.949 . S
C778 C784 1.368 . S
C779 C763 1.349 . S
C779 H771 0.950 . S
C779 C777 1.327 . S
C780 C768 1.349 . S
C780 H774 0.950 . S
C780 C781 1.327 . S
C781 H775 0.950 . S
C781 C780 1.327 . S
C781 C785 1.429 . S
C782 C765 1.574 . S
C782 H776 0.949 . S
C782 C786 1.368 . S
C783 C764 1.429 . S
C783 C777 1.429 . S
C783 C784 1.523 1_545 S
C784 C765 1.368 . S
C784 C778 1.368 . S
C784 C783 1.523 1_565 S
C785 C769 1.429 . S
C785 C781 1.429 . S
C785 C786 1.523 . S
C786 C770 1.368 . S
C786 C782 1.368 . S
C786 C785 1.523 . S
H787 C762 0.950 . S
H788 C764 0.950 . S
H789 C765 0.949 . S
H790 C767 0.950 . S
H791 C769 0.950 . S
C792 C793 1.349 . S
C792 C794 1.327 . S
C792 H817 0.950 . S
C793 C792 1.349 . S
C793 C809 1.349 . S
C794 C792 1.327 . S
C794 C813 1.429 . S
C794 H818 0.950 . S
C795 C812 1.574 . S
C795 C814 1.368 . S
C795 H819 0.949 . S
H796 C800 0.949 . S
C797 C798 1.349 . S
C797 C799 1.327 . S
C797 H820 0.950 . S
C798 C797 1.349 . S
C798 C810 1.349 . S
C799 C797 1.327 . S
C799 C815 1.429 . S
C799 H821 0.950 . S
C800 H796 0.949 . S
C800 C808 1.574 . S
C800 C816 1.368 . S
H801 C809 0.950 . S
H802 C807 0.950 . S
H803 C808 0.949 . S
H804 C810 0.950 . S
H805 C811 0.950 . S
H806 C812 0.949 . S
C807 H802 0.950 . S
C807 C809 1.327 . S
C807 C813 1.429 . S
C808 C800 1.574 . S
C808 H803 0.949 . S
C808 C814 1.368 . S
C809 C793 1.349 . S
C809 H801 0.950 . S
C809 C807 1.327 . S
C810 C798 1.349 . S
C810 H804 0.950 . S
C810 C811 1.327 . S
C811 H805 0.950 . S
C811 C810 1.327 . S
C811 C815 1.429 . S
C812 C795 1.574 . S
C812 H806 0.949 . S
C812 C816 1.368 . S
C813 C794 1.429 . S
C813 C807 1.429 . S
C813 C814 1.523 . S
C814 C795 1.368 . S
C814 C808 1.368 . S
C814 C813 1.523 . S
C815 C799 1.429 . S
C815 C811 1.429 . S
C815 C816 1.523 . S
C816 C800 1.368 . S
C816 C812 1.368 . S
C816 C815 1.523 . S
H817 C792 0.950 . S
H818 C794 0.950 . S
H819 C795 0.949 . S
H820 C797 0.950 . S
H821 C799 0.950 . S
C822 C823 1.349 . S
C822 C824 1.327 . S
C822 H847 0.950 . S
C823 C822 1.349 . S
C823 C839 1.349 . S
C824 C822 1.327 . S
C824 C843 1.429 . S
C824 H848 0.950 . S
C825 C842 1.574 . S
C825 C844 1.368 . S
C825 H849 0.949 . S
H826 C830 0.949 . S
C827 C828 1.349 . S
C827 C829 1.327 . S
C827 H850 0.950 . S
C828 C827 1.349 . S
C828 C840 1.349 . S
C829 C827 1.327 . S
C829 C845 1.429 . S
C829 H851 0.950 . S
C830 H826 0.949 . S
C830 C838 1.574 . S
C830 C846 1.368 . S
H831 C839 0.950 . S
H832 C837 0.950 . S
H833 C838 0.949 . S
H834 C840 0.950 . S
H835 C841 0.950 . S
H836 C842 0.949 . S
C837 H832 0.950 . S
C837 C839 1.327 . S
C837 C843 1.429 . S
C838 C830 1.574 . S
C838 H833 0.949 . S
C838 C844 1.368 . S
C839 C823 1.349 . S
C839 H831 0.950 . S
C839 C837 1.327 . S
C840 C828 1.349 . S
C840 H834 0.950 . S
C840 C841 1.327 . S
C841 H835 0.950 . S
C841 C840 1.327 . S
C841 C845 1.429 . S
C842 C825 1.574 . S
C842 H836 0.949 . S
C842 C846 1.368 . S
C843 C824 1.429 . S
C843 C837 1.429 . S
C843 C844 1.523 . S
C844 C825 1.368 . S
C844 C838 1.368 . S
C844 C843 1.523 . S
C845 C829 1.429 . S
C845 C841 1.429 . S
C845 C846 1.523 . S
C846 C830 1.368 . S
C846 C842 1.368 . S
C846 C845 1.523 . S
H847 C822 0.950 . S
H848 C824 0.950 . S
H849 C825 0.949 . S
H850 C827 0.950 . S
H851 C829 0.950 . S
C852 C853 1.349 . S
C852 C854 1.327 . S
C852 H877 0.950 . S
C853 C852 1.349 . S
C853 C869 1.349 . S
C854 C852 1.327 . S
C854 C873 1.429 . S
C854 H878 0.950 . S
C855 C872 1.574 . S
C855 C874 1.368 . S
C855 H879 0.949 . S
H856 C860 0.949 . S
C857 C858 1.349 . S
C857 C859 1.327 . S
C857 H880 0.950 . S
C858 C857 1.349 . S
C858 C870 1.349 . S
C859 C857 1.327 . S
C859 C875 1.429 . S
C859 H881 0.950 . S
C860 H856 0.949 . S
C860 C868 1.536 1_554 S
C860 C876 1.368 . S
H861 C869 0.950 . S
H862 C867 0.950 . S
H863 C868 1.013 . S
H864 C870 0.950 . S
H865 C871 0.950 . S
H866 C872 0.949 . S
C867 H862 0.950 . S
C867 C869 1.327 1_554 S
C867 C873 1.429 1_554 S
C868 C860 1.536 1_556 S
C868 H863 1.013 . S
C868 C874 1.337 1_556 S
C869 C853 1.349 . S
C869 H861 0.950 . S
C869 C867 1.327 1_556 S
C870 C858 1.349 . S
C870 H864 0.950 . S
C870 C871 1.327 . S
C871 H865 0.950 . S
C871 C870 1.327 . S
C871 C875 1.429 . S
C872 C855 1.574 . S
C872 H866 0.949 . S
C872 C876 1.368 . S
C873 C854 1.429 . S
C873 C867 1.429 1_556 S
C873 C874 1.523 1_556 S
C874 C855 1.368 . S
C874 C868 1.337 1_554 S
C874 C873 1.523 1_554 S
C875 C859 1.429 . S
C875 C871 1.429 . S
C875 C876 1.523 . S
C876 C860 1.368 . S
C876 C872 1.368 . S
C876 C875 1.523 . S
H877 C852 0.950 . S
H878 C854 0.950 . S
H879 C855 0.949 . S
H880 C857 0.950 . S
H881 C859 0.950 . S
C882 C883 1.349 . S
C882 C884 1.327 . S
C882 H907 0.950 . S
C883 C882 1.349 . S
C883 C899 1.349 . S
C884 C882 1.327 . S
C884 C903 1.429 . S
C884 H908 0.950 . S
C885 C902 1.574 . S
C885 C904 1.368 . S
C885 H909 0.949 . S
H886 C890 0.949 . S
C887 C888 1.349 . S
C887 C889 1.327 . S
C887 H910 0.950 . S
C888 C887 1.349 . S
C888 C900 1.349 . S
C889 C887 1.327 . S
C889 C905 1.429 . S
C889 H911 0.950 . S
C890 H886 0.949 . S
C890 C898 1.574 . S
C890 C906 1.368 . S
H891 C899 0.950 . S
H892 C897 0.950 . S
H893 C898 0.949 . S
H894 C900 0.950 . S
H895 C901 0.950 . S
H896 C902 0.949 . S
C897 H892 0.950 . S
C897 C899 1.327 . S
C897 C903 1.429 . S
C898 C890 1.574 . S
C898 H893 0.949 . S
C898 C904 1.368 . S
C899 C883 1.349 . S
C899 H891 0.950 . S
C899 C897 1.327 . S
C900 C888 1.349 . S
C900 H894 0.950 . S
C900 C901 1.327 . S
C901 H895 0.950 . S
C901 C900 1.327 . S
C901 C905 1.429 . S
C902 C885 1.574 . S
C902 H896 0.949 . S
C902 C906 1.368 . S
C903 C884 1.429 . S
C903 C897 1.429 . S
C903 C904 1.523 . S
C904 C885 1.368 . S
C904 C898 1.368 . S
C904 C903 1.523 . S
C905 C889 1.429 . S
C905 C901 1.429 . S
C905 C906 1.523 . S
C906 C890 1.368 . S
C906 C902 1.368 . S
C906 C905 1.523 . S
H907 C882 0.950 . S
H908 C884 0.950 . S
H909 C885 0.949 . S
H910 C887 0.950 . S
H911 C889 0.950 . S
C912 C913 1.349 . S
C912 C914 1.327 . S
C912 H937 0.950 . S
C913 C912 1.349 . S
C913 C929 1.349 . S
C914 C912 1.327 . S
C914 C933 1.429 . S
C914 H938 0.950 . S
C915 C932 1.574 . S
C915 C934 1.368 . S
C915 H939 0.949 . S
H916 C920 0.949 . S
C917 C918 1.349 . S
C917 C919 1.327 . S
C917 H940 0.950 . S
C918 C917 1.349 . S
C918 C930 1.349 . S
C919 C917 1.327 . S
C919 C935 1.429 . S
C919 H941 0.950 . S
C920 H916 0.949 . S
C920 C928 1.574 . S
C920 C936 1.368 . S
H921 C929 0.950 . S
H922 C927 0.950 . S
H923 C928 0.949 . S
H924 C930 0.950 . S
H925 C931 0.950 . S
H926 C932 0.949 . S
C927 H922 0.950 . S
C927 C929 1.327 . S
C927 C933 1.429 . S
C928 C920 1.574 . S
C928 H923 0.949 . S
C928 C934 1.368 . S
C929 C913 1.349 . S
C929 H921 0.950 . S
C929 C927 1.327 . S
C930 C918 1.349 . S
C930 H924 0.950 . S
C930 C931 1.327 . S
C931 H925 0.950 . S
C931 C930 1.327 . S
C931 C935 1.429 . S
C932 C915 1.574 . S
C932 H926 0.949 . S
C932 C936 1.368 . S
C933 C914 1.429 . S
C933 C927 1.429 . S
C933 C934 1.523 . S
C934 C915 1.368 . S
C934 C928 1.368 . S
C934 C933 1.523 . S
C935 C919 1.429 . S
C935 C931 1.429 . S
C935 C936 1.523 . S
C936 C920 1.368 . S
C936 C932 1.368 . S
C936 C935 1.523 . S
H937 C912 0.950 . S
H938 C914 0.950 . S
H939 C915 0.949 . S
H940 C917 0.950 . S
H941 C919 0.950 . S
C942 C943 1.349 . S
C942 C944 1.327 . S
C942 H967 0.950 . S
C943 C942 1.349 . S
C943 C959 1.349 . S
C944 C942 1.327 . S
C944 C963 1.429 . S
C944 H968 0.950 . S
C945 C962 1.574 . S
C945 C964 1.368 . S
C945 H969 0.949 . S
H946 C950 0.949 . S
C947 C948 1.349 . S
C947 C949 1.327 . S
C947 H970 0.950 . S
C948 C947 1.349 . S
C948 C960 1.349 . S
C949 C947 1.327 . S
C949 C965 1.429 . S
C949 H971 0.950 . S
C950 H946 0.949 . S
C950 C958 1.574 . S
C950 C966 1.368 . S
H951 C959 0.950 . S
H952 C957 0.950 . S
H953 C958 0.949 . S
H954 C960 0.950 . S
H955 C961 0.950 . S
H956 C962 0.949 . S
C957 H952 0.950 . S
C957 C959 1.327 . S
C957 C963 1.429 . S
C958 C950 1.574 . S
C958 H953 0.949 . S
C958 C964 1.368 . S
C959 C943 1.349 . S
C959 H951 0.950 . S
C959 C957 1.327 . S
C960 C948 1.349 . S
C960 H954 0.950 . S
C960 C961 1.327 . S
C961 H955 0.950 . S
C961 C960 1.327 . S
C961 C965 1.429 . S
C962 C945 1.574 . S
C962 H956 0.949 . S
C962 C966 1.368 . S
C963 C944 1.429 . S
C963 C957 1.429 . S
C963 C964 1.523 1_455 S
C964 C945 1.368 . S
C964 C958 1.368 . S
C964 C963 1.523 1_655 S
C965 C949 1.429 . S
C965 C961 1.429 . S
C965 C966 1.523 . S
C966 C950 1.368 . S
C966 C962 1.368 . S
C966 C965 1.523 . S
H967 C942 0.950 . S
H968 C944 0.950 . S
H969 C945 0.949 . S
H970 C947 0.950 . S
H971 C949 0.950 . S
C972 C973 1.349 . S
C972 C974 1.327 1_655 S
C972 H997 0.950 . S
C973 C972 1.349 . S
C973 C989 1.349 . S
C974 C972 1.327 1_455 S
C974 C993 1.429 1_455 S
C974 H998 0.950 . S
C975 C992 1.574 1_655 S
C975 C994 1.368 1_655 S
C975 H999 0.949 . S
H976 C980 0.949 . S
C977 C978 1.349 . S
C977 C979 1.327 . S
C977 H1000 0.950 . S
C978 C977 1.349 . S
C978 C990 1.349 . S
C979 C977 1.327 . S
C979 C995 1.429 . S
C979 H1001 0.950 . S
C980 H976 0.949 . S
C980 C988 1.574 . S
C980 C996 1.368 . S
H981 C989 0.950 . S
H982 C987 0.950 . S
H983 C988 0.949 . S
H984 C990 0.950 . S
H985 C991 0.950 . S
H986 C992 0.949 . S
C987 H982 0.950 . S
C987 C989 1.327 . S
C987 C993 1.429 . S
C988 C980 1.574 . S
C988 H983 0.949 . S
C988 C994 1.368 . S
C989 C973 1.349 . S
C989 H981 0.950 . S
C989 C987 1.327 . S
C990 C978 1.349 . S
C990 H984 0.950 . S
C990 C991 1.327 . S
C991 H985 0.950 . S
C991 C990 1.327 . S
C991 C995 1.429 . S
C992 C975 1.574 1_455 S
C992 H986 0.949 . S
C992 C996 1.368 . S
C993 C974 1.429 1_655 S
C993 C987 1.429 . S
C993 C994 1.523 1_655 S
C994 C975 1.368 1_455 S
C994 C988 1.368 . S
C994 C993 1.523 1_455 S
C995 C979 1.429 . S
C995 C991 1.429 . S
C995 C996 1.523 . S
C996 C980 1.368 . S
C996 C992 1.368 . S
C996 C995 1.523 . S
H997 C972 0.950 . S
H998 C974 0.950 . S
H999 C975 0.949 . S
H1000 C977 0.950 . S
H1001 C979 0.950 . S
C1002 C1003 1.349 . S
C1002 C1004 1.327 . S
C1002 H1027 0.950 . S
C1003 C1002 1.349 . S
C1003 C1019 1.349 . S
C1004 C1002 1.327 . S
C1004 C1023 1.429 . S
C1004 H1028 0.950 . S
C1005 C1022 1.574 . S
C1005 C1024 1.368 . S
C1005 H1029 0.949 . S
H1006 C1010 0.949 . S
C1007 C1008 1.349 . S
C1007 C1009 1.327 . S
C1007 H1030 0.950 . S
C1008 C1007 1.349 . S
C1008 C1020 1.349 . S
C1009 C1007 1.327 . S
C1009 C1025 1.429 . S
C1009 H1031 0.950 . S
C1010 H1006 0.949 . S
C1010 C1018 1.574 . S
C1010 C1026 1.368 . S
H1011 C1019 0.950 . S
H1012 C1017 0.950 . S
H1013 C1018 0.949 . S
H1014 C1020 0.950 . S
H1015 C1021 0.950 . S
H1016 C1022 0.949 . S
C1017 H1012 0.950 . S
C1017 C1019 1.327 . S
C1017 C1023 1.429 . S
C1018 C1010 1.574 . S
C1018 H1013 0.949 . S
C1018 C1024 1.368 . S
C1019 C1003 1.349 . S
C1019 H1011 0.950 . S
C1019 C1017 1.327 . S
C1020 C1008 1.349 . S
C1020 H1014 0.950 . S
C1020 C1021 1.327 . S
C1021 H1015 0.950 . S
C1021 C1020 1.327 . S
C1021 C1025 1.429 . S
C1022 C1005 1.574 . S
C1022 H1016 0.949 . S
C1022 C1026 1.368 . S
C1023 C1004 1.429 . S
C1023 C1017 1.429 . S
C1023 C1024 1.523 . S
C1024 C1005 1.368 . S
C1024 C1018 1.368 . S
C1024 C1023 1.523 . S
C1025 C1009 1.429 . S
C1025 C1021 1.429 . S
C1025 C1026 1.523 . S
C1026 C1010 1.368 . S
C1026 C1022 1.368 . S
C1026 C1025 1.523 . S
H1027 C1002 0.950 . S
H1028 C1004 0.950 . S
H1029 C1005 0.949 . S
H1030 C1007 0.950 . S
H1031 C1009 0.950 . S
C1032 C1033 1.349 . S
C1032 C1034 1.327 . S
C1032 H1057 0.950 . S
C1033 C1032 1.349 . S
C1033 C1049 1.349 . S
C1034 C1032 1.327 . S
C1034 C1053 1.429 . S
C1034 H1058 0.950 . S
C1035 C1052 1.574 . S
C1035 C1054 1.368 . S
C1035 H1059 0.949 . S
H1036 C1040 0.949 . S
C1037 C1038 1.349 . S
C1037 C1039 1.327 . S
C1037 H1060 0.950 . S
C1038 C1037 1.349 . S
C1038 C1050 1.349 . S
C1039 C1037 1.327 . S
C1039 C1055 1.429 . S
C1039 H1061 0.950 . S
C1040 H1036 0.949 . S
C1040 C1048 1.574 . S
C1040 C1056 1.368 . S
H1041 C1049 0.950 . S
H1042 C1047 0.950 . S
H1043 C1048 0.949 . S
H1044 C1050 0.950 . S
H1045 C1051 0.950 . S
H1046 C1052 0.949 . S
C1047 H1042 0.950 . S
C1047 C1049 1.327 . S
C1047 C1053 1.429 . S
C1048 C1040 1.574 . S
C1048 H1043 0.949 . S
C1048 C1054 1.368 . S
C1049 C1033 1.349 . S
C1049 H1041 0.950 . S
C1049 C1047 1.327 . S
C1050 C1038 1.349 . S
C1050 H1044 0.950 . S
C1050 C1051 1.327 . S
C1051 H1045 0.950 . S
C1051 C1050 1.327 . S
C1051 C1055 1.429 . S
C1052 C1035 1.574 . S
C1052 H1046 0.949 . S
C1052 C1056 1.368 . S
C1053 C1034 1.429 . S
C1053 C1047 1.429 . S
C1053 C1054 1.523 . S
C1054 C1035 1.368 . S
C1054 C1048 1.368 . S
C1054 C1053 1.523 . S
C1055 C1039 1.429 . S
C1055 C1051 1.429 . S
C1055 C1056 1.523 . S
C1056 C1040 1.368 . S
C1056 C1052 1.368 . S
C1056 C1055 1.523 . S
H1057 C1032 0.950 . S
H1058 C1034 0.950 . S
H1059 C1035 0.949 . S
H1060 C1037 0.950 . S
H1061 C1039 0.950 . S
C1062 C1063 1.349 . S
C1062 C1064 1.327 . S
C1062 H1087 0.950 . S
C1063 C1062 1.349 . S
C1063 C1079 1.349 . S
C1064 C1062 1.327 . S
C1064 C1083 1.413 1_545 S
C1064 H1088 0.950 . S
C1065 C1082 1.574 . S
C1065 C1084 1.368 . S
C1065 H1089 0.949 . S
H1066 C1070 0.949 . S
C1067 C1068 1.349 . S
C1067 C1069 1.327 . S
C1067 H1090 0.950 . S
C1068 C1067 1.349 . S
C1068 C1080 1.349 . S
C1069 C1067 1.327 . S
C1069 C1085 1.429 . S
C1069 H1091 0.950 . S
C1070 H1066 0.949 . S
C1070 C1078 1.574 . S
C1070 C1086 1.368 . S
H1071 C1079 0.950 . S
H1072 C1077 0.950 1_565 S
H1073 C1078 0.949 . S
H1074 C1080 0.950 . S
H1075 C1081 0.950 . S
H1076 C1082 0.949 . S
C1077 H1072 0.950 1_545 S
C1077 C1079 1.327 . S
C1077 C1083 1.425 1_545 S
C1078 C1070 1.574 . S
C1078 H1073 0.949 . S
C1078 C1084 1.368 . S
C1079 C1063 1.349 . S
C1079 H1071 0.950 . S
C1079 C1077 1.327 . S
C1080 C1068 1.349 . S
C1080 H1074 0.950 . S
C1080 C1081 1.327 . S
C1081 H1075 0.950 . S
C1081 C1080 1.327 . S
C1081 C1085 1.429 . S
C1082 C1065 1.574 . S
C1082 H1076 0.949 . S
C1082 C1086 1.368 . S
C1083 C1064 1.413 1_565 S
C1083 C1077 1.425 1_565 S
C1083 C1084 1.542 . S
C1084 C1065 1.368 . S
C1084 C1078 1.368 . S
C1084 C1083 1.542 . S
C1085 C1069 1.429 . S
C1085 C1081 1.429 . S
C1085 C1086 1.523 . S
C1086 C1070 1.368 . S
C1086 C1082 1.368 . S
C1086 C1085 1.523 . S
H1087 C1062 0.950 . S
H1088 C1064 0.950 . S
H1089 C1065 0.949 . S
H1090 C1067 0.950 . S
H1091 C1069 0.950 . S
C1092 C1093 1.349 . S
C1092 C1094 1.327 . S
C1092 H1117 0.950 . S
C1093 C1092 1.349 . S
C1093 C1109 1.349 . S
C1094 C1092 1.327 . S
C1094 C1113 1.429 . S
C1094 H1118 0.950 . S
C1095 C1112 1.574 . S
C1095 C1114 1.368 . S
C1095 H1119 0.949 . S
H1096 C1100 0.949 . S
C1097 C1098 1.349 . S
C1097 C1099 1.327 . S
C1097 H1120 0.950 . S
C1098 C1097 1.349 . S
C1098 C1110 1.349 . S
C1099 C1097 1.327 . S
C1099 C1115 1.429 . S
C1099 H1121 0.950 . S
C1100 H1096 0.949 . S
C1100 C1108 1.574 . S
C1100 C1116 1.368 . S
H1101 C1109 0.950 . S
H1102 C1107 0.950 . S
H1103 C1108 0.949 . S
H1104 C1110 0.950 . S
H1105 C1111 0.950 . S
H1106 C1112 0.949 . S
C1107 H1102 0.950 . S
C1107 C1109 1.327 . S
C1107 C1113 1.429 . S
C1108 C1100 1.574 . S
C1108 H1103 0.949 . S
C1108 C1114 1.368 . S
C1109 C1093 1.349 . S
C1109 H1101 0.950 . S
C1109 C1107 1.327 . S
C1110 C1098 1.349 . S
C1110 H1104 0.950 . S
C1110 C1111 1.327 . S
C1111 H1105 0.950 . S
C1111 C1110 1.327 . S
C1111 C1115 1.429 . S
C1112 C1095 1.574 . S
C1112 H1106 0.949 . S
C1112 C1116 1.368 . S
C1113 C1094 1.429 . S
C1113 C1107 1.429 . S
C1113 C1114 1.523 . S
C1114 C1095 1.368 . S
C1114 C1108 1.368 . S
C1114 C1113 1.523 . S
C1115 C1099 1.429 . S
C1115 C1111 1.429 . S
C1115 C1116 1.523 . S
C1116 C1100 1.368 . S
C1116 C1112 1.368 . S
C1116 C1115 1.523 . S
H1117 C1092 0.950 . S
H1118 C1094 0.950 . S
H1119 C1095 0.949 . S
H1120 C1097 0.950 . S
H1121 C1099 0.950 . S
C1122 C1123 1.349 . S
C1122 C1124 1.327 . S
C1122 H1147 0.950 . S
C1123 C1122 1.349 . S
C1123 C1139 1.349 . S
C1124 C1122 1.327 . S
C1124 C1143 1.429 . S
C1124 H1148 0.950 . S
C1125 C1142 1.574 . S
C1125 C1144 1.368 . S
C1125 H1149 0.949 . S
H1126 C1130 0.944 . S
C1127 C1128 1.350 . S
C1127 C1129 1.327 1_565 S
C1127 H1150 0.949 1_565 S
C1128 C1127 1.350 . S
C1128 C1140 1.349 . S
C1129 C1127 1.327 1_545 S
C1129 C1145 1.446 1_556 S
C1129 H1151 0.950 . S
C1130 H1126 0.944 . S
C1130 C1138 1.576 1_565 S
C1130 C1146 1.371 1_565 S
H1131 C1139 0.950 . S
H1132 C1137 0.950 . S
H1133 C1138 0.949 . S
H1134 C1140 0.950 . S
H1135 C1141 0.950 . S
H1136 C1142 0.949 . S
C1137 H1132 0.950 . S
C1137 C1139 1.327 . S
C1137 C1143 1.429 . S
C1138 C1130 1.576 1_545 S
C1138 H1133 0.949 . S
C1138 C1144 1.368 . S
C1139 C1123 1.349 . S
C1139 H1131 0.950 . S
C1139 C1137 1.327 . S
C1140 C1128 1.349 . S
C1140 H1134 0.950 . S
C1140 C1141 1.327 1_556 S
C1141 H1135 0.950 . S
C1141 C1140 1.327 1_554 S
C1141 C1145 1.391 1_565 S
C1142 C1125 1.574 . S
C1142 H1136 0.949 . S
C1142 C1146 1.368 . S
C1143 C1124 1.429 . S
C1143 C1137 1.429 . S
C1143 C1144 1.523 . S
C1144 C1125 1.368 . S
C1144 C1138 1.368 . S
C1144 C1143 1.523 . S
C1145 C1129 1.446 1_554 S
C1145 C1141 1.391 1_545 S
C1145 C1146 1.542 . S
C1146 C1130 1.371 1_545 S
C1146 C1142 1.368 . S
C1146 C1145 1.542 . S
H1147 C1122 0.950 . S
H1148 C1124 0.950 . S
H1149 C1125 0.949 . S
H1150 C1127 0.949 1_545 S
H1151 C1129 0.950 . S
C1152 C1153 1.349 . S
C1152 C1154 1.327 . S
C1152 H1177 0.950 . S
C1153 C1152 1.349 . S
C1153 C1169 1.349 . S
C1154 C1152 1.327 . S
C1154 C1173 1.429 . S
C1154 H1178 0.950 . S
C1155 C1172 1.574 . S
C1155 C1174 1.368 . S
C1155 H1179 0.949 . S
H1156 C1160 0.949 . S
C1157 C1158 1.349 . S
C1157 C1159 1.327 . S
C1157 H1180 0.950 . S
C1158 C1157 1.349 . S
C1158 C1170 1.349 . S
C1159 C1157 1.327 . S
C1159 C1175 1.429 . S
C1159 H1181 0.950 . S
C1160 H1156 0.949 . S
C1160 C1168 1.574 . S
C1160 C1176 1.368 . S
H1161 C1169 0.950 . S
H1162 C1167 0.950 . S
H1163 C1168 0.949 . S
H1164 C1170 0.950 . S
H1165 C1171 0.950 . S
H1166 C1172 0.949 . S
C1167 H1162 0.950 . S
C1167 C1169 1.327 . S
C1167 C1173 1.429 . S
C1168 C1160 1.574 . S
C1168 H1163 0.949 . S
C1168 C1174 1.368 . S
C1169 C1153 1.349 . S
C1169 H1161 0.950 . S
C1169 C1167 1.327 . S
C1170 C1158 1.349 . S
C1170 H1164 0.950 . S
C1170 C1171 1.327 . S
C1171 H1165 0.950 . S
C1171 C1170 1.327 . S
C1171 C1175 1.429 . S
C1172 C1155 1.574 . S
C1172 H1166 0.949 . S
C1172 C1176 1.368 . S
C1173 C1154 1.429 . S
C1173 C1167 1.429 . S
C1173 C1174 1.523 . S
C1174 C1155 1.368 . S
C1174 C1168 1.368 . S
C1174 C1173 1.523 . S
C1175 C1159 1.429 . S
C1175 C1171 1.429 . S
C1175 C1176 1.523 . S
C1176 C1160 1.368 . S
C1176 C1172 1.368 . S
C1176 C1175 1.523 . S
H1177 C1152 0.950 . S
H1178 C1154 0.950 . S
H1179 C1155 0.949 . S
H1180 C1157 0.950 . S
H1181 C1159 0.950 . S
C1182 C1183 1.349 . S
C1182 C1184 1.327 . S
C1182 H1207 0.950 . S
C1183 C1182 1.349 . S
C1183 C1199 1.349 . S
C1184 C1182 1.327 . S
C1184 C1203 1.429 1_554 S
C1184 H1208 0.950 . S
C1185 C1202 1.574 . S
C1185 C1204 1.368 . S
C1185 H1209 0.949 . S
H1186 C1190 0.949 . S
C1187 C1188 1.349 . S
C1187 C1189 1.327 . S
C1187 H1210 0.950 . S
C1188 C1187 1.349 . S
C1188 C1200 1.349 . S
C1189 C1187 1.327 . S
C1189 C1205 1.429 . S
C1189 H1211 0.950 . S
C1190 H1186 0.949 . S
C1190 C1198 1.574 . S
C1190 C1206 1.368 . S
H1191 C1199 0.950 . S
H1192 C1197 0.950 . S
H1193 C1198 0.949 . S
H1194 C1200 0.950 . S
H1195 C1201 0.950 . S
H1196 C1202 0.949 . S
C1197 H1192 0.950 . S
C1197 C1199 1.327 1_556 S
C1197 C1203 1.429 . S
C1198 C1190 1.574 . S
C1198 H1193 0.949 . S
C1198 C1204 1.368 . S
C1199 C1183 1.349 . S
C1199 H1191 0.950 . S
C1199 C1197 1.327 1_554 S
C1200 C1188 1.349 . S
C1200 H1194 0.950 . S
C1200 C1201 1.327 . S
C1201 H1195 0.950 . S
C1201 C1200 1.327 . S
C1201 C1205 1.429 . S
C1202 C1185 1.574 . S
C1202 H1196 0.949 . S
C1202 C1206 1.368 . S
C1203 C1184 1.429 1_556 S
C1203 C1197 1.429 . S
C1203 C1204 1.523 . S
C1204 C1185 1.368 . S
C1204 C1198 1.368 . S
C1204 C1203 1.523 . S
C1205 C1189 1.429 . S
C1205 C1201 1.429 . S
C1205 C1206 1.523 . S
C1206 C1190 1.368 . S
C1206 C1202 1.368 . S
C1206 C1205 1.523 . S
H1207 C1182 0.950 . S
H1208 C1184 0.950 . S
H1209 C1185 0.949 . S
H1210 C1187 0.950 . S
H1211 C1189 0.950 . S
C1212 C1213 1.349 . S
C1212 C1214 1.327 . S
C1212 H1237 0.950 . S
C1213 C1212 1.349 . S
C1213 C1229 1.349 . S
C1214 C1212 1.327 . S
C1214 C1233 1.429 . S
C1214 H1238 0.950 . S
C1215 C1232 1.574 . S
C1215 C1234 1.368 . S
C1215 H1239 0.949 . S
H1216 C1220 0.949 . S
C1217 C1218 1.349 . S
C1217 C1219 1.327 . S
C1217 H1240 0.950 . S
C1218 C1217 1.349 . S
C1218 C1230 1.349 . S
C1219 C1217 1.327 . S
C1219 C1235 1.429 . S
C1219 H1241 0.950 . S
C1220 H1216 0.949 . S
C1220 C1228 1.574 . S
C1220 C1236 1.368 . S
H1221 C1229 0.950 . S
H1222 C1227 0.950 . S
H1223 C1228 0.949 . S
H1224 C1230 0.950 . S
H1225 C1231 0.950 . S
H1226 C1232 0.949 . S
C1227 H1222 0.950 . S
C1227 C1229 1.327 . S
C1227 C1233 1.429 . S
C1228 C1220 1.574 . S
C1228 H1223 0.949 . S
C1228 C1234 1.368 . S
C1229 C1213 1.349 . S
C1229 H1221 0.950 . S
C1229 C1227 1.327 . S
C1230 C1218 1.349 . S
C1230 H1224 0.950 . S
C1230 C1231 1.327 . S
C1231 H1225 0.950 . S
C1231 C1230 1.327 . S
C1231 C1235 1.429 . S
C1232 C1215 1.574 . S
C1232 H1226 0.949 . S
C1232 C1236 1.368 . S
C1233 C1214 1.429 . S
C1233 C1227 1.429 . S
C1233 C1234 1.523 . S
C1234 C1215 1.368 . S
C1234 C1228 1.368 . S
C1234 C1233 1.523 . S
C1235 C1219 1.429 . S
C1235 C1231 1.429 . S
C1235 C1236 1.523 . S
C1236 C1220 1.368 . S
C1236 C1232 1.368 . S
C1236 C1235 1.523 . S
H1237 C1212 0.950 . S
H1238 C1214 0.950 . S
H1239 C1215 0.949 . S
H1240 C1217 0.950 . S
H1241 C1219 0.950 . S
C1242 C1243 1.349 . S
C1242 C1244 1.327 . S
C1242 H1267 0.950 . S
C1243 C1242 1.349 . S
C1243 C1259 1.349 . S
C1244 C1242 1.327 . S
C1244 C1263 1.429 . S
C1244 H1268 0.950 . S
C1245 C1262 1.574 . S
C1245 C1264 1.368 . S
C1245 H1269 0.949 . S
H1246 C1250 0.949 . S
C1247 C1248 1.349 . S
C1247 C1249 1.327 . S
C1247 H1270 0.950 . S
C1248 C1247 1.349 . S
C1248 C1260 1.349 . S
C1249 C1247 1.327 . S
C1249 C1265 1.429 . S
C1249 H1271 0.950 . S
C1250 H1246 0.949 . S
C1250 C1258 1.574 . S
C1250 C1266 1.368 . S
H1251 C1259 0.950 . S
H1252 C1257 0.950 . S
H1253 C1258 0.949 . S
H1254 C1260 0.950 . S
H1255 C1261 0.950 . S
H1256 C1262 0.949 . S
C1257 H1252 0.950 . S
C1257 C1259 1.327 . S
C1257 C1263 1.429 . S
C1258 C1250 1.574 . S
C1258 H1253 0.949 . S
C1258 C1264 1.368 . S
C1259 C1243 1.349 . S
C1259 H1251 0.950 . S
C1259 C1257 1.327 . S
C1260 C1248 1.349 . S
C1260 H1254 0.950 . S
C1260 C1261 1.327 . S
C1261 H1255 0.950 . S
C1261 C1260 1.327 . S
C1261 C1265 1.429 . S
C1262 C1245 1.574 . S
C1262 H1256 0.949 . S
C1262 C1266 1.368 . S
C1263 C1244 1.429 . S
C1263 C1257 1.429 . S
C1263 C1264 1.523 . S
C1264 C1245 1.368 . S
C1264 C1258 1.368 . S
C1264 C1263 1.523 . S
C1265 C1249 1.429 . S
C1265 C1261 1.429 . S
C1265 C1266 1.523 . S
C1266 C1250 1.368 . S
C1266 C1262 1.368 . S
C1266 C1265 1.523 . S
H1267 C1242 0.950 . S
H1268 C1244 0.950 . S
H1269 C1245 0.949 . S
H1270 C1247 0.950 . S
H1271 C1249 0.950 . S
C1272 C1273 1.349 . S
C1272 C1274 1.327 . S
C1272 H1297 0.950 . S
C1273 C1272 1.349 . S
C1273 C1289 1.349 . S
C1274 C1272 1.327 . S
C1274 C1293 1.429 . S
C1274 H1298 0.950 . S
C1275 C1292 1.574 . S
C1275 C1294 1.368 . S
C1275 H1299 0.949 . S
H1276 C1280 0.949 . S
C1277 C1278 1.349 . S
C1277 C1279 1.327 . S
C1277 H1300 0.950 . S
C1278 C1277 1.349 . S
C1278 C1290 1.349 . S
C1279 C1277 1.327 . S
C1279 C1295 1.429 . S
C1279 H1301 0.950 . S
C1280 H1276 0.949 . S
C1280 C1288 1.574 . S
C1280 C1296 1.368 . S
H1281 C1289 0.950 . S
H1282 C1287 0.950 . S
H1283 C1288 0.949 . S
H1284 C1290 0.950 . S
H1285 C1291 0.950 . S
H1286 C1292 0.949 . S
C1287 H1282 0.950 . S
C1287 C1289 1.327 . S
C1287 C1293 1.429 . S
C1288 C1280 1.574 . S
C1288 H1283 0.949 . S
C1288 C1294 1.368 . S
C1289 C1273 1.349 . S
C1289 H1281 0.950 . S
C1289 C1287 1.327 . S
C1290 C1278 1.349 . S
C1290 H1284 0.950 . S
C1290 C1291 1.327 . S
C1291 H1285 0.950 . S
C1291 C1290 1.327 . S
C1291 C1295 1.429 . S
C1292 C1275 1.574 . S
C1292 H1286 0.949 . S
C1292 C1296 1.368 . S
C1293 C1274 1.429 . S
C1293 C1287 1.429 . S
C1293 C1294 1.523 . S
C1294 C1275 1.368 . S
C1294 C1288 1.368 . S
C1294 C1293 1.523 . S
C1295 C1279 1.429 . S
C1295 C1291 1.429 . S
C1295 C1296 1.523 . S
C1296 C1280 1.368 . S
C1296 C1292 1.368 . S
C1296 C1295 1.523 . S
H1297 C1272 0.950 . S
H1298 C1274 0.950 . S
H1299 C1275 0.949 . S
H1300 C1277 0.950 . S
H1301 C1279 0.950 . S
C1302 C1303 1.349 . S
C1302 C1304 1.327 1_565 S
C1302 H1327 0.950 . S
C1303 C1302 1.349 . S
C1303 C1319 1.349 . S
C1304 C1302 1.327 1_545 S
C1304 C1323 1.400 1_655 S
C1304 H1328 0.950 . S
C1305 C1322 1.574 . S
C1305 C1324 1.368 . S
C1305 H1329 0.949 . S
H1306 C1310 0.949 . S
C1307 C1308 1.349 . S
C1307 C1309 1.327 . S
C1307 H1330 0.950 . S
C1308 C1307 1.349 . S
C1308 C1320 1.349 . S
C1309 C1307 1.327 . S
C1309 C1325 1.429 . S
C1309 H1331 0.950 . S
C1310 H1306 0.949 . S
C1310 C1318 1.574 . S
C1310 C1326 1.368 . S
H1311 C1319 0.950 . S
H1312 C1317 0.950 . S
H1313 C1318 0.949 1_655 S
H1314 C1320 0.950 . S
H1315 C1321 0.950 . S
H1316 C1322 0.949 . S
C1317 H1312 0.950 . S
C1317 C1319 1.327 1_445 S
C1317 C1323 1.437 . S
C1318 C1310 1.574 . S
C1318 H1313 0.949 1_455 S
C1318 C1324 1.368 . S
C1319 C1303 1.349 . S
C1319 H1311 0.950 . S
C1319 C1317 1.327 1_665 S
C1320 C1308 1.349 . S
C1320 H1314 0.950 . S
C1320 C1321 1.327 . S
C1321 H1315 0.950 . S
C1321 C1320 1.327 . S
C1321 C1325 1.429 . S
C1322 C1305 1.574 . S
C1322 H1316 0.949 . S
C1322 C1326 1.368 . S
C1323 C1304 1.400 1_455 S
C1323 C1317 1.437 . S
C1323 C1324 1.542 . S
C1324 C1305 1.368 . S
C1324 C1318 1.368 . S
C1324 C1323 1.542 . S
C1325 C1309 1.429 . S
C1325 C1321 1.429 . S
C1325 C1326 1.523 . S
C1326 C1310 1.368 . S
C1326 C1322 1.368 . S
C1326 C1325 1.523 . S
H1327 C1302 0.950 . S
H1328 C1304 0.950 . S
H1329 C1305 0.949 . S
H1330 C1307 0.950 . S
H1331 C1309 0.950 . S
C1332 C1333 1.349 . S
C1332 C1334 1.327 . S
C1332 H1357 0.950 . S
C1333 C1332 1.349 . S
C1333 C1349 1.349 . S
C1334 C1332 1.327 . S
C1334 C1353 1.429 . S
C1334 H1358 0.950 . S
C1335 C1352 1.574 . S
C1335 C1354 1.368 . S
C1335 H1359 0.949 . S
H1336 C1340 0.949 . S
C1337 C1338 1.349 . S
C1337 C1339 1.327 . S
C1337 H1360 0.950 . S
C1338 C1337 1.349 . S
C1338 C1350 1.349 . S
C1339 C1337 1.327 . S
C1339 C1355 1.429 . S
C1339 H1361 0.950 . S
C1340 H1336 0.949 . S
C1340 C1348 1.574 . S
C1340 C1356 1.368 . S
H1341 C1349 0.950 . S
H1342 C1347 0.950 . S
H1343 C1348 0.949 . S
H1344 C1350 0.950 . S
H1345 C1351 0.950 . S
H1346 C1352 0.949 . S
C1347 H1342 0.950 . S
C1347 C1349 1.327 . S
C1347 C1353 1.429 . S
C1348 C1340 1.574 . S
C1348 H1343 0.949 . S
C1348 C1354 1.368 . S
C1349 C1333 1.349 . S
C1349 H1341 0.950 . S
C1349 C1347 1.327 . S
C1350 C1338 1.349 . S
C1350 H1344 0.950 . S
C1350 C1351 1.327 . S
C1351 H1345 0.950 . S
C1351 C1350 1.327 . S
C1351 C1355 1.429 . S
C1352 C1335 1.574 . S
C1352 H1346 0.949 . S
C1352 C1356 1.368 . S
C1353 C1334 1.429 . S
C1353 C1347 1.429 . S
C1353 C1354 1.523 . S
C1354 C1335 1.368 . S
C1354 C1348 1.368 . S
C1354 C1353 1.523 . S
C1355 C1339 1.429 . S
C1355 C1351 1.429 . S
C1355 C1356 1.523 . S
C1356 C1340 1.368 . S
C1356 C1352 1.368 . S
C1356 C1355 1.523 . S
H1357 C1332 0.950 . S
H1358 C1334 0.950 . S
H1359 C1335 0.949 . S
H1360 C1337 0.950 . S
H1361 C1339 0.950 . S
C1362 C1363 1.349 . S
C1362 C1364 1.327 1_545 S
C1362 H1387 0.950 . S
C1363 C1362 1.349 . S
C1363 C1379 1.349 . S
C1364 C1362 1.327 1_565 S
C1364 C1383 1.429 . S
C1364 H1388 0.950 . S
C1365 C1382 1.574 . S
C1365 C1384 1.368 . S
C1365 H1389 0.949 . S
H1366 C1370 0.949 . S
C1367 C1368 1.349 . S
C1367 C1369 1.327 . S
C1367 H1390 0.950 . S
C1368 C1367 1.349 . S
C1368 C1380 1.349 . S
C1369 C1367 1.327 . S
C1369 C1385 1.429 . S
C1369 H1391 0.950 . S
C1370 H1366 0.949 . S
C1370 C1378 1.574 . S
C1370 C1386 1.368 . S
H1371 C1379 0.950 . S
H1372 C1377 0.950 . S
H1373 C1378 0.949 . S
H1374 C1380 0.950 . S
H1375 C1381 0.950 . S
H1376 C1382 0.949 . S
C1377 H1372 0.950 . S
C1377 C1379 1.327 1_565 S
C1377 C1383 1.429 . S
C1378 C1370 1.574 . S
C1378 H1373 0.949 . S
C1378 C1384 1.368 . S
C1379 C1363 1.349 . S
C1379 H1371 0.950 . S
C1379 C1377 1.327 1_545 S
C1380 C1368 1.349 . S
C1380 H1374 0.950 . S
C1380 C1381 1.327 . S
C1381 H1375 0.950 . S
C1381 C1380 1.327 . S
C1381 C1385 1.429 . S
C1382 C1365 1.574 . S
C1382 H1376 0.949 . S
C1382 C1386 1.368 . S
C1383 C1364 1.429 . S
C1383 C1377 1.429 . S
C1383 C1384 1.523 . S
C1384 C1365 1.368 . S
C1384 C1378 1.368 . S
C1384 C1383 1.523 . S
C1385 C1369 1.429 . S
C1385 C1381 1.429 . S
C1385 C1386 1.523 . S
C1386 C1370 1.368 . S
C1386 C1382 1.368 . S
C1386 C1385 1.523 . S
H1387 C1362 0.950 . S
H1388 C1364 0.950 . S
H1389 C1365 0.949 . S
H1390 C1367 0.950 . S
H1391 C1369 0.950 . S
C1392 C1393 1.349 . S
C1392 C1394 1.327 . S
C1392 H1417 0.950 . S
C1393 C1392 1.349 . S
C1393 C1409 1.349 . S
C1394 C1392 1.327 . S
C1394 C1413 1.429 . S
C1394 H1418 0.950 . S
C1395 C1412 1.574 . S
C1395 C1414 1.368 . S
C1395 H1419 0.949 . S
H1396 C1400 0.949 . S
C1397 C1398 1.349 . S
C1397 C1399 1.327 . S
C1397 H1420 0.950 . S
C1398 C1397 1.349 . S
C1398 C1410 1.349 . S
C1399 C1397 1.327 . S
C1399 C1415 1.429 . S
C1399 H1421 0.950 . S
C1400 H1396 0.949 . S
C1400 C1408 1.574 . S
C1400 C1416 1.368 . S
H1401 C1409 0.950 . S
H1402 C1407 0.950 . S
H1403 C1408 0.949 . S
H1404 C1410 0.950 . S
H1405 C1411 0.950 . S
H1406 C1412 0.949 . S
C1407 H1402 0.950 . S
C1407 C1409 1.327 . S
C1407 C1413 1.429 . S
C1408 C1400 1.574 . S
C1408 H1403 0.949 . S
C1408 C1414 1.368 . S
C1409 C1393 1.349 . S
C1409 H1401 0.950 . S
C1409 C1407 1.327 . S
C1410 C1398 1.349 . S
C1410 H1404 0.950 . S
C1410 C1411 1.327 . S
C1411 H1405 0.950 . S
C1411 C1410 1.327 . S
C1411 C1415 1.429 . S
C1412 C1395 1.574 . S
C1412 H1406 0.949 . S
C1412 C1416 1.368 . S
C1413 C1394 1.429 . S
C1413 C1407 1.429 . S
C1413 C1414 1.523 . S
C1414 C1395 1.368 . S
C1414 C1408 1.368 . S
C1414 C1413 1.523 . S
C1415 C1399 1.429 . S
C1415 C1411 1.429 . S
C1415 C1416 1.523 . S
C1416 C1400 1.368 . S
C1416 C1412 1.368 . S
C1416 C1415 1.523 . S
H1417 C1392 0.950 . S
H1418 C1394 0.950 . S
H1419 C1395 0.949 . S
H1420 C1397 0.950 . S
H1421 C1399 0.950 . S
C1422 C1423 1.349 . S
C1422 C1424 1.327 . S
C1422 H1447 0.950 . S
C1423 C1422 1.349 . S
C1423 C1439 1.349 . S
C1424 C1422 1.327 . S
C1424 C1443 1.418 1_455 S
C1424 H1448 0.950 . S
C1425 C1442 1.574 . S
C1425 C1444 1.368 . S
C1425 H1449 0.949 . S
H1426 C1430 0.949 . S
C1427 C1428 1.349 . S
C1427 C1429 1.327 . S
C1427 H1450 0.950 . S
C1428 C1427 1.349 . S
C1428 C1440 1.349 . S
C1429 C1427 1.327 . S
C1429 C1445 1.429 . S
C1429 H1451 0.950 . S
C1430 H1426 0.949 . S
C1430 C1438 1.574 . S
C1430 C1446 1.368 . S
H1431 C1439 0.950 . S
H1432 C1437 0.950 . S
H1433 C1438 0.949 . S
H1434 C1440 0.950 . S
H1435 C1441 0.950 . S
H1436 C1442 0.949 . S
C1437 H1432 0.950 . S
C1437 C1439 1.327 . S
C1437 C1443 1.419 1_455 S
C1438 C1430 1.574 . S
C1438 H1433 0.949 . S
C1438 C1444 1.368 . S
C1439 C1423 1.349 . S
C1439 H1431 0.950 . S
C1439 C1437 1.327 . S
C1440 C1428 1.349 . S
C1440 H1434 0.950 . S
C1440 C1441 1.327 . S
C1441 H1435 0.950 . S
C1441 C1440 1.327 . S
C1441 C1445 1.429 . S
C1442 C1425 1.574 . S
C1442 H1436 0.949 . S
C1442 C1446 1.368 . S
C1443 C1424 1.418 1_655 S
C1443 C1437 1.419 1_655 S
C1443 C1444 1.542 . S
C1444 C1425 1.368 . S
C1444 C1438 1.368 . S
C1444 C1443 1.542 . S
C1445 C1429 1.429 . S
C1445 C1441 1.429 . S
C1445 C1446 1.523 . S
C1446 C1430 1.368 . S
C1446 C1442 1.368 . S
C1446 C1445 1.523 . S
H1447 C1422 0.950 . S
H1448 C1424 0.950 . S
H1449 C1425 0.949 . S
H1450 C1427 0.950 . S
H1451 C1429 0.950 . S
C1452 C1453 1.349 . S
C1452 C1454 1.327 . S
C1452 H1477 0.950 . S
C1453 C1452 1.349 . S
C1453 C1469 1.349 . S
C1454 C1452 1.327 . S
C1454 C1473 1.429 . S
C1454 H1478 0.950 . S
C1455 C1472 1.574 . S
C1455 C1474 1.368 . S
C1455 H1479 0.949 . S
H1456 C1460 0.949 . S
C1457 C1458 1.349 . S
C1457 C1459 1.327 . S
C1457 H1480 0.950 . S
C1458 C1457 1.349 . S
C1458 C1470 1.349 . S
C1459 C1457 1.327 . S
C1459 C1475 1.429 . S
C1459 H1481 0.950 . S
C1460 H1456 0.949 . S
C1460 C1468 1.574 . S
C1460 C1476 1.368 . S
H1461 C1469 0.950 . S
H1462 C1467 0.950 . S
H1463 C1468 0.949 . S
H1464 C1470 0.950 . S
H1465 C1471 0.950 . S
H1466 C1472 0.949 . S
C1467 H1462 0.950 . S
C1467 C1469 1.327 . S
C1467 C1473 1.429 . S
C1468 C1460 1.574 . S
C1468 H1463 0.949 . S
C1468 C1474 1.368 . S
C1469 C1453 1.349 . S
C1469 H1461 0.950 . S
C1469 C1467 1.327 . S
C1470 C1458 1.349 . S
C1470 H1464 0.950 . S
C1470 C1471 1.327 . S
C1471 H1465 0.950 . S
C1471 C1470 1.327 . S
C1471 C1475 1.429 . S
C1472 C1455 1.574 . S
C1472 H1466 0.949 . S
C1472 C1476 1.368 . S
C1473 C1454 1.429 . S
C1473 C1467 1.429 . S
C1473 C1474 1.523 . S
C1474 C1455 1.368 . S
C1474 C1468 1.368 . S
C1474 C1473 1.523 . S
C1475 C1459 1.429 . S
C1475 C1471 1.429 . S
C1475 C1476 1.523 . S
C1476 C1460 1.368 . S
C1476 C1472 1.368 . S
C1476 C1475 1.523 . S
H1477 C1452 0.950 . S
H1478 C1454 0.950 . S
H1479 C1455 0.949 . S
H1480 C1457 0.950 . S
H1481 C1459 0.950 . S
C1482 C1483 1.349 . S
C1482 C1484 1.327 . S
C1482 H1507 0.950 . S
C1483 C1482 1.349 . S
C1483 C1499 1.349 . S
C1484 C1482 1.327 . S
C1484 C1503 1.429 . S
C1484 H1508 0.950 . S
C1485 C1502 1.574 . S
C1485 C1504 1.368 . S
C1485 H1509 0.949 . S
H1486 C1490 0.949 . S
C1487 C1488 1.349 . S
C1487 C1489 1.327 . S
C1487 H1510 0.950 . S
C1488 C1487 1.349 . S
C1488 C1500 1.349 . S
C1489 C1487 1.327 . S
C1489 C1505 1.429 . S
C1489 H1511 0.950 . S
C1490 H1486 0.949 . S
C1490 C1498 1.574 . S
C1490 C1506 1.368 . S
H1491 C1499 0.950 . S
H1492 C1497 0.950 . S
H1493 C1498 0.949 . S
H1494 C1500 0.950 . S
H1495 C1501 0.950 . S
H1496 C1502 0.949 . S
C1497 H1492 0.950 . S
C1497 C1499 1.327 . S
C1497 C1503 1.429 . S
C1498 C1490 1.574 . S
C1498 H1493 0.949 . S
C1498 C1504 1.368 . S
C1499 C1483 1.349 . S
C1499 H1491 0.950 . S
C1499 C1497 1.327 . S
C1500 C1488 1.349 . S
C1500 H1494 0.950 . S
C1500 C1501 1.327 . S
C1501 H1495 0.950 . S
C1501 C1500 1.327 . S
C1501 C1505 1.429 . S
C1502 C1485 1.574 . S
C1502 H1496 0.949 . S
C1502 C1506 1.368 . S
C1503 C1484 1.429 . S
C1503 C1497 1.429 . S
C1503 C1504 1.523 . S
C1504 C1485 1.368 . S
C1504 C1498 1.368 . S
C1504 C1503 1.523 . S
C1505 C1489 1.429 . S
C1505 C1501 1.429 . S
C1505 C1506 1.523 . S
C1506 C1490 1.368 . S
C1506 C1502 1.368 . S
C1506 C1505 1.523 . S
H1507 C1482 0.950 . S
H1508 C1484 0.950 . S
H1509 C1485 0.949 . S
H1510 C1487 0.950 . S
H1511 C1489 0.950 . S
C1512 C1513 1.349 . S
C1512 C1514 1.327 . S
C1512 H1537 0.950 . S
C1513 C1512 1.349 . S
C1513 C1529 1.349 . S
C1514 C1512 1.327 . S
C1514 C1533 1.429 . S
C1514 H1538 0.950 . S
C1515 C1532 1.574 . S
C1515 C1534 1.368 . S
C1515 H1539 0.949 . S
H1516 C1520 0.949 . S
C1517 C1518 1.349 . S
C1517 C1519 1.327 . S
C1517 H1540 0.950 . S
C1518 C1517 1.349 . S
C1518 C1530 1.349 . S
C1519 C1517 1.327 . S
C1519 C1535 1.429 . S
C1519 H1541 0.950 . S
C1520 H1516 0.949 . S
C1520 C1528 1.574 . S
C1520 C1536 1.368 . S
H1521 C1529 0.950 . S
H1522 C1527 0.950 . S
H1523 C1528 0.949 . S
H1524 C1530 0.950 . S
H1525 C1531 0.950 . S
H1526 C1532 0.949 . S
C1527 H1522 0.950 . S
C1527 C1529 1.327 . S
C1527 C1533 1.429 . S
C1528 C1520 1.574 . S
C1528 H1523 0.949 . S
C1528 C1534 1.368 . S
C1529 C1513 1.349 . S
C1529 H1521 0.950 . S
C1529 C1527 1.327 . S
C1530 C1518 1.349 . S
C1530 H1524 0.950 . S
C1530 C1531 1.327 . S
C1531 H1525 0.950 . S
C1531 C1530 1.327 . S
C1531 C1535 1.429 . S
C1532 C1515 1.574 . S
C1532 H1526 0.949 . S
C1532 C1536 1.368 . S
C1533 C1514 1.429 . S
C1533 C1527 1.429 . S
C1533 C1534 1.523 . S
C1534 C1515 1.368 . S
C1534 C1528 1.368 . S
C1534 C1533 1.523 . S
C1535 C1519 1.429 . S
C1535 C1531 1.429 . S
C1535 C1536 1.523 . S
C1536 C1520 1.368 . S
C1536 C1532 1.368 . S
C1536 C1535 1.523 . S
H1537 C1512 0.950 . S
H1538 C1514 0.950 . S
H1539 C1515 0.949 . S
H1540 C1517 0.950 . S
H1541 C1519 0.950 . S
C1542 C1543 1.349 . S
C1542 C1544 1.327 . S
C1542 H1567 0.950 . S
C1543 C1542 1.349 . S
C1543 C1559 1.349 . S
C1544 C1542 1.327 . S
C1544 C1563 1.429 . S
C1544 H1568 0.950 . S
C1545 C1562 1.574 . S
C1545 C1564 1.368 . S
C1545 H1569 0.949 . S
H1546 C1550 0.949 . S
C1547 C1548 1.349 . S
C1547 C1549 1.327 . S
C1547 H1570 0.950 . S
C1548 C1547 1.349 . S
C1548 C1560 1.349 . S
C1549 C1547 1.327 . S
C1549 C1565 1.429 . S
C1549 H1571 0.950 . S
C1550 H1546 0.949 . S
C1550 C1558 1.574 . S
C1550 C1566 1.368 . S
H1551 C1559 0.950 . S
H1552 C1557 0.950 . S
H1553 C1558 0.949 . S
H1554 C1560 0.950 . S
H1555 C1561 0.950 . S
H1556 C1562 0.949 . S
C1557 H1552 0.950 . S
C1557 C1559 1.327 . S
C1557 C1563 1.429 . S
C1558 C1550 1.574 . S
C1558 H1553 0.949 . S
C1558 C1564 1.368 . S
C1559 C1543 1.349 . S
C1559 H1551 0.950 . S
C1559 C1557 1.327 . S
C1560 C1548 1.349 . S
C1560 H1554 0.950 . S
C1560 C1561 1.327 . S
C1561 H1555 0.950 . S
C1561 C1560 1.327 . S
C1561 C1565 1.429 . S
C1562 C1545 1.574 . S
C1562 H1556 0.949 . S
C1562 C1566 1.368 . S
C1563 C1544 1.429 . S
C1563 C1557 1.429 . S
C1563 C1564 1.523 . S
C1564 C1545 1.368 . S
C1564 C1558 1.368 . S
C1564 C1563 1.523 . S
C1565 C1549 1.429 . S
C1565 C1561 1.429 . S
C1565 C1566 1.523 . S
C1566 C1550 1.368 . S
C1566 C1562 1.368 . S
C1566 C1565 1.523 . S
H1567 C1542 0.950 . S
H1568 C1544 0.950 . S
H1569 C1545 0.949 . S
H1570 C1547 0.950 . S
H1571 C1549 0.950 . S
C1572 C1573 1.349 . S
C1572 C1574 1.327 1_656 S
C1572 H1597 0.950 1_556 S
C1573 C1572 1.349 . S
C1573 C1589 1.349 . S
C1574 C1572 1.327 1_454 S
C1574 C1593 1.440 . S
C1574 H1598 0.950 . S
C1575 C1592 1.574 . S
C1575 C1594 1.368 . S
C1575 H1599 0.949 1_554 S
H1576 C1580 0.949 . S
C1577 C1578 1.349 . S
C1577 C1579 1.327 . S
C1577 H1600 0.950 . S
C1578 C1577 1.349 . S
C1578 C1590 1.349 . S
C1579 C1577 1.327 . S
C1579 C1595 1.429 . S
C1579 H1601 0.950 . S
C1580 H1576 0.949 . S
C1580 C1588 1.574 . S
C1580 C1596 1.368 . S
H1581 C1589 0.950 . S
H1582 C1587 0.950 . S
H1583 C1588 0.949 . S
H1584 C1590 0.950 . S
H1585 C1591 0.950 . S
H1586 C1592 0.949 . S
C1587 H1582 0.950 . S
C1587 C1589 1.327 1_455 S
C1587 C1593 1.397 1_556 S
C1588 C1580 1.574 . S
C1588 H1583 0.949 . S
C1588 C1594 1.368 . S
C1589 C1573 1.349 . S
C1589 H1581 0.950 . S
C1589 C1587 1.327 1_655 S
C1590 C1578 1.349 . S
C1590 H1584 0.950 . S
C1590 C1591 1.327 . S
C1591 H1585 0.950 . S
C1591 C1590 1.327 . S
C1591 C1595 1.429 . S
C1592 C1575 1.574 . S
C1592 H1586 0.949 . S
C1592 C1596 1.368 . S
C1593 C1574 1.440 . S
C1593 C1587 1.397 1_554 S
C1593 C1594 1.542 . S
C1594 C1575 1.368 . S
C1594 C1588 1.368 . S
C1594 C1593 1.542 . S
C1595 C1579 1.429 . S
C1595 C1591 1.429 . S
C1595 C1596 1.523 . S
C1596 C1580 1.368 . S
C1596 C1592 1.368 . S
C1596 C1595 1.523 . S
H1597 C1572 0.950 1_554 S
H1598 C1574 0.950 . S
H1599 C1575 0.949 1_556 S
H1600 C1577 0.950 . S
H1601 C1579 0.950 . S
C1602 C1603 1.349 . S
C1602 C1604 1.327 . S
C1602 H1627 0.950 . S
C1603 C1602 1.349 . S
C1603 C1619 1.349 . S
C1604 C1602 1.327 . S
C1604 C1623 1.429 . S
C1604 H1628 0.950 . S
C1605 C1622 1.574 . S
C1605 C1624 1.368 . S
C1605 H1629 0.949 . S
H1606 C1610 0.949 . S
C1607 C1608 1.349 . S
C1607 C1609 1.327 . S
C1607 H1630 0.950 . S
C1608 C1607 1.349 . S
C1608 C1620 1.349 . S
C1609 C1607 1.327 . S
C1609 C1625 1.429 . S
C1609 H1631 0.950 . S
C1610 H1606 0.949 . S
C1610 C1618 1.574 . S
C1610 C1626 1.368 . S
H1611 C1619 0.950 . S
H1612 C1617 0.950 . S
H1613 C1618 0.949 . S
H1614 C1620 0.950 . S
H1615 C1621 0.950 . S
H1616 C1622 0.949 . S
C1617 H1612 0.950 . S
C1617 C1619 1.327 . S
C1617 C1623 1.429 . S
C1618 C1610 1.574 . S
C1618 H1613 0.949 . S
C1618 C1624 1.368 . S
C1619 C1603 1.349 . S
C1619 H1611 0.950 . S
C1619 C1617 1.327 . S
C1620 C1608 1.349 . S
C1620 H1614 0.950 . S
C1620 C1621 1.327 . S
C1621 H1615 0.950 . S
C1621 C1620 1.327 . S
C1621 C1625 1.429 . S
C1622 C1605 1.574 . S
C1622 H1616 0.949 . S
C1622 C1626 1.368 . S
C1623 C1604 1.429 . S
C1623 C1617 1.429 . S
C1623 C1624 1.523 . S
C1624 C1605 1.368 . S
C1624 C1618 1.368 . S
C1624 C1623 1.523 . S
C1625 C1609 1.429 . S
C1625 C1621 1.429 . S
C1625 C1626 1.523 . S
C1626 C1610 1.368 . S
C1626 C1622 1.368 . S
C1626 C1625 1.523 . S
H1627 C1602 0.950 . S
H1628 C1604 0.950 . S
H1629 C1605 0.949 . S
H1630 C1607 0.950 . S
H1631 C1609 0.950 . S
C1632 C1633 1.349 . S
C1632 C1634 1.327 . S
C1632 H1657 0.950 . S
C1633 C1632 1.349 . S
C1633 C1649 1.349 . S
C1634 C1632 1.327 . S
C1634 C1653 1.429 . S
C1634 H1658 0.950 . S
C1635 C1652 1.574 . S
C1635 C1654 1.368 . S
C1635 H1659 0.949 . S
H1636 C1640 0.949 . S
C1637 C1638 1.349 . S
C1637 C1639 1.327 . S
C1637 H1660 0.950 . S
C1638 C1637 1.349 . S
C1638 C1650 1.349 . S
C1639 C1637 1.327 . S
C1639 C1655 1.429 . S
C1639 H1661 0.950 . S
C1640 H1636 0.949 . S
C1640 C1648 1.574 . S
C1640 C1656 1.368 . S
H1641 C1649 0.950 . S
H1642 C1647 0.950 . S
H1643 C1648 0.949 . S
H1644 C1650 0.950 . S
H1645 C1651 0.950 . S
H1646 C1652 0.949 . S
C1647 H1642 0.950 . S
C1647 C1649 1.327 . S
C1647 C1653 1.429 . S
C1648 C1640 1.574 . S
C1648 H1643 0.949 . S
C1648 C1654 1.368 . S
C1649 C1633 1.349 . S
C1649 H1641 0.950 . S
C1649 C1647 1.327 . S
C1650 C1638 1.349 . S
C1650 H1644 0.950 . S
C1650 C1651 1.327 . S
C1651 H1645 0.950 . S
C1651 C1650 1.327 . S
C1651 C1655 1.429 . S
C1652 C1635 1.574 . S
C1652 H1646 0.949 . S
C1652 C1656 1.368 . S
C1653 C1634 1.429 . S
C1653 C1647 1.429 . S
C1653 C1654 1.523 . S
C1654 C1635 1.368 . S
C1654 C1648 1.368 . S
C1654 C1653 1.523 . S
C1655 C1639 1.429 . S
C1655 C1651 1.429 . S
C1655 C1656 1.523 . S
C1656 C1640 1.368 . S
C1656 C1652 1.368 . S
C1656 C1655 1.523 . S
H1657 C1632 0.950 . S
H1658 C1634 0.950 . S
H1659 C1635 0.949 . S
H1660 C1637 0.950 . S
H1661 C1639 0.950 . S
C1662 C1663 1.349 . S
C1662 C1664 1.327 . S
C1662 H1687 0.950 . S
C1663 C1662 1.349 . S
C1663 C1679 1.349 . S
C1664 C1662 1.327 . S
C1664 C1683 1.429 . S
C1664 H1688 0.950 . S
C1665 C1682 1.574 . S
C1665 C1684 1.368 . S
C1665 H1689 0.949 . S
H1666 C1670 0.949 . S
C1667 C1668 1.349 . S
C1667 C1669 1.327 . S
C1667 H1690 0.950 . S
C1668 C1667 1.349 . S
C1668 C1680 1.349 . S
C1669 C1667 1.327 . S
C1669 C1685 1.429 . S
C1669 H1691 0.950 . S
C1670 H1666 0.949 . S
C1670 C1678 1.574 . S
C1670 C1686 1.368 . S
H1671 C1679 0.950 . S
H1672 C1677 0.950 . S
H1673 C1678 0.949 . S
H1674 C1680 0.950 . S
H1675 C1681 0.950 . S
H1676 C1682 0.949 . S
C1677 H1672 0.950 . S
C1677 C1679 1.327 . S
C1677 C1683 1.429 . S
C1678 C1670 1.574 . S
C1678 H1673 0.949 . S
C1678 C1684 1.368 . S
C1679 C1663 1.349 . S
C1679 H1671 0.950 . S
C1679 C1677 1.327 . S
C1680 C1668 1.349 . S
C1680 H1674 0.950 . S
C1680 C1681 1.327 . S
C1681 H1675 0.950 . S
C1681 C1680 1.327 . S
C1681 C1685 1.429 . S
C1682 C1665 1.574 . S
C1682 H1676 0.949 . S
C1682 C1686 1.368 . S
C1683 C1664 1.429 . S
C1683 C1677 1.429 . S
C1683 C1684 1.523 . S
C1684 C1665 1.368 . S
C1684 C1678 1.368 . S
C1684 C1683 1.523 . S
C1685 C1669 1.429 . S
C1685 C1681 1.429 . S
C1685 C1686 1.523 . S
C1686 C1670 1.368 . S
C1686 C1682 1.368 . S
C1686 C1685 1.523 . S
H1687 C1662 0.950 . S
H1688 C1664 0.950 . S
H1689 C1665 0.949 . S
H1690 C1667 0.950 . S
H1691 C1669 0.950 . S
C1692 C1693 1.327 1_556 S
C1692 C1694 1.338 . S
C1692 H1717 0.961 . S
C1693 C1692 1.327 1_554 S
C1693 C1709 1.349 . S
C1694 C1692 1.338 . S
C1694 C1713 1.447 . S
C1694 H1718 0.950 . S
C1695 C1712 1.557 1_554 S
C1695 C1714 1.347 1_554 S
C1695 H1719 0.984 . S
H1696 C1700 0.949 . S
C1697 C1698 1.349 . S
C1697 C1699 1.327 . S
C1697 H1720 0.950 . S
C1698 C1697 1.349 . S
C1698 C1710 1.349 . S
C1699 C1697 1.327 . S
C1699 C1715 1.429 . S
C1699 H1721 0.950 . S
C1700 H1696 0.949 . S
C1700 C1708 1.574 . S
C1700 C1716 1.368 . S
H1701 C1709 0.950 . S
H1702 C1707 0.950 . S
H1703 C1708 0.949 . S
H1704 C1710 0.950 . S
H1705 C1711 0.950 . S
H1706 C1712 0.949 . S
C1707 H1702 0.950 . S
C1707 C1709 1.327 . S
C1707 C1713 1.390 1_554 S
C1708 C1700 1.574 . S
C1708 H1703 0.949 . S
C1708 C1714 1.368 . S
C1709 C1693 1.349 . S
C1709 H1701 0.950 . S
C1709 C1707 1.327 . S
C1710 C1698 1.349 . S
C1710 H1704 0.950 . S
C1710 C1711 1.327 . S
C1711 H1705 0.950 . S
C1711 C1710 1.327 . S
C1711 C1715 1.429 . S
C1712 C1695 1.557 1_556 S
C1712 H1706 0.949 . S
C1712 C1716 1.368 . S
C1713 C1694 1.447 . S
C1713 C1707 1.390 1_556 S
C1713 C1714 1.542 . S
C1714 C1695 1.347 1_556 S
C1714 C1708 1.368 . S
C1714 C1713 1.542 . S
C1715 C1699 1.429 . S
C1715 C1711 1.429 . S
C1715 C1716 1.523 . S
C1716 C1700 1.368 . S
C1716 C1712 1.368 . S
C1716 C1715 1.523 . S
H1717 C1692 0.961 . S
H1718 C1694 0.950 . S
H1719 C1695 0.984 . S
H1720 C1697 0.950 . S
H1721 C1699 0.950 . S
C1722 C1723 1.349 . S
C1722 C1724 1.327 . S
C1722 H1747 0.950 . S
C1723 C1722 1.349 . S
C1723 C1739 1.349 . S
C1724 C1722 1.327 . S
C1724 C1743 1.429 . S
C1724 H1748 0.950 . S
C1725 C1742 1.574 . S
C1725 C1744 1.368 . S
C1725 H1749 0.949 . S
H1726 C1730 0.949 . S
C1727 C1728 1.349 . S
C1727 C1729 1.327 1_455 S
C1727 H1750 0.950 . S
C1728 C1727 1.349 . S
C1728 C1740 1.349 . S
C1729 C1727 1.327 1_655 S
C1729 C1745 1.429 . S
C1729 H1751 0.950 . S
C1730 H1726 0.949 . S
C1730 C1738 1.574 . S
C1730 C1746 1.368 . S
H1731 C1739 0.950 . S
H1732 C1737 0.950 . S
H1733 C1738 0.949 . S
H1734 C1740 0.950 . S
H1735 C1741 0.951 . S
H1736 C1742 0.949 . S
C1737 H1732 0.950 . S
C1737 C1739 1.327 . S
C1737 C1743 1.429 . S
C1738 C1730 1.574 . S
C1738 H1733 0.949 . S
C1738 C1744 1.368 . S
C1739 C1723 1.349 . S
C1739 H1731 0.950 . S
C1739 C1737 1.327 . S
C1740 C1728 1.349 . S
C1740 H1734 0.950 . S
C1740 C1741 1.321 1_455 S
C1741 H1735 0.951 . S
C1741 C1740 1.321 1_655 S
C1741 C1745 1.433 . S
C1742 C1725 1.574 . S
C1742 H1736 0.949 . S
C1742 C1746 1.368 . S
C1743 C1724 1.429 . S
C1743 C1737 1.429 . S
C1743 C1744 1.523 . S
C1744 C1725 1.368 . S
C1744 C1738 1.368 . S
C1744 C1743 1.523 . S
C1745 C1729 1.429 . S
C1745 C1741 1.433 . S
C1745 C1746 1.523 . S
C1746 C1730 1.368 . S
C1746 C1742 1.368 . S
C1746 C1745 1.523 . S
H1747 C1722 0.950 . S
H1748 C1724 0.950 . S
H1749 C1725 0.949 . S
H1750 C1727 0.950 . S
H1751 C1729 0.950 . S
C313 C117 0.987 . S
C318 C0 0.987 . S
C343 C13 0.987 . S
C348 C130 0.987 . S
C373 C26 0.987 . S
C378 C143 0.987 . S
C403 C39 0.987 . S
C408 C104 0.987 . S
C433 C52 0.987 . S
C438 C195 0.987 . S
C463 C156 0.987 . S
C468 C65 0.987 . S
C493 C78 0.987 . S
C498 C169 0.987 . S
C523 C182 0.987 . S
C528 C91 0.987 . S
C553 C208 0.987 . S
C558 C234 0.987 . S
C583 C286 0.987 . S
C588 C221 0.987 . S
C613 C247 0.987 . S
C618 C299 0.987 . S
C643 C273 0.987 . S
C648 C260 0.987 . S
C673 C268 1.513 . S
C678 C8 1.513 . S
C703 C21 1.513 . S
C708 C229 1.513 . S
C733 C34 1.513 . S
C738 C242 1.513 . S
C763 C47 1.513 . S
C768 C255 1.513 . S
C793 C60 1.513 . S
C798 C307 1.513 . S
C823 C281 1.513 . S
C828 C73 1.513 . S
C853 C294 1.513 . S
C858 C86 1.513 . S
C883 C216 1.513 . S
C888 C99 1.513 . S
C913 C203 1.513 . S
C918 C112 1.513 . S
C943 C125 1.513 . S
C948 C164 1.513 . S
C973 C177 1.513 . S
C978 C138 1.513 . S
C1003 C190 1.513 . S
C1008 C151 1.513 . S
C1033 C5 0.727 . S
C1038 C218 0.703 . S
C1063 C309 0.703 . S
C1068 C18 0.727 . S
C1093 C283 0.703 . S
C1098 C31 0.727 . S
C1123 C44 0.727 . S
C1128 C296 0.703 . S
C1153 C57 0.727 . S
C1158 C231 0.703 . S
C1183 C244 0.703 . S
C1188 C70 0.727 . S
C1213 C257 0.703 . S
C1218 C83 0.727 . S
C1243 C270 0.703 . S
C1248 C96 0.727 . S
C1273 C10 0.703 . S
C1278 C109 0.727 . S
C1303 C23 0.703 . S
C1308 C122 0.727 . S
C1333 C36 0.703 . S
C1338 C135 0.727 . S
C1363 C49 0.703 . S
C1368 C148 0.727 . S
C1393 C62 0.703 . S
C1398 C161 0.727 . S
C1423 C75 0.703 . S
C1428 C174 0.727 . S
C1453 C187 0.727 . S
C1458 C88 0.703 . S
C1483 C101 0.703 . S
C1488 C200 0.727 . S
C1513 C114 0.703 . S
C1518 C213 0.727 . S
C1543 C226 0.727 . S
C1548 C166 0.703 . S
C1573 C179 0.703 . S
C1578 C239 0.727 . S
C1603 C252 0.727 . S
C1608 C192 0.703 . S
C1633 C265 0.727 . S
C1638 C205 0.703 . S
C1663 C278 0.727 . S
C1668 C140 0.703 . S
C1693 C153 0.703 . S
C1698 C291 0.727 . S
C1723 C304 0.727 . S
C1728 C127 0.703 . S
