# Generated by pormake.
# Topology smc, (6)-cn, num edge types: 1
# Building blocks:
#     Node 0, Type 0, BuildingBlock: GEDQOX_clean_sbu_0, # of connection points: 6
#     Node 1, Type 0, BuildingBlock: GEDQOX_clean_sbu_0, # of connection points: 6
#     Node 2, Type 0, BuildingBlock: GEDQOX_clean_sbu_0, # of connection points: 6
#     Node 3, Type 0, BuildingBlock: GEDQOX_clean_sbu_0, # of connection points: 6
#     Node 4, Type 0, BuildingBlock: GEDQOX_clean_sbu_0, # of connection points: 6
#     Node 5, Type 0, BuildingBlock: GEDQOX_clean_sbu_0, # of connection points: 6
#     Node 6, Type 0, BuildingBlock: GEDQOX_clean_sbu_0, # of connection points: 6
#     Node 7, Type 0, BuildingBlock: GEDQOX_clean_sbu_0, # of connection points: 6
#     Node 8, Type 0, BuildingBlock: GEDQOX_clean_sbu_0, # of connection points: 6
#     Edge 9, Type (0, 0), BuildingBlock: TEMPAE_clean_linker_10, # of connection points: 2
#     Edge 10, Type (0, 0), BuildingBlock: TEMPAE_clean_linker_10, # of connection points: 2
#     Edge 11, Type (0, 0), BuildingBlock: TEMPAE_clean_linker_10, # of connection points: 2
#     Edge 12, Type (0, 0), BuildingBlock: TEMPAE_clean_linker_10, # of connection points: 2
#     Edge 13, Type (0, 0), BuildingBlock: TEMPAE_clean_linker_10, # of connection points: 2
#     Edge 14, Type (0, 0), BuildingBlock: TEMPAE_clean_linker_10, # of connection points: 2
#     Edge 15, Type (0, 0), BuildingBlock: TEMPAE_clean_linker_10, # of connection points: 2
#     Edge 16, Type (0, 0), BuildingBlock: TEMPAE_clean_linker_10, # of connection points: 2
#     Edge 17, Type (0, 0), BuildingBlock: TEMPAE_clean_linker_10, # of connection points: 2
#     Edge 18, Type (0, 0), BuildingBlock: TEMPAE_clean_linker_10, # of connection points: 2
#     Edge 19, Type (0, 0), BuildingBlock: TEMPAE_clean_linker_10, # of connection points: 2
#     Edge 20, Type (0, 0), BuildingBlock: TEMPAE_clean_linker_10, # of connection points: 2
#     Edge 21, Type (0, 0), BuildingBlock: TEMPAE_clean_linker_10, # of connection points: 2
#     Edge 22, Type (0, 0), BuildingBlock: TEMPAE_clean_linker_10, # of connection points: 2
#     Edge 23, Type (0, 0), BuildingBlock: TEMPAE_clean_linker_10, # of connection points: 2
#     Edge 24, Type (0, 0), BuildingBlock: TEMPAE_clean_linker_10, # of connection points: 2
#     Edge 25, Type (0, 0), BuildingBlock: TEMPAE_clean_linker_10, # of connection points: 2
#     Edge 26, Type (0, 0), BuildingBlock: TEMPAE_clean_linker_10, # of connection points: 2
#     Edge 27, Type (0, 0), BuildingBlock: TEMPAE_clean_linker_10, # of connection points: 2
#     Edge 28, Type (0, 0), BuildingBlock: TEMPAE_clean_linker_10, # of connection points: 2
#     Edge 29, Type (0, 0), BuildingBlock: TEMPAE_clean_linker_10, # of connection points: 2
#     Edge 30, Type (0, 0), BuildingBlock: TEMPAE_clean_linker_10, # of connection points: 2
#     Edge 31, Type (0, 0), BuildingBlock: TEMPAE_clean_linker_10, # of connection points: 2
#     Edge 32, Type (0, 0), BuildingBlock: TEMPAE_clean_linker_10, # of connection points: 2
#     Edge 33, Type (0, 0), BuildingBlock: TEMPAE_clean_linker_10, # of connection points: 2
#     Edge 34, Type (0, 0), BuildingBlock: TEMPAE_clean_linker_10, # of connection points: 2
#     Edge 35, Type (0, 0), BuildingBlock: TEMPAE_clean_linker_10, # of connection points: 2
# Relax obj value: 0.163
# Max RMSD: 0.309
# Mean RMSD: 0.309
data_MOF--net-smc--node1-GEDQOX_clean_sbu_0--edge1-TEMPAE_clean_linker_10
_symmetry_space_group_name_H-M    P1
_symmetry_Int_Tables_number       1
_symmetry_cell_setting            triclinic
loop_
_symmetry_equiv_pos_as_xyz
'x, y, z'
_cell_length_a     40.136527
_cell_length_b     40.185205
_cell_length_c     39.498076
_cell_angle_alpha  90.108421
_cell_angle_beta   89.735443
_cell_angle_gamma 120.19474
loop_
_atom_site_label
_atom_site_type_symbol
_atom_site_fract_x
_atom_site_fract_y
_atom_site_fract_z
_atom_type_partial_charge
Nd0 Nd 0.06243 0.43117 1.02266 0.0
Nd1 Nd 1.00858 0.46039 0.02851 0.0
C2 C 0.11191 0.40618 0.02838 0.0
C3 C 0.15465 0.42615 0.0308 0.0
C4 C 0.1747 0.45095 0.05789 0.0
C5 C 0.21516 0.47183 0.05815 0.0
C6 C 0.23648 0.4687 0.03118 0.0
C7 C 0.21634 0.4434 1.00445 0.0
C8 C 0.17599 0.42231 1.00434 0.0
C9 C 0.03598 0.43651 0.9597 0.0
C10 C 0.09904 0.52224 1.01706 0.0
C11 C 0.96971 0.49795 0.02826 0.0
C12 C 0.93712 0.5057 0.02703 0.0
C13 C 0.93339 0.52512 0.99904 0.0
C14 C 0.90711 0.53845 0.99961 0.0
C15 C 0.88391 0.53295 0.0283 0.0
C16 C 0.88679 0.51238 0.05592 0.0
C17 C 0.91312 0.49905 0.05534 0.0
C18 C 0.03492 0.44706 0.08914 0.0
C19 C 0.96826 0.3697 0.0277 0.0
O20 O 0.09267 0.40869 0.05417 0.0
O21 O 0.09839 0.40964 0.99941 0.0
O22 O 0.07199 0.4507 0.9675 0.0
O23 O 1.01555 0.42504 0.98634 0.0
O24 O 0.10594 0.49574 0.02886 0.0
O25 O 0.06382 0.51359 1.0093 0.0
O26 O 0.98373 0.4914 1.00071 0.0
O27 O 0.97556 0.48315 0.05543 0.0
O28 O 0.99897 0.4355 0.08316 0.0
O29 O 0.05494 0.4645 0.06369 0.0
O30 O 0.96357 0.39852 1.01841 0.0
O31 O 1.00305 0.37537 0.0354 0.0
H32 H 0.1592 0.45482 0.07861 0.0
H33 H 0.22974 0.49114 0.07908 0.0
H34 H 0.23182 0.43977 0.98357 0.0
H35 H 0.16139 0.40341 0.98317 0.0
H36 H 0.95174 0.53117 0.97701 0.0
H37 H 0.90531 0.55349 0.97761 0.0
H38 H 0.86972 0.50779 0.07858 0.0
H39 H 0.91557 0.48471 0.07758 0.0
Nd40 Nd 0.61773 0.63866 1.02187 0.0
Nd41 Nd 0.58563 0.55427 0.03346 0.0
C42 C 0.6396 0.71261 0.02699 0.0
C43 C 0.61778 0.73358 1.02525 0.0
C44 C 0.58335 0.72077 0.04379 0.0
C45 C 0.56314 0.74081 0.04251 0.0
C46 C 0.57649 0.77403 1.02241 0.0
C47 C 0.61056 0.78645 1.0034 0.0
C48 C 0.63101 0.76654 1.00492 0.0
C49 C 0.60425 0.59906 0.96117 0.0
C50 C 0.52513 0.58072 1.0204 0.0
C51 C 0.55977 0.47946 0.03622 0.0
C52 C 0.5447 0.4372 0.03675 0.0
C53 C 0.52388 0.41421 1.00903 0.0
C54 C 0.50744 0.37412 1.01007 0.0
C55 C 0.51118 0.35575 0.03892 0.0
C56 C 0.5325 0.37888 0.06651 0.0
C57 C 0.54905 0.41908 0.06543 0.0
C58 C 0.59146 0.59828 0.0904 0.0
C59 C 0.67931 0.60714 0.02642 0.0
O60 O 0.63227 0.68996 0.05312 0.0
O61 O 0.64327 0.69733 0.99891 0.0
O62 O 0.59459 0.62484 0.96742 0.0
O63 O 0.61717 0.59256 0.98798 0.0
O64 O 0.55227 0.61438 0.03196 0.0
O65 O 0.53421 0.55504 1.0109 0.0
O66 O 0.55208 0.49592 1.01128 0.0
O67 O 0.58235 0.50319 0.05962 0.0
O68 O 0.56082 0.56558 0.08379 0.0
O69 O 0.61584 0.6058 0.06763 0.0
O70 O 0.64895 0.57205 0.02652 0.0
O71 O 0.6759 0.6385 0.02627 0.0
H72 H 0.57195 0.69519 0.05943 0.0
H73 H 0.5368 0.73006 0.05711 0.0
H74 H 0.62189 0.81207 0.98786 0.0
H75 H 0.65732 0.77703 0.9903 0.0
H76 H 0.52 0.42717 0.98649 0.0
H77 H 0.49197 0.35753 0.98805 0.0
H78 H 0.53578 0.36587 0.0893 0.0
H79 H 0.56466 0.43589 0.08731 0.0
Nd80 Nd 0.40598 0.98468 1.0184 0.0
Nd81 Nd 0.49194 0.04268 0.0385 0.0
C82 C 0.33131 0.93488 1.01178 0.0
C83 C 0.30804 0.89261 1.01462 0.0
C84 C 0.32118 0.87207 0.03373 0.0
C85 C 0.30013 0.8318 0.03466 0.0
C86 C 0.26556 0.81122 1.0164 0.0
C87 C 0.25246 0.83203 0.99744 0.0
C88 C 0.27354 0.87232 0.99655 0.0
C89 C 0.45304 0.021 0.96338 0.0
C90 C 0.46616 0.95292 1.02428 0.0
C91 C 0.56705 0.08973 0.03697 0.0
C92 C 0.60942 0.11616 0.03594 0.0
C93 C 0.63174 0.11392 1.00947 0.0
C94 C 0.67185 0.13817 1.00893 0.0
C95 C 0.6907 0.16519 0.03493 0.0
C96 C 0.66821 0.16736 0.06139 0.0
C97 C 0.62809 0.14321 0.06185 0.0
C98 C 0.44805 1.00287 0.09598 0.0
C99 C 0.43484 0.07776 0.03167 0.0
O100 O 0.34668 0.95383 0.03969 0.0
O101 O 0.35527 0.94785 0.98623 0.0
O102 O 0.42972 0.98415 0.96597 0.0
O103 O 0.45477 0.0367 0.99178 0.0
O104 O 0.42959 0.94335 0.02849 0.0
O105 O 0.49355 0.98922 1.02121 0.0
O106 O 0.54936 0.06076 1.0159 0.0
O107 O 0.54448 0.09393 0.05858 0.0
O108 O 0.48423 0.0291 0.09737 0.0
O109 O 0.43876 0.99973 0.06547 0.0
O110 O 0.47074 0.08514 0.03301 0.0
O111 O 0.4049 0.04209 0.02818 0.0
H112 H 0.34794 0.88718 0.04768 0.0
H113 H 0.31085 0.81677 0.04981 0.0
H114 H 0.22629 0.81715 0.98269 0.0
H115 H 0.26319 0.88764 0.98132 0.0
H116 H 0.61822 0.09344 0.98908 0.0
H117 H 0.68805 0.13604 0.98787 0.0
H118 H 0.68166 0.18739 0.0821 0.0
H119 H 0.61175 0.14545 0.08274 0.0
Nd120 Nd 0.72331 0.76965 0.35292 0.0
Nd121 Nd 0.66973 0.79767 0.36929 0.0
C122 C 0.77313 0.74454 0.35148 0.0
C123 C 0.81557 0.76329 0.35482 0.0
C124 C 0.8369 0.79877 0.37154 0.0
C125 C 0.8773 0.81745 0.3726 0.0
C126 C 0.89738 0.80124 0.35673 0.0
C127 C 0.87571 0.76559 0.34008 0.0
C128 C 0.83534 0.7469 0.33916 0.0
C129 C 0.68498 0.77258 0.29522 0.0
C130 C 0.75837 0.86132 0.35032 0.0
C131 C 0.63007 0.83405 0.37495 0.0
C132 C 0.59712 0.84075 0.37076 0.0
C133 C 0.59193 0.85587 0.34043 0.0
C134 C 0.56527 0.86864 0.33866 0.0
C135 C 0.54322 0.86677 0.36719 0.0
C136 C 0.54755 0.85044 0.39716 0.0
C137 C 0.57423 0.83774 0.39894 0.0
C138 C 0.7039 0.78603 0.42533 0.0
C139 C 0.63049 0.70663 0.36555 0.0
O140 O 0.75349 0.74305 0.37856 0.0
O141 O 0.76099 0.75368 0.32439 0.0
O142 O 0.7217 0.7852 0.297 0.0
O143 O 0.67074 0.76236 0.32452 0.0
O144 O 0.76741 0.83457 0.35612 0.0
O145 O 0.72208 0.8522 0.34883 0.0
O146 O 0.65213 0.83795 0.349 0.0
O147 O 0.62865 0.80965 0.39759 0.0
O148 O 0.66812 0.77704 0.42406 0.0
O149 O 0.72086 0.80205 0.39809 0.0
O150 O 0.62473 0.73557 0.35937 0.0
O151 O 0.66616 0.71258 0.36857 0.0
H152 H 0.82237 0.8123 0.38344 0.0
H153 H 0.89277 0.84456 0.38598 0.0
H154 H 0.88997 0.75245 0.32704 0.0
H155 H 0.81955 0.71987 0.32568 0.0
H156 H 0.60937 0.85907 0.31833 0.0
H157 H 0.5623 0.88049 0.31501 0.0
H158 H 0.53143 0.84888 0.41975 0.0
H159 H 0.57805 0.82699 0.42288 0.0
Nd160 Nd 0.28054 0.97533 0.3561 0.0
Nd161 Nd 0.24629 0.88657 0.37201 0.0
C162 C 0.30667 0.05013 0.35592 0.0
C163 C 0.28707 0.0727 0.35184 0.0
C164 C 0.29202 0.10005 0.37641 0.0
C165 C 0.27074 0.1189 0.37488 0.0
C166 C 0.24412 0.11087 0.34864 0.0
C167 C 0.23978 0.08402 0.32366 0.0
C168 C 0.26086 0.06496 0.32533 0.0
C169 C 0.26891 0.93165 0.29868 0.0
C170 C 0.18712 0.91751 0.3571 0.0
C171 C 0.21827 0.81167 0.37221 0.0
C172 C 0.20304 0.76955 0.3731 0.0
C173 C 0.17592 0.74497 0.34923 0.0
C174 C 0.16079 0.70506 0.35094 0.0
C175 C 0.17228 0.68877 0.37669 0.0
C176 C 0.19937 0.71355 0.40059 0.0
C177 C 0.21461 0.75338 0.39875 0.0
C178 C 0.25285 0.92939 0.43071 0.0
C179 C 0.33993 0.94137 0.36604 0.0
O180 O 0.29823 0.02979 0.38373 0.0
O181 O 0.30832 0.03148 0.32932 0.0
O182 O 0.25742 0.95649 0.30269 0.0
O183 O 0.2804 0.92624 0.32697 0.0
O184 O 0.21531 0.95297 0.36357 0.0
O185 O 0.1934 0.88852 0.35319 0.0
O186 O 0.20543 0.82816 0.35143 0.0
O187 O 0.24651 0.83532 0.39199 0.0
O188 O 0.23929 0.89257 0.43135 0.0
O189 O 0.26012 0.93911 0.40053 0.0
O190 O 0.30975 0.90627 0.36394 0.0
O191 O 0.33661 0.97275 0.36688 0.0
H192 H 0.31182 0.10629 0.39721 0.0
H193 H 0.27516 0.13983 0.39425 0.0
H194 H 0.21933 0.07698 0.30328 0.0
H195 H 0.25596 0.04357 0.30627 0.0
H196 H 0.16639 0.75656 0.32919 0.0
H197 H 0.14047 0.68704 0.33177 0.0
H198 H 0.20852 0.70216 0.42107 0.0
H199 H 0.23518 0.77147 0.41775 0.0
Nd200 Nd 0.07664 0.3213 0.35459 0.0
Nd201 Nd 0.15817 0.37437 0.36761 0.0
C202 C 1.00138 0.27257 0.35462 0.0
C203 C 0.97847 0.23007 0.35627 0.0
C204 C 0.99074 0.20907 0.37588 0.0
C205 C 0.97054 0.16877 0.37516 0.0
C206 C 0.93815 0.14866 0.35425 0.0
C207 C 0.92595 0.16972 0.33464 0.0
C208 C 0.94584 0.21003 0.33575 0.0
C209 C 0.11541 0.35467 0.29486 0.0
C210 C 0.13208 0.2854 0.35092 0.0
C211 C 0.23448 0.41268 0.37196 0.0
C212 C 0.27499 0.44472 0.36955 0.0
C213 C 0.29655 0.45108 0.33964 0.0
C214 C 0.3364 0.47689 0.33924 0.0
C215 C 0.3557 0.49681 0.36877 0.0
C216 C 0.33389 0.49113 0.39841 0.0
C217 C 0.2941 0.46536 0.3988 0.0
C218 C 0.11408 0.34208 0.42545 0.0
C219 C 0.1085 0.41458 0.36632 0.0
O220 O 1.02047 0.29069 0.38179 0.0
O221 O 1.02163 0.28658 0.32701 0.0
O222 O 0.09241 0.31806 0.29922 0.0
O223 O 0.12068 0.37185 0.32299 0.0
O224 O 0.09644 0.27657 0.35786 0.0
O225 O 0.15931 0.32152 0.34791 0.0
O226 O 0.2159 0.39373 0.34489 0.0
O227 O 0.21189 0.41215 0.39615 0.0
O228 O 0.14009 0.37806 0.42253 0.0
O229 O 0.11244 0.32424 0.39865 0.0
O230 O 0.14264 0.42015 0.35785 0.0
O231 O 0.07886 0.37908 0.371 0.0
H232 H 1.0164 0.22375 0.39122 0.0
H233 H 0.98084 0.15335 0.39029 0.0
H234 H 0.90089 0.15498 0.3185 0.0
H235 H 0.93614 0.2256 0.3201 0.0
H236 H 0.28287 0.43528 0.31676 0.0
H237 H 0.35218 0.48098 0.31584 0.0
H238 H 0.34777 0.50559 0.42172 0.0
H239 H 0.27855 0.46053 0.42246 0.0
Nd240 Nd 0.38936 0.10127 0.69293 0.0
Nd241 Nd 0.33783 0.13242 0.70846 0.0
C242 C 0.43853 0.07553 0.68798 0.0
C243 C 0.48136 0.09385 0.6871 0.0
C244 C 0.5044 0.11555 0.71442 0.0
C245 C 0.54473 0.13365 0.7126 0.0
C246 C 0.56334 0.13115 0.68312 0.0
C247 C 0.54006 0.10946 0.65574 0.0
C248 C 0.49972 0.09091 0.65782 0.0
C249 C 0.35129 0.10424 0.63569 0.0
C250 C 0.42584 0.19265 0.68725 0.0
C251 C 0.30036 0.17135 0.70963 0.0
C252 C 0.26829 0.1794 0.7146 0.0
C253 C 0.23497 0.1619 0.69444 0.0
C254 C 0.20801 0.17443 0.69591 0.0
C255 C 0.21384 0.20499 0.71735 0.0
C256 C 0.24663 0.22158 0.73822 0.0
C257 C 0.27345 0.20897 0.73684 0.0
C258 C 0.3725 0.12164 0.76474 0.0
C259 C 0.29693 0.04139 0.71493 0.0
O260 O 0.42194 0.07589 0.71651 0.0
O261 O 0.42303 0.08234 0.66189 0.0
O262 O 0.38824 0.11854 0.638 0.0
O263 O 0.33659 0.09389 0.66496 0.0
O264 O 0.43429 0.16613 0.69593 0.0
O265 O 0.38975 0.18333 0.68318 0.0
O266 O 0.30004 0.15076 0.6838 0.0
O267 O 0.32001 0.17007 0.73539 0.0
O268 O 0.33695 0.11395 0.76417 0.0
O269 O 0.38881 0.13599 0.73681 0.0
O270 O 0.2909 0.07052 0.71179 0.0
O271 O 0.33203 0.04577 0.71102 0.0
H272 H 0.49134 0.11883 0.73716 0.0
H273 H 0.56122 0.14936 0.73456 0.0
H274 H 0.5529 0.10721 0.63232 0.0
H275 H 0.48281 0.07464 0.6362 0.0
H276 H 0.23031 0.13937 0.67672 0.0
H277 H 0.18334 0.16113 0.67923 0.0
H278 H 0.25188 0.24475 0.75539 0.0
H279 H 0.29903 0.22334 0.75241 0.0
Nd280 Nd 0.94496 0.30617 0.69397 0.0
Nd281 Nd 0.91852 0.21606 0.69734 0.0
C282 C 0.95584 0.37372 0.7141 0.0
C283 C 0.93935 0.39874 0.70769 0.0
C284 C 0.91939 0.40477 0.73403 0.0
C285 C 0.9012 0.42609 0.72861 0.0
C286 C 0.90302 0.44257 0.69678 0.0
C287 C 0.92359 0.43703 0.67047 0.0
C288 C 0.94148 0.41521 0.67582 0.0
C289 C 0.94681 0.28075 0.62946 0.0
C290 C 0.85334 0.24266 0.68389 0.0
C291 C 0.88553 0.14108 0.68705 0.0
C292 C 0.87882 0.10209 0.69427 0.0
C293 C 0.88291 0.08091 0.66793 0.0
C294 C 0.86977 0.04165 0.67189 0.0
C295 C 0.85202 0.02263 0.70226 0.0
C296 C 0.8494 0.04423 0.72914 0.0
C297 C 0.86265 0.08356 0.7252 0.0
C298 C 0.93736 0.25553 0.75796 0.0
C299 C 1.0091 0.27674 0.69842 0.0
O300 O 0.93245 0.34116 0.72915 0.0
O301 O 0.97704 0.37021 0.69054 0.0
O302 O 0.95401 0.31537 0.63645 0.0
O303 O 0.93628 0.26055 0.65622 0.0
O304 O 0.87971 0.27966 0.68473 0.0
O305 O 0.86181 0.21504 0.68683 0.0
O306 O 0.91648 0.16608 0.67046 0.0
O307 O 0.873 0.1568 0.70895 0.0
O308 O 0.94148 0.22576 0.75293 0.0
O309 O 0.92057 0.25999 0.73302 0.0
O310 O 0.98255 0.24212 0.68834 0.0
O311 O 1.0011 0.30417 0.70708 0.0
H312 H 0.91725 0.3923 0.75883 0.0
H313 H 0.88515 0.4291 0.74933 0.0
H314 H 0.92611 0.44978 0.64578 0.0
H315 H 0.95666 0.41104 0.65501 0.0
H316 H 0.89468 0.09433 0.64366 0.0
H317 H 0.87195 0.02584 0.65058 0.0
H318 H 0.83645 0.03057 0.75304 0.0
H319 H 0.85889 0.09903 0.74595 0.0
Nd320 Nd 0.74044 0.65474 0.68752 0.0
Nd321 Nd 0.82462 0.70675 0.69986 0.0
C322 C 0.6656 0.60489 0.68742 0.0
C323 C 0.64387 0.56215 0.68641 0.0
C324 C 0.61846 0.54097 0.7128 0.0
C325 C 0.5991 0.50061 0.71263 0.0
C326 C 0.60455 0.48053 0.68591 0.0
C327 C 0.62999 0.50182 0.65953 0.0
C328 C 0.64949 0.54207 0.65981 0.0
C329 C 0.78017 0.68995 0.62874 0.0
C330 C 0.79473 0.61931 0.67693 0.0
C331 C 0.90116 0.74372 0.69788 0.0
C332 C 0.9417 0.77293 0.70593 0.0
C333 C 0.95662 0.81239 0.69984 0.0
C334 C 0.99628 0.83856 0.70303 0.0
C335 C 1.02208 0.82592 0.71212 0.0
C336 C 1.00675 0.78651 0.7191 0.0
C337 C 0.96715 0.76045 0.71603 0.0
C338 C 0.78094 0.67419 0.75778 0.0
C339 C 0.77334 0.74619 0.70888 0.0
O340 O 0.68469 0.62088 0.71516 0.0
O341 O 0.6851 0.62247 0.66019 0.0
O342 O 0.75541 0.65347 0.63172 0.0
O343 O 0.78573 0.70607 0.65742 0.0
O344 O 0.76092 0.61086 0.68934 0.0
O345 O 0.8208 0.65539 0.67096 0.0
O346 O 0.88027 0.75305 0.67915 0.0
O347 O 0.88081 0.71511 0.71859 0.0
O348 O 0.80962 0.70934 0.75622 0.0
O349 O 0.77786 0.65717 0.73009 0.0
O350 O 0.80883 0.75289 0.70555 0.0
O351 O 0.7426 0.71134 0.70513 0.0
H352 H 0.61371 0.55567 0.73366 0.0
H353 H 0.57942 0.4851 0.7332 0.0
H354 H 0.63525 0.48735 0.63879 0.0
H355 H 0.66923 0.55739 0.63923 0.0
H356 H 0.93782 0.82293 0.69184 0.0
H357 H 1.00676 0.86873 0.69805 0.0
H358 H 0.02549 0.77543 0.72574 0.0
H359 H 0.95658 0.73012 0.72037 0.0
C360 C 0.45563 0.53122 1.01291 0.0
C361 C 0.48355 0.56932 1.02094 0.0
C362 C 0.41608 0.51829 1.01517 0.0
C363 C 0.40363 0.54408 1.02534 0.0
C364 C 0.43153 0.58285 0.03284 0.0
C365 C 0.47119 0.59498 0.03077 0.0
C366 C 0.38755 0.47667 1.00712 0.0
C367 C 0.41946 0.61138 0.04332 0.0
C368 C 0.29956 0.50955 1.00088 0.0
C369 C 0.27955 0.49148 0.03076 0.0
C370 C 0.34008 0.52879 0.99933 0.0
C371 C 0.3613 0.52973 0.02824 0.0
C372 C 0.34134 0.51283 0.05885 0.0
C373 C 0.30079 0.4941 0.05978 0.0
C374 C 0.36007 0.54675 0.96629 0.0
C375 C 0.36267 0.51277 0.09019 0.0
H376 H 0.46459 0.51095 1.00538 0.0
H377 H 0.49245 0.62444 0.03703 0.0
H378 H 0.36891 0.46247 0.02947 0.0
H379 H 0.36849 0.47496 0.98613 0.0
H380 H 0.40191 0.46023 0.99974 0.0
H381 H 0.44454 0.64079 0.04695 0.0
H382 H 0.40023 0.61262 1.0239 0.0
H383 H 0.40282 0.6019 0.06734 0.0
H384 H 0.28345 0.5083 0.9785 0.0
H385 H 0.28561 0.4801 0.08292 0.0
H386 H 0.37272 0.53004 0.95548 0.0
H387 H 0.38408 0.57656 0.97054 0.0
H388 H 0.34003 0.54749 0.9474 0.0
H389 H 0.37561 0.49436 0.08587 0.0
H390 H 0.34348 0.50176 0.11274 0.0
H391 H 0.3866 0.54226 0.09571 0.0
C392 C 0.45167 0.88365 1.02091 0.0
C393 C 0.47827 0.92323 1.02356 0.0
C394 C 0.46413 0.85637 1.01992 0.0
C395 C 0.50407 0.86886 1.02206 0.0
C396 C 0.53084 0.90871 1.02499 0.0
C397 C 0.51772 0.93518 1.02555 0.0
C398 C 0.43462 0.81421 1.01642 0.0
C399 C 0.5736 0.92357 0.02774 0.0
C400 C 0.54176 0.80355 0.05212 0.0
C401 C 0.5554 0.79603 1.0219 0.0
C402 C 0.5236 0.82581 0.05237 0.0
C403 C 0.51846 0.84079 1.02162 0.0
C404 C 0.53092 0.83214 0.99088 0.0
C405 C 0.54943 0.81018 0.99141 0.0
C406 C 0.51142 0.83469 0.08581 0.0
C407 C 0.52572 0.84705 0.95744 0.0
H408 H 0.42118 0.87401 1.0193 0.0
H409 H 0.53875 0.96555 0.02787 0.0
H410 H 0.4409 0.80232 0.99346 0.0
H411 H 0.43625 0.79802 0.03846 0.0
H412 H 0.40477 0.80907 1.01464 0.0
H413 H 0.59067 0.95541 0.03027 0.0
H414 H 0.57942 0.91053 0.05003 0.0
H415 H 0.58391 0.91512 1.005 0.0
H416 H 0.54646 0.79309 0.07586 0.0
H417 H 0.5593 0.8041 0.96787 0.0
H418 H 0.48097 0.82771 0.08469 0.0
H419 H 0.52929 0.86594 0.09122 0.0
H420 H 0.51456 0.81848 0.10712 0.0
H421 H 0.49545 0.84028 0.95467 0.0
H422 H 0.53327 0.83464 0.93558 0.0
H423 H 0.54429 0.87884 0.95659 0.0
C424 C 0.26255 0.74711 1.01477 0.0
C425 C 0.24342 0.76826 1.01685 0.0
C426 C 0.24193 0.70661 1.01469 0.0
C427 C 0.20118 0.68668 1.01686 0.0
C428 C 0.18173 0.70784 1.01917 0.0
C429 C 0.20304 0.74828 1.01908 0.0
C430 C 0.26373 0.68515 1.01186 0.0
C431 C 0.13833 0.68775 1.02182 0.0
C432 C 0.13874 0.5837 0.98591 0.0
C433 C 0.12955 0.563 1.01627 0.0
C434 C 0.16381 0.62377 0.98551 0.0
C435 C 0.17864 0.64369 1.01643 0.0
C436 C 0.16983 0.62263 0.04713 0.0
C437 C 0.1458 0.58237 0.04659 0.0
C438 C 0.17335 0.64492 0.95215 0.0
C439 C 0.1841 0.64277 0.0807 0.0
H440 H 0.2937 0.76225 1.01257 0.0
H441 H 0.18803 0.76431 1.02118 0.0
H442 H 0.25708 0.66574 0.03393 0.0
H443 H 0.25443 0.66682 0.98885 0.0
H444 H 0.29542 0.70487 1.01056 0.0
H445 H 0.12764 0.70835 1.02411 0.0
H446 H 0.1251 0.66958 0.99913 0.0
H447 H 0.12829 0.66839 0.04418 0.0
H448 H 0.12583 0.56855 0.96255 0.0
H449 H 0.13797 0.56626 0.07012 0.0
H450 H 0.20498 0.66414 0.94956 0.0
H451 H 0.16004 0.66331 0.95121 0.0
H452 H 0.16281 0.62491 0.93022 0.0
H453 H 0.21587 0.66174 0.08009 0.0
H454 H 0.17631 0.62215 0.10205 0.0
H455 H 0.17148 0.66135 0.08565 0.0
C456 C 0.45016 0.13863 1.00349 0.0
C457 C 0.43057 0.11222 0.02962 0.0
C458 C 0.45832 0.1769 1.00547 0.0
C459 C 0.44647 0.18929 0.0343 0.0
C460 C 0.42426 0.16204 0.05975 0.0
C461 C 0.41676 0.12377 0.05722 0.0
C462 C 0.48212 0.20482 0.97782 0.0
C463 C 0.41076 0.17394 0.09074 0.0
C464 C 0.51272 0.29565 0.05458 0.0
C465 C 0.49315 0.31277 0.03997 0.0
C466 C 0.49702 0.25545 0.05422 0.0
C467 C 0.46074 0.23143 0.03886 0.0
C468 C 0.44031 0.24837 1.02492 0.0
C469 C 0.45669 0.28869 0.02565 0.0
C470 C 0.52012 0.2388 0.06905 0.0
C471 C 0.40161 0.22398 1.00834 0.0
H472 H 0.4614 0.12996 0.98241 0.0
H473 H 0.40248 0.10376 0.07787 0.0
H474 H 0.4667 0.21889 0.96732 0.0
H475 H 0.50979 0.22783 0.98835 0.0
H476 H 0.48868 0.19064 0.95688 0.0
H477 H 0.38944 0.14869 0.10569 0.0
H478 H 0.43584 0.1921 0.10714 0.0
H479 H 0.39763 0.19146 0.08349 0.0
H480 H 0.54104 0.31378 0.06536 0.0
H481 H 0.44088 0.30138 1.01483 0.0
H482 H 0.52895 0.22583 0.04859 0.0
H483 H 0.50225 0.21554 0.08729 0.0
H484 H 0.54644 0.26089 0.08221 0.0
H485 H 0.40511 0.21047 0.9851 0.0
H486 H 0.38787 0.24104 1.0013 0.0
H487 H 0.38193 0.20034 1.02555 0.0
C488 C 0.75807 0.17776 1.02364 0.0
C489 C 0.7335 0.19126 0.03429 0.0
C490 C 0.79833 0.20233 1.02232 0.0
C491 C 0.81459 0.2414 0.03197 0.0
C492 C 0.79001 0.25509 0.04307 0.0
C493 C 0.74992 0.22997 0.04404 0.0
C494 C 0.82345 0.18665 1.01014 0.0
C495 C 0.80601 0.29662 0.05326 0.0
C496 C 0.92011 0.30772 0.05528 0.0
C497 C 0.93363 0.33104 0.02644 0.0
C498 C 0.88188 0.27659 0.05677 0.0
C499 C 0.85697 0.26882 0.02873 0.0
C500 C 0.87179 0.29054 0.99862 0.0
C501 C 0.90981 0.32144 0.99796 0.0
C502 C 0.86732 0.25398 0.08923 0.0
C503 C 0.84669 0.28326 0.96795 0.0
H504 H 0.74583 0.14782 1.01647 0.0
H505 H 0.73132 0.24096 0.05176 0.0
H506 H 0.83911 0.20202 0.98683 0.0
H507 H 0.84546 0.19173 0.0295 0.0
H508 H 0.80654 0.15533 1.00459 0.0
H509 H 0.78325 0.30237 0.06267 0.0
H510 H 0.82794 0.30455 0.07338 0.0
H511 H 0.82056 0.31568 0.03125 0.0
H512 H 0.93835 0.31551 0.07746 0.0
H513 H 0.92032 0.33963 0.97564 0.0
H514 H 0.85058 0.22265 0.08388 0.0
H515 H 0.84766 0.26187 0.10215 0.0
H516 H 0.89122 0.25978 0.10676 0.0
H517 H 0.82993 0.25207 0.96206 0.0
H518 H 0.86385 0.29889 0.94523 0.0
H519 H 0.82575 0.29298 0.97329 0.0
C520 C 0.82071 0.52846 0.04433 0.0
C521 C 0.85753 0.5493 0.0296 0.0
C522 C 0.79533 0.54308 0.04484 0.0
C523 C 0.80681 0.57955 0.03025 0.0
C524 C 0.84425 0.60117 1.01611 0.0
C525 C 0.86908 0.58587 1.01597 0.0
C526 C 0.75564 0.51886 0.06006 0.0
C527 C 0.85779 0.64012 1.00036 0.0
C528 C 0.72323 0.58952 0.99771 0.0
C529 C 0.71722 0.60934 1.02409 0.0
C530 C 0.75349 0.58154 0.99865 0.0
C531 C 0.77828 0.59312 0.02701 0.0
C532 C 0.7736 0.61492 0.05302 0.0
C533 C 0.74308 0.62284 0.05124 0.0
C534 C 0.75747 0.55862 0.97017 0.0
C535 C 0.79923 0.62773 0.08376 0.0
H536 H 0.81122 0.50011 0.05469 0.0
H537 H 0.89769 0.60269 1.00515 0.0
H538 H 0.74994 0.53586 0.07898 0.0
H539 H 0.73355 0.51013 0.03997 0.0
H540 H 0.75203 0.49248 0.07253 0.0
H541 H 0.88858 0.65455 0.99259 0.0
H542 H 0.84014 0.63689 0.97772 0.0
H543 H 0.85384 0.65904 1.01843 0.0
H544 H 0.70295 0.57849 0.97699 0.0
H545 H 0.73795 0.63729 0.0721 0.0
H546 H 0.75204 0.53042 0.97989 0.0
H547 H 0.78725 0.57401 0.95985 0.0
H548 H 0.73707 0.55326 0.94922 0.0
H549 H 0.79258 0.60225 0.09949 0.0
H550 H 0.79518 0.64835 0.09954 0.0
H551 H 0.82998 0.64139 0.07614 0.0
C552 C 0.96298 0.86168 0.35378 0.0
C553 C 0.94063 0.82144 0.35717 0.0
C554 C 1.00361 0.88082 0.35359 0.0
C555 C 1.02264 0.85934 0.35682 0.0
C556 C 1.00029 0.81878 0.36038 0.0
C557 C 0.95977 0.80043 0.36056 0.0
C558 C 0.02619 0.92402 0.34953 0.0
C559 C 1.01922 0.79465 0.36404 0.0
C560 C 0.12581 0.89684 0.32593 0.0
C561 C 0.14662 0.90863 0.3562 0.0
C562 C 0.08579 0.88268 0.3255 0.0
C563 C 0.06585 0.87896 0.3563 0.0
C564 C 0.08708 0.89167 0.38687 0.0
C565 C 0.12727 0.90668 0.38638 0.0
C566 C 0.06463 0.87035 0.29224 0.0
C567 C 0.06709 0.88764 0.42033 0.0
H568 H 0.94872 0.87829 0.35064 0.0
H569 H 0.94303 0.76947 0.36373 0.0
H570 H 0.04584 0.93732 0.37135 0.0
H571 H 0.04441 0.93176 0.32641 0.0
H572 H 1.0072 0.93665 0.34766 0.0
H573 H 0.99787 0.76351 0.36687 0.0
H574 H 0.03746 0.79851 0.34153 0.0
H575 H 0.0384 0.80428 0.38645 0.0
H576 H 0.14078 0.89798 0.30265 0.0
H577 H 0.14332 0.91511 0.40989 0.0
H578 H 0.04614 0.88336 0.28906 0.0
H579 H 0.04546 0.83863 0.29201 0.0
H580 H 0.08467 0.87869 0.27029 0.0
H581 H 0.0489 0.90115 0.41898 0.0
H582 H 0.08783 0.90096 0.44149 0.0
H583 H 0.04772 0.85668 0.42613 0.0
C584 C 0.11673 0.21659 0.34389 0.0
C585 C 0.14357 0.25563 0.34925 0.0
C586 C 0.12864 0.18902 0.3425 0.0
C587 C 0.16809 0.2008 0.34726 0.0
C588 C 0.19504 0.2401 0.35308 0.0
C589 C 0.18253 0.26691 0.35373 0.0
C590 C 0.09919 0.14742 0.3358 0.0
C591 C 0.23724 0.25393 0.3589 0.0
C592 C 0.2043 0.13497 0.37716 0.0
C593 C 0.221 0.13045 0.34751 0.0
C594 C 0.18473 0.15574 0.37702 0.0
C595 C 0.18188 0.17257 0.3465 0.0
C596 C 0.19712 0.16658 0.31616 0.0
C597 C 0.21646 0.14557 0.31702 0.0
C598 C 0.16888 0.16134 0.40992 0.0
C599 C 0.19485 0.18413 0.28311 0.0
H600 H 0.08661 0.2077 0.34042 0.0
H601 H 0.2035 0.29691 0.35835 0.0
H602 H 0.10712 0.13749 0.31251 0.0
H603 H 0.09888 0.12913 0.35695 0.0
H604 H 0.06969 0.14288 0.33272 0.0
H605 H 0.2544 0.28546 0.36345 0.0
H606 H 0.24053 0.23893 0.38107 0.0
H607 H 0.24955 0.24697 0.33662 0.0
H608 H 0.20702 0.12269 0.40068 0.0
H609 H 0.22939 0.14232 0.29403 0.0
H610 H 0.1388 0.15496 0.40657 0.0
H611 H 0.18629 0.19185 0.41797 0.0
H612 H 0.16941 0.1428 0.43049 0.0
H613 H 0.16511 0.17838 0.27884 0.0
H614 H 0.20366 0.17289 0.2612 0.0
H615 H 0.21407 0.21583 0.28413 0.0
C616 C 0.90606 0.08404 0.38273 0.0
C617 C 0.9171 0.10584 0.35283 0.0
C618 C 0.88376 0.04363 0.38176 0.0
C619 C 0.87271 0.02449 0.35011 0.0
C620 C 0.88545 0.04631 0.31984 0.0
C621 C 0.90717 0.08671 0.32156 0.0
C622 C 0.87036 0.0216 0.41464 0.0
C623 C 0.87488 0.02707 0.28559 0.0
C624 C 0.82791 0.91499 0.3491 0.0
C625 C 0.78843 0.90276 0.34827 0.0
C626 C 0.8559 0.95453 0.34909 0.0
C627 C 0.84406 0.98237 0.34872 0.0
C628 C 0.8043 0.97009 0.34756 0.0
C629 C 0.77714 0.93064 0.34712 0.0
C630 C 0.89806 0.96651 0.34983 0.0
C631 C 0.79026 0.99865 0.34746 0.0
H632 H 0.91356 0.09871 0.40695 0.0
H633 H 0.91621 0.10342 0.29838 0.0
H634 H 0.83865 1.00857 0.41708 0.0
H635 H 0.87668 0.99773 0.41492 0.0
H636 H 0.88418 0.04029 0.437 0.0
H637 H 0.89081 0.04753 0.2647 0.0
H638 H 0.88096 1.00304 0.28456 0.0
H639 H 0.84354 1.01464 0.28128 0.0
H640 H 0.83695 0.89373 0.35 0.0
H641 H 0.74678 0.92173 0.34658 0.0
H642 H 0.91137 0.98273 0.37341 0.0
H643 H 0.91341 0.98607 0.32829 0.0
H644 H 0.90261 0.94146 0.34852 0.0
H645 H 0.80053 0.01688 0.37049 0.0
H646 H 0.75832 0.98437 0.34665 0.0
H647 H 0.80225 0.01806 0.32525 0.0
C648 C 0.11802 0.62007 0.37048 0.0
C649 C 0.15673 0.64628 0.3783 0.0
C650 C 0.10372 0.58009 0.37041 0.0
C651 C 0.12857 0.56586 0.37861 0.0
C652 C 0.16728 0.59207 0.38762 0.0
C653 C 0.1809 0.63182 0.38714 0.0
C654 C 0.06244 0.55318 0.36027 0.0
C655 C 0.19489 0.57824 0.39649 0.0
C656 C 0.0935 0.45999 0.39741 0.0
C657 C 0.10445 0.44912 0.36756 0.0
C658 C 0.09961 0.49762 0.40115 0.0
C659 C 0.11587 0.52425 0.37399 0.0
C660 C 0.12416 0.51217 0.34302 0.0
C661 C 0.11949 0.47533 0.34063 0.0
C662 C 0.09151 0.50971 0.43492 0.0
C663 C 0.14058 0.53903 0.31303 0.0
H664 H 0.09886 0.63078 0.36418 0.0
H665 H 0.21097 0.65164 0.39272 0.0
H666 H 0.0618 0.53908 0.3359 0.0
H667 H 0.04771 0.53007 0.37941 0.0
H668 H 0.04595 0.56841 0.35727 0.0
H669 H 0.22264 0.60177 0.40649 0.0
H670 H 0.18179 0.55492 0.41565 0.0
H671 H 0.20107 0.56617 0.37361 0.0
H672 H 0.08302 0.4402 0.41865 0.0
H673 H 0.12961 0.46784 0.31808 0.0
H674 H 0.07585 0.52566 0.43155 0.0
H675 H 0.11924 0.52948 0.44754 0.0
H676 H 0.0744 0.4847 0.45187 0.0
H677 H 0.12365 0.55343 0.30817 0.0
H678 H 0.1408 0.52374 0.28964 0.0
H679 H 0.17063 0.56182 0.31852 0.0
C680 C 0.42288 0.51277 0.35197 0.0
C681 C 0.39844 0.523 0.36888 0.0
C682 C 0.46312 0.5376 0.35144 0.0
C683 C 0.4794 0.57366 0.36805 0.0
C684 C 0.45495 0.58372 0.38582 0.0
C685 C 0.41491 0.55834 0.38603 0.0
C686 C 0.48812 0.52568 0.33238 0.0
C687 C 0.47095 0.62203 0.4036 0.0
C688 C 0.58611 0.6398 0.3878 0.0
C689 C 0.59631 0.66773 0.36258 0.0
C690 C 0.54866 0.60719 0.38873 0.0
C691 C 0.52119 0.60284 0.36395 0.0
C692 C 0.53273 0.62951 0.33695 0.0
C693 C 0.57002 0.66151 0.33667 0.0
C694 C 0.53773 0.57894 0.41751 0.0
C695 C 0.50482 0.62619 0.30979 0.0
H696 H 0.41054 0.48524 0.33915 0.0
H697 H 0.39635 0.56671 0.39891 0.0
H698 H 0.50122 0.54461 0.31003 0.0
H699 H 0.51211 0.52911 0.34866 0.0
H700 H 0.47157 0.49537 0.32353 0.0
H701 H 0.44849 0.62448 0.41808 0.0
H702 H 0.49418 0.62631 0.42127 0.0
H703 H 0.48384 0.64566 0.38469 0.0
H704 H 0.60632 0.64469 0.40795 0.0
H705 H 0.57796 0.68305 0.317 0.0
H706 H 0.52071 0.54892 0.40812 0.0
H707 H 0.51938 0.5835 0.43585 0.0
H708 H 0.56348 0.58241 0.43107 0.0
H709 H 0.51951 0.6466 0.28856 0.0
H710 H 0.48307 0.63238 0.32094 0.0
H711 H 0.48913 0.59655 0.29942 0.0
C712 C 0.40551 0.95879 0.38755 0.0
C713 C 0.3777 0.94381 0.36202 0.0
C714 C 0.43623 0.95116 0.3877 0.0
C715 C 0.43885 0.92797 0.3618 0.0
C716 C 0.41225 0.9153 0.33473 0.0
C717 C 0.38207 0.92334 0.33524 0.0
C718 C 0.46429 0.96569 0.41675 0.0
C719 C 0.41378 0.89073 0.30646 0.0
C720 C 0.52784 0.91791 0.34966 0.0
C721 C 0.51672 0.88282 0.36609 0.0
C722 C 0.5033 0.93349 0.34872 0.0
C723 C 0.46662 0.91354 0.36452 0.0
C724 C 0.45534 0.87827 0.38135 0.0
C725 C 0.48046 0.86342 0.38196 0.0
C726 C 0.51647 0.97114 0.33057 0.0
C727 C 0.41632 0.85574 0.39818 0.0
H728 H 0.40182 0.97414 0.40849 0.0
H729 H 0.3604 0.91163 0.31552 0.0
H730 H 0.45877 0.9412 0.43338 0.0
H731 H 0.49433 0.97864 0.40725 0.0
H732 H 0.46168 0.98742 0.43218 0.0
H733 H 0.39381 0.88698 0.28549 0.0
H734 H 0.44341 0.9036 0.29603 0.0
H735 H 0.40572 0.86186 0.31654 0.0
H736 H 0.55601 0.9335 0.33779 0.0
H737 H 0.47136 0.83614 0.3944 0.0
H738 H 0.51497 0.99208 0.34793 0.0
H739 H 0.49699 0.96664 0.30903 0.0
H740 H 0.5464 0.98389 0.32072 0.0
H741 H 0.4124 0.87407 0.41695 0.0
H742 H 0.41244 0.82955 0.41125 0.0
H743 H 0.3933 0.84686 0.37896 0.0
C744 C 0.79685 0.24551 0.65927 0.0
C745 C 0.8118 0.23059 0.68296 0.0
C746 C 0.75678 0.23149 0.65752 0.0
C747 C 0.73137 0.20296 0.68081 0.0
C748 C 0.74679 0.18906 0.70555 0.0
C749 C 0.78656 0.2025 0.7059 0.0
C750 C 0.74151 0.2463 0.63013 0.0
C751 C 0.72124 0.15968 0.73161 0.0
C752 C 0.63009 0.18594 0.69777 0.0
C753 C 0.60663 0.15079 0.68105 0.0
C754 C 0.67062 0.2037 0.69727 0.0
C755 C 0.68856 0.18654 0.679 0.0
C756 C 0.66524 0.15186 0.6611 0.0
C757 C 0.62479 0.13427 0.66265 0.0
C758 C 0.6942 0.24027 0.71721 0.0
C759 C 0.68301 0.13272 0.64091 0.0
H760 H 0.81629 0.26706 0.6414 0.0
H761 H 0.79811 0.1912 0.7245 0.0
H762 H 0.72202 0.22217 0.61333 0.0
H763 H 0.72428 0.2581 0.64144 0.0
H764 H 0.76497 0.26904 0.6145 0.0
H765 H 0.73802 0.15384 0.75057 0.0
H766 H 0.70371 0.16986 0.74511 0.0
H767 H 0.70094 0.13222 0.71892 0.0
H768 H 0.61684 0.1997 0.71144 0.0
H769 H 0.60743 0.10694 0.65 0.0
H770 H 0.71592 0.26321 0.70058 0.0
H771 H 0.71017 0.23513 0.73747 0.0
H772 H 0.6761 0.25084 0.72905 0.0
H773 H 0.70575 0.15389 0.62374 0.0
H774 H 0.66134 0.10824 0.62556 0.0
H775 H 0.69695 0.12177 0.6583 0.0
C776 C 0.8649 0.46326 0.66081 0.0
C777 C 0.88371 0.46559 0.69138 0.0
C778 C 0.84698 0.48521 0.65553 0.0
C779 C 0.84766 0.50987 0.6815 0.0
C780 C 0.8659 0.51177 0.71261 0.0
C781 C 0.8839 0.4899 0.71706 0.0
C782 C 0.8279 0.4825 0.62199 0.0
C783 C 0.8672 0.53763 0.74101 0.0
C784 C 0.84299 0.59973 0.66217 0.0
C785 C 0.80572 0.58933 0.67328 0.0
C786 C 0.85633 0.57353 0.66328 0.0
C787 C 0.83176 0.53582 0.67562 0.0
C788 C 0.79336 0.52438 0.68506 0.0
C789 C 0.78078 0.55132 0.68383 0.0
C790 C 0.89746 0.58692 0.65295 0.0
C791 C 0.7662 0.48432 0.69811 0.0
H792 H 0.86397 0.44412 0.64102 0.0
H793 H 0.89884 0.49247 0.74056 0.0
H794 H 0.79763 0.47532 0.62607 0.0
H795 H 0.84305 0.5108 0.60897 0.0
H796 H 0.82807 0.46048 0.60507 0.0
H797 H 0.8805 0.53407 0.76432 0.0
H798 H 0.88405 0.56817 0.73287 0.0
H799 H 0.83766 0.53146 0.74727 0.0
H800 H 0.86247 0.62894 0.65378 0.0
H801 H 0.7519 0.54297 0.69236 0.0
H802 H 0.89844 0.56645 0.63467 0.0
H803 H 0.91425 0.58777 0.67551 0.0
H804 H 0.9118 0.61605 0.64132 0.0
H805 H 0.76649 0.46243 0.68115 0.0
H806 H 0.73613 0.47849 0.70039 0.0
H807 H 0.77587 0.48078 0.72343 0.0
C808 C 0.56653 0.41771 0.65501 0.0
C809 C 0.5833 0.43757 0.68517 0.0
C810 C 0.54466 0.37729 0.65423 0.0
C811 C 0.5393 0.35602 0.68433 0.0
C812 C 0.5574 0.37581 0.71455 0.0
C813 C 0.57906 0.41629 0.71463 0.0
C814 C 0.52579 0.35744 0.62148 0.0
C815 C 0.55254 0.35431 0.74719 0.0
C816 C 0.44465 0.26167 0.69172 0.0
C817 C 0.45571 0.2341 0.68587 0.0
C818 C 0.47167 0.30114 0.69178 0.0
C819 C 0.51093 0.31379 0.68511 0.0
C820 C 0.52245 0.28619 0.67897 0.0
C821 C 0.49472 0.24655 0.67985 0.0
C822 C 0.4581 0.32935 0.69916 0.0
C823 C 0.56392 0.29858 0.67119 0.0
H824 H 0.56938 0.43386 0.63217 0.0
H825 H 0.59248 0.43135 0.73789 0.0
H826 H 0.53137 0.33353 0.61627 0.0
H827 H 0.49411 0.34474 0.62367 0.0
H828 H 0.53619 0.37755 0.5996 0.0
H829 H 0.57158 0.37345 0.76754 0.0
H830 H 0.52218 0.34095 0.75594 0.0
H831 H 0.55887 0.33072 0.74313 0.0
H832 H 0.41468 0.25237 0.69697 0.0
H833 H 0.50344 0.22539 0.67536 0.0
H834 H 0.46434 0.3488 0.67719 0.0
H835 H 0.47391 0.34757 0.72119 0.0
H836 H 0.4267 0.31476 0.70471 0.0
H837 H 0.57332 0.31654 0.64794 0.0
H838 H 0.56834 0.27367 0.6674 0.0
H839 H 0.58275 0.31661 0.69209 0.0
C840 C 0.78834 0.80455 0.74124 0.0
C841 C 0.76936 0.78021 0.7139 0.0
C842 C 0.79628 0.84274 0.74147 0.0
C843 C 0.78573 0.85707 0.71324 0.0
C844 C 0.76409 0.83169 0.68663 0.0
C845 C 0.75601 0.79334 0.68736 0.0
C846 C 0.81898 0.86858 0.77053 0.0
C847 C 0.75257 0.84581 0.65595 0.0
C848 C 0.79851 0.95737 0.72024 0.0
C849 C 0.83496 0.98019 0.7053 0.0
C850 C 0.78172 0.91717 0.72254 0.0
C851 C 0.80186 0.89936 0.70966 0.0
C852 C 0.83856 0.92221 0.6944 0.0
C853 C 0.85463 0.96228 0.69243 0.0
C854 C 0.74251 0.89376 0.73882 0.0
C855 C 0.86112 0.90438 0.68047 0.0
H856 H 0.79918 0.79437 0.76145 0.0
H857 H 0.74224 0.7747 0.6658 0.0
H858 H 0.84889 0.88884 0.76201 0.0
H859 H 0.80617 0.88604 0.77907 0.0
H860 H 0.82024 0.85195 0.79244 0.0
H861 H 0.73081 0.82162 0.64038 0.0
H862 H 0.74076 0.86446 0.66353 0.0
H863 H 0.77839 0.86337 0.63994 0.0
H864 H 0.78282 0.97091 0.72972 0.0
H865 H 0.88292 0.97971 0.68115 0.0
H866 H 0.74456 0.87836 0.76128 0.0
H867 H 0.7223 0.8716 0.72085 0.0
H868 H 0.7302 0.91186 0.7469 0.0
H869 H 0.86763 0.88987 0.70113 0.0
H870 H 0.88871 0.92601 0.66849 0.0
H871 H 0.8437 0.88213 0.66137 0.0
C872 C 0.08274 0.88315 0.6894 0.0
C873 C 0.06479 0.85341 0.71335 0.0
C874 C 0.12257 0.90975 0.69059 0.0
C875 C 0.14547 0.90662 0.71622 0.0
C876 C 0.12788 0.87593 0.73977 0.0
C877 C 0.08786 0.84989 0.73818 0.0
C878 C 0.13994 0.94201 0.66496 0.0
C879 C 0.15113 0.8713 0.76736 0.0
C880 C 0.25457 0.97034 0.70303 0.0
C881 C 0.26188 1.0034 0.72106 0.0
C882 C 0.21717 0.93751 0.70262 0.0
C883 C 0.18659 0.938 0.7205 0.0
C884 C 0.19475 0.97046 0.74051 0.0
C885 C 0.23212 1.00249 0.74061 0.0
C886 C 0.20993 0.90331 0.68137 0.0
C887 C 0.16339 0.9726 0.75999 0.0
H888 H 0.06561 0.88575 0.66957 0.0
H889 H 0.07453 0.8273 0.757 0.0
H890 H 0.15083 0.97005 0.67803 0.0
H891 H 0.16488 0.94264 0.65209 0.0
H892 H 0.11882 0.93921 0.64546 0.0
H893 H 0.13431 0.84364 0.78119 0.0
H894 H 0.17739 0.87275 0.75653 0.0
H895 H 0.16074 0.89524 0.78579 0.0
H896 H 0.27727 0.97101 0.68755 0.0
H897 H 0.23764 0.02795 0.75471 0.0
H898 H 0.19434 0.90268 0.65804 0.0
H899 H 0.19152 0.87605 0.69527 0.0
H900 H 0.23722 0.9045 0.67387 0.0
H901 H 0.14255 0.97321 0.74198 0.0
H902 H 0.17497 0.99863 0.77627 0.0
H903 H 0.14721 0.94677 0.77619 0.0
C904 C 0.1467 0.1955 0.715 0.0
C905 C 0.18671 0.22045 0.71701 0.0
C906 C 0.12103 0.20974 0.71353 0.0
C907 C 0.13551 0.25004 0.71387 0.0
C908 C 0.17581 0.27539 0.7163 0.0
C909 C 0.20083 0.26035 0.71789 0.0
C910 C 0.0783 0.18155 0.71118 0.0
C911 C 0.19258 0.31846 0.71636 0.0
C912 C 0.06696 0.27835 0.67415 0.0
C913 C 0.04806 0.28204 0.70258 0.0
C914 C 0.09726 0.27056 0.67753 0.0
C915 C 0.10839 0.26532 0.71021 0.0
C916 C 0.09087 0.27132 0.73909 0.0
C917 C 0.06093 0.27969 0.73492 0.0
C918 C 0.11526 0.26506 0.64595 0.0
C919 C 0.10161 0.26597 0.77439 0.0
H920 H 0.13535 0.16468 0.71474 0.0
H921 H 0.23166 0.28001 0.71895 0.0
H922 H 0.06282 0.18681 0.73196 0.0
H923 H 0.06704 0.18576 0.68694 0.0
H924 H 0.07148 0.15115 0.7126 0.0
H925 H 0.22432 0.33432 0.71996 0.0
H926 H 0.18602 0.32763 0.692 0.0
H927 H 0.17918 0.32685 0.73678 0.0
H928 H 0.05653 0.2794 0.64913 0.0
H929 H 0.0456 0.28139 0.75693 0.0
H930 H 0.10371 0.23384 0.64173 0.0
H931 H 0.14698 0.2789 0.64864 0.0
H932 H 0.10891 0.27711 0.62322 0.0
H933 H 0.09104 0.23497 0.77883 0.0
H934 H 0.08897 0.2762 0.79405 0.0
H935 H 0.13339 0.28158 0.77738 0.0
C936 C 0.11071 0.35584 0.23123 0.0
C937 C 0.1118 0.3723 0.26288 0.0
C938 C 0.101 0.36866 0.20155 0.0
C939 C 0.09155 0.39825 0.2036 0.0
C940 C 0.09349 0.41544 0.23542 0.0
C941 C 0.10341 0.40219 0.26446 0.0
C942 C 0.0993 0.34944 0.16825 0.0
C943 C 0.08354 0.44688 0.23908 0.0
C944 C 0.0891 0.4521 0.12461 0.0
C945 C 0.04939 0.43457 0.11832 0.0
C946 C 0.10331 0.44033 0.15188 0.0
C947 C 0.07729 0.40977 0.17317 0.0
C948 C 0.03718 0.39148 0.16644 0.0
C949 C 1.02374 0.40431 0.13936 0.0
C950 C 0.14618 0.46088 0.15814 0.0
C951 C 1.00834 0.35849 0.18807 0.0
H952 H 0.1164 0.33221 0.22985 0.0
H953 H 0.1022 0.41362 0.28885 0.0
H954 H 0.06899 0.33297 0.15949 0.0
H955 H 0.11602 0.37135 0.14862 0.0
H956 H 0.1107 0.32941 0.17025 0.0
H957 H 0.08651 0.45735 0.26555 0.0
H958 H 0.10257 0.47156 0.22252 0.0
H959 H 0.05344 0.43615 0.23084 0.0
H960 H 0.10912 0.47539 0.10833 0.0
H961 H 0.99307 0.3903 0.13442 0.0
H962 H 0.15668 0.44011 0.15669 0.0
H963 H 0.1525 0.47333 0.18401 0.0
H964 H 0.1626 0.48436 0.1396 0.0
H965 H 1.01583 0.33543 0.18898 0.0
H966 H 0.97842 0.34598 0.17849 0.0
H967 H 1.00927 0.36855 0.21441 0.0
C968 C 0.66369 0.76277 0.23405 0.0
C969 C 0.66385 0.74755 0.26589 0.0
C970 C 0.6469 0.73837 0.20574 0.0
C971 C 0.63115 0.69795 0.20909 0.0
C972 C 0.63045 0.68258 0.24153 0.0
C973 C 0.64652 0.70745 0.26938 0.0
C974 C 0.64719 0.756 0.17198 0.0
C975 C 0.61502 0.64005 0.24657 0.0
C976 C 0.57141 0.62546 0.13934 0.0
C977 C 0.59998 0.62229 0.12148 0.0
C978 C 0.58106 0.65072 0.16735 0.0
C979 C 0.61997 0.67235 0.17836 0.0
C980 C 0.6486 0.66851 0.16059 0.0
C981 C 0.63838 0.64421 0.1322 0.0
C982 C 0.54979 0.65479 0.1848 0.0
C983 C 0.69019 0.68977 0.17177 0.0
H984 H 0.67715 0.79371 0.23117 0.0
H985 H 0.64722 0.69553 0.29377 0.0
H986 H 0.66861 0.7548 0.15496 0.0
H987 H 0.61859 0.7395 0.15968 0.0
H988 H 0.6547 0.78654 0.17449 0.0
H989 H 0.61314 0.63224 0.27377 0.0
H990 H 0.58599 0.62294 0.23524 0.0
H991 H 0.63424 0.63165 0.23353 0.0
H992 H 0.54179 0.60908 0.13085 0.0
H993 H 0.66065 0.64196 0.11851 0.0
H994 H 0.55718 0.68537 0.18423 0.0
H995 H 0.5476 0.64636 0.21179 0.0
H996 H 0.52121 0.63688 0.17274 0.0
H997 H 0.70182 0.72128 0.17043 0.0
H998 H 0.70871 0.68263 0.15597 0.0
H999 H 0.69224 0.6826 0.19852 0.0
C1000 C 0.43547 0.98847 0.15858 0.0
C1001 C 0.42131 0.98532 0.12557 0.0
C1002 C 0.41029 0.97468 0.18685 0.0
C1003 C 0.3699 0.9578 0.18218 0.0
C1004 C 0.35553 0.95327 0.14876 0.0
C1005 C 0.38132 0.96695 0.12112 0.0
C1006 C 0.42709 0.9798 0.22186 0.0
C1007 C 0.31292 0.93568 0.14219 0.0
C1008 C 0.29978 0.90728 0.25658 0.0
C1009 C 0.29214 0.93606 0.26749 0.0
C1010 C 0.32452 0.91348 0.22861 0.0
C1011 C 0.3433 0.94982 0.21199 0.0
C1012 C 0.33609 0.97903 0.22343 0.0
C1013 C 0.31041 0.97166 0.25047 0.0
C1014 C 0.33067 0.88122 0.21692 0.0
C1015 C 0.35603 0.01855 0.20742 0.0
H1016 H 0.46633 1.0024 0.16241 0.0
H1017 H 0.37017 0.96464 0.09603 0.0
H1018 H 0.42356 1.00187 0.23575 0.0
H1019 H 0.41152 0.95259 0.23646 0.0
H1020 H 0.45822 0.98901 0.22113 0.0
H1021 H 0.3059 0.92979 0.11486 0.0
H1022 H 0.29629 0.90839 0.15652 0.0
H1023 H 0.30321 0.95564 0.15109 0.0
H1024 H 0.28636 0.87997 0.26985 0.0
H1025 H 0.30575 0.99464 0.25906 0.0
H1026 H 0.36134 0.88959 0.22023 0.0
H1027 H 0.32409 0.87572 0.18953 0.0
H1028 H 0.3124 0.8541 0.23111 0.0
H1029 H 0.38776 0.03127 0.20874 0.0
H1030 H 0.34833 0.03855 0.21996 0.0
H1031 H 0.34825 1.01633 0.18027 0.0
C1032 C 0.42977 0.01726 0.90374 0.0
C1033 C 0.45231 0.03996 0.93098 0.0
C1034 C 0.42103 0.03355 0.87609 0.0
C1035 C 0.43551 0.07374 0.87503 0.0
C1036 C 0.4611 0.09721 0.90082 0.0
C1037 C 0.46888 0.08007 0.92864 0.0
C1038 C 0.39498 1.00746 0.84855 0.0
C1039 C 0.47924 0.14035 0.89963 0.0
C1040 C 0.42654 0.11519 0.7903 0.0
C1041 C 0.39069 0.11305 0.79385 0.0
C1042 C 0.44215 0.10353 0.81661 0.0
C1043 C 0.42204 0.09047 0.84784 0.0
C1044 C 0.38706 0.09074 0.85225 0.0
C1045 C 0.37155 0.10136 0.82514 0.0
C1046 C 0.47946 0.10405 0.80992 0.0
C1047 C 0.36548 0.07894 0.88549 0.0
H1048 H 0.41711 0.98627 0.90478 0.0
H1049 H 0.48696 0.09796 0.94908 0.0
H1050 H 0.36759 1.00798 0.84856 0.0
H1051 H 0.40882 0.01796 0.82342 0.0
H1052 H 0.38808 0.97719 0.85182 0.0
H1053 H 0.50355 0.15475 0.9177 0.0
H1054 H 0.49018 0.15136 0.8738 0.0
H1055 H 0.45714 0.14825 0.906 0.0
H1056 H 0.44205 0.12509 0.76658 0.0
H1057 H 0.34418 0.10024 0.82842 0.0
H1058 H 0.4929 0.10055 0.83307 0.0
H1059 H 0.5005 0.13156 0.79754 0.0
H1060 H 0.47385 0.08036 0.79215 0.0
H1061 H 0.35448 0.04788 0.89009 0.0
H1062 H 0.34073 0.08405 0.88599 0.0
H1063 H 0.38518 0.09517 0.90662 0.0
C1064 C 0.04436 0.40097 0.91132 0.0
C1065 C 1.02165 0.41365 0.92787 0.0
C1066 C 0.02978 0.37452 0.88444 0.0
C1067 C 0.99187 0.36119 0.87265 0.0
C1068 C 0.96913 0.37481 0.88848 0.0
C1069 C 0.984 0.40023 0.91634 0.0
C1070 C 0.05473 0.36001 0.86925 0.0
C1071 C 0.92901 0.3623 0.87616 0.0
C1072 C 0.9735 0.32184 0.7825 0.0
C1073 C 0.95213 0.28197 0.78756 0.0
C1074 C 0.98521 0.34781 0.80977 0.0
C1075 C 0.97673 0.33364 0.84337 0.0
C1076 C 0.95623 0.29319 0.84878 0.0
C1077 C 0.94411 0.26783 0.8208 0.0
C1078 C 1.00673 0.39051 0.80254 0.0
C1079 C 0.94739 0.27672 0.88414 0.0
H1080 H 0.07322 0.41038 0.92036 0.0
H1081 H 0.96611 0.40944 0.92925 0.0
H1082 H 0.0397 0.32814 0.871 0.0
H1083 H 0.05993 0.36764 0.84201 0.0
H1084 H 0.08304 0.37208 0.8821 0.0
H1085 H 0.91616 0.37763 0.8894 0.0
H1086 H 0.92955 0.36764 0.84854 0.0
H1087 H 0.91005 0.33093 0.88026 0.0
H1088 H 0.98179 0.33285 0.7571 0.0
H1089 H 0.9279 0.23698 0.82489 0.0
H1090 H 0.03597 0.40412 0.81372 0.0
H1091 H 0.99145 0.40414 0.81446 0.0
H1092 H 1.00968 0.39689 0.77498 0.0
H1093 H 0.97462 0.2869 0.89833 0.0
H1094 H 0.93119 0.24473 0.88415 0.0
H1095 H 0.93018 0.28701 0.89799 0.0
C1096 C 0.75918 0.67977 0.81624 0.0
C1097 C 0.75339 0.65785 0.78686 0.0
C1098 C 0.73258 0.66571 0.84332 0.0
C1099 C 0.69853 0.6292 0.84079 0.0
C1100 C 0.69282 0.60668 0.81134 0.0
C1101 C 0.72061 0.62094 0.78511 0.0
C1102 C 0.74092 0.69006 0.87474 0.0
C1103 C 0.65701 0.56778 0.80728 0.0
C1104 C 0.64687 0.58468 0.92451 0.0
C1105 C 0.62161 0.59915 0.92751 0.0
C1106 C 0.67083 0.59264 0.89586 0.0
C1107 C 0.66912 0.61509 0.86897 0.0
C1108 C 0.64118 0.62682 0.87056 0.0
C1109 C 0.61805 0.61902 0.89982 0.0
C1110 C 0.69978 0.57918 0.89592 0.0
C1111 C 0.63702 0.64936 0.84202 0.0
H1112 H 0.78461 0.70811 0.81808 0.0
H1113 H 0.71635 0.60334 0.76295 0.0
H1114 H 0.71845 0.69814 0.87821 0.0
H1115 H 0.74002 0.67327 0.89737 0.0
H1116 H 0.76953 0.7168 0.87358 0.0
H1117 H 0.63136 0.57136 0.8062 0.0
H1118 H 0.6579 0.55277 0.78394 0.0
H1119 H 0.6532 0.54925 0.82944 0.0
H1120 H 0.64946 0.56879 0.94544 0.0
H1121 H 0.59842 0.63007 0.90159 0.0
H1122 H 0.72682 0.60172 0.9078 0.0
H1123 H 0.70683 0.57387 0.87003 0.0
H1124 H 0.68897 0.55233 0.91094 0.0
H1125 H 0.66273 0.67868 0.84112 0.0
H1126 H 0.61098 0.65212 0.84504 0.0
H1127 H 0.63537 0.63531 0.81737 0.0
C1128 C 0.75989 0.78569 0.45406 0.0
C1129 C 0.7215 0.77744 0.45476 0.0
C1130 C 0.77559 0.77546 0.48136 0.0
C1131 C 0.75241 0.75667 0.51016 0.0
C1132 C 0.71395 0.74926 0.51122 0.0
C1133 C 0.69904 0.75962 0.4836 0.0
C1134 C 0.81669 0.78402 0.47908 0.0
C1135 C 0.68806 0.72942 0.54126 0.0
C1136 C 0.76779 0.68872 0.56653 0.0
C1137 C 0.78137 0.70999 0.59659 0.0
C1138 C 0.76047 0.70439 0.53759 0.0
C1139 C 0.76703 0.7425 0.53845 0.0
C1140 C 0.78334 0.76507 0.56797 0.0
C1141 C 0.7903 0.74857 0.59666 0.0
C1142 C 0.74311 0.67912 0.50688 0.0
C1143 C 0.79112 0.80587 0.57012 0.0
H1144 H 0.7775 0.79965 0.43196 0.0
H1145 H 0.6694 0.75323 0.48446 0.0
H1146 H 0.83298 0.80017 0.5018 0.0
H1147 H 0.81716 0.75666 0.47848 0.0
H1148 H 0.8317 0.80099 0.45611 0.0
H1149 H 0.65939 0.72706 0.5388 0.0
H1150 H 0.68375 0.70003 0.54404 0.0
H1151 H 0.70178 0.7454 0.56486 0.0
H1152 H 0.76091 0.65894 0.56616 0.0
H1153 H 0.80071 0.76529 0.61973 0.0
H1154 H 0.75885 0.69446 0.4836 0.0
H1155 H 0.71276 0.6721 0.50402 0.0
H1156 H 0.7435 0.65174 0.50881 0.0
H1157 H 0.80574 0.82209 0.54679 0.0
H1158 H 0.80917 0.82141 0.59236 0.0
H1159 H 0.76338 0.80551 0.57238 0.0
C1160 C 0.24142 0.94364 0.49043 0.0
C1161 C 0.2629 0.95572 0.46031 0.0
C1162 C 0.25178 0.96824 0.51886 0.0
C1163 C 0.28504 1.00552 0.51748 0.0
C1164 C 0.3065 0.01786 0.48687 0.0
C1165 C 0.29511 0.99292 0.45877 0.0
C1166 C 0.22768 0.95398 0.55067 0.0
C1167 C 0.34256 0.05685 0.48419 0.0
C1168 C 0.30604 0.0823 0.58548 0.0
C1169 C 0.3322 0.07856 0.60622 0.0
C1170 C 0.28982 0.05837 0.55677 0.0
C1171 C 0.29985 0.02996 0.54884 0.0
C1172 C 0.32558 0.0257 0.57039 0.0
C1173 C 0.34131 0.04991 0.59863 0.0
C1174 C 0.26247 0.06387 0.53461 0.0
C1175 C 0.33719 0.99595 0.56329 0.0
H1176 H 0.21647 0.91491 0.49177 0.0
H1177 H 0.31252 1.00195 0.43596 0.0
H1178 H 0.24446 0.95008 0.57094 0.0
H1179 H 0.22021 0.97554 0.55986 0.0
H1180 H 0.20063 0.92615 0.54667 0.0
H1181 H 0.35424 0.06339 0.45797 0.0
H1182 H 0.33665 0.07975 0.49259 0.0
H1183 H 0.36502 0.05786 0.50114 0.0
H1184 H 0.29882 0.10429 0.59134 0.0
H1185 H 0.36117 0.0466 0.61485 0.0
H1186 H 0.23503 0.03619 0.53177 0.0
H1187 H 0.2751 0.07308 0.50893 0.0
H1188 H 0.25604 0.08576 0.54499 0.0
H1189 H 0.31125 0.96683 0.56218 0.0
H1190 H 0.35694 0.99582 0.58284 0.0
H1191 H 0.35175 1.00165 0.53828 0.0
C1192 C 0.95514 0.28805 0.56721 0.0
C1193 C 0.96034 0.27258 0.59716 0.0
C1194 C 0.97724 0.29247 0.53803 0.0
C1195 C 1.0063 0.28231 0.53899 0.0
C1196 C 1.0098 0.26409 0.56846 0.0
C1197 C 0.98645 0.25905 0.5971 0.0
C1198 C 0.97153 0.311 0.50708 0.0
C1199 C 0.04044 0.25297 0.57084 0.0
C1200 C 0.05725 0.28715 0.45517 0.0
C1201 C 0.08819 0.3252 0.45544 0.0
C1202 C 0.03085 0.27222 0.48245 0.0
C1203 C 0.03592 0.29565 0.51109 0.0
C1204 C 0.06822 0.33353 0.51204 0.0
C1205 C 0.09364 0.34787 0.4842 0.0
C1206 C 0.99671 0.23196 0.47991 0.0
C1207 C 0.07539 0.35946 0.54216 0.0
H1208 H 0.93526 0.29889 0.56723 0.0
H1209 H 0.99106 0.24762 0.62029 0.0
H1210 H 0.99603 0.3409 0.50457 0.0
H1211 H 0.97095 0.29513 0.48386 0.0
H1212 H 0.94441 0.31201 0.50851 0.0
H1213 H 0.03619 0.23458 0.59327 0.0
H1214 H 0.04075 0.23746 0.5477 0.0
H1215 H 0.06913 0.27942 0.57281 0.0
H1216 H 0.05313 0.26933 0.43325 0.0
H1217 H 0.11763 0.3772 0.48481 0.0
H1218 H 0.97013 0.23348 0.47614 0.0
H1219 H 0.99293 0.21577 0.5037 0.0
H1220 H 0.99963 0.21566 0.45846 0.0
H1221 H 0.05199 0.36644 0.54421 0.0
H1222 H 0.10336 0.38685 0.54026 0.0
H1223 H 0.07513 0.34455 0.56586 0.0
loop_
_geom_bond_atom_site_label_1
_geom_bond_atom_site_label_2
_geom_bond_distance
_geom_bond_site_symmetry_2
_ccdc_geom_bond_type
Nd0 C2 2.836 . S
Nd0 O20 2.500 1_556 S
Nd0 O21 2.492 . S
Nd0 O22 2.487 . S
Nd0 O23 2.682 1_455 S
Nd0 O24 2.410 . S
Nd0 O29 2.414 1_556 S
Nd0 O31 2.422 1_456 S
Nd1 C11 2.836 . S
Nd1 O23 2.414 1_554 S
Nd1 O25 2.424 1_655 S
Nd1 O26 2.500 1_554 S
Nd1 O27 2.492 . S
Nd1 O28 2.487 . S
Nd1 O29 2.682 1_655 S
Nd1 O30 2.410 . S
C2 Nd0 2.836 . S
C2 C3 1.498 . S
C2 O20 1.258 1_556 S
C2 O21 1.239 . S
C3 C2 1.498 . S
C3 C4 1.366 1_556 S
C3 C8 1.407 . S
C4 C3 1.366 1_554 S
C4 C5 1.392 . S
C4 H32 0.930 . S
C5 C4 1.392 . S
C5 C6 1.398 1_554 S
C5 H33 0.929 . S
C6 C5 1.398 1_556 S
C6 C7 1.352 . S
C7 C6 1.352 . S
C7 C8 1.384 . S
C7 H34 0.930 . S
C8 C3 1.407 . S
C8 C7 1.384 . S
C8 H35 0.929 . S
C9 O22 1.241 1_655 S
C9 O23 1.273 . S
C10 O24 1.251 . S
C10 O25 1.268 1_556 S
C11 Nd1 2.836 . S
C11 C12 1.498 . S
C11 O26 1.258 1_554 S
C11 O27 1.239 . S
C12 C11 1.498 . S
C12 C13 1.366 1_554 S
C12 C17 1.407 . S
C13 C12 1.366 1_556 S
C13 C14 1.392 . S
C13 H36 0.930 . S
C14 C13 1.392 . S
C14 C15 1.398 1_556 S
C14 H37 0.929 . S
C15 C14 1.398 1_554 S
C15 C16 1.352 . S
C16 C15 1.352 . S
C16 C17 1.384 . S
C16 H38 0.930 . S
C17 C12 1.407 . S
C17 C16 1.384 . S
C17 H39 0.929 . S
C18 O28 1.241 1_455 S
C18 O29 1.273 . S
C19 O30 1.251 . S
C19 O31 1.275 . S
O20 Nd0 2.500 1_554 S
O20 C2 1.258 1_554 S
O21 Nd0 2.492 . S
O21 C2 1.239 . S
O22 Nd0 2.487 . S
O22 C9 1.241 1_455 S
O23 Nd0 2.682 1_655 S
O23 Nd1 2.414 1_556 S
O23 C9 1.273 . S
O24 Nd0 2.410 . S
O24 C10 1.251 . S
O25 Nd1 2.424 1_455 S
O25 C10 1.268 1_554 S
O26 Nd1 2.500 1_556 S
O26 C11 1.258 1_556 S
O27 Nd1 2.492 . S
O27 C11 1.239 . S
O28 Nd1 2.487 . S
O28 C18 1.241 1_655 S
O29 Nd0 2.414 1_554 S
O29 Nd1 2.682 1_455 S
O29 C18 1.273 . S
O30 Nd1 2.410 . S
O30 C19 1.251 . S
O31 Nd0 2.422 1_654 S
O31 C19 1.275 . S
H32 C4 0.930 . S
H33 C5 0.929 . S
H34 C7 0.930 . S
H35 C8 0.929 . S
H36 C13 0.930 . S
H37 C14 0.929 . S
H38 C16 0.930 . S
H39 C17 0.929 . S
Nd40 C42 2.836 . S
Nd40 O60 2.500 1_556 S
Nd40 O61 2.492 . S
Nd40 O62 2.487 . S
Nd40 O63 2.682 . S
Nd40 O64 2.410 . S
Nd40 O69 2.414 1_556 S
Nd40 O71 2.421 1_556 S
Nd41 C51 2.836 . S
Nd41 O63 2.414 1_554 S
Nd41 O65 2.424 . S
Nd41 O66 2.500 1_554 S
Nd41 O67 2.492 . S
Nd41 O68 2.487 . S
Nd41 O69 2.682 . S
Nd41 O70 2.410 . S
C42 Nd40 2.836 . S
C42 C43 1.498 . S
C42 O60 1.258 1_556 S
C42 O61 1.239 . S
C43 C42 1.498 . S
C43 C44 1.366 1_556 S
C43 C48 1.407 . S
C44 C43 1.366 1_554 S
C44 C45 1.392 . S
C44 H72 0.930 . S
C45 C44 1.392 . S
C45 C46 1.398 1_554 S
C45 H73 0.929 . S
C46 C45 1.398 1_556 S
C46 C47 1.352 . S
C47 C46 1.352 . S
C47 C48 1.384 . S
C47 H74 0.930 . S
C48 C43 1.407 . S
C48 C47 1.384 . S
C48 H75 0.929 . S
C49 O62 1.241 . S
C49 O63 1.273 . S
C50 O64 1.251 . S
C50 O65 1.268 1_556 S
C51 Nd41 2.836 . S
C51 C52 1.498 . S
C51 O66 1.258 1_554 S
C51 O67 1.239 . S
C52 C51 1.498 . S
C52 C53 1.366 1_554 S
C52 C57 1.407 . S
C53 C52 1.366 1_556 S
C53 C54 1.392 . S
C53 H76 0.930 . S
C54 C53 1.392 . S
C54 C55 1.398 1_556 S
C54 H77 0.929 . S
C55 C54 1.398 1_554 S
C55 C56 1.352 . S
C56 C55 1.352 . S
C56 C57 1.384 . S
C56 H78 0.930 . S
C57 C52 1.407 . S
C57 C56 1.384 . S
C57 H79 0.929 . S
C58 O68 1.241 . S
C58 O69 1.273 . S
C59 O70 1.251 . S
C59 O71 1.275 . S
O60 Nd40 2.500 1_554 S
O60 C42 1.258 1_554 S
O61 Nd40 2.492 . S
O61 C42 1.239 . S
O62 Nd40 2.487 . S
O62 C49 1.241 . S
O63 Nd40 2.682 . S
O63 Nd41 2.414 1_556 S
O63 C49 1.273 . S
O64 Nd40 2.410 . S
O64 C50 1.251 . S
O65 Nd41 2.424 . S
O65 C50 1.268 1_554 S
O66 Nd41 2.500 1_556 S
O66 C51 1.258 1_556 S
O67 Nd41 2.492 . S
O67 C51 1.239 . S
O68 Nd41 2.487 . S
O68 C58 1.241 . S
O69 Nd40 2.414 1_554 S
O69 Nd41 2.682 . S
O69 C58 1.273 . S
O70 Nd41 2.410 . S
O70 C59 1.251 . S
O71 Nd40 2.421 1_554 S
O71 C59 1.275 . S
H72 C44 0.930 . S
H73 C45 0.929 . S
H74 C47 0.930 . S
H75 C48 0.929 . S
H76 C53 0.930 . S
H77 C54 0.929 . S
H78 C56 0.930 . S
H79 C57 0.929 . S
Nd80 C82 2.836 . S
Nd80 O100 2.500 1_556 S
Nd80 O101 2.492 . S
Nd80 O102 2.487 . S
Nd80 O103 2.682 1_565 S
Nd80 O104 2.410 . S
Nd80 O109 2.414 1_556 S
Nd80 O111 2.421 1_566 S
Nd81 C91 2.836 . S
Nd81 O103 2.414 1_554 S
Nd81 O105 2.424 1_545 S
Nd81 O106 2.500 1_554 S
Nd81 O107 2.492 . S
Nd81 O108 2.487 . S
Nd81 O109 2.682 1_545 S
Nd81 O110 2.410 . S
C82 Nd80 2.836 . S
C82 C83 1.498 . S
C82 O100 1.258 1_556 S
C82 O101 1.239 . S
C83 C82 1.498 . S
C83 C84 1.366 1_556 S
C83 C88 1.407 . S
C84 C83 1.366 1_554 S
C84 C85 1.392 . S
C84 H112 0.930 . S
C85 C84 1.392 . S
C85 C86 1.398 1_554 S
C85 H113 0.929 . S
C86 C85 1.398 1_556 S
C86 C87 1.352 . S
C87 C86 1.352 . S
C87 C88 1.384 . S
C87 H114 0.930 . S
C88 C83 1.407 . S
C88 C87 1.384 . S
C88 H115 0.929 . S
C89 O102 1.241 1_545 S
C89 O103 1.273 . S
C90 O104 1.251 . S
C90 O105 1.268 1_556 S
C91 Nd81 2.836 . S
C91 C92 1.498 . S
C91 O106 1.258 1_554 S
C91 O107 1.239 . S
C92 C91 1.498 . S
C92 C93 1.366 1_554 S
C92 C97 1.407 . S
C93 C92 1.366 1_556 S
C93 C94 1.392 . S
C93 H116 0.930 . S
C94 C93 1.392 . S
C94 C95 1.398 1_556 S
C94 H117 0.929 . S
C95 C94 1.398 1_554 S
C95 C96 1.352 . S
C96 C95 1.352 . S
C96 C97 1.384 . S
C96 H118 0.930 . S
C97 C92 1.407 . S
C97 C96 1.384 . S
C97 H119 0.929 . S
C98 O108 1.241 1_565 S
C98 O109 1.273 . S
C99 O110 1.251 . S
C99 O111 1.275 . S
O100 Nd80 2.500 1_554 S
O100 C82 1.258 1_554 S
O101 Nd80 2.492 . S
O101 C82 1.239 . S
O102 Nd80 2.487 . S
O102 C89 1.241 1_565 S
O103 Nd80 2.682 1_545 S
O103 Nd81 2.414 1_556 S
O103 C89 1.273 . S
O104 Nd80 2.410 . S
O104 C90 1.251 . S
O105 Nd81 2.424 1_565 S
O105 C90 1.268 1_554 S
O106 Nd81 2.500 1_556 S
O106 C91 1.258 1_556 S
O107 Nd81 2.492 . S
O107 C91 1.239 . S
O108 Nd81 2.487 . S
O108 C98 1.241 1_545 S
O109 Nd80 2.414 1_554 S
O109 Nd81 2.682 1_565 S
O109 C98 1.273 . S
O110 Nd81 2.410 . S
O110 C99 1.251 . S
O111 Nd80 2.421 1_544 S
O111 C99 1.275 . S
H112 C84 0.930 . S
H113 C85 0.929 . S
H114 C87 0.930 . S
H115 C88 0.929 . S
H116 C93 0.930 . S
H117 C94 0.929 . S
H118 C96 0.930 . S
H119 C97 0.929 . S
Nd120 C122 2.836 . S
Nd120 O140 2.500 . S
Nd120 O141 2.492 . S
Nd120 O142 2.487 . S
Nd120 O143 2.682 . S
Nd120 O144 2.410 . S
Nd120 O149 2.414 . S
Nd120 O151 2.424 . S
Nd121 C131 2.836 . S
Nd121 O143 2.414 . S
Nd121 O145 2.424 . S
Nd121 O146 2.500 . S
Nd121 O147 2.492 . S
Nd121 O148 2.487 . S
Nd121 O149 2.682 . S
Nd121 O150 2.410 . S
C122 Nd120 2.836 . S
C122 C123 1.498 . S
C122 O140 1.258 . S
C122 O141 1.239 . S
C123 C122 1.498 . S
C123 C124 1.366 . S
C123 C128 1.407 . S
C124 C123 1.366 . S
C124 C125 1.392 . S
C124 H152 0.930 . S
C125 C124 1.392 . S
C125 C126 1.398 . S
C125 H153 0.929 . S
C126 C125 1.398 . S
C126 C127 1.352 . S
C127 C126 1.352 . S
C127 C128 1.384 . S
C127 H154 0.930 . S
C128 C123 1.407 . S
C128 C127 1.384 . S
C128 H155 0.929 . S
C129 O142 1.241 . S
C129 O143 1.273 . S
C130 O144 1.251 . S
C130 O145 1.268 . S
C131 Nd121 2.836 . S
C131 C132 1.498 . S
C131 O146 1.258 . S
C131 O147 1.239 . S
C132 C131 1.498 . S
C132 C133 1.366 . S
C132 C137 1.407 . S
C133 C132 1.366 . S
C133 C134 1.392 . S
C133 H156 0.930 . S
C134 C133 1.392 . S
C134 C135 1.398 . S
C134 H157 0.929 . S
C135 C134 1.398 . S
C135 C136 1.352 . S
C136 C135 1.352 . S
C136 C137 1.384 . S
C136 H158 0.930 . S
C137 C132 1.407 . S
C137 C136 1.384 . S
C137 H159 0.929 . S
C138 O148 1.241 . S
C138 O149 1.273 . S
C139 O150 1.251 . S
C139 O151 1.268 . S
O140 Nd120 2.500 . S
O140 C122 1.258 . S
O141 Nd120 2.492 . S
O141 C122 1.239 . S
O142 Nd120 2.487 . S
O142 C129 1.241 . S
O143 Nd120 2.682 . S
O143 Nd121 2.414 . S
O143 C129 1.273 . S
O144 Nd120 2.410 . S
O144 C130 1.251 . S
O145 Nd121 2.424 . S
O145 C130 1.268 . S
O146 Nd121 2.500 . S
O146 C131 1.258 . S
O147 Nd121 2.492 . S
O147 C131 1.239 . S
O148 Nd121 2.487 . S
O148 C138 1.241 . S
O149 Nd120 2.414 . S
O149 Nd121 2.682 . S
O149 C138 1.273 . S
O150 Nd121 2.410 . S
O150 C139 1.251 . S
O151 Nd120 2.424 . S
O151 C139 1.268 . S
H152 C124 0.930 . S
H153 C125 0.929 . S
H154 C127 0.930 . S
H155 C128 0.929 . S
H156 C133 0.930 . S
H157 C134 0.929 . S
H158 C136 0.930 . S
H159 C137 0.929 . S
Nd160 C162 2.836 . S
Nd160 O180 2.500 . S
Nd160 O181 2.492 . S
Nd160 O182 2.487 . S
Nd160 O183 2.682 . S
Nd160 O184 2.410 . S
Nd160 O189 2.414 . S
Nd160 O191 2.424 . S
Nd161 C171 2.836 . S
Nd161 O183 2.414 . S
Nd161 O185 2.424 . S
Nd161 O186 2.500 . S
Nd161 O187 2.492 . S
Nd161 O188 2.487 . S
Nd161 O189 2.682 . S
Nd161 O190 2.410 . S
C162 Nd160 2.836 . S
C162 C163 1.498 1_565 S
C162 O180 1.258 . S
C162 O181 1.239 . S
C163 C162 1.498 1_545 S
C163 C164 1.366 . S
C163 C168 1.407 . S
C164 C163 1.366 . S
C164 C165 1.392 . S
C164 H192 0.930 . S
C165 C164 1.392 . S
C165 C166 1.398 . S
C165 H193 0.929 . S
C166 C165 1.398 . S
C166 C167 1.352 . S
C167 C166 1.352 . S
C167 C168 1.384 . S
C167 H194 0.930 . S
C168 C163 1.407 . S
C168 C167 1.384 . S
C168 H195 0.929 . S
C169 O182 1.241 . S
C169 O183 1.273 . S
C170 O184 1.251 . S
C170 O185 1.268 . S
C171 Nd161 2.836 . S
C171 C172 1.498 . S
C171 O186 1.258 . S
C171 O187 1.239 . S
C172 C171 1.498 . S
C172 C173 1.366 . S
C172 C177 1.407 . S
C173 C172 1.366 . S
C173 C174 1.392 . S
C173 H196 0.930 . S
C174 C173 1.392 . S
C174 C175 1.398 . S
C174 H197 0.929 . S
C175 C174 1.398 . S
C175 C176 1.352 . S
C176 C175 1.352 . S
C176 C177 1.384 . S
C176 H198 0.930 . S
C177 C172 1.407 . S
C177 C176 1.384 . S
C177 H199 0.929 . S
C178 O188 1.241 . S
C178 O189 1.273 . S
C179 O190 1.251 . S
C179 O191 1.268 . S
O180 Nd160 2.500 . S
O180 C162 1.258 . S
O181 Nd160 2.492 . S
O181 C162 1.239 . S
O182 Nd160 2.487 . S
O182 C169 1.241 . S
O183 Nd160 2.682 . S
O183 Nd161 2.414 . S
O183 C169 1.273 . S
O184 Nd160 2.410 . S
O184 C170 1.251 . S
O185 Nd161 2.424 . S
O185 C170 1.268 . S
O186 Nd161 2.500 . S
O186 C171 1.258 . S
O187 Nd161 2.492 . S
O187 C171 1.239 . S
O188 Nd161 2.487 . S
O188 C178 1.241 . S
O189 Nd160 2.414 . S
O189 Nd161 2.682 . S
O189 C178 1.273 . S
O190 Nd161 2.410 . S
O190 C179 1.251 . S
O191 Nd160 2.424 . S
O191 C179 1.268 . S
H192 C164 0.930 . S
H193 C165 0.929 . S
H194 C167 0.930 . S
H195 C168 0.929 . S
H196 C173 0.930 . S
H197 C174 0.929 . S
H198 C176 0.930 . S
H199 C177 0.929 . S
Nd200 C202 2.836 . S
Nd200 O220 2.500 . S
Nd200 O221 2.492 . S
Nd200 O222 2.487 . S
Nd200 O223 2.682 . S
Nd200 O224 2.410 . S
Nd200 O229 2.414 . S
Nd200 O231 2.424 . S
Nd201 C211 2.836 . S
Nd201 O223 2.414 . S
Nd201 O225 2.424 . S
Nd201 O226 2.500 . S
Nd201 O227 2.492 . S
Nd201 O228 2.487 . S
Nd201 O229 2.682 . S
Nd201 O230 2.410 . S
C202 Nd200 2.836 . S
C202 C203 1.498 1_455 S
C202 O220 1.258 . S
C202 O221 1.239 . S
C203 C202 1.498 1_655 S
C203 C204 1.366 . S
C203 C208 1.407 . S
C204 C203 1.366 . S
C204 C205 1.392 . S
C204 H232 0.930 . S
C205 C204 1.392 . S
C205 C206 1.398 . S
C205 H233 0.929 . S
C206 C205 1.398 . S
C206 C207 1.352 . S
C207 C206 1.352 . S
C207 C208 1.384 . S
C207 H234 0.930 . S
C208 C203 1.407 . S
C208 C207 1.384 . S
C208 H235 0.929 . S
C209 O222 1.241 . S
C209 O223 1.273 . S
C210 O224 1.251 . S
C210 O225 1.268 . S
C211 Nd201 2.836 . S
C211 C212 1.498 . S
C211 O226 1.258 . S
C211 O227 1.239 . S
C212 C211 1.498 . S
C212 C213 1.366 . S
C212 C217 1.407 . S
C213 C212 1.366 . S
C213 C214 1.392 . S
C213 H236 0.930 . S
C214 C213 1.392 . S
C214 C215 1.398 . S
C214 H237 0.929 . S
C215 C214 1.398 . S
C215 C216 1.352 . S
C216 C215 1.352 . S
C216 C217 1.384 . S
C216 H238 0.930 . S
C217 C212 1.407 . S
C217 C216 1.384 . S
C217 H239 0.929 . S
C218 O228 1.241 . S
C218 O229 1.273 . S
C219 O230 1.251 . S
C219 O231 1.268 . S
O220 Nd200 2.500 . S
O220 C202 1.258 . S
O221 Nd200 2.492 . S
O221 C202 1.239 . S
O222 Nd200 2.487 . S
O222 C209 1.241 . S
O223 Nd200 2.682 . S
O223 Nd201 2.414 . S
O223 C209 1.273 . S
O224 Nd200 2.410 . S
O224 C210 1.251 . S
O225 Nd201 2.424 . S
O225 C210 1.268 . S
O226 Nd201 2.500 . S
O226 C211 1.258 . S
O227 Nd201 2.492 . S
O227 C211 1.239 . S
O228 Nd201 2.487 . S
O228 C218 1.241 . S
O229 Nd200 2.414 . S
O229 Nd201 2.682 . S
O229 C218 1.273 . S
O230 Nd201 2.410 . S
O230 C219 1.251 . S
O231 Nd200 2.424 . S
O231 C219 1.268 . S
H232 C204 0.930 . S
H233 C205 0.929 . S
H234 C207 0.930 . S
H235 C208 0.929 . S
H236 C213 0.930 . S
H237 C214 0.929 . S
H238 C216 0.930 . S
H239 C217 0.929 . S
Nd240 C242 2.836 . S
Nd240 O260 2.500 . S
Nd240 O261 2.492 . S
Nd240 O262 2.487 . S
Nd240 O263 2.682 . S
Nd240 O264 2.410 . S
Nd240 O269 2.414 . S
Nd240 O271 2.424 . S
Nd241 C251 2.836 . S
Nd241 O263 2.414 . S
Nd241 O265 2.424 . S
Nd241 O266 2.500 . S
Nd241 O267 2.492 . S
Nd241 O268 2.487 . S
Nd241 O269 2.682 . S
Nd241 O270 2.410 . S
C242 Nd240 2.836 . S
C242 C243 1.498 . S
C242 O260 1.258 . S
C242 O261 1.239 . S
C243 C242 1.498 . S
C243 C244 1.366 . S
C243 C248 1.407 . S
C244 C243 1.366 . S
C244 C245 1.392 . S
C244 H272 0.930 . S
C245 C244 1.392 . S
C245 C246 1.398 . S
C245 H273 0.929 . S
C246 C245 1.398 . S
C246 C247 1.352 . S
C247 C246 1.352 . S
C247 C248 1.384 . S
C247 H274 0.930 . S
C248 C243 1.407 . S
C248 C247 1.384 . S
C248 H275 0.929 . S
C249 O262 1.241 . S
C249 O263 1.273 . S
C250 O264 1.251 . S
C250 O265 1.268 . S
C251 Nd241 2.836 . S
C251 C252 1.498 . S
C251 O266 1.258 . S
C251 O267 1.239 . S
C252 C251 1.498 . S
C252 C253 1.366 . S
C252 C257 1.407 . S
C253 C252 1.366 . S
C253 C254 1.392 . S
C253 H276 0.930 . S
C254 C253 1.392 . S
C254 C255 1.398 . S
C254 H277 0.929 . S
C255 C254 1.398 . S
C255 C256 1.352 . S
C256 C255 1.352 . S
C256 C257 1.384 . S
C256 H278 0.930 . S
C257 C252 1.407 . S
C257 C256 1.384 . S
C257 H279 0.929 . S
C258 O268 1.241 . S
C258 O269 1.273 . S
C259 O270 1.251 . S
C259 O271 1.268 . S
O260 Nd240 2.500 . S
O260 C242 1.258 . S
O261 Nd240 2.492 . S
O261 C242 1.239 . S
O262 Nd240 2.487 . S
O262 C249 1.241 . S
O263 Nd240 2.682 . S
O263 Nd241 2.414 . S
O263 C249 1.273 . S
O264 Nd240 2.410 . S
O264 C250 1.251 . S
O265 Nd241 2.424 . S
O265 C250 1.268 . S
O266 Nd241 2.500 . S
O266 C251 1.258 . S
O267 Nd241 2.492 . S
O267 C251 1.239 . S
O268 Nd241 2.487 . S
O268 C258 1.241 . S
O269 Nd240 2.414 . S
O269 Nd241 2.682 . S
O269 C258 1.273 . S
O270 Nd241 2.410 . S
O270 C259 1.251 . S
O271 Nd240 2.424 . S
O271 C259 1.268 . S
H272 C244 0.930 . S
H273 C245 0.929 . S
H274 C247 0.930 . S
H275 C248 0.929 . S
H276 C253 0.930 . S
H277 C254 0.929 . S
H278 C256 0.930 . S
H279 C257 0.929 . S
Nd280 C282 2.836 . S
Nd280 O300 2.500 . S
Nd280 O301 2.492 . S
Nd280 O302 2.487 . S
Nd280 O303 2.682 . S
Nd280 O304 2.410 . S
Nd280 O309 2.414 . S
Nd280 O311 2.424 . S
Nd281 C291 2.836 . S
Nd281 O303 2.414 . S
Nd281 O305 2.424 . S
Nd281 O306 2.500 . S
Nd281 O307 2.492 . S
Nd281 O308 2.487 . S
Nd281 O309 2.682 . S
Nd281 O310 2.410 . S
C282 Nd280 2.836 . S
C282 C283 1.498 . S
C282 O300 1.258 . S
C282 O301 1.239 . S
C283 C282 1.498 . S
C283 C284 1.366 . S
C283 C288 1.407 . S
C284 C283 1.366 . S
C284 C285 1.392 . S
C284 H312 0.930 . S
C285 C284 1.392 . S
C285 C286 1.398 . S
C285 H313 0.929 . S
C286 C285 1.398 . S
C286 C287 1.352 . S
C287 C286 1.352 . S
C287 C288 1.384 . S
C287 H314 0.930 . S
C288 C283 1.407 . S
C288 C287 1.384 . S
C288 H315 0.929 . S
C289 O302 1.241 . S
C289 O303 1.273 . S
C290 O304 1.251 . S
C290 O305 1.268 . S
C291 Nd281 2.836 . S
C291 C292 1.498 . S
C291 O306 1.258 . S
C291 O307 1.239 . S
C292 C291 1.498 . S
C292 C293 1.366 . S
C292 C297 1.407 . S
C293 C292 1.366 . S
C293 C294 1.392 . S
C293 H316 0.930 . S
C294 C293 1.392 . S
C294 C295 1.398 . S
C294 H317 0.929 . S
C295 C294 1.398 . S
C295 C296 1.352 . S
C296 C295 1.352 . S
C296 C297 1.384 . S
C296 H318 0.930 . S
C297 C292 1.407 . S
C297 C296 1.384 . S
C297 H319 0.929 . S
C298 O308 1.241 . S
C298 O309 1.273 . S
C299 O310 1.251 . S
C299 O311 1.268 . S
O300 Nd280 2.500 . S
O300 C282 1.258 . S
O301 Nd280 2.492 . S
O301 C282 1.239 . S
O302 Nd280 2.487 . S
O302 C289 1.241 . S
O303 Nd280 2.682 . S
O303 Nd281 2.414 . S
O303 C289 1.273 . S
O304 Nd280 2.410 . S
O304 C290 1.251 . S
O305 Nd281 2.424 . S
O305 C290 1.268 . S
O306 Nd281 2.500 . S
O306 C291 1.258 . S
O307 Nd281 2.492 . S
O307 C291 1.239 . S
O308 Nd281 2.487 . S
O308 C298 1.241 . S
O309 Nd280 2.414 . S
O309 Nd281 2.682 . S
O309 C298 1.273 . S
O310 Nd281 2.410 . S
O310 C299 1.251 . S
O311 Nd280 2.424 . S
O311 C299 1.268 . S
H312 C284 0.930 . S
H313 C285 0.929 . S
H314 C287 0.930 . S
H315 C288 0.929 . S
H316 C293 0.930 . S
H317 C294 0.929 . S
H318 C296 0.930 . S
H319 C297 0.929 . S
Nd320 C322 2.836 . S
Nd320 O340 2.500 . S
Nd320 O341 2.492 . S
Nd320 O342 2.487 . S
Nd320 O343 2.682 . S
Nd320 O344 2.410 . S
Nd320 O349 2.414 . S
Nd320 O351 2.424 . S
Nd321 C331 2.836 . S
Nd321 O343 2.414 . S
Nd321 O345 2.424 . S
Nd321 O346 2.500 . S
Nd321 O347 2.492 . S
Nd321 O348 2.487 . S
Nd321 O349 2.682 . S
Nd321 O350 2.410 . S
C322 Nd320 2.836 . S
C322 C323 1.498 . S
C322 O340 1.258 . S
C322 O341 1.239 . S
C323 C322 1.498 . S
C323 C324 1.366 . S
C323 C328 1.407 . S
C324 C323 1.366 . S
C324 C325 1.392 . S
C324 H352 0.930 . S
C325 C324 1.392 . S
C325 C326 1.398 . S
C325 H353 0.929 . S
C326 C325 1.398 . S
C326 C327 1.352 . S
C327 C326 1.352 . S
C327 C328 1.384 . S
C327 H354 0.930 . S
C328 C323 1.407 . S
C328 C327 1.384 . S
C328 H355 0.929 . S
C329 O342 1.241 . S
C329 O343 1.273 . S
C330 O344 1.251 . S
C330 O345 1.268 . S
C331 Nd321 2.836 . S
C331 C332 1.498 . S
C331 O346 1.258 . S
C331 O347 1.239 . S
C332 C331 1.498 . S
C332 C333 1.366 . S
C332 C337 1.407 . S
C333 C332 1.366 . S
C333 C334 1.392 . S
C333 H356 0.930 . S
C334 C333 1.392 . S
C334 C335 1.398 . S
C334 H357 0.929 . S
C335 C334 1.398 . S
C335 C336 1.352 . S
C336 C335 1.352 . S
C336 C337 1.384 . S
C336 H358 0.930 . S
C337 C332 1.407 . S
C337 C336 1.384 . S
C337 H359 0.929 . S
C338 O348 1.241 . S
C338 O349 1.273 . S
C339 O350 1.251 . S
C339 O351 1.268 . S
O340 Nd320 2.500 . S
O340 C322 1.258 . S
O341 Nd320 2.492 . S
O341 C322 1.239 . S
O342 Nd320 2.487 . S
O342 C329 1.241 . S
O343 Nd320 2.682 . S
O343 Nd321 2.414 . S
O343 C329 1.273 . S
O344 Nd320 2.410 . S
O344 C330 1.251 . S
O345 Nd321 2.424 . S
O345 C330 1.268 . S
O346 Nd321 2.500 . S
O346 C331 1.258 . S
O347 Nd321 2.492 . S
O347 C331 1.239 . S
O348 Nd321 2.487 . S
O348 C338 1.241 . S
O349 Nd320 2.414 . S
O349 Nd321 2.682 . S
O349 C338 1.273 . S
O350 Nd321 2.410 . S
O350 C339 1.251 . S
O351 Nd320 2.424 . S
O351 C339 1.268 . S
H352 C324 0.930 . S
H353 C325 0.929 . S
H354 C327 0.930 . S
H355 C328 0.929 . S
H356 C333 0.930 . S
H357 C334 0.929 . S
H358 C336 0.930 . S
H359 C337 0.929 . S
C360 C361 1.393 . S
C360 C362 1.394 . S
C360 H376 0.931 . S
C361 C360 1.393 . S
C361 C365 1.374 1_556 S
C362 C360 1.394 . S
C362 C363 1.365 1_556 S
C362 C366 1.531 . S
C363 C362 1.365 1_554 S
C363 C364 1.415 . S
C363 C371 1.501 1_554 S
C364 C363 1.415 . S
C364 C365 1.392 . S
C364 C367 1.511 . S
C365 C361 1.374 1_554 S
C365 C364 1.392 . S
C365 H377 0.929 . S
C366 C362 1.531 . S
C366 H378 0.960 1_556 S
C366 H379 0.962 . S
C366 H380 0.960 . S
C367 C364 1.511 . S
C367 H381 0.961 . S
C367 H382 0.961 . S
C367 H383 0.961 . S
C368 C369 1.370 . S
C368 C370 1.363 . S
C368 H384 0.931 . S
C369 C368 1.370 . S
C369 C373 1.408 1_556 S
C370 C368 1.363 . S
C370 C371 1.370 . S
C370 C374 1.524 . S
C371 C363 1.501 1_556 S
C371 C370 1.370 . S
C371 C372 1.403 1_556 S
C372 C371 1.403 1_554 S
C372 C373 1.404 . S
C372 C375 1.539 . S
C373 C369 1.408 1_554 S
C373 C372 1.404 . S
C373 H385 0.930 . S
C374 C370 1.524 . S
C374 H386 0.956 . S
C374 H387 0.961 . S
C374 H388 0.961 . S
C375 C372 1.539 . S
C375 H389 0.958 . S
C375 H390 0.961 . S
C375 H391 0.960 . S
H376 C360 0.931 . S
H377 C365 0.929 . S
H378 C366 0.960 1_554 S
H379 C366 0.962 . S
H380 C366 0.960 . S
H381 C367 0.961 . S
H382 C367 0.961 . S
H383 C367 0.961 . S
H384 C368 0.931 . S
H385 C373 0.930 . S
H386 C374 0.956 . S
H387 C374 0.961 . S
H388 C374 0.961 . S
H389 C375 0.958 . S
H390 C375 0.961 . S
H391 C375 0.960 . S
C392 C393 1.391 . S
C392 C394 1.394 . S
C392 H408 0.931 . S
C393 C392 1.391 . S
C393 C397 1.376 . S
C394 C392 1.394 . S
C394 C395 1.369 . S
C394 C398 1.531 . S
C395 C394 1.369 . S
C395 C396 1.410 . S
C395 C403 1.503 . S
C396 C395 1.410 . S
C396 C397 1.392 . S
C396 C399 1.511 . S
C397 C393 1.376 . S
C397 C396 1.392 . S
C397 H409 0.929 1_556 S
C398 C394 1.531 . S
C398 H410 0.960 . S
C398 H411 0.962 . S
C398 H412 0.960 . S
C399 C396 1.511 . S
C399 H413 0.961 1_556 S
C399 H414 0.961 1_556 S
C399 H415 0.961 . S
C400 C401 1.370 1_554 S
C400 C402 1.363 . S
C400 H416 0.931 . S
C401 C400 1.370 1_556 S
C401 C405 1.408 . S
C402 C400 1.363 . S
C402 C403 1.370 1_554 S
C402 C406 1.524 . S
C403 C395 1.503 . S
C403 C402 1.370 1_556 S
C403 C404 1.403 . S
C404 C403 1.403 . S
C404 C405 1.404 . S
C404 C407 1.539 . S
C405 C401 1.408 . S
C405 C404 1.404 . S
C405 H417 0.930 . S
C406 C402 1.524 . S
C406 H418 0.956 . S
C406 H419 0.961 . S
C406 H420 0.961 . S
C407 C404 1.539 . S
C407 H421 0.958 . S
C407 H422 0.961 . S
C407 H423 0.960 . S
H408 C392 0.931 . S
H409 C397 0.929 1_554 S
H410 C398 0.960 . S
H411 C398 0.962 . S
H412 C398 0.960 . S
H413 C399 0.961 1_554 S
H414 C399 0.961 1_554 S
H415 C399 0.961 . S
H416 C400 0.931 . S
H417 C405 0.930 . S
H418 C406 0.956 . S
H419 C406 0.961 . S
H420 C406 0.961 . S
H421 C407 0.958 . S
H422 C407 0.961 . S
H423 C407 0.960 . S
C424 C425 1.391 . S
C424 C426 1.394 1_556 S
C424 H440 0.931 . S
C425 C424 1.391 . S
C425 C429 1.376 . S
C426 C424 1.394 1_554 S
C426 C427 1.368 1_554 S
C426 C430 1.531 . S
C427 C426 1.368 1_556 S
C427 C428 1.413 . S
C427 C435 1.504 . S
C428 C427 1.413 . S
C428 C429 1.392 . S
C428 C431 1.511 . S
C429 C425 1.376 . S
C429 C428 1.392 . S
C429 H441 0.929 . S
C430 C426 1.531 . S
C430 H442 0.960 . S
C430 H443 0.962 1_554 S
C430 H444 0.960 . S
C431 C428 1.511 . S
C431 H445 0.961 . S
C431 H446 0.961 . S
C431 H447 0.961 1_556 S
C432 C433 1.370 . S
C432 C434 1.363 . S
C432 H448 0.931 . S
C433 C432 1.370 . S
C433 C437 1.408 1_556 S
C434 C432 1.363 . S
C434 C435 1.370 . S
C434 C438 1.524 . S
C435 C427 1.504 . S
C435 C434 1.370 . S
C435 C436 1.403 1_556 S
C436 C435 1.403 1_554 S
C436 C437 1.404 . S
C436 C439 1.539 . S
C437 C433 1.408 1_554 S
C437 C436 1.404 . S
C437 H449 0.930 . S
C438 C434 1.524 . S
C438 H450 0.956 . S
C438 H451 0.961 . S
C438 H452 0.961 . S
C439 C436 1.539 . S
C439 H453 0.958 . S
C439 H454 0.961 . S
C439 H455 0.960 . S
H440 C424 0.931 . S
H441 C429 0.929 . S
H442 C430 0.960 . S
H443 C430 0.962 1_556 S
H444 C430 0.960 . S
H445 C431 0.961 . S
H446 C431 0.961 . S
H447 C431 0.961 1_554 S
H448 C432 0.931 . S
H449 C437 0.930 . S
H450 C438 0.956 . S
H451 C438 0.961 . S
H452 C438 0.961 . S
H453 C439 0.958 . S
H454 C439 0.961 . S
H455 C439 0.960 . S
C456 C457 1.391 1_556 S
C456 C458 1.394 . S
C456 H472 0.931 . S
C457 C456 1.391 1_554 S
C457 C461 1.376 . S
C458 C456 1.394 . S
C458 C459 1.369 1_556 S
C458 C462 1.531 . S
C459 C458 1.369 1_554 S
C459 C460 1.410 . S
C459 C467 1.503 . S
C460 C459 1.410 . S
C460 C461 1.392 . S
C460 C463 1.511 . S
C461 C457 1.376 . S
C461 C460 1.392 . S
C461 H473 0.929 . S
C462 C458 1.531 . S
C462 H474 0.960 . S
C462 H475 0.962 . S
C462 H476 0.960 . S
C463 C460 1.511 . S
C463 H477 0.961 . S
C463 H478 0.961 . S
C463 H479 0.961 . S
C464 C465 1.370 . S
C464 C466 1.363 . S
C464 H480 0.931 . S
C465 C464 1.370 . S
C465 C469 1.408 1_554 S
C466 C464 1.363 . S
C466 C467 1.370 . S
C466 C470 1.524 . S
C467 C459 1.503 . S
C467 C466 1.370 . S
C467 C468 1.403 1_554 S
C468 C467 1.403 1_556 S
C468 C469 1.404 . S
C468 C471 1.539 . S
C469 C465 1.408 1_556 S
C469 C468 1.404 . S
C469 H481 0.930 . S
C470 C466 1.524 . S
C470 H482 0.956 . S
C470 H483 0.961 . S
C470 H484 0.961 . S
C471 C468 1.539 . S
C471 H485 0.958 . S
C471 H486 0.961 . S
C471 H487 0.960 . S
H472 C456 0.931 . S
H473 C461 0.929 . S
H474 C462 0.960 . S
H475 C462 0.962 . S
H476 C462 0.960 . S
H477 C463 0.961 . S
H478 C463 0.961 . S
H479 C463 0.961 . S
H480 C464 0.931 . S
H481 C469 0.930 . S
H482 C470 0.956 . S
H483 C470 0.961 . S
H484 C470 0.961 . S
H485 C471 0.958 . S
H486 C471 0.961 . S
H487 C471 0.960 . S
C488 C489 1.391 1_556 S
C488 C490 1.394 . S
C488 H504 0.931 . S
C489 C488 1.391 1_554 S
C489 C493 1.376 . S
C490 C488 1.394 . S
C490 C491 1.369 1_556 S
C490 C494 1.531 . S
C491 C490 1.369 1_554 S
C491 C492 1.410 . S
C491 C499 1.503 . S
C492 C491 1.410 . S
C492 C493 1.392 . S
C492 C495 1.511 . S
C493 C489 1.376 . S
C493 C492 1.392 . S
C493 H505 0.929 . S
C494 C490 1.531 . S
C494 H506 0.960 . S
C494 H507 0.962 . S
C494 H508 0.960 . S
C495 C492 1.511 . S
C495 H509 0.961 . S
C495 H510 0.961 . S
C495 H511 0.961 . S
C496 C497 1.370 . S
C496 C498 1.363 . S
C496 H512 0.931 . S
C497 C496 1.370 . S
C497 C501 1.408 1_554 S
C498 C496 1.363 . S
C498 C499 1.370 . S
C498 C502 1.524 . S
C499 C491 1.503 . S
C499 C498 1.370 . S
C499 C500 1.403 1_554 S
C500 C499 1.403 1_556 S
C500 C501 1.404 . S
C500 C503 1.539 . S
C501 C497 1.408 1_556 S
C501 C500 1.404 . S
C501 H513 0.930 . S
C502 C498 1.524 . S
C502 H514 0.956 . S
C502 H515 0.961 . S
C502 H516 0.961 . S
C503 C500 1.539 . S
C503 H517 0.958 . S
C503 H518 0.961 . S
C503 H519 0.960 . S
H504 C488 0.931 . S
H505 C493 0.929 . S
H506 C494 0.960 . S
H507 C494 0.962 . S
H508 C494 0.960 . S
H509 C495 0.961 . S
H510 C495 0.961 . S
H511 C495 0.961 . S
H512 C496 0.931 . S
H513 C501 0.930 . S
H514 C502 0.956 . S
H515 C502 0.961 . S
H516 C502 0.961 . S
H517 C503 0.958 . S
H518 C503 0.961 . S
H519 C503 0.960 . S
C520 C521 1.391 . S
C520 C522 1.394 . S
C520 H536 0.931 . S
C521 C520 1.391 . S
C521 C525 1.376 . S
C522 C520 1.394 . S
C522 C523 1.369 . S
C522 C526 1.531 . S
C523 C522 1.369 . S
C523 C524 1.410 . S
C523 C531 1.503 . S
C524 C523 1.410 . S
C524 C525 1.392 . S
C524 C527 1.517 . S
C525 C521 1.376 . S
C525 C524 1.392 . S
C525 H537 0.929 . S
C526 C522 1.531 . S
C526 H538 0.960 . S
C526 H539 0.962 . S
C526 H540 0.960 . S
C527 C524 1.517 . S
C527 H541 0.947 1_554 S
C527 H542 0.952 1_554 S
C527 H543 0.978 . S
C528 C529 1.370 1_556 S
C528 C530 1.363 . S
C528 H544 0.931 . S
C529 C528 1.370 1_554 S
C529 C533 1.408 . S
C530 C528 1.363 . S
C530 C531 1.370 1_556 S
C530 C534 1.524 . S
C531 C523 1.503 . S
C531 C530 1.370 1_554 S
C531 C532 1.403 . S
C532 C531 1.403 . S
C532 C533 1.404 . S
C532 C535 1.539 . S
C533 C529 1.408 . S
C533 C532 1.404 . S
C533 H545 0.930 . S
C534 C530 1.524 . S
C534 H546 0.956 . S
C534 H547 0.961 . S
C534 H548 0.961 . S
C535 C532 1.539 . S
C535 H549 0.958 . S
C535 H550 0.961 . S
C535 H551 0.960 . S
H536 C520 0.931 . S
H537 C525 0.929 . S
H538 C526 0.960 . S
H539 C526 0.962 . S
H540 C526 0.960 . S
H541 C527 0.947 1_556 S
H542 C527 0.952 1_556 S
H543 C527 0.978 . S
H544 C528 0.931 . S
H545 C533 0.930 . S
H546 C534 0.956 . S
H547 C534 0.961 . S
H548 C534 0.961 . S
H549 C535 0.958 . S
H550 C535 0.961 . S
H551 C535 0.960 . S
C552 C553 1.391 . S
C552 C554 1.394 . S
C552 H568 0.931 . S
C553 C552 1.391 . S
C553 C557 1.376 . S
C554 C552 1.394 . S
C554 C555 1.369 . S
C554 C558 1.531 1_655 S
C555 C554 1.369 . S
C555 C556 1.410 . S
C555 C563 1.503 1_655 S
C556 C555 1.410 . S
C556 C557 1.392 . S
C556 C559 1.511 . S
C557 C553 1.376 . S
C557 C556 1.392 . S
C557 H569 0.929 . S
C558 C554 1.531 1_455 S
C558 H570 0.960 . S
C558 H571 0.962 . S
C558 H572 0.960 1_455 S
C559 C556 1.511 . S
C559 H573 0.961 . S
C559 H574 0.961 1_655 S
C559 H575 0.961 . S
C560 C561 1.370 . S
C560 C562 1.363 . S
C560 H576 0.931 . S
C561 C560 1.370 . S
C561 C565 1.408 . S
C562 C560 1.363 . S
C562 C563 1.370 . S
C562 C566 1.524 . S
C563 C555 1.503 1_455 S
C563 C562 1.370 . S
C563 C564 1.403 . S
C564 C563 1.403 . S
C564 C565 1.404 . S
C564 C567 1.539 . S
C565 C561 1.408 . S
C565 C564 1.404 . S
C565 H577 0.930 . S
C566 C562 1.524 . S
C566 H578 0.956 . S
C566 H579 0.961 . S
C566 H580 0.961 . S
C567 C564 1.539 . S
C567 H581 0.958 . S
C567 H582 0.961 . S
C567 H583 0.960 . S
H568 C552 0.931 . S
H569 C557 0.929 . S
H570 C558 0.960 . S
H571 C558 0.962 . S
H572 C558 0.960 1_655 S
H573 C559 0.961 . S
H574 C559 0.961 1_455 S
H575 C559 0.961 . S
H576 C560 0.931 . S
H577 C565 0.930 . S
H578 C566 0.956 . S
H579 C566 0.961 . S
H580 C566 0.961 . S
H581 C567 0.958 . S
H582 C567 0.961 . S
H583 C567 0.960 . S
C584 C585 1.391 . S
C584 C586 1.394 . S
C584 H600 0.931 . S
C585 C584 1.391 . S
C585 C589 1.376 . S
C586 C584 1.394 . S
C586 C587 1.369 . S
C586 C590 1.531 . S
C587 C586 1.369 . S
C587 C588 1.410 . S
C587 C595 1.503 . S
C588 C587 1.410 . S
C588 C589 1.392 . S
C588 C591 1.511 . S
C589 C585 1.376 . S
C589 C588 1.392 . S
C589 H601 0.929 . S
C590 C586 1.531 . S
C590 H602 0.960 . S
C590 H603 0.962 . S
C590 H604 0.960 . S
C591 C588 1.511 . S
C591 H605 0.961 . S
C591 H606 0.961 . S
C591 H607 0.961 . S
C592 C593 1.370 . S
C592 C594 1.363 . S
C592 H608 0.931 . S
C593 C592 1.370 . S
C593 C597 1.408 . S
C594 C592 1.363 . S
C594 C595 1.370 . S
C594 C598 1.524 . S
C595 C587 1.503 . S
C595 C594 1.370 . S
C595 C596 1.403 . S
C596 C595 1.403 . S
C596 C597 1.404 . S
C596 C599 1.539 . S
C597 C593 1.408 . S
C597 C596 1.404 . S
C597 H609 0.930 . S
C598 C594 1.524 . S
C598 H610 0.956 . S
C598 H611 0.961 . S
C598 H612 0.961 . S
C599 C596 1.539 . S
C599 H613 0.958 . S
C599 H614 0.961 . S
C599 H615 0.960 . S
H600 C584 0.931 . S
H601 C589 0.929 . S
H602 C590 0.960 . S
H603 C590 0.962 . S
H604 C590 0.960 . S
H605 C591 0.961 . S
H606 C591 0.961 . S
H607 C591 0.961 . S
H608 C592 0.931 . S
H609 C597 0.930 . S
H610 C598 0.956 . S
H611 C598 0.961 . S
H612 C598 0.961 . S
H613 C599 0.958 . S
H614 C599 0.961 . S
H615 C599 0.960 . S
C616 C617 1.391 . S
C616 C618 1.394 . S
C616 H632 0.931 . S
C617 C616 1.391 . S
C617 C621 1.376 . S
C618 C616 1.394 . S
C618 C619 1.369 . S
C618 C622 1.531 . S
C619 C618 1.369 . S
C619 C620 1.410 . S
C619 C627 1.503 1_545 S
C620 C619 1.410 . S
C620 C621 1.392 . S
C620 C623 1.511 . S
C621 C617 1.376 . S
C621 C620 1.392 . S
C621 H633 0.929 . S
C622 C618 1.531 . S
C622 H634 0.960 1_545 S
C622 H635 0.940 1_545 S
C622 H636 0.960 . S
C623 C620 1.511 . S
C623 H637 0.961 . S
C623 H638 0.961 1_545 S
C623 H639 0.961 . S
C624 C625 1.370 . S
C624 C626 1.363 . S
C624 H640 0.931 . S
C625 C624 1.370 . S
C625 C629 1.408 . S
C626 C624 1.363 . S
C626 C627 1.370 . S
C626 C630 1.524 . S
C627 C619 1.503 1_565 S
C627 C626 1.370 . S
C627 C628 1.403 . S
C628 C627 1.403 . S
C628 C629 1.404 . S
C628 C631 1.539 . S
C629 C625 1.408 . S
C629 C628 1.404 . S
C629 H641 0.930 . S
C630 C626 1.524 . S
C630 H642 0.956 . S
C630 H643 0.961 . S
C630 H644 0.961 . S
C631 C628 1.539 . S
C631 H645 0.958 . S
C631 H646 0.961 . S
C631 H647 0.960 . S
H632 C616 0.931 . S
H633 C621 0.929 . S
H634 C622 0.960 1_565 S
H635 C622 0.940 1_565 S
H636 C622 0.960 . S
H637 C623 0.961 . S
H638 C623 0.961 1_565 S
H639 C623 0.961 . S
H640 C624 0.931 . S
H641 C629 0.930 . S
H642 C630 0.956 . S
H643 C630 0.961 . S
H644 C630 0.961 . S
H645 C631 0.958 . S
H646 C631 0.961 . S
H647 C631 0.960 . S
C648 C649 1.391 . S
C648 C650 1.394 . S
C648 H664 0.931 . S
C649 C648 1.391 . S
C649 C653 1.376 . S
C650 C648 1.394 . S
C650 C651 1.369 . S
C650 C654 1.531 . S
C651 C650 1.369 . S
C651 C652 1.410 . S
C651 C659 1.503 . S
C652 C651 1.410 . S
C652 C653 1.392 . S
C652 C655 1.511 . S
C653 C649 1.376 . S
C653 C652 1.392 . S
C653 H665 0.929 . S
C654 C650 1.531 . S
C654 H666 0.960 . S
C654 H667 0.962 . S
C654 H668 0.960 . S
C655 C652 1.511 . S
C655 H669 0.961 . S
C655 H670 0.961 . S
C655 H671 0.961 . S
C656 C657 1.370 . S
C656 C658 1.363 . S
C656 H672 0.931 . S
C657 C656 1.370 . S
C657 C661 1.408 . S
C658 C656 1.363 . S
C658 C659 1.370 . S
C658 C662 1.524 . S
C659 C651 1.503 . S
C659 C658 1.370 . S
C659 C660 1.403 . S
C660 C659 1.403 . S
C660 C661 1.404 . S
C660 C663 1.539 . S
C661 C657 1.408 . S
C661 C660 1.404 . S
C661 H673 0.930 . S
C662 C658 1.524 . S
C662 H674 0.956 . S
C662 H675 0.961 . S
C662 H676 0.961 . S
C663 C660 1.539 . S
C663 H677 0.958 . S
C663 H678 0.961 . S
C663 H679 0.960 . S
H664 C648 0.931 . S
H665 C653 0.929 . S
H666 C654 0.960 . S
H667 C654 0.962 . S
H668 C654 0.960 . S
H669 C655 0.961 . S
H670 C655 0.961 . S
H671 C655 0.961 . S
H672 C656 0.931 . S
H673 C661 0.930 . S
H674 C662 0.956 . S
H675 C662 0.961 . S
H676 C662 0.961 . S
H677 C663 0.958 . S
H678 C663 0.961 . S
H679 C663 0.960 . S
C680 C681 1.391 . S
C680 C682 1.394 . S
C680 H696 0.931 . S
C681 C680 1.391 . S
C681 C685 1.376 . S
C682 C680 1.394 . S
C682 C683 1.369 . S
C682 C686 1.531 . S
C683 C682 1.369 . S
C683 C684 1.410 . S
C683 C691 1.503 . S
C684 C683 1.410 . S
C684 C685 1.392 . S
C684 C687 1.511 . S
C685 C681 1.376 . S
C685 C684 1.392 . S
C685 H697 0.929 . S
C686 C682 1.531 . S
C686 H698 0.960 . S
C686 H699 0.962 . S
C686 H700 0.960 . S
C687 C684 1.511 . S
C687 H701 0.961 . S
C687 H702 0.961 . S
C687 H703 0.961 . S
C688 C689 1.370 . S
C688 C690 1.363 . S
C688 H704 0.931 . S
C689 C688 1.370 . S
C689 C693 1.408 . S
C690 C688 1.363 . S
C690 C691 1.370 . S
C690 C694 1.524 . S
C691 C683 1.503 . S
C691 C690 1.370 . S
C691 C692 1.403 . S
C692 C691 1.403 . S
C692 C693 1.404 . S
C692 C695 1.539 . S
C693 C689 1.408 . S
C693 C692 1.404 . S
C693 H705 0.930 . S
C694 C690 1.524 . S
C694 H706 0.956 . S
C694 H707 0.961 . S
C694 H708 0.961 . S
C695 C692 1.539 . S
C695 H709 0.958 . S
C695 H710 0.961 . S
C695 H711 0.960 . S
H696 C680 0.931 . S
H697 C685 0.929 . S
H698 C686 0.960 . S
H699 C686 0.962 . S
H700 C686 0.960 . S
H701 C687 0.961 . S
H702 C687 0.961 . S
H703 C687 0.961 . S
H704 C688 0.931 . S
H705 C693 0.930 . S
H706 C694 0.956 . S
H707 C694 0.961 . S
H708 C694 0.961 . S
H709 C695 0.958 . S
H710 C695 0.961 . S
H711 C695 0.960 . S
C712 C713 1.391 . S
C712 C714 1.394 . S
C712 H728 0.931 . S
C713 C712 1.391 . S
C713 C717 1.376 . S
C714 C712 1.394 . S
C714 C715 1.369 . S
C714 C718 1.531 . S
C715 C714 1.369 . S
C715 C716 1.410 . S
C715 C723 1.503 . S
C716 C715 1.410 . S
C716 C717 1.392 . S
C716 C719 1.511 . S
C717 C713 1.376 . S
C717 C716 1.392 . S
C717 H729 0.929 . S
C718 C714 1.531 . S
C718 H730 0.960 . S
C718 H731 0.962 . S
C718 H732 0.960 . S
C719 C716 1.511 . S
C719 H733 0.961 . S
C719 H734 0.961 . S
C719 H735 0.961 . S
C720 C721 1.370 . S
C720 C722 1.363 . S
C720 H736 0.931 . S
C721 C720 1.370 . S
C721 C725 1.408 . S
C722 C720 1.363 . S
C722 C723 1.370 . S
C722 C726 1.524 . S
C723 C715 1.503 . S
C723 C722 1.370 . S
C723 C724 1.403 . S
C724 C723 1.403 . S
C724 C725 1.404 . S
C724 C727 1.539 . S
C725 C721 1.408 . S
C725 C724 1.404 . S
C725 H737 0.930 . S
C726 C722 1.524 . S
C726 H738 0.956 . S
C726 H739 0.961 . S
C726 H740 0.961 . S
C727 C724 1.539 . S
C727 H741 0.958 . S
C727 H742 0.961 . S
C727 H743 0.960 . S
H728 C712 0.931 . S
H729 C717 0.929 . S
H730 C718 0.960 . S
H731 C718 0.962 . S
H732 C718 0.960 . S
H733 C719 0.961 . S
H734 C719 0.961 . S
H735 C719 0.961 . S
H736 C720 0.931 . S
H737 C725 0.930 . S
H738 C726 0.956 . S
H739 C726 0.961 . S
H740 C726 0.961 . S
H741 C727 0.958 . S
H742 C727 0.961 . S
H743 C727 0.960 . S
C744 C745 1.391 . S
C744 C746 1.394 . S
C744 H760 0.931 . S
C745 C744 1.391 . S
C745 C749 1.376 . S
C746 C744 1.394 . S
C746 C747 1.369 . S
C746 C750 1.531 . S
C747 C746 1.369 . S
C747 C748 1.410 . S
C747 C755 1.503 . S
C748 C747 1.410 . S
C748 C749 1.392 . S
C748 C751 1.511 . S
C749 C745 1.376 . S
C749 C748 1.392 . S
C749 H761 0.929 . S
C750 C746 1.531 . S
C750 H762 0.960 . S
C750 H763 0.962 . S
C750 H764 0.960 . S
C751 C748 1.511 . S
C751 H765 0.961 . S
C751 H766 0.961 . S
C751 H767 0.961 . S
C752 C753 1.370 . S
C752 C754 1.363 . S
C752 H768 0.931 . S
C753 C752 1.370 . S
C753 C757 1.408 . S
C754 C752 1.363 . S
C754 C755 1.370 . S
C754 C758 1.524 . S
C755 C747 1.503 . S
C755 C754 1.370 . S
C755 C756 1.403 . S
C756 C755 1.403 . S
C756 C757 1.404 . S
C756 C759 1.539 . S
C757 C753 1.408 . S
C757 C756 1.404 . S
C757 H769 0.930 . S
C758 C754 1.524 . S
C758 H770 0.956 . S
C758 H771 0.961 . S
C758 H772 0.961 . S
C759 C756 1.539 . S
C759 H773 0.958 . S
C759 H774 0.961 . S
C759 H775 0.960 . S
H760 C744 0.931 . S
H761 C749 0.929 . S
H762 C750 0.960 . S
H763 C750 0.962 . S
H764 C750 0.960 . S
H765 C751 0.961 . S
H766 C751 0.961 . S
H767 C751 0.961 . S
H768 C752 0.931 . S
H769 C757 0.930 . S
H770 C758 0.956 . S
H771 C758 0.961 . S
H772 C758 0.961 . S
H773 C759 0.958 . S
H774 C759 0.961 . S
H775 C759 0.960 . S
C776 C777 1.391 . S
C776 C778 1.394 . S
C776 H792 0.931 . S
C777 C776 1.391 . S
C777 C781 1.376 . S
C778 C776 1.394 . S
C778 C779 1.369 . S
C778 C782 1.531 . S
C779 C778 1.369 . S
C779 C780 1.410 . S
C779 C787 1.503 . S
C780 C779 1.410 . S
C780 C781 1.392 . S
C780 C783 1.511 . S
C781 C777 1.376 . S
C781 C780 1.392 . S
C781 H793 0.929 . S
C782 C778 1.531 . S
C782 H794 0.960 . S
C782 H795 0.962 . S
C782 H796 0.960 . S
C783 C780 1.511 . S
C783 H797 0.961 . S
C783 H798 0.961 . S
C783 H799 0.961 . S
C784 C785 1.370 . S
C784 C786 1.363 . S
C784 H800 0.931 . S
C785 C784 1.370 . S
C785 C789 1.408 . S
C786 C784 1.363 . S
C786 C787 1.370 . S
C786 C790 1.524 . S
C787 C779 1.503 . S
C787 C786 1.370 . S
C787 C788 1.403 . S
C788 C787 1.403 . S
C788 C789 1.404 . S
C788 C791 1.539 . S
C789 C785 1.408 . S
C789 C788 1.404 . S
C789 H801 0.930 . S
C790 C786 1.524 . S
C790 H802 0.956 . S
C790 H803 0.961 . S
C790 H804 0.961 . S
C791 C788 1.539 . S
C791 H805 0.958 . S
C791 H806 0.961 . S
C791 H807 0.960 . S
H792 C776 0.931 . S
H793 C781 0.929 . S
H794 C782 0.960 . S
H795 C782 0.962 . S
H796 C782 0.960 . S
H797 C783 0.961 . S
H798 C783 0.961 . S
H799 C783 0.961 . S
H800 C784 0.931 . S
H801 C789 0.930 . S
H802 C790 0.956 . S
H803 C790 0.961 . S
H804 C790 0.961 . S
H805 C791 0.958 . S
H806 C791 0.961 . S
H807 C791 0.960 . S
C808 C809 1.391 . S
C808 C810 1.394 . S
C808 H824 0.931 . S
C809 C808 1.391 . S
C809 C813 1.376 . S
C810 C808 1.394 . S
C810 C811 1.369 . S
C810 C814 1.531 . S
C811 C810 1.369 . S
C811 C812 1.410 . S
C811 C819 1.503 . S
C812 C811 1.410 . S
C812 C813 1.392 . S
C812 C815 1.511 . S
C813 C809 1.376 . S
C813 C812 1.392 . S
C813 H825 0.929 . S
C814 C810 1.531 . S
C814 H826 0.960 . S
C814 H827 0.962 . S
C814 H828 0.960 . S
C815 C812 1.511 . S
C815 H829 0.961 . S
C815 H830 0.961 . S
C815 H831 0.961 . S
C816 C817 1.370 . S
C816 C818 1.363 . S
C816 H832 0.931 . S
C817 C816 1.370 . S
C817 C821 1.408 . S
C818 C816 1.363 . S
C818 C819 1.370 . S
C818 C822 1.524 . S
C819 C811 1.503 . S
C819 C818 1.370 . S
C819 C820 1.403 . S
C820 C819 1.403 . S
C820 C821 1.404 . S
C820 C823 1.539 . S
C821 C817 1.408 . S
C821 C820 1.404 . S
C821 H833 0.930 . S
C822 C818 1.524 . S
C822 H834 0.956 . S
C822 H835 0.961 . S
C822 H836 0.961 . S
C823 C820 1.539 . S
C823 H837 0.958 . S
C823 H838 0.961 . S
C823 H839 0.960 . S
H824 C808 0.931 . S
H825 C813 0.929 . S
H826 C814 0.960 . S
H827 C814 0.962 . S
H828 C814 0.960 . S
H829 C815 0.961 . S
H830 C815 0.961 . S
H831 C815 0.961 . S
H832 C816 0.931 . S
H833 C821 0.930 . S
H834 C822 0.956 . S
H835 C822 0.961 . S
H836 C822 0.961 . S
H837 C823 0.958 . S
H838 C823 0.961 . S
H839 C823 0.960 . S
C840 C841 1.391 . S
C840 C842 1.394 . S
C840 H856 0.931 . S
C841 C840 1.391 . S
C841 C845 1.376 . S
C842 C840 1.394 . S
C842 C843 1.369 . S
C842 C846 1.531 . S
C843 C842 1.369 . S
C843 C844 1.410 . S
C843 C851 1.503 . S
C844 C843 1.410 . S
C844 C845 1.392 . S
C844 C847 1.511 . S
C845 C841 1.376 . S
C845 C844 1.392 . S
C845 H857 0.929 . S
C846 C842 1.531 . S
C846 H858 0.960 . S
C846 H859 0.962 . S
C846 H860 0.960 . S
C847 C844 1.511 . S
C847 H861 0.961 . S
C847 H862 0.961 . S
C847 H863 0.961 . S
C848 C849 1.370 . S
C848 C850 1.363 . S
C848 H864 0.931 . S
C849 C848 1.370 . S
C849 C853 1.408 . S
C850 C848 1.363 . S
C850 C851 1.370 . S
C850 C854 1.524 . S
C851 C843 1.503 . S
C851 C850 1.370 . S
C851 C852 1.403 . S
C852 C851 1.403 . S
C852 C853 1.404 . S
C852 C855 1.539 . S
C853 C849 1.408 . S
C853 C852 1.404 . S
C853 H865 0.930 . S
C854 C850 1.524 . S
C854 H866 0.956 . S
C854 H867 0.961 . S
C854 H868 0.961 . S
C855 C852 1.539 . S
C855 H869 0.958 . S
C855 H870 0.961 . S
C855 H871 0.960 . S
H856 C840 0.931 . S
H857 C845 0.929 . S
H858 C846 0.960 . S
H859 C846 0.962 . S
H860 C846 0.960 . S
H861 C847 0.961 . S
H862 C847 0.961 . S
H863 C847 0.961 . S
H864 C848 0.931 . S
H865 C853 0.930 . S
H866 C854 0.956 . S
H867 C854 0.961 . S
H868 C854 0.961 . S
H869 C855 0.958 . S
H870 C855 0.961 . S
H871 C855 0.960 . S
C872 C873 1.391 . S
C872 C874 1.394 . S
C872 H888 0.931 . S
C873 C872 1.391 . S
C873 C877 1.376 . S
C874 C872 1.394 . S
C874 C875 1.369 . S
C874 C878 1.531 . S
C875 C874 1.369 . S
C875 C876 1.410 . S
C875 C883 1.503 . S
C876 C875 1.410 . S
C876 C877 1.392 . S
C876 C879 1.511 . S
C877 C873 1.376 . S
C877 C876 1.392 . S
C877 H889 0.929 . S
C878 C874 1.531 . S
C878 H890 0.960 1_565 S
C878 H891 0.962 . S
C878 H892 0.960 . S
C879 C876 1.511 . S
C879 H893 0.961 . S
C879 H894 0.961 . S
C879 H895 0.961 . S
C880 C881 1.370 1_565 S
C880 C882 1.363 . S
C880 H896 0.931 . S
C881 C880 1.370 1_545 S
C881 C885 1.408 . S
C882 C880 1.363 . S
C882 C883 1.370 . S
C882 C886 1.524 . S
C883 C875 1.503 . S
C883 C882 1.370 . S
C883 C884 1.403 1_565 S
C884 C883 1.403 1_545 S
C884 C885 1.404 . S
C884 C887 1.539 . S
C885 C881 1.408 . S
C885 C884 1.404 . S
C885 H897 0.930 . S
C886 C882 1.524 . S
C886 H898 0.956 . S
C886 H899 0.961 . S
C886 H900 0.961 . S
C887 C884 1.539 . S
C887 H901 0.958 . S
C887 H902 0.961 . S
C887 H903 0.960 . S
H888 C872 0.931 . S
H889 C877 0.929 . S
H890 C878 0.960 1_545 S
H891 C878 0.962 . S
H892 C878 0.960 . S
H893 C879 0.961 . S
H894 C879 0.961 . S
H895 C879 0.961 . S
H896 C880 0.931 . S
H897 C885 0.930 . S
H898 C886 0.956 . S
H899 C886 0.961 . S
H900 C886 0.961 . S
H901 C887 0.958 . S
H902 C887 0.961 . S
H903 C887 0.960 . S
C904 C905 1.391 . S
C904 C906 1.394 . S
C904 H920 0.931 . S
C905 C904 1.391 . S
C905 C909 1.376 . S
C906 C904 1.394 . S
C906 C907 1.369 . S
C906 C910 1.531 1_455 S
C907 C906 1.369 . S
C907 C908 1.410 . S
C907 C915 1.503 . S
C908 C907 1.410 . S
C908 C909 1.392 . S
C908 C911 1.511 . S
C909 C905 1.376 . S
C909 C908 1.392 . S
C909 H921 0.929 . S
C910 C906 1.531 1_655 S
C910 H922 0.960 . S
C910 H923 0.962 . S
C910 H924 0.960 . S
C911 C908 1.511 . S
C911 H925 0.961 . S
C911 H926 0.961 . S
C911 H927 0.961 . S
C912 C913 1.370 . S
C912 C914 1.363 1_655 S
C912 H928 0.931 . S
C913 C912 1.370 . S
C913 C917 1.408 . S
C914 C912 1.363 1_455 S
C914 C915 1.370 . S
C914 C918 1.524 . S
C915 C907 1.503 . S
C915 C914 1.370 . S
C915 C916 1.403 . S
C916 C915 1.403 . S
C916 C917 1.404 1_455 S
C916 C919 1.539 . S
C917 C913 1.408 . S
C917 C916 1.404 1_655 S
C917 H929 0.930 . S
C918 C914 1.524 . S
C918 H930 0.956 . S
C918 H931 0.961 . S
C918 H932 0.961 . S
C919 C916 1.539 . S
C919 H933 0.969 . S
C919 H934 0.961 . S
C919 H935 0.960 . S
H920 C904 0.931 . S
H921 C909 0.929 . S
H922 C910 0.960 . S
H923 C910 0.962 . S
H924 C910 0.960 . S
H925 C911 0.961 . S
H926 C911 0.961 . S
H927 C911 0.961 . S
H928 C912 0.931 . S
H929 C917 0.930 . S
H930 C918 0.956 . S
H931 C918 0.961 . S
H932 C918 0.961 . S
H933 C919 0.969 . S
H934 C919 0.961 . S
H935 C919 0.960 . S
C936 C937 1.391 . S
C936 C938 1.394 . S
C936 H952 0.931 . S
C937 C936 1.391 . S
C937 C941 1.376 . S
C938 C936 1.394 . S
C938 C939 1.369 . S
C938 C942 1.531 . S
C939 C938 1.369 . S
C939 C940 1.410 . S
C939 C947 1.503 . S
C940 C939 1.410 . S
C940 C941 1.392 . S
C940 C943 1.511 . S
C941 C937 1.376 . S
C941 C940 1.392 . S
C941 H953 0.929 . S
C942 C938 1.531 . S
C942 H954 0.960 . S
C942 H955 0.962 . S
C942 H956 0.960 . S
C943 C940 1.511 . S
C943 H957 0.961 . S
C943 H958 0.961 . S
C943 H959 0.961 . S
C944 C945 1.370 . S
C944 C946 1.363 . S
C944 H960 0.931 . S
C945 C944 1.370 . S
C945 C949 1.408 . S
C946 C944 1.363 . S
C946 C947 1.370 . S
C946 C950 1.524 . S
C947 C939 1.503 . S
C947 C946 1.370 . S
C947 C948 1.403 . S
C948 C947 1.403 . S
C948 C949 1.404 . S
C948 C951 1.539 1_455 S
C949 C945 1.408 . S
C949 C948 1.404 . S
C949 H961 0.930 1_455 S
C950 C946 1.524 . S
C950 H962 0.956 . S
C950 H963 0.961 . S
C950 H964 0.961 . S
C951 C948 1.539 1_655 S
C951 H965 0.958 . S
C951 H966 0.961 . S
C951 H967 0.960 1_655 S
H952 C936 0.931 . S
H953 C941 0.929 . S
H954 C942 0.960 . S
H955 C942 0.962 . S
H956 C942 0.960 . S
H957 C943 0.961 . S
H958 C943 0.961 . S
H959 C943 0.961 . S
H960 C944 0.931 . S
H961 C949 0.930 1_655 S
H962 C950 0.956 . S
H963 C950 0.961 . S
H964 C950 0.961 . S
H965 C951 0.958 . S
H966 C951 0.961 . S
H967 C951 0.960 1_455 S
C968 C969 1.391 . S
C968 C970 1.394 . S
C968 H984 0.931 . S
C969 C968 1.391 . S
C969 C973 1.376 . S
C970 C968 1.394 . S
C970 C971 1.369 . S
C970 C974 1.531 . S
C971 C970 1.369 . S
C971 C972 1.410 . S
C971 C979 1.503 . S
C972 C971 1.410 . S
C972 C973 1.392 . S
C972 C975 1.511 . S
C973 C969 1.376 . S
C973 C972 1.392 . S
C973 H985 0.929 . S
C974 C970 1.531 . S
C974 H986 0.960 . S
C974 H987 0.962 . S
C974 H988 0.960 . S
C975 C972 1.511 . S
C975 H989 0.961 . S
C975 H990 0.961 . S
C975 H991 0.961 . S
C976 C977 1.370 . S
C976 C978 1.363 . S
C976 H992 0.931 . S
C977 C976 1.370 . S
C977 C981 1.408 . S
C978 C976 1.363 . S
C978 C979 1.370 . S
C978 C982 1.524 . S
C979 C971 1.503 . S
C979 C978 1.370 . S
C979 C980 1.403 . S
C980 C979 1.403 . S
C980 C981 1.404 . S
C980 C983 1.539 . S
C981 C977 1.408 . S
C981 C980 1.404 . S
C981 H993 0.930 . S
C982 C978 1.524 . S
C982 H994 0.956 . S
C982 H995 0.961 . S
C982 H996 0.961 . S
C983 C980 1.539 . S
C983 H997 0.958 . S
C983 H998 0.961 . S
C983 H999 0.960 . S
H984 C968 0.931 . S
H985 C973 0.929 . S
H986 C974 0.960 . S
H987 C974 0.962 . S
H988 C974 0.960 . S
H989 C975 0.961 . S
H990 C975 0.961 . S
H991 C975 0.961 . S
H992 C976 0.931 . S
H993 C981 0.930 . S
H994 C982 0.956 . S
H995 C982 0.961 . S
H996 C982 0.961 . S
H997 C983 0.958 . S
H998 C983 0.961 . S
H999 C983 0.960 . S
C1000 C1001 1.391 . S
C1000 C1002 1.394 . S
C1000 H1016 0.931 . S
C1001 C1000 1.391 . S
C1001 C1005 1.376 . S
C1002 C1000 1.394 . S
C1002 C1003 1.369 . S
C1002 C1006 1.531 . S
C1003 C1002 1.369 . S
C1003 C1004 1.410 . S
C1003 C1011 1.503 . S
C1004 C1003 1.410 . S
C1004 C1005 1.392 . S
C1004 C1007 1.511 . S
C1005 C1001 1.376 . S
C1005 C1004 1.392 . S
C1005 H1017 0.929 . S
C1006 C1002 1.531 . S
C1006 H1018 0.960 . S
C1006 H1019 0.962 . S
C1006 H1020 0.960 . S
C1007 C1004 1.511 . S
C1007 H1021 0.961 . S
C1007 H1022 0.961 . S
C1007 H1023 0.961 . S
C1008 C1009 1.370 . S
C1008 C1010 1.363 . S
C1008 H1024 0.931 . S
C1009 C1008 1.370 . S
C1009 C1013 1.408 . S
C1010 C1008 1.363 . S
C1010 C1011 1.370 . S
C1010 C1014 1.524 . S
C1011 C1003 1.503 . S
C1011 C1010 1.370 . S
C1011 C1012 1.403 . S
C1012 C1011 1.403 . S
C1012 C1013 1.404 . S
C1012 C1015 1.539 . S
C1013 C1009 1.408 . S
C1013 C1012 1.404 . S
C1013 H1025 0.930 . S
C1014 C1010 1.524 . S
C1014 H1026 0.956 . S
C1014 H1027 0.961 . S
C1014 H1028 0.961 . S
C1015 C1012 1.539 . S
C1015 H1029 0.958 . S
C1015 H1030 0.961 1_565 S
C1015 H1031 0.960 1_565 S
H1016 C1000 0.931 . S
H1017 C1005 0.929 . S
H1018 C1006 0.960 . S
H1019 C1006 0.962 . S
H1020 C1006 0.960 . S
H1021 C1007 0.961 . S
H1022 C1007 0.961 . S
H1023 C1007 0.961 . S
H1024 C1008 0.931 . S
H1025 C1013 0.930 . S
H1026 C1014 0.956 . S
H1027 C1014 0.961 . S
H1028 C1014 0.961 . S
H1029 C1015 0.958 . S
H1030 C1015 0.961 1_545 S
H1031 C1015 0.960 1_545 S
C1032 C1033 1.391 . S
C1032 C1034 1.394 . S
C1032 H1048 0.931 . S
C1033 C1032 1.391 . S
C1033 C1037 1.376 . S
C1034 C1032 1.394 . S
C1034 C1035 1.369 . S
C1034 C1038 1.531 . S
C1035 C1034 1.369 . S
C1035 C1036 1.410 . S
C1035 C1043 1.503 . S
C1036 C1035 1.410 . S
C1036 C1037 1.392 . S
C1036 C1039 1.511 . S
C1037 C1033 1.376 . S
C1037 C1036 1.392 . S
C1037 H1049 0.929 . S
C1038 C1034 1.531 . S
C1038 H1050 0.960 . S
C1038 H1051 0.962 . S
C1038 H1052 0.960 . S
C1039 C1036 1.511 . S
C1039 H1053 0.961 . S
C1039 H1054 0.961 . S
C1039 H1055 0.961 . S
C1040 C1041 1.370 . S
C1040 C1042 1.363 . S
C1040 H1056 0.931 . S
C1041 C1040 1.370 . S
C1041 C1045 1.408 . S
C1042 C1040 1.363 . S
C1042 C1043 1.370 . S
C1042 C1046 1.524 . S
C1043 C1035 1.503 . S
C1043 C1042 1.370 . S
C1043 C1044 1.403 . S
C1044 C1043 1.403 . S
C1044 C1045 1.404 . S
C1044 C1047 1.539 . S
C1045 C1041 1.408 . S
C1045 C1044 1.404 . S
C1045 H1057 0.930 . S
C1046 C1042 1.524 . S
C1046 H1058 0.956 . S
C1046 H1059 0.961 . S
C1046 H1060 0.961 . S
C1047 C1044 1.539 . S
C1047 H1061 0.958 . S
C1047 H1062 0.961 . S
C1047 H1063 0.960 . S
H1048 C1032 0.931 . S
H1049 C1037 0.929 . S
H1050 C1038 0.960 . S
H1051 C1038 0.962 . S
H1052 C1038 0.960 . S
H1053 C1039 0.961 . S
H1054 C1039 0.961 . S
H1055 C1039 0.961 . S
H1056 C1040 0.931 . S
H1057 C1045 0.930 . S
H1058 C1046 0.956 . S
H1059 C1046 0.961 . S
H1060 C1046 0.961 . S
H1061 C1047 0.958 . S
H1062 C1047 0.961 . S
H1063 C1047 0.960 . S
C1064 C1065 1.391 . S
C1064 C1066 1.394 . S
C1064 H1080 0.931 . S
C1065 C1064 1.391 . S
C1065 C1069 1.376 . S
C1066 C1064 1.394 . S
C1066 C1067 1.369 . S
C1066 C1070 1.531 . S
C1067 C1066 1.369 . S
C1067 C1068 1.410 . S
C1067 C1075 1.503 . S
C1068 C1067 1.410 . S
C1068 C1069 1.392 . S
C1068 C1071 1.511 . S
C1069 C1065 1.376 . S
C1069 C1068 1.392 . S
C1069 H1081 0.929 . S
C1070 C1066 1.531 . S
C1070 H1082 0.960 . S
C1070 H1083 0.962 . S
C1070 H1084 0.960 . S
C1071 C1068 1.511 . S
C1071 H1085 0.961 . S
C1071 H1086 0.961 . S
C1071 H1087 0.961 . S
C1072 C1073 1.370 . S
C1072 C1074 1.363 . S
C1072 H1088 0.931 . S
C1073 C1072 1.370 . S
C1073 C1077 1.408 . S
C1074 C1072 1.363 . S
C1074 C1075 1.370 . S
C1074 C1078 1.524 . S
C1075 C1067 1.503 . S
C1075 C1074 1.370 . S
C1075 C1076 1.403 . S
C1076 C1075 1.403 . S
C1076 C1077 1.404 . S
C1076 C1079 1.539 . S
C1077 C1073 1.408 . S
C1077 C1076 1.404 . S
C1077 H1089 0.930 . S
C1078 C1074 1.524 . S
C1078 H1090 0.956 . S
C1078 H1091 0.961 . S
C1078 H1092 0.961 . S
C1079 C1076 1.539 . S
C1079 H1093 0.958 . S
C1079 H1094 0.961 . S
C1079 H1095 0.960 . S
H1080 C1064 0.931 . S
H1081 C1069 0.929 . S
H1082 C1070 0.960 . S
H1083 C1070 0.962 . S
H1084 C1070 0.960 . S
H1085 C1071 0.961 . S
H1086 C1071 0.961 . S
H1087 C1071 0.961 . S
H1088 C1072 0.931 . S
H1089 C1077 0.930 . S
H1090 C1078 0.956 . S
H1091 C1078 0.961 . S
H1092 C1078 0.961 . S
H1093 C1079 0.958 . S
H1094 C1079 0.961 . S
H1095 C1079 0.960 . S
C1096 C1097 1.391 . S
C1096 C1098 1.394 . S
C1096 H1112 0.931 . S
C1097 C1096 1.391 . S
C1097 C1101 1.376 . S
C1098 C1096 1.394 . S
C1098 C1099 1.369 . S
C1098 C1102 1.531 . S
C1099 C1098 1.369 . S
C1099 C1100 1.410 . S
C1099 C1107 1.503 . S
C1100 C1099 1.410 . S
C1100 C1101 1.392 . S
C1100 C1103 1.511 . S
C1101 C1097 1.376 . S
C1101 C1100 1.392 . S
C1101 H1113 0.929 . S
C1102 C1098 1.531 . S
C1102 H1114 0.960 . S
C1102 H1115 0.962 . S
C1102 H1116 0.960 . S
C1103 C1100 1.511 . S
C1103 H1117 0.961 . S
C1103 H1118 0.961 . S
C1103 H1119 0.961 . S
C1104 C1105 1.370 . S
C1104 C1106 1.363 . S
C1104 H1120 0.931 . S
C1105 C1104 1.370 . S
C1105 C1109 1.408 . S
C1106 C1104 1.363 . S
C1106 C1107 1.370 . S
C1106 C1110 1.524 . S
C1107 C1099 1.503 . S
C1107 C1106 1.370 . S
C1107 C1108 1.403 . S
C1108 C1107 1.403 . S
C1108 C1109 1.404 . S
C1108 C1111 1.539 . S
C1109 C1105 1.408 . S
C1109 C1108 1.404 . S
C1109 H1121 0.930 . S
C1110 C1106 1.524 . S
C1110 H1122 0.956 . S
C1110 H1123 0.961 . S
C1110 H1124 0.961 . S
C1111 C1108 1.539 . S
C1111 H1125 0.958 . S
C1111 H1126 0.961 . S
C1111 H1127 0.960 . S
H1112 C1096 0.931 . S
H1113 C1101 0.929 . S
H1114 C1102 0.960 . S
H1115 C1102 0.962 . S
H1116 C1102 0.960 . S
H1117 C1103 0.961 . S
H1118 C1103 0.961 . S
H1119 C1103 0.961 . S
H1120 C1104 0.931 . S
H1121 C1109 0.930 . S
H1122 C1110 0.956 . S
H1123 C1110 0.961 . S
H1124 C1110 0.961 . S
H1125 C1111 0.958 . S
H1126 C1111 0.961 . S
H1127 C1111 0.960 . S
C1128 C1129 1.391 . S
C1128 C1130 1.394 . S
C1128 H1144 0.931 . S
C1129 C1128 1.391 . S
C1129 C1133 1.376 . S
C1130 C1128 1.394 . S
C1130 C1131 1.369 . S
C1130 C1134 1.531 . S
C1131 C1130 1.369 . S
C1131 C1132 1.410 . S
C1131 C1139 1.503 . S
C1132 C1131 1.410 . S
C1132 C1133 1.392 . S
C1132 C1135 1.511 . S
C1133 C1129 1.376 . S
C1133 C1132 1.392 . S
C1133 H1145 0.929 . S
C1134 C1130 1.531 . S
C1134 H1146 0.960 . S
C1134 H1147 0.962 . S
C1134 H1148 0.960 . S
C1135 C1132 1.511 . S
C1135 H1149 0.961 . S
C1135 H1150 0.961 . S
C1135 H1151 0.961 . S
C1136 C1137 1.370 . S
C1136 C1138 1.363 . S
C1136 H1152 0.931 . S
C1137 C1136 1.370 . S
C1137 C1141 1.408 . S
C1138 C1136 1.363 . S
C1138 C1139 1.370 . S
C1138 C1142 1.524 . S
C1139 C1131 1.503 . S
C1139 C1138 1.370 . S
C1139 C1140 1.403 . S
C1140 C1139 1.403 . S
C1140 C1141 1.404 . S
C1140 C1143 1.539 . S
C1141 C1137 1.408 . S
C1141 C1140 1.404 . S
C1141 H1153 0.930 . S
C1142 C1138 1.524 . S
C1142 H1154 0.956 . S
C1142 H1155 0.961 . S
C1142 H1156 0.961 . S
C1143 C1140 1.539 . S
C1143 H1157 0.958 . S
C1143 H1158 0.961 . S
C1143 H1159 0.960 . S
H1144 C1128 0.931 . S
H1145 C1133 0.929 . S
H1146 C1134 0.960 . S
H1147 C1134 0.962 . S
H1148 C1134 0.960 . S
H1149 C1135 0.961 . S
H1150 C1135 0.961 . S
H1151 C1135 0.961 . S
H1152 C1136 0.931 . S
H1153 C1141 0.930 . S
H1154 C1142 0.956 . S
H1155 C1142 0.961 . S
H1156 C1142 0.961 . S
H1157 C1143 0.958 . S
H1158 C1143 0.961 . S
H1159 C1143 0.960 . S
C1160 C1161 1.391 . S
C1160 C1162 1.394 . S
C1160 H1176 0.931 . S
C1161 C1160 1.391 . S
C1161 C1165 1.376 . S
C1162 C1160 1.394 . S
C1162 C1163 1.369 . S
C1162 C1166 1.531 . S
C1163 C1162 1.369 . S
C1163 C1164 1.410 . S
C1163 C1171 1.503 1_565 S
C1164 C1163 1.410 . S
C1164 C1165 1.392 . S
C1164 C1167 1.511 1_565 S
C1165 C1161 1.376 . S
C1165 C1164 1.392 . S
C1165 H1177 0.929 . S
C1166 C1162 1.531 . S
C1166 H1178 0.960 . S
C1166 H1179 0.962 . S
C1166 H1180 0.960 . S
C1167 C1164 1.511 1_545 S
C1167 H1181 0.961 . S
C1167 H1182 0.961 . S
C1167 H1183 0.961 1_545 S
C1168 C1169 1.370 . S
C1168 C1170 1.363 . S
C1168 H1184 0.931 . S
C1169 C1168 1.370 . S
C1169 C1173 1.408 . S
C1170 C1168 1.363 . S
C1170 C1171 1.370 . S
C1170 C1174 1.524 . S
C1171 C1163 1.503 1_545 S
C1171 C1170 1.370 . S
C1171 C1172 1.403 . S
C1172 C1171 1.403 . S
C1172 C1173 1.404 . S
C1172 C1175 1.539 1_545 S
C1173 C1169 1.408 . S
C1173 C1172 1.404 . S
C1173 H1185 0.930 . S
C1174 C1170 1.524 . S
C1174 H1186 0.956 . S
C1174 H1187 0.961 . S
C1174 H1188 0.961 . S
C1175 C1172 1.539 1_565 S
C1175 H1189 0.958 . S
C1175 H1190 0.961 . S
C1175 H1191 0.960 . S
H1176 C1160 0.931 . S
H1177 C1165 0.929 . S
H1178 C1166 0.960 . S
H1179 C1166 0.962 . S
H1180 C1166 0.960 . S
H1181 C1167 0.961 . S
H1182 C1167 0.961 . S
H1183 C1167 0.961 1_565 S
H1184 C1168 0.931 . S
H1185 C1173 0.930 . S
H1186 C1174 0.956 . S
H1187 C1174 0.961 . S
H1188 C1174 0.961 . S
H1189 C1175 0.958 . S
H1190 C1175 0.961 . S
H1191 C1175 0.960 . S
C1192 C1193 1.391 . S
C1192 C1194 1.394 . S
C1192 H1208 0.931 . S
C1193 C1192 1.391 . S
C1193 C1197 1.376 . S
C1194 C1192 1.394 . S
C1194 C1195 1.369 . S
C1194 C1198 1.531 . S
C1195 C1194 1.369 . S
C1195 C1196 1.410 . S
C1195 C1203 1.503 1_655 S
C1196 C1195 1.410 . S
C1196 C1197 1.392 . S
C1196 C1199 1.511 1_655 S
C1197 C1193 1.376 . S
C1197 C1196 1.392 . S
C1197 H1209 0.929 . S
C1198 C1194 1.531 . S
C1198 H1210 0.960 . S
C1198 H1211 0.962 . S
C1198 H1212 0.960 . S
C1199 C1196 1.511 1_455 S
C1199 H1213 0.961 . S
C1199 H1214 0.961 . S
C1199 H1215 0.961 . S
C1200 C1201 1.370 . S
C1200 C1202 1.363 . S
C1200 H1216 0.931 . S
C1201 C1200 1.370 . S
C1201 C1205 1.408 . S
C1202 C1200 1.363 . S
C1202 C1203 1.370 . S
C1202 C1206 1.524 1_455 S
C1203 C1195 1.503 1_455 S
C1203 C1202 1.370 . S
C1203 C1204 1.403 . S
C1204 C1203 1.403 . S
C1204 C1205 1.404 . S
C1204 C1207 1.539 . S
C1205 C1201 1.408 . S
C1205 C1204 1.404 . S
C1205 H1217 0.930 . S
C1206 C1202 1.524 1_655 S
C1206 H1218 0.956 . S
C1206 H1219 0.961 . S
C1206 H1220 0.961 . S
C1207 C1204 1.539 . S
C1207 H1221 0.958 . S
C1207 H1222 0.961 . S
C1207 H1223 0.960 . S
H1208 C1192 0.931 . S
H1209 C1197 0.929 . S
H1210 C1198 0.960 . S
H1211 C1198 0.962 . S
H1212 C1198 0.960 . S
H1213 C1199 0.961 . S
H1214 C1199 0.961 . S
H1215 C1199 0.961 . S
H1216 C1200 0.931 . S
H1217 C1205 0.930 . S
H1218 C1206 0.956 . S
H1219 C1206 0.961 . S
H1220 C1206 0.961 . S
H1221 C1207 0.958 . S
H1222 C1207 0.961 . S
H1223 C1207 0.960 . S
C361 C50 1.445 . S
C369 C6 1.493 . S
C393 C90 1.424 . S
C401 C46 1.499 . S
C425 C86 1.488 . S
C433 C10 1.443 . S
C457 C99 1.616 . S
C465 C55 1.538 . S
C489 C95 1.567 . S
C497 C19 1.600 . S
C521 C15 1.539 . S
C529 C59 1.603 . S
C553 C126 1.488 . S
C561 C170 1.444 . S
C585 C210 1.415 . S
C593 C166 1.501 . S
C617 C206 1.505 . S
C625 C130 1.428 . S
C649 C175 1.538 . S
C657 C219 1.607 . S
C681 C215 1.575 . S
C689 C139 1.598 . S
C713 C179 1.583 . S
C721 C135 1.560 . S
C745 C290 1.405 . S
C753 C246 1.501 . S
C777 C286 1.477 . S
C785 C330 1.457 . S
C809 C326 1.482 . S
C817 C250 1.453 . S
C841 C339 1.590 . S
C849 C295 1.559 1_565 S
C873 C335 1.578 1_455 S
C881 C259 1.596 . S
C905 C255 1.550 . S
C913 C299 1.600 . S
C937 C209 2.291 . S
C945 C18 2.598 . S
C969 C129 2.303 . S
C977 C58 2.597 . S
C1001 C98 2.595 . S
C1009 C169 2.305 . S
C1033 C89 2.297 . S
C1041 C258 2.605 . S
C1065 C9 2.298 . S
C1073 C298 2.604 . S
C1097 C338 2.590 . S
C1105 C49 2.309 . S
C1129 C138 2.602 . S
C1137 C329 2.323 . S
C1161 C178 2.598 . S
C1169 C249 2.304 . S
C1193 C289 2.279 . S
C1201 C218 2.602 . S
