# Generated by pormake.
# Topology wiv, (6)-cn, num edge types: 1
# Building blocks:
#     Node 0, Type 0, BuildingBlock: HISSIN_clean_sbu_0, # of connection points: 6
#     Node 1, Type 0, BuildingBlock: HISSIN_clean_sbu_0, # of connection points: 6
#     Node 2, Type 0, BuildingBlock: HISSIN_clean_sbu_0, # of connection points: 6
#     Node 3, Type 0, BuildingBlock: HISSIN_clean_sbu_0, # of connection points: 6
#     Node 4, Type 0, BuildingBlock: HISSIN_clean_sbu_0, # of connection points: 6
#     Node 5, Type 0, BuildingBlock: HISSIN_clean_sbu_0, # of connection points: 6
#     Node 6, Type 0, BuildingBlock: HISSIN_clean_sbu_0, # of connection points: 6
#     Node 7, Type 0, BuildingBlock: HISSIN_clean_sbu_0, # of connection points: 6
#     Node 8, Type 0, BuildingBlock: HISSIN_clean_sbu_0, # of connection points: 6
#     Node 9, Type 0, BuildingBlock: HISSIN_clean_sbu_0, # of connection points: 6
#     Node 10, Type 0, BuildingBlock: HISSIN_clean_sbu_0, # of connection points: 6
#     Node 11, Type 0, BuildingBlock: HISSIN_clean_sbu_0, # of connection points: 6
#     Node 12, Type 0, BuildingBlock: HISSIN_clean_sbu_0, # of connection points: 6
#     Node 13, Type 0, BuildingBlock: HISSIN_clean_sbu_0, # of connection points: 6
#     Node 14, Type 0, BuildingBlock: HISSIN_clean_sbu_0, # of connection points: 6
#     Node 15, Type 0, BuildingBlock: HISSIN_clean_sbu_0, # of connection points: 6
#     Edge 16, Type (0, 0), None
#     Edge 17, Type (0, 0), None
#     Edge 18, Type (0, 0), None
#     Edge 19, Type (0, 0), None
#     Edge 20, Type (0, 0), None
#     Edge 21, Type (0, 0), None
#     Edge 22, Type (0, 0), None
#     Edge 23, Type (0, 0), None
#     Edge 24, Type (0, 0), None
#     Edge 25, Type (0, 0), None
#     Edge 26, Type (0, 0), None
#     Edge 27, Type (0, 0), None
#     Edge 28, Type (0, 0), None
#     Edge 29, Type (0, 0), None
#     Edge 30, Type (0, 0), None
#     Edge 31, Type (0, 0), None
#     Edge 32, Type (0, 0), None
#     Edge 33, Type (0, 0), None
#     Edge 34, Type (0, 0), None
#     Edge 35, Type (0, 0), None
#     Edge 36, Type (0, 0), None
#     Edge 37, Type (0, 0), None
#     Edge 38, Type (0, 0), None
#     Edge 39, Type (0, 0), None
#     Edge 40, Type (0, 0), None
#     Edge 41, Type (0, 0), None
#     Edge 42, Type (0, 0), None
#     Edge 43, Type (0, 0), None
#     Edge 44, Type (0, 0), None
#     Edge 45, Type (0, 0), None
#     Edge 46, Type (0, 0), None
#     Edge 47, Type (0, 0), None
#     Edge 48, Type (0, 0), None
#     Edge 49, Type (0, 0), None
#     Edge 50, Type (0, 0), None
#     Edge 51, Type (0, 0), None
#     Edge 52, Type (0, 0), None
#     Edge 53, Type (0, 0), None
#     Edge 54, Type (0, 0), None
#     Edge 55, Type (0, 0), None
#     Edge 56, Type (0, 0), None
#     Edge 57, Type (0, 0), None
#     Edge 58, Type (0, 0), None
#     Edge 59, Type (0, 0), None
#     Edge 60, Type (0, 0), None
#     Edge 61, Type (0, 0), None
#     Edge 62, Type (0, 0), None
#     Edge 63, Type (0, 0), None
# Relax obj value: 0.332
# Max RMSD: 0.337
# Mean RMSD: 0.337
data_MOF--net-wiv--node1-HISSIN_clean_sbu_0--edge1-none
_symmetry_space_group_name_H-M    P1
_symmetry_Int_Tables_number       1
_symmetry_cell_setting            triclinic
loop_
_symmetry_equiv_pos_as_xyz
'x, y, z'
_cell_length_a     20.433694
_cell_length_b     20.660522
_cell_length_c     14.215137
_cell_angle_alpha  89.999539
_cell_angle_beta   89.999799
_cell_angle_gamma 89.733425
loop_
_atom_site_label
_atom_site_type_symbol
_atom_site_fract_x
_atom_site_fract_y
_atom_site_fract_z
_atom_type_partial_charge
Eu0 Eu 0.08946 -0.06126 0.30009 0.0
Eu1 Eu 0.23768 -0.0495 0.15613 0.0
C2 C 0.19414 0.79893 0.28833 0.0
C3 C 0.01599 -0.09867 0.51247 0.0
C4 C 0.07264 0.87523 0.53657 0.0
C5 C 0.00123 -0.07409 0.68037 0.0
C6 C 0.10381 -0.10541 0.61049 0.0
C7 C -0.0225 -0.07981 0.58493 0.0
C8 C 0.08278 -0.06936 0.69784 0.0
C9 C 0.0001 -0.10111 0.41286 0.0
O10 O 0.13967 -0.11723 0.12622 0.0
O11 O 0.13338 -0.11695 0.13415 0.0
C12 C 0.1162 0.85603 1.04649 0.0
O13 O 0.12737 0.06689 0.30951 0.0
O14 O 0.31844 -0.04989 1.04608 0.0
O15 O 0.21603 -0.05431 1.01553 0.0
O16 O 0.21824 0.07094 0.19963 0.0
C17 C 0.16557 0.10201 0.24389 0.0
O18 O 0.17484 0.03529 0.39065 0.0
O19 O 0.26875 0.04019 0.28356 0.0
O20 O 0.23505 0.83358 0.22829 0.0
O21 O -0.00971 -0.0476 0.36727 0.0
O22 O 0.04154 0.86253 0.36844 0.0
O23 O 0.13494 0.8254 0.3085 0.0
C24 C 0.26834 0.01012 0.91195 0.0
C25 C 0.20898 0.04527 0.91067 0.0
C26 C 0.22465 -0.0595 0.80662 0.0
C27 C 0.14963 0.01718 0.87385 0.0
C28 C 0.27847 -0.0234 0.83236 0.0
C29 C 0.14921 -0.0323 0.79565 0.0
C30 C 0.27236 -0.04057 0.98454 0.0
C31 C 0.24362 0.05127 0.37472 0.0
H32 H 0.10011 0.84108 0.49508 0.0
H33 H -0.03494 -0.06546 0.73404 0.0
H34 H 0.09916 -0.08084 0.67061 0.0
H35 H -0.07044 -0.08406 0.56376 0.0
H36 H 0.20456 0.08406 0.96111 0.0
H37 H 0.23928 -0.10741 0.78256 0.0
H38 H 0.13349 -0.01292 0.8211 0.0
H39 H 0.32658 -0.04491 0.82137 0.0
Eu40 Eu -0.04657 0.53261 1.08191 0.0
Eu41 Eu -0.05934 0.67669 0.92641 0.0
C42 C 0.10177 0.61338 0.99043 0.0
C43 C 0.02524 0.51517 0.32406 0.0
C44 C 0.05607 0.57622 0.32422 0.0
C45 C -0.04438 0.55087 0.43576 0.0
C46 C 0.02279 0.63228 0.36165 0.0
C47 C -0.00413 0.50131 0.40606 0.0
C48 C -0.02406 0.62764 0.44477 0.0
C49 C -0.02836 0.5095 0.25537 0.0
O50 O 0.02462 0.59046 0.83175 0.0
O51 O 0.04674 0.50982 0.9526 0.0
C52 C 0.05279 0.52909 0.85743 0.0
O53 O 0.83466 0.53401 1.00583 0.0
O54 O -0.02719 0.77075 0.87224 0.0
O55 O 0.87385 0.74689 0.87374 0.0
O56 O 0.81951 0.63783 0.93742 0.0
C57 C 0.79518 0.57643 0.95327 0.0
O58 O 0.87357 0.61986 1.11051 0.0
O59 O 0.87338 0.62815 1.09812 0.0
O60 O 0.06565 0.66194 0.94596 0.0
O61 O -0.04346 0.4603 0.20268 0.0
O62 O -0.04202 0.56355 0.21833 0.0
O63 O 0.07133 0.55799 1.02708 0.0
C64 C -0.08545 0.76039 0.72893 0.0
C65 C -0.1119 0.70344 0.71061 0.0
C66 C -0.0711 0.7719 0.55787 0.0
C67 C -0.09765 0.67078 0.63378 0.0
C68 C -0.07416 0.79729 0.65233 0.0
C69 C -0.06395 0.69155 0.54331 0.0
C70 C -0.08268 0.77841 0.82842 0.0
C71 C 0.8599 0.64855 0.19262 0.0
H72 H 0.09302 0.58358 0.27111 0.0
H73 H -0.09159 0.53237 0.45879 0.0
H74 H -0.00663 0.64423 0.4171 0.0
H75 H -0.02132 0.4521 0.41677 0.0
H76 H 0.85421 0.68126 0.7575 0.0
H77 H -0.06555 0.80685 0.50248 0.0
H78 H -0.0743 0.67506 0.57261 0.0
H79 H -0.07999 0.84473 0.67143 0.0
Eu80 Eu 0.68546 0.82657 0.30009 0.0
Eu81 Eu 0.53724 0.81481 0.15613 0.0
C82 C 0.58078 -0.03362 0.28833 0.0
C83 C 0.75893 0.86398 0.51246 0.0
C84 C 0.70228 -0.10992 0.53657 0.0
C85 C 0.7737 0.8394 0.68036 0.0
C86 C 0.67112 0.87073 0.61049 0.0
C87 C 0.79742 0.84513 0.58493 0.0
C88 C 0.69215 0.83468 0.69784 0.0
C89 C 0.77482 0.86643 0.41285 0.0
O90 O 0.63525 0.88254 0.12622 0.0
O91 O 0.64154 0.88226 0.13415 0.0
C92 C 0.65872 -0.09072 1.04649 0.0
O93 O 0.64755 0.69842 0.30951 0.0
O94 O 0.45648 0.8152 1.04608 0.0
O95 O 0.5589 0.81962 1.01553 0.0
O96 O 0.55669 0.69437 0.19963 0.0
C97 C 0.60935 0.6633 0.24389 0.0
O98 O 0.60008 0.73002 0.39065 0.0
O99 O 0.50617 0.72512 0.28356 0.0
O100 O 0.53987 -0.06827 0.22829 0.0
O101 O 0.78463 0.81292 0.36727 0.0
O102 O 0.73338 -0.09722 0.36843 0.0
O103 O 0.63998 -0.06008 0.3085 0.0
C104 C 0.50658 0.75519 0.91195 0.0
C105 C 0.56594 0.72004 0.91067 0.0
C106 C 0.55027 0.82481 0.80662 0.0
C107 C 0.62529 0.74813 0.87385 0.0
C108 C 0.49645 0.78871 0.83236 0.0
C109 C 0.62571 0.79761 0.79565 0.0
C110 C 0.50257 0.80588 0.98454 0.0
C111 C 0.53131 0.71403 0.37472 0.0
H112 H 0.67481 -0.07577 0.49508 0.0
H113 H 0.80986 0.83077 0.73403 0.0
H114 H 0.67576 0.84615 0.67061 0.0
H115 H 0.84537 0.84938 0.56375 0.0
H116 H 0.57036 0.68126 0.96112 0.0
H117 H 0.53564 0.87272 0.78256 0.0
H118 H 0.64143 0.77823 0.82109 0.0
H119 H 0.44834 0.81022 0.82137 0.0
Eu120 Eu 0.82149 0.2327 1.08191 0.0
Eu121 Eu 0.83426 0.08862 0.92641 0.0
C122 C 0.67315 0.15193 0.99043 0.0
C123 C 0.74968 0.25014 0.32405 0.0
C124 C 0.71885 0.1891 0.32421 0.0
C125 C 0.8193 0.21444 0.43576 0.0
C126 C 0.75212 0.13304 0.36165 0.0
C127 C 0.77905 0.264 0.40606 0.0
C128 C 0.79898 0.13767 0.44477 0.0
C129 C 0.80328 0.25581 0.25536 0.0
O130 O 0.7503 0.17485 0.83175 0.0
O131 O 0.72818 0.25549 0.9526 0.0
C132 C 0.72213 0.23622 0.85743 0.0
O133 O -0.05974 0.2313 1.00582 0.0
O134 O 0.80211 -0.00544 0.87224 0.0
O135 O -0.09893 0.01842 0.87373 0.0
O136 O -0.04459 0.12748 0.93742 0.0
C137 C -0.02026 0.18888 0.95327 0.0
O138 O -0.09865 0.14545 1.11051 0.0
O139 O -0.09846 0.13716 1.09812 0.0
O140 O 0.70927 0.10337 0.94596 0.0
O141 O 0.81839 0.30501 0.20267 0.0
O142 O 0.81694 0.20176 0.21832 0.0
O143 O 0.70359 0.20732 1.02708 0.0
C144 C 0.86037 0.00492 0.72893 0.0
C145 C 0.88682 0.06187 0.7106 0.0
C146 C 0.84601 -0.00659 0.55787 0.0
C147 C 0.87258 0.09454 0.63378 0.0
C148 C 0.84908 -0.03198 0.65233 0.0
C149 C 0.83887 0.07376 0.5433 0.0
C150 C 0.8576 -0.0131 0.82842 0.0
C151 C -0.08497 0.11676 0.19261 0.0
H152 H 0.6819 0.18174 0.2711 0.0
H153 H 0.86651 0.23295 0.45879 0.0
H154 H 0.78155 0.12108 0.41709 0.0
H155 H 0.79625 0.31322 0.41676 0.0
H156 H -0.07929 0.08405 0.7575 0.0
H157 H 0.84047 -0.04154 0.50247 0.0
H158 H 0.84923 0.09025 0.5726 0.0
H159 H 0.85491 -0.07942 0.67143 0.0
Eu160 Eu 0.09286 0.33388 0.17174 0.0
Eu161 Eu 0.23852 0.32215 0.3272 0.0
C162 C 0.19485 0.47818 0.20355 0.0
C163 C 0.00978 0.348 0.97345 0.0
C164 C 0.0677 0.37291 0.95458 0.0
C165 C -0.00183 0.33316 0.80241 0.0
C166 C 0.10042 0.3592 0.87801 0.0
C167 C -0.02736 0.33658 0.89712 0.0
C168 C 0.07986 0.32614 0.78769 0.0
C169 C -0.01002 0.3507 1.07225 0.0
O170 O 0.14766 0.39875 0.35838 0.0
O171 O 0.13901 0.3992 0.34568 0.0
C172 C 0.11778 0.4095 0.44081 0.0
O173 O 0.11358 0.20912 0.18994 0.0
O174 O 0.31479 0.31843 0.4422 0.0
O175 O 0.21076 0.31708 0.4654 0.0
O176 O 0.21785 0.20561 0.2736 0.0
C177 C 0.16303 0.17433 0.23656 0.0
O178 O 0.17772 0.25163 1.07691 0.0
O179 O 0.26145 0.23131 0.19514 0.0
O180 O 0.23734 0.43896 0.25519 0.0
O181 O -0.00277 0.29817 0.12219 0.0
O182 O 0.02074 0.3967 1.11271 0.0
O183 O 0.13273 0.45408 0.18604 0.0
C184 C 0.26215 0.24826 0.56478 0.0
C185 C 0.20174 0.21495 0.56291 0.0
C186 C 0.22209 0.31269 0.67923 0.0
C187 C 0.14355 0.2419 0.60554 0.0
C188 C 0.27416 0.27562 0.64869 0.0
C189 C 0.14558 0.28908 0.68801 0.0
C190 C 0.26665 0.30323 0.49859 0.0
C191 C 0.23957 0.22379 1.10152 0.0
H192 H 0.08938 0.40794 0.99874 0.0
H193 H -0.0376 0.3287 0.74728 0.0
H194 H 0.09617 0.33622 0.81649 0.0
H195 H -0.07445 0.34661 0.91737 0.0
H196 H 0.19574 0.17904 0.50848 0.0
H197 H 0.23856 0.35978 0.70368 0.0
H198 H 0.12936 0.27111 0.6603 0.0
H199 H 0.32302 0.29448 0.6611 0.0
Eu200 Eu 0.32371 0.53577 0.90754 0.0
Eu201 Eu 0.33895 0.67952 1.06262 0.0
C202 C 0.17574 0.61457 1.00014 0.0
C203 C 0.24774 0.51699 0.67106 0.0
C204 C 0.21626 0.57812 0.6733 0.0
C205 C 0.31514 0.55375 0.55832 0.0
C206 C 0.2478 0.63473 0.63488 0.0
C207 C 0.27525 0.50405 0.58731 0.0
C208 C 0.29376 0.63027 0.55081 0.0
C209 C 0.30363 0.51112 0.73617 0.0
O210 O 0.2545 0.59471 0.15751 0.0
O211 O 0.23165 0.51351 1.03766 0.0
C212 C 0.22548 0.5338 0.13215 0.0
O213 O 0.44117 0.53293 0.97884 0.0
O214 O 0.31413 0.77959 1.10415 0.0
O215 O 0.40908 0.73646 0.13813 0.0
O216 O 0.45928 0.63651 1.04419 0.0
C217 C 0.48171 0.57391 1.02906 0.0
O218 O 0.40321 0.62346 0.87755 0.0
O219 O 0.40386 0.63183 0.88995 0.0
O220 O 0.21207 0.66267 1.04642 0.0
O221 O 0.31936 0.46259 0.79012 0.0
O222 O 0.31899 0.56557 0.77044 0.0
O223 O 0.20652 0.5598 0.96227 0.0
C224 C 0.34533 0.75927 0.25931 0.0
C225 C 0.34859 0.69607 0.27138 0.0
C226 C 0.3433 0.77377 0.43189 0.0
C227 C 0.36228 0.67377 0.3579 0.0
C228 C 0.3494 0.79756 0.33628 0.0
C229 C 0.33099 0.69394 0.44991 0.0
C230 C 0.3624 0.77592 0.16487 0.0
C231 C 0.4158 0.65298 0.79567 0.0
H232 H 0.17967 0.58482 0.72725 0.0
H233 H 0.36217 0.53547 0.53359 0.0
H234 H 0.27691 0.64723 0.57932 0.0
H235 H 0.29235 0.45489 0.57448 0.0
H236 H 0.3897 0.67413 0.30538 0.0
H237 H 0.34295 0.8094 0.48703 0.0
H238 H 0.33822 0.67687 0.42231 0.0
H239 H 0.35982 0.84336 0.31333 0.0
Eu240 Eu 0.68206 0.43143 0.17175 0.0
Eu241 Eu 0.5364 0.44316 0.32721 0.0
C242 C 0.58007 0.28713 0.20355 0.0
C243 C 0.76514 0.41731 0.97345 0.0
C244 C 0.70722 0.3924 0.95459 0.0
C245 C 0.77675 0.43215 0.80242 0.0
C246 C 0.6745 0.40611 0.87801 0.0
C247 C 0.80228 0.42873 0.89712 0.0
C248 C 0.69506 0.43917 0.7877 0.0
C249 C 0.78494 0.41461 1.07225 0.0
O250 O 0.62726 0.36656 0.35839 0.0
O251 O 0.63591 0.36611 0.34569 0.0
C252 C 0.65714 0.35582 0.44082 0.0
O253 O 0.66135 0.55619 0.18995 0.0
O254 O 0.46013 0.44688 0.4422 0.0
O255 O 0.56416 0.44823 0.46541 0.0
O256 O 0.55707 0.5597 0.2736 0.0
C257 C 0.61189 0.59098 0.23656 0.0
O258 O 0.59721 0.51368 1.07692 0.0
O259 O 0.51348 0.534 0.19515 0.0
O260 O 0.53758 0.32635 0.2552 0.0
O261 O 0.7777 0.46714 0.12219 0.0
O262 O 0.75417 0.3686 1.11272 0.0
O263 O 0.64219 0.31123 0.18604 0.0
C264 C 0.51277 0.51705 0.56478 0.0
C265 C 0.57318 0.55036 0.56291 0.0
C266 C 0.55284 0.45263 0.67924 0.0
C267 C 0.63137 0.52342 0.60555 0.0
C268 C 0.50077 0.48969 0.6487 0.0
C269 C 0.62934 0.47623 0.68802 0.0
C270 C 0.50827 0.46208 0.4986 0.0
C271 C 0.53535 0.54152 1.10152 0.0
H272 H 0.68554 0.35737 0.99874 0.0
H273 H 0.81252 0.43661 0.74728 0.0
H274 H 0.67875 0.42909 0.8165 0.0
H275 H 0.84937 0.4187 0.91737 0.0
H276 H 0.57918 0.58627 0.50848 0.0
H277 H 0.53636 0.40553 0.70369 0.0
H278 H 0.64556 0.4942 0.6603 0.0
H279 H 0.4519 0.47084 0.6611 0.0
Eu280 Eu 0.45121 0.22955 0.90754 0.0
Eu281 Eu 0.43597 0.08579 1.06262 0.0
C282 C 0.59918 0.15074 1.00015 0.0
C283 C 0.52718 0.24832 0.67106 0.0
C284 C 0.55866 0.18719 0.6733 0.0
C285 C 0.45978 0.21156 0.55832 0.0
C286 C 0.52712 0.13058 0.63489 0.0
C287 C 0.49967 0.26126 0.5873 0.0
C288 C 0.48116 0.13504 0.55081 0.0
C289 C 0.47129 0.25419 0.73617 0.0
O290 O 0.52042 0.1706 0.15751 0.0
O291 O 0.54327 0.2518 1.03766 0.0
C292 C 0.54944 0.23152 0.13216 0.0
O293 O 0.33375 0.23239 0.97884 0.0
O294 O 0.4608 -0.01427 1.10415 0.0
O295 O 0.36584 0.02884 0.13814 0.0
O296 O 0.31564 0.12879 1.04422 0.0
C297 C 0.29323 0.19139 1.02906 0.0
O298 O 0.37172 0.14185 0.87756 0.0
O299 O 0.37106 0.13348 0.88996 0.0
O300 O 0.56285 0.10264 1.04642 0.0
O301 O 0.45557 0.30273 0.79012 0.0
O302 O 0.45593 0.19974 0.77044 0.0
O303 O 0.5684 0.20552 0.96228 0.0
C304 C 0.42959 0.00604 0.25931 0.0
C305 C 0.42633 0.06924 0.27138 0.0
C306 C 0.43162 -0.00846 0.43189 0.0
C307 C 0.41264 0.09154 0.35791 0.0
C308 C 0.42552 -0.03225 0.33628 0.0
C309 C 0.44393 0.07137 0.44991 0.0
C310 C 0.41252 -0.01061 0.16488 0.0
C311 C 0.35912 0.11233 0.79568 0.0
H312 H 0.59525 0.18049 0.72725 0.0
H313 H 0.41275 0.22984 0.53359 0.0
H314 H 0.49801 0.11808 0.57932 0.0
H315 H 0.48257 0.31042 0.57448 0.0
H316 H 0.38522 0.09118 0.30538 0.0
H317 H 0.43197 -0.04409 0.48704 0.0
H318 H 0.4367 0.08844 0.42231 0.0
H319 H 0.4151 -0.07805 0.31333 0.0
Eu320 Eu 0.59137 0.43848 0.81123 0.0
Eu321 Eu 0.73641 0.44945 0.6561 0.0
C322 C 0.6934 0.29328 0.78472 0.0
C323 C 0.50872 0.41144 1.00943 0.0
C324 C 0.56601 0.38422 1.02823 0.0
C325 C 0.49684 0.42497 0.18058 0.0
C326 C 0.59905 0.39819 1.10512 0.0
C327 C 0.47149 0.42263 1.08585 0.0
C328 C 0.57821 0.43189 0.19525 0.0
C329 C 0.48984 0.41397 0.91011 0.0
O330 O 0.64759 0.37123 0.62825 0.0
O331 O 0.63969 0.37127 0.6402 0.0
C332 C 0.61919 0.35575 0.54644 0.0
O333 O 0.60632 0.56338 0.78986 0.0
O334 O 0.81108 0.44968 0.5375 0.0
O335 O 0.70655 0.45267 0.51919 0.0
O336 O 0.71143 0.56788 0.70913 0.0
C337 C 0.65541 0.59926 0.74511 0.0
O338 O 0.67667 0.52094 0.90575 0.0
O339 O 0.75838 0.54174 0.78529 0.0
O340 O 0.73612 0.33204 0.73203 0.0
O341 O 0.49567 0.46872 0.86541 0.0
O342 O 0.52284 0.37164 0.86499 0.0
O343 O 0.63132 0.31807 0.80059 0.0
C344 C 0.75743 0.51748 0.41374 0.0
C345 C 0.69625 0.5495 0.41274 0.0
C346 C 0.72035 0.44832 0.30311 0.0
C347 C 0.63922 0.51742 0.37607 0.0
C348 C 0.77106 0.48719 0.3324 0.0
C349 C 0.64308 0.4702 0.29401 0.0
C350 C 0.76193 0.46495 0.48336 0.0
C351 C 0.7385 0.54808 0.88017 0.0
H352 H 0.58835 0.35024 0.98162 0.0
H353 H 0.46096 0.43092 0.23561 0.0
H354 H 0.59483 0.42153 0.16624 0.0
H355 H 0.42409 0.41595 1.06581 0.0
H356 H 0.68902 0.58634 0.46562 0.0
H357 H 0.73837 0.40136 0.27945 0.0
H358 H 0.6264 0.48794 0.32132 0.0
H359 H 0.82062 0.46911 0.32192 0.0
Eu360 Eu 0.45263 0.02871 0.58114 0.0
Eu361 Eu 0.44429 0.17411 0.42667 0.0
C362 C 0.6031 0.10758 0.49295 0.0
C363 C 0.52229 0.00711 0.82304 0.0
C364 C 0.55499 0.06715 0.82145 0.0
C365 C 0.45241 0.04759 0.93118 0.0
C366 C 0.52521 0.12475 0.85975 0.0
C367 C 0.4911 -0.00403 0.9045 0.0
C368 C 0.47658 0.12307 0.94076 0.0
C369 C 0.46962 0.00027 0.75312 0.0
O370 O 0.53272 0.08757 0.34046 0.0
O371 O 0.54402 0.00098 0.45502 0.0
C372 C 0.55323 0.02254 0.36206 0.0
O373 O 0.33387 0.03372 0.50697 0.0
O374 O 0.47398 0.26795 0.36903 0.0
O375 O 0.37524 0.23981 0.36963 0.0
O376 O 0.32404 0.13762 0.43653 0.0
C377 C 0.29755 0.07747 0.45201 0.0
O378 O 0.37478 0.11944 0.60897 0.0
O379 O 0.37478 0.12812 0.59669 0.0
O380 O 0.56826 0.15662 0.44755 0.0
O381 O 0.45976 -0.04779 0.69543 0.0
O382 O 0.45343 0.05501 0.71962 0.0
O383 O 0.57194 0.05262 0.52947 0.0
C384 C 0.41583 0.25592 0.22551 0.0
C385 C 0.38852 0.19963 0.20507 0.0
C386 C 0.43289 0.26908 1.05514 0.0
C387 C 0.40329 0.16808 0.12842 0.0
C388 C 0.42902 0.29349 0.15025 0.0
C389 C 0.43871 0.1884 1.03932 0.0
C390 C 0.41811 0.27303 0.32507 0.0
C391 C 0.36047 0.14919 0.69027 0.0
H392 H 0.59276 0.07277 0.76915 0.0
H393 H 0.40451 0.03132 0.95505 0.0
H394 H 0.49513 0.13899 0.91371 0.0
H395 H 0.47187 -0.05235 0.9166 0.0
H396 H 0.35383 0.17589 0.24927 0.0
H397 H 0.44008 0.30458 1.00053 0.0
H398 H 0.42757 0.17225 1.06778 0.0
H399 H 0.42201 0.34068 0.17066 0.0
Eu400 Eu 0.18355 0.32683 0.81122 0.0
Eu401 Eu 0.03851 0.31586 0.6561 0.0
C402 C 0.08152 0.47203 0.78472 0.0
C403 C 0.26621 0.35387 1.00943 0.0
C404 C 0.20891 0.38109 1.02823 0.0
C405 C 0.27808 0.34034 0.18057 0.0
C406 C 0.17588 0.36712 1.10511 0.0
C407 C 0.30343 0.34269 1.08584 0.0
C408 C 0.19671 0.33342 0.19525 0.0
C409 C 0.28508 0.35135 0.9101 0.0
O410 O 0.12733 0.39408 0.62824 0.0
O411 O 0.13523 0.39404 0.6402 0.0
C412 C 0.15573 0.40956 0.54643 0.0
O413 O 0.16861 0.20193 0.78986 0.0
O414 O -0.03616 0.31563 0.5375 0.0
O415 O 0.06837 0.31264 0.51918 0.0
O416 O 0.06349 0.19743 0.70913 0.0
C417 C 0.11952 0.16605 0.7451 0.0
O418 O 0.09825 0.24437 0.90575 0.0
O419 O 0.01654 0.22357 0.78529 0.0
O420 O 0.0388 0.43327 0.73203 0.0
O421 O 0.27926 0.29659 0.8654 0.0
O422 O 0.25208 0.39368 0.86498 0.0
O423 O 0.14361 0.44724 0.80059 0.0
C424 C 0.01749 0.24783 0.41373 0.0
C425 C 0.07867 0.21581 0.41274 0.0
C426 C 0.05457 0.31699 0.3031 0.0
C427 C 0.1357 0.24789 0.37606 0.0
C428 C 0.00386 0.27813 0.3324 0.0
C429 C 0.13184 0.29511 0.29401 0.0
C430 C 0.01299 0.30036 0.48335 0.0
C431 C 0.03642 0.21723 0.88017 0.0
H432 H 0.18657 0.41507 0.98162 0.0
H433 H 0.31396 0.33439 0.2356 0.0
H434 H 0.18009 0.34378 0.16624 0.0
H435 H 0.35083 0.34936 1.0658 0.0
H436 H 0.0859 0.17897 0.46562 0.0
H437 H 0.03656 0.36395 0.27944 0.0
H438 H 0.14852 0.27737 0.32132 0.0
H439 H -0.04569 0.2962 0.32192 0.0
Eu440 Eu 0.3223 0.7366 0.58114 0.0
Eu441 Eu 0.33063 0.5912 0.42667 0.0
C442 C 0.17182 0.65773 0.49295 0.0
C443 C 0.25263 0.75821 0.82304 0.0
C444 C 0.21993 0.69817 0.82145 0.0
C445 C 0.32252 0.71773 0.93118 0.0
C446 C 0.24971 0.64057 0.85974 0.0
C447 C 0.28382 0.76934 0.9045 0.0
C448 C 0.29834 0.64224 0.94075 0.0
C449 C 0.30531 0.76504 0.75312 0.0
O450 O 0.2422 0.67774 0.34046 0.0
O451 O 0.2309 0.76433 0.45501 0.0
C452 C 0.22169 0.74277 0.36206 0.0
O453 O 0.44105 0.73159 0.50697 0.0
O454 O 0.30094 0.49737 0.36902 0.0
O455 O 0.39968 0.5255 0.36962 0.0
O456 O 0.45088 0.62769 0.43653 0.0
C457 C 0.47737 0.68784 0.45201 0.0
O458 O 0.40014 0.64587 0.60896 0.0
O459 O 0.40014 0.63719 0.59668 0.0
O460 O 0.20666 0.6087 0.44755 0.0
O461 O 0.31516 0.8131 0.69542 0.0
O462 O 0.32149 0.7103 0.71961 0.0
O463 O 0.20298 0.71269 0.52947 0.0
C464 C 0.35909 0.5094 0.22551 0.0
C465 C 0.3864 0.56568 0.20506 0.0
C466 C 0.34203 0.49624 1.05514 0.0
C467 C 0.37163 0.59724 0.12841 0.0
C468 C 0.34589 0.47183 0.15025 0.0
C469 C 0.33621 0.57691 1.03932 0.0
C470 C 0.35681 0.49228 0.32507 0.0
C471 C 0.41445 0.61612 0.69026 0.0
H472 H 0.18216 0.69254 0.76915 0.0
H473 H 0.37041 0.73399 0.95504 0.0
H474 H 0.27979 0.62632 0.9137 0.0
H475 H 0.30305 0.81766 0.91659 0.0
H476 H 0.42109 0.58942 0.24927 0.0
H477 H 0.33484 0.46074 1.00053 0.0
H478 H 0.34735 0.59306 1.06777 0.0
H479 H 0.35291 0.42463 0.17066 0.0
Eu480 Eu 0.58831 0.83775 0.67415 0.0
Eu481 Eu 0.73499 0.821 0.82856 0.0
C482 C 0.69596 -0.02119 0.70991 0.0
C483 C 0.5121 0.838 0.47689 0.0
C484 C 0.57634 0.83218 0.46984 0.0
C485 C 0.50167 0.83619 0.30443 0.0
C486 C 0.60394 0.8444 0.38424 0.0
C487 C 0.47636 0.84466 0.39782 0.0
C488 C 0.58133 0.81853 0.28864 0.0
C489 C 0.49378 0.86099 0.56771 0.0
O490 O 0.64782 -0.09948 0.85956 0.0
O491 O 0.63909 -0.09862 0.84687 0.0
C492 C 0.61931 -0.08852 0.94258 0.0
O493 O 0.60614 0.71131 0.6901 0.0
O494 O 0.80696 0.81753 0.9486 0.0
O495 O 0.70348 0.81558 0.96324 0.0
O496 O 0.70965 0.70453 0.7751 0.0
C497 C 0.65466 0.67408 0.73611 0.0
O498 O 0.6742 0.75457 0.57908 0.0
O499 O 0.75618 0.73026 0.69846 0.0
O500 O 0.73804 -0.06222 0.75854 0.0
O501 O 0.48654 0.81703 0.63389 0.0
O502 O 0.53484 -0.09294 0.58957 0.0
O503 O 0.63224 -0.0429 0.69611 0.0
C504 C 0.75039 0.742 1.05363 0.0
C505 C 0.68821 0.71251 1.04728 0.0
C506 C 0.72037 0.75571 0.20839 0.0
C507 C 0.63403 0.74299 1.09496 0.0
C508 C 0.76874 0.75241 0.14247 0.0
C509 C 0.6436 0.77516 0.19012 0.0
C510 C 0.75748 0.80219 1.00207 0.0
C511 C 0.73542 0.7248 0.6042 0.0
H512 H 0.60555 0.86731 0.43573 0.0
H513 H 0.46506 0.83577 0.24969 0.0
H514 H 0.59912 0.82181 0.31849 0.0
H515 H 0.42954 0.85697 0.41692 0.0
H516 H 0.68062 0.67732 0.9924 0.0
H517 H 0.74066 0.74364 0.27522 0.0
H518 H 0.62543 0.77153 0.15199 0.0
H519 H 0.81865 0.76498 0.16059 0.0
Eu520 Eu 0.82663 0.0328 0.41091 0.0
Eu521 Eu 0.83868 0.17652 0.56644 0.0
C522 C 0.67671 0.10928 0.50254 0.0
C523 C 0.7542 0.00963 0.17065 0.0
C524 C 0.72023 0.06939 0.17296 0.0
C525 C 0.82114 0.0506 1.05893 0.0
C526 C 0.74727 0.12721 0.13163 0.0
C527 C 0.78396 -0.00132 1.08769 0.0
C528 C 0.79589 0.12589 1.05014 0.0
C529 C 0.80822 0.00384 0.23909 0.0
O530 O 0.75611 0.09347 0.66226 0.0
O531 O 0.73557 0.01177 0.54366 0.0
C532 C 0.72814 0.0326 0.63757 0.0
O533 O -0.05496 0.03062 0.47974 0.0
O534 O 0.80292 0.27148 0.61688 0.0
O535 O -0.09723 0.24703 0.62384 0.0
O536 O -0.0399 0.13396 0.54998 0.0
C537 C -0.01587 0.07198 0.53247 0.0
O538 O -0.09617 0.12308 0.3802 0.0
O539 O -0.09564 0.13163 0.39279 0.0
O540 O 0.71207 0.15833 0.54787 0.0
O541 O 0.82032 -0.04351 0.29749 0.0
O542 O 0.82335 0.05891 0.27175 0.0
O543 O 0.70846 0.05443 0.46629 0.0
C544 C 0.855 0.25999 0.76428 0.0
C545 C 0.88038 0.20276 0.78376 0.0
C546 C 0.83897 0.27204 0.93519 0.0
C547 C 0.86619 0.17087 0.86041 0.0
C548 C 0.84195 0.29697 0.84008 0.0
C549 C 0.83242 0.19119 0.95056 0.0
C550 C 0.85673 0.2784 0.66506 0.0
C551 C -0.08515 0.15347 0.29839 0.0
H552 H 0.68324 0.07477 0.22666 0.0
H553 H 0.86906 0.03489 1.03453 0.0
H554 H 0.7773 0.14186 1.07785 0.0
H555 H 0.8039 -0.04945 1.07503 0.0
H556 H -0.08488 0.18023 0.73921 0.0
H557 H 0.83333 0.30771 0.98984 0.0
H558 H 0.8428 0.17508 0.92199 0.0
H559 H 0.84947 0.34381 0.81914 0.0
Eu560 Eu 0.18661 -0.07244 0.67415 0.0
Eu561 Eu 0.03994 -0.05569 0.82856 0.0
C562 C 0.07896 0.78651 0.70991 0.0
C563 C 0.26282 -0.07269 0.47689 0.0
C564 C 0.19859 -0.06687 0.46984 0.0
C565 C 0.27325 -0.07088 0.30443 0.0
C566 C 0.17098 -0.07909 0.38424 0.0
C567 C 0.29856 -0.07935 0.39782 0.0
C568 C 0.1936 -0.05322 0.28864 0.0
C569 C 0.28115 -0.09568 0.56771 0.0
O570 O 0.1271 0.86479 0.85957 0.0
O571 O 0.13584 0.86393 0.84687 0.0
C572 C 0.15562 0.85383 0.94259 0.0
O573 O 0.16878 0.054 0.69009 0.0
O574 O -0.03204 -0.05221 0.9486 0.0
O575 O 0.07144 -0.05027 0.96324 0.0
O576 O 0.06527 0.06078 0.7751 0.0
C577 C 0.12027 0.09123 0.73611 0.0
O578 O 0.10073 0.01075 0.57908 0.0
O579 O 0.01874 0.03505 0.69846 0.0
O580 O 0.03688 0.82753 0.75855 0.0
O581 O 0.28838 -0.05172 0.63389 0.0
O582 O 0.24008 0.85825 0.58957 0.0
O583 O 0.14268 0.80821 0.69611 0.0
C584 C 0.02453 0.02332 1.05363 0.0
C585 C 0.08671 0.0528 1.04728 0.0
C586 C 0.05456 0.0096 0.20839 0.0
C587 C 0.1409 0.02232 1.09496 0.0
C588 C 0.00618 0.0129 0.14247 0.0
C589 C 0.13133 -0.00985 0.19012 0.0
C590 C 0.01744 -0.03688 1.00207 0.0
C591 C 0.03951 0.0405 0.6042 0.0
H592 H 0.16938 -0.102 0.43573 0.0
H593 H 0.30986 -0.07046 0.24969 0.0
H594 H 0.1758 -0.0565 0.31849 0.0
H595 H 0.34538 -0.09166 0.41692 0.0
H596 H 0.0943 0.08799 0.9924 0.0
H597 H 0.03426 0.02167 0.27523 0.0
H598 H 0.1495 -0.00622 0.15199 0.0
H599 H -0.04372 0.00034 0.16059 0.0
Eu600 Eu -0.05171 0.73251 0.41091 0.0
Eu601 Eu -0.06376 0.58879 0.56644 0.0
C602 C 0.09821 0.65604 0.50254 0.0
C603 C 0.02072 0.75568 0.17064 0.0
C604 C 0.05469 0.69592 0.17296 0.0
C605 C -0.04622 0.71471 1.05893 0.0
C606 C 0.02765 0.6381 0.13163 0.0
C607 C -0.00904 0.76663 1.08769 0.0
C608 C -0.02097 0.63942 1.05014 0.0
C609 C -0.0333 0.76147 0.23909 0.0
O610 O 0.01882 0.67184 0.66226 0.0
O611 O 0.03935 0.75355 0.54366 0.0
C612 C 0.04678 0.73272 0.63757 0.0
O613 O 0.82987 0.7347 0.47974 0.0
O614 O -0.028 0.49383 0.61688 0.0
O615 O 0.87215 0.51828 0.62385 0.0
O616 O 0.81481 0.63134 0.55001 0.0
C617 C 0.7908 0.69333 0.53248 0.0
O618 O 0.87109 0.64223 0.3802 0.0
O619 O 0.87056 0.63369 0.3928 0.0
O620 O 0.06285 0.60698 0.54787 0.0
O621 O -0.0454 0.80883 0.29749 0.0
O622 O -0.04843 0.7064 0.27175 0.0
O623 O 0.06646 0.71088 0.46629 0.0
C624 C -0.08008 0.50532 0.76428 0.0
C625 C -0.10546 0.56255 0.78376 0.0
C626 C -0.06405 0.49327 0.9352 0.0
C627 C -0.09127 0.59444 0.86041 0.0
C628 C -0.06702 0.46834 0.84009 0.0
C629 C -0.0575 0.57412 0.95057 0.0
C630 C -0.08181 0.48691 0.66506 0.0
C631 C 0.86007 0.61184 0.2984 0.0
H632 H 0.09168 0.69054 0.22666 0.0
H633 H -0.09414 0.73042 1.03454 0.0
H634 H -0.00238 0.62345 1.07785 0.0
H635 H -0.02899 0.81476 1.07502 0.0
H636 H 0.8598 0.58508 0.73921 0.0
H637 H -0.0584 0.4576 0.98985 0.0
H638 H -0.06788 0.59023 0.92199 0.0
H639 H -0.07455 0.4215 0.81915 0.0
loop_
_geom_bond_atom_site_label_1
_geom_bond_atom_site_label_2
_geom_bond_distance
_geom_bond_site_symmetry_2
_ccdc_geom_bond_type
Eu0 C9 2.828 . S
Eu0 O11 2.392 . S
Eu0 O13 2.418 . S
Eu0 O18 2.373 . S
Eu0 O21 2.488 . S
Eu0 O22 2.471 1_545 S
Eu0 O23 2.349 1_545 S
Eu1 O10 2.379 1_545 S
Eu1 O14 2.488 1_544 S
Eu1 O15 2.471 1_554 S
Eu1 O16 2.349 . S
Eu1 O19 2.392 . S
Eu1 O20 2.418 1_545 S
Eu1 C30 2.828 1_554 S
C2 O20 1.244 . S
C2 O23 1.265 . S
C3 C4 1.379 1_545 S
C3 C7 1.373 . S
C3 C9 1.505 . S
C4 C3 1.379 1_565 S
C4 C6 1.369 . S
C4 H32 0.930 . S
C5 C7 1.383 . S
C5 C8 1.382 . S
C5 H33 0.930 . S
C6 C4 1.369 . S
C6 C8 1.392 1_565 S
C6 H34 0.930 . S
C7 C3 1.373 . S
C7 C5 1.383 . S
C7 H35 0.931 . S
C8 C5 1.382 . S
C8 C6 1.392 1_545 S
C9 Eu0 2.828 . S
C9 C3 1.505 . S
C9 O21 1.249 . S
C9 O22 1.244 1_545 S
O10 Eu1 2.379 1_565 S
O10 C12 1.260 . S
O11 Eu0 2.392 . S
O11 C12 1.242 1_545 S
C12 O10 1.260 . S
C12 O11 1.242 1_565 S
O13 Eu0 2.418 . S
O13 C17 1.244 . S
O14 Eu1 2.488 1_566 S
O14 C30 1.249 1_565 S
O15 Eu1 2.471 1_556 S
O15 C30 1.244 . S
O16 Eu1 2.349 . S
O16 C17 1.265 . S
C17 O13 1.244 . S
C17 O16 1.265 . S
O18 Eu0 2.373 . S
O18 C31 1.258 . S
O19 Eu1 2.392 . S
O19 C31 1.242 . S
O20 Eu1 2.418 1_565 S
O20 C2 1.244 . S
O21 Eu0 2.488 . S
O21 C9 1.249 . S
O22 Eu0 2.471 1_565 S
O22 C9 1.244 1_565 S
O23 Eu0 2.349 1_565 S
O23 C2 1.265 . S
C24 C25 1.379 . S
C24 C28 1.373 . S
C24 C30 1.505 . S
C25 C24 1.379 . S
C25 C27 1.369 . S
C25 H36 0.930 . S
C26 C28 1.383 . S
C26 C29 1.382 . S
C26 H37 0.930 1_545 S
C27 C25 1.369 . S
C27 C29 1.392 . S
C27 H38 0.930 . S
C28 C24 1.373 . S
C28 C26 1.383 . S
C28 H39 0.931 1_545 S
C29 C26 1.382 . S
C29 C27 1.392 . S
C30 Eu1 2.828 1_556 S
C30 O14 1.249 1_545 S
C30 O15 1.244 . S
C30 C24 1.505 . S
C31 O18 1.258 . S
C31 O19 1.242 . S
H32 C4 0.930 . S
H33 C5 0.930 . S
H34 C6 0.930 . S
H35 C7 0.931 . S
H36 C25 0.930 . S
H37 C26 0.930 1_565 S
H38 C27 0.930 . S
H39 C28 0.931 1_565 S
Eu40 C49 2.828 1_556 S
Eu40 O51 2.392 . S
Eu40 O53 2.418 1_455 S
Eu40 O58 2.379 1_455 S
Eu40 O61 2.488 1_456 S
Eu40 O62 2.471 1_556 S
Eu40 O63 2.349 . S
Eu41 O50 2.373 . S
Eu41 O54 2.488 . S
Eu41 O55 2.471 1_455 S
Eu41 O56 2.349 1_455 S
Eu41 O59 2.392 . S
Eu41 O60 2.418 . S
Eu41 C70 2.828 . S
C42 O60 1.244 . S
C42 O63 1.265 . S
C43 C44 1.379 . S
C43 C47 1.373 . S
C43 C49 1.505 . S
C44 C43 1.379 . S
C44 C46 1.369 . S
C44 H72 0.930 . S
C45 C47 1.383 . S
C45 C48 1.382 . S
C45 H73 0.930 1_455 S
C46 C44 1.369 . S
C46 C48 1.392 . S
C46 H74 0.930 . S
C47 C43 1.373 . S
C47 C45 1.383 . S
C47 H75 0.931 1_455 S
C48 C45 1.382 . S
C48 C46 1.392 . S
C49 Eu40 2.828 1_554 S
C49 C43 1.505 . S
C49 O61 1.249 1_455 S
C49 O62 1.244 . S
O50 Eu41 2.373 . S
O50 C52 1.258 . S
O51 Eu40 2.392 . S
O51 C52 1.242 . S
C52 O50 1.258 . S
C52 O51 1.242 . S
O53 Eu40 2.418 1_655 S
O53 C57 1.244 . S
O54 Eu41 2.488 . S
O54 C70 1.249 . S
O55 Eu41 2.471 1_655 S
O55 C70 1.244 1_655 S
O56 Eu41 2.349 1_655 S
O56 C57 1.265 . S
C57 O53 1.244 . S
C57 O56 1.265 . S
O58 Eu40 2.379 1_655 S
O58 C71 1.260 . S
O59 Eu41 2.392 . S
O59 C71 1.242 1_455 S
O60 Eu41 2.418 . S
O60 C42 1.244 . S
O61 Eu40 2.488 1_654 S
O61 C49 1.249 1_655 S
O62 Eu40 2.471 1_554 S
O62 C49 1.244 . S
O63 Eu40 2.349 . S
O63 C42 1.265 . S
C64 C65 1.379 1_455 S
C64 C68 1.373 . S
C64 C70 1.505 . S
C65 C64 1.379 1_655 S
C65 C67 1.369 . S
C65 H76 0.930 . S
C66 C68 1.383 . S
C66 C69 1.382 . S
C66 H77 0.930 . S
C67 C65 1.369 . S
C67 C69 1.392 1_655 S
C67 H78 0.930 . S
C68 C64 1.373 . S
C68 C66 1.383 . S
C68 H79 0.931 . S
C69 C66 1.382 . S
C69 C67 1.392 1_455 S
C70 Eu41 2.828 . S
C70 O54 1.249 . S
C70 O55 1.244 1_455 S
C70 C64 1.505 . S
C71 O58 1.260 . S
C71 O59 1.242 1_655 S
H72 C44 0.930 . S
H73 C45 0.930 1_655 S
H74 C46 0.930 . S
H75 C47 0.931 1_655 S
H76 C65 0.930 . S
H77 C66 0.930 . S
H78 C67 0.930 . S
H79 C68 0.931 . S
Eu80 C89 2.828 . S
Eu80 O91 2.392 . S
Eu80 O93 2.418 . S
Eu80 O98 2.373 . S
Eu80 O101 2.488 . S
Eu80 O102 2.471 1_565 S
Eu80 O103 2.349 1_565 S
Eu81 O90 2.379 1_565 S
Eu81 O94 2.488 1_564 S
Eu81 O95 2.471 1_554 S
Eu81 O96 2.349 . S
Eu81 O99 2.392 . S
Eu81 O100 2.418 1_565 S
Eu81 C110 2.828 1_554 S
C82 O100 1.244 . S
C82 O103 1.265 . S
C83 C84 1.379 1_565 S
C83 C87 1.373 . S
C83 C89 1.505 . S
C84 C83 1.379 1_545 S
C84 C86 1.369 . S
C84 H112 0.930 . S
C85 C87 1.383 . S
C85 C88 1.382 . S
C85 H113 0.930 . S
C86 C84 1.369 . S
C86 C88 1.392 1_545 S
C86 H114 0.930 . S
C87 C83 1.373 . S
C87 C85 1.383 . S
C87 H115 0.931 . S
C88 C85 1.382 . S
C88 C86 1.392 1_565 S
C89 Eu80 2.828 . S
C89 C83 1.505 . S
C89 O101 1.249 . S
C89 O102 1.244 1_565 S
O90 Eu81 2.379 1_545 S
O90 C92 1.260 . S
O91 Eu80 2.392 . S
O91 C92 1.242 1_565 S
C92 O90 1.260 . S
C92 O91 1.242 1_545 S
O93 Eu80 2.418 . S
O93 C97 1.244 . S
O94 Eu81 2.488 1_546 S
O94 C110 1.249 1_545 S
O95 Eu81 2.471 1_556 S
O95 C110 1.244 . S
O96 Eu81 2.349 . S
O96 C97 1.265 . S
C97 O93 1.244 . S
C97 O96 1.265 . S
O98 Eu80 2.373 . S
O98 C111 1.258 . S
O99 Eu81 2.392 . S
O99 C111 1.242 . S
O100 Eu81 2.418 1_545 S
O100 C82 1.244 . S
O101 Eu80 2.488 . S
O101 C89 1.249 . S
O102 Eu80 2.471 1_545 S
O102 C89 1.244 1_545 S
O103 Eu80 2.349 1_545 S
O103 C82 1.265 . S
C104 C105 1.379 . S
C104 C108 1.373 . S
C104 C110 1.505 . S
C105 C104 1.379 . S
C105 C107 1.369 . S
C105 H116 0.930 . S
C106 C108 1.383 . S
C106 C109 1.382 . S
C106 H117 0.930 1_565 S
C107 C105 1.369 . S
C107 C109 1.392 . S
C107 H118 0.930 . S
C108 C104 1.373 . S
C108 C106 1.383 . S
C108 H119 0.931 1_565 S
C109 C106 1.382 . S
C109 C107 1.392 . S
C110 Eu81 2.828 1_556 S
C110 O94 1.249 1_565 S
C110 O95 1.244 . S
C110 C104 1.505 . S
C111 O98 1.258 . S
C111 O99 1.242 . S
H112 C84 0.930 . S
H113 C85 0.930 . S
H114 C86 0.930 . S
H115 C87 0.931 . S
H116 C105 0.930 . S
H117 C106 0.930 1_545 S
H118 C107 0.930 . S
H119 C108 0.931 1_545 S
Eu120 C129 2.828 1_556 S
Eu120 O131 2.392 . S
Eu120 O133 2.418 1_655 S
Eu120 O138 2.379 1_655 S
Eu120 O141 2.488 1_656 S
Eu120 O142 2.471 1_556 S
Eu120 O143 2.349 . S
Eu121 O130 2.373 . S
Eu121 O134 2.488 . S
Eu121 O135 2.471 1_655 S
Eu121 O136 2.349 1_655 S
Eu121 O139 2.392 . S
Eu121 O140 2.418 . S
Eu121 C150 2.828 . S
C122 O140 1.244 . S
C122 O143 1.265 . S
C123 C124 1.379 . S
C123 C127 1.373 . S
C123 C129 1.505 . S
C124 C123 1.379 . S
C124 C126 1.369 . S
C124 H152 0.930 . S
C125 C127 1.383 . S
C125 C128 1.382 . S
C125 H153 0.930 1_655 S
C126 C124 1.369 . S
C126 C128 1.392 . S
C126 H154 0.930 . S
C127 C123 1.373 . S
C127 C125 1.383 . S
C127 H155 0.931 1_655 S
C128 C125 1.382 . S
C128 C126 1.392 . S
C129 Eu120 2.828 1_554 S
C129 C123 1.505 . S
C129 O141 1.249 1_655 S
C129 O142 1.244 . S
O130 Eu121 2.373 . S
O130 C132 1.258 . S
O131 Eu120 2.392 . S
O131 C132 1.242 . S
C132 O130 1.258 . S
C132 O131 1.242 . S
O133 Eu120 2.418 1_455 S
O133 C137 1.244 . S
O134 Eu121 2.488 . S
O134 C150 1.249 . S
O135 Eu121 2.471 1_455 S
O135 C150 1.244 1_455 S
O136 Eu121 2.349 1_455 S
O136 C137 1.265 . S
C137 O133 1.244 . S
C137 O136 1.265 . S
O138 Eu120 2.379 1_455 S
O138 C151 1.260 . S
O139 Eu121 2.392 . S
O139 C151 1.242 1_655 S
O140 Eu121 2.418 . S
O140 C122 1.244 . S
O141 Eu120 2.488 1_454 S
O141 C129 1.249 1_455 S
O142 Eu120 2.471 1_554 S
O142 C129 1.244 . S
O143 Eu120 2.349 . S
O143 C122 1.265 . S
C144 C145 1.379 1_655 S
C144 C148 1.373 . S
C144 C150 1.505 . S
C145 C144 1.379 1_455 S
C145 C147 1.369 . S
C145 H156 0.930 . S
C146 C148 1.383 . S
C146 C149 1.382 . S
C146 H157 0.930 . S
C147 C145 1.369 . S
C147 C149 1.392 1_455 S
C147 H158 0.930 . S
C148 C144 1.373 . S
C148 C146 1.383 . S
C148 H159 0.931 . S
C149 C146 1.382 . S
C149 C147 1.392 1_655 S
C150 Eu121 2.828 . S
C150 O134 1.249 . S
C150 O135 1.244 1_655 S
C150 C144 1.505 . S
C151 O138 1.260 . S
C151 O139 1.242 1_455 S
H152 C124 0.930 . S
H153 C125 0.930 1_455 S
H154 C126 0.930 . S
H155 C127 0.931 1_455 S
H156 C145 0.930 . S
H157 C146 0.930 . S
H158 C147 0.930 . S
H159 C148 0.931 . S
Eu160 C169 2.828 1_554 S
Eu160 O171 2.392 . S
Eu160 O173 2.418 . S
Eu160 O178 2.373 1_554 S
Eu160 O181 2.488 1_554 S
Eu160 O182 2.471 1_554 S
Eu160 O183 2.349 . S
Eu161 O170 2.373 . S
Eu161 O174 2.488 . S
Eu161 O175 2.471 . S
Eu161 O176 2.349 . S
Eu161 O179 2.392 . S
Eu161 O180 2.418 . S
Eu161 C190 2.828 . S
C162 O180 1.244 . S
C162 O183 1.265 . S
C163 C164 1.379 . S
C163 C167 1.373 . S
C163 C169 1.505 . S
C164 C163 1.379 . S
C164 C166 1.369 . S
C164 H192 0.930 . S
C165 C167 1.383 . S
C165 C168 1.382 . S
C165 H193 0.930 . S
C166 C164 1.369 . S
C166 C168 1.392 . S
C166 H194 0.930 . S
C167 C163 1.373 . S
C167 C165 1.383 . S
C167 H195 0.931 . S
C168 C165 1.382 . S
C168 C166 1.392 . S
C169 Eu160 2.828 1_556 S
C169 C163 1.505 . S
C169 O181 1.249 . S
C169 O182 1.244 . S
O170 Eu161 2.373 . S
O170 C172 1.258 . S
O171 Eu160 2.392 . S
O171 C172 1.242 . S
C172 O170 1.258 . S
C172 O171 1.242 . S
O173 Eu160 2.418 . S
O173 C177 1.244 . S
O174 Eu161 2.488 . S
O174 C190 1.249 . S
O175 Eu161 2.471 . S
O175 C190 1.244 . S
O176 Eu161 2.349 . S
O176 C177 1.265 . S
C177 O173 1.244 . S
C177 O176 1.265 . S
O178 Eu160 2.373 1_556 S
O178 C191 1.258 1_556 S
O179 Eu161 2.392 . S
O179 C191 1.242 . S
O180 Eu161 2.418 . S
O180 C162 1.244 . S
O181 Eu160 2.488 1_556 S
O181 C169 1.249 . S
O182 Eu160 2.471 1_556 S
O182 C169 1.244 . S
O183 Eu160 2.349 . S
O183 C162 1.265 . S
C184 C185 1.379 . S
C184 C188 1.373 . S
C184 C190 1.505 . S
C185 C184 1.379 . S
C185 C187 1.369 . S
C185 H196 0.930 . S
C186 C188 1.383 . S
C186 C189 1.382 . S
C186 H197 0.930 . S
C187 C185 1.369 . S
C187 C189 1.392 . S
C187 H198 0.930 . S
C188 C184 1.373 . S
C188 C186 1.383 . S
C188 H199 0.931 . S
C189 C186 1.382 . S
C189 C187 1.392 . S
C190 Eu161 2.828 . S
C190 O174 1.249 . S
C190 O175 1.244 . S
C190 C184 1.505 . S
C191 O178 1.258 1_554 S
C191 O179 1.242 . S
H192 C164 0.930 . S
H193 C165 0.930 . S
H194 C166 0.930 . S
H195 C167 0.931 . S
H196 C185 0.930 . S
H197 C186 0.930 . S
H198 C187 0.930 . S
H199 C188 0.931 . S
Eu200 C209 2.828 . S
Eu200 O211 2.392 . S
Eu200 O213 2.418 . S
Eu200 O218 2.373 . S
Eu200 O221 2.488 . S
Eu200 O222 2.471 . S
Eu200 O223 2.349 . S
Eu201 O210 2.373 1_556 S
Eu201 O214 2.488 1_556 S
Eu201 O215 2.471 1_556 S
Eu201 O216 2.349 . S
Eu201 O219 2.392 . S
Eu201 O220 2.418 . S
Eu201 C230 2.828 1_556 S
C202 O220 1.244 . S
C202 O223 1.265 . S
C203 C204 1.379 . S
C203 C207 1.373 . S
C203 C209 1.505 . S
C204 C203 1.379 . S
C204 C206 1.369 . S
C204 H232 0.930 . S
C205 C207 1.383 . S
C205 C208 1.382 . S
C205 H233 0.930 . S
C206 C204 1.369 . S
C206 C208 1.392 . S
C206 H234 0.930 . S
C207 C203 1.373 . S
C207 C205 1.383 . S
C207 H235 0.931 . S
C208 C205 1.382 . S
C208 C206 1.392 . S
C209 Eu200 2.828 . S
C209 C203 1.505 . S
C209 O221 1.249 . S
C209 O222 1.244 . S
O210 Eu201 2.373 1_554 S
O210 C212 1.258 1_554 S
O211 Eu200 2.392 . S
O211 C212 1.242 . S
C212 O210 1.258 1_556 S
C212 O211 1.242 . S
O213 Eu200 2.418 . S
O213 C217 1.244 . S
O214 Eu201 2.488 1_554 S
O214 C230 1.249 . S
O215 Eu201 2.471 1_554 S
O215 C230 1.244 . S
O216 Eu201 2.349 . S
O216 C217 1.265 . S
C217 O213 1.244 . S
C217 O216 1.265 . S
O218 Eu200 2.373 . S
O218 C231 1.258 . S
O219 Eu201 2.392 . S
O219 C231 1.242 . S
O220 Eu201 2.418 . S
O220 C202 1.244 . S
O221 Eu200 2.488 . S
O221 C209 1.249 . S
O222 Eu200 2.471 . S
O222 C209 1.244 . S
O223 Eu200 2.349 . S
O223 C202 1.265 . S
C224 C225 1.379 . S
C224 C228 1.373 . S
C224 C230 1.505 . S
C225 C224 1.379 . S
C225 C227 1.369 . S
C225 H236 0.930 . S
C226 C228 1.383 . S
C226 C229 1.382 . S
C226 H237 0.930 . S
C227 C225 1.369 . S
C227 C229 1.392 . S
C227 H238 0.930 . S
C228 C224 1.373 . S
C228 C226 1.383 . S
C228 H239 0.931 . S
C229 C226 1.382 . S
C229 C227 1.392 . S
C230 Eu201 2.828 1_554 S
C230 O214 1.249 . S
C230 O215 1.244 . S
C230 C224 1.505 . S
C231 O218 1.258 . S
C231 O219 1.242 . S
H232 C204 0.930 . S
H233 C205 0.930 . S
H234 C206 0.930 . S
H235 C207 0.931 . S
H236 C225 0.930 . S
H237 C226 0.930 . S
H238 C227 0.930 . S
H239 C228 0.931 . S
Eu240 C249 2.828 1_554 S
Eu240 O251 2.392 . S
Eu240 O253 2.418 . S
Eu240 O258 2.373 1_554 S
Eu240 O261 2.488 1_554 S
Eu240 O262 2.471 1_554 S
Eu240 O263 2.349 . S
Eu241 O250 2.373 . S
Eu241 O254 2.488 . S
Eu241 O255 2.471 . S
Eu241 O256 2.349 . S
Eu241 O259 2.392 . S
Eu241 O260 2.418 . S
Eu241 C270 2.828 . S
C242 O260 1.244 . S
C242 O263 1.265 . S
C243 C244 1.379 . S
C243 C247 1.373 . S
C243 C249 1.505 . S
C244 C243 1.379 . S
C244 C246 1.369 . S
C244 H272 0.930 . S
C245 C247 1.383 . S
C245 C248 1.382 . S
C245 H273 0.930 . S
C246 C244 1.369 . S
C246 C248 1.392 . S
C246 H274 0.930 . S
C247 C243 1.373 . S
C247 C245 1.383 . S
C247 H275 0.931 . S
C248 C245 1.382 . S
C248 C246 1.392 . S
C249 Eu240 2.828 1_556 S
C249 C243 1.505 . S
C249 O261 1.249 . S
C249 O262 1.244 . S
O250 Eu241 2.373 . S
O250 C252 1.258 . S
O251 Eu240 2.392 . S
O251 C252 1.242 . S
C252 O250 1.258 . S
C252 O251 1.242 . S
O253 Eu240 2.418 . S
O253 C257 1.244 . S
O254 Eu241 2.488 . S
O254 C270 1.249 . S
O255 Eu241 2.471 . S
O255 C270 1.244 . S
O256 Eu241 2.349 . S
O256 C257 1.265 . S
C257 O253 1.244 . S
C257 O256 1.265 . S
O258 Eu240 2.373 1_556 S
O258 C271 1.258 1_556 S
O259 Eu241 2.392 . S
O259 C271 1.242 . S
O260 Eu241 2.418 . S
O260 C242 1.244 . S
O261 Eu240 2.488 1_556 S
O261 C249 1.249 . S
O262 Eu240 2.471 1_556 S
O262 C249 1.244 . S
O263 Eu240 2.349 . S
O263 C242 1.265 . S
C264 C265 1.379 . S
C264 C268 1.373 . S
C264 C270 1.505 . S
C265 C264 1.379 . S
C265 C267 1.369 . S
C265 H276 0.930 . S
C266 C268 1.383 . S
C266 C269 1.382 . S
C266 H277 0.930 . S
C267 C265 1.369 . S
C267 C269 1.392 . S
C267 H278 0.930 . S
C268 C264 1.373 . S
C268 C266 1.383 . S
C268 H279 0.931 . S
C269 C266 1.382 . S
C269 C267 1.392 . S
C270 Eu241 2.828 . S
C270 O254 1.249 . S
C270 O255 1.244 . S
C270 C264 1.505 . S
C271 O258 1.258 1_554 S
C271 O259 1.242 . S
H272 C244 0.930 . S
H273 C245 0.930 . S
H274 C246 0.930 . S
H275 C247 0.931 . S
H276 C265 0.930 . S
H277 C266 0.930 . S
H278 C267 0.930 . S
H279 C268 0.931 . S
Eu280 C289 2.828 . S
Eu280 O291 2.392 . S
Eu280 O293 2.418 . S
Eu280 O298 2.373 . S
Eu280 O301 2.488 . S
Eu280 O302 2.471 . S
Eu280 O303 2.349 . S
Eu281 O290 2.373 1_556 S
Eu281 O294 2.488 1_556 S
Eu281 O295 2.471 1_556 S
Eu281 O296 2.349 . S
Eu281 O299 2.392 . S
Eu281 O300 2.418 . S
Eu281 C310 2.828 1_556 S
C282 O300 1.244 . S
C282 O303 1.265 . S
C283 C284 1.379 . S
C283 C287 1.373 . S
C283 C289 1.505 . S
C284 C283 1.379 . S
C284 C286 1.369 . S
C284 H312 0.930 . S
C285 C287 1.383 . S
C285 C288 1.382 . S
C285 H313 0.930 . S
C286 C284 1.369 . S
C286 C288 1.392 . S
C286 H314 0.930 . S
C287 C283 1.373 . S
C287 C285 1.383 . S
C287 H315 0.931 . S
C288 C285 1.382 . S
C288 C286 1.392 . S
C289 Eu280 2.828 . S
C289 C283 1.505 . S
C289 O301 1.249 . S
C289 O302 1.244 . S
O290 Eu281 2.373 1_554 S
O290 C292 1.258 1_554 S
O291 Eu280 2.392 . S
O291 C292 1.242 . S
C292 O290 1.258 1_556 S
C292 O291 1.242 . S
O293 Eu280 2.418 . S
O293 C297 1.244 . S
O294 Eu281 2.488 1_554 S
O294 C310 1.249 . S
O295 Eu281 2.471 1_554 S
O295 C310 1.244 . S
O296 Eu281 2.349 . S
O296 C297 1.265 . S
C297 O293 1.244 . S
C297 O296 1.265 . S
O298 Eu280 2.373 . S
O298 C311 1.258 . S
O299 Eu281 2.392 . S
O299 C311 1.242 . S
O300 Eu281 2.418 . S
O300 C282 1.244 . S
O301 Eu280 2.488 . S
O301 C289 1.249 . S
O302 Eu280 2.471 . S
O302 C289 1.244 . S
O303 Eu280 2.349 . S
O303 C282 1.265 . S
C304 C305 1.379 . S
C304 C308 1.373 . S
C304 C310 1.505 . S
C305 C304 1.379 . S
C305 C307 1.369 . S
C305 H316 0.930 . S
C306 C308 1.383 . S
C306 C309 1.382 . S
C306 H317 0.930 . S
C307 C305 1.369 . S
C307 C309 1.392 . S
C307 H318 0.930 . S
C308 C304 1.373 . S
C308 C306 1.383 . S
C308 H319 0.931 . S
C309 C306 1.382 . S
C309 C307 1.392 . S
C310 Eu281 2.828 1_554 S
C310 O294 1.249 . S
C310 O295 1.244 . S
C310 C304 1.505 . S
C311 O298 1.258 . S
C311 O299 1.242 . S
H312 C284 0.930 . S
H313 C285 0.930 . S
H314 C286 0.930 . S
H315 C287 0.931 . S
H316 C305 0.930 . S
H317 C306 0.930 . S
H318 C307 0.930 . S
H319 C308 0.931 . S
Eu320 C329 2.828 . S
Eu320 O331 2.392 . S
Eu320 O333 2.418 . S
Eu320 O338 2.373 . S
Eu320 O341 2.488 . S
Eu320 O342 2.471 . S
Eu320 O343 2.349 . S
Eu321 O330 2.373 . S
Eu321 O334 2.488 . S
Eu321 O335 2.471 . S
Eu321 O336 2.349 . S
Eu321 O339 2.392 . S
Eu321 O340 2.418 . S
Eu321 C350 2.828 . S
C322 O340 1.244 . S
C322 O343 1.265 . S
C323 C324 1.379 . S
C323 C327 1.373 . S
C323 C329 1.505 . S
C324 C323 1.379 . S
C324 C326 1.369 1_556 S
C324 H352 0.930 . S
C325 C327 1.383 1_554 S
C325 C328 1.382 . S
C325 H353 0.930 . S
C326 C324 1.369 1_554 S
C326 C328 1.392 . S
C326 H354 0.930 . S
C327 C323 1.373 . S
C327 C325 1.383 1_556 S
C327 H355 0.931 . S
C328 C325 1.382 . S
C328 C326 1.392 . S
C329 Eu320 2.828 . S
C329 C323 1.505 . S
C329 O341 1.249 . S
C329 O342 1.244 . S
O330 Eu321 2.373 . S
O330 C332 1.258 . S
O331 Eu320 2.392 . S
O331 C332 1.242 . S
C332 O330 1.258 . S
C332 O331 1.242 . S
O333 Eu320 2.418 . S
O333 C337 1.244 . S
O334 Eu321 2.488 . S
O334 C350 1.249 . S
O335 Eu321 2.471 . S
O335 C350 1.244 . S
O336 Eu321 2.349 . S
O336 C337 1.265 . S
C337 O333 1.244 . S
C337 O336 1.265 . S
O338 Eu320 2.373 . S
O338 C351 1.258 . S
O339 Eu321 2.392 . S
O339 C351 1.242 . S
O340 Eu321 2.418 . S
O340 C322 1.244 . S
O341 Eu320 2.488 . S
O341 C329 1.249 . S
O342 Eu320 2.471 . S
O342 C329 1.244 . S
O343 Eu320 2.349 . S
O343 C322 1.265 . S
C344 C345 1.379 . S
C344 C348 1.373 . S
C344 C350 1.505 . S
C345 C344 1.379 . S
C345 C347 1.369 . S
C345 H356 0.930 . S
C346 C348 1.383 . S
C346 C349 1.382 . S
C346 H357 0.930 . S
C347 C345 1.369 . S
C347 C349 1.392 . S
C347 H358 0.930 . S
C348 C344 1.373 . S
C348 C346 1.383 . S
C348 H359 0.931 . S
C349 C346 1.382 . S
C349 C347 1.392 . S
C350 Eu321 2.828 . S
C350 O334 1.249 . S
C350 O335 1.244 . S
C350 C344 1.505 . S
C351 O338 1.258 . S
C351 O339 1.242 . S
H352 C324 0.930 . S
H353 C325 0.930 . S
H354 C326 0.930 . S
H355 C327 0.931 . S
H356 C345 0.930 . S
H357 C346 0.930 . S
H358 C347 0.930 . S
H359 C348 0.931 . S
Eu360 C369 2.828 . S
Eu360 O371 2.392 . S
Eu360 O373 2.418 . S
Eu360 O378 2.373 . S
Eu360 O381 2.488 . S
Eu360 O382 2.471 . S
Eu360 O383 2.349 . S
Eu361 O370 2.373 . S
Eu361 O374 2.488 . S
Eu361 O375 2.471 . S
Eu361 O376 2.349 . S
Eu361 O379 2.392 . S
Eu361 O380 2.418 . S
Eu361 C390 2.828 . S
C362 O380 1.244 . S
C362 O383 1.265 . S
C363 C364 1.379 . S
C363 C367 1.373 . S
C363 C369 1.505 . S
C364 C363 1.379 . S
C364 C366 1.369 . S
C364 H392 0.930 . S
C365 C367 1.383 . S
C365 C368 1.382 . S
C365 H393 0.930 . S
C366 C364 1.369 . S
C366 C368 1.392 . S
C366 H394 0.930 . S
C367 C363 1.373 . S
C367 C365 1.383 . S
C367 H395 0.931 . S
C368 C365 1.382 . S
C368 C366 1.392 . S
C369 Eu360 2.828 . S
C369 C363 1.505 . S
C369 O381 1.249 . S
C369 O382 1.244 . S
O370 Eu361 2.373 . S
O370 C372 1.258 . S
O371 Eu360 2.392 . S
O371 C372 1.242 . S
C372 O370 1.258 . S
C372 O371 1.242 . S
O373 Eu360 2.418 . S
O373 C377 1.244 . S
O374 Eu361 2.488 . S
O374 C390 1.249 . S
O375 Eu361 2.471 . S
O375 C390 1.244 . S
O376 Eu361 2.349 . S
O376 C377 1.265 . S
C377 O373 1.244 . S
C377 O376 1.265 . S
O378 Eu360 2.373 . S
O378 C391 1.258 . S
O379 Eu361 2.392 . S
O379 C391 1.242 . S
O380 Eu361 2.418 . S
O380 C362 1.244 . S
O381 Eu360 2.488 . S
O381 C369 1.249 . S
O382 Eu360 2.471 . S
O382 C369 1.244 . S
O383 Eu360 2.349 . S
O383 C362 1.265 . S
C384 C385 1.379 . S
C384 C388 1.373 . S
C384 C390 1.505 . S
C385 C384 1.379 . S
C385 C387 1.369 1_554 S
C385 H396 0.930 . S
C386 C388 1.383 1_556 S
C386 C389 1.382 . S
C386 H397 0.930 . S
C387 C385 1.369 1_556 S
C387 C389 1.392 . S
C387 H398 0.930 . S
C388 C384 1.373 . S
C388 C386 1.383 1_554 S
C388 H399 0.931 . S
C389 C386 1.382 . S
C389 C387 1.392 . S
C390 Eu361 2.828 . S
C390 O374 1.249 . S
C390 O375 1.244 . S
C390 C384 1.505 . S
C391 O378 1.258 . S
C391 O379 1.242 . S
H392 C364 0.930 . S
H393 C365 0.930 . S
H394 C366 0.930 . S
H395 C367 0.931 . S
H396 C385 0.930 . S
H397 C386 0.930 . S
H398 C387 0.930 . S
H399 C388 0.931 . S
Eu400 C409 2.828 . S
Eu400 O411 2.392 . S
Eu400 O413 2.418 . S
Eu400 O418 2.373 . S
Eu400 O421 2.488 . S
Eu400 O422 2.471 . S
Eu400 O423 2.349 . S
Eu401 O410 2.373 . S
Eu401 O414 2.488 . S
Eu401 O415 2.471 . S
Eu401 O416 2.349 . S
Eu401 O419 2.392 . S
Eu401 O420 2.418 . S
Eu401 C430 2.828 . S
C402 O420 1.244 . S
C402 O423 1.265 . S
C403 C404 1.379 . S
C403 C407 1.373 . S
C403 C409 1.505 . S
C404 C403 1.379 . S
C404 C406 1.369 1_556 S
C404 H432 0.930 . S
C405 C407 1.383 1_554 S
C405 C408 1.382 . S
C405 H433 0.930 . S
C406 C404 1.369 1_554 S
C406 C408 1.392 . S
C406 H434 0.930 . S
C407 C403 1.373 . S
C407 C405 1.383 1_556 S
C407 H435 0.931 . S
C408 C405 1.382 . S
C408 C406 1.392 . S
C409 Eu400 2.828 . S
C409 C403 1.505 . S
C409 O421 1.249 . S
C409 O422 1.244 . S
O410 Eu401 2.373 . S
O410 C412 1.258 . S
O411 Eu400 2.392 . S
O411 C412 1.242 . S
C412 O410 1.258 . S
C412 O411 1.242 . S
O413 Eu400 2.418 . S
O413 C417 1.244 . S
O414 Eu401 2.488 . S
O414 C430 1.249 . S
O415 Eu401 2.471 . S
O415 C430 1.244 . S
O416 Eu401 2.349 . S
O416 C417 1.265 . S
C417 O413 1.244 . S
C417 O416 1.265 . S
O418 Eu400 2.373 . S
O418 C431 1.258 . S
O419 Eu401 2.392 . S
O419 C431 1.242 . S
O420 Eu401 2.418 . S
O420 C402 1.244 . S
O421 Eu400 2.488 . S
O421 C409 1.249 . S
O422 Eu400 2.471 . S
O422 C409 1.244 . S
O423 Eu400 2.349 . S
O423 C402 1.265 . S
C424 C425 1.379 . S
C424 C428 1.373 . S
C424 C430 1.505 . S
C425 C424 1.379 . S
C425 C427 1.369 . S
C425 H436 0.930 . S
C426 C428 1.383 . S
C426 C429 1.382 . S
C426 H437 0.930 . S
C427 C425 1.369 . S
C427 C429 1.392 . S
C427 H438 0.930 . S
C428 C424 1.373 . S
C428 C426 1.383 . S
C428 H439 0.931 . S
C429 C426 1.382 . S
C429 C427 1.392 . S
C430 Eu401 2.828 . S
C430 O414 1.249 . S
C430 O415 1.244 . S
C430 C424 1.505 . S
C431 O418 1.258 . S
C431 O419 1.242 . S
H432 C404 0.930 . S
H433 C405 0.930 . S
H434 C406 0.930 . S
H435 C407 0.931 . S
H436 C425 0.930 . S
H437 C426 0.930 . S
H438 C427 0.930 . S
H439 C428 0.931 . S
Eu440 C449 2.828 . S
Eu440 O451 2.392 . S
Eu440 O453 2.418 . S
Eu440 O458 2.373 . S
Eu440 O461 2.488 . S
Eu440 O462 2.471 . S
Eu440 O463 2.349 . S
Eu441 O450 2.373 . S
Eu441 O454 2.488 . S
Eu441 O455 2.471 . S
Eu441 O456 2.349 . S
Eu441 O459 2.392 . S
Eu441 O460 2.418 . S
Eu441 C470 2.828 . S
C442 O460 1.244 . S
C442 O463 1.265 . S
C443 C444 1.379 . S
C443 C447 1.373 . S
C443 C449 1.505 . S
C444 C443 1.379 . S
C444 C446 1.369 . S
C444 H472 0.930 . S
C445 C447 1.383 . S
C445 C448 1.382 . S
C445 H473 0.930 . S
C446 C444 1.369 . S
C446 C448 1.392 . S
C446 H474 0.930 . S
C447 C443 1.373 . S
C447 C445 1.383 . S
C447 H475 0.931 . S
C448 C445 1.382 . S
C448 C446 1.392 . S
C449 Eu440 2.828 . S
C449 C443 1.505 . S
C449 O461 1.249 . S
C449 O462 1.244 . S
O450 Eu441 2.373 . S
O450 C452 1.258 . S
O451 Eu440 2.392 . S
O451 C452 1.242 . S
C452 O450 1.258 . S
C452 O451 1.242 . S
O453 Eu440 2.418 . S
O453 C457 1.244 . S
O454 Eu441 2.488 . S
O454 C470 1.249 . S
O455 Eu441 2.471 . S
O455 C470 1.244 . S
O456 Eu441 2.349 . S
O456 C457 1.265 . S
C457 O453 1.244 . S
C457 O456 1.265 . S
O458 Eu440 2.373 . S
O458 C471 1.258 . S
O459 Eu441 2.392 . S
O459 C471 1.242 . S
O460 Eu441 2.418 . S
O460 C442 1.244 . S
O461 Eu440 2.488 . S
O461 C449 1.249 . S
O462 Eu440 2.471 . S
O462 C449 1.244 . S
O463 Eu440 2.349 . S
O463 C442 1.265 . S
C464 C465 1.379 . S
C464 C468 1.373 . S
C464 C470 1.505 . S
C465 C464 1.379 . S
C465 C467 1.369 1_554 S
C465 H476 0.930 . S
C466 C468 1.383 1_556 S
C466 C469 1.382 . S
C466 H477 0.930 . S
C467 C465 1.369 1_556 S
C467 C469 1.392 . S
C467 H478 0.930 . S
C468 C464 1.373 . S
C468 C466 1.383 1_554 S
C468 H479 0.931 . S
C469 C466 1.382 . S
C469 C467 1.392 . S
C470 Eu441 2.828 . S
C470 O454 1.249 . S
C470 O455 1.244 . S
C470 C464 1.505 . S
C471 O458 1.258 . S
C471 O459 1.242 . S
H472 C444 0.930 . S
H473 C445 0.930 . S
H474 C446 0.930 . S
H475 C447 0.931 . S
H476 C465 0.930 . S
H477 C466 0.930 . S
H478 C467 0.930 . S
H479 C468 0.931 . S
Eu480 C489 2.828 . S
Eu480 O491 2.392 . S
Eu480 O493 2.418 . S
Eu480 O498 2.373 . S
Eu480 O501 2.488 . S
Eu480 O502 2.471 1_565 S
Eu480 O503 2.349 1_565 S
Eu481 O490 2.373 1_565 S
Eu481 O494 2.488 1_565 S
Eu481 O495 2.471 . S
Eu481 O496 2.349 . S
Eu481 O499 2.392 . S
Eu481 O500 2.418 1_565 S
Eu481 C510 2.828 . S
C482 O500 1.244 . S
C482 O503 1.265 . S
C483 C484 1.379 1_565 S
C483 C487 1.373 . S
C483 C489 1.505 . S
C484 C483 1.379 1_545 S
C484 C486 1.369 . S
C484 H512 0.930 . S
C485 C487 1.383 . S
C485 C488 1.382 . S
C485 H513 0.930 . S
C486 C484 1.369 . S
C486 C488 1.392 1_545 S
C486 H514 0.930 . S
C487 C483 1.373 . S
C487 C485 1.383 . S
C487 H515 0.931 . S
C488 C485 1.382 . S
C488 C486 1.392 1_565 S
C489 Eu480 2.828 . S
C489 C483 1.505 . S
C489 O501 1.249 . S
C489 O502 1.244 1_565 S
O490 Eu481 2.373 1_545 S
O490 C492 1.258 . S
O491 Eu480 2.392 . S
O491 C492 1.242 1_565 S
C492 O490 1.258 . S
C492 O491 1.242 1_545 S
O493 Eu480 2.418 . S
O493 C497 1.244 . S
O494 Eu481 2.488 1_545 S
O494 C510 1.249 1_545 S
O495 Eu481 2.471 . S
O495 C510 1.244 . S
O496 Eu481 2.349 . S
O496 C497 1.265 . S
C497 O493 1.244 . S
C497 O496 1.265 . S
O498 Eu480 2.373 . S
O498 C511 1.258 . S
O499 Eu481 2.392 . S
O499 C511 1.242 . S
O500 Eu481 2.418 1_545 S
O500 C482 1.244 . S
O501 Eu480 2.488 . S
O501 C489 1.249 . S
O502 Eu480 2.471 1_545 S
O502 C489 1.244 1_545 S
O503 Eu480 2.349 1_545 S
O503 C482 1.265 . S
C504 C505 1.379 . S
C504 C508 1.373 . S
C504 C510 1.505 . S
C505 C504 1.379 . S
C505 C507 1.369 1_556 S
C505 H516 0.930 . S
C506 C508 1.383 1_554 S
C506 C509 1.382 . S
C506 H517 0.930 1_565 S
C507 C505 1.369 1_554 S
C507 C509 1.392 . S
C507 H518 0.930 . S
C508 C504 1.373 . S
C508 C506 1.383 1_556 S
C508 H519 0.931 1_565 S
C509 C506 1.382 . S
C509 C507 1.392 . S
C510 Eu481 2.828 . S
C510 O494 1.249 1_565 S
C510 O495 1.244 . S
C510 C504 1.505 . S
C511 O498 1.258 . S
C511 O499 1.242 . S
H512 C484 0.930 . S
H513 C485 0.930 . S
H514 C486 0.930 . S
H515 C487 0.931 . S
H516 C505 0.930 . S
H517 C506 0.930 1_545 S
H518 C507 0.930 . S
H519 C508 0.931 1_545 S
Eu520 C529 2.828 . S
Eu520 O531 2.392 . S
Eu520 O533 2.418 1_655 S
Eu520 O538 2.373 1_655 S
Eu520 O541 2.488 1_655 S
Eu520 O542 2.471 . S
Eu520 O543 2.349 . S
Eu521 O530 2.373 . S
Eu521 O534 2.488 . S
Eu521 O535 2.471 1_655 S
Eu521 O536 2.349 1_655 S
Eu521 O539 2.392 . S
Eu521 O540 2.418 . S
Eu521 C550 2.828 . S
C522 O540 1.244 . S
C522 O543 1.265 . S
C523 C524 1.379 . S
C523 C527 1.373 . S
C523 C529 1.505 . S
C524 C523 1.379 . S
C524 C526 1.369 1_554 S
C524 H552 0.930 . S
C525 C527 1.383 1_556 S
C525 C528 1.382 . S
C525 H553 0.930 1_655 S
C526 C524 1.369 1_556 S
C526 C528 1.392 . S
C526 H554 0.930 . S
C527 C523 1.373 . S
C527 C525 1.383 1_554 S
C527 H555 0.931 1_655 S
C528 C525 1.382 . S
C528 C526 1.392 . S
C529 Eu520 2.828 . S
C529 C523 1.505 . S
C529 O541 1.249 1_655 S
C529 O542 1.244 . S
O530 Eu521 2.373 . S
O530 C532 1.258 . S
O531 Eu520 2.392 . S
O531 C532 1.242 . S
C532 O530 1.258 . S
C532 O531 1.242 . S
O533 Eu520 2.418 1_455 S
O533 C537 1.244 . S
O534 Eu521 2.488 . S
O534 C550 1.249 . S
O535 Eu521 2.471 1_455 S
O535 C550 1.244 1_455 S
O536 Eu521 2.349 1_455 S
O536 C537 1.265 . S
C537 O533 1.244 . S
C537 O536 1.265 . S
O538 Eu520 2.373 1_455 S
O538 C551 1.258 . S
O539 Eu521 2.392 . S
O539 C551 1.242 1_655 S
O540 Eu521 2.418 . S
O540 C522 1.244 . S
O541 Eu520 2.488 1_455 S
O541 C529 1.249 1_455 S
O542 Eu520 2.471 . S
O542 C529 1.244 . S
O543 Eu520 2.349 . S
O543 C522 1.265 . S
C544 C545 1.379 1_655 S
C544 C548 1.373 . S
C544 C550 1.505 . S
C545 C544 1.379 1_455 S
C545 C547 1.369 . S
C545 H556 0.930 . S
C546 C548 1.383 . S
C546 C549 1.382 . S
C546 H557 0.930 . S
C547 C545 1.369 . S
C547 C549 1.392 1_455 S
C547 H558 0.930 . S
C548 C544 1.373 . S
C548 C546 1.383 . S
C548 H559 0.931 . S
C549 C546 1.382 . S
C549 C547 1.392 1_655 S
C550 Eu521 2.828 . S
C550 O534 1.249 . S
C550 O535 1.244 1_655 S
C550 C544 1.505 . S
C551 O538 1.258 . S
C551 O539 1.242 1_455 S
H552 C524 0.930 . S
H553 C525 0.930 1_455 S
H554 C526 0.930 . S
H555 C527 0.931 1_455 S
H556 C545 0.930 . S
H557 C546 0.930 . S
H558 C547 0.930 . S
H559 C548 0.931 . S
Eu560 C569 2.828 . S
Eu560 O571 2.392 . S
Eu560 O573 2.418 . S
Eu560 O578 2.373 . S
Eu560 O581 2.488 . S
Eu560 O582 2.471 1_545 S
Eu560 O583 2.349 1_545 S
Eu561 O570 2.373 1_545 S
Eu561 O574 2.488 1_545 S
Eu561 O575 2.471 . S
Eu561 O576 2.349 . S
Eu561 O579 2.392 . S
Eu561 O580 2.418 1_545 S
Eu561 C590 2.828 . S
C562 O580 1.244 . S
C562 O583 1.265 . S
C563 C564 1.379 1_545 S
C563 C567 1.373 . S
C563 C569 1.505 . S
C564 C563 1.379 1_565 S
C564 C566 1.369 . S
C564 H592 0.930 . S
C565 C567 1.383 . S
C565 C568 1.382 . S
C565 H593 0.930 . S
C566 C564 1.369 . S
C566 C568 1.392 1_565 S
C566 H594 0.930 . S
C567 C563 1.373 . S
C567 C565 1.383 . S
C567 H595 0.931 . S
C568 C565 1.382 . S
C568 C566 1.392 1_545 S
C569 Eu560 2.828 . S
C569 C563 1.505 . S
C569 O581 1.249 . S
C569 O582 1.244 1_545 S
O570 Eu561 2.373 1_565 S
O570 C572 1.258 . S
O571 Eu560 2.392 . S
O571 C572 1.242 1_545 S
C572 O570 1.258 . S
C572 O571 1.242 1_565 S
O573 Eu560 2.418 . S
O573 C577 1.244 . S
O574 Eu561 2.488 1_565 S
O574 C590 1.249 1_565 S
O575 Eu561 2.471 . S
O575 C590 1.244 . S
O576 Eu561 2.349 . S
O576 C577 1.265 . S
C577 O573 1.244 . S
C577 O576 1.265 . S
O578 Eu560 2.373 . S
O578 C591 1.258 . S
O579 Eu561 2.392 . S
O579 C591 1.242 . S
O580 Eu561 2.418 1_565 S
O580 C562 1.244 . S
O581 Eu560 2.488 . S
O581 C569 1.249 . S
O582 Eu560 2.471 1_565 S
O582 C569 1.244 1_565 S
O583 Eu560 2.349 1_565 S
O583 C562 1.265 . S
C584 C585 1.379 . S
C584 C588 1.373 . S
C584 C590 1.505 . S
C585 C584 1.379 . S
C585 C587 1.369 1_556 S
C585 H596 0.930 . S
C586 C588 1.383 1_554 S
C586 C589 1.382 . S
C586 H597 0.930 1_545 S
C587 C585 1.369 1_554 S
C587 C589 1.392 . S
C587 H598 0.930 . S
C588 C584 1.373 . S
C588 C586 1.383 1_556 S
C588 H599 0.931 1_545 S
C589 C586 1.382 . S
C589 C587 1.392 . S
C590 Eu561 2.828 . S
C590 O574 1.249 1_545 S
C590 O575 1.244 . S
C590 C584 1.505 . S
C591 O578 1.258 . S
C591 O579 1.242 . S
H592 C564 0.930 . S
H593 C565 0.930 . S
H594 C566 0.930 . S
H595 C567 0.931 . S
H596 C585 0.930 . S
H597 C586 0.930 1_565 S
H598 C587 0.930 . S
H599 C588 0.931 1_565 S
Eu600 C609 2.828 . S
Eu600 O611 2.392 . S
Eu600 O613 2.418 1_455 S
Eu600 O618 2.373 1_455 S
Eu600 O621 2.488 1_455 S
Eu600 O622 2.471 . S
Eu600 O623 2.349 . S
Eu601 O610 2.373 . S
Eu601 O614 2.488 . S
Eu601 O615 2.471 1_455 S
Eu601 O616 2.349 1_455 S
Eu601 O619 2.392 . S
Eu601 O620 2.418 . S
Eu601 C630 2.828 . S
C602 O620 1.244 . S
C602 O623 1.265 . S
C603 C604 1.379 . S
C603 C607 1.373 . S
C603 C609 1.505 . S
C604 C603 1.379 . S
C604 C606 1.369 1_554 S
C604 H632 0.930 . S
C605 C607 1.383 1_556 S
C605 C608 1.382 . S
C605 H633 0.930 1_455 S
C606 C604 1.369 1_556 S
C606 C608 1.392 . S
C606 H634 0.930 . S
C607 C603 1.373 . S
C607 C605 1.383 1_554 S
C607 H635 0.931 1_455 S
C608 C605 1.382 . S
C608 C606 1.392 . S
C609 Eu600 2.828 . S
C609 C603 1.505 . S
C609 O621 1.249 1_455 S
C609 O622 1.244 . S
O610 Eu601 2.373 . S
O610 C612 1.258 . S
O611 Eu600 2.392 . S
O611 C612 1.242 . S
C612 O610 1.258 . S
C612 O611 1.242 . S
O613 Eu600 2.418 1_655 S
O613 C617 1.244 . S
O614 Eu601 2.488 . S
O614 C630 1.249 . S
O615 Eu601 2.471 1_655 S
O615 C630 1.244 1_655 S
O616 Eu601 2.349 1_655 S
O616 C617 1.265 . S
C617 O613 1.244 . S
C617 O616 1.265 . S
O618 Eu600 2.373 1_655 S
O618 C631 1.258 . S
O619 Eu601 2.392 . S
O619 C631 1.242 1_455 S
O620 Eu601 2.418 . S
O620 C602 1.244 . S
O621 Eu600 2.488 1_655 S
O621 C609 1.249 1_655 S
O622 Eu600 2.471 . S
O622 C609 1.244 . S
O623 Eu600 2.349 . S
O623 C602 1.265 . S
C624 C625 1.379 1_455 S
C624 C628 1.373 . S
C624 C630 1.505 . S
C625 C624 1.379 1_655 S
C625 C627 1.369 . S
C625 H636 0.930 . S
C626 C628 1.383 . S
C626 C629 1.382 . S
C626 H637 0.930 . S
C627 C625 1.369 . S
C627 C629 1.392 1_655 S
C627 H638 0.930 . S
C628 C624 1.373 . S
C628 C626 1.383 . S
C628 H639 0.931 . S
C629 C626 1.382 . S
C629 C627 1.392 1_455 S
C630 Eu601 2.828 . S
C630 O614 1.249 . S
C630 O615 1.244 1_455 S
C630 C624 1.505 . S
C631 O618 1.258 . S
C631 O619 1.242 1_655 S
H632 C604 0.930 . S
H633 C605 0.930 1_655 S
H634 C606 0.930 . S
H635 C607 0.931 1_655 S
H636 C625 0.930 . S
H637 C626 0.930 . S
H638 C627 0.930 . S
H639 C628 0.931 . S
C452 C2 2.443 . S
C351 C57 2.443 . S
C82 C372 2.443 . S
C137 C431 2.443 . S
C162 C212 2.443 1_554 S
C271 C217 2.443 1_554 S
C242 C292 2.443 1_554 S
C191 C297 2.443 1_554 S
C132 C322 2.443 . S
C377 C31 2.443 . S
C52 C402 2.443 . S
C111 C457 2.443 . S
C482 C532 2.443 . S
C591 C537 2.443 . S
C612 C562 2.443 . S
C617 C511 2.443 . S
C17 C177 1.400 . S
C202 C42 1.400 . S
C97 C257 1.400 . S
C122 C282 1.400 . S
C337 C497 1.400 . S
C522 C362 1.400 . S
C417 C577 1.400 . S
C442 C602 1.400 . S
C572 C12 5.685 1_556 S
C71 C631 5.685 1_556 S
C92 C492 5.685 1_554 S
C151 C551 5.685 1_556 S
C172 C412 5.685 . S
C231 C471 5.685 . S
C252 C332 5.685 . S
C391 C311 5.685 . S
C8 C29 4.721 . S
C69 C48 4.721 . S
C88 C109 4.721 . S
C128 C149 4.721 . S
C189 C168 4.721 . S
C229 C208 4.721 . S
C248 C269 4.721 . S
C288 C309 4.721 . S
C328 C349 4.721 . S
C368 C389 4.721 . S
C429 C408 4.721 . S
C469 C448 4.721 . S
C488 C509 4.721 . S
C528 C549 4.721 . S
C589 C568 4.721 . S
C629 C608 4.721 . S
