# Generated by pormake.
# Topology ske, (6)-cn, num edge types: 1
# Building blocks:
#     Node 0, Type 0, BuildingBlock: PAMTOO_clean_sbu_0, # of connection points: 6
#     Node 1, Type 0, BuildingBlock: PAMTOO_clean_sbu_0, # of connection points: 6
#     Node 2, Type 0, BuildingBlock: PAMTOO_clean_sbu_0, # of connection points: 6
#     Node 3, Type 0, BuildingBlock: PAMTOO_clean_sbu_0, # of connection points: 6
#     Node 4, Type 0, BuildingBlock: PAMTOO_clean_sbu_0, # of connection points: 6
#     Node 5, Type 0, BuildingBlock: PAMTOO_clean_sbu_0, # of connection points: 6
#     Node 6, Type 0, BuildingBlock: PAMTOO_clean_sbu_0, # of connection points: 6
#     Node 7, Type 0, BuildingBlock: PAMTOO_clean_sbu_0, # of connection points: 6
#     Edge 8, Type (0, 0), BuildingBlock: ZUJKAS_clean_linker_0, # of connection points: 2
#     Edge 9, Type (0, 0), BuildingBlock: ZUJKAS_clean_linker_0, # of connection points: 2
#     Edge 10, Type (0, 0), BuildingBlock: ZUJKAS_clean_linker_0, # of connection points: 2
#     Edge 11, Type (0, 0), BuildingBlock: ZUJKAS_clean_linker_0, # of connection points: 2
#     Edge 12, Type (0, 0), BuildingBlock: ZUJKAS_clean_linker_0, # of connection points: 2
#     Edge 13, Type (0, 0), BuildingBlock: ZUJKAS_clean_linker_0, # of connection points: 2
#     Edge 14, Type (0, 0), BuildingBlock: ZUJKAS_clean_linker_0, # of connection points: 2
#     Edge 15, Type (0, 0), BuildingBlock: ZUJKAS_clean_linker_0, # of connection points: 2
#     Edge 16, Type (0, 0), BuildingBlock: ZUJKAS_clean_linker_0, # of connection points: 2
#     Edge 17, Type (0, 0), BuildingBlock: ZUJKAS_clean_linker_0, # of connection points: 2
#     Edge 18, Type (0, 0), BuildingBlock: ZUJKAS_clean_linker_0, # of connection points: 2
#     Edge 19, Type (0, 0), BuildingBlock: ZUJKAS_clean_linker_0, # of connection points: 2
#     Edge 20, Type (0, 0), BuildingBlock: ZUJKAS_clean_linker_0, # of connection points: 2
#     Edge 21, Type (0, 0), BuildingBlock: ZUJKAS_clean_linker_0, # of connection points: 2
#     Edge 22, Type (0, 0), BuildingBlock: ZUJKAS_clean_linker_0, # of connection points: 2
#     Edge 23, Type (0, 0), BuildingBlock: ZUJKAS_clean_linker_0, # of connection points: 2
#     Edge 24, Type (0, 0), BuildingBlock: ZUJKAS_clean_linker_0, # of connection points: 2
#     Edge 25, Type (0, 0), BuildingBlock: ZUJKAS_clean_linker_0, # of connection points: 2
#     Edge 26, Type (0, 0), BuildingBlock: ZUJKAS_clean_linker_0, # of connection points: 2
#     Edge 27, Type (0, 0), BuildingBlock: ZUJKAS_clean_linker_0, # of connection points: 2
#     Edge 28, Type (0, 0), BuildingBlock: ZUJKAS_clean_linker_0, # of connection points: 2
#     Edge 29, Type (0, 0), BuildingBlock: ZUJKAS_clean_linker_0, # of connection points: 2
#     Edge 30, Type (0, 0), BuildingBlock: ZUJKAS_clean_linker_0, # of connection points: 2
#     Edge 31, Type (0, 0), BuildingBlock: ZUJKAS_clean_linker_0, # of connection points: 2
# Relax obj value: 0.158
# Max RMSD: 0.177
# Mean RMSD: 0.171
data_MOF--net-ske--node1-PAMTOO_clean_sbu_0--edge1-ZUJKAS_clean_linker_0
_symmetry_space_group_name_H-M    P1
_symmetry_Int_Tables_number       1
_symmetry_cell_setting            triclinic
loop_
_symmetry_equiv_pos_as_xyz
'x, y, z'
_cell_length_a     122.24352
_cell_length_b     39.01811
_cell_length_c     19.915893
_cell_angle_alpha  90.000409
_cell_angle_beta   89.960499
_cell_angle_gamma 90.021058
loop_
_atom_site_label
_atom_site_type_symbol
_atom_site_fract_x
_atom_site_fract_y
_atom_site_fract_z
_atom_type_partial_charge
Dy0 Dy 0.14811 0.2527 0.57006 0.0
Dy1 Dy 0.12069 0.25538 0.57404 0.0
C2 C 0.13367 0.18524 0.5655 0.0
O3 O 0.14298 0.24389 0.46396 0.0
O4 O 0.1248 0.26049 0.46493 0.0
O5 O 0.16341 0.22649 0.54942 0.0
O6 O 0.1634 0.27944 0.58268 0.0
O7 O 0.12722 0.30718 0.59892 0.0
O8 O 0.14243 0.30356 0.5334 0.0
O9 O 0.12614 0.24397 0.6785 0.0
O10 O 0.14392 0.26332 0.67726 0.0
O11 O 0.10546 0.2811 0.5512 0.0
O12 O 0.10545 0.23477 0.61173 0.0
C13 C 0.13383 0.25187 0.43285 0.0
O14 O 0.14201 0.20024 0.5951 0.0
O15 O 0.12548 0.20304 0.54088 0.0
C16 C 0.17961 0.247 0.60479 0.0
C17 C 0.20101 0.24086 0.65841 0.0
C18 C 0.19653 0.21468 0.61831 0.0
C19 C 0.18598 0.21779 0.59162 0.0
C20 C 0.18391 0.27255 0.64707 0.0
C21 C 0.19446 0.26948 0.67364 0.0
C22 C 0.16934 0.25289 0.5667 0.0
C23 C 0.13492 0.32193 0.56335 0.0
C24 C 0.13508 0.25364 0.70973 0.0
C25 C 0.08873 0.24862 0.55568 0.0
C26 C 0.0666 0.23779 0.51871 0.0
C27 C 0.07348 0.25867 0.47931 0.0
C28 C 0.08442 0.26411 0.49768 0.0
C29 C 0.08199 0.22675 0.59344 0.0
C30 C 0.07108 0.22134 0.5752 0.0
C31 C 0.09954 0.25852 0.58328 0.0
H32 H 0.20126 0.19203 0.60634 0.0
H33 H 0.18297 0.19783 0.55863 0.0
H34 H 0.17931 0.29566 0.65755 0.0
H35 H 0.19766 0.29037 0.70358 0.0
H36 H 0.07036 0.2714 0.43498 0.0
H37 H 0.08937 0.28133 0.4677 0.0
H38 H 0.08501 0.21494 0.63903 0.0
H39 H 0.06604 0.20555 0.60746 0.0
Dy40 Dy 0.86795 0.24927 0.57114 0.0
Dy41 Dy 0.8953 0.25541 0.57567 0.0
C42 C 0.88017 0.3201 0.56633 0.0
O43 O 0.87335 0.24092 0.46536 0.0
O44 O 0.89118 0.2608 0.46672 0.0
O45 O 0.85226 0.27332 0.58497 0.0
O46 O 0.85312 0.22103 0.54792 0.0
O47 O 0.89117 0.2023 0.54324 0.0
O48 O 0.87472 0.19794 0.59802 0.0
O49 O 0.89002 0.2436 0.68035 0.0
O50 O 0.87193 0.26007 0.6786 0.0
O51 O 0.911 0.2359 0.6073 0.0
O52 O 0.90993 0.28541 0.55762 0.0
C53 C 0.88236 0.25059 0.43441 0.0
O54 O 0.87292 0.30108 0.53557 0.0
O55 O 0.88795 0.30595 0.60204 0.0
C56 C 0.83658 0.23795 0.60341 0.0
C57 C 0.81541 0.22955 0.65884 0.0
C58 C 0.82307 0.25151 0.6894 0.0
C59 C 0.83355 0.25567 0.66202 0.0
C60 C 0.8291 0.21497 0.57453 0.0
C61 C 0.81865 0.21071 0.60199 0.0
C62 C 0.84677 0.24621 0.56656 0.0
C63 C 0.8832 0.1837 0.56849 0.0
C64 C 0.8809 0.25189 0.71129 0.0
C65 C 0.92725 0.25705 0.55416 0.0
C66 C 0.9493 0.24714 0.51503 0.0
C67 C 0.94176 0.21981 0.51288 0.0
C68 C 0.93084 0.22469 0.53239 0.0
C69 C 0.93464 0.28452 0.55404 0.0
C70 C 0.94552 0.27968 0.5348 0.0
C71 C 0.91634 0.26245 0.58445 0.0
H72 H 0.8209 0.26601 0.73381 0.0
H73 H 0.83912 0.27362 0.68549 0.0
H74 H 0.83118 0.20131 0.5289 0.0
H75 H 0.81294 0.19386 0.57672 0.0
H76 H 0.94434 0.19451 0.4971 0.0
H77 H 0.9253 0.20301 0.53211 0.0
H78 H 0.9321 0.30961 0.57141 0.0
H79 H 0.95107 0.30124 0.53831 0.0
Dy80 Dy 0.14783 0.75217 0.44556 0.0
Dy81 Dy 0.12044 0.75596 0.44184 0.0
C82 C 0.13493 0.82188 0.45113 0.0
O83 O 0.14263 0.74308 0.55149 0.0
O84 O 0.12464 0.7615 0.55072 0.0
O85 O 0.16318 0.77875 0.43451 0.0
O86 O 0.16305 0.72534 0.46482 0.0
O87 O 0.12503 0.70342 0.4749 0.0
O88 O 0.14154 0.69996 0.42048 0.0
O89 O 0.12577 0.74429 0.3372 0.0
O90 O 0.14368 0.76258 0.33822 0.0
O91 O 0.10497 0.73529 0.40817 0.0
O92 O 0.10547 0.78355 0.46241 0.0
C93 C 0.13358 0.75199 0.58275 0.0
O94 O 0.14232 0.80331 0.48176 0.0
O95 O 0.12723 0.80725 0.41555 0.0
C96 C 0.17941 0.74668 0.41166 0.0
C97 C 0.20096 0.73992 0.36078 0.0
C98 C 0.19563 0.77182 0.36017 0.0
C99 C 0.18501 0.77518 0.38541 0.0
C100 C 0.18457 0.71446 0.4099 0.0
C101 C 0.19521 0.71108 0.38433 0.0
C102 C 0.16906 0.7519 0.44933 0.0
C103 C 0.13314 0.68529 0.45007 0.0
C104 C 0.13478 0.75336 0.30587 0.0
C105 C 0.08852 0.75232 0.46487 0.0
C106 C 0.06632 0.74395 0.50289 0.0
C107 C 0.07145 0.72001 0.46049 0.0
C108 C 0.0824 0.72422 0.44154 0.0
C109 C 0.08354 0.77542 0.50966 0.0
C110 C 0.07259 0.77122 0.5286 0.0
C111 C 0.0993 0.76033 0.43419 0.0
H112 H 0.19976 0.79446 0.34148 0.0
H113 H 0.18136 0.80046 0.38669 0.0
H114 H 0.18056 0.69207 0.43066 0.0
H115 H 0.19911 0.68617 0.38593 0.0
H116 H 0.06687 0.69894 0.43903 0.0
H117 H 0.08591 0.70629 0.40604 0.0
H118 H 0.08796 0.79757 0.52806 0.0
H119 H 0.06894 0.78987 0.56209 0.0
Dy120 Dy 0.8671 0.75149 0.45156 0.0
Dy121 Dy 0.89451 0.75353 0.44654 0.0
C122 C 0.88132 0.68365 0.45485 0.0
O123 O 0.87237 0.74223 0.5572 0.0
O124 O 0.89046 0.75971 0.55553 0.0
O125 O 0.85177 0.72591 0.47329 0.0
O126 O 0.85186 0.77888 0.43981 0.0
O127 O 0.88801 0.80512 0.41986 0.0
O128 O 0.87298 0.80243 0.48687 0.0
O129 O 0.88903 0.7423 0.34206 0.0
O130 O 0.8712 0.76135 0.34389 0.0
O131 O 0.90961 0.78069 0.46504 0.0
O132 O 0.90986 0.73156 0.41378 0.0
C133 C 0.8815 0.75073 0.58801 0.0
O134 O 0.87298 0.69892 0.42582 0.0
O135 O 0.88956 0.70123 0.47953 0.0
C136 C 0.83541 0.74749 0.42109 0.0
C137 C 0.81408 0.73864 0.36819 0.0
C138 C 0.82134 0.7107 0.37276 0.0
C139 C 0.8319 0.71505 0.39905 0.0
C140 C 0.82826 0.77543 0.41514 0.0
C141 C 0.81775 0.77112 0.38905 0.0
C142 C 0.84589 0.75259 0.45707 0.0
C143 C 0.88046 0.8204 0.45566 0.0
C144 C 0.88003 0.75178 0.31116 0.0
C145 C 0.92647 0.74907 0.46835 0.0
C146 C 0.94875 0.74125 0.50474 0.0
C147 C 0.94252 0.76874 0.5299 0.0
C148 C 0.93153 0.77266 0.51177 0.0
C149 C 0.93254 0.72073 0.44573 0.0
C150 C 0.94353 0.71679 0.46391 0.0
C151 C 0.91566 0.75682 0.43795 0.0
H152 H 0.81884 0.6854 0.35655 0.0
H153 H 0.83721 0.69294 0.4034 0.0
H154 H 0.83068 0.80059 0.4328 0.0
H155 H 0.81236 0.79313 0.38761 0.0
H156 H 0.94623 0.7878 0.56223 0.0
H157 H 0.92714 0.795 0.5296 0.0
H158 H 0.92897 0.70241 0.41128 0.0
H159 H 0.94809 0.69552 0.44296 0.0
Dy160 Dy 0.64889 0.7493 0.07237 0.0
Dy161 Dy 0.62148 0.75263 0.07802 0.0
C162 C 0.63433 0.68192 0.06969 0.0
O163 O 0.64348 0.73994 0.96705 0.0
O164 O 0.62543 0.75772 0.96869 0.0
O165 O 0.66405 0.72302 0.04947 0.0
O166 O 0.66428 0.77587 0.08365 0.0
O167 O 0.62816 0.80441 0.10221 0.0
O168 O 0.64325 0.80034 0.03589 0.0
O169 O 0.62703 0.74193 0.18255 0.0
O170 O 0.645 0.75963 0.18014 0.0
O171 O 0.60635 0.77945 0.05674 0.0
O172 O 0.60619 0.73235 0.11493 0.0
C173 C 0.63436 0.74845 0.93624 0.0
O174 O 0.64281 0.69685 0.09807 0.0
O175 O 0.62609 0.69982 0.04589 0.0
C176 C 0.68072 0.74421 0.09621 0.0
C177 C 0.70163 0.73731 0.15516 0.0
C178 C 0.69221 0.72565 0.18914 0.0
C179 C 0.6818 0.72921 0.15994 0.0
C180 C 0.69009 0.75526 0.06203 0.0
C181 C 0.70041 0.75185 0.09101 0.0
C182 C 0.67006 0.7497 0.06372 0.0
C183 C 0.63583 0.81898 0.06616 0.0
C184 C 0.6361 0.75091 0.21313 0.0
C185 C 0.58942 0.74825 0.06048 0.0
C186 C 0.56702 0.73635 0.03198 0.0
C187 C 0.57171 0.76883 0.0214 0.0
C188 C 0.58276 0.77471 0.03569 0.0
C189 C 0.58488 0.71534 0.06808 0.0
C190 C 0.57382 0.70945 0.05385 0.0
C191 C 0.60036 0.75677 0.08799 0.0
H192 H 0.69286 0.71447 0.23874 0.0
H193 H 0.67463 0.72061 0.18714 0.0
H194 H 0.68942 0.76681 0.0127 0.0
H195 H 0.70748 0.76051 0.06284 0.0
H196 H 0.56672 0.79027 1.00545 0.0
H197 H 0.58596 0.80046 0.03041 0.0
H198 H 0.58975 0.69439 0.08755 0.0
H199 H 0.57052 0.684 0.06164 0.0
Dy200 Dy 0.36728 0.75049 0.07891 0.0
Dy201 Dy 0.3947 0.74837 0.08364 0.0
C202 C 0.38163 0.81739 0.07391 0.0
O203 O 0.37232 0.74207 0.97255 0.0
O204 O 0.39085 0.75443 0.97444 0.0
O205 O 0.35241 0.77921 0.09569 0.0
O206 O 0.35163 0.7277 0.0548 0.0
O207 O 0.38911 0.69676 0.04989 0.0
O208 O 0.37227 0.69662 0.10119 0.0
O209 O 0.38907 0.73696 0.18769 0.0
O210 O 0.37167 0.75937 0.18645 0.0
O211 O 0.40979 0.72471 0.11631 0.0
O212 O 0.41012 0.77402 0.06564 0.0
C213 C 0.38168 0.74803 0.94194 0.0
O214 O 0.37381 0.80061 0.04333 0.0
O215 O 0.3889 0.80095 0.10986 0.0
C216 C 0.33584 0.74838 0.11415 0.0
C217 C 0.3148 0.73906 0.17133 0.0
C218 C 0.31893 0.77213 0.15902 0.0
C219 C 0.32929 0.77669 0.13072 0.0
C220 C 0.33188 0.71524 0.12791 0.0
C221 C 0.32148 0.71065 0.1563 0.0
C222 C 0.34609 0.7542 0.07604 0.0
C223 C 0.38042 0.68039 0.07212 0.0
C224 C 0.38029 0.74802 0.21892 0.0
C225 C 0.42675 0.7413 0.06417 0.0
C226 C 0.44916 0.73049 0.03378 0.0
C227 C 0.44267 0.70371 0.0595 0.0
C228 C 0.43161 0.70907 0.07472 0.0
C229 C 0.4331 0.76755 0.03552 0.0
C230 C 0.44415 0.7622 0.02032 0.0
C231 C 0.41587 0.74954 0.09302 0.0
H232 H 0.31398 0.79461 0.16875 0.0
H233 H 0.33203 0.80249 0.11967 0.0
H234 H 0.3367 0.69285 0.11535 0.0
H235 H 0.31862 0.68483 0.16576 0.0
H236 H 0.44621 0.6788 0.06961 0.0
H237 H 0.42701 0.68836 0.09737 0.0
H238 H 0.42968 0.79287 0.02792 0.0
H239 H 0.44889 0.78357 1.0014 0.0
Dy240 Dy 0.64885 0.24863 0.93676 0.0
Dy241 Dy 0.62158 0.25306 0.93201 0.0
C242 C 0.63618 0.31891 0.94373 0.0
O243 O 0.64356 0.2397 0.0426 0.0
O244 O 0.62561 0.2583 0.04125 0.0
O245 O 0.66441 0.27375 0.92387 0.0
O246 O 0.66385 0.22101 0.95826 0.0
O247 O 0.6259 0.20033 0.96569 0.0
O248 O 0.64239 0.19656 0.9113 0.0
O249 O 0.62711 0.2405 0.82807 0.0
O250 O 0.64481 0.26026 0.82974 0.0
O251 O 0.60632 0.2341 0.89244 0.0
O252 O 0.60644 0.27952 0.95543 0.0
C253 C 0.63449 0.24861 0.07361 0.0
O254 O 0.64359 0.30004 0.9735 0.0
O255 O 0.62845 0.30459 0.90775 0.0
C256 C 0.68021 0.23927 0.90226 0.0
C257 C 0.70136 0.23134 0.84614 0.0
C258 C 0.69421 0.25679 0.8221 0.0
C259 C 0.68376 0.26074 0.84982 0.0
C260 C 0.68717 0.21298 0.92438 0.0
C261 C 0.69761 0.20895 0.89651 0.0
C262 C 0.67006 0.24667 0.94043 0.0
C263 C 0.63398 0.182 0.94117 0.0
C264 C 0.63605 0.25033 0.7969 0.0
C265 C 0.58954 0.24818 0.94833 0.0
C266 C 0.56714 0.23523 0.97498 0.0
C267 C 0.5739 0.2094 0.94828 0.0
C268 C 0.58496 0.2158 0.935 0.0
C269 C 0.58292 0.27344 0.97798 0.0
C270 C 0.57187 0.26701 0.99142 0.0
C271 C 0.60047 0.25772 0.9218 0.0
H272 H 0.69679 0.27416 0.78271 0.0
H273 H 0.67862 0.28136 0.83167 0.0
H274 H 0.68472 0.19637 0.96532 0.0
H275 H 0.70292 0.18931 0.91675 0.0
H276 H 0.57056 0.18448 0.93589 0.0
H277 H 0.58979 0.19579 0.9117 0.0
H278 H 0.58615 0.29881 0.98779 0.0
H279 H 0.5669 0.28762 0.01134 0.0
Dy280 Dy 0.36764 0.24646 0.94417 0.0
Dy281 Dy 0.39499 0.25314 0.9404 0.0
C282 C 0.38318 0.18096 0.96102 0.0
O283 O 0.37292 0.25788 0.04952 0.0
O284 O 0.39099 0.24081 0.04745 0.0
O285 O 0.35333 0.21563 0.9245 0.0
O286 O 0.35158 0.2656 0.97081 0.0
O287 O 0.38835 0.30529 0.96015 0.0
O288 O 0.37092 0.30111 0.91738 0.0
O289 O 0.38893 0.2663 0.83773 0.0
O290 O 0.3727 0.23688 0.83779 0.0
O291 O 0.40998 0.27588 0.97732 0.0
O292 O 0.41036 0.24147 0.89174 0.0
C293 C 0.38206 0.24939 0.08044 0.0
O294 O 0.3744 0.19709 0.98206 0.0
O295 O 0.39128 0.19722 0.93158 0.0
C296 C 0.33616 0.24398 0.90917 0.0
C297 C 0.31475 0.24883 0.85511 0.0
C298 C 0.32129 0.21986 0.84261 0.0
C299 C 0.33183 0.21741 0.86948 0.0
C300 C 0.32978 0.27346 0.91981 0.0
C301 C 0.31922 0.2759 0.89293 0.0
C302 C 0.34654 0.23882 0.9466 0.0
C303 C 0.37925 0.31941 0.93876 0.0
C304 C 0.3808 0.25169 0.80553 0.0
C305 C 0.42705 0.2484 0.95404 0.0
C306 C 0.4494 0.23289 0.97639 0.0
C307 C 0.44472 0.26293 1.00285 0.0
C308 C 0.4337 0.27058 0.99167 0.0
C309 C 0.43157 0.21767 0.92975 0.0
C310 C 0.44262 0.20997 0.94097 0.0
C311 C 0.41607 0.26033 0.93302 0.0
H312 H 0.31809 0.1983 0.81455 0.0
H313 H 0.33643 0.19406 0.86122 0.0
H314 H 0.33279 0.29424 0.95077 0.0
H315 H 0.31448 0.2988 0.90282 0.0
H316 H 0.44968 0.28147 0.02945 0.0
H317 H 0.4305 0.29472 0.01004 0.0
H318 H 0.42669 0.2001 0.90016 0.0
H319 H 0.44591 0.18638 0.92064 0.0
H320 H 0.21883 0.21803 0.58754 0.0
H321 H 0.23801 0.21813 0.62195 0.0
H322 H 0.22897 0.26244 0.81237 0.0
H323 H 0.20971 0.26121 0.77945 0.0
H324 H 0.25074 0.27365 0.65496 0.0
H325 H 0.24852 0.18361 0.87002 0.0
H326 H 0.23762 0.1877 0.80942 0.0
H327 H 0.23906 0.21865 0.87577 0.0
C328 C 0.22086 0.2271 0.63737 0.0
C329 C 0.21266 0.23939 0.68086 0.0
C330 C 0.23187 0.22743 0.65671 0.0
C331 C 0.23494 0.2399 0.72006 0.0
C332 C 0.2268 0.25208 0.76373 0.0
H333 H 0.29686 0.27261 0.92388 0.0
H334 H 0.27771 0.27177 0.88877 0.0
C335 C 0.21578 0.25172 0.74449 0.0
C336 C 0.2467 0.24142 0.73918 0.0
H337 H 0.26514 0.21448 0.85679 0.0
C338 C 0.2539 0.26056 0.69889 0.0
C339 C 0.25083 0.22438 0.79655 0.0
C340 C 0.24364 0.20215 0.84014 0.0
C341 C 0.26505 0.26366 0.71508 0.0
C342 C 0.26917 0.24673 0.7726 0.0
C343 C 0.26198 0.22754 0.81282 0.0
C344 C 0.2809 0.24856 0.7921 0.0
C345 C 0.27228 0.28568 0.67132 0.0
C346 C 0.2891 0.23581 0.74944 0.0
C347 C 0.30009 0.23651 0.76914 0.0
C348 C 0.30313 0.24984 0.83215 0.0
C349 C 0.29488 0.26274 0.87456 0.0
C350 C 0.28389 0.262 0.85483 0.0
H351 H 0.26742 0.30376 0.64022 0.0
H352 H 0.27816 0.30063 0.70212 0.0
H353 H 0.27703 0.26899 0.63688 0.0
H354 H 0.28697 0.22478 0.70128 0.0
H355 H 0.30621 0.22652 0.73505 0.0
H356 H 0.71542 0.28462 0.82302 0.0
H357 H 0.73469 0.28186 0.79032 0.0
H358 H 0.73294 0.17155 0.78537 0.0
H359 H 0.71357 0.17407 0.81683 0.0
H360 H 0.75159 0.24758 0.86324 0.0
H361 H 0.74733 0.19697 0.60362 0.0
H362 H 0.73608 0.21641 0.64847 0.0
H363 H 0.74023 0.17339 0.66784 0.0
C364 C 0.71906 0.25977 0.81372 0.0
C365 C 0.71291 0.22956 0.82221 0.0
C366 C 0.73011 0.25824 0.79555 0.0
C367 C 0.73523 0.22654 0.78483 0.0
C368 C 0.72911 0.19632 0.7925 0.0
H369 H 0.80218 0.17289 0.67149 0.0
H370 H 0.78291 0.17117 0.70524 0.0
C371 C 0.71806 0.1978 0.81101 0.0
C372 C 0.74708 0.2252 0.76844 0.0
H373 H 0.76529 0.20233 0.64616 0.0
C374 C 0.75459 0.23773 0.81575 0.0
C375 C 0.75098 0.2121 0.70669 0.0
C376 C 0.74326 0.19917 0.65335 0.0
C377 C 0.76591 0.23736 0.80318 0.0
C378 C 0.76982 0.22485 0.74089 0.0
C379 C 0.7623 0.21193 0.69388 0.0
C380 C 0.78163 0.22575 0.72277 0.0
C381 C 0.77357 0.24985 0.85729 0.0
C382 C 0.78733 0.257 0.72104 0.0
C383 C 0.79833 0.25805 0.70191 0.0
C384 C 0.80388 0.2279 0.68334 0.0
C385 C 0.79815 0.19661 0.68511 0.0
C386 C 0.78714 0.19557 0.70453 0.0
H387 H 0.7697 0.2486 0.90773 0.0
H388 H 0.78123 0.23457 0.85822 0.0
H389 H 0.77574 0.277 0.84732 0.0
H390 H 0.78319 0.28075 0.73312 0.0
H391 H 0.8024 0.28268 0.69969 0.0
H392 H 0.30395 0.77721 0.26614 0.0
H393 H 0.28468 0.77343 0.29841 0.0
H394 H 0.28041 0.68712 0.16594 0.0
H395 H 0.29963 0.69104 0.13231 0.0
H396 H 0.26681 0.77902 0.20581 0.0
H397 H 0.26611 0.65543 0.34481 0.0
H398 H 0.2786 0.67902 0.32971 0.0
H399 H 0.27245 0.65461 0.2633 0.0
C400 C 0.29894 0.75733 0.2439 0.0
C401 C 0.30337 0.73452 0.19635 0.0
C402 C 0.28793 0.75512 0.2627 0.0
C403 C 0.28113 0.72985 0.23498 0.0
C404 C 0.28556 0.70645 0.18886 0.0
H405 H 0.21092 0.6903 0.28381 0.0
H406 H 0.23025 0.68711 0.25082 0.0
C407 C 0.29657 0.70871 0.1698 0.0
C408 C 0.26926 0.72955 0.25113 0.0
H409 H 0.24908 0.6826 0.32649 0.0
C410 C 0.26293 0.75796 0.23229 0.0
C411 C 0.2642 0.70189 0.28496 0.0
C412 C 0.27067 0.67105 0.30744 0.0
C413 C 0.25168 0.7595 0.24626 0.0
C414 C 0.24665 0.73224 0.28165 0.0
C415 C 0.25294 0.70352 0.29954 0.0
C416 C 0.23495 0.73367 0.30236 0.0
C417 C 0.24527 0.79014 0.22194 0.0
C418 C 0.2312 0.76048 0.34333 0.0
C419 C 0.2202 0.76243 0.36189 0.0
C420 C 0.21268 0.73738 0.3406 0.0
C421 C 0.2165 0.71 0.30102 0.0
C422 C 0.22753 0.70818 0.28207 0.0
H423 H 0.2494 0.80291 0.17896 0.0
H424 H 0.23689 0.78271 0.20627 0.0
H425 H 0.24461 0.80912 0.26322 0.0
H426 H 0.23682 0.77989 0.36133 0.0
H427 H 0.2176 0.78338 0.39383 0.0
H428 H 0.71773 0.78584 0.15458 0.0
H429 H 0.73642 0.78081 0.19628 0.0
H430 H 0.72941 0.67904 0.26895 0.0
H431 H 0.71068 0.68351 0.22532 0.0
H432 H 0.74422 0.76972 0.32443 0.0
H433 H 0.75674 0.66395 0.15367 0.0
H434 H 0.74434 0.68821 0.14118 0.0
H435 H 0.7449 0.65556 0.20467 0.0
C436 C 0.72016 0.76224 0.17898 0.0
C437 C 0.71273 0.73489 0.18575 0.0
C438 C 0.73085 0.7595 0.20319 0.0
C439 C 0.7344 0.72933 0.23466 0.0
C440 C 0.72693 0.70231 0.24359 0.0
H441 H 0.79999 0.68521 0.39444 0.0
H442 H 0.78063 0.6806 0.36372 0.0
C443 C 0.71619 0.70505 0.21933 0.0
C444 C 0.74594 0.72663 0.25773 0.0
H445 H 0.77001 0.68411 0.23011 0.0
C446 C 0.74984 0.75088 0.30403 0.0
C447 C 0.75328 0.702 0.23117 0.0
C448 C 0.74967 0.67608 0.17951 0.0
C449 C 0.76086 0.75147 0.32379 0.0
C450 C 0.76825 0.72744 0.29596 0.0
C451 C 0.76432 0.70253 0.25121 0.0
C452 C 0.78014 0.72892 0.31071 0.0
C453 C 0.76456 0.7779 0.37422 0.0
C454 C 0.78636 0.7571 0.2893 0.0
C455 C 0.79744 0.75966 0.30603 0.0
C456 C 0.80256 0.7341 0.34478 0.0
C457 C 0.79638 0.70525 0.3641 0.0
C458 C 0.78528 0.70265 0.34699 0.0
H459 H 0.75756 0.78888 0.40259 0.0
H460 H 0.77045 0.76663 0.41043 0.0
H461 H 0.76874 0.79915 0.34746 0.0
H462 H 0.7826 0.77736 0.26013 0.0
H463 H 0.80197 0.78187 0.28898 0.0
H464 H 0.14996 0.86055 0.51853 0.0
H465 H 0.14959 0.92236 0.53796 0.0
H466 H 0.11978 0.93028 0.42344 0.0
H467 H 0.12 0.86834 0.40406 0.0
H468 H 0.14922 0.97664 0.4417 0.0
H469 H 0.11238 0.97606 0.60557 0.0
H470 H 0.12003 0.93766 0.58664 0.0
H471 H 0.11077 0.95522 0.52571 0.0
C472 C 0.14332 0.87539 0.49735 0.0
C473 C 0.13497 0.85949 0.46006 0.0
C474 C 0.14314 0.9107 0.50849 0.0
C475 C 0.13457 0.93069 0.48297 0.0
C476 C 0.12635 0.91511 0.44452 0.0
H477 H 0.11825 0.14585 0.50295 0.0
H478 H 0.11873 0.08411 0.48349 0.0
C479 C 0.12653 0.87977 0.4332 0.0
C480 C 0.1343 0.96792 0.49651 0.0
H481 H 0.11955 0.03029 0.57542 0.0
C482 C 0.14277 0.98843 0.47109 0.0
C483 C 0.12585 0.98304 0.53488 0.0
C484 C 0.11678 0.96191 0.56535 0.0
C485 C 0.14291 0.02394 0.48203 0.0
C486 C 0.13447 0.03908 0.52057 0.0
C487 C 0.12601 0.01853 0.546 0.0
C488 C 0.13417 0.07634 0.53411 0.0
C489 C 0.15194 0.04503 0.45095 0.0
C490 C 0.14261 0.09228 0.57021 0.0
C491 C 0.1424 0.12763 0.58137 0.0
C492 C 0.13368 0.14758 0.55699 0.0
C493 C 0.1251 0.13131 0.52231 0.0
C494 C 0.12535 0.09601 0.5111 0.0
H495 H 0.15611 0.03106 0.40961 0.0
H496 H 0.14872 0.0696 0.43093 0.0
H497 H 0.15814 0.05106 0.48987 0.0
H498 H 0.14938 0.07738 0.58962 0.0
H499 H 0.1491 0.13931 0.60859 0.0
H500 H 0.89481 0.36733 0.61372 0.0
H501 H 0.89468 0.42925 0.59512 0.0
H502 H 0.86475 0.42003 0.482 0.0
H503 H 0.86488 0.35804 0.49941 0.0
H504 H 0.88057 0.45914 0.41787 0.0
H505 H 0.87505 0.50143 0.68181 0.0
H506 H 0.88636 0.47274 0.66964 0.0
H507 H 0.87264 0.45785 0.65524 0.0
C508 C 0.88814 0.37848 0.58538 0.0
C509 C 0.87984 0.35775 0.55818 0.0
C510 C 0.88806 0.4139 0.57508 0.0
C511 C 0.87962 0.42923 0.53798 0.0
C512 C 0.8713 0.40866 0.51103 0.0
H513 H 0.86573 0.63823 0.41165 0.0
H514 H 0.86532 0.57622 0.42958 0.0
C515 C 0.87139 0.37325 0.52114 0.0
C516 C 0.8797 0.46656 0.5249 0.0
H517 H 0.87951 0.54463 0.60215 0.0
C518 C 0.88027 0.47788 0.45807 0.0
C519 C 0.87931 0.49085 0.57755 0.0
C520 C 0.8782 0.48019 0.65007 0.0
C521 C 0.88069 0.51292 0.4425 0.0
C522 C 0.88039 0.53716 0.49518 0.0
C523 C 0.87977 0.52588 0.56196 0.0
C524 C 0.88078 0.57445 0.4822 0.0
C525 C 0.8817 0.52372 0.37002 0.0
C526 C 0.88956 0.59393 0.5065 0.0
C527 C 0.88983 0.62933 0.49651 0.0
C528 C 0.88126 0.64594 0.46242 0.0
C529 C 0.87249 0.62626 0.43783 0.0
C530 C 0.87225 0.5908 0.44777 0.0
H531 H 0.88431 0.50216 0.3373 0.0
H532 H 0.87364 0.53293 0.35193 0.0
H533 H 0.88766 0.54504 0.36462 0.0
H534 H 0.8962 0.58172 0.5334 0.0
H535 H 0.8967 0.64367 0.51627 0.0
H536 H 0.86583 0.86036 0.52356 0.0
H537 H 0.86659 0.92224 0.54111 0.0
H538 H 0.89627 0.92772 0.42455 0.0
H539 H 0.89567 0.86564 0.40705 0.0
H540 H 0.89708 0.96239 0.55042 0.0
H541 H 0.86032 -0.00172 0.40268 0.0
H542 H 0.85805 0.96511 0.46369 0.0
H543 H 0.86702 0.95728 0.3938 0.0
C544 C 0.87249 0.87469 0.5012 0.0
C545 C 0.88068 0.85806 0.46373 0.0
C546 C 0.87288 0.91009 0.51106 0.0
C547 C 0.88141 0.92953 0.48341 0.0
C548 C 0.88959 0.9131 0.44596 0.0
H549 H 0.89881 0.14528 0.505 0.0
H550 H 0.89872 0.08344 0.48605 0.0
C551 C 0.88921 0.87767 0.43593 0.0
C552 C 0.88197 0.96686 0.49567 0.0
H553 H 0.86817 0.04175 0.47071 0.0
C554 C 0.89081 0.97984 0.53268 0.0
C555 C 0.87375 0.9894 0.47257 0.0
C556 C 0.86429 0.97695 0.43046 0.0
C557 C 0.89152 0.01481 0.54857 0.0
C558 C 0.88326 0.03734 0.52575 0.0
C559 C 0.87446 0.02435 0.48835 0.0
C560 C 0.88359 0.07456 0.53976 0.0
C561 C 0.90095 0.02719 0.59105 0.0
C562 C 0.87503 0.09011 0.57549 0.0
C563 C 0.87502 0.12549 0.58609 0.0
C564 C 0.88354 0.146 0.56078 0.0
C565 C 0.89216 0.13025 0.52553 0.0
C566 C 0.89215 0.09486 0.51489 0.0
H567 H 0.90491 0.0058 0.6187 0.0
H568 H 0.9072 0.03912 0.55809 0.0
H569 H 0.89819 0.04674 0.62787 0.0
H570 H 0.86833 0.07485 0.59483 0.0
H571 H 0.86824 0.13677 0.61333 0.0
H572 H 0.11749 0.64638 0.51179 0.0
H573 H 0.11769 0.58456 0.53063 0.0
H574 H 0.14859 0.57697 0.42722 0.0
H575 H 0.14847 0.63888 0.40756 0.0
H576 H 0.13252 0.52675 0.38962 0.0
H577 H 0.13806 0.53555 0.66609 0.0
H578 H 0.12685 0.56002 0.63287 0.0
H579 H 0.14064 0.57122 0.61048 0.0
C580 C 0.12433 0.63164 0.49281 0.0
C581 C 0.133 0.64763 0.45846 0.0
C582 C 0.12444 0.59633 0.50399 0.0
C583 C 0.13324 0.57641 0.48128 0.0
C584 C 0.14177 0.59205 0.4455 0.0
H585 H 0.14989 0.36085 0.49592 0.0
H586 H 0.14939 0.42256 0.47616 0.0
C587 C 0.14168 0.62741 0.43434 0.0
C588 C 0.13351 0.53919 0.49472 0.0
H589 H 0.13476 0.4803 0.6212 0.0
C590 C 0.13305 0.51652 0.44016 0.0
C591 C 0.13416 0.5261 0.5608 0.0
C592 C 0.13505 0.54941 0.62101 0.0
C593 C 0.13307 0.48093 0.45 0.0
C594 C 0.13378 0.46782 0.51608 0.0
C595 C 0.13421 0.49051 0.57064 0.0
C596 C 0.13419 0.43058 0.5296 0.0
C597 C 0.13211 0.45769 0.38971 0.0
C598 C 0.12599 0.41488 0.56813 0.0
C599 C 0.12628 0.3796 0.58003 0.0
C600 C 0.13482 0.35949 0.55376 0.0
C601 C 0.14315 0.37552 0.51645 0.0
C602 C 0.14286 0.41076 0.50472 0.0
H603 H 0.12876 0.47144 0.34541 0.0
H604 H 0.14034 0.44794 0.37615 0.0
H605 H 0.12678 0.43535 0.40083 0.0
H606 H 0.11928 0.42987 0.58816 0.0
H607 H 0.11975 0.36806 0.60907 0.0
H608 H 0.61869 0.64246 1.00916 0.0
H609 H 0.61905 0.58064 0.98996 0.0
H610 H 0.65023 0.574 0.09017 0.0
H611 H 0.64993 0.63585 0.11016 0.0
H612 H 0.63526 0.54406 0.91786 0.0
H613 H 0.63178 0.49871 0.18148 0.0
H614 H 0.62841 0.54196 0.15673 0.0
H615 H 0.64246 0.52945 0.16659 0.0
C616 C 0.62559 0.62788 0.02776 0.0
C617 C 0.63428 0.64417 0.06137 0.0
C618 C 0.62578 0.59254 0.01658 0.0
C619 C 0.6346 0.57273 0.03921 0.0
C620 C 0.64325 0.58876 0.07328 0.0
H621 H 0.65136 0.35727 0.01094 0.0
H622 H 0.6511 0.41902 0.03121 0.0
C623 C 0.64308 0.62415 0.08441 0.0
C624 C 0.63495 0.53551 0.02463 0.0
H625 H 0.63544 0.45663 0.09869 0.0
C626 C 0.63526 0.5249 0.95732 0.0
C627 C 0.63499 0.51066 0.07628 0.0
C628 C 0.6343 0.52063 0.14936 0.0
C629 C 0.63577 0.49003 0.94021 0.0
C630 C 0.63575 0.46513 0.99185 0.0
C631 C 0.63546 0.47578 0.0592 0.0
C632 C 0.63601 0.42787 0.97724 0.0
C633 C 0.63657 0.48022 0.86707 0.0
C634 C 0.62759 0.41232 0.9403 0.0
C635 C 0.62773 0.37701 0.92831 0.0
C636 C 0.63625 0.35654 0.95363 0.0
C637 C 0.64468 0.37224 0.99059 0.0
C638 C 0.64454 0.40755 1.00236 0.0
H639 H 0.63947 0.50194 0.8357 0.0
H640 H 0.6422 0.45819 0.85994 0.0
H641 H 0.62835 0.47261 0.84866 0.0
H642 H 0.62081 0.42741 0.92166 0.0
H643 H 0.62106 0.36571 0.90013 0.0
H644 H 0.39741 0.86051 0.12323 0.0
H645 H 0.39897 0.92242 0.10559 0.0
H646 H 0.36934 0.92122 0.98829 0.0
H647 H 0.36777 0.85942 1.00483 0.0
H648 H 0.38646 0.95748 0.92784 0.0
H649 H 0.38024 -0.00244 0.19301 0.0
H650 H 0.39095 0.96676 0.17975 0.0
H651 H 0.37699 0.95501 0.16356 0.0
C652 C 0.39119 0.87344 0.09402 0.0
C653 C 0.38244 0.85501 0.06564 0.0
C654 C 0.39208 0.90884 0.08419 0.0
C655 C 0.38421 0.92643 0.04623 0.0
C656 C 0.37549 0.90811 0.01784 0.0
H657 H 0.36793 0.13924 0.019 0.0
H658 H 0.3691 0.07771 0.03858 0.0
C659 C 0.3746 0.87278 0.02753 0.0
C660 C 0.38509 0.96385 0.03488 0.0
H661 H 0.38435 0.04122 0.1148 0.0
C662 C 0.38605 0.97583 0.96867 0.0
C663 C 0.38447 0.98765 0.0883 0.0
C664 C 0.38301 0.97625 0.16016 0.0
C665 C 0.3863 0.01105 0.95431 0.0
C666 C 0.38573 0.03485 1.00775 0.0
C667 C 0.38488 0.02286 0.07402 0.0
C668 C 0.38527 0.07229 0.99576 0.0
C669 C 0.38679 0.0225 0.88199 0.0
C670 C 0.39403 0.08974 0.96555 0.0
C671 C 0.39339 0.12508 0.95399 0.0
C672 C 0.38399 0.14355 0.97283 0.0
C673 C 0.37529 0.12591 1.00369 0.0
C674 C 0.37594 0.0907 0.01511 0.0
H675 H 0.38485 0.00128 0.84674 0.0
H676 H 0.381 0.0439 0.87281 0.0
H677 H 0.39517 0.03179 0.87051 0.0
H678 H 0.40138 0.07607 0.95123 0.0
H679 H 0.40026 0.13787 0.93051 0.0
H680 H 0.36058 0.35855 0.94267 0.0
H681 H 0.35938 0.42036 0.9639 0.0
H682 H 0.3946 0.42705 0.96558 0.0
H683 H 0.39587 0.36553 0.9462 0.0
H684 H 0.38566 0.45681 0.07475 0.0
H685 H 0.36459 0.50292 0.84471 0.0
H686 H 0.3575 0.46951 0.88895 0.0
H687 H 0.37051 0.46066 0.85065 0.0
C688 C 0.36806 0.37334 0.94642 0.0
C689 C 0.37832 0.35715 0.94302 0.0
C690 C 0.36736 0.40868 0.95835 0.0
C691 C 0.3769 0.42839 0.96588 0.0
C692 C 0.38713 0.41236 0.96012 0.0
H693 H 0.39662 0.63656 0.03235 0.0
H694 H 0.39507 0.57514 0.00981 0.0
C695 C 0.38783 0.37716 0.94898 0.0
C696 C 0.3764 0.46522 0.98417 0.0
H697 H 0.36764 0.54379 0.93079 0.0
C698 C 0.38171 0.47579 0.04321 0.0
C699 C 0.37119 0.48996 0.94318 0.0
C700 C 0.3657 0.48034 0.87802 0.0
C701 C 0.38208 0.51041 0.06191 0.0
C702 C 0.37703 0.53511 0.02047 0.0
C703 C 0.37148 0.52462 0.96236 0.0
C704 C 0.3779 0.57213 0.03527 0.0
C705 C 0.38791 0.52047 0.12569 0.0
C706 C 0.36873 0.59064 0.05695 0.0
C707 C 0.3696 0.62572 0.07042 0.0
C708 C 0.37962 0.64291 0.06154 0.0
C709 C 0.38878 0.62415 0.03977 0.0
C710 C 0.38793 0.58905 0.02692 0.0
H711 H 0.38956 0.49799 0.15839 0.0
H712 H 0.39584 0.53264 0.11279 0.0
H713 H 0.383 0.53944 0.15436 0.0
H714 H 0.36093 0.57792 0.06351 0.0
H715 H 0.36236 0.63945 0.08666 0.0
H716 H 0.6493 0.13525 0.89964 0.0
H717 H 0.64932 0.07335 0.91936 0.0
H718 H 0.61854 0.08163 0.02399 0.0
H719 H 0.61834 0.14332 1.00376 0.0
H720 H 0.64916 0.04002 0.04275 0.0
H721 H 0.61277 0.0037 0.89227 0.0
H722 H 0.61944 0.04476 0.88374 0.0
H723 H 0.61021 0.03701 0.95244 0.0
C724 C 0.64247 0.12389 0.92622 0.0
C725 C 0.6338 0.14428 0.94988 0.0
C726 C 0.64251 0.08851 0.93755 0.0
C727 C 0.63387 0.07284 0.97236 0.0
C728 C 0.62518 0.09308 0.99578 0.0
H729 H 0.62074 0.86558 0.11122 0.0
H730 H 0.62049 0.92749 0.0909 0.0
C731 C 0.62512 0.12841 0.98443 0.0
C732 C 0.63416 0.03558 0.98679 0.0
H733 H 0.62016 0.96074 0.96364 0.0
C734 C 0.64286 0.02263 0.02515 0.0
C735 C 0.6259 0.01301 0.964 0.0
C736 C 0.6166 0.0252 0.92031 0.0
C737 C 0.64343 0.98777 0.0422 0.0
C738 C 0.63517 0.96523 0.01946 0.0
C739 C 0.62646 0.97816 0.98121 0.0
C740 C 0.63552 0.92798 0.03358 0.0
C741 C 0.65277 0.97545 0.08545 0.0
C742 C 0.64403 0.90779 1.00779 0.0
C743 C 0.64421 0.87247 0.01924 0.0
C744 C 0.63583 0.85662 0.05654 0.0
C745 C 0.62733 0.87697 0.08255 0.0
C746 C 0.62716 0.91233 0.07088 0.0
H747 H 0.65678 -0.00306 0.11254 0.0
H748 H 0.64989 0.95632 0.12279 0.0
H749 H 0.659 0.96298 0.05316 0.0
H750 H 0.65047 0.91928 0.97787 0.0
H751 H 0.65085 0.85758 0.99823 0.0
H752 H 0.15147 0.2461 0.34911 0.0
H753 H 0.15161 0.24665 0.22651 0.0
H754 H 0.11653 0.25748 0.22442 0.0
H755 H 0.11625 0.25714 0.34756 0.0
H756 H 0.12708 0.20262 0.13578 0.0
H757 H 0.14416 0.33404 0.10637 0.0
H758 H 0.15076 0.30623 0.166 0.0
H759 H 0.13705 0.32051 0.1814 0.0
C760 C 0.14375 0.24856 0.32283 0.0
C761 C 0.13384 0.25164 0.35835 0.0
C762 C 0.14388 0.24902 0.25271 0.0
C763 C 0.1341 0.25241 0.21666 0.0
C764 C 0.12416 0.25501 0.25159 0.0
H765 H 0.11757 0.24542 0.79347 0.0
H766 H 0.11746 0.24483 0.91582 0.0
C767 C 0.12403 0.25485 0.32189 0.0
C768 C 0.13429 0.2528 0.14238 0.0
H769 H 0.14206 0.30117 1.00773 0.0
C770 C 0.13031 0.22418 0.10759 0.0
C771 C 0.13861 0.28083 0.10615 0.0
C772 C 0.14285 0.31233 0.14156 0.0
C773 C 0.13066 0.22263 0.03717 0.0
C774 C 0.13484 0.25093 1.00064 0.0
C775 C 0.13885 0.27953 0.03569 0.0
C776 C 0.13495 0.25162 0.92607 0.0
C777 C 0.12682 0.19034 1.00277 0.0
C778 C 0.14478 0.25688 0.89091 0.0
C779 C 0.14486 0.25772 0.82061 0.0
C780 C 0.13511 0.25329 0.78421 0.0
C781 C 0.12527 0.24848 0.81974 0.0
C782 C 0.12519 0.24792 0.88985 0.0
H783 H 0.1271 0.16793 0.03715 0.0
H784 H 0.11821 0.19373 0.98646 0.0
H785 H 0.13187 0.18455 0.95781 0.0
H786 H 0.15241 0.26005 0.91787 0.0
H787 H 0.15258 0.26153 0.7949 0.0
H788 H 0.86492 0.24167 0.35028 0.0
H789 H 0.86489 0.24192 0.22766 0.0
H790 H 0.89971 0.25924 0.22646 0.0
H791 H 0.89987 0.25918 0.34956 0.0
H792 H 0.87356 0.29881 0.14065 0.0
H793 H 0.89368 0.17225 0.10304 0.0
H794 H 0.88678 0.18347 0.18024 0.0
H795 H 0.89995 0.20137 0.16166 0.0
C796 C 0.87261 0.2454 0.32418 0.0
C797 C 0.88242 0.25031 0.35993 0.0
C798 C 0.87255 0.24562 0.25405 0.0
C799 C 0.8823 0.25036 0.21822 0.0
C800 C 0.89211 0.25524 0.25341 0.0
H801 H 0.89851 0.24773 0.79529 0.0
H802 H 0.89858 0.24849 0.91771 0.0
C803 C 0.89218 0.2553 0.32371 0.0
C804 C 0.88212 0.25068 0.14393 0.0
H805 H 0.88974 0.20459 1.00606 0.0
C806 C 0.87708 0.27825 0.11103 0.0
C807 C 0.88675 0.22383 0.10581 0.0
C808 C 0.89205 0.19336 0.13914 0.0
C809 C 0.8767 0.27997 0.04061 0.0
C810 C 0.88121 0.25287 1.00225 0.0
C811 C 0.88626 0.2253 0.03543 0.0
C812 C 0.88101 0.25286 0.92766 0.0
C813 C 0.87172 0.31124 1.00813 0.0
C814 C 0.87108 0.25474 0.89229 0.0
C815 C 0.87101 0.25464 0.82199 0.0
C816 C 0.88086 0.25208 0.78576 0.0
C817 C 0.89076 0.24967 0.82145 0.0
C818 C 0.89083 0.2501 0.89156 0.0
H819 H 0.87156 0.33343 0.04308 0.0
H820 H 0.87632 0.31873 0.9623 0.0
H821 H 0.86316 0.30547 0.99353 0.0
H822 H 0.86338 0.25599 0.91902 0.0
H823 H 0.86324 0.2562 0.79613 0.0
H824 H 0.11722 0.74622 0.22221 0.0
H825 H 0.11712 0.74564 0.09986 0.0
H826 H 0.15216 0.75855 0.09764 0.0
H827 H 0.15232 0.76003 0.2206 0.0
H828 H 0.14213 0.80036 1.00795 0.0
H829 H 0.12621 0.66823 0.97821 0.0
H830 H 0.1175 0.69462 0.02895 0.0
H831 H 0.13108 0.68446 0.0576 0.0
C832 C 0.12494 0.74877 0.19591 0.0
C833 C 0.1348 0.75294 0.23139 0.0
C834 C 0.12486 0.74821 0.12579 0.0
C835 C 0.13465 0.75128 0.08951 0.0
C836 C 0.14451 0.75588 0.12464 0.0
H837 H 0.15115 0.7445 0.66633 0.0
H838 H 0.15129 0.74494 0.78894 0.0
C839 C 0.14459 0.75671 0.19493 0.0
C840 C 0.13454 0.75064 0.01494 0.0
H841 H 0.12646 0.703 0.87968 0.0
C842 C 0.13877 0.77896 0.97995 0.0
C843 C 0.13017 0.72267 0.97834 0.0
C844 C 0.12608 0.69064 0.01266 0.0
C845 C 0.13856 0.78033 0.90949 0.0
C846 C 0.13403 0.75264 0.8732 0.0
C847 C 0.12983 0.72429 0.90792 0.0
C848 C 0.13384 0.75234 0.79892 0.0
C849 C 0.14303 0.81153 0.87414 0.0
C850 C 0.12394 0.75592 0.76407 0.0
C851 C 0.12381 0.75584 0.69377 0.0
C852 C 0.13358 0.75172 0.65723 0.0
C853 C 0.14346 0.74768 0.69267 0.0
C854 C 0.14358 0.74806 0.7628 0.0
H855 H 0.14455 0.83307 0.9094 0.0
H856 H 0.15088 0.80481 0.84937 0.0
H857 H 0.13728 0.82024 0.83453 0.0
H858 H 0.11633 0.7591 0.7913 0.0
H859 H 0.11606 0.75889 0.66817 0.0
H860 H 0.86394 0.74484 0.67216 0.0
H861 H 0.86384 0.74596 0.79454 0.0
H862 H 0.89896 0.7565 0.79568 0.0
H863 H 0.89913 0.75634 0.6728 0.0
H864 H 0.87304 0.70343 0.88412 0.0
H865 H 0.89005 0.83413 0.91755 0.0
H866 H 0.88543 0.81844 0.83721 0.0
H867 H 0.89869 0.80659 0.86869 0.0
C868 C 0.87166 0.74748 0.69825 0.0
C869 C 0.88155 0.75069 0.66249 0.0
C870 C 0.87158 0.74812 0.76835 0.0
C871 C 0.88136 0.75191 0.80439 0.0
C872 C 0.89127 0.75446 0.76898 0.0
H873 H 0.89751 0.74415 0.22686 0.0
H874 H 0.89752 0.74406 0.10422 0.0
C875 C 0.89136 0.75413 0.69868 0.0
C876 C 0.88113 0.75243 0.87897 0.0
H877 H 0.88833 0.80004 0.01607 0.0
C878 C 0.87633 0.72465 0.91291 0.0
C879 C 0.88539 0.78021 0.91657 0.0
C880 C 0.89008 0.81169 0.8832 0.0
C881 C 0.87583 0.72366 0.98333 0.0
C882 C 0.88021 0.75119 0.02069 0.0
C883 C 0.88501 0.77896 0.98702 0.0
C884 C 0.88006 0.75131 0.09499 0.0
C885 C 0.8708 0.69297 0.01752 0.0
C886 C 0.87022 0.7557 0.13029 0.0
C887 C 0.87017 0.75597 0.2006 0.0
C888 C 0.87997 0.75167 0.23669 0.0
C889 C 0.8898 0.74734 0.20083 0.0
C890 C 0.88984 0.74736 0.1307 0.0
H891 H 0.86931 0.67153 0.98196 0.0
H892 H 0.87619 0.68374 0.05859 0.0
H893 H 0.86286 0.70048 0.04025 0.0
H894 H 0.86259 0.75907 0.10342 0.0
H895 H 0.86246 0.75937 0.22656 0.0
H896 H 0.61854 0.74583 0.29726 0.0
H897 H 0.61845 0.74638 0.41962 0.0
H898 H 0.6536 0.75589 0.42084 0.0
H899 H 0.65376 0.75627 0.29787 0.0
H900 H 0.62754 0.70265 0.50728 0.0
H901 H 0.64494 0.83249 0.54595 0.0
H902 H 0.64028 0.81777 0.46499 0.0
H903 H 0.65349 0.80512 0.49607 0.0
C904 C 0.62627 0.74818 0.32336 0.0
C905 C 0.63616 0.75116 0.28761 0.0
C906 C 0.6262 0.74848 0.39345 0.0
C907 C 0.63599 0.75171 0.42952 0.0
C908 C 0.64591 0.75425 0.39412 0.0
H909 H 0.65188 0.74098 0.85219 0.0
H910 H 0.65197 0.74142 0.72963 0.0
C911 C 0.64599 0.75425 0.32379 0.0
C912 C 0.63577 0.75148 0.50412 0.0
H913 H 0.643 0.79757 0.64312 0.0
C914 C 0.63087 0.7235 0.53693 0.0
C915 C 0.64008 0.77876 0.54283 0.0
C916 C 0.6449 0.81039 0.51074 0.0
C917 C 0.63031 0.72185 0.60727 0.0
C918 C 0.63473 0.74891 0.64575 0.0
C919 C 0.63963 0.77686 0.61322 0.0
C920 C 0.6345 0.74838 0.72005 0.0
C921 C 0.62518 0.69095 0.64018 0.0
C922 C 0.62462 0.75234 0.75517 0.0
C923 C 0.62452 0.75228 0.82548 0.0
C924 C 0.63431 0.74809 0.86176 0.0
C925 C 0.64417 0.74407 0.82606 0.0
C926 C 0.64427 0.74441 0.75595 0.0
H927 H 0.62375 0.6698 0.60387 0.0
H928 H 0.63046 0.68136 0.68144 0.0
H929 H 0.6172 0.69836 0.6624 0.0
H930 H 0.61701 0.75575 0.72816 0.0
H931 H 0.61679 0.75548 0.85129 0.0
H932 H 0.36407 0.74662 0.85743 0.0
H933 H 0.36412 0.74658 0.73483 0.0
H934 H 0.39937 0.74905 0.73441 0.0
H935 H 0.39945 0.74921 0.8575 0.0
H936 H 0.37515 0.79883 0.64724 0.0
H937 H 0.38979 0.6649 0.61222 0.0
H938 H 0.38342 0.67925 0.68914 0.0
H939 H 0.39723 0.69148 0.67033 0.0
C940 C 0.37186 0.74703 0.83151 0.0
C941 C 0.38177 0.74781 0.86747 0.0
C942 C 0.37185 0.7471 0.76139 0.0
C943 C 0.38174 0.74756 0.72579 0.0
C944 C 0.39166 0.74838 0.76119 0.0
H945 H 0.39762 0.73674 0.30267 0.0
H946 H 0.39778 0.73773 0.42509 0.0
C947 C 0.39168 0.74858 0.83148 0.0
C948 C 0.38162 0.74762 0.6515 0.0
H949 H 0.38723 0.69808 0.51459 0.0
C950 C 0.37777 0.77685 0.61804 0.0
C951 C 0.38508 0.71891 0.61394 0.0
C952 C 0.38906 0.68668 0.6479 0.0
C953 C 0.37746 0.77835 0.5476 0.0
C954 C 0.38079 0.74942 0.50981 0.0
C955 C 0.38465 0.72019 0.54354 0.0
C956 C 0.38054 0.74909 0.43525 0.0
C957 C 0.37382 0.81121 0.51447 0.0
C958 C 0.37075 0.75475 0.40004 0.0
C959 C 0.37063 0.75449 0.32976 0.0
C960 C 0.38028 0.74803 0.29338 0.0
C961 C 0.39002 0.74176 0.32893 0.0
C962 C 0.39014 0.74232 0.39904 0.0
H963 H 0.37459 0.83347 0.54896 0.0
H964 H 0.37868 0.81651 0.46849 0.0
H965 H 0.36509 0.80891 0.49996 0.0
H966 H 0.36317 0.75914 0.4269 0.0
H967 H 0.36297 0.7591 0.30403 0.0
H968 H 0.61848 0.27196 0.15908 0.0
H969 H 0.61882 0.27244 0.28208 0.0
H970 H 0.65065 0.22497 0.27987 0.0
H971 H 0.6504 0.22416 0.15737 0.0
H972 H 0.63547 0.19469 0.37079 0.0
H973 H 0.63811 0.33613 0.40028 0.0
H974 H 0.62714 0.32098 0.34796 0.0
H975 H 0.64106 0.31474 0.32192 0.0
C976 C 0.62555 0.26156 0.18469 0.0
C977 C 0.63443 0.24816 0.14815 0.0
C978 C 0.62575 0.26206 0.25499 0.0
C979 C 0.63483 0.24916 0.28998 0.0
C980 C 0.6436 0.23522 0.25378 0.0
H981 H 0.65211 0.27369 0.71181 0.0
H982 H 0.65202 0.27296 0.58871 0.0
C983 C 0.64343 0.23484 0.18366 0.0
C984 C 0.63518 0.24975 0.36439 0.0
H985 H 0.63593 0.3035 0.49977 0.0
C986 C 0.63557 0.21846 0.39904 0.0
C987 C 0.63547 0.28082 0.40097 0.0
C988 C 0.63552 0.31514 0.36609 0.0
C989 C 0.63605 0.21739 0.46945 0.0
C990 C 0.63607 0.24843 0.5061 0.0
C991 C 0.63586 0.27975 0.47146 0.0
C992 C 0.63614 0.24885 0.58053 0.0
C993 C 0.63667 0.18306 0.50413 0.0
C994 C 0.6272 0.23586 0.61654 0.0
C995 C 0.6272 0.23632 0.68668 0.0
C996 C 0.63616 0.24982 0.72237 0.0
C997 C 0.6451 0.26299 0.68603 0.0
C998 C 0.64506 0.26266 0.61571 0.0
H999 H 0.63915 0.16233 0.46903 0.0
H1000 H 0.64257 0.18387 0.5465 0.0
H1001 H 0.62851 0.1765 0.52479 0.0
H1002 H 0.62017 0.22555 0.59031 0.0
H1003 H 0.62016 0.22604 0.71282 0.0
H1004 H 0.39978 0.24549 0.16486 0.0
H1005 H 0.39976 0.24582 0.28773 0.0
H1006 H 0.36454 0.25214 0.28801 0.0
H1007 H 0.3645 0.25288 0.16547 0.0
H1008 H 0.37296 0.29577 0.37644 0.0
H1009 H 0.39244 0.16893 0.41354 0.0
H1010 H 0.40063 0.19749 0.36395 0.0
H1011 H 0.3876 0.18312 0.33267 0.0
C1012 C 0.39202 0.24679 0.19105 0.0
C1013 C 0.38214 0.24905 0.15511 0.0
C1014 C 0.39202 0.24674 0.26143 0.0
C1015 C 0.38213 0.24832 0.29742 0.0
C1016 C 0.37227 0.25075 0.26157 0.0
H1017 H 0.36421 0.23304 0.72004 0.0
H1018 H 0.36449 0.2328 0.59692 0.0
C1019 C 0.37227 0.25116 0.19133 0.0
C1020 C 0.38201 0.24843 0.37231 0.0
H1021 H 0.39036 0.20375 0.51101 0.0
C1022 C 0.37672 0.27552 0.40571 0.0
C1023 C 0.38687 0.22194 0.41083 0.0
C1024 C 0.39211 0.19105 0.37848 0.0
C1025 C 0.37629 0.27705 0.4762 0.0
C1026 C 0.38129 0.25092 0.51438 0.0
C1027 C 0.38658 0.22383 0.48137 0.0
C1028 C 0.3811 0.25137 0.58883 0.0
C1029 C 0.37059 0.30672 0.50981 0.0
C1030 C 0.39036 0.26187 0.62487 0.0
C1031 C 0.39021 0.26231 0.69516 0.0
C1032 C 0.38083 0.25187 0.73084 0.0
C1033 C 0.37158 0.24121 0.69434 0.0
C1034 C 0.3717 0.24107 0.62398 0.0
H1035 H 0.36792 0.32651 0.47324 0.0
H1036 H 0.36329 0.29716 0.53721 0.0
H1037 H 0.37611 0.31879 0.54722 0.0
H1038 H 0.39768 0.26986 0.59855 0.0
H1039 H 0.39751 0.27052 0.72148 0.0
H1040 H 0.05263 0.28833 0.47569 0.0
H1041 H 0.03275 0.28517 0.46339 0.0
H1042 H 0.03343 0.17846 0.51895 0.0
H1043 H 0.05336 0.18106 0.52995 0.0
H1044 H 0.01872 0.23835 0.38319 0.0
H1045 H 0.01296 0.22669 0.65944 0.0
H1046 H 0.02556 0.24188 0.6226 0.0
H1047 H 0.02235 0.197 0.62134 0.0
C1048 C 0.04861 0.26394 0.48389 0.0
C1049 C 0.05464 0.23499 0.50431 0.0
C1050 C 0.03722 0.26227 0.47719 0.0
C1051 C 0.03161 0.23173 0.49117 0.0
C1052 C 0.0376 0.20244 0.50894 0.0
H1053 H 0.96203 0.19187 0.54948 0.0
H1054 H 0.9818 0.18545 0.53618 0.0
C1055 C 0.04899 0.20402 0.51539 0.0
C1056 C 0.01947 0.23098 0.49014 0.0
H1057 H 0.99714 0.2247 0.59251 0.0
C1058 C 0.01398 0.23528 0.42884 0.0
C1059 C 0.01331 0.22687 0.54976 0.0
C1060 C 0.0188 0.22308 0.61723 0.0
C1061 C 1.00248 0.23535 0.42552 0.0
C1062 C 0.99631 0.2319 0.48541 0.0
C1063 C 1.00184 0.22724 0.54657 0.0
C1064 C 0.98414 0.23427 0.48663 0.0
C1065 C 0.99708 0.23855 0.35773 0.0
C1066 C 0.97881 0.26367 0.46257 0.0
C1067 C 0.96746 0.2672 0.46919 0.0
C1068 C 0.96119 0.24164 0.50103 0.0
C1069 C 0.96653 0.21187 0.52379 0.0
C1070 C 0.97787 0.20828 0.51676 0.0
H1071 H 1.00258 0.22969 0.31684 0.0
H1072 H 0.98936 0.22354 0.3555 0.0
H1073 H 0.99512 0.26588 0.34816 0.0
H1074 H 0.98345 0.28445 0.44047 0.0
H1075 H 0.96364 0.29032 0.45038 0.0
H1076 H 0.96348 0.79412 0.5037 0.0
H1077 H 0.98335 0.79105 0.51469 0.0
H1078 H 0.98131 0.68165 0.54226 0.0
H1079 H 0.96136 0.68447 0.53155 0.0
H1080 H 0.9968 0.76695 0.61792 0.0
H1081 H 1.00254 0.69095 0.38447 0.0
H1082 H 0.98979 0.71179 0.40471 0.0
H1083 H 0.99345 0.67226 0.44516 0.0
C1084 C 0.96721 0.76942 0.51316 0.0
C1085 C 0.96079 0.73951 0.51655 0.0
C1086 C 0.9786 0.76771 0.51905 0.0
C1087 C 0.98385 0.73607 0.52819 0.0
C1088 C 0.97746 0.70626 0.53372 0.0
H1089 H 0.05381 0.68662 0.52746 0.0
H1090 H 0.0339 0.68339 0.53998 0.0
C1091 C 0.96606 0.70793 0.52768 0.0
C1092 C 0.996 0.73447 0.53068 0.0
H1093 H 0.01836 0.70334 0.44758 0.0
C1094 C 1.00152 0.75295 0.58082 0.0
C1095 C 1.00216 0.71614 0.48231 0.0
C1096 C 0.99672 0.69687 0.42572 0.0
C1097 C 0.01301 0.75367 0.58383 0.0
C1098 C 0.01916 0.73593 0.53464 0.0
C1099 C 0.01364 0.71688 0.48534 0.0
C1100 C 0.03131 0.73806 0.53135 0.0
C1101 C 0.01844 0.77324 0.63998 0.0
C1102 C 0.03649 0.76983 0.52212 0.0
C1103 C 0.04785 0.77175 0.51478 0.0
C1104 C 0.05431 0.74189 0.51598 0.0
C1105 C 0.0491 0.7101 0.52582 0.0
C1106 C 0.03772 0.70821 0.53323 0.0
H1107 H 0.01289 0.77633 0.68373 0.0
H1108 H 0.02603 0.7602 0.65696 0.0
H1109 H 0.02066 0.79921 0.62181 0.0
H1110 H 0.03171 0.79313 0.51866 0.0
H1111 H 0.05153 0.79659 0.50577 0.0
H1112 H 0.55325 0.76217 0.93512 0.0
H1113 H 0.53325 0.75828 0.93108 0.0
H1114 H 0.53347 0.69512 0.10862 0.0
H1115 H 0.55338 0.69964 0.11426 0.0
H1116 H 0.51894 0.70065 0.92438 0.0
H1117 H 0.51312 0.77492 0.1595 0.0
H1118 H 0.52598 0.77382 0.11501 0.0
H1119 H 0.52201 0.73853 0.16766 0.0
C1120 C 0.54905 0.74748 0.97339 0.0
C1121 C 0.55496 0.73139 0.02524 0.0
C1122 C 0.53762 0.74513 0.97077 0.0
C1123 C 0.53185 0.72687 0.02015 0.0
C1124 C 0.53773 0.70981 0.07059 0.0
H1125 H 0.46334 0.69727 0.11805 0.0
H1126 H 0.48326 0.69425 0.11049 0.0
C1127 C 0.54915 0.71209 0.07323 0.0
C1128 C 0.51969 0.72629 0.01995 0.0
H1129 H 0.49732 0.7494 0.1124 0.0
C1130 C 0.5142 0.71139 0.96533 0.0
C1131 C 0.51352 0.74038 0.07338 0.0
C1132 C 0.51893 0.75811 0.13198 0.0
C1133 C 0.5027 0.70955 0.96344 0.0
C1134 C 0.49654 0.72352 0.01705 0.0
C1135 C 0.50205 0.73854 0.07146 0.0
C1136 C 0.48436 0.72309 0.01798 0.0
C1137 C 0.49727 0.69195 0.90483 0.0
C1138 C 0.47831 0.74015 0.96825 0.0
C1139 C 0.46687 0.74169 0.9721 0.0
C1140 C 0.46124 0.72635 0.02603 0.0
C1141 C 0.46735 0.70884 0.07516 0.0
C1142 C 0.47877 0.70733 0.07125 0.0
H1143 H 0.50304 0.67482 0.87774 0.0
H1144 H 0.49012 0.67662 0.92162 0.0
H1145 H 0.49433 0.7116 0.86885 0.0
H1146 H 0.48244 0.75306 0.92731 0.0
H1147 H 0.46245 0.75523 0.9332 0.0
H1148 H 0.46328 0.20746 0.88031 0.0
H1149 H 0.48318 0.2025 0.88546 0.0
H1150 H 0.48286 0.24212 0.08754 0.0
H1151 H 0.46291 0.24584 0.08388 0.0
H1152 H 0.49749 0.25515 0.90182 0.0
H1153 H 0.50322 0.16091 0.10712 0.0
H1154 H 0.49019 0.16752 0.06656 0.0
H1155 H 0.49482 0.19671 0.13043 0.0
C1156 C 0.46739 0.21425 0.92658 0.0
C1157 C 0.46144 0.22697 0.98177 0.0
C1158 C 0.4788 0.21168 0.92921 0.0
C1159 C 0.48453 0.22158 0.98712 0.0
C1160 C 0.47862 0.23368 0.04275 0.0
H1161 H 0.5534 0.25545 0.077 0.0
H1162 H 0.53339 0.25117 0.08052 0.0
C1163 C 0.46721 0.23619 0.04025 0.0
C1164 C 0.49671 0.22152 0.98742 0.0
H1165 H 0.51914 0.19111 0.071 0.0
C1166 C 0.50222 0.24091 0.93851 0.0
C1167 C 0.50289 0.20311 0.03554 0.0
C1168 C 0.49749 0.18062 0.08752 0.0
C1169 C 0.51369 0.24283 0.93698 0.0
C1170 C 0.51986 0.22452 0.98515 0.0
C1171 C 0.51438 0.20516 0.03418 0.0
C1172 C 0.532 0.2252 0.98496 0.0
C1173 C 0.51912 0.26503 0.88461 0.0
C1174 C 0.53787 0.21135 0.93081 0.0
C1175 C 0.54928 0.21378 0.9286 0.0
C1176 C 0.55508 0.23009 0.98062 0.0
C1177 C 0.54919 0.24307 0.03579 0.0
C1178 C 0.53776 0.24049 0.03806 0.0
H1179 H 0.51328 0.28336 0.86146 0.0
H1180 H 0.52602 0.27971 0.90674 0.0
H1181 H 0.52246 0.24848 0.84419 0.0
H1182 H 0.53359 0.1991 0.88966 0.0
H1183 H 0.55352 0.20384 0.88499 0.0
loop_
_geom_bond_atom_site_label_1
_geom_bond_atom_site_label_2
_geom_bond_distance
_geom_bond_site_symmetry_2
_ccdc_geom_bond_type
Dy0 O3 2.307 . S
Dy0 O5 2.395 . S
Dy0 O6 2.379 . S
Dy0 O8 2.339 . S
Dy0 O10 2.298 . S
Dy0 O14 2.275 . S
Dy0 C22 2.738 . S
Dy1 O4 2.298 . S
Dy1 O7 2.275 . S
Dy1 O9 2.307 . S
Dy1 O11 2.395 . S
Dy1 O12 2.379 . S
Dy1 O15 2.339 . S
Dy1 C31 2.738 . S
C2 O14 1.254 . S
C2 O15 1.257 . S
O3 Dy0 2.307 . S
O3 C13 1.266 . S
O4 Dy1 2.298 . S
O4 C13 1.236 . S
O5 Dy0 2.395 . S
O5 C22 1.255 . S
O6 Dy0 2.379 . S
O6 C22 1.249 . S
O7 Dy1 2.275 . S
O7 C23 1.254 . S
O8 Dy0 2.339 . S
O8 C23 1.257 . S
O9 Dy1 2.307 . S
O9 C24 1.266 . S
O10 Dy0 2.298 . S
O10 C24 1.236 . S
O11 Dy1 2.395 . S
O11 C31 1.255 . S
O12 Dy1 2.379 . S
O12 C31 1.249 . S
C13 O3 1.266 . S
C13 O4 1.236 . S
O14 Dy0 2.275 . S
O14 C2 1.254 . S
O15 Dy1 2.339 . S
O15 C2 1.257 . S
C16 C19 1.344 . S
C16 C20 1.328 . S
C16 C22 1.516 . S
C17 C18 1.304 . S
C17 C21 1.323 . S
C18 C17 1.304 . S
C18 C19 1.371 . S
C18 H32 0.930 . S
C19 C16 1.344 . S
C19 C18 1.371 . S
C19 H33 0.931 . S
C20 C16 1.328 . S
C20 C21 1.433 . S
C20 H34 0.931 . S
C21 C17 1.323 . S
C21 C20 1.433 . S
C21 H35 0.933 . S
C22 Dy0 2.738 . S
C22 O5 1.255 . S
C22 O6 1.249 . S
C22 C16 1.516 . S
C23 O7 1.254 . S
C23 O8 1.257 . S
C24 O9 1.266 . S
C24 O10 1.236 . S
C25 C28 1.344 . S
C25 C29 1.328 . S
C25 C31 1.516 . S
C26 C27 1.304 . S
C26 C30 1.323 . S
C27 C26 1.304 . S
C27 C28 1.371 . S
C27 H36 0.930 . S
C28 C25 1.344 . S
C28 C27 1.371 . S
C28 H37 0.931 . S
C29 C25 1.328 . S
C29 C30 1.433 . S
C29 H38 0.931 . S
C30 C26 1.323 . S
C30 C29 1.433 . S
C30 H39 0.933 . S
C31 Dy1 2.738 . S
C31 O11 1.255 . S
C31 O12 1.249 . S
C31 C25 1.516 . S
H32 C18 0.930 . S
H33 C19 0.931 . S
H34 C20 0.931 . S
H35 C21 0.933 . S
H36 C27 0.930 . S
H37 C28 0.931 . S
H38 C29 0.931 . S
H39 C30 0.933 . S
Dy40 O43 2.307 . S
Dy40 O45 2.395 . S
Dy40 O46 2.379 . S
Dy40 O48 2.339 . S
Dy40 O50 2.298 . S
Dy40 O54 2.275 . S
Dy40 C62 2.738 . S
Dy41 O44 2.298 . S
Dy41 O47 2.275 . S
Dy41 O49 2.307 . S
Dy41 O51 2.395 . S
Dy41 O52 2.379 . S
Dy41 O55 2.339 . S
Dy41 C71 2.738 . S
C42 O54 1.254 . S
C42 O55 1.257 . S
O43 Dy40 2.307 . S
O43 C53 1.266 . S
O44 Dy41 2.298 . S
O44 C53 1.236 . S
O45 Dy40 2.395 . S
O45 C62 1.255 . S
O46 Dy40 2.379 . S
O46 C62 1.249 . S
O47 Dy41 2.275 . S
O47 C63 1.254 . S
O48 Dy40 2.339 . S
O48 C63 1.257 . S
O49 Dy41 2.307 . S
O49 C64 1.266 . S
O50 Dy40 2.298 . S
O50 C64 1.236 . S
O51 Dy41 2.395 . S
O51 C71 1.255 . S
O52 Dy41 2.379 . S
O52 C71 1.249 . S
C53 O43 1.266 . S
C53 O44 1.236 . S
O54 Dy40 2.275 . S
O54 C42 1.254 . S
O55 Dy41 2.339 . S
O55 C42 1.257 . S
C56 C59 1.344 . S
C56 C60 1.328 . S
C56 C62 1.516 . S
C57 C58 1.304 . S
C57 C61 1.323 . S
C58 C57 1.304 . S
C58 C59 1.371 . S
C58 H72 0.930 . S
C59 C56 1.344 . S
C59 C58 1.371 . S
C59 H73 0.931 . S
C60 C56 1.328 . S
C60 C61 1.433 . S
C60 H74 0.931 . S
C61 C57 1.323 . S
C61 C60 1.433 . S
C61 H75 0.933 . S
C62 Dy40 2.738 . S
C62 O45 1.255 . S
C62 O46 1.249 . S
C62 C56 1.516 . S
C63 O47 1.254 . S
C63 O48 1.257 . S
C64 O49 1.266 . S
C64 O50 1.236 . S
C65 C68 1.344 . S
C65 C69 1.328 . S
C65 C71 1.516 . S
C66 C67 1.304 . S
C66 C70 1.323 . S
C67 C66 1.304 . S
C67 C68 1.371 . S
C67 H76 0.930 . S
C68 C65 1.344 . S
C68 C67 1.371 . S
C68 H77 0.931 . S
C69 C65 1.328 . S
C69 C70 1.433 . S
C69 H78 0.931 . S
C70 C66 1.323 . S
C70 C69 1.433 . S
C70 H79 0.933 . S
C71 Dy41 2.738 . S
C71 O51 1.255 . S
C71 O52 1.249 . S
C71 C65 1.516 . S
H72 C58 0.930 . S
H73 C59 0.931 . S
H74 C60 0.931 . S
H75 C61 0.933 . S
H76 C67 0.930 . S
H77 C68 0.931 . S
H78 C69 0.931 . S
H79 C70 0.933 . S
Dy80 O83 2.307 . S
Dy80 O85 2.395 . S
Dy80 O86 2.379 . S
Dy80 O88 2.339 . S
Dy80 O90 2.298 . S
Dy80 O94 2.275 . S
Dy80 C102 2.738 . S
Dy81 O84 2.298 . S
Dy81 O87 2.275 . S
Dy81 O89 2.307 . S
Dy81 O91 2.395 . S
Dy81 O92 2.379 . S
Dy81 O95 2.339 . S
Dy81 C111 2.738 . S
C82 O94 1.254 . S
C82 O95 1.257 . S
O83 Dy80 2.307 . S
O83 C93 1.266 . S
O84 Dy81 2.298 . S
O84 C93 1.236 . S
O85 Dy80 2.395 . S
O85 C102 1.255 . S
O86 Dy80 2.379 . S
O86 C102 1.249 . S
O87 Dy81 2.275 . S
O87 C103 1.254 . S
O88 Dy80 2.339 . S
O88 C103 1.257 . S
O89 Dy81 2.307 . S
O89 C104 1.266 . S
O90 Dy80 2.298 . S
O90 C104 1.236 . S
O91 Dy81 2.395 . S
O91 C111 1.255 . S
O92 Dy81 2.379 . S
O92 C111 1.249 . S
C93 O83 1.266 . S
C93 O84 1.236 . S
O94 Dy80 2.275 . S
O94 C82 1.254 . S
O95 Dy81 2.339 . S
O95 C82 1.257 . S
C96 C99 1.344 . S
C96 C100 1.328 . S
C96 C102 1.516 . S
C97 C98 1.304 . S
C97 C101 1.323 . S
C98 C97 1.304 . S
C98 C99 1.371 . S
C98 H112 0.930 . S
C99 C96 1.344 . S
C99 C98 1.371 . S
C99 H113 0.931 . S
C100 C96 1.328 . S
C100 C101 1.433 . S
C100 H114 0.931 . S
C101 C97 1.323 . S
C101 C100 1.433 . S
C101 H115 0.933 . S
C102 Dy80 2.738 . S
C102 O85 1.255 . S
C102 O86 1.249 . S
C102 C96 1.516 . S
C103 O87 1.254 . S
C103 O88 1.257 . S
C104 O89 1.266 . S
C104 O90 1.236 . S
C105 C108 1.344 . S
C105 C109 1.328 . S
C105 C111 1.516 . S
C106 C107 1.304 . S
C106 C110 1.323 . S
C107 C106 1.304 . S
C107 C108 1.371 . S
C107 H116 0.930 . S
C108 C105 1.344 . S
C108 C107 1.371 . S
C108 H117 0.931 . S
C109 C105 1.328 . S
C109 C110 1.433 . S
C109 H118 0.931 . S
C110 C106 1.323 . S
C110 C109 1.433 . S
C110 H119 0.933 . S
C111 Dy81 2.738 . S
C111 O91 1.255 . S
C111 O92 1.249 . S
C111 C105 1.516 . S
H112 C98 0.930 . S
H113 C99 0.931 . S
H114 C100 0.931 . S
H115 C101 0.933 . S
H116 C107 0.930 . S
H117 C108 0.931 . S
H118 C109 0.931 . S
H119 C110 0.933 . S
Dy120 O123 2.307 . S
Dy120 O125 2.395 . S
Dy120 O126 2.379 . S
Dy120 O128 2.339 . S
Dy120 O130 2.298 . S
Dy120 O134 2.275 . S
Dy120 C142 2.738 . S
Dy121 O124 2.298 . S
Dy121 O127 2.275 . S
Dy121 O129 2.307 . S
Dy121 O131 2.395 . S
Dy121 O132 2.379 . S
Dy121 O135 2.339 . S
Dy121 C151 2.738 . S
C122 O134 1.254 . S
C122 O135 1.257 . S
O123 Dy120 2.307 . S
O123 C133 1.266 . S
O124 Dy121 2.298 . S
O124 C133 1.236 . S
O125 Dy120 2.395 . S
O125 C142 1.255 . S
O126 Dy120 2.379 . S
O126 C142 1.249 . S
O127 Dy121 2.275 . S
O127 C143 1.254 . S
O128 Dy120 2.339 . S
O128 C143 1.257 . S
O129 Dy121 2.307 . S
O129 C144 1.266 . S
O130 Dy120 2.298 . S
O130 C144 1.236 . S
O131 Dy121 2.395 . S
O131 C151 1.255 . S
O132 Dy121 2.379 . S
O132 C151 1.249 . S
C133 O123 1.266 . S
C133 O124 1.236 . S
O134 Dy120 2.275 . S
O134 C122 1.254 . S
O135 Dy121 2.339 . S
O135 C122 1.257 . S
C136 C139 1.344 . S
C136 C140 1.328 . S
C136 C142 1.516 . S
C137 C138 1.304 . S
C137 C141 1.323 . S
C138 C137 1.304 . S
C138 C139 1.371 . S
C138 H152 0.930 . S
C139 C136 1.344 . S
C139 C138 1.371 . S
C139 H153 0.931 . S
C140 C136 1.328 . S
C140 C141 1.433 . S
C140 H154 0.931 . S
C141 C137 1.323 . S
C141 C140 1.433 . S
C141 H155 0.933 . S
C142 Dy120 2.738 . S
C142 O125 1.255 . S
C142 O126 1.249 . S
C142 C136 1.516 . S
C143 O127 1.254 . S
C143 O128 1.257 . S
C144 O129 1.266 . S
C144 O130 1.236 . S
C145 C148 1.344 . S
C145 C149 1.328 . S
C145 C151 1.516 . S
C146 C147 1.304 . S
C146 C150 1.323 . S
C147 C146 1.304 . S
C147 C148 1.371 . S
C147 H156 0.930 . S
C148 C145 1.344 . S
C148 C147 1.371 . S
C148 H157 0.931 . S
C149 C145 1.328 . S
C149 C150 1.433 . S
C149 H158 0.931 . S
C150 C146 1.323 . S
C150 C149 1.433 . S
C150 H159 0.933 . S
C151 Dy121 2.738 . S
C151 O131 1.255 . S
C151 O132 1.249 . S
C151 C145 1.516 . S
H152 C138 0.930 . S
H153 C139 0.931 . S
H154 C140 0.931 . S
H155 C141 0.933 . S
H156 C147 0.930 . S
H157 C148 0.931 . S
H158 C149 0.931 . S
H159 C150 0.933 . S
Dy160 O163 2.307 . S
Dy160 O165 2.395 1_556 S
Dy160 O166 2.379 1_556 S
Dy160 O168 2.339 . S
Dy160 O170 2.298 1_556 S
Dy160 O174 2.275 . S
Dy160 C182 2.738 1_556 S
Dy161 O164 2.298 1_554 S
Dy161 O167 2.275 . S
Dy161 O169 2.307 . S
Dy161 O171 2.395 1_554 S
Dy161 O172 2.379 1_554 S
Dy161 O175 2.339 . S
Dy161 C191 2.738 1_554 S
C162 O174 1.254 1_554 S
C162 O175 1.257 . S
O163 Dy160 2.307 . S
O163 C173 1.266 . S
O164 Dy161 2.298 1_556 S
O164 C173 1.236 . S
O165 Dy160 2.395 1_554 S
O165 C182 1.255 . S
O166 Dy160 2.379 1_554 S
O166 C182 1.249 . S
O167 Dy161 2.275 . S
O167 C183 1.254 1_554 S
O168 Dy160 2.339 . S
O168 C183 1.257 . S
O169 Dy161 2.307 . S
O169 C184 1.266 . S
O170 Dy160 2.298 1_554 S
O170 C184 1.236 . S
O171 Dy161 2.395 1_556 S
O171 C191 1.255 . S
O172 Dy161 2.379 1_556 S
O172 C191 1.249 . S
C173 O163 1.266 . S
C173 O164 1.236 . S
O174 Dy160 2.275 . S
O174 C162 1.254 1_556 S
O175 Dy161 2.339 . S
O175 C162 1.257 . S
C176 C179 1.344 . S
C176 C180 1.328 . S
C176 C182 1.516 . S
C177 C178 1.304 . S
C177 C181 1.323 . S
C178 C177 1.304 . S
C178 C179 1.371 . S
C178 H192 0.930 . S
C179 C176 1.344 . S
C179 C178 1.371 . S
C179 H193 0.931 . S
C180 C176 1.328 . S
C180 C181 1.433 . S
C180 H194 0.931 . S
C181 C177 1.323 . S
C181 C180 1.433 . S
C181 H195 0.933 . S
C182 Dy160 2.738 1_554 S
C182 O165 1.255 . S
C182 O166 1.249 . S
C182 C176 1.516 . S
C183 O167 1.254 1_556 S
C183 O168 1.257 . S
C184 O169 1.266 . S
C184 O170 1.236 . S
C185 C188 1.344 . S
C185 C189 1.328 . S
C185 C191 1.516 . S
C186 C187 1.304 . S
C186 C190 1.323 . S
C187 C186 1.304 . S
C187 C188 1.371 . S
C187 H196 0.930 . S
C188 C185 1.344 . S
C188 C187 1.371 . S
C188 H197 0.931 . S
C189 C185 1.328 . S
C189 C190 1.433 . S
C189 H198 0.931 . S
C190 C186 1.323 . S
C190 C189 1.433 . S
C190 H199 0.933 . S
C191 Dy161 2.738 1_556 S
C191 O171 1.255 . S
C191 O172 1.249 . S
C191 C185 1.516 . S
H192 C178 0.930 . S
H193 C179 0.931 . S
H194 C180 0.931 . S
H195 C181 0.933 . S
H196 C187 0.930 . S
H197 C188 0.931 . S
H198 C189 0.931 . S
H199 C190 0.933 . S
Dy200 O203 2.307 . S
Dy200 O205 2.395 1_556 S
Dy200 O206 2.379 1_556 S
Dy200 O208 2.339 . S
Dy200 O210 2.298 1_556 S
Dy200 O214 2.275 . S
Dy200 C222 2.738 1_556 S
Dy201 O204 2.298 1_554 S
Dy201 O207 2.275 . S
Dy201 O209 2.307 . S
Dy201 O211 2.395 1_554 S
Dy201 O212 2.379 1_554 S
Dy201 O215 2.339 . S
Dy201 C231 2.738 1_554 S
C202 O214 1.254 1_554 S
C202 O215 1.257 . S
O203 Dy200 2.307 . S
O203 C213 1.266 . S
O204 Dy201 2.298 1_556 S
O204 C213 1.236 . S
O205 Dy200 2.395 1_554 S
O205 C222 1.255 . S
O206 Dy200 2.379 1_554 S
O206 C222 1.249 . S
O207 Dy201 2.275 . S
O207 C223 1.254 1_554 S
O208 Dy200 2.339 . S
O208 C223 1.257 . S
O209 Dy201 2.307 . S
O209 C224 1.266 . S
O210 Dy200 2.298 1_554 S
O210 C224 1.236 . S
O211 Dy201 2.395 1_556 S
O211 C231 1.255 . S
O212 Dy201 2.379 1_556 S
O212 C231 1.249 . S
C213 O203 1.266 . S
C213 O204 1.236 . S
O214 Dy200 2.275 . S
O214 C202 1.254 1_556 S
O215 Dy201 2.339 . S
O215 C202 1.257 . S
C216 C219 1.344 . S
C216 C220 1.328 . S
C216 C222 1.516 . S
C217 C218 1.304 . S
C217 C221 1.323 . S
C218 C217 1.304 . S
C218 C219 1.371 . S
C218 H232 0.930 . S
C219 C216 1.344 . S
C219 C218 1.371 . S
C219 H233 0.931 . S
C220 C216 1.328 . S
C220 C221 1.433 . S
C220 H234 0.931 . S
C221 C217 1.323 . S
C221 C220 1.433 . S
C221 H235 0.933 . S
C222 Dy200 2.738 1_554 S
C222 O205 1.255 . S
C222 O206 1.249 . S
C222 C216 1.516 . S
C223 O207 1.254 1_556 S
C223 O208 1.257 . S
C224 O209 1.266 . S
C224 O210 1.236 . S
C225 C228 1.344 . S
C225 C229 1.328 . S
C225 C231 1.516 . S
C226 C227 1.304 . S
C226 C230 1.323 . S
C227 C226 1.304 . S
C227 C228 1.371 . S
C227 H236 0.930 . S
C228 C225 1.344 . S
C228 C227 1.371 . S
C228 H237 0.931 . S
C229 C225 1.328 . S
C229 C230 1.433 . S
C229 H238 0.931 . S
C230 C226 1.323 . S
C230 C229 1.433 . S
C230 H239 0.933 . S
C231 Dy201 2.738 1_556 S
C231 O211 1.255 . S
C231 O212 1.249 . S
C231 C225 1.516 . S
H232 C218 0.930 . S
H233 C219 0.931 . S
H234 C220 0.931 . S
H235 C221 0.933 . S
H236 C227 0.930 . S
H237 C228 0.931 . S
H238 C229 0.931 . S
H239 C230 0.933 . S
Dy240 O243 2.307 . S
Dy240 O245 2.395 1_554 S
Dy240 O246 2.379 1_554 S
Dy240 O248 2.339 . S
Dy240 O250 2.298 1_554 S
Dy240 O254 2.275 . S
Dy240 C262 2.738 1_554 S
Dy241 O244 2.298 1_556 S
Dy241 O247 2.275 . S
Dy241 O249 2.307 . S
Dy241 O251 2.395 1_556 S
Dy241 O252 2.379 1_556 S
Dy241 O255 2.339 . S
Dy241 C271 2.738 1_556 S
C242 O254 1.254 1_556 S
C242 O255 1.257 . S
O243 Dy240 2.307 . S
O243 C253 1.266 . S
O244 Dy241 2.298 1_554 S
O244 C253 1.236 . S
O245 Dy240 2.395 1_556 S
O245 C262 1.255 . S
O246 Dy240 2.379 1_556 S
O246 C262 1.249 . S
O247 Dy241 2.275 . S
O247 C263 1.254 1_556 S
O248 Dy240 2.339 . S
O248 C263 1.257 . S
O249 Dy241 2.307 . S
O249 C264 1.266 . S
O250 Dy240 2.298 1_556 S
O250 C264 1.236 . S
O251 Dy241 2.395 1_554 S
O251 C271 1.255 . S
O252 Dy241 2.379 1_554 S
O252 C271 1.249 . S
C253 O243 1.266 . S
C253 O244 1.236 . S
O254 Dy240 2.275 . S
O254 C242 1.254 1_554 S
O255 Dy241 2.339 . S
O255 C242 1.257 . S
C256 C259 1.344 . S
C256 C260 1.328 . S
C256 C262 1.516 . S
C257 C258 1.304 . S
C257 C261 1.323 . S
C258 C257 1.304 . S
C258 C259 1.371 . S
C258 H272 0.930 . S
C259 C256 1.344 . S
C259 C258 1.371 . S
C259 H273 0.931 . S
C260 C256 1.328 . S
C260 C261 1.433 . S
C260 H274 0.931 . S
C261 C257 1.323 . S
C261 C260 1.433 . S
C261 H275 0.933 . S
C262 Dy240 2.738 1_556 S
C262 O245 1.255 . S
C262 O246 1.249 . S
C262 C256 1.516 . S
C263 O247 1.254 1_554 S
C263 O248 1.257 . S
C264 O249 1.266 . S
C264 O250 1.236 . S
C265 C268 1.344 . S
C265 C269 1.328 . S
C265 C271 1.516 . S
C266 C267 1.304 . S
C266 C270 1.323 . S
C267 C266 1.304 . S
C267 C268 1.371 . S
C267 H276 0.930 . S
C268 C265 1.344 . S
C268 C267 1.371 . S
C268 H277 0.931 . S
C269 C265 1.328 . S
C269 C270 1.433 . S
C269 H278 0.931 . S
C270 C266 1.323 . S
C270 C269 1.433 . S
C270 H279 0.933 . S
C271 Dy241 2.738 1_554 S
C271 O251 1.255 . S
C271 O252 1.249 . S
C271 C265 1.516 . S
H272 C258 0.930 . S
H273 C259 0.931 . S
H274 C260 0.931 . S
H275 C261 0.933 . S
H276 C267 0.930 . S
H277 C268 0.931 . S
H278 C269 0.931 . S
H279 C270 0.933 . S
Dy280 O283 2.307 . S
Dy280 O285 2.395 1_554 S
Dy280 O286 2.379 1_554 S
Dy280 O288 2.339 . S
Dy280 O290 2.298 1_554 S
Dy280 O294 2.275 . S
Dy280 C302 2.738 1_554 S
Dy281 O284 2.298 1_556 S
Dy281 O287 2.275 . S
Dy281 O289 2.307 . S
Dy281 O291 2.395 1_556 S
Dy281 O292 2.379 1_556 S
Dy281 O295 2.339 . S
Dy281 C311 2.738 1_556 S
C282 O294 1.254 1_556 S
C282 O295 1.257 . S
O283 Dy280 2.307 . S
O283 C293 1.266 . S
O284 Dy281 2.298 1_554 S
O284 C293 1.236 . S
O285 Dy280 2.395 1_556 S
O285 C302 1.255 . S
O286 Dy280 2.379 1_556 S
O286 C302 1.249 . S
O287 Dy281 2.275 . S
O287 C303 1.254 1_556 S
O288 Dy280 2.339 . S
O288 C303 1.257 . S
O289 Dy281 2.307 . S
O289 C304 1.266 . S
O290 Dy280 2.298 1_556 S
O290 C304 1.236 . S
O291 Dy281 2.395 1_554 S
O291 C311 1.255 . S
O292 Dy281 2.379 1_554 S
O292 C311 1.249 . S
C293 O283 1.266 . S
C293 O284 1.236 . S
O294 Dy280 2.275 . S
O294 C282 1.254 1_554 S
O295 Dy281 2.339 . S
O295 C282 1.257 . S
C296 C299 1.344 . S
C296 C300 1.328 . S
C296 C302 1.516 . S
C297 C298 1.304 . S
C297 C301 1.323 . S
C298 C297 1.304 . S
C298 C299 1.371 . S
C298 H312 0.930 . S
C299 C296 1.344 . S
C299 C298 1.371 . S
C299 H313 0.931 . S
C300 C296 1.328 . S
C300 C301 1.433 . S
C300 H314 0.931 . S
C301 C297 1.323 . S
C301 C300 1.433 . S
C301 H315 0.933 . S
C302 Dy280 2.738 1_556 S
C302 O285 1.255 . S
C302 O286 1.249 . S
C302 C296 1.516 . S
C303 O287 1.254 1_554 S
C303 O288 1.257 . S
C304 O289 1.266 . S
C304 O290 1.236 . S
C305 C308 1.344 . S
C305 C309 1.328 . S
C305 C311 1.516 . S
C306 C307 1.304 . S
C306 C310 1.323 . S
C307 C306 1.304 . S
C307 C308 1.371 . S
C307 H316 0.930 . S
C308 C305 1.344 . S
C308 C307 1.371 . S
C308 H317 0.931 . S
C309 C305 1.328 . S
C309 C310 1.433 . S
C309 H318 0.931 . S
C310 C306 1.323 . S
C310 C309 1.433 . S
C310 H319 0.933 . S
C311 Dy281 2.738 1_554 S
C311 O291 1.255 . S
C311 O292 1.249 . S
C311 C305 1.516 . S
H312 C298 0.930 . S
H313 C299 0.931 . S
H314 C300 0.931 . S
H315 C301 0.933 . S
H316 C307 0.930 . S
H317 C308 0.931 . S
H318 C309 0.931 . S
H319 C310 0.933 . S
H320 C328 0.929 . S
H321 C330 0.930 . S
H322 C332 0.930 . S
H323 C335 0.929 . S
H324 C338 0.930 . S
H325 C340 0.960 . S
H326 C340 0.960 . S
H327 C340 0.960 . S
C328 H320 0.929 . S
C328 C329 1.377 . S
C328 C330 1.384 . S
C329 C328 1.377 . S
C329 C335 1.390 . S
C330 H321 0.930 . S
C330 C328 1.384 . S
C330 C331 1.372 . S
C331 C330 1.372 . S
C331 C332 1.400 . S
C331 C336 1.490 . S
C332 H322 0.930 . S
C332 C331 1.400 . S
C332 C335 1.386 . S
H333 C349 0.930 . S
H334 C350 0.931 . S
C335 H323 0.929 . S
C335 C329 1.390 . S
C335 C332 1.386 . S
C336 C331 1.490 . S
C336 C338 1.395 . S
C336 C339 1.403 . S
H337 C343 0.930 . S
C338 H324 0.930 . S
C338 C336 1.395 . S
C338 C341 1.403 . S
C339 C336 1.403 . S
C339 C340 1.524 . S
C339 C343 1.400 . S
C340 H325 0.960 . S
C340 H326 0.960 . S
C340 H327 0.960 . S
C340 C339 1.524 . S
C341 C338 1.403 . S
C341 C342 1.392 . S
C341 C345 1.495 . S
C342 C341 1.392 . S
C342 C343 1.385 . S
C342 C344 1.478 . S
C343 H337 0.930 . S
C343 C339 1.400 . S
C343 C342 1.385 . S
C344 C342 1.478 . S
C344 C346 1.381 . S
C344 C350 1.383 . S
C345 C341 1.495 . S
C345 H351 0.959 . S
C345 H352 0.961 . S
C345 H353 0.960 . S
C346 C344 1.381 . S
C346 C347 1.394 . S
C346 H354 0.930 . S
C347 C346 1.394 . S
C347 C348 1.383 . S
C347 H355 0.929 . S
C348 C347 1.383 . S
C348 C349 1.377 . S
C349 H333 0.930 . S
C349 C348 1.377 . S
C349 C350 1.379 . S
C350 H334 0.931 . S
C350 C344 1.383 . S
C350 C349 1.379 . S
H351 C345 0.959 . S
H352 C345 0.961 . S
H353 C345 0.960 . S
H354 C346 0.930 . S
H355 C347 0.929 . S
H356 C364 0.929 . S
H357 C366 0.930 . S
H358 C368 0.930 . S
H359 C371 0.929 . S
H360 C374 0.930 . S
H361 C376 0.960 . S
H362 C376 0.960 . S
H363 C376 0.960 . S
C364 H356 0.929 . S
C364 C365 1.377 . S
C364 C366 1.384 . S
C365 C364 1.377 . S
C365 C371 1.390 . S
C366 H357 0.930 . S
C366 C364 1.384 . S
C366 C367 1.372 . S
C367 C366 1.372 . S
C367 C368 1.400 . S
C367 C372 1.490 . S
C368 H358 0.930 . S
C368 C367 1.400 . S
C368 C371 1.386 . S
H369 C385 0.930 . S
H370 C386 0.931 . S
C371 H359 0.929 . S
C371 C365 1.390 . S
C371 C368 1.386 . S
C372 C367 1.490 . S
C372 C374 1.395 . S
C372 C375 1.403 . S
H373 C379 0.930 . S
C374 H360 0.930 . S
C374 C372 1.395 . S
C374 C377 1.403 . S
C375 C372 1.403 . S
C375 C376 1.524 . S
C375 C379 1.400 . S
C376 H361 0.960 . S
C376 H362 0.960 . S
C376 H363 0.960 . S
C376 C375 1.524 . S
C377 C374 1.403 . S
C377 C378 1.392 . S
C377 C381 1.495 . S
C378 C377 1.392 . S
C378 C379 1.385 . S
C378 C380 1.478 . S
C379 H373 0.930 . S
C379 C375 1.400 . S
C379 C378 1.385 . S
C380 C378 1.478 . S
C380 C382 1.381 . S
C380 C386 1.383 . S
C381 C377 1.495 . S
C381 H387 0.959 . S
C381 H388 0.961 . S
C381 H389 0.960 . S
C382 C380 1.381 . S
C382 C383 1.394 . S
C382 H390 0.930 . S
C383 C382 1.394 . S
C383 C384 1.383 . S
C383 H391 0.929 . S
C384 C383 1.383 . S
C384 C385 1.377 . S
C385 H369 0.930 . S
C385 C384 1.377 . S
C385 C386 1.379 . S
C386 H370 0.931 . S
C386 C380 1.383 . S
C386 C385 1.379 . S
H387 C381 0.959 . S
H388 C381 0.961 . S
H389 C381 0.960 . S
H390 C382 0.930 . S
H391 C383 0.929 . S
H392 C400 0.929 . S
H393 C402 0.930 . S
H394 C404 0.930 . S
H395 C407 0.929 . S
H396 C410 0.930 . S
H397 C412 0.960 . S
H398 C412 0.960 . S
H399 C412 0.960 . S
C400 H392 0.929 . S
C400 C401 1.377 . S
C400 C402 1.384 . S
C401 C400 1.377 . S
C401 C407 1.390 . S
C402 H393 0.930 . S
C402 C400 1.384 . S
C402 C403 1.372 . S
C403 C402 1.372 . S
C403 C404 1.400 . S
C403 C408 1.490 . S
C404 H394 0.930 . S
C404 C403 1.400 . S
C404 C407 1.386 . S
H405 C421 0.930 . S
H406 C422 0.931 . S
C407 H395 0.929 . S
C407 C401 1.390 . S
C407 C404 1.386 . S
C408 C403 1.490 . S
C408 C410 1.395 . S
C408 C411 1.403 . S
H409 C415 0.930 . S
C410 H396 0.930 . S
C410 C408 1.395 . S
C410 C413 1.403 . S
C411 C408 1.403 . S
C411 C412 1.524 . S
C411 C415 1.400 . S
C412 H397 0.960 . S
C412 H398 0.960 . S
C412 H399 0.960 . S
C412 C411 1.524 . S
C413 C410 1.403 . S
C413 C414 1.392 . S
C413 C417 1.495 . S
C414 C413 1.392 . S
C414 C415 1.385 . S
C414 C416 1.478 . S
C415 H409 0.930 . S
C415 C411 1.400 . S
C415 C414 1.385 . S
C416 C414 1.478 . S
C416 C418 1.381 . S
C416 C422 1.383 . S
C417 C413 1.495 . S
C417 H423 0.959 . S
C417 H424 0.961 . S
C417 H425 0.960 . S
C418 C416 1.381 . S
C418 C419 1.394 . S
C418 H426 0.930 . S
C419 C418 1.394 . S
C419 C420 1.383 . S
C419 H427 0.929 . S
C420 C419 1.383 . S
C420 C421 1.377 . S
C421 H405 0.930 . S
C421 C420 1.377 . S
C421 C422 1.379 . S
C422 H406 0.931 . S
C422 C416 1.383 . S
C422 C421 1.379 . S
H423 C417 0.959 . S
H424 C417 0.961 . S
H425 C417 0.960 . S
H426 C418 0.930 . S
H427 C419 0.929 . S
H428 C436 0.929 . S
H429 C438 0.930 . S
H430 C440 0.930 . S
H431 C443 0.929 . S
H432 C446 0.930 . S
H433 C448 0.960 . S
H434 C448 0.960 . S
H435 C448 0.960 . S
C436 H428 0.929 . S
C436 C437 1.377 . S
C436 C438 1.384 . S
C437 C436 1.377 . S
C437 C443 1.390 . S
C438 H429 0.930 . S
C438 C436 1.384 . S
C438 C439 1.372 . S
C439 C438 1.372 . S
C439 C440 1.400 . S
C439 C444 1.490 . S
C440 H430 0.930 . S
C440 C439 1.400 . S
C440 C443 1.386 . S
H441 C457 0.930 . S
H442 C458 0.931 . S
C443 H431 0.929 . S
C443 C437 1.390 . S
C443 C440 1.386 . S
C444 C439 1.490 . S
C444 C446 1.395 . S
C444 C447 1.403 . S
H445 C451 0.930 . S
C446 H432 0.930 . S
C446 C444 1.395 . S
C446 C449 1.403 . S
C447 C444 1.403 . S
C447 C448 1.524 . S
C447 C451 1.400 . S
C448 H433 0.960 . S
C448 H434 0.960 . S
C448 H435 0.960 . S
C448 C447 1.524 . S
C449 C446 1.403 . S
C449 C450 1.392 . S
C449 C453 1.495 . S
C450 C449 1.392 . S
C450 C451 1.385 . S
C450 C452 1.478 . S
C451 H445 0.930 . S
C451 C447 1.400 . S
C451 C450 1.385 . S
C452 C450 1.478 . S
C452 C454 1.381 . S
C452 C458 1.383 . S
C453 C449 1.495 . S
C453 H459 0.959 . S
C453 H460 0.961 . S
C453 H461 0.960 . S
C454 C452 1.381 . S
C454 C455 1.394 . S
C454 H462 0.930 . S
C455 C454 1.394 . S
C455 C456 1.383 . S
C455 H463 0.929 . S
C456 C455 1.383 . S
C456 C457 1.377 . S
C457 H441 0.930 . S
C457 C456 1.377 . S
C457 C458 1.379 . S
C458 H442 0.931 . S
C458 C452 1.383 . S
C458 C457 1.379 . S
H459 C453 0.959 . S
H460 C453 0.961 . S
H461 C453 0.960 . S
H462 C454 0.930 . S
H463 C455 0.929 . S
H464 C472 0.929 . S
H465 C474 0.930 . S
H466 C476 0.930 . S
H467 C479 0.929 . S
H468 C482 0.930 . S
H469 C484 0.960 . S
H470 C484 0.960 . S
H471 C484 0.960 . S
C472 H464 0.929 . S
C472 C473 1.377 . S
C472 C474 1.384 . S
C473 C472 1.377 . S
C473 C479 1.390 . S
C474 H465 0.930 . S
C474 C472 1.384 . S
C474 C475 1.372 . S
C475 C474 1.372 . S
C475 C476 1.400 . S
C475 C480 1.490 . S
C476 H466 0.930 . S
C476 C475 1.400 . S
C476 C479 1.386 . S
H477 C493 0.930 . S
H478 C494 0.931 . S
C479 H467 0.929 . S
C479 C473 1.390 . S
C479 C476 1.386 . S
C480 C475 1.490 . S
C480 C482 1.395 . S
C480 C483 1.403 . S
H481 C487 0.930 . S
C482 H468 0.930 . S
C482 C480 1.395 . S
C482 C485 1.403 1_565 S
C483 C480 1.403 . S
C483 C484 1.524 . S
C483 C487 1.400 1_565 S
C484 H469 0.960 . S
C484 H470 0.960 . S
C484 H471 0.960 . S
C484 C483 1.524 . S
C485 C482 1.403 1_545 S
C485 C486 1.392 . S
C485 C489 1.495 . S
C486 C485 1.392 . S
C486 C487 1.385 . S
C486 C488 1.478 . S
C487 H481 0.930 . S
C487 C483 1.400 1_545 S
C487 C486 1.385 . S
C488 C486 1.478 . S
C488 C490 1.381 . S
C488 C494 1.383 . S
C489 C485 1.495 . S
C489 H495 0.959 . S
C489 H496 0.961 . S
C489 H497 0.960 . S
C490 C488 1.381 . S
C490 C491 1.394 . S
C490 H498 0.930 . S
C491 C490 1.394 . S
C491 C492 1.383 . S
C491 H499 0.929 . S
C492 C491 1.383 . S
C492 C493 1.377 . S
C493 H477 0.930 . S
C493 C492 1.377 . S
C493 C494 1.379 . S
C494 H478 0.931 . S
C494 C488 1.383 . S
C494 C493 1.379 . S
H495 C489 0.959 . S
H496 C489 0.961 . S
H497 C489 0.960 . S
H498 C490 0.930 . S
H499 C491 0.929 . S
H500 C508 0.929 . S
H501 C510 0.930 . S
H502 C512 0.930 . S
H503 C515 0.929 . S
H504 C518 0.930 . S
H505 C520 0.960 . S
H506 C520 0.960 . S
H507 C520 0.960 . S
C508 H500 0.929 . S
C508 C509 1.377 . S
C508 C510 1.384 . S
C509 C508 1.377 . S
C509 C515 1.390 . S
C510 H501 0.930 . S
C510 C508 1.384 . S
C510 C511 1.372 . S
C511 C510 1.372 . S
C511 C512 1.400 . S
C511 C516 1.490 . S
C512 H502 0.930 . S
C512 C511 1.400 . S
C512 C515 1.386 . S
H513 C529 0.930 . S
H514 C530 0.931 . S
C515 H503 0.929 . S
C515 C509 1.390 . S
C515 C512 1.386 . S
C516 C511 1.490 . S
C516 C518 1.395 . S
C516 C519 1.403 . S
H517 C523 0.930 . S
C518 H504 0.930 . S
C518 C516 1.395 . S
C518 C521 1.403 . S
C519 C516 1.403 . S
C519 C520 1.524 . S
C519 C523 1.400 . S
C520 H505 0.960 . S
C520 H506 0.960 . S
C520 H507 0.960 . S
C520 C519 1.524 . S
C521 C518 1.403 . S
C521 C522 1.392 . S
C521 C525 1.495 . S
C522 C521 1.392 . S
C522 C523 1.385 . S
C522 C524 1.478 . S
C523 H517 0.930 . S
C523 C519 1.400 . S
C523 C522 1.385 . S
C524 C522 1.478 . S
C524 C526 1.381 . S
C524 C530 1.383 . S
C525 C521 1.495 . S
C525 H531 0.959 . S
C525 H532 0.961 . S
C525 H533 0.960 . S
C526 C524 1.381 . S
C526 C527 1.394 . S
C526 H534 0.930 . S
C527 C526 1.394 . S
C527 C528 1.383 . S
C527 H535 0.929 . S
C528 C527 1.383 . S
C528 C529 1.377 . S
C529 H513 0.930 . S
C529 C528 1.377 . S
C529 C530 1.379 . S
C530 H514 0.931 . S
C530 C524 1.383 . S
C530 C529 1.379 . S
H531 C525 0.959 . S
H532 C525 0.961 . S
H533 C525 0.960 . S
H534 C526 0.930 . S
H535 C527 0.929 . S
H536 C544 0.929 . S
H537 C546 0.930 . S
H538 C548 0.930 . S
H539 C551 0.929 . S
H540 C554 0.930 . S
H541 C556 0.960 . S
H542 C556 0.960 . S
H543 C556 0.960 . S
C544 H536 0.929 . S
C544 C545 1.377 . S
C544 C546 1.384 . S
C545 C544 1.377 . S
C545 C551 1.390 . S
C546 H537 0.930 . S
C546 C544 1.384 . S
C546 C547 1.372 . S
C547 C546 1.372 . S
C547 C548 1.400 . S
C547 C552 1.490 . S
C548 H538 0.930 . S
C548 C547 1.400 . S
C548 C551 1.386 . S
H549 C565 0.930 . S
H550 C566 0.931 . S
C551 H539 0.929 . S
C551 C545 1.390 . S
C551 C548 1.386 . S
C552 C547 1.490 . S
C552 C554 1.395 . S
C552 C555 1.403 . S
H553 C559 0.930 . S
C554 H540 0.930 . S
C554 C552 1.395 . S
C554 C557 1.403 1_565 S
C555 C552 1.403 . S
C555 C556 1.524 . S
C555 C559 1.400 1_565 S
C556 H541 0.960 . S
C556 H542 0.960 . S
C556 H543 0.960 . S
C556 C555 1.524 . S
C557 C554 1.403 1_545 S
C557 C558 1.392 . S
C557 C561 1.495 . S
C558 C557 1.392 . S
C558 C559 1.385 . S
C558 C560 1.478 . S
C559 H553 0.930 . S
C559 C555 1.400 1_545 S
C559 C558 1.385 . S
C560 C558 1.478 . S
C560 C562 1.381 . S
C560 C566 1.383 . S
C561 C557 1.495 . S
C561 H567 0.959 . S
C561 H568 0.961 . S
C561 H569 0.960 . S
C562 C560 1.381 . S
C562 C563 1.394 . S
C562 H570 0.930 . S
C563 C562 1.394 . S
C563 C564 1.383 . S
C563 H571 0.929 . S
C564 C563 1.383 . S
C564 C565 1.377 . S
C565 H549 0.930 . S
C565 C564 1.377 . S
C565 C566 1.379 . S
C566 H550 0.931 . S
C566 C560 1.383 . S
C566 C565 1.379 . S
H567 C561 0.959 . S
H568 C561 0.961 . S
H569 C561 0.960 . S
H570 C562 0.930 . S
H571 C563 0.929 . S
H572 C580 0.929 . S
H573 C582 0.930 . S
H574 C584 0.930 . S
H575 C587 0.929 . S
H576 C590 0.930 . S
H577 C592 0.960 . S
H578 C592 0.960 . S
H579 C592 0.960 . S
C580 H572 0.929 . S
C580 C581 1.377 . S
C580 C582 1.384 . S
C581 C580 1.377 . S
C581 C587 1.390 . S
C582 H573 0.930 . S
C582 C580 1.384 . S
C582 C583 1.372 . S
C583 C582 1.372 . S
C583 C584 1.400 . S
C583 C588 1.490 . S
C584 H574 0.930 . S
C584 C583 1.400 . S
C584 C587 1.386 . S
H585 C601 0.930 . S
H586 C602 0.931 . S
C587 H575 0.929 . S
C587 C581 1.390 . S
C587 C584 1.386 . S
C588 C583 1.490 . S
C588 C590 1.395 . S
C588 C591 1.403 . S
H589 C595 0.930 . S
C590 H576 0.930 . S
C590 C588 1.395 . S
C590 C593 1.403 . S
C591 C588 1.403 . S
C591 C592 1.524 . S
C591 C595 1.400 . S
C592 H577 0.960 . S
C592 H578 0.960 . S
C592 H579 0.960 . S
C592 C591 1.524 . S
C593 C590 1.403 . S
C593 C594 1.392 . S
C593 C597 1.495 . S
C594 C593 1.392 . S
C594 C595 1.385 . S
C594 C596 1.478 . S
C595 H589 0.930 . S
C595 C591 1.400 . S
C595 C594 1.385 . S
C596 C594 1.478 . S
C596 C598 1.381 . S
C596 C602 1.383 . S
C597 C593 1.495 . S
C597 H603 0.959 . S
C597 H604 0.961 . S
C597 H605 0.960 . S
C598 C596 1.381 . S
C598 C599 1.394 . S
C598 H606 0.930 . S
C599 C598 1.394 . S
C599 C600 1.383 . S
C599 H607 0.929 . S
C600 C599 1.383 . S
C600 C601 1.377 . S
C601 H585 0.930 . S
C601 C600 1.377 . S
C601 C602 1.379 . S
C602 H586 0.931 . S
C602 C596 1.383 . S
C602 C601 1.379 . S
H603 C597 0.959 . S
H604 C597 0.961 . S
H605 C597 0.960 . S
H606 C598 0.930 . S
H607 C599 0.929 . S
H608 C616 0.929 . S
H609 C618 0.930 . S
H610 C620 0.930 . S
H611 C623 0.929 . S
H612 C626 0.930 . S
H613 C628 0.960 . S
H614 C628 0.960 . S
H615 C628 0.960 . S
C616 H608 0.929 . S
C616 C617 1.377 1_556 S
C616 C618 1.384 . S
C617 C616 1.377 1_554 S
C617 C623 1.390 . S
C618 H609 0.930 . S
C618 C616 1.384 . S
C618 C619 1.372 1_556 S
C619 C618 1.372 1_554 S
C619 C620 1.400 . S
C619 C624 1.489 1_554 S
C620 H610 0.930 . S
C620 C619 1.400 . S
C620 C623 1.386 . S
H621 C637 0.930 . S
H622 C638 0.933 . S
C623 H611 0.929 . S
C623 C617 1.390 . S
C623 C620 1.386 . S
C624 C619 1.489 1_556 S
C624 C626 1.408 . S
C624 C627 1.391 1_556 S
H625 C631 0.930 . S
C626 H612 0.930 . S
C626 C624 1.408 . S
C626 C629 1.403 . S
C627 C624 1.391 1_554 S
C627 C628 1.524 . S
C627 C631 1.400 . S
C628 H613 0.960 . S
C628 H614 0.960 . S
C628 H615 0.960 . S
C628 C627 1.524 . S
C629 C626 1.403 . S
C629 C630 1.392 . S
C629 C633 1.495 . S
C630 C629 1.392 . S
C630 C631 1.385 1_556 S
C630 C632 1.478 . S
C631 H625 0.930 . S
C631 C627 1.400 . S
C631 C630 1.385 1_554 S
C632 C630 1.478 . S
C632 C634 1.381 . S
C632 C638 1.380 1_556 S
C633 C629 1.495 . S
C633 H639 0.959 . S
C633 H640 0.961 . S
C633 H641 0.960 . S
C634 C632 1.381 . S
C634 C635 1.394 . S
C634 H642 0.930 . S
C635 C634 1.394 . S
C635 C636 1.383 . S
C635 H643 0.929 . S
C636 C635 1.383 . S
C636 C637 1.377 1_556 S
C637 H621 0.930 . S
C637 C636 1.377 1_554 S
C637 C638 1.380 . S
C638 H622 0.933 . S
C638 C632 1.380 1_554 S
C638 C637 1.380 . S
H639 C633 0.959 . S
H640 C633 0.961 . S
H641 C633 0.960 . S
H642 C634 0.930 . S
H643 C635 0.929 . S
H644 C652 0.929 . S
H645 C654 0.930 . S
H646 C656 0.930 . S
H647 C659 0.929 . S
H648 C662 0.930 . S
H649 C664 0.960 . S
H650 C664 0.960 . S
H651 C664 0.960 . S
C652 H644 0.929 . S
C652 C653 1.377 1_556 S
C652 C654 1.384 . S
C653 C652 1.377 1_554 S
C653 C659 1.390 . S
C654 H645 0.930 . S
C654 C652 1.384 . S
C654 C655 1.372 1_556 S
C655 C654 1.372 1_554 S
C655 C656 1.400 . S
C655 C660 1.490 1_554 S
C656 H646 0.930 . S
C656 C655 1.400 . S
C656 C659 1.386 . S
H657 C673 0.930 . S
H658 C674 0.931 . S
C659 H647 0.929 . S
C659 C653 1.390 . S
C659 C656 1.386 . S
C660 C655 1.490 1_556 S
C660 C662 1.395 . S
C660 C663 1.403 1_556 S
H661 C667 0.930 . S
C662 H648 0.930 . S
C662 C660 1.395 . S
C662 C665 1.403 1_565 S
C663 C660 1.403 1_554 S
C663 C664 1.524 . S
C663 C667 1.400 1_565 S
C664 H649 0.960 . S
C664 H650 0.960 . S
C664 H651 0.960 . S
C664 C663 1.524 . S
C665 C662 1.403 1_545 S
C665 C666 1.392 . S
C665 C669 1.495 . S
C666 C665 1.392 . S
C666 C667 1.385 1_556 S
C666 C668 1.478 . S
C667 H661 0.930 . S
C667 C663 1.400 1_545 S
C667 C666 1.385 1_554 S
C668 C666 1.478 . S
C668 C670 1.381 . S
C668 C674 1.383 1_556 S
C669 C665 1.495 . S
C669 H675 0.959 . S
C669 H676 0.961 . S
C669 H677 0.960 . S
C670 C668 1.381 . S
C670 C671 1.394 . S
C670 H678 0.930 . S
C671 C670 1.394 . S
C671 C672 1.383 . S
C671 H679 0.929 . S
C672 C671 1.383 . S
C672 C673 1.377 1_556 S
C673 H657 0.930 . S
C673 C672 1.377 1_554 S
C673 C674 1.379 . S
C674 H658 0.931 . S
C674 C668 1.383 1_554 S
C674 C673 1.379 . S
H675 C669 0.959 . S
H676 C669 0.961 . S
H677 C669 0.960 . S
H678 C670 0.930 . S
H679 C671 0.929 . S
H680 C688 0.929 . S
H681 C690 0.930 . S
H682 C692 0.930 . S
H683 C695 0.929 . S
H684 C698 0.930 . S
H685 C700 0.960 . S
H686 C700 0.960 . S
H687 C700 0.960 . S
C688 H680 0.929 . S
C688 C689 1.377 . S
C688 C690 1.384 . S
C689 C688 1.377 . S
C689 C695 1.390 1_554 S
C690 H681 0.930 . S
C690 C688 1.384 . S
C690 C691 1.372 . S
C691 C690 1.372 . S
C691 C692 1.400 1_554 S
C691 C696 1.490 . S
C692 H682 0.930 . S
C692 C691 1.400 1_556 S
C692 C695 1.386 . S
H693 C709 0.930 . S
H694 C710 0.931 . S
C695 H683 0.929 . S
C695 C689 1.390 1_556 S
C695 C692 1.386 . S
C696 C691 1.490 . S
C696 C698 1.395 . S
C696 C699 1.403 1_554 S
H697 C703 0.930 . S
C698 H684 0.930 . S
C698 C696 1.395 . S
C698 C701 1.403 . S
C699 C696 1.403 1_556 S
C699 C700 1.524 . S
C699 C703 1.400 . S
C700 H685 0.960 . S
C700 H686 0.960 . S
C700 H687 0.960 . S
C700 C699 1.524 . S
C701 C698 1.403 . S
C701 C702 1.392 . S
C701 C705 1.495 . S
C702 C701 1.392 . S
C702 C703 1.385 1_554 S
C702 C704 1.478 . S
C703 H697 0.930 . S
C703 C699 1.400 . S
C703 C702 1.385 1_556 S
C704 C702 1.478 . S
C704 C706 1.381 . S
C704 C710 1.383 1_554 S
C705 C701 1.495 . S
C705 H711 0.959 . S
C705 H712 0.961 . S
C705 H713 0.960 . S
C706 C704 1.381 . S
C706 C707 1.394 . S
C706 H714 0.930 . S
C707 C706 1.394 . S
C707 C708 1.383 1_554 S
C707 H715 0.929 . S
C708 C707 1.383 1_556 S
C708 C709 1.377 . S
C709 H693 0.930 . S
C709 C708 1.377 . S
C709 C710 1.379 . S
C710 H694 0.931 . S
C710 C704 1.383 1_556 S
C710 C709 1.379 . S
H711 C705 0.959 . S
H712 C705 0.961 . S
H713 C705 0.960 . S
H714 C706 0.930 . S
H715 C707 0.929 . S
H716 C724 0.929 . S
H717 C726 0.930 . S
H718 C728 0.930 . S
H719 C731 0.929 . S
H720 C734 0.930 . S
H721 C736 0.960 . S
H722 C736 0.960 . S
H723 C736 0.960 1_554 S
C724 H716 0.929 . S
C724 C725 1.377 1_556 S
C724 C726 1.384 . S
C725 C724 1.377 1_554 S
C725 C731 1.390 . S
C726 H717 0.930 . S
C726 C724 1.384 . S
C726 C727 1.363 1_556 S
C727 C726 1.363 1_554 S
C727 C728 1.409 . S
C727 C732 1.490 1_554 S
C728 H718 0.930 . S
C728 C727 1.409 . S
C728 C731 1.386 . S
H729 C745 0.930 . S
H730 C746 0.931 . S
C731 H719 0.929 . S
C731 C725 1.390 . S
C731 C728 1.386 . S
C732 C727 1.490 1_556 S
C732 C734 1.395 1_556 S
C732 C735 1.403 . S
H733 C739 0.930 . S
C734 H720 0.930 . S
C734 C732 1.395 1_554 S
C734 C737 1.403 1_545 S
C735 C732 1.403 . S
C735 C736 1.524 . S
C735 C739 1.400 1_545 S
C736 H721 0.960 . S
C736 H722 0.960 . S
C736 H723 0.960 1_556 S
C736 C735 1.524 . S
C737 C734 1.403 1_565 S
C737 C738 1.392 1_554 S
C737 C741 1.495 . S
C738 C737 1.392 1_556 S
C738 C739 1.385 . S
C738 C740 1.478 . S
C739 H733 0.930 . S
C739 C735 1.400 1_565 S
C739 C738 1.385 . S
C740 C738 1.478 . S
C740 C742 1.381 . S
C740 C746 1.383 1_556 S
C741 C737 1.495 . S
C741 H747 0.959 . S
C741 H748 0.961 . S
C741 H749 0.960 1_554 S
C742 C740 1.381 . S
C742 C743 1.394 . S
C742 H750 0.930 . S
C743 C742 1.394 . S
C743 C744 1.383 . S
C743 H751 0.929 . S
C744 C743 1.383 . S
C744 C745 1.377 1_556 S
C745 H729 0.930 . S
C745 C744 1.377 1_554 S
C745 C746 1.379 . S
C746 H730 0.931 . S
C746 C740 1.383 1_554 S
C746 C745 1.379 . S
H747 C741 0.959 . S
H748 C741 0.961 . S
H749 C741 0.960 1_556 S
H750 C742 0.930 . S
H751 C743 0.929 . S
H752 C760 0.929 . S
H753 C762 0.930 . S
H754 C764 0.930 . S
H755 C767 0.929 . S
H756 C770 0.930 1_554 S
H757 C772 0.960 1_556 S
H758 C772 0.960 . S
H759 C772 0.960 . S
C760 H752 0.929 . S
C760 C761 1.377 . S
C760 C762 1.384 . S
C761 C760 1.377 . S
C761 C767 1.390 . S
C762 H753 0.930 . S
C762 C760 1.384 . S
C762 C763 1.372 . S
C763 C762 1.372 . S
C763 C764 1.400 . S
C763 C768 1.490 . S
C764 H754 0.930 . S
C764 C763 1.400 . S
C764 C767 1.386 . S
H765 C781 0.930 . S
H766 C782 0.931 . S
C767 H755 0.929 . S
C767 C761 1.390 . S
C767 C764 1.386 . S
C768 C763 1.490 . S
C768 C770 1.395 1_554 S
C768 C771 1.403 1_554 S
H769 C775 0.930 . S
C770 H756 0.930 1_556 S
C770 C768 1.395 1_556 S
C770 C773 1.403 . S
C771 C768 1.403 1_556 S
C771 C772 1.524 1_556 S
C771 C775 1.400 . S
C772 H757 0.960 1_554 S
C772 H758 0.960 . S
C772 H759 0.960 . S
C772 C771 1.524 1_554 S
C773 C770 1.403 . S
C773 C774 1.392 . S
C773 C777 1.495 . S
C774 C773 1.392 . S
C774 C775 1.385 . S
C774 C776 1.478 . S
C775 H769 0.930 . S
C775 C771 1.400 . S
C775 C774 1.385 . S
C776 C774 1.478 . S
C776 C778 1.381 . S
C776 C782 1.383 . S
C777 C773 1.495 . S
C777 H783 0.959 . S
C777 H784 0.961 . S
C777 H785 0.960 . S
C778 C776 1.381 . S
C778 C779 1.394 . S
C778 H786 0.930 . S
C779 C778 1.394 . S
C779 C780 1.383 . S
C779 H787 0.929 . S
C780 C779 1.383 . S
C780 C781 1.377 . S
C781 H765 0.930 . S
C781 C780 1.377 . S
C781 C782 1.379 . S
C782 H766 0.931 . S
C782 C776 1.383 . S
C782 C781 1.379 . S
H783 C777 0.959 . S
H784 C777 0.961 . S
H785 C777 0.960 . S
H786 C778 0.930 . S
H787 C779 0.929 . S
H788 C796 0.929 . S
H789 C798 0.930 . S
H790 C800 0.930 . S
H791 C803 0.929 . S
H792 C806 0.930 . S
H793 C808 0.960 1_556 S
H794 C808 0.960 . S
H795 C808 0.960 . S
C796 H788 0.929 . S
C796 C797 1.377 . S
C796 C798 1.384 . S
C797 C796 1.377 . S
C797 C803 1.390 . S
C798 H789 0.930 . S
C798 C796 1.384 . S
C798 C799 1.372 . S
C799 C798 1.372 . S
C799 C800 1.400 . S
C799 C804 1.490 . S
C800 H790 0.930 . S
C800 C799 1.400 . S
C800 C803 1.386 . S
H801 C817 0.930 . S
H802 C818 0.931 . S
C803 H791 0.929 . S
C803 C797 1.390 . S
C803 C800 1.386 . S
C804 C799 1.490 . S
C804 C806 1.395 . S
C804 C807 1.403 1_554 S
H805 C811 0.930 . S
C806 H792 0.930 . S
C806 C804 1.395 . S
C806 C809 1.403 1_554 S
C807 C804 1.403 1_556 S
C807 C808 1.524 1_556 S
C807 C811 1.400 . S
C808 H793 0.960 1_554 S
C808 H794 0.960 . S
C808 H795 0.960 . S
C808 C807 1.524 1_554 S
C809 C806 1.403 1_556 S
C809 C810 1.392 . S
C809 C813 1.495 . S
C810 C809 1.392 . S
C810 C811 1.385 . S
C810 C812 1.478 . S
C811 H805 0.930 . S
C811 C807 1.400 . S
C811 C810 1.385 . S
C812 C810 1.478 . S
C812 C814 1.381 . S
C812 C818 1.383 . S
C813 C809 1.495 . S
C813 H819 0.959 . S
C813 H820 0.961 . S
C813 H821 0.960 . S
C814 C812 1.381 . S
C814 C815 1.394 . S
C814 H822 0.930 . S
C815 C814 1.394 . S
C815 C816 1.383 . S
C815 H823 0.929 . S
C816 C815 1.383 . S
C816 C817 1.377 . S
C817 H801 0.930 . S
C817 C816 1.377 . S
C817 C818 1.379 . S
C818 H802 0.931 . S
C818 C812 1.383 . S
C818 C817 1.379 . S
H819 C813 0.959 . S
H820 C813 0.961 . S
H821 C813 0.960 . S
H822 C814 0.930 . S
H823 C815 0.929 . S
H824 C832 0.929 . S
H825 C834 0.930 . S
H826 C836 0.930 . S
H827 C839 0.929 . S
H828 C842 0.930 . S
H829 C844 0.960 . S
H830 C844 0.960 . S
H831 C844 0.960 . S
C832 H824 0.929 . S
C832 C833 1.377 . S
C832 C834 1.384 . S
C833 C832 1.377 . S
C833 C839 1.390 . S
C834 H825 0.930 . S
C834 C832 1.384 . S
C834 C835 1.372 . S
C835 C834 1.372 . S
C835 C836 1.400 . S
C835 C840 1.490 . S
C836 H826 0.930 . S
C836 C835 1.400 . S
C836 C839 1.386 . S
H837 C853 0.930 . S
H838 C854 0.931 . S
C839 H827 0.929 . S
C839 C833 1.390 . S
C839 C836 1.386 . S
C840 C835 1.490 . S
C840 C842 1.395 . S
C840 C843 1.403 . S
H841 C847 0.930 1_556 S
C842 H828 0.930 . S
C842 C840 1.395 . S
C842 C845 1.393 1_554 S
C843 C840 1.403 . S
C843 C844 1.524 . S
C843 C847 1.400 . S
C844 H829 0.960 . S
C844 H830 0.960 . S
C844 H831 0.960 . S
C844 C843 1.524 . S
C845 C842 1.393 1_556 S
C845 C846 1.397 . S
C845 C849 1.500 . S
C846 C845 1.397 . S
C846 C847 1.385 1_556 S
C846 C848 1.478 . S
C847 H841 0.930 1_554 S
C847 C843 1.400 . S
C847 C846 1.385 1_554 S
C848 C846 1.478 . S
C848 C850 1.381 . S
C848 C854 1.383 . S
C849 C845 1.500 . S
C849 H855 0.959 . S
C849 H856 0.961 . S
C849 H857 0.960 . S
C850 C848 1.381 . S
C850 C851 1.394 . S
C850 H858 0.930 . S
C851 C850 1.394 . S
C851 C852 1.383 . S
C851 H859 0.929 . S
C852 C851 1.383 . S
C852 C853 1.377 . S
C853 H837 0.930 . S
C853 C852 1.377 . S
C853 C854 1.379 . S
C854 H838 0.931 . S
C854 C848 1.383 . S
C854 C853 1.379 . S
H855 C849 0.959 . S
H856 C849 0.961 . S
H857 C849 0.960 . S
H858 C850 0.930 . S
H859 C851 0.929 . S
H860 C868 0.929 . S
H861 C870 0.930 . S
H862 C872 0.930 . S
H863 C875 0.929 . S
H864 C878 0.930 . S
H865 C880 0.960 1_554 S
H866 C880 0.960 . S
H867 C880 0.960 . S
C868 H860 0.929 . S
C868 C869 1.377 . S
C868 C870 1.384 . S
C869 C868 1.377 . S
C869 C875 1.390 . S
C870 H861 0.930 . S
C870 C868 1.384 . S
C870 C871 1.372 . S
C871 C870 1.372 . S
C871 C872 1.400 . S
C871 C876 1.490 . S
C872 H862 0.930 . S
C872 C871 1.400 . S
C872 C875 1.386 . S
H873 C889 0.930 . S
H874 C890 0.931 . S
C875 H863 0.929 . S
C875 C869 1.390 . S
C875 C872 1.386 . S
C876 C871 1.490 . S
C876 C878 1.395 . S
C876 C879 1.403 1_556 S
H877 C883 0.930 . S
C878 H864 0.930 . S
C878 C876 1.395 . S
C878 C881 1.403 1_556 S
C879 C876 1.403 1_554 S
C879 C880 1.524 1_554 S
C879 C883 1.400 . S
C880 H865 0.960 1_556 S
C880 H866 0.960 . S
C880 H867 0.960 . S
C880 C879 1.524 1_556 S
C881 C878 1.403 1_554 S
C881 C882 1.392 . S
C881 C885 1.495 . S
C882 C881 1.392 . S
C882 C883 1.385 . S
C882 C884 1.478 . S
C883 H877 0.930 . S
C883 C879 1.400 . S
C883 C882 1.385 . S
C884 C882 1.478 . S
C884 C886 1.381 . S
C884 C890 1.383 . S
C885 C881 1.495 . S
C885 H891 0.959 . S
C885 H892 0.961 . S
C885 H893 0.960 . S
C886 C884 1.381 . S
C886 C887 1.394 . S
C886 H894 0.930 . S
C887 C886 1.394 . S
C887 C888 1.383 . S
C887 H895 0.929 . S
C888 C887 1.383 . S
C888 C889 1.377 . S
C889 H873 0.930 . S
C889 C888 1.377 . S
C889 C890 1.379 . S
C890 H874 0.931 . S
C890 C884 1.383 . S
C890 C889 1.379 . S
H891 C885 0.959 . S
H892 C885 0.961 . S
H893 C885 0.960 . S
H894 C886 0.930 . S
H895 C887 0.929 . S
H896 C904 0.929 . S
H897 C906 0.930 . S
H898 C908 0.930 . S
H899 C911 0.929 . S
H900 C914 0.930 . S
H901 C916 0.960 . S
H902 C916 0.960 . S
H903 C916 0.960 . S
C904 H896 0.929 . S
C904 C905 1.377 . S
C904 C906 1.384 . S
C905 C904 1.377 . S
C905 C911 1.390 . S
C906 H897 0.930 . S
C906 C904 1.384 . S
C906 C907 1.372 . S
C907 C906 1.372 . S
C907 C908 1.400 . S
C907 C912 1.490 . S
C908 H898 0.930 . S
C908 C907 1.400 . S
C908 C911 1.386 . S
H909 C925 0.930 . S
H910 C926 0.931 . S
C911 H899 0.929 . S
C911 C905 1.390 . S
C911 C908 1.386 . S
C912 C907 1.490 . S
C912 C914 1.395 . S
C912 C915 1.403 . S
H913 C919 0.930 . S
C914 H900 0.930 . S
C914 C912 1.395 . S
C914 C917 1.403 . S
C915 C912 1.403 . S
C915 C916 1.524 . S
C915 C919 1.400 . S
C916 H901 0.960 . S
C916 H902 0.960 . S
C916 H903 0.960 . S
C916 C915 1.524 . S
C917 C914 1.403 . S
C917 C918 1.392 . S
C917 C921 1.495 . S
C918 C917 1.392 . S
C918 C919 1.385 . S
C918 C920 1.478 . S
C919 H913 0.930 . S
C919 C915 1.400 . S
C919 C918 1.385 . S
C920 C918 1.478 . S
C920 C922 1.381 . S
C920 C926 1.383 . S
C921 C917 1.495 . S
C921 H927 0.959 . S
C921 H928 0.961 . S
C921 H929 0.960 . S
C922 C920 1.381 . S
C922 C923 1.394 . S
C922 H930 0.930 . S
C923 C922 1.394 . S
C923 C924 1.383 . S
C923 H931 0.929 . S
C924 C923 1.383 . S
C924 C925 1.377 . S
C925 H909 0.930 . S
C925 C924 1.377 . S
C925 C926 1.379 . S
C926 H910 0.931 . S
C926 C920 1.383 . S
C926 C925 1.379 . S
H927 C921 0.959 . S
H928 C921 0.961 . S
H929 C921 0.960 . S
H930 C922 0.930 . S
H931 C923 0.929 . S
H932 C940 0.929 . S
H933 C942 0.930 . S
H934 C944 0.930 . S
H935 C947 0.929 . S
H936 C950 0.930 . S
H937 C952 0.960 . S
H938 C952 0.960 . S
H939 C952 0.960 . S
C940 H932 0.929 . S
C940 C941 1.377 . S
C940 C942 1.384 . S
C941 C940 1.377 . S
C941 C947 1.390 . S
C942 H933 0.930 . S
C942 C940 1.384 . S
C942 C943 1.372 . S
C943 C942 1.372 . S
C943 C944 1.400 . S
C943 C948 1.490 . S
C944 H934 0.930 . S
C944 C943 1.400 . S
C944 C947 1.386 . S
H945 C961 0.930 . S
H946 C962 0.931 . S
C947 H935 0.929 . S
C947 C941 1.390 . S
C947 C944 1.386 . S
C948 C943 1.490 . S
C948 C950 1.395 . S
C948 C951 1.403 . S
H949 C955 0.930 . S
C950 H936 0.930 . S
C950 C948 1.395 . S
C950 C953 1.403 . S
C951 C948 1.403 . S
C951 C952 1.524 . S
C951 C955 1.400 . S
C952 H937 0.960 . S
C952 H938 0.960 . S
C952 H939 0.960 . S
C952 C951 1.524 . S
C953 C950 1.403 . S
C953 C954 1.392 . S
C953 C957 1.495 . S
C954 C953 1.392 . S
C954 C955 1.385 . S
C954 C956 1.478 . S
C955 H949 0.930 . S
C955 C951 1.400 . S
C955 C954 1.385 . S
C956 C954 1.478 . S
C956 C958 1.381 . S
C956 C962 1.383 . S
C957 C953 1.495 . S
C957 H963 0.959 . S
C957 H964 0.961 . S
C957 H965 0.960 . S
C958 C956 1.381 . S
C958 C959 1.394 . S
C958 H966 0.930 . S
C959 C958 1.394 . S
C959 C960 1.383 . S
C959 H967 0.929 . S
C960 C959 1.383 . S
C960 C961 1.377 . S
C961 H945 0.930 . S
C961 C960 1.377 . S
C961 C962 1.379 . S
C962 H946 0.931 . S
C962 C956 1.383 . S
C962 C961 1.379 . S
H963 C957 0.959 . S
H964 C957 0.961 . S
H965 C957 0.960 . S
H966 C958 0.930 . S
H967 C959 0.929 . S
H968 C976 0.929 . S
H969 C978 0.930 . S
H970 C980 0.930 . S
H971 C983 0.929 . S
H972 C986 0.930 . S
H973 C988 0.960 . S
H974 C988 0.960 . S
H975 C988 0.960 . S
C976 H968 0.929 . S
C976 C977 1.377 . S
C976 C978 1.384 . S
C977 C976 1.377 . S
C977 C983 1.390 . S
C978 H969 0.930 . S
C978 C976 1.384 . S
C978 C979 1.372 . S
C979 C978 1.372 . S
C979 C980 1.400 . S
C979 C984 1.490 . S
C980 H970 0.930 . S
C980 C979 1.400 . S
C980 C983 1.386 . S
H981 C997 0.930 . S
H982 C998 0.931 . S
C983 H971 0.929 . S
C983 C977 1.390 . S
C983 C980 1.386 . S
C984 C979 1.490 . S
C984 C986 1.395 . S
C984 C987 1.403 . S
H985 C991 0.930 . S
C986 H972 0.930 . S
C986 C984 1.395 . S
C986 C989 1.403 . S
C987 C984 1.403 . S
C987 C988 1.524 . S
C987 C991 1.400 . S
C988 H973 0.960 . S
C988 H974 0.960 . S
C988 H975 0.960 . S
C988 C987 1.524 . S
C989 C986 1.403 . S
C989 C990 1.392 . S
C989 C993 1.495 . S
C990 C989 1.392 . S
C990 C991 1.385 . S
C990 C992 1.478 . S
C991 H985 0.930 . S
C991 C987 1.400 . S
C991 C990 1.385 . S
C992 C990 1.478 . S
C992 C994 1.381 . S
C992 C998 1.383 . S
C993 C989 1.495 . S
C993 H999 0.959 . S
C993 H1000 0.961 . S
C993 H1001 0.960 . S
C994 C992 1.381 . S
C994 C995 1.394 . S
C994 H1002 0.930 . S
C995 C994 1.394 . S
C995 C996 1.383 . S
C995 H1003 0.929 . S
C996 C995 1.383 . S
C996 C997 1.377 . S
C997 H981 0.930 . S
C997 C996 1.377 . S
C997 C998 1.379 . S
C998 H982 0.931 . S
C998 C992 1.383 . S
C998 C997 1.379 . S
H999 C993 0.959 . S
H1000 C993 0.961 . S
H1001 C993 0.960 . S
H1002 C994 0.930 . S
H1003 C995 0.929 . S
H1004 C1012 0.929 . S
H1005 C1014 0.930 . S
H1006 C1016 0.930 . S
H1007 C1019 0.929 . S
H1008 C1022 0.930 . S
H1009 C1024 0.960 . S
H1010 C1024 0.960 . S
H1011 C1024 0.960 . S
C1012 H1004 0.929 . S
C1012 C1013 1.377 . S
C1012 C1014 1.384 . S
C1013 C1012 1.377 . S
C1013 C1019 1.390 . S
C1014 H1005 0.930 . S
C1014 C1012 1.384 . S
C1014 C1015 1.372 . S
C1015 C1014 1.372 . S
C1015 C1016 1.400 . S
C1015 C1020 1.490 . S
C1016 H1006 0.930 . S
C1016 C1015 1.400 . S
C1016 C1019 1.386 . S
H1017 C1033 0.930 . S
H1018 C1034 0.931 . S
C1019 H1007 0.929 . S
C1019 C1013 1.390 . S
C1019 C1016 1.386 . S
C1020 C1015 1.490 . S
C1020 C1022 1.395 . S
C1020 C1023 1.403 . S
H1021 C1027 0.930 . S
C1022 H1008 0.930 . S
C1022 C1020 1.395 . S
C1022 C1025 1.403 . S
C1023 C1020 1.403 . S
C1023 C1024 1.524 . S
C1023 C1027 1.400 . S
C1024 H1009 0.960 . S
C1024 H1010 0.960 . S
C1024 H1011 0.960 . S
C1024 C1023 1.524 . S
C1025 C1022 1.403 . S
C1025 C1026 1.392 . S
C1025 C1029 1.495 . S
C1026 C1025 1.392 . S
C1026 C1027 1.385 . S
C1026 C1028 1.478 . S
C1027 H1021 0.930 . S
C1027 C1023 1.400 . S
C1027 C1026 1.385 . S
C1028 C1026 1.478 . S
C1028 C1030 1.381 . S
C1028 C1034 1.383 . S
C1029 C1025 1.495 . S
C1029 H1035 0.959 . S
C1029 H1036 0.961 . S
C1029 H1037 0.960 . S
C1030 C1028 1.381 . S
C1030 C1031 1.394 . S
C1030 H1038 0.930 . S
C1031 C1030 1.394 . S
C1031 C1032 1.383 . S
C1031 H1039 0.929 . S
C1032 C1031 1.383 . S
C1032 C1033 1.377 . S
C1033 H1017 0.930 . S
C1033 C1032 1.377 . S
C1033 C1034 1.379 . S
C1034 H1018 0.931 . S
C1034 C1028 1.383 . S
C1034 C1033 1.379 . S
H1035 C1029 0.959 . S
H1036 C1029 0.961 . S
H1037 C1029 0.960 . S
H1038 C1030 0.930 . S
H1039 C1031 0.929 . S
H1040 C1048 0.929 . S
H1041 C1050 0.930 . S
H1042 C1052 0.930 . S
H1043 C1055 0.929 . S
H1044 C1058 0.930 . S
H1045 C1060 0.960 . S
H1046 C1060 0.960 . S
H1047 C1060 0.960 . S
C1048 H1040 0.929 . S
C1048 C1049 1.377 . S
C1048 C1050 1.384 . S
C1049 C1048 1.377 . S
C1049 C1055 1.390 . S
C1050 H1041 0.930 . S
C1050 C1048 1.384 . S
C1050 C1051 1.372 . S
C1051 C1050 1.372 . S
C1051 C1052 1.400 . S
C1051 C1056 1.490 . S
C1052 H1042 0.930 . S
C1052 C1051 1.400 . S
C1052 C1055 1.386 . S
H1053 C1069 0.930 . S
H1054 C1070 0.931 . S
C1055 H1043 0.929 . S
C1055 C1049 1.390 . S
C1055 C1052 1.386 . S
C1056 C1051 1.490 . S
C1056 C1058 1.395 . S
C1056 C1059 1.403 . S
H1057 C1063 0.930 . S
C1058 H1044 0.930 . S
C1058 C1056 1.395 . S
C1058 C1061 1.403 1_455 S
C1059 C1056 1.403 . S
C1059 C1060 1.524 . S
C1059 C1063 1.400 1_455 S
C1060 H1045 0.960 . S
C1060 H1046 0.960 . S
C1060 H1047 0.960 . S
C1060 C1059 1.524 . S
C1061 C1058 1.403 1_655 S
C1061 C1062 1.392 . S
C1061 C1065 1.495 . S
C1062 C1061 1.392 . S
C1062 C1063 1.385 . S
C1062 C1064 1.478 . S
C1063 H1057 0.930 . S
C1063 C1059 1.400 1_655 S
C1063 C1062 1.385 . S
C1064 C1062 1.478 . S
C1064 C1066 1.381 . S
C1064 C1070 1.383 . S
C1065 C1061 1.495 . S
C1065 H1071 0.959 . S
C1065 H1072 0.961 . S
C1065 H1073 0.960 . S
C1066 C1064 1.381 . S
C1066 C1067 1.394 . S
C1066 H1074 0.930 . S
C1067 C1066 1.394 . S
C1067 C1068 1.383 . S
C1067 H1075 0.929 . S
C1068 C1067 1.383 . S
C1068 C1069 1.377 . S
C1069 H1053 0.930 . S
C1069 C1068 1.377 . S
C1069 C1070 1.379 . S
C1070 H1054 0.931 . S
C1070 C1064 1.383 . S
C1070 C1069 1.379 . S
H1071 C1065 0.959 . S
H1072 C1065 0.961 . S
H1073 C1065 0.960 . S
H1074 C1066 0.930 . S
H1075 C1067 0.929 . S
H1076 C1084 0.929 . S
H1077 C1086 0.930 . S
H1078 C1088 0.930 . S
H1079 C1091 0.929 . S
H1080 C1094 0.930 . S
H1081 C1096 0.960 . S
H1082 C1096 0.960 . S
H1083 C1096 0.960 . S
C1084 H1076 0.929 . S
C1084 C1085 1.377 . S
C1084 C1086 1.384 . S
C1085 C1084 1.377 . S
C1085 C1091 1.390 . S
C1086 H1077 0.930 . S
C1086 C1084 1.384 . S
C1086 C1087 1.372 . S
C1087 C1086 1.372 . S
C1087 C1088 1.400 . S
C1087 C1092 1.490 . S
C1088 H1078 0.930 . S
C1088 C1087 1.400 . S
C1088 C1091 1.386 . S
H1089 C1105 0.930 . S
H1090 C1106 0.931 . S
C1091 H1079 0.929 . S
C1091 C1085 1.390 . S
C1091 C1088 1.386 . S
C1092 C1087 1.490 . S
C1092 C1094 1.395 . S
C1092 C1095 1.403 . S
H1093 C1099 0.930 . S
C1094 H1080 0.930 . S
C1094 C1092 1.395 . S
C1094 C1097 1.403 1_655 S
C1095 C1092 1.403 . S
C1095 C1096 1.524 . S
C1095 C1099 1.400 1_655 S
C1096 H1081 0.960 . S
C1096 H1082 0.960 . S
C1096 H1083 0.960 . S
C1096 C1095 1.524 . S
C1097 C1094 1.403 1_455 S
C1097 C1098 1.392 . S
C1097 C1101 1.495 . S
C1098 C1097 1.392 . S
C1098 C1099 1.385 . S
C1098 C1100 1.478 . S
C1099 H1093 0.930 . S
C1099 C1095 1.400 1_455 S
C1099 C1098 1.385 . S
C1100 C1098 1.478 . S
C1100 C1102 1.381 . S
C1100 C1106 1.383 . S
C1101 C1097 1.495 . S
C1101 H1107 0.959 . S
C1101 H1108 0.961 . S
C1101 H1109 0.960 . S
C1102 C1100 1.381 . S
C1102 C1103 1.394 . S
C1102 H1110 0.930 . S
C1103 C1102 1.394 . S
C1103 C1104 1.383 . S
C1103 H1111 0.929 . S
C1104 C1103 1.383 . S
C1104 C1105 1.377 . S
C1105 H1089 0.930 . S
C1105 C1104 1.377 . S
C1105 C1106 1.379 . S
C1106 H1090 0.931 . S
C1106 C1100 1.383 . S
C1106 C1105 1.379 . S
H1107 C1101 0.959 . S
H1108 C1101 0.961 . S
H1109 C1101 0.960 . S
H1110 C1102 0.930 . S
H1111 C1103 0.929 . S
H1112 C1120 0.929 . S
H1113 C1122 0.930 . S
H1114 C1124 0.930 . S
H1115 C1127 0.929 . S
H1116 C1130 0.930 . S
H1117 C1132 0.960 . S
H1118 C1132 0.960 . S
H1119 C1132 0.960 . S
C1120 H1112 0.929 . S
C1120 C1121 1.377 . S
C1120 C1122 1.384 . S
C1121 C1120 1.377 . S
C1121 C1127 1.390 . S
C1122 H1113 0.930 . S
C1122 C1120 1.384 . S
C1122 C1123 1.372 . S
C1123 C1122 1.372 . S
C1123 C1124 1.400 . S
C1123 C1128 1.490 . S
C1124 H1114 0.930 . S
C1124 C1123 1.400 . S
C1124 C1127 1.386 . S
H1125 C1141 0.930 . S
H1126 C1142 0.931 . S
C1127 H1115 0.929 . S
C1127 C1121 1.390 . S
C1127 C1124 1.386 . S
C1128 C1123 1.490 . S
C1128 C1130 1.395 . S
C1128 C1131 1.403 . S
H1129 C1135 0.930 . S
C1130 H1116 0.930 . S
C1130 C1128 1.395 . S
C1130 C1133 1.403 . S
C1131 C1128 1.403 . S
C1131 C1132 1.524 . S
C1131 C1135 1.400 . S
C1132 H1117 0.960 . S
C1132 H1118 0.960 . S
C1132 H1119 0.960 . S
C1132 C1131 1.524 . S
C1133 C1130 1.403 . S
C1133 C1134 1.392 . S
C1133 C1137 1.495 . S
C1134 C1133 1.392 . S
C1134 C1135 1.385 . S
C1134 C1136 1.478 . S
C1135 H1129 0.930 . S
C1135 C1131 1.400 . S
C1135 C1134 1.385 . S
C1136 C1134 1.478 . S
C1136 C1138 1.381 . S
C1136 C1142 1.383 . S
C1137 C1133 1.495 . S
C1137 H1143 0.959 . S
C1137 H1144 0.961 . S
C1137 H1145 0.960 . S
C1138 C1136 1.381 . S
C1138 C1139 1.394 . S
C1138 H1146 0.930 . S
C1139 C1138 1.394 . S
C1139 C1140 1.383 . S
C1139 H1147 0.929 . S
C1140 C1139 1.383 . S
C1140 C1141 1.377 . S
C1141 H1125 0.930 . S
C1141 C1140 1.377 . S
C1141 C1142 1.379 . S
C1142 H1126 0.931 . S
C1142 C1136 1.383 . S
C1142 C1141 1.379 . S
H1143 C1137 0.959 . S
H1144 C1137 0.961 . S
H1145 C1137 0.960 . S
H1146 C1138 0.930 . S
H1147 C1139 0.929 . S
H1148 C1156 0.929 . S
H1149 C1158 0.930 . S
H1150 C1160 0.930 . S
H1151 C1163 0.929 . S
H1152 C1166 0.930 . S
H1153 C1168 0.960 . S
H1154 C1168 0.960 . S
H1155 C1168 0.960 . S
C1156 H1148 0.929 . S
C1156 C1157 1.377 . S
C1156 C1158 1.384 . S
C1157 C1156 1.377 . S
C1157 C1163 1.390 . S
C1158 H1149 0.930 . S
C1158 C1156 1.384 . S
C1158 C1159 1.372 . S
C1159 C1158 1.372 . S
C1159 C1160 1.400 . S
C1159 C1164 1.490 . S
C1160 H1150 0.930 . S
C1160 C1159 1.400 . S
C1160 C1163 1.386 . S
H1161 C1177 0.930 . S
H1162 C1178 0.931 . S
C1163 H1151 0.929 . S
C1163 C1157 1.390 . S
C1163 C1160 1.386 . S
C1164 C1159 1.490 . S
C1164 C1166 1.395 . S
C1164 C1167 1.403 . S
H1165 C1171 0.930 . S
C1166 H1152 0.930 . S
C1166 C1164 1.395 . S
C1166 C1169 1.403 . S
C1167 C1164 1.403 . S
C1167 C1168 1.524 . S
C1167 C1171 1.400 . S
C1168 H1153 0.960 . S
C1168 H1154 0.960 . S
C1168 H1155 0.960 . S
C1168 C1167 1.524 . S
C1169 C1166 1.403 . S
C1169 C1170 1.392 . S
C1169 C1173 1.495 . S
C1170 C1169 1.392 . S
C1170 C1171 1.385 . S
C1170 C1172 1.478 . S
C1171 H1165 0.930 . S
C1171 C1167 1.400 . S
C1171 C1170 1.385 . S
C1172 C1170 1.478 . S
C1172 C1174 1.381 . S
C1172 C1178 1.383 . S
C1173 C1169 1.495 . S
C1173 H1179 0.959 . S
C1173 H1180 0.961 . S
C1173 H1181 0.960 . S
C1174 C1172 1.381 . S
C1174 C1175 1.394 . S
C1174 H1182 0.930 . S
C1175 C1174 1.394 . S
C1175 C1176 1.383 . S
C1175 H1183 0.929 . S
C1176 C1175 1.383 . S
C1176 C1177 1.377 . S
C1177 H1161 0.930 . S
C1177 C1176 1.377 . S
C1177 C1178 1.379 . S
C1178 H1162 0.931 . S
C1178 C1172 1.383 . S
C1178 C1177 1.379 . S
H1179 C1173 0.959 . S
H1180 C1173 0.961 . S
H1181 C1173 0.960 . S
H1182 C1174 0.930 . S
H1183 C1175 0.929 . S
C329 C17 1.701 . S
C348 C297 1.694 . S
C365 C257 1.701 . S
C384 C57 1.694 . S
C401 C217 1.701 . S
C420 C97 1.696 . S
C437 C177 1.702 . S
C456 C137 1.700 . S
C473 C82 1.000 . S
C492 C2 1.037 . S
C509 C42 0.998 . S
C528 C122 1.002 . S
C545 C143 2.001 . S
C564 C63 2.014 . S
C581 C103 2.006 . S
C600 C23 2.006 . S
C617 C162 0.973 . S
C636 C242 0.987 . S
C653 C202 0.972 . S
C672 C282 0.994 . S
C689 C303 1.952 . S
C708 C223 1.963 . S
C725 C263 1.955 . S
C744 C183 1.932 . S
C761 C13 1.873 . S
C780 C24 1.869 . S
C797 C53 1.877 . S
C816 C64 1.885 . S
C833 C104 1.874 . S
C852 C93 1.858 . S
C869 C133 1.875 . S
C888 C144 1.883 . S
C905 C184 1.873 . S
C924 C173 1.872 . S
C941 C213 1.873 . S
C960 C224 1.874 . S
C977 C253 1.878 . S
C996 C264 1.870 . S
C1013 C293 1.878 . S
C1032 C304 1.875 . S
C1049 C26 2.193 . S
C1068 C66 2.199 . S
C1085 C146 2.193 . S
C1104 C106 2.189 . S
C1121 C186 2.196 . S
C1140 C226 2.198 . S
C1157 C306 2.194 . S
C1176 C266 2.185 . S
