# Generated by pormake.
# Topology lcy-e, (6)-cn, num edge types: 1
# Building blocks:
#     Node 0, Type 0, BuildingBlock: HISSIN_clean_sbu_0, # of connection points: 6
#     Node 1, Type 0, BuildingBlock: HISSIN_clean_sbu_0, # of connection points: 6
#     Node 2, Type 0, BuildingBlock: HISSIN_clean_sbu_0, # of connection points: 6
#     Node 3, Type 0, BuildingBlock: HISSIN_clean_sbu_0, # of connection points: 6
#     Node 4, Type 0, BuildingBlock: HISSIN_clean_sbu_0, # of connection points: 6
#     Node 5, Type 0, BuildingBlock: HISSIN_clean_sbu_0, # of connection points: 6
#     Node 6, Type 0, BuildingBlock: HISSIN_clean_sbu_0, # of connection points: 6
#     Node 7, Type 0, BuildingBlock: HISSIN_clean_sbu_0, # of connection points: 6
#     Node 8, Type 0, BuildingBlock: HISSIN_clean_sbu_0, # of connection points: 6
#     Node 9, Type 0, BuildingBlock: HISSIN_clean_sbu_0, # of connection points: 6
#     Node 10, Type 0, BuildingBlock: HISSIN_clean_sbu_0, # of connection points: 6
#     Node 11, Type 0, BuildingBlock: HISSIN_clean_sbu_0, # of connection points: 6
#     Edge 12, Type (0, 0), BuildingBlock: XUDNAN_clean_linker_2, # of connection points: 2
#     Edge 13, Type (0, 0), BuildingBlock: XUDNAN_clean_linker_2, # of connection points: 2
#     Edge 14, Type (0, 0), BuildingBlock: XUDNAN_clean_linker_2, # of connection points: 2
#     Edge 15, Type (0, 0), BuildingBlock: XUDNAN_clean_linker_2, # of connection points: 2
#     Edge 16, Type (0, 0), BuildingBlock: XUDNAN_clean_linker_2, # of connection points: 2
#     Edge 17, Type (0, 0), BuildingBlock: XUDNAN_clean_linker_2, # of connection points: 2
#     Edge 18, Type (0, 0), BuildingBlock: XUDNAN_clean_linker_2, # of connection points: 2
#     Edge 19, Type (0, 0), BuildingBlock: XUDNAN_clean_linker_2, # of connection points: 2
#     Edge 20, Type (0, 0), BuildingBlock: XUDNAN_clean_linker_2, # of connection points: 2
#     Edge 21, Type (0, 0), BuildingBlock: XUDNAN_clean_linker_2, # of connection points: 2
#     Edge 22, Type (0, 0), BuildingBlock: XUDNAN_clean_linker_2, # of connection points: 2
#     Edge 23, Type (0, 0), BuildingBlock: XUDNAN_clean_linker_2, # of connection points: 2
#     Edge 24, Type (0, 0), BuildingBlock: XUDNAN_clean_linker_2, # of connection points: 2
#     Edge 25, Type (0, 0), BuildingBlock: XUDNAN_clean_linker_2, # of connection points: 2
#     Edge 26, Type (0, 0), BuildingBlock: XUDNAN_clean_linker_2, # of connection points: 2
#     Edge 27, Type (0, 0), BuildingBlock: XUDNAN_clean_linker_2, # of connection points: 2
#     Edge 28, Type (0, 0), BuildingBlock: XUDNAN_clean_linker_2, # of connection points: 2
#     Edge 29, Type (0, 0), BuildingBlock: XUDNAN_clean_linker_2, # of connection points: 2
#     Edge 30, Type (0, 0), BuildingBlock: XUDNAN_clean_linker_2, # of connection points: 2
#     Edge 31, Type (0, 0), BuildingBlock: XUDNAN_clean_linker_2, # of connection points: 2
#     Edge 32, Type (0, 0), BuildingBlock: XUDNAN_clean_linker_2, # of connection points: 2
#     Edge 33, Type (0, 0), BuildingBlock: XUDNAN_clean_linker_2, # of connection points: 2
#     Edge 34, Type (0, 0), BuildingBlock: XUDNAN_clean_linker_2, # of connection points: 2
#     Edge 35, Type (0, 0), BuildingBlock: XUDNAN_clean_linker_2, # of connection points: 2
#     Edge 36, Type (0, 0), BuildingBlock: XUDNAN_clean_linker_2, # of connection points: 2
#     Edge 37, Type (0, 0), BuildingBlock: XUDNAN_clean_linker_2, # of connection points: 2
#     Edge 38, Type (0, 0), BuildingBlock: XUDNAN_clean_linker_2, # of connection points: 2
#     Edge 39, Type (0, 0), BuildingBlock: XUDNAN_clean_linker_2, # of connection points: 2
#     Edge 40, Type (0, 0), BuildingBlock: XUDNAN_clean_linker_2, # of connection points: 2
#     Edge 41, Type (0, 0), BuildingBlock: XUDNAN_clean_linker_2, # of connection points: 2
#     Edge 42, Type (0, 0), BuildingBlock: XUDNAN_clean_linker_2, # of connection points: 2
#     Edge 43, Type (0, 0), BuildingBlock: XUDNAN_clean_linker_2, # of connection points: 2
#     Edge 44, Type (0, 0), BuildingBlock: XUDNAN_clean_linker_2, # of connection points: 2
#     Edge 45, Type (0, 0), BuildingBlock: XUDNAN_clean_linker_2, # of connection points: 2
#     Edge 46, Type (0, 0), BuildingBlock: XUDNAN_clean_linker_2, # of connection points: 2
#     Edge 47, Type (0, 0), BuildingBlock: XUDNAN_clean_linker_2, # of connection points: 2
# Relax obj value: 0.189
# Max RMSD: 0.287
# Mean RMSD: 0.273
data_MOF--net-lcy-e--node1-HISSIN_clean_sbu_0--edge1-XUDNAN_clean_linker_2
_symmetry_space_group_name_H-M    P1
_symmetry_Int_Tables_number       1
_symmetry_cell_setting            triclinic
loop_
_symmetry_equiv_pos_as_xyz
'x, y, z'
_cell_length_a     43.569973
_cell_length_b     45.638435
_cell_length_c     44.67792
_cell_angle_alpha  89.841824
_cell_angle_beta   90.141637
_cell_angle_gamma 89.068591
loop_
_atom_site_label
_atom_site_type_symbol
_atom_site_fract_x
_atom_site_fract_y
_atom_site_fract_z
_atom_type_partial_charge
Eu0 Eu 0.11591 0.23177 0.53363 0.0
Eu1 Eu 0.11006 0.28215 0.48107 0.0
C2 C 0.07211 0.28654 0.54378 0.0
C3 C 0.10743 0.16355 0.5842 0.0
C4 C 0.08103 0.15291 0.57018 0.0
C5 C 0.10721 0.12219 0.6184 0.0
C6 C 0.06792 0.12681 0.58011 0.0
C7 C 0.12024 0.14821 0.60848 0.0
C8 C 0.08104 0.111 0.60419 0.0
C9 C 0.12313 0.18951 0.57285 0.0
O10 O 0.15162 0.29499 0.50775 0.0
O11 O 0.13819 0.27272 0.55189 0.0
C12 C 0.15294 0.29322 0.53711 0.0
O13 O 0.16081 0.23312 0.50942 0.0
O14 O 0.1091 0.32753 0.46539 0.0
O15 O 0.10031 0.29226 0.4342 0.0
O16 O 0.14286 0.24704 0.46364 0.0
C17 C 0.16415 0.23453 0.48038 0.0
O18 O 0.08353 0.21381 0.4985 0.0
O19 O 0.06548 0.25827 0.48226 0.0
O20 O 0.08697 0.30061 0.5226 0.0
O21 O 0.13275 0.18807 0.54527 0.0
O22 O 0.11107 0.21506 0.5793 0.0
O23 O 0.07373 0.25788 0.54607 0.0
C24 C 0.12227 0.33589 0.41469 0.0
C25 C 0.14179 0.32105 0.39455 0.0
C26 C 0.13464 0.38193 0.39058 0.0
C27 C 0.15753 0.33666 0.37244 0.0
C28 C 0.11888 0.36639 0.41245 0.0
C29 C 0.15418 0.3673 0.37032 0.0
C30 C 0.10429 0.32036 0.43756 0.0
C31 C 0.06206 0.22998 0.48555 0.0
H32 H 0.07089 0.16453 0.55132 0.0
H33 H 0.11823 0.1104 0.63666 0.0
H34 H 0.04758 0.11898 0.56889 0.0
H35 H 0.14078 0.15602 0.61939 0.0
H36 H 0.14483 0.29748 0.3958 0.0
H37 H 0.13111 0.40545 0.38924 0.0
H38 H 0.17254 0.32482 0.35725 0.0
H39 H 0.10374 0.37825 0.42754 0.0
Eu40 Eu 0.98183 0.87266 0.72072 0.0
Eu41 Eu 0.03 0.8992 0.77115 0.0
C42 C 0.9598 0.92105 0.76487 0.0
C43 C 0.9314 0.86745 0.65014 0.0
C44 C 0.9137 0.89353 0.6489 0.0
C45 C 0.92478 0.86212 0.59632 0.0
C46 C 0.90132 0.90356 0.62158 0.0
C47 C 0.93694 0.85206 0.62352 0.0
C48 C 0.90638 0.88775 0.59495 0.0
C49 C 0.94428 0.85563 0.67861 0.0
O50 O 0.01849 0.85354 0.78471 0.0
O51 O 0.96973 0.85257 0.76608 0.0
C52 C 0.99024 0.84441 0.78638 0.0
O53 O 0.02014 0.83961 0.72426 0.0
O54 O 0.04322 0.90441 0.81814 0.0
O55 O 0.07163 0.92239 0.78315 0.0
O56 O 0.05815 0.87022 0.73997 0.0
C57 C 0.04929 0.84555 0.72765 0.0
O58 O 0.0124 0.90484 0.69693 0.0
O59 O 0.02411 0.93459 0.73647 0.0
O60 O 0.98136 0.91338 0.78421 0.0
O61 O 0.97365 0.84966 0.67875 0.0
O62 O 0.93507 0.86738 0.70374 0.0
O63 O 0.96363 0.91582 0.73639 0.0
C64 C 0.09693 0.90123 0.82515 0.0
C65 C 0.11571 0.88236 0.80816 0.0
C66 C 0.12845 0.89009 0.86899 0.0
C67 C 0.14057 0.86751 0.82141 0.0
C68 C 0.10362 0.90514 0.85561 0.0
C69 C 0.14707 0.87081 0.85211 0.0
C70 C 0.06967 0.91573 0.81153 0.0
C71 C 0.02175 0.93005 0.70755 0.0
H72 H 0.90914 0.90602 0.66902 0.0
H73 H 0.92979 0.84964 0.57629 0.0
H74 H 0.88713 0.92326 0.62149 0.0
H75 H 0.95064 0.83203 0.62376 0.0
H76 H 0.11101 0.87881 0.78464 0.0
H77 H 0.1325 0.89296 0.89271 0.0
H78 H 0.15465 0.85333 0.8075 0.0
H79 H 0.0893 0.91944 0.86918 0.0
Eu80 Eu 0.35343 0.78544 0.03 0.0
Eu81 Eu 0.38292 0.74391 0.97492 0.0
C82 C 0.40412 0.73662 0.04305 0.0
C83 C 0.34847 0.85061 0.084 0.0
C84 C 0.36036 0.85346 0.11309 0.0
C85 C 0.35878 0.90236 0.07539 0.0
C86 C 0.37167 0.88028 0.12314 0.0
C87 C 0.34766 0.87543 0.06527 0.0
C88 C 0.37125 0.90517 0.10441 0.0
C89 C 0.33838 0.82138 0.07351 0.0
O90 O 0.34763 0.71576 0.99666 0.0
O91 O 0.32185 0.74611 0.03027 0.0
C92 C 0.32564 0.72084 0.01616 0.0
O93 O 0.32987 0.80098 0.98745 0.0
O94 O 0.39853 0.70154 0.95685 0.0
O95 O 0.4001 0.74046 0.92929 0.0
O96 O 0.33614 0.75919 0.95959 0.0
C97 C 0.32205 0.78428 0.96484 0.0
O98 O 0.39866 0.80509 0.0166 0.0
O99 O 0.40309 0.7886 0.96849 0.0
O100 O 0.41447 0.73955 0.01551 0.0
O101 O 0.32321 0.81985 0.04831 0.0
O102 O 0.35857 0.80018 0.07616 0.0
O103 O 0.37649 0.74579 0.05013 0.0
C104 C 0.38662 0.69663 0.90517 0.0
C105 C 0.35637 0.70447 0.89726 0.0
C106 C 0.38796 0.66228 0.86346 0.0
C107 C 0.3423 0.69187 0.87233 0.0
C108 C 0.40215 0.67513 0.88835 0.0
C109 C 0.35806 0.67095 0.85479 0.0
C110 C 0.40235 0.71194 0.92989 0.0
C111 C 0.4108 0.80674 0.98981 0.0
H112 H 0.3614 0.83468 0.12798 0.0
H113 H 0.3575 0.92102 0.0604 0.0
H114 H 0.38146 0.88124 0.1454 0.0
H115 H 0.3387 0.87403 0.0427 0.0
H116 H 0.34383 0.72085 0.91002 0.0
H117 H 0.40079 0.64636 0.85038 0.0
H118 H 0.3191 0.69874 0.86658 0.0
H119 H 0.4255 0.66874 0.89405 0.0
Eu120 Eu 0.49063 0.13589 0.22474 0.0
Eu121 Eu 0.44094 0.11169 0.27392 0.0
C122 C 0.51068 0.0839 0.26834 0.0
C123 C 0.54421 0.13985 0.15876 0.0
C124 C 0.54985 0.10953 0.16001 0.0
C125 C 0.57044 0.14192 0.11096 0.0
C126 C 0.56618 0.09557 0.13717 0.0
C127 C 0.55425 0.15593 0.13398 0.0
C128 C 0.57691 0.11167 0.11256 0.0
C129 C 0.52742 0.15455 0.18301 0.0
O130 O 0.46057 0.1528 0.29347 0.0
O131 O 0.50731 0.14934 0.27065 0.0
C132 C 0.49007 0.15787 0.29319 0.0
O133 O 0.45746 0.17302 0.23317 0.0
O134 O 0.42782 0.10145 0.3199 0.0
O135 O 0.39514 0.09575 0.28383 0.0
O136 O 0.41618 0.14515 0.24459 0.0
C137 C 0.42775 0.17007 0.23559 0.0
O138 O 0.46026 0.10374 0.2003 0.0
O139 O 0.4439 0.07579 0.23959 0.0
O140 O 0.48685 0.08989 0.28565 0.0
O141 O 0.49761 0.15484 0.1804 0.0
O142 O 0.5364 0.14799 0.21012 0.0
O143 O 0.51262 0.09405 0.24089 0.0
C144 C 0.37567 0.11078 0.33085 0.0
C145 C 0.36227 0.13762 0.32181 0.0
C146 C 0.34556 0.11258 0.37644 0.0
C147 C 0.34063 0.15187 0.34008 0.0
C148 C 0.36696 0.09829 0.35813 0.0
C149 C 0.33239 0.13968 0.36781 0.0
C150 C 0.39945 0.09597 0.31274 0.0
C151 C 0.44813 0.07958 0.2108 0.0
H152 H 0.54183 0.09669 0.17879 0.0
H153 H 0.57865 0.15486 0.09235 0.0
H154 H 0.57053 0.07218 0.13879 0.0
H155 H 0.54982 0.17932 0.1326 0.0
H156 H 0.36886 0.14773 0.30087 0.0
H157 H 0.3394 0.10247 0.3975 0.0
H158 H 0.33106 0.17282 0.33296 0.0
H159 H 0.37702 0.07761 0.36546 0.0
Eu160 Eu 0.60691 0.23543 0.54626 0.0
Eu161 Eu 0.61023 0.28371 0.49237 0.0
C162 C 0.6469 0.22091 0.48919 0.0
C163 C 0.62259 0.18829 0.61596 0.0
C164 C 0.65403 0.18291 0.61134 0.0
C165 C 0.62769 0.17026 0.66685 0.0
C166 C 0.67208 0.17068 0.63423 0.0
C167 C 0.60966 0.18228 0.64392 0.0
C168 C 0.65899 0.16396 0.66212 0.0
C169 C 0.60279 0.20001 0.59201 0.0
O170 O 0.56748 0.2585 0.48219 0.0
O171 O 0.58133 0.21618 0.50692 0.0
C172 C 0.5657 0.22999 0.48572 0.0
O173 O 0.56293 0.26136 0.5464 0.0
O174 O 0.60221 0.29934 0.44669 0.0
O175 O 0.62764 0.3259 0.478 0.0
O176 O 0.58108 0.30461 0.52902 0.0
C177 C 0.56098 0.28993 0.54473 0.0
O178 O 0.64103 0.26946 0.56119 0.0
O179 O 0.65665 0.28132 0.51427 0.0
O180 O 0.63134 0.2414 0.47445 0.0
O181 O 0.59628 0.22796 0.59333 0.0
O182 O 0.60873 0.19125 0.56482 0.0
O183 O 0.64703 0.21998 0.51858 0.0
C184 C 0.60027 0.35076 0.44007 0.0
C185 C 0.57268 0.36107 0.45264 0.0
C186 C 0.60105 0.3931 0.40727 0.0
C187 C 0.55936 0.38745 0.44256 0.0
C188 C 0.61424 0.36681 0.4173 0.0
C189 C 0.57351 0.40383 0.41982 0.0
C190 C 0.61579 0.32419 0.45126 0.0
C191 C 0.66167 0.28035 0.54316 0.0
H192 H 0.66451 0.18777 0.58997 0.0
H193 H 0.61688 0.16495 0.68795 0.0
H194 H 0.69619 0.16625 0.63007 0.0
H195 H 0.58544 0.18644 0.64787 0.0
H196 H 0.56169 0.34891 0.47039 0.0
H197 H 0.6129 0.40538 0.39018 0.0
H198 H 0.53802 0.39498 0.45251 0.0
H199 H 0.63571 0.35924 0.40759 0.0
Eu200 Eu 0.94595 0.39935 0.74368 0.0
Eu201 Eu 0.99042 0.38627 0.80258 0.0
C202 C 0.99861 0.3529 0.73944 0.0
C203 C 0.88579 0.39161 0.68055 0.0
C204 C 0.87013 0.36754 0.69241 0.0
C205 C 0.85685 0.38702 0.63435 0.0
C206 C 0.84787 0.35328 0.67524 0.0
C207 C 0.8789 0.40123 0.65149 0.0
C208 C 0.84116 0.36276 0.64588 0.0
C209 C 0.90906 0.40737 0.69797 0.0
O210 O 0.01453 0.42353 0.78031 0.0
O211 O 0.99144 0.42171 0.73354 0.0
C212 C 0.01346 0.43054 0.75175 0.0
O213 O 0.94579 0.44143 0.7692 0.0
O214 O 0.03437 0.37468 0.82344 0.0
O215 O 0.9932 0.3772 0.85051 0.0
O216 O 0.95922 0.42469 0.81598 0.0
C217 C 0.94799 0.44533 0.79818 0.0
O218 O 0.91813 0.37296 0.77668 0.0
O219 O 0.95816 0.34834 0.79867 0.0
O220 O 0.01281 0.36615 0.76145 0.0
O221 O 0.90194 0.41425 0.72546 0.0
O222 O 0.93747 0.3982 0.69543 0.0
O223 O 0.96886 0.35561 0.73664 0.0
C224 C 0.04093 0.38666 0.875 0.0
C225 C 0.02651 0.39895 0.90031 0.0
C226 C 0.09034 0.39218 0.89957 0.0
C227 C 0.04388 0.40725 0.92525 0.0
C228 C 0.07306 0.38393 0.87473 0.0
C229 C 0.07591 0.40314 0.92544 0.0
C230 C 0.02297 0.37356 0.85037 0.0
C231 C 0.9289 0.3504 0.792 0.0
H232 H 0.87517 0.35976 0.71485 0.0
H233 H 0.85192 0.39522 0.61205 0.0
H234 H 0.83636 0.33457 0.68469 0.0
H235 H 0.89059 0.41987 0.64203 0.0
H236 H 1.00175 0.40118 0.90134 0.0
H237 H 0.11505 0.3892 0.89884 0.0
H238 H 0.03211 0.41551 0.94489 0.0
H239 H 0.08484 0.3744 0.85568 0.0
Eu240 Eu 0.87927 0.77324 0.04239 0.0
Eu241 Eu 0.84664 0.72922 0.99261 0.0
C242 C 0.82486 0.79623 0.99891 0.0
C243 C 0.88977 0.82465 0.10974 0.0
C244 C 0.85967 0.82201 0.12061 0.0
C245 C 0.8987 0.86291 0.14634 0.0
C246 C 0.84914 0.8398 0.1442 0.0
C247 C 0.90918 0.84511 0.12293 0.0
C248 C 0.86847 0.86071 0.15718 0.0
C249 C 0.90164 0.8059 0.08526 0.0
O250 O 0.87519 0.76071 0.9665 0.0
O251 O 0.91118 0.77278 1.00211 0.0
C252 C 0.90175 0.77174 0.97399 0.0
O253 O 0.89783 0.72753 0.04985 0.0
O254 O 0.83187 0.71665 0.9475 0.0
O255 O 0.82633 0.68663 0.9845 0.0
O256 O 0.89383 0.71077 1.00203 0.0
C257 C 0.90636 0.70939 0.02866 0.0
O258 O 0.83184 0.76392 0.05937 0.0
O259 O 0.82724 0.71886 0.03805 0.0
O260 O 0.81512 0.76928 0.99485 0.0
O261 O 0.89688 0.7779 0.08783 0.0
O262 O 0.89726 0.81518 0.05792 0.0
O263 O 0.85106 0.80195 0.01198 0.0
C264 C 0.839 0.66589 0.93753 0.0
C265 C 0.86494 0.64988 0.94758 0.0
C266 C 0.83847 0.63613 0.89248 0.0
C267 C 0.87749 0.62711 0.93021 0.0
C268 C 0.82584 0.6587 0.90992 0.0
C269 C 0.86455 0.62013 0.90229 0.0
C270 C 0.82538 0.68997 0.95554 0.0
C271 C 0.81905 0.73817 0.0583 0.0
H272 H 0.84429 0.80629 0.11077 0.0
H273 H 0.9144 0.87843 0.15605 0.0
H274 H 0.82569 0.83768 0.15179 0.0
H275 H 0.93255 0.84734 0.1151 0.0
H276 H 0.87563 0.65507 0.96879 0.0
H277 H 0.82771 0.63113 0.87126 0.0
H278 H 0.89773 0.61545 0.93827 0.0
H279 H 0.80579 0.67064 0.90178 0.0
Eu280 Eu 0.53676 0.62087 0.25593 0.0
Eu281 Eu 0.48181 0.64602 0.30062 0.0
C282 C 0.49394 0.67377 0.23524 0.0
C283 C 0.607 0.62189 0.20717 0.0
C284 C 0.60534 0.65261 0.20626 0.0
C285 C 0.65622 0.62326 0.18191 0.0
C286 C 0.62886 0.66856 0.19309 0.0
C287 C 0.63256 0.60731 0.195 0.0
C288 C 0.65464 0.65411 0.18076 0.0
C289 C 0.58223 0.60524 0.22113 0.0
O290 O 0.46391 0.60528 0.27898 0.0
O291 O 0.49206 0.60687 0.23584 0.0
C292 C 0.46729 0.59938 0.25045 0.0
O293 O 0.52597 0.5839 0.28718 0.0
O294 O 0.43362 0.64929 0.31454 0.0
O295 O 0.46889 0.66899 0.34155 0.0
O296 O 0.51072 0.6129 0.3262 0.0
C297 C 0.5204 0.58751 0.31578 0.0
O298 O 0.55835 0.64877 0.29131 0.0
O299 O 0.51831 0.68052 0.2997 0.0
O300 O 0.47266 0.66626 0.25469 0.0
O301 O 0.58331 0.60324 0.25025 0.0
O302 O 0.55461 0.61137 0.21142 0.0
O303 O 0.52268 0.66544 0.23899 0.0
C304 C 0.42785 0.64624 0.36756 0.0
C305 C 0.44608 0.64196 0.3933 0.0
C306 C 0.3859 0.62168 0.3931 0.0
C307 C 0.43446 0.62766 0.41849 0.0
C308 C 0.39754 0.63611 0.36787 0.0
C309 C 0.40428 0.61708 0.41874 0.0
C310 C 0.44035 0.6608 0.3404 0.0
C311 C 0.54788 0.67451 0.29981 0.0
H312 H 0.58577 0.66426 0.21567 0.0
H313 H 0.67592 0.61144 0.17305 0.0
H314 H 0.62661 0.69221 0.19224 0.0
H315 H 0.63428 0.58361 0.19571 0.0
H316 H 0.46949 0.64956 0.39406 0.0
H317 H 0.36267 0.61364 0.39226 0.0
H318 H 0.44917 0.62514 0.43792 0.0
H319 H 0.38288 0.63911 0.34844 0.0
Eu320 Eu 0.25876 0.47485 0.13106 0.0
Eu321 Eu 0.2045 0.52434 0.14425 0.0
C322 C 0.27272 0.52893 0.1716 0.0
C323 C 0.3114 0.40736 0.13818 0.0
C324 C 0.33468 0.38983 0.12564 0.0
C325 C 0.30731 0.37264 0.17933 0.0
C326 C 0.34408 0.36373 0.13967 0.0
C327 C 0.29798 0.39879 0.16529 0.0
C328 C 0.33027 0.3546 0.16652 0.0
C329 C 0.2998 0.43327 0.12173 0.0
O330 O 0.22097 0.5336 0.09779 0.0
O331 O 0.27014 0.51605 0.10431 0.0
C332 C 0.25019 0.53395 0.09106 0.0
O333 O 0.22439 0.47084 0.09414 0.0
O334 O 0.18773 0.56967 0.14366 0.0
O335 O 0.1598 0.53559 0.16304 0.0
O336 O 0.18148 0.4882 0.11824 0.0
C337 C 0.19452 0.47264 0.09694 0.0
O338 O 0.228 0.4561 0.16698 0.0
O339 O 0.21317 0.49999 0.1872 0.0
O340 O 0.25019 0.54323 0.15809 0.0
O341 O 0.27129 0.43205 0.11304 0.0
O342 O 0.30645 0.45891 0.1326 0.0
O343 O 0.27466 0.50032 0.17082 0.0
C344 C 0.13428 0.57428 0.13765 0.0
C345 C 0.11922 0.55685 0.11653 0.0
C346 C 0.09916 0.61453 0.12625 0.0
C347 C 0.09401 0.56812 0.1006 0.0
C348 C 0.12419 0.60317 0.14231 0.0
C349 C 0.08363 0.5971 0.10532 0.0
C350 C 0.16095 0.5629 0.1544 0.0
C351 C 0.2177 0.47164 0.18966 0.0
H352 H 0.34512 0.39598 0.1046 0.0
H353 H 0.29646 0.3665 0.20016 0.0
H354 H 0.36151 0.35025 0.12895 0.0
H355 H 0.27988 0.41204 0.17527 0.0
H356 H 0.12689 0.53452 0.11241 0.0
H357 H 0.09224 0.63711 0.13 0.0
H358 H 0.08246 0.55401 0.08488 0.0
H359 H 0.13581 0.61701 0.15827 0.0
Eu360 Eu 0.70181 1.00497 0.88432 0.0
Eu361 Eu 0.75917 0.05053 0.90069 0.0
C362 C 0.74993 0.98878 0.93571 0.0
C363 C 0.62854 0.95883 0.88925 0.0
C364 C 0.62871 0.95569 0.92051 0.0
C365 C 0.57891 0.93518 0.88742 0.0
C366 C 0.60424 0.94217 0.9351 0.0
C367 C 0.60341 0.94863 0.87287 0.0
C368 C 0.57905 0.93157 0.91873 0.0
C369 C 0.65476 0.97161 0.87326 0.0
O370 O 0.77845 0.02208 0.86453 0.0
O371 O 0.74447 0.98347 0.86454 0.0
C372 C 0.77089 0.99528 0.85731 0.0
O373 O 0.71297 0.02983 0.84272 0.0
O374 O 0.80617 0.06687 0.89715 0.0
O375 O 0.77211 0.09137 0.92222 0.0
O376 O 0.72778 0.07161 0.86612 0.0
C377 C 0.7189 0.05778 0.84201 0.0
O378 O 0.68357 0.04128 0.91439 0.0
O379 O 0.72794 0.04931 0.94016 0.0
O380 O 0.77016 1.00743 0.925 0.0
O381 O 0.65428 1.0 0.8693 0.0
O382 O 0.68197 0.96163 0.88076 0.0
O383 O 0.72078 0.99016 0.92833 0.0
C384 C 0.80905 0.11905 0.89532 0.0
C385 C 0.78802 0.1422 0.88993 0.0
C386 C 0.84918 0.14855 0.87271 0.0
C387 C 0.79747 0.16821 0.87629 0.0
C388 C 0.83973 0.12256 0.88655 0.0
C389 C 0.82819 0.17184 0.8674 0.0
C390 C 0.79949 0.09156 0.91046 0.0
C391 C 0.69796 0.04946 0.93879 0.0
H392 H 0.64795 0.96335 0.93359 0.0
H393 H 0.55976 0.92778 0.87409 0.0
H394 H 0.60539 0.93951 0.95917 0.0
H395 H 0.60283 0.95089 0.84873 0.0
H396 H 0.76419 0.14037 0.89641 0.0
H397 H 0.87291 0.1502 0.86587 0.0
H398 H 0.78065 0.18567 0.87315 0.0
H399 H 0.85646 0.10513 0.8904 0.0
Eu400 Eu 0.7376 0.96873 0.38681 0.0
Eu401 Eu 0.78009 0.0264 0.37371 0.0
C402 C 0.7138 0.01595 0.34117 0.0
C403 C 0.68997 0.89825 0.38428 0.0
C404 C 0.70141 0.88732 0.35712 0.0
C405 C 0.65236 0.85966 0.38527 0.0
C406 C 0.68865 0.86235 0.34434 0.0
C407 C 0.66518 0.88453 0.39805 0.0
C408 C 0.66419 0.84806 0.35847 0.0
C409 C 0.70405 0.9233 0.39917 0.0
O410 O 0.75803 0.03379 0.41842 0.0
O411 O 0.71465 1.00906 0.40728 0.0
C412 C 0.72837 0.0307 0.42107 0.0
O413 O 0.76915 0.97303 0.42606 0.0
O414 O 0.78723 0.07379 0.37386 0.0
O415 O 0.82312 0.04443 0.35781 0.0
O416 O 0.80893 0.99425 0.40157 0.0
C417 C 0.7984 0.9784 0.4238 0.0
O418 O 0.77254 0.95394 0.35166 0.0
O419 O 0.78236 0.99929 0.33201 0.0
O420 O 0.73217 0.03538 0.35346 0.0
O421 O 0.73397 0.92315 0.40069 0.0
O422 O 0.69261 0.94913 0.3928 0.0
O423 O 0.71968 0.98784 0.344 0.0
C424 C 0.83872 0.0889 0.37999 0.0
C425 C 0.85625 0.07745 0.4039 0.0
C426 C 0.86595 0.1347 0.38411 0.0
C427 C 0.87857 0.09464 0.41784 0.0
C428 C 0.84383 0.11756 0.3702 0.0
C429 C 0.88349 0.12358 0.40822 0.0
C430 C 0.81546 0.07139 0.3644 0.0
C431 C 0.78385 0.97058 0.33029 0.0
H432 H 0.72043 0.89783 0.34607 0.0
H433 H 0.63381 0.84899 0.39688 0.0
H434 H 0.69801 0.85412 0.32349 0.0
H435 H 0.65611 0.89273 0.41903 0.0
H436 H 0.85264 0.05531 0.4118 0.0
H437 H 0.86945 0.1567 0.37578 0.0
H438 H 0.89154 0.0855 0.43646 0.0
H439 H 0.83073 0.12671 0.35166 0.0
Eu440 Eu 0.22957 0.55135 0.62584 0.0
Eu441 Eu 0.27582 0.49929 0.65122 0.0
C442 C 0.2086 0.51236 0.67968 0.0
C443 C 0.18242 0.62151 0.62253 0.0
C444 C 0.16048 0.63932 0.60811 0.0
C445 C 0.18449 0.65641 0.66345 0.0
C446 C 0.15052 0.66555 0.62128 0.0
C447 C 0.19431 0.63012 0.65032 0.0
C448 C 0.16245 0.67442 0.64908 0.0
C449 C 0.19325 0.59425 0.60839 0.0
O450 O 0.2558 0.48337 0.60786 0.0
O451 O 0.20998 0.5076 0.61217 0.0
C452 C 0.22617 0.48481 0.60301 0.0
O453 O 0.26273 0.54264 0.58839 0.0
O454 O 0.28647 0.45289 0.65931 0.0
O455 O 0.31987 0.48577 0.6705 0.0
O456 O 0.30267 0.52571 0.61726 0.0
C457 C 0.29213 0.5373 0.59216 0.0
O458 O 0.26406 0.57336 0.65602 0.0
O459 O 0.27712 0.53463 0.68648 0.0
O460 O 0.22845 0.49158 0.67191 0.0
O461 O 0.22253 0.5929 0.6025 0.0
O462 O 0.1834 0.56999 0.62019 0.0
O463 O 0.21331 0.53958 0.67175 0.0
C464 C 0.33925 0.43964 0.65311 0.0
C465 C 0.3673 0.45167 0.64392 0.0
C466 C 0.35858 0.39144 0.6385 0.0
C467 C 0.39092 0.43365 0.6326 0.0
C468 C 0.33509 0.40939 0.64988 0.0
C469 C 0.38707 0.4032 0.63032 0.0
C470 C 0.31476 0.45786 0.66728 0.0
C471 C 0.27578 0.56297 0.68116 0.0
H472 H 0.15117 0.63302 0.5866 0.0
H473 H 0.19383 0.66242 0.68502 0.0
H474 H 0.13376 0.67909 0.6095 0.0
H475 H 0.21121 0.61649 0.66182 0.0
H476 H 0.37132 0.47493 0.64604 0.0
H477 H 0.35454 0.36817 0.63651 0.0
H478 H 0.41257 0.44343 0.6267 0.0
H479 H 0.31376 0.39947 0.65666 0.0
H480 H 0.19498 0.33381 0.51803 0.0
H481 H 0.13805 0.31036 0.59374 0.0
H482 H 0.14917 0.35766 0.6175 0.0
H483 H 0.25385 0.37098 0.56431 0.0
H484 H 0.26081 0.39813 0.53586 0.0
H485 H 0.24907 0.3619 0.52534 0.0
H486 H 0.20348 0.38469 0.49556 0.0
H487 H 0.21463 0.42094 0.50656 0.0
H488 H 0.17642 0.40851 0.51443 0.0
H489 H 0.1606 0.41005 0.62969 0.0
H490 H 0.18151 0.45972 0.6356 0.0
H491 H 0.2365 0.44735 0.55575 0.0
C492 C 0.18545 0.33836 0.53992 0.0
C493 C 0.16537 0.31845 0.55386 0.0
C494 C 0.15349 0.32517 0.58258 0.0
C495 C 0.15947 0.35214 0.59619 0.0
C496 C 0.17827 0.37177 0.5813 0.0
C497 C 0.19203 0.36482 0.55435 0.0
C498 C 0.21216 0.38958 0.54363 0.0
C499 C 0.24598 0.37955 0.54221 0.0
C500 C 0.20099 0.40163 0.51324 0.0
C501 C 0.20692 0.41179 0.5684 0.0
C502 C 0.18677 0.40123 0.58957 0.0
C503 C 0.17682 0.41834 0.61356 0.0
C504 C 0.18854 0.44662 0.61655 0.0
C505 C 0.21047 0.45725 0.59607 0.0
C506 C 0.21971 0.43965 0.57165 0.0
H507 H 0.82928 0.98321 0.87478 0.0
H508 H 0.76438 0.96981 0.80267 0.0
H509 H 0.80597 0.94784 0.77178 0.0
H510 H 0.89175 1.00355 0.83247 0.0
H511 H 0.92061 0.98409 0.85403 0.0
H512 H 0.88548 0.99605 0.87161 0.0
H513 H 0.87496 0.94301 0.88873 0.0
H514 H 0.91012 0.93058 0.8714 0.0
H515 H 0.87427 0.91397 0.86148 0.0
H516 H 0.8552 0.93416 0.74698 0.0
H517 H 0.90773 0.92223 0.73119 0.0
H518 H 0.94123 0.94102 0.82072 0.0
C519 C 0.82385 0.97498 0.8527 0.0
C520 C 0.79387 0.97798 0.84086 0.0
C521 C 0.78724 0.96727 0.81201 0.0
C522 C 0.81071 0.95496 0.79438 0.0
C523 C 0.84031 0.95302 0.80637 0.0
C524 C 0.84682 0.962 0.83514 0.0
C525 C 0.88067 0.95784 0.84243 0.0
C526 C 0.89548 0.98713 0.85061 0.0
C527 C 0.88527 0.93499 0.86749 0.0
C528 C 0.89247 0.94637 0.81274 0.0
C529 C 0.86872 0.94384 0.79234 0.0
C530 C 0.87389 0.93551 0.76289 0.0
C531 C 0.904 0.92904 0.75412 0.0
C532 C 0.92878 0.93063 0.77474 0.0
C533 C 0.92283 0.93946 0.80449 0.0
H534 H 0.31297 0.69642 0.07102 0.0
H535 H 0.29716 0.68674 0.97582 0.0
H536 H 0.2754 0.63781 0.98449 0.0
H537 H 0.33824 0.62454 0.08363 0.0
H538 H 0.32048 0.62011 0.11971 0.0
H539 H 0.33095 0.65604 0.10697 0.0
H540 H 0.27505 0.67486 0.11419 0.0
H541 H 0.26463 0.63913 0.12763 0.0
H542 H 0.244 0.65561 0.0967 0.0
H543 H 0.25976 0.58799 1.00283 0.0
H544 H 0.2477 0.54234 0.03055 0.0
H545 H 0.2732 0.58422 0.11358 0.0
C546 C 0.30368 0.68446 0.05225 0.0
C547 C 0.30598 0.69558 0.02281 0.0
C548 C 0.29498 0.67877 0.99857 0.0
C549 C 0.2828 0.65088 1.00326 0.0
C550 C 0.28194 0.63994 0.03236 0.0
C551 C 0.29166 0.65633 0.05655 0.0
C552 C 0.28987 0.63865 0.08531 0.0
C553 C 0.32178 0.6346 0.09974 0.0
C554 C 0.26702 0.65291 0.10725 0.0
C555 C 0.27802 0.60982 0.07341 0.0
C556 C 0.27362 0.61098 0.04282 0.0
C557 C 0.26314 0.58683 0.02681 0.0
C558 C 0.25659 0.56096 0.04259 0.0
C559 C 0.26086 0.55945 0.0739 0.0
C560 C 0.27136 0.5843 0.08944 0.0
H561 H 0.57115 0.09141 0.25353 0.0
H562 H 0.51206 0.04357 0.31379 0.0
H563 H 0.55788 0.02145 0.3383 0.0
H564 H 0.63138 0.03596 0.24561 0.0
H565 H 0.66199 0.06205 0.24602 0.0
H566 H 0.62463 0.07274 0.23201 0.0
H567 H 0.62267 0.11577 0.26963 0.0
H568 H 0.65992 0.10511 0.28394 0.0
H569 H 0.62771 0.10842 0.30902 0.0
H570 H 0.60939 1.00423 0.35572 0.0
H571 H 0.66375 0.9941 0.36705 0.0
H572 H 0.69099 0.05571 0.2984 0.0
C573 C 0.56786 0.07582 0.27152 0.0
C574 C 0.53796 0.06869 0.2814 0.0
C575 C 0.53466 0.04903 0.30565 0.0
C576 C 0.56056 0.03643 0.31971 0.0
C577 C 0.58965 0.04415 0.30963 0.0
C578 C 0.59352 0.06353 0.28624 0.0
C579 C 0.62742 0.06914 0.28085 0.0
C580 C 0.63691 0.05938 0.24924 0.0
C581 C 0.63486 0.10154 0.28618 0.0
C582 C 0.64207 0.04959 0.30469 0.0
C583 C 0.61967 0.03529 0.32079 0.0
C584 C 0.62707 0.01538 0.34336 0.0
C585 C 0.65807 1.0097 0.34954 0.0
C586 C 0.68159 0.02409 0.33366 0.0
C587 C 0.67349 0.04461 0.31108 0.0
H588 H 0.694 0.18274 0.50509 0.0
H589 H 0.62499 0.1996 0.4367 0.0
H590 H 0.63609 0.15124 0.41446 0.0
H591 H 0.74832 0.1458 0.45325 0.0
H592 H 0.76199 0.12054 0.48156 0.0
H593 H 0.74848 0.15658 0.49205 0.0
H594 H 0.71001 0.13308 0.52876 0.0
H595 H 0.72289 0.09696 0.51786 0.0
H596 H 0.68282 0.10702 0.51486 0.0
H597 H 0.65035 0.09905 0.40322 0.0
H598 H 0.67565 0.05104 0.39547 0.0
H599 H 0.74046 0.06977 0.46646 0.0
C600 C 0.68169 0.17643 0.48509 0.0
C601 C 0.65841 0.19482 0.47279 0.0
C602 C 0.64291 0.18591 0.44652 0.0
C603 C 0.64887 0.15835 0.43386 0.0
C604 C 0.67115 0.14031 0.44712 0.0
C605 C 0.68817 0.14936 0.47145 0.0
C606 C 0.71198 0.12621 0.48026 0.0
C607 C 0.74463 0.13798 0.47655 0.0
C608 C 0.70659 0.11517 0.51234 0.0
C609 C 0.70526 0.10257 0.45743 0.0
C610 C 0.68111 0.11097 0.43904 0.0
C611 C 0.6696 0.09242 0.41717 0.0
C612 C 0.68392 0.06501 0.41316 0.0
C613 C 0.70998 0.05664 0.43037 0.0
C614 C 0.72053 0.07559 0.45304 0.0
H615 H 0.07387 0.41366 0.74877 0.0
H616 H 0.01119 0.48539 0.72736 0.0
H617 H 0.05494 0.51461 0.70907 0.0
H618 H 0.13898 0.45439 0.77142 0.0
H619 H 0.16689 0.43105 0.75311 0.0
H620 H 0.13106 0.41616 0.7656 0.0
H621 H 0.11967 0.39765 0.71199 0.0
H622 H 0.15565 0.41217 0.6994 0.0
H623 H 0.12037 0.42311 0.6811 0.0
H624 H 0.10563 0.53668 0.69607 0.0
H625 H 0.15824 0.54839 0.68148 0.0
H626 H 0.18842 0.46012 0.70527 0.0
C627 C 0.06942 0.43545 0.73997 0.0
C628 C 0.03924 0.44746 0.73947 0.0
C629 C 0.03415 0.47593 0.72784 0.0
C630 C 0.05887 0.49263 0.71755 0.0
C631 C 0.08839 0.48019 0.71834 0.0
C632 C 0.0937 0.45198 0.72854 0.0
C633 C 0.12736 0.44319 0.72511 0.0
C634 C 0.14192 0.43576 0.75564 0.0
C635 C 0.13097 0.41751 0.7031 0.0
C636 C 0.14039 0.47119 0.71215 0.0
C637 C 0.11745 0.49229 0.70884 0.0
C638 C 0.12368 0.52023 0.69826 0.0
C639 C 0.15388 0.52669 0.6902 0.0
C640 C 0.17781 0.50523 0.69217 0.0
C641 C 0.17082 0.47707 0.70351 0.0
H642 H 0.80407 0.95717 0.93234 0.0
H643 H 0.71598 0.96088 0.97737 0.0
H644 H 0.72457 0.91076 0.99655 0.0
H645 H 0.79993 0.88433 0.90888 0.0
H646 H 0.83989 0.87535 0.915 0.0
H647 H 0.82826 0.91258 0.90693 0.0
H648 H 0.85458 0.93 0.95574 0.0
H649 H 0.86662 0.89281 0.96352 0.0
H650 H 0.84472 0.91313 0.99091 0.0
H651 H 0.7396 0.85827 1.00582 0.0
H652 H 0.76549 0.80991 0.01322 0.0
H653 H 0.84436 0.84071 0.96409 0.0
C654 C 0.78723 0.94785 0.94723 0.0
C655 C 0.75946 0.96293 0.95353 0.0
C656 C 0.73748 0.94969 0.97237 0.0
C657 C 0.74202 0.92114 0.98319 0.0
C658 C 0.76878 0.90617 0.97519 0.0
C659 C 0.79143 0.91926 0.95834 0.0
C660 C 0.8178 0.89801 0.95255 0.0
C661 C 0.82168 0.89224 0.91884 0.0
C662 C 0.84769 0.90915 0.96653 0.0
C663 C 0.80632 0.87105 0.96868 0.0
C664 C 0.77776 0.87605 0.98115 0.0
C665 C 0.76212 0.85412 0.99643 0.0
C666 C 0.7767 0.82667 1.00019 0.0
C667 C 0.80661 0.82177 0.98901 0.0
C668 C 0.82131 0.84403 0.97265 0.0
H669 H 0.4153 0.57385 0.27255 0.0
H670 H 0.459 0.60137 0.19002 0.0
H671 H 0.41244 0.58897 0.16183 0.0
H672 H 0.37559 0.51206 0.24078 0.0
H673 H 0.34186 0.51752 0.2635 0.0
H674 H 0.37878 0.52855 0.27726 0.0
H675 H 0.35716 0.58112 0.28566 0.0
H676 H 0.32028 0.57036 0.27147 0.0
H677 H 0.33981 0.60081 0.25476 0.0
H678 H 0.3617 0.57455 0.1426 0.0
H679 H 0.31085 0.554 0.13254 0.0
H680 H 0.29916 0.53538 0.22688 0.0
C681 C 0.41518 0.57692 0.24851 0.0
C682 C 0.44084 0.5884 0.23347 0.0
C683 C 0.43979 0.59224 0.202 0.0
C684 C 0.41334 0.58552 0.18579 0.0
C685 C 0.38828 0.57478 0.20136 0.0
C686 C 0.38903 0.57006 0.2319 0.0
C687 C 0.35903 0.55766 0.24294 0.0
C688 C 0.36413 0.52713 0.25693 0.0
C689 C 0.34314 0.57875 0.26501 0.0
C690 C 0.34142 0.55598 0.21375 0.0
C691 C 0.35867 0.5664 0.19017 0.0
C692 C 0.34779 0.56671 0.16089 0.0
C693 C 0.31867 0.55552 0.15544 0.0
C694 C 0.30078 0.54444 0.17911 0.0
C695 C 0.31223 0.54456 0.20862 0.0
H696 H 0.47973 0.2061 0.32906 0.0
H697 H 0.53312 0.12544 0.32192 0.0
H698 H 0.5539 0.13302 0.37275 0.0
H699 H 0.54048 0.24599 0.36699 0.0
H700 H 0.51418 0.26703 0.38979 0.0
H701 H 0.5023 0.25439 0.35348 0.0
H702 H 0.4558 0.22901 0.37789 0.0
H703 H 0.46791 0.2411 0.41436 0.0
H704 H 0.46225 0.20267 0.40748 0.0
H705 H 0.56607 0.14743 0.42524 0.0
H706 H 0.57882 0.17309 0.47186 0.0
H707 H 0.52297 0.24782 0.44334 0.0
C708 C 0.496 0.19028 0.33824 0.0
C709 C 0.5049 0.16518 0.32179 0.0
C710 C 0.52629 0.1449 0.33422 0.0
C711 C 0.53794 0.14886 0.36315 0.0
C712 C 0.52843 0.17356 0.37908 0.0
C713 C 0.50873 0.19443 0.36681 0.0
C714 C 0.50431 0.22014 0.38794 0.0
C715 C 0.51603 0.24856 0.3737 0.0
C716 C 0.47056 0.22341 0.39748 0.0
C717 C 0.52445 0.21032 0.41401 0.0
C718 C 0.53742 0.18302 0.40867 0.0
C719 C 0.55629 0.16894 0.42958 0.0
C720 C 0.56318 0.18366 0.45617 0.0
C721 C 0.55206 0.21258 0.46125 0.0
C722 C 0.53184 0.22576 0.44011 0.0
H723 H 0.02789 0.27018 0.58424 0.0
H724 H 0.09071 0.34 0.5628 0.0
H725 H 0.08126 0.36217 0.6122 0.0
H726 H 0.97256 0.31919 0.62412 0.0
H727 H 0.96281 0.29108 0.6507 0.0
H728 H 0.97422 0.28117 0.61329 0.0
H729 H 0.01677 0.24715 0.63543 0.0
H730 H 1.00609 0.25761 0.67288 0.0
H731 H 0.04501 0.2622 0.66035 0.0
H732 H 0.0705 0.37287 0.66619 0.0
H733 H 0.04824 0.37974 0.71638 0.0
H734 H 0.98708 0.30732 0.70104 0.0
C735 C 0.03905 0.29052 0.58969 0.0
C736 C 0.06032 0.30318 0.5698 0.0
C737 C 0.07435 0.32988 0.57764 0.0
C738 C 0.06935 0.34252 0.60579 0.0
C739 C 0.04939 0.32876 0.62543 0.0
C740 C 0.03345 0.30407 0.61733 0.0
C741 C 0.01212 0.29457 0.64222 0.0
C742 C 0.97843 0.29664 0.63197 0.0
C743 C 0.02051 0.26354 0.65337 0.0
C744 C 0.01912 0.31739 0.66578 0.0
C745 C 0.04126 0.33643 0.65582 0.0
C746 C 0.05275 0.35843 0.67403 0.0
C747 C 0.04027 0.36192 0.70269 0.0
C748 C 0.01607 0.34403 0.7126 0.0
C749 C 1.00567 0.32122 0.69402 0.0
H750 H 0.9324 0.83641 0.81043 0.0
H751 H 0.0291 0.81685 0.82546 0.0
H752 H 0.01728 0.79758 0.87548 0.0
H753 H 0.9155 0.86005 0.88418 0.0
H754 H 0.8782 0.84366 0.88585 0.0
H755 H 0.89369 0.85477 0.85034 0.0
H756 H 0.88698 0.80219 0.82972 0.0
H757 H 0.87102 0.79114 0.86507 0.0
H758 H 0.90362 0.77151 0.84984 0.0
H759 H 0.99582 0.78406 0.92576 0.0
H760 H 0.96465 0.77076 0.97002 0.0
H761 H 0.88201 0.7971 0.92201 0.0
C762 C 0.95096 0.8274 0.82395 0.0
C763 C 0.98168 0.82816 0.81388 0.0
C764 C 1.00536 0.81659 0.83257 0.0
C765 C 0.99893 0.80567 0.86116 0.0
C766 C 0.96864 0.8062 0.87086 0.0
C767 C 0.94493 0.81625 0.85267 0.0
C768 C 0.91441 0.81444 0.86875 0.0
C769 C 0.8996 0.84505 0.87249 0.0
C770 C 0.89273 0.79357 0.85237 0.0
C771 C 0.92477 0.80185 0.89867 0.0
C772 C 0.95619 0.79762 0.8996 0.0
C773 C 0.97113 0.78699 0.92523 0.0
C774 C 0.95335 0.77972 0.95032 0.0
C775 C 0.92103 0.78273 0.94933 0.0
C776 C 0.90672 0.7943 0.92327 0.0
H777 H 0.43657 0.67895 0.20922 0.0
H778 H 0.53255 0.69875 0.19479 0.0
H779 H 0.52057 0.71453 0.14323 0.0
H780 H 0.42251 0.65007 0.13672 0.0
H781 H 0.38429 0.66541 0.13332 0.0
H782 H 0.39981 0.65675 0.16974 0.0
H783 H 0.38984 0.71016 0.1872 0.0
H784 H 0.37363 0.71881 0.15107 0.0
H785 H 0.40484 0.74005 0.16553 0.0
H786 H 0.49866 0.72582 0.09195 0.0
H787 H 0.46704 0.73756 0.04716 0.0
H788 H 0.38554 0.71118 0.09518 0.0
C789 C 0.45495 0.68724 0.19547 0.0
C790 C 0.48549 0.68776 0.20624 0.0
C791 C 0.50894 0.69822 0.18719 0.0
C792 C 0.50242 0.70709 0.15774 0.0
C793 C 0.47229 0.70545 0.14751 0.0
C794 C 0.44884 0.69619 0.16592 0.0
C795 C 0.41845 0.69643 0.14933 0.0
C796 C 0.40552 0.66532 0.14715 0.0
C797 C 0.39533 0.71763 0.16416 0.0
C798 C 0.42845 0.70758 0.1189 0.0
C799 C 0.45966 0.71226 0.11814 0.0
C800 C 0.47415 0.72236 0.09232 0.0
C801 C 0.4561 0.72874 0.06689 0.0
C802 C 0.4239 0.72534 0.06768 0.0
C803 C 0.41013 0.7141 0.09391 0.0
H804 H 0.1613 0.35454 0.31032 0.0
H805 H 0.18385 0.4189 0.37792 0.0
H806 H 0.2061 0.45045 0.33909 0.0
H807 H 0.23081 0.36644 0.26299 0.0
H808 H 0.20975 0.3616 0.22864 0.0
H809 H 0.19837 0.34243 0.26206 0.0
H810 H 0.1435 0.36459 0.2569 0.0
H811 H 0.15472 0.38396 0.22365 0.0
H812 H 0.13838 0.40382 0.25473 0.0
H813 H 0.22008 0.47741 0.2934 0.0
H814 H 0.22801 0.49761 0.24293 0.0
H815 H 0.19908 0.41561 0.20375 0.0
C816 C 0.17165 0.37492 0.317 0.0
C817 C 0.17068 0.38435 0.34716 0.0
C818 C 0.18396 0.41142 0.35494 0.0
C819 C 0.19684 0.4294 0.33307 0.0
C820 C 0.19665 0.41991 0.30349 0.0
C821 C 0.18479 0.39319 0.29536 0.0
C822 C 0.18607 0.38914 0.26162 0.0
C823 C 0.20754 0.36337 0.25334 0.0
C824 C 0.15374 0.38515 0.24846 0.0
C825 C 0.19953 0.41819 0.25211 0.0
C826 C 0.20556 0.43544 0.27675 0.0
C827 C 0.21596 0.46397 0.27393 0.0
C828 C 0.22018 0.4753 0.24516 0.0
C829 C 0.21423 0.45813 0.2195 0.0
C830 C 0.20422 0.42902 0.22303 0.0
H831 H 0.89677 0.944 0.57196 0.0
H832 H 0.88134 0.85215 0.55259 0.0
H833 H 0.85717 0.86594 0.50477 0.0
H834 H 0.82494 0.97037 0.54279 0.0
H835 H 0.8401 1.00365 0.52732 0.0
H836 H 0.85834 0.9867 0.55931 0.0
H837 H 0.90996 0.98486 0.53071 0.0
H838 H 0.89177 1.00158 0.4985 0.0
H839 H 0.91197 0.96701 0.49481 0.0
H840 H 0.83231 0.8888 0.46061 0.0
H841 H 0.80559 0.92007 0.42335 0.0
H842 H 0.83567 0.99776 0.46983 0.0
C843 C 0.88835 0.92678 0.55765 0.0
C844 C 0.89155 0.89685 0.56604 0.0
C845 C 0.88006 0.87513 0.54653 0.0
C846 C 0.86611 0.88274 0.51927 0.0
C847 C 0.86362 0.91226 0.51159 0.0
C848 C 0.87422 0.93403 0.53017 0.0
C849 C 0.86722 0.96416 0.51688 0.0
C850 C 0.84641 0.98228 0.53782 0.0
C851 C 0.89701 0.98036 0.50981 0.0
C852 C 0.85045 0.95584 0.4883 0.0
C853 C 0.84903 0.92569 0.4857 0.0
C854 C 0.8336 0.9124 0.46217 0.0
C855 C 0.81861 0.93031 0.44107 0.0
C856 C 0.81921 0.96117 0.44342 0.0
C857 C 0.83568 0.97419 0.46711 0.0
H858 H 0.30854 0.55086 0.73303 0.0
H859 H 0.26745 0.62256 0.68197 0.0
H860 H 0.2839 0.6574 0.72064 0.0
H861 H 0.28892 0.57815 0.80612 0.0
H862 H 0.32448 0.56628 0.82332 0.0
H863 H 0.30954 0.54672 0.79164 0.0
H864 H 0.36061 0.55418 0.76328 0.0
H865 H 0.37572 0.57373 0.79489 0.0
H866 H 0.37496 0.59071 0.75841 0.0
H867 H 0.30364 0.68455 0.76527 0.0
H868 H 0.32723 0.70245 0.81186 0.0
H869 H 0.35688 0.61377 0.83406 0.0
C870 C 0.30302 0.57389 0.72994 0.0
C871 C 0.2866 0.58387 0.70434 0.0
C872 C 0.28002 0.61426 0.70123 0.0
C873 C 0.28923 0.63428 0.72315 0.0
C874 C 0.30526 0.62373 0.74808 0.0
C875 C 0.31231 0.59429 0.75154 0.0
C876 C 0.33008 0.58884 0.7804 0.0
C877 C 0.31218 0.56881 0.80162 0.0
C878 C 0.36225 0.57611 0.77384 0.0
C879 C 0.33181 0.6198 0.79264 0.0
C880 C 0.31718 0.63952 0.77366 0.0
C881 C 0.31519 0.66931 0.78027 0.0
C882 C 0.32852 0.67925 0.80692 0.0
C883 C 0.34385 0.65957 0.82675 0.0
C884 C 0.34555 0.62942 0.8193 0.0
H885 H 0.57286 0.11673 0.05116 0.0
H886 H 0.62519 0.07439 0.12239 0.0
H887 H 0.65939 0.05155 0.085 0.0
H888 H 0.5795 0.05573 0.99752 0.0
H889 H 0.58305 0.07969 0.96562 0.0
H890 H 0.56127 0.09147 0.99779 0.0
H891 H 0.59474 0.1377 1.00201 0.0
H892 H 0.6166 0.12606 0.96992 0.0
H893 H 0.63587 0.13354 1.00475 0.0
H894 H 0.6902 0.03685 0.04137 0.0
H895 H 0.71549 0.02907 0.9928 0.0
H896 H 0.64291 0.07894 0.94836 0.0
C897 C 0.59143 0.10249 0.05878 0.0
C898 C 0.59633 0.09716 0.08965 0.0
C899 C 0.62078 0.07839 0.09885 0.0
C900 C 0.64036 0.0654 0.0778 0.0
C901 C 0.63503 0.07118 0.04762 0.0
C902 C 0.61108 0.08904 0.03798 0.0
C903 C 0.61112 0.09207 1.00412 0.0
C904 C 0.582 0.07896 0.99046 0.0
C905 C 0.61481 0.12426 0.99466 0.0
C906 C 0.63937 0.0738 0.9964 0.0
C907 C 0.65265 0.06196 0.02196 0.0
C908 C 0.67987 0.04568 0.02115 0.0
C909 C 0.69413 0.04155 0.9935 0.0
C910 C 0.68107 0.05343 0.96699 0.0
C911 C 0.65307 0.06937 0.96833 0.0
H912 H 0.66026 0.17503 0.72253 0.0
H913 H 0.69751 0.11696 0.65448 0.0
H914 H 0.72219 0.08663 0.69374 0.0
H915 H 0.72702 0.16814 0.77566 0.0
H916 H 0.70223 0.16903 0.8079 0.0
H917 H 0.69136 0.18871 0.77436 0.0
H918 H 0.63986 0.16113 0.77303 0.0
H919 H 0.65062 0.14124 0.80634 0.0
H920 H 0.64034 0.12162 0.77292 0.0
H921 H 0.73512 0.05847 0.73949 0.0
H922 H 0.73926 0.03586 0.78958 0.0
H923 H 0.69594 0.11275 0.82891 0.0
C924 C 0.67417 0.15627 0.71593 0.0
C925 C 0.67713 0.14838 0.68548 0.0
C926 C 0.69538 0.12365 0.67763 0.0
C927 C 0.70939 0.10625 0.69978 0.0
C928 C 0.70531 0.11414 0.72961 0.0
C929 C 0.68858 0.13881 0.73777 0.0
C930 C 0.686 0.14119 0.77153 0.0
C931 C 0.70265 0.16839 0.78304 0.0
C932 C 0.6522 0.14129 0.78152 0.0
C933 C 0.70263 0.11326 0.78099 0.0
C934 C 0.71374 0.09813 0.75639 0.0
C935 C 0.72723 0.07039 0.75898 0.0
C936 C 0.72927 0.05767 0.78743 0.0
C937 C 0.71815 0.07278 0.8129 0.0
C938 C 0.70518 0.10113 0.80976 0.0
H939 H 0.14115 0.4899 0.06779 0.0
H940 H 0.2073 0.41834 0.07677 0.0
H941 H 0.18129 0.39151 0.03655 0.0
H942 H 0.07371 0.4444 0.04765 0.0
H943 H 0.05949 0.47069 0.02059 0.0
H944 H 0.08061 0.4829 0.05286 0.0
H945 H 0.11881 0.50925 0.01813 0.0
H946 H 0.09804 0.49698 0.98575 0.0
H947 H 0.13847 0.4887 0.98936 0.0
H948 H 0.15195 0.37421 0.99334 0.0
H949 H 0.12002 0.36683 0.94861 0.0
H950 H 0.07292 0.44982 0.96496 0.0
C951 C 0.14949 0.46824 0.06174 0.0
C952 C 0.17599 0.45595 0.07549 0.0
C953 C 0.18695 0.42799 0.06652 0.0
C954 C 0.1723 0.41256 0.04377 0.0
C955 C 0.14678 0.42547 0.03003 0.0
C956 C 0.1353 0.4526 0.03858 0.0
C957 C 0.10902 0.46228 0.01821 0.0
C958 C 0.07892 0.46523 0.03589 0.0
C959 C 0.11656 0.491 1.00189 0.0
C960 C 0.10811 0.43662 0.99662 0.0
C961 C 0.12995 0.41559 1.00419 0.0
C962 C 0.13461 0.39041 0.98722 0.0
C963 C 0.11655 0.38655 0.96168 0.0
C964 C 0.09416 0.40784 0.95311 0.0
C965 C 0.08969 0.43307 0.97108 0.0
H966 H 0.78367 0.91268 0.30951 0.0
H967 H 0.81772 0.9995 0.28912 0.0
H968 H 0.84167 0.98066 0.24344 0.0
H969 H 0.85063 0.87234 0.28223 0.0
H970 H 0.82891 0.84295 0.26622 0.0
H971 H 0.81405 0.86281 0.29798 0.0
H972 H 0.76423 0.87495 0.26849 0.0
H973 H 0.77898 0.85521 0.23659 0.0
H974 H 0.76668 0.89292 0.2326 0.0
H975 H 0.86205 0.95379 0.20006 0.0
H976 H 0.87852 0.91934 0.16082 0.0
H977 H 0.83247 0.84878 0.2071 0.0
C978 C 0.79626 0.92764 0.29546 0.0
C979 C 0.79859 0.9577 0.30312 0.0
C980 C 0.81525 0.97649 0.28394 0.0
C981 C 0.82908 0.966 0.2578 0.0
C982 C 0.82619 0.93655 0.25076 0.0
C983 C 0.81028 0.9175 0.26888 0.0
C984 C 0.81088 0.88681 0.25553 0.0
C985 C 0.82709 0.86494 0.27676 0.0
C986 C 0.77825 0.87689 0.24785 0.0
C987 C 0.82969 0.89178 0.22729 0.0
C988 C 0.83818 0.92073 0.22519 0.0
C989 C 0.85569 0.931 0.20148 0.0
C990 C 0.86511 0.91118 0.17934 0.0
C991 C 0.85713 0.88123 0.18088 0.0
C992 C 0.83886 0.87153 0.20516 0.0
H993 H 0.28077 0.57244 0.54314 0.0
H994 H 0.35255 0.52018 0.58604 0.0
H995 H 0.38853 0.53382 0.54579 0.0
H996 H 0.30159 0.55649 0.46655 0.0
H997 H 0.29293 0.59308 0.45341 0.0
H998 H 0.27261 0.57847 0.48503 0.0
H999 H 0.28892 0.62282 0.51709 0.0
H1000 H 0.30923 0.6376 0.48556 0.0
H1001 H 0.32906 0.63122 0.52049 0.0
H1002 H 0.41673 0.55329 0.50063 0.0
H1003 H 0.4355 0.57821 0.45537 0.0
H1004 H 0.34585 0.61955 0.44306 0.0
C1005 C 0.30399 0.56365 0.54401 0.0
C1006 C 0.31375 0.54507 0.56776 0.0
C1007 C 0.34449 0.53442 0.56815 0.0
C1008 C 0.36508 0.54201 0.54532 0.0
C1009 C 0.35471 0.56043 0.52232 0.0
C1010 C 0.32491 0.57121 0.52158 0.0
C1011 C 0.31978 0.59137 0.49489 0.0
C1012 C 0.29527 0.57911 0.47372 0.0
C1013 C 0.31125 0.6226 0.50513 0.0
C1014 C 0.35134 0.59023 0.48065 0.0
C1015 C 0.37111 0.57215 0.49675 0.0
C1016 C 0.40148 0.56764 0.48799 0.0
C1017 C 0.412 0.58211 0.46229 0.0
C1018 C 0.39234 0.60116 0.44557 0.0
C1019 C 0.3615 0.605 0.45499 0.0
H1020 H 0.1779 0.22316 0.42072 0.0
H1021 H 0.21581 0.21835 0.51071 0.0
H1022 H 0.26318 0.19613 0.49101 0.0
H1023 H 0.20824 0.15443 0.39619 0.0
H1024 H 0.21692 0.16637 0.35871 0.0
H1025 H 0.18623 0.1839 0.37923 0.0
H1026 H 0.21144 0.23434 0.37135 0.0
H1027 H 0.2422 0.21695 0.35074 0.0
H1028 H 0.25072 0.23934 0.38278 0.0
H1029 H 0.30525 0.17232 0.46307 0.0
H1030 H 0.34044 0.14804 0.42755 0.0
H1031 H 0.27682 0.16723 0.3549 0.0
C1032 C 0.19633 0.21773 0.43617 0.0
C1033 C 0.19298 0.22252 0.46731 0.0
C1034 C 0.21759 0.21484 0.48681 0.0
C1035 C 0.24474 0.20226 0.47585 0.0
C1036 C 0.24719 0.19744 0.44525 0.0
C1037 C 0.22381 0.20494 0.42557 0.0
C1038 C 0.23232 0.1962 0.3938 0.0
C1039 C 0.20957 0.1739 0.38126 0.0
C1040 C 0.23429 0.22333 0.37347 0.0
C1041 C 0.26382 0.18226 0.39897 0.0
C1042 C 0.27188 0.18344 0.42885 0.0
C1043 C 0.29931 0.17133 0.43957 0.0
C1044 C 0.31905 0.15741 0.41925 0.0
C1045 C 0.31133 0.15558 0.38851 0.0
C1046 C 0.28345 0.16851 0.37823 0.0
H1047 H 0.07453 0.09048 0.66167 0.0
H1048 H 0.05937 0.06667 0.56886 0.0
H1049 H 0.04139 0.01808 0.58508 0.0
H1050 H 0.10437 0.02125 0.68523 0.0
H1051 H 0.08655 0.02262 0.72158 0.0
H1052 H 0.09639 0.05609 0.70274 0.0
H1053 H 0.04006 0.0747 0.70708 0.0
H1054 H 0.03006 0.04134 0.72607 0.0
H1055 H 0.00952 0.05249 0.69277 0.0
H1056 H 0.02728 0.9711 0.61157 0.0
H1057 H 0.01668 0.93021 0.64621 0.0
H1058 H 0.04225 0.9849 0.72139 0.0
C1059 C 0.06744 0.07509 0.6447 0.0
C1060 C 0.06835 0.08246 0.61396 0.0
C1061 C 0.05847 0.06174 0.59256 0.0
C1062 C 0.04842 0.03399 0.60154 0.0
C1063 C 0.04832 0.02732 0.63201 0.0
C1064 C 0.05743 0.04736 0.65325 0.0
C1065 C 0.05577 0.03464 0.68452 0.0
C1066 C 0.08767 0.03359 0.69938 0.0
C1067 C 0.03246 0.05182 0.70373 0.0
C1068 C 0.04459 1.00419 0.67756 0.0
C1069 C 0.04034 1.00037 0.64717 0.0
C1070 C 0.03042 0.97388 0.63542 0.0
C1071 C 0.02454 0.95076 0.65529 0.0
C1072 C 0.02864 0.95427 0.68656 0.0
C1073 C 0.03885 0.98141 0.69765 0.0
H1074 H 0.18778 0.88769 0.89655 0.0
H1075 H 0.1636 0.8138 0.84058 0.0
H1076 H 0.20593 0.78473 0.86271 0.0
H1077 H 0.2696 0.87646 0.89434 0.0
H1078 H 0.27572 0.88626 0.93292 0.0
H1079 H 0.24364 0.90185 0.91254 0.0
H1080 H 0.20635 0.88278 0.95295 0.0
H1081 H 0.23833 0.86722 0.97351 0.0
H1082 H 0.20691 0.84437 0.9625 0.0
H1083 H 0.25081 0.76358 0.88997 0.0
H1084 H 0.29467 0.75074 0.92231 0.0
H1085 H 0.28971 0.83721 0.96271 0.0
C1086 C 0.19121 0.86533 0.8891 0.0
C1087 C 0.17243 0.85327 0.86641 0.0
C1088 C 0.17798 0.82392 0.85729 0.0
C1089 C 0.20188 0.80708 0.86991 0.0
C1090 C 0.22005 0.81969 0.89189 0.0
C1091 C 0.21497 0.84805 0.90162 0.0
C1092 C 0.23787 0.85604 0.92588 0.0
C1093 C 0.25789 0.88167 0.91581 0.0
C1094 C 0.22137 0.86301 0.95546 0.0
C1095 C 0.25656 0.82772 0.92817 0.0
C1096 C 0.24586 0.80717 0.90821 0.0
C1097 C 0.25937 0.77946 0.90574 0.0
C1098 C 0.28443 0.77243 0.92423 0.0
C1099 C 0.29584 0.79293 0.94514 0.0
C1100 C 0.28159 0.821 0.94705 0.0
H1101 H 0.41568 0.02956 0.22319 0.0
H1102 H 0.45944 0.07615 0.15041 0.0
H1103 H 0.44434 0.03709 0.11541 0.0
H1104 H 0.43678 0.95682 0.19941 0.0
H1105 H 0.40093 0.94097 0.21054 0.0
H1106 H 0.41511 0.97261 0.22986 0.0
H1107 H 0.36423 1.0007 0.21857 0.0
H1108 H 0.34987 0.96913 0.19926 0.0
H1109 H 0.35106 1.00407 0.18041 0.0
H1110 H 0.42518 0.99216 0.08834 0.0
H1111 H 0.40306 0.94569 0.07133 0.0
H1112 H 0.36995 0.92926 0.16137 0.0
C1113 C 0.42214 0.03161 0.1999 0.0
C1114 C 0.43882 0.05607 0.18965 0.0
C1115 C 0.44663 0.05778 0.1589 0.0
C1116 C 0.43817 0.03563 0.13881 0.0
C1117 C 0.42176 0.01188 0.14967 0.0
C1118 C 0.41374 1.00978 0.17949 0.0
C1119 C 0.39591 0.98206 0.18542 0.0
C1120 C 0.41322 0.96193 0.20762 0.0
C1121 C 0.36334 0.98944 0.19657 0.0
C1122 C 0.39525 0.9688 0.15431 0.0
C1123 C 0.41033 0.98632 0.13403 0.0
C1124 C 0.4131 0.97842 0.10402 0.0
C1125 C 0.40018 0.95199 0.09451 0.0
C1126 C 0.38441 0.9336 0.11482 0.0
C1127 C 0.38201 0.94243 0.14516 0.0
H1128 H 0.78382 0.34225 0.66156 0.0
H1129 H 0.84706 0.34844 0.58692 0.0
H1130 H 0.80868 0.3264 0.55373 0.0
H1131 H 0.7504 0.2717 0.63901 0.0
H1132 H 0.7123 0.2821 0.65101 0.0
H1133 H 0.74531 0.29693 0.66965 0.0
H1134 H 0.72483 0.34953 0.65903 0.0
H1135 H 0.69186 0.33489 0.64024 0.0
H1136 H 0.71618 0.36038 0.62106 0.0
H1137 H 0.76319 0.307 0.52784 0.0
H1138 H 0.71323 0.28944 0.51056 0.0
H1139 H 0.67843 0.29388 0.60151 0.0
C1140 C 0.78974 0.33849 0.63835 0.0
C1141 C 0.81844 0.34733 0.62681 0.0
C1142 C 0.82512 0.34234 0.5962 0.0
C1143 C 0.80353 0.32964 0.57718 0.0
C1144 C 0.77532 0.32177 0.58905 0.0
C1145 C 0.76835 0.32573 0.61893 0.0
C1146 C 0.73581 0.31602 0.6255 0.0
C1147 C 0.73597 0.29015 0.64761 0.0
C1148 C 0.71601 0.34174 0.63714 0.0
C1149 C 0.72551 0.30653 0.59453 0.0
C1150 C 0.74883 0.31001 0.57397 0.0
C1151 C 0.74482 0.30392 0.54375 0.0
C1152 C 0.71622 0.29406 0.53414 0.0
C1153 C 0.6918 0.29022 0.55463 0.0
C1154 C 0.69668 0.29635 0.58533 0.0
H1155 H 0.93563 0.46187 0.8572 0.0
H1156 H 0.93713 0.49493 0.76589 0.0
H1157 H 0.91805 0.54271 0.78318 0.0
H1158 H 0.86615 0.49902 0.87869 0.0
H1159 H 0.87861 0.50749 0.91614 0.0
H1160 H 0.89408 0.47571 0.89729 0.0
H1161 H 0.94919 0.49447 0.90567 0.0
H1162 H 0.93388 0.52631 0.9246 0.0
H1163 H 0.95895 0.53065 0.89292 0.0
H1164 H 0.89689 0.58623 0.80884 0.0
H1165 H 0.87507 0.62387 0.84232 0.0
H1166 H 0.88633 0.56458 0.91787 0.0
C1167 C 0.93222 0.47927 0.84095 0.0
C1168 C 0.93784 0.47438 0.81009 0.0
C1169 C 0.93285 0.49779 0.78958 0.0
C1170 C 0.92207 0.5252 0.79917 0.0
C1171 C 0.91633 0.52921 0.82947 0.0
C1172 C 0.92126 0.50706 0.85019 0.0
C1173 C 0.91225 0.51743 0.88136 0.0
C1174 C 0.88622 0.4988 0.89411 0.0
C1175 C 0.94024 0.5172 0.90238 0.0
C1176 C 0.90121 0.5486 0.87467 0.0
C1177 C 0.90394 0.5548 0.84455 0.0
C1178 C 0.89467 0.58171 0.83251 0.0
C1179 C 0.88209 0.6029 0.85171 0.0
C1180 C 0.87877 0.59722 0.88271 0.0
C1181 C 0.88878 0.5697 0.89433 0.0
H1182 H 0.78331 0.68921 0.05924 0.0
H1183 H 0.80028 0.77006 0.10712 0.0
H1184 H 0.76049 0.7572 0.14392 0.0
H1185 H 0.7015 0.69005 0.0692 0.0
H1186 H 0.69926 0.65087 0.07359 0.0
H1187 H 0.72935 0.66635 0.05129 0.0
H1188 H 0.77014 0.63892 0.08364 0.0
H1189 H 0.74018 0.62343 0.1061 0.0
H1190 H 0.77024 0.64397 0.12365 0.0
H1191 H 0.71914 0.73513 0.17586 0.0
H1192 H 0.67856 0.70623 0.19979 0.0
H1193 H 0.68754 0.64069 0.12992 0.0
C1194 C 0.77876 0.70423 0.07748 0.0
C1195 C 0.79505 0.73062 0.08033 0.0
C1196 C 0.78817 0.74971 0.10445 0.0
C1197 C 0.76561 0.74258 0.12551 0.0
C1198 C 0.75005 0.71636 0.12205 0.0
C1199 C 0.75624 0.69754 0.09857 0.0
C1200 C 0.73597 0.67092 0.09969 0.0
C1201 C 0.7153 0.66948 0.07179 0.0
C1202 C 0.75529 0.64264 0.1035 0.0
C1203 C 0.71746 0.67763 0.12754 0.0
C1204 C 0.72597 0.70389 0.14014 0.0
C1205 C 0.71217 0.71461 0.16608 0.0
C1206 C 0.68899 0.6981 0.17941 0.0
C1207 C 0.67967 0.67119 0.16673 0.0
C1208 C 0.69429 0.66094 0.14044 0.0
H1209 H 0.57039 0.42514 0.36242 0.0
H1210 H 0.54741 0.44744 0.45415 0.0
H1211 H 0.52921 0.49638 0.43735 0.0
H1212 H 0.60048 0.49398 0.34298 0.0
H1213 H 0.58591 0.49367 0.30519 0.0
H1214 H 0.59462 0.45966 0.3241 0.0
H1215 H 0.53915 0.44215 0.31449 0.0
H1216 H 0.53031 0.47608 0.2954 0.0
H1217 H 0.50712 0.46463 0.32654 0.0
H1218 H 0.51641 0.54405 0.41066 0.0
H1219 H 0.50896 0.58601 0.37619 0.0
H1220 H 0.54181 0.53232 0.30243 0.0
C1221 C 0.56148 0.44025 0.37903 0.0
C1222 C 0.56034 0.43241 0.40962 0.0
C1223 C 0.54812 0.45276 0.43053 0.0
C1224 C 0.53791 0.48068 0.42123 0.0
C1225 C 0.53999 0.48785 0.39096 0.0
C1226 C 0.55134 0.46814 0.37018 0.0
C1227 C 0.55221 0.48147 0.33916 0.0
C1228 C 0.58527 0.48224 0.32717 0.0
C1229 C 0.53092 0.46511 0.31763 0.0
C1230 C 0.53997 0.51195 0.34577 0.0
C1231 C 0.5329 0.51521 0.37572 0.0
C1232 C 0.52175 0.54169 0.38714 0.0
C1233 C 0.51769 0.56543 0.36739 0.0
C1234 C 0.52487 0.56251 0.33659 0.0
C1235 C 0.53608 0.53532 0.3258 0.0
H1236 H 0.3881 0.32993 0.17205 0.0
H1237 H 0.29237 0.31404 0.19211 0.0
H1238 H 0.30671 0.26559 0.21315 0.0
H1239 H 0.40702 0.25727 0.14868 0.0
H1240 H 0.44497 0.25727 0.16485 0.0
H1241 H 0.42725 0.29119 0.15268 0.0
H1242 H 0.43494 0.31311 0.20558 0.0
H1243 H 0.45275 0.27926 0.21789 0.0
H1244 H 0.42009 0.29411 0.23774 0.0
H1245 H 0.33161 0.21758 0.23021 0.0
H1246 H 0.36513 0.17501 0.24294 0.0
H1247 H 0.44418 0.22267 0.2112 0.0
C1248 C 0.3701 0.31628 0.18082 0.0
C1249 C 0.33908 0.32591 0.18043 0.0
C1250 C 0.31635 0.30741 0.19251 0.0
C1251 C 0.32424 0.27974 0.20435 0.0
C1252 C 0.355 0.27084 0.20408 0.0
C1253 C 0.37757 0.28866 0.19274 0.0
C1254 C 0.40888 0.27387 0.19468 0.0
C1255 C 0.42284 0.26965 0.16336 0.0
C1256 C 0.43043 0.29112 0.2152 0.0
C1257 C 0.40039 0.24483 0.20861 0.0
C1258 C 0.36923 0.24345 0.21391 0.0
C1259 C 0.35607 0.21849 0.22624 0.0
C1260 C 0.37528 0.19439 0.23334 0.0
C1261 C 0.40732 0.19542 0.22811 0.0
C1262 C 0.41984 0.2211 0.21562 0.0
H1263 H 0.94171 0.30387 0.82962 0.0
H1264 H 0.86938 0.34154 0.7739 0.0
H1265 H 0.83601 0.30005 0.78676 0.0
H1266 H 0.92853 0.22867 0.81175 0.0
H1267 H 0.93639 0.21541 0.84907 0.0
H1268 H 0.95447 0.24816 0.83575 0.0
H1269 H 0.93283 0.2771 0.88103 0.0
H1270 H 0.91483 0.2444 0.89459 0.0
H1271 H 0.89212 0.27718 0.88817 0.0
H1272 H 0.81102 0.25333 0.80466 0.0
H1273 H 0.79558 0.2067 0.82765 0.0
H1274 H 0.88354 0.20049 0.87341 0.0
C1275 C 0.91882 0.3035 0.82014 0.0
C1276 C 0.90823 0.32609 0.80068 0.0
C1277 C 0.87805 0.32466 0.78892 0.0
C1278 C 0.85893 0.30109 0.79604 0.0
C1279 C 0.87019 0.27914 0.81511 0.0
C1280 C 0.89938 0.28026 0.82717 0.0
C1281 C 0.90589 0.25401 0.84728 0.0
C1282 C 0.93292 0.23547 0.83523 0.0
C1283 C 0.91176 0.26376 0.87969 0.0
C1284 C 0.87588 0.23782 0.84458 0.0
C1285 C 0.85563 0.25262 0.82584 0.0
C1286 C 0.82661 0.24174 0.8196 0.0
C1287 C 0.81797 0.21523 0.833 0.0
C1288 C 0.83812 0.19975 0.85271 0.0
C1289 C 0.86755 0.21139 0.85833 0.0
H1290 H 0.0381 0.63365 0.12648 0.0
H1291 H 0.06839 0.58824 0.04625 0.0
H1292 H 0.02431 0.60958 0.01844 0.0
H1293 H 0.95639 0.62796 0.11394 0.0
H1294 H 0.9481 0.66415 0.12817 0.0
H1295 H 0.98077 0.6436 0.14216 0.0
H1296 H 0.01646 0.68637 0.12799 0.0
H1297 H 0.98391 0.70705 0.11404 0.0
H1298 H 0.0164 0.69998 0.09007 0.0
H1299 H 0.97791 0.63778 0.9989 0.0
H1300 H 0.93394 0.67136 0.98906 0.0
H1301 H 0.93576 0.6992 0.08193 0.0
C1302 C 0.03561 0.62821 0.10303 0.0
C1303 C 0.05674 0.6092 0.0886 0.0
C1304 C 0.05227 0.60238 0.05796 0.0
C1305 C 0.02738 0.6145 0.04193 0.0
C1306 C 0.00719 0.63338 0.05684 0.0
C1307 C 0.0111 0.64021 0.08671 0.0
C1308 C 0.98702 0.66201 0.09729 0.0
C1309 C 0.96688 0.64862 0.12184 0.0
C1310 C 1.00184 0.69054 0.10796 0.0
C1311 C 0.96913 0.6667 0.0686 0.0
C1312 C 0.9809 0.64984 0.04556 0.0
C1313 C 0.96843 0.651 0.01681 0.0
C1314 C 0.94346 0.67013 0.01145 0.0
C1315 C 0.93142 0.68795 0.0347 0.0
C1316 C 0.94436 0.68589 0.06365 0.0
H1317 H 0.60387 0.8317 0.35407 0.0
H1318 H 0.69699 0.80161 0.33585 0.0
H1319 H 0.67716 0.75423 0.31848 0.0
H1320 H 0.57657 0.76407 0.38259 0.0
H1321 H 0.53896 0.76783 0.36598 0.0
H1322 H 0.5602 0.79999 0.37564 0.0
H1323 H 0.5553 0.81893 0.32107 0.0
H1324 H 0.53385 0.78692 0.31129 0.0
H1325 H 0.56799 0.79584 0.2907 0.0
H1326 H 0.64771 0.70955 0.30543 0.0
H1327 H 0.61032 0.67106 0.29491 0.0
H1328 H 0.53602 0.72994 0.32169 0.0
C1329 C 0.62008 0.81516 0.34637 0.0
C1330 C 0.65199 0.82037 0.34625 0.0
C1331 C 0.67244 0.79826 0.33574 0.0
C1332 C 0.66142 0.77122 0.32603 0.0
C1333 C 0.6299 0.76667 0.32686 0.0
C1334 C 0.60947 0.78806 0.33652 0.0
C1335 C 0.57672 0.77743 0.33539 0.0
C1336 C 0.56227 0.77732 0.36677 0.0
C1337 C 0.55733 0.79587 0.31329 0.0
C1338 C 0.58197 0.74657 0.32391 0.0
C1339 C 0.61282 0.74085 0.31917 0.0
C1340 C 0.62347 0.71378 0.30895 0.0
C1341 C 0.602 0.69201 0.30317 0.0
C1342 C 0.57018 0.69741 0.30755 0.0
C1343 C 0.56015 0.7251 0.31814 0.0
H1344 H 0.53397 0.3453 0.53592 0.0
H1345 H 0.53108 0.26764 0.59229 0.0
H1346 H 0.48794 0.28897 0.62024 0.0
H1347 H 0.51349 0.39814 0.59493 0.0
H1348 H 0.48966 0.4206 0.57074 0.0
H1349 H 0.5217 0.40019 0.55545 0.0
H1350 H 0.48537 0.37537 0.51766 0.0
H1351 H 0.45321 0.39562 0.53286 0.0
H1352 H 0.45233 0.35619 0.53126 0.0
H1353 H 0.44479 0.31682 0.64156 0.0
H1354 H 0.40283 0.35062 0.65551 0.0
H1355 H 0.43072 0.41095 0.58564 0.0
C1356 C 0.52442 0.33303 0.55436 0.0
C1357 C 0.53598 0.30471 0.5618 0.0
C1358 C 0.5226 0.28922 0.58591 0.0
C1359 C 0.49808 0.30118 0.60209 0.0
C1360 C 0.4869 0.32876 0.59402 0.0
C1361 C 0.49947 0.34465 0.57082 0.0
C1362 C 0.48196 0.37351 0.56655 0.0
C1363 C 0.50296 0.39966 0.57226 0.0
C1364 C 0.46735 0.37526 0.53522 0.0
C1365 C 0.45763 0.37104 0.59081 0.0
C1366 C 0.46118 0.34502 0.60635 0.0
C1367 C 0.44164 0.33727 0.62954 0.0
C1368 C 0.41765 0.35656 0.63712 0.0
C1369 C 0.41308 0.38335 0.6215 0.0
C1370 C 0.43361 0.39072 0.59812 0.0
H1371 H 0.10342 0.69553 0.6527 0.0
H1372 H 0.19702 0.71601 0.67729 0.0
H1373 H 0.17873 0.76236 0.7003 0.0
H1374 H 0.07936 0.76867 0.63335 0.0
H1375 H 0.0413 0.76457 0.64834 0.0
H1376 H 0.06198 0.73309 0.63418 0.0
H1377 H 0.0551 0.70653 0.68506 0.0
H1378 H 0.03439 0.73793 0.69936 0.0
H1379 H 0.06776 0.72398 0.71897 0.0
H1380 H 0.14957 0.80724 0.72009 0.0
H1381 H 0.11212 0.84561 0.73579 0.0
H1382 H 0.03835 0.79475 0.69765 0.0
C1383 C 0.12014 0.70986 0.66269 0.0
C1384 C 0.15166 0.70221 0.6631 0.0
C1385 C 0.17271 0.72133 0.67693 0.0
C1386 C 0.16256 0.74776 0.68992 0.0
C1387 C 0.13129 0.75467 0.68898 0.0
C1388 C 0.11042 0.73617 0.67579 0.0
C1389 C 0.07805 0.74836 0.67789 0.0
C1390 C 0.06438 0.75401 0.64658 0.0
C1391 C 0.05763 0.72799 0.69643 0.0
C1392 C 0.0839 0.77672 0.69417 0.0
C1393 C 0.11469 0.7801 0.70042 0.0
C1394 C 0.12538 0.80478 0.71532 0.0
C1395 C 0.10397 0.82648 0.72411 0.0
C1396 C 0.07227 0.82325 0.71801 0.0
C1397 C 0.06236 0.79798 0.70278 0.0
H1398 H 0.44822 0.81174 0.94042 0.0
H1399 H 0.42737 0.85237 0.02593 0.0
H1400 H 0.46747 0.8889 0.01686 0.0
H1401 H 0.52974 0.82043 0.94444 0.0
H1402 H 0.534 0.82792 0.90505 0.0
H1403 H 0.50308 0.80542 0.91788 0.0
H1404 H 0.46375 0.83994 0.89137 0.0
H1405 H 0.49456 0.86256 0.87846 0.0
H1406 H 0.46352 0.87856 0.8998 0.0
H1407 H 0.51033 0.92096 0.99862 0.0
H1408 H 0.55263 0.94584 0.97276 0.0
H1409 H 0.54654 0.88354 0.89978 0.0
C1410 C 0.45192 0.8284 0.95719 0.0
C1411 C 0.43451 0.82912 0.9839 0.0
C1412 C 0.44037 0.85124 1.00532 0.0
C1413 C 0.4631 0.87216 1.00035 0.0
C1414 C 0.47993 0.87071 0.97389 0.0
C1415 C 0.47465 0.84938 0.95267 0.0
C1416 C 0.49634 0.85236 0.92637 0.0
C1417 C 0.51702 0.8249 0.92327 0.0
C1418 C 0.47847 0.85874 0.89728 0.0
C1419 C 0.51464 0.87868 0.9361 0.0
C1420 C 0.50479 0.88897 0.96354 0.0
C1421 C 0.51828 0.91302 0.97715 0.0
C1422 C 0.54248 0.92691 0.96234 0.0
C1423 C 0.55313 0.91672 0.93419 0.0
C1424 C 0.53882 0.89222 0.92104 0.0
H1425 H 0.94276 0.10975 0.42708 0.0
H1426 H 0.87538 0.18085 0.42377 0.0
H1427 H 0.91324 0.21436 0.44509 0.0
H1428 H 0.97936 0.13274 0.49813 0.0
H1429 H 0.01739 0.12227 0.486 0.0
H1430 H 0.98454 0.10294 0.47213 0.0
H1431 H 1.00114 0.11403 0.41771 0.0
H1432 H 0.03392 0.13349 0.43139 0.0
H1433 H 1.00704 0.15147 0.4064 0.0
H1434 H 0.95828 0.24105 0.46284 0.0
H1435 H 0.00825 0.25975 0.47848 0.0
H1436 H 0.04793 0.172 0.47267 0.0
C1437 C 0.93587 0.13224 0.43136 0.0
C1438 C 0.90609 0.14272 0.42345 0.0
C1439 C 0.89812 0.1724 0.42911 0.0
C1440 C 0.91942 0.19159 0.44142 0.0
C1441 C 0.94866 0.18081 0.44829 0.0
C1442 C 0.95697 0.15183 0.44379 0.0
C1443 C 0.99044 0.14646 0.45239 0.0
C1444 C 0.99308 0.12482 0.47873 0.0
C1445 C 0.00924 0.13573 0.42535 0.0
C1446 C 0.99966 0.17711 0.46176 0.0
C1447 C 0.97501 0.19641 0.45923 0.0
C1448 C 0.9777 0.22613 0.46519 0.0
C1449 C 1.00634 0.23656 0.47392 0.0
C1450 C 0.03213 0.2174 0.4768 0.0
C1451 C 0.02861 0.18714 0.47091 0.0
loop_
_geom_bond_atom_site_label_1
_geom_bond_atom_site_label_2
_geom_bond_distance
_geom_bond_site_symmetry_2
_ccdc_geom_bond_type
Eu0 C9 2.828 . S
Eu0 O11 2.392 . S
Eu0 O13 2.418 . S
Eu0 O18 2.373 . S
Eu0 O21 2.488 . S
Eu0 O22 2.471 . S
Eu0 O23 2.349 . S
Eu1 O10 2.373 . S
Eu1 O14 2.488 . S
Eu1 O15 2.471 . S
Eu1 O16 2.349 . S
Eu1 O19 2.392 . S
Eu1 O20 2.418 . S
Eu1 C30 2.828 . S
C2 O20 1.244 . S
C2 O23 1.265 . S
C3 C4 1.379 . S
C3 C7 1.373 . S
C3 C9 1.505 . S
C4 C3 1.379 . S
C4 C6 1.369 . S
C4 H32 0.930 . S
C5 C7 1.383 . S
C5 C8 1.382 . S
C5 H33 0.930 . S
C6 C4 1.369 . S
C6 C8 1.392 . S
C6 H34 0.930 . S
C7 C3 1.373 . S
C7 C5 1.383 . S
C7 H35 0.931 . S
C8 C5 1.382 . S
C8 C6 1.392 . S
C9 Eu0 2.828 . S
C9 C3 1.505 . S
C9 O21 1.249 . S
C9 O22 1.244 . S
O10 Eu1 2.373 . S
O10 C12 1.258 . S
O11 Eu0 2.392 . S
O11 C12 1.242 . S
C12 O10 1.258 . S
C12 O11 1.242 . S
O13 Eu0 2.418 . S
O13 C17 1.244 . S
O14 Eu1 2.488 . S
O14 C30 1.249 . S
O15 Eu1 2.471 . S
O15 C30 1.244 . S
O16 Eu1 2.349 . S
O16 C17 1.265 . S
C17 O13 1.244 . S
C17 O16 1.265 . S
O18 Eu0 2.373 . S
O18 C31 1.258 . S
O19 Eu1 2.392 . S
O19 C31 1.242 . S
O20 Eu1 2.418 . S
O20 C2 1.244 . S
O21 Eu0 2.488 . S
O21 C9 1.249 . S
O22 Eu0 2.471 . S
O22 C9 1.244 . S
O23 Eu0 2.349 . S
O23 C2 1.265 . S
C24 C25 1.379 . S
C24 C28 1.373 . S
C24 C30 1.505 . S
C25 C24 1.379 . S
C25 C27 1.369 . S
C25 H36 0.930 . S
C26 C28 1.383 . S
C26 C29 1.382 . S
C26 H37 0.930 . S
C27 C25 1.369 . S
C27 C29 1.392 . S
C27 H38 0.930 . S
C28 C24 1.373 . S
C28 C26 1.383 . S
C28 H39 0.931 . S
C29 C26 1.382 . S
C29 C27 1.392 . S
C30 Eu1 2.828 . S
C30 O14 1.249 . S
C30 O15 1.244 . S
C30 C24 1.505 . S
C31 O18 1.258 . S
C31 O19 1.242 . S
H32 C4 0.930 . S
H33 C5 0.930 . S
H34 C6 0.930 . S
H35 C7 0.931 . S
H36 C25 0.930 . S
H37 C26 0.930 . S
H38 C27 0.930 . S
H39 C28 0.931 . S
Eu40 C49 2.828 . S
Eu40 O51 2.392 . S
Eu40 O53 2.418 1_655 S
Eu40 O58 2.392 . S
Eu40 O61 2.488 . S
Eu40 O62 2.471 . S
Eu40 O63 2.349 . S
Eu41 O50 2.373 . S
Eu41 O54 2.488 . S
Eu41 O55 2.471 . S
Eu41 O56 2.349 . S
Eu41 O59 2.392 . S
Eu41 O60 2.418 1_455 S
Eu41 C70 2.828 . S
C42 O60 1.244 . S
C42 O63 1.265 . S
C43 C44 1.379 . S
C43 C47 1.373 . S
C43 C49 1.505 . S
C44 C43 1.379 . S
C44 C46 1.369 . S
C44 H72 0.930 . S
C45 C47 1.383 . S
C45 C48 1.382 . S
C45 H73 0.930 . S
C46 C44 1.369 . S
C46 C48 1.392 . S
C46 H74 0.930 . S
C47 C43 1.373 . S
C47 C45 1.383 . S
C47 H75 0.931 . S
C48 C45 1.382 . S
C48 C46 1.392 . S
C49 Eu40 2.828 . S
C49 C43 1.505 . S
C49 O61 1.249 . S
C49 O62 1.244 . S
O50 Eu41 2.373 . S
O50 C52 1.258 1_455 S
O51 Eu40 2.392 . S
O51 C52 1.242 . S
C52 O50 1.258 1_655 S
C52 O51 1.242 . S
O53 Eu40 2.418 1_455 S
O53 C57 1.244 . S
O54 Eu41 2.488 . S
O54 C70 1.249 . S
O55 Eu41 2.471 . S
O55 C70 1.244 . S
O56 Eu41 2.349 . S
O56 C57 1.265 . S
C57 O53 1.244 . S
C57 O56 1.265 . S
O58 Eu40 2.392 . S
O58 C71 1.239 1_655 S
O59 Eu41 2.392 . S
O59 C71 1.242 . S
O60 Eu41 2.418 1_655 S
O60 C42 1.244 . S
O61 Eu40 2.488 . S
O61 C49 1.249 . S
O62 Eu40 2.471 . S
O62 C49 1.244 . S
O63 Eu40 2.349 . S
O63 C42 1.265 . S
C64 C65 1.379 . S
C64 C68 1.373 . S
C64 C70 1.505 . S
C65 C64 1.379 . S
C65 C67 1.369 . S
C65 H76 0.930 . S
C66 C68 1.383 . S
C66 C69 1.382 . S
C66 H77 0.930 . S
C67 C65 1.369 . S
C67 C69 1.392 . S
C67 H78 0.930 . S
C68 C64 1.373 . S
C68 C66 1.383 . S
C68 H79 0.931 . S
C69 C66 1.382 . S
C69 C67 1.392 . S
C70 Eu41 2.828 . S
C70 O54 1.249 . S
C70 O55 1.244 . S
C70 C64 1.505 . S
C71 O58 1.239 1_455 S
C71 O59 1.242 . S
H72 C44 0.930 . S
H73 C45 0.930 . S
H74 C46 0.930 . S
H75 C47 0.931 . S
H76 C65 0.930 . S
H77 C66 0.930 . S
H78 C67 0.930 . S
H79 C68 0.931 . S
Eu80 C89 2.828 . S
Eu80 O91 2.392 . S
Eu80 O93 2.418 1_554 S
Eu80 O98 2.372 1_554 S
Eu80 O101 2.488 . S
Eu80 O102 2.471 . S
Eu80 O103 2.349 . S
Eu81 O90 2.373 . S
Eu81 O94 2.488 . S
Eu81 O95 2.471 . S
Eu81 O96 2.349 . S
Eu81 O99 2.392 . S
Eu81 O100 2.418 1_556 S
Eu81 C110 2.828 . S
C82 O100 1.244 . S
C82 O103 1.265 . S
C83 C84 1.379 . S
C83 C87 1.373 . S
C83 C89 1.505 . S
C84 C83 1.379 . S
C84 C86 1.369 . S
C84 H112 0.930 . S
C85 C87 1.383 . S
C85 C88 1.382 . S
C85 H113 0.930 . S
C86 C84 1.369 . S
C86 C88 1.392 . S
C86 H114 0.930 . S
C87 C83 1.373 . S
C87 C85 1.383 . S
C87 H115 0.931 . S
C88 C85 1.382 . S
C88 C86 1.392 . S
C89 Eu80 2.828 . S
C89 C83 1.505 . S
C89 O101 1.249 . S
C89 O102 1.244 . S
O90 Eu81 2.373 . S
O90 C92 1.258 1_556 S
O91 Eu80 2.392 . S
O91 C92 1.242 . S
C92 O90 1.258 1_554 S
C92 O91 1.242 . S
O93 Eu80 2.418 1_556 S
O93 C97 1.244 . S
O94 Eu81 2.488 . S
O94 C110 1.249 . S
O95 Eu81 2.471 . S
O95 C110 1.244 . S
O96 Eu81 2.349 . S
O96 C97 1.265 . S
C97 O93 1.244 . S
C97 O96 1.265 . S
O98 Eu80 2.372 1_556 S
O98 C111 1.259 . S
O99 Eu81 2.392 . S
O99 C111 1.242 . S
O100 Eu81 2.418 1_554 S
O100 C82 1.244 . S
O101 Eu80 2.488 . S
O101 C89 1.249 . S
O102 Eu80 2.471 . S
O102 C89 1.244 . S
O103 Eu80 2.349 . S
O103 C82 1.265 . S
C104 C105 1.379 . S
C104 C108 1.373 . S
C104 C110 1.505 . S
C105 C104 1.379 . S
C105 C107 1.369 . S
C105 H116 0.930 . S
C106 C108 1.383 . S
C106 C109 1.382 . S
C106 H117 0.930 . S
C107 C105 1.369 . S
C107 C109 1.392 . S
C107 H118 0.930 . S
C108 C104 1.373 . S
C108 C106 1.383 . S
C108 H119 0.931 . S
C109 C106 1.382 . S
C109 C107 1.392 . S
C110 Eu81 2.828 . S
C110 O94 1.249 . S
C110 O95 1.244 . S
C110 C104 1.505 . S
C111 O98 1.259 . S
C111 O99 1.242 . S
H112 C84 0.930 . S
H113 C85 0.930 . S
H114 C86 0.930 . S
H115 C87 0.931 . S
H116 C105 0.930 . S
H117 C106 0.930 . S
H118 C107 0.930 . S
H119 C108 0.931 . S
Eu120 C129 2.828 . S
Eu120 O131 2.392 . S
Eu120 O133 2.418 . S
Eu120 O138 2.373 . S
Eu120 O141 2.488 . S
Eu120 O142 2.471 . S
Eu120 O143 2.349 . S
Eu121 O130 2.373 . S
Eu121 O134 2.488 . S
Eu121 O135 2.471 . S
Eu121 O136 2.349 . S
Eu121 O139 2.392 . S
Eu121 O140 2.418 . S
Eu121 C150 2.828 . S
C122 O140 1.244 . S
C122 O143 1.265 . S
C123 C124 1.379 . S
C123 C127 1.373 . S
C123 C129 1.505 . S
C124 C123 1.379 . S
C124 C126 1.369 . S
C124 H152 0.930 . S
C125 C127 1.383 . S
C125 C128 1.382 . S
C125 H153 0.930 . S
C126 C124 1.369 . S
C126 C128 1.392 . S
C126 H154 0.930 . S
C127 C123 1.373 . S
C127 C125 1.383 . S
C127 H155 0.931 . S
C128 C125 1.382 . S
C128 C126 1.392 . S
C129 Eu120 2.828 . S
C129 C123 1.505 . S
C129 O141 1.249 . S
C129 O142 1.244 . S
O130 Eu121 2.373 . S
O130 C132 1.258 . S
O131 Eu120 2.392 . S
O131 C132 1.242 . S
C132 O130 1.258 . S
C132 O131 1.242 . S
O133 Eu120 2.418 . S
O133 C137 1.244 . S
O134 Eu121 2.488 . S
O134 C150 1.249 . S
O135 Eu121 2.471 . S
O135 C150 1.244 . S
O136 Eu121 2.349 . S
O136 C137 1.265 . S
C137 O133 1.244 . S
C137 O136 1.265 . S
O138 Eu120 2.373 . S
O138 C151 1.258 . S
O139 Eu121 2.392 . S
O139 C151 1.242 . S
O140 Eu121 2.418 . S
O140 C122 1.244 . S
O141 Eu120 2.488 . S
O141 C129 1.249 . S
O142 Eu120 2.471 . S
O142 C129 1.244 . S
O143 Eu120 2.349 . S
O143 C122 1.265 . S
C144 C145 1.379 . S
C144 C148 1.373 . S
C144 C150 1.505 . S
C145 C144 1.379 . S
C145 C147 1.369 . S
C145 H156 0.930 . S
C146 C148 1.383 . S
C146 C149 1.382 . S
C146 H157 0.930 . S
C147 C145 1.369 . S
C147 C149 1.392 . S
C147 H158 0.930 . S
C148 C144 1.373 . S
C148 C146 1.383 . S
C148 H159 0.931 . S
C149 C146 1.382 . S
C149 C147 1.392 . S
C150 Eu121 2.828 . S
C150 O134 1.249 . S
C150 O135 1.244 . S
C150 C144 1.505 . S
C151 O138 1.258 . S
C151 O139 1.242 . S
H152 C124 0.930 . S
H153 C125 0.930 . S
H154 C126 0.930 . S
H155 C127 0.931 . S
H156 C145 0.930 . S
H157 C146 0.930 . S
H158 C147 0.930 . S
H159 C148 0.931 . S
Eu160 C169 2.828 . S
Eu160 O171 2.392 . S
Eu160 O173 2.418 . S
Eu160 O178 2.373 . S
Eu160 O181 2.488 . S
Eu160 O182 2.471 . S
Eu160 O183 2.349 . S
Eu161 O170 2.373 . S
Eu161 O174 2.488 . S
Eu161 O175 2.471 . S
Eu161 O176 2.349 . S
Eu161 O179 2.392 . S
Eu161 O180 2.418 . S
Eu161 C190 2.828 . S
C162 O180 1.244 . S
C162 O183 1.265 . S
C163 C164 1.379 . S
C163 C167 1.373 . S
C163 C169 1.505 . S
C164 C163 1.379 . S
C164 C166 1.369 . S
C164 H192 0.930 . S
C165 C167 1.383 . S
C165 C168 1.382 . S
C165 H193 0.930 . S
C166 C164 1.369 . S
C166 C168 1.392 . S
C166 H194 0.930 . S
C167 C163 1.373 . S
C167 C165 1.383 . S
C167 H195 0.931 . S
C168 C165 1.382 . S
C168 C166 1.392 . S
C169 Eu160 2.828 . S
C169 C163 1.505 . S
C169 O181 1.249 . S
C169 O182 1.244 . S
O170 Eu161 2.373 . S
O170 C172 1.258 . S
O171 Eu160 2.392 . S
O171 C172 1.242 . S
C172 O170 1.258 . S
C172 O171 1.242 . S
O173 Eu160 2.418 . S
O173 C177 1.244 . S
O174 Eu161 2.488 . S
O174 C190 1.249 . S
O175 Eu161 2.471 . S
O175 C190 1.244 . S
O176 Eu161 2.349 . S
O176 C177 1.265 . S
C177 O173 1.244 . S
C177 O176 1.265 . S
O178 Eu160 2.373 . S
O178 C191 1.258 . S
O179 Eu161 2.392 . S
O179 C191 1.242 . S
O180 Eu161 2.418 . S
O180 C162 1.244 . S
O181 Eu160 2.488 . S
O181 C169 1.249 . S
O182 Eu160 2.471 . S
O182 C169 1.244 . S
O183 Eu160 2.349 . S
O183 C162 1.265 . S
C184 C185 1.379 . S
C184 C188 1.373 . S
C184 C190 1.505 . S
C185 C184 1.379 . S
C185 C187 1.369 . S
C185 H196 0.930 . S
C186 C188 1.383 . S
C186 C189 1.382 . S
C186 H197 0.930 . S
C187 C185 1.369 . S
C187 C189 1.392 . S
C187 H198 0.930 . S
C188 C184 1.373 . S
C188 C186 1.383 . S
C188 H199 0.931 . S
C189 C186 1.382 . S
C189 C187 1.392 . S
C190 Eu161 2.828 . S
C190 O174 1.249 . S
C190 O175 1.244 . S
C190 C184 1.505 . S
C191 O178 1.258 . S
C191 O179 1.242 . S
H192 C164 0.930 . S
H193 C165 0.930 . S
H194 C166 0.930 . S
H195 C167 0.931 . S
H196 C185 0.930 . S
H197 C186 0.930 . S
H198 C187 0.930 . S
H199 C188 0.931 . S
Eu200 C209 2.828 . S
Eu200 O211 2.392 1_655 S
Eu200 O213 2.418 . S
Eu200 O218 2.373 . S
Eu200 O221 2.488 . S
Eu200 O222 2.471 . S
Eu200 O223 2.349 1_655 S
Eu201 O210 2.373 . S
Eu201 O214 2.488 . S
Eu201 O215 2.471 . S
Eu201 O216 2.349 1_455 S
Eu201 O219 2.392 1_455 S
Eu201 O220 2.418 . S
Eu201 C230 2.828 . S
C202 O220 1.244 . S
C202 O223 1.265 . S
C203 C204 1.379 . S
C203 C207 1.373 . S
C203 C209 1.505 . S
C204 C203 1.379 . S
C204 C206 1.369 . S
C204 H232 0.930 . S
C205 C207 1.383 . S
C205 C208 1.382 . S
C205 H233 0.930 . S
C206 C204 1.369 . S
C206 C208 1.392 . S
C206 H234 0.930 . S
C207 C203 1.373 . S
C207 C205 1.383 . S
C207 H235 0.931 . S
C208 C205 1.382 . S
C208 C206 1.392 . S
C209 Eu200 2.828 . S
C209 C203 1.505 . S
C209 O221 1.249 . S
C209 O222 1.244 . S
O210 Eu201 2.373 . S
O210 C212 1.258 . S
O211 Eu200 2.392 1_455 S
O211 C212 1.242 . S
C212 O210 1.258 . S
C212 O211 1.242 . S
O213 Eu200 2.418 . S
O213 C217 1.244 . S
O214 Eu201 2.488 . S
O214 C230 1.249 . S
O215 Eu201 2.471 . S
O215 C230 1.244 . S
O216 Eu201 2.349 1_655 S
O216 C217 1.265 . S
C217 O213 1.244 . S
C217 O216 1.265 . S
O218 Eu200 2.373 . S
O218 C231 1.258 . S
O219 Eu201 2.392 1_655 S
O219 C231 1.242 . S
O220 Eu201 2.418 . S
O220 C202 1.244 . S
O221 Eu200 2.488 . S
O221 C209 1.249 . S
O222 Eu200 2.471 . S
O222 C209 1.244 . S
O223 Eu200 2.349 1_455 S
O223 C202 1.265 . S
C224 C225 1.379 . S
C224 C228 1.373 . S
C224 C230 1.505 . S
C225 C224 1.379 . S
C225 C227 1.369 . S
C225 H236 0.930 . S
C226 C228 1.383 . S
C226 C229 1.382 . S
C226 H237 0.930 . S
C227 C225 1.369 . S
C227 C229 1.392 . S
C227 H238 0.930 . S
C228 C224 1.373 . S
C228 C226 1.383 . S
C228 H239 0.931 . S
C229 C226 1.382 . S
C229 C227 1.392 . S
C230 Eu201 2.828 . S
C230 O214 1.249 . S
C230 O215 1.244 . S
C230 C224 1.505 . S
C231 O218 1.258 . S
C231 O219 1.242 . S
H232 C204 0.930 . S
H233 C205 0.930 . S
H234 C206 0.930 . S
H235 C207 0.931 . S
H236 C225 0.930 . S
H237 C226 0.930 . S
H238 C227 0.930 . S
H239 C228 0.931 . S
Eu240 C249 2.828 . S
Eu240 O251 2.392 1_554 S
Eu240 O253 2.418 . S
Eu240 O258 2.373 . S
Eu240 O261 2.488 . S
Eu240 O262 2.471 . S
Eu240 O263 2.349 1_554 S
Eu241 O250 2.373 . S
Eu241 O254 2.488 . S
Eu241 O255 2.471 . S
Eu241 O256 2.349 1_556 S
Eu241 O259 2.392 1_556 S
Eu241 O260 2.418 . S
Eu241 C270 2.828 . S
C242 O260 1.244 . S
C242 O263 1.265 . S
C243 C244 1.379 . S
C243 C247 1.373 . S
C243 C249 1.505 . S
C244 C243 1.379 . S
C244 C246 1.369 . S
C244 H272 0.930 . S
C245 C247 1.383 . S
C245 C248 1.382 . S
C245 H273 0.930 . S
C246 C244 1.369 . S
C246 C248 1.392 . S
C246 H274 0.930 . S
C247 C243 1.373 . S
C247 C245 1.383 . S
C247 H275 0.931 . S
C248 C245 1.382 . S
C248 C246 1.392 . S
C249 Eu240 2.828 . S
C249 C243 1.505 . S
C249 O261 1.249 . S
C249 O262 1.244 . S
O250 Eu241 2.373 . S
O250 C252 1.258 . S
O251 Eu240 2.392 1_556 S
O251 C252 1.242 . S
C252 O250 1.258 . S
C252 O251 1.242 . S
O253 Eu240 2.418 . S
O253 C257 1.244 . S
O254 Eu241 2.488 . S
O254 C270 1.249 . S
O255 Eu241 2.471 . S
O255 C270 1.244 . S
O256 Eu241 2.349 1_554 S
O256 C257 1.265 . S
C257 O253 1.244 . S
C257 O256 1.265 . S
O258 Eu240 2.373 . S
O258 C271 1.258 . S
O259 Eu241 2.392 1_554 S
O259 C271 1.242 . S
O260 Eu241 2.418 . S
O260 C242 1.244 . S
O261 Eu240 2.488 . S
O261 C249 1.249 . S
O262 Eu240 2.471 . S
O262 C249 1.244 . S
O263 Eu240 2.349 1_556 S
O263 C242 1.265 . S
C264 C265 1.379 . S
C264 C268 1.373 . S
C264 C270 1.505 . S
C265 C264 1.379 . S
C265 C267 1.369 . S
C265 H276 0.930 . S
C266 C268 1.383 . S
C266 C269 1.382 . S
C266 H277 0.930 . S
C267 C265 1.369 . S
C267 C269 1.392 . S
C267 H278 0.930 . S
C268 C264 1.373 . S
C268 C266 1.383 . S
C268 H279 0.931 . S
C269 C266 1.382 . S
C269 C267 1.392 . S
C270 Eu241 2.828 . S
C270 O254 1.249 . S
C270 O255 1.244 . S
C270 C264 1.505 . S
C271 O258 1.258 . S
C271 O259 1.242 . S
H272 C244 0.930 . S
H273 C245 0.930 . S
H274 C246 0.930 . S
H275 C247 0.931 . S
H276 C265 0.930 . S
H277 C266 0.930 . S
H278 C267 0.930 . S
H279 C268 0.931 . S
Eu280 C289 2.828 . S
Eu280 O291 2.392 . S
Eu280 O293 2.418 . S
Eu280 O298 2.373 . S
Eu280 O301 2.488 . S
Eu280 O302 2.471 . S
Eu280 O303 2.349 . S
Eu281 O290 2.373 . S
Eu281 O294 2.488 . S
Eu281 O295 2.471 . S
Eu281 O296 2.349 . S
Eu281 O299 2.392 . S
Eu281 O300 2.418 . S
Eu281 C310 2.828 . S
C282 O300 1.244 . S
C282 O303 1.265 . S
C283 C284 1.379 . S
C283 C287 1.373 . S
C283 C289 1.505 . S
C284 C283 1.379 . S
C284 C286 1.369 . S
C284 H312 0.930 . S
C285 C287 1.383 . S
C285 C288 1.382 . S
C285 H313 0.930 . S
C286 C284 1.369 . S
C286 C288 1.392 . S
C286 H314 0.930 . S
C287 C283 1.373 . S
C287 C285 1.383 . S
C287 H315 0.931 . S
C288 C285 1.382 . S
C288 C286 1.392 . S
C289 Eu280 2.828 . S
C289 C283 1.505 . S
C289 O301 1.249 . S
C289 O302 1.244 . S
O290 Eu281 2.373 . S
O290 C292 1.258 . S
O291 Eu280 2.392 . S
O291 C292 1.242 . S
C292 O290 1.258 . S
C292 O291 1.242 . S
O293 Eu280 2.418 . S
O293 C297 1.244 . S
O294 Eu281 2.488 . S
O294 C310 1.249 . S
O295 Eu281 2.471 . S
O295 C310 1.244 . S
O296 Eu281 2.349 . S
O296 C297 1.265 . S
C297 O293 1.244 . S
C297 O296 1.265 . S
O298 Eu280 2.373 . S
O298 C311 1.258 . S
O299 Eu281 2.392 . S
O299 C311 1.242 . S
O300 Eu281 2.418 . S
O300 C282 1.244 . S
O301 Eu280 2.488 . S
O301 C289 1.249 . S
O302 Eu280 2.471 . S
O302 C289 1.244 . S
O303 Eu280 2.349 . S
O303 C282 1.265 . S
C304 C305 1.379 . S
C304 C308 1.373 . S
C304 C310 1.505 . S
C305 C304 1.379 . S
C305 C307 1.369 . S
C305 H316 0.930 . S
C306 C308 1.383 . S
C306 C309 1.382 . S
C306 H317 0.930 . S
C307 C305 1.369 . S
C307 C309 1.392 . S
C307 H318 0.930 . S
C308 C304 1.373 . S
C308 C306 1.383 . S
C308 H319 0.931 . S
C309 C306 1.382 . S
C309 C307 1.392 . S
C310 Eu281 2.828 . S
C310 O294 1.249 . S
C310 O295 1.244 . S
C310 C304 1.505 . S
C311 O298 1.258 . S
C311 O299 1.242 . S
H312 C284 0.930 . S
H313 C285 0.930 . S
H314 C286 0.930 . S
H315 C287 0.931 . S
H316 C305 0.930 . S
H317 C306 0.930 . S
H318 C307 0.930 . S
H319 C308 0.931 . S
Eu320 C329 2.828 . S
Eu320 O331 2.392 . S
Eu320 O333 2.418 . S
Eu320 O338 2.373 . S
Eu320 O341 2.488 . S
Eu320 O342 2.471 . S
Eu320 O343 2.349 . S
Eu321 O330 2.373 . S
Eu321 O334 2.488 . S
Eu321 O335 2.471 . S
Eu321 O336 2.349 . S
Eu321 O339 2.392 . S
Eu321 O340 2.418 . S
Eu321 C350 2.828 . S
C322 O340 1.244 . S
C322 O343 1.265 . S
C323 C324 1.379 . S
C323 C327 1.373 . S
C323 C329 1.505 . S
C324 C323 1.379 . S
C324 C326 1.369 . S
C324 H352 0.930 . S
C325 C327 1.383 . S
C325 C328 1.382 . S
C325 H353 0.930 . S
C326 C324 1.369 . S
C326 C328 1.392 . S
C326 H354 0.930 . S
C327 C323 1.373 . S
C327 C325 1.383 . S
C327 H355 0.931 . S
C328 C325 1.382 . S
C328 C326 1.392 . S
C329 Eu320 2.828 . S
C329 C323 1.505 . S
C329 O341 1.249 . S
C329 O342 1.244 . S
O330 Eu321 2.373 . S
O330 C332 1.258 . S
O331 Eu320 2.392 . S
O331 C332 1.242 . S
C332 O330 1.258 . S
C332 O331 1.242 . S
O333 Eu320 2.418 . S
O333 C337 1.244 . S
O334 Eu321 2.488 . S
O334 C350 1.249 . S
O335 Eu321 2.471 . S
O335 C350 1.244 . S
O336 Eu321 2.349 . S
O336 C337 1.265 . S
C337 O333 1.244 . S
C337 O336 1.265 . S
O338 Eu320 2.373 . S
O338 C351 1.258 . S
O339 Eu321 2.392 . S
O339 C351 1.242 . S
O340 Eu321 2.418 . S
O340 C322 1.244 . S
O341 Eu320 2.488 . S
O341 C329 1.249 . S
O342 Eu320 2.471 . S
O342 C329 1.244 . S
O343 Eu320 2.349 . S
O343 C322 1.265 . S
C344 C345 1.379 . S
C344 C348 1.373 . S
C344 C350 1.505 . S
C345 C344 1.379 . S
C345 C347 1.369 . S
C345 H356 0.930 . S
C346 C348 1.383 . S
C346 C349 1.382 . S
C346 H357 0.930 . S
C347 C345 1.369 . S
C347 C349 1.392 . S
C347 H358 0.930 . S
C348 C344 1.373 . S
C348 C346 1.383 . S
C348 H359 0.931 . S
C349 C346 1.382 . S
C349 C347 1.392 . S
C350 Eu321 2.828 . S
C350 O334 1.249 . S
C350 O335 1.244 . S
C350 C344 1.505 . S
C351 O338 1.258 . S
C351 O339 1.242 . S
H352 C324 0.930 . S
H353 C325 0.930 . S
H354 C326 0.930 . S
H355 C327 0.931 . S
H356 C345 0.930 . S
H357 C346 0.930 . S
H358 C347 0.930 . S
H359 C348 0.931 . S
Eu360 C369 2.828 . S
Eu360 O371 2.392 . S
Eu360 O373 2.418 1_565 S
Eu360 O378 2.373 1_565 S
Eu360 O381 2.488 . S
Eu360 O382 2.471 . S
Eu360 O383 2.349 . S
Eu361 O370 2.373 . S
Eu361 O374 2.488 . S
Eu361 O375 2.471 . S
Eu361 O376 2.349 . S
Eu361 O379 2.392 . S
Eu361 O380 2.418 1_545 S
Eu361 C390 2.828 . S
C362 O380 1.244 . S
C362 O383 1.265 . S
C363 C364 1.379 . S
C363 C367 1.373 . S
C363 C369 1.505 . S
C364 C363 1.379 . S
C364 C366 1.369 . S
C364 H392 0.930 . S
C365 C367 1.383 . S
C365 C368 1.382 . S
C365 H393 0.930 . S
C366 C364 1.369 . S
C366 C368 1.392 . S
C366 H394 0.930 . S
C367 C363 1.373 . S
C367 C365 1.383 . S
C367 H395 0.931 . S
C368 C365 1.382 . S
C368 C366 1.392 . S
C369 Eu360 2.828 . S
C369 C363 1.505 . S
C369 O381 1.249 . S
C369 O382 1.244 . S
O370 Eu361 2.373 . S
O370 C372 1.258 1_545 S
O371 Eu360 2.392 . S
O371 C372 1.242 . S
C372 O370 1.258 1_565 S
C372 O371 1.242 . S
O373 Eu360 2.418 1_545 S
O373 C377 1.244 . S
O374 Eu361 2.488 . S
O374 C390 1.249 . S
O375 Eu361 2.471 . S
O375 C390 1.244 . S
O376 Eu361 2.349 . S
O376 C377 1.265 . S
C377 O373 1.244 . S
C377 O376 1.265 . S
O378 Eu360 2.373 1_545 S
O378 C391 1.258 . S
O379 Eu361 2.392 . S
O379 C391 1.242 . S
O380 Eu361 2.418 1_565 S
O380 C362 1.244 . S
O381 Eu360 2.488 . S
O381 C369 1.249 . S
O382 Eu360 2.471 . S
O382 C369 1.244 . S
O383 Eu360 2.349 . S
O383 C362 1.265 . S
C384 C385 1.379 . S
C384 C388 1.373 . S
C384 C390 1.505 . S
C385 C384 1.379 . S
C385 C387 1.369 . S
C385 H396 0.930 . S
C386 C388 1.383 . S
C386 C389 1.382 . S
C386 H397 0.930 . S
C387 C385 1.369 . S
C387 C389 1.392 . S
C387 H398 0.930 . S
C388 C384 1.373 . S
C388 C386 1.383 . S
C388 H399 0.931 . S
C389 C386 1.382 . S
C389 C387 1.392 . S
C390 Eu361 2.828 . S
C390 O374 1.249 . S
C390 O375 1.244 . S
C390 C384 1.505 . S
C391 O378 1.258 . S
C391 O379 1.242 . S
H392 C364 0.930 . S
H393 C365 0.930 . S
H394 C366 0.930 . S
H395 C367 0.931 . S
H396 C385 0.930 . S
H397 C386 0.930 . S
H398 C387 0.930 . S
H399 C388 0.931 . S
Eu400 C409 2.828 . S
Eu400 O411 2.392 1_565 S
Eu400 O413 2.418 . S
Eu400 O418 2.373 . S
Eu400 O421 2.488 . S
Eu400 O422 2.471 . S
Eu400 O423 2.349 . S
Eu401 O410 2.373 . S
Eu401 O414 2.488 . S
Eu401 O415 2.471 . S
Eu401 O416 2.349 1_545 S
Eu401 O419 2.392 1_545 S
Eu401 O420 2.418 . S
Eu401 C430 2.828 . S
C402 O420 1.244 . S
C402 O423 1.265 1_545 S
C403 C404 1.379 . S
C403 C407 1.373 . S
C403 C409 1.505 . S
C404 C403 1.379 . S
C404 C406 1.369 . S
C404 H432 0.930 . S
C405 C407 1.383 . S
C405 C408 1.382 . S
C405 H433 0.930 . S
C406 C404 1.369 . S
C406 C408 1.392 . S
C406 H434 0.930 . S
C407 C403 1.373 . S
C407 C405 1.383 . S
C407 H435 0.931 . S
C408 C405 1.382 . S
C408 C406 1.392 . S
C409 Eu400 2.828 . S
C409 C403 1.505 . S
C409 O421 1.249 . S
C409 O422 1.244 . S
O410 Eu401 2.373 . S
O410 C412 1.258 . S
O411 Eu400 2.392 1_545 S
O411 C412 1.242 . S
C412 O410 1.258 . S
C412 O411 1.242 . S
O413 Eu400 2.418 . S
O413 C417 1.244 . S
O414 Eu401 2.488 . S
O414 C430 1.249 . S
O415 Eu401 2.471 . S
O415 C430 1.244 . S
O416 Eu401 2.349 1_565 S
O416 C417 1.265 . S
C417 O413 1.244 . S
C417 O416 1.265 . S
O418 Eu400 2.373 . S
O418 C431 1.258 . S
O419 Eu401 2.392 1_565 S
O419 C431 1.242 . S
O420 Eu401 2.418 . S
O420 C402 1.244 . S
O421 Eu400 2.488 . S
O421 C409 1.249 . S
O422 Eu400 2.471 . S
O422 C409 1.244 . S
O423 Eu400 2.349 . S
O423 C402 1.265 1_565 S
C424 C425 1.379 . S
C424 C428 1.373 . S
C424 C430 1.505 . S
C425 C424 1.379 . S
C425 C427 1.369 . S
C425 H436 0.930 . S
C426 C428 1.383 . S
C426 C429 1.382 . S
C426 H437 0.930 . S
C427 C425 1.369 . S
C427 C429 1.392 . S
C427 H438 0.930 . S
C428 C424 1.373 . S
C428 C426 1.383 . S
C428 H439 0.931 . S
C429 C426 1.382 . S
C429 C427 1.392 . S
C430 Eu401 2.828 . S
C430 O414 1.249 . S
C430 O415 1.244 . S
C430 C424 1.505 . S
C431 O418 1.258 . S
C431 O419 1.242 . S
H432 C404 0.930 . S
H433 C405 0.930 . S
H434 C406 0.930 . S
H435 C407 0.931 . S
H436 C425 0.930 . S
H437 C426 0.930 . S
H438 C427 0.930 . S
H439 C428 0.931 . S
Eu440 C449 2.828 . S
Eu440 O451 2.392 . S
Eu440 O453 2.418 . S
Eu440 O458 2.373 . S
Eu440 O461 2.488 . S
Eu440 O462 2.471 . S
Eu440 O463 2.349 . S
Eu441 O450 2.373 . S
Eu441 O454 2.488 . S
Eu441 O455 2.471 . S
Eu441 O456 2.349 . S
Eu441 O459 2.392 . S
Eu441 O460 2.418 . S
Eu441 C470 2.828 . S
C442 O460 1.244 . S
C442 O463 1.265 . S
C443 C444 1.379 . S
C443 C447 1.373 . S
C443 C449 1.505 . S
C444 C443 1.379 . S
C444 C446 1.369 . S
C444 H472 0.930 . S
C445 C447 1.383 . S
C445 C448 1.382 . S
C445 H473 0.930 . S
C446 C444 1.369 . S
C446 C448 1.392 . S
C446 H474 0.930 . S
C447 C443 1.373 . S
C447 C445 1.383 . S
C447 H475 0.931 . S
C448 C445 1.382 . S
C448 C446 1.392 . S
C449 Eu440 2.828 . S
C449 C443 1.505 . S
C449 O461 1.249 . S
C449 O462 1.244 . S
O450 Eu441 2.373 . S
O450 C452 1.258 . S
O451 Eu440 2.392 . S
O451 C452 1.242 . S
C452 O450 1.258 . S
C452 O451 1.242 . S
O453 Eu440 2.418 . S
O453 C457 1.244 . S
O454 Eu441 2.488 . S
O454 C470 1.249 . S
O455 Eu441 2.471 . S
O455 C470 1.244 . S
O456 Eu441 2.349 . S
O456 C457 1.265 . S
C457 O453 1.244 . S
C457 O456 1.265 . S
O458 Eu440 2.373 . S
O458 C471 1.258 . S
O459 Eu441 2.392 . S
O459 C471 1.242 . S
O460 Eu441 2.418 . S
O460 C442 1.244 . S
O461 Eu440 2.488 . S
O461 C449 1.249 . S
O462 Eu440 2.471 . S
O462 C449 1.244 . S
O463 Eu440 2.349 . S
O463 C442 1.265 . S
C464 C465 1.379 . S
C464 C468 1.373 . S
C464 C470 1.505 . S
C465 C464 1.379 . S
C465 C467 1.369 . S
C465 H476 0.930 . S
C466 C468 1.383 . S
C466 C469 1.382 . S
C466 H477 0.930 . S
C467 C465 1.369 . S
C467 C469 1.392 . S
C467 H478 0.930 . S
C468 C464 1.373 . S
C468 C466 1.383 . S
C468 H479 0.931 . S
C469 C466 1.382 . S
C469 C467 1.392 . S
C470 Eu441 2.828 . S
C470 O454 1.249 . S
C470 O455 1.244 . S
C470 C464 1.505 . S
C471 O458 1.258 . S
C471 O459 1.242 . S
H472 C444 0.930 . S
H473 C445 0.930 . S
H474 C446 0.930 . S
H475 C447 0.931 . S
H476 C465 0.930 . S
H477 C466 0.930 . S
H478 C467 0.930 . S
H479 C468 0.931 . S
H480 C492 0.930 . S
H481 C494 0.930 . S
H482 C495 0.930 . S
H483 C499 0.959 . S
H484 C499 0.959 . S
H485 C499 0.961 . S
H486 C500 0.960 . S
H487 C500 0.961 . S
H488 C500 0.959 . S
H489 C503 0.929 . S
H490 C504 0.931 . S
H491 C506 0.930 . S
C492 H480 0.930 . S
C492 C493 1.399 . S
C492 C497 1.399 . S
C493 C492 1.399 . S
C493 C494 1.376 . S
C494 H481 0.930 . S
C494 C493 1.376 . S
C494 C495 1.388 . S
C495 H482 0.930 . S
C495 C494 1.388 . S
C495 C496 1.390 . S
C496 C495 1.390 . S
C496 C497 1.394 . S
C496 C502 1.465 . S
C497 C492 1.399 . S
C497 C496 1.394 . S
C497 C498 1.516 . S
C498 C497 1.516 . S
C498 C499 1.502 . S
C498 C500 1.561 . S
C498 C501 1.526 . S
C499 H483 0.959 . S
C499 H484 0.959 . S
C499 H485 0.961 . S
C499 C498 1.502 . S
C500 H486 0.960 . S
C500 H487 0.961 . S
C500 H488 0.959 . S
C500 C498 1.561 . S
C501 C498 1.526 . S
C501 C502 1.396 . S
C501 C506 1.390 . S
C502 C496 1.465 . S
C502 C501 1.396 . S
C502 C503 1.399 . S
C503 H489 0.929 . S
C503 C502 1.399 . S
C503 C504 1.385 . S
C504 H490 0.931 . S
C504 C503 1.385 . S
C504 C505 1.389 . S
C505 C504 1.389 . S
C505 C506 1.387 . S
C506 H491 0.930 . S
C506 C501 1.390 . S
C506 C505 1.387 . S
H507 C519 0.930 . S
H508 C521 0.930 . S
H509 C522 0.930 . S
H510 C526 0.959 1_545 S
H511 C526 0.959 . S
H512 C526 0.961 1_545 S
H513 C527 0.960 . S
H514 C527 0.961 . S
H515 C527 0.959 . S
H516 C530 0.929 . S
H517 C531 0.931 . S
H518 C533 0.930 . S
C519 H507 0.930 . S
C519 C520 1.399 . S
C519 C524 1.399 . S
C520 C519 1.399 . S
C520 C521 1.376 . S
C521 H508 0.930 . S
C521 C520 1.376 . S
C521 C522 1.388 . S
C522 H509 0.930 . S
C522 C521 1.388 . S
C522 C523 1.390 . S
C523 C522 1.390 . S
C523 C524 1.394 . S
C523 C529 1.465 . S
C524 C519 1.399 . S
C524 C523 1.394 . S
C524 C525 1.516 . S
C525 C524 1.516 . S
C525 C526 1.502 . S
C525 C527 1.561 . S
C525 C528 1.526 . S
C526 H510 0.959 1_565 S
C526 H511 0.959 . S
C526 H512 0.961 1_565 S
C526 C525 1.502 . S
C527 H513 0.960 . S
C527 H514 0.961 . S
C527 H515 0.959 . S
C527 C525 1.561 . S
C528 C525 1.526 . S
C528 C529 1.396 . S
C528 C533 1.390 . S
C529 C523 1.465 . S
C529 C528 1.396 . S
C529 C530 1.399 . S
C530 H516 0.929 . S
C530 C529 1.399 . S
C530 C531 1.385 . S
C531 H517 0.931 . S
C531 C530 1.385 . S
C531 C532 1.389 . S
C532 C531 1.389 . S
C532 C533 1.387 . S
C533 H518 0.930 . S
C533 C528 1.390 . S
C533 C532 1.387 . S
H534 C546 0.930 . S
H535 C548 0.930 . S
H536 C549 0.900 1_556 S
H537 C553 0.959 . S
H538 C553 0.959 . S
H539 C553 0.961 . S
H540 C554 0.960 . S
H541 C554 0.961 . S
H542 C554 0.959 . S
H543 C557 0.929 . S
H544 C558 0.931 . S
H545 C560 0.930 . S
C546 H534 0.930 . S
C546 C547 1.399 . S
C546 C551 1.399 . S
C547 C546 1.399 . S
C547 C548 1.376 1_554 S
C548 H535 0.930 . S
C548 C547 1.376 1_556 S
C548 C549 1.384 1_556 S
C549 H536 0.900 1_554 S
C549 C548 1.384 1_554 S
C549 C550 1.426 . S
C550 C549 1.426 . S
C550 C551 1.394 . S
C550 C556 1.465 . S
C551 C546 1.399 . S
C551 C550 1.394 . S
C551 C552 1.516 . S
C552 C551 1.516 . S
C552 C553 1.502 . S
C552 C554 1.561 . S
C552 C555 1.526 . S
C553 H537 0.959 . S
C553 H538 0.959 . S
C553 H539 0.961 . S
C553 C552 1.502 . S
C554 H540 0.960 . S
C554 H541 0.961 . S
C554 H542 0.959 . S
C554 C552 1.561 . S
C555 C552 1.526 . S
C555 C556 1.396 . S
C555 C560 1.390 . S
C556 C550 1.465 . S
C556 C555 1.396 . S
C556 C557 1.399 . S
C557 H543 0.929 . S
C557 C556 1.399 . S
C557 C558 1.385 . S
C558 H544 0.931 . S
C558 C557 1.385 . S
C558 C559 1.389 . S
C559 C558 1.389 . S
C559 C560 1.387 . S
C560 H545 0.930 . S
C560 C555 1.390 . S
C560 C559 1.387 . S
H561 C573 0.930 . S
H562 C575 0.930 . S
H563 C576 0.930 . S
H564 C580 0.959 . S
H565 C580 0.959 . S
H566 C580 0.961 . S
H567 C581 0.960 . S
H568 C581 0.961 . S
H569 C581 0.959 . S
H570 C584 0.929 . S
H571 C585 0.931 . S
H572 C587 0.930 . S
C573 H561 0.930 . S
C573 C574 1.399 . S
C573 C578 1.399 . S
C574 C573 1.399 . S
C574 C575 1.376 . S
C575 H562 0.930 . S
C575 C574 1.376 . S
C575 C576 1.388 . S
C576 H563 0.930 . S
C576 C575 1.388 . S
C576 C577 1.390 . S
C577 C576 1.390 . S
C577 C578 1.394 . S
C577 C583 1.465 . S
C578 C573 1.399 . S
C578 C577 1.394 . S
C578 C579 1.516 . S
C579 C578 1.516 . S
C579 C580 1.502 . S
C579 C581 1.561 . S
C579 C582 1.526 . S
C580 H564 0.959 . S
C580 H565 0.959 . S
C580 H566 0.961 . S
C580 C579 1.502 . S
C581 H567 0.960 . S
C581 H568 0.961 . S
C581 H569 0.959 . S
C581 C579 1.561 . S
C582 C579 1.526 . S
C582 C583 1.396 . S
C582 C587 1.390 . S
C583 C577 1.465 . S
C583 C582 1.396 . S
C583 C584 1.399 . S
C584 H570 0.929 . S
C584 C583 1.399 . S
C584 C585 1.385 . S
C585 H571 0.931 . S
C585 C584 1.385 . S
C585 C586 1.389 . S
C586 C585 1.389 . S
C586 C587 1.387 . S
C587 H572 0.930 . S
C587 C582 1.390 . S
C587 C586 1.387 . S
H588 C600 0.930 . S
H589 C602 0.930 . S
H590 C603 0.930 . S
H591 C607 0.959 . S
H592 C607 0.959 . S
H593 C607 0.961 . S
H594 C608 0.960 . S
H595 C608 0.961 . S
H596 C608 0.959 . S
H597 C611 0.929 . S
H598 C612 0.931 . S
H599 C614 0.930 . S
C600 H588 0.930 . S
C600 C601 1.399 . S
C600 C605 1.399 . S
C601 C600 1.399 . S
C601 C602 1.376 . S
C602 H589 0.930 . S
C602 C601 1.376 . S
C602 C603 1.388 . S
C603 H590 0.930 . S
C603 C602 1.388 . S
C603 C604 1.390 . S
C604 C603 1.390 . S
C604 C605 1.394 . S
C604 C610 1.465 . S
C605 C600 1.399 . S
C605 C604 1.394 . S
C605 C606 1.516 . S
C606 C605 1.516 . S
C606 C607 1.502 . S
C606 C608 1.561 . S
C606 C609 1.526 . S
C607 H591 0.959 . S
C607 H592 0.959 . S
C607 H593 0.961 . S
C607 C606 1.502 . S
C608 H594 0.960 . S
C608 H595 0.961 . S
C608 H596 0.959 . S
C608 C606 1.561 . S
C609 C606 1.526 . S
C609 C610 1.396 . S
C609 C614 1.390 . S
C610 C604 1.465 . S
C610 C609 1.396 . S
C610 C611 1.399 . S
C611 H597 0.929 . S
C611 C610 1.399 . S
C611 C612 1.385 . S
C612 H598 0.931 . S
C612 C611 1.385 . S
C612 C613 1.389 . S
C613 C612 1.389 . S
C613 C614 1.387 . S
C614 H599 0.930 . S
C614 C609 1.390 . S
C614 C613 1.387 . S
H615 C627 0.930 . S
H616 C629 0.930 . S
H617 C630 0.930 . S
H618 C634 0.959 . S
H619 C634 0.959 . S
H620 C634 0.961 . S
H621 C635 0.960 . S
H622 C635 0.961 . S
H623 C635 0.959 . S
H624 C638 0.929 . S
H625 C639 0.931 . S
H626 C641 0.930 . S
C627 H615 0.930 . S
C627 C628 1.399 . S
C627 C632 1.399 . S
C628 C627 1.399 . S
C628 C629 1.376 . S
C629 H616 0.930 . S
C629 C628 1.376 . S
C629 C630 1.388 . S
C630 H617 0.930 . S
C630 C629 1.388 . S
C630 C631 1.390 . S
C631 C630 1.390 . S
C631 C632 1.394 . S
C631 C637 1.465 . S
C632 C627 1.399 . S
C632 C631 1.394 . S
C632 C633 1.516 . S
C633 C632 1.516 . S
C633 C634 1.502 . S
C633 C635 1.561 . S
C633 C636 1.526 . S
C634 H618 0.959 . S
C634 H619 0.959 . S
C634 H620 0.961 . S
C634 C633 1.502 . S
C635 H621 0.960 . S
C635 H622 0.961 . S
C635 H623 0.959 . S
C635 C633 1.561 . S
C636 C633 1.526 . S
C636 C637 1.396 . S
C636 C641 1.390 . S
C637 C631 1.465 . S
C637 C636 1.396 . S
C637 C638 1.399 . S
C638 H624 0.929 . S
C638 C637 1.399 . S
C638 C639 1.385 . S
C639 H625 0.931 . S
C639 C638 1.385 . S
C639 C640 1.389 . S
C640 C639 1.389 . S
C640 C641 1.387 . S
C641 H626 0.930 . S
C641 C636 1.390 . S
C641 C640 1.387 . S
H642 C654 0.930 . S
H643 C656 0.930 . S
H644 C657 0.930 . S
H645 C661 0.959 . S
H646 C661 0.959 1_554 S
H647 C661 0.961 . S
H648 C662 0.960 . S
H649 C662 0.961 . S
H650 C662 0.959 1_556 S
H651 C665 0.929 . S
H652 C666 0.931 . S
H653 C668 0.930 . S
C654 H642 0.930 . S
C654 C655 1.399 . S
C654 C659 1.399 . S
C655 C654 1.399 . S
C655 C656 1.376 . S
C656 H643 0.930 . S
C656 C655 1.376 . S
C656 C657 1.388 . S
C657 H644 0.930 . S
C657 C656 1.388 . S
C657 C658 1.390 . S
C658 C657 1.390 . S
C658 C659 1.394 . S
C658 C664 1.465 . S
C659 C654 1.399 . S
C659 C658 1.394 . S
C659 C660 1.516 . S
C660 C659 1.516 . S
C660 C661 1.502 . S
C660 C662 1.561 1_556 S
C660 C663 1.526 . S
C661 H645 0.959 . S
C661 H646 0.959 1_556 S
C661 H647 0.961 . S
C661 C660 1.502 . S
C662 H648 0.960 . S
C662 H649 0.961 . S
C662 H650 0.959 1_554 S
C662 C660 1.561 1_554 S
C663 C660 1.526 . S
C663 C664 1.396 . S
C663 C668 1.390 . S
C664 C658 1.465 . S
C664 C663 1.396 . S
C664 C665 1.399 . S
C665 H651 0.929 . S
C665 C664 1.399 . S
C665 C666 1.385 . S
C666 H652 0.931 . S
C666 C665 1.385 . S
C666 C667 1.389 . S
C667 C666 1.389 . S
C667 C668 1.387 . S
C668 H653 0.930 . S
C668 C663 1.390 . S
C668 C667 1.387 . S
H669 C681 0.930 . S
H670 C683 0.930 . S
H671 C684 0.930 . S
H672 C688 0.959 . S
H673 C688 0.959 . S
H674 C688 0.961 . S
H675 C689 0.960 . S
H676 C689 0.961 . S
H677 C689 0.959 . S
H678 C692 0.929 . S
H679 C693 0.931 . S
H680 C695 0.930 . S
C681 H669 0.930 . S
C681 C682 1.399 . S
C681 C686 1.399 . S
C682 C681 1.399 . S
C682 C683 1.376 . S
C683 H670 0.930 . S
C683 C682 1.376 . S
C683 C684 1.388 . S
C684 H671 0.930 . S
C684 C683 1.388 . S
C684 C685 1.390 . S
C685 C684 1.390 . S
C685 C686 1.394 . S
C685 C691 1.465 . S
C686 C681 1.399 . S
C686 C685 1.394 . S
C686 C687 1.516 . S
C687 C686 1.516 . S
C687 C688 1.502 . S
C687 C689 1.561 . S
C687 C690 1.526 . S
C688 H672 0.959 . S
C688 H673 0.959 . S
C688 H674 0.961 . S
C688 C687 1.502 . S
C689 H675 0.960 . S
C689 H676 0.961 . S
C689 H677 0.959 . S
C689 C687 1.561 . S
C690 C687 1.526 . S
C690 C691 1.396 . S
C690 C695 1.390 . S
C691 C685 1.465 . S
C691 C690 1.396 . S
C691 C692 1.399 . S
C692 H678 0.929 . S
C692 C691 1.399 . S
C692 C693 1.385 . S
C693 H679 0.931 . S
C693 C692 1.385 . S
C693 C694 1.389 . S
C694 C693 1.389 . S
C694 C695 1.387 . S
C695 H680 0.930 . S
C695 C690 1.390 . S
C695 C694 1.387 . S
H696 C708 0.930 . S
H697 C710 0.930 . S
H698 C711 0.930 . S
H699 C715 0.959 . S
H700 C715 0.959 . S
H701 C715 0.961 . S
H702 C716 0.960 . S
H703 C716 0.961 . S
H704 C716 0.959 . S
H705 C719 0.929 . S
H706 C720 0.931 . S
H707 C722 0.930 . S
C708 H696 0.930 . S
C708 C709 1.399 . S
C708 C713 1.399 . S
C709 C708 1.399 . S
C709 C710 1.376 . S
C710 H697 0.930 . S
C710 C709 1.376 . S
C710 C711 1.388 . S
C711 H698 0.930 . S
C711 C710 1.388 . S
C711 C712 1.390 . S
C712 C711 1.390 . S
C712 C713 1.394 . S
C712 C718 1.465 . S
C713 C708 1.399 . S
C713 C712 1.394 . S
C713 C714 1.516 . S
C714 C713 1.516 . S
C714 C715 1.502 . S
C714 C716 1.561 . S
C714 C717 1.526 . S
C715 H699 0.959 . S
C715 H700 0.959 . S
C715 H701 0.961 . S
C715 C714 1.502 . S
C716 H702 0.960 . S
C716 H703 0.961 . S
C716 H704 0.959 . S
C716 C714 1.561 . S
C717 C714 1.526 . S
C717 C718 1.396 . S
C717 C722 1.390 . S
C718 C712 1.465 . S
C718 C717 1.396 . S
C718 C719 1.399 . S
C719 H705 0.929 . S
C719 C718 1.399 . S
C719 C720 1.385 . S
C720 H706 0.931 . S
C720 C719 1.385 . S
C720 C721 1.389 . S
C721 C720 1.389 . S
C721 C722 1.387 . S
C722 H707 0.930 . S
C722 C717 1.390 . S
C722 C721 1.387 . S
H723 C735 0.930 . S
H724 C737 0.930 . S
H725 C738 0.930 . S
H726 C742 0.959 . S
H727 C742 0.959 . S
H728 C742 0.961 . S
H729 C743 0.960 . S
H730 C743 0.961 . S
H731 C743 0.959 . S
H732 C746 0.929 . S
H733 C747 0.931 . S
H734 C749 0.930 . S
C735 H723 0.930 . S
C735 C736 1.399 . S
C735 C740 1.399 . S
C736 C735 1.399 . S
C736 C737 1.376 . S
C737 H724 0.930 . S
C737 C736 1.376 . S
C737 C738 1.388 . S
C738 H725 0.930 . S
C738 C737 1.388 . S
C738 C739 1.390 . S
C739 C738 1.390 . S
C739 C740 1.394 . S
C739 C745 1.465 . S
C740 C735 1.399 . S
C740 C739 1.394 . S
C740 C741 1.516 . S
C741 C740 1.516 . S
C741 C742 1.502 . S
C741 C743 1.561 . S
C741 C744 1.526 . S
C742 H726 0.959 . S
C742 H727 0.959 . S
C742 H728 0.961 . S
C742 C741 1.502 . S
C743 H729 0.960 . S
C743 H730 0.961 . S
C743 H731 0.959 . S
C743 C741 1.561 . S
C744 C741 1.526 . S
C744 C745 1.396 . S
C744 C749 1.390 . S
C745 C739 1.465 . S
C745 C744 1.396 . S
C745 C746 1.399 . S
C746 H732 0.929 . S
C746 C745 1.399 . S
C746 C747 1.385 . S
C747 H733 0.931 . S
C747 C746 1.385 . S
C747 C748 1.389 . S
C748 C747 1.389 . S
C748 C749 1.387 . S
C749 H734 0.930 . S
C749 C744 1.390 . S
C749 C748 1.387 . S
H750 C762 0.930 . S
H751 C764 0.930 . S
H752 C765 0.930 . S
H753 C769 0.959 . S
H754 C769 0.959 . S
H755 C769 0.961 . S
H756 C770 0.960 . S
H757 C770 0.961 . S
H758 C770 0.959 . S
H759 C773 0.929 . S
H760 C774 0.931 . S
H761 C776 0.930 . S
C762 H750 0.930 . S
C762 C763 1.399 . S
C762 C767 1.399 . S
C763 C762 1.399 . S
C763 C764 1.376 . S
C764 H751 0.930 . S
C764 C763 1.376 . S
C764 C765 1.388 . S
C765 H752 0.930 . S
C765 C764 1.388 . S
C765 C766 1.390 . S
C766 C765 1.390 . S
C766 C767 1.394 . S
C766 C772 1.465 . S
C767 C762 1.399 . S
C767 C766 1.394 . S
C767 C768 1.516 . S
C768 C767 1.516 . S
C768 C769 1.502 . S
C768 C770 1.561 . S
C768 C771 1.526 . S
C769 H753 0.959 . S
C769 H754 0.959 . S
C769 H755 0.961 . S
C769 C768 1.502 . S
C770 H756 0.960 . S
C770 H757 0.961 . S
C770 H758 0.959 . S
C770 C768 1.561 . S
C771 C768 1.526 . S
C771 C772 1.396 . S
C771 C776 1.390 . S
C772 C766 1.465 . S
C772 C771 1.396 . S
C772 C773 1.399 . S
C773 H759 0.929 . S
C773 C772 1.399 . S
C773 C774 1.385 . S
C774 H760 0.931 . S
C774 C773 1.385 . S
C774 C775 1.389 . S
C775 C774 1.389 . S
C775 C776 1.387 . S
C776 H761 0.930 . S
C776 C771 1.390 . S
C776 C775 1.387 . S
H777 C789 0.930 . S
H778 C791 0.930 . S
H779 C792 0.930 . S
H780 C796 0.959 . S
H781 C796 0.959 . S
H782 C796 0.961 . S
H783 C797 0.960 . S
H784 C797 0.961 . S
H785 C797 0.959 . S
H786 C800 0.929 . S
H787 C801 0.931 . S
H788 C803 0.930 . S
C789 H777 0.930 . S
C789 C790 1.399 . S
C789 C794 1.399 . S
C790 C789 1.399 . S
C790 C791 1.376 . S
C791 H778 0.930 . S
C791 C790 1.376 . S
C791 C792 1.388 . S
C792 H779 0.930 . S
C792 C791 1.388 . S
C792 C793 1.390 . S
C793 C792 1.390 . S
C793 C794 1.394 . S
C793 C799 1.465 . S
C794 C789 1.399 . S
C794 C793 1.394 . S
C794 C795 1.516 . S
C795 C794 1.516 . S
C795 C796 1.502 . S
C795 C797 1.561 . S
C795 C798 1.526 . S
C796 H780 0.959 . S
C796 H781 0.959 . S
C796 H782 0.961 . S
C796 C795 1.502 . S
C797 H783 0.960 . S
C797 H784 0.961 . S
C797 H785 0.959 . S
C797 C795 1.561 . S
C798 C795 1.526 . S
C798 C799 1.396 . S
C798 C803 1.390 . S
C799 C793 1.465 . S
C799 C798 1.396 . S
C799 C800 1.399 . S
C800 H786 0.929 . S
C800 C799 1.399 . S
C800 C801 1.385 . S
C801 H787 0.931 . S
C801 C800 1.385 . S
C801 C802 1.389 . S
C802 C801 1.389 . S
C802 C803 1.387 . S
C803 H788 0.930 . S
C803 C798 1.390 . S
C803 C802 1.387 . S
H804 C816 0.930 . S
H805 C818 0.930 . S
H806 C819 0.930 . S
H807 C823 0.959 . S
H808 C823 0.959 . S
H809 C823 0.961 . S
H810 C824 0.960 . S
H811 C824 0.961 . S
H812 C824 0.959 . S
H813 C827 0.929 . S
H814 C828 0.931 . S
H815 C830 0.930 . S
C816 H804 0.930 . S
C816 C817 1.399 . S
C816 C821 1.399 . S
C817 C816 1.399 . S
C817 C818 1.376 . S
C818 H805 0.930 . S
C818 C817 1.376 . S
C818 C819 1.388 . S
C819 H806 0.930 . S
C819 C818 1.388 . S
C819 C820 1.390 . S
C820 C819 1.390 . S
C820 C821 1.394 . S
C820 C826 1.465 . S
C821 C816 1.399 . S
C821 C820 1.394 . S
C821 C822 1.516 . S
C822 C821 1.516 . S
C822 C823 1.502 . S
C822 C824 1.561 . S
C822 C825 1.526 . S
C823 H807 0.959 . S
C823 H808 0.959 . S
C823 H809 0.961 . S
C823 C822 1.502 . S
C824 H810 0.960 . S
C824 H811 0.961 . S
C824 H812 0.959 . S
C824 C822 1.561 . S
C825 C822 1.526 . S
C825 C826 1.396 . S
C825 C830 1.390 . S
C826 C820 1.465 . S
C826 C825 1.396 . S
C826 C827 1.399 . S
C827 H813 0.929 . S
C827 C826 1.399 . S
C827 C828 1.385 . S
C828 H814 0.931 . S
C828 C827 1.385 . S
C828 C829 1.389 . S
C829 C828 1.389 . S
C829 C830 1.387 . S
C830 H815 0.930 . S
C830 C825 1.390 . S
C830 C829 1.387 . S
H831 C843 0.930 . S
H832 C845 0.930 . S
H833 C846 0.930 . S
H834 C850 0.959 . S
H835 C850 0.972 . S
H836 C850 0.961 . S
H837 C851 0.960 . S
H838 C851 0.961 . S
H839 C851 0.959 . S
H840 C854 0.929 . S
H841 C855 0.931 . S
H842 C857 0.930 . S
C843 H831 0.930 . S
C843 C844 1.399 . S
C843 C848 1.399 . S
C844 C843 1.399 . S
C844 C845 1.376 . S
C845 H832 0.930 . S
C845 C844 1.376 . S
C845 C846 1.388 . S
C846 H833 0.930 . S
C846 C845 1.388 . S
C846 C847 1.390 . S
C847 C846 1.390 . S
C847 C848 1.394 . S
C847 C853 1.465 . S
C848 C843 1.399 . S
C848 C847 1.394 . S
C848 C849 1.516 . S
C849 C848 1.516 . S
C849 C850 1.502 . S
C849 C851 1.561 . S
C849 C852 1.526 . S
C850 H834 0.959 . S
C850 H835 0.972 . S
C850 H836 0.961 . S
C850 C849 1.502 . S
C851 H837 0.960 . S
C851 H838 0.961 . S
C851 H839 0.959 . S
C851 C849 1.561 . S
C852 C849 1.526 . S
C852 C853 1.396 . S
C852 C857 1.390 . S
C853 C847 1.465 . S
C853 C852 1.396 . S
C853 C854 1.399 . S
C854 H840 0.929 . S
C854 C853 1.399 . S
C854 C855 1.385 . S
C855 H841 0.931 . S
C855 C854 1.385 . S
C855 C856 1.389 . S
C856 C855 1.389 . S
C856 C857 1.387 . S
C857 H842 0.930 . S
C857 C852 1.390 . S
C857 C856 1.387 . S
H858 C870 0.930 . S
H859 C872 0.930 . S
H860 C873 0.930 . S
H861 C877 0.959 . S
H862 C877 0.959 . S
H863 C877 0.961 . S
H864 C878 0.960 . S
H865 C878 0.961 . S
H866 C878 0.959 . S
H867 C881 0.929 . S
H868 C882 0.931 . S
H869 C884 0.930 . S
C870 H858 0.930 . S
C870 C871 1.399 . S
C870 C875 1.399 . S
C871 C870 1.399 . S
C871 C872 1.376 . S
C872 H859 0.930 . S
C872 C871 1.376 . S
C872 C873 1.388 . S
C873 H860 0.930 . S
C873 C872 1.388 . S
C873 C874 1.390 . S
C874 C873 1.390 . S
C874 C875 1.394 . S
C874 C880 1.465 . S
C875 C870 1.399 . S
C875 C874 1.394 . S
C875 C876 1.516 . S
C876 C875 1.516 . S
C876 C877 1.502 . S
C876 C878 1.561 . S
C876 C879 1.526 . S
C877 H861 0.959 . S
C877 H862 0.959 . S
C877 H863 0.961 . S
C877 C876 1.502 . S
C878 H864 0.960 . S
C878 H865 0.961 . S
C878 H866 0.959 . S
C878 C876 1.561 . S
C879 C876 1.526 . S
C879 C880 1.396 . S
C879 C884 1.390 . S
C880 C874 1.465 . S
C880 C879 1.396 . S
C880 C881 1.399 . S
C881 H867 0.929 . S
C881 C880 1.399 . S
C881 C882 1.385 . S
C882 H868 0.931 . S
C882 C881 1.385 . S
C882 C883 1.389 . S
C883 C882 1.389 . S
C883 C884 1.387 . S
C884 H869 0.930 . S
C884 C879 1.390 . S
C884 C883 1.387 . S
H885 C897 0.930 . S
H886 C899 0.930 . S
H887 C900 0.930 . S
H888 C904 0.959 . S
H889 C904 0.959 . S
H890 C904 0.961 . S
H891 C905 0.940 1_554 S
H892 C905 0.961 . S
H893 C905 0.954 1_554 S
H894 C908 0.936 1_554 S
H895 C909 0.931 1_565 S
H896 C911 0.930 . S
C897 H885 0.930 . S
C897 C898 1.399 . S
C897 C902 1.399 . S
C898 C897 1.399 . S
C898 C899 1.376 . S
C899 H886 0.930 . S
C899 C898 1.376 . S
C899 C900 1.388 . S
C900 H887 0.930 . S
C900 C899 1.388 . S
C900 C901 1.390 . S
C901 C900 1.390 . S
C901 C902 1.394 . S
C901 C907 1.465 1_554 S
C902 C897 1.399 . S
C902 C901 1.394 . S
C902 C903 1.516 1_554 S
C903 C902 1.516 1_556 S
C903 C904 1.502 . S
C903 C905 1.561 . S
C903 C906 1.526 . S
C904 H888 0.959 . S
C904 H889 0.959 . S
C904 H890 0.961 . S
C904 C903 1.502 . S
C905 H891 0.940 1_556 S
C905 H892 0.961 . S
C905 H893 0.954 1_556 S
C905 C903 1.561 . S
C906 C903 1.526 . S
C906 C907 1.396 . S
C906 C911 1.390 . S
C907 C901 1.465 1_556 S
C907 C906 1.396 . S
C907 C908 1.399 . S
C908 H894 0.936 1_556 S
C908 C907 1.399 . S
C908 C909 1.385 . S
C909 H895 0.931 1_545 S
C909 C908 1.385 . S
C909 C910 1.389 . S
C910 C909 1.389 . S
C910 C911 1.387 . S
C911 H896 0.930 . S
C911 C906 1.390 . S
C911 C910 1.387 . S
H912 C924 0.930 . S
H913 C926 0.930 . S
H914 C927 0.930 . S
H915 C931 0.959 . S
H916 C931 0.959 . S
H917 C931 0.961 . S
H918 C932 0.960 . S
H919 C932 0.961 . S
H920 C932 0.959 . S
H921 C935 0.929 . S
H922 C936 0.931 . S
H923 C938 0.930 . S
C924 H912 0.930 . S
C924 C925 1.399 . S
C924 C929 1.399 . S
C925 C924 1.399 . S
C925 C926 1.376 . S
C926 H913 0.930 . S
C926 C925 1.376 . S
C926 C927 1.388 . S
C927 H914 0.930 . S
C927 C926 1.388 . S
C927 C928 1.390 . S
C928 C927 1.390 . S
C928 C929 1.394 . S
C928 C934 1.465 . S
C929 C924 1.399 . S
C929 C928 1.394 . S
C929 C930 1.516 . S
C930 C929 1.516 . S
C930 C931 1.502 . S
C930 C932 1.561 . S
C930 C933 1.526 . S
C931 H915 0.959 . S
C931 H916 0.959 . S
C931 H917 0.961 . S
C931 C930 1.502 . S
C932 H918 0.960 . S
C932 H919 0.961 . S
C932 H920 0.959 . S
C932 C930 1.561 . S
C933 C930 1.526 . S
C933 C934 1.396 . S
C933 C938 1.390 . S
C934 C928 1.465 . S
C934 C933 1.396 . S
C934 C935 1.399 . S
C935 H921 0.929 . S
C935 C934 1.399 . S
C935 C936 1.385 . S
C936 H922 0.931 . S
C936 C935 1.385 . S
C936 C937 1.389 . S
C937 C936 1.389 . S
C937 C938 1.387 . S
C938 H923 0.930 . S
C938 C933 1.390 . S
C938 C937 1.387 . S
H939 C951 0.930 . S
H940 C953 0.930 . S
H941 C954 0.930 . S
H942 C958 0.959 . S
H943 C958 0.959 . S
H944 C958 0.961 . S
H945 C959 0.960 . S
H946 C959 0.961 . S
H947 C959 0.959 . S
H948 C962 0.929 . S
H949 C963 0.931 . S
H950 C965 0.930 . S
C951 H939 0.930 . S
C951 C952 1.399 . S
C951 C956 1.399 . S
C952 C951 1.399 . S
C952 C953 1.376 . S
C953 H940 0.930 . S
C953 C952 1.376 . S
C953 C954 1.388 . S
C954 H941 0.930 . S
C954 C953 1.388 . S
C954 C955 1.390 . S
C955 C954 1.390 . S
C955 C956 1.394 . S
C955 C961 1.465 1_554 S
C956 C951 1.399 . S
C956 C955 1.394 . S
C956 C957 1.516 1_554 S
C957 C956 1.516 1_556 S
C957 C958 1.502 . S
C957 C959 1.561 . S
C957 C960 1.526 . S
C958 H942 0.959 . S
C958 H943 0.959 . S
C958 H944 0.961 . S
C958 C957 1.502 . S
C959 H945 0.960 . S
C959 H946 0.961 . S
C959 H947 0.959 . S
C959 C957 1.561 . S
C960 C957 1.526 . S
C960 C961 1.396 . S
C960 C965 1.390 . S
C961 C955 1.465 1_556 S
C961 C960 1.396 . S
C961 C962 1.399 . S
C962 H948 0.929 . S
C962 C961 1.399 . S
C962 C963 1.385 . S
C963 H949 0.931 . S
C963 C962 1.385 . S
C963 C964 1.389 . S
C964 C963 1.389 . S
C964 C965 1.387 . S
C965 H950 0.930 . S
C965 C960 1.390 . S
C965 C964 1.387 . S
H966 C978 0.930 . S
H967 C980 0.930 . S
H968 C981 0.930 . S
H969 C985 0.959 . S
H970 C985 0.959 . S
H971 C985 0.961 . S
H972 C986 0.960 . S
H973 C986 0.961 . S
H974 C986 0.959 . S
H975 C989 0.929 . S
H976 C990 0.931 . S
H977 C992 0.930 . S
C978 H966 0.930 . S
C978 C979 1.399 . S
C978 C983 1.399 . S
C979 C978 1.399 . S
C979 C980 1.376 . S
C980 H967 0.930 . S
C980 C979 1.376 . S
C980 C981 1.388 . S
C981 H968 0.930 . S
C981 C980 1.388 . S
C981 C982 1.390 . S
C982 C981 1.390 . S
C982 C983 1.394 . S
C982 C988 1.465 . S
C983 C978 1.399 . S
C983 C982 1.394 . S
C983 C984 1.516 . S
C984 C983 1.516 . S
C984 C985 1.502 . S
C984 C986 1.561 . S
C984 C987 1.526 . S
C985 H969 0.959 . S
C985 H970 0.959 . S
C985 H971 0.961 . S
C985 C984 1.502 . S
C986 H972 0.960 . S
C986 H973 0.961 . S
C986 H974 0.959 . S
C986 C984 1.561 . S
C987 C984 1.526 . S
C987 C988 1.396 . S
C987 C992 1.390 . S
C988 C982 1.465 . S
C988 C987 1.396 . S
C988 C989 1.399 . S
C989 H975 0.929 . S
C989 C988 1.399 . S
C989 C990 1.385 . S
C990 H976 0.931 . S
C990 C989 1.385 . S
C990 C991 1.389 . S
C991 C990 1.389 . S
C991 C992 1.387 . S
C992 H977 0.930 . S
C992 C987 1.390 . S
C992 C991 1.387 . S
H993 C1005 0.930 . S
H994 C1007 0.930 . S
H995 C1008 0.930 . S
H996 C1012 0.959 . S
H997 C1012 0.959 . S
H998 C1012 0.961 . S
H999 C1013 0.960 . S
H1000 C1013 0.961 . S
H1001 C1013 0.959 . S
H1002 C1016 0.929 . S
H1003 C1017 0.931 . S
H1004 C1019 0.930 . S
C1005 H993 0.930 . S
C1005 C1006 1.399 . S
C1005 C1010 1.399 . S
C1006 C1005 1.399 . S
C1006 C1007 1.376 . S
C1007 H994 0.930 . S
C1007 C1006 1.376 . S
C1007 C1008 1.388 . S
C1008 H995 0.930 . S
C1008 C1007 1.388 . S
C1008 C1009 1.390 . S
C1009 C1008 1.390 . S
C1009 C1010 1.394 . S
C1009 C1015 1.465 . S
C1010 C1005 1.399 . S
C1010 C1009 1.394 . S
C1010 C1011 1.516 . S
C1011 C1010 1.516 . S
C1011 C1012 1.502 . S
C1011 C1013 1.561 . S
C1011 C1014 1.526 . S
C1012 H996 0.959 . S
C1012 H997 0.959 . S
C1012 H998 0.961 . S
C1012 C1011 1.502 . S
C1013 H999 0.960 . S
C1013 H1000 0.961 . S
C1013 H1001 0.959 . S
C1013 C1011 1.561 . S
C1014 C1011 1.526 . S
C1014 C1015 1.396 . S
C1014 C1019 1.390 . S
C1015 C1009 1.465 . S
C1015 C1014 1.396 . S
C1015 C1016 1.399 . S
C1016 H1002 0.929 . S
C1016 C1015 1.399 . S
C1016 C1017 1.385 . S
C1017 H1003 0.931 . S
C1017 C1016 1.385 . S
C1017 C1018 1.389 . S
C1018 C1017 1.389 . S
C1018 C1019 1.387 . S
C1019 H1004 0.930 . S
C1019 C1014 1.390 . S
C1019 C1018 1.387 . S
H1020 C1032 0.930 . S
H1021 C1034 0.930 . S
H1022 C1035 0.930 . S
H1023 C1039 0.959 . S
H1024 C1039 0.959 . S
H1025 C1039 0.961 . S
H1026 C1040 0.960 . S
H1027 C1040 0.961 . S
H1028 C1040 0.959 . S
H1029 C1043 0.929 . S
H1030 C1044 0.931 . S
H1031 C1046 0.930 . S
C1032 H1020 0.930 . S
C1032 C1033 1.399 . S
C1032 C1037 1.399 . S
C1033 C1032 1.399 . S
C1033 C1034 1.376 . S
C1034 H1021 0.930 . S
C1034 C1033 1.376 . S
C1034 C1035 1.388 . S
C1035 H1022 0.930 . S
C1035 C1034 1.388 . S
C1035 C1036 1.390 . S
C1036 C1035 1.390 . S
C1036 C1037 1.394 . S
C1036 C1042 1.465 . S
C1037 C1032 1.399 . S
C1037 C1036 1.394 . S
C1037 C1038 1.516 . S
C1038 C1037 1.516 . S
C1038 C1039 1.502 . S
C1038 C1040 1.561 . S
C1038 C1041 1.526 . S
C1039 H1023 0.959 . S
C1039 H1024 0.959 . S
C1039 H1025 0.961 . S
C1039 C1038 1.502 . S
C1040 H1026 0.960 . S
C1040 H1027 0.961 . S
C1040 H1028 0.959 . S
C1040 C1038 1.561 . S
C1041 C1038 1.526 . S
C1041 C1042 1.396 . S
C1041 C1046 1.390 . S
C1042 C1036 1.465 . S
C1042 C1041 1.396 . S
C1042 C1043 1.399 . S
C1043 H1029 0.929 . S
C1043 C1042 1.399 . S
C1043 C1044 1.385 . S
C1044 H1030 0.931 . S
C1044 C1043 1.385 . S
C1044 C1045 1.389 . S
C1045 C1044 1.389 . S
C1045 C1046 1.387 . S
C1046 H1031 0.930 . S
C1046 C1041 1.390 . S
C1046 C1045 1.387 . S
H1047 C1059 0.930 . S
H1048 C1061 0.930 . S
H1049 C1062 0.930 . S
H1050 C1066 0.959 . S
H1051 C1066 0.959 . S
H1052 C1066 0.961 1_545 S
H1053 C1067 0.960 . S
H1054 C1067 0.961 . S
H1055 C1067 0.959 . S
H1056 C1070 0.929 . S
H1057 C1071 0.929 . S
H1058 C1073 0.930 . S
C1059 H1047 0.930 . S
C1059 C1060 1.399 . S
C1059 C1064 1.399 . S
C1060 C1059 1.399 . S
C1060 C1061 1.376 . S
C1061 H1048 0.930 . S
C1061 C1060 1.376 . S
C1061 C1062 1.388 . S
C1062 H1049 0.930 . S
C1062 C1061 1.388 . S
C1062 C1063 1.390 . S
C1063 C1062 1.390 . S
C1063 C1064 1.394 . S
C1063 C1069 1.465 1_545 S
C1064 C1059 1.399 . S
C1064 C1063 1.394 . S
C1064 C1065 1.516 . S
C1065 C1064 1.516 . S
C1065 C1066 1.502 1_545 S
C1065 C1067 1.561 . S
C1065 C1068 1.526 1_545 S
C1066 H1050 0.959 . S
C1066 H1051 0.959 . S
C1066 H1052 0.961 1_565 S
C1066 C1065 1.502 1_565 S
C1067 H1053 0.960 . S
C1067 H1054 0.961 . S
C1067 H1055 0.959 . S
C1067 C1065 1.561 . S
C1068 C1065 1.526 1_565 S
C1068 C1069 1.396 . S
C1068 C1073 1.390 . S
C1069 C1063 1.465 1_565 S
C1069 C1068 1.396 . S
C1069 C1070 1.399 . S
C1070 H1056 0.929 . S
C1070 C1069 1.399 . S
C1070 C1071 1.385 . S
C1071 H1057 0.929 . S
C1071 C1070 1.385 . S
C1071 C1072 1.389 . S
C1072 C1071 1.389 . S
C1072 C1073 1.387 . S
C1073 H1058 0.930 . S
C1073 C1068 1.390 . S
C1073 C1072 1.387 . S
H1074 C1086 0.930 . S
H1075 C1088 0.930 . S
H1076 C1089 0.930 . S
H1077 C1093 0.959 . S
H1078 C1093 0.959 . S
H1079 C1093 0.961 . S
H1080 C1094 0.960 . S
H1081 C1094 0.961 . S
H1082 C1094 0.959 . S
H1083 C1097 0.929 . S
H1084 C1098 0.931 . S
H1085 C1100 0.930 . S
C1086 H1074 0.930 . S
C1086 C1087 1.399 . S
C1086 C1091 1.399 . S
C1087 C1086 1.399 . S
C1087 C1088 1.376 . S
C1088 H1075 0.930 . S
C1088 C1087 1.376 . S
C1088 C1089 1.388 . S
C1089 H1076 0.930 . S
C1089 C1088 1.388 . S
C1089 C1090 1.390 . S
C1090 C1089 1.390 . S
C1090 C1091 1.394 . S
C1090 C1096 1.465 . S
C1091 C1086 1.399 . S
C1091 C1090 1.394 . S
C1091 C1092 1.516 . S
C1092 C1091 1.516 . S
C1092 C1093 1.502 . S
C1092 C1094 1.561 . S
C1092 C1095 1.526 . S
C1093 H1077 0.959 . S
C1093 H1078 0.959 . S
C1093 H1079 0.961 . S
C1093 C1092 1.502 . S
C1094 H1080 0.960 . S
C1094 H1081 0.961 . S
C1094 H1082 0.959 . S
C1094 C1092 1.561 . S
C1095 C1092 1.526 . S
C1095 C1096 1.396 . S
C1095 C1100 1.390 . S
C1096 C1090 1.465 . S
C1096 C1095 1.396 . S
C1096 C1097 1.399 . S
C1097 H1083 0.929 . S
C1097 C1096 1.399 . S
C1097 C1098 1.385 . S
C1098 H1084 0.931 . S
C1098 C1097 1.385 . S
C1098 C1099 1.389 . S
C1099 C1098 1.389 . S
C1099 C1100 1.387 . S
C1100 H1085 0.930 . S
C1100 C1095 1.390 . S
C1100 C1099 1.387 . S
H1101 C1113 0.930 . S
H1102 C1115 0.930 . S
H1103 C1116 0.930 . S
H1104 C1120 0.959 . S
H1105 C1120 0.959 . S
H1106 C1120 0.961 . S
H1107 C1121 0.960 . S
H1108 C1121 0.961 . S
H1109 C1121 0.959 . S
H1110 C1124 0.911 1_545 S
H1111 C1125 0.931 . S
H1112 C1127 0.930 . S
C1113 H1101 0.930 . S
C1113 C1114 1.399 . S
C1113 C1118 1.399 . S
C1114 C1113 1.399 . S
C1114 C1115 1.376 . S
C1115 H1102 0.930 . S
C1115 C1114 1.376 . S
C1115 C1116 1.388 . S
C1116 H1103 0.930 . S
C1116 C1115 1.388 . S
C1116 C1117 1.390 . S
C1117 C1116 1.390 . S
C1117 C1118 1.394 . S
C1117 C1123 1.465 . S
C1118 C1113 1.399 . S
C1118 C1117 1.394 . S
C1118 C1119 1.516 1_545 S
C1119 C1118 1.516 1_565 S
C1119 C1120 1.502 . S
C1119 C1121 1.561 . S
C1119 C1122 1.526 . S
C1120 H1104 0.959 . S
C1120 H1105 0.959 . S
C1120 H1106 0.961 . S
C1120 C1119 1.502 . S
C1121 H1107 0.960 . S
C1121 H1108 0.961 . S
C1121 H1109 0.959 . S
C1121 C1119 1.561 . S
C1122 C1119 1.526 . S
C1122 C1123 1.396 1_565 S
C1122 C1127 1.390 . S
C1123 C1117 1.465 . S
C1123 C1122 1.396 1_545 S
C1123 C1124 1.397 1_545 S
C1124 H1110 0.911 1_565 S
C1124 C1123 1.397 1_565 S
C1124 C1125 1.406 . S
C1125 H1111 0.931 . S
C1125 C1124 1.406 . S
C1125 C1126 1.389 . S
C1126 C1125 1.389 . S
C1126 C1127 1.387 . S
C1127 H1112 0.930 . S
C1127 C1122 1.390 . S
C1127 C1126 1.387 . S
H1128 C1140 0.930 . S
H1129 C1142 0.930 . S
H1130 C1143 0.930 . S
H1131 C1147 0.959 . S
H1132 C1147 0.959 . S
H1133 C1147 0.961 . S
H1134 C1148 0.960 . S
H1135 C1148 0.961 . S
H1136 C1148 0.959 . S
H1137 C1151 0.929 . S
H1138 C1152 0.931 . S
H1139 C1154 0.930 . S
C1140 H1128 0.930 . S
C1140 C1141 1.399 . S
C1140 C1145 1.399 . S
C1141 C1140 1.399 . S
C1141 C1142 1.376 . S
C1142 H1129 0.930 . S
C1142 C1141 1.376 . S
C1142 C1143 1.388 . S
C1143 H1130 0.930 . S
C1143 C1142 1.388 . S
C1143 C1144 1.390 . S
C1144 C1143 1.390 . S
C1144 C1145 1.394 . S
C1144 C1150 1.465 . S
C1145 C1140 1.399 . S
C1145 C1144 1.394 . S
C1145 C1146 1.516 . S
C1146 C1145 1.516 . S
C1146 C1147 1.502 . S
C1146 C1148 1.561 . S
C1146 C1149 1.526 . S
C1147 H1131 0.959 . S
C1147 H1132 0.959 . S
C1147 H1133 0.961 . S
C1147 C1146 1.502 . S
C1148 H1134 0.960 . S
C1148 H1135 0.961 . S
C1148 H1136 0.959 . S
C1148 C1146 1.561 . S
C1149 C1146 1.526 . S
C1149 C1150 1.396 . S
C1149 C1154 1.390 . S
C1150 C1144 1.465 . S
C1150 C1149 1.396 . S
C1150 C1151 1.399 . S
C1151 H1137 0.929 . S
C1151 C1150 1.399 . S
C1151 C1152 1.385 . S
C1152 H1138 0.931 . S
C1152 C1151 1.385 . S
C1152 C1153 1.389 . S
C1153 C1152 1.389 . S
C1153 C1154 1.387 . S
C1154 H1139 0.930 . S
C1154 C1149 1.390 . S
C1154 C1153 1.387 . S
H1155 C1167 0.930 . S
H1156 C1169 0.930 . S
H1157 C1170 0.930 . S
H1158 C1174 0.959 . S
H1159 C1174 0.959 . S
H1160 C1174 0.961 . S
H1161 C1175 0.960 . S
H1162 C1175 0.961 . S
H1163 C1175 0.959 . S
H1164 C1178 0.929 . S
H1165 C1179 0.931 . S
H1166 C1181 0.930 . S
C1167 H1155 0.930 . S
C1167 C1168 1.399 . S
C1167 C1172 1.399 . S
C1168 C1167 1.399 . S
C1168 C1169 1.376 . S
C1169 H1156 0.930 . S
C1169 C1168 1.376 . S
C1169 C1170 1.388 . S
C1170 H1157 0.930 . S
C1170 C1169 1.388 . S
C1170 C1171 1.390 . S
C1171 C1170 1.390 . S
C1171 C1172 1.394 . S
C1171 C1177 1.465 . S
C1172 C1167 1.399 . S
C1172 C1171 1.394 . S
C1172 C1173 1.516 . S
C1173 C1172 1.516 . S
C1173 C1174 1.502 . S
C1173 C1175 1.561 . S
C1173 C1176 1.526 . S
C1174 H1158 0.959 . S
C1174 H1159 0.959 . S
C1174 H1160 0.961 . S
C1174 C1173 1.502 . S
C1175 H1161 0.960 . S
C1175 H1162 0.961 . S
C1175 H1163 0.959 . S
C1175 C1173 1.561 . S
C1176 C1173 1.526 . S
C1176 C1177 1.396 . S
C1176 C1181 1.390 . S
C1177 C1171 1.465 . S
C1177 C1176 1.396 . S
C1177 C1178 1.399 . S
C1178 H1164 0.929 . S
C1178 C1177 1.399 . S
C1178 C1179 1.385 . S
C1179 H1165 0.931 . S
C1179 C1178 1.385 . S
C1179 C1180 1.389 . S
C1180 C1179 1.389 . S
C1180 C1181 1.387 . S
C1181 H1166 0.930 . S
C1181 C1176 1.390 . S
C1181 C1180 1.387 . S
H1182 C1194 0.930 . S
H1183 C1196 0.930 . S
H1184 C1197 0.930 . S
H1185 C1201 0.959 . S
H1186 C1201 0.959 . S
H1187 C1201 0.961 . S
H1188 C1202 0.960 . S
H1189 C1202 0.961 . S
H1190 C1202 0.959 . S
H1191 C1205 0.929 . S
H1192 C1206 0.931 . S
H1193 C1208 0.930 . S
C1194 H1182 0.930 . S
C1194 C1195 1.399 . S
C1194 C1199 1.399 . S
C1195 C1194 1.399 . S
C1195 C1196 1.376 . S
C1196 H1183 0.930 . S
C1196 C1195 1.376 . S
C1196 C1197 1.388 . S
C1197 H1184 0.930 . S
C1197 C1196 1.388 . S
C1197 C1198 1.390 . S
C1198 C1197 1.390 . S
C1198 C1199 1.394 . S
C1198 C1204 1.465 . S
C1199 C1194 1.399 . S
C1199 C1198 1.394 . S
C1199 C1200 1.516 . S
C1200 C1199 1.516 . S
C1200 C1201 1.502 . S
C1200 C1202 1.561 . S
C1200 C1203 1.526 . S
C1201 H1185 0.959 . S
C1201 H1186 0.959 . S
C1201 H1187 0.961 . S
C1201 C1200 1.502 . S
C1202 H1188 0.960 . S
C1202 H1189 0.961 . S
C1202 H1190 0.959 . S
C1202 C1200 1.561 . S
C1203 C1200 1.526 . S
C1203 C1204 1.396 . S
C1203 C1208 1.390 . S
C1204 C1198 1.465 . S
C1204 C1203 1.396 . S
C1204 C1205 1.399 . S
C1205 H1191 0.929 . S
C1205 C1204 1.399 . S
C1205 C1206 1.385 . S
C1206 H1192 0.931 . S
C1206 C1205 1.385 . S
C1206 C1207 1.389 . S
C1207 C1206 1.389 . S
C1207 C1208 1.387 . S
C1208 H1193 0.930 . S
C1208 C1203 1.390 . S
C1208 C1207 1.387 . S
H1209 C1221 0.930 . S
H1210 C1223 0.930 . S
H1211 C1224 0.930 . S
H1212 C1228 0.959 . S
H1213 C1228 0.959 . S
H1214 C1228 0.961 . S
H1215 C1229 0.960 . S
H1216 C1229 0.961 . S
H1217 C1229 0.959 . S
H1218 C1232 0.929 . S
H1219 C1233 0.931 . S
H1220 C1235 0.930 . S
C1221 H1209 0.930 . S
C1221 C1222 1.399 . S
C1221 C1226 1.399 . S
C1222 C1221 1.399 . S
C1222 C1223 1.376 . S
C1223 H1210 0.930 . S
C1223 C1222 1.376 . S
C1223 C1224 1.388 . S
C1224 H1211 0.930 . S
C1224 C1223 1.388 . S
C1224 C1225 1.390 . S
C1225 C1224 1.390 . S
C1225 C1226 1.394 . S
C1225 C1231 1.465 . S
C1226 C1221 1.399 . S
C1226 C1225 1.394 . S
C1226 C1227 1.516 . S
C1227 C1226 1.516 . S
C1227 C1228 1.502 . S
C1227 C1229 1.561 . S
C1227 C1230 1.526 . S
C1228 H1212 0.959 . S
C1228 H1213 0.959 . S
C1228 H1214 0.961 . S
C1228 C1227 1.502 . S
C1229 H1215 0.960 . S
C1229 H1216 0.961 . S
C1229 H1217 0.959 . S
C1229 C1227 1.561 . S
C1230 C1227 1.526 . S
C1230 C1231 1.396 . S
C1230 C1235 1.390 . S
C1231 C1225 1.465 . S
C1231 C1230 1.396 . S
C1231 C1232 1.399 . S
C1232 H1218 0.929 . S
C1232 C1231 1.399 . S
C1232 C1233 1.385 . S
C1233 H1219 0.931 . S
C1233 C1232 1.385 . S
C1233 C1234 1.389 . S
C1234 C1233 1.389 . S
C1234 C1235 1.387 . S
C1235 H1220 0.930 . S
C1235 C1230 1.390 . S
C1235 C1234 1.387 . S
H1236 C1248 0.930 . S
H1237 C1250 0.930 . S
H1238 C1251 0.930 . S
H1239 C1255 0.959 . S
H1240 C1255 0.959 . S
H1241 C1255 0.961 . S
H1242 C1256 0.960 . S
H1243 C1256 0.961 . S
H1244 C1256 0.959 . S
H1245 C1259 0.929 . S
H1246 C1260 0.931 . S
H1247 C1262 0.930 . S
C1248 H1236 0.930 . S
C1248 C1249 1.399 . S
C1248 C1253 1.399 . S
C1249 C1248 1.399 . S
C1249 C1250 1.376 . S
C1250 H1237 0.930 . S
C1250 C1249 1.376 . S
C1250 C1251 1.388 . S
C1251 H1238 0.930 . S
C1251 C1250 1.388 . S
C1251 C1252 1.390 . S
C1252 C1251 1.390 . S
C1252 C1253 1.394 . S
C1252 C1258 1.465 . S
C1253 C1248 1.399 . S
C1253 C1252 1.394 . S
C1253 C1254 1.516 . S
C1254 C1253 1.516 . S
C1254 C1255 1.502 . S
C1254 C1256 1.561 . S
C1254 C1257 1.526 . S
C1255 H1239 0.959 . S
C1255 H1240 0.959 . S
C1255 H1241 0.961 . S
C1255 C1254 1.502 . S
C1256 H1242 0.960 . S
C1256 H1243 0.961 . S
C1256 H1244 0.959 . S
C1256 C1254 1.561 . S
C1257 C1254 1.526 . S
C1257 C1258 1.396 . S
C1257 C1262 1.390 . S
C1258 C1252 1.465 . S
C1258 C1257 1.396 . S
C1258 C1259 1.399 . S
C1259 H1245 0.929 . S
C1259 C1258 1.399 . S
C1259 C1260 1.385 . S
C1260 H1246 0.931 . S
C1260 C1259 1.385 . S
C1260 C1261 1.389 . S
C1261 C1260 1.389 . S
C1261 C1262 1.387 . S
C1262 H1247 0.930 . S
C1262 C1257 1.390 . S
C1262 C1261 1.387 . S
H1263 C1275 0.930 . S
H1264 C1277 0.930 . S
H1265 C1278 0.930 . S
H1266 C1282 0.959 . S
H1267 C1282 0.959 . S
H1268 C1282 0.961 . S
H1269 C1283 0.960 . S
H1270 C1283 0.961 . S
H1271 C1283 0.959 . S
H1272 C1286 0.929 . S
H1273 C1287 0.931 . S
H1274 C1289 0.930 . S
C1275 H1263 0.930 . S
C1275 C1276 1.399 . S
C1275 C1280 1.399 . S
C1276 C1275 1.399 . S
C1276 C1277 1.376 . S
C1277 H1264 0.930 . S
C1277 C1276 1.376 . S
C1277 C1278 1.388 . S
C1278 H1265 0.930 . S
C1278 C1277 1.388 . S
C1278 C1279 1.390 . S
C1279 C1278 1.390 . S
C1279 C1280 1.394 . S
C1279 C1285 1.465 . S
C1280 C1275 1.399 . S
C1280 C1279 1.394 . S
C1280 C1281 1.516 . S
C1281 C1280 1.516 . S
C1281 C1282 1.502 . S
C1281 C1283 1.561 . S
C1281 C1284 1.526 . S
C1282 H1266 0.959 . S
C1282 H1267 0.959 . S
C1282 H1268 0.961 . S
C1282 C1281 1.502 . S
C1283 H1269 0.960 . S
C1283 H1270 0.961 . S
C1283 H1271 0.959 . S
C1283 C1281 1.561 . S
C1284 C1281 1.526 . S
C1284 C1285 1.396 . S
C1284 C1289 1.390 . S
C1285 C1279 1.465 . S
C1285 C1284 1.396 . S
C1285 C1286 1.399 . S
C1286 H1272 0.929 . S
C1286 C1285 1.399 . S
C1286 C1287 1.385 . S
C1287 H1273 0.931 . S
C1287 C1286 1.385 . S
C1287 C1288 1.389 . S
C1288 C1287 1.389 . S
C1288 C1289 1.387 . S
C1289 H1274 0.930 . S
C1289 C1284 1.390 . S
C1289 C1288 1.387 . S
H1290 C1302 0.930 . S
H1291 C1304 0.930 . S
H1292 C1305 0.930 . S
H1293 C1309 0.959 . S
H1294 C1309 0.959 . S
H1295 C1309 0.961 1_455 S
H1296 C1310 0.960 . S
H1297 C1310 0.961 1_655 S
H1298 C1310 0.959 . S
H1299 C1313 0.929 1_556 S
H1300 C1314 0.931 1_556 S
H1301 C1316 0.930 . S
C1302 H1290 0.930 . S
C1302 C1303 1.399 . S
C1302 C1307 1.399 . S
C1303 C1302 1.399 . S
C1303 C1304 1.376 . S
C1304 H1291 0.930 . S
C1304 C1303 1.376 . S
C1304 C1305 1.388 . S
C1305 H1292 0.930 . S
C1305 C1304 1.388 . S
C1305 C1306 1.390 . S
C1306 C1305 1.390 . S
C1306 C1307 1.394 . S
C1306 C1312 1.465 1_455 S
C1307 C1302 1.399 . S
C1307 C1306 1.394 . S
C1307 C1308 1.516 1_455 S
C1308 C1307 1.516 1_655 S
C1308 C1309 1.502 . S
C1308 C1310 1.561 1_655 S
C1308 C1311 1.526 . S
C1309 H1293 0.959 . S
C1309 H1294 0.959 . S
C1309 H1295 0.961 1_655 S
C1309 C1308 1.502 . S
C1310 H1296 0.960 . S
C1310 H1297 0.961 1_455 S
C1310 H1298 0.959 . S
C1310 C1308 1.561 1_455 S
C1311 C1308 1.526 . S
C1311 C1312 1.396 . S
C1311 C1316 1.390 . S
C1312 C1306 1.465 1_655 S
C1312 C1311 1.396 . S
C1312 C1313 1.399 . S
C1313 H1299 0.929 1_554 S
C1313 C1312 1.399 . S
C1313 C1314 1.385 . S
C1314 H1300 0.931 1_554 S
C1314 C1313 1.385 . S
C1314 C1315 1.389 . S
C1315 C1314 1.389 . S
C1315 C1316 1.387 . S
C1316 H1301 0.930 . S
C1316 C1311 1.390 . S
C1316 C1315 1.387 . S
H1317 C1329 0.930 . S
H1318 C1331 0.930 . S
H1319 C1332 0.930 . S
H1320 C1336 0.959 . S
H1321 C1336 0.959 . S
H1322 C1336 0.961 . S
H1323 C1337 0.960 . S
H1324 C1337 0.961 . S
H1325 C1337 0.959 . S
H1326 C1340 0.929 . S
H1327 C1341 0.931 . S
H1328 C1343 0.930 . S
C1329 H1317 0.930 . S
C1329 C1330 1.399 . S
C1329 C1334 1.399 . S
C1330 C1329 1.399 . S
C1330 C1331 1.376 . S
C1331 H1318 0.930 . S
C1331 C1330 1.376 . S
C1331 C1332 1.388 . S
C1332 H1319 0.930 . S
C1332 C1331 1.388 . S
C1332 C1333 1.390 . S
C1333 C1332 1.390 . S
C1333 C1334 1.394 . S
C1333 C1339 1.465 . S
C1334 C1329 1.399 . S
C1334 C1333 1.394 . S
C1334 C1335 1.516 . S
C1335 C1334 1.516 . S
C1335 C1336 1.502 . S
C1335 C1337 1.561 . S
C1335 C1338 1.526 . S
C1336 H1320 0.959 . S
C1336 H1321 0.959 . S
C1336 H1322 0.961 . S
C1336 C1335 1.502 . S
C1337 H1323 0.960 . S
C1337 H1324 0.961 . S
C1337 H1325 0.959 . S
C1337 C1335 1.561 . S
C1338 C1335 1.526 . S
C1338 C1339 1.396 . S
C1338 C1343 1.390 . S
C1339 C1333 1.465 . S
C1339 C1338 1.396 . S
C1339 C1340 1.399 . S
C1340 H1326 0.929 . S
C1340 C1339 1.399 . S
C1340 C1341 1.385 . S
C1341 H1327 0.931 . S
C1341 C1340 1.385 . S
C1341 C1342 1.389 . S
C1342 C1341 1.389 . S
C1342 C1343 1.387 . S
C1343 H1328 0.930 . S
C1343 C1338 1.390 . S
C1343 C1342 1.387 . S
H1344 C1356 0.930 . S
H1345 C1358 0.930 . S
H1346 C1359 0.930 . S
H1347 C1363 0.959 . S
H1348 C1363 0.959 . S
H1349 C1363 0.961 . S
H1350 C1364 0.960 . S
H1351 C1364 0.961 . S
H1352 C1364 0.959 . S
H1353 C1367 0.929 . S
H1354 C1368 0.931 . S
H1355 C1370 0.930 . S
C1356 H1344 0.930 . S
C1356 C1357 1.399 . S
C1356 C1361 1.399 . S
C1357 C1356 1.399 . S
C1357 C1358 1.376 . S
C1358 H1345 0.930 . S
C1358 C1357 1.376 . S
C1358 C1359 1.388 . S
C1359 H1346 0.930 . S
C1359 C1358 1.388 . S
C1359 C1360 1.390 . S
C1360 C1359 1.390 . S
C1360 C1361 1.394 . S
C1360 C1366 1.465 . S
C1361 C1356 1.399 . S
C1361 C1360 1.394 . S
C1361 C1362 1.516 . S
C1362 C1361 1.516 . S
C1362 C1363 1.502 . S
C1362 C1364 1.561 . S
C1362 C1365 1.526 . S
C1363 H1347 0.959 . S
C1363 H1348 0.959 . S
C1363 H1349 0.961 . S
C1363 C1362 1.502 . S
C1364 H1350 0.960 . S
C1364 H1351 0.961 . S
C1364 H1352 0.959 . S
C1364 C1362 1.561 . S
C1365 C1362 1.526 . S
C1365 C1366 1.396 . S
C1365 C1370 1.390 . S
C1366 C1360 1.465 . S
C1366 C1365 1.396 . S
C1366 C1367 1.399 . S
C1367 H1353 0.929 . S
C1367 C1366 1.399 . S
C1367 C1368 1.385 . S
C1368 H1354 0.931 . S
C1368 C1367 1.385 . S
C1368 C1369 1.389 . S
C1369 C1368 1.389 . S
C1369 C1370 1.387 . S
C1370 H1355 0.930 . S
C1370 C1365 1.390 . S
C1370 C1369 1.387 . S
H1371 C1383 0.930 . S
H1372 C1385 0.930 . S
H1373 C1386 0.930 . S
H1374 C1390 0.959 . S
H1375 C1390 0.959 . S
H1376 C1390 0.961 . S
H1377 C1391 0.960 . S
H1378 C1391 0.961 . S
H1379 C1391 0.959 . S
H1380 C1394 0.929 . S
H1381 C1395 0.931 . S
H1382 C1397 0.930 . S
C1383 H1371 0.930 . S
C1383 C1384 1.399 . S
C1383 C1388 1.399 . S
C1384 C1383 1.399 . S
C1384 C1385 1.376 . S
C1385 H1372 0.930 . S
C1385 C1384 1.376 . S
C1385 C1386 1.388 . S
C1386 H1373 0.930 . S
C1386 C1385 1.388 . S
C1386 C1387 1.390 . S
C1387 C1386 1.390 . S
C1387 C1388 1.394 . S
C1387 C1393 1.465 . S
C1388 C1383 1.399 . S
C1388 C1387 1.394 . S
C1388 C1389 1.516 . S
C1389 C1388 1.516 . S
C1389 C1390 1.502 . S
C1389 C1391 1.561 . S
C1389 C1392 1.526 . S
C1390 H1374 0.959 . S
C1390 H1375 0.959 . S
C1390 H1376 0.961 . S
C1390 C1389 1.502 . S
C1391 H1377 0.960 . S
C1391 H1378 0.961 . S
C1391 H1379 0.959 . S
C1391 C1389 1.561 . S
C1392 C1389 1.526 . S
C1392 C1393 1.396 . S
C1392 C1397 1.390 . S
C1393 C1387 1.465 . S
C1393 C1392 1.396 . S
C1393 C1394 1.399 . S
C1394 H1380 0.929 . S
C1394 C1393 1.399 . S
C1394 C1395 1.385 . S
C1395 H1381 0.931 . S
C1395 C1394 1.385 . S
C1395 C1396 1.389 . S
C1396 C1395 1.389 . S
C1396 C1397 1.387 . S
C1397 H1382 0.930 . S
C1397 C1392 1.390 . S
C1397 C1396 1.387 . S
H1398 C1410 0.930 . S
H1399 C1412 0.930 1_554 S
H1400 C1413 0.930 1_554 S
H1401 C1417 0.959 . S
H1402 C1417 0.959 . S
H1403 C1417 0.961 . S
H1404 C1418 0.960 . S
H1405 C1418 0.961 . S
H1406 C1418 0.959 . S
H1407 C1421 0.929 . S
H1408 C1422 0.931 . S
H1409 C1424 0.930 . S
C1410 H1398 0.930 . S
C1410 C1411 1.399 . S
C1410 C1415 1.399 . S
C1411 C1410 1.399 . S
C1411 C1412 1.376 . S
C1412 H1399 0.930 1_556 S
C1412 C1411 1.376 . S
C1412 C1413 1.388 . S
C1413 H1400 0.930 1_556 S
C1413 C1412 1.388 . S
C1413 C1414 1.390 . S
C1414 C1413 1.390 . S
C1414 C1415 1.394 . S
C1414 C1420 1.465 . S
C1415 C1410 1.399 . S
C1415 C1414 1.394 . S
C1415 C1416 1.516 . S
C1416 C1415 1.516 . S
C1416 C1417 1.502 . S
C1416 C1418 1.561 . S
C1416 C1419 1.526 . S
C1417 H1401 0.959 . S
C1417 H1402 0.959 . S
C1417 H1403 0.961 . S
C1417 C1416 1.502 . S
C1418 H1404 0.960 . S
C1418 H1405 0.961 . S
C1418 H1406 0.959 . S
C1418 C1416 1.561 . S
C1419 C1416 1.526 . S
C1419 C1420 1.396 . S
C1419 C1424 1.390 . S
C1420 C1414 1.465 . S
C1420 C1419 1.396 . S
C1420 C1421 1.399 . S
C1421 H1407 0.929 . S
C1421 C1420 1.399 . S
C1421 C1422 1.385 . S
C1422 H1408 0.931 . S
C1422 C1421 1.385 . S
C1422 C1423 1.389 . S
C1423 C1422 1.389 . S
C1423 C1424 1.387 . S
C1424 H1409 0.930 . S
C1424 C1419 1.390 . S
C1424 C1423 1.387 . S
H1425 C1437 0.930 . S
H1426 C1439 0.930 . S
H1427 C1440 0.930 . S
H1428 C1444 0.959 . S
H1429 C1444 0.959 . S
H1430 C1444 0.961 . S
H1431 C1445 0.960 . S
H1432 C1445 0.950 1_455 S
H1433 C1445 0.959 . S
H1434 C1448 0.934 . S
H1435 C1449 0.931 . S
H1436 C1451 0.930 . S
C1437 H1425 0.930 . S
C1437 C1438 1.399 . S
C1437 C1442 1.399 . S
C1438 C1437 1.399 . S
C1438 C1439 1.376 . S
C1439 H1426 0.930 . S
C1439 C1438 1.376 . S
C1439 C1440 1.388 . S
C1440 H1427 0.930 . S
C1440 C1439 1.388 . S
C1440 C1441 1.390 . S
C1441 C1440 1.390 . S
C1441 C1442 1.394 . S
C1441 C1447 1.465 . S
C1442 C1437 1.399 . S
C1442 C1441 1.394 . S
C1442 C1443 1.516 . S
C1443 C1442 1.516 . S
C1443 C1444 1.502 . S
C1443 C1445 1.561 . S
C1443 C1446 1.526 . S
C1444 H1428 0.959 . S
C1444 H1429 0.959 . S
C1444 H1430 0.961 . S
C1444 C1443 1.502 . S
C1445 H1431 0.960 . S
C1445 H1432 0.950 1_655 S
C1445 H1433 0.959 . S
C1445 C1443 1.561 . S
C1446 C1443 1.526 . S
C1446 C1447 1.396 . S
C1446 C1451 1.390 1_655 S
C1447 C1441 1.465 . S
C1447 C1446 1.396 . S
C1447 C1448 1.408 . S
C1448 H1434 0.934 . S
C1448 C1447 1.408 . S
C1448 C1449 1.371 1_655 S
C1449 H1435 0.931 . S
C1449 C1448 1.371 1_455 S
C1449 C1450 1.389 . S
C1450 C1449 1.389 . S
C1450 C1451 1.387 . S
C1451 H1436 0.930 . S
C1451 C1446 1.390 1_455 S
C1451 C1450 1.387 . S
C493 C12 1.482 . S
C505 C452 1.491 . S
C520 C372 1.775 . S
C532 C42 1.800 . S
C547 C92 1.603 . S
C559 C332 1.628 . S
C574 C122 1.873 . S
C586 C402 1.871 . S
C601 C162 1.851 . S
C613 C412 1.808 . S
C628 C212 1.283 . S
C640 C442 1.303 . S
C655 C362 1.957 . S
C667 C242 1.969 . S
C682 C292 1.296 . S
C694 C322 1.333 . S
C709 C132 1.619 . S
C721 C172 1.621 . S
C736 C2 1.565 . S
C748 C202 1.563 . S
C763 C52 1.651 . S
C775 C252 1.634 . S
C790 C282 1.797 . S
C802 C82 1.786 . S
C817 C29 2.015 . S
C829 C351 2.041 . S
C844 C48 1.150 . S
C856 C417 1.101 . S
C871 C471 2.103 . S
C883 C109 1.982 . S
C898 C128 1.423 . S
C910 C391 1.398 . S
C925 C168 1.270 . S
C937 C377 1.187 . S
C952 C337 1.845 . S
C964 C229 1.916 . S
C979 C431 1.498 . S
C991 C248 1.520 . S
C1006 C457 1.907 . S
C1018 C309 1.883 . S
C1033 C17 1.239 . S
C1045 C149 1.366 . S
C1060 C8 1.504 . S
C1072 C71 1.500 . S
C1087 C69 1.179 . S
C1099 C97 1.064 . S
C1114 C151 1.392 . S
C1126 C88 1.414 . S
C1141 C208 1.701 . S
C1153 C191 1.678 . S
C1168 C217 2.264 . S
C1180 C269 2.350 . S
C1195 C271 1.596 . S
C1207 C288 1.596 . S
C1222 C189 2.097 . S
C1234 C297 2.126 . S
C1249 C328 1.391 . S
C1261 C137 1.358 . S
C1276 C231 1.980 . S
C1288 C389 1.879 . S
C1303 C349 1.492 . S
C1315 C257 1.470 . S
C1330 C408 1.632 . S
C1342 C311 1.603 . S
C1357 C177 1.354 . S
C1369 C469 1.402 . S
C1384 C448 1.333 . S
C1396 C57 1.276 . S
C1411 C111 1.755 . S
C1423 C368 1.767 . S
C1438 C429 2.019 . S
C1450 C31 2.035 . S
