# Generated by pormake.
# Topology vby, (6)-cn, num edge types: 1
# Building blocks:
#     Node 0, Type 0, BuildingBlock: KUMBOL_clean_sbu_1, # of connection points: 6
#     Node 1, Type 0, BuildingBlock: KUMBOL_clean_sbu_1, # of connection points: 6
#     Node 2, Type 0, BuildingBlock: KUMBOL_clean_sbu_1, # of connection points: 6
#     Node 3, Type 0, BuildingBlock: KUMBOL_clean_sbu_1, # of connection points: 6
#     Node 4, Type 0, BuildingBlock: KUMBOL_clean_sbu_1, # of connection points: 6
#     Node 5, Type 0, BuildingBlock: KUMBOL_clean_sbu_1, # of connection points: 6
#     Node 6, Type 0, BuildingBlock: KUMBOL_clean_sbu_1, # of connection points: 6
#     Node 7, Type 0, BuildingBlock: KUMBOL_clean_sbu_1, # of connection points: 6
#     Edge 8, Type (0, 0), BuildingBlock: UVAHIK_clean_linker_0, # of connection points: 2
#     Edge 9, Type (0, 0), BuildingBlock: UVAHIK_clean_linker_0, # of connection points: 2
#     Edge 10, Type (0, 0), BuildingBlock: UVAHIK_clean_linker_0, # of connection points: 2
#     Edge 11, Type (0, 0), BuildingBlock: UVAHIK_clean_linker_0, # of connection points: 2
#     Edge 12, Type (0, 0), BuildingBlock: UVAHIK_clean_linker_0, # of connection points: 2
#     Edge 13, Type (0, 0), BuildingBlock: UVAHIK_clean_linker_0, # of connection points: 2
#     Edge 14, Type (0, 0), BuildingBlock: UVAHIK_clean_linker_0, # of connection points: 2
#     Edge 15, Type (0, 0), BuildingBlock: UVAHIK_clean_linker_0, # of connection points: 2
#     Edge 16, Type (0, 0), BuildingBlock: UVAHIK_clean_linker_0, # of connection points: 2
#     Edge 17, Type (0, 0), BuildingBlock: UVAHIK_clean_linker_0, # of connection points: 2
#     Edge 18, Type (0, 0), BuildingBlock: UVAHIK_clean_linker_0, # of connection points: 2
#     Edge 19, Type (0, 0), BuildingBlock: UVAHIK_clean_linker_0, # of connection points: 2
#     Edge 20, Type (0, 0), BuildingBlock: UVAHIK_clean_linker_0, # of connection points: 2
#     Edge 21, Type (0, 0), BuildingBlock: UVAHIK_clean_linker_0, # of connection points: 2
#     Edge 22, Type (0, 0), BuildingBlock: UVAHIK_clean_linker_0, # of connection points: 2
#     Edge 23, Type (0, 0), BuildingBlock: UVAHIK_clean_linker_0, # of connection points: 2
#     Edge 24, Type (0, 0), BuildingBlock: UVAHIK_clean_linker_0, # of connection points: 2
#     Edge 25, Type (0, 0), BuildingBlock: UVAHIK_clean_linker_0, # of connection points: 2
#     Edge 26, Type (0, 0), BuildingBlock: UVAHIK_clean_linker_0, # of connection points: 2
#     Edge 27, Type (0, 0), BuildingBlock: UVAHIK_clean_linker_0, # of connection points: 2
#     Edge 28, Type (0, 0), BuildingBlock: UVAHIK_clean_linker_0, # of connection points: 2
#     Edge 29, Type (0, 0), BuildingBlock: UVAHIK_clean_linker_0, # of connection points: 2
#     Edge 30, Type (0, 0), BuildingBlock: UVAHIK_clean_linker_0, # of connection points: 2
#     Edge 31, Type (0, 0), BuildingBlock: UVAHIK_clean_linker_0, # of connection points: 2
# Relax obj value: 0.079
# Max RMSD: 0.151
# Mean RMSD: 0.151
data_MOF--net-vby--node1-KUMBOL_clean_sbu_1--edge1-UVAHIK_clean_linker_0
_symmetry_space_group_name_H-M    P1
_symmetry_Int_Tables_number       1
_symmetry_cell_setting            triclinic
loop_
_symmetry_equiv_pos_as_xyz
'x, y, z'
_cell_length_a     19.611437
_cell_length_b     115.64188
_cell_length_c     38.413218
_cell_angle_alpha  114.02041
_cell_angle_beta   89.992965
_cell_angle_gamma 89.955816
loop_
_atom_site_label
_atom_site_type_symbol
_atom_site_fract_x
_atom_site_fract_y
_atom_site_fract_z
_atom_type_partial_charge
C0 C 0.23349 0.41305 0.06049 0.0
C1 C 0.28282 0.41897 0.0119 0.0
C2 C 0.22865 0.4139 0.02538 0.0
C3 C 0.34171 0.42328 0.03421 0.0
C4 C 0.29247 0.41752 0.08304 0.0
C5 C 0.34653 0.42255 0.06963 0.0
N6 N 0.18088 0.40785 0.07247 0.0
C7 C 0.18154 0.40814 0.10837 0.0
C8 C 0.29519 0.41693 0.11865 0.0
C9 C 0.23906 0.4124 0.13158 0.0
Gd10 Gd 0.0835 0.36281 0.99254 0.0
Gd11 Gd 0.0873 0.4012 0.03035 0.0
N12 N 0.17224 0.40919 0.00359 0.0
C13 C 0.27674 0.4193 0.97599 0.0
C14 C 0.16563 0.40959 0.96877 0.0
C15 C 0.21782 0.41462 0.95439 0.0
H16 H 0.11966 0.40617 0.95235 0.0
H17 H 0.21254 0.4149 0.9267 0.0
H18 H 0.02797 0.35749 0.06668 0.0
H19 H 0.13742 0.40555 0.12013 0.0
H20 H 0.9256 0.34886 0.08531 0.0
H21 H 0.31729 0.42312 0.96465 0.0
H22 H 0.38398 0.42715 0.02424 0.0
H23 H 0.0656 0.35485 0.89709 0.0
H24 H 0.33955 0.42027 0.13681 0.0
H25 H 0.23956 0.4124 0.15976 0.0
H26 H 0.77879 0.33682 0.97625 0.0
H27 H 0.39227 0.42596 0.08654 0.0
H28 H 0.86336 0.34119 0.86543 0.0
H29 H 0.97519 0.34747 0.84905 0.0
N30 N 1.00273 0.35508 0.94266 0.0
C31 C 0.94401 0.35048 0.95122 0.0
C32 C 1.01562 0.35324 0.9058 0.0
C33 C 0.90218 0.34496 0.88723 0.0
C34 C 0.96501 0.34858 0.87794 0.0
C35 C 0.89174 0.34551 0.92388 0.0
H36 H 0.79099 0.33709 0.9129 0.0
N37 N 0.98869 0.35481 0.01254 0.0
C38 C 0.93736 0.3501 0.98679 0.0
C39 C 0.87379 0.34473 0.03209 0.0
C40 C 0.87805 0.34508 0.99613 0.0
C41 C 0.98569 0.35419 0.04722 0.0
C42 C 0.92808 0.34923 0.05763 0.0
O43 O 0.18214 0.38986 0.00218 0.0
O44 O 0.18171 0.37292 0.01883 0.0
O45 O 0.11409 0.34676 0.00501 0.0
O46 O 0.14075 0.34714 0.95111 0.0
O47 O 0.04797 0.38998 0.97131 0.0
O48 O 0.11187 0.3716 0.95096 0.0
O49 O 0.98756 0.37393 0.02028 0.0
O50 O 0.9875 0.39134 0.00549 0.0
O51 O 0.0536 0.41815 0.02293 0.0
O52 O 0.03956 0.4167 0.0775 0.0
O53 O 0.11662 0.37406 0.05313 0.0
O54 O 0.05749 0.39295 0.07262 0.0
C55 C 0.2146 0.38135 0.01044 0.0
C56 C 0.08008 0.38061 0.94441 0.0
C57 C 0.11582 0.32709 0.95175 0.0
C58 C 0.11193 0.30538 0.94799 0.0
C59 C 0.05229 0.31085 0.90109 0.0
C60 C 0.07431 0.32334 0.91921 0.0
C61 C 0.07097 0.30193 0.91519 0.0
C62 C 0.13461 0.31805 0.96603 0.0
C63 C 0.13879 0.34039 0.97122 0.0
C64 C 0.82499 0.34061 0.96947 0.0
C65 C 0.83181 0.34083 0.93346 0.0
H66 H 0.82907 0.34094 0.04031 0.0
C67 C 0.95503 0.38264 0.01294 0.0
C68 C 0.08234 0.38338 0.07901 0.0
C69 C 0.99996 0.43623 0.07423 0.0
C70 C 0.97722 0.45701 0.07348 0.0
C71 C 0.92944 0.45158 0.1234 0.0
C72 C 0.96033 0.43971 0.1074 0.0
C73 C 0.93774 0.46017 0.1067 0.0
C74 C 1.00845 0.44494 0.05733 0.0
C75 C 0.03209 0.42353 0.05789 0.0
H76 H 1.02066 0.30805 0.87589 0.0
H77 H 0.05893 0.33003 0.90762 0.0
H78 H 0.05377 0.29227 0.90006 0.0
H79 H 0.1658 0.32095 0.99146 0.0
H80 H 0.8991 0.45417 0.14902 0.0
H81 H 0.9529 0.43322 0.12096 0.0
H82 H 0.91403 0.4694 0.12023 0.0
H83 H 0.03892 0.44234 0.03171 0.0
C84 C 0.09871 0.66553 0.07133 0.0
C85 C 0.16714 0.6705 0.02641 0.0
C86 C 0.10712 0.6656 0.03546 0.0
C87 C 0.21931 0.67509 0.05361 0.0
C88 C 0.14991 0.67069 0.09923 0.0
C89 C 0.21073 0.67518 0.08991 0.0
N90 N 0.03897 0.66119 0.07971 0.0
C91 C 0.024 0.66352 0.11673 0.0
C92 C 0.13738 0.67168 0.13619 0.0
C93 C 0.07352 0.66836 0.14516 0.0
Gd94 Gd 0.95711 0.61467 0.99313 0.0
Gd95 Gd 0.96036 0.65304 0.02887 0.0
N96 N 0.05655 0.66081 0.00926 0.0
C97 C 0.17285 0.67067 0.99028 0.0
C98 C 0.06084 0.6613 0.97443 0.0
C99 C 0.11921 0.66615 0.9643 0.0
H100 H 1.01912 0.65794 0.9546 0.0
H101 H 0.12278 0.66639 0.93649 0.0
H102 H 0.929 0.61015 0.07228 0.0
H103 H 0.97332 0.66207 0.12498 0.0
H104 H 0.83847 0.60141 0.09942 0.0
H105 H 0.21816 0.67437 0.98228 0.0
H106 H 0.26607 0.67878 0.04706 0.0
H107 H 0.90194 0.61033 0.90418 0.0
H108 H 0.17533 0.6756 0.15841 0.0
H109 H 0.06176 0.66982 0.17419 0.0
H110 H 0.66402 0.58832 0.00352 0.0
H111 H 0.25078 0.67904 0.1109 0.0
H112 H 0.70137 0.59497 0.88994 0.0
H113 H 0.79862 0.60312 0.86578 0.0
N114 N 0.86201 0.6078 0.95224 0.0
C115 C 0.81082 0.60251 0.96496 0.0
C116 C 0.85912 0.60755 0.91641 0.0
C117 C 0.74631 0.59843 0.90754 0.0
C118 C 0.80088 0.60312 0.89392 0.0
C119 C 0.75118 0.59789 0.94316 0.0
H120 H 0.65233 0.58925 0.94102 0.0
N121 N 0.87444 0.60673 0.02135 0.0
C122 C 0.81757 0.60182 0.00021 0.0
C123 C 0.77255 0.59661 0.05063 0.0
C124 C 0.7647 0.59674 0.01455 0.0
C125 C 0.8827 0.60656 0.05637 0.0
C126 C 0.83186 0.60152 0.07159 0.0
O127 O 0.05629 0.64183 0.00134 0.0
O128 O 0.05648 0.62474 0.01768 0.0
O129 O 0.99237 0.5979 0.00112 0.0
O130 O 1.00437 0.59908 0.94603 0.0
O131 O 0.9268 0.64126 0.96875 0.0
O132 O 0.98635 0.62247 0.94972 0.0
O133 O 0.86183 0.62595 0.02085 0.0
O134 O 0.8617 0.64284 0.00393 0.0
O135 O 0.9274 0.66821 0.01296 0.0
O136 O 0.9056 0.66938 0.06923 0.0
O137 O 0.99659 0.62634 0.05184 0.0
O138 O 0.93176 0.64459 0.07126 0.0
C139 C 0.0889 0.63326 0.00932 0.0
C140 C 0.96185 0.63203 0.94314 0.0
C141 C 0.04556 0.57974 0.94994 0.0
C142 C 0.06881 0.55903 0.95107 0.0
C143 C 0.11652 0.5644 0.90101 0.0
C144 C 0.0853 0.57624 0.91681 0.0
C145 C 0.10841 0.55585 0.91788 0.0
C146 C 0.03728 0.57107 0.96702 0.0
C147 C 1.01302 0.5924 0.96603 0.0
C148 C 0.70528 0.59222 0.99291 0.0
C149 C 0.69853 0.59279 0.95736 0.0
H150 H 0.73304 0.59279 0.06263 0.0
C151 C 0.82919 0.63442 0.01252 0.0
C152 C 0.96424 0.63577 0.07842 0.0
C153 C 0.92656 0.68864 0.06253 0.0
C154 C 0.91926 0.70992 0.06323 0.0
C155 C 1.00002 0.70542 0.10432 0.0
C156 C 0.97815 0.69288 0.09017 0.0
C157 C 0.97093 0.71389 0.09106 0.0
C158 C 0.89716 0.6972 0.04917 0.0
C159 C 0.90438 0.67527 0.04662 0.0
H160 H 0.14696 0.5618 0.87542 0.0
H161 H 0.09256 0.5827 0.90312 0.0
H162 H 0.13234 0.54664 0.9045 0.0
H163 H 1.0067 0.57369 0.9926 0.0
H164 H 0.03967 0.70862 0.12575 0.0
H165 H 1.00159 0.68652 0.10091 0.0
H166 H 0.9884 0.72361 0.10302 0.0
H167 H 0.85799 0.6939 0.02741 0.0
C168 C 0.22901 0.60502 0.45029 0.0
C169 C 0.30772 0.60515 0.4994 0.0
C170 C 0.2428 0.60781 0.48863 0.0
C171 C 0.35796 0.59957 0.47147 0.0
C172 C 0.27971 0.59953 0.42234 0.0
C173 C 0.34397 0.59675 0.43311 0.0
N174 N 0.16726 0.60824 0.44062 0.0
C175 C 0.15193 0.60591 0.40376 0.0
C176 C 0.2647 0.59721 0.38442 0.0
C177 C 0.20055 0.6004 0.37511 0.0
Gd178 Gd 0.07397 0.65484 0.53556 0.0
Gd179 Gd 0.08916 0.61627 0.49032 0.0
N180 N 0.19383 0.61354 0.51542 0.0
C181 C 0.32055 0.60828 0.53802 0.0
C182 C 0.20521 0.61611 0.55287 0.0
C183 C 0.26897 0.61371 0.5648 0.0
H184 H 0.16515 0.61972 0.57359 0.0
H185 H 0.27802 0.6159 0.59461 0.0
H186 H 0.96482 0.65629 0.47047 0.0
H187 H 0.10195 0.6081 0.39632 0.0
H188 H 0.8491 0.66456 0.46855 0.0
H189 H 0.36988 0.60643 0.54741 0.0
H190 H 0.40809 0.59748 0.4793 0.0
H191 H 0.12049 0.66687 0.62734 0.0
H192 H 0.30232 0.593 0.36214 0.0
H193 H 0.18844 0.59857 0.34584 0.0
H194 H 0.7841 0.68502 0.60035 0.0
H195 H 0.38355 0.59254 0.41201 0.0
H196 H 0.9489 0.68656 0.69441 0.0
H197 H 0.06772 0.67888 0.69039 0.0
N198 N 0.03085 0.66697 0.59651 0.0
C199 C 0.96654 0.67153 0.59797 0.0
C200 C 0.06792 0.66984 0.62899 0.0
C201 C 0.97143 0.68111 0.66677 0.0
C202 C 0.03849 0.67678 0.66463 0.0
C203 C 0.93491 0.67868 0.63319 0.0
H204 H 0.84326 0.68881 0.66053 0.0
N205 N 0.96517 0.66249 0.53061 0.0
C206 C 0.93312 0.66942 0.56407 0.0
C207 C 0.83645 0.67239 0.52958 0.0
C208 C 0.86733 0.67437 0.56444 0.0
C209 C 0.9372 0.66118 0.49665 0.0
C210 C 0.87193 0.6659 0.49557 0.0
O211 O 0.17263 0.62924 0.48465 0.0
O212 O 0.17281 0.64609 0.54236 0.0
O213 O 0.12099 0.66362 0.50104 0.0
O214 O 0.10952 0.67431 0.56165 0.0
O215 O 0.05418 0.62623 0.55113 0.0
O216 O 0.11049 0.64532 0.57317 0.0
O217 O 0.97296 0.6446 0.52823 0.0
O218 O 0.97862 0.62251 0.49729 0.0
O219 O 0.08247 0.60051 0.50705 0.0
O220 O 0.05147 0.59795 0.45037 0.0
O221 O 0.08271 0.64347 0.47172 0.0
O222 O 0.03484 0.62351 0.45169 0.0
C223 C 0.20601 0.63797 0.51292 0.0
C224 C 0.07441 0.63672 0.57916 0.0
C225 C 0.20068 0.67996 0.53168 0.0
C226 C 0.27265 0.69634 0.5254 0.0
C227 C 0.32188 0.68036 0.54426 0.0
C228 C 0.2579 0.67486 0.54216 0.0
C229 C 0.32932 0.69102 0.53611 0.0
C230 C 0.20812 0.69067 0.52329 0.0
C231 C 0.13284 0.67431 0.52996 0.0
C232 C 0.83488 0.68122 0.59946 0.0
C233 C 0.86856 0.68336 0.63374 0.0
H234 H 0.78586 0.67602 0.52865 0.0
C235 C 0.94482 0.63328 0.51361 0.0
C236 C 0.04563 0.63414 0.4476 0.0
C237 C 0.9983 0.58515 0.47784 0.0
C238 C 0.95713 0.56662 0.48728 0.0
C239 C 0.87691 0.58183 0.48132 0.0
C240 C 0.9308 0.58907 0.47723 0.0
C241 C 0.88977 0.5707 0.4863 0.0
C242 C 1.0112 0.57395 0.48288 0.0
C243 C 0.05617 0.59282 0.47486 0.0
H244 H 0.36586 0.67641 0.55254 0.0
H245 H 0.2529 0.66671 0.54898 0.0
H246 H 0.37947 0.69521 0.5388 0.0
H247 H 0.16373 0.69448 0.51482 0.0
H248 H 0.82487 0.58487 0.4807 0.0
H249 H 0.91982 0.59772 0.47377 0.0
H250 H 0.84687 0.56524 0.48901 0.0
H251 H 0.06352 0.57112 0.48417 0.0
C252 C 0.07899 0.34599 0.42546 0.0
C253 C 0.17965 0.34339 0.45838 0.0
C254 C 0.11332 0.34818 0.45915 0.0
C255 C 0.21167 0.33664 0.42317 0.0
C256 C 0.11022 0.33893 0.39005 0.0
C257 C 0.17706 0.33442 0.38909 0.0
N258 N 1.01426 0.3504 0.42733 0.0
C259 C 0.97643 0.34747 0.39508 0.0
C260 C 0.07284 0.33643 0.3567 0.0
C261 C 1.0054 0.34061 0.35925 0.0
Gd262 Gd 0.954 0.40095 0.53397 0.0
Gd263 Gd 0.97169 0.36239 0.48852 0.0
N264 N 0.08163 0.35503 0.49278 0.0
C265 C 0.21148 0.34546 0.49306 0.0
C266 C 0.11056 0.3564 0.52657 0.0
C267 C 0.17642 0.35185 0.52727 0.0
H268 H 0.08326 0.36123 0.55292 0.0
H269 H 0.20001 0.35324 0.55415 0.0
H270 H 0.88072 0.39767 0.45007 0.0
H271 H 0.92363 0.35034 0.39707 0.0
H272 H 0.76826 0.40117 0.42795 0.0
H273 H 0.26253 0.34196 0.49369 0.0
H274 H 0.26286 0.33296 0.42198 0.0
H275 H 0.93768 0.40864 0.62748 0.0
H276 H 0.09503 0.33105 0.32892 0.0
H277 H 0.97555 0.33846 0.33368 0.0
H278 H 0.63359 0.41871 0.54173 0.0
H279 H 0.20207 0.32903 0.36215 0.0
H280 H 0.73556 0.4231 0.65972 0.0
H281 H 0.84914 0.41775 0.67706 0.0
N282 N 0.87385 0.40856 0.58272 0.0
C283 C 0.81227 0.41166 0.57249 0.0
C284 C 0.88788 0.41076 0.61962 0.0
C285 C 0.77411 0.41909 0.63786 0.0
C286 C 0.83809 0.41602 0.64775 0.0
C287 C 0.76042 0.41689 0.59988 0.0
H288 H 0.65582 0.4235 0.60915 0.0
N289 N 0.84988 0.40344 0.5078 0.0
C290 C 0.79977 0.40893 0.53407 0.0
C291 C 0.72351 0.4084 0.48399 0.0
C292 C 0.73501 0.41143 0.52267 0.0
C293 C 0.8398 0.401 0.47033 0.0
C294 C 0.77625 0.40325 0.45779 0.0
O295 O 0.07174 0.37287 0.49541 0.0
O296 O 0.06509 0.39493 0.52712 0.0
O297 O 0.96024 0.4169 0.51813 0.0
O298 O 0.98996 0.41926 0.57481 0.0
O299 O 0.96183 0.37379 0.55228 0.0
O300 O 1.00916 0.39376 0.57251 0.0
O301 O 0.87147 0.3878 0.5397 0.0
O302 O 0.87139 0.37082 0.4822 0.0
O303 O 0.93097 0.3532 0.52334 0.0
O304 O 0.93449 0.34301 0.46213 0.0
O305 O 0.98932 0.39109 0.47318 0.0
O306 O 0.93349 0.37198 0.45152 0.0
C307 C 0.09938 0.38423 0.51036 0.0
C308 C 0.99927 0.38306 0.57632 0.0
C309 C 0.04303 0.43242 0.54859 0.0
C310 C 0.0835 0.45117 0.54017 0.0
C311 C 0.16432 0.4361 0.54648 0.0
C312 C 0.11069 0.42867 0.54978 0.0
C313 C 0.15102 0.44725 0.54171 0.0
C314 C 0.02969 0.44364 0.5438 0.0
C315 C 0.98549 0.42454 0.55069 0.0
C316 C 0.68362 0.41676 0.55005 0.0
C317 C 0.69631 0.41951 0.58849 0.0
H318 H 0.67437 0.41012 0.47412 0.0
C319 C 0.83818 0.37903 0.51149 0.0
C320 C 0.96965 0.38052 0.4453 0.0
C321 C 0.85056 0.33681 0.49522 0.0
C322 C 0.7865 0.3193 0.49973 0.0
C323 C 0.72704 0.33712 0.49491 0.0
C324 C 0.78926 0.34277 0.49348 0.0
C325 C 0.72549 0.32549 0.49804 0.0
C326 C 0.84905 0.3251 0.49827 0.0
C327 C 0.91666 0.34268 0.49432 0.0
H328 H 0.21648 0.43319 0.54755 0.0
H329 H 0.12201 0.42 0.55306 0.0
H330 H 0.1937 0.45286 0.53958 0.0
H331 H 0.97728 0.44635 0.54208 0.0
H332 H 0.67979 0.34176 0.4935 0.0
H333 H 0.78962 0.35176 0.49103 0.0
H334 H 0.67649 0.32125 0.49859 0.0
H335 H 0.89668 0.32061 0.50007 0.0
C336 C 0.73672 0.91111 0.06807 0.0
C337 C 0.80432 0.91515 0.02095 0.0
C338 C 0.74321 0.91112 0.03188 0.0
C339 C 0.85919 0.91904 0.04655 0.0
C340 C 0.79148 0.91536 0.09409 0.0
C341 C 0.85287 0.91911 0.08293 0.0
N342 N 0.67666 0.90735 0.07822 0.0
C343 C 0.66578 0.90931 0.11538 0.0
C344 C 0.78243 0.91607 0.131 0.0
C345 C 0.71889 0.91328 0.14188 0.0
Gd346 Gd 0.58395 0.86281 0.99631 0.0
Gd347 Gd 0.59212 0.90092 0.03026 0.0
N348 N 0.69054 0.90674 0.00683 0.0
C349 C 0.80886 0.91496 0.98432 0.0
C350 C 0.69421 0.90668 0.97123 0.0
C351 C 0.75348 0.91075 0.95943 0.0
H352 H 0.65125 0.90343 0.95204 0.0
H353 H 0.75653 0.91061 0.93112 0.0
H354 H 0.54803 0.85852 0.07504 0.0
H355 H 0.61591 0.90829 0.1255 0.0
H356 H 0.45292 0.85051 0.10128 0.0
H357 H 0.85498 0.91798 0.97493 0.0
H358 H 0.90676 0.92205 0.03852 0.0
H359 H 0.54485 0.85464 0.90267 0.0
H360 H 0.82323 0.91928 0.15177 0.0
H361 H 0.71023 0.91448 0.17099 0.0
H362 H 0.28704 0.83653 0.00069 0.0
H363 H 0.89547 0.92229 0.10251 0.0
H364 H 0.34282 0.83984 0.88379 0.0
H365 H 0.44646 0.84657 0.86049 0.0
N366 N 0.49471 0.85451 0.95177 0.0
C367 C 0.44049 0.84982 0.96413 0.0
C368 C 0.4986 0.85273 0.91441 0.0
C369 C 0.38524 0.84383 0.90302 0.0
C370 C 0.44342 0.84771 0.88984 0.0
C371 C 0.38384 0.84457 0.94026 0.0
H372 H 0.28432 0.83596 0.93601 0.0
N373 N 0.49748 0.85504 0.02293 0.0
C374 C 0.44234 0.84992 0.00046 0.0
C375 C 0.39101 0.84545 0.05086 0.0
C376 C 0.38721 0.8451 0.01404 0.0
C377 C 0.50242 0.85506 0.05835 0.0
C378 C 0.44908 0.85037 0.073 0.0
O379 O 0.68215 0.88827 -8e-05 0.0
O380 O 0.68221 0.87278 0.02215 0.0
O381 O 0.62141 0.84713 0.0085 0.0
O382 O 0.63664 0.84693 0.95267 0.0
O383 O 0.54978 0.88983 0.97181 0.0
O384 O 0.60743 0.87065 0.95151 0.0
O385 O 0.48706 0.87395 0.02157 0.0
O386 O 0.48842 0.89197 0.00925 0.0
O387 O 0.57508 0.91698 0.01581 0.0
O388 O 0.54601 0.91833 0.07133 0.0
O389 O 0.61793 0.87516 0.05618 0.0
O390 O 0.55525 0.89351 0.07354 0.0
C391 C 0.71529 0.88047 0.01086 0.0
C392 C 0.57558 0.87964 0.94474 0.0
C393 C 0.61958 0.82715 0.95693 0.0
C394 C 0.62719 0.80569 0.95483 0.0
C395 C 0.54658 0.81046 0.91423 0.0
C396 C 0.56817 0.82304 0.92914 0.0
C397 C 0.57571 0.80185 0.92688 0.0
C398 C 0.64906 0.81842 0.96963 0.0
C399 C 0.6414 0.84054 0.9738 0.0
C400 C 0.33005 0.84021 0.99068 0.0
C401 C 0.32839 0.83993 0.9539 0.0
H402 H 0.34967 0.84185 0.06232 0.0
C403 C 0.45563 0.8829 0.01485 0.0
C404 C 0.58054 0.88419 0.08102 0.0
C405 C 0.48871 0.93162 0.04665 0.0
C406 C 0.44512 0.95048 0.03987 0.0
C407 C 0.36692 0.9347 0.04409 0.0
C408 C 0.42181 0.92742 0.04697 0.0
C409 C 0.3783 0.94612 0.04056 0.0
C410 C 0.50008 0.9431 0.04309 0.0
C411 C 0.54798 0.92403 0.04827 0.0
H412 H 0.50706 0.80737 0.89271 0.0
H413 H 0.54458 0.82952 0.91892 0.0
H414 H 0.55841 0.79212 0.91438 0.0
H415 H 0.68804 0.82162 0.99151 0.0
H416 H 0.31528 0.93145 0.04447 0.0
H417 H 0.41209 0.91853 0.04922 0.0
H418 H 0.3347 0.95159 0.03868 0.0
H419 H 0.55203 0.94613 0.04193 0.0
C420 C 0.56581 0.17181 0.10243 0.0
C421 C 0.66497 0.17475 0.06901 0.0
C422 C 0.59926 0.16977 0.06855 0.0
C423 C 0.69731 0.18155 0.10407 0.0
C424 C 0.59735 0.17893 0.13768 0.0
C425 C 0.66361 0.18363 0.13831 0.0
N426 N 0.50157 0.16723 0.10091 0.0
C427 C 0.46449 0.17004 0.13338 0.0
C428 C 0.56083 0.18129 0.17123 0.0
C429 C 0.49384 0.17694 0.16904 0.0
Gd430 Gd 0.44352 0.11673 0.9949 0.0
Gd431 Gd 0.45856 0.15523 0.03988 0.0
N432 N 0.56731 0.16288 0.03505 0.0
C433 C 0.69589 0.17282 0.0342 0.0
C434 C 0.59534 0.16162 0.00114 0.0
C435 C 0.66055 0.16636 0.00016 0.0
H436 H 0.56782 0.15674 0.97492 0.0
H437 H 0.68343 0.16507 0.97318 0.0
H438 H 0.368 0.11995 0.07815 0.0
H439 H 0.41194 0.16707 0.1317 0.0
H440 H 0.25509 0.11631 0.09941 0.0
H441 H 0.74643 0.17647 0.03334 0.0
H442 H 0.74803 0.18538 0.10502 0.0
H443 H 0.43036 0.10853 0.90092 0.0
H444 H 0.58328 0.18671 0.1989 0.0
H445 H 0.4646 0.17899 0.19478 0.0
H446 H 0.12405 0.09829 0.98446 0.0
H447 H 0.68884 0.18905 0.16513 0.0
H448 H 0.22952 0.09373 0.86713 0.0
H449 H 0.34356 0.09914 0.85062 0.0
N450 N 0.3651 0.10877 0.94535 0.0
C451 C 0.30328 0.10563 0.95513 0.0
C452 C 0.38032 0.10642 0.90846 0.0
C453 C 0.26729 0.09789 0.88933 0.0
C454 C 0.33152 0.10099 0.87991 0.0
C455 C 0.2524 0.10021 0.92728 0.0
H456 H 0.14834 0.09337 0.91714 0.0
N457 N 0.33882 0.11405 0.02017 0.0
C458 C 0.28962 0.10842 0.99348 0.0
C459 C 0.21204 0.1089 0.04298 0.0
C460 C 0.22466 0.10581 0.00436 0.0
C461 C 0.32769 0.11653 0.05758 0.0
C462 C 0.26391 0.11419 0.06962 0.0
O463 O 0.5596 0.14496 0.03241 0.0
O464 O 0.55411 0.12286 0.00181 0.0
O465 O 0.4497 0.10091 0.01142 0.0
O466 O 0.48122 0.09841 0.95487 0.0
O467 O 0.4509 0.14401 0.97593 0.0
O468 O 0.49769 0.12392 0.956 0.0
O469 O 0.36037 0.12971 0.98877 0.0
O470 O 0.35964 0.1465 0.04651 0.0
O471 O 0.40985 0.16399 0.00575 0.0
O472 O 0.42463 0.17479 0.06606 0.0
O473 O 0.47813 0.12672 0.05593 0.0
O474 O 0.42079 0.1457 0.07713 0.0
C475 C 0.58784 0.13363 0.01795 0.0
C476 C 0.48681 0.13451 0.95161 0.0
C477 C 0.53308 0.08536 0.98198 0.0
C478 C 0.57255 0.06663 0.991 0.0
C479 C 0.65413 0.08164 0.98507 0.0
C480 C 0.60091 0.08907 0.98126 0.0
C481 C 0.64026 0.07052 0.9899 0.0
C482 C 0.51916 0.07417 0.98687 0.0
C483 C 0.47589 0.09321 0.97919 0.0
C484 C 0.17422 0.10032 0.97654 0.0
C485 C 0.18807 0.09751 0.93816 0.0
H486 H 0.1627 0.1071 0.05245 0.0
C487 C 0.32668 0.13843 0.01694 0.0
C488 C 0.4567 0.13719 0.08369 0.0
C489 C 0.3316 0.18051 0.03762 0.0
C490 C 0.25903 0.19717 0.03333 0.0
C491 C 0.21144 0.18125 0.05294 0.0
C492 C 0.27527 0.17555 0.04927 0.0
C493 C 0.20328 0.19198 0.04525 0.0
C494 C 0.32339 0.19128 0.02956 0.0
C495 C 0.39947 0.17475 0.03469 0.0
H496 H 0.70643 0.08452 0.98435 0.0
H497 H 0.61268 0.09771 0.97791 0.0
H498 H 0.68267 0.0649 0.99238 0.0
H499 H 0.46659 0.07149 0.98823 0.0
H500 H 0.16818 0.1774 0.06217 0.0
H501 H 0.28092 0.16736 0.0559 0.0
H502 H 0.15335 0.19633 0.04931 0.0
H503 H 0.3671 0.19498 0.02017 0.0
C504 C 0.73477 0.10492 0.45125 0.0
C505 C 0.81685 0.10501 0.49881 0.0
C506 C 0.75115 0.10776 0.48928 0.0
C507 C 0.86539 0.09933 0.46995 0.0
C508 C 0.78372 0.09932 0.42232 0.0
C509 C 0.84887 0.09648 0.43186 0.0
N510 N 0.67209 0.10814 0.44277 0.0
C511 C 0.65424 0.10572 0.40617 0.0
C512 C 0.76609 0.09692 0.38467 0.0
C513 C 0.70107 0.10012 0.37658 0.0
Gd514 Gd 0.58054 0.15486 0.54033 0.0
Gd515 Gd 0.59725 0.1166 0.49413 0.0
N516 N 0.70384 0.11361 0.51695 0.0
C517 C 0.83214 0.10815 0.53718 0.0
C518 C 0.71753 0.11614 0.55414 0.0
C519 C 0.78211 0.11364 0.56489 0.0
H520 H 0.67868 0.11975 0.57557 0.0
H521 H 0.79297 0.11581 0.59452 0.0
H522 H 0.46755 0.15489 0.47505 0.0
H523 H 0.60359 0.1079 0.39963 0.0
H524 H 0.35061 0.16262 0.47314 0.0
H525 H 0.88213 0.10623 0.54565 0.0
H526 H 0.91611 0.09718 0.47683 0.0
H527 H 0.62653 0.16678 0.63223 0.0
H528 H 0.8023 0.09263 0.36167 0.0
H529 H 0.68689 0.09822 0.34752 0.0
H530 H 0.28837 0.18415 0.60505 0.0
H531 H 0.88713 0.0922 0.41001 0.0
H532 H 0.45499 0.18653 0.69913 0.0
H533 H 0.57385 0.17888 0.69518 0.0
N534 N 0.53696 0.16686 0.60128 0.0
C535 C 0.47237 0.1713 0.60272 0.0
C536 C 0.57395 0.16973 0.63381 0.0
C537 C 0.4775 0.18105 0.67151 0.0
C538 C 0.54457 0.17673 0.66941 0.0
C539 C 0.44076 0.17849 0.63792 0.0
H540 H 0.34879 0.18849 0.66524 0.0
N541 N 0.46989 0.16177 0.53536 0.0
C542 C 0.43822 0.16888 0.5688 0.0
C543 C 0.33965 0.17109 0.53428 0.0
C544 C 0.37172 0.17355 0.56916 0.0
C545 C 0.44045 0.15992 0.50131 0.0
C546 C 0.37447 0.16436 0.50022 0.0
O547 O 0.68165 0.12936 0.48825 0.0
O548 O 0.68181 0.1465 0.54547 0.0
O549 O 0.61618 0.16475 0.50634 0.0
O550 O 0.61933 0.1741 0.56779 0.0
O551 O 0.56447 0.12657 0.55556 0.0
O552 O 0.6223 0.14547 0.57702 0.0
O553 O 0.48149 0.14433 0.53732 0.0
O554 O 0.4872 0.12286 0.49658 0.0
O555 O 0.58668 0.10154 0.51372 0.0
O556 O 0.56185 0.09795 0.45536 0.0
O557 O 0.59143 0.14384 0.4764 0.0
O558 O 0.54269 0.12397 0.45579 0.0
C559 C 0.71478 0.1383 0.51607 0.0
C560 C 0.58807 0.13677 0.58346 0.0
C561 C 0.6992 0.18068 0.53349 0.0
C562 C 0.76247 0.19803 0.52749 0.0
C563 C 0.82268 0.18017 0.5316 0.0
C564 C 0.76074 0.17463 0.53422 0.0
C565 C 0.82372 0.19177 0.52826 0.0
C566 C 0.70019 0.19234 0.53014 0.0
C567 C 0.6334 0.17493 0.53579 0.0
C568 C 0.33961 0.18054 0.60418 0.0
C569 C 0.37401 0.18299 0.63846 0.0
H570 H 0.28849 0.17449 0.53333 0.0
C571 C 0.45324 0.13321 0.51781 0.0
C572 C 0.55522 0.13452 0.45162 0.0
C573 C 0.50597 0.08556 0.48327 0.0
C574 C 0.46493 0.0667 0.49085 0.0
C575 C 0.3846 0.08188 0.48468 0.0
C576 C 0.43848 0.08934 0.48188 0.0
C577 C 0.39752 0.07065 0.48909 0.0
C578 C 0.51894 0.07429 0.48785 0.0
C579 C 0.56384 0.09336 0.48123 0.0
H580 H 0.87012 0.17547 0.53227 0.0
H581 H 0.7608 0.16567 0.53683 0.0
H582 H 0.87256 0.19591 0.52683 0.0
H583 H 0.65233 0.19688 0.52908 0.0
H584 H 0.33253 0.0848 0.48343 0.0
H585 H 0.42751 0.09805 0.47873 0.0
H586 H 0.35465 0.06499 0.4907 0.0
H587 H 0.57128 0.07159 0.48975 0.0
C588 C 0.59271 0.84541 0.48222 0.0
C589 C 0.61638 0.8417 0.53881 0.0
C590 C 0.57479 0.84685 0.51873 0.0
C591 C 0.67674 0.83532 0.52193 0.0
C592 C 0.65264 0.83886 0.46493 0.0
C593 C 0.69478 0.83389 0.48508 0.0
N594 N 0.55195 0.85065 0.46389 0.0
C595 C 0.5654 0.84892 0.42724 0.0
C596 C 0.66828 0.83748 0.42787 0.0
C597 C 0.62412 0.84243 0.40883 0.0
Gd598 Gd 0.4497 0.89945 0.52669 0.0
Gd599 Gd 0.45406 0.86109 0.4968 0.0
N600 N 0.51624 0.85311 0.53436 0.0
C601 C 0.59565 0.843 0.57511 0.0
C602 C 0.49389 0.85377 0.56876 0.0
C603 C 0.53377 0.84895 0.58997 0.0
H604 H 0.44478 0.85789 0.57963 0.0
H605 H 0.51643 0.84972 0.61758 0.0
H606 H 0.37877 0.90212 0.4517 0.0
H607 H 0.53088 0.8525 0.41213 0.0
H608 H 0.2687 0.90908 0.4348 0.0
H609 H 0.62628 0.83921 0.59151 0.0
H610 H 0.70951 0.83136 0.53699 0.0
H611 H 0.4409 0.90802 0.62336 0.0
H612 H 0.71382 0.83248 0.41356 0.0
H613 H 0.63514 0.8412 0.37993 0.0
H614 H 0.13083 0.91933 0.54672 0.0
H615 H 0.74124 0.82888 0.47234 0.0
H616 H 0.23466 0.91784 0.65743 0.0
H617 H 0.35274 0.91406 0.67264 0.0
N618 N 0.37206 0.90615 0.57826 0.0
C619 C 0.30878 0.9093 0.57011 0.0
C620 C 0.38894 0.90861 0.61515 0.0
C621 C 0.27279 0.91467 0.63507 0.0
C622 C 0.33927 0.91248 0.64372 0.0
C623 C 0.25731 0.91349 0.59825 0.0
H624 H 0.15264 0.91992 0.61043 0.0
N625 N 0.34598 0.90481 0.50719 0.0
C626 C 0.29607 0.90897 0.53404 0.0
C627 C 0.22251 0.91278 0.48925 0.0
C628 C 0.2323 0.91281 0.52542 0.0
C629 C 0.33766 0.90511 0.47225 0.0
C630 C 0.27564 0.90903 0.46269 0.0
O631 O 0.55849 0.87 0.50013 0.0
O632 O 0.5579 0.89219 0.52349 0.0
O633 O 0.48024 0.91243 0.50166 0.0
O634 O 0.47519 0.91905 0.56276 0.0
O635 O 0.42952 0.87531 0.55615 0.0
O636 O 0.49574 0.89285 0.56973 0.0
O637 O 0.36209 0.88609 0.49641 0.0
O638 O 0.36258 0.87272 0.52605 0.0
O639 O 0.40946 0.8445 0.50094 0.0
O640 O 0.39297 0.84792 0.45032 0.0
O641 O 0.49076 0.88755 0.46827 0.0
O642 O 0.4379 0.86783 0.44911 0.0
C643 C 0.58919 0.8811 0.51152 0.0
C644 C 0.47469 0.88341 0.57776 0.0
C645 C 0.54671 0.93029 0.53739 0.0
C646 C 0.59046 0.94988 0.53567 0.0
C647 C 0.66794 0.93464 0.54365 0.0
C648 C 0.61316 0.92671 0.54207 0.0
C649 C 0.65686 0.94612 0.54042 0.0
C650 C 0.53557 0.94185 0.53429 0.0
C651 C 0.48814 0.922 0.53418 0.0
C652 C 0.18046 0.91652 0.553 0.0
C653 C 0.19282 0.91681 0.58923 0.0
H654 H 0.17427 0.91569 0.48162 0.0
C655 C 0.32875 0.87904 0.5102 0.0
C656 C 0.46936 0.87675 0.44191 0.0
C657 C 0.4036 0.82643 0.44293 0.0
C658 C 0.40502 0.80427 0.43525 0.0
C659 C 0.45455 0.81018 0.38662 0.0
C660 C 0.43751 0.82283 0.40786 0.0
C661 C 0.43849 0.80098 0.40007 0.0
C662 C 0.38723 0.81708 0.45642 0.0
C663 C 0.38675 0.83989 0.46618 0.0
H664 H 0.71924 0.93186 0.5473 0.0
H665 H 0.62258 0.9178 0.54426 0.0
H666 H 0.70022 0.95211 0.54201 0.0
H667 H 0.48412 0.94444 0.52994 0.0
H668 H 0.48045 0.80749 0.35956 0.0
H669 H 0.4511 0.82976 0.3968 0.0
H670 H 0.45183 0.79123 0.38266 0.0
H671 H 0.36201 0.81985 0.48374 0.0
C672 C 0.32733 0.37564 0.03068 0.0
C673 C 0.29056 0.38132 0.01039 0.0
C674 C 0.39888 0.37584 0.03119 0.0
C675 C 0.54939 0.38028 0.97863 0.0
H676 H 0.64637 0.38534 0.07162 0.0
C677 C 0.84221 0.3884 0.993 0.0
C678 C 0.87909 0.38268 0.01317 0.0
C679 C 0.77066 0.38822 0.99263 0.0
C680 C 0.62026 0.38376 0.04524 0.0
H681 H 0.30061 0.39134 0.97373 0.0
H682 H 0.42482 0.39203 0.97543 0.0
H683 H 0.52207 0.38507 0.07109 0.0
H684 H 0.86929 0.37269 0.04988 0.0
H685 H 0.74501 0.37203 0.04844 0.0
H686 H 0.64756 0.37898 0.95279 0.0
C687 C 0.39864 0.38732 0.9908 0.0
C688 C 0.54873 0.38361 0.04494 0.0
C689 C 0.32718 0.38708 0.99025 0.0
C690 C 0.84259 0.37695 0.0334 0.0
C691 C 0.77112 0.37674 0.033 0.0
C692 C 0.62092 0.38044 0.97894 0.0
C693 C 0.43567 0.3817 0.01127 0.0
C694 C 0.51215 0.38187 0.01163 0.0
C695 C 0.73398 0.38236 0.01258 0.0
C696 C 0.6575 0.38218 0.01225 0.0
H697 H 0.30082 0.3711 0.04648 0.0
H698 H 0.42538 0.37126 0.04685 0.0
H699 H 0.52329 0.37871 0.95225 0.0
H700 H 0.86864 0.39293 0.97715 0.0
H701 H 0.74409 0.39281 0.97702 0.0
C702 C 0.20153 0.63871 0.98837 0.0
C703 C 0.16483 0.63322 0.00919 0.0
C704 C 0.27301 0.6389 0.98885 0.0
C705 C 0.42287 0.63548 0.04375 0.0
H706 H 0.5221 0.63037 0.95133 0.0
C707 C 0.7166 0.62861 0.03255 0.0
C708 C 0.75324 0.63438 0.01245 0.0
C709 C 0.64513 0.62838 0.03195 0.0
C710 C 0.49531 0.63196 0.97754 0.0
H711 H 0.17491 0.62336 0.04633 0.0
H712 H 0.29938 0.62341 0.04653 0.0
H713 H 0.3978 0.63017 0.9507 0.0
H714 H 0.74302 0.64457 0.97626 0.0
H715 H 0.61851 0.64438 0.97573 0.0
H716 H 0.52044 0.63724 0.07055 0.0
C717 C 0.27302 0.62786 0.03044 0.0
C718 C 0.42379 0.63185 0.97719 0.0
C719 C 0.2015 0.62771 0.03002 0.0
C720 C 0.7165 0.64004 0.99206 0.0
C721 C 0.64498 0.63981 0.99146 0.0
C722 C 0.4944 0.63557 0.04408 0.0
C723 C 0.30993 0.63348 0.00991 0.0
C724 C 0.38642 0.63361 0.0103 0.0
C725 C 0.60818 0.63398 0.0114 0.0
C726 C 0.53174 0.63382 0.01099 0.0
H727 H 0.17499 0.64279 0.97137 0.0
H728 H 0.29927 0.64343 0.97296 0.0
H729 H 0.39615 0.63708 0.06998 0.0
H730 H 0.74314 0.62437 0.04912 0.0
H731 H 0.61885 0.62368 0.04736 0.0
C732 C 0.83263 0.64167 0.54509 0.0
C733 C 0.86915 0.63284 0.51418 0.0
C734 C 0.76121 0.64186 0.54491 0.0
C735 C 0.614 0.63411 0.48113 0.0
H736 H 0.51079 0.63532 0.56858 0.0
C737 C 0.31821 0.63195 0.47837 0.0
C738 C 0.28197 0.63801 0.5126 0.0
C739 C 0.38952 0.63114 0.47832 0.0
C740 C 0.53846 0.63523 0.5441 0.0
H741 H 0.85929 0.6172 0.45892 0.0
H742 H 0.7341 0.61765 0.4583 0.0
H743 H 0.63485 0.63421 0.5692 0.0
H744 H 0.29283 0.64855 0.57355 0.0
H745 H 0.41688 0.64784 0.57341 0.0
H746 H 0.51858 0.63565 0.45644 0.0
C747 C 0.76098 0.6244 0.48275 0.0
C748 C 0.60983 0.63449 0.54442 0.0
C749 C 0.83255 0.62407 0.48323 0.0
C750 C 0.31905 0.64373 0.54665 0.0
C751 C 0.39048 0.64314 0.54657 0.0
C752 C 0.54269 0.6351 0.48105 0.0
C753 C 0.72448 0.63332 0.51356 0.0
C754 C 0.64846 0.63389 0.51292 0.0
C755 C 0.42703 0.63667 0.51246 0.0
C756 C 0.50355 0.63566 0.51253 0.0
H757 H 0.85935 0.64844 0.56955 0.0
H758 H 0.7347 0.64888 0.569 0.0
H759 H 0.64239 0.63383 0.4566 0.0
H760 H 0.29135 0.62765 0.45151 0.0
H761 H 0.41488 0.62591 0.45143 0.0
C762 C 0.72586 0.38485 0.54612 0.0
C763 C 0.76221 0.37893 0.51181 0.0
C764 C 0.65451 0.38562 0.54613 0.0
C765 C 0.50153 0.37033 0.49235 0.0
H766 H 0.41419 0.40296 0.54474 0.0
C767 C 0.21124 0.37601 0.47838 0.0
C768 C 0.17506 0.38472 0.50961 0.0
C769 C 0.28258 0.3756 0.47857 0.0
C770 C 0.43728 0.39371 0.53046 0.0
H771 H 0.75149 0.36857 0.45073 0.0
H772 H 0.62675 0.3695 0.45091 0.0
H773 H 0.53817 0.40129 0.54607 0.0
H774 H 0.18551 0.40001 0.56544 0.0
H775 H 0.30996 0.39915 0.56649 0.0
H776 H 0.40145 0.36257 0.47778 0.0
C777 C 0.65372 0.37379 0.47775 0.0
C778 C 0.50863 0.39279 0.53109 0.0
C779 C 0.72519 0.37324 0.47767 0.0
C780 C 0.21201 0.39325 0.54079 0.0
C781 C 0.2836 0.39275 0.54127 0.0
C782 C 0.43021 0.37119 0.49226 0.0
C783 C 0.61756 0.38016 0.51192 0.0
C784 C 0.54162 0.3811 0.51184 0.0
C785 C 0.32016 0.38382 0.51028 0.0
C786 C 0.39672 0.38292 0.51104 0.0
H787 H 0.75265 0.38901 0.57304 0.0
H788 H 0.62814 0.39042 0.57299 0.0
H789 H 0.52537 0.36116 0.47766 0.0
H790 H 0.18424 0.36948 0.45359 0.0
H791 H 0.3081 0.36883 0.45361 0.0
C792 C 0.82752 0.88421 0.98545 0.0
C793 C 0.79121 0.88027 0.01023 0.0
C794 C 0.89896 0.88463 0.98609 0.0
C795 C 0.04928 0.88432 0.04608 0.0
H796 H 0.14967 0.87725 0.95266 0.0
C797 C 0.3431 0.87728 0.03528 0.0
C798 C 0.37971 0.88302 0.01509 0.0
C799 C 0.27165 0.87706 0.03479 0.0
C800 C 0.12244 0.87937 0.97908 0.0
H801 H 0.80185 0.87319 0.05416 0.0
H802 H 0.92629 0.87341 0.05435 0.0
H803 H 0.02549 0.87632 0.95119 0.0
H804 H 0.36953 0.8932 0.97885 0.0
H805 H 0.24467 0.89284 0.97799 0.0
H806 H 0.14669 0.88709 0.0737 0.0
C807 C 0.89978 0.87663 0.03523 0.0
C808 C 0.05093 0.87887 0.97832 0.0
C809 C 0.82822 0.87634 0.03482 0.0
C810 C 0.34296 0.88869 0.9947 0.0
C811 C 0.27138 0.88839 0.99396 0.0
C812 C 0.1208 0.88468 0.04675 0.0
C813 C 0.93642 0.88088 0.01106 0.0
C814 C 1.01306 0.88136 0.01183 0.0
C815 C 0.23472 0.88257 0.014 0.0
C816 C 0.1584 0.88223 0.01328 0.0
H817 H 0.80061 0.88701 0.96554 0.0
H818 H 0.92465 0.8881 0.96731 0.0
H819 H 0.02245 0.88656 0.07268 0.0
H820 H 0.36969 0.87303 0.05183 0.0
H821 H 0.24529 0.87242 0.05034 0.0
C822 C 0.21352 0.1441 0.05061 0.0
C823 C 0.25071 0.13846 0.01654 0.0
C824 C 0.14211 0.1435 0.0505 0.0
C825 C 0.9899 0.13555 0.98502 0.0
H826 H 0.89801 0.13447 0.07302 0.0
C827 C 0.70015 0.12444 0.98742 0.0
C828 C 0.66354 0.13319 0.01842 0.0
C829 C 0.77172 0.12478 0.98683 0.0
C830 C 0.92296 0.13481 0.04828 0.0
H831 H 0.24154 0.12826 0.9554 0.0
H832 H 0.11799 0.1265 0.95524 0.0
H833 H 0.02204 0.13559 0.07231 0.0
H834 H 0.67333 0.14879 0.07379 0.0
H835 H 0.79798 0.14925 0.07307 0.0
H836 H 0.89013 0.13431 0.96068 0.0
C837 C 0.14326 0.13166 0.98218 0.0
C838 C 0.99431 0.13556 0.04791 0.0
C839 C 0.21458 0.13249 0.98226 0.0
C840 C 0.70006 0.14203 0.04929 0.0
C841 C 0.77147 0.14223 0.04901 0.0
C842 C 0.9186 0.13455 0.98514 0.0
C843 C 0.10565 0.13709 0.01634 0.0
C844 C 0.02913 0.13606 0.01641 0.0
C845 C 0.80821 0.1337 0.0176 0.0
C846 C 0.88423 0.13427 0.01688 0.0
H847 H 0.23965 0.14886 0.07755 0.0
H848 H 0.11565 0.14813 0.07737 0.0
H849 H 1.01392 0.13615 0.96046 0.0
H850 H 0.67342 0.11756 0.96314 0.0
H851 H 0.79861 0.11803 0.96234 0.0
C852 C 0.34071 0.14105 0.54987 0.0
C853 C 0.37749 0.13271 0.51813 0.0
C854 C 0.26933 0.14132 0.54944 0.0
C855 C 0.12269 0.1344 0.48468 0.0
H856 H 1.01833 0.1353 0.57143 0.0
C857 C 0.82688 0.13211 0.48148 0.0
C858 C 0.79071 0.13836 0.51565 0.0
C859 C 0.89818 0.13131 0.48145 0.0
C860 C 0.0464 0.13529 0.54715 0.0
H861 H 0.36787 0.11797 0.46116 0.0
H862 H 0.24287 0.11848 0.4603 0.0
H863 H 0.14229 0.13397 0.57221 0.0
H864 H 0.80165 0.14927 0.57643 0.0
H865 H 0.92575 0.14844 0.57631 0.0
H866 H 0.02752 0.13612 0.45997 0.0
C867 C 0.26952 0.12484 0.48552 0.0
C868 C 0.1177 0.13444 0.54756 0.0
C869 C 0.34106 0.12446 0.48614 0.0
C870 C 0.82782 0.14429 0.54961 0.0
C871 C 0.89922 0.14365 0.54955 0.0
C872 C 0.05143 0.13544 0.48447 0.0
C873 C 0.23279 0.13331 0.51712 0.0
C874 C 0.15676 0.13397 0.51633 0.0
C875 C 0.93563 0.13698 0.51555 0.0
C876 C 1.012 0.1359 0.51572 0.0
H877 H 0.36716 0.14744 0.57511 0.0
H878 H 0.24275 0.14801 0.57415 0.0
H879 H 0.15133 0.13424 0.46036 0.0
H880 H 0.79997 0.12766 0.45469 0.0
H881 H 0.92363 0.12596 0.45467 0.0
C882 C 0.70084 0.87293 0.52406 0.0
C883 C 0.66486 0.88106 0.51161 0.0
C884 C 0.77229 0.87279 0.52407 0.0
C885 C 0.92157 0.87817 0.47684 0.0
H886 H 1.02007 0.88335 0.56945 0.0
C887 C 0.21673 0.88193 0.48281 0.0
C888 C 0.25286 0.87848 0.50868 0.0
C889 C 0.1453 0.88231 0.48319 0.0
C890 C 0.99388 0.88161 0.543 0.0
H891 H 0.67548 0.89543 0.48941 0.0
H892 H 0.80081 0.89492 0.48834 0.0
H893 H 0.89584 0.8837 0.56988 0.0
H894 H 0.24183 0.8719 0.5537 0.0
H895 H 0.11775 0.87171 0.55281 0.0
H896 H 1.01842 0.87546 0.4492 0.0
C897 C 0.77347 0.88873 0.49838 0.0
C898 C 0.92236 0.88194 0.54346 0.0
C899 C 0.7019 0.88907 0.49917 0.0
C900 C 0.21566 0.87476 0.53364 0.0
C901 C 0.1441 0.87484 0.53346 0.0
C902 C 0.99303 0.87754 0.47609 0.0
C903 C 0.80944 0.88062 0.51097 0.0
C904 C 0.88544 0.88029 0.51045 0.0
C905 C 0.10748 0.87881 0.50862 0.0
C906 C 0.03066 0.87931 0.50922 0.0
H907 H 0.67374 0.86683 0.53447 0.0
H908 H 0.79858 0.86643 0.53388 0.0
H909 H 0.89438 0.87673 0.45085 0.0
H910 H 0.24375 0.88448 0.46243 0.0
H911 H 0.12012 0.8856 0.46384 0.0
C912 C 0.99567 0.54716 0.9797 0.0
C913 C 0.06006 0.54953 0.9679 0.0
C914 C 0.98678 0.53728 0.99163 0.0
C915 C 0.06726 0.50708 0.98284 0.0
H916 H 0.94559 0.51012 0.0656 0.0
C917 C 0.05048 0.4689 0.04498 0.0
C918 C 0.98607 0.46654 0.05678 0.0
C919 C 0.05947 0.4788 0.03315 0.0
C920 C 0.97916 0.50904 0.04208 0.0
H921 H 0.16632 0.54384 0.96161 0.0
H922 H 0.15104 0.52679 0.98262 0.0
H923 H 0.96121 0.5281 0.04866 0.0
H924 H 0.87988 0.47228 0.06321 0.0
H925 H 0.89532 0.48936 0.04235 0.0
H926 H 0.08519 0.48802 0.97625 0.0
C927 C 0.10691 0.53229 0.98171 0.0
C928 C 0.98815 0.51938 0.03239 0.0
C929 C 0.11573 0.54212 0.96977 0.0
C930 C 0.93048 0.47399 0.05504 0.0
C931 C 0.93939 0.48383 0.04319 0.0
C932 C 0.05826 0.49674 0.99253 0.0
C933 C 0.04212 0.52957 0.99215 0.0
C934 C 0.03239 0.51856 0.00266 0.0
C935 C 1.0042 0.48654 0.03273 0.0
C936 C 1.01401 0.49756 0.02226 0.0
H937 H 0.9516 0.5526 0.97831 0.0
H938 H 0.93603 0.53543 -0.00079 0.0
H939 H 0.10083 0.506 0.95933 0.0
H940 H 0.09448 0.46343 0.04629 0.0
H941 H 0.11023 0.48064 0.02555 0.0
C942 C 1.0167 0.47128 0.55452 0.0
C943 C 0.06951 0.46299 0.53449 0.0
C944 C 1.00435 0.48244 0.5495 0.0
C945 C 0.08644 0.50482 0.51506 0.0
H946 H 0.90092 0.51593 0.51184 0.0
C947 C 0.02299 0.54641 0.47289 0.0
C948 C 0.9707 0.5548 0.49309 0.0
C949 C 0.03508 0.53526 0.47808 0.0
C950 C 0.95309 0.51306 0.5131 0.0
H951 H 0.14959 0.4599 0.49268 0.0
H952 H 0.12805 0.47929 0.4839 0.0
H953 H 0.92144 0.49647 0.52049 0.0
H954 H 0.89116 0.55808 0.53533 0.0
H955 H 0.91216 0.5387 0.5443 0.0
H956 H 0.11808 0.5214 0.50762 0.0
C957 C 0.09693 0.4773 0.50409 0.0
C958 C 0.96489 0.50187 0.51809 0.0
C959 C 0.10929 0.46615 0.50912 0.0
C960 C 0.93108 0.55175 0.51876 0.0
C961 C 0.94313 0.54062 0.52392 0.0
C962 C 0.07464 0.516 0.51006 0.0
C963 C 0.04442 0.48563 0.52428 0.0
C964 C 0.03174 0.49759 0.51911 0.0
C965 C 0.99522 0.5322 0.50361 0.0
C966 C 1.00781 0.52027 0.50899 0.0
H967 H 0.98562 0.46926 0.57468 0.0
H968 H 0.96411 0.4887 0.56596 0.0
H969 H 0.13863 0.50196 0.51635 0.0
H970 H 0.05389 0.54832 0.45248 0.0
H971 H 0.07497 0.52893 0.46151 0.0
C972 C 0.50971 0.9709 0.05575 0.0
C973 C 0.45747 0.96255 0.03532 0.0
C974 C 0.52148 0.98217 0.05127 0.0
C975 C 0.48963 0.99772 0.98503 0.0
H976 H 0.53479 0.02841 0.07289 0.0
C977 C 0.50516 0.04658 0.97644 0.0
C978 C 0.55795 0.05481 0.99665 0.0
C979 C 0.4923 0.03542 0.98137 0.0
C980 C 0.52299 0.0199 0.04794 0.0
H981 H 0.37715 0.95959 0.99374 0.0
H982 H 0.39677 0.9793 0.98649 0.0
H983 H 0.51394 1.00887 0.081 0.0
H984 H 0.63772 0.05776 0.03853 0.0
H985 H 0.61621 0.03824 0.04654 0.0
H986 H 0.4988 1.00874 0.95196 0.0
C987 C 0.42917 0.97708 0.00577 0.0
C988 C 0.51102 1.00867 0.05261 0.0
C989 C 0.41733 0.96582 0.01029 0.0
C990 C 0.59718 0.0516 0.02211 0.0
C991 C 0.58427 0.04045 0.02707 0.0
C992 C 0.50162 1.00895 0.98036 0.0
C993 C 0.48144 0.98541 0.02617 0.0
C994 C 0.49418 0.99741 0.02122 0.0
C995 C 0.53176 0.03218 0.00671 0.0
C996 C 0.5185 0.02021 0.01174 0.0
H997 H 0.54125 0.96878 0.07556 0.0
H998 H 0.56263 0.98827 0.06719 0.0
H999 H 0.47792 0.98921 0.96007 0.0
H1000 H 0.47427 0.04866 0.95634 0.0
H1001 H 0.45094 0.02937 0.9655 0.0
C1002 C 0.43771 0.05125 0.5201 0.0
C1003 C 0.47874 0.05476 0.49591 0.0
C1004 C 0.45028 0.04003 0.52466 0.0
C1005 C 0.53801 1.0089 0.47875 0.0
H1006 H 0.51581 1.00808 0.57801 0.0
C1007 C 0.62224 0.96589 0.50938 0.0
C1008 C 0.57847 0.96205 0.53169 0.0
C1009 C 0.61049 0.97721 0.50522 0.0
C1010 C 0.5216 1.0081 0.55 0.0
H1011 H 0.56517 0.04901 0.45735 0.0
H1012 H 0.58813 0.02964 0.46602 0.0
H1013 H 0.49505 0.02773 0.57049 0.0
H1014 H 0.48847 0.96727 0.5676 0.0
H1015 H 0.46762 0.98694 0.56006 0.0
H1016 H 0.56494 0.98928 0.45835 0.0
C1017 C 0.54553 0.0355 0.48113 0.0
C1018 C 0.5096 0.01938 0.54565 0.0
C1019 C 0.53289 0.04672 0.47653 0.0
C1020 C 0.52287 0.96987 0.54991 0.0
C1021 C 0.51131 0.98122 0.54591 0.0
C1022 C 0.55024 0.99763 0.48314 0.0
C1023 C 0.50435 0.03197 0.50522 0.0
C1024 C 0.51754 0.01995 0.50994 0.0
C1025 C 0.55485 0.98503 0.52341 0.0
C1026 C 0.54212 0.99707 0.51881 0.0
H1027 H 0.39606 0.05725 0.53588 0.0
H1028 H 0.41694 0.03759 0.54312 0.0
H1029 H 0.54354 1.00888 0.45067 0.0
H1030 H 0.66517 0.96006 0.49464 0.0
H1031 H 0.64546 0.9799 0.48798 0.0
C1032 C 0.19612 0.29492 0.97611 0.0
C1033 C 0.13007 0.29566 0.96283 0.0
C1034 C 0.21362 0.28514 0.98726 0.0
C1035 C 0.13613 0.26013 0.01328 0.0
H1036 H 0.31212 0.24373 0.98377 0.0
C1037 C 0.18855 0.21059 0.00903 0.0
C1038 C 0.24956 0.20873 0.02541 0.0
C1039 C 0.17753 0.22168 0.00355 0.0
C1040 C 0.26304 0.24829 0.99254 0.0
H1041 H 0.02993 0.28696 0.95263 0.0
H1042 H 0.06058 0.26986 0.97074 0.0
H1043 H 0.28607 0.26245 0.97169 0.0
H1044 H 0.34745 0.2172 0.04813 0.0
H1045 H 0.32867 0.23644 0.03757 0.0
H1046 H 0.11243 0.24576 0.03308 0.0
C1047 C 0.09904 0.27685 0.97304 0.0
C1048 C 0.2481 0.25907 0.98576 0.0
C1049 C 0.08161 0.2866 0.96207 0.0
C1050 C 0.30013 0.21818 0.03506 0.0
C1051 C 0.28932 0.22925 0.02917 0.0
C1052 C 0.1508 0.24932 0.01968 0.0
C1053 C 0.16542 0.27588 0.98551 0.0
C1054 C 0.18396 0.26503 0.99551 0.0
C1055 C 0.22745 0.23121 0.01385 0.0
C1056 C 0.21402 0.24315 0.00891 0.0
H1057 H 0.23488 0.30169 0.97693 0.0
H1058 H 0.26499 0.28482 0.99715 0.0
H1059 H 0.08688 0.26461 0.02214 0.0
H1060 H 0.14902 0.20344 0.00026 0.0
H1061 H 0.12986 0.22277 0.99096 0.0
C1062 C 0.72811 0.79597 0.97393 0.0
C1063 C 0.65745 0.79633 0.96815 0.0
C1064 C 0.75647 0.7867 0.98435 0.0
C1065 C 0.71207 0.76351 0.02532 0.0
H1066 H 0.88067 0.74725 0.97745 0.0
C1067 C 0.81822 0.71948 0.04365 0.0
C1068 C 0.88891 0.71913 0.04936 0.0
C1069 C 0.78976 0.72867 0.03292 0.0
C1070 C 0.83391 0.75176 0.99141 0.0
H1071 H 0.56109 0.78743 0.97022 0.0
H1072 H 0.6104 0.77123 0.98775 0.0
H1073 H 0.83249 0.76402 0.96201 0.0
H1074 H 0.98523 0.72796 0.04674 0.0
H1075 H 0.93575 0.74404 0.02873 0.0
H1076 H 0.71352 0.75126 0.05477 0.0
C1077 C 0.64407 0.77812 0.9844 0.0
C1078 C 0.8063 0.76142 0.98258 0.0
C1079 C 0.61581 0.78736 0.97391 0.0
C1080 C 0.93048 0.72803 0.04313 0.0
C1081 C 0.90212 0.73719 0.03236 0.0
C1082 C 0.73969 0.75385 0.03416 0.0
C1083 C 0.71485 0.77758 0.98946 0.0
C1084 C 0.74497 0.76743 -0.00059 0.0
C1085 C 0.83129 0.73773 0.02744 0.0
C1086 C 0.80104 0.74784 0.01736 0.0
H1087 H 0.76178 0.80268 0.96954 0.0
H1088 H 0.81109 0.78668 0.98846 0.0
H1089 H 0.66531 0.76803 0.03928 0.0
H1090 H 0.78459 0.71283 0.04839 0.0
H1091 H 0.73511 0.72868 0.0289 0.0
C1092 C 0.34049 0.70924 0.49816 0.0
C1093 C 0.28145 0.70779 0.51685 0.0
C1094 C 0.35096 0.7202 0.49185 0.0
C1095 C 0.26354 0.74744 0.48456 0.0
H1096 H 0.44467 0.76212 0.50293 0.0
C1097 C 0.32707 0.79401 0.46704 0.0
C1098 C 0.38971 0.79428 0.44948 0.0
C1099 C 0.31192 0.78415 0.47822 0.0
C1100 C 0.39392 0.7581 0.49724 0.0
H1101 H 0.18651 0.71684 0.54296 0.0
H1102 H 0.2044 0.73589 0.53129 0.0
H1103 H 0.42114 0.7435 0.51544 0.0
H1104 H 0.48648 0.78457 0.43144 0.0
H1105 H 0.45971 0.76737 0.44992 0.0
H1106 H 0.23668 0.76192 0.46562 0.0
C1107 C 0.24258 0.72848 0.52155 0.0
C1108 C 0.38041 0.7474 0.50448 0.0
C1109 C 0.23226 0.71752 0.52813 0.0
C1110 C 0.4373 0.78461 0.4443 0.0
C1111 C 0.42222 0.77478 0.45542 0.0
C1112 C 0.27717 0.75813 0.47707 0.0
C1113 C 0.30252 0.73002 0.50375 0.0
C1114 C 0.31533 0.74182 0.49778 0.0
C1115 C 0.35916 0.77434 0.47232 0.0
C1116 C 0.34287 0.76351 0.48281 0.0
H1117 H 0.37883 0.70187 0.4882 0.0
H1118 H 0.39701 0.72093 0.47732 0.0
H1119 H 0.21294 0.74335 0.47886 0.0
H1120 H 0.28903 0.80126 0.47132 0.0
H1121 H 0.26315 0.78423 0.49154 0.0
C1122 C 0.8305 0.29712 0.4821 0.0
C1123 C 0.78473 0.30686 0.50295 0.0
C1124 C 0.82807 0.28539 0.48471 0.0
C1125 C 0.76549 0.26981 0.54611 0.0
H1126 H 0.78795 0.23897 0.45478 0.0
C1127 C 0.71848 0.22023 0.54525 0.0
C1128 C 0.76377 0.21044 0.52406 0.0
C1129 C 0.72062 0.23194 0.54252 0.0
C1130 C 0.78235 0.24748 0.48066 0.0
H1131 H 0.70118 0.31189 0.54345 0.0
H1132 H 0.6963 0.29142 0.54756 0.0
H1133 H 0.79323 0.25943 0.45058 0.0
H1134 H 0.84608 0.20533 0.48276 0.0
H1135 H 0.85068 0.22578 0.47857 0.0
H1136 H 0.75475 0.25787 0.57622 0.0
C1137 C 0.73446 0.29287 0.52935 0.0
C1138 C 0.7854 0.25924 0.47825 0.0
C1139 C 0.73676 0.30458 0.52666 0.0
C1140 C 0.81092 0.21267 0.49986 0.0
C1141 C 0.81302 0.22437 0.4971 0.0
C1142 C 0.76251 0.25806 0.54853 0.0
C1143 C 0.77995 0.2831 0.50833 0.0
C1144 C 0.777 0.27056 0.51094 0.0
C1145 C 0.76804 0.23419 0.51847 0.0
C1146 C 0.77088 0.24672 0.51584 0.0
H1147 H 0.8677 0.29849 0.46329 0.0
H1148 H 0.86439 0.27815 0.46841 0.0
H1149 H 0.75985 0.27832 0.57198 0.0
H1150 H 0.68192 0.21891 0.56445 0.0
H1151 H 0.68466 0.23921 0.55909 0.0
C1152 C 0.02526 0.39161 0.14296 0.0
C1153 C 0.07093 0.38308 0.11677 0.0
C1154 C 1.01228 0.39098 0.17792 0.0
C1155 C 1.0184 0.36942 0.22651 0.0
H1156 H 1.0204 0.40029 0.31895 0.0
C1157 C 0.03531 0.38611 0.39901 0.0
C1158 C 0.98091 0.37947 0.4061 0.0
C1159 C 0.0445 0.38607 0.36299 0.0
C1160 C 1.01974 0.39159 0.29337 0.0
H1161 H 0.13976 0.36736 0.1072 0.0
H1162 H 0.11653 0.36624 0.16813 0.0
H1163 H 0.0401 0.40132 0.25754 0.0
H1164 H 0.89316 0.36762 0.38101 0.0
H1165 H 0.91051 0.36724 0.31733 0.0
H1166 H 0.99842 0.35969 0.26259 0.0
C1167 C 0.09036 0.37331 0.16136 0.0
C1168 C 0.03048 0.39219 0.25822 0.0
C1169 C 0.10392 0.37402 0.12658 0.0
C1170 C 0.93649 0.37257 0.37614 0.0
C1171 C 0.94614 0.37242 0.33982 0.0
C1172 C 1.00689 0.36883 0.26171 0.0
C1173 C 0.04431 0.38177 0.18735 0.0
C1174 C 0.03057 0.38111 0.22447 0.0
C1175 C 0.99967 0.37934 0.33312 0.0
C1176 C 1.00828 0.3799 0.2955 0.0
H1177 H 0.99882 0.39868 0.13631 0.0
H1178 H 0.97625 0.39758 0.19734 0.0
H1179 H 1.01756 0.36073 0.20087 0.0
H1180 H 0.07067 0.39145 0.42148 0.0
H1181 H 0.08677 0.39133 0.35849 0.0
C1182 C 1.01658 0.62971 0.12768 0.0
C1183 C 0.96566 0.63632 0.11756 0.0
C1184 C 1.0175 0.62964 0.16385 0.0
C1185 C 0.95892 0.64694 0.26229 0.0
H1186 H 1.00346 0.61543 0.27038 0.0
C1187 C 0.9881 0.62493 0.38362 0.0
C1188 C 0.02718 0.6346 0.41075 0.0
C1189 C 0.97243 0.62529 0.34854 0.0
C1190 C 0.99008 0.62427 0.26867 0.0
H1191 H 0.87599 0.64815 0.13758 0.0
H1192 H 0.87774 0.64809 0.20133 0.0
H1193 H 0.99048 0.61574 0.20773 0.0
H1194 H 0.07911 0.65239 0.42244 0.0
H1195 H 0.05242 0.65292 0.36139 0.0
H1196 H 0.95869 0.65546 0.32334 0.0
C1197 C 0.91711 0.643 0.18111 0.0
C1198 C 0.98342 0.62448 0.23275 0.0
C1199 C 0.91607 0.64304 0.14468 0.0
C1200 C 0.04901 0.64475 0.40227 0.0
C1201 C 0.03323 0.64512 0.36732 0.0
C1202 C 0.96574 0.64673 0.29829 0.0
C1203 C 0.96752 0.63618 0.1909 0.0
C1204 C 0.9689 0.63585 0.22914 0.0
C1205 C 0.99525 0.63535 0.3399 0.0
C1206 C 0.98238 0.63542 0.30187 0.0
H1207 H 0.05602 0.62455 0.10759 0.0
H1208 H 0.05787 0.62453 0.17074 0.0
H1209 H 0.94798 0.65585 0.26044 0.0
H1210 H 0.96984 0.61704 0.38933 0.0
H1211 H 0.94239 0.61769 0.32818 0.0
C1212 C 1.02015 0.6239 0.8795 0.0
C1213 C 0.97395 0.63236 0.90548 0.0
C1214 C 0.03413 0.62466 0.84479 0.0
C1215 C 0.02886 0.64655 0.79711 0.0
H1216 H 0.02926 0.61593 0.70394 0.0
C1217 C 0.10839 0.64447 0.64822 0.0
C1218 C 0.0641 0.63753 0.61822 0.0
C1219 C 0.09983 0.64435 0.6843 0.0
C1220 C 0.02931 0.62456 0.72974 0.0
H1221 H 0.90507 0.64806 0.9149 0.0
H1222 H 0.92986 0.64939 0.85445 0.0
H1223 H 1.00938 0.61456 0.76488 0.0
H1224 H 0.97557 0.62523 0.60263 0.0
H1225 H 0.96136 0.62491 0.66514 0.0
H1226 H 0.04814 0.65655 0.76172 0.0
C1227 C 0.9558 0.64228 0.86117 0.0
C1228 C 1.01847 0.62377 0.76462 0.0
C1229 C 0.94129 0.64145 0.89568 0.0
C1230 C 1.01087 0.63061 0.62509 0.0
C1231 C 1.00277 0.63039 0.66085 0.0
C1232 C 0.04043 0.64734 0.76218 0.0
C1233 C 1.00253 0.63393 0.83543 0.0
C1234 C 1.0173 0.63476 0.79863 0.0
C1235 C 0.04752 0.63714 0.69073 0.0
C1236 C 0.03978 0.63636 0.72811 0.0
H1237 H 0.04634 0.61681 0.88616 0.0
H1238 H 0.07061 0.61813 0.82555 0.0
H1239 H 0.02893 0.65517 0.82295 0.0
H1240 H 0.15084 0.64964 0.64356 0.0
H1241 H 0.13534 0.64958 0.70682 0.0
C1242 C 0.05775 0.39217 0.64003 0.0
C1243 C 1.01831 0.38254 0.613 0.0
C1244 C 0.07385 0.39177 0.675 0.0
C1245 C 0.05739 0.3928 0.75492 0.0
H1246 H 0.09704 0.3611 0.76297 0.0
C1247 C 0.02997 0.38731 0.8959 0.0
C1248 C 0.07956 0.38036 0.90559 0.0
C1249 C 0.02962 0.38753 0.8599 0.0
C1250 C 0.08684 0.37005 0.76118 0.0
H1251 H 0.96625 0.36477 0.60139 0.0
H1252 H 0.99352 0.36419 0.66228 0.0
H1253 H 0.08646 0.36153 0.70015 0.0
H1254 H 0.16771 0.36813 0.88505 0.0
H1255 H 0.167 0.36847 0.82167 0.0
H1256 H 0.05774 0.40133 0.81586 0.0
C1257 C 1.01274 0.37198 0.65634 0.0
C1258 C 0.08005 0.37028 0.72521 0.0
C1259 C 0.99662 0.37238 0.62147 0.0
C1260 C 0.1286 0.37351 0.87828 0.0
C1261 C 0.12815 0.3737 0.84205 0.0
C1262 C 0.0641 0.39257 0.79082 0.0
C1263 C 0.05104 0.38171 0.68368 0.0
C1264 C 0.06418 0.38162 0.72168 0.0
C1265 C 0.07888 0.3808 0.8326 0.0
C1266 C 0.0777 0.38116 0.79438 0.0
H1267 H 0.07594 0.40006 0.63431 0.0
H1268 H 0.10418 0.39934 0.69527 0.0
H1269 H 0.04463 0.40168 0.75327 0.0
H1270 H 0.99103 0.39259 0.91615 0.0
H1271 H 0.99011 0.39287 0.85329 0.0
C1272 C 0.61877 0.8799 0.13664 0.0
C1273 C 0.56744 0.88386 0.11853 0.0
C1274 C 0.60544 0.87865 0.17072 0.0
C1275 C 0.4761 0.88655 0.24948 0.0
H1276 H 0.57937 0.86162 0.2711 0.0
C1277 C 0.42249 0.87236 0.37701 0.0
C1278 C 0.47822 0.87516 0.40205 0.0
C1279 C 0.42992 0.87259 0.34093 0.0
C1280 C 0.55002 0.86858 0.2653 0.0
H1281 H 0.46174 0.88951 0.12143 0.0
H1282 H 0.43704 0.88678 0.17992 0.0
H1283 H 0.59761 0.86372 0.2112 0.0
H1284 H 0.58544 0.87997 0.40899 0.0
H1285 H 0.59922 0.87974 0.34527 0.0
H1286 H 0.42704 0.891 0.30346 0.0
C1287 C 0.48854 0.88507 0.16888 0.0
C1288 C 0.56094 0.86993 0.23112 0.0
C1289 C 0.50249 0.88663 0.13523 0.0
C1290 C 0.54187 0.87772 0.39002 0.0
C1291 C 0.54972 0.87759 0.35368 0.0
C1292 C 0.4641 0.88498 0.28328 0.0
C1293 C 0.53976 0.88099 0.18714 0.0
C1294 C 0.52514 0.87911 0.22289 0.0
C1295 C 0.4936 0.87526 0.32906 0.0
C1296 C 0.5017 0.87611 0.29174 0.0
H1297 H 0.66944 0.87777 0.12441 0.0
H1298 H 0.64707 0.87587 0.18415 0.0
H1299 H 0.44804 0.89386 0.24483 0.0
H1300 H 0.37272 0.87054 0.38594 0.0
H1301 H 0.38593 0.87076 0.3224 0.0
C1302 C 0.4166 0.14467 0.15158 0.0
C1303 C 0.46399 0.13802 0.12296 0.0
C1304 C 0.42213 0.14465 0.1879 0.0
C1305 C 0.4957 0.12592 0.23696 0.0
H1306 H 0.47132 0.15652 0.3288 0.0
C1307 C 0.56051 0.14534 0.40684 0.0
C1308 C 0.53823 0.13509 0.4147 0.0
C1309 C 0.54576 0.14587 0.37196 0.0
C1310 C 0.4784 0.14789 0.3034 0.0
H1311 H 0.55476 0.1263 0.11003 0.0
H1312 H 0.56447 0.12628 0.17318 0.0
H1313 H 0.45835 0.15729 0.26652 0.0
H1314 H 0.48124 0.11749 0.39215 0.0
H1315 H 0.45567 0.11841 0.33112 0.0
H1316 H 0.51739 0.11658 0.27367 0.0
C1317 C 0.52262 0.13139 0.16758 0.0
C1318 C 0.47034 0.14832 0.26775 0.0
C1319 C 0.51723 0.13146 0.13145 0.0
C1320 C 0.49988 0.12546 0.38694 0.0
C1321 C 0.48531 0.12597 0.35192 0.0
C1322 C 0.5035 0.12549 0.27256 0.0
C1323 C 0.47478 0.13787 0.19614 0.0
C1324 C 0.47978 0.13737 0.23412 0.0
C1325 C 0.50839 0.13616 0.34396 0.0
C1326 C 0.49572 0.13649 0.30621 0.0
H1327 H 0.3741 0.14956 0.14561 0.0
H1328 H 0.3841 0.14963 0.2092 0.0
H1329 H 0.50238 0.11728 0.21158 0.0
H1330 H 0.59008 0.15295 0.42747 0.0
H1331 H 0.56509 0.15376 0.36659 0.0
C1332 C 0.48368 0.14513 0.90628 0.0
C1333 C 0.50499 0.13491 0.9146 0.0
C1334 C 0.49957 0.14553 0.87138 0.0
C1335 C 0.56837 0.14734 0.80304 0.0
H1336 H 0.54619 0.11659 0.71148 0.0
C1337 C 0.62897 0.14423 0.6512 0.0
C1338 C 0.58195 0.13743 0.6226 0.0
C1339 C 0.62419 0.14414 0.68749 0.0
C1340 C 0.55239 0.12527 0.73677 0.0
H1341 H 0.56122 0.11721 0.89277 0.0
H1342 H 0.58899 0.11792 0.83169 0.0
H1343 H 0.53024 0.11601 0.77363 0.0
H1344 H 0.49255 0.12538 0.60969 0.0
H1345 H 0.48404 0.12528 0.67274 0.0
H1346 H 0.58851 0.15667 0.76601 0.0
C1347 C 0.55923 0.12556 0.85217 0.0
C1348 C 0.54408 0.1249 0.77243 0.0
C1349 C 0.54342 0.12516 0.88722 0.0
C1350 C 0.52987 0.13065 0.63106 0.0
C1351 C 0.52518 0.13053 0.66715 0.0
C1352 C 0.57683 0.1477 0.76733 0.0
C1353 C 0.5372 0.13573 0.84379 0.0
C1354 C 0.55106 0.13596 0.806 0.0
C1355 C 0.57261 0.13717 0.69572 0.0
C1356 C 0.56794 0.13671 0.73377 0.0
H1357 H 0.45402 0.15282 0.92659 0.0
H1358 H 0.4809 0.15341 0.86569 0.0
H1359 H 0.57494 0.156 0.82836 0.0
H1360 H 0.6705 0.14932 0.64528 0.0
H1361 H 0.66189 0.14926 0.70878 0.0
C1362 C 0.55637 0.88442 0.62902 0.0
C1363 C 0.48907 0.88376 0.6159 0.0
C1364 C 0.56981 0.88374 0.66403 0.0
C1365 C 0.49562 0.89055 0.75703 0.0
H1366 H 0.61395 0.86455 0.76299 0.0
C1367 C 0.50619 0.88223 0.89426 0.0
C1368 C 0.56788 0.87856 0.90524 0.0
C1369 C 0.49908 0.88236 0.85826 0.0
C1370 C 0.58165 0.87202 0.76212 0.0
H1371 H 0.38306 0.88218 0.62901 0.0
H1372 H 0.40623 0.88154 0.69086 0.0
H1373 H 0.5992 0.86636 0.70214 0.0
H1374 H 0.67043 0.87197 0.88717 0.0
H1375 H 0.65947 0.87271 0.82455 0.0
H1376 H 0.47931 0.89659 0.81673 0.0
C1377 C 0.44863 0.88236 0.67392 0.0
C1378 C 0.5731 0.873 0.72715 0.0
C1379 C 0.43537 0.88273 0.63863 0.0
C1380 C 0.62215 0.87475 0.87919 0.0
C1381 C 0.61561 0.87516 0.84327 0.0
C1382 C 0.5051 0.88974 0.79203 0.0
C1383 C 0.51596 0.88275 0.68685 0.0
C1384 C 0.52918 0.88217 0.7242 0.0
C1385 C 0.55415 0.87916 0.83247 0.0
C1386 C 0.54724 0.88031 0.7951 0.0
H1387 H 0.59855 0.88509 0.61171 0.0
H1388 H 0.62213 0.88409 0.67343 0.0
H1389 H 0.46212 0.89781 0.75564 0.0
H1390 H 0.46321 0.88505 0.91369 0.0
H1391 H 0.45014 0.88505 0.85085 0.0
loop_
_geom_bond_atom_site_label_1
_geom_bond_atom_site_label_2
_geom_bond_distance
_geom_bond_site_symmetry_2
_ccdc_geom_bond_type
C0 C2 1.422 . S
C0 C4 1.415 . S
C0 N6 1.369 . S
C1 C2 1.421 . S
C1 C3 1.417 . S
C1 C13 1.422 . S
C2 C0 1.422 . S
C2 C1 1.421 . S
C2 N12 1.359 . S
C3 C1 1.417 . S
C3 C5 1.329 . S
C3 H22 0.930 . S
C4 C0 1.415 . S
C4 C5 1.437 . S
C4 C8 1.413 . S
C5 C3 1.329 . S
C5 C4 1.437 . S
C5 H27 0.929 . S
N6 C0 1.369 . S
N6 C7 1.338 . S
N6 Gd11 2.622 . S
C7 N6 1.338 . S
C7 C9 1.378 . S
C7 H19 0.929 . S
C8 C4 1.413 . S
C8 C9 1.348 . S
C8 H24 0.931 . S
C9 C7 1.378 . S
C9 C8 1.348 . S
C9 H25 0.930 . S
Gd10 N30 2.622 1_455 S
Gd10 N37 2.570 1_455 S
Gd10 O44 2.353 . S
Gd10 O45 2.468 1_556 S
Gd10 O46 2.427 . S
Gd10 O48 2.388 . S
Gd10 O49 2.386 1_455 S
Gd10 O53 2.307 1_556 S
Gd10 C63 2.805 . S
Gd11 N6 2.622 . S
Gd11 N12 2.570 . S
Gd11 O43 2.386 . S
Gd11 O47 2.307 1_554 S
Gd11 O50 2.353 1_455 S
Gd11 O51 2.468 . S
Gd11 O52 2.427 . S
Gd11 O54 2.388 . S
Gd11 C75 2.805 . S
N12 C2 1.359 . S
N12 Gd11 2.570 . S
N12 C14 1.343 1_554 S
C13 C1 1.422 . S
C13 C15 1.321 1_554 S
C13 H21 0.931 . S
C14 N12 1.343 1_556 S
C14 C15 1.390 . S
C14 H16 0.931 . S
C15 C13 1.321 1_556 S
C15 C14 1.390 . S
C15 H17 0.930 . S
H16 C14 0.931 . S
H17 C15 0.930 . S
H18 C41 0.931 . S
H19 C7 0.929 . S
H20 C42 0.930 . S
H21 C13 0.931 . S
H22 C3 0.930 . S
H23 C32 0.929 1_455 S
H24 C8 0.931 . S
H25 C9 0.930 . S
H26 C64 0.930 . S
H27 C5 0.929 . S
H28 C33 0.931 . S
H29 C34 0.930 . S
N30 Gd10 2.622 1_655 S
N30 C31 1.369 . S
N30 C32 1.338 . S
C31 N30 1.369 . S
C31 C35 1.415 . S
C31 C38 1.422 . S
C32 H23 0.929 1_655 S
C32 N30 1.338 . S
C32 C34 1.378 . S
C33 H28 0.931 . S
C33 C34 1.348 . S
C33 C35 1.413 . S
C34 H29 0.930 . S
C34 C32 1.378 . S
C34 C33 1.348 . S
C35 C31 1.415 . S
C35 C33 1.413 . S
C35 C65 1.437 . S
H36 C65 0.929 . S
N37 Gd10 2.570 1_655 S
N37 C38 1.359 . S
N37 C41 1.343 1_556 S
C38 C31 1.422 . S
C38 N37 1.359 . S
C38 C40 1.421 . S
C39 C40 1.422 1_554 S
C39 C42 1.321 . S
C39 H66 0.931 . S
C40 C38 1.421 . S
C40 C39 1.422 1_556 S
C40 C64 1.417 . S
C41 H18 0.931 . S
C41 N37 1.343 1_554 S
C41 C42 1.390 . S
C42 H20 0.930 . S
C42 C39 1.321 . S
C42 C41 1.390 . S
O43 Gd11 2.386 . S
O43 C55 1.265 . S
O44 Gd10 2.353 . S
O44 C55 1.242 1_556 S
O45 Gd10 2.468 1_554 S
O45 C63 1.263 1_554 S
O46 Gd10 2.427 . S
O46 C63 1.252 . S
O47 Gd11 2.307 1_556 S
O47 C56 1.261 . S
O48 Gd10 2.388 . S
O48 C56 1.252 . S
O49 Gd10 2.386 1_655 S
O49 C67 1.265 1_556 S
O50 Gd11 2.353 1_655 S
O50 C67 1.242 . S
O51 Gd11 2.468 . S
O51 C75 1.263 . S
O52 Gd11 2.427 . S
O52 C75 1.252 . S
O53 Gd10 2.307 1_554 S
O53 C68 1.261 . S
O54 Gd11 2.388 . S
O54 C68 1.252 . S
C55 O43 1.265 . S
C55 O44 1.242 1_554 S
C56 O47 1.261 . S
C56 O48 1.252 . S
C57 C60 1.394 . S
C57 C62 1.370 1_556 S
C57 C63 1.500 . S
C58 C61 1.383 . S
C58 C62 1.395 1_556 S
C59 C60 1.396 . S
C59 C61 1.365 . S
C59 H76 0.929 . S
C60 C57 1.394 . S
C60 C59 1.396 . S
C60 H77 0.930 . S
C61 C58 1.383 . S
C61 C59 1.365 . S
C61 H78 0.931 . S
C62 C57 1.370 1_554 S
C62 C58 1.395 1_554 S
C62 H79 0.930 . S
C63 Gd10 2.805 . S
C63 O45 1.263 1_556 S
C63 O46 1.252 . S
C63 C57 1.500 . S
C64 H26 0.930 . S
C64 C40 1.417 . S
C64 C65 1.329 . S
C65 C35 1.437 . S
C65 H36 0.929 . S
C65 C64 1.329 . S
H66 C39 0.931 . S
C67 O49 1.265 1_554 S
C67 O50 1.242 . S
C68 O53 1.261 . S
C68 O54 1.252 . S
C69 C72 1.394 . S
C69 C74 1.370 . S
C69 C75 1.500 1_655 S
C70 C73 1.383 . S
C70 C74 1.395 . S
C71 C72 1.396 . S
C71 C73 1.365 . S
C71 H80 0.929 . S
C72 C69 1.394 . S
C72 C71 1.396 . S
C72 H81 0.930 . S
C73 C70 1.383 . S
C73 C71 1.365 . S
C73 H82 0.931 . S
C74 C69 1.370 . S
C74 C70 1.395 . S
C74 H83 0.930 1_554 S
C75 Gd11 2.805 . S
C75 O51 1.263 . S
C75 O52 1.252 . S
C75 C69 1.500 1_455 S
H76 C59 0.929 . S
H77 C60 0.930 . S
H78 C61 0.931 . S
H79 C62 0.930 . S
H80 C71 0.929 . S
H81 C72 0.930 . S
H82 C73 0.931 . S
H83 C74 0.930 1_556 S
C84 C86 1.422 . S
C84 C88 1.415 . S
C84 N90 1.369 . S
C85 C86 1.421 . S
C85 C87 1.417 . S
C85 C97 1.422 . S
C86 C84 1.422 . S
C86 C85 1.421 . S
C86 N96 1.359 . S
C87 C85 1.417 . S
C87 C89 1.329 . S
C87 H106 0.930 . S
C88 C84 1.415 . S
C88 C89 1.437 . S
C88 C92 1.413 . S
C89 C87 1.329 . S
C89 C88 1.437 . S
C89 H111 0.929 . S
N90 C84 1.369 . S
N90 C91 1.338 . S
N90 Gd95 2.622 1_455 S
C91 N90 1.338 . S
C91 C93 1.378 . S
C91 H103 0.929 1_455 S
C92 C88 1.413 . S
C92 C93 1.348 . S
C92 H108 0.931 . S
C93 C91 1.378 . S
C93 C92 1.348 . S
C93 H109 0.930 . S
Gd94 N114 2.622 . S
Gd94 N121 2.570 1_556 S
Gd94 O128 2.353 1_656 S
Gd94 O129 2.468 1_556 S
Gd94 O130 2.427 . S
Gd94 O132 2.388 . S
Gd94 O133 2.386 . S
Gd94 O137 2.307 1_556 S
Gd94 C147 2.805 . S
Gd95 N90 2.622 1_655 S
Gd95 N96 2.570 1_655 S
Gd95 O127 2.386 1_655 S
Gd95 O131 2.307 1_554 S
Gd95 O134 2.353 . S
Gd95 O135 2.468 . S
Gd95 O136 2.427 . S
Gd95 O138 2.388 . S
Gd95 C159 2.805 . S
N96 C86 1.359 . S
N96 Gd95 2.570 1_455 S
N96 C98 1.343 1_554 S
C97 C85 1.422 . S
C97 C99 1.321 1_554 S
C97 H105 0.931 . S
C98 N96 1.343 1_556 S
C98 C99 1.390 . S
C98 H100 0.931 . S
C99 C97 1.321 1_556 S
C99 C98 1.390 . S
C99 H101 0.930 . S
H100 C98 0.931 . S
H101 C99 0.930 . S
H102 C125 0.931 . S
H103 C91 0.929 1_655 S
H104 C126 0.930 . S
H105 C97 0.931 . S
H106 C87 0.930 . S
H107 C116 0.929 . S
H108 C92 0.931 . S
H109 C93 0.930 . S
H110 C148 0.930 . S
H111 C89 0.929 . S
H112 C117 0.931 . S
H113 C118 0.930 . S
N114 Gd94 2.622 . S
N114 C115 1.369 . S
N114 C116 1.338 . S
C115 N114 1.369 . S
C115 C119 1.415 . S
C115 C122 1.422 . S
C116 H107 0.929 . S
C116 N114 1.338 . S
C116 C118 1.378 . S
C117 H112 0.931 . S
C117 C118 1.348 . S
C117 C119 1.413 . S
C118 H113 0.930 . S
C118 C116 1.378 . S
C118 C117 1.348 . S
C119 C115 1.415 . S
C119 C117 1.413 . S
C119 C149 1.437 . S
H120 C149 0.929 . S
N121 Gd94 2.570 1_554 S
N121 C122 1.359 1_554 S
N121 C125 1.343 . S
C122 C115 1.422 . S
C122 N121 1.359 1_556 S
C122 C124 1.421 . S
C123 C124 1.422 1_554 S
C123 C126 1.321 . S
C123 H150 0.931 . S
C124 C122 1.421 . S
C124 C123 1.422 1_556 S
C124 C148 1.417 . S
C125 H102 0.931 . S
C125 N121 1.343 . S
C125 C126 1.390 . S
C126 H104 0.930 . S
C126 C123 1.321 . S
C126 C125 1.390 . S
O127 Gd95 2.386 1_455 S
O127 C139 1.265 . S
O128 Gd94 2.353 1_454 S
O128 C139 1.242 . S
O129 Gd94 2.468 1_554 S
O129 C147 1.263 1_554 S
O130 Gd94 2.427 . S
O130 C147 1.252 . S
O131 Gd95 2.307 1_556 S
O131 C140 1.261 . S
O132 Gd94 2.388 . S
O132 C140 1.252 . S
O133 Gd94 2.386 . S
O133 C151 1.265 1_556 S
O134 Gd95 2.353 . S
O134 C151 1.242 . S
O135 Gd95 2.468 . S
O135 C159 1.263 . S
O136 Gd95 2.427 . S
O136 C159 1.252 . S
O137 Gd94 2.307 1_554 S
O137 C152 1.261 . S
O138 Gd95 2.388 . S
O138 C152 1.252 . S
C139 O127 1.265 . S
C139 O128 1.242 . S
C140 O131 1.261 . S
C140 O132 1.252 . S
C141 C144 1.394 . S
C141 C146 1.370 1_556 S
C141 C147 1.500 1_455 S
C142 C145 1.383 1_554 S
C142 C146 1.395 . S
C143 C144 1.396 . S
C143 C145 1.365 . S
C143 H160 0.929 . S
C144 C141 1.394 . S
C144 C143 1.396 . S
C144 H161 0.930 . S
C145 C142 1.383 1_556 S
C145 C143 1.365 . S
C145 H162 0.931 . S
C146 C141 1.370 1_554 S
C146 C142 1.395 . S
C146 H163 0.930 . S
C147 Gd94 2.805 . S
C147 O129 1.263 1_556 S
C147 O130 1.252 . S
C147 C141 1.500 1_655 S
C148 H110 0.930 . S
C148 C124 1.417 . S
C148 C149 1.329 . S
C149 C119 1.437 . S
C149 H120 0.929 . S
C149 C148 1.329 . S
H150 C123 0.931 . S
C151 O133 1.265 1_554 S
C151 O134 1.242 . S
C152 O137 1.261 . S
C152 O138 1.252 . S
C153 C156 1.394 . S
C153 C158 1.370 . S
C153 C159 1.500 . S
C154 C157 1.383 . S
C154 C158 1.395 . S
C155 C156 1.396 . S
C155 C157 1.365 . S
C155 H164 0.929 . S
C156 C153 1.394 . S
C156 C155 1.396 . S
C156 H165 0.930 . S
C157 C154 1.383 . S
C157 C155 1.365 . S
C157 H166 0.931 . S
C158 C153 1.370 . S
C158 C154 1.395 . S
C158 H167 0.930 . S
C159 Gd95 2.805 . S
C159 O135 1.263 . S
C159 O136 1.252 . S
C159 C153 1.500 . S
H160 C143 0.929 . S
H161 C144 0.930 . S
H162 C145 0.931 . S
H163 C146 0.930 . S
H164 C155 0.929 . S
H165 C156 0.930 . S
H166 C157 0.931 . S
H167 C158 0.930 . S
C168 C170 1.422 . S
C168 C172 1.415 . S
C168 N174 1.369 . S
C169 C170 1.421 . S
C169 C171 1.417 . S
C169 C181 1.422 . S
C170 C168 1.422 . S
C170 C169 1.421 . S
C170 N180 1.359 . S
C171 C169 1.417 . S
C171 C173 1.329 . S
C171 H190 0.930 . S
C172 C168 1.415 . S
C172 C173 1.437 . S
C172 C176 1.413 . S
C173 C171 1.329 . S
C173 C172 1.437 . S
C173 H195 0.929 . S
N174 C168 1.369 . S
N174 C175 1.338 . S
N174 Gd179 2.622 . S
C175 N174 1.338 . S
C175 C177 1.378 . S
C175 H187 0.929 . S
C176 C172 1.413 . S
C176 C177 1.348 . S
C176 H192 0.931 . S
C177 C175 1.378 . S
C177 C176 1.348 . S
C177 H193 0.930 . S
Gd178 N198 2.622 1_455 S
Gd178 N205 2.570 1_455 S
Gd178 O212 2.353 . S
Gd178 O213 2.468 . S
Gd178 O214 2.427 . S
Gd178 O216 2.388 . S
Gd178 O217 2.386 1_455 S
Gd178 O221 2.307 . S
Gd178 C231 2.805 . S
Gd179 N174 2.622 . S
Gd179 N180 2.570 . S
Gd179 O211 2.386 . S
Gd179 O215 2.307 . S
Gd179 O218 2.353 1_455 S
Gd179 O219 2.468 . S
Gd179 O220 2.427 . S
Gd179 O222 2.388 . S
Gd179 C243 2.805 . S
N180 C170 1.359 . S
N180 Gd179 2.570 . S
N180 C182 1.343 . S
C181 C169 1.422 . S
C181 C183 1.321 . S
C181 H189 0.931 . S
C182 N180 1.343 . S
C182 C183 1.390 . S
C182 H184 0.931 . S
C183 C181 1.321 . S
C183 C182 1.390 . S
C183 H185 0.930 . S
H184 C182 0.931 . S
H185 C183 0.930 . S
H186 C209 0.931 . S
H187 C175 0.929 . S
H188 C210 0.930 . S
H189 C181 0.931 . S
H190 C171 0.930 . S
H191 C200 0.929 1_455 S
H192 C176 0.931 . S
H193 C177 0.930 . S
H194 C232 0.930 . S
H195 C173 0.929 . S
H196 C201 0.931 . S
H197 C202 0.930 . S
N198 Gd178 2.622 1_655 S
N198 C199 1.369 . S
N198 C200 1.338 . S
C199 N198 1.369 . S
C199 C203 1.415 . S
C199 C206 1.422 . S
C200 H191 0.929 1_655 S
C200 N198 1.338 . S
C200 C202 1.378 . S
C201 H196 0.931 . S
C201 C202 1.348 . S
C201 C203 1.413 . S
C202 H197 0.930 . S
C202 C200 1.378 . S
C202 C201 1.348 . S
C203 C199 1.415 . S
C203 C201 1.413 . S
C203 C233 1.437 . S
H204 C233 0.929 . S
N205 Gd178 2.570 1_655 S
N205 C206 1.359 . S
N205 C209 1.343 . S
C206 C199 1.422 . S
C206 N205 1.359 . S
C206 C208 1.421 . S
C207 C208 1.422 . S
C207 C210 1.321 . S
C207 H234 0.931 . S
C208 C206 1.421 . S
C208 C207 1.422 . S
C208 C232 1.417 . S
C209 H186 0.931 . S
C209 N205 1.343 . S
C209 C210 1.390 . S
C210 H188 0.930 . S
C210 C207 1.321 . S
C210 C209 1.390 . S
O211 Gd179 2.386 . S
O211 C223 1.265 . S
O212 Gd178 2.353 . S
O212 C223 1.242 . S
O213 Gd178 2.468 . S
O213 C231 1.263 . S
O214 Gd178 2.427 . S
O214 C231 1.252 . S
O215 Gd179 2.307 . S
O215 C224 1.261 . S
O216 Gd178 2.388 . S
O216 C224 1.252 . S
O217 Gd178 2.386 1_655 S
O217 C235 1.265 . S
O218 Gd179 2.353 1_655 S
O218 C235 1.242 . S
O219 Gd179 2.468 . S
O219 C243 1.263 . S
O220 Gd179 2.427 . S
O220 C243 1.252 . S
O221 Gd178 2.307 . S
O221 C236 1.261 . S
O222 Gd179 2.388 . S
O222 C236 1.252 . S
C223 O211 1.265 . S
C223 O212 1.242 . S
C224 O215 1.261 . S
C224 O216 1.252 . S
C225 C228 1.394 . S
C225 C230 1.370 . S
C225 C231 1.500 . S
C226 C229 1.383 . S
C226 C230 1.395 . S
C227 C228 1.396 . S
C227 C229 1.365 . S
C227 H244 0.929 . S
C228 C225 1.394 . S
C228 C227 1.396 . S
C228 H245 0.930 . S
C229 C226 1.383 . S
C229 C227 1.365 . S
C229 H246 0.931 . S
C230 C225 1.370 . S
C230 C226 1.395 . S
C230 H247 0.930 . S
C231 Gd178 2.805 . S
C231 O213 1.263 . S
C231 O214 1.252 . S
C231 C225 1.500 . S
C232 H194 0.930 . S
C232 C208 1.417 . S
C232 C233 1.329 . S
C233 C203 1.437 . S
C233 H204 0.929 . S
C233 C232 1.329 . S
H234 C207 0.931 . S
C235 O217 1.265 . S
C235 O218 1.242 . S
C236 O221 1.261 . S
C236 O222 1.252 . S
C237 C240 1.394 . S
C237 C242 1.370 . S
C237 C243 1.500 1_655 S
C238 C241 1.383 . S
C238 C242 1.395 . S
C239 C240 1.396 . S
C239 C241 1.365 . S
C239 H248 0.929 . S
C240 C237 1.394 . S
C240 C239 1.396 . S
C240 H249 0.930 . S
C241 C238 1.383 . S
C241 C239 1.365 . S
C241 H250 0.931 . S
C242 C237 1.370 . S
C242 C238 1.395 . S
C242 H251 0.930 . S
C243 Gd179 2.805 . S
C243 O219 1.263 . S
C243 O220 1.252 . S
C243 C237 1.500 1_455 S
H244 C227 0.929 . S
H245 C228 0.930 . S
H246 C229 0.931 . S
H247 C230 0.930 . S
H248 C239 0.929 . S
H249 C240 0.930 . S
H250 C241 0.931 . S
H251 C242 0.930 . S
C252 C254 1.422 . S
C252 C256 1.415 . S
C252 N258 1.369 . S
C253 C254 1.421 . S
C253 C255 1.417 . S
C253 C265 1.422 . S
C254 C252 1.422 . S
C254 C253 1.421 . S
C254 N264 1.359 . S
C255 C253 1.417 . S
C255 C257 1.329 . S
C255 H274 0.930 . S
C256 C252 1.415 . S
C256 C257 1.437 . S
C256 C260 1.413 . S
C257 C255 1.329 . S
C257 C256 1.437 . S
C257 H279 0.929 . S
N258 C252 1.369 . S
N258 C259 1.338 . S
N258 Gd263 2.622 1_455 S
C259 N258 1.338 . S
C259 C261 1.378 . S
C259 H271 0.929 1_455 S
C260 C256 1.413 . S
C260 C261 1.348 . S
C260 H276 0.931 . S
C261 C259 1.378 . S
C261 C260 1.348 . S
C261 H277 0.930 . S
Gd262 N282 2.622 . S
Gd262 N289 2.570 . S
Gd262 O296 2.353 1_655 S
Gd262 O297 2.468 . S
Gd262 O298 2.427 . S
Gd262 O300 2.388 . S
Gd262 O301 2.386 . S
Gd262 O305 2.307 . S
Gd262 C315 2.805 . S
Gd263 N258 2.622 1_655 S
Gd263 N264 2.570 1_655 S
Gd263 O295 2.386 1_655 S
Gd263 O299 2.307 . S
Gd263 O302 2.353 . S
Gd263 O303 2.468 . S
Gd263 O304 2.427 . S
Gd263 O306 2.388 . S
Gd263 C327 2.805 . S
N264 C254 1.359 . S
N264 Gd263 2.570 1_455 S
N264 C266 1.343 . S
C265 C253 1.422 . S
C265 C267 1.321 . S
C265 H273 0.931 . S
C266 N264 1.343 . S
C266 C267 1.390 . S
C266 H268 0.931 . S
C267 C265 1.321 . S
C267 C266 1.390 . S
C267 H269 0.930 . S
H268 C266 0.931 . S
H269 C267 0.930 . S
H270 C293 0.931 . S
H271 C259 0.929 1_655 S
H272 C294 0.930 . S
H273 C265 0.931 . S
H274 C255 0.930 . S
H275 C284 0.929 . S
H276 C260 0.931 . S
H277 C261 0.930 . S
H278 C316 0.930 . S
H279 C257 0.929 . S
H280 C285 0.931 . S
H281 C286 0.930 . S
N282 Gd262 2.622 . S
N282 C283 1.369 . S
N282 C284 1.338 . S
C283 N282 1.369 . S
C283 C287 1.415 . S
C283 C290 1.422 . S
C284 H275 0.929 . S
C284 N282 1.338 . S
C284 C286 1.378 . S
C285 H280 0.931 . S
C285 C286 1.348 . S
C285 C287 1.413 . S
C286 H281 0.930 . S
C286 C284 1.378 . S
C286 C285 1.348 . S
C287 C283 1.415 . S
C287 C285 1.413 . S
C287 C317 1.437 . S
H288 C317 0.929 . S
N289 Gd262 2.570 . S
N289 C290 1.359 . S
N289 C293 1.343 . S
C290 C283 1.422 . S
C290 N289 1.359 . S
C290 C292 1.421 . S
C291 C292 1.422 . S
C291 C294 1.321 . S
C291 H318 0.931 . S
C292 C290 1.421 . S
C292 C291 1.422 . S
C292 C316 1.417 . S
C293 H270 0.931 . S
C293 N289 1.343 . S
C293 C294 1.390 . S
C294 H272 0.930 . S
C294 C291 1.321 . S
C294 C293 1.390 . S
O295 Gd263 2.386 1_455 S
O295 C307 1.265 . S
O296 Gd262 2.353 1_455 S
O296 C307 1.242 . S
O297 Gd262 2.468 . S
O297 C315 1.263 . S
O298 Gd262 2.427 . S
O298 C315 1.252 . S
O299 Gd263 2.307 . S
O299 C308 1.261 . S
O300 Gd262 2.388 . S
O300 C308 1.252 . S
O301 Gd262 2.386 . S
O301 C319 1.265 . S
O302 Gd263 2.353 . S
O302 C319 1.242 . S
O303 Gd263 2.468 . S
O303 C327 1.263 . S
O304 Gd263 2.427 . S
O304 C327 1.252 . S
O305 Gd262 2.307 . S
O305 C320 1.261 . S
O306 Gd263 2.388 . S
O306 C320 1.252 . S
C307 O295 1.265 . S
C307 O296 1.242 . S
C308 O299 1.261 . S
C308 O300 1.252 . S
C309 C312 1.394 . S
C309 C314 1.370 . S
C309 C315 1.500 1_455 S
C310 C313 1.383 . S
C310 C314 1.395 . S
C311 C312 1.396 . S
C311 C313 1.365 . S
C311 H328 0.929 . S
C312 C309 1.394 . S
C312 C311 1.396 . S
C312 H329 0.930 . S
C313 C310 1.383 . S
C313 C311 1.365 . S
C313 H330 0.931 . S
C314 C309 1.370 . S
C314 C310 1.395 . S
C314 H331 0.930 . S
C315 Gd262 2.805 . S
C315 O297 1.263 . S
C315 O298 1.252 . S
C315 C309 1.500 1_655 S
C316 H278 0.930 . S
C316 C292 1.417 . S
C316 C317 1.329 . S
C317 C287 1.437 . S
C317 H288 0.929 . S
C317 C316 1.329 . S
H318 C291 0.931 . S
C319 O301 1.265 . S
C319 O302 1.242 . S
C320 O305 1.261 . S
C320 O306 1.252 . S
C321 C324 1.394 . S
C321 C326 1.370 . S
C321 C327 1.500 . S
C322 C325 1.383 . S
C322 C326 1.395 . S
C323 C324 1.396 . S
C323 C325 1.365 . S
C323 H332 0.929 . S
C324 C321 1.394 . S
C324 C323 1.396 . S
C324 H333 0.930 . S
C325 C322 1.383 . S
C325 C323 1.365 . S
C325 H334 0.931 . S
C326 C321 1.370 . S
C326 C322 1.395 . S
C326 H335 0.930 . S
C327 Gd263 2.805 . S
C327 O303 1.263 . S
C327 O304 1.252 . S
C327 C321 1.500 . S
H328 C311 0.929 . S
H329 C312 0.930 . S
H330 C313 0.931 . S
H331 C314 0.930 . S
H332 C323 0.929 . S
H333 C324 0.930 . S
H334 C325 0.931 . S
H335 C326 0.930 . S
C336 C338 1.422 . S
C336 C340 1.415 . S
C336 N342 1.369 . S
C337 C338 1.421 . S
C337 C339 1.417 . S
C337 C349 1.422 . S
C338 C336 1.422 . S
C338 C337 1.421 . S
C338 N348 1.359 . S
C339 C337 1.417 . S
C339 C341 1.329 . S
C339 H358 0.930 . S
C340 C336 1.415 . S
C340 C341 1.437 . S
C340 C344 1.413 . S
C341 C339 1.329 . S
C341 C340 1.437 . S
C341 H363 0.929 . S
N342 C336 1.369 . S
N342 C343 1.338 . S
N342 Gd347 2.622 . S
C343 N342 1.338 . S
C343 C345 1.378 . S
C343 H355 0.929 . S
C344 C340 1.413 . S
C344 C345 1.348 . S
C344 H360 0.931 . S
C345 C343 1.378 . S
C345 C344 1.348 . S
C345 H361 0.930 . S
Gd346 N366 2.622 . S
Gd346 N373 2.570 . S
Gd346 O380 2.353 . S
Gd346 O381 2.468 1_556 S
Gd346 O382 2.427 . S
Gd346 O384 2.388 . S
Gd346 O385 2.386 . S
Gd346 O389 2.307 1_556 S
Gd346 C399 2.805 . S
Gd347 N342 2.622 . S
Gd347 N348 2.570 . S
Gd347 O379 2.386 . S
Gd347 O383 2.307 1_554 S
Gd347 O386 2.353 . S
Gd347 O387 2.468 . S
Gd347 O388 2.427 . S
Gd347 O390 2.388 . S
Gd347 C411 2.805 . S
N348 C338 1.359 . S
N348 Gd347 2.570 . S
N348 C350 1.343 1_554 S
C349 C337 1.422 . S
C349 C351 1.321 1_554 S
C349 H357 0.931 . S
C350 N348 1.343 1_556 S
C350 C351 1.390 . S
C350 H352 0.931 . S
C351 C349 1.321 1_556 S
C351 C350 1.390 . S
C351 H353 0.930 . S
H352 C350 0.931 . S
H353 C351 0.930 . S
H354 C377 0.931 . S
H355 C343 0.929 . S
H356 C378 0.930 . S
H357 C349 0.931 . S
H358 C339 0.930 . S
H359 C368 0.929 . S
H360 C344 0.931 . S
H361 C345 0.930 . S
H362 C400 0.930 . S
H363 C341 0.929 . S
H364 C369 0.931 . S
H365 C370 0.930 . S
N366 Gd346 2.622 . S
N366 C367 1.369 . S
N366 C368 1.338 . S
C367 N366 1.369 . S
C367 C371 1.415 . S
C367 C374 1.422 . S
C368 H359 0.929 . S
C368 N366 1.338 . S
C368 C370 1.378 . S
C369 H364 0.931 . S
C369 C370 1.348 . S
C369 C371 1.413 . S
C370 H365 0.930 . S
C370 C368 1.378 . S
C370 C369 1.348 . S
C371 C367 1.415 . S
C371 C369 1.413 . S
C371 C401 1.437 . S
H372 C401 0.929 . S
N373 Gd346 2.570 . S
N373 C374 1.359 . S
N373 C377 1.343 1_556 S
C374 C367 1.422 . S
C374 N373 1.359 . S
C374 C376 1.421 . S
C375 C376 1.422 1_554 S
C375 C378 1.321 . S
C375 H402 0.931 . S
C376 C374 1.421 . S
C376 C375 1.422 1_556 S
C376 C400 1.417 . S
C377 H354 0.931 . S
C377 N373 1.343 1_554 S
C377 C378 1.390 . S
C378 H356 0.930 . S
C378 C375 1.321 . S
C378 C377 1.390 . S
O379 Gd347 2.386 . S
O379 C391 1.265 . S
O380 Gd346 2.353 . S
O380 C391 1.242 1_556 S
O381 Gd346 2.468 1_554 S
O381 C399 1.263 1_554 S
O382 Gd346 2.427 . S
O382 C399 1.252 . S
O383 Gd347 2.307 1_556 S
O383 C392 1.261 . S
O384 Gd346 2.388 . S
O384 C392 1.252 . S
O385 Gd346 2.386 . S
O385 C403 1.265 1_556 S
O386 Gd347 2.353 . S
O386 C403 1.242 . S
O387 Gd347 2.468 . S
O387 C411 1.263 . S
O388 Gd347 2.427 . S
O388 C411 1.252 . S
O389 Gd346 2.307 1_554 S
O389 C404 1.261 . S
O390 Gd347 2.388 . S
O390 C404 1.252 . S
C391 O379 1.265 . S
C391 O380 1.242 1_554 S
C392 O383 1.261 . S
C392 O384 1.252 . S
C393 C396 1.394 . S
C393 C398 1.370 1_556 S
C393 C399 1.500 . S
C394 C397 1.383 . S
C394 C398 1.395 1_556 S
C395 C396 1.396 . S
C395 C397 1.365 . S
C395 H412 0.929 . S
C396 C393 1.394 . S
C396 C395 1.396 . S
C396 H413 0.930 . S
C397 C394 1.383 . S
C397 C395 1.365 . S
C397 H414 0.931 . S
C398 C393 1.370 1_554 S
C398 C394 1.395 1_554 S
C398 H415 0.930 . S
C399 Gd346 2.805 . S
C399 O381 1.263 1_556 S
C399 O382 1.252 . S
C399 C393 1.500 . S
C400 H362 0.930 . S
C400 C376 1.417 . S
C400 C401 1.329 . S
C401 C371 1.437 . S
C401 H372 0.929 . S
C401 C400 1.329 . S
H402 C375 0.931 . S
C403 O385 1.265 1_554 S
C403 O386 1.242 . S
C404 O389 1.261 . S
C404 O390 1.252 . S
C405 C408 1.394 . S
C405 C410 1.370 . S
C405 C411 1.500 . S
C406 C409 1.383 . S
C406 C410 1.395 . S
C407 C408 1.396 . S
C407 C409 1.365 . S
C407 H416 0.929 . S
C408 C405 1.394 . S
C408 C407 1.396 . S
C408 H417 0.930 . S
C409 C406 1.383 . S
C409 C407 1.365 . S
C409 H418 0.931 . S
C410 C405 1.370 . S
C410 C406 1.395 . S
C410 H419 0.930 1_554 S
C411 Gd347 2.805 . S
C411 O387 1.263 . S
C411 O388 1.252 . S
C411 C405 1.500 . S
H412 C395 0.929 . S
H413 C396 0.930 . S
H414 C397 0.931 . S
H415 C398 0.930 . S
H416 C407 0.929 . S
H417 C408 0.930 . S
H418 C409 0.931 . S
H419 C410 0.930 1_556 S
C420 C422 1.422 . S
C420 C424 1.415 . S
C420 N426 1.369 . S
C421 C422 1.421 . S
C421 C423 1.417 . S
C421 C433 1.422 . S
C422 C420 1.422 . S
C422 C421 1.421 . S
C422 N432 1.359 . S
C423 C421 1.417 . S
C423 C425 1.329 . S
C423 H442 0.930 . S
C424 C420 1.415 . S
C424 C425 1.437 . S
C424 C428 1.413 . S
C425 C423 1.329 . S
C425 C424 1.437 . S
C425 H447 0.929 . S
N426 C420 1.369 . S
N426 C427 1.338 . S
N426 Gd431 2.622 . S
C427 N426 1.338 . S
C427 C429 1.378 . S
C427 H439 0.929 . S
C428 C424 1.413 . S
C428 C429 1.348 . S
C428 H444 0.931 . S
C429 C427 1.378 . S
C429 C428 1.348 . S
C429 H445 0.930 . S
Gd430 N450 2.622 . S
Gd430 N457 2.570 1_556 S
Gd430 O464 2.353 1_556 S
Gd430 O465 2.468 1_556 S
Gd430 O466 2.427 . S
Gd430 O468 2.388 . S
Gd430 O469 2.386 . S
Gd430 O473 2.307 1_556 S
Gd430 C483 2.805 . S
Gd431 N426 2.622 . S
Gd431 N432 2.570 . S
Gd431 O463 2.386 . S
Gd431 O467 2.307 1_554 S
Gd431 O470 2.353 . S
Gd431 O471 2.468 . S
Gd431 O472 2.427 . S
Gd431 O474 2.388 . S
Gd431 C495 2.805 . S
N432 C422 1.359 . S
N432 Gd431 2.570 . S
N432 C434 1.343 1_554 S
C433 C421 1.422 . S
C433 C435 1.321 1_554 S
C433 H441 0.931 . S
C434 N432 1.343 1_556 S
C434 C435 1.390 . S
C434 H436 0.931 . S
C435 C433 1.321 1_556 S
C435 C434 1.390 . S
C435 H437 0.930 . S
H436 C434 0.931 . S
H437 C435 0.930 . S
H438 C461 0.931 . S
H439 C427 0.929 . S
H440 C462 0.930 . S
H441 C433 0.931 . S
H442 C423 0.930 . S
H443 C452 0.929 . S
H444 C428 0.931 . S
H445 C429 0.930 . S
H446 C484 0.930 . S
H447 C425 0.929 . S
H448 C453 0.931 . S
H449 C454 0.930 . S
N450 Gd430 2.622 . S
N450 C451 1.369 . S
N450 C452 1.338 . S
C451 N450 1.369 . S
C451 C455 1.415 . S
C451 C458 1.422 . S
C452 H443 0.929 . S
C452 N450 1.338 . S
C452 C454 1.378 . S
C453 H448 0.931 . S
C453 C454 1.348 . S
C453 C455 1.413 . S
C454 H449 0.930 . S
C454 C452 1.378 . S
C454 C453 1.348 . S
C455 C451 1.415 . S
C455 C453 1.413 . S
C455 C485 1.437 . S
H456 C485 0.929 . S
N457 Gd430 2.570 1_554 S
N457 C458 1.359 1_554 S
N457 C461 1.343 . S
C458 C451 1.422 . S
C458 N457 1.359 1_556 S
C458 C460 1.421 . S
C459 C460 1.422 1_554 S
C459 C462 1.321 . S
C459 H486 0.931 . S
C460 C458 1.421 . S
C460 C459 1.422 1_556 S
C460 C484 1.417 . S
C461 H438 0.931 . S
C461 N457 1.343 . S
C461 C462 1.390 . S
C462 H440 0.930 . S
C462 C459 1.321 . S
C462 C461 1.390 . S
O463 Gd431 2.386 . S
O463 C475 1.265 . S
O464 Gd430 2.353 1_554 S
O464 C475 1.242 . S
O465 Gd430 2.468 1_554 S
O465 C483 1.263 1_554 S
O466 Gd430 2.427 . S
O466 C483 1.252 . S
O467 Gd431 2.307 1_556 S
O467 C476 1.261 . S
O468 Gd430 2.388 . S
O468 C476 1.252 . S
O469 Gd430 2.386 . S
O469 C487 1.265 1_556 S
O470 Gd431 2.353 . S
O470 C487 1.242 . S
O471 Gd431 2.468 . S
O471 C495 1.263 . S
O472 Gd431 2.427 . S
O472 C495 1.252 . S
O473 Gd430 2.307 1_554 S
O473 C488 1.261 . S
O474 Gd431 2.388 . S
O474 C488 1.252 . S
C475 O463 1.265 . S
C475 O464 1.242 . S
C476 O467 1.261 . S
C476 O468 1.252 . S
C477 C480 1.394 . S
C477 C482 1.370 1_556 S
C477 C483 1.500 . S
C478 C481 1.383 1_554 S
C478 C482 1.395 . S
C479 C480 1.396 . S
C479 C481 1.365 . S
C479 H496 0.929 . S
C480 C477 1.394 . S
C480 C479 1.396 . S
C480 H497 0.930 . S
C481 C478 1.383 1_556 S
C481 C479 1.365 . S
C481 H498 0.931 . S
C482 C477 1.370 1_554 S
C482 C478 1.395 . S
C482 H499 0.930 . S
C483 Gd430 2.805 . S
C483 O465 1.263 1_556 S
C483 O466 1.252 . S
C483 C477 1.500 . S
C484 H446 0.930 . S
C484 C460 1.417 . S
C484 C485 1.329 . S
C485 C455 1.437 . S
C485 H456 0.929 . S
C485 C484 1.329 . S
H486 C459 0.931 . S
C487 O469 1.265 1_554 S
C487 O470 1.242 . S
C488 O473 1.261 . S
C488 O474 1.252 . S
C489 C492 1.394 . S
C489 C494 1.370 . S
C489 C495 1.500 . S
C490 C493 1.383 . S
C490 C494 1.395 . S
C491 C492 1.396 . S
C491 C493 1.365 . S
C491 H500 0.929 . S
C492 C489 1.394 . S
C492 C491 1.396 . S
C492 H501 0.930 . S
C493 C490 1.383 . S
C493 C491 1.365 . S
C493 H502 0.931 . S
C494 C489 1.370 . S
C494 C490 1.395 . S
C494 H503 0.930 . S
C495 Gd431 2.805 . S
C495 O471 1.263 . S
C495 O472 1.252 . S
C495 C489 1.500 . S
H496 C479 0.929 . S
H497 C480 0.930 . S
H498 C481 0.931 . S
H499 C482 0.930 . S
H500 C491 0.929 . S
H501 C492 0.930 . S
H502 C493 0.931 . S
H503 C494 0.930 . S
C504 C506 1.422 . S
C504 C508 1.415 . S
C504 N510 1.369 . S
C505 C506 1.421 . S
C505 C507 1.417 . S
C505 C517 1.422 . S
C506 C504 1.422 . S
C506 C505 1.421 . S
C506 N516 1.359 . S
C507 C505 1.417 . S
C507 C509 1.329 . S
C507 H526 0.930 . S
C508 C504 1.415 . S
C508 C509 1.437 . S
C508 C512 1.413 . S
C509 C507 1.329 . S
C509 C508 1.437 . S
C509 H531 0.929 . S
N510 C504 1.369 . S
N510 C511 1.338 . S
N510 Gd515 2.622 . S
C511 N510 1.338 . S
C511 C513 1.378 . S
C511 H523 0.929 . S
C512 C508 1.413 . S
C512 C513 1.348 . S
C512 H528 0.931 . S
C513 C511 1.378 . S
C513 C512 1.348 . S
C513 H529 0.930 . S
Gd514 N534 2.622 . S
Gd514 N541 2.570 . S
Gd514 O548 2.353 . S
Gd514 O549 2.468 . S
Gd514 O550 2.427 . S
Gd514 O552 2.388 . S
Gd514 O553 2.386 . S
Gd514 O557 2.307 . S
Gd514 C567 2.805 . S
Gd515 N510 2.622 . S
Gd515 N516 2.570 . S
Gd515 O547 2.386 . S
Gd515 O551 2.307 . S
Gd515 O554 2.353 . S
Gd515 O555 2.468 . S
Gd515 O556 2.427 . S
Gd515 O558 2.388 . S
Gd515 C579 2.805 . S
N516 C506 1.359 . S
N516 Gd515 2.570 . S
N516 C518 1.343 . S
C517 C505 1.422 . S
C517 C519 1.321 . S
C517 H525 0.931 . S
C518 N516 1.343 . S
C518 C519 1.390 . S
C518 H520 0.931 . S
C519 C517 1.321 . S
C519 C518 1.390 . S
C519 H521 0.930 . S
H520 C518 0.931 . S
H521 C519 0.930 . S
H522 C545 0.931 . S
H523 C511 0.929 . S
H524 C546 0.930 . S
H525 C517 0.931 . S
H526 C507 0.930 . S
H527 C536 0.929 . S
H528 C512 0.931 . S
H529 C513 0.930 . S
H530 C568 0.930 . S
H531 C509 0.929 . S
H532 C537 0.931 . S
H533 C538 0.930 . S
N534 Gd514 2.622 . S
N534 C535 1.369 . S
N534 C536 1.338 . S
C535 N534 1.369 . S
C535 C539 1.415 . S
C535 C542 1.422 . S
C536 H527 0.929 . S
C536 N534 1.338 . S
C536 C538 1.378 . S
C537 H532 0.931 . S
C537 C538 1.348 . S
C537 C539 1.413 . S
C538 H533 0.930 . S
C538 C536 1.378 . S
C538 C537 1.348 . S
C539 C535 1.415 . S
C539 C537 1.413 . S
C539 C569 1.437 . S
H540 C569 0.929 . S
N541 Gd514 2.570 . S
N541 C542 1.359 . S
N541 C545 1.343 . S
C542 C535 1.422 . S
C542 N541 1.359 . S
C542 C544 1.421 . S
C543 C544 1.422 . S
C543 C546 1.321 . S
C543 H570 0.931 . S
C544 C542 1.421 . S
C544 C543 1.422 . S
C544 C568 1.417 . S
C545 H522 0.931 . S
C545 N541 1.343 . S
C545 C546 1.390 . S
C546 H524 0.930 . S
C546 C543 1.321 . S
C546 C545 1.390 . S
O547 Gd515 2.386 . S
O547 C559 1.265 . S
O548 Gd514 2.353 . S
O548 C559 1.242 . S
O549 Gd514 2.468 . S
O549 C567 1.263 . S
O550 Gd514 2.427 . S
O550 C567 1.252 . S
O551 Gd515 2.307 . S
O551 C560 1.261 . S
O552 Gd514 2.388 . S
O552 C560 1.252 . S
O553 Gd514 2.386 . S
O553 C571 1.265 . S
O554 Gd515 2.353 . S
O554 C571 1.242 . S
O555 Gd515 2.468 . S
O555 C579 1.263 . S
O556 Gd515 2.427 . S
O556 C579 1.252 . S
O557 Gd514 2.307 . S
O557 C572 1.261 . S
O558 Gd515 2.388 . S
O558 C572 1.252 . S
C559 O547 1.265 . S
C559 O548 1.242 . S
C560 O551 1.261 . S
C560 O552 1.252 . S
C561 C564 1.394 . S
C561 C566 1.370 . S
C561 C567 1.500 . S
C562 C565 1.383 . S
C562 C566 1.395 . S
C563 C564 1.396 . S
C563 C565 1.365 . S
C563 H580 0.929 . S
C564 C561 1.394 . S
C564 C563 1.396 . S
C564 H581 0.930 . S
C565 C562 1.383 . S
C565 C563 1.365 . S
C565 H582 0.931 . S
C566 C561 1.370 . S
C566 C562 1.395 . S
C566 H583 0.930 . S
C567 Gd514 2.805 . S
C567 O549 1.263 . S
C567 O550 1.252 . S
C567 C561 1.500 . S
C568 H530 0.930 . S
C568 C544 1.417 . S
C568 C569 1.329 . S
C569 C539 1.437 . S
C569 H540 0.929 . S
C569 C568 1.329 . S
H570 C543 0.931 . S
C571 O553 1.265 . S
C571 O554 1.242 . S
C572 O557 1.261 . S
C572 O558 1.252 . S
C573 C576 1.394 . S
C573 C578 1.370 . S
C573 C579 1.500 . S
C574 C577 1.383 . S
C574 C578 1.395 . S
C575 C576 1.396 . S
C575 C577 1.365 . S
C575 H584 0.929 . S
C576 C573 1.394 . S
C576 C575 1.396 . S
C576 H585 0.930 . S
C577 C574 1.383 . S
C577 C575 1.365 . S
C577 H586 0.931 . S
C578 C573 1.370 . S
C578 C574 1.395 . S
C578 H587 0.930 . S
C579 Gd515 2.805 . S
C579 O555 1.263 . S
C579 O556 1.252 . S
C579 C573 1.500 . S
H580 C563 0.929 . S
H581 C564 0.930 . S
H582 C565 0.931 . S
H583 C566 0.930 . S
H584 C575 0.929 . S
H585 C576 0.930 . S
H586 C577 0.931 . S
H587 C578 0.930 . S
C588 C590 1.422 . S
C588 C592 1.415 . S
C588 N594 1.369 . S
C589 C590 1.421 . S
C589 C591 1.417 . S
C589 C601 1.422 . S
C590 C588 1.422 . S
C590 C589 1.421 . S
C590 N600 1.359 . S
C591 C589 1.417 . S
C591 C593 1.329 . S
C591 H610 0.930 . S
C592 C588 1.415 . S
C592 C593 1.437 . S
C592 C596 1.413 . S
C593 C591 1.329 . S
C593 C592 1.437 . S
C593 H615 0.929 . S
N594 C588 1.369 . S
N594 C595 1.338 . S
N594 Gd599 2.622 . S
C595 N594 1.338 . S
C595 C597 1.378 . S
C595 H607 0.929 . S
C596 C592 1.413 . S
C596 C597 1.348 . S
C596 H612 0.931 . S
C597 C595 1.378 . S
C597 C596 1.348 . S
C597 H613 0.930 . S
Gd598 N618 2.622 . S
Gd598 N625 2.570 . S
Gd598 O632 2.353 . S
Gd598 O633 2.468 . S
Gd598 O634 2.427 . S
Gd598 O636 2.388 . S
Gd598 O637 2.386 . S
Gd598 O641 2.307 . S
Gd598 C651 2.805 . S
Gd599 N594 2.622 . S
Gd599 N600 2.570 . S
Gd599 O631 2.386 . S
Gd599 O635 2.307 . S
Gd599 O638 2.353 . S
Gd599 O639 2.468 . S
Gd599 O640 2.427 . S
Gd599 O642 2.388 . S
Gd599 C663 2.805 . S
N600 C590 1.359 . S
N600 Gd599 2.570 . S
N600 C602 1.343 . S
C601 C589 1.422 . S
C601 C603 1.321 . S
C601 H609 0.931 . S
C602 N600 1.343 . S
C602 C603 1.390 . S
C602 H604 0.931 . S
C603 C601 1.321 . S
C603 C602 1.390 . S
C603 H605 0.930 . S
H604 C602 0.931 . S
H605 C603 0.930 . S
H606 C629 0.931 . S
H607 C595 0.929 . S
H608 C630 0.930 . S
H609 C601 0.931 . S
H610 C591 0.930 . S
H611 C620 0.929 . S
H612 C596 0.931 . S
H613 C597 0.930 . S
H614 C652 0.930 . S
H615 C593 0.929 . S
H616 C621 0.931 . S
H617 C622 0.930 . S
N618 Gd598 2.622 . S
N618 C619 1.369 . S
N618 C620 1.338 . S
C619 N618 1.369 . S
C619 C623 1.415 . S
C619 C626 1.422 . S
C620 H611 0.929 . S
C620 N618 1.338 . S
C620 C622 1.378 . S
C621 H616 0.931 . S
C621 C622 1.348 . S
C621 C623 1.413 . S
C622 H617 0.930 . S
C622 C620 1.378 . S
C622 C621 1.348 . S
C623 C619 1.415 . S
C623 C621 1.413 . S
C623 C653 1.437 . S
H624 C653 0.929 . S
N625 Gd598 2.570 . S
N625 C626 1.359 . S
N625 C629 1.343 . S
C626 C619 1.422 . S
C626 N625 1.359 . S
C626 C628 1.421 . S
C627 C628 1.422 . S
C627 C630 1.321 . S
C627 H654 0.931 . S
C628 C626 1.421 . S
C628 C627 1.422 . S
C628 C652 1.417 . S
C629 H606 0.931 . S
C629 N625 1.343 . S
C629 C630 1.390 . S
C630 H608 0.930 . S
C630 C627 1.321 . S
C630 C629 1.390 . S
O631 Gd599 2.386 . S
O631 C643 1.265 . S
O632 Gd598 2.353 . S
O632 C643 1.242 . S
O633 Gd598 2.468 . S
O633 C651 1.263 . S
O634 Gd598 2.427 . S
O634 C651 1.252 . S
O635 Gd599 2.307 . S
O635 C644 1.261 . S
O636 Gd598 2.388 . S
O636 C644 1.252 . S
O637 Gd598 2.386 . S
O637 C655 1.265 . S
O638 Gd599 2.353 . S
O638 C655 1.242 . S
O639 Gd599 2.468 . S
O639 C663 1.263 . S
O640 Gd599 2.427 . S
O640 C663 1.252 . S
O641 Gd598 2.307 . S
O641 C656 1.261 . S
O642 Gd599 2.388 . S
O642 C656 1.252 . S
C643 O631 1.265 . S
C643 O632 1.242 . S
C644 O635 1.261 . S
C644 O636 1.252 . S
C645 C648 1.394 . S
C645 C650 1.370 . S
C645 C651 1.500 . S
C646 C649 1.383 . S
C646 C650 1.395 . S
C647 C648 1.396 . S
C647 C649 1.365 . S
C647 H664 0.929 . S
C648 C645 1.394 . S
C648 C647 1.396 . S
C648 H665 0.930 . S
C649 C646 1.383 . S
C649 C647 1.365 . S
C649 H666 0.931 . S
C650 C645 1.370 . S
C650 C646 1.395 . S
C650 H667 0.930 . S
C651 Gd598 2.805 . S
C651 O633 1.263 . S
C651 O634 1.252 . S
C651 C645 1.500 . S
C652 H614 0.930 . S
C652 C628 1.417 . S
C652 C653 1.329 . S
C653 C623 1.437 . S
C653 H624 0.929 . S
C653 C652 1.329 . S
H654 C627 0.931 . S
C655 O637 1.265 . S
C655 O638 1.242 . S
C656 O641 1.261 . S
C656 O642 1.252 . S
C657 C660 1.394 . S
C657 C662 1.370 . S
C657 C663 1.500 . S
C658 C661 1.383 . S
C658 C662 1.395 . S
C659 C660 1.396 . S
C659 C661 1.365 . S
C659 H668 0.929 . S
C660 C657 1.394 . S
C660 C659 1.396 . S
C660 H669 0.930 . S
C661 C658 1.383 . S
C661 C659 1.365 . S
C661 H670 0.931 . S
C662 C657 1.370 . S
C662 C658 1.395 . S
C662 H671 0.930 . S
C663 Gd599 2.805 . S
C663 O639 1.263 . S
C663 O640 1.252 . S
C663 C657 1.500 . S
H664 C647 0.929 . S
H665 C648 0.930 . S
H666 C649 0.931 . S
H667 C650 0.930 . S
H668 C659 0.929 . S
H669 C660 0.930 . S
H670 C661 0.931 . S
H671 C662 0.930 . S
C672 C673 1.349 . S
C672 C674 1.327 . S
C672 H697 0.950 . S
C673 C672 1.349 . S
C673 C689 1.349 1_554 S
C674 C672 1.327 . S
C674 C693 1.429 . S
C674 H698 0.950 . S
C675 C692 1.574 . S
C675 C694 1.368 1_556 S
C675 H699 0.949 . S
H676 C680 0.949 . S
C677 C678 1.349 1_556 S
C677 C679 1.327 . S
C677 H700 0.950 . S
C678 C677 1.349 1_554 S
C678 C690 1.349 . S
C679 C677 1.327 . S
C679 C695 1.429 1_556 S
C679 H701 0.950 . S
C680 H676 0.949 . S
C680 C688 1.574 . S
C680 C696 1.368 . S
H681 C689 0.950 . S
H682 C687 0.950 . S
H683 C688 0.949 . S
H684 C690 0.950 . S
H685 C691 0.950 . S
H686 C692 0.949 . S
C687 H682 0.950 . S
C687 C689 1.327 . S
C687 C693 1.429 1_556 S
C688 C680 1.574 . S
C688 H683 0.949 . S
C688 C694 1.368 . S
C689 C673 1.349 1_556 S
C689 H681 0.950 . S
C689 C687 1.327 . S
C690 C678 1.349 . S
C690 H684 0.950 . S
C690 C691 1.327 . S
C691 H685 0.950 . S
C691 C690 1.327 . S
C691 C695 1.429 . S
C692 C675 1.574 . S
C692 H686 0.949 . S
C692 C696 1.368 1_556 S
C693 C674 1.429 . S
C693 C687 1.429 1_554 S
C693 C694 1.523 . S
C694 C675 1.368 1_554 S
C694 C688 1.368 . S
C694 C693 1.523 . S
C695 C679 1.429 1_554 S
C695 C691 1.429 . S
C695 C696 1.523 . S
C696 C680 1.368 . S
C696 C692 1.368 1_554 S
C696 C695 1.523 . S
H697 C672 0.950 . S
H698 C674 0.950 . S
H699 C675 0.949 . S
H700 C677 0.950 . S
H701 C679 0.950 . S
C702 C703 1.349 1_556 S
C702 C704 1.327 . S
C702 H727 0.950 . S
C703 C702 1.349 1_554 S
C703 C719 1.349 . S
C704 C702 1.327 . S
C704 C723 1.429 1_556 S
C704 H728 0.950 . S
C705 C722 1.574 . S
C705 C724 1.368 . S
C705 H729 0.949 . S
H706 C710 0.949 . S
C707 C708 1.349 . S
C707 C709 1.327 . S
C707 H730 0.950 . S
C708 C707 1.349 . S
C708 C720 1.349 1_554 S
C709 C707 1.327 . S
C709 C725 1.429 . S
C709 H731 0.950 . S
C710 H706 0.949 . S
C710 C718 1.574 . S
C710 C726 1.368 1_556 S
H711 C719 0.950 . S
H712 C717 0.950 . S
H713 C718 0.949 . S
H714 C720 0.950 . S
H715 C721 0.950 . S
H716 C722 0.949 . S
C717 H712 0.950 . S
C717 C719 1.327 . S
C717 C723 1.429 . S
C718 C710 1.574 . S
C718 H713 0.949 . S
C718 C724 1.368 1_556 S
C719 C703 1.349 . S
C719 H711 0.950 . S
C719 C717 1.327 . S
C720 C708 1.349 1_556 S
C720 H714 0.950 . S
C720 C721 1.327 . S
C721 H715 0.950 . S
C721 C720 1.327 . S
C721 C725 1.429 1_556 S
C722 C705 1.574 . S
C722 H716 0.949 . S
C722 C726 1.368 . S
C723 C704 1.429 1_554 S
C723 C717 1.429 . S
C723 C724 1.523 . S
C724 C705 1.368 . S
C724 C718 1.368 1_554 S
C724 C723 1.523 . S
C725 C709 1.429 . S
C725 C721 1.429 1_554 S
C725 C726 1.523 . S
C726 C710 1.368 1_554 S
C726 C722 1.368 . S
C726 C725 1.523 . S
H727 C702 0.950 . S
H728 C704 0.950 . S
H729 C705 0.949 . S
H730 C707 0.950 . S
H731 C709 0.950 . S
C732 C733 1.349 . S
C732 C734 1.327 . S
C732 H757 0.950 . S
C733 C732 1.349 . S
C733 C749 1.349 . S
C734 C732 1.327 . S
C734 C753 1.429 . S
C734 H758 0.950 . S
C735 C752 1.574 . S
C735 C754 1.368 . S
C735 H759 0.949 . S
H736 C740 0.949 . S
C737 C738 1.349 . S
C737 C739 1.327 . S
C737 H760 0.950 . S
C738 C737 1.349 . S
C738 C750 1.349 . S
C739 C737 1.327 . S
C739 C755 1.429 . S
C739 H761 0.950 . S
C740 H736 0.949 . S
C740 C748 1.574 . S
C740 C756 1.368 . S
H741 C749 0.950 . S
H742 C747 0.950 . S
H743 C748 0.949 . S
H744 C750 0.950 . S
H745 C751 0.950 . S
H746 C752 0.949 . S
C747 H742 0.950 . S
C747 C749 1.327 . S
C747 C753 1.429 . S
C748 C740 1.574 . S
C748 H743 0.949 . S
C748 C754 1.368 . S
C749 C733 1.349 . S
C749 H741 0.950 . S
C749 C747 1.327 . S
C750 C738 1.349 . S
C750 H744 0.950 . S
C750 C751 1.327 . S
C751 H745 0.950 . S
C751 C750 1.327 . S
C751 C755 1.429 . S
C752 C735 1.574 . S
C752 H746 0.949 . S
C752 C756 1.368 . S
C753 C734 1.429 . S
C753 C747 1.429 . S
C753 C754 1.523 . S
C754 C735 1.368 . S
C754 C748 1.368 . S
C754 C753 1.523 . S
C755 C739 1.429 . S
C755 C751 1.429 . S
C755 C756 1.523 . S
C756 C740 1.368 . S
C756 C752 1.368 . S
C756 C755 1.523 . S
H757 C732 0.950 . S
H758 C734 0.950 . S
H759 C735 0.949 . S
H760 C737 0.950 . S
H761 C739 0.950 . S
C762 C763 1.349 . S
C762 C764 1.327 . S
C762 H787 0.950 . S
C763 C762 1.349 . S
C763 C779 1.349 . S
C764 C762 1.327 . S
C764 C783 1.429 . S
C764 H788 0.950 . S
C765 C782 1.574 . S
C765 C784 1.368 . S
C765 H789 0.949 . S
H766 C770 0.949 . S
C767 C768 1.349 . S
C767 C769 1.327 . S
C767 H790 0.950 . S
C768 C767 1.349 . S
C768 C780 1.349 . S
C769 C767 1.327 . S
C769 C785 1.429 . S
C769 H791 0.950 . S
C770 H766 0.949 . S
C770 C778 1.574 . S
C770 C786 1.368 . S
H771 C779 0.950 . S
H772 C777 0.950 . S
H773 C778 0.949 . S
H774 C780 0.950 . S
H775 C781 0.950 . S
H776 C782 0.949 . S
C777 H772 0.950 . S
C777 C779 1.327 . S
C777 C783 1.429 . S
C778 C770 1.574 . S
C778 H773 0.949 . S
C778 C784 1.368 . S
C779 C763 1.349 . S
C779 H771 0.950 . S
C779 C777 1.327 . S
C780 C768 1.349 . S
C780 H774 0.950 . S
C780 C781 1.327 . S
C781 H775 0.950 . S
C781 C780 1.327 . S
C781 C785 1.429 . S
C782 C765 1.574 . S
C782 H776 0.949 . S
C782 C786 1.368 . S
C783 C764 1.429 . S
C783 C777 1.429 . S
C783 C784 1.523 . S
C784 C765 1.368 . S
C784 C778 1.368 . S
C784 C783 1.523 . S
C785 C769 1.429 . S
C785 C781 1.429 . S
C785 C786 1.523 . S
C786 C770 1.368 . S
C786 C782 1.368 . S
C786 C785 1.523 . S
H787 C762 0.950 . S
H788 C764 0.950 . S
H789 C765 0.949 . S
H790 C767 0.950 . S
H791 C769 0.950 . S
C792 C793 1.349 1_556 S
C792 C794 1.327 . S
C792 H817 0.950 . S
C793 C792 1.349 1_554 S
C793 C809 1.349 . S
C794 C792 1.327 . S
C794 C813 1.429 1_556 S
C794 H818 0.950 . S
C795 C812 1.574 . S
C795 C814 1.368 1_455 S
C795 H819 0.956 . S
H796 C800 0.949 . S
C797 C798 1.349 . S
C797 C799 1.327 . S
C797 H820 0.950 . S
C798 C797 1.349 . S
C798 C810 1.349 1_554 S
C799 C797 1.327 . S
C799 C815 1.429 . S
C799 H821 0.950 . S
C800 H796 0.949 . S
C800 C808 1.574 . S
C800 C816 1.368 1_556 S
H801 C809 0.950 . S
H802 C807 0.950 . S
H803 C808 0.949 1_655 S
H804 C810 0.950 . S
H805 C811 0.950 . S
H806 C812 0.949 . S
C807 H802 0.950 . S
C807 C809 1.327 . S
C807 C813 1.429 . S
C808 C800 1.574 . S
C808 H803 0.949 1_455 S
C808 C814 1.368 1_456 S
C809 C793 1.349 . S
C809 H801 0.950 . S
C809 C807 1.327 . S
C810 C798 1.349 1_556 S
C810 H804 0.950 . S
C810 C811 1.327 . S
C811 H805 0.950 . S
C811 C810 1.327 . S
C811 C815 1.429 1_556 S
C812 C795 1.574 . S
C812 H806 0.949 . S
C812 C816 1.368 . S
C813 C794 1.429 1_554 S
C813 C807 1.429 . S
C813 C814 1.523 . S
C814 C795 1.368 1_655 S
C814 C808 1.368 1_654 S
C814 C813 1.523 . S
C815 C799 1.429 . S
C815 C811 1.429 1_554 S
C815 C816 1.523 . S
C816 C800 1.368 1_554 S
C816 C812 1.368 . S
C816 C815 1.523 . S
H817 C792 0.950 . S
H818 C794 0.950 . S
H819 C795 0.956 . S
H820 C797 0.950 . S
H821 C799 0.950 . S
C822 C823 1.349 . S
C822 C824 1.327 . S
C822 H847 0.950 . S
C823 C822 1.349 . S
C823 C839 1.349 1_554 S
C824 C822 1.327 . S
C824 C843 1.429 . S
C824 H848 0.950 . S
C825 C842 1.574 . S
C825 C844 1.368 1_656 S
C825 H849 0.949 1_655 S
H826 C830 0.949 . S
C827 C828 1.349 1_556 S
C827 C829 1.327 . S
C827 H850 0.950 . S
C828 C827 1.349 1_554 S
C828 C840 1.349 . S
C829 C827 1.327 . S
C829 C845 1.429 1_556 S
C829 H851 0.950 . S
C830 H826 0.949 . S
C830 C838 1.574 . S
C830 C846 1.368 . S
H831 C839 0.950 . S
H832 C837 0.950 . S
H833 C838 0.958 . S
H834 C840 0.950 . S
H835 C841 0.950 . S
H836 C842 0.949 . S
C837 H832 0.950 . S
C837 C839 1.327 . S
C837 C843 1.429 1_556 S
C838 C830 1.574 . S
C838 H833 0.958 . S
C838 C844 1.368 1_655 S
C839 C823 1.349 1_556 S
C839 H831 0.950 . S
C839 C837 1.327 . S
C840 C828 1.349 . S
C840 H834 0.950 . S
C840 C841 1.327 . S
C841 H835 0.950 . S
C841 C840 1.327 . S
C841 C845 1.429 . S
C842 C825 1.574 . S
C842 H836 0.949 . S
C842 C846 1.368 1_556 S
C843 C824 1.429 . S
C843 C837 1.429 1_554 S
C843 C844 1.523 . S
C844 C825 1.368 1_454 S
C844 C838 1.368 1_455 S
C844 C843 1.523 . S
C845 C829 1.429 1_554 S
C845 C841 1.429 . S
C845 C846 1.523 . S
C846 C830 1.368 . S
C846 C842 1.368 1_554 S
C846 C845 1.523 . S
H847 C822 0.950 . S
H848 C824 0.950 . S
H849 C825 0.949 1_455 S
H850 C827 0.950 . S
H851 C829 0.950 . S
C852 C853 1.349 . S
C852 C854 1.327 . S
C852 H877 0.950 . S
C853 C852 1.349 . S
C853 C869 1.349 . S
C854 C852 1.327 . S
C854 C873 1.429 . S
C854 H878 0.950 . S
C855 C872 1.574 . S
C855 C874 1.368 . S
C855 H879 0.949 . S
H856 C860 0.957 . S
C857 C858 1.349 . S
C857 C859 1.327 . S
C857 H880 0.950 . S
C858 C857 1.349 . S
C858 C870 1.349 . S
C859 C857 1.327 . S
C859 C875 1.429 . S
C859 H881 0.950 . S
C860 H856 0.957 . S
C860 C868 1.574 . S
C860 C876 1.368 1_455 S
H861 C869 0.950 . S
H862 C867 0.950 . S
H863 C868 0.949 . S
H864 C870 0.950 . S
H865 C871 0.950 . S
H866 C872 0.949 1_655 S
C867 H862 0.950 . S
C867 C869 1.327 . S
C867 C873 1.429 . S
C868 C860 1.574 . S
C868 H863 0.949 . S
C868 C874 1.368 . S
C869 C853 1.349 . S
C869 H861 0.950 . S
C869 C867 1.327 . S
C870 C858 1.349 . S
C870 H864 0.950 . S
C870 C871 1.327 . S
C871 H865 0.950 . S
C871 C870 1.327 . S
C871 C875 1.429 . S
C872 C855 1.574 . S
C872 H866 0.949 1_455 S
C872 C876 1.368 1_455 S
C873 C854 1.429 . S
C873 C867 1.429 . S
C873 C874 1.523 . S
C874 C855 1.368 . S
C874 C868 1.368 . S
C874 C873 1.523 . S
C875 C859 1.429 . S
C875 C871 1.429 . S
C875 C876 1.523 . S
C876 C860 1.368 1_655 S
C876 C872 1.368 1_655 S
C876 C875 1.523 . S
H877 C852 0.950 . S
H878 C854 0.950 . S
H879 C855 0.949 . S
H880 C857 0.950 . S
H881 C859 0.950 . S
C882 C883 1.349 . S
C882 C884 1.327 . S
C882 H907 0.950 . S
C883 C882 1.349 . S
C883 C899 1.349 . S
C884 C882 1.327 . S
C884 C903 1.429 . S
C884 H908 0.950 . S
C885 C902 1.574 . S
C885 C904 1.368 . S
C885 H909 0.949 . S
H886 C890 0.955 . S
C887 C888 1.349 . S
C887 C889 1.327 . S
C887 H910 0.950 . S
C888 C887 1.349 . S
C888 C900 1.349 . S
C889 C887 1.327 . S
C889 C905 1.429 . S
C889 H911 0.950 . S
C890 H886 0.955 . S
C890 C898 1.574 . S
C890 C906 1.368 1_655 S
H891 C899 0.950 . S
H892 C897 0.950 . S
H893 C898 0.949 . S
H894 C900 0.950 . S
H895 C901 0.950 . S
H896 C902 0.949 1_455 S
C897 H892 0.950 . S
C897 C899 1.327 . S
C897 C903 1.429 . S
C898 C890 1.574 . S
C898 H893 0.949 . S
C898 C904 1.368 . S
C899 C883 1.349 . S
C899 H891 0.950 . S
C899 C897 1.327 . S
C900 C888 1.349 . S
C900 H894 0.950 . S
C900 C901 1.327 . S
C901 H895 0.950 . S
C901 C900 1.327 . S
C901 C905 1.429 . S
C902 C885 1.574 . S
C902 H896 0.949 1_655 S
C902 C906 1.368 1_655 S
C903 C884 1.429 . S
C903 C897 1.429 . S
C903 C904 1.523 . S
C904 C885 1.368 . S
C904 C898 1.368 . S
C904 C903 1.523 . S
C905 C889 1.429 . S
C905 C901 1.429 . S
C905 C906 1.523 . S
C906 C890 1.368 1_455 S
C906 C902 1.368 1_455 S
C906 C905 1.523 . S
H907 C882 0.950 . S
H908 C884 0.950 . S
H909 C885 0.949 . S
H910 C887 0.950 . S
H911 C889 0.950 . S
C912 C913 1.349 . S
C912 C914 1.327 . S
C912 H937 0.957 . S
C913 C912 1.349 . S
C913 C929 1.349 1_554 S
C914 C912 1.327 . S
C914 C933 1.429 . S
C914 H938 0.950 1_455 S
C915 C932 1.574 . S
C915 C934 1.368 1_556 S
C915 H939 0.949 . S
H916 C920 0.949 . S
C917 C918 1.349 1_556 S
C917 C919 1.327 . S
C917 H940 0.950 . S
C918 C917 1.349 1_554 S
C918 C930 1.349 . S
C919 C917 1.327 . S
C919 C935 1.429 1_556 S
C919 H941 0.950 1_655 S
C920 H916 0.949 . S
C920 C928 1.574 . S
C920 C936 1.368 . S
H921 C929 0.950 . S
H922 C927 0.950 . S
H923 C928 0.949 . S
H924 C930 0.950 . S
H925 C931 0.950 . S
H926 C932 0.949 . S
C927 H922 0.950 . S
C927 C929 1.327 . S
C927 C933 1.429 1_556 S
C928 C920 1.574 . S
C928 H923 0.949 . S
C928 C934 1.368 1_655 S
C929 C913 1.349 1_556 S
C929 H921 0.950 . S
C929 C927 1.327 . S
C930 C918 1.349 . S
C930 H924 0.950 . S
C930 C931 1.327 . S
C931 H925 0.950 . S
C931 C930 1.327 . S
C931 C935 1.429 . S
C932 C915 1.574 . S
C932 H926 0.949 . S
C932 C936 1.368 1_456 S
C933 C914 1.429 . S
C933 C927 1.429 1_554 S
C933 C934 1.523 . S
C934 C915 1.368 1_554 S
C934 C928 1.368 1_455 S
C934 C933 1.523 . S
C935 C919 1.429 1_554 S
C935 C931 1.429 . S
C935 C936 1.523 . S
C936 C920 1.368 . S
C936 C932 1.368 1_654 S
C936 C935 1.523 . S
H937 C912 0.957 . S
H938 C914 0.950 1_655 S
H939 C915 0.949 . S
H940 C917 0.950 . S
H941 C919 0.950 1_455 S
C942 C943 1.349 . S
C942 C944 1.327 . S
C942 H967 0.955 . S
C943 C942 1.349 . S
C943 C959 1.349 . S
C944 C942 1.327 . S
C944 C963 1.429 . S
C944 H968 0.950 1_455 S
C945 C962 1.574 . S
C945 C964 1.368 . S
C945 H969 0.949 . S
H946 C950 0.949 . S
C947 C948 1.349 . S
C947 C949 1.327 . S
C947 H970 0.956 . S
C948 C947 1.349 . S
C948 C960 1.349 . S
C949 C947 1.327 . S
C949 C965 1.429 . S
C949 H971 0.950 1_655 S
C950 H946 0.949 . S
C950 C958 1.574 . S
C950 C966 1.368 . S
H951 C959 0.950 . S
H952 C957 0.950 . S
H953 C958 0.949 . S
H954 C960 0.950 . S
H955 C961 0.950 . S
H956 C962 0.949 . S
C957 H952 0.950 . S
C957 C959 1.327 . S
C957 C963 1.429 . S
C958 C950 1.574 . S
C958 H953 0.949 . S
C958 C964 1.368 1_655 S
C959 C943 1.349 . S
C959 H951 0.950 . S
C959 C957 1.327 . S
C960 C948 1.349 . S
C960 H954 0.950 . S
C960 C961 1.327 . S
C961 H955 0.950 . S
C961 C960 1.327 . S
C961 C965 1.429 . S
C962 C945 1.574 . S
C962 H956 0.949 . S
C962 C966 1.368 1_455 S
C963 C944 1.429 . S
C963 C957 1.429 . S
C963 C964 1.523 . S
C964 C945 1.368 . S
C964 C958 1.368 1_455 S
C964 C963 1.523 . S
C965 C949 1.429 . S
C965 C961 1.429 . S
C965 C966 1.523 . S
C966 C950 1.368 . S
C966 C962 1.368 1_655 S
C966 C965 1.523 . S
H967 C942 0.955 . S
H968 C944 0.950 1_655 S
H969 C945 0.949 . S
H970 C947 0.956 . S
H971 C949 0.950 1_455 S
C972 C973 1.349 . S
C972 C974 1.327 . S
C972 H997 0.950 . S
C973 C972 1.349 . S
C973 C989 1.349 1_554 S
C974 C972 1.327 . S
C974 C993 1.429 . S
C974 H998 0.950 . S
C975 C992 1.574 1_565 S
C975 C994 1.368 1_556 S
C975 H999 0.949 . S
H976 C980 0.949 . S
C977 C978 1.349 1_556 S
C977 C979 1.327 . S
C977 H1000 0.950 . S
C978 C977 1.349 1_554 S
C978 C990 1.349 . S
C979 C977 1.327 . S
C979 C995 1.429 1_556 S
C979 H1001 0.950 . S
C980 H976 0.949 . S
C980 C988 1.574 1_545 S
C980 C996 1.368 . S
H981 C989 0.950 . S
H982 C987 0.950 . S
H983 C988 0.949 . S
H984 C990 0.950 . S
H985 C991 0.950 . S
H986 C992 0.949 . S
C987 H982 0.950 . S
C987 C989 1.327 . S
C987 C993 1.429 1_556 S
C988 C980 1.574 1_565 S
C988 H983 0.949 . S
C988 C994 1.368 . S
C989 C973 1.349 1_556 S
C989 H981 0.950 . S
C989 C987 1.327 . S
C990 C978 1.349 . S
C990 H984 0.950 . S
C990 C991 1.327 . S
C991 H985 0.950 . S
C991 C990 1.327 . S
C991 C995 1.429 . S
C992 C975 1.574 1_545 S
C992 H986 0.949 . S
C992 C996 1.368 1_556 S
C993 C974 1.429 . S
C993 C987 1.429 1_554 S
C993 C994 1.523 . S
C994 C975 1.368 1_554 S
C994 C988 1.368 . S
C994 C993 1.523 . S
C995 C979 1.429 1_554 S
C995 C991 1.429 . S
C995 C996 1.523 . S
C996 C980 1.368 . S
C996 C992 1.368 1_554 S
C996 C995 1.523 . S
H997 C972 0.950 . S
H998 C974 0.950 . S
H999 C975 0.949 . S
H1000 C977 0.950 . S
H1001 C979 0.950 . S
C1002 C1003 1.349 . S
C1002 C1004 1.327 . S
C1002 H1027 0.950 . S
C1003 C1002 1.349 . S
C1003 C1019 1.349 . S
C1004 C1002 1.327 . S
C1004 C1023 1.429 . S
C1004 H1028 0.950 . S
C1005 C1022 1.574 1_545 S
C1005 C1024 1.368 . S
C1005 H1029 0.949 . S
H1006 C1010 0.949 . S
C1007 C1008 1.349 . S
C1007 C1009 1.327 . S
C1007 H1030 0.950 . S
C1008 C1007 1.349 . S
C1008 C1020 1.349 . S
C1009 C1007 1.327 . S
C1009 C1025 1.429 . S
C1009 H1031 0.950 . S
C1010 H1006 0.949 . S
C1010 C1018 1.574 1_565 S
C1010 C1026 1.368 . S
H1011 C1019 0.950 . S
H1012 C1017 0.950 . S
H1013 C1018 0.949 . S
H1014 C1020 0.950 . S
H1015 C1021 0.950 . S
H1016 C1022 0.949 . S
C1017 H1012 0.950 . S
C1017 C1019 1.327 . S
C1017 C1023 1.429 . S
C1018 C1010 1.574 1_545 S
C1018 H1013 0.949 . S
C1018 C1024 1.368 . S
C1019 C1003 1.349 . S
C1019 H1011 0.950 . S
C1019 C1017 1.327 . S
C1020 C1008 1.349 . S
C1020 H1014 0.950 . S
C1020 C1021 1.327 . S
C1021 H1015 0.950 . S
C1021 C1020 1.327 . S
C1021 C1025 1.429 . S
C1022 C1005 1.574 1_565 S
C1022 H1016 0.949 . S
C1022 C1026 1.368 . S
C1023 C1004 1.429 . S
C1023 C1017 1.429 . S
C1023 C1024 1.523 . S
C1024 C1005 1.368 . S
C1024 C1018 1.368 . S
C1024 C1023 1.523 . S
C1025 C1009 1.429 . S
C1025 C1021 1.429 . S
C1025 C1026 1.523 . S
C1026 C1010 1.368 . S
C1026 C1022 1.368 . S
C1026 C1025 1.523 . S
H1027 C1002 0.950 . S
H1028 C1004 0.950 . S
H1029 C1005 0.949 . S
H1030 C1007 0.950 . S
H1031 C1009 0.950 . S
C1032 C1033 1.349 1_556 S
C1032 C1034 1.327 . S
C1032 H1057 0.950 . S
C1033 C1032 1.349 1_554 S
C1033 C1049 1.349 . S
C1034 C1032 1.327 . S
C1034 C1053 1.429 1_556 S
C1034 H1058 0.950 . S
C1035 C1052 1.574 . S
C1035 C1054 1.368 . S
C1035 H1059 0.949 . S
H1036 C1040 0.949 . S
C1037 C1038 1.349 . S
C1037 C1039 1.327 . S
C1037 H1060 0.950 . S
C1038 C1037 1.349 . S
C1038 C1050 1.349 1_554 S
C1039 C1037 1.327 . S
C1039 C1055 1.429 . S
C1039 H1061 0.950 . S
C1040 H1036 0.949 . S
C1040 C1048 1.574 . S
C1040 C1056 1.368 1_556 S
H1041 C1049 0.950 . S
H1042 C1047 0.950 . S
H1043 C1048 0.949 . S
H1044 C1050 0.950 . S
H1045 C1051 0.950 . S
H1046 C1052 0.949 . S
C1047 H1042 0.950 . S
C1047 C1049 1.327 . S
C1047 C1053 1.429 . S
C1048 C1040 1.574 . S
C1048 H1043 0.949 . S
C1048 C1054 1.368 1_556 S
C1049 C1033 1.349 . S
C1049 H1041 0.950 . S
C1049 C1047 1.327 . S
C1050 C1038 1.349 1_556 S
C1050 H1044 0.950 . S
C1050 C1051 1.327 . S
C1051 H1045 0.950 . S
C1051 C1050 1.327 . S
C1051 C1055 1.429 1_556 S
C1052 C1035 1.574 . S
C1052 H1046 0.949 . S
C1052 C1056 1.368 . S
C1053 C1034 1.429 1_554 S
C1053 C1047 1.429 . S
C1053 C1054 1.523 . S
C1054 C1035 1.368 . S
C1054 C1048 1.368 1_554 S
C1054 C1053 1.523 . S
C1055 C1039 1.429 . S
C1055 C1051 1.429 1_554 S
C1055 C1056 1.523 . S
C1056 C1040 1.368 1_554 S
C1056 C1052 1.368 . S
C1056 C1055 1.523 . S
H1057 C1032 0.950 . S
H1058 C1034 0.950 . S
H1059 C1035 0.949 . S
H1060 C1037 0.950 . S
H1061 C1039 0.950 . S
C1062 C1063 1.349 1_556 S
C1062 C1064 1.327 . S
C1062 H1087 0.950 . S
C1063 C1062 1.349 1_554 S
C1063 C1079 1.349 . S
C1064 C1062 1.327 . S
C1064 C1083 1.429 1_556 S
C1064 H1088 0.950 . S
C1065 C1082 1.574 . S
C1065 C1084 1.368 . S
C1065 H1089 0.949 . S
H1066 C1070 0.949 . S
C1067 C1068 1.349 . S
C1067 C1069 1.327 . S
C1067 H1090 0.950 . S
C1068 C1067 1.349 . S
C1068 C1080 1.349 1_554 S
C1069 C1067 1.327 . S
C1069 C1085 1.429 . S
C1069 H1091 0.950 . S
C1070 H1066 0.949 . S
C1070 C1078 1.574 . S
C1070 C1086 1.368 1_556 S
H1071 C1079 0.950 . S
H1072 C1077 0.950 . S
H1073 C1078 0.949 . S
H1074 C1080 0.950 . S
H1075 C1081 0.950 . S
H1076 C1082 0.949 . S
C1077 H1072 0.950 . S
C1077 C1079 1.327 . S
C1077 C1083 1.429 . S
C1078 C1070 1.574 . S
C1078 H1073 0.949 . S
C1078 C1084 1.368 1_556 S
C1079 C1063 1.349 . S
C1079 H1071 0.950 . S
C1079 C1077 1.327 . S
C1080 C1068 1.349 1_556 S
C1080 H1074 0.950 . S
C1080 C1081 1.327 . S
C1081 H1075 0.950 . S
C1081 C1080 1.327 . S
C1081 C1085 1.429 1_556 S
C1082 C1065 1.574 . S
C1082 H1076 0.949 . S
C1082 C1086 1.368 . S
C1083 C1064 1.429 1_554 S
C1083 C1077 1.429 . S
C1083 C1084 1.523 . S
C1084 C1065 1.368 . S
C1084 C1078 1.368 1_554 S
C1084 C1083 1.523 . S
C1085 C1069 1.429 . S
C1085 C1081 1.429 1_554 S
C1085 C1086 1.523 . S
C1086 C1070 1.368 1_554 S
C1086 C1082 1.368 . S
C1086 C1085 1.523 . S
H1087 C1062 0.950 . S
H1088 C1064 0.950 . S
H1089 C1065 0.949 . S
H1090 C1067 0.950 . S
H1091 C1069 0.950 . S
C1092 C1093 1.349 . S
C1092 C1094 1.327 . S
C1092 H1117 0.950 . S
C1093 C1092 1.349 . S
C1093 C1109 1.349 . S
C1094 C1092 1.327 . S
C1094 C1113 1.429 . S
C1094 H1118 0.950 . S
C1095 C1112 1.574 . S
C1095 C1114 1.368 . S
C1095 H1119 0.949 . S
H1096 C1100 0.949 . S
C1097 C1098 1.349 . S
C1097 C1099 1.327 . S
C1097 H1120 0.950 . S
C1098 C1097 1.349 . S
C1098 C1110 1.349 . S
C1099 C1097 1.327 . S
C1099 C1115 1.429 . S
C1099 H1121 0.950 . S
C1100 H1096 0.949 . S
C1100 C1108 1.574 . S
C1100 C1116 1.368 . S
H1101 C1109 0.950 . S
H1102 C1107 0.950 . S
H1103 C1108 0.949 . S
H1104 C1110 0.950 . S
H1105 C1111 0.950 . S
H1106 C1112 0.949 . S
C1107 H1102 0.950 . S
C1107 C1109 1.327 . S
C1107 C1113 1.429 . S
C1108 C1100 1.574 . S
C1108 H1103 0.949 . S
C1108 C1114 1.368 . S
C1109 C1093 1.349 . S
C1109 H1101 0.950 . S
C1109 C1107 1.327 . S
C1110 C1098 1.349 . S
C1110 H1104 0.950 . S
C1110 C1111 1.327 . S
C1111 H1105 0.950 . S
C1111 C1110 1.327 . S
C1111 C1115 1.429 . S
C1112 C1095 1.574 . S
C1112 H1106 0.949 . S
C1112 C1116 1.368 . S
C1113 C1094 1.429 . S
C1113 C1107 1.429 . S
C1113 C1114 1.523 . S
C1114 C1095 1.368 . S
C1114 C1108 1.368 . S
C1114 C1113 1.523 . S
C1115 C1099 1.429 . S
C1115 C1111 1.429 . S
C1115 C1116 1.523 . S
C1116 C1100 1.368 . S
C1116 C1112 1.368 . S
C1116 C1115 1.523 . S
H1117 C1092 0.950 . S
H1118 C1094 0.950 . S
H1119 C1095 0.949 . S
H1120 C1097 0.950 . S
H1121 C1099 0.950 . S
C1122 C1123 1.349 . S
C1122 C1124 1.327 . S
C1122 H1147 0.950 . S
C1123 C1122 1.349 . S
C1123 C1139 1.349 . S
C1124 C1122 1.327 . S
C1124 C1143 1.429 . S
C1124 H1148 0.950 . S
C1125 C1142 1.574 . S
C1125 C1144 1.368 . S
C1125 H1149 0.949 . S
H1126 C1130 0.949 . S
C1127 C1128 1.349 . S
C1127 C1129 1.327 . S
C1127 H1150 0.950 . S
C1128 C1127 1.349 . S
C1128 C1140 1.349 . S
C1129 C1127 1.327 . S
C1129 C1145 1.429 . S
C1129 H1151 0.950 . S
C1130 H1126 0.949 . S
C1130 C1138 1.574 . S
C1130 C1146 1.368 . S
H1131 C1139 0.950 . S
H1132 C1137 0.950 . S
H1133 C1138 0.949 . S
H1134 C1140 0.950 . S
H1135 C1141 0.950 . S
H1136 C1142 0.949 . S
C1137 H1132 0.950 . S
C1137 C1139 1.327 . S
C1137 C1143 1.429 . S
C1138 C1130 1.574 . S
C1138 H1133 0.949 . S
C1138 C1144 1.368 . S
C1139 C1123 1.349 . S
C1139 H1131 0.950 . S
C1139 C1137 1.327 . S
C1140 C1128 1.349 . S
C1140 H1134 0.950 . S
C1140 C1141 1.327 . S
C1141 H1135 0.950 . S
C1141 C1140 1.327 . S
C1141 C1145 1.429 . S
C1142 C1125 1.574 . S
C1142 H1136 0.949 . S
C1142 C1146 1.368 . S
C1143 C1124 1.429 . S
C1143 C1137 1.429 . S
C1143 C1144 1.523 . S
C1144 C1125 1.368 . S
C1144 C1138 1.368 . S
C1144 C1143 1.523 . S
C1145 C1129 1.429 . S
C1145 C1141 1.429 . S
C1145 C1146 1.523 . S
C1146 C1130 1.368 . S
C1146 C1142 1.368 . S
C1146 C1145 1.523 . S
H1147 C1122 0.950 . S
H1148 C1124 0.950 . S
H1149 C1125 0.949 . S
H1150 C1127 0.950 . S
H1151 C1129 0.950 . S
C1152 C1153 1.349 . S
C1152 C1154 1.327 1_455 S
C1152 H1177 0.950 1_455 S
C1153 C1152 1.349 . S
C1153 C1169 1.349 . S
C1154 C1152 1.327 1_655 S
C1154 C1173 1.429 1_655 S
C1154 H1178 0.950 . S
C1155 C1172 1.574 . S
C1155 C1174 1.368 . S
C1155 H1179 0.949 . S
H1156 C1160 0.949 . S
C1157 C1158 1.349 . S
C1157 C1159 1.330 . S
C1157 H1180 0.950 1_655 S
C1158 C1157 1.349 . S
C1158 C1170 1.349 . S
C1159 C1157 1.330 . S
C1159 C1175 1.434 . S
C1159 H1181 0.942 1_655 S
C1160 H1156 0.949 . S
C1160 C1168 1.574 . S
C1160 C1176 1.368 . S
H1161 C1169 0.950 . S
H1162 C1167 0.950 . S
H1163 C1168 0.949 . S
H1164 C1170 0.950 . S
H1165 C1171 0.950 . S
H1166 C1172 0.949 . S
C1167 H1162 0.950 . S
C1167 C1169 1.327 . S
C1167 C1173 1.429 . S
C1168 C1160 1.574 . S
C1168 H1163 0.949 . S
C1168 C1174 1.368 1_655 S
C1169 C1153 1.349 . S
C1169 H1161 0.950 . S
C1169 C1167 1.327 . S
C1170 C1158 1.349 . S
C1170 H1164 0.950 . S
C1170 C1171 1.327 . S
C1171 H1165 0.950 . S
C1171 C1170 1.327 . S
C1171 C1175 1.429 . S
C1172 C1155 1.574 . S
C1172 H1166 0.949 . S
C1172 C1176 1.368 1_455 S
C1173 C1154 1.429 1_455 S
C1173 C1167 1.429 . S
C1173 C1174 1.523 . S
C1174 C1155 1.368 . S
C1174 C1168 1.368 1_455 S
C1174 C1173 1.523 . S
C1175 C1159 1.434 . S
C1175 C1171 1.429 . S
C1175 C1176 1.523 . S
C1176 C1160 1.368 . S
C1176 C1172 1.368 1_655 S
C1176 C1175 1.523 . S
H1177 C1152 0.950 1_655 S
H1178 C1154 0.950 . S
H1179 C1155 0.949 . S
H1180 C1157 0.950 1_455 S
H1181 C1159 0.942 1_455 S
C1182 C1183 1.349 . S
C1182 C1184 1.327 1_655 S
C1182 H1207 0.950 1_655 S
C1183 C1182 1.349 . S
C1183 C1199 1.349 . S
C1184 C1182 1.327 1_455 S
C1184 C1203 1.429 1_455 S
C1184 H1208 0.950 . S
C1185 C1202 1.574 . S
C1185 C1204 1.368 . S
C1185 H1209 0.949 . S
H1186 C1190 0.949 . S
C1187 C1188 1.349 1_655 S
C1187 C1189 1.327 . S
C1187 H1210 0.950 . S
C1188 C1187 1.349 1_455 S
C1188 C1200 1.349 . S
C1189 C1187 1.327 . S
C1189 C1205 1.429 1_655 S
C1189 H1211 0.950 . S
C1190 H1186 0.949 . S
C1190 C1198 1.574 . S
C1190 C1206 1.368 . S
H1191 C1199 0.950 . S
H1192 C1197 0.950 . S
H1193 C1198 0.949 . S
H1194 C1200 0.950 . S
H1195 C1201 0.950 . S
H1196 C1202 0.949 . S
C1197 H1192 0.950 . S
C1197 C1199 1.327 . S
C1197 C1203 1.429 . S
C1198 C1190 1.574 . S
C1198 H1193 0.949 . S
C1198 C1204 1.368 1_455 S
C1199 C1183 1.349 . S
C1199 H1191 0.950 . S
C1199 C1197 1.327 . S
C1200 C1188 1.349 . S
C1200 H1194 0.950 . S
C1200 C1201 1.327 . S
C1201 H1195 0.950 . S
C1201 C1200 1.327 . S
C1201 C1205 1.429 . S
C1202 C1185 1.574 . S
C1202 H1196 0.949 . S
C1202 C1206 1.368 1_655 S
C1203 C1184 1.429 1_655 S
C1203 C1197 1.429 . S
C1203 C1204 1.523 . S
C1204 C1185 1.368 . S
C1204 C1198 1.368 1_655 S
C1204 C1203 1.523 . S
C1205 C1189 1.429 1_455 S
C1205 C1201 1.429 . S
C1205 C1206 1.523 . S
C1206 C1190 1.368 . S
C1206 C1202 1.368 1_455 S
C1206 C1205 1.523 . S
H1207 C1182 0.950 1_455 S
H1208 C1184 0.950 . S
H1209 C1185 0.949 . S
H1210 C1187 0.950 . S
H1211 C1189 0.950 . S
C1212 C1213 1.349 . S
C1212 C1214 1.327 . S
C1212 H1237 0.950 . S
C1213 C1212 1.349 . S
C1213 C1229 1.349 . S
C1214 C1212 1.327 . S
C1214 C1233 1.429 . S
C1214 H1238 0.950 . S
C1215 C1232 1.574 1_655 S
C1215 C1234 1.368 . S
C1215 H1239 0.949 . S
H1216 C1220 0.949 . S
C1217 C1218 1.349 . S
C1217 C1219 1.327 . S
C1217 H1240 0.950 . S
C1218 C1217 1.349 . S
C1218 C1230 1.349 . S
C1219 C1217 1.327 . S
C1219 C1235 1.429 . S
C1219 H1241 0.950 . S
C1220 H1216 0.949 . S
C1220 C1228 1.574 1_455 S
C1220 C1236 1.368 . S
H1221 C1229 0.950 . S
H1222 C1227 0.950 . S
H1223 C1228 0.949 . S
H1224 C1230 0.950 . S
H1225 C1231 0.950 . S
H1226 C1232 0.949 . S
C1227 H1222 0.950 . S
C1227 C1229 1.327 . S
C1227 C1233 1.429 . S
C1228 C1220 1.574 1_655 S
C1228 H1223 0.949 . S
C1228 C1234 1.368 . S
C1229 C1213 1.349 . S
C1229 H1221 0.950 . S
C1229 C1227 1.327 . S
C1230 C1218 1.349 . S
C1230 H1224 0.950 . S
C1230 C1231 1.327 . S
C1231 H1225 0.950 . S
C1231 C1230 1.327 . S
C1231 C1235 1.429 . S
C1232 C1215 1.574 1_455 S
C1232 H1226 0.949 . S
C1232 C1236 1.368 . S
C1233 C1214 1.429 . S
C1233 C1227 1.429 . S
C1233 C1234 1.523 . S
C1234 C1215 1.368 . S
C1234 C1228 1.368 . S
C1234 C1233 1.523 . S
C1235 C1219 1.429 . S
C1235 C1231 1.429 . S
C1235 C1236 1.523 . S
C1236 C1220 1.368 . S
C1236 C1232 1.368 . S
C1236 C1235 1.523 . S
H1237 C1212 0.950 . S
H1238 C1214 0.950 . S
H1239 C1215 0.949 . S
H1240 C1217 0.950 . S
H1241 C1219 0.950 . S
C1242 C1243 1.352 . S
C1242 C1244 1.326 1_655 S
C1242 H1267 0.947 1_655 S
C1243 C1242 1.352 . S
C1243 C1259 1.349 . S
C1244 C1242 1.326 1_455 S
C1244 C1263 1.429 1_455 S
C1244 H1268 0.950 . S
C1245 C1262 1.574 . S
C1245 C1264 1.368 . S
C1245 H1269 0.949 . S
H1246 C1250 0.949 . S
C1247 C1248 1.349 . S
C1247 C1249 1.327 1_455 S
C1247 H1270 0.950 1_455 S
C1248 C1247 1.349 . S
C1248 C1260 1.349 . S
C1249 C1247 1.327 1_655 S
C1249 C1265 1.429 1_655 S
C1249 H1271 0.950 . S
C1250 H1246 0.949 . S
C1250 C1258 1.574 . S
C1250 C1266 1.368 . S
H1251 C1259 0.950 . S
H1252 C1257 0.950 . S
H1253 C1258 0.949 . S
H1254 C1260 0.950 . S
H1255 C1261 0.950 . S
H1256 C1262 0.949 . S
C1257 H1252 0.950 . S
C1257 C1259 1.327 . S
C1257 C1263 1.429 . S
C1258 C1250 1.574 . S
C1258 H1253 0.949 . S
C1258 C1264 1.368 1_455 S
C1259 C1243 1.349 . S
C1259 H1251 0.950 . S
C1259 C1257 1.327 . S
C1260 C1248 1.349 . S
C1260 H1254 0.950 . S
C1260 C1261 1.327 . S
C1261 H1255 0.950 . S
C1261 C1260 1.327 . S
C1261 C1265 1.429 . S
C1262 C1245 1.574 . S
C1262 H1256 0.949 . S
C1262 C1266 1.368 1_655 S
C1263 C1244 1.429 1_655 S
C1263 C1257 1.429 . S
C1263 C1264 1.523 . S
C1264 C1245 1.368 . S
C1264 C1258 1.368 1_655 S
C1264 C1263 1.523 . S
C1265 C1249 1.429 1_455 S
C1265 C1261 1.429 . S
C1265 C1266 1.523 . S
C1266 C1250 1.368 . S
C1266 C1262 1.368 1_455 S
C1266 C1265 1.523 . S
H1267 C1242 0.947 1_455 S
H1268 C1244 0.950 . S
H1269 C1245 0.949 . S
H1270 C1247 0.950 1_655 S
H1271 C1249 0.950 . S
C1272 C1273 1.349 . S
C1272 C1274 1.327 . S
C1272 H1297 0.950 . S
C1273 C1272 1.349 . S
C1273 C1289 1.349 . S
C1274 C1272 1.327 . S
C1274 C1293 1.429 . S
C1274 H1298 0.950 . S
C1275 C1292 1.574 . S
C1275 C1294 1.368 . S
C1275 H1299 0.949 . S
H1276 C1280 0.949 . S
C1277 C1278 1.349 . S
C1277 C1279 1.327 . S
C1277 H1300 0.950 . S
C1278 C1277 1.349 . S
C1278 C1290 1.349 . S
C1279 C1277 1.327 . S
C1279 C1295 1.429 . S
C1279 H1301 0.950 . S
C1280 H1276 0.949 . S
C1280 C1288 1.574 . S
C1280 C1296 1.368 . S
H1281 C1289 0.950 . S
H1282 C1287 0.950 . S
H1283 C1288 0.949 . S
H1284 C1290 0.950 . S
H1285 C1291 0.950 . S
H1286 C1292 0.949 . S
C1287 H1282 0.950 . S
C1287 C1289 1.327 . S
C1287 C1293 1.429 . S
C1288 C1280 1.574 . S
C1288 H1283 0.949 . S
C1288 C1294 1.368 . S
C1289 C1273 1.349 . S
C1289 H1281 0.950 . S
C1289 C1287 1.327 . S
C1290 C1278 1.349 . S
C1290 H1284 0.950 . S
C1290 C1291 1.327 . S
C1291 H1285 0.950 . S
C1291 C1290 1.327 . S
C1291 C1295 1.429 . S
C1292 C1275 1.574 . S
C1292 H1286 0.949 . S
C1292 C1296 1.368 . S
C1293 C1274 1.429 . S
C1293 C1287 1.429 . S
C1293 C1294 1.523 . S
C1294 C1275 1.368 . S
C1294 C1288 1.368 . S
C1294 C1293 1.523 . S
C1295 C1279 1.429 . S
C1295 C1291 1.429 . S
C1295 C1296 1.523 . S
C1296 C1280 1.368 . S
C1296 C1292 1.368 . S
C1296 C1295 1.523 . S
H1297 C1272 0.950 . S
H1298 C1274 0.950 . S
H1299 C1275 0.949 . S
H1300 C1277 0.950 . S
H1301 C1279 0.950 . S
C1302 C1303 1.349 . S
C1302 C1304 1.327 . S
C1302 H1327 0.950 . S
C1303 C1302 1.349 . S
C1303 C1319 1.349 . S
C1304 C1302 1.327 . S
C1304 C1323 1.429 . S
C1304 H1328 0.950 . S
C1305 C1322 1.574 . S
C1305 C1324 1.368 . S
C1305 H1329 0.949 . S
H1306 C1310 0.949 . S
C1307 C1308 1.349 . S
C1307 C1309 1.327 . S
C1307 H1330 0.950 . S
C1308 C1307 1.349 . S
C1308 C1320 1.349 . S
C1309 C1307 1.327 . S
C1309 C1325 1.429 . S
C1309 H1331 0.950 . S
C1310 H1306 0.949 . S
C1310 C1318 1.574 . S
C1310 C1326 1.368 . S
H1311 C1319 0.950 . S
H1312 C1317 0.950 . S
H1313 C1318 0.949 . S
H1314 C1320 0.950 . S
H1315 C1321 0.950 . S
H1316 C1322 0.949 . S
C1317 H1312 0.950 . S
C1317 C1319 1.327 . S
C1317 C1323 1.429 . S
C1318 C1310 1.574 . S
C1318 H1313 0.949 . S
C1318 C1324 1.368 . S
C1319 C1303 1.349 . S
C1319 H1311 0.950 . S
C1319 C1317 1.327 . S
C1320 C1308 1.349 . S
C1320 H1314 0.950 . S
C1320 C1321 1.327 . S
C1321 H1315 0.950 . S
C1321 C1320 1.327 . S
C1321 C1325 1.429 . S
C1322 C1305 1.574 . S
C1322 H1316 0.949 . S
C1322 C1326 1.368 . S
C1323 C1304 1.429 . S
C1323 C1317 1.429 . S
C1323 C1324 1.523 . S
C1324 C1305 1.368 . S
C1324 C1318 1.368 . S
C1324 C1323 1.523 . S
C1325 C1309 1.429 . S
C1325 C1321 1.429 . S
C1325 C1326 1.523 . S
C1326 C1310 1.368 . S
C1326 C1322 1.368 . S
C1326 C1325 1.523 . S
H1327 C1302 0.950 . S
H1328 C1304 0.950 . S
H1329 C1305 0.949 . S
H1330 C1307 0.950 . S
H1331 C1309 0.950 . S
C1332 C1333 1.349 . S
C1332 C1334 1.327 . S
C1332 H1357 0.950 . S
C1333 C1332 1.349 . S
C1333 C1349 1.349 . S
C1334 C1332 1.327 . S
C1334 C1353 1.429 . S
C1334 H1358 0.950 . S
C1335 C1352 1.574 . S
C1335 C1354 1.368 . S
C1335 H1359 0.949 . S
H1336 C1340 0.949 . S
C1337 C1338 1.349 . S
C1337 C1339 1.327 . S
C1337 H1360 0.950 . S
C1338 C1337 1.349 . S
C1338 C1350 1.349 . S
C1339 C1337 1.327 . S
C1339 C1355 1.429 . S
C1339 H1361 0.950 . S
C1340 H1336 0.949 . S
C1340 C1348 1.574 . S
C1340 C1356 1.368 . S
H1341 C1349 0.950 . S
H1342 C1347 0.950 . S
H1343 C1348 0.949 . S
H1344 C1350 0.950 . S
H1345 C1351 0.950 . S
H1346 C1352 0.949 . S
C1347 H1342 0.950 . S
C1347 C1349 1.327 . S
C1347 C1353 1.429 . S
C1348 C1340 1.574 . S
C1348 H1343 0.949 . S
C1348 C1354 1.368 . S
C1349 C1333 1.349 . S
C1349 H1341 0.950 . S
C1349 C1347 1.327 . S
C1350 C1338 1.349 . S
C1350 H1344 0.950 . S
C1350 C1351 1.327 . S
C1351 H1345 0.950 . S
C1351 C1350 1.327 . S
C1351 C1355 1.429 . S
C1352 C1335 1.574 . S
C1352 H1346 0.949 . S
C1352 C1356 1.368 . S
C1353 C1334 1.429 . S
C1353 C1347 1.429 . S
C1353 C1354 1.523 . S
C1354 C1335 1.368 . S
C1354 C1348 1.368 . S
C1354 C1353 1.523 . S
C1355 C1339 1.429 . S
C1355 C1351 1.429 . S
C1355 C1356 1.523 . S
C1356 C1340 1.368 . S
C1356 C1352 1.368 . S
C1356 C1355 1.523 . S
H1357 C1332 0.950 . S
H1358 C1334 0.950 . S
H1359 C1335 0.949 . S
H1360 C1337 0.950 . S
H1361 C1339 0.950 . S
C1362 C1363 1.349 . S
C1362 C1364 1.327 . S
C1362 H1387 0.950 . S
C1363 C1362 1.349 . S
C1363 C1379 1.349 . S
C1364 C1362 1.327 . S
C1364 C1383 1.429 . S
C1364 H1388 0.950 . S
C1365 C1382 1.574 . S
C1365 C1384 1.368 . S
C1365 H1389 0.949 . S
H1366 C1370 0.949 . S
C1367 C1368 1.349 . S
C1367 C1369 1.327 . S
C1367 H1390 0.950 . S
C1368 C1367 1.349 . S
C1368 C1380 1.349 . S
C1369 C1367 1.327 . S
C1369 C1385 1.429 . S
C1369 H1391 0.950 . S
C1370 H1366 0.949 . S
C1370 C1378 1.574 . S
C1370 C1386 1.368 . S
H1371 C1379 0.950 . S
H1372 C1377 0.950 . S
H1373 C1378 0.949 . S
H1374 C1380 0.950 . S
H1375 C1381 0.950 . S
H1376 C1382 0.949 . S
C1377 H1372 0.950 . S
C1377 C1379 1.327 . S
C1377 C1383 1.429 . S
C1378 C1370 1.574 . S
C1378 H1373 0.949 . S
C1378 C1384 1.368 . S
C1379 C1363 1.349 . S
C1379 H1371 0.950 . S
C1379 C1377 1.327 . S
C1380 C1368 1.349 . S
C1380 H1374 0.950 . S
C1380 C1381 1.327 . S
C1381 H1375 0.950 . S
C1381 C1380 1.327 . S
C1381 C1385 1.429 . S
C1382 C1365 1.574 . S
C1382 H1376 0.949 . S
C1382 C1386 1.368 . S
C1383 C1364 1.429 . S
C1383 C1377 1.429 . S
C1383 C1384 1.523 . S
C1384 C1365 1.368 . S
C1384 C1378 1.368 . S
C1384 C1383 1.523 . S
C1385 C1369 1.429 . S
C1385 C1381 1.429 . S
C1385 C1386 1.523 . S
C1386 C1370 1.368 . S
C1386 C1382 1.368 . S
C1386 C1385 1.523 . S
H1387 C1362 0.950 . S
H1388 C1364 0.950 . S
H1389 C1365 0.949 . S
H1390 C1367 0.950 . S
H1391 C1369 0.950 . S
C673 C55 1.972 . S
C678 C67 1.972 . S
C703 C139 1.972 . S
C708 C151 1.972 . S
C733 C235 1.972 . S
C738 C223 1.972 . S
C763 C319 1.972 . S
C768 C307 1.972 . S
C793 C391 1.972 . S
C798 C403 1.972 . S
C823 C487 1.972 . S
C828 C475 1.972 . S
C853 C571 1.972 . S
C858 C559 1.972 . S
C883 C643 1.972 . S
C888 C655 1.972 . S
C913 C142 1.848 . S
C918 C70 1.848 . S
C943 C310 1.848 . S
C948 C238 1.848 . S
C973 C406 1.848 . S
C978 C478 1.848 . S
C1003 C574 1.848 . S
C1008 C646 1.848 . S
C1033 C58 1.423 1_554 S
C1038 C490 1.423 . S
C1063 C394 1.423 1_554 S
C1068 C154 1.423 . S
C1093 C226 1.423 . S
C1098 C658 1.423 . S
C1123 C322 1.423 . S
C1128 C562 1.423 . S
C1153 C68 1.551 . S
C1158 C320 1.580 . S
C1183 C152 1.580 . S
C1188 C236 1.552 . S
C1213 C140 1.552 . S
C1218 C224 1.580 . S
C1243 C308 1.552 . S
C1248 C56 1.581 . S
C1273 C404 1.552 . S
C1278 C656 1.581 . S
C1303 C488 1.581 . S
C1308 C572 1.552 . S
C1333 C476 1.552 . S
C1338 C560 1.580 . S
C1363 C644 1.552 . S
C1368 C392 1.580 . S
