# Generated by pormake.
# Topology wjd, (6)-cn, num edge types: 1
# Building blocks:
#     Node 0, Type 0, BuildingBlock: VOLQOD_clean_sbu_1, # of connection points: 6
#     Node 1, Type 0, BuildingBlock: VOLQOD_clean_sbu_1, # of connection points: 6
#     Node 2, Type 0, BuildingBlock: VOLQOD_clean_sbu_1, # of connection points: 6
#     Node 3, Type 0, BuildingBlock: VOLQOD_clean_sbu_1, # of connection points: 6
#     Node 4, Type 0, BuildingBlock: VOLQOD_clean_sbu_1, # of connection points: 6
#     Node 5, Type 0, BuildingBlock: VOLQOD_clean_sbu_1, # of connection points: 6
#     Node 6, Type 0, BuildingBlock: VOLQOD_clean_sbu_1, # of connection points: 6
#     Node 7, Type 0, BuildingBlock: VOLQOD_clean_sbu_1, # of connection points: 6
#     Node 8, Type 0, BuildingBlock: VOLQOD_clean_sbu_1, # of connection points: 6
#     Node 9, Type 0, BuildingBlock: VOLQOD_clean_sbu_1, # of connection points: 6
#     Node 10, Type 0, BuildingBlock: VOLQOD_clean_sbu_1, # of connection points: 6
#     Node 11, Type 0, BuildingBlock: VOLQOD_clean_sbu_1, # of connection points: 6
#     Edge 12, Type (0, 0), BuildingBlock: XIVTED_clean_linker_0, # of connection points: 2
#     Edge 13, Type (0, 0), BuildingBlock: XIVTED_clean_linker_0, # of connection points: 2
#     Edge 14, Type (0, 0), BuildingBlock: XIVTED_clean_linker_0, # of connection points: 2
#     Edge 15, Type (0, 0), BuildingBlock: XIVTED_clean_linker_0, # of connection points: 2
#     Edge 16, Type (0, 0), BuildingBlock: XIVTED_clean_linker_0, # of connection points: 2
#     Edge 17, Type (0, 0), BuildingBlock: XIVTED_clean_linker_0, # of connection points: 2
#     Edge 18, Type (0, 0), BuildingBlock: XIVTED_clean_linker_0, # of connection points: 2
#     Edge 19, Type (0, 0), BuildingBlock: XIVTED_clean_linker_0, # of connection points: 2
#     Edge 20, Type (0, 0), BuildingBlock: XIVTED_clean_linker_0, # of connection points: 2
#     Edge 21, Type (0, 0), BuildingBlock: XIVTED_clean_linker_0, # of connection points: 2
#     Edge 22, Type (0, 0), BuildingBlock: XIVTED_clean_linker_0, # of connection points: 2
#     Edge 23, Type (0, 0), BuildingBlock: XIVTED_clean_linker_0, # of connection points: 2
#     Edge 24, Type (0, 0), BuildingBlock: XIVTED_clean_linker_0, # of connection points: 2
#     Edge 25, Type (0, 0), BuildingBlock: XIVTED_clean_linker_0, # of connection points: 2
#     Edge 26, Type (0, 0), BuildingBlock: XIVTED_clean_linker_0, # of connection points: 2
#     Edge 27, Type (0, 0), BuildingBlock: XIVTED_clean_linker_0, # of connection points: 2
#     Edge 28, Type (0, 0), BuildingBlock: XIVTED_clean_linker_0, # of connection points: 2
#     Edge 29, Type (0, 0), BuildingBlock: XIVTED_clean_linker_0, # of connection points: 2
#     Edge 30, Type (0, 0), BuildingBlock: XIVTED_clean_linker_0, # of connection points: 2
#     Edge 31, Type (0, 0), BuildingBlock: XIVTED_clean_linker_0, # of connection points: 2
#     Edge 32, Type (0, 0), BuildingBlock: XIVTED_clean_linker_0, # of connection points: 2
#     Edge 33, Type (0, 0), BuildingBlock: XIVTED_clean_linker_0, # of connection points: 2
#     Edge 34, Type (0, 0), BuildingBlock: XIVTED_clean_linker_0, # of connection points: 2
#     Edge 35, Type (0, 0), BuildingBlock: XIVTED_clean_linker_0, # of connection points: 2
#     Edge 36, Type (0, 0), BuildingBlock: XIVTED_clean_linker_0, # of connection points: 2
#     Edge 37, Type (0, 0), BuildingBlock: XIVTED_clean_linker_0, # of connection points: 2
#     Edge 38, Type (0, 0), BuildingBlock: XIVTED_clean_linker_0, # of connection points: 2
#     Edge 39, Type (0, 0), BuildingBlock: XIVTED_clean_linker_0, # of connection points: 2
#     Edge 40, Type (0, 0), BuildingBlock: XIVTED_clean_linker_0, # of connection points: 2
#     Edge 41, Type (0, 0), BuildingBlock: XIVTED_clean_linker_0, # of connection points: 2
#     Edge 42, Type (0, 0), BuildingBlock: XIVTED_clean_linker_0, # of connection points: 2
#     Edge 43, Type (0, 0), BuildingBlock: XIVTED_clean_linker_0, # of connection points: 2
#     Edge 44, Type (0, 0), BuildingBlock: XIVTED_clean_linker_0, # of connection points: 2
#     Edge 45, Type (0, 0), BuildingBlock: XIVTED_clean_linker_0, # of connection points: 2
#     Edge 46, Type (0, 0), BuildingBlock: XIVTED_clean_linker_0, # of connection points: 2
#     Edge 47, Type (0, 0), BuildingBlock: XIVTED_clean_linker_0, # of connection points: 2
# Relax obj value: 0.308
# Max RMSD: 0.232
# Mean RMSD: 0.231
data_MOF--net-wjd--node1-VOLQOD_clean_sbu_1--edge1-XIVTED_clean_linker_0
_symmetry_space_group_name_H-M    P1
_symmetry_Int_Tables_number       1
_symmetry_cell_setting            triclinic
loop_
_symmetry_equiv_pos_as_xyz
'x, y, z'
_cell_length_a     31.602729
_cell_length_b     31.624431
_cell_length_c     65.165434
_cell_angle_alpha  90.001722
_cell_angle_beta   89.881706
_cell_angle_gamma 120.03991
loop_
_atom_site_label
_atom_site_type_symbol
_atom_site_fract_x
_atom_site_fract_y
_atom_site_fract_z
_atom_type_partial_charge
O0 O 0.36031 0.18132 0.10496 0.0
Zn1 Zn 0.30302 0.11342 0.107 0.0
O2 O 0.31269 0.07529 0.12814 0.0
Zn3 Zn 0.30406 0.01498 0.1161 0.0
Zn4 Zn 0.37665 0.11392 0.13994 0.0
Zn5 Zn 0.26705 0.06072 0.15032 0.0
O6 O 0.24414 0.95607 0.12779 0.0
O7 O 0.21523 -0.00873 0.14876 0.0
O8 O 0.28904 0.08131 0.07916 0.0
O9 O 0.29023 0.01315 0.08602 0.0
O10 O 0.36631 0.01166 0.11847 0.0
O11 O 0.41723 0.08564 0.13127 0.0
O12 O 0.37685 0.11389 0.17084 0.0
O13 O 0.24982 0.12662 0.11542 0.0
O14 O 0.29787 0.07067 0.1781 0.0
O15 O 0.23652 0.10287 0.14805 0.0
C16 C 0.39658 0.2048 0.11683 0.0
C17 C 0.21134 0.95356 0.13999 0.0
C18 C 0.40882 0.04482 0.12399 0.0
C19 C 0.28508 0.04098 0.07343 0.0
C20 C 0.34225 0.09378 0.1838 0.0
C21 C 0.23071 0.12478 0.13286 0.0
O22 O 0.40612 0.18346 0.13113 0.0
O23 O 0.82177 0.58522 0.38663 0.0
Zn24 Zn 0.80825 0.63125 0.3713 0.0
O25 O 0.77292 0.65412 0.38788 0.0
Zn26 Zn 0.71028 0.63541 0.37502 0.0
Zn27 Zn 0.76372 0.62564 0.41519 0.0
Zn28 Zn 0.81008 0.7246 0.38955 0.0
O29 O 0.69984 0.69278 0.37109 0.0
O30 O 0.77638 0.75371 0.37426 0.0
O31 O 0.77433 0.60288 0.3448 0.0
O32 O 0.70693 0.60806 0.34662 0.0
O33 O 0.65611 0.58512 0.39216 0.0
O34 O 0.69262 0.57669 0.41973 0.0
O35 O 0.78516 0.67764 0.43676 0.0
O36 O 0.87434 0.68539 0.36393 0.0
O37 O 0.81563 0.74692 0.41901 0.0
O38 O 0.87659 0.75131 0.37703 0.0
C39 C 0.82048 0.57508 0.40557 0.0
C40 C 0.73208 0.73762 0.36925 0.0
C41 C 0.65422 0.56518 0.40937 0.0
C42 C 0.73511 0.59719 0.33681 0.0
C43 C 0.80453 0.72393 0.43603 0.0
C44 C 0.89649 0.73102 0.3672 0.0
O45 O 0.80114 0.58988 0.41881 0.0
O46 O 0.78292 0.17383 0.10639 0.0
Zn47 Zn 0.85099 0.18505 0.10902 0.0
O48 O 0.88798 0.23229 0.13047 0.0
Zn49 Zn 0.94745 0.28613 0.11862 0.0
Zn50 Zn 0.84711 0.25417 0.14286 0.0
Zn51 Zn 0.90389 0.20166 0.1523 0.0
O52 O 0.00766 0.28815 0.13059 0.0
O53 O 0.97391 0.22213 0.15058 0.0
O54 O 0.88451 0.20408 0.08144 0.0
O55 O 0.95099 0.27487 0.08848 0.0
O56 O 0.94689 0.34991 0.12112 0.0
O57 O 0.87288 0.32282 0.13487 0.0
O58 O 0.84694 0.25331 0.17367 0.0
O59 O 0.83789 0.11879 0.11738 0.0
O60 O 0.89321 0.2208 0.18035 0.0
O61 O 0.86346 0.12888 0.14971 0.0
C62 C 0.75806 0.1838 0.1188 0.0
C63 C 0.01122 0.25782 0.14235 0.0
C64 C 0.91257 0.35686 0.12736 0.0
C65 C 0.92438 0.24137 0.07584 0.0
C66 C 0.86847 0.24008 0.18638 0.0
C67 C 0.84091 0.10135 0.13456 0.0
O68 O 0.77802 0.21267 0.13384 0.0
O69 O 0.38051 0.22403 0.38366 0.0
Zn70 Zn 0.33383 0.16448 0.36816 0.0
O71 O 0.30934 0.10675 0.38553 0.0
Zn72 Zn 0.32509 0.05983 0.3735 0.0
Zn73 Zn 0.3371 0.12564 0.41282 0.0
Zn74 Zn 0.23947 0.07566 0.38767 0.0
O75 O 0.26586 -0.00601 0.36785 0.0
O76 O 0.20929 0.01564 0.37095 0.0
O77 O 0.36303 0.15671 0.34181 0.0
O78 O 0.35474 0.08316 0.34562 0.0
O79 O 0.37242 0.05247 0.39123 0.0
O80 O 0.38348 0.10095 0.41783 0.0
O81 O 0.28513 0.09678 0.43455 0.0
O82 O 0.2801 0.17735 0.36015 0.0
O83 O 0.21605 0.05664 0.41691 0.0
O84 O 0.21507 0.11724 0.37571 0.0
C85 C 0.39081 0.2327 0.40262 0.0
C86 C 0.22256 0.98571 0.36517 0.0
C87 C 0.39288 0.07152 0.40824 0.0
C88 C 0.3674 0.12137 0.33492 0.0
C89 C 0.23893 0.06915 0.4339 0.0
C90 C 0.23494 0.15553 0.36466 0.0
O91 O 0.37507 0.19861 0.4159 0.0
O92 O 0.77581 0.59465 0.107 0.0
Zn93 Zn 0.76892 0.65406 0.10847 0.0
O94 O 0.72362 0.64818 0.13027 0.0
Zn95 Zn 0.67262 0.6588 0.1187 0.0
Zn96 Zn 0.69511 0.58449 0.14259 0.0
Zn97 Zn 0.75885 0.69394 0.15197 0.0
O98 O 0.67418 0.7172 0.13208 0.0
O99 O 0.73821 0.74368 0.15295 0.0
O100 O 0.7498 0.66793 0.0809 0.0
O101 O 0.68545 0.67542 0.08872 0.0
O102 O 0.60594 0.59706 0.12006 0.0
O103 O 0.62667 0.54537 0.13377 0.0
O104 O 0.69429 0.58504 0.17343 0.0
O105 O 0.83731 0.7064 0.11511 0.0
O106 O 0.74682 0.6629 0.17978 0.0
O107 O 0.83082 0.72727 0.14698 0.0
C108 C 0.76262 0.5594 0.11953 0.0
C109 C 0.704 0.74819 0.14492 0.0
C110 C 0.59526 0.55439 0.12592 0.0
C111 C 0.71615 0.67675 0.07569 0.0
C112 C 0.71894 0.61945 0.18597 0.0
C113 C 0.8567 0.72986 0.13153 0.0
O114 O 0.73314 0.55243 0.1342 0.0
O115 O 0.73644 0.14446 0.38496 0.0
Zn116 Zn 0.79753 0.15766 0.37054 0.0
O117 O 0.85208 0.19079 0.38914 0.0
Zn118 Zn 0.90233 0.25154 0.37743 0.0
Zn119 Zn 0.83138 0.20118 0.41559 0.0
Zn120 Zn 0.87892 0.14948 0.39313 0.0
O121 O 0.96553 0.25133 0.37321 0.0
O122 O 0.93543 0.17094 0.37424 0.0
O123 O 0.80841 0.19505 0.3442 0.0
O124 O 0.8826 0.25895 0.34894 0.0
O125 O 0.91082 0.3083 0.39447 0.0
O126 O 0.85479 0.27235 0.41898 0.0
O127 O 0.86099 0.18221 0.43856 0.0
O128 O 0.78418 0.09016 0.36354 0.0
O129 O 0.90329 0.15427 0.42187 0.0
O130 O 0.82897 0.08017 0.3872 0.0
C131 C 0.72568 0.14516 0.40376 0.0
C132 C 0.96909 0.21373 0.36938 0.0
C133 C 0.88769 0.31068 0.41008 0.0
C134 C 0.8451 0.23441 0.33774 0.0
C135 C 0.8908 0.16621 0.43848 0.0
C136 C 0.79571 0.06299 0.3736 0.0
O137 O 0.75827 0.16397 0.41763 0.0
O138 O 0.23715 0.38966 0.61784 0.0
Zn139 Zn 0.17745 0.34375 0.63342 0.0
O140 O 0.1208 0.32383 0.61638 0.0
Zn141 Zn 0.07479 0.33845 0.62986 0.0
Zn142 Zn 0.13892 0.35322 0.58945 0.0
Zn143 Zn 0.09097 0.25504 0.61283 0.0
O144 O 0.0113 0.27676 0.63615 0.0
O145 O 0.03648 0.22276 0.63278 0.0
O146 O 0.1716 0.37149 0.66013 0.0
O147 O 0.10033 0.369 0.65769 0.0
O148 O 0.06404 0.38464 0.61249 0.0
O149 O 0.11446 0.40012 0.58604 0.0
O150 O 0.1073 0.30328 0.5671 0.0
O151 O 0.189 0.28854 0.6399 0.0
O152 O 0.06316 0.23453 0.58457 0.0
O153 O 0.13906 0.23261 0.61769 0.0
C154 C 0.24588 0.40163 0.59899 0.0
C155 C 0.00565 0.23445 0.63919 0.0
C156 C 0.08355 0.40714 0.5958 0.0
C157 C 0.13869 0.37878 0.66776 0.0
C158 C 0.0758 0.25793 0.5677 0.0
C159 C 0.17419 0.24855 0.6304 0.0
O160 O 0.21179 0.38913 0.58591 0.0
O161 O 0.17716 0.79995 0.8951 0.0
Zn162 Zn 0.1852 0.86656 0.89281 0.0
O163 O 0.23147 0.9049 0.87114 0.0
Zn164 Zn 0.28384 0.96533 0.88299 0.0
Zn165 Zn 0.25729 0.86719 0.85887 0.0
Zn166 Zn 0.19828 0.91816 0.84939 0.0
O167 O 0.28442 0.02379 0.8703 0.0
O168 O 0.22028 -0.01105 0.84937 0.0
O169 O 0.20364 0.89983 0.92031 0.0
O170 O 0.27149 0.96922 0.91299 0.0
O171 O 0.34922 0.96787 0.88125 0.0
O172 O 0.32583 0.89497 0.86734 0.0
O173 O 0.25762 0.86807 0.82804 0.0
O174 O 0.11758 0.85125 0.88538 0.0
O175 O 0.21099 0.90028 0.82143 0.0
O176 O 0.12601 0.88008 0.85367 0.0
C177 C 0.18862 0.7763 0.88268 0.0
C178 C 0.25506 0.02668 0.85776 0.0
C179 C 0.35835 0.93499 0.87513 0.0
C180 C 0.23902 0.94111 0.92576 0.0
C181 C 0.23607 0.88138 0.81537 0.0
C182 C 0.09923 0.85621 0.86882 0.0
O183 O 0.21745 0.79726 0.86764 0.0
O184 O 0.59176 0.84137 0.6153 0.0
Zn185 Zn 0.63616 0.82735 0.63181 0.0
O186 O 0.6567 0.78816 0.61633 0.0
Zn187 Zn 0.63611 0.72632 0.63074 0.0
Zn188 Zn 0.62872 0.7767 0.58889 0.0
Zn189 Zn 0.727 0.82337 0.61389 0.0
O190 O 0.69283 0.71725 0.63869 0.0
O191 O 0.75432 0.79082 0.6306 0.0
O192 O 0.60529 0.79542 0.65855 0.0
O193 O 0.60377 0.72452 0.65775 0.0
O194 O 0.5899 0.67035 0.61322 0.0
O195 O 0.58322 0.70519 0.58471 0.0
O196 O 0.68052 0.79852 0.56716 0.0
O197 O 0.69246 0.89257 0.63912 0.0
O198 O 0.74965 0.82615 0.58465 0.0
O199 O 0.7559 0.89025 0.62568 0.0
C200 C 0.57811 0.8343 0.59666 0.0
C201 C 0.73798 0.74921 0.63889 0.0
C202 C 0.57211 0.66735 0.59541 0.0
C203 C 0.59524 0.75505 0.66692 0.0
C204 C 0.72657 0.816 0.56772 0.0
C205 C 0.73795 0.9122 0.63563 0.0
O206 O 0.59001 0.81059 0.58444 0.0
O207 O 0.17678 0.3774 0.89823 0.0
Zn208 Zn 0.10971 0.31914 0.89623 0.0
O209 O 0.07138 0.32714 0.8746 0.0
Zn210 Zn 0.01141 0.3202 0.88655 0.0
Zn211 Zn 0.10986 0.3901 0.86184 0.0
Zn212 Zn 0.05691 0.27985 0.85312 0.0
O213 O 0.95207 0.26155 0.87451 0.0
O214 O -0.01389 0.23131 0.85355 0.0
O215 O 0.07663 0.30509 0.92386 0.0
O216 O 0.00815 0.30546 0.9167 0.0
O217 O 0.0099 0.38355 0.88403 0.0
O218 O 0.08312 0.43205 0.86996 0.0
O219 O 0.10897 0.3885 0.83096 0.0
O220 O 0.12469 0.26649 0.88878 0.0
O221 O 0.07427 0.30916 0.82499 0.0
O222 O 0.09492 0.24588 0.85725 0.0
C223 C 0.20069 0.41173 0.88548 0.0
C224 C 0.94868 0.22879 0.86211 0.0
C225 C 0.04321 0.42523 0.87767 0.0
C226 C 0.03588 0.30051 0.92942 0.0
C227 C 0.09435 0.35293 0.81857 0.0
C228 C 0.11927 0.24314 0.87218 0.0
O229 O 0.17979 0.41936 0.87041 0.0
O230 O 0.13182 0.73956 0.61468 0.0
Zn231 Zn 0.14733 0.79964 0.63001 0.0
O232 O 0.18435 0.8574 0.61339 0.0
Zn233 Zn 0.24752 0.89915 0.62623 0.0
Zn234 Zn 0.19269 0.8376 0.58602 0.0
Zn235 Zn 0.14939 0.89305 0.61184 0.0
O236 O 0.26113 0.96795 0.62987 0.0
O237 O 0.18585 0.95608 0.62687 0.0
O238 O 0.18037 0.80417 0.65669 0.0
O239 O 0.24966 0.87509 0.65474 0.0
O240 O 0.3006 0.901 0.60907 0.0
O241 O 0.26336 0.85804 0.58115 0.0
O242 O 0.17227 0.86925 0.56453 0.0
O243 O 0.08221 0.79015 0.63729 0.0
O244 O 0.14428 0.91015 0.58237 0.0
O245 O 0.08264 0.8555 0.62461 0.0
C246 C 0.13322 0.73055 0.59576 0.0
C247 C 0.23057 0.98269 0.63168 0.0
C248 C 0.30193 0.8835 0.59164 0.0
C249 C 0.22014 0.83678 0.66468 0.0
C250 C 0.15441 0.89748 0.56532 0.0
C251 C 0.06149 0.81508 0.63427 0.0
O252 O 0.15379 0.76453 0.58252 0.0
O253 O 0.59242 0.79593 0.89689 0.0
Zn254 Zn 0.6512 0.78798 0.8953 0.0
O255 O 0.64455 0.74267 0.8734 0.0
Zn256 Zn 0.65441 0.69113 0.88485 0.0
Zn257 Zn 0.58082 0.71507 0.86119 0.0
Zn258 Zn 0.69055 0.77763 0.85165 0.0
O259 O 0.71378 0.69344 0.87204 0.0
O260 O 0.74067 0.75734 0.85101 0.0
O261 O 0.66405 0.7679 0.92289 0.0
O262 O 0.66911 0.70229 0.91497 0.0
O263 O 0.59276 0.62469 0.88271 0.0
O264 O 0.5411 0.64637 0.86972 0.0
O265 O 0.58138 0.71524 0.83032 0.0
O266 O 0.70408 0.85621 0.88862 0.0
O267 O 0.65974 0.76567 0.82379 0.0
O268 O 0.72352 0.8495 0.85651 0.0
C269 C 0.55705 0.78315 0.88451 0.0
C270 C 0.7452 0.72339 0.8593 0.0
C271 C 0.55008 0.61448 0.87709 0.0
C272 C 0.67113 0.73309 0.92807 0.0
C273 C 0.616 0.73903 0.81769 0.0
C274 C 0.72678 0.87546 0.87199 0.0
O275 O 0.54948 0.75354 0.86987 0.0
H276 H 0.08546 0.29005 0.11426 0.0
H277 H 0.18665 0.1318 0.16789 0.0
H278 H 0.0416 0.22485 0.17434 0.0
H279 H 0.21661 0.18128 0.10494 0.0
H280 H 0.14577 0.17908 0.1728 0.0
H281 H 0.1487 0.26691 0.11353 0.0
C282 C 0.09023 0.27233 0.12757 0.0
C283 C 0.05786 0.25848 0.14423 0.0
C284 C 0.16148 0.17975 0.15793 0.0
C285 C 0.12891 0.23106 0.14332 0.0
C286 C 0.18453 0.15246 0.15507 0.0
C287 C 0.20446 0.15194 0.13588 0.0
C288 C 0.15822 0.20667 0.14149 0.0
C289 C 0.20119 0.18003 0.11993 0.0
C290 C 0.12589 0.25861 0.12705 0.0
C291 C 0.06539 0.2354 0.16105 0.0
N292 N 0.17822 0.20603 0.12306 0.0
N293 N 0.09965 0.22168 0.16003 0.0
H294 H 0.16299 0.97837 0.33437 0.0
H295 H 0.9677 0.70637 0.36511 0.0
H296 H 0.19699 0.89161 0.37476 0.0
H297 H 0.93857 0.82318 0.35215 0.0
H298 H 0.05406 0.76099 0.35601 0.0
H299 H 0.08452 0.90625 0.32658 0.0
C300 C 0.15443 0.94356 0.34103 0.0
C301 C 0.18548 0.94064 0.35553 0.0
C302 C 0.02836 0.77406 0.35476 0.0
C303 C 0.0959 0.85899 0.34721 0.0
C304 C 0.9794 0.7432 0.35997 0.0
C305 C 0.94665 0.76097 0.35971 0.0
C306 C 0.04381 0.82224 0.34882 0.0
C307 C 0.9631 0.80862 0.35292 0.0
C308 C 0.10975 0.90261 0.33666 0.0
C309 C 0.17342 0.895 0.36365 0.0
N310 N 0.01069 0.83774 0.34782 0.0
N311 N 0.1286 0.85581 0.35981 0.0
H312 H 0.77836 0.03178 0.10768 0.0
H313 H 0.74292 0.81088 0.17713 0.0
H314 H 0.83998 0.04926 0.16833 0.0
H315 H 0.67019 0.79269 0.11909 0.0
H316 H 0.76779 0.8973 0.17672 0.0
H317 H 0.73099 0.94392 0.11327 0.0
C318 C 0.78215 0.01716 0.12215 0.0
C319 C 0.81378 0.04792 0.13746 0.0
C320 C 0.74557 0.87429 0.16426 0.0
C321 C 0.75903 0.94728 0.14404 0.0
C322 C 0.73111 0.82489 0.16455 0.0
C323 C 0.70538 0.79495 0.1479 0.0
C324 C 0.73478 0.89386 0.14705 0.0
C325 C 0.69044 0.81467 0.13214 0.0
C326 C 0.75465 0.96698 0.1254 0.0
C327 C 0.8165 0.02691 0.15601 0.0
N328 N 0.70636 0.86328 0.13186 0.0
N329 N 0.78974 0.97782 0.15872 0.0
H330 H 0.15035 0.10382 0.34424 0.0
H331 H 0.0638 0.28779 0.37428 0.0
H332 H 0.24955 0.24811 0.36709 0.0
H333 H 0.97498 0.15095 0.34308 0.0
H334 H 0.13703 0.28406 0.3647 0.0
H335 H 0.09137 0.12941 0.33624 0.0
C336 C 0.15976 0.14122 0.34728 0.0
C337 C 0.20401 0.17378 0.35664 0.0
C338 C 0.1016 0.25553 0.3595 0.0
C339 C 0.13644 0.20311 0.34826 0.0
C340 C 0.05994 0.2577 0.36495 0.0
C341 C 0.01356 0.21881 0.35997 0.0
C342 C 0.09626 0.21418 0.34908 0.0
C343 C 0.01019 0.1809 0.34773 0.0
C344 C 0.12626 0.15599 0.34269 0.0
C345 C 0.21527 0.22202 0.36004 0.0
N346 N 0.05094 0.17914 0.34298 0.0
N347 N 0.18099 0.23504 0.35635 0.0
H348 H 0.14867 0.92387 0.17234 0.0
H349 H 0.92494 0.73976 0.10292 0.0
H350 H 0.16614 0.88117 0.11144 0.0
H351 H 0.91101 0.78206 0.1645 0.0
H352 H 0.01371 0.7836 0.10695 0.0
H353 H 0.06251 0.86156 0.17159 0.0
C354 C 0.13449 0.9005 0.15898 0.0
C355 C 0.16422 0.908 0.14181 0.0
C356 C -0.00885 0.78304 0.1196 0.0
C357 C 0.06543 0.83766 0.14056 0.0
C358 C 0.94049 0.75837 0.11726 0.0
C359 C 0.91046 0.75771 0.13331 0.0
C360 C 0.01188 0.80726 0.1381 0.0
C361 C 0.93264 0.78195 0.15162 0.0
C362 C 0.08523 0.86513 0.15849 0.0
C363 C 0.14429 0.87656 0.12497 0.0
N364 N -0.01803 0.80589 0.15347 0.0
N365 N 0.09572 0.8433 0.12458 0.0
H366 H 0.76978 0.80232 0.33799 0.0
H367 H 0.75931 -0.00778 0.40247 0.0
H368 H 0.66599 0.75594 0.38774 0.0
H369 H 0.7711 0.01455 0.33697 0.0
H370 H 0.72183 0.90426 0.39694 0.0
H371 H 0.76647 0.87778 0.33511 0.0
C372 C 0.74491 0.80742 0.34777 0.0
C373 C 0.71826 0.77349 0.36316 0.0
C374 C 0.73158 0.92825 0.38376 0.0
C375 C 0.71584 0.8598 0.36058 0.0
C376 C 0.75346 0.97831 0.38692 0.0
C377 C 0.76881 0.01019 0.37013 0.0
C378 C 0.7267 0.91032 0.3637 0.0
C379 C 0.75996 -0.00923 0.35026 0.0
C380 C 0.74299 0.85031 0.34614 0.0
C381 C 0.68692 0.78151 0.37566 0.0
N382 N 0.7406 0.94189 0.34754 0.0
N383 N 0.6877 0.82477 0.37455 0.0
H384 H 0.29532 0.06418 0.61121 0.0
H385 H 0.20239 0.22722 0.66664 0.0
H386 H 0.20028 0.01433 0.66402 0.0
H387 H 0.20394 0.20858 0.60114 0.0
H388 H 0.23769 0.17379 0.67125 0.0
H389 H 0.30004 0.14392 0.61403 0.0
C390 C 0.2774 0.07094 0.62395 0.0
C391 C 0.2471 0.03318 0.63734 0.0
C392 C 0.23131 0.18257 0.65591 0.0
C393 C 0.25229 0.123 0.64062 0.0
C394 C 0.21107 0.21257 0.65328 0.0
C395 C 0.1995 0.22103 0.63353 0.0
C396 C 0.2412 0.16257 0.6386 0.0
C397 C 0.21152 0.20182 0.61662 0.0
C398 C 0.27985 0.11607 0.62547 0.0
C399 C 0.22378 0.04291 0.65341 0.0
N400 N 0.23164 0.17322 0.61954 0.0
N401 N 0.22632 0.08694 0.65448 0.0
H402 H 0.02983 0.79411 0.89614 0.0
H403 H 0.80858 0.76157 0.8272 0.0
H404 H 0.04651 0.85752 0.83585 0.0
H405 H 0.78966 0.69112 0.88593 0.0
H406 H 0.89491 0.78602 0.82779 0.0
H407 H 0.94148 0.74854 0.89117 0.0
C408 C 0.01495 0.79865 0.88189 0.0
C409 C 0.04563 0.83019 0.86648 0.0
C410 C 0.87179 0.76446 0.8404 0.0
C411 C 0.94461 0.77757 0.8606 0.0
C412 C 0.82243 0.75023 0.84 0.0
C413 C 0.79226 0.72508 0.85672 0.0
C414 C 0.89116 0.75407 0.85778 0.0
C415 C 0.81182 0.7108 0.87279 0.0
C416 C 0.96452 0.77224 0.879 0.0
C417 C 0.0243 0.83404 0.84824 0.0
N418 N 0.86042 0.72644 0.87315 0.0
N419 N 0.9751 0.80824 0.84586 0.0
H420 H 0.82678 0.94307 0.65223 0.0
H421 H 0.91192 0.21604 0.63427 0.0
H422 H 0.72382 -0.0094 0.63817 0.0
H423 H -0.00174 0.16511 0.66544 0.0
H424 H 0.83822 0.13772 0.6417 0.0
H425 H 0.88582 0.02565 0.66281 0.0
C426 C 0.81669 0.97114 0.6515 0.0
C427 C 0.77117 0.96074 0.6439 0.0
C428 C 0.87309 0.14429 0.6475 0.0
C429 C 0.83856 0.05549 0.65565 0.0
C430 C 0.91503 0.18898 0.64331 0.0
C431 C 0.96094 0.19596 0.64875 0.0
C432 C 0.87785 0.10697 0.65701 0.0
C433 C 0.96339 0.16025 0.66051 0.0
C434 C 0.85015 0.0182 0.65771 0.0
C435 C 0.75909 -0.00224 0.6437 0.0
N436 N 0.92247 0.11683 0.66391 0.0
N437 N 0.7932 0.04408 0.649 0.0
H438 H 0.1825 0.23596 0.89881 0.0
H439 H 0.21955 0.05553 0.82602 0.0
H440 H 0.11826 0.19091 0.83862 0.0
H441 H 0.2872 0.10116 0.88551 0.0
H442 H 0.19484 0.11704 0.82791 0.0
H443 H 0.22986 0.19542 0.89262 0.0
C444 C 0.17812 0.21734 0.88435 0.0
C445 C 0.14586 0.2163 0.86931 0.0
C446 C 0.21589 0.11432 0.8404 0.0
C447 C 0.20058 0.17067 0.86201 0.0
C448 C 0.23033 0.07946 0.83925 0.0
C449 C 0.25457 0.07272 0.85581 0.0
C450 C 0.22512 0.14201 0.85839 0.0
C451 C 0.26817 0.10497 0.87247 0.0
C452 C 0.20556 0.19465 0.88075 0.0
C453 C 0.14225 0.19224 0.85075 0.0
N454 N 0.25223 0.13758 0.87357 0.0
N455 N 0.16911 0.17022 0.84768 0.0
H456 H -0.01077 0.71985 0.63753 0.0
H457 H 0.79818 0.8012 0.66951 0.0
H458 H 0.02095 0.8674 0.64861 0.0
H459 H 0.76039 0.67837 0.62985 0.0
H460 H 0.87687 0.80716 0.67645 0.0
H461 H 0.90374 0.6898 0.64751 0.0
C462 C 0.9783 0.74575 0.6424 0.0
C463 C 0.01158 0.79618 0.64192 0.0
C464 C 0.85071 0.77783 0.6668 0.0
C465 C 0.91531 0.76215 0.65385 0.0
C466 C 0.80583 0.7742 0.66297 0.0
C467 C 0.77362 0.73971 0.64891 0.0
C468 C 0.86346 0.74732 0.65615 0.0
C469 C 0.78475 0.70553 0.64073 0.0
C470 C 0.92982 0.72858 0.64813 0.0
C471 C -0.00397 0.82833 0.64841 0.0
N472 N 0.82967 0.71096 0.64404 0.0
N473 N 0.94886 0.81074 0.65405 0.0
H474 H 0.91763 0.16673 0.82961 0.0
H475 H 0.73689 0.94393 0.90043 0.0
H476 H 0.87593 0.18468 0.89066 0.0
H477 H 0.77749 0.92937 0.83858 0.0
H478 H 0.77936 0.0325 0.89588 0.0
H479 H 0.85507 0.08068 0.83065 0.0
C480 C 0.89433 0.15272 0.84303 0.0
C481 C 0.90232 0.1825 0.86019 0.0
C482 C 0.77871 0.00985 0.88329 0.0
C483 C 0.83183 0.08385 0.8618 0.0
C484 C 0.75487 0.9593 0.88593 0.0
C485 C 0.75413 0.92916 0.86995 0.0
C486 C 0.80205 0.03035 0.86456 0.0
C487 C 0.77749 0.95111 0.85142 0.0
C488 C 0.85886 0.10351 0.8437 0.0
C489 C 0.87099 0.16279 0.87713 0.0
N490 N 0.80065 0.00033 0.84929 0.0
N491 N 0.83771 0.11427 0.87771 0.0
H492 H 0.40722 0.19798 0.30751 0.0
H493 H 0.29143 0.02676 0.21349 0.0
H494 H 0.35236 0.04279 0.31205 0.0
H495 H 0.41844 0.16894 0.20422 0.0
H496 H 0.30831 0.03435 0.25034 0.0
H497 H 0.40943 0.19159 0.27002 0.0
C498 C 0.39659 0.16283 0.3007 0.0
C499 C 0.3791 0.12079 0.31295 0.0
C500 C 0.33274 0.06367 0.2402 0.0
C501 C 0.38043 0.11323 0.27028 0.0
C502 C 0.32294 0.05952 0.21924 0.0
C503 C 0.35354 0.09734 0.20588 0.0
C504 C 0.37262 0.1065 0.24792 0.0
C505 C 0.39409 0.13894 0.21408 0.0
C506 C 0.39788 0.15926 0.27934 0.0
C507 C 0.36589 0.07617 0.30327 0.0
N508 N 0.40208 0.14283 0.23469 0.0
N509 N 0.36582 0.07339 0.28249 0.0
H510 H 0.79878 0.5952 0.30904 0.0
H511 H 0.64092 0.55214 0.20864 0.0
H512 H 0.65289 0.57366 0.314 0.0
H513 H 0.79341 0.66183 0.21321 0.0
H514 H 0.64016 0.53626 0.24575 0.0
H515 H 0.79146 0.59299 0.27178 0.0
C516 C 0.76474 0.58889 0.30236 0.0
C517 C 0.72662 0.58538 0.3147 0.0
C518 C 0.67365 0.56355 0.23847 0.0
C519 C 0.71827 0.58263 0.27206 0.0
C520 C 0.67418 0.57257 0.21743 0.0
C521 C 0.71723 0.60859 0.20801 0.0
C522 C 0.71686 0.58964 0.2498 0.0
C523 C 0.75939 0.63415 0.21997 0.0
C524 C 0.76083 0.58795 0.28109 0.0
C525 C 0.68337 0.5771 0.30506 0.0
N526 N 0.75825 0.62391 0.24024 0.0
N527 N 0.68043 0.57635 0.28421 0.0
H528 H 0.79319 0.24058 0.20702 0.0
H529 H 0.92613 0.29606 0.31548 0.0
H530 H 0.93539 0.25572 0.21599 0.0
H531 H 0.76984 0.20231 0.31 0.0
H532 H 0.93197 0.30517 0.27821 0.0
H533 H 0.78663 0.24832 0.24429 0.0
C534 C 0.82317 0.24603 0.21681 0.0
C535 C 0.86472 0.24709 0.20853 0.0
C536 C 0.89637 0.28325 0.28525 0.0
C537 C 0.85786 0.25701 0.25075 0.0
C538 C 0.89286 0.27826 0.30651 0.0
C539 C 0.84743 0.24781 0.31587 0.0
C540 C 0.85413 0.25832 0.27327 0.0
C541 C 0.80563 0.22566 0.30339 0.0
C542 C 0.81932 0.25032 0.23798 0.0
C543 C 0.90252 0.25415 0.22182 0.0
N544 N 0.81 0.2311 0.28266 0.0
N545 N 0.89826 0.25901 0.2423 0.0
H546 H 0.08309 0.40812 0.68959 0.0
H547 H 0.11563 0.3015 0.79133 0.0
H548 H 0.1985 0.37376 0.69652 0.0
H549 H 0.095 0.42616 0.79566 0.0
H550 H 0.13351 0.3182 0.75475 0.0
H551 H 0.07659 0.40926 0.72718 0.0
C552 C 0.10768 0.40183 0.69896 0.0
C553 C 0.14105 0.39033 0.68988 0.0
C554 C 0.1252 0.34195 0.76375 0.0
C555 C 0.13277 0.39033 0.73252 0.0
C556 C 0.11459 0.33222 0.78452 0.0
C557 C 0.10379 0.36249 0.79643 0.0
C558 C 0.12371 0.3814 0.75471 0.0
C559 C 0.10334 0.40212 0.78692 0.0
C560 C 0.1039 0.4025 0.72033 0.0
C561 C 0.17208 0.38256 0.70277 0.0
N562 N 0.11253 0.41015 0.76643 0.0
N563 N 0.1664 0.38158 0.72343 0.0
H564 H 0.31164 0.88463 0.7933 0.0
H565 H 0.1535 0.77551 0.69275 0.0
H566 H 0.16373 0.85638 0.78753 0.0
H567 H 0.30332 0.89241 0.68746 0.0
H568 H 0.16035 0.78272 0.73 0.0
H569 H 0.31188 0.86805 0.75631 0.0
C570 C 0.27928 0.87477 0.78426 0.0
C571 C 0.23769 0.87216 0.79332 0.0
C572 C 0.19189 0.80616 0.72062 0.0
C573 C 0.23732 0.85182 0.75168 0.0
C574 C 0.18825 0.80193 0.69937 0.0
C575 C 0.22775 0.83392 0.68691 0.0
C576 C 0.23553 0.84193 0.72953 0.0
C577 C 0.27183 0.86739 0.69648 0.0
C578 C 0.27951 0.86542 0.76329 0.0
C579 C 0.19666 0.85927 0.78105 0.0
N580 N 0.27451 0.87079 0.71732 0.0
N581 N 0.19734 0.84913 0.76087 0.0
H582 H 0.59899 0.82246 0.69415 0.0
H583 H 0.54538 0.66301 0.79531 0.0
H584 H 0.56307 0.67171 0.69016 0.0
H585 H 0.66138 0.81289 0.79019 0.0
H586 H 0.52914 0.66319 0.75831 0.0
H587 H 0.59621 0.81596 0.73148 0.0
C588 C 0.5893 0.78759 0.70105 0.0
C589 C 0.58202 0.74774 0.68896 0.0
C590 C 0.55788 0.69594 0.76544 0.0
C591 C 0.57877 0.74036 0.73168 0.0
C592 C 0.56715 0.69592 0.78642 0.0
C593 C 0.60506 0.7379 0.79567 0.0
C594 C 0.58571 0.73869 0.75396 0.0
C595 C 0.63223 0.77964 0.78357 0.0
C596 C 0.58811 0.78413 0.72236 0.0
C597 C 0.56951 0.7035 0.69889 0.0
N598 N 0.62181 0.77909 0.76336 0.0
N599 N 0.56866 0.70105 0.71975 0.0
H600 H 0.29324 0.03345 0.94125 0.0
H601 H 0.24845 0.94921 0.05778 0.0
H602 H 0.19404 0.88442 0.95949 0.0
H603 H 0.29803 0.09819 0.0397 0.0
H604 H 0.2342 0.92492 0.02176 0.0
H605 H 0.30146 0.05822 0.97724 0.0
C606 C 0.27314 0.00594 0.95282 0.0
C607 C 0.24301 0.95673 0.94738 0.0
C608 C 0.24792 0.96286 0.02569 0.0
C609 C 0.25257 0.98486 0.98852 0.0
C610 C 0.25629 0.97683 0.04622 0.0
C611 C 0.27462 0.02586 0.05173 0.0
C612 C 0.25868 -0.00173 0.01049 0.0
C613 C 0.28378 0.06 0.03612 0.0
C614 C 0.27769 0.02017 0.97332 0.0
C615 C 0.2176 0.92273 0.96299 0.0
N616 N 0.27615 0.04562 0.01616 0.0
N617 N 0.22329 0.93737 0.98289 0.0
H618 H 0.82125 0.70118 0.47442 0.0
H619 H 0.7055 0.83495 0.52943 0.0
H620 H 0.7979 0.80606 0.44147 0.0
H621 H 0.80477 0.80273 0.56199 0.0
H622 H 0.73859 0.82524 0.49691 0.0
H623 H 0.8158 0.73744 0.5068 0.0
C624 C 0.81578 0.73237 0.47402 0.0
C625 C 0.80964 0.75048 0.4553 0.0
C626 C 0.75386 0.82135 0.51117 0.0
C627 C 0.80235 0.79129 0.49217 0.0
C628 C 0.7349 0.82671 0.5297 0.0
C629 C 0.75226 0.81929 0.54836 0.0
C630 C 0.78931 0.80702 0.51135 0.0
C631 C 0.79046 0.80879 0.5479 0.0
C632 C 0.8129 0.75315 0.49247 0.0
C633 C 0.80283 0.79106 0.4556 0.0
N634 N 0.80697 0.80181 0.52965 0.0
N635 N 0.79824 0.80946 0.47379 0.0
H636 H 0.0924 0.31272 0.96321 0.0
H637 H 0.86867 0.19566 0.04201 0.0
H638 H 0.9434 0.2622 0.94488 0.0
H639 H 0.01641 0.2986 0.06043 0.0
H640 H 0.89591 0.20742 0.00615 0.0
H641 H 0.06526 0.29545 0.99902 0.0
C642 C 0.05399 0.29779 0.9667 0.0
C643 C 0.02014 0.28915 0.95106 0.0
C644 C 0.92227 0.2273 0.01809 0.0
C645 C -0.01106 0.26895 0.99186 0.0
C646 C 0.90684 0.22047 0.03853 0.0
C647 C 0.94028 0.24642 0.0542 0.0
C648 C 0.97159 0.25963 0.01337 0.0
C649 C -0.01069 0.27818 0.04881 0.0
C650 C 0.0386 0.28813 0.98711 0.0
C651 C 0.9708 0.26982 0.95647 0.0
N652 N 0.00353 0.28379 0.02885 0.0
N653 N 0.95664 0.26021 0.97642 0.0
H654 H 0.26074 0.10875 0.47227 0.0
H655 H 0.13648 0.85821 0.52687 0.0
H656 H 0.15868 0.97888 0.43945 0.0
H657 H 0.16468 -0.01216 0.56 0.0
H658 H 0.14393 0.90089 0.49454 0.0
H659 H 0.22631 0.06608 0.50471 0.0
C660 C 0.23047 0.07153 0.47193 0.0
C661 C 0.21269 0.04712 0.45322 0.0
C662 C 0.14745 0.91963 0.5089 0.0
C663 C 0.17409 -0.00208 0.49014 0.0
C664 C 0.14341 0.8954 0.52731 0.0
C665 C 0.15032 0.91971 0.54608 0.0
C666 C 0.15992 0.9689 0.50928 0.0
C667 C 0.15907 0.96782 0.54584 0.0
C668 C 0.21076 0.04729 0.49041 0.0
C669 C 0.17337 -0.00103 0.45358 0.0
N670 N 0.16475 -0.00871 0.52769 0.0
N671 N 0.15608 0.97548 0.47178 0.0
H672 H 0.66389 0.71714 0.06032 0.0
H673 H 0.70862 0.67825 0.94341 0.0
H674 H 0.75896 0.66253 0.04177 0.0
H675 H 0.6564 0.77512 0.96213 0.0
H676 H 0.7223 0.6671 0.97938 0.0
H677 H 0.6556 0.73372 0.02438 0.0
C678 C 0.68307 0.70867 0.04869 0.0
C679 C 0.71207 0.68827 0.05406 0.0
C680 C 0.7081 0.691 0.9756 0.0
C681 C 0.70246 0.70695 0.01291 0.0
C682 C 0.70008 0.69725 0.95508 0.0
C683 C 0.68118 0.72758 0.94975 0.0
C684 C 0.69652 0.71468 0.99095 0.0
C685 C 0.67109 0.75147 0.96553 0.0
C686 C 0.67846 0.71835 0.0282 0.0
C687 C 0.73629 0.67833 0.03835 0.0
N688 N 0.67852 0.7442 0.98545 0.0
N689 N 0.73064 0.68742 0.01846 0.0
H690 H 0.11109 0.27914 0.52855 0.0
H691 H 0.85548 0.15693 0.47751 0.0
H692 H -0.01735 0.18178 0.56361 0.0
H693 H -0.01885 0.17643 0.44332 0.0
H694 H 0.90079 0.16843 0.50944 0.0
H695 H 0.06468 0.24513 0.49689 0.0
C696 C 0.07331 0.25017 0.52955 0.0
C697 C 0.05049 0.23336 0.54865 0.0
C698 C 0.91804 0.16929 0.49495 0.0
C699 C -0.00275 0.19521 0.51269 0.0
C700 C 0.89235 0.16298 0.47677 0.0
C701 C 0.9148 0.16607 0.45781 0.0
C702 C 0.96682 0.18012 0.49406 0.0
C703 C 0.96255 0.17376 0.45765 0.0
C704 C 0.04698 0.23067 0.51152 0.0
C705 C 0.00154 0.19565 0.54915 0.0
N706 N -0.01258 0.18155 0.47552 0.0
N707 N 0.97615 0.17846 0.53139 0.0
H708 H 0.70003 0.13198 0.08614 0.0
H709 H 0.45946 0.03377 0.15448 0.0
H710 H 0.69393 0.1696 0.14938 0.0
H711 H 0.45539 0.04581 0.08877 0.0
H712 H 0.54554 0.05697 0.15219 0.0
H713 H 0.61043 0.07982 0.0864 0.0
C714 C 0.6799 0.12947 0.09999 0.0
C715 C 0.70432 0.1557 0.11768 0.0
C716 C 0.52551 0.05317 0.13819 0.0
C717 C 0.60304 0.09504 0.11826 0.0
C718 C 0.47636 0.03924 0.13949 0.0
C719 C 0.45088 0.03795 0.12179 0.0
C720 C 0.54927 0.06682 0.11909 0.0
C721 C 0.47419 0.04616 0.1027 0.0
C722 C 0.62906 0.09948 0.10016 0.0
C723 C 0.67667 0.15076 0.13529 0.0
N724 N 0.52275 0.06141 0.10184 0.0
N725 N 0.6276 0.12091 0.13513 0.0
H726 H 0.56321 0.54074 0.39584 0.0
H727 H 0.44923 0.2681 0.43667 0.0
H728 H 0.63796 0.49441 0.43767 0.0
H729 H 0.40015 0.31321 0.38361 0.0
H730 H 0.50518 0.35439 0.44491 0.0
H731 H 0.48914 0.46187 0.4001 0.0
C732 C 0.56379 0.51429 0.40623 0.0
C733 C 0.60714 0.52347 0.41592 0.0
C734 C 0.48154 0.34521 0.43167 0.0
C735 C 0.52283 0.43306 0.4206 0.0
C736 C 0.44979 0.29616 0.42695 0.0
C737 C 0.42104 0.28376 0.40918 0.0
C738 C 0.48379 0.38167 0.41864 0.0
C739 C 0.42263 0.32128 0.39718 0.0
C740 C 0.52151 0.46926 0.40863 0.0
C741 C 0.6055 0.4884 0.4296 0.0
N742 N 0.4538 0.36853 0.40205 0.0
N743 N 0.56421 0.44411 0.43119 0.0
H744 H 0.91787 0.40584 0.09224 0.0
H745 H 0.76318 0.49971 0.14943 0.0
H746 H 0.90956 0.41175 0.15807 0.0
H747 H 0.82232 0.55682 0.08934 0.0
H748 H 0.81477 0.46328 0.15123 0.0
H749 H 0.88691 0.46311 0.08936 0.0
C750 C 0.91187 0.42121 0.10605 0.0
C751 C 0.91602 0.40442 0.12541 0.0
C752 C 0.81663 0.48391 0.13765 0.0
C753 C 0.87896 0.46729 0.1223 0.0
C754 C 0.78655 0.50409 0.13647 0.0
C755 C 0.78833 0.53131 0.11919 0.0
C756 C 0.84832 0.49023 0.12134 0.0
C757 C 0.81979 0.53602 0.10295 0.0
C758 C 0.89358 0.45321 0.10442 0.0
C759 C 0.90673 0.42411 0.1429 0.0
N760 N 0.84851 0.5154 0.10435 0.0
N761 N 0.88761 0.45378 0.14093 0.0
H762 H 0.45776 0.11965 0.43934 0.0
H763 H 0.6491 0.07126 0.38391 0.0
H764 H 0.42093 0.00869 0.39313 0.0
H765 H 0.68476 0.16483 0.43689 0.0
H766 H 0.56275 0.03698 0.39153 0.0
H767 H 0.53655 0.12438 0.44398 0.0
C768 C 0.46569 0.09539 0.43052 0.0
C769 C 0.43352 0.06501 0.41527 0.0
C770 C 0.58929 0.06457 0.40169 0.0
C771 C 0.52361 0.07069 0.42035 0.0
C772 C 0.63861 0.08449 0.39721 0.0
C773 C 0.67386 0.12179 0.40949 0.0
C774 C 0.57504 0.08291 0.41831 0.0
C775 C 0.65849 0.13662 0.42687 0.0
C776 C 0.51077 0.09818 0.43317 0.0
C777 C 0.4453 0.03377 0.40461 0.0
N778 N 0.61 0.1178 0.43055 0.0
N779 N 0.48989 0.0382 0.40703 0.0
H780 H 0.45364 0.26651 0.14682 0.0
H781 H 0.55164 0.51269 0.08977 0.0
H782 H 0.39716 0.26554 0.08639 0.0
H783 H 0.5324 0.49874 0.15535 0.0
H784 H 0.49338 0.42485 0.08628 0.0
H785 H 0.48721 0.35419 0.14844 0.0
C786 C 0.44882 0.28481 0.13374 0.0
C787 C 0.42271 0.25863 0.1164 0.0
C788 C 0.50042 0.44147 0.10135 0.0
C789 C 0.46053 0.35929 0.11833 0.0
C790 C 0.53301 0.49159 0.10331 0.0
C791 C 0.54654 0.51241 0.12288 0.0
C792 C 0.48253 0.41279 0.11914 0.0
C793 C 0.52264 0.48367 0.14002 0.0
C794 C 0.46729 0.33483 0.13483 0.0
C795 C 0.41722 0.28446 0.10002 0.0
N796 N 0.49264 0.43495 0.13781 0.0
N797 N 0.43639 0.33368 0.1013 0.0
H798 H 0.79927 0.51646 0.43958 0.0
H799 H 0.95281 0.40088 0.39462 0.0
H800 H 0.89297 0.56848 0.38626 0.0
H801 H 0.83792 0.32975 0.43974 0.0
H802 H 0.94983 0.47575 0.39938 0.0
H803 H 0.83043 0.46086 0.44697 0.0
C804 C 0.82689 0.51667 0.42964 0.0
C805 C 0.84267 0.54599 0.412 0.0
C806 C 0.92583 0.44396 0.40849 0.0
C807 C 0.87863 0.4834 0.42041 0.0
C808 C 0.92757 0.40119 0.4058 0.0
C809 C 0.89445 0.35854 0.4163 0.0
C810 C 0.89047 0.44388 0.42161 0.0
C811 C 0.86331 0.36148 0.43093 0.0
C812 C 0.84466 0.48508 0.43386 0.0
C813 C 0.87886 0.54543 0.39972 0.0
N814 N 0.86133 0.40318 0.43284 0.0
N815 N 0.89523 0.51424 0.40404 0.0
H816 H 0.0556 0.65286 0.6134 0.0
H817 H 0.12574 0.47005 0.56344 0.0
H818 H 0.15909 0.69189 0.56373 0.0
H819 H 0.01975 0.43283 0.61208 0.0
H820 H 0.12283 0.54449 0.55702 0.0
H821 H 0.02674 0.56697 0.60683 0.0
C822 C 0.07189 0.64316 0.60094 0.0
C823 C 0.11066 0.67926 0.58944 0.0
C824 C 0.09949 0.51956 0.56882 0.0
C825 C 0.07842 0.58115 0.58202 0.0
C826 C 0.10115 0.47702 0.57253 0.0
C827 C 0.07418 0.44602 0.58881 0.0
C828 C 0.07093 0.53117 0.58158 0.0
C829 C 0.04222 0.45637 0.59976 0.0
C830 C 0.05526 0.59412 0.59712 0.0
C831 C 0.12961 0.66495 0.57313 0.0
N832 N 0.04221 0.49858 0.5962 0.0
N833 N 0.11405 0.61682 0.57019 0.0
H834 H 0.40382 0.93844 0.91096 0.0
H835 H 0.49919 0.78609 0.85441 0.0
H836 H 0.41815 0.93766 0.84524 0.0
H837 H 0.55499 0.84272 0.91482 0.0
H838 H 0.46496 0.83957 0.85249 0.0
H839 H 0.46119 0.90777 0.91441 0.0
C840 C 0.42115 0.9343 0.89734 0.0
C841 C 0.40653 0.94025 0.87779 0.0
C842 C 0.48485 0.84049 0.86616 0.0
C843 C 0.46949 0.90348 0.88151 0.0
C844 C 0.50371 0.8093 0.86742 0.0
C845 C 0.52992 0.80982 0.88483 0.0
C846 C 0.49141 0.87197 0.88254 0.0
C847 C 0.53492 0.84115 0.90112 0.0
C848 C 0.45321 0.91617 0.89929 0.0
C849 C 0.42877 0.93337 0.86055 0.0
N850 N 0.5155 0.87092 0.89965 0.0
N851 N 0.45834 0.91419 0.86278 0.0
H852 H 0.50941 0.64785 0.56317 0.0
H853 H 0.32332 0.40009 0.61586 0.0
H854 H 0.54598 0.57758 0.6112 0.0
H855 H 0.28438 0.46573 0.5668 0.0
H856 H 0.40923 0.45376 0.60782 0.0
H857 H 0.43317 0.57154 0.55745 0.0
C858 C 0.50199 0.61607 0.57219 0.0
C859 C 0.53315 0.61945 0.58821 0.0
C860 C 0.38205 0.45618 0.59859 0.0
C861 C 0.44607 0.53247 0.58185 0.0
C862 C 0.33301 0.42578 0.60329 0.0
C863 C 0.29704 0.42974 0.59236 0.0
C864 C 0.39524 0.49165 0.58319 0.0
C865 C 0.31128 0.46236 0.57582 0.0
C866 C 0.45839 0.57252 0.56892 0.0
C867 C 0.5222 0.57699 0.59913 0.0
N868 N 0.35953 0.49301 0.57201 0.0
N869 N 0.47904 0.53548 0.59602 0.0
H870 H 0.13605 0.71772 0.91509 0.0
H871 H 0.03737 0.47794 0.84669 0.0
H872 H 0.17795 0.71261 0.85239 0.0
H873 H 0.04303 0.4721 0.9126 0.0
H874 H 0.06461 0.56493 0.84878 0.0
H875 H 0.08371 0.62837 0.91462 0.0
C876 C 0.13456 0.69784 0.90132 0.0
C877 C 0.16177 0.72255 0.88381 0.0
C878 C 0.0586 0.5444 0.86284 0.0
C879 C 0.10092 0.62137 0.883 0.0
C880 C 0.04229 0.49473 0.86166 0.0
C881 C 0.03802 0.46835 0.87951 0.0
C882 C 0.07144 0.56771 0.882 0.0
C883 C 0.0456 0.49155 0.89856 0.0
C884 C 0.10444 0.6471 0.90104 0.0
C885 C 0.15818 0.69514 0.86633 0.0
N886 N 0.06308 0.54052 0.89933 0.0
N887 N 0.12811 0.64609 0.86635 0.0
H888 H 0.31744 0.82888 0.56309 0.0
H889 H 0.57679 0.9143 0.61067 0.0
H890 H 0.39318 0.95106 0.60431 0.0
H891 H 0.50916 0.79813 0.56623 0.0
H892 H 0.51747 0.93925 0.60244 0.0
H893 H 0.39371 0.82813 0.55775 0.0
C894 C 0.35034 0.85625 0.57064 0.0
C895 C 0.3488 0.88919 0.58463 0.0
C896 C 0.5158 0.90867 0.59424 0.0
C897 C 0.43569 0.88832 0.57872 0.0
C898 C 0.54956 0.89432 0.59901 0.0
C899 C 0.54696 0.85345 0.58944 0.0
C900 C 0.47837 0.88121 0.58015 0.0
C901 C 0.51184 0.8295 0.57412 0.0
C902 C 0.39383 0.85574 0.56762 0.0
C903 C 0.39249 0.92415 0.59383 0.0
N904 N 0.47808 0.84309 0.57024 0.0
N905 N 0.43396 0.92227 0.59097 0.0
H906 H 0.49741 0.55204 0.84711 0.0
H907 H 0.25992 0.41889 0.91773 0.0
H908 H 0.50561 0.56999 0.91275 0.0
H909 H 0.26376 0.46094 0.85438 0.0
H910 H 0.34912 0.45408 0.91664 0.0
H911 H 0.4106 0.49183 0.8502 0.0
C912 C 0.48124 0.5414 0.86226 0.0
C913 C 0.50817 0.56557 0.87971 0.0
C914 C 0.33012 0.45535 0.90305 0.0
C915 C 0.40901 0.4992 0.88331 0.0
C916 C 0.2795 0.4358 0.90368 0.0
C917 C 0.2545 0.43756 0.88618 0.0
C918 C 0.35539 0.47564 0.88467 0.0
C919 C 0.28149 0.45938 0.86833 0.0
C920 C 0.43166 0.5078 0.86401 0.0
C921 C 0.48573 0.55154 0.89901 0.0
N922 N 0.33038 0.47731 0.86802 0.0
N923 N 0.43683 0.51986 0.90031 0.0
loop_
_geom_bond_atom_site_label_1
_geom_bond_atom_site_label_2
_geom_bond_distance
_geom_bond_site_symmetry_2
_ccdc_geom_bond_type
O0 Zn1 1.953 . S
O0 C16 1.225 . S
Zn1 O0 1.953 . S
Zn1 O2 1.949 . S
Zn1 O8 1.919 . S
Zn1 O13 1.924 . S
O2 Zn1 1.949 . S
O2 Zn3 1.923 . S
O2 Zn4 1.950 . S
O2 Zn5 1.945 . S
Zn3 O2 1.923 . S
Zn3 O6 1.933 1_545 S
Zn3 O9 1.941 . S
Zn3 O10 1.965 . S
Zn4 O2 1.950 . S
Zn4 O11 1.938 . S
Zn4 O12 1.906 . S
Zn4 O22 1.953 . S
Zn5 O2 1.945 . S
Zn5 O7 1.932 . S
Zn5 O14 1.977 . S
Zn5 O15 1.910 . S
O6 Zn3 1.933 1_565 S
O6 C17 1.226 . S
O7 Zn5 1.932 . S
O7 C17 1.307 1_545 S
O8 Zn1 1.919 . S
O8 C19 1.253 . S
O9 Zn3 1.941 . S
O9 C19 1.283 . S
O10 Zn3 1.965 . S
O10 C18 1.303 . S
O11 Zn4 1.938 . S
O11 C18 1.247 . S
O12 Zn4 1.906 . S
O12 C20 1.304 . S
O13 Zn1 1.924 . S
O13 C21 1.311 . S
O14 Zn5 1.977 . S
O14 C20 1.272 . S
O15 Zn5 1.910 . S
O15 C21 1.231 . S
C16 O0 1.225 . S
C16 O22 1.298 . S
C17 O6 1.226 . S
C17 O7 1.307 1_565 S
C18 O10 1.303 . S
C18 O11 1.247 . S
C19 O8 1.253 . S
C19 O9 1.283 . S
C20 O12 1.304 . S
C20 O14 1.272 . S
C21 O13 1.311 . S
C21 O15 1.231 . S
O22 Zn4 1.953 . S
O22 C16 1.298 . S
O23 Zn24 1.953 . S
O23 C39 1.225 . S
Zn24 O23 1.953 . S
Zn24 O25 1.949 . S
Zn24 O31 1.919 . S
Zn24 O36 1.924 . S
O25 Zn24 1.949 . S
O25 Zn26 1.923 . S
O25 Zn27 1.950 . S
O25 Zn28 1.945 . S
Zn26 O25 1.923 . S
Zn26 O29 1.933 . S
Zn26 O32 1.941 . S
Zn26 O33 1.965 . S
Zn27 O25 1.950 . S
Zn27 O34 1.938 . S
Zn27 O35 1.906 . S
Zn27 O45 1.953 . S
Zn28 O25 1.945 . S
Zn28 O30 1.932 . S
Zn28 O37 1.977 . S
Zn28 O38 1.910 . S
O29 Zn26 1.933 . S
O29 C40 1.226 . S
O30 Zn28 1.932 . S
O30 C40 1.307 . S
O31 Zn24 1.919 . S
O31 C42 1.253 . S
O32 Zn26 1.941 . S
O32 C42 1.283 . S
O33 Zn26 1.965 . S
O33 C41 1.303 . S
O34 Zn27 1.938 . S
O34 C41 1.247 . S
O35 Zn27 1.906 . S
O35 C43 1.304 . S
O36 Zn24 1.924 . S
O36 C44 1.311 . S
O37 Zn28 1.977 . S
O37 C43 1.272 . S
O38 Zn28 1.910 . S
O38 C44 1.231 . S
C39 O23 1.225 . S
C39 O45 1.298 . S
C40 O29 1.226 . S
C40 O30 1.307 . S
C41 O33 1.303 . S
C41 O34 1.247 . S
C42 O31 1.253 . S
C42 O32 1.283 . S
C43 O35 1.304 . S
C43 O37 1.272 . S
C44 O36 1.311 . S
C44 O38 1.231 . S
O45 Zn27 1.953 . S
O45 C39 1.298 . S
O46 Zn47 1.953 . S
O46 C62 1.225 . S
Zn47 O46 1.953 . S
Zn47 O48 1.949 . S
Zn47 O54 1.919 . S
Zn47 O59 1.924 . S
O48 Zn47 1.949 . S
O48 Zn49 1.923 . S
O48 Zn50 1.950 . S
O48 Zn51 1.945 . S
Zn49 O48 1.923 . S
Zn49 O52 1.933 1_655 S
Zn49 O55 1.941 . S
Zn49 O56 1.965 . S
Zn50 O48 1.950 . S
Zn50 O57 1.938 . S
Zn50 O58 1.906 . S
Zn50 O68 1.953 . S
Zn51 O48 1.945 . S
Zn51 O53 1.932 . S
Zn51 O60 1.977 . S
Zn51 O61 1.910 . S
O52 Zn49 1.933 1_455 S
O52 C63 1.226 . S
O53 Zn51 1.932 . S
O53 C63 1.307 1_655 S
O54 Zn47 1.919 . S
O54 C65 1.253 . S
O55 Zn49 1.941 . S
O55 C65 1.283 . S
O56 Zn49 1.965 . S
O56 C64 1.303 . S
O57 Zn50 1.938 . S
O57 C64 1.247 . S
O58 Zn50 1.906 . S
O58 C66 1.304 . S
O59 Zn47 1.924 . S
O59 C67 1.311 . S
O60 Zn51 1.977 . S
O60 C66 1.272 . S
O61 Zn51 1.910 . S
O61 C67 1.231 . S
C62 O46 1.225 . S
C62 O68 1.298 . S
C63 O52 1.226 . S
C63 O53 1.307 1_455 S
C64 O56 1.303 . S
C64 O57 1.247 . S
C65 O54 1.253 . S
C65 O55 1.283 . S
C66 O58 1.304 . S
C66 O60 1.272 . S
C67 O59 1.311 . S
C67 O61 1.231 . S
O68 Zn50 1.953 . S
O68 C62 1.298 . S
O69 Zn70 1.953 . S
O69 C85 1.225 . S
Zn70 O69 1.953 . S
Zn70 O71 1.949 . S
Zn70 O77 1.919 . S
Zn70 O82 1.924 . S
O71 Zn70 1.949 . S
O71 Zn72 1.923 . S
O71 Zn73 1.950 . S
O71 Zn74 1.945 . S
Zn72 O71 1.923 . S
Zn72 O75 1.933 1_545 S
Zn72 O78 1.941 . S
Zn72 O79 1.965 . S
Zn73 O71 1.950 . S
Zn73 O80 1.938 . S
Zn73 O81 1.906 . S
Zn73 O91 1.953 . S
Zn74 O71 1.945 . S
Zn74 O76 1.932 . S
Zn74 O83 1.977 . S
Zn74 O84 1.910 . S
O75 Zn72 1.933 1_565 S
O75 C86 1.226 . S
O76 Zn74 1.932 . S
O76 C86 1.307 1_545 S
O77 Zn70 1.919 . S
O77 C88 1.253 . S
O78 Zn72 1.941 . S
O78 C88 1.283 . S
O79 Zn72 1.965 . S
O79 C87 1.303 . S
O80 Zn73 1.938 . S
O80 C87 1.247 . S
O81 Zn73 1.906 . S
O81 C89 1.304 . S
O82 Zn70 1.924 . S
O82 C90 1.311 . S
O83 Zn74 1.977 . S
O83 C89 1.272 . S
O84 Zn74 1.910 . S
O84 C90 1.231 . S
C85 O69 1.225 . S
C85 O91 1.298 . S
C86 O75 1.226 . S
C86 O76 1.307 1_565 S
C87 O79 1.303 . S
C87 O80 1.247 . S
C88 O77 1.253 . S
C88 O78 1.283 . S
C89 O81 1.304 . S
C89 O83 1.272 . S
C90 O82 1.311 . S
C90 O84 1.231 . S
O91 Zn73 1.953 . S
O91 C85 1.298 . S
O92 Zn93 1.953 . S
O92 C108 1.225 . S
Zn93 O92 1.953 . S
Zn93 O94 1.949 . S
Zn93 O100 1.919 . S
Zn93 O105 1.924 . S
O94 Zn93 1.949 . S
O94 Zn95 1.923 . S
O94 Zn96 1.950 . S
O94 Zn97 1.945 . S
Zn95 O94 1.923 . S
Zn95 O98 1.933 . S
Zn95 O101 1.941 . S
Zn95 O102 1.965 . S
Zn96 O94 1.950 . S
Zn96 O103 1.938 . S
Zn96 O104 1.906 . S
Zn96 O114 1.953 . S
Zn97 O94 1.945 . S
Zn97 O99 1.932 . S
Zn97 O106 1.977 . S
Zn97 O107 1.910 . S
O98 Zn95 1.933 . S
O98 C109 1.226 . S
O99 Zn97 1.932 . S
O99 C109 1.307 . S
O100 Zn93 1.919 . S
O100 C111 1.253 . S
O101 Zn95 1.941 . S
O101 C111 1.283 . S
O102 Zn95 1.965 . S
O102 C110 1.303 . S
O103 Zn96 1.938 . S
O103 C110 1.247 . S
O104 Zn96 1.906 . S
O104 C112 1.304 . S
O105 Zn93 1.924 . S
O105 C113 1.311 . S
O106 Zn97 1.977 . S
O106 C112 1.272 . S
O107 Zn97 1.910 . S
O107 C113 1.231 . S
C108 O92 1.225 . S
C108 O114 1.298 . S
C109 O98 1.226 . S
C109 O99 1.307 . S
C110 O102 1.303 . S
C110 O103 1.247 . S
C111 O100 1.253 . S
C111 O101 1.283 . S
C112 O104 1.304 . S
C112 O106 1.272 . S
C113 O105 1.311 . S
C113 O107 1.231 . S
O114 Zn96 1.953 . S
O114 C108 1.298 . S
O115 Zn116 1.953 . S
O115 C131 1.225 . S
Zn116 O115 1.953 . S
Zn116 O117 1.949 . S
Zn116 O123 1.919 . S
Zn116 O128 1.924 . S
O117 Zn116 1.949 . S
O117 Zn118 1.923 . S
O117 Zn119 1.950 . S
O117 Zn120 1.945 . S
Zn118 O117 1.923 . S
Zn118 O121 1.933 1_655 S
Zn118 O124 1.941 . S
Zn118 O125 1.965 . S
Zn119 O117 1.950 . S
Zn119 O126 1.938 . S
Zn119 O127 1.906 . S
Zn119 O137 1.953 . S
Zn120 O117 1.945 . S
Zn120 O122 1.932 . S
Zn120 O129 1.977 . S
Zn120 O130 1.910 . S
O121 Zn118 1.933 1_455 S
O121 C132 1.226 . S
O122 Zn120 1.932 . S
O122 C132 1.307 1_655 S
O123 Zn116 1.919 . S
O123 C134 1.253 . S
O124 Zn118 1.941 . S
O124 C134 1.283 . S
O125 Zn118 1.965 . S
O125 C133 1.303 . S
O126 Zn119 1.938 . S
O126 C133 1.247 . S
O127 Zn119 1.906 . S
O127 C135 1.304 . S
O128 Zn116 1.924 . S
O128 C136 1.311 . S
O129 Zn120 1.977 . S
O129 C135 1.272 . S
O130 Zn120 1.910 . S
O130 C136 1.231 . S
C131 O115 1.225 . S
C131 O137 1.298 . S
C132 O121 1.226 . S
C132 O122 1.307 1_455 S
C133 O125 1.303 . S
C133 O126 1.247 . S
C134 O123 1.253 . S
C134 O124 1.283 . S
C135 O127 1.304 . S
C135 O129 1.272 . S
C136 O128 1.311 . S
C136 O130 1.231 . S
O137 Zn119 1.953 . S
O137 C131 1.298 . S
O138 Zn139 1.953 . S
O138 C154 1.225 . S
Zn139 O138 1.953 . S
Zn139 O140 1.949 . S
Zn139 O146 1.919 . S
Zn139 O151 1.924 . S
O140 Zn139 1.949 . S
O140 Zn141 1.923 . S
O140 Zn142 1.950 . S
O140 Zn143 1.945 . S
Zn141 O140 1.923 . S
Zn141 O144 1.933 1_455 S
Zn141 O147 1.941 . S
Zn141 O148 1.965 . S
Zn142 O140 1.950 . S
Zn142 O149 1.938 . S
Zn142 O150 1.906 . S
Zn142 O160 1.953 . S
Zn143 O140 1.945 . S
Zn143 O145 1.932 . S
Zn143 O152 1.977 . S
Zn143 O153 1.910 . S
O144 Zn141 1.933 1_655 S
O144 C155 1.226 . S
O145 Zn143 1.932 . S
O145 C155 1.307 1_455 S
O146 Zn139 1.919 . S
O146 C157 1.253 . S
O147 Zn141 1.941 . S
O147 C157 1.283 . S
O148 Zn141 1.965 . S
O148 C156 1.303 . S
O149 Zn142 1.938 . S
O149 C156 1.247 . S
O150 Zn142 1.906 . S
O150 C158 1.304 . S
O151 Zn139 1.924 . S
O151 C159 1.311 . S
O152 Zn143 1.977 . S
O152 C158 1.272 . S
O153 Zn143 1.910 . S
O153 C159 1.231 . S
C154 O138 1.225 . S
C154 O160 1.298 . S
C155 O144 1.226 . S
C155 O145 1.307 1_655 S
C156 O148 1.303 . S
C156 O149 1.247 . S
C157 O146 1.253 . S
C157 O147 1.283 . S
C158 O150 1.304 . S
C158 O152 1.272 . S
C159 O151 1.311 . S
C159 O153 1.231 . S
O160 Zn142 1.953 . S
O160 C154 1.298 . S
O161 Zn162 1.953 . S
O161 C177 1.225 . S
Zn162 O161 1.953 . S
Zn162 O163 1.949 . S
Zn162 O169 1.919 . S
Zn162 O174 1.924 . S
O163 Zn162 1.949 . S
O163 Zn164 1.923 . S
O163 Zn165 1.950 . S
O163 Zn166 1.945 . S
Zn164 O163 1.923 . S
Zn164 O167 1.933 1_565 S
Zn164 O170 1.941 . S
Zn164 O171 1.965 . S
Zn165 O163 1.950 . S
Zn165 O172 1.938 . S
Zn165 O173 1.906 . S
Zn165 O183 1.953 . S
Zn166 O163 1.945 . S
Zn166 O168 1.932 . S
Zn166 O175 1.977 . S
Zn166 O176 1.910 . S
O167 Zn164 1.933 1_545 S
O167 C178 1.226 . S
O168 Zn166 1.932 . S
O168 C178 1.307 1_565 S
O169 Zn162 1.919 . S
O169 C180 1.253 . S
O170 Zn164 1.941 . S
O170 C180 1.283 . S
O171 Zn164 1.965 . S
O171 C179 1.303 . S
O172 Zn165 1.938 . S
O172 C179 1.247 . S
O173 Zn165 1.906 . S
O173 C181 1.304 . S
O174 Zn162 1.924 . S
O174 C182 1.311 . S
O175 Zn166 1.977 . S
O175 C181 1.272 . S
O176 Zn166 1.910 . S
O176 C182 1.231 . S
C177 O161 1.225 . S
C177 O183 1.298 . S
C178 O167 1.226 . S
C178 O168 1.307 1_545 S
C179 O171 1.303 . S
C179 O172 1.247 . S
C180 O169 1.253 . S
C180 O170 1.283 . S
C181 O173 1.304 . S
C181 O175 1.272 . S
C182 O174 1.311 . S
C182 O176 1.231 . S
O183 Zn165 1.953 . S
O183 C177 1.298 . S
O184 Zn185 1.953 . S
O184 C200 1.225 . S
Zn185 O184 1.953 . S
Zn185 O186 1.949 . S
Zn185 O192 1.919 . S
Zn185 O197 1.924 . S
O186 Zn185 1.949 . S
O186 Zn187 1.923 . S
O186 Zn188 1.950 . S
O186 Zn189 1.945 . S
Zn187 O186 1.923 . S
Zn187 O190 1.933 . S
Zn187 O193 1.941 . S
Zn187 O194 1.965 . S
Zn188 O186 1.950 . S
Zn188 O195 1.938 . S
Zn188 O196 1.906 . S
Zn188 O206 1.953 . S
Zn189 O186 1.945 . S
Zn189 O191 1.932 . S
Zn189 O198 1.977 . S
Zn189 O199 1.910 . S
O190 Zn187 1.933 . S
O190 C201 1.226 . S
O191 Zn189 1.932 . S
O191 C201 1.307 . S
O192 Zn185 1.919 . S
O192 C203 1.253 . S
O193 Zn187 1.941 . S
O193 C203 1.283 . S
O194 Zn187 1.965 . S
O194 C202 1.303 . S
O195 Zn188 1.938 . S
O195 C202 1.247 . S
O196 Zn188 1.906 . S
O196 C204 1.304 . S
O197 Zn185 1.924 . S
O197 C205 1.311 . S
O198 Zn189 1.977 . S
O198 C204 1.272 . S
O199 Zn189 1.910 . S
O199 C205 1.231 . S
C200 O184 1.225 . S
C200 O206 1.298 . S
C201 O190 1.226 . S
C201 O191 1.307 . S
C202 O194 1.303 . S
C202 O195 1.247 . S
C203 O192 1.253 . S
C203 O193 1.283 . S
C204 O196 1.304 . S
C204 O198 1.272 . S
C205 O197 1.311 . S
C205 O199 1.231 . S
O206 Zn188 1.953 . S
O206 C200 1.298 . S
O207 Zn208 1.953 . S
O207 C223 1.225 . S
Zn208 O207 1.953 . S
Zn208 O209 1.949 . S
Zn208 O215 1.919 . S
Zn208 O220 1.924 . S
O209 Zn208 1.949 . S
O209 Zn210 1.923 . S
O209 Zn211 1.950 . S
O209 Zn212 1.945 . S
Zn210 O209 1.923 . S
Zn210 O213 1.933 1_455 S
Zn210 O216 1.941 . S
Zn210 O217 1.965 . S
Zn211 O209 1.950 . S
Zn211 O218 1.938 . S
Zn211 O219 1.906 . S
Zn211 O229 1.953 . S
Zn212 O209 1.945 . S
Zn212 O214 1.932 . S
Zn212 O221 1.977 . S
Zn212 O222 1.910 . S
O213 Zn210 1.933 1_655 S
O213 C224 1.226 . S
O214 Zn212 1.932 . S
O214 C224 1.307 1_455 S
O215 Zn208 1.919 . S
O215 C226 1.253 . S
O216 Zn210 1.941 . S
O216 C226 1.283 . S
O217 Zn210 1.965 . S
O217 C225 1.303 . S
O218 Zn211 1.938 . S
O218 C225 1.247 . S
O219 Zn211 1.906 . S
O219 C227 1.304 . S
O220 Zn208 1.924 . S
O220 C228 1.311 . S
O221 Zn212 1.977 . S
O221 C227 1.272 . S
O222 Zn212 1.910 . S
O222 C228 1.231 . S
C223 O207 1.225 . S
C223 O229 1.298 . S
C224 O213 1.226 . S
C224 O214 1.307 1_655 S
C225 O217 1.303 . S
C225 O218 1.247 . S
C226 O215 1.253 . S
C226 O216 1.283 . S
C227 O219 1.304 . S
C227 O221 1.272 . S
C228 O220 1.311 . S
C228 O222 1.231 . S
O229 Zn211 1.953 . S
O229 C223 1.298 . S
O230 Zn231 1.953 . S
O230 C246 1.225 . S
Zn231 O230 1.953 . S
Zn231 O232 1.949 . S
Zn231 O238 1.919 . S
Zn231 O243 1.924 . S
O232 Zn231 1.949 . S
O232 Zn233 1.923 . S
O232 Zn234 1.950 . S
O232 Zn235 1.945 . S
Zn233 O232 1.923 . S
Zn233 O236 1.933 1_565 S
Zn233 O239 1.941 . S
Zn233 O240 1.965 . S
Zn234 O232 1.950 . S
Zn234 O241 1.938 . S
Zn234 O242 1.906 . S
Zn234 O252 1.953 . S
Zn235 O232 1.945 . S
Zn235 O237 1.932 . S
Zn235 O244 1.977 . S
Zn235 O245 1.910 . S
O236 Zn233 1.933 1_545 S
O236 C247 1.226 . S
O237 Zn235 1.932 . S
O237 C247 1.307 1_565 S
O238 Zn231 1.919 . S
O238 C249 1.253 . S
O239 Zn233 1.941 . S
O239 C249 1.283 . S
O240 Zn233 1.965 . S
O240 C248 1.303 . S
O241 Zn234 1.938 . S
O241 C248 1.247 . S
O242 Zn234 1.906 . S
O242 C250 1.304 . S
O243 Zn231 1.924 . S
O243 C251 1.311 . S
O244 Zn235 1.977 . S
O244 C250 1.272 . S
O245 Zn235 1.910 . S
O245 C251 1.231 . S
C246 O230 1.225 . S
C246 O252 1.298 . S
C247 O236 1.226 . S
C247 O237 1.307 1_545 S
C248 O240 1.303 . S
C248 O241 1.247 . S
C249 O238 1.253 . S
C249 O239 1.283 . S
C250 O242 1.304 . S
C250 O244 1.272 . S
C251 O243 1.311 . S
C251 O245 1.231 . S
O252 Zn234 1.953 . S
O252 C246 1.298 . S
O253 Zn254 1.953 . S
O253 C269 1.225 . S
Zn254 O253 1.953 . S
Zn254 O255 1.949 . S
Zn254 O261 1.919 . S
Zn254 O266 1.924 . S
O255 Zn254 1.949 . S
O255 Zn256 1.923 . S
O255 Zn257 1.950 . S
O255 Zn258 1.945 . S
Zn256 O255 1.923 . S
Zn256 O259 1.933 . S
Zn256 O262 1.941 . S
Zn256 O263 1.965 . S
Zn257 O255 1.950 . S
Zn257 O264 1.938 . S
Zn257 O265 1.906 . S
Zn257 O275 1.953 . S
Zn258 O255 1.945 . S
Zn258 O260 1.932 . S
Zn258 O267 1.977 . S
Zn258 O268 1.910 . S
O259 Zn256 1.933 . S
O259 C270 1.226 . S
O260 Zn258 1.932 . S
O260 C270 1.307 . S
O261 Zn254 1.919 . S
O261 C272 1.253 . S
O262 Zn256 1.941 . S
O262 C272 1.283 . S
O263 Zn256 1.965 . S
O263 C271 1.303 . S
O264 Zn257 1.938 . S
O264 C271 1.247 . S
O265 Zn257 1.906 . S
O265 C273 1.304 . S
O266 Zn254 1.924 . S
O266 C274 1.311 . S
O267 Zn258 1.977 . S
O267 C273 1.272 . S
O268 Zn258 1.910 . S
O268 C274 1.231 . S
C269 O253 1.225 . S
C269 O275 1.298 . S
C270 O259 1.226 . S
C270 O260 1.307 . S
C271 O263 1.303 . S
C271 O264 1.247 . S
C272 O261 1.253 . S
C272 O262 1.283 . S
C273 O265 1.304 . S
C273 O267 1.272 . S
C274 O266 1.311 . S
C274 O268 1.231 . S
O275 Zn257 1.953 . S
O275 C269 1.298 . S
H276 C282 0.930 . S
H277 C286 0.930 . S
H278 C291 0.929 . S
H279 C289 0.929 . S
H280 C284 0.929 . S
H281 C290 0.929 . S
C282 H276 0.930 . S
C282 C283 1.367 . S
C282 C290 1.378 . S
C283 C282 1.367 . S
C283 C291 1.433 . S
C284 H280 0.929 . S
C284 C286 1.378 . S
C284 C288 1.350 . S
C285 C288 1.463 . S
C285 C290 1.350 . S
C285 N293 1.427 . S
C286 H277 0.930 . S
C286 C284 1.378 . S
C286 C287 1.367 . S
C287 C286 1.367 . S
C287 C289 1.433 . S
C288 C284 1.350 . S
C288 C285 1.463 . S
C288 N292 1.427 . S
C289 H279 0.929 . S
C289 C287 1.433 . S
C289 N292 1.384 . S
C290 H281 0.929 . S
C290 C282 1.378 . S
C290 C285 1.350 . S
C291 H278 0.929 . S
C291 C283 1.433 . S
C291 N293 1.384 . S
N292 C288 1.427 . S
N292 C289 1.384 . S
N293 C285 1.427 . S
N293 C291 1.384 . S
H294 C300 0.931 . S
H295 C304 0.930 . S
H296 C309 0.929 . S
H297 C307 0.929 . S
H298 C302 0.929 . S
H299 C308 0.929 . S
C300 H294 0.931 . S
C300 C301 1.367 . S
C300 C308 1.378 . S
C301 C300 1.367 . S
C301 C309 1.433 . S
C302 H298 0.929 . S
C302 C304 1.378 1_455 S
C302 C306 1.350 . S
C303 C306 1.463 . S
C303 C308 1.350 . S
C303 N311 1.427 . S
C304 H295 0.930 . S
C304 C302 1.378 1_655 S
C304 C305 1.367 . S
C305 C304 1.367 . S
C305 C307 1.433 . S
C306 C302 1.350 . S
C306 C303 1.463 . S
C306 N310 1.427 . S
C307 H297 0.929 . S
C307 C305 1.433 . S
C307 N310 1.384 1_655 S
C308 H299 0.929 . S
C308 C300 1.378 . S
C308 C303 1.350 . S
C309 H296 0.929 . S
C309 C301 1.433 . S
C309 N311 1.384 . S
N310 C306 1.427 . S
N310 C307 1.384 1_455 S
N311 C303 1.427 . S
N311 C309 1.384 . S
H312 C318 0.930 . S
H313 C322 0.930 . S
H314 C327 0.929 . S
H315 C325 0.929 . S
H316 C320 0.929 . S
H317 C326 0.929 . S
C318 H312 0.930 . S
C318 C319 1.367 . S
C318 C326 1.378 1_545 S
C319 C318 1.367 . S
C319 C327 1.433 . S
C320 H316 0.929 . S
C320 C322 1.378 . S
C320 C324 1.350 . S
C321 C324 1.463 . S
C321 C326 1.350 . S
C321 N329 1.427 . S
C322 H313 0.930 . S
C322 C320 1.378 . S
C322 C323 1.367 . S
C323 C322 1.367 . S
C323 C325 1.433 . S
C324 C320 1.350 . S
C324 C321 1.463 . S
C324 N328 1.427 . S
C325 H315 0.929 . S
C325 C323 1.433 . S
C325 N328 1.384 . S
C326 H317 0.929 . S
C326 C318 1.378 1_565 S
C326 C321 1.350 . S
C327 H314 0.929 . S
C327 C319 1.433 . S
C327 N329 1.384 1_545 S
N328 C324 1.427 . S
N328 C325 1.384 . S
N329 C321 1.427 . S
N329 C327 1.384 1_565 S
H330 C336 0.930 . S
H331 C340 0.930 . S
H332 C345 0.929 . S
H333 C343 0.929 . S
H334 C338 0.929 . S
H335 C344 0.929 . S
C336 H330 0.930 . S
C336 C337 1.367 . S
C336 C344 1.378 . S
C337 C336 1.367 . S
C337 C345 1.433 . S
C338 H334 0.929 . S
C338 C340 1.378 . S
C338 C342 1.350 . S
C339 C342 1.463 . S
C339 C344 1.350 . S
C339 N347 1.427 . S
C340 H331 0.930 . S
C340 C338 1.378 . S
C340 C341 1.367 . S
C341 C340 1.367 . S
C341 C343 1.433 . S
C342 C338 1.350 . S
C342 C339 1.463 . S
C342 N346 1.427 . S
C343 H333 0.929 . S
C343 C341 1.433 . S
C343 N346 1.384 . S
C344 H335 0.929 . S
C344 C336 1.378 . S
C344 C339 1.350 . S
C345 H332 0.929 . S
C345 C337 1.433 . S
C345 N347 1.384 . S
N346 C342 1.427 . S
N346 C343 1.384 . S
N347 C339 1.427 . S
N347 C345 1.384 . S
H348 C354 0.930 . S
H349 C358 0.930 . S
H350 C363 0.929 . S
H351 C361 0.929 . S
H352 C356 0.929 . S
H353 C362 0.929 . S
C354 H348 0.930 . S
C354 C355 1.367 . S
C354 C362 1.378 . S
C355 C354 1.367 . S
C355 C363 1.433 . S
C356 H352 0.929 . S
C356 C358 1.378 1_455 S
C356 C360 1.350 . S
C357 C360 1.463 . S
C357 C362 1.350 . S
C357 N365 1.427 . S
C358 H349 0.930 . S
C358 C356 1.378 1_655 S
C358 C359 1.367 . S
C359 C358 1.367 . S
C359 C361 1.433 . S
C360 C356 1.350 . S
C360 C357 1.463 . S
C360 N364 1.427 . S
C361 H351 0.929 . S
C361 C359 1.433 . S
C361 N364 1.384 1_655 S
C362 H353 0.929 . S
C362 C354 1.378 . S
C362 C357 1.350 . S
C363 H350 0.929 . S
C363 C355 1.433 . S
C363 N365 1.384 . S
N364 C360 1.427 . S
N364 C361 1.384 1_455 S
N365 C357 1.427 . S
N365 C363 1.384 . S
H366 C372 0.930 . S
H367 C376 0.930 . S
H368 C381 0.929 . S
H369 C379 0.929 . S
H370 C374 0.929 . S
H371 C380 0.929 . S
C372 H366 0.930 . S
C372 C373 1.367 . S
C372 C380 1.378 . S
C373 C372 1.367 . S
C373 C381 1.433 . S
C374 H370 0.929 . S
C374 C376 1.378 1_565 S
C374 C378 1.350 . S
C375 C378 1.463 . S
C375 C380 1.350 . S
C375 N383 1.427 . S
C376 H367 0.930 . S
C376 C374 1.378 1_545 S
C376 C377 1.367 . S
C377 C376 1.367 . S
C377 C379 1.433 . S
C378 C374 1.350 . S
C378 C375 1.463 . S
C378 N382 1.427 . S
C379 H369 0.929 . S
C379 C377 1.433 . S
C379 N382 1.384 1_545 S
C380 H371 0.929 . S
C380 C372 1.378 . S
C380 C375 1.350 . S
C381 H368 0.929 . S
C381 C373 1.433 . S
C381 N383 1.384 . S
N382 C378 1.427 . S
N382 C379 1.384 1_565 S
N383 C375 1.427 . S
N383 C381 1.384 . S
H384 C390 0.930 . S
H385 C394 0.930 . S
H386 C399 0.929 . S
H387 C397 0.929 . S
H388 C392 0.929 . S
H389 C398 0.929 . S
C390 H384 0.930 . S
C390 C391 1.367 . S
C390 C398 1.378 . S
C391 C390 1.367 . S
C391 C399 1.433 . S
C392 H388 0.929 . S
C392 C394 1.378 . S
C392 C396 1.350 . S
C393 C396 1.463 . S
C393 C398 1.350 . S
C393 N401 1.427 . S
C394 H385 0.930 . S
C394 C392 1.378 . S
C394 C395 1.367 . S
C395 C394 1.367 . S
C395 C397 1.433 . S
C396 C392 1.350 . S
C396 C393 1.463 . S
C396 N400 1.427 . S
C397 H387 0.929 . S
C397 C395 1.433 . S
C397 N400 1.384 . S
C398 H389 0.929 . S
C398 C390 1.378 . S
C398 C393 1.350 . S
C399 H386 0.929 . S
C399 C391 1.433 . S
C399 N401 1.384 . S
N400 C396 1.427 . S
N400 C397 1.384 . S
N401 C393 1.427 . S
N401 C399 1.384 . S
H402 C408 0.930 . S
H403 C412 0.930 . S
H404 C417 0.929 . S
H405 C415 0.929 . S
H406 C410 0.929 . S
H407 C416 0.929 . S
C408 H402 0.930 . S
C408 C409 1.367 . S
C408 C416 1.378 1_455 S
C409 C408 1.367 . S
C409 C417 1.433 . S
C410 H406 0.929 . S
C410 C412 1.378 . S
C410 C414 1.350 . S
C411 C414 1.463 . S
C411 C416 1.350 . S
C411 N419 1.427 . S
C412 H403 0.930 . S
C412 C410 1.378 . S
C412 C413 1.367 . S
C413 C412 1.367 . S
C413 C415 1.433 . S
C414 C410 1.350 . S
C414 C411 1.463 . S
C414 N418 1.427 . S
C415 H405 0.929 . S
C415 C413 1.433 . S
C415 N418 1.384 . S
C416 H407 0.929 . S
C416 C408 1.378 1_655 S
C416 C411 1.350 . S
C417 H404 0.929 . S
C417 C409 1.433 . S
C417 N419 1.384 1_455 S
N418 C414 1.427 . S
N418 C415 1.384 . S
N419 C411 1.427 . S
N419 C417 1.384 1_655 S
H420 C426 0.930 . S
H421 C430 0.930 . S
H422 C435 0.929 . S
H423 C433 0.929 . S
H424 C428 0.929 . S
H425 C434 0.929 . S
C426 H420 0.930 . S
C426 C427 1.367 . S
C426 C434 1.378 1_565 S
C427 C426 1.367 . S
C427 C435 1.433 . S
C428 H424 0.929 . S
C428 C430 1.378 . S
C428 C432 1.350 . S
C429 C432 1.463 . S
C429 C434 1.350 . S
C429 N437 1.427 . S
C430 H421 0.930 . S
C430 C428 1.378 . S
C430 C431 1.367 . S
C431 C430 1.367 . S
C431 C433 1.433 . S
C432 C428 1.350 . S
C432 C429 1.463 . S
C432 N436 1.427 . S
C433 H423 0.929 . S
C433 C431 1.433 . S
C433 N436 1.384 . S
C434 H425 0.929 . S
C434 C426 1.378 1_545 S
C434 C429 1.350 . S
C435 H422 0.929 . S
C435 C427 1.433 . S
C435 N437 1.384 1_565 S
N436 C432 1.427 . S
N436 C433 1.384 . S
N437 C429 1.427 . S
N437 C435 1.384 1_545 S
H438 C444 0.930 . S
H439 C448 0.930 . S
H440 C453 0.929 . S
H441 C451 0.929 . S
H442 C446 0.929 . S
H443 C452 0.929 . S
C444 H438 0.930 . S
C444 C445 1.367 . S
C444 C452 1.378 . S
C445 C444 1.367 . S
C445 C453 1.433 . S
C446 H442 0.929 . S
C446 C448 1.378 . S
C446 C450 1.350 . S
C447 C450 1.463 . S
C447 C452 1.350 . S
C447 N455 1.427 . S
C448 H439 0.930 . S
C448 C446 1.378 . S
C448 C449 1.367 . S
C449 C448 1.367 . S
C449 C451 1.433 . S
C450 C446 1.350 . S
C450 C447 1.463 . S
C450 N454 1.427 . S
C451 H441 0.929 . S
C451 C449 1.433 . S
C451 N454 1.384 . S
C452 H443 0.929 . S
C452 C444 1.378 . S
C452 C447 1.350 . S
C453 H440 0.929 . S
C453 C445 1.433 . S
C453 N455 1.384 . S
N454 C450 1.427 . S
N454 C451 1.384 . S
N455 C447 1.427 . S
N455 C453 1.384 . S
H456 C462 0.930 . S
H457 C466 0.930 . S
H458 C471 0.929 . S
H459 C469 0.929 . S
H460 C464 0.929 . S
H461 C470 0.929 . S
C462 H456 0.930 . S
C462 C463 1.367 . S
C462 C470 1.378 1_455 S
C463 C462 1.367 . S
C463 C471 1.433 . S
C464 H460 0.929 . S
C464 C466 1.378 . S
C464 C468 1.350 . S
C465 C468 1.463 . S
C465 C470 1.350 . S
C465 N473 1.427 . S
C466 H457 0.930 . S
C466 C464 1.378 . S
C466 C467 1.367 . S
C467 C466 1.367 . S
C467 C469 1.433 . S
C468 C464 1.350 . S
C468 C465 1.463 . S
C468 N472 1.427 . S
C469 H459 0.929 . S
C469 C467 1.433 . S
C469 N472 1.384 . S
C470 H461 0.929 . S
C470 C462 1.378 1_655 S
C470 C465 1.350 . S
C471 H458 0.929 . S
C471 C463 1.433 . S
C471 N473 1.384 1_455 S
N472 C468 1.427 . S
N472 C469 1.384 . S
N473 C465 1.427 . S
N473 C471 1.384 1_655 S
H474 C480 0.930 . S
H475 C484 0.930 . S
H476 C489 0.929 . S
H477 C487 0.929 . S
H478 C482 0.929 . S
H479 C488 0.929 . S
C480 H474 0.930 . S
C480 C481 1.367 . S
C480 C488 1.378 . S
C481 C480 1.367 . S
C481 C489 1.433 . S
C482 H478 0.929 . S
C482 C484 1.378 1_545 S
C482 C486 1.350 . S
C483 C486 1.463 . S
C483 C488 1.350 . S
C483 N491 1.427 . S
C484 H475 0.930 . S
C484 C482 1.378 1_565 S
C484 C485 1.367 . S
C485 C484 1.367 . S
C485 C487 1.433 . S
C486 C482 1.350 . S
C486 C483 1.463 . S
C486 N490 1.427 . S
C487 H477 0.929 . S
C487 C485 1.433 . S
C487 N490 1.384 1_565 S
C488 H479 0.929 . S
C488 C480 1.378 . S
C488 C483 1.350 . S
C489 H476 0.929 . S
C489 C481 1.433 . S
C489 N491 1.384 . S
N490 C486 1.427 . S
N490 C487 1.384 1_545 S
N491 C483 1.427 . S
N491 C489 1.384 . S
H492 C498 0.930 . S
H493 C502 0.930 . S
H494 C507 0.929 . S
H495 C505 0.929 . S
H496 C500 0.929 . S
H497 C506 0.929 . S
C498 H492 0.930 . S
C498 C499 1.367 . S
C498 C506 1.378 . S
C499 C498 1.367 . S
C499 C507 1.433 . S
C500 H496 0.929 . S
C500 C502 1.378 . S
C500 C504 1.350 . S
C501 C504 1.463 . S
C501 C506 1.350 . S
C501 N509 1.427 . S
C502 H493 0.930 . S
C502 C500 1.378 . S
C502 C503 1.367 . S
C503 C502 1.367 . S
C503 C505 1.433 . S
C504 C500 1.350 . S
C504 C501 1.463 . S
C504 N508 1.427 . S
C505 H495 0.929 . S
C505 C503 1.433 . S
C505 N508 1.384 . S
C506 H497 0.929 . S
C506 C498 1.378 . S
C506 C501 1.350 . S
C507 H494 0.929 . S
C507 C499 1.433 . S
C507 N509 1.384 . S
N508 C504 1.427 . S
N508 C505 1.384 . S
N509 C501 1.427 . S
N509 C507 1.384 . S
H510 C516 0.930 . S
H511 C520 0.930 . S
H512 C525 0.929 . S
H513 C523 0.929 . S
H514 C518 0.929 . S
H515 C524 0.929 . S
C516 H510 0.930 . S
C516 C517 1.367 . S
C516 C524 1.378 . S
C517 C516 1.367 . S
C517 C525 1.433 . S
C518 H514 0.929 . S
C518 C520 1.378 . S
C518 C522 1.350 . S
C519 C522 1.463 . S
C519 C524 1.350 . S
C519 N527 1.427 . S
C520 H511 0.930 . S
C520 C518 1.378 . S
C520 C521 1.367 . S
C521 C520 1.367 . S
C521 C523 1.433 . S
C522 C518 1.350 . S
C522 C519 1.463 . S
C522 N526 1.427 . S
C523 H513 0.929 . S
C523 C521 1.433 . S
C523 N526 1.384 . S
C524 H515 0.929 . S
C524 C516 1.378 . S
C524 C519 1.350 . S
C525 H512 0.929 . S
C525 C517 1.433 . S
C525 N527 1.384 . S
N526 C522 1.427 . S
N526 C523 1.384 . S
N527 C519 1.427 . S
N527 C525 1.384 . S
H528 C534 0.930 . S
H529 C538 0.930 . S
H530 C543 0.929 . S
H531 C541 0.929 . S
H532 C536 0.929 . S
H533 C542 0.929 . S
C534 H528 0.930 . S
C534 C535 1.367 . S
C534 C542 1.378 . S
C535 C534 1.367 . S
C535 C543 1.433 . S
C536 H532 0.929 . S
C536 C538 1.378 . S
C536 C540 1.350 . S
C537 C540 1.463 . S
C537 C542 1.350 . S
C537 N545 1.427 . S
C538 H529 0.930 . S
C538 C536 1.378 . S
C538 C539 1.367 . S
C539 C538 1.367 . S
C539 C541 1.433 . S
C540 C536 1.350 . S
C540 C537 1.463 . S
C540 N544 1.427 . S
C541 H531 0.929 . S
C541 C539 1.433 . S
C541 N544 1.384 . S
C542 H533 0.929 . S
C542 C534 1.378 . S
C542 C537 1.350 . S
C543 H530 0.929 . S
C543 C535 1.433 . S
C543 N545 1.384 . S
N544 C540 1.427 . S
N544 C541 1.384 . S
N545 C537 1.427 . S
N545 C543 1.384 . S
H546 C552 0.930 . S
H547 C556 0.930 . S
H548 C561 0.929 . S
H549 C559 0.929 . S
H550 C554 0.929 . S
H551 C560 0.929 . S
C552 H546 0.930 . S
C552 C553 1.367 . S
C552 C560 1.378 . S
C553 C552 1.367 . S
C553 C561 1.433 . S
C554 H550 0.929 . S
C554 C556 1.378 . S
C554 C558 1.350 . S
C555 C558 1.463 . S
C555 C560 1.350 . S
C555 N563 1.427 . S
C556 H547 0.930 . S
C556 C554 1.378 . S
C556 C557 1.367 . S
C557 C556 1.367 . S
C557 C559 1.433 . S
C558 C554 1.350 . S
C558 C555 1.463 . S
C558 N562 1.427 . S
C559 H549 0.929 . S
C559 C557 1.433 . S
C559 N562 1.384 . S
C560 H551 0.929 . S
C560 C552 1.378 . S
C560 C555 1.350 . S
C561 H548 0.929 . S
C561 C553 1.433 . S
C561 N563 1.384 . S
N562 C558 1.427 . S
N562 C559 1.384 . S
N563 C555 1.427 . S
N563 C561 1.384 . S
H564 C570 0.930 . S
H565 C574 0.930 . S
H566 C579 0.929 . S
H567 C577 0.929 . S
H568 C572 0.929 . S
H569 C578 0.929 . S
C570 H564 0.930 . S
C570 C571 1.367 . S
C570 C578 1.378 . S
C571 C570 1.367 . S
C571 C579 1.433 . S
C572 H568 0.929 . S
C572 C574 1.378 . S
C572 C576 1.350 . S
C573 C576 1.463 . S
C573 C578 1.350 . S
C573 N581 1.427 . S
C574 H565 0.930 . S
C574 C572 1.378 . S
C574 C575 1.367 . S
C575 C574 1.367 . S
C575 C577 1.433 . S
C576 C572 1.350 . S
C576 C573 1.463 . S
C576 N580 1.427 . S
C577 H567 0.929 . S
C577 C575 1.433 . S
C577 N580 1.384 . S
C578 H569 0.929 . S
C578 C570 1.378 . S
C578 C573 1.350 . S
C579 H566 0.929 . S
C579 C571 1.433 . S
C579 N581 1.384 . S
N580 C576 1.427 . S
N580 C577 1.384 . S
N581 C573 1.427 . S
N581 C579 1.384 . S
H582 C588 0.930 . S
H583 C592 0.930 . S
H584 C597 0.929 . S
H585 C595 0.929 . S
H586 C590 0.929 . S
H587 C596 0.929 . S
C588 H582 0.930 . S
C588 C589 1.367 . S
C588 C596 1.378 . S
C589 C588 1.367 . S
C589 C597 1.433 . S
C590 H586 0.929 . S
C590 C592 1.378 . S
C590 C594 1.350 . S
C591 C594 1.463 . S
C591 C596 1.350 . S
C591 N599 1.427 . S
C592 H583 0.930 . S
C592 C590 1.378 . S
C592 C593 1.367 . S
C593 C592 1.367 . S
C593 C595 1.433 . S
C594 C590 1.350 . S
C594 C591 1.463 . S
C594 N598 1.427 . S
C595 H585 0.929 . S
C595 C593 1.433 . S
C595 N598 1.384 . S
C596 H587 0.929 . S
C596 C588 1.378 . S
C596 C591 1.350 . S
C597 H584 0.929 . S
C597 C589 1.433 . S
C597 N599 1.384 . S
N598 C594 1.427 . S
N598 C595 1.384 . S
N599 C591 1.427 . S
N599 C597 1.384 . S
H600 C606 0.930 . S
H601 C610 0.930 . S
H602 C615 0.929 . S
H603 C613 0.929 . S
H604 C608 0.929 . S
H605 C614 0.929 . S
C606 H600 0.930 . S
C606 C607 1.367 . S
C606 C614 1.378 1_565 S
C607 C606 1.367 . S
C607 C615 1.433 . S
C608 H604 0.929 . S
C608 C610 1.378 1_565 S
C608 C612 1.350 1_565 S
C609 C612 1.463 1_566 S
C609 C614 1.350 1_565 S
C609 N617 1.427 . S
C610 H601 0.930 . S
C610 C608 1.378 1_545 S
C610 C611 1.367 . S
C611 C610 1.367 . S
C611 C613 1.433 . S
C612 C608 1.350 1_545 S
C612 C609 1.463 1_544 S
C612 N616 1.427 . S
C613 H603 0.929 . S
C613 C611 1.433 . S
C613 N616 1.384 . S
C614 H605 0.929 . S
C614 C606 1.378 1_545 S
C614 C609 1.350 1_545 S
C615 H602 0.929 . S
C615 C607 1.433 . S
C615 N617 1.384 . S
N616 C612 1.427 . S
N616 C613 1.384 . S
N617 C609 1.427 . S
N617 C615 1.384 . S
H618 C624 0.930 . S
H619 C628 0.930 . S
H620 C633 0.929 . S
H621 C631 0.929 . S
H622 C626 0.929 . S
H623 C632 0.929 . S
C624 H618 0.930 . S
C624 C625 1.367 . S
C624 C632 1.378 . S
C625 C624 1.367 . S
C625 C633 1.433 . S
C626 H622 0.929 . S
C626 C628 1.378 . S
C626 C630 1.350 . S
C627 C630 1.463 . S
C627 C632 1.350 . S
C627 N635 1.427 . S
C628 H619 0.930 . S
C628 C626 1.378 . S
C628 C629 1.367 . S
C629 C628 1.367 . S
C629 C631 1.433 . S
C630 C626 1.350 . S
C630 C627 1.463 . S
C630 N634 1.427 . S
C631 H621 0.929 . S
C631 C629 1.433 . S
C631 N634 1.384 . S
C632 H623 0.929 . S
C632 C624 1.378 . S
C632 C627 1.350 . S
C633 H620 0.929 . S
C633 C625 1.433 . S
C633 N635 1.384 . S
N634 C630 1.427 . S
N634 C631 1.384 . S
N635 C627 1.427 . S
N635 C633 1.384 . S
H636 C642 0.930 . S
H637 C646 0.930 . S
H638 C651 0.929 . S
H639 C649 0.929 . S
H640 C644 0.929 . S
H641 C650 0.929 . S
C642 H636 0.930 . S
C642 C643 1.367 . S
C642 C650 1.378 . S
C643 C642 1.367 . S
C643 C651 1.433 . S
C644 H640 0.929 . S
C644 C646 1.378 . S
C644 C648 1.350 . S
C645 C648 1.463 1_456 S
C645 C650 1.350 . S
C645 N653 1.427 1_455 S
C646 H637 0.930 . S
C646 C644 1.378 . S
C646 C647 1.367 . S
C647 C646 1.367 . S
C647 C649 1.433 . S
C648 C644 1.350 . S
C648 C645 1.463 1_654 S
C648 N652 1.427 1_655 S
C649 H639 0.929 . S
C649 C647 1.433 . S
C649 N652 1.384 1_655 S
C650 H641 0.929 . S
C650 C642 1.378 . S
C650 C645 1.350 . S
C651 H638 0.929 . S
C651 C643 1.433 . S
C651 N653 1.384 1_455 S
N652 C648 1.427 1_455 S
N652 C649 1.384 1_455 S
N653 C645 1.427 1_655 S
N653 C651 1.384 1_655 S
H654 C660 0.930 . S
H655 C664 0.930 . S
H656 C669 0.929 1_565 S
H657 C667 0.929 1_545 S
H658 C662 0.929 . S
H659 C668 0.929 . S
C660 H654 0.930 . S
C660 C661 1.367 . S
C660 C668 1.378 . S
C661 C660 1.367 . S
C661 C669 1.433 . S
C662 H658 0.929 . S
C662 C664 1.378 . S
C662 C666 1.350 . S
C663 C666 1.463 1_545 S
C663 C668 1.350 . S
C663 N671 1.427 1_545 S
C664 H655 0.930 . S
C664 C662 1.378 . S
C664 C665 1.367 . S
C665 C664 1.367 . S
C665 C667 1.433 . S
C666 C662 1.350 . S
C666 C663 1.463 1_565 S
C666 N670 1.427 1_565 S
C667 H657 0.929 1_565 S
C667 C665 1.433 . S
C667 N670 1.384 1_565 S
C668 H659 0.929 . S
C668 C660 1.378 . S
C668 C663 1.350 . S
C669 H656 0.929 1_545 S
C669 C661 1.433 . S
C669 N671 1.384 1_545 S
N670 C666 1.427 1_545 S
N670 C667 1.384 1_545 S
N671 C663 1.427 1_565 S
N671 C669 1.384 1_565 S
H672 C678 0.930 . S
H673 C682 0.930 . S
H674 C687 0.929 . S
H675 C685 0.929 . S
H676 C680 0.929 . S
H677 C686 0.929 . S
C678 H672 0.930 . S
C678 C679 1.367 . S
C678 C686 1.378 . S
C679 C678 1.367 . S
C679 C687 1.433 . S
C680 H676 0.929 . S
C680 C682 1.378 . S
C680 C684 1.350 . S
C681 C684 1.463 1_554 S
C681 C686 1.350 . S
C681 N689 1.427 . S
C682 H673 0.930 . S
C682 C680 1.378 . S
C682 C683 1.367 . S
C683 C682 1.367 . S
C683 C685 1.433 . S
C684 C680 1.350 . S
C684 C681 1.463 1_556 S
C684 N688 1.427 . S
C685 H675 0.929 . S
C685 C683 1.433 . S
C685 N688 1.384 . S
C686 H677 0.929 . S
C686 C678 1.378 . S
C686 C681 1.350 . S
C687 H674 0.929 . S
C687 C679 1.433 . S
C687 N689 1.384 . S
N688 C684 1.427 . S
N688 C685 1.384 . S
N689 C681 1.427 . S
N689 C687 1.384 . S
H690 C696 0.930 . S
H691 C700 0.930 . S
H692 C705 0.929 1_655 S
H693 C703 0.929 1_455 S
H694 C698 0.929 . S
H695 C704 0.929 . S
C696 H690 0.930 . S
C696 C697 1.367 . S
C696 C704 1.378 . S
C697 C696 1.367 . S
C697 C705 1.433 . S
C698 H694 0.929 . S
C698 C700 1.378 . S
C698 C702 1.350 . S
C699 C702 1.463 1_455 S
C699 C704 1.350 . S
C699 N707 1.427 1_455 S
C700 H691 0.930 . S
C700 C698 1.378 . S
C700 C701 1.367 . S
C701 C700 1.367 . S
C701 C703 1.433 . S
C702 C698 1.350 . S
C702 C699 1.463 1_655 S
C702 N706 1.427 1_655 S
C703 H693 0.929 1_655 S
C703 C701 1.433 . S
C703 N706 1.384 1_655 S
C704 H695 0.929 . S
C704 C696 1.378 . S
C704 C699 1.350 . S
C705 H692 0.929 1_455 S
C705 C697 1.433 . S
C705 N707 1.384 1_455 S
N706 C702 1.427 1_455 S
N706 C703 1.384 1_455 S
N707 C699 1.427 1_655 S
N707 C705 1.384 1_655 S
H708 C714 0.930 . S
H709 C718 0.930 . S
H710 C723 0.929 . S
H711 C721 0.929 . S
H712 C716 0.929 . S
H713 C722 0.929 . S
C714 H708 0.930 . S
C714 C715 1.367 . S
C714 C722 1.378 . S
C715 C714 1.367 . S
C715 C723 1.433 . S
C716 H712 0.929 . S
C716 C718 1.378 . S
C716 C720 1.350 . S
C717 C720 1.463 . S
C717 C722 1.350 . S
C717 N725 1.427 . S
C718 H709 0.930 . S
C718 C716 1.378 . S
C718 C719 1.367 . S
C719 C718 1.367 . S
C719 C721 1.433 . S
C720 C716 1.350 . S
C720 C717 1.463 . S
C720 N724 1.427 . S
C721 H711 0.929 . S
C721 C719 1.433 . S
C721 N724 1.384 . S
C722 H713 0.929 . S
C722 C714 1.378 . S
C722 C717 1.350 . S
C723 H710 0.929 . S
C723 C715 1.433 . S
C723 N725 1.384 . S
N724 C720 1.427 . S
N724 C721 1.384 . S
N725 C717 1.427 . S
N725 C723 1.384 . S
H726 C732 0.930 . S
H727 C736 0.930 . S
H728 C741 0.929 . S
H729 C739 0.929 . S
H730 C734 0.929 . S
H731 C740 0.929 . S
C732 H726 0.930 . S
C732 C733 1.367 . S
C732 C740 1.378 . S
C733 C732 1.367 . S
C733 C741 1.433 . S
C734 H730 0.929 . S
C734 C736 1.378 . S
C734 C738 1.350 . S
C735 C738 1.463 . S
C735 C740 1.350 . S
C735 N743 1.427 . S
C736 H727 0.930 . S
C736 C734 1.378 . S
C736 C737 1.367 . S
C737 C736 1.367 . S
C737 C739 1.433 . S
C738 C734 1.350 . S
C738 C735 1.463 . S
C738 N742 1.427 . S
C739 H729 0.929 . S
C739 C737 1.433 . S
C739 N742 1.384 . S
C740 H731 0.929 . S
C740 C732 1.378 . S
C740 C735 1.350 . S
C741 H728 0.929 . S
C741 C733 1.433 . S
C741 N743 1.384 . S
N742 C738 1.427 . S
N742 C739 1.384 . S
N743 C735 1.427 . S
N743 C741 1.384 . S
H744 C750 0.930 . S
H745 C754 0.930 . S
H746 C759 0.929 . S
H747 C757 0.929 . S
H748 C752 0.929 . S
H749 C758 0.929 . S
C750 H744 0.930 . S
C750 C751 1.367 . S
C750 C758 1.378 . S
C751 C750 1.367 . S
C751 C759 1.433 . S
C752 H748 0.929 . S
C752 C754 1.378 . S
C752 C756 1.350 . S
C753 C756 1.463 . S
C753 C758 1.350 . S
C753 N761 1.427 . S
C754 H745 0.930 . S
C754 C752 1.378 . S
C754 C755 1.367 . S
C755 C754 1.367 . S
C755 C757 1.433 . S
C756 C752 1.350 . S
C756 C753 1.463 . S
C756 N760 1.427 . S
C757 H747 0.929 . S
C757 C755 1.433 . S
C757 N760 1.384 . S
C758 H749 0.929 . S
C758 C750 1.378 . S
C758 C753 1.350 . S
C759 H746 0.929 . S
C759 C751 1.433 . S
C759 N761 1.384 . S
N760 C756 1.427 . S
N760 C757 1.384 . S
N761 C753 1.427 . S
N761 C759 1.384 . S
H762 C768 0.930 . S
H763 C772 0.930 . S
H764 C777 0.929 . S
H765 C775 0.929 . S
H766 C770 0.929 . S
H767 C776 0.929 . S
C768 H762 0.930 . S
C768 C769 1.367 . S
C768 C776 1.378 . S
C769 C768 1.367 . S
C769 C777 1.433 . S
C770 H766 0.929 . S
C770 C772 1.378 . S
C770 C774 1.350 . S
C771 C774 1.463 . S
C771 C776 1.350 . S
C771 N779 1.427 . S
C772 H763 0.930 . S
C772 C770 1.378 . S
C772 C773 1.367 . S
C773 C772 1.367 . S
C773 C775 1.433 . S
C774 C770 1.350 . S
C774 C771 1.463 . S
C774 N778 1.427 . S
C775 H765 0.929 . S
C775 C773 1.433 . S
C775 N778 1.384 . S
C776 H767 0.929 . S
C776 C768 1.378 . S
C776 C771 1.350 . S
C777 H764 0.929 . S
C777 C769 1.433 . S
C777 N779 1.384 . S
N778 C774 1.427 . S
N778 C775 1.384 . S
N779 C771 1.427 . S
N779 C777 1.384 . S
H780 C786 0.930 . S
H781 C790 0.930 . S
H782 C795 0.929 . S
H783 C793 0.929 . S
H784 C788 0.929 . S
H785 C794 0.929 . S
C786 H780 0.930 . S
C786 C787 1.367 . S
C786 C794 1.378 . S
C787 C786 1.367 . S
C787 C795 1.433 . S
C788 H784 0.929 . S
C788 C790 1.378 . S
C788 C792 1.350 . S
C789 C792 1.463 . S
C789 C794 1.350 . S
C789 N797 1.427 . S
C790 H781 0.930 . S
C790 C788 1.378 . S
C790 C791 1.367 . S
C791 C790 1.367 . S
C791 C793 1.433 . S
C792 C788 1.350 . S
C792 C789 1.463 . S
C792 N796 1.427 . S
C793 H783 0.929 . S
C793 C791 1.433 . S
C793 N796 1.384 . S
C794 H785 0.929 . S
C794 C786 1.378 . S
C794 C789 1.350 . S
C795 H782 0.929 . S
C795 C787 1.433 . S
C795 N797 1.384 . S
N796 C792 1.427 . S
N796 C793 1.384 . S
N797 C789 1.427 . S
N797 C795 1.384 . S
H798 C804 0.930 . S
H799 C808 0.930 . S
H800 C813 0.929 . S
H801 C811 0.929 . S
H802 C806 0.929 . S
H803 C812 0.929 . S
C804 H798 0.930 . S
C804 C805 1.367 . S
C804 C812 1.378 . S
C805 C804 1.367 . S
C805 C813 1.433 . S
C806 H802 0.929 . S
C806 C808 1.378 . S
C806 C810 1.350 . S
C807 C810 1.463 . S
C807 C812 1.350 . S
C807 N815 1.427 . S
C808 H799 0.930 . S
C808 C806 1.378 . S
C808 C809 1.367 . S
C809 C808 1.367 . S
C809 C811 1.433 . S
C810 C806 1.350 . S
C810 C807 1.463 . S
C810 N814 1.427 . S
C811 H801 0.929 . S
C811 C809 1.433 . S
C811 N814 1.384 . S
C812 H803 0.929 . S
C812 C804 1.378 . S
C812 C807 1.350 . S
C813 H800 0.929 . S
C813 C805 1.433 . S
C813 N815 1.384 . S
N814 C810 1.427 . S
N814 C811 1.384 . S
N815 C807 1.427 . S
N815 C813 1.384 . S
H816 C822 0.930 . S
H817 C826 0.930 . S
H818 C831 0.929 . S
H819 C829 0.929 . S
H820 C824 0.929 . S
H821 C830 0.929 . S
C822 H816 0.930 . S
C822 C823 1.367 . S
C822 C830 1.378 . S
C823 C822 1.367 . S
C823 C831 1.433 . S
C824 H820 0.929 . S
C824 C826 1.378 . S
C824 C828 1.350 . S
C825 C828 1.463 . S
C825 C830 1.350 . S
C825 N833 1.427 . S
C826 H817 0.930 . S
C826 C824 1.378 . S
C826 C827 1.367 . S
C827 C826 1.367 . S
C827 C829 1.433 . S
C828 C824 1.350 . S
C828 C825 1.463 . S
C828 N832 1.427 . S
C829 H819 0.929 . S
C829 C827 1.433 . S
C829 N832 1.384 . S
C830 H821 0.929 . S
C830 C822 1.378 . S
C830 C825 1.350 . S
C831 H818 0.929 . S
C831 C823 1.433 . S
C831 N833 1.384 . S
N832 C828 1.427 . S
N832 C829 1.384 . S
N833 C825 1.427 . S
N833 C831 1.384 . S
H834 C840 0.930 . S
H835 C844 0.930 . S
H836 C849 0.929 . S
H837 C847 0.929 . S
H838 C842 0.929 . S
H839 C848 0.929 . S
C840 H834 0.930 . S
C840 C841 1.367 . S
C840 C848 1.378 . S
C841 C840 1.367 . S
C841 C849 1.433 . S
C842 H838 0.929 . S
C842 C844 1.378 . S
C842 C846 1.350 . S
C843 C846 1.463 . S
C843 C848 1.350 . S
C843 N851 1.427 . S
C844 H835 0.930 . S
C844 C842 1.378 . S
C844 C845 1.367 . S
C845 C844 1.367 . S
C845 C847 1.433 . S
C846 C842 1.350 . S
C846 C843 1.463 . S
C846 N850 1.427 . S
C847 H837 0.929 . S
C847 C845 1.433 . S
C847 N850 1.384 . S
C848 H839 0.929 . S
C848 C840 1.378 . S
C848 C843 1.350 . S
C849 H836 0.929 . S
C849 C841 1.433 . S
C849 N851 1.384 . S
N850 C846 1.427 . S
N850 C847 1.384 . S
N851 C843 1.427 . S
N851 C849 1.384 . S
H852 C858 0.930 . S
H853 C862 0.930 . S
H854 C867 0.929 . S
H855 C865 0.929 . S
H856 C860 0.929 . S
H857 C866 0.929 . S
C858 H852 0.930 . S
C858 C859 1.367 . S
C858 C866 1.378 . S
C859 C858 1.367 . S
C859 C867 1.433 . S
C860 H856 0.929 . S
C860 C862 1.378 . S
C860 C864 1.350 . S
C861 C864 1.463 . S
C861 C866 1.350 . S
C861 N869 1.427 . S
C862 H853 0.930 . S
C862 C860 1.378 . S
C862 C863 1.367 . S
C863 C862 1.367 . S
C863 C865 1.433 . S
C864 C860 1.350 . S
C864 C861 1.463 . S
C864 N868 1.427 . S
C865 H855 0.929 . S
C865 C863 1.433 . S
C865 N868 1.384 . S
C866 H857 0.929 . S
C866 C858 1.378 . S
C866 C861 1.350 . S
C867 H854 0.929 . S
C867 C859 1.433 . S
C867 N869 1.384 . S
N868 C864 1.427 . S
N868 C865 1.384 . S
N869 C861 1.427 . S
N869 C867 1.384 . S
H870 C876 0.930 . S
H871 C880 0.930 . S
H872 C885 0.929 . S
H873 C883 0.929 . S
H874 C878 0.929 . S
H875 C884 0.929 . S
C876 H870 0.930 . S
C876 C877 1.367 . S
C876 C884 1.378 . S
C877 C876 1.367 . S
C877 C885 1.433 . S
C878 H874 0.929 . S
C878 C880 1.378 . S
C878 C882 1.350 . S
C879 C882 1.463 . S
C879 C884 1.350 . S
C879 N887 1.427 . S
C880 H871 0.930 . S
C880 C878 1.378 . S
C880 C881 1.367 . S
C881 C880 1.367 . S
C881 C883 1.433 . S
C882 C878 1.350 . S
C882 C879 1.463 . S
C882 N886 1.427 . S
C883 H873 0.929 . S
C883 C881 1.433 . S
C883 N886 1.384 . S
C884 H875 0.929 . S
C884 C876 1.378 . S
C884 C879 1.350 . S
C885 H872 0.929 . S
C885 C877 1.433 . S
C885 N887 1.384 . S
N886 C882 1.427 . S
N886 C883 1.384 . S
N887 C879 1.427 . S
N887 C885 1.384 . S
H888 C894 0.930 . S
H889 C898 0.930 . S
H890 C903 0.929 . S
H891 C901 0.929 . S
H892 C896 0.929 . S
H893 C902 0.929 . S
C894 H888 0.930 . S
C894 C895 1.367 . S
C894 C902 1.378 . S
C895 C894 1.367 . S
C895 C903 1.433 . S
C896 H892 0.929 . S
C896 C898 1.378 . S
C896 C900 1.350 . S
C897 C900 1.463 . S
C897 C902 1.350 . S
C897 N905 1.427 . S
C898 H889 0.930 . S
C898 C896 1.378 . S
C898 C899 1.367 . S
C899 C898 1.367 . S
C899 C901 1.433 . S
C900 C896 1.350 . S
C900 C897 1.463 . S
C900 N904 1.427 . S
C901 H891 0.929 . S
C901 C899 1.433 . S
C901 N904 1.384 . S
C902 H893 0.929 . S
C902 C894 1.378 . S
C902 C897 1.350 . S
C903 H890 0.929 . S
C903 C895 1.433 . S
C903 N905 1.384 . S
N904 C900 1.427 . S
N904 C901 1.384 . S
N905 C897 1.427 . S
N905 C903 1.384 . S
H906 C912 0.930 . S
H907 C916 0.930 . S
H908 C921 0.929 . S
H909 C919 0.929 . S
H910 C914 0.929 . S
H911 C920 0.929 . S
C912 H906 0.930 . S
C912 C913 1.367 . S
C912 C920 1.378 . S
C913 C912 1.367 . S
C913 C921 1.433 . S
C914 H910 0.929 . S
C914 C916 1.378 . S
C914 C918 1.350 . S
C915 C918 1.463 . S
C915 C920 1.350 . S
C915 N923 1.427 . S
C916 H907 0.930 . S
C916 C914 1.378 . S
C916 C917 1.367 . S
C917 C916 1.367 . S
C917 C919 1.433 . S
C918 C914 1.350 . S
C918 C915 1.463 . S
C918 N922 1.427 . S
C919 H909 0.929 . S
C919 C917 1.433 . S
C919 N922 1.384 . S
C920 H911 0.929 . S
C920 C912 1.378 . S
C920 C915 1.350 . S
C921 H908 0.929 . S
C921 C913 1.433 . S
C921 N923 1.384 . S
N922 C918 1.427 . S
N922 C919 1.384 . S
N923 C915 1.427 . S
N923 C921 1.384 . S
C283 C63 0.951 . S
C287 C21 0.943 . S
C301 C86 0.878 . S
C305 C44 0.900 . S
C319 C67 0.949 . S
C323 C109 0.948 . S
C337 C90 0.880 . S
C341 C132 0.895 . S
C355 C17 0.938 . S
C359 C113 0.956 . S
C373 C40 0.897 . S
C377 C136 0.895 . S
C391 C247 0.880 . S
C395 C159 0.888 . S
C409 C182 0.951 . S
C413 C270 0.945 . S
C427 C205 0.881 . S
C431 C155 0.887 . S
C445 C228 0.944 . S
C449 C178 0.953 . S
C463 C251 0.902 . S
C467 C201 0.882 . S
C481 C224 0.940 . S
C485 C274 0.955 . S
C499 C88 1.486 . S
C503 C20 1.504 . S
C517 C42 1.496 . S
C521 C112 1.502 . S
C535 C66 1.501 . S
C539 C134 1.496 . S
C553 C157 1.489 . S
C557 C227 1.500 . S
C571 C181 1.506 . S
C575 C249 1.491 . S
C589 C203 1.490 . S
C593 C273 1.506 . S
C607 C180 1.532 . S
C611 C19 1.527 . S
C625 C43 1.545 . S
C629 C204 1.544 . S
C643 C226 1.530 . S
C647 C65 1.526 . S
C661 C89 1.545 . S
C665 C250 1.544 . S
C679 C111 1.527 . S
C683 C272 1.531 . S
C697 C158 1.545 . S
C701 C135 1.544 . S
C715 C62 1.168 . S
C719 C18 1.153 . S
C733 C41 1.188 . S
C737 C85 1.202 . S
C751 C64 1.152 . S
C755 C108 1.166 . S
C769 C87 1.183 . S
C773 C131 1.198 . S
C787 C16 1.166 . S
C791 C110 1.159 . S
C805 C39 1.201 . S
C809 C133 1.188 . S
C823 C246 1.197 . S
C827 C156 1.178 . S
C841 C179 1.160 . S
C845 C269 1.165 . S
C859 C202 1.180 . S
C863 C154 1.197 . S
C877 C177 1.168 . S
C881 C225 1.149 . S
C895 C248 1.182 . S
C899 C200 1.198 . S
C913 C271 1.154 . S
C917 C223 1.168 . S
