# Generated by pormake.
# Topology wkj, (6)-cn, num edge types: 1
# Building blocks:
#     Node 0, Type 0, BuildingBlock: LEVNOQ01_clean_sbu_1, # of connection points: 6
#     Node 1, Type 0, BuildingBlock: LEVNOQ01_clean_sbu_1, # of connection points: 6
#     Node 2, Type 0, BuildingBlock: LEVNOQ01_clean_sbu_1, # of connection points: 6
#     Node 3, Type 0, BuildingBlock: LEVNOQ01_clean_sbu_1, # of connection points: 6
#     Node 4, Type 0, BuildingBlock: LEVNOQ01_clean_sbu_1, # of connection points: 6
#     Node 5, Type 0, BuildingBlock: LEVNOQ01_clean_sbu_1, # of connection points: 6
#     Node 6, Type 0, BuildingBlock: LEVNOQ01_clean_sbu_1, # of connection points: 6
#     Node 7, Type 0, BuildingBlock: LEVNOQ01_clean_sbu_1, # of connection points: 6
#     Node 8, Type 0, BuildingBlock: LEVNOQ01_clean_sbu_1, # of connection points: 6
#     Node 9, Type 0, BuildingBlock: LEVNOQ01_clean_sbu_1, # of connection points: 6
#     Node 10, Type 0, BuildingBlock: LEVNOQ01_clean_sbu_1, # of connection points: 6
#     Node 11, Type 0, BuildingBlock: LEVNOQ01_clean_sbu_1, # of connection points: 6
#     Edge 12, Type (0, 0), BuildingBlock: XIVTED_clean_linker_0, # of connection points: 2
#     Edge 13, Type (0, 0), BuildingBlock: XIVTED_clean_linker_0, # of connection points: 2
#     Edge 14, Type (0, 0), BuildingBlock: XIVTED_clean_linker_0, # of connection points: 2
#     Edge 15, Type (0, 0), BuildingBlock: XIVTED_clean_linker_0, # of connection points: 2
#     Edge 16, Type (0, 0), BuildingBlock: XIVTED_clean_linker_0, # of connection points: 2
#     Edge 17, Type (0, 0), BuildingBlock: XIVTED_clean_linker_0, # of connection points: 2
#     Edge 18, Type (0, 0), BuildingBlock: XIVTED_clean_linker_0, # of connection points: 2
#     Edge 19, Type (0, 0), BuildingBlock: XIVTED_clean_linker_0, # of connection points: 2
#     Edge 20, Type (0, 0), BuildingBlock: XIVTED_clean_linker_0, # of connection points: 2
#     Edge 21, Type (0, 0), BuildingBlock: XIVTED_clean_linker_0, # of connection points: 2
#     Edge 22, Type (0, 0), BuildingBlock: XIVTED_clean_linker_0, # of connection points: 2
#     Edge 23, Type (0, 0), BuildingBlock: XIVTED_clean_linker_0, # of connection points: 2
#     Edge 24, Type (0, 0), BuildingBlock: XIVTED_clean_linker_0, # of connection points: 2
#     Edge 25, Type (0, 0), BuildingBlock: XIVTED_clean_linker_0, # of connection points: 2
#     Edge 26, Type (0, 0), BuildingBlock: XIVTED_clean_linker_0, # of connection points: 2
#     Edge 27, Type (0, 0), BuildingBlock: XIVTED_clean_linker_0, # of connection points: 2
#     Edge 28, Type (0, 0), BuildingBlock: XIVTED_clean_linker_0, # of connection points: 2
#     Edge 29, Type (0, 0), BuildingBlock: XIVTED_clean_linker_0, # of connection points: 2
#     Edge 30, Type (0, 0), BuildingBlock: XIVTED_clean_linker_0, # of connection points: 2
#     Edge 31, Type (0, 0), BuildingBlock: XIVTED_clean_linker_0, # of connection points: 2
#     Edge 32, Type (0, 0), BuildingBlock: XIVTED_clean_linker_0, # of connection points: 2
#     Edge 33, Type (0, 0), BuildingBlock: XIVTED_clean_linker_0, # of connection points: 2
#     Edge 34, Type (0, 0), BuildingBlock: XIVTED_clean_linker_0, # of connection points: 2
#     Edge 35, Type (0, 0), BuildingBlock: XIVTED_clean_linker_0, # of connection points: 2
#     Edge 36, Type (0, 0), BuildingBlock: XIVTED_clean_linker_0, # of connection points: 2
#     Edge 37, Type (0, 0), BuildingBlock: XIVTED_clean_linker_0, # of connection points: 2
#     Edge 38, Type (0, 0), BuildingBlock: XIVTED_clean_linker_0, # of connection points: 2
#     Edge 39, Type (0, 0), BuildingBlock: XIVTED_clean_linker_0, # of connection points: 2
#     Edge 40, Type (0, 0), BuildingBlock: XIVTED_clean_linker_0, # of connection points: 2
#     Edge 41, Type (0, 0), BuildingBlock: XIVTED_clean_linker_0, # of connection points: 2
#     Edge 42, Type (0, 0), BuildingBlock: XIVTED_clean_linker_0, # of connection points: 2
#     Edge 43, Type (0, 0), BuildingBlock: XIVTED_clean_linker_0, # of connection points: 2
#     Edge 44, Type (0, 0), BuildingBlock: XIVTED_clean_linker_0, # of connection points: 2
#     Edge 45, Type (0, 0), BuildingBlock: XIVTED_clean_linker_0, # of connection points: 2
#     Edge 46, Type (0, 0), BuildingBlock: XIVTED_clean_linker_0, # of connection points: 2
#     Edge 47, Type (0, 0), BuildingBlock: XIVTED_clean_linker_0, # of connection points: 2
# Relax obj value: 0.509
# Max RMSD: 0.239
# Mean RMSD: 0.239
data_MOF--net-wkj--node1-LEVNOQ01_clean_sbu_1--edge1-XIVTED_clean_linker_0
_symmetry_space_group_name_H-M    P1
_symmetry_Int_Tables_number       1
_symmetry_cell_setting            triclinic
loop_
_symmetry_equiv_pos_as_xyz
'x, y, z'
_cell_length_a     51.122317
_cell_length_b     51.091492
_cell_length_c     24.958573
_cell_angle_alpha  89.900607
_cell_angle_beta   90.328955
_cell_angle_gamma 120.15454
loop_
_atom_site_label
_atom_site_type_symbol
_atom_site_fract_x
_atom_site_fract_y
_atom_site_fract_z
_atom_type_partial_charge
O0 O 0.461 0.13053 0.36556 0.0
Mg1 Mg 0.42262 0.12409 0.31897 0.0
O2 O 0.47272 0.10031 0.31916 0.0
Mg3 Mg 0.43986 0.07728 0.2481 0.0
O4 O 0.43254 0.11507 0.24593 0.0
O5 O 0.43013 0.15596 0.25756 0.0
O6 O 0.40342 0.05226 0.17899 0.0
O7 O 0.47847 0.10114 0.18344 0.0
Mg8 Mg 0.44898 0.02458 0.18302 0.0
O9 O 0.44956 0.04024 0.2563 0.0
O10 O 0.4039 0.00989 0.15887 0.0
O11 O 0.48289 0.06452 0.14263 0.0
O12 O 0.45977 0.00387 0.247 0.0
C13 C 0.38104 0.05706 0.33469 0.0
C14 C 0.47727 0.11844 0.35811 0.0
C15 C 0.43759 0.14031 0.22746 0.0
C16 C 0.39163 0.02622 0.15615 0.0
C17 C 0.49076 0.09233 0.14849 0.0
C18 C 0.4573 0.02251 0.27821 0.0
O19 O 0.38261 0.08271 0.33726 0.0
O20 O 0.40054 0.05332 0.3089 0.0
O21 O 0.32236 0.47185 0.70774 0.0
Mg22 Mg 0.29136 0.43186 0.66405 0.0
O23 O 0.36364 0.48568 0.6586 0.0
Mg24 Mg 0.35279 0.45051 0.59054 0.0
O25 O 0.30651 0.44146 0.58761 0.0
O26 O 0.26063 0.4312 0.60733 0.0
O27 O 0.34166 0.41396 0.52321 0.0
O28 O 0.36658 0.48863 0.5252 0.0
Mg29 Mg 0.41655 0.46347 0.52593 0.0
O30 O 0.39893 0.4592 0.59836 0.0
O31 O 0.38566 0.42027 0.49316 0.0
O32 O 0.4121 0.50006 0.49398 0.0
O33 O 0.44474 0.467 0.5925 0.0
C34 C 0.31788 0.39256 0.68039 0.0
C35 C 0.35028 0.48987 0.69812 0.0
C36 C 0.28161 0.439 0.57211 0.0
C37 C 0.35687 0.40535 0.49497 0.0
C38 C 0.38984 0.50472 0.496 0.0
C39 C 0.4224 0.46234 0.62242 0.0
O40 O 0.2933 0.39284 0.68485 0.0
O41 O 0.33983 0.41243 0.65261 0.0
O42 O 0.8701 0.32915 0.05776 0.0
Mg43 Mg 0.8606 0.29194 0.0061 0.0
O44 O 0.87631 0.36226 0.99408 0.0
Mg45 Mg 0.89514 0.34747 0.92436 0.0
O46 O 0.85418 0.30148 0.92897 0.0
O47 O 0.816 0.27308 0.98236 0.0
O48 O 0.91575 0.33247 0.85289 0.0
O49 O 0.8711 0.36292 0.86098 0.0
Mg50 Mg 0.94867 0.40759 0.85323 0.0
O51 O 0.9345 0.3929 0.9266 0.0
O52 O 0.95802 0.37396 0.82603 0.0
O53 O 0.90803 0.40357 0.81918 0.0
O54 O 0.9731 0.43824 0.91742 0.0
C55 C 0.92101 0.31021 0.00245 0.0
C56 C 0.87163 0.3537 0.0429 0.0
C57 C 0.82608 0.29042 0.94098 0.0
C58 C 0.94039 0.3454 0.82566 0.0
C59 C 0.8801 0.38441 0.82652 0.0
C60 C 0.95396 0.4176 0.94884 0.0
O61 O 0.89716 0.28464 0.99753 0.0
O62 O 0.9217 0.33407 0.98474 0.0
O63 O 0.52017 0.85687 0.37611 0.0
Mg64 Mg 0.55567 0.85955 0.32574 0.0
O65 O 0.49449 0.86766 0.31605 0.0
Mg66 Mg 0.52835 0.8937 0.24984 0.0
O67 O 0.54204 0.85946 0.24889 0.0
O68 O 0.53956 0.81883 0.28383 0.0
O69 O 0.5639 0.92216 0.18368 0.0
O70 O 0.49144 0.86733 0.18195 0.0
Mg71 Mg 0.50734 0.93933 0.18604 0.0
O72 O 0.51522 0.92797 0.25758 0.0
O73 O 0.55031 0.95451 0.15057 0.0
O74 O 0.47283 0.89689 0.15664 0.0
O75 O 0.50285 0.96294 0.25254 0.0
C76 C 0.58806 0.92292 0.33788 0.0
C77 C 0.49699 0.85858 0.3625 0.0
C78 C 0.53 0.83065 0.24871 0.0
C79 C 0.56845 0.9443 0.15323 0.0
C80 C 0.47242 0.87178 0.15532 0.0
C81 C 0.5108 0.94733 0.28183 0.0
O82 O 0.59517 0.90263 0.33122 0.0
O83 O 0.56437 0.92055 0.31555 0.0
O84 O 0.641 0.50514 0.7146 0.0
Mg85 Mg 0.6756 0.54771 0.68493 0.0
O86 O 0.60288 0.49985 0.66223 0.0
Mg87 Mg 0.62035 0.53481 0.59137 0.0
O88 O 0.66611 0.54323 0.6064 0.0
O89 O 0.7126 0.56003 0.63332 0.0
O90 O 0.63896 0.57103 0.52179 0.0
O91 O 0.60884 0.49535 0.52849 0.0
Mg92 Mg 0.56394 0.52692 0.5072 0.0
O93 O 0.57474 0.52832 0.58391 0.0
O94 O 0.59923 0.56935 0.48018 0.0
O95 O 0.56867 0.48967 0.48148 0.0
O96 O 0.53129 0.5241 0.56378 0.0
C97 C 0.64883 0.58958 0.68588 0.0
C98 C 0.61309 0.49142 0.70167 0.0
C99 C 0.69407 0.55595 0.59477 0.0
C100 C 0.62759 0.58163 0.4882 0.0
C101 C 0.58809 0.48176 0.49267 0.0
C102 C 0.55012 0.52619 0.60026 0.0
O103 O 0.66876 0.58411 0.70476 0.0
O104 O 0.63023 0.57334 0.64932 0.0
O105 O 0.11886 0.64027 0.04364 0.0
Mg106 Mg 0.10698 0.67251 0.01768 0.0
O107 O 0.08967 0.60288 0.98692 0.0
Mg108 Mg 0.06952 0.62041 0.9203 0.0
O109 O 0.10402 0.66788 0.93775 0.0
O110 O 0.13449 0.71201 0.975 0.0
O111 O 0.0489 0.63821 0.85467 0.0
O112 O 0.09976 0.61374 0.85463 0.0
Mg113 Mg 0.02419 0.56377 0.83103 0.0
O114 O 0.03319 0.57459 0.9075 0.0
O115 O 0.01666 0.59891 0.8037 0.0
O116 O 0.06772 0.5713 0.80952 0.0
O117 O -0.00679 0.53174 0.88855 0.0
C118 C 0.03866 0.64077 0.02021 0.0
C119 C 0.10781 0.61321 0.02709 0.0
C120 C 0.12267 0.69617 0.93227 0.0
C121 C 0.02918 0.62669 0.81697 0.0
C122 C 0.09438 0.59282 0.82013 0.0
C123 C 0.00972 0.55112 0.92447 0.0
O124 O 0.06316 0.66259 0.03837 0.0
O125 O 0.038 0.62363 0.98253 0.0
O126 O 0.87436 0.52177 0.29437 0.0
Mg127 Mg 0.87024 0.54902 0.35268 0.0
O128 O 0.87539 0.4959 0.36291 0.0
Mg129 Mg 0.89265 0.53524 0.42549 0.0
O130 O 0.84621 0.53707 0.42222 0.0
O131 O 0.82804 0.53805 0.33979 0.0
O132 O 0.91188 0.57382 0.49141 0.0
O133 O 0.86926 0.49692 0.49198 0.0
Mg134 Mg 0.94537 0.53059 0.50282 0.0
O135 O 0.93495 0.53339 0.42728 0.0
O136 O 0.94929 0.57101 0.53358 0.0
O137 O 0.90583 0.49012 0.5275 0.0
O138 O 0.97673 0.53311 0.44404 0.0
C139 C 0.92151 0.59603 0.34224 0.0
C140 C 0.87256 0.49798 0.3127 0.0
C141 C 0.82504 0.53602 0.39095 0.0
C142 C 0.93384 0.5839 0.52526 0.0
C143 C 0.87805 0.48233 0.52215 0.0
C144 C 0.95898 0.53474 0.40917 0.0
O145 O 0.89684 0.59583 0.34342 0.0
O146 O 0.92282 0.5741 0.36394 0.0
O147 O 0.34357 0.88217 0.61393 0.0
Mg148 Mg 0.31289 0.88003 0.6725 0.0
O149 O 0.37162 0.88255 0.68052 0.0
Mg150 Mg 0.3535 0.90369 0.74193 0.0
O151 O 0.30543 0.85814 0.74462 0.0
O152 O 0.27975 0.83795 0.66722 0.0
O153 O 0.33632 0.92555 0.80707 0.0
O154 O 0.36982 0.88329 0.8109 0.0
Mg155 Mg 0.41178 0.96154 0.81035 0.0
O156 O 0.39818 0.94451 0.73788 0.0
O157 O 0.37631 0.96895 0.83472 0.0
O158 O 0.4111 0.92299 0.84672 0.0
O159 O 0.44181 0.98578 0.74575 0.0
C160 C 0.32237 0.93241 0.65536 0.0
C161 C 0.36537 0.87944 0.63075 0.0
C162 C 0.28337 0.83597 0.71786 0.0
C163 C 0.34792 0.95052 0.83347 0.0
C164 C 0.39264 0.89453 0.84313 0.0
C165 C 0.42232 0.96462 0.71523 0.0
O166 O 0.29635 0.91018 0.66354 0.0
O167 O 0.34512 0.93199 0.67556 0.0
O168 O 0.4599 0.32373 0.97285 0.0
Mg169 Mg 0.41816 0.29317 0.01176 0.0
O170 O 0.47327 0.36435 0.02392 0.0
Mg171 Mg 0.43646 0.35204 0.08952 0.0
O172 O 0.42615 0.30458 0.09044 0.0
O173 O 0.4138 0.25893 0.06203 0.0
O174 O 0.39856 0.33892 0.15468 0.0
O175 O 0.47345 0.36445 0.15789 0.0
Mg176 Mg 0.44745 0.41347 0.15994 0.0
O177 O 0.44465 0.39864 0.08517 0.0
O178 O 0.40431 0.38162 0.19047 0.0
O179 O 0.48403 0.40925 0.19219 0.0
O180 O 0.45077 0.44363 0.09786 0.0
C181 C 0.38173 0.32139 0.99179 0.0
C182 C 0.47814 0.35141 0.98438 0.0
C183 C 0.42195 0.27821 0.10077 0.0
C184 C 0.38959 0.35297 0.18524 0.0
C185 C 0.48895 0.3872 0.18896 0.0
C186 C 0.44701 0.42271 0.06476 0.0
O187 O 0.38026 0.296 0.98724 0.0
O188 O 0.40107 0.34193 0.02279 0.0
O189 O 0.13309 0.47007 0.30758 0.0
Mg190 Mg 0.12121 0.42812 0.34639 0.0
O191 O 0.10126 0.48088 0.35008 0.0
Mg192 Mg 0.07378 0.44433 0.41495 0.0
O193 O 0.10977 0.43404 0.42049 0.0
O194 O 0.14658 0.42464 0.41026 0.0
O195 O 0.04583 0.4059 0.47925 0.0
O196 O 0.0969 0.48077 0.48425 0.0
Mg197 Mg 0.02153 0.4546 0.47858 0.0
O198 O 0.03732 0.45481 0.40535 0.0
O199 O 0.00599 0.40967 0.50452 0.0
O200 O 0.06119 0.48849 0.51976 0.0
O201 O 0.00043 0.46431 0.41388 0.0
C202 C 0.05524 0.39056 0.3172 0.0
C203 C 0.12161 0.48692 0.31464 0.0
C204 C 0.13089 0.43132 0.44177 0.0
C205 C 0.02067 0.39563 0.50425 0.0
C206 C 0.08853 0.49438 0.51723 0.0
C207 C 0.01896 0.46157 0.38293 0.0
O208 O 0.08072 0.39186 0.31609 0.0
O209 O 0.05053 0.40815 0.34709 0.0
O210 O 0.64374 0.12401 0.61661 0.0
Mg211 Mg 0.67607 0.11723 0.65893 0.0
O212 O 0.60814 0.10377 0.67938 0.0
Mg213 Mg 0.6262 0.08635 0.74851 0.0
O214 O 0.67354 0.12682 0.7372 0.0
O215 O 0.71449 0.15336 0.68626 0.0
O216 O 0.64394 0.06815 0.81867 0.0
O217 O 0.61613 0.11547 0.81236 0.0
Mg218 Mg 0.56824 0.04246 0.83307 0.0
O219 O 0.58048 0.04681 0.75699 0.0
O220 O 0.60363 0.03868 0.86965 0.0
O221 O 0.57062 0.08432 0.84776 0.0
O222 O 0.53704 0.00821 0.78033 0.0
C223 C 0.65224 0.05345 0.65783 0.0
C224 C 0.61782 0.1171 0.63436 0.0
C225 C 0.70041 0.1498 0.73084 0.0
C226 C 0.6316 0.05048 0.85878 0.0
C227 C 0.59339 0.11065 0.84148 0.0
C228 C 0.55643 0.02251 0.74319 0.0
O229 O 0.67679 0.0772 0.6471 0.0
O230 O 0.63284 0.05467 0.68826 0.0
O231 O 0.5171 0.65164 0.96374 0.0
Mg232 Mg 0.55575 0.68107 0.01318 0.0
O233 O 0.49517 0.61249 0.01974 0.0
Mg234 Mg 0.53003 0.62279 0.08751 0.0
O235 O 0.54036 0.67094 0.08923 0.0
O236 O 0.55784 0.71674 0.05464 0.0
O237 O 0.56695 0.63343 0.15438 0.0
O238 O 0.49256 0.61202 0.15255 0.0
Mg239 Mg 0.51381 0.55962 0.1572 0.0
O240 O 0.51914 0.57531 0.08246 0.0
O241 O 0.55742 0.58915 0.18957 0.0
O242 O 0.47824 0.56619 0.18633 0.0
O243 O 0.50899 0.52887 0.09537 0.0
C244 C 0.59002 0.65245 0.00282 0.0
C245 C 0.49516 0.62553 0.97593 0.0
C246 C 0.54503 0.69803 0.0936 0.0
C247 C 0.5741 0.61771 0.18482 0.0
C248 C 0.47526 0.58942 0.18228 0.0
C249 C 0.51491 0.55047 0.06227 0.0
O250 O 0.59558 0.67939 0.00647 0.0
O251 O 0.56632 0.63102 0.02425 0.0
H252 H 0.49849 0.18049 0.2205 0.0
H253 H 0.38789 0.23459 0.17237 0.0
H254 H 0.41937 0.13472 0.1221 0.0
H255 H 0.47924 0.30418 0.13959 0.0
H256 H 0.40539 0.19864 0.18571 0.0
H257 H 0.50152 0.22891 0.20065 0.0
C258 C 0.48274 0.18084 0.19165 0.0
C259 C 0.45566 0.15401 0.17972 0.0
C260 C 0.42175 0.22204 0.17678 0.0
C261 C 0.45974 0.20771 0.15469 0.0
C262 C 0.41198 0.24277 0.17131 0.0
C263 C 0.43196 0.27133 0.15052 0.0
C264 C 0.45181 0.231 0.16414 0.0
C265 C 0.46303 0.28143 0.15234 0.0
C266 C 0.48417 0.20842 0.18155 0.0
C267 C 0.4384 0.15534 0.13761 0.0
N268 N 0.47221 0.26071 0.15583 0.0
N269 N 0.43891 0.1818 0.12961 0.0
H270 H 0.30139 0.49652 0.53718 0.0
H271 H 0.12598 0.39735 0.53017 0.0
H272 H 0.25035 0.4041 0.48602 0.0
H273 H 0.16345 0.48934 0.47947 0.0
H274 H 0.17688 0.40647 0.5475 0.0
H275 H 0.25634 0.50144 0.52569 0.0
C276 C 0.28103 0.47765 0.52047 0.0
C277 C 0.27764 0.44866 0.51949 0.0
C278 C 0.17399 0.42494 0.53341 0.0
C279 C 0.22753 0.45395 0.50572 0.0
C280 C 0.14497 0.42011 0.5255 0.0
C281 C 0.1417 0.4415 0.49594 0.0
C282 C 0.19871 0.45237 0.516 0.0
C283 C 0.16609 0.4713 0.49661 0.0
C284 C 0.25521 0.48027 0.51576 0.0
C285 C 0.25248 0.42605 0.4925 0.0
N286 N 0.19449 0.47572 0.50198 0.0
N287 N 0.22719 0.42821 0.49039 0.0
H288 H 0.76858 0.2772 0.96246 0.0
H289 H 0.75783 0.17953 0.76411 0.0
H290 H 0.83396 0.30731 0.83507 0.0
H291 H 0.67279 0.1775 0.77834 0.0
H292 H 0.78372 0.23053 0.79998 0.0
H293 H 0.72817 0.25237 0.89664 0.0
C294 C 0.77438 0.27985 0.92033 0.0
C295 C 0.80446 0.29168 0.90397 0.0
C296 C 0.75939 0.21916 0.79468 0.0
C297 C 0.759 0.26369 0.83008 0.0
C298 C 0.74465 0.18981 0.77593 0.0
C299 C 0.71342 0.17473 0.76854 0.0
C300 C 0.74276 0.2335 0.80628 0.0
C301 C 0.69705 0.18871 0.78429 0.0
C302 C 0.75122 0.26605 0.88272 0.0
C303 C 0.81094 0.29658 0.84938 0.0
N304 N 0.71202 0.21768 0.80286 0.0
N305 N 0.78811 0.28173 0.81373 0.0
H306 H 0.57033 0.74509 0.16146 0.0
H307 H 0.47616 0.78279 0.27663 0.0
H308 H 0.48471 0.67032 0.10966 0.0
H309 H 0.52764 0.83216 0.13909 0.0
H310 H 0.4608 0.73545 0.22993 0.0
H311 H 0.54481 0.7728 0.18601 0.0
C312 C 0.54592 0.734 0.15782 0.0
C313 C 0.52948 0.7058 0.13324 0.0
C314 C 0.47365 0.75657 0.20838 0.0
C315 C 0.50082 0.73769 0.15735 0.0
C316 C 0.4825 0.78367 0.23501 0.0
C317 C 0.50529 0.81082 0.21287 0.0
C318 C 0.48822 0.75766 0.16057 0.0
C319 C 0.51166 0.81122 0.15857 0.0
C320 C 0.53154 0.74999 0.17032 0.0
C321 C 0.49789 0.69228 0.12854 0.0
N322 N 0.50417 0.7846 0.1344 0.0
N323 N 0.48436 0.70881 0.13905 0.0
H324 H 0.74357 0.60881 0.56858 0.0
H325 H 0.77038 0.51836 0.34476 0.0
H326 H 0.67039 0.52743 0.4998 0.0
H327 H 0.8262 0.56546 0.48177 0.0
H328 H 0.73604 0.53696 0.36848 0.0
H329 H 0.77522 0.61305 0.49271 0.0
C330 C 0.7338 0.59259 0.53609 0.0
C331 C 0.70535 0.56663 0.54127 0.0
C332 C 0.75596 0.54327 0.39284 0.0
C333 C 0.74125 0.57061 0.45721 0.0
C334 C 0.77506 0.53216 0.38037 0.0
C335 C 0.80073 0.53994 0.41223 0.0
C336 C 0.76297 0.56254 0.43688 0.0
C337 C 0.80626 0.55834 0.45704 0.0
C338 C 0.75179 0.595 0.49296 0.0
C339 C 0.69296 0.54692 0.49781 0.0
N340 N 0.78751 0.5691 0.46798 0.0
N341 N 0.7116 0.5485 0.45798 0.0
H342 H 0.26718 0.83344 0.82183 0.0
H343 H 0.13361 0.67418 0.84127 0.0
H344 H 0.24365 0.78077 0.67594 0.0
H345 H 0.13155 0.75117 0.90659 0.0
H346 H 0.17093 0.70752 0.77538 0.0
H347 H 0.21826 0.79661 0.85884 0.0
C348 C 0.25199 0.8138 0.79811 0.0
C349 C 0.25898 0.81029 0.74564 0.0
C350 C 0.16129 0.71678 0.80276 0.0
C351 C 0.20317 0.76902 0.78659 0.0
C352 C 0.13989 0.6978 0.83986 0.0
C353 C 0.13105 0.71059 0.88031 0.0
C354 C 0.17339 0.7481 0.80777 0.0
C355 C 0.13913 0.74102 0.87693 0.0
C356 C 0.22391 0.79325 0.81862 0.0
C357 C 0.23861 0.78436 0.71643 0.0
N358 N 0.16088 0.75919 0.84229 0.0
N359 N 0.21129 0.76454 0.73732 0.0
H360 H 0.56281 0.14166 0.83502 0.0
H361 H 0.47736 0.11169 0.05694 0.0
H362 H 0.62335 0.12806 0.93608 0.0
H363 H 0.55243 0.11888 0.14783 0.0
H364 H 0.51008 0.13326 0.97968 0.0
H365 H 0.54259 0.15323 0.91407 0.0
C366 C 0.57275 0.14239 0.87383 0.0
C367 C 0.59456 0.13354 0.87898 0.0
C368 C 0.52013 0.13153 0.01671 0.0
C369 C 0.56935 0.14363 0.97075 0.0
C370 C 0.50121 0.11917 0.06116 0.0
C371 C 0.5123 0.11379 0.10888 0.0
C372 C 0.5505 0.13836 0.01976 0.0
C373 C 0.54311 0.12291 0.11179 0.0
C374 C 0.56049 0.14804 0.91948 0.0
C375 C 0.60649 0.13473 0.93029 0.0
N376 N 0.56099 0.13432 0.06769 0.0
N377 N 0.59307 0.13857 0.97424 0.0
H378 H 0.41382 0.55495 0.1807 0.0
H379 H 0.34859 0.49596 0.41767 0.0
H380 H 0.48803 0.6252 0.27005 0.0
H381 H 0.43335 0.56376 0.48579 0.0
H382 H 0.35971 0.52644 0.33657 0.0
H383 H 0.38187 0.54246 0.25931 0.0
C384 C 0.42298 0.56854 0.21658 0.0
C385 C 0.45362 0.59087 0.21921 0.0
C386 C 0.37582 0.53519 0.36925 0.0
C387 C 0.41775 0.57564 0.3112 0.0
C388 C 0.36908 0.51788 0.41618 0.0
C389 C 0.3904 0.52715 0.45789 0.0
C390 C 0.4043 0.56174 0.36407 0.0
C391 C 0.41659 0.55561 0.454 0.0
C392 C 0.40477 0.5612 0.26212 0.0
C393 C 0.46447 0.60776 0.26649 0.0
N394 N 0.42303 0.57159 0.40761 0.0
N395 N 0.44684 0.59923 0.31101 0.0
H396 H 0.86041 0.42497 0.8278 0.0
H397 H 0.86411 0.42361 0.51909 0.0
H398 H 0.85385 0.35007 0.73801 0.0
H399 H 0.84671 0.48546 0.60747 0.0
H400 H 0.84734 0.38934 0.59588 0.0
H401 H 0.84234 0.44019 0.74931 0.0
C402 C 0.85391 0.41101 0.79211 0.0
C403 C 0.85857 0.38626 0.78925 0.0
C404 C 0.84613 0.40987 0.59815 0.0
C405 C 0.83956 0.40446 0.69815 0.0
C406 C 0.85545 0.42932 0.55398 0.0
C407 C 0.85676 0.45736 0.55702 0.0
C408 C 0.83917 0.4191 0.64647 0.0
C409 C 0.84585 0.46394 0.60346 0.0
C410 C 0.84384 0.41983 0.74702 0.0
C411 C 0.85039 0.36923 0.7418 0.0
N412 N 0.83832 0.44539 0.64693 0.0
N413 N 0.84207 0.37909 0.69766 0.0
H414 H 0.35263 0.8469 0.90615 0.0
H415 H 0.49113 0.85426 0.06807 0.0
H416 H 0.44661 0.89821 0.86192 0.0
H417 H 0.41133 0.84524 0.14282 0.0
H418 H 0.46605 0.84554 0.98056 0.0
H419 H 0.36645 0.82375 0.97983 0.0
C420 C 0.37596 0.85251 0.91084 0.0
C421 C 0.3986 0.87477 0.87852 0.0
C422 C 0.45353 0.84411 0.01637 0.0
C423 C 0.4144 0.84828 0.96166 0.0
C424 C 0.46767 0.84861 0.06644 0.0
C425 C 0.45338 0.85086 0.11255 0.0
C426 C 0.42486 0.84155 0.0128 0.0
C427 C 0.42315 0.84387 0.10802 0.0
C428 C 0.38383 0.8394 0.95287 0.0
C429 C 0.42853 0.88139 0.88642 0.0
N430 N 0.41009 0.84023 0.05886 0.0
N431 N 0.43559 0.86846 0.92739 0.0
H432 H 0.54986 0.42471 0.18643 0.0
H433 H 0.54845 0.42131 0.49865 0.0
H434 H 0.47919 0.35352 0.27925 0.0
H435 H 0.62226 0.48842 0.40523 0.0
H436 H 0.53088 0.38758 0.42083 0.0
H437 H 0.58373 0.43912 0.26415 0.0
C438 C 0.5419 0.41134 0.22269 0.0
C439 C 0.51176 0.38791 0.22651 0.0
C440 C 0.55155 0.40923 0.41761 0.0
C441 C 0.5498 0.40528 0.31678 0.0
C442 C 0.56184 0.42832 0.46242 0.0
C443 C 0.58685 0.45766 0.45836 0.0
C444 C 0.56588 0.41995 0.36793 0.0
C445 C 0.60298 0.46588 0.41012 0.0
C446 C 0.56114 0.41974 0.26733 0.0
C447 C 0.50237 0.37161 0.27462 0.0
N448 N 0.59177 0.44751 0.36639 0.0
N449 N 0.52105 0.38108 0.31829 0.0
H450 H 0.11854 0.55631 0.82876 0.0
H451 H 0.11551 0.55582 0.51424 0.0
H452 H 0.12117 0.62738 0.73214 0.0
H453 H 0.10772 0.48264 0.61151 0.0
H454 H 0.13585 0.58979 0.59176 0.0
H455 H 0.13396 0.53829 0.75108 0.0
C456 C 0.12396 0.56913 0.79182 0.0
C457 C 0.1184 0.59327 0.78682 0.0
C458 C 0.13054 0.56653 0.59598 0.0
C459 C 0.13433 0.57172 0.69668 0.0
C460 C 0.11916 0.54721 0.55153 0.0
C461 C 0.10999 0.51645 0.55658 0.0
C462 C 0.13188 0.55477 0.64628 0.0
C463 C 0.11472 0.50629 0.60595 0.0
C464 C 0.13227 0.5585 0.74709 0.0
C465 C 0.12525 0.6087 0.73775 0.0
N466 N 0.12471 0.5252 0.64916 0.0
N467 N 0.13198 0.59716 0.69418 0.0
H468 H 0.30915 0.91275 0.90972 0.0
H469 H 0.37948 0.05908 0.08325 0.0
H470 H 0.34816 0.00339 0.84789 0.0
H471 H 0.34504 0.96863 0.14366 0.0
H472 H 0.34881 0.03783 0.00201 0.0
H473 H 0.30183 0.93069 0.99611 0.0
C474 C 0.31471 0.93612 0.91345 0.0
C475 C 0.32996 0.9568 0.87214 0.0
C476 C 0.34715 0.02261 0.03377 0.0
C477 C 0.32283 0.97778 0.97125 0.0
C478 C 0.36451 0.03482 0.08039 0.0
C479 C 0.36546 0.01551 0.11929 0.0
C480 C 0.33102 -0.00902 0.02617 0.0
C481 C 0.34554 0.98425 0.11372 0.0
C482 C 0.31093 0.94652 0.9631 0.0
C483 C 0.33686 0.98686 0.87925 0.0
N484 N 0.32974 0.97291 0.06743 0.0
N485 N 0.33407 -0.00334 0.92833 0.0
H486 H 0.38197 0.31146 0.26133 0.0
H487 H 0.3101 0.38983 0.42411 0.0
H488 H 0.3402 0.3593 0.19418 0.0
H489 H 0.37006 0.36047 0.48552 0.0
H490 H 0.29926 0.35647 0.3463 0.0
H491 H 0.35514 0.30585 0.34539 0.0
C492 C 0.36586 0.31932 0.26334 0.0
C493 C 0.36376 0.3365 0.22152 0.0
C494 C 0.31393 0.35648 0.3778 0.0
C495 C 0.33396 0.33119 0.31761 0.0
C496 C 0.31996 0.3754 0.4223 0.0
C497 C 0.34159 0.37839 0.46025 0.0
C498 C 0.32981 0.34076 0.37156 0.0
C499 C 0.35376 0.35924 0.45624 0.0
C500 C 0.3508 0.31645 0.31155 0.0
C501 C 0.34277 0.34639 0.22614 0.0
N502 N 0.34822 0.34172 0.41208 0.0
N503 N 0.32929 0.34435 0.27391 0.0
H504 H 0.05229 0.38171 0.57695 0.0
H505 H 0.90385 0.30837 0.74573 0.0
H506 H 0.96258 0.34998 0.51443 0.0
H507 H -0.00607 0.34738 0.811 0.0
H508 H 0.923 0.30346 0.65884 0.0
H509 H 0.03005 0.35031 0.65679 0.0
C510 C 0.02796 0.36712 0.57896 0.0
C511 C 0.00918 0.36894 0.53979 0.0
C512 C 0.93844 0.31204 0.69263 0.0
C513 C 0.98354 0.33366 0.63132 0.0
C514 C 0.92736 0.31441 0.74253 0.0
C515 C 0.94747 0.32882 0.78521 0.0
C516 C 0.96983 0.32452 0.68559 0.0
C517 C 0.97779 0.33655 0.77868 0.0
C518 C 0.01521 0.34938 0.6248 0.0
C519 C 0.97781 0.34965 0.54442 0.0
N520 N -0.01177 0.33511 0.72945 0.0
N521 N 0.96595 0.33337 0.5899 0.0
H522 H 0.61239 0.00256 0.1606 0.0
H523 H 0.63782 0.00097 0.85504 0.0
H524 H 0.58404 0.92166 0.06775 0.0
H525 H 0.66077 0.08013 0.94928 0.0
H526 H 0.63839 0.97449 0.93635 0.0
H527 H 0.64919 0.0321 0.09163 0.0
C528 C 0.61476 -0.00907 0.12632 0.0
C529 C 0.59561 0.95971 0.11991 0.0
C530 C 0.64462 -0.00192 0.93914 0.0
C531 C 0.63557 -0.00635 0.03844 0.0
C532 C 0.6448 0.01337 0.8925 0.0
C533 C 0.64902 0.04264 0.89571 0.0
C534 C 0.64809 0.01212 0.98912 0.0
C535 C 0.65741 0.05754 0.94522 0.0
C536 C 0.63548 0.00781 0.08659 0.0
C537 C 0.59878 0.94571 0.07422 0.0
N538 N 0.65579 0.04183 0.99028 0.0
N539 N 0.61778 0.96293 0.03437 0.0
H540 H 0.63321 0.63722 0.48511 0.0
H541 H 0.61905 0.60449 0.18345 0.0
H542 H 0.66252 0.58156 0.40657 0.0
H543 H 0.59141 0.66169 0.26147 0.0
H544 H 0.65421 0.61335 0.25699 0.0
H545 H 0.6391 0.6642 0.40125 0.0
C546 C 0.64247 0.63179 0.45074 0.0
C547 C 0.64676 0.60677 0.45222 0.0
C548 C 0.64128 0.62485 0.25749 0.0
C549 C 0.65173 0.63615 0.35541 0.0
C550 C 0.62129 0.61989 0.21531 0.0
C551 C 0.60209 0.63204 0.21706 0.0
C552 C 0.64117 0.64116 0.30268 0.0
C553 C 0.60577 0.65179 0.25897 0.0
C554 C 0.64543 0.64692 0.40254 0.0
C555 C 0.65862 0.60054 0.40675 0.0
N556 N 0.62427 0.65504 0.30103 0.0
N557 N 0.65966 0.61438 0.35954 0.0
H558 H 0.97738 0.62822 0.82752 0.0
H559 H -0.01517 0.63838 0.51779 0.0
H560 H 0.05832 0.66397 0.73315 0.0
H561 H 0.90387 0.5888 0.61095 0.0
H562 H 0.01066 0.6696 0.596 0.0
H563 H 0.95149 0.63652 0.75242 0.0
C564 C -0.00986 0.63933 0.79183 0.0
C565 C 0.01985 0.64516 0.78608 0.0
C566 C -0.01313 0.6528 0.59894 0.0
C567 C -0.00995 0.65324 0.69917 0.0
C568 C 0.97198 0.63523 0.55401 0.0
C569 C 0.94232 0.61081 0.55829 0.0
C570 C 0.9721 0.64532 0.64862 0.0
C571 C 0.9268 0.60738 0.60617 0.0
C572 C 0.97527 0.64375 0.74869 0.0
C573 C 0.03532 0.65911 0.73893 0.0
N574 N 0.94215 0.62381 0.65007 0.0
N575 N 0.01999 0.66188 0.69661 0.0
H576 H 0.51242 0.06258 0.3185 0.0
H577 H 0.47223 0.91761 0.36409 0.0
H578 H 0.42571 0.98826 0.36395 0.0
H579 H 0.56082 -0.00754 0.33085 0.0
H580 H 0.46697 0.94681 0.4358 0.0
H581 H 0.53615 0.04895 0.38967 0.0
C582 C 0.49821 0.04411 0.34512 0.0
C583 C 0.46737 0.02548 0.33399 0.0
C584 C 0.48825 0.95666 0.41453 0.0
C585 C 0.49459 0.00783 0.4111 0.0
C586 C 0.49127 0.93967 0.37373 0.0
C587 C 0.51605 0.95363 0.33928 0.0
C588 C 0.50841 0.98819 0.41531 0.0
C589 C 0.54034 0.98178 0.35445 0.0
C590 C 0.51173 0.03615 0.38585 0.0
C591 C 0.44987 0.00234 0.37009 0.0
N592 N 0.53569 -0.00126 0.39079 0.0
N593 N 0.46383 -0.00647 0.40636 0.0
H594 H 0.431 0.4234 0.68495 0.0
H595 H 0.54888 0.4875 0.67719 0.0
H596 H 0.42118 0.50195 0.69501 0.0
H597 H 0.53307 0.56175 0.65228 0.0
H598 H 0.51684 0.47268 0.75605 0.0
H599 H 0.46684 0.44286 0.75893 0.0
C600 C 0.43572 0.44441 0.70392 0.0
C601 C 0.42536 0.46256 0.68089 0.0
C602 C 0.52079 0.4927 0.73441 0.0
C603 C 0.47016 0.4871 0.75724 0.0
C604 C 0.53972 0.5015 0.68973 0.0
C605 C 0.54248 0.52506 0.65713 0.0
C606 C 0.50283 0.5061 0.74306 0.0
C607 C 0.53017 0.54244 0.67514 0.0
C608 C 0.45664 0.45592 0.74592 0.0
C609 C 0.43064 0.48842 0.70905 0.0
N610 N 0.51031 0.53224 0.71632 0.0
N611 N 0.45336 0.50046 0.74604 0.0
H612 H -0.00511 0.43225 0.0304 0.0
H613 H 0.95703 0.53943 0.97155 0.0
H614 H 0.90826 0.4223 0.99228 0.0
H615 H 0.04418 0.54984 0.00706 0.0
H616 H 0.9363 0.50675 0.04961 0.0
H617 H 0.00369 0.47176 0.0947 0.0
C618 C 0.97701 0.4373 0.03768 0.0
C619 C 0.95144 0.42519 0.00443 0.0
C620 C 0.96032 0.51711 0.04193 0.0
C621 C 0.96285 0.47239 0.07254 0.0
C622 C 0.97206 0.53569 0.99707 0.0
C623 C 0.00181 0.54558 0.98132 0.0
C624 C 0.97765 0.50587 0.06622 0.0
C625 C 0.02068 0.54138 0.01666 0.0
C626 C 0.98198 0.45996 0.07442 0.0
C627 C 0.92871 0.43184 0.01624 0.0
N628 N 0.00808 0.52098 0.05698 0.0
N629 N 0.93521 0.45571 0.04856 0.0
H630 H 0.06321 0.51141 0.33573 0.0
H631 H 0.92454 0.49602 0.33108 0.0
H632 H 0.97775 0.43192 0.30282 0.0
H633 H 0.01044 0.57606 0.35811 0.0
H634 H 0.94467 0.48459 0.25244 0.0
H635 H 0.05148 0.53937 0.27045 0.0
C636 C 0.04283 0.49929 0.31197 0.0
C637 C 0.02081 0.46993 0.32636 0.0
C638 C 0.95901 0.50553 0.27376 0.0
C639 C 0.00534 0.50264 0.25823 0.0
C640 C 0.94707 0.51225 0.31836 0.0
C641 C 0.96601 0.53635 0.35184 0.0
C642 C -0.00935 0.52118 0.26705 0.0
C643 C -0.0045 0.55626 0.33458 0.0
C644 C 0.03569 0.51538 0.27511 0.0
C645 C -0.0054 0.45527 0.29493 0.0
N646 N 0.00727 0.54786 0.29393 0.0
N647 N -0.01294 0.47204 0.26301 0.0
H648 H 0.42731 0.91814 0.67658 0.0
H649 H 0.55745 0.0531 0.65341 0.0
H650 H 0.43917 0.00469 0.63163 0.0
H651 H 0.54025 0.96604 0.7078 0.0
H652 H 0.5244 0.02888 0.57637 0.0
H653 H 0.46441 0.92411 0.61081 0.0
C654 C 0.43615 0.93754 0.65028 0.0
C655 C 0.43073 0.9613 0.66063 0.0
C656 C 0.52896 0.01506 0.60353 0.0
C657 C 0.47741 0.97071 0.59339 0.0
C658 C 0.54797 0.02905 0.64752 0.0
C659 C 0.54998 0.01124 0.68806 0.0
C660 C 0.51034 0.98331 0.60358 0.0
C661 C 0.53757 0.98027 0.67866 0.0
C662 C 0.45803 0.94136 0.61303 0.0
C663 C 0.44396 0.98647 0.62673 0.0
N664 N 0.51779 0.96707 0.63753 0.0
N665 N 0.46746 -0.00901 0.59523 0.0
H666 H 0.48043 0.55529 0.98297 0.0
H667 H 0.41067 0.43849 0.01041 0.0
H668 H 0.55042 0.53347 0.00931 0.0
H669 H 0.48145 0.41801 0.98629 0.0
H670 H 0.42817 0.47166 0.93327 0.0
H671 H 0.46116 0.51936 0.90855 0.0
C672 C 0.49254 0.54388 0.97159 0.0
C673 C 0.51551 0.54542 0.00452 0.0
C674 C 0.43987 0.45961 0.94344 0.0
C675 C 0.49151 0.50196 0.92504 0.0
C676 C 0.42955 0.44039 0.98769 0.0
C677 C 0.44633 0.42756 0.0069 0.0
C678 C 0.46913 0.46883 0.92407 0.0
C679 C 0.46932 0.42929 0.97451 0.0
C680 C 0.48126 0.52289 0.92954 0.0
C681 C 0.53116 0.53115 0.98691 0.0
N682 N 0.48083 0.45052 0.93511 0.0
N683 N 0.51841 0.50929 0.94888 0.0
H684 H 0.36713 0.94994 0.58392 0.0
H685 H 0.34243 0.05888 0.40913 0.0
H686 H 0.28745 0.9558 0.6175 0.0
H687 H 0.37152 -0.00037 0.34289 0.0
H688 H 0.32104 0.02461 0.48567 0.0
H689 H 0.37162 0.97394 0.49803 0.0
C690 C 0.35091 0.95692 0.57366 0.0
C691 C 0.32712 0.95133 0.60807 0.0
C692 C 0.33131 0.01879 0.45345 0.0
C693 C 0.33197 0.97849 0.50921 0.0
C694 C 0.34355 0.03827 0.40974 0.0
C695 C 0.3598 0.03265 0.3705 0.0
C696 C 0.3358 -0.006 0.45775 0.0
C697 C 0.36004 0.00537 0.37296 0.0
C698 C 0.35316 0.97008 0.52415 0.0
C699 C 0.30626 0.96009 0.59202 0.0
N700 N 0.34897 0.98745 0.41668 0.0
N701 N 0.30939 0.97377 0.54365 0.0
H702 H 0.40447 0.37606 0.94531 0.0
H703 H 0.27693 0.34632 0.74409 0.0
H704 H 0.3273 0.28556 0.94133 0.0
H705 H 0.37121 0.39428 0.69925 0.0
H706 H 0.28982 0.32502 0.82114 0.0
H707 H 0.38683 0.38765 0.86281 0.0
C708 C 0.38326 0.35895 0.92799 0.0
C709 C 0.36711 0.32994 0.95024 0.0
C710 C 0.30742 0.33971 0.79356 0.0
C711 C 0.34729 0.34279 0.85546 0.0
C712 C 0.30018 0.35182 0.74966 0.0
C713 C 0.32323 0.37282 0.71619 0.0
C714 C 0.33783 0.34925 0.80408 0.0
C715 C 0.35285 0.37877 0.72471 0.0
C716 C 0.37359 0.36536 0.88039 0.0
C717 C 0.34022 0.30824 0.92523 0.0
N718 N 0.35946 0.36768 0.76876 0.0
N719 N 0.33094 0.31514 0.87888 0.0
H720 H 0.98269 0.33562 0.00479 0.0
H721 H -0.00307 0.37919 0.30559 0.0
H722 H 0.90326 0.29617 0.10422 0.0
H723 H 0.06195 0.35894 0.23566 0.0
H724 H 0.96305 0.35396 0.22931 0.0
H725 H 0.01438 0.34985 0.08639 0.0
C726 C 0.97206 0.3294 0.04375 0.0
C727 C 0.94056 0.31422 0.04832 0.0
C728 C 0.98458 0.3547 0.23145 0.0
C729 C 0.97606 0.33148 0.1405 0.0
C730 C 0.00387 0.36902 0.27486 0.0
C731 C 0.03236 0.37129 0.27697 0.0
C732 C -0.00578 0.34326 0.18964 0.0
C733 C 0.04025 0.35784 0.23572 0.0
C734 C -0.01003 0.33754 0.09002 0.0
C735 C 0.92757 0.30726 0.09944 0.0
N736 N 0.0215 0.34487 0.1932 0.0
N737 N 0.9454 0.31644 0.14375 0.0
H738 H 0.59547 0.00711 0.63668 0.0
H739 H 0.64472 0.94688 0.38336 0.0
H740 H 0.68904 0.03952 0.59982 0.0
H741 H 0.5584 0.94175 0.40206 0.0
H742 H 0.66094 0.97345 0.47003 0.0
H743 H 0.58043 0.97252 0.56087 0.0
C744 C 0.61281 0.00626 0.6137 0.0
C745 C 0.64343 0.02657 0.62402 0.0
C746 C 0.63855 0.96664 0.45469 0.0
C747 C 0.62663 0.98763 0.53631 0.0
C748 C 0.62945 0.95181 0.40521 0.0
C749 C 0.60049 0.94284 0.38495 0.0
C750 C 0.61822 0.97174 0.48425 0.0
C751 C 0.58127 0.94917 0.4152 0.0
C752 C 0.60428 0.98682 0.56988 0.0
C753 C 0.66511 0.02455 0.59264 0.0
N754 N 0.59042 0.96305 0.46336 0.0
N755 N 0.6563 0.00574 0.54955 0.0
H756 H 0.56855 0.59857 0.95174 0.0
H757 H 0.69016 0.64108 0.73751 0.0
H758 H 0.64347 0.6906 0.95283 0.0
H759 H 0.59487 0.58619 0.70194 0.0
H760 H 0.67785 0.66208 0.81517 0.0
H761 H 0.58362 0.59157 0.86327 0.0
C762 C 0.58862 0.61709 0.934 0.0
C763 C 0.60451 0.64538 0.95917 0.0
C764 C 0.65979 0.64613 0.78929 0.0
C765 C 0.6213 0.63769 0.85772 0.0
C766 C 0.66674 0.6343 0.74503 0.0
C767 C 0.64335 0.61108 0.71503 0.0
C768 C 0.6294 0.63387 0.80347 0.0
C769 C 0.61347 0.6035 0.72511 0.0
C770 C 0.59675 0.61328 0.88303 0.0
C771 C 0.63043 0.66855 0.93424 0.0
N772 N 0.60719 0.61407 0.76996 0.0
N773 N 0.63807 0.66424 0.88441 0.0
H774 H 0.00979 0.67217 0.04013 0.0
H775 H 0.97608 0.60062 0.32517 0.0
H776 H 0.01011 0.58998 0.07792 0.0
H777 H 0.91677 0.63111 0.26379 0.0
H778 H 0.00041 0.61056 0.23784 0.0
H779 H 0.98104 0.66611 0.12252 0.0
C780 C 0.00266 0.65225 0.06475 0.0
C781 C 0.01199 0.63142 0.05279 0.0
C782 C 0.98229 0.6154 0.24394 0.0
C783 C 0.98168 0.62573 0.14722 0.0
C784 C 0.96874 0.61017 0.29379 0.0
C785 C 0.94362 0.61382 0.30082 0.0
C786 C 0.97103 0.62503 0.20165 0.0
C787 C 0.93563 0.62726 0.25947 0.0
C788 C -0.0132 0.64909 0.11179 0.0
C789 C 0.00289 0.60623 0.08583 0.0
N790 N 0.949 0.63192 0.21085 0.0
N791 N -0.0111 0.6045 0.13263 0.0
H792 H 0.47501 0.07166 0.40979 0.0
H793 H 0.60859 0.16519 0.61892 0.0
H794 H 0.52357 0.16906 0.40767 0.0
H795 H 0.58094 0.07497 0.56454 0.0
H796 H 0.57355 0.1676 0.55284 0.0
H797 H 0.50869 0.07249 0.47997 0.0
C798 C 0.49341 0.09324 0.42339 0.0
C799 C 0.49768 0.12023 0.40132 0.0
C800 C 0.57506 0.14725 0.55591 0.0
C801 C 0.53571 0.12161 0.48298 0.0
C802 C 0.5948 0.14583 0.59352 0.0
C803 C 0.5967 0.11947 0.59767 0.0
C804 C 0.55725 0.12199 0.52315 0.0
C805 C 0.57919 0.09522 0.56348 0.0
C806 C 0.51237 0.09377 0.46383 0.0
C807 C 0.52027 0.14777 0.42296 0.0
N808 N 0.56004 0.09696 0.52794 0.0
N809 N 0.5388 0.14783 0.46259 0.0
H810 H 0.4037 0.54278 0.68143 0.0
H811 H 0.44103 0.57312 0.99136 0.0
H812 H 0.33834 0.49216 0.80399 0.0
H813 H 0.49235 0.63996 0.87088 0.0
H814 H 0.40302 0.54321 0.92346 0.0
H815 H 0.43639 0.57908 0.74975 0.0
C816 C 0.39609 0.53951 0.7226 0.0
C817 C 0.3684 0.51427 0.7371 0.0
C818 C 0.4224 0.56462 0.91203 0.0
C819 C 0.4058 0.55543 0.81552 0.0
C820 C 0.44419 0.58168 0.95077 0.0
C821 C 0.47019 0.60895 0.93676 0.0
C822 C 0.42669 0.57472 0.8587 0.0
C823 C 0.47284 0.61899 0.88354 0.0
C824 C 0.41471 0.56024 0.76156 0.0
C825 C 0.35952 0.51127 0.79098 0.0
N826 N 0.45158 0.6017 0.84634 0.0
N827 N 0.37836 0.53131 0.82835 0.0
H828 H 0.85338 0.39502 0.02708 0.0
H829 H 0.87215 0.44501 0.33525 0.0
H830 H 0.88163 0.35518 0.1507 0.0
H831 H 0.86309 0.49568 0.20493 0.0
H832 H 0.86878 0.40743 0.2704 0.0
H833 H 0.84996 0.42784 0.09432 0.0
C834 C 0.85891 0.39325 0.0684 0.0
C835 C 0.86822 0.37272 0.08331 0.0
C836 C 0.86739 0.42673 0.2562 0.0
C837 C 0.86411 0.40992 0.16046 0.0
C838 C 0.86922 0.44811 0.29315 0.0
C839 C 0.86826 0.47369 0.27542 0.0
C840 C 0.86419 0.43085 0.20137 0.0
C841 C 0.86426 0.47649 0.22043 0.0
C842 C 0.85688 0.4119 0.10677 0.0
C843 C 0.87447 0.37083 0.13754 0.0
N844 N 0.86247 0.45541 0.18541 0.0
N845 N 0.87248 0.38935 0.1742 0.0
H846 H 0.50002 0.85242 0.47142 0.0
H847 H 0.36616 0.88537 0.52262 0.0
H848 H 0.4422 0.85452 0.34667 0.0
H849 H 0.40527 0.85917 0.65088 0.0
H850 H 0.39544 0.87519 0.45835 0.0
H851 H 0.46613 0.85406 0.53857 0.0
C852 C 0.47995 0.85268 0.4581 0.0
C853 C 0.47419 0.85383 0.40328 0.0
C854 C 0.39746 0.87133 0.50046 0.0
C855 C 0.43572 0.85612 0.47977 0.0
C856 C 0.38076 0.8772 0.53727 0.0
C857 C 0.38321 0.87301 0.59219 0.0
C858 C 0.4169 0.86122 0.51849 0.0
C859 C 0.40279 0.86275 0.60884 0.0
C860 C 0.46071 0.85374 0.49648 0.0
C861 C 0.44781 0.85405 0.38842 0.0
N862 N 0.41905 0.8573 0.57205 0.0
N863 N 0.4298 0.85561 0.42643 0.0
H864 H 0.58942 0.50335 0.78759 0.0
H865 H 0.49044 0.33401 0.88801 0.0
H866 H 0.59031 0.43 0.70451 0.0
H867 H 0.52319 0.411 0.99398 0.0
H868 H 0.5243 0.36725 0.8183 0.0
H869 H 0.55994 0.46846 0.85961 0.0
C870 C 0.58298 0.4797 0.78439 0.0
C871 C 0.59187 0.46928 0.74018 0.0
C872 C 0.52415 0.37679 0.85693 0.0
C873 C 0.55881 0.42942 0.82257 0.0
C874 C 0.50491 0.35784 0.89695 0.0
C875 C 0.50304 0.3699 0.94647 0.0
C876 C 0.54135 0.40806 0.86622 0.0
C877 C 0.52288 0.40085 0.9558 0.0
C878 C 0.56651 0.45992 0.82566 0.0
C879 C 0.58344 0.43864 0.73786 0.0
N880 N 0.54073 0.41896 0.9157 0.0
N881 N 0.5672 0.41964 0.77854 0.0
H882 H 0.11444 0.53627 0.32545 0.0
H883 H 0.14946 0.59413 0.02415 0.0
H884 H 0.14476 0.49306 0.21347 0.0
H885 H 0.0746 0.58723 0.11415 0.0
H886 H 0.15863 0.56639 0.09639 0.0
H887 H 0.1126 0.56735 0.25227 0.0
C888 C 0.12076 0.53339 0.28554 0.0
C889 C 0.1283 0.51108 0.27504 0.0
C890 C 0.14004 0.57074 0.09977 0.0
C891 C 0.12733 0.54715 0.19176 0.0
C892 C 0.13466 0.58618 0.05857 0.0
C893 C 0.11094 0.59231 0.06327 0.0
C894 C 0.12209 0.56241 0.14608 0.0
C895 C 0.09285 0.58249 0.10907 0.0
C896 C 0.11987 0.55118 0.24395 0.0
C897 C 0.13816 0.50958 0.22317 0.0
N898 N 0.09893 0.56825 0.14894 0.0
N899 N 0.13707 0.52714 0.18315 0.0
loop_
_geom_bond_atom_site_label_1
_geom_bond_atom_site_label_2
_geom_bond_distance
_geom_bond_site_symmetry_2
_ccdc_geom_bond_type
O0 Mg1 1.990 . S
O0 C14 1.253 . S
Mg1 O0 1.990 . S
Mg1 O4 2.180 . S
Mg1 O5 2.117 . S
Mg1 O19 2.030 . S
O2 Mg3 2.072 . S
O2 C14 1.260 . S
Mg3 O2 2.072 . S
Mg3 O4 2.099 . S
Mg3 O6 2.079 . S
Mg3 O7 2.072 . S
Mg3 O9 2.099 . S
Mg3 O20 2.079 . S
O4 Mg1 2.180 . S
O4 Mg3 2.099 . S
O4 C15 1.279 . S
O5 Mg1 2.117 . S
O5 C15 1.250 . S
O6 Mg3 2.079 . S
O6 C16 1.264 . S
O7 Mg3 2.072 . S
O7 C17 1.260 . S
Mg8 O9 2.180 . S
Mg8 O10 2.030 . S
Mg8 O11 1.990 . S
Mg8 O12 2.117 . S
O9 Mg3 2.099 . S
O9 Mg8 2.180 . S
O9 C18 1.279 . S
O10 Mg8 2.030 . S
O10 C16 1.248 . S
O11 Mg8 1.990 . S
O11 C17 1.253 . S
O12 Mg8 2.117 . S
O12 C18 1.250 . S
C13 O19 1.248 . S
C13 O20 1.264 . S
C14 O0 1.253 . S
C14 O2 1.260 . S
C15 O4 1.279 . S
C15 O5 1.250 . S
C16 O6 1.264 . S
C16 O10 1.248 . S
C17 O7 1.260 . S
C17 O11 1.253 . S
C18 O9 1.279 . S
C18 O12 1.250 . S
O19 Mg1 2.030 . S
O19 C13 1.248 . S
O20 Mg3 2.079 . S
O20 C13 1.264 . S
O21 Mg22 1.990 . S
O21 C35 1.253 . S
Mg22 O21 1.990 . S
Mg22 O25 2.180 . S
Mg22 O26 2.117 . S
Mg22 O40 2.030 . S
O23 Mg24 2.072 . S
O23 C35 1.260 . S
Mg24 O23 2.072 . S
Mg24 O25 2.099 . S
Mg24 O27 2.079 . S
Mg24 O28 2.072 . S
Mg24 O30 2.099 . S
Mg24 O41 2.079 . S
O25 Mg22 2.180 . S
O25 Mg24 2.099 . S
O25 C36 1.279 . S
O26 Mg22 2.117 . S
O26 C36 1.250 . S
O27 Mg24 2.079 . S
O27 C37 1.264 . S
O28 Mg24 2.072 . S
O28 C38 1.260 . S
Mg29 O30 2.180 . S
Mg29 O31 2.030 . S
Mg29 O32 1.990 . S
Mg29 O33 2.117 . S
O30 Mg24 2.099 . S
O30 Mg29 2.180 . S
O30 C39 1.279 . S
O31 Mg29 2.030 . S
O31 C37 1.248 . S
O32 Mg29 1.990 . S
O32 C38 1.253 . S
O33 Mg29 2.117 . S
O33 C39 1.250 . S
C34 O40 1.248 . S
C34 O41 1.264 . S
C35 O21 1.253 . S
C35 O23 1.260 . S
C36 O25 1.279 . S
C36 O26 1.250 . S
C37 O27 1.264 . S
C37 O31 1.248 . S
C38 O28 1.260 . S
C38 O32 1.253 . S
C39 O30 1.279 . S
C39 O33 1.250 . S
O40 Mg22 2.030 . S
O40 C34 1.248 . S
O41 Mg24 2.079 . S
O41 C34 1.264 . S
O42 Mg43 1.990 . S
O42 C56 1.253 . S
Mg43 O42 1.990 . S
Mg43 O46 2.180 1_554 S
Mg43 O47 2.117 1_554 S
Mg43 O61 2.030 . S
O44 Mg45 2.072 . S
O44 C56 1.260 1_556 S
Mg45 O44 2.072 . S
Mg45 O46 2.099 . S
Mg45 O48 2.079 . S
Mg45 O49 2.072 . S
Mg45 O51 2.099 . S
Mg45 O62 2.079 . S
O46 Mg43 2.180 1_556 S
O46 Mg45 2.099 . S
O46 C57 1.279 . S
O47 Mg43 2.117 1_556 S
O47 C57 1.250 . S
O48 Mg45 2.079 . S
O48 C58 1.264 . S
O49 Mg45 2.072 . S
O49 C59 1.260 . S
Mg50 O51 2.180 . S
Mg50 O52 2.030 . S
Mg50 O53 1.990 . S
Mg50 O54 2.117 . S
O51 Mg45 2.099 . S
O51 Mg50 2.180 . S
O51 C60 1.279 . S
O52 Mg50 2.030 . S
O52 C58 1.248 . S
O53 Mg50 1.990 . S
O53 C59 1.253 . S
O54 Mg50 2.117 . S
O54 C60 1.250 . S
C55 O61 1.248 . S
C55 O62 1.264 1_554 S
C56 O42 1.253 . S
C56 O44 1.260 1_554 S
C57 O46 1.279 . S
C57 O47 1.250 . S
C58 O48 1.264 . S
C58 O52 1.248 . S
C59 O49 1.260 . S
C59 O53 1.253 . S
C60 O51 1.279 . S
C60 O54 1.250 . S
O61 Mg43 2.030 . S
O61 C55 1.248 . S
O62 Mg45 2.079 . S
O62 C55 1.264 1_556 S
O63 Mg64 1.990 . S
O63 C77 1.253 . S
Mg64 O63 1.990 . S
Mg64 O67 2.180 . S
Mg64 O68 2.117 . S
Mg64 O82 2.030 . S
O65 Mg66 2.072 . S
O65 C77 1.260 . S
Mg66 O65 2.072 . S
Mg66 O67 2.099 . S
Mg66 O69 2.079 . S
Mg66 O70 2.072 . S
Mg66 O72 2.099 . S
Mg66 O83 2.079 . S
O67 Mg64 2.180 . S
O67 Mg66 2.099 . S
O67 C78 1.279 . S
O68 Mg64 2.117 . S
O68 C78 1.250 . S
O69 Mg66 2.079 . S
O69 C79 1.264 . S
O70 Mg66 2.072 . S
O70 C80 1.260 . S
Mg71 O72 2.180 . S
Mg71 O73 2.030 . S
Mg71 O74 1.990 . S
Mg71 O75 2.117 . S
O72 Mg66 2.099 . S
O72 Mg71 2.180 . S
O72 C81 1.279 . S
O73 Mg71 2.030 . S
O73 C79 1.248 . S
O74 Mg71 1.990 . S
O74 C80 1.253 . S
O75 Mg71 2.117 . S
O75 C81 1.250 . S
C76 O82 1.248 . S
C76 O83 1.264 . S
C77 O63 1.253 . S
C77 O65 1.260 . S
C78 O67 1.279 . S
C78 O68 1.250 . S
C79 O69 1.264 . S
C79 O73 1.248 . S
C80 O70 1.260 . S
C80 O74 1.253 . S
C81 O72 1.279 . S
C81 O75 1.250 . S
O82 Mg64 2.030 . S
O82 C76 1.248 . S
O83 Mg66 2.079 . S
O83 C76 1.264 . S
O84 Mg85 1.990 . S
O84 C98 1.253 . S
Mg85 O84 1.990 . S
Mg85 O88 2.180 . S
Mg85 O89 2.117 . S
Mg85 O103 2.030 . S
O86 Mg87 2.072 . S
O86 C98 1.260 . S
Mg87 O86 2.072 . S
Mg87 O88 2.099 . S
Mg87 O90 2.079 . S
Mg87 O91 2.072 . S
Mg87 O93 2.099 . S
Mg87 O104 2.079 . S
O88 Mg85 2.180 . S
O88 Mg87 2.099 . S
O88 C99 1.279 . S
O89 Mg85 2.117 . S
O89 C99 1.250 . S
O90 Mg87 2.079 . S
O90 C100 1.264 . S
O91 Mg87 2.072 . S
O91 C101 1.260 . S
Mg92 O93 2.180 . S
Mg92 O94 2.030 . S
Mg92 O95 1.990 . S
Mg92 O96 2.117 . S
O93 Mg87 2.099 . S
O93 Mg92 2.180 . S
O93 C102 1.279 . S
O94 Mg92 2.030 . S
O94 C100 1.248 . S
O95 Mg92 1.990 . S
O95 C101 1.253 . S
O96 Mg92 2.117 . S
O96 C102 1.250 . S
C97 O103 1.248 . S
C97 O104 1.264 . S
C98 O84 1.253 . S
C98 O86 1.260 . S
C99 O88 1.279 . S
C99 O89 1.250 . S
C100 O90 1.264 . S
C100 O94 1.248 . S
C101 O91 1.260 . S
C101 O95 1.253 . S
C102 O93 1.279 . S
C102 O96 1.250 . S
O103 Mg85 2.030 . S
O103 C97 1.248 . S
O104 Mg87 2.079 . S
O104 C97 1.264 . S
O105 Mg106 1.990 . S
O105 C119 1.253 . S
Mg106 O105 1.990 . S
Mg106 O109 2.180 1_554 S
Mg106 O110 2.117 1_554 S
Mg106 O124 2.030 . S
O107 Mg108 2.072 . S
O107 C119 1.260 1_556 S
Mg108 O107 2.072 . S
Mg108 O109 2.099 . S
Mg108 O111 2.079 . S
Mg108 O112 2.072 . S
Mg108 O114 2.099 . S
Mg108 O125 2.079 . S
O109 Mg106 2.180 1_556 S
O109 Mg108 2.099 . S
O109 C120 1.279 . S
O110 Mg106 2.117 1_556 S
O110 C120 1.250 . S
O111 Mg108 2.079 . S
O111 C121 1.264 . S
O112 Mg108 2.072 . S
O112 C122 1.260 . S
Mg113 O114 2.180 . S
Mg113 O115 2.030 . S
Mg113 O116 1.990 . S
Mg113 O117 2.117 . S
O114 Mg108 2.099 . S
O114 Mg113 2.180 . S
O114 C123 1.279 . S
O115 Mg113 2.030 . S
O115 C121 1.248 . S
O116 Mg113 1.990 . S
O116 C122 1.253 . S
O117 Mg113 2.117 . S
O117 C123 1.250 . S
C118 O124 1.248 . S
C118 O125 1.264 1_554 S
C119 O105 1.253 . S
C119 O107 1.260 1_554 S
C120 O109 1.279 . S
C120 O110 1.250 . S
C121 O111 1.264 . S
C121 O115 1.248 . S
C122 O112 1.260 . S
C122 O116 1.253 . S
C123 O114 1.279 . S
C123 O117 1.250 . S
O124 Mg106 2.030 . S
O124 C118 1.248 . S
O125 Mg108 2.079 . S
O125 C118 1.264 1_556 S
O126 Mg127 1.990 . S
O126 C140 1.253 . S
Mg127 O126 1.990 . S
Mg127 O130 2.180 . S
Mg127 O131 2.117 . S
Mg127 O145 2.030 . S
O128 Mg129 2.072 . S
O128 C140 1.260 . S
Mg129 O128 2.072 . S
Mg129 O130 2.099 . S
Mg129 O132 2.079 . S
Mg129 O133 2.072 . S
Mg129 O135 2.099 . S
Mg129 O146 2.079 . S
O130 Mg127 2.180 . S
O130 Mg129 2.099 . S
O130 C141 1.279 . S
O131 Mg127 2.117 . S
O131 C141 1.250 . S
O132 Mg129 2.079 . S
O132 C142 1.264 . S
O133 Mg129 2.072 . S
O133 C143 1.260 . S
Mg134 O135 2.180 . S
Mg134 O136 2.030 . S
Mg134 O137 1.990 . S
Mg134 O138 2.117 . S
O135 Mg129 2.099 . S
O135 Mg134 2.180 . S
O135 C144 1.279 . S
O136 Mg134 2.030 . S
O136 C142 1.248 . S
O137 Mg134 1.990 . S
O137 C143 1.253 . S
O138 Mg134 2.117 . S
O138 C144 1.250 . S
C139 O145 1.248 . S
C139 O146 1.264 . S
C140 O126 1.253 . S
C140 O128 1.260 . S
C141 O130 1.279 . S
C141 O131 1.250 . S
C142 O132 1.264 . S
C142 O136 1.248 . S
C143 O133 1.260 . S
C143 O137 1.253 . S
C144 O135 1.279 . S
C144 O138 1.250 . S
O145 Mg127 2.030 . S
O145 C139 1.248 . S
O146 Mg129 2.079 . S
O146 C139 1.264 . S
O147 Mg148 1.990 . S
O147 C161 1.253 . S
Mg148 O147 1.990 . S
Mg148 O151 2.180 . S
Mg148 O152 2.117 . S
Mg148 O166 2.030 . S
O149 Mg150 2.072 . S
O149 C161 1.260 . S
Mg150 O149 2.072 . S
Mg150 O151 2.099 . S
Mg150 O153 2.079 . S
Mg150 O154 2.072 . S
Mg150 O156 2.099 . S
Mg150 O167 2.079 . S
O151 Mg148 2.180 . S
O151 Mg150 2.099 . S
O151 C162 1.279 . S
O152 Mg148 2.117 . S
O152 C162 1.250 . S
O153 Mg150 2.079 . S
O153 C163 1.264 . S
O154 Mg150 2.072 . S
O154 C164 1.260 . S
Mg155 O156 2.180 . S
Mg155 O157 2.030 . S
Mg155 O158 1.990 . S
Mg155 O159 2.117 . S
O156 Mg150 2.099 . S
O156 Mg155 2.180 . S
O156 C165 1.279 . S
O157 Mg155 2.030 . S
O157 C163 1.248 . S
O158 Mg155 1.990 . S
O158 C164 1.253 . S
O159 Mg155 2.117 . S
O159 C165 1.250 . S
C160 O166 1.248 . S
C160 O167 1.264 . S
C161 O147 1.253 . S
C161 O149 1.260 . S
C162 O151 1.279 . S
C162 O152 1.250 . S
C163 O153 1.264 . S
C163 O157 1.248 . S
C164 O154 1.260 . S
C164 O158 1.253 . S
C165 O156 1.279 . S
C165 O159 1.250 . S
O166 Mg148 2.030 . S
O166 C160 1.248 . S
O167 Mg150 2.079 . S
O167 C160 1.264 . S
O168 Mg169 1.990 . S
O168 C182 1.253 . S
Mg169 O168 1.990 . S
Mg169 O172 2.180 1_556 S
Mg169 O173 2.117 1_556 S
Mg169 O187 2.030 . S
O170 Mg171 2.072 . S
O170 C182 1.260 1_554 S
Mg171 O170 2.072 . S
Mg171 O172 2.099 . S
Mg171 O174 2.079 . S
Mg171 O175 2.072 . S
Mg171 O177 2.099 . S
Mg171 O188 2.079 . S
O172 Mg169 2.180 1_554 S
O172 Mg171 2.099 . S
O172 C183 1.279 . S
O173 Mg169 2.117 1_554 S
O173 C183 1.250 . S
O174 Mg171 2.079 . S
O174 C184 1.264 . S
O175 Mg171 2.072 . S
O175 C185 1.260 . S
Mg176 O177 2.180 . S
Mg176 O178 2.030 . S
Mg176 O179 1.990 . S
Mg176 O180 2.117 . S
O177 Mg171 2.099 . S
O177 Mg176 2.180 . S
O177 C186 1.279 . S
O178 Mg176 2.030 . S
O178 C184 1.248 . S
O179 Mg176 1.990 . S
O179 C185 1.253 . S
O180 Mg176 2.117 . S
O180 C186 1.250 . S
C181 O187 1.248 . S
C181 O188 1.264 1_556 S
C182 O168 1.253 . S
C182 O170 1.260 1_556 S
C183 O172 1.279 . S
C183 O173 1.250 . S
C184 O174 1.264 . S
C184 O178 1.248 . S
C185 O175 1.260 . S
C185 O179 1.253 . S
C186 O177 1.279 . S
C186 O180 1.250 . S
O187 Mg169 2.030 . S
O187 C181 1.248 . S
O188 Mg171 2.079 . S
O188 C181 1.264 1_554 S
O189 Mg190 1.990 . S
O189 C203 1.253 . S
Mg190 O189 1.990 . S
Mg190 O193 2.180 . S
Mg190 O194 2.117 . S
Mg190 O208 2.030 . S
O191 Mg192 2.072 . S
O191 C203 1.260 . S
Mg192 O191 2.072 . S
Mg192 O193 2.099 . S
Mg192 O195 2.079 . S
Mg192 O196 2.072 . S
Mg192 O198 2.099 . S
Mg192 O209 2.079 . S
O193 Mg190 2.180 . S
O193 Mg192 2.099 . S
O193 C204 1.279 . S
O194 Mg190 2.117 . S
O194 C204 1.250 . S
O195 Mg192 2.079 . S
O195 C205 1.264 . S
O196 Mg192 2.072 . S
O196 C206 1.260 . S
Mg197 O198 2.180 . S
Mg197 O199 2.030 . S
Mg197 O200 1.990 . S
Mg197 O201 2.117 . S
O198 Mg192 2.099 . S
O198 Mg197 2.180 . S
O198 C207 1.279 . S
O199 Mg197 2.030 . S
O199 C205 1.248 . S
O200 Mg197 1.990 . S
O200 C206 1.253 . S
O201 Mg197 2.117 . S
O201 C207 1.250 . S
C202 O208 1.248 . S
C202 O209 1.264 . S
C203 O189 1.253 . S
C203 O191 1.260 . S
C204 O193 1.279 . S
C204 O194 1.250 . S
C205 O195 1.264 . S
C205 O199 1.248 . S
C206 O196 1.260 . S
C206 O200 1.253 . S
C207 O198 1.279 . S
C207 O201 1.250 . S
O208 Mg190 2.030 . S
O208 C202 1.248 . S
O209 Mg192 2.079 . S
O209 C202 1.264 . S
O210 Mg211 1.990 . S
O210 C224 1.253 . S
Mg211 O210 1.990 . S
Mg211 O214 2.180 . S
Mg211 O215 2.117 . S
Mg211 O229 2.030 . S
O212 Mg213 2.072 . S
O212 C224 1.260 . S
Mg213 O212 2.072 . S
Mg213 O214 2.099 . S
Mg213 O216 2.079 . S
Mg213 O217 2.072 . S
Mg213 O219 2.099 . S
Mg213 O230 2.079 . S
O214 Mg211 2.180 . S
O214 Mg213 2.099 . S
O214 C225 1.279 . S
O215 Mg211 2.117 . S
O215 C225 1.250 . S
O216 Mg213 2.079 . S
O216 C226 1.264 . S
O217 Mg213 2.072 . S
O217 C227 1.260 . S
Mg218 O219 2.180 . S
Mg218 O220 2.030 . S
Mg218 O221 1.990 . S
Mg218 O222 2.117 . S
O219 Mg213 2.099 . S
O219 Mg218 2.180 . S
O219 C228 1.279 . S
O220 Mg218 2.030 . S
O220 C226 1.248 . S
O221 Mg218 1.990 . S
O221 C227 1.253 . S
O222 Mg218 2.117 . S
O222 C228 1.250 . S
C223 O229 1.248 . S
C223 O230 1.264 . S
C224 O210 1.253 . S
C224 O212 1.260 . S
C225 O214 1.279 . S
C225 O215 1.250 . S
C226 O216 1.264 . S
C226 O220 1.248 . S
C227 O217 1.260 . S
C227 O221 1.253 . S
C228 O219 1.279 . S
C228 O222 1.250 . S
O229 Mg211 2.030 . S
O229 C223 1.248 . S
O230 Mg213 2.079 . S
O230 C223 1.264 . S
O231 Mg232 1.990 . S
O231 C245 1.253 . S
Mg232 O231 1.990 . S
Mg232 O235 2.180 1_556 S
Mg232 O236 2.117 1_556 S
Mg232 O250 2.030 . S
O233 Mg234 2.072 . S
O233 C245 1.260 1_554 S
Mg234 O233 2.072 . S
Mg234 O235 2.099 . S
Mg234 O237 2.079 . S
Mg234 O238 2.072 . S
Mg234 O240 2.099 . S
Mg234 O251 2.079 . S
O235 Mg232 2.180 1_554 S
O235 Mg234 2.099 . S
O235 C246 1.279 . S
O236 Mg232 2.117 1_554 S
O236 C246 1.250 . S
O237 Mg234 2.079 . S
O237 C247 1.264 . S
O238 Mg234 2.072 . S
O238 C248 1.260 . S
Mg239 O240 2.180 . S
Mg239 O241 2.030 . S
Mg239 O242 1.990 . S
Mg239 O243 2.117 . S
O240 Mg234 2.099 . S
O240 Mg239 2.180 . S
O240 C249 1.279 . S
O241 Mg239 2.030 . S
O241 C247 1.248 . S
O242 Mg239 1.990 . S
O242 C248 1.253 . S
O243 Mg239 2.117 . S
O243 C249 1.250 . S
C244 O250 1.248 . S
C244 O251 1.264 1_556 S
C245 O231 1.253 . S
C245 O233 1.260 1_556 S
C246 O235 1.279 . S
C246 O236 1.250 . S
C247 O237 1.264 . S
C247 O241 1.248 . S
C248 O238 1.260 . S
C248 O242 1.253 . S
C249 O240 1.279 . S
C249 O243 1.250 . S
O250 Mg232 2.030 . S
O250 C244 1.248 . S
O251 Mg234 2.079 . S
O251 C244 1.264 1_554 S
H252 C258 0.930 . S
H253 C262 0.930 . S
H254 C267 0.929 . S
H255 C265 0.929 . S
H256 C260 0.929 . S
H257 C266 0.929 . S
C258 H252 0.930 . S
C258 C259 1.367 . S
C258 C266 1.378 . S
C259 C258 1.367 . S
C259 C267 1.433 . S
C260 H256 0.929 . S
C260 C262 1.378 . S
C260 C264 1.350 . S
C261 C264 1.463 . S
C261 C266 1.350 . S
C261 N269 1.427 . S
C262 H253 0.930 . S
C262 C260 1.378 . S
C262 C263 1.367 . S
C263 C262 1.367 . S
C263 C265 1.433 . S
C264 C260 1.350 . S
C264 C261 1.463 . S
C264 N268 1.427 . S
C265 H255 0.929 . S
C265 C263 1.433 . S
C265 N268 1.384 . S
C266 H257 0.929 . S
C266 C258 1.378 . S
C266 C261 1.350 . S
C267 H254 0.929 . S
C267 C259 1.433 . S
C267 N269 1.384 . S
N268 C264 1.427 . S
N268 C265 1.384 . S
N269 C261 1.427 . S
N269 C267 1.384 . S
H270 C276 0.930 . S
H271 C280 0.930 . S
H272 C285 0.929 . S
H273 C283 0.929 . S
H274 C278 0.929 . S
H275 C284 0.929 . S
C276 H270 0.930 . S
C276 C277 1.367 . S
C276 C284 1.378 . S
C277 C276 1.367 . S
C277 C285 1.433 . S
C278 H274 0.929 . S
C278 C280 1.378 . S
C278 C282 1.350 . S
C279 C282 1.463 . S
C279 C284 1.350 . S
C279 N287 1.427 . S
C280 H271 0.930 . S
C280 C278 1.378 . S
C280 C281 1.367 . S
C281 C280 1.367 . S
C281 C283 1.433 . S
C282 C278 1.350 . S
C282 C279 1.463 . S
C282 N286 1.427 . S
C283 H273 0.929 . S
C283 C281 1.433 . S
C283 N286 1.384 . S
C284 H275 0.929 . S
C284 C276 1.378 . S
C284 C279 1.350 . S
C285 H272 0.929 . S
C285 C277 1.433 . S
C285 N287 1.384 . S
N286 C282 1.427 . S
N286 C283 1.384 . S
N287 C279 1.427 . S
N287 C285 1.384 . S
H288 C294 0.930 . S
H289 C298 0.930 . S
H290 C303 0.929 . S
H291 C301 0.929 . S
H292 C296 0.929 . S
H293 C302 0.929 . S
C294 H288 0.930 . S
C294 C295 1.367 . S
C294 C302 1.378 . S
C295 C294 1.367 . S
C295 C303 1.433 . S
C296 H292 0.929 . S
C296 C298 1.378 . S
C296 C300 1.350 . S
C297 C300 1.463 . S
C297 C302 1.350 . S
C297 N305 1.427 . S
C298 H289 0.930 . S
C298 C296 1.378 . S
C298 C299 1.367 . S
C299 C298 1.367 . S
C299 C301 1.433 . S
C300 C296 1.350 . S
C300 C297 1.463 . S
C300 N304 1.427 . S
C301 H291 0.929 . S
C301 C299 1.433 . S
C301 N304 1.384 . S
C302 H293 0.929 . S
C302 C294 1.378 . S
C302 C297 1.350 . S
C303 H290 0.929 . S
C303 C295 1.433 . S
C303 N305 1.384 . S
N304 C300 1.427 . S
N304 C301 1.384 . S
N305 C297 1.427 . S
N305 C303 1.384 . S
H306 C312 0.930 . S
H307 C316 0.930 . S
H308 C321 0.929 . S
H309 C319 0.929 . S
H310 C314 0.929 . S
H311 C320 0.929 . S
C312 H306 0.930 . S
C312 C313 1.367 . S
C312 C320 1.378 . S
C313 C312 1.367 . S
C313 C321 1.433 . S
C314 H310 0.929 . S
C314 C316 1.378 . S
C314 C318 1.350 . S
C315 C318 1.463 . S
C315 C320 1.350 . S
C315 N323 1.427 . S
C316 H307 0.930 . S
C316 C314 1.378 . S
C316 C317 1.367 . S
C317 C316 1.367 . S
C317 C319 1.433 . S
C318 C314 1.350 . S
C318 C315 1.463 . S
C318 N322 1.427 . S
C319 H309 0.929 . S
C319 C317 1.433 . S
C319 N322 1.384 . S
C320 H311 0.929 . S
C320 C312 1.378 . S
C320 C315 1.350 . S
C321 H308 0.929 . S
C321 C313 1.433 . S
C321 N323 1.384 . S
N322 C318 1.427 . S
N322 C319 1.384 . S
N323 C315 1.427 . S
N323 C321 1.384 . S
H324 C330 0.930 . S
H325 C334 0.930 . S
H326 C339 0.929 . S
H327 C337 0.929 . S
H328 C332 0.929 . S
H329 C338 0.929 . S
C330 H324 0.930 . S
C330 C331 1.367 . S
C330 C338 1.378 . S
C331 C330 1.367 . S
C331 C339 1.433 . S
C332 H328 0.929 . S
C332 C334 1.378 . S
C332 C336 1.350 . S
C333 C336 1.463 . S
C333 C338 1.350 . S
C333 N341 1.427 . S
C334 H325 0.930 . S
C334 C332 1.378 . S
C334 C335 1.367 . S
C335 C334 1.367 . S
C335 C337 1.433 . S
C336 C332 1.350 . S
C336 C333 1.463 . S
C336 N340 1.427 . S
C337 H327 0.929 . S
C337 C335 1.433 . S
C337 N340 1.384 . S
C338 H329 0.929 . S
C338 C330 1.378 . S
C338 C333 1.350 . S
C339 H326 0.929 . S
C339 C331 1.433 . S
C339 N341 1.384 . S
N340 C336 1.427 . S
N340 C337 1.384 . S
N341 C333 1.427 . S
N341 C339 1.384 . S
H342 C348 0.930 . S
H343 C352 0.930 . S
H344 C357 0.929 . S
H345 C355 0.929 . S
H346 C350 0.929 . S
H347 C356 0.929 . S
C348 H342 0.930 . S
C348 C349 1.367 . S
C348 C356 1.378 . S
C349 C348 1.367 . S
C349 C357 1.433 . S
C350 H346 0.929 . S
C350 C352 1.378 . S
C350 C354 1.350 . S
C351 C354 1.463 . S
C351 C356 1.350 . S
C351 N359 1.427 . S
C352 H343 0.930 . S
C352 C350 1.378 . S
C352 C353 1.367 . S
C353 C352 1.367 . S
C353 C355 1.433 . S
C354 C350 1.350 . S
C354 C351 1.463 . S
C354 N358 1.427 . S
C355 H345 0.929 . S
C355 C353 1.433 . S
C355 N358 1.384 . S
C356 H347 0.929 . S
C356 C348 1.378 . S
C356 C351 1.350 . S
C357 H344 0.929 . S
C357 C349 1.433 . S
C357 N359 1.384 . S
N358 C354 1.427 . S
N358 C355 1.384 . S
N359 C351 1.427 . S
N359 C357 1.384 . S
H360 C366 0.930 . S
H361 C370 0.930 . S
H362 C375 0.929 . S
H363 C373 0.929 . S
H364 C368 0.929 . S
H365 C374 0.929 . S
C366 H360 0.930 . S
C366 C367 1.367 . S
C366 C374 1.378 . S
C367 C366 1.367 . S
C367 C375 1.433 . S
C368 H364 0.929 . S
C368 C370 1.378 . S
C368 C372 1.350 . S
C369 C372 1.463 1_556 S
C369 C374 1.350 . S
C369 N377 1.427 . S
C370 H361 0.930 . S
C370 C368 1.378 . S
C370 C371 1.367 . S
C371 C370 1.367 . S
C371 C373 1.433 . S
C372 C368 1.350 . S
C372 C369 1.463 1_554 S
C372 N376 1.427 . S
C373 H363 0.929 . S
C373 C371 1.433 . S
C373 N376 1.384 . S
C374 H365 0.929 . S
C374 C366 1.378 . S
C374 C369 1.350 . S
C375 H362 0.929 . S
C375 C367 1.433 . S
C375 N377 1.384 . S
N376 C372 1.427 . S
N376 C373 1.384 . S
N377 C369 1.427 . S
N377 C375 1.384 . S
H378 C384 0.930 . S
H379 C388 0.930 . S
H380 C393 0.929 . S
H381 C391 0.929 . S
H382 C386 0.929 . S
H383 C392 0.929 . S
C384 H378 0.930 . S
C384 C385 1.367 . S
C384 C392 1.378 . S
C385 C384 1.367 . S
C385 C393 1.433 . S
C386 H382 0.929 . S
C386 C388 1.378 . S
C386 C390 1.350 . S
C387 C390 1.463 . S
C387 C392 1.350 . S
C387 N395 1.427 . S
C388 H379 0.930 . S
C388 C386 1.378 . S
C388 C389 1.367 . S
C389 C388 1.367 . S
C389 C391 1.433 . S
C390 C386 1.350 . S
C390 C387 1.463 . S
C390 N394 1.427 . S
C391 H381 0.929 . S
C391 C389 1.433 . S
C391 N394 1.384 . S
C392 H383 0.929 . S
C392 C384 1.378 . S
C392 C387 1.350 . S
C393 H380 0.929 . S
C393 C385 1.433 . S
C393 N395 1.384 . S
N394 C390 1.427 . S
N394 C391 1.384 . S
N395 C387 1.427 . S
N395 C393 1.384 . S
H396 C402 0.930 . S
H397 C406 0.930 . S
H398 C411 0.929 . S
H399 C409 0.929 . S
H400 C404 0.929 . S
H401 C410 0.929 . S
C402 H396 0.930 . S
C402 C403 1.367 . S
C402 C410 1.378 . S
C403 C402 1.367 . S
C403 C411 1.433 . S
C404 H400 0.929 . S
C404 C406 1.378 . S
C404 C408 1.350 . S
C405 C408 1.463 . S
C405 C410 1.350 . S
C405 N413 1.427 . S
C406 H397 0.930 . S
C406 C404 1.378 . S
C406 C407 1.367 . S
C407 C406 1.367 . S
C407 C409 1.433 . S
C408 C404 1.350 . S
C408 C405 1.463 . S
C408 N412 1.427 . S
C409 H399 0.929 . S
C409 C407 1.433 . S
C409 N412 1.384 . S
C410 H401 0.929 . S
C410 C402 1.378 . S
C410 C405 1.350 . S
C411 H398 0.929 . S
C411 C403 1.433 . S
C411 N413 1.384 . S
N412 C408 1.427 . S
N412 C409 1.384 . S
N413 C405 1.427 . S
N413 C411 1.384 . S
H414 C420 0.930 . S
H415 C424 0.930 . S
H416 C429 0.929 . S
H417 C427 0.929 . S
H418 C422 0.929 . S
H419 C428 0.929 . S
C420 H414 0.930 . S
C420 C421 1.367 . S
C420 C428 1.378 . S
C421 C420 1.367 . S
C421 C429 1.433 . S
C422 H418 0.929 . S
C422 C424 1.378 . S
C422 C426 1.350 . S
C423 C426 1.463 1_556 S
C423 C428 1.350 . S
C423 N431 1.427 . S
C424 H415 0.930 . S
C424 C422 1.378 . S
C424 C425 1.367 . S
C425 C424 1.367 . S
C425 C427 1.433 . S
C426 C422 1.350 . S
C426 C423 1.463 1_554 S
C426 N430 1.427 . S
C427 H417 0.929 . S
C427 C425 1.433 . S
C427 N430 1.384 . S
C428 H419 0.929 . S
C428 C420 1.378 . S
C428 C423 1.350 . S
C429 H416 0.929 . S
C429 C421 1.433 . S
C429 N431 1.384 . S
N430 C426 1.427 . S
N430 C427 1.384 . S
N431 C423 1.427 . S
N431 C429 1.384 . S
H432 C438 0.930 . S
H433 C442 0.930 . S
H434 C447 0.929 . S
H435 C445 0.929 . S
H436 C440 0.929 . S
H437 C446 0.929 . S
C438 H432 0.930 . S
C438 C439 1.367 . S
C438 C446 1.378 . S
C439 C438 1.367 . S
C439 C447 1.433 . S
C440 H436 0.929 . S
C440 C442 1.378 . S
C440 C444 1.350 . S
C441 C444 1.463 . S
C441 C446 1.350 . S
C441 N449 1.427 . S
C442 H433 0.930 . S
C442 C440 1.378 . S
C442 C443 1.367 . S
C443 C442 1.367 . S
C443 C445 1.433 . S
C444 C440 1.350 . S
C444 C441 1.463 . S
C444 N448 1.427 . S
C445 H435 0.929 . S
C445 C443 1.433 . S
C445 N448 1.384 . S
C446 H437 0.929 . S
C446 C438 1.378 . S
C446 C441 1.350 . S
C447 H434 0.929 . S
C447 C439 1.433 . S
C447 N449 1.384 . S
N448 C444 1.427 . S
N448 C445 1.384 . S
N449 C441 1.427 . S
N449 C447 1.384 . S
H450 C456 0.930 . S
H451 C460 0.930 . S
H452 C465 0.929 . S
H453 C463 0.929 . S
H454 C458 0.929 . S
H455 C464 0.929 . S
C456 H450 0.930 . S
C456 C457 1.367 . S
C456 C464 1.378 . S
C457 C456 1.367 . S
C457 C465 1.433 . S
C458 H454 0.929 . S
C458 C460 1.378 . S
C458 C462 1.350 . S
C459 C462 1.463 . S
C459 C464 1.350 . S
C459 N467 1.427 . S
C460 H451 0.930 . S
C460 C458 1.378 . S
C460 C461 1.367 . S
C461 C460 1.367 . S
C461 C463 1.433 . S
C462 C458 1.350 . S
C462 C459 1.463 . S
C462 N466 1.427 . S
C463 H453 0.929 . S
C463 C461 1.433 . S
C463 N466 1.384 . S
C464 H455 0.929 . S
C464 C456 1.378 . S
C464 C459 1.350 . S
C465 H452 0.929 . S
C465 C457 1.433 . S
C465 N467 1.384 . S
N466 C462 1.427 . S
N466 C463 1.384 . S
N467 C459 1.427 . S
N467 C465 1.384 . S
H468 C474 0.930 . S
H469 C478 0.930 . S
H470 C483 0.929 . S
H471 C481 0.929 . S
H472 C476 0.929 . S
H473 C482 0.929 . S
C474 H468 0.930 . S
C474 C475 1.367 . S
C474 C482 1.378 . S
C475 C474 1.367 . S
C475 C483 1.433 . S
C476 H472 0.929 . S
C476 C478 1.378 . S
C476 C480 1.350 . S
C477 C480 1.463 1_566 S
C477 C482 1.350 . S
C477 N485 1.427 . S
C478 H469 0.930 . S
C478 C476 1.378 . S
C478 C479 1.367 . S
C479 C478 1.367 . S
C479 C481 1.433 . S
C480 C476 1.350 . S
C480 C477 1.463 1_544 S
C480 N484 1.427 . S
C481 H471 0.929 . S
C481 C479 1.433 . S
C481 N484 1.384 . S
C482 H473 0.929 . S
C482 C474 1.378 . S
C482 C477 1.350 . S
C483 H470 0.929 . S
C483 C475 1.433 . S
C483 N485 1.384 . S
N484 C480 1.427 . S
N484 C481 1.384 . S
N485 C477 1.427 . S
N485 C483 1.384 . S
H486 C492 0.930 . S
H487 C496 0.930 . S
H488 C501 0.929 . S
H489 C499 0.929 . S
H490 C494 0.929 . S
H491 C500 0.929 . S
C492 H486 0.930 . S
C492 C493 1.367 . S
C492 C500 1.378 . S
C493 C492 1.367 . S
C493 C501 1.433 . S
C494 H490 0.929 . S
C494 C496 1.378 . S
C494 C498 1.350 . S
C495 C498 1.463 . S
C495 C500 1.350 . S
C495 N503 1.427 . S
C496 H487 0.930 . S
C496 C494 1.378 . S
C496 C497 1.367 . S
C497 C496 1.367 . S
C497 C499 1.433 . S
C498 C494 1.350 . S
C498 C495 1.463 . S
C498 N502 1.427 . S
C499 H489 0.929 . S
C499 C497 1.433 . S
C499 N502 1.384 . S
C500 H491 0.929 . S
C500 C492 1.378 . S
C500 C495 1.350 . S
C501 H488 0.929 . S
C501 C493 1.433 . S
C501 N503 1.384 . S
N502 C498 1.427 . S
N502 C499 1.384 . S
N503 C495 1.427 . S
N503 C501 1.384 . S
H504 C510 0.930 . S
H505 C514 0.930 . S
H506 C519 0.929 . S
H507 C517 0.929 . S
H508 C512 0.929 . S
H509 C518 0.929 . S
C510 H504 0.930 . S
C510 C511 1.367 . S
C510 C518 1.378 . S
C511 C510 1.367 . S
C511 C519 1.433 . S
C512 H508 0.929 . S
C512 C514 1.378 . S
C512 C516 1.350 . S
C513 C516 1.463 1_455 S
C513 C518 1.350 . S
C513 N521 1.427 . S
C514 H505 0.930 . S
C514 C512 1.378 . S
C514 C515 1.367 . S
C515 C514 1.367 . S
C515 C517 1.433 . S
C516 C512 1.350 . S
C516 C513 1.463 1_655 S
C516 N520 1.427 . S
C517 H507 0.929 . S
C517 C515 1.433 . S
C517 N520 1.384 . S
C518 H509 0.929 . S
C518 C510 1.378 . S
C518 C513 1.350 . S
C519 H506 0.929 . S
C519 C511 1.433 . S
C519 N521 1.384 . S
N520 C516 1.427 . S
N520 C517 1.384 . S
N521 C513 1.427 . S
N521 C519 1.384 . S
H522 C528 0.930 . S
H523 C532 0.930 . S
H524 C537 0.929 . S
H525 C535 0.929 . S
H526 C530 0.893 1_565 S
H527 C536 0.894 1_545 S
C528 H522 0.930 . S
C528 C529 1.367 . S
C528 C536 1.378 . S
C529 C528 1.367 . S
C529 C537 1.433 . S
C530 H526 0.893 1_545 S
C530 C532 1.378 . S
C530 C534 1.350 . S
C531 C534 1.463 1_564 S
C531 C536 1.350 . S
C531 N539 1.427 . S
C532 H523 0.930 . S
C532 C530 1.378 . S
C532 C533 1.367 . S
C533 C532 1.367 . S
C533 C535 1.433 . S
C534 C530 1.350 . S
C534 C531 1.463 1_546 S
C534 N538 1.427 . S
C535 H525 0.929 . S
C535 C533 1.433 . S
C535 N538 1.384 . S
C536 H527 0.894 1_565 S
C536 C528 1.378 . S
C536 C531 1.350 . S
C537 H524 0.929 . S
C537 C529 1.433 . S
C537 N539 1.384 . S
N538 C534 1.427 . S
N538 C535 1.384 . S
N539 C531 1.427 . S
N539 C537 1.384 . S
H540 C546 0.930 . S
H541 C550 0.930 . S
H542 C555 0.929 . S
H543 C553 0.929 . S
H544 C548 0.929 . S
H545 C554 0.929 . S
C546 H540 0.930 . S
C546 C547 1.367 . S
C546 C554 1.378 . S
C547 C546 1.367 . S
C547 C555 1.433 . S
C548 H544 0.929 . S
C548 C550 1.378 . S
C548 C552 1.350 . S
C549 C552 1.463 . S
C549 C554 1.350 . S
C549 N557 1.427 . S
C550 H541 0.930 . S
C550 C548 1.378 . S
C550 C551 1.367 . S
C551 C550 1.367 . S
C551 C553 1.433 . S
C552 C548 1.350 . S
C552 C549 1.463 . S
C552 N556 1.427 . S
C553 H543 0.929 . S
C553 C551 1.433 . S
C553 N556 1.384 . S
C554 H545 0.929 . S
C554 C546 1.378 . S
C554 C549 1.350 . S
C555 H542 0.929 . S
C555 C547 1.433 . S
C555 N557 1.384 . S
N556 C552 1.427 . S
N556 C553 1.384 . S
N557 C549 1.427 . S
N557 C555 1.384 . S
H558 C564 0.930 . S
H559 C568 0.930 . S
H560 C573 0.929 . S
H561 C571 0.929 . S
H562 C566 0.929 . S
H563 C572 0.929 . S
C564 H558 0.930 . S
C564 C565 1.367 . S
C564 C572 1.378 1_455 S
C565 C564 1.367 . S
C565 C573 1.433 . S
C566 H562 0.929 . S
C566 C568 1.378 1_455 S
C566 C570 1.350 1_455 S
C567 C570 1.463 1_455 S
C567 C572 1.350 1_455 S
C567 N575 1.427 . S
C568 H559 0.930 . S
C568 C566 1.378 1_655 S
C568 C569 1.367 . S
C569 C568 1.367 . S
C569 C571 1.433 . S
C570 C566 1.350 1_655 S
C570 C567 1.463 1_655 S
C570 N574 1.427 . S
C571 H561 0.929 . S
C571 C569 1.433 . S
C571 N574 1.384 . S
C572 H563 0.929 . S
C572 C564 1.378 1_655 S
C572 C567 1.350 1_655 S
C573 H560 0.929 . S
C573 C565 1.433 . S
C573 N575 1.384 . S
N574 C570 1.427 . S
N574 C571 1.384 . S
N575 C567 1.427 . S
N575 C573 1.384 . S
H576 C582 0.930 . S
H577 C586 0.930 . S
H578 C591 0.929 . S
H579 C589 0.929 . S
H580 C584 0.929 . S
H581 C590 0.929 . S
C582 H576 0.930 . S
C582 C583 1.367 . S
C582 C590 1.378 . S
C583 C582 1.367 . S
C583 C591 1.433 . S
C584 H580 0.929 . S
C584 C586 1.378 . S
C584 C588 1.350 . S
C585 C588 1.463 1_545 S
C585 C590 1.350 . S
C585 N593 1.427 . S
C586 H577 0.930 . S
C586 C584 1.378 . S
C586 C587 1.367 . S
C587 C586 1.367 . S
C587 C589 1.433 . S
C588 C584 1.350 . S
C588 C585 1.463 1_565 S
C588 N592 1.427 . S
C589 H579 0.929 . S
C589 C587 1.433 . S
C589 N592 1.384 . S
C590 H581 0.929 . S
C590 C582 1.378 . S
C590 C585 1.350 . S
C591 H578 0.929 . S
C591 C583 1.433 . S
C591 N593 1.384 . S
N592 C588 1.427 . S
N592 C589 1.384 . S
N593 C585 1.427 . S
N593 C591 1.384 . S
H594 C600 0.930 . S
H595 C604 0.930 . S
H596 C609 0.929 . S
H597 C607 0.929 . S
H598 C602 0.929 . S
H599 C608 0.929 . S
C600 H594 0.930 . S
C600 C601 1.367 . S
C600 C608 1.378 . S
C601 C600 1.367 . S
C601 C609 1.433 . S
C602 H598 0.929 . S
C602 C604 1.378 . S
C602 C606 1.350 . S
C603 C606 1.463 . S
C603 C608 1.350 . S
C603 N611 1.427 . S
C604 H595 0.930 . S
C604 C602 1.378 . S
C604 C605 1.367 . S
C605 C604 1.367 . S
C605 C607 1.433 . S
C606 C602 1.350 . S
C606 C603 1.463 . S
C606 N610 1.427 . S
C607 H597 0.929 . S
C607 C605 1.433 . S
C607 N610 1.384 . S
C608 H599 0.929 . S
C608 C600 1.378 . S
C608 C603 1.350 . S
C609 H596 0.929 . S
C609 C601 1.433 . S
C609 N611 1.384 . S
N610 C606 1.427 . S
N610 C607 1.384 . S
N611 C603 1.427 . S
N611 C609 1.384 . S
H612 C618 0.930 1_554 S
H613 C622 0.930 . S
H614 C627 0.929 . S
H615 C625 0.929 1_554 S
H616 C620 0.929 . S
H617 C626 0.929 1_554 S
C618 H612 0.930 1_556 S
C618 C619 1.367 . S
C618 C626 1.378 . S
C619 C618 1.367 . S
C619 C627 1.433 . S
C620 H616 0.929 . S
C620 C622 1.378 . S
C620 C624 1.350 . S
C621 C624 1.463 1_655 S
C621 C626 1.350 . S
C621 N629 1.427 . S
C622 H613 0.930 . S
C622 C620 1.378 . S
C622 C623 1.367 . S
C623 C622 1.367 . S
C623 C625 1.433 . S
C624 C620 1.350 . S
C624 C621 1.463 1_455 S
C624 N628 1.427 . S
C625 H615 0.929 1_556 S
C625 C623 1.433 . S
C625 N628 1.384 . S
C626 H617 0.929 1_556 S
C626 C618 1.378 . S
C626 C621 1.350 . S
C627 H614 0.929 . S
C627 C619 1.433 . S
C627 N629 1.384 . S
N628 C624 1.427 . S
N628 C625 1.384 . S
N629 C621 1.427 . S
N629 C627 1.384 . S
H630 C636 0.930 . S
H631 C640 0.930 . S
H632 C645 0.929 . S
H633 C643 0.929 . S
H634 C638 0.929 . S
H635 C644 0.929 . S
C636 H630 0.930 . S
C636 C637 1.367 . S
C636 C644 1.378 . S
C637 C636 1.367 . S
C637 C645 1.433 . S
C638 H634 0.929 . S
C638 C640 1.378 . S
C638 C642 1.350 . S
C639 C642 1.463 1_455 S
C639 C644 1.350 . S
C639 N647 1.427 . S
C640 H631 0.930 . S
C640 C638 1.378 . S
C640 C641 1.367 . S
C641 C640 1.367 . S
C641 C643 1.433 . S
C642 C638 1.350 . S
C642 C639 1.463 1_655 S
C642 N646 1.427 . S
C643 H633 0.929 . S
C643 C641 1.433 . S
C643 N646 1.384 . S
C644 H635 0.929 . S
C644 C636 1.378 . S
C644 C639 1.350 . S
C645 H632 0.929 . S
C645 C637 1.433 . S
C645 N647 1.384 . S
N646 C642 1.427 . S
N646 C643 1.384 . S
N647 C639 1.427 . S
N647 C645 1.384 . S
H648 C654 0.930 . S
H649 C658 0.930 . S
H650 C663 0.929 . S
H651 C661 0.929 . S
H652 C656 0.929 . S
H653 C662 0.929 . S
C654 H648 0.930 . S
C654 C655 1.367 . S
C654 C662 1.378 . S
C655 C654 1.367 . S
C655 C663 1.433 . S
C656 H652 0.929 . S
C656 C658 1.378 . S
C656 C660 1.350 . S
C657 C660 1.463 1_565 S
C657 C662 1.350 . S
C657 N665 1.427 . S
C658 H649 0.930 . S
C658 C656 1.378 . S
C658 C659 1.367 . S
C659 C658 1.367 . S
C659 C661 1.433 . S
C660 C656 1.350 . S
C660 C657 1.463 1_545 S
C660 N664 1.427 . S
C661 H651 0.929 . S
C661 C659 1.433 . S
C661 N664 1.384 . S
C662 H653 0.929 . S
C662 C654 1.378 . S
C662 C657 1.350 . S
C663 H650 0.929 . S
C663 C655 1.433 . S
C663 N665 1.384 . S
N664 C660 1.427 . S
N664 C661 1.384 . S
N665 C657 1.427 . S
N665 C663 1.384 . S
H666 C672 0.930 1_556 S
H667 C676 0.930 . S
H668 C681 0.929 . S
H669 C679 0.929 1_556 S
H670 C674 0.929 . S
H671 C680 0.929 1_556 S
C672 H666 0.930 1_554 S
C672 C673 1.367 . S
C672 C680 1.378 . S
C673 C672 1.367 . S
C673 C681 1.433 . S
C674 H670 0.929 . S
C674 C676 1.378 . S
C674 C678 1.350 . S
C675 C678 1.463 . S
C675 C680 1.350 . S
C675 N683 1.427 . S
C676 H667 0.930 . S
C676 C674 1.378 . S
C676 C677 1.367 . S
C677 C676 1.367 . S
C677 C679 1.433 . S
C678 C674 1.350 . S
C678 C675 1.463 . S
C678 N682 1.427 . S
C679 H669 0.929 1_554 S
C679 C677 1.433 . S
C679 N682 1.384 . S
C680 H671 0.929 1_554 S
C680 C672 1.378 . S
C680 C675 1.350 . S
C681 H668 0.929 . S
C681 C673 1.433 . S
C681 N683 1.384 . S
N682 C678 1.427 . S
N682 C679 1.384 . S
N683 C675 1.427 . S
N683 C681 1.384 . S
H684 C690 0.930 . S
H685 C694 0.930 . S
H686 C699 0.929 . S
H687 C697 0.929 . S
H688 C692 0.929 . S
H689 C698 0.929 . S
C690 H684 0.930 . S
C690 C691 1.367 . S
C690 C698 1.378 . S
C691 C690 1.367 . S
C691 C699 1.433 . S
C692 H688 0.929 . S
C692 C694 1.378 . S
C692 C696 1.350 . S
C693 C696 1.463 1_565 S
C693 C698 1.350 . S
C693 N701 1.427 . S
C694 H685 0.930 . S
C694 C692 1.378 . S
C694 C695 1.367 . S
C695 C694 1.367 . S
C695 C697 1.433 . S
C696 C692 1.350 . S
C696 C693 1.463 1_545 S
C696 N700 1.427 . S
C697 H687 0.929 . S
C697 C695 1.433 . S
C697 N700 1.384 . S
C698 H689 0.929 . S
C698 C690 1.378 . S
C698 C693 1.350 . S
C699 H686 0.929 . S
C699 C691 1.433 . S
C699 N701 1.384 . S
N700 C696 1.427 . S
N700 C697 1.384 . S
N701 C693 1.427 . S
N701 C699 1.384 . S
H702 C708 0.930 . S
H703 C712 0.930 . S
H704 C717 0.929 . S
H705 C715 0.929 . S
H706 C710 0.929 . S
H707 C716 0.929 . S
C708 H702 0.930 . S
C708 C709 1.367 . S
C708 C716 1.378 . S
C709 C708 1.367 . S
C709 C717 1.433 . S
C710 H706 0.929 . S
C710 C712 1.378 . S
C710 C714 1.350 . S
C711 C714 1.463 . S
C711 C716 1.350 . S
C711 N719 1.427 . S
C712 H703 0.930 . S
C712 C710 1.378 . S
C712 C713 1.367 . S
C713 C712 1.367 . S
C713 C715 1.433 . S
C714 C710 1.350 . S
C714 C711 1.463 . S
C714 N718 1.427 . S
C715 H705 0.929 . S
C715 C713 1.433 . S
C715 N718 1.384 . S
C716 H707 0.929 . S
C716 C708 1.378 . S
C716 C711 1.350 . S
C717 H704 0.929 . S
C717 C709 1.433 . S
C717 N719 1.384 . S
N718 C714 1.427 . S
N718 C715 1.384 . S
N719 C711 1.427 . S
N719 C717 1.384 . S
H720 C726 0.930 . S
H721 C730 0.930 . S
H722 C735 0.929 . S
H723 C733 0.929 . S
H724 C728 0.929 1_655 S
H725 C734 0.929 1_455 S
C726 H720 0.930 . S
C726 C727 1.367 . S
C726 C734 1.378 . S
C727 C726 1.367 . S
C727 C735 1.433 . S
C728 H724 0.929 1_455 S
C728 C730 1.378 . S
C728 C732 1.350 . S
C729 C732 1.463 1_655 S
C729 C734 1.350 . S
C729 N737 1.427 . S
C730 H721 0.930 . S
C730 C728 1.378 . S
C730 C731 1.367 . S
C731 C730 1.367 . S
C731 C733 1.433 . S
C732 C728 1.350 . S
C732 C729 1.463 1_455 S
C732 N736 1.427 . S
C733 H723 0.929 . S
C733 C731 1.433 . S
C733 N736 1.384 . S
C734 H725 0.929 1_655 S
C734 C726 1.378 . S
C734 C729 1.350 . S
C735 H722 0.929 . S
C735 C727 1.433 . S
C735 N737 1.384 . S
N736 C732 1.427 . S
N736 C733 1.384 . S
N737 C729 1.427 . S
N737 C735 1.384 . S
H738 C744 0.930 . S
H739 C748 0.930 . S
H740 C753 0.929 . S
H741 C751 0.929 . S
H742 C746 0.929 1_545 S
H743 C752 0.929 1_565 S
C744 H738 0.930 . S
C744 C745 1.367 . S
C744 C752 1.378 . S
C745 C744 1.367 . S
C745 C753 1.433 . S
C746 H742 0.929 1_565 S
C746 C748 1.378 . S
C746 C750 1.350 . S
C747 C750 1.463 1_545 S
C747 C752 1.350 . S
C747 N755 1.427 . S
C748 H739 0.930 . S
C748 C746 1.378 . S
C748 C749 1.367 . S
C749 C748 1.367 . S
C749 C751 1.433 . S
C750 C746 1.350 . S
C750 C747 1.463 1_565 S
C750 N754 1.427 . S
C751 H741 0.929 . S
C751 C749 1.433 . S
C751 N754 1.384 . S
C752 H743 0.929 1_545 S
C752 C744 1.378 . S
C752 C747 1.350 . S
C753 H740 0.929 . S
C753 C745 1.433 . S
C753 N755 1.384 . S
N754 C750 1.427 . S
N754 C751 1.384 . S
N755 C747 1.427 . S
N755 C753 1.384 . S
H756 C762 0.930 . S
H757 C766 0.930 . S
H758 C771 0.929 . S
H759 C769 0.929 . S
H760 C764 0.929 . S
H761 C770 0.929 . S
C762 H756 0.930 . S
C762 C763 1.367 . S
C762 C770 1.378 . S
C763 C762 1.367 . S
C763 C771 1.433 . S
C764 H760 0.929 . S
C764 C766 1.378 . S
C764 C768 1.350 . S
C765 C768 1.463 . S
C765 C770 1.350 . S
C765 N773 1.427 . S
C766 H757 0.930 . S
C766 C764 1.378 . S
C766 C767 1.367 . S
C767 C766 1.367 . S
C767 C769 1.433 . S
C768 C764 1.350 . S
C768 C765 1.463 . S
C768 N772 1.427 . S
C769 H759 0.929 . S
C769 C767 1.433 . S
C769 N772 1.384 . S
C770 H761 0.929 . S
C770 C762 1.378 . S
C770 C765 1.350 . S
C771 H758 0.929 . S
C771 C763 1.433 . S
C771 N773 1.384 . S
N772 C768 1.427 . S
N772 C769 1.384 . S
N773 C765 1.427 . S
N773 C771 1.384 . S
H774 C780 0.930 . S
H775 C784 0.930 . S
H776 C789 0.929 . S
H777 C787 0.929 . S
H778 C782 0.888 1_455 S
H779 C788 0.888 1_655 S
C780 H774 0.930 . S
C780 C781 1.367 . S
C780 C788 1.400 . S
C781 C780 1.367 . S
C781 C789 1.433 . S
C782 H778 0.888 1_655 S
C782 C784 1.400 . S
C782 C786 1.370 . S
C783 C786 1.463 1_455 S
C783 C788 1.370 . S
C783 N791 1.427 . S
C784 H775 0.930 . S
C784 C782 1.400 . S
C784 C785 1.367 . S
C785 C784 1.367 . S
C785 C787 1.433 . S
C786 C782 1.370 . S
C786 C783 1.463 1_655 S
C786 N790 1.427 . S
C787 H777 0.929 . S
C787 C785 1.433 . S
C787 N790 1.384 . S
C788 H779 0.888 1_455 S
C788 C780 1.400 . S
C788 C783 1.370 . S
C789 H776 0.929 . S
C789 C781 1.433 . S
C789 N791 1.384 . S
N790 C786 1.427 . S
N790 C787 1.384 . S
N791 C783 1.427 . S
N791 C789 1.384 . S
H792 C798 0.930 . S
H793 C802 0.930 . S
H794 C807 0.929 . S
H795 C805 0.929 . S
H796 C800 0.929 . S
H797 C806 0.929 . S
C798 H792 0.930 . S
C798 C799 1.367 . S
C798 C806 1.378 . S
C799 C798 1.367 . S
C799 C807 1.433 . S
C800 H796 0.929 . S
C800 C802 1.378 . S
C800 C804 1.350 . S
C801 C804 1.463 . S
C801 C806 1.350 . S
C801 N809 1.427 . S
C802 H793 0.930 . S
C802 C800 1.378 . S
C802 C803 1.367 . S
C803 C802 1.367 . S
C803 C805 1.433 . S
C804 C800 1.350 . S
C804 C801 1.463 . S
C804 N808 1.427 . S
C805 H795 0.929 . S
C805 C803 1.433 . S
C805 N808 1.384 . S
C806 H797 0.929 . S
C806 C798 1.378 . S
C806 C801 1.350 . S
C807 H794 0.929 . S
C807 C799 1.433 . S
C807 N809 1.384 . S
N808 C804 1.427 . S
N808 C805 1.384 . S
N809 C801 1.427 . S
N809 C807 1.384 . S
H810 C816 0.930 . S
H811 C820 0.930 . S
H812 C825 0.929 . S
H813 C823 0.929 . S
H814 C818 0.929 . S
H815 C824 0.929 . S
C816 H810 0.930 . S
C816 C817 1.367 . S
C816 C824 1.378 . S
C817 C816 1.367 . S
C817 C825 1.433 . S
C818 H814 0.929 . S
C818 C820 1.378 . S
C818 C822 1.350 . S
C819 C822 1.463 . S
C819 C824 1.350 . S
C819 N827 1.427 . S
C820 H811 0.930 . S
C820 C818 1.378 . S
C820 C821 1.367 . S
C821 C820 1.367 . S
C821 C823 1.433 . S
C822 C818 1.350 . S
C822 C819 1.463 . S
C822 N826 1.427 . S
C823 H813 0.929 . S
C823 C821 1.433 . S
C823 N826 1.384 . S
C824 H815 0.929 . S
C824 C816 1.378 . S
C824 C819 1.350 . S
C825 H812 0.929 . S
C825 C817 1.433 . S
C825 N827 1.384 . S
N826 C822 1.427 . S
N826 C823 1.384 . S
N827 C819 1.427 . S
N827 C825 1.384 . S
H828 C834 0.930 . S
H829 C838 0.930 . S
H830 C843 0.929 . S
H831 C841 0.929 . S
H832 C836 0.929 . S
H833 C842 0.929 . S
C834 H828 0.930 . S
C834 C835 1.367 . S
C834 C842 1.378 . S
C835 C834 1.367 . S
C835 C843 1.433 . S
C836 H832 0.929 . S
C836 C838 1.378 . S
C836 C840 1.350 . S
C837 C840 1.463 . S
C837 C842 1.350 . S
C837 N845 1.427 . S
C838 H829 0.930 . S
C838 C836 1.378 . S
C838 C839 1.367 . S
C839 C838 1.367 . S
C839 C841 1.433 . S
C840 C836 1.350 . S
C840 C837 1.463 . S
C840 N844 1.427 . S
C841 H831 0.929 . S
C841 C839 1.433 . S
C841 N844 1.384 . S
C842 H833 0.929 . S
C842 C834 1.378 . S
C842 C837 1.350 . S
C843 H830 0.929 . S
C843 C835 1.433 . S
C843 N845 1.384 . S
N844 C840 1.427 . S
N844 C841 1.384 . S
N845 C837 1.427 . S
N845 C843 1.384 . S
H846 C852 0.930 . S
H847 C856 0.930 . S
H848 C861 0.929 . S
H849 C859 0.929 . S
H850 C854 0.929 . S
H851 C860 0.929 . S
C852 H846 0.930 . S
C852 C853 1.367 . S
C852 C860 1.378 . S
C853 C852 1.367 . S
C853 C861 1.433 . S
C854 H850 0.929 . S
C854 C856 1.378 . S
C854 C858 1.350 . S
C855 C858 1.463 . S
C855 C860 1.350 . S
C855 N863 1.427 . S
C856 H847 0.930 . S
C856 C854 1.378 . S
C856 C857 1.367 . S
C857 C856 1.367 . S
C857 C859 1.433 . S
C858 C854 1.350 . S
C858 C855 1.463 . S
C858 N862 1.427 . S
C859 H849 0.929 . S
C859 C857 1.433 . S
C859 N862 1.384 . S
C860 H851 0.929 . S
C860 C852 1.378 . S
C860 C855 1.350 . S
C861 H848 0.929 . S
C861 C853 1.433 . S
C861 N863 1.384 . S
N862 C858 1.427 . S
N862 C859 1.384 . S
N863 C855 1.427 . S
N863 C861 1.384 . S
H864 C870 0.930 . S
H865 C874 0.930 . S
H866 C879 0.929 . S
H867 C877 0.929 . S
H868 C872 0.929 . S
H869 C878 0.929 . S
C870 H864 0.930 . S
C870 C871 1.367 . S
C870 C878 1.378 . S
C871 C870 1.367 . S
C871 C879 1.433 . S
C872 H868 0.929 . S
C872 C874 1.378 . S
C872 C876 1.350 . S
C873 C876 1.463 . S
C873 C878 1.350 . S
C873 N881 1.427 . S
C874 H865 0.930 . S
C874 C872 1.378 . S
C874 C875 1.367 . S
C875 C874 1.367 . S
C875 C877 1.433 . S
C876 C872 1.350 . S
C876 C873 1.463 . S
C876 N880 1.427 . S
C877 H867 0.929 . S
C877 C875 1.433 . S
C877 N880 1.384 . S
C878 H869 0.929 . S
C878 C870 1.378 . S
C878 C873 1.350 . S
C879 H866 0.929 . S
C879 C871 1.433 . S
C879 N881 1.384 . S
N880 C876 1.427 . S
N880 C877 1.384 . S
N881 C873 1.427 . S
N881 C879 1.384 . S
H882 C888 0.930 . S
H883 C892 0.930 . S
H884 C897 0.929 . S
H885 C895 0.929 . S
H886 C890 0.929 . S
H887 C896 0.929 . S
C888 H882 0.930 . S
C888 C889 1.367 . S
C888 C896 1.378 . S
C889 C888 1.367 . S
C889 C897 1.433 . S
C890 H886 0.929 . S
C890 C892 1.378 . S
C890 C894 1.350 . S
C891 C894 1.463 . S
C891 C896 1.350 . S
C891 N899 1.427 . S
C892 H883 0.930 . S
C892 C890 1.378 . S
C892 C893 1.367 . S
C893 C892 1.367 . S
C893 C895 1.433 . S
C894 C890 1.350 . S
C894 C891 1.463 . S
C894 N898 1.427 . S
C895 H885 0.929 . S
C895 C893 1.433 . S
C895 N898 1.384 . S
C896 H887 0.929 . S
C896 C888 1.378 . S
C896 C891 1.350 . S
C897 H884 0.929 . S
C897 C889 1.433 . S
C897 N899 1.384 . S
N898 C894 1.427 . S
N898 C895 1.384 . S
N899 C891 1.427 . S
N899 C897 1.384 . S
C259 C15 0.958 . S
C263 C183 0.959 . S
C277 C36 0.977 . S
C281 C204 0.979 . S
C295 C57 0.956 . S
C299 C225 0.957 . S
C313 C246 0.961 . S
C317 C78 0.959 . S
C331 C99 0.956 . S
C335 C141 0.956 . S
C349 C162 0.987 . S
C353 C120 0.986 . S
C367 C227 1.541 . S
C371 C17 1.519 . S
C385 C248 1.541 . S
C389 C38 1.519 . S
C403 C59 1.538 . S
C407 C143 1.519 . S
C421 C164 1.542 . S
C425 C80 1.521 . S
C439 C185 1.528 . S
C443 C101 1.526 . S
C457 C122 1.519 . S
C461 C206 1.540 . S
C475 C163 1.273 . S
C479 C16 1.298 . S
C493 C184 1.272 . S
C497 C37 1.299 . S
C511 C205 1.299 . S
C515 C58 1.272 . S
C529 C79 1.271 . S
C533 C226 1.297 . S
C547 C100 1.297 . S
C551 C247 1.271 . S
C565 C121 1.282 . S
C569 C142 1.283 . S
C583 C18 0.999 . S
C587 C81 1.024 . S
C601 C39 0.993 . S
C605 C102 1.032 . S
C619 C60 1.032 . S
C623 C123 0.993 . S
C637 C207 0.995 . S
C641 C144 1.028 . S
C655 C165 0.993 . S
C659 C228 1.031 . S
C673 C249 1.032 . S
C677 C186 0.993 . S
C691 C160 1.260 . S
C695 C13 1.268 . S
C709 C181 1.261 . S
C713 C34 1.270 . S
C727 C55 1.276 . S
C731 C202 1.269 . S
C745 C223 1.266 . S
C749 C76 1.275 . S
C763 C244 1.263 . S
C767 C97 1.273 . S
C781 C118 1.276 . S
C785 C139 1.270 . S
C799 C14 1.466 . S
C803 C224 1.466 . S
C817 C35 1.468 . S
C821 C245 1.468 . S
C835 C56 1.467 . S
C839 C140 1.466 . S
C853 C77 1.460 . S
C857 C161 1.460 . S
C871 C98 1.462 . S
C875 C182 1.463 . S
C889 C203 1.466 . S
C893 C119 1.467 . S
