# Generated by pormake.
# Topology uni, (4)-cn, num edge types: 1
# Building blocks:
#     Node 0, Type 0, BuildingBlock: UXUYUI_clean_sbu_0, # of connection points: 4
#     Node 1, Type 0, BuildingBlock: UXUYUI_clean_sbu_0, # of connection points: 4
#     Node 2, Type 0, BuildingBlock: UXUYUI_clean_sbu_0, # of connection points: 4
#     Node 3, Type 0, BuildingBlock: UXUYUI_clean_sbu_0, # of connection points: 4
#     Node 4, Type 0, BuildingBlock: UXUYUI_clean_sbu_0, # of connection points: 4
#     Node 5, Type 0, BuildingBlock: UXUYUI_clean_sbu_0, # of connection points: 4
#     Edge 6, Type (0, 0), BuildingBlock: ZUJKAS_clean_linker_0, # of connection points: 2
#     Edge 7, Type (0, 0), BuildingBlock: ZUJKAS_clean_linker_0, # of connection points: 2
#     Edge 8, Type (0, 0), BuildingBlock: ZUJKAS_clean_linker_0, # of connection points: 2
#     Edge 9, Type (0, 0), BuildingBlock: ZUJKAS_clean_linker_0, # of connection points: 2
#     Edge 10, Type (0, 0), BuildingBlock: ZUJKAS_clean_linker_0, # of connection points: 2
#     Edge 11, Type (0, 0), BuildingBlock: ZUJKAS_clean_linker_0, # of connection points: 2
#     Edge 12, Type (0, 0), BuildingBlock: ZUJKAS_clean_linker_0, # of connection points: 2
#     Edge 13, Type (0, 0), BuildingBlock: ZUJKAS_clean_linker_0, # of connection points: 2
#     Edge 14, Type (0, 0), BuildingBlock: ZUJKAS_clean_linker_0, # of connection points: 2
#     Edge 15, Type (0, 0), BuildingBlock: ZUJKAS_clean_linker_0, # of connection points: 2
#     Edge 16, Type (0, 0), BuildingBlock: ZUJKAS_clean_linker_0, # of connection points: 2
#     Edge 17, Type (0, 0), BuildingBlock: ZUJKAS_clean_linker_0, # of connection points: 2
# Relax obj value: 0.104
# Max RMSD: 0.125
# Mean RMSD: 0.125
data_MOF--net-uni--node1-UXUYUI_clean_sbu_0--edge1-ZUJKAS_clean_linker_0
_symmetry_space_group_name_H-M    P1
_symmetry_Int_Tables_number       1
_symmetry_cell_setting            triclinic
loop_
_symmetry_equiv_pos_as_xyz
'x, y, z'
_cell_length_a     68.622998
_cell_length_b     68.631317
_cell_length_c     40.97088
_cell_angle_alpha  90.006815
_cell_angle_beta   90.001977
_cell_angle_gamma 120.00903
loop_
_atom_site_label
_atom_site_type_symbol
_atom_site_fract_x
_atom_site_fract_y
_atom_site_fract_z
_atom_type_partial_charge
Li0 Li 0.65786 0.02998 0.045 0.0
Li1 Li 0.62402 0.01433 0.07957 0.0
Li2 Li 0.63795 0.98942 0.05623 0.0
Li3 Li 0.61914 0.00445 0.02172 0.0
C4 C 0.67202 0.02476 0.10609 0.0
N5 N 0.71116 0.04528 0.14246 0.0
C6 C 0.67414 0.03886 0.13211 0.0
C7 C 0.68966 0.02082 0.09888 0.0
C8 C 0.6941 0.04915 0.15013 0.0
C9 C 0.70935 0.03143 0.11746 0.0
C10 C 0.62605 0.05071 0.04954 0.0
C11 C 0.59799 0.06158 0.05791 0.0
N12 N 0.61448 0.0826 0.06642 0.0
C13 C 0.64274 0.07248 0.05805 0.0
C14 C 0.60351 0.04526 0.04915 0.0
C15 C 0.63654 0.08834 0.06661 0.0
C16 C 0.69346 0.05758 0.0037 0.0
N17 N 0.68639 0.05555 0.03515 0.0
C18 C 0.71925 0.09027 0.04923 0.0
C19 C 0.69873 0.07149 0.05782 0.0
C20 C 0.72695 0.09279 0.01689 0.0
C21 C 0.71379 0.07611 0.99401 0.0
H22 H 0.68317 0.04487 0.986 0.0
H23 H 0.69246 0.06996 0.08238 0.0
C24 C 0.59158 0.00031 0.12878 0.0
N25 N 0.60979 0.01887 0.11648 0.0
C26 C 0.57949 0.00223 0.15472 0.0
C27 C 0.6055 0.04228 0.1557 0.0
C28 C 0.61718 0.03956 0.12978 0.0
C29 C 0.58621 0.02347 0.16828 0.0
H30 H 0.58637 0.98397 0.11839 0.0
H31 H 0.63204 0.05399 0.12019 0.0
C32 C 0.65771 0.99532 0.99539 0.0
N33 N 0.6778 0.97613 0.95936 0.0
C34 C 0.64622 0.98104 0.96929 0.0
C35 C 0.67954 0.00013 0.00285 0.0
C36 C 0.65663 0.97142 0.95145 0.0
C37 C 0.68938 0.99019 0.98443 0.0
C38 C 0.58503 0.96816 0.05199 0.0
C39 C 0.57948 0.94611 0.04448 0.0
C40 C 0.56828 0.97409 0.05166 0.0
C41 C 0.55729 0.93044 0.03617 0.0
C42 C 0.54631 0.95794 0.04319 0.0
N43 N 0.54132 0.93663 0.03565 0.0
C44 C 0.64796 0.96226 0.09588 0.0
C45 C 0.63659 0.94795 0.04238 0.0
C46 C 0.65001 0.94368 0.10446 0.0
N47 N 0.64143 0.96409 0.06526 0.0
C48 C 0.63848 0.92912 0.04986 0.0
C49 C 0.64517 0.92673 0.08134 0.0
H50 H 0.65121 0.97506 0.11386 0.0
H51 H 0.63081 0.94943 0.01851 0.0
C52 C 0.60032 0.01755 0.97177 0.0
N53 N 0.60038 0.99934 0.98468 0.0
C54 C 0.58658 0.0151 0.94517 0.0
C55 C 0.57336 0.97518 0.94526 0.0
C56 C 0.58757 0.97846 0.97167 0.0
C57 C 0.57274 0.99366 0.93175 0.0
H58 H 0.61093 0.03403 0.98219 0.0
H59 H 0.58837 0.96434 0.98174 0.0
O60 O 0.65261 0.01459 0.08817 0.0
O61 O 0.63179 0.03493 0.04124 0.0
O62 O 0.64775 0.00484 0.01316 0.0
O63 O 0.60669 0.98378 0.05998 0.0
H64 H 0.66058 0.04194 0.1382 0.0
H65 H 0.6881 0.00959 0.07928 0.0
H66 H 0.69604 0.06022 0.17021 0.0
H67 H 0.72317 0.02859 0.11206 0.0
H68 H 0.58061 0.05755 0.05788 0.0
H69 H 0.66026 0.07704 0.05825 0.0
H70 H 0.59043 0.02862 0.04212 0.0
H71 H 0.64927 0.10521 0.07345 0.0
H72 H 0.72868 0.10295 0.06749 0.0
H73 H 0.71916 0.07732 0.96887 0.0
H74 H 0.5651 0.98716 0.16416 0.0
H75 H 0.61131 0.05899 0.16533 0.0
H76 H 0.62939 0.9773 0.96302 0.0
H77 H 0.68884 0.01152 0.0225 0.0
H78 H 0.64788 0.96021 0.93132 0.0
H79 H 0.70624 0.99369 0.99002 0.0
H80 H 0.59216 0.94118 0.04491 0.0
H81 H 0.57221 0.99097 0.05789 0.0
H82 H 0.55279 0.91334 0.03012 0.0
H83 H 0.53321 0.96233 0.04265 0.0
H84 H 0.65476 0.94236 0.12921 0.0
H85 H 0.63468 0.91655 0.03118 0.0
H86 H 0.58652 0.02977 0.93557 0.0
H87 H 0.56319 0.95844 0.93525 0.0
Li88 Li 0.63699 0.65632 0.21241 0.0
Li89 Li 0.61893 0.62288 0.24787 0.0
Li90 Li 0.65715 0.63564 0.22335 0.0
Li91 Li 0.62268 0.61732 0.19041 0.0
C92 C 0.6595 0.67031 0.27343 0.0
N93 N 0.68344 0.70863 0.31079 0.0
C94 C 0.6495 0.67401 0.30066 0.0
C95 C 0.68178 0.68594 0.2655 0.0
C96 C 0.66185 0.69354 0.31915 0.0
C97 C 0.69357 0.70525 0.2846 0.0
C98 C 0.58522 0.62673 0.22155 0.0
C99 C 0.54676 0.60102 0.23692 0.0
N100 N 0.54412 0.6188 0.24493 0.0
C101 C 0.58208 0.64475 0.22971 0.0
C102 C 0.56738 0.60468 0.22494 0.0
C103 C 0.56118 0.64038 0.24155 0.0
C104 C 0.64004 0.68908 0.16951 0.0
N105 N 0.6402 0.68483 0.20188 0.0
C106 C 0.64343 0.7202 0.21552 0.0
C107 C 0.64174 0.69983 0.22487 0.0
C108 C 0.64324 0.725 0.18223 0.0
C109 C 0.64157 0.70915 0.15908 0.0
H110 H 0.63857 0.67674 0.15177 0.0
H111 H 0.64117 0.69588 0.25043 0.0
C112 C 0.59921 0.59024 0.2968 0.0
N113 N 0.60089 0.6097 0.28576 0.0
C114 C 0.58573 0.57917 0.32369 0.0
C115 C 0.57608 0.60847 0.32774 0.0
C116 C 0.58999 0.61914 0.30095 0.0
C117 C 0.5738 0.58818 0.33933 0.0
H118 H 0.60828 0.58324 0.28462 0.0
H119 H 0.59197 0.63487 0.29219 0.0
C120 C 0.67026 0.65747 0.16237 0.0
N121 N 0.70867 0.68212 0.1255 0.0
C122 C 0.67428 0.64782 0.13502 0.0
C123 C 0.68558 0.67976 0.17067 0.0
C124 C 0.69386 0.66053 0.11679 0.0
C125 C 0.70495 0.69192 0.1518 0.0
C126 C 0.62505 0.58348 0.21771 0.0
C127 C 0.64153 0.57843 0.20786 0.0
C128 C 0.60237 0.56678 0.21673 0.0
C129 C 0.63499 0.55677 0.19673 0.0
C130 C 0.59651 0.54533 0.20539 0.0
N131 N 0.61281 0.54082 0.19568 0.0
C132 C 0.69288 0.64208 0.26332 0.0
C133 C 0.69806 0.63607 0.20782 0.0
C134 C 0.71338 0.6438 0.2717 0.0
N135 N 0.68573 0.63846 0.23181 0.0
C136 C 0.71869 0.63764 0.21511 0.0
C137 C 0.72659 0.64154 0.24745 0.0
H138 H 0.68249 0.64339 0.28205 0.0
H139 H 0.69175 0.63256 0.18313 0.0
C140 C 0.58783 0.59531 0.14505 0.0
N141 N 0.60818 0.59823 0.15395 0.0
C142 C 0.57592 0.58104 0.11926 0.0
C143 C 0.60632 0.5733 0.11171 0.0
C144 C 0.61773 0.58787 0.1376 0.0
C145 C 0.58501 0.5696 0.10237 0.0
H146 H 0.58082 0.60411 0.15794 0.0
H147 H 0.6341 0.59075 0.14483 0.0
O148 O 0.64763 0.65126 0.25511 0.0
O149 O 0.6056 0.63067 0.21007 0.0
O150 O 0.65116 0.64524 0.18047 0.0
O151 O 0.63111 0.60466 0.22835 0.0
H152 H 0.63235 0.662 0.30732 0.0
H153 H 0.68997 0.68309 0.24503 0.0
H154 H 0.65428 0.69668 0.34017 0.0
H155 H 0.71081 0.7175 0.27869 0.0
H156 H 0.53286 0.58405 0.23987 0.0
H157 H 0.59566 0.66191 0.2271 0.0
H158 H 0.56949 0.59056 0.21857 0.0
H159 H 0.55855 0.65416 0.24811 0.0
H160 H 0.64429 0.7318 0.23415 0.0
H161 H 0.64153 0.71225 0.13317 0.0
H162 H 0.58432 0.56349 0.33178 0.0
H163 H 0.56738 0.6161 0.33943 0.0
H164 H 0.66249 0.63066 0.12809 0.0
H165 H 0.68247 0.68767 0.19123 0.0
H166 H 0.69727 0.65322 0.09569 0.0
H167 H 0.71698 0.70917 0.158 0.0
H168 H 0.65915 0.59113 0.20861 0.0
H169 H 0.58944 0.57038 0.22447 0.0
H170 H 0.64755 0.55265 0.18886 0.0
H171 H 0.57902 0.53228 0.20429 0.0
H172 H 0.71857 0.64635 0.29704 0.0
H173 H 0.72834 0.63584 0.19562 0.0
H174 H 0.55983 0.5792 0.11243 0.0
H175 H 0.61396 0.56479 0.09952 0.0
Li176 Li 0.99049 0.63659 0.37863 0.0
Li177 Li 0.00535 0.61789 0.41388 0.0
Li178 Li 0.03121 0.65653 0.39047 0.0
Li179 Li 0.01518 0.62251 0.35638 0.0
C180 C 0.99772 0.65695 0.44159 0.0
N181 N 0.98165 0.67787 0.48224 0.0
C182 C 0.98279 0.64489 0.46679 0.0
C183 C 0.00473 0.67973 0.43735 0.0
C184 C 0.97478 0.65574 0.487 0.0
C185 C 0.99634 0.68998 0.45807 0.0
C186 C 0.96783 0.58458 0.38546 0.0
C187 C 0.95431 0.54553 0.39787 0.0
N188 N 0.9338 0.54285 0.40537 0.0
C189 C 0.94659 0.58142 0.39309 0.0
C190 C 0.97172 0.56648 0.38765 0.0
C191 C 0.92961 0.5602 0.40316 0.0
C192 C 0.96107 0.63944 0.33515 0.0
N193 N 0.96533 0.63995 0.36762 0.0
C194 C 0.93319 0.64344 0.38021 0.0
C195 C 0.95182 0.64184 0.39015 0.0
C196 C 0.92832 0.64284 0.34679 0.0
C197 C 0.94261 0.6409 0.32413 0.0
H198 H 0.97199 0.63772 0.31778 0.0
H199 H 0.95512 0.64164 0.41582 0.0
C200 C 0.01917 0.59988 0.46371 0.0
N201 N 0.00059 0.59948 0.45133 0.0
C202 C 0.01737 0.58651 0.49043 0.0
C203 C 0.97734 0.57264 0.49162 0.0
C204 C 0.97996 0.58653 0.46505 0.0
C205 C 0.99622 0.57251 0.50454 0.0
H206 H 0.03543 0.61056 0.45272 0.0
H207 H 0.96552 0.5869 0.4554 0.0
C208 C 0.02236 0.67088 0.33087 0.0
N209 N 0.03498 0.71042 0.29757 0.0
C210 C 0.03532 0.67591 0.30251 0.0
C211 C 0.01561 0.6858 0.3421 0.0
C212 C 0.04159 0.69604 0.28608 0.0
C213 C 0.02221 0.70575 0.32497 0.0
C214 C 0.05093 0.62401 0.38483 0.0
C215 C 0.07267 0.64031 0.37554 0.0
C216 C 0.04472 0.60127 0.38417 0.0
C217 C 0.08778 0.63353 0.36526 0.0
C218 C 0.0603 0.59517 0.3737 0.0
N219 N 0.08133 0.61129 0.36452 0.0
C220 C 0.06071 0.69089 0.43191 0.0
C221 C 0.07162 0.69785 0.37633 0.0
C222 C 0.07968 0.711 0.44119 0.0
N223 N 0.05701 0.68478 0.39997 0.0
C224 C 0.09079 0.71818 0.3845 0.0
C225 C 0.09506 0.72492 0.41734 0.0
H226 H 0.04897 0.68 0.45025 0.0
H227 H 0.06867 0.69232 0.35123 0.0
C228 C 0.00255 0.58861 0.30949 0.0
N229 N 0.0201 0.60852 0.31964 0.0
C230 C 0.00519 0.57696 0.28361 0.0
C231 C 0.04386 0.60674 0.27848 0.0
C232 C 0.04037 0.61796 0.30431 0.0
C233 C 0.02616 0.5858 0.26798 0.0
H234 H 0.98643 0.58175 0.3215 0.0
H235 H 0.05392 0.63407 0.31237 0.0
O236 O 0.00582 0.64661 0.42173 0.0
O237 O 0.98465 0.60524 0.37553 0.0
O238 O 0.01617 0.65128 0.34726 0.0
O239 O 0.03584 0.63031 0.39466 0.0
H240 H 0.97732 0.62731 0.47056 0.0
H241 H 0.01667 0.68947 0.41846 0.0
H242 H 0.9631 0.64658 0.50648 0.0
H243 H 0.00158 0.70758 0.45501 0.0
H244 H 0.95711 0.5314 0.39985 0.0
H245 H 0.94326 0.59522 0.3914 0.0
H246 H 0.98801 0.56861 0.38164 0.0
H247 H 0.91312 0.55753 0.40927 0.0
H248 H 0.9224 0.64455 0.39851 0.0
H249 H 0.93958 0.64056 0.29814 0.0
H250 H 0.03233 0.5868 0.49957 0.0
H251 H 0.96079 0.56231 0.50214 0.0
H252 H 0.04059 0.66445 0.29343 0.0
H253 H 0.00526 0.68197 0.36366 0.0
H254 H 0.05172 0.70023 0.26419 0.0
H255 H 0.01713 0.71748 0.33343 0.0
H256 H 0.07777 0.65799 0.37604 0.0
H257 H 0.02801 0.58848 0.39153 0.0
H258 H 0.10463 0.64594 0.35783 0.0
H259 H 0.05568 0.57762 0.37287 0.0
H260 H 0.08223 0.71563 0.46675 0.0
H261 H 0.10242 0.72823 0.36542 0.0
H262 H 0.99085 0.56123 0.27582 0.0
H263 H 0.06035 0.61421 0.26732 0.0
Li264 Li 0.39828 0.00483 0.58003 0.0
Li265 Li 0.36425 0.98954 0.54581 0.0
Li266 Li 0.40294 0.01446 0.52242 0.0
Li267 Li 0.385 0.0303 0.5572 0.0
C268 C 0.39495 0.96793 0.55151 0.0
N269 N 0.40512 0.93552 0.5711 0.0
C270 C 0.37772 0.94642 0.56003 0.0
C271 C 0.41733 0.97288 0.55257 0.0
C272 C 0.38321 0.93028 0.56995 0.0
C273 C 0.42213 0.95629 0.56267 0.0
C274 C 0.351 0.99742 0.60736 0.0
C275 C 0.3159 0.99597 0.61934 0.0
N276 N 0.31276 0.98221 0.64512 0.0
C277 C 0.34756 0.98347 0.63418 0.0
C278 C 0.33518 0.00391 0.60003 0.0
C279 C 0.32806 0.97588 0.65289 0.0
C280 C 0.43145 0.0179 0.62802 0.0
N281 N 0.4122 -0.0001 0.61694 0.0
C282 C 0.41482 0.97621 0.65741 0.0
C283 C 0.4035 0.9794 0.63145 0.0
C284 C 0.4351 0.99441 0.66889 0.0
C285 C 0.44318 0.01554 0.65407 0.0
H286 H 0.43774 0.03414 0.61661 0.0
H287 H 0.38788 0.96546 0.6227 0.0
C288 C 0.32976 0.96082 0.50397 0.0
N289 N 0.33559 0.96423 0.53603 0.0
C290 C 0.30945 0.94226 0.49426 0.0
C291 C 0.30149 0.93093 0.55077 0.0
C292 C 0.32201 0.9497 0.55937 0.0
C293 C 0.29499 0.92695 0.51778 0.0
H294 H 0.34109 0.97239 0.48584 0.0
H295 H 0.32722 0.95238 0.58458 0.0
C296 C 0.43718 0.05102 0.55051 0.0
N297 N 0.4798 0.08283 0.53015 0.0
C298 C 0.44181 0.07267 0.54216 0.0
C299 C 0.45427 0.04562 0.54888 0.0
C300 C 0.46346 0.08851 0.53185 0.0
C301 C 0.47569 0.06191 0.5384 0.0
C302 C 0.36334 0.02265 0.49606 0.0
C303 C 0.37366 0.03636 0.46897 0.0
C304 C 0.34122 0.01658 0.50403 0.0
C305 C 0.36178 0.04415 0.45062 0.0
C306 C 0.3299 0.02469 0.48506 0.0
N307 N 0.34033 0.03822 0.459 0.0
C308 C 0.42165 0.00057 0.47353 0.0
C309 C 0.43336 0.03939 0.47044 0.0
C310 C 0.43503 0.00243 0.44678 0.0
N311 N 0.42125 0.01894 0.48504 0.0
C312 C 0.44723 0.04208 0.44381 0.0
C313 C 0.44818 0.02342 0.43174 0.0
H314 H 0.4116 0.98443 0.48517 0.0
H315 H 0.4323 0.05361 0.47947 0.0
C316 C 0.38018 0.0595 0.59926 0.0
N317 N 0.38225 0.05592 0.56714 0.0
C318 C 0.37874 0.07822 0.60903 0.0
C319 C 0.38165 0.08933 0.55246 0.0
C320 C 0.38317 0.07044 0.5438 0.0
C321 C 0.37951 0.09345 0.58548 0.0
H322 H 0.37981 0.04785 0.61736 0.0
H323 H 0.38554 0.06768 0.51856 0.0
O324 O 0.3899 0.98397 0.54187 0.0
O325 O 0.37001 0.005 0.58884 0.0
O326 O 0.41606 0.03528 0.56053 0.0
O327 O 0.37475 0.01489 0.51426 0.0
H328 H 0.36031 0.94227 0.55917 0.0
H329 H 0.43083 0.98938 0.54577 0.0
H330 H 0.37006 0.9136 0.57678 0.0
H331 H 0.43938 0.95993 0.5638 0.0
H332 H 0.30348 0.00081 0.6139 0.0
H333 H 0.35974 0.97844 0.64033 0.0
H334 H 0.33782 0.0151 0.57984 0.0
H335 H 0.3251 0.96495 0.67359 0.0
H336 H 0.40795 0.95959 0.66793 0.0
H337 H 0.45838 0.03021 0.66259 0.0
H338 H 0.30541 0.93967 0.46851 0.0
H339 H 0.29085 0.91967 0.56977 0.0
H340 H 0.4288 0.07716 0.54345 0.0
H341 H 0.45101 0.02902 0.55555 0.0
H342 H 0.46726 0.10529 0.52515 0.0
H343 H 0.48905 0.05793 0.53684 0.0
H344 H 0.39072 0.04107 0.46233 0.0
H345 H 0.33282 0.00557 0.52446 0.0
H346 H 0.3696 0.05489 0.42971 0.0
H347 H 0.31279 0.02018 0.491 0.0
H348 H 0.43538 0.98765 0.4383 0.0
H349 H 0.4569 0.05849 0.43257 0.0
H350 H 0.37696 0.08069 0.63473 0.0
H351 H 0.38271 0.10088 0.5336 0.0
Li352 Li 0.40241 0.3967 0.74706 0.0
Li353 Li 0.38422 0.36292 0.7123 0.0
Li354 Li 0.3976 0.40171 0.68924 0.0
Li355 Li 0.36365 0.38299 0.72369 0.0
C356 C 0.43685 0.39493 0.71727 0.0
N357 N 0.48039 0.40702 0.73445 0.0
C358 C 0.44225 0.37839 0.72524 0.0
C359 C 0.45363 0.41758 0.71761 0.0
C360 C 0.46436 0.38486 0.73396 0.0
C361 C 0.47552 0.42336 0.7265 0.0
C362 C 0.36354 0.34883 0.77331 0.0
C363 C 0.33116 0.31251 0.78427 0.0
N364 N 0.34222 0.30985 0.80989 0.0
C365 C 0.37451 0.34586 0.79995 0.0
C366 C 0.34162 0.33215 0.76556 0.0
C367 C 0.36348 0.32598 0.81806 0.0
C368 C 0.42046 0.42863 0.79694 0.0
N369 N 0.42089 0.41055 0.78429 0.0
C370 C 0.44791 0.41407 0.8242 0.0
C371 C 0.43392 0.40286 0.79769 0.0
C372 C 0.44804 0.43302 0.8374 0.0
C373 C 0.43394 0.44016 0.82361 0.0
H374 H 0.40966 0.43417 0.78624 0.0
H375 H 0.43348 0.38805 0.78785 0.0
C376 C 0.37679 0.32728 0.67127 0.0
N377 N 0.38128 0.33441 0.70275 0.0
C378 C 0.37504 0.30687 0.66213 0.0
C379 C 0.38271 0.30152 0.71796 0.0
C380 C 0.38442 0.3221 0.72598 0.0
C381 C 0.37802 0.29366 0.68561 0.0
H382 H 0.37487 0.33763 0.65312 0.0
H383 H 0.38862 0.32838 0.75062 0.0
C384 C 0.39472 0.43558 0.71939 0.0
N385 N 0.40545 0.47885 0.70287 0.0
C386 C 0.37771 0.4403 0.71138 0.0
C387 C 0.41715 0.45291 0.71941 0.0
C388 C 0.38349 0.46228 0.70301 0.0
C389 C 0.42225 0.47466 0.71085 0.0
C390 C 0.35017 0.36303 0.66203 0.0
C391 C 0.3476 0.37449 0.6357 0.0
C392 C 0.33333 0.341 0.6689 0.0
C393 C 0.32796 0.36384 0.617 0.0
C394 C 0.31394 0.33093 0.64963 0.0
N395 N 0.31167 0.34247 0.62432 0.0
C396 C 0.42986 0.42043 0.63985 0.0
C397 C 0.40401 0.43376 0.63931 0.0
C398 C 0.44176 0.4345 0.61388 0.0
N399 N 0.4116 0.42057 0.65237 0.0
C400 C 0.41556 0.44831 0.61349 0.0
C401 C 0.43489 0.449 0.60062 0.0
H402 H 0.43524 0.40938 0.65011 0.0
H403 H 0.3891 0.43316 0.64907 0.0
C404 C 0.32844 0.37585 0.76522 0.0
N405 N 0.33499 0.37967 0.73346 0.0
C406 C 0.30808 0.37403 0.77481 0.0
C407 C 0.30153 0.38018 0.7188 0.0
C408 C 0.32208 0.38199 0.71033 0.0
C409 C 0.2943 0.37624 0.75148 0.0
H410 H 0.33925 0.37456 0.78326 0.0
H411 H 0.32788 0.38567 0.68542 0.0
O412 O 0.41528 0.38892 0.70881 0.0
O413 O 0.37411 0.36818 0.75533 0.0
O414 O 0.38938 0.41416 0.72756 0.0
O415 O 0.36929 0.37321 0.68057 0.0
H416 H 0.4295 0.36078 0.72489 0.0
H417 H 0.44978 0.43055 0.71109 0.0
H418 H 0.46876 0.37225 0.74037 0.0
H419 H 0.48866 0.44084 0.72703 0.0
H420 H 0.31421 0.29942 0.77848 0.0
H421 H 0.39143 0.3587 0.80641 0.0
H422 H 0.33273 0.33439 0.74546 0.0
H423 H 0.37181 0.32338 0.83862 0.0
H424 H 0.45831 0.40786 0.83449 0.0
H425 H 0.43362 0.45476 0.83298 0.0
H426 H 0.37189 0.30179 0.63677 0.0
H427 H 0.38502 0.29188 0.73694 0.0
H428 H 0.36026 0.42713 0.71145 0.0
H429 H 0.43048 0.4496 0.72596 0.0
H430 H 0.37051 0.46616 0.69659 0.0
H431 H 0.43955 0.48821 0.7106 0.0
H432 H 0.36057 0.39148 0.62991 0.0
H433 H 0.33527 0.33174 0.68875 0.0
H434 H 0.32567 0.37255 0.59667 0.0
H435 H 0.30073 0.31392 0.65473 0.0
H436 H 0.45616 0.43393 0.60424 0.0
H437 H 0.40962 0.45919 0.60419 0.0
H438 H 0.30349 0.37147 0.80038 0.0
H439 H 0.29143 0.38189 0.69992 0.0
Li440 Li 0.01575 0.40218 0.9149 0.0
Li441 Li 0.03139 0.38415 0.88003 0.0
Li442 Li 0.00629 0.39793 0.85747 0.0
Li443 Li 0.99056 0.36373 0.89122 0.0
C444 C 0.05252 0.43617 0.88813 0.0
N445 N 0.08429 0.4781 0.91095 0.0
C446 C 0.07405 0.44044 0.89653 0.0
C447 C 0.04723 0.45329 0.89097 0.0
C448 C 0.08986 0.46174 0.90809 0.0
C449 C 0.06349 0.47435 0.90269 0.0
C450 C 0.0227 0.36146 0.94068 0.0
C451 C 0.02287 0.32692 0.9507 0.0
N452 N 0.03636 0.33654 0.97709 0.0
C453 C 0.03634 0.37092 0.96812 0.0
C454 C 0.01571 0.33922 0.93206 0.0
C455 C 0.04316 0.35808 0.98612 0.0
C456 C 0.00311 0.4227 0.96299 0.0
N457 N 0.02067 0.42049 0.95242 0.0
C458 C 0.04434 0.44514 0.99447 0.0
C459 C 0.04093 0.43104 0.96786 0.0
C460 C 0.02655 0.44794 0.00563 0.0
C461 C 0.00567 0.43638 0.98971 0.0
H462 H 0.98709 0.4139 0.9506 0.0
H463 H 0.0545 0.42864 0.9594 0.0
C464 C 0.06074 0.37945 0.83806 0.0
N465 N 0.05689 0.38118 0.87018 0.0
C466 C 0.07946 0.37798 0.82845 0.0
C467 C 0.09006 0.38018 0.88517 0.0
C468 C 0.07114 0.38169 0.89368 0.0
C469 C 0.09447 0.37841 0.85214 0.0
H470 H 0.04931 0.3794 0.81985 0.0
H471 H 0.06816 0.38379 0.91894 0.0
C472 C 0.96931 0.39441 0.88473 0.0
N473 N 0.93708 0.40413 0.86263 0.0
C474 C 0.94806 0.37703 0.87546 0.0
C475 C 0.97409 0.41672 0.8831 0.0
C476 C 0.93201 0.3823 0.86429 0.0
C477 C 0.9576 0.4213 0.87174 0.0
C478 C 0.99901 0.35067 0.8295 0.0
C479 C 0.98536 0.34722 0.80229 0.0
C480 C 0.00571 0.33503 0.83697 0.0
C481 C 0.97827 0.3279 0.78335 0.0
C482 C 0.99828 0.31592 0.81742 0.0
N483 N 0.9848 0.31277 0.79127 0.0
C484 C 0.01938 0.43211 0.81106 0.0
C485 C 0.98151 0.40304 0.80496 0.0
C486 C 0.01715 0.44404 0.7852 0.0
N487 N 0.00162 0.41218 0.82072 0.0
C488 C 0.97846 0.41451 0.77904 0.0
C489 C 0.9964 0.43543 0.76902 0.0
H490 H 0.03535 0.43878 0.82344 0.0
H491 H 0.96775 0.38697 0.81269 0.0
C492 C 0.96102 0.32979 0.93295 0.0
N493 N 0.9651 0.33513 0.90079 0.0
C494 C 0.94252 0.30942 0.94259 0.0
C495 C 0.93257 0.30042 0.8858 0.0
C496 C 0.95125 0.32102 0.87727 0.0
C497 C 0.92796 0.29438 0.91888 0.0
H498 H 0.97209 0.3415 0.95117 0.0
H499 H 0.95445 0.32581 0.85192 0.0
O500 O 0.03677 0.41538 0.87699 0.0
O501 O 0.01587 0.37381 0.92284 0.0
O502 O 0.98529 0.38959 0.89553 0.0
O503 O 0.00609 0.36952 0.84826 0.0
H504 H 0.07846 0.42742 0.89431 0.0
H505 H 0.03069 0.4503 0.8844 0.0
H506 H 0.10655 0.46525 0.91484 0.0
H507 H 0.05958 0.48772 0.90523 0.0
H508 H 0.01763 0.3097 0.94426 0.0
H509 H 0.04173 0.38804 0.9753 0.0
H510 H 0.00471 0.33144 0.91142 0.0
H511 H 0.05384 0.36524 0.00728 0.0
H512 H 0.06061 0.45356 0.00639 0.0
H513 H 0.99157 0.4382 0.99745 0.0
H514 H 0.08213 0.37646 0.80274 0.0
H515 H 0.10141 0.38099 0.90417 0.0
H516 H 0.94405 0.35967 0.8767 0.0
H517 H 0.99041 0.43035 0.89036 0.0
H518 H 0.91553 0.36902 0.85689 0.0
H519 H 0.96112 0.43849 0.87015 0.0
H520 H 0.98018 0.35927 0.796 0.0
H521 H 0.01671 0.3377 0.85743 0.0
H522 H 0.96758 0.32494 0.76236 0.0
H523 H 0.00329 0.30365 0.82298 0.0
H524 H 0.03163 0.45978 0.77782 0.0
H525 H 0.96214 0.40723 0.76739 0.0
H526 H 0.93942 0.30573 0.96838 0.0
H527 H 0.92191 0.28933 0.86666 0.0
H528 H 0.54044 0.00148 0.17537 0.0
H529 H 0.51874 0.00402 0.22076 0.0
H530 H 0.58001 0.05363 0.26723 0.0
H531 H 0.60204 0.05081 0.22228 0.0
H532 H 0.52608 0.9965 0.2905 0.0
H533 H 0.53639 0.08086 0.26478 0.0
H534 H 0.5398 0.06422 0.23351 0.0
H535 H 0.56118 0.07817 0.26391 0.0
C536 C 0.54937 0.01283 0.19531 0.0
C537 C 0.57302 0.02584 0.19524 0.0
C538 C 0.53692 0.01437 0.22109 0.0
C539 C 0.5478 0.02911 0.24712 0.0
C540 C 0.57133 0.04237 0.24706 0.0
H541 H 0.49215 0.05569 0.42216 0.0
H542 H 0.51709 0.05768 0.37781 0.0
C543 C 0.58386 0.04077 0.22133 0.0
C544 C 0.53444 0.02974 0.27497 0.0
H545 H 0.51549 0.06182 0.31154 0.0
C546 C 0.52376 0.01078 0.2952 0.0
C547 C 0.53172 0.04849 0.28107 0.0
C548 C 0.54273 0.06912 0.25966 0.0
C549 C 0.5103 0.01001 0.32146 0.0
C550 C 0.50692 0.02847 0.327 0.0
C551 C 0.51799 0.04765 0.30711 0.0
C552 C 0.49162 0.02796 0.35296 0.0
C553 C 0.50011 0.98954 0.34328 0.0
C554 C 0.46891 0.01098 0.35317 0.0
C555 C 0.45473 0.00974 0.37849 0.0
C556 C 0.4629 0.02568 0.40382 0.0
C557 C 0.4854 0.04323 0.40288 0.0
C558 C 0.49966 0.04434 0.37765 0.0
H559 H 0.50968 0.98043 0.34202 0.0
H560 H 0.49959 0.99418 0.36909 0.0
H561 H 0.48264 0.97777 0.33517 0.0
H562 H 0.46218 0.99856 0.33384 0.0
H563 H 0.43735 0.99628 0.37829 0.0
H564 H 0.53081 0.57941 0.3498 0.0
H565 H 0.50562 0.55794 0.39492 0.0
H566 H 0.55788 0.54839 0.43677 0.0
H567 H 0.58314 0.56982 0.39189 0.0
H568 H 0.49463 0.51066 0.41261 0.0
H569 H 0.5339 0.57348 0.51236 0.0
H570 H 0.53714 0.58133 0.46974 0.0
H571 H 0.55276 0.56921 0.48677 0.0
C572 C 0.53699 0.57297 0.36887 0.0
C573 C 0.55892 0.57626 0.36738 0.0
C574 C 0.52258 0.56066 0.39447 0.0
C575 C 0.53001 0.55179 0.41918 0.0
C576 C 0.55196 0.55532 0.41802 0.0
H577 H 0.48064 0.47241 0.59266 0.0
H578 H 0.50214 0.49717 0.54777 0.0
C579 C 0.56629 0.56741 0.39231 0.0
C580 C 0.51457 0.53791 0.44549 0.0
H581 H 0.50643 0.53647 0.52776 0.0
C582 C 0.49698 0.51631 0.43778 0.0
C583 C 0.51789 0.5454 0.47818 0.0
C584 C 0.53633 0.56868 0.48743 0.0
C585 C 0.48304 0.50158 0.46221 0.0
C586 C 0.48648 0.50897 0.49508 0.0
C587 C 0.5038 0.53083 0.50259 0.0
C588 C 0.47307 0.49397 0.52227 0.0
C589 C 0.46546 0.47796 0.45272 0.0
C590 C 0.44955 0.48411 0.52309 0.0
C591 C 0.43711 0.46953 0.54847 0.0
C592 C 0.44799 0.46478 0.57378 0.0
C593 C 0.47162 0.47522 0.57325 0.0
C594 C 0.48399 0.48959 0.54775 0.0
H595 H 0.46894 0.47323 0.42838 0.0
H596 H 0.4645 0.46554 0.47095 0.0
H597 H 0.44877 0.47683 0.45153 0.0
H598 H 0.4408 0.48764 0.50408 0.0
H599 H 0.41895 0.46174 0.54795 0.0
H600 H 0.01386 0.48097 0.76472 0.0
H601 H 0.01128 0.50235 0.71891 0.0
H602 H 0.96977 0.44072 0.66648 0.0
H603 H 0.9728 0.41907 0.7118 0.0
H604 H 0.02376 0.49608 0.64792 0.0
H605 H 0.93687 0.48095 0.66741 0.0
H606 H 0.95366 0.47999 0.7007 0.0
H607 H 0.94201 0.45772 0.67123 0.0
C608 C 0.00429 0.4719 0.7434 0.0
C609 C 0.99368 0.44828 0.74188 0.0
C610 C 0.00271 0.48416 0.71738 0.0
C611 C 0.99027 0.47306 0.68953 0.0
C612 C 0.97927 0.44951 0.68801 0.0
H613 H 0.96505 0.52803 0.51272 0.0
H614 H 0.96311 0.50312 0.55707 0.0
C615 C 0.98096 0.4372 0.71398 0.0
C616 C 0.9898 0.48631 0.66148 0.0
H617 H 0.95719 0.50381 0.62286 0.0
C618 C 0.00921 0.49776 0.64231 0.0
C619 C 0.9707 0.48819 0.65421 0.0
C620 C 0.94956 0.47617 0.67441 0.0
C621 C 0.0101 0.51122 0.61596 0.0
C622 C 0.99127 0.5138 0.6093 0.0
C623 C 0.97166 0.50194 0.62814 0.0
C624 C 0.99179 0.52904 0.58323 0.0
C625 C 0.03111 0.52227 0.59527 0.0
C626 C 0.00817 0.55196 0.58371 0.0
C627 C 0.00939 0.56613 0.55838 0.0
C628 C 0.99401 0.55773 0.53235 0.0
C629 C 0.97706 0.53496 0.53255 0.0
C630 C 0.97598 0.52073 0.55778 0.0
H631 H 0.04076 0.51326 0.59714 0.0
H632 H 0.02702 0.52287 0.5692 0.0
H633 H 0.04218 0.53976 0.60393 0.0
H634 H 0.02012 0.55888 0.6036 0.0
H635 H 0.02238 0.5837 0.55915 0.0
H636 H 0.52845 0.96166 0.92439 0.0
H637 H 0.50322 0.95795 0.87934 0.0
H638 H 0.55773 0.01539 0.83175 0.0
H639 H 0.58303 0.01917 0.87653 0.0
H640 H 0.4954 0.99533 0.8575 0.0
H641 H 0.52925 0.96333 0.76114 0.0
H642 H 0.533 0.96044 0.8042 0.0
H643 H 0.54971 0.98706 0.78433 0.0
C644 C 0.5351 0.97331 0.9041 0.0
C645 C 0.55769 0.99071 0.90393 0.0
C646 C 0.52067 0.97122 0.87853 0.0
C647 C 0.52872 0.98629 0.85221 0.0
C648 C 0.55131 0.00348 0.85175 0.0
H649 H 0.48082 0.01403 0.67533 0.0
H650 H 0.50191 0.01071 0.72074 0.0
C651 C 0.56567 0.00571 0.87741 0.0
C652 C 0.51336 0.98477 0.82579 0.0
H653 H 0.50358 0.97491 0.74419 0.0
C654 C 0.49695 0.99064 0.83275 0.0
C655 C 0.51563 0.97876 0.79365 0.0
C656 C 0.53272 0.97186 0.78524 0.0
C657 C 0.48323 0.9915 0.80803 0.0
C658 C 0.48563 0.98571 0.77569 0.0
C659 C 0.50174 0.97933 0.76897 0.0
C660 C 0.47245 0.98727 0.74814 0.0
C661 C 0.46702 0.99955 0.81656 0.0
C662 C 0.44883 0.97497 0.7482 0.0
C663 C 0.43665 0.97717 0.72249 0.0
C664 C 0.44789 0.9915 0.69599 0.0
C665 C 0.47157 0.00326 0.69564 0.0
C666 C 0.48369 0.0012 0.72145 0.0
H667 H 0.47141 0.0088 0.84013 0.0
H668 H 0.46672 0.01073 0.79724 0.0
H669 H 0.44983 0.98481 0.81892 0.0
H670 H 0.4398 0.96372 0.76818 0.0
H671 H 0.41846 0.96794 0.7237 0.0
H672 H 0.53968 0.54021 0.09874 0.0
H673 H 0.51842 0.51635 0.05273 0.0
H674 H 0.57996 0.53918 0.99875 0.0
H675 H 0.60146 0.56374 0.04428 0.0
H676 H 0.52469 0.53661 0.98114 0.0
H677 H 0.5404 0.46512 0.99936 0.0
H678 H 0.5405 0.48207 0.03321 0.0
H679 H 0.56319 0.49363 0.00444 0.0
C680 C 0.54875 0.54032 0.07705 0.0
C681 C 0.57229 0.55406 0.07514 0.0
C682 C 0.53657 0.52653 0.05092 0.0
C683 C 0.54769 0.52601 0.02257 0.0
C684 C 0.57117 0.53928 0.02066 0.0
H685 H 0.49257 0.44639 0.84523 0.0
H686 H 0.51758 0.46924 0.88959 0.0
C687 C 0.5834 0.55321 0.04674 0.0
C688 C 0.53448 0.5124 0.99441 0.0
H689 H 0.51701 0.46242 0.95544 0.0
C690 C 0.52303 0.52042 0.97537 0.0
C691 C 0.53264 0.49148 0.98695 0.0
C692 C 0.54474 0.48237 0.00699 0.0
C693 C 0.50955 0.50791 0.94899 0.0
C694 C 0.50698 0.48652 0.94216 0.0
C695 C 0.51888 0.47874 0.96085 0.0
C696 C 0.4917 0.47186 0.91608 0.0
C697 C 0.49847 0.5179 0.92845 0.0
C698 C 0.46876 0.46526 0.91675 0.0
C699 C 0.45453 0.45237 0.89142 0.0
C700 C 0.46289 0.44552 0.8652 0.0
C701 C 0.48567 0.45137 0.86521 0.0
C702 C 0.49996 0.46446 0.89044 0.0
H703 H 0.50745 0.53655 0.93043 0.0
H704 H 0.49784 0.51328 0.90235 0.0
H705 H 0.48098 0.51143 0.93715 0.0
H706 H 0.46188 0.47021 0.93679 0.0
H707 H 0.43696 0.44775 0.89234 0.0
H708 H 0.06136 0.49061 0.01635 0.0
H709 H 0.06532 0.51605 0.06129 0.0
H710 H 0.00272 0.4647 0.10244 0.0
H711 H 0.9986 0.4392 0.05772 0.0
H712 H 0.02372 0.52435 0.0801 0.0
H713 H 0.05794 0.492 0.1758 0.0
H714 H 0.06318 0.49069 0.13282 0.0
H715 H 0.0359 0.47206 0.14947 0.0
C716 C 0.0486 0.48468 0.03521 0.0
C717 C 0.02965 0.46296 0.03356 0.0
C718 C 0.05084 0.49923 0.06069 0.0
C719 C 0.03433 0.49213 0.08505 0.0
C720 C 0.01563 0.47037 0.08381 0.0
H721 H 0.0085 0.54024 0.26292 0.0
H722 H 0.01199 0.51921 0.21757 0.0
C723 C 0.01326 0.45591 0.05823 0.0
C724 C 0.03604 0.50766 0.11124 0.0
H725 H 0.04784 0.51874 0.19221 0.0
C726 C 0.02921 0.52338 0.10458 0.0
C727 C 0.04302 0.50606 0.14301 0.0
C728 C 0.05055 0.48939 0.15095 0.0
C729 C 0.02848 0.53715 0.12932 0.0
C730 C 0.03536 0.53551 0.16131 0.0
C731 C 0.04265 0.52005 0.16768 0.0
C732 C 0.03387 0.54868 0.18894 0.0
C733 C 0.01939 0.55258 0.12122 0.0
C734 C 0.04528 0.57229 0.18819 0.0
C735 C 0.04294 0.58441 0.21386 0.0
C736 C 0.02938 0.57313 0.24102 0.0
C737 C 0.01862 0.54949 0.24209 0.0
C738 C 0.02079 0.53742 0.21631 0.0
H739 H 0.00953 0.54758 0.09817 0.0
H740 H 0.00847 0.55268 0.14114 0.0
H741 H 0.03365 0.56997 0.11806 0.0
H742 H 0.05589 0.58136 0.16766 0.0
H743 H 0.05141 0.60257 0.21209 0.0
H744 H 0.67063 0.76761 0.20549 0.0
H745 H 0.67171 0.80239 0.18832 0.0
H746 H 0.61939 0.76496 0.11789 0.0
H747 H 0.618 0.73014 0.13512 0.0
H748 H 0.67908 0.82085 0.12103 0.0
H749 H 0.59658 0.80061 0.17457 0.0
H750 H 0.61192 0.78693 0.18762 0.0
H751 H 0.59663 0.77898 0.14984 0.0
C752 C 0.65926 0.76679 0.18651 0.0
C753 C 0.6442 0.74615 0.17169 0.0
C754 C 0.65999 0.78665 0.17663 0.0
C755 C 0.6455 0.78614 0.15208 0.0
C756 C 0.63056 0.76562 0.1371 0.0
H757 H 0.61633 0.88302 0.0636 0.0
H758 H 0.61773 0.84946 0.07962 0.0
C759 C 0.62992 0.7458 0.14679 0.0
C760 C 0.64602 0.80706 0.14192 0.0
H761 H 0.61465 0.833 0.14124 0.0
C762 C 0.66508 0.82362 0.12554 0.0
C763 C 0.62766 0.81048 0.14781 0.0
C764 C 0.60706 0.79343 0.16613 0.0
C765 C 0.66607 0.84341 0.11418 0.0
C766 C 0.64769 0.84686 0.12008 0.0
C767 C 0.62869 0.8303 0.13668 0.0
C768 C 0.6477 0.86746 0.10919 0.0
C769 C 0.6865 0.86011 0.09519 0.0
C770 C 0.66407 0.88873 0.12053 0.0
C771 C 0.66349 0.90801 0.11109 0.0
C772 C 0.64636 0.90636 0.09038 0.0
C773 C 0.62998 0.88498 0.07909 0.0
C774 C 0.63064 0.86574 0.08844 0.0
H775 H 0.69596 0.85224 0.08509 0.0
H776 H 0.6817 0.8675 0.07477 0.0
H777 H 0.69797 0.87396 0.11168 0.0
H778 H 0.67713 0.89041 0.13708 0.0
H779 H 0.67647 0.9242 0.12004 0.0
H780 H 0.8983 0.61729 0.29945 0.0
H781 H 0.86488 0.61839 0.28135 0.0
H782 H 0.8789 0.67073 0.35133 0.0
H783 H 0.91263 0.67006 0.36919 0.0
H784 H 0.82755 0.61103 0.32129 0.0
H785 H 0.86998 0.69576 0.26383 0.0
H786 H 0.88449 0.68048 0.27252 0.0
H787 H 0.87872 0.69459 0.3048 0.0
C788 C 0.89445 0.62926 0.31069 0.0
C789 C 0.90817 0.64368 0.33564 0.0
C790 C 0.87529 0.62976 0.30045 0.0
C791 C 0.86961 0.64482 0.31474 0.0
C792 C 0.88321 0.65922 0.33968 0.0
H793 H 0.75896 0.6705 0.28997 0.0
H794 H 0.79351 0.671 0.30624 0.0
C795 C 0.90233 0.65866 0.35005 0.0
C796 C 0.849 0.64489 0.30426 0.0
H797 H 0.83027 0.67737 0.26833 0.0
C798 C 0.82811 0.62548 0.30959 0.0
C799 C 0.84987 0.66382 0.28914 0.0
C800 C 0.87195 0.68482 0.28193 0.0
C801 C 0.80795 0.6246 0.30062 0.0
C802 C 0.80879 0.64348 0.28531 0.0
C803 C 0.8297 0.66292 0.28004 0.0
C804 C 0.78811 0.64342 0.27477 0.0
C805 C 0.78591 0.60366 0.3083 0.0
C806 C 0.77384 0.628 0.25127 0.0
C807 C 0.75401 0.62756 0.24209 0.0
C808 C 0.74815 0.64264 0.25612 0.0
C809 C 0.76279 0.65842 0.2791 0.0
C810 C 0.78261 0.65884 0.28826 0.0
H811 H 0.78792 0.59325 0.32732 0.0
H812 H 0.77317 0.60798 0.31677 0.0
H813 H 0.77939 0.59328 0.28589 0.0
H814 H 0.77799 0.61622 0.24014 0.0
H815 H 0.74305 0.61509 0.22451 0.0
H816 H 0.11352 0.76612 0.38759 0.0
H817 H 0.14762 0.80092 0.40354 0.0
H818 H 0.1569 0.76639 0.48469 0.0
H819 H 0.12315 0.73151 0.46865 0.0
H820 H 0.1565 0.82364 0.46626 0.0
H821 H 0.21816 0.79643 0.43562 0.0
H822 H 0.18982 0.78248 0.41967 0.0
H823 H 0.19502 0.77722 0.46081 0.0
C824 C 0.12296 0.7659 0.40864 0.0
C825 C 0.11567 0.74607 0.42684 0.0
C826 C 0.14233 0.7858 0.41781 0.0
C827 C 0.15486 0.78611 0.44506 0.0
C828 C 0.1476 0.76639 0.46333 0.0
H829 H 0.27644 0.88419 0.54232 0.0
H830 H 0.24178 0.85071 0.52505 0.0
C831 C 0.1282 0.74655 0.45431 0.0
C832 C 0.17532 0.80715 0.45486 0.0
H833 H 0.23206 0.83067 0.46478 0.0
C834 C 0.17307 0.82529 0.46578 0.0
C835 C 0.19683 0.80912 0.45425 0.0
C836 C 0.20025 0.79037 0.44171 0.0
C837 C 0.19175 0.84525 0.47693 0.0
C838 C 0.21329 0.84722 0.47645 0.0
C839 C 0.21552 0.8291 0.46522 0.0
C840 C 0.23376 0.86784 0.48765 0.0
C841 C 0.18815 0.86377 0.49 0.0
C842 C 0.24078 0.88858 0.4723 0.0
C843 C 0.26045 0.90783 0.48238 0.0
C844 C 0.27363 0.90666 0.50781 0.0
C845 C 0.26652 0.88581 0.52307 0.0
C846 C 0.24681 0.8666 0.51305 0.0
H847 H 0.17031 0.85737 0.49694 0.0
H848 H 0.19894 0.87195 0.51163 0.0
H849 H 0.19263 0.87675 0.47083 0.0
H850 H 0.23121 0.88985 0.45222 0.0
H851 H 0.26531 0.92364 0.47026 0.0
H852 H 0.3491 0.26189 0.64215 0.0
H853 H 0.34821 0.22726 0.62523 0.0
H854 H 0.4029 0.24179 0.69092 0.0
H855 H 0.40439 0.27674 0.70738 0.0
H856 H 0.38657 0.22443 0.59814 0.0
H857 H 0.35226 0.17578 0.71286 0.0
H858 H 0.3493 0.19977 0.70251 0.0
H859 H 0.37569 0.20387 0.71741 0.0
C860 C 0.36105 0.25783 0.65289 0.0
C861 C 0.37681 0.27214 0.67618 0.0
C862 C 0.36041 0.23797 0.64332 0.0
C863 C 0.37532 0.23192 0.6571 0.0
C864 C 0.391 0.24602 0.68042 0.0
H865 H 0.4017 0.12203 0.636 0.0
H866 H 0.40029 0.15558 0.65232 0.0
C867 C 0.39175 0.26595 0.68988 0.0
C868 C 0.37503 0.21121 0.64632 0.0
H869 H 0.36472 0.15974 0.67263 0.0
C870 C 0.38167 0.21019 0.61428 0.0
C871 C 0.36873 0.19281 0.66758 0.0
C872 C 0.36092 0.1929 0.70197 0.0
C873 C 0.38271 0.19139 0.60312 0.0
C874 C 0.37638 0.17292 0.62439 0.0
C875 C 0.36956 0.17391 0.65637 0.0
C876 C 0.37711 0.15256 0.61419 0.0
C877 C 0.39126 0.19182 0.56904 0.0
C878 C 0.36434 0.13957 0.58755 0.0
C879 C 0.36519 0.12043 0.57809 0.0
C880 C 0.37856 0.11376 0.59542 0.0
C881 C 0.39107 0.12662 0.62236 0.0
C882 C 0.39034 0.14583 0.63165 0.0
H883 H 0.40109 0.20925 0.55941 0.0
H884 H 0.40204 0.18399 0.56836 0.0
H885 H 0.37673 0.18217 0.5525 0.0
H886 H 0.35357 0.14413 0.57424 0.0
H887 H 0.3551 0.11066 0.55755 0.0
H888 H 0.11191 0.35423 0.88032 0.0
H889 H 0.14585 0.35331 0.86415 0.0
H890 H 0.15676 0.39942 0.78551 0.0
H891 H 0.12315 0.40075 0.80178 0.0
H892 H 0.15538 0.34103 0.80031 0.0
H893 H 0.21727 0.42862 0.83687 0.0
H894 H 0.18871 0.41399 0.85197 0.0
H895 H 0.19456 0.42568 0.81155 0.0
C896 C 0.12165 0.36431 0.85976 0.0
C897 C 0.11488 0.37759 0.84235 0.0
C898 C 0.14094 0.36367 0.85047 0.0
C899 C 0.15388 0.37648 0.82388 0.0
C900 C 0.14711 0.38963 0.80635 0.0
H901 H 0.27678 0.40191 0.72906 0.0
H902 H 0.24203 0.40057 0.74613 0.0
C903 C 0.1278 0.3902 0.81549 0.0
C904 C 0.17435 0.37592 0.8141 0.0
H905 H 0.2313 0.40884 0.80665 0.0
C906 C 0.17202 0.35578 0.80184 0.0
C907 C 0.19595 0.39524 0.8161 0.0
C908 C 0.19942 0.41709 0.83007 0.0
C909 C 0.19075 0.35459 0.79068 0.0
C910 C 0.21239 0.37396 0.79256 0.0
C911 C 0.21469 0.39404 0.80514 0.0
C912 C 0.23292 0.37391 0.78139 0.0
C913 C 0.18709 0.33282 0.7761 0.0
C914 C 0.23938 0.35939 0.7956 0.0
C915 C 0.25909 0.35989 0.78557 0.0
C916 C 0.2729 0.37512 0.76138 0.0
C917 C 0.26638 0.38969 0.7473 0.0
C918 C 0.24661 0.38908 0.75723 0.0
H919 H 0.16936 0.32184 0.76822 0.0
H920 H 0.19828 0.336 0.75477 0.0
H921 H 0.19097 0.32352 0.79472 0.0
H922 H 0.22932 0.34786 0.81475 0.0
H923 H 0.26349 0.34831 0.79676 0.0
H924 H 0.88571 0.27401 0.89197 0.0
H925 H 0.85257 0.23893 0.90904 0.0
H926 H 0.89128 0.23103 0.98539 0.0
H927 H 0.9247 0.26581 0.96808 0.0
H928 H 0.84829 0.19407 0.91554 0.0
H929 H 0.83521 0.22797 0.03176 0.0
H930 H 0.85191 0.24596 0.99865 0.0
H931 H 0.86311 0.23275 0.02438 0.0
C932 C 0.8873 0.2647 0.91213 0.0
C933 C 0.90789 0.2728 0.92872 0.0
C934 C 0.8683 0.24473 0.92196 0.0
C935 C 0.86947 0.2326 0.94868 0.0
C936 C 0.88999 0.24039 0.96503 0.0
H937 H 0.76724 0.11316 0.04936 0.0
H938 H 0.80237 0.14649 0.03253 0.0
C939 C 0.90904 0.2603 0.95515 0.0
C940 C 0.84917 0.21175 0.95939 0.0
H941 H 0.81099 0.18935 0.02136 0.0
C942 C 0.84009 0.19298 0.93865 0.0
C943 C 0.83868 0.21044 0.98963 0.0
C944 C 0.84755 0.23036 0.01241 0.0
C945 C 0.82079 0.17278 0.94749 0.0
C946 C 0.81001 0.17158 0.9775 0.0
C947 C 0.81927 0.19032 0.99837 0.0
C948 C 0.78884 0.15121 0.98741 0.0
C949 C 0.81238 0.15283 0.92485 0.0
C950 C 0.76952 0.14302 0.96787 0.0
C951 C 0.74949 0.12399 0.97737 0.0
C952 C 0.74831 0.11294 0.00683 0.0
C953 C 0.7676 0.12139 0.02663 0.0
C954 C 0.78768 0.14036 0.01699 0.0
H955 H 0.82592 0.15431 0.90838 0.0
H956 H 0.80559 0.13685 0.93875 0.0
H957 H 0.79869 0.15197 0.90939 0.0
H958 H 0.76985 0.1515 0.94541 0.0
H959 H 0.73481 0.11817 0.96192 0.0
loop_
_geom_bond_atom_site_label_1
_geom_bond_atom_site_label_2
_geom_bond_distance
_geom_bond_site_symmetry_2
_ccdc_geom_bond_type
Li0 N17 1.990 . S
Li0 O60 1.956 . S
Li0 O61 1.970 . S
Li0 O62 1.961 . S
Li1 N25 1.990 . S
Li1 O60 1.970 . S
Li1 O61 1.956 . S
Li1 O63 1.961 1_545 S
Li2 N47 1.990 . S
Li2 O60 1.961 1_565 S
Li2 O62 1.956 1_565 S
Li2 O63 1.970 . S
Li3 N53 1.990 1_554 S
Li3 O61 1.961 . S
Li3 O62 1.970 . S
Li3 O63 1.956 1_545 S
C4 C6 1.348 . S
C4 C7 1.356 . S
C4 O60 1.325 . S
N5 C8 1.314 . S
N5 C9 1.279 . S
C6 C4 1.348 . S
C6 C8 1.353 . S
C6 H64 0.929 . S
C7 C4 1.356 . S
C7 C9 1.358 . S
C7 H65 0.930 . S
C8 N5 1.314 . S
C8 C6 1.353 . S
C8 H66 0.930 . S
C9 N5 1.279 . S
C9 C7 1.358 . S
C9 H67 0.930 . S
C10 C13 1.348 . S
C10 C14 1.356 . S
C10 O61 1.325 . S
C11 N12 1.279 . S
C11 C14 1.358 . S
C11 H68 0.930 . S
N12 C11 1.279 . S
N12 C15 1.314 . S
C13 C10 1.348 . S
C13 C15 1.353 . S
C13 H69 0.929 . S
C14 C10 1.356 . S
C14 C11 1.358 . S
C14 H70 0.930 . S
C15 N12 1.314 . S
C15 C13 1.353 . S
C15 H71 0.930 . S
C16 N17 1.314 . S
C16 C21 1.353 . S
C16 H22 0.930 1_554 S
N17 Li0 1.990 . S
N17 C16 1.314 . S
N17 C19 1.279 . S
C18 C19 1.358 . S
C18 C20 1.356 . S
C18 H72 0.930 . S
C19 N17 1.279 . S
C19 C18 1.358 . S
C19 H23 0.930 . S
C20 C18 1.356 . S
C20 C21 1.348 . S
C21 C16 1.353 . S
C21 C20 1.348 . S
C21 H73 0.929 1_554 S
H22 C16 0.930 1_556 S
H23 C19 0.930 . S
C24 N25 1.314 . S
C24 C26 1.353 . S
C24 H30 0.930 1_545 S
N25 Li1 1.990 . S
N25 C24 1.314 . S
N25 C28 1.279 . S
C26 C24 1.353 . S
C26 C29 1.348 . S
C26 H74 0.929 1_545 S
C27 C28 1.358 . S
C27 C29 1.356 . S
C27 H75 0.930 . S
C28 N25 1.279 . S
C28 C27 1.358 . S
C28 H31 0.930 . S
C29 C26 1.348 . S
C29 C27 1.356 . S
H30 C24 0.930 1_565 S
H31 C28 0.930 . S
C32 C34 1.348 1_545 S
C32 C35 1.356 . S
C32 O62 1.325 1_556 S
N33 C36 1.314 . S
N33 C37 1.279 1_565 S
C34 C32 1.348 1_565 S
C34 C36 1.353 . S
C34 H76 0.929 . S
C35 C32 1.356 . S
C35 C37 1.358 . S
C35 H77 0.930 1_556 S
C36 N33 1.314 . S
C36 C34 1.353 . S
C36 H78 0.930 . S
C37 N33 1.279 1_545 S
C37 C35 1.358 . S
C37 H79 0.930 . S
C38 C39 1.348 . S
C38 C40 1.356 . S
C38 O63 1.325 . S
C39 C38 1.348 . S
C39 C41 1.353 . S
C39 H80 0.929 . S
C40 C38 1.356 . S
C40 C42 1.358 . S
C40 H81 0.930 . S
C41 C39 1.353 . S
C41 N43 1.314 . S
C41 H82 0.930 . S
C42 C40 1.358 . S
C42 N43 1.279 . S
C42 H83 0.930 . S
N43 C41 1.314 . S
N43 C42 1.279 . S
C44 C46 1.353 . S
C44 N47 1.314 . S
C44 H50 0.930 . S
C45 N47 1.279 . S
C45 C48 1.358 . S
C45 H51 0.930 . S
C46 C44 1.353 . S
C46 C49 1.348 . S
C46 H84 0.929 . S
N47 Li2 1.990 . S
N47 C44 1.314 . S
N47 C45 1.279 . S
C48 C45 1.358 . S
C48 C49 1.356 . S
C48 H85 0.930 . S
C49 C46 1.348 . S
C49 C48 1.356 . S
H50 C44 0.930 . S
H51 C45 0.930 . S
C52 N53 1.314 . S
C52 C54 1.353 . S
C52 H58 0.930 . S
N53 Li3 1.990 1_556 S
N53 C52 1.314 . S
N53 C56 1.279 1_545 S
C54 C52 1.353 . S
C54 C57 1.348 1_545 S
C54 H86 0.929 . S
C55 C56 1.358 . S
C55 C57 1.356 . S
C55 H87 0.930 . S
C56 N53 1.279 1_565 S
C56 C55 1.358 . S
C56 H59 0.930 . S
C57 C54 1.348 1_565 S
C57 C55 1.356 . S
H58 C52 0.930 . S
H59 C56 0.930 . S
O60 Li0 1.956 . S
O60 Li1 1.970 . S
O60 Li2 1.961 1_545 S
O60 C4 1.325 . S
O61 Li0 1.970 . S
O61 Li1 1.956 . S
O61 Li3 1.961 . S
O61 C10 1.325 . S
O62 Li0 1.961 . S
O62 Li2 1.956 1_545 S
O62 Li3 1.970 . S
O62 C32 1.325 1_554 S
O63 Li1 1.961 1_565 S
O63 Li2 1.970 . S
O63 Li3 1.956 1_565 S
O63 C38 1.325 . S
H64 C6 0.929 . S
H65 C7 0.930 . S
H66 C8 0.930 . S
H67 C9 0.930 . S
H68 C11 0.930 . S
H69 C13 0.929 . S
H70 C14 0.930 . S
H71 C15 0.930 . S
H72 C18 0.930 . S
H73 C21 0.929 1_556 S
H74 C26 0.929 1_565 S
H75 C27 0.930 . S
H76 C34 0.929 . S
H77 C35 0.930 1_554 S
H78 C36 0.930 . S
H79 C37 0.930 . S
H80 C39 0.929 . S
H81 C40 0.930 . S
H82 C41 0.930 . S
H83 C42 0.930 . S
H84 C46 0.929 . S
H85 C48 0.930 . S
H86 C54 0.929 . S
H87 C55 0.930 . S
Li88 N105 1.990 . S
Li88 O148 1.956 . S
Li88 O149 1.970 . S
Li88 O150 1.961 . S
Li89 N113 1.990 . S
Li89 O148 1.970 . S
Li89 O149 1.956 . S
Li89 O151 1.961 . S
Li90 N135 1.990 . S
Li90 O148 1.961 . S
Li90 O150 1.956 . S
Li90 O151 1.970 . S
Li91 N141 1.990 . S
Li91 O149 1.961 . S
Li91 O150 1.970 . S
Li91 O151 1.956 . S
C92 C94 1.348 . S
C92 C95 1.356 . S
C92 O148 1.325 . S
N93 C96 1.314 . S
N93 C97 1.279 . S
C94 C92 1.348 . S
C94 C96 1.353 . S
C94 H152 0.929 . S
C95 C92 1.356 . S
C95 C97 1.358 . S
C95 H153 0.930 . S
C96 N93 1.314 . S
C96 C94 1.353 . S
C96 H154 0.930 . S
C97 N93 1.279 . S
C97 C95 1.358 . S
C97 H155 0.930 . S
C98 C101 1.348 . S
C98 C102 1.356 . S
C98 O149 1.325 . S
C99 N100 1.279 . S
C99 C102 1.358 . S
C99 H156 0.930 . S
N100 C99 1.279 . S
N100 C103 1.314 . S
C101 C98 1.348 . S
C101 C103 1.353 . S
C101 H157 0.929 . S
C102 C98 1.356 . S
C102 C99 1.358 . S
C102 H158 0.930 . S
C103 N100 1.314 . S
C103 C101 1.353 . S
C103 H159 0.930 . S
C104 N105 1.314 . S
C104 C109 1.353 . S
C104 H110 0.930 . S
N105 Li88 1.990 . S
N105 C104 1.314 . S
N105 C107 1.279 . S
C106 C107 1.358 . S
C106 C108 1.356 . S
C106 H160 0.930 . S
C107 N105 1.279 . S
C107 C106 1.358 . S
C107 H111 0.930 . S
C108 C106 1.356 . S
C108 C109 1.348 . S
C109 C104 1.353 . S
C109 C108 1.348 . S
C109 H161 0.929 . S
H110 C104 0.930 . S
H111 C107 0.930 . S
C112 N113 1.314 . S
C112 C114 1.353 . S
C112 H118 0.930 . S
N113 Li89 1.990 . S
N113 C112 1.314 . S
N113 C116 1.279 . S
C114 C112 1.353 . S
C114 C117 1.348 . S
C114 H162 0.929 . S
C115 C116 1.358 . S
C115 C117 1.356 . S
C115 H163 0.930 . S
C116 N113 1.279 . S
C116 C115 1.358 . S
C116 H119 0.930 . S
C117 C114 1.348 . S
C117 C115 1.356 . S
H118 C112 0.930 . S
H119 C116 0.930 . S
C120 C122 1.348 . S
C120 C123 1.356 . S
C120 O150 1.325 . S
N121 C124 1.314 . S
N121 C125 1.279 . S
C122 C120 1.348 . S
C122 C124 1.353 . S
C122 H164 0.929 . S
C123 C120 1.356 . S
C123 C125 1.358 . S
C123 H165 0.930 . S
C124 N121 1.314 . S
C124 C122 1.353 . S
C124 H166 0.930 . S
C125 N121 1.279 . S
C125 C123 1.358 . S
C125 H167 0.930 . S
C126 C127 1.348 . S
C126 C128 1.356 . S
C126 O151 1.325 . S
C127 C126 1.348 . S
C127 C129 1.353 . S
C127 H168 0.929 . S
C128 C126 1.356 . S
C128 C130 1.358 . S
C128 H169 0.930 . S
C129 C127 1.353 . S
C129 N131 1.314 . S
C129 H170 0.930 . S
C130 C128 1.358 . S
C130 N131 1.279 . S
C130 H171 0.930 . S
N131 C129 1.314 . S
N131 C130 1.279 . S
C132 C134 1.353 . S
C132 N135 1.314 . S
C132 H138 0.930 . S
C133 N135 1.279 . S
C133 C136 1.358 . S
C133 H139 0.930 . S
C134 C132 1.353 . S
C134 C137 1.348 . S
C134 H172 0.929 . S
N135 Li90 1.990 . S
N135 C132 1.314 . S
N135 C133 1.279 . S
C136 C133 1.358 . S
C136 C137 1.356 . S
C136 H173 0.930 . S
C137 C134 1.348 . S
C137 C136 1.356 . S
H138 C132 0.930 . S
H139 C133 0.930 . S
C140 N141 1.314 . S
C140 C142 1.353 . S
C140 H146 0.930 . S
N141 Li91 1.990 . S
N141 C140 1.314 . S
N141 C144 1.279 . S
C142 C140 1.353 . S
C142 C145 1.348 . S
C142 H174 0.929 . S
C143 C144 1.358 . S
C143 C145 1.356 . S
C143 H175 0.930 . S
C144 N141 1.279 . S
C144 C143 1.358 . S
C144 H147 0.930 . S
C145 C142 1.348 . S
C145 C143 1.356 . S
H146 C140 0.930 . S
H147 C144 0.930 . S
O148 Li88 1.956 . S
O148 Li89 1.970 . S
O148 Li90 1.961 . S
O148 C92 1.325 . S
O149 Li88 1.970 . S
O149 Li89 1.956 . S
O149 Li91 1.961 . S
O149 C98 1.325 . S
O150 Li88 1.961 . S
O150 Li90 1.956 . S
O150 Li91 1.970 . S
O150 C120 1.325 . S
O151 Li89 1.961 . S
O151 Li90 1.970 . S
O151 Li91 1.956 . S
O151 C126 1.325 . S
H152 C94 0.929 . S
H153 C95 0.930 . S
H154 C96 0.930 . S
H155 C97 0.930 . S
H156 C99 0.930 . S
H157 C101 0.929 . S
H158 C102 0.930 . S
H159 C103 0.930 . S
H160 C106 0.930 . S
H161 C109 0.929 . S
H162 C114 0.929 . S
H163 C115 0.930 . S
H164 C122 0.929 . S
H165 C123 0.930 . S
H166 C124 0.930 . S
H167 C125 0.930 . S
H168 C127 0.929 . S
H169 C128 0.930 . S
H170 C129 0.930 . S
H171 C130 0.930 . S
H172 C134 0.929 . S
H173 C136 0.930 . S
H174 C142 0.929 . S
H175 C143 0.930 . S
Li176 N193 1.990 . S
Li176 O236 1.956 1_655 S
Li176 O237 1.970 . S
Li176 O238 1.961 1_655 S
Li177 N201 1.990 . S
Li177 O236 1.970 . S
Li177 O237 1.956 1_455 S
Li177 O239 1.961 . S
Li178 N223 1.990 . S
Li178 O236 1.961 . S
Li178 O238 1.956 . S
Li178 O239 1.970 . S
Li179 N229 1.990 . S
Li179 O237 1.961 1_455 S
Li179 O238 1.970 . S
Li179 O239 1.956 . S
C180 C182 1.348 1_455 S
C180 C183 1.356 . S
C180 O236 1.325 . S
N181 C184 1.314 . S
N181 C185 1.279 1_655 S
C182 C180 1.348 1_655 S
C182 C184 1.353 . S
C182 H240 0.929 . S
C183 C180 1.356 . S
C183 C185 1.358 . S
C183 H241 0.930 . S
C184 N181 1.314 . S
C184 C182 1.353 . S
C184 H242 0.930 . S
C185 N181 1.279 1_455 S
C185 C183 1.358 . S
C185 H243 0.930 . S
C186 C189 1.348 . S
C186 C190 1.356 . S
C186 O237 1.325 . S
C187 N188 1.279 . S
C187 C190 1.358 . S
C187 H244 0.930 . S
N188 C187 1.279 . S
N188 C191 1.314 . S
C189 C186 1.348 . S
C189 C191 1.353 . S
C189 H245 0.929 . S
C190 C186 1.356 . S
C190 C187 1.358 . S
C190 H246 0.930 . S
C191 N188 1.314 . S
C191 C189 1.353 . S
C191 H247 0.930 . S
C192 N193 1.314 . S
C192 C197 1.353 . S
C192 H198 0.930 . S
N193 Li176 1.990 . S
N193 C192 1.314 . S
N193 C195 1.279 . S
C194 C195 1.358 . S
C194 C196 1.356 . S
C194 H248 0.930 . S
C195 N193 1.279 . S
C195 C194 1.358 . S
C195 H199 0.930 . S
C196 C194 1.356 . S
C196 C197 1.348 . S
C197 C192 1.353 . S
C197 C196 1.348 . S
C197 H249 0.929 . S
H198 C192 0.930 . S
H199 C195 0.930 . S
C200 N201 1.314 . S
C200 C202 1.353 . S
C200 H206 0.930 . S
N201 Li177 1.990 . S
N201 C200 1.314 . S
N201 C204 1.279 1_455 S
C202 C200 1.353 . S
C202 C205 1.348 1_455 S
C202 H250 0.929 . S
C203 C204 1.358 . S
C203 C205 1.356 . S
C203 H251 0.930 . S
C204 N201 1.279 1_655 S
C204 C203 1.358 . S
C204 H207 0.930 . S
C205 C202 1.348 1_655 S
C205 C203 1.356 . S
H206 C200 0.930 . S
H207 C204 0.930 . S
C208 C210 1.348 . S
C208 C211 1.356 . S
C208 O238 1.325 . S
N209 C212 1.314 . S
N209 C213 1.279 . S
C210 C208 1.348 . S
C210 C212 1.353 . S
C210 H252 0.929 . S
C211 C208 1.356 . S
C211 C213 1.358 . S
C211 H253 0.930 . S
C212 N209 1.314 . S
C212 C210 1.353 . S
C212 H254 0.930 . S
C213 N209 1.279 . S
C213 C211 1.358 . S
C213 H255 0.930 . S
C214 C215 1.348 . S
C214 C216 1.356 . S
C214 O239 1.325 . S
C215 C214 1.348 . S
C215 C217 1.353 . S
C215 H256 0.929 . S
C216 C214 1.356 . S
C216 C218 1.358 . S
C216 H257 0.930 . S
C217 C215 1.353 . S
C217 N219 1.314 . S
C217 H258 0.930 . S
C218 C216 1.358 . S
C218 N219 1.279 . S
C218 H259 0.930 . S
N219 C217 1.314 . S
N219 C218 1.279 . S
C220 C222 1.353 . S
C220 N223 1.314 . S
C220 H226 0.930 . S
C221 N223 1.279 . S
C221 C224 1.358 . S
C221 H227 0.930 . S
C222 C220 1.353 . S
C222 C225 1.348 . S
C222 H260 0.929 . S
N223 Li178 1.990 . S
N223 C220 1.314 . S
N223 C221 1.279 . S
C224 C221 1.358 . S
C224 C225 1.356 . S
C224 H261 0.930 . S
C225 C222 1.348 . S
C225 C224 1.356 . S
H226 C220 0.930 . S
H227 C221 0.930 . S
C228 N229 1.314 . S
C228 C230 1.353 . S
C228 H234 0.930 1_455 S
N229 Li179 1.990 . S
N229 C228 1.314 . S
N229 C232 1.279 . S
C230 C228 1.353 . S
C230 C233 1.348 . S
C230 H262 0.929 1_455 S
C231 C232 1.358 . S
C231 C233 1.356 . S
C231 H263 0.930 . S
C232 N229 1.279 . S
C232 C231 1.358 . S
C232 H235 0.930 . S
C233 C230 1.348 . S
C233 C231 1.356 . S
H234 C228 0.930 1_655 S
H235 C232 0.930 . S
O236 Li176 1.956 1_455 S
O236 Li177 1.970 . S
O236 Li178 1.961 . S
O236 C180 1.325 . S
O237 Li176 1.970 . S
O237 Li177 1.956 1_655 S
O237 Li179 1.961 1_655 S
O237 C186 1.325 . S
O238 Li176 1.961 1_455 S
O238 Li178 1.956 . S
O238 Li179 1.970 . S
O238 C208 1.325 . S
O239 Li177 1.961 . S
O239 Li178 1.970 . S
O239 Li179 1.956 . S
O239 C214 1.325 . S
H240 C182 0.929 . S
H241 C183 0.930 . S
H242 C184 0.930 . S
H243 C185 0.930 . S
H244 C187 0.930 . S
H245 C189 0.929 . S
H246 C190 0.930 . S
H247 C191 0.930 . S
H248 C194 0.930 . S
H249 C197 0.929 . S
H250 C202 0.929 . S
H251 C203 0.930 . S
H252 C210 0.929 . S
H253 C211 0.930 . S
H254 C212 0.930 . S
H255 C213 0.930 . S
H256 C215 0.929 . S
H257 C216 0.930 . S
H258 C217 0.930 . S
H259 C218 0.930 . S
H260 C222 0.929 . S
H261 C224 0.930 . S
H262 C230 0.929 1_655 S
H263 C231 0.930 . S
Li264 N281 1.990 . S
Li264 O324 1.956 1_545 S
Li264 O325 1.970 . S
Li264 O326 1.961 . S
Li265 N289 1.990 . S
Li265 O324 1.970 . S
Li265 O325 1.956 1_565 S
Li265 O327 1.961 1_565 S
Li266 N311 1.990 . S
Li266 O324 1.961 1_545 S
Li266 O326 1.956 . S
Li266 O327 1.970 . S
Li267 N317 1.990 . S
Li267 O325 1.961 . S
Li267 O326 1.970 . S
Li267 O327 1.956 . S
C268 C270 1.348 . S
C268 C271 1.356 . S
C268 O324 1.325 . S
N269 C272 1.314 . S
N269 C273 1.279 . S
C270 C268 1.348 . S
C270 C272 1.353 . S
C270 H328 0.929 . S
C271 C268 1.356 . S
C271 C273 1.358 . S
C271 H329 0.930 . S
C272 N269 1.314 . S
C272 C270 1.353 . S
C272 H330 0.930 . S
C273 N269 1.279 . S
C273 C271 1.358 . S
C273 H331 0.930 . S
C274 C277 1.348 1_545 S
C274 C278 1.356 . S
C274 O325 1.325 . S
C275 N276 1.279 1_545 S
C275 C278 1.358 . S
C275 H332 0.930 . S
N276 C275 1.279 1_565 S
N276 C279 1.314 . S
C277 C274 1.348 1_565 S
C277 C279 1.353 . S
C277 H333 0.929 . S
C278 C274 1.356 . S
C278 C275 1.358 . S
C278 H334 0.930 . S
C279 N276 1.314 . S
C279 C277 1.353 . S
C279 H335 0.930 . S
C280 N281 1.314 . S
C280 C285 1.353 . S
C280 H286 0.930 . S
N281 Li264 1.990 . S
N281 C280 1.314 . S
N281 C283 1.279 1_545 S
C282 C283 1.358 . S
C282 C284 1.356 . S
C282 H336 0.930 . S
C283 N281 1.279 1_565 S
C283 C282 1.358 . S
C283 H287 0.930 . S
C284 C282 1.356 . S
C284 C285 1.348 1_565 S
C285 C280 1.353 . S
C285 C284 1.348 1_545 S
C285 H337 0.929 . S
H286 C280 0.930 . S
H287 C283 0.930 . S
C288 N289 1.314 . S
C288 C290 1.353 . S
C288 H294 0.930 . S
N289 Li265 1.990 . S
N289 C288 1.314 . S
N289 C292 1.279 . S
C290 C288 1.353 . S
C290 C293 1.348 . S
C290 H338 0.929 . S
C291 C292 1.358 . S
C291 C293 1.356 . S
C291 H339 0.930 . S
C292 N289 1.279 . S
C292 C291 1.358 . S
C292 H295 0.930 . S
C293 C290 1.348 . S
C293 C291 1.356 . S
H294 C288 0.930 . S
H295 C292 0.930 . S
C296 C298 1.348 . S
C296 C299 1.356 . S
C296 O326 1.325 . S
N297 C300 1.314 . S
N297 C301 1.279 . S
C298 C296 1.348 . S
C298 C300 1.353 . S
C298 H340 0.929 . S
C299 C296 1.356 . S
C299 C301 1.358 . S
C299 H341 0.930 . S
C300 N297 1.314 . S
C300 C298 1.353 . S
C300 H342 0.930 . S
C301 N297 1.279 . S
C301 C299 1.358 . S
C301 H343 0.930 . S
C302 C303 1.348 . S
C302 C304 1.356 . S
C302 O327 1.325 . S
C303 C302 1.348 . S
C303 C305 1.353 . S
C303 H344 0.929 . S
C304 C302 1.356 . S
C304 C306 1.358 . S
C304 H345 0.930 . S
C305 C303 1.353 . S
C305 N307 1.314 . S
C305 H346 0.930 . S
C306 C304 1.358 . S
C306 N307 1.279 . S
C306 H347 0.930 . S
N307 C305 1.314 . S
N307 C306 1.279 . S
C308 C310 1.353 . S
C308 N311 1.314 . S
C308 H314 0.930 1_545 S
C309 N311 1.279 . S
C309 C312 1.358 . S
C309 H315 0.930 . S
C310 C308 1.353 . S
C310 C313 1.348 . S
C310 H348 0.929 1_545 S
N311 Li266 1.990 . S
N311 C308 1.314 . S
N311 C309 1.279 . S
C312 C309 1.358 . S
C312 C313 1.356 . S
C312 H349 0.930 . S
C313 C310 1.348 . S
C313 C312 1.356 . S
H314 C308 0.930 1_565 S
H315 C309 0.930 . S
C316 N317 1.314 . S
C316 C318 1.353 . S
C316 H322 0.930 . S
N317 Li267 1.990 . S
N317 C316 1.314 . S
N317 C320 1.279 . S
C318 C316 1.353 . S
C318 C321 1.348 . S
C318 H350 0.929 . S
C319 C320 1.358 . S
C319 C321 1.356 . S
C319 H351 0.930 . S
C320 N317 1.279 . S
C320 C319 1.358 . S
C320 H323 0.930 . S
C321 C318 1.348 . S
C321 C319 1.356 . S
H322 C316 0.930 . S
H323 C320 0.930 . S
O324 Li264 1.956 1_565 S
O324 Li265 1.970 . S
O324 Li266 1.961 1_565 S
O324 C268 1.325 . S
O325 Li264 1.970 . S
O325 Li265 1.956 1_545 S
O325 Li267 1.961 . S
O325 C274 1.325 . S
O326 Li264 1.961 . S
O326 Li266 1.956 . S
O326 Li267 1.970 . S
O326 C296 1.325 . S
O327 Li265 1.961 1_545 S
O327 Li266 1.970 . S
O327 Li267 1.956 . S
O327 C302 1.325 . S
H328 C270 0.929 . S
H329 C271 0.930 . S
H330 C272 0.930 . S
H331 C273 0.930 . S
H332 C275 0.930 . S
H333 C277 0.929 . S
H334 C278 0.930 . S
H335 C279 0.930 . S
H336 C282 0.930 . S
H337 C285 0.929 . S
H338 C290 0.929 . S
H339 C291 0.930 . S
H340 C298 0.929 . S
H341 C299 0.930 . S
H342 C300 0.930 . S
H343 C301 0.930 . S
H344 C303 0.929 . S
H345 C304 0.930 . S
H346 C305 0.930 . S
H347 C306 0.930 . S
H348 C310 0.929 1_565 S
H349 C312 0.930 . S
H350 C318 0.929 . S
H351 C319 0.930 . S
Li352 N369 1.990 . S
Li352 O412 1.956 . S
Li352 O413 1.970 . S
Li352 O414 1.961 . S
Li353 N377 1.990 . S
Li353 O412 1.970 . S
Li353 O413 1.956 . S
Li353 O415 1.961 . S
Li354 N399 1.990 . S
Li354 O412 1.961 . S
Li354 O414 1.956 . S
Li354 O415 1.970 . S
Li355 N405 1.990 . S
Li355 O413 1.961 . S
Li355 O414 1.970 . S
Li355 O415 1.956 . S
C356 C358 1.348 . S
C356 C359 1.356 . S
C356 O412 1.325 . S
N357 C360 1.314 . S
N357 C361 1.279 . S
C358 C356 1.348 . S
C358 C360 1.353 . S
C358 H416 0.929 . S
C359 C356 1.356 . S
C359 C361 1.358 . S
C359 H417 0.930 . S
C360 N357 1.314 . S
C360 C358 1.353 . S
C360 H418 0.930 . S
C361 N357 1.279 . S
C361 C359 1.358 . S
C361 H419 0.930 . S
C362 C365 1.348 . S
C362 C366 1.356 . S
C362 O413 1.325 . S
C363 N364 1.279 . S
C363 C366 1.358 . S
C363 H420 0.930 . S
N364 C363 1.279 . S
N364 C367 1.314 . S
C365 C362 1.348 . S
C365 C367 1.353 . S
C365 H421 0.929 . S
C366 C362 1.356 . S
C366 C363 1.358 . S
C366 H422 0.930 . S
C367 N364 1.314 . S
C367 C365 1.353 . S
C367 H423 0.930 . S
C368 N369 1.314 . S
C368 C373 1.353 . S
C368 H374 0.930 . S
N369 Li352 1.990 . S
N369 C368 1.314 . S
N369 C371 1.279 . S
C370 C371 1.358 . S
C370 C372 1.356 . S
C370 H424 0.930 . S
C371 N369 1.279 . S
C371 C370 1.358 . S
C371 H375 0.930 . S
C372 C370 1.356 . S
C372 C373 1.348 . S
C373 C368 1.353 . S
C373 C372 1.348 . S
C373 H425 0.929 . S
H374 C368 0.930 . S
H375 C371 0.930 . S
C376 N377 1.314 . S
C376 C378 1.353 . S
C376 H382 0.930 . S
N377 Li353 1.990 . S
N377 C376 1.314 . S
N377 C380 1.279 . S
C378 C376 1.353 . S
C378 C381 1.348 . S
C378 H426 0.929 . S
C379 C380 1.358 . S
C379 C381 1.356 . S
C379 H427 0.930 . S
C380 N377 1.279 . S
C380 C379 1.358 . S
C380 H383 0.930 . S
C381 C378 1.348 . S
C381 C379 1.356 . S
H382 C376 0.930 . S
H383 C380 0.930 . S
C384 C386 1.348 . S
C384 C387 1.356 . S
C384 O414 1.325 . S
N385 C388 1.314 . S
N385 C389 1.279 . S
C386 C384 1.348 . S
C386 C388 1.353 . S
C386 H428 0.929 . S
C387 C384 1.356 . S
C387 C389 1.358 . S
C387 H429 0.930 . S
C388 N385 1.314 . S
C388 C386 1.353 . S
C388 H430 0.930 . S
C389 N385 1.279 . S
C389 C387 1.358 . S
C389 H431 0.930 . S
C390 C391 1.348 . S
C390 C392 1.356 . S
C390 O415 1.325 . S
C391 C390 1.348 . S
C391 C393 1.353 . S
C391 H432 0.929 . S
C392 C390 1.356 . S
C392 C394 1.358 . S
C392 H433 0.930 . S
C393 C391 1.353 . S
C393 N395 1.314 . S
C393 H434 0.930 . S
C394 C392 1.358 . S
C394 N395 1.279 . S
C394 H435 0.930 . S
N395 C393 1.314 . S
N395 C394 1.279 . S
C396 C398 1.353 . S
C396 N399 1.314 . S
C396 H402 0.930 . S
C397 N399 1.279 . S
C397 C400 1.358 . S
C397 H403 0.930 . S
C398 C396 1.353 . S
C398 C401 1.348 . S
C398 H436 0.929 . S
N399 Li354 1.990 . S
N399 C396 1.314 . S
N399 C397 1.279 . S
C400 C397 1.358 . S
C400 C401 1.356 . S
C400 H437 0.930 . S
C401 C398 1.348 . S
C401 C400 1.356 . S
H402 C396 0.930 . S
H403 C397 0.930 . S
C404 N405 1.314 . S
C404 C406 1.353 . S
C404 H410 0.930 . S
N405 Li355 1.990 . S
N405 C404 1.314 . S
N405 C408 1.279 . S
C406 C404 1.353 . S
C406 C409 1.348 . S
C406 H438 0.929 . S
C407 C408 1.358 . S
C407 C409 1.356 . S
C407 H439 0.930 . S
C408 N405 1.279 . S
C408 C407 1.358 . S
C408 H411 0.930 . S
C409 C406 1.348 . S
C409 C407 1.356 . S
H410 C404 0.930 . S
H411 C408 0.930 . S
O412 Li352 1.956 . S
O412 Li353 1.970 . S
O412 Li354 1.961 . S
O412 C356 1.325 . S
O413 Li352 1.970 . S
O413 Li353 1.956 . S
O413 Li355 1.961 . S
O413 C362 1.325 . S
O414 Li352 1.961 . S
O414 Li354 1.956 . S
O414 Li355 1.970 . S
O414 C384 1.325 . S
O415 Li353 1.961 . S
O415 Li354 1.970 . S
O415 Li355 1.956 . S
O415 C390 1.325 . S
H416 C358 0.929 . S
H417 C359 0.930 . S
H418 C360 0.930 . S
H419 C361 0.930 . S
H420 C363 0.930 . S
H421 C365 0.929 . S
H422 C366 0.930 . S
H423 C367 0.930 . S
H424 C370 0.930 . S
H425 C373 0.929 . S
H426 C378 0.929 . S
H427 C379 0.930 . S
H428 C386 0.929 . S
H429 C387 0.930 . S
H430 C388 0.930 . S
H431 C389 0.930 . S
H432 C391 0.929 . S
H433 C392 0.930 . S
H434 C393 0.930 . S
H435 C394 0.930 . S
H436 C398 0.929 . S
H437 C400 0.930 . S
H438 C406 0.929 . S
H439 C407 0.930 . S
Li440 N457 1.990 . S
Li440 O500 1.956 . S
Li440 O501 1.970 . S
Li440 O502 1.961 1_455 S
Li441 N465 1.990 . S
Li441 O500 1.970 . S
Li441 O501 1.956 . S
Li441 O503 1.961 . S
Li442 N487 1.990 . S
Li442 O500 1.961 . S
Li442 O502 1.956 1_455 S
Li442 O503 1.970 . S
Li443 N493 1.990 . S
Li443 O501 1.961 1_655 S
Li443 O502 1.970 . S
Li443 O503 1.956 1_655 S
C444 C446 1.348 . S
C444 C447 1.356 . S
C444 O500 1.325 . S
N445 C448 1.314 . S
N445 C449 1.279 . S
C446 C444 1.348 . S
C446 C448 1.353 . S
C446 H504 0.929 . S
C447 C444 1.356 . S
C447 C449 1.358 . S
C447 H505 0.930 . S
C448 N445 1.314 . S
C448 C446 1.353 . S
C448 H506 0.930 . S
C449 N445 1.279 . S
C449 C447 1.358 . S
C449 H507 0.930 . S
C450 C453 1.348 . S
C450 C454 1.356 . S
C450 O501 1.325 . S
C451 N452 1.297 . S
C451 C454 1.358 . S
C451 H508 0.930 . S
N452 C451 1.297 . S
N452 C455 1.314 . S
C453 C450 1.348 . S
C453 C455 1.381 . S
C453 H509 0.929 . S
C454 C450 1.356 . S
C454 C451 1.358 . S
C454 H510 0.930 . S
C455 N452 1.314 . S
C455 C453 1.381 . S
C455 H511 0.899 1_556 S
C456 N457 1.314 . S
C456 C461 1.353 1_556 S
C456 H462 0.930 1_455 S
N457 Li440 1.990 . S
N457 C456 1.314 . S
N457 C459 1.279 . S
C458 C459 1.358 . S
C458 C460 1.356 1_556 S
C458 H512 0.930 . S
C459 N457 1.279 . S
C459 C458 1.358 . S
C459 H463 0.930 . S
C460 C458 1.356 1_554 S
C460 C461 1.348 . S
C461 C456 1.353 1_554 S
C461 C460 1.348 . S
C461 H513 0.929 1_455 S
H462 C456 0.930 1_655 S
H463 C459 0.930 . S
C464 N465 1.314 . S
C464 C466 1.353 . S
C464 H470 0.930 . S
N465 Li441 1.990 . S
N465 C464 1.314 . S
N465 C468 1.279 . S
C466 C464 1.353 . S
C466 C469 1.348 . S
C466 H514 0.929 . S
C467 C468 1.358 . S
C467 C469 1.356 . S
C467 H515 0.930 . S
C468 N465 1.279 . S
C468 C467 1.358 . S
C468 H471 0.930 . S
C469 C466 1.348 . S
C469 C467 1.356 . S
H470 C464 0.930 . S
H471 C468 0.930 . S
C472 C474 1.348 . S
C472 C475 1.356 . S
C472 O502 1.325 . S
N473 C476 1.314 . S
N473 C477 1.279 . S
C474 C472 1.348 . S
C474 C476 1.353 . S
C474 H516 0.929 . S
C475 C472 1.356 . S
C475 C477 1.358 . S
C475 H517 0.930 . S
C476 N473 1.314 . S
C476 C474 1.353 . S
C476 H518 0.930 . S
C477 N473 1.279 . S
C477 C475 1.358 . S
C477 H519 0.930 . S
C478 C479 1.348 1_455 S
C478 C480 1.356 . S
C478 O503 1.325 . S
C479 C478 1.348 1_655 S
C479 C481 1.353 . S
C479 H520 0.929 . S
C480 C478 1.356 . S
C480 C482 1.358 . S
C480 H521 0.930 . S
C481 C479 1.353 . S
C481 N483 1.314 . S
C481 H522 0.930 . S
C482 C480 1.358 . S
C482 N483 1.279 1_455 S
C482 H523 0.930 . S
N483 C481 1.314 . S
N483 C482 1.279 1_655 S
C484 C486 1.353 . S
C484 N487 1.314 . S
C484 H490 0.930 . S
C485 N487 1.279 1_655 S
C485 C488 1.358 . S
C485 H491 0.930 . S
C486 C484 1.353 . S
C486 C489 1.348 1_455 S
C486 H524 0.929 . S
N487 Li442 1.990 . S
N487 C484 1.314 . S
N487 C485 1.279 1_455 S
C488 C485 1.358 . S
C488 C489 1.356 . S
C488 H525 0.930 . S
C489 C486 1.348 1_655 S
C489 C488 1.356 . S
H490 C484 0.930 . S
H491 C485 0.930 . S
C492 N493 1.314 . S
C492 C494 1.353 . S
C492 H498 0.930 . S
N493 Li443 1.990 . S
N493 C492 1.314 . S
N493 C496 1.279 . S
C494 C492 1.353 . S
C494 C497 1.348 . S
C494 H526 0.929 . S
C495 C496 1.358 . S
C495 C497 1.356 . S
C495 H527 0.930 . S
C496 N493 1.279 . S
C496 C495 1.358 . S
C496 H499 0.930 . S
C497 C494 1.348 . S
C497 C495 1.356 . S
H498 C492 0.930 . S
H499 C496 0.930 . S
O500 Li440 1.956 . S
O500 Li441 1.970 . S
O500 Li442 1.961 . S
O500 C444 1.325 . S
O501 Li440 1.970 . S
O501 Li441 1.956 . S
O501 Li443 1.961 1_455 S
O501 C450 1.325 . S
O502 Li440 1.961 1_655 S
O502 Li442 1.956 1_655 S
O502 Li443 1.970 . S
O502 C472 1.325 . S
O503 Li441 1.961 . S
O503 Li442 1.970 . S
O503 Li443 1.956 1_455 S
O503 C478 1.325 . S
H504 C446 0.929 . S
H505 C447 0.930 . S
H506 C448 0.930 . S
H507 C449 0.930 . S
H508 C451 0.930 . S
H509 C453 0.929 . S
H510 C454 0.930 . S
H511 C455 0.899 1_554 S
H512 C458 0.930 . S
H513 C461 0.929 1_655 S
H514 C466 0.929 . S
H515 C467 0.930 . S
H516 C474 0.929 . S
H517 C475 0.930 . S
H518 C476 0.930 . S
H519 C477 0.930 . S
H520 C479 0.929 . S
H521 C480 0.930 . S
H522 C481 0.930 . S
H523 C482 0.930 . S
H524 C486 0.929 . S
H525 C488 0.930 . S
H526 C494 0.929 . S
H527 C495 0.930 . S
H528 C536 0.929 . S
H529 C538 0.930 . S
H530 C540 0.930 . S
H531 C543 0.929 . S
H532 C546 0.930 1_565 S
H533 C548 0.960 . S
H534 C548 0.960 . S
H535 C548 0.960 . S
C536 H528 0.929 . S
C536 C537 1.377 . S
C536 C538 1.384 . S
C537 C536 1.377 . S
C537 C543 1.390 . S
C538 H529 0.930 . S
C538 C536 1.384 . S
C538 C539 1.372 . S
C539 C538 1.372 . S
C539 C540 1.400 . S
C539 C544 1.490 . S
C540 H530 0.930 . S
C540 C539 1.400 . S
C540 C543 1.386 . S
H541 C557 0.930 . S
H542 C558 0.931 . S
C543 H531 0.929 . S
C543 C537 1.390 . S
C543 C540 1.386 . S
C544 C539 1.490 . S
C544 C546 1.395 . S
C544 C547 1.403 . S
H545 C551 0.930 . S
C546 H532 0.930 1_545 S
C546 C544 1.395 . S
C546 C549 1.390 . S
C547 C544 1.403 . S
C547 C548 1.524 . S
C547 C551 1.400 . S
C548 H533 0.960 . S
C548 H534 0.960 . S
C548 H535 0.960 . S
C548 C547 1.524 . S
C549 C546 1.390 . S
C549 C550 1.437 . S
C549 C553 1.465 1_545 S
C550 C549 1.437 . S
C550 C551 1.385 . S
C550 C552 1.478 . S
C551 H545 0.930 . S
C551 C547 1.400 . S
C551 C550 1.385 . S
C552 C550 1.478 . S
C552 C554 1.381 . S
C552 C558 1.383 . S
C553 C549 1.465 1_565 S
C553 H559 0.959 . S
C553 H560 0.961 . S
C553 H561 0.960 . S
C554 C552 1.381 . S
C554 C555 1.394 . S
C554 H562 0.930 . S
C555 C554 1.394 . S
C555 C556 1.383 . S
C555 H563 0.929 . S
C556 C555 1.383 . S
C556 C557 1.377 . S
C557 H541 0.930 . S
C557 C556 1.377 . S
C557 C558 1.379 . S
C558 H542 0.931 . S
C558 C552 1.383 . S
C558 C557 1.379 . S
H559 C553 0.959 . S
H560 C553 0.961 . S
H561 C553 0.960 . S
H562 C554 0.930 . S
H563 C555 0.929 . S
H564 C572 0.929 . S
H565 C574 0.930 . S
H566 C576 0.930 . S
H567 C579 0.929 . S
H568 C582 0.930 . S
H569 C584 0.960 . S
H570 C584 0.960 . S
H571 C584 0.960 . S
C572 H564 0.929 . S
C572 C573 1.377 . S
C572 C574 1.384 . S
C573 C572 1.377 . S
C573 C579 1.390 . S
C574 H565 0.930 . S
C574 C572 1.384 . S
C574 C575 1.372 . S
C575 C574 1.372 . S
C575 C576 1.400 . S
C575 C580 1.490 . S
C576 H566 0.930 . S
C576 C575 1.400 . S
C576 C579 1.386 . S
H577 C593 0.930 . S
H578 C594 0.931 . S
C579 H567 0.929 . S
C579 C573 1.390 . S
C579 C576 1.386 . S
C580 C575 1.490 . S
C580 C582 1.395 . S
C580 C583 1.403 . S
H581 C587 0.930 . S
C582 H568 0.930 . S
C582 C580 1.395 . S
C582 C585 1.403 . S
C583 C580 1.403 . S
C583 C584 1.524 . S
C583 C587 1.400 . S
C584 H569 0.960 . S
C584 H570 0.960 . S
C584 H571 0.960 . S
C584 C583 1.524 . S
C585 C582 1.403 . S
C585 C586 1.392 . S
C585 C589 1.495 . S
C586 C585 1.392 . S
C586 C587 1.385 . S
C586 C588 1.478 . S
C587 H581 0.930 . S
C587 C583 1.400 . S
C587 C586 1.385 . S
C588 C586 1.478 . S
C588 C590 1.381 . S
C588 C594 1.383 . S
C589 C585 1.495 . S
C589 H595 0.959 . S
C589 H596 0.961 . S
C589 H597 0.960 . S
C590 C588 1.381 . S
C590 C591 1.394 . S
C590 H598 0.930 . S
C591 C590 1.394 . S
C591 C592 1.383 . S
C591 H599 0.929 . S
C592 C591 1.383 . S
C592 C593 1.377 . S
C593 H577 0.930 . S
C593 C592 1.377 . S
C593 C594 1.379 . S
C594 H578 0.931 . S
C594 C588 1.383 . S
C594 C593 1.379 . S
H595 C589 0.959 . S
H596 C589 0.961 . S
H597 C589 0.960 . S
H598 C590 0.930 . S
H599 C591 0.929 . S
H600 C608 0.929 . S
H601 C610 0.930 . S
H602 C612 0.930 . S
H603 C615 0.929 . S
H604 C618 0.930 . S
H605 C620 0.960 . S
H606 C620 0.960 . S
H607 C620 0.960 . S
C608 H600 0.929 . S
C608 C609 1.377 1_455 S
C608 C610 1.384 . S
C609 C608 1.377 1_655 S
C609 C615 1.390 . S
C610 H601 0.930 . S
C610 C608 1.384 . S
C610 C611 1.372 1_455 S
C611 C610 1.372 1_655 S
C611 C612 1.400 . S
C611 C616 1.490 . S
C612 H602 0.930 . S
C612 C611 1.400 . S
C612 C615 1.386 . S
H613 C629 0.930 . S
H614 C630 0.931 . S
C615 H603 0.929 . S
C615 C609 1.390 . S
C615 C612 1.386 . S
C616 C611 1.490 . S
C616 C618 1.395 1_655 S
C616 C619 1.403 . S
H617 C623 0.930 . S
C618 H604 0.930 . S
C618 C616 1.395 1_455 S
C618 C621 1.403 . S
C619 C616 1.403 . S
C619 C620 1.524 . S
C619 C623 1.400 . S
C620 H605 0.960 . S
C620 H606 0.960 . S
C620 H607 0.960 . S
C620 C619 1.524 . S
C621 C618 1.403 . S
C621 C622 1.392 . S
C621 C625 1.495 . S
C622 C621 1.392 . S
C622 C623 1.385 1_455 S
C622 C624 1.478 . S
C623 H617 0.930 . S
C623 C619 1.400 . S
C623 C622 1.385 1_655 S
C624 C622 1.478 . S
C624 C626 1.381 . S
C624 C630 1.383 1_455 S
C625 C621 1.495 . S
C625 H631 0.959 . S
C625 H632 0.961 . S
C625 H633 0.960 . S
C626 C624 1.381 . S
C626 C627 1.394 . S
C626 H634 0.930 . S
C627 C626 1.394 . S
C627 C628 1.383 1_455 S
C627 H635 0.929 . S
C628 C627 1.383 1_655 S
C628 C629 1.377 . S
C629 H613 0.930 . S
C629 C628 1.377 . S
C629 C630 1.379 . S
C630 H614 0.931 . S
C630 C624 1.383 1_655 S
C630 C629 1.379 . S
H631 C625 0.959 . S
H632 C625 0.961 . S
H633 C625 0.960 . S
H634 C626 0.930 . S
H635 C627 0.929 . S
H636 C644 0.929 . S
H637 C646 0.930 . S
H638 C648 0.930 . S
H639 C651 0.929 . S
H640 C654 0.930 . S
H641 C656 0.960 . S
H642 C656 0.960 . S
H643 C656 0.960 . S
C644 H636 0.929 . S
C644 C645 1.377 . S
C644 C646 1.384 . S
C645 C644 1.377 . S
C645 C651 1.390 1_565 S
C646 H637 0.930 . S
C646 C644 1.384 . S
C646 C647 1.372 . S
C647 C646 1.372 . S
C647 C648 1.400 1_565 S
C647 C652 1.490 . S
C648 H638 0.930 . S
C648 C647 1.400 1_545 S
C648 C651 1.386 . S
H649 C665 0.930 . S
H650 C666 0.931 . S
C651 H639 0.929 . S
C651 C645 1.390 1_545 S
C651 C648 1.386 . S
C652 C647 1.490 . S
C652 C654 1.395 1_565 S
C652 C655 1.403 . S
H653 C659 0.930 . S
C654 H640 0.930 . S
C654 C652 1.395 1_545 S
C654 C657 1.403 . S
C655 C652 1.403 . S
C655 C656 1.524 . S
C655 C659 1.400 . S
C656 H641 0.960 . S
C656 H642 0.960 . S
C656 H643 0.960 . S
C656 C655 1.524 . S
C657 C654 1.403 . S
C657 C658 1.392 1_545 S
C657 C661 1.495 . S
C658 C657 1.392 1_565 S
C658 C659 1.385 . S
C658 C660 1.478 . S
C659 H653 0.930 . S
C659 C655 1.400 . S
C659 C658 1.385 . S
C660 C658 1.478 . S
C660 C662 1.381 . S
C660 C666 1.383 1_565 S
C661 C657 1.495 . S
C661 H667 0.959 . S
C661 H668 0.961 . S
C661 H669 0.960 . S
C662 C660 1.381 . S
C662 C663 1.394 . S
C662 H670 0.930 . S
C663 C662 1.394 . S
C663 C664 1.383 . S
C663 H671 0.929 . S
C664 C663 1.383 . S
C664 C665 1.377 1_565 S
C665 H649 0.930 . S
C665 C664 1.377 1_545 S
C665 C666 1.379 . S
C666 H650 0.931 . S
C666 C660 1.383 1_545 S
C666 C665 1.379 . S
H667 C661 0.959 . S
H668 C661 0.961 . S
H669 C661 0.960 . S
H670 C662 0.930 . S
H671 C663 0.929 . S
H672 C680 0.929 . S
H673 C682 0.930 . S
H674 C684 0.921 1_556 S
H675 C687 0.929 . S
H676 C690 0.930 . S
H677 C692 0.960 1_556 S
H678 C692 0.960 . S
H679 C692 0.960 . S
C680 H672 0.929 . S
C680 C681 1.377 . S
C680 C682 1.384 . S
C681 C680 1.377 . S
C681 C687 1.390 . S
C682 H673 0.930 . S
C682 C680 1.384 . S
C682 C683 1.372 . S
C683 C682 1.372 . S
C683 C684 1.400 . S
C683 C688 1.490 1_554 S
C684 H674 0.921 1_554 S
C684 C683 1.400 . S
C684 C687 1.386 . S
H685 C701 0.930 . S
H686 C702 0.931 . S
C687 H675 0.929 . S
C687 C681 1.390 . S
C687 C684 1.386 . S
C688 C683 1.490 1_556 S
C688 C690 1.395 . S
C688 C691 1.403 . S
H689 C695 0.930 . S
C690 H676 0.930 . S
C690 C688 1.395 . S
C690 C693 1.403 . S
C691 C688 1.403 . S
C691 C692 1.524 1_556 S
C691 C695 1.400 . S
C692 H677 0.960 1_554 S
C692 H678 0.960 . S
C692 H679 0.960 . S
C692 C691 1.524 1_554 S
C693 C690 1.403 . S
C693 C694 1.392 . S
C693 C697 1.495 . S
C694 C693 1.392 . S
C694 C695 1.385 . S
C694 C696 1.478 . S
C695 H689 0.930 . S
C695 C691 1.400 . S
C695 C694 1.385 . S
C696 C694 1.478 . S
C696 C698 1.381 . S
C696 C702 1.383 . S
C697 C693 1.495 . S
C697 H703 0.959 . S
C697 H704 0.961 . S
C697 H705 0.960 . S
C698 C696 1.381 . S
C698 C699 1.394 . S
C698 H706 0.930 . S
C699 C698 1.394 . S
C699 C700 1.383 . S
C699 H707 0.929 . S
C700 C699 1.383 . S
C700 C701 1.377 . S
C701 H685 0.930 . S
C701 C700 1.377 . S
C701 C702 1.379 . S
C702 H686 0.931 . S
C702 C696 1.383 . S
C702 C701 1.379 . S
H703 C697 0.959 . S
H704 C697 0.961 . S
H705 C697 0.960 . S
H706 C698 0.930 . S
H707 C699 0.929 . S
H708 C716 0.929 . S
H709 C718 0.930 . S
H710 C720 0.930 . S
H711 C723 0.929 . S
H712 C726 0.930 . S
H713 C728 0.960 . S
H714 C728 0.960 . S
H715 C728 0.960 . S
C716 H708 0.929 . S
C716 C717 1.377 . S
C716 C718 1.384 . S
C717 C716 1.377 . S
C717 C723 1.390 . S
C718 H709 0.930 . S
C718 C716 1.384 . S
C718 C719 1.372 . S
C719 C718 1.372 . S
C719 C720 1.400 . S
C719 C724 1.490 . S
C720 H710 0.930 . S
C720 C719 1.400 . S
C720 C723 1.386 . S
H721 C737 0.930 . S
H722 C738 0.931 . S
C723 H711 0.929 . S
C723 C717 1.390 . S
C723 C720 1.386 . S
C724 C719 1.490 . S
C724 C726 1.395 . S
C724 C727 1.403 . S
H725 C731 0.930 . S
C726 H712 0.930 . S
C726 C724 1.395 . S
C726 C729 1.403 . S
C727 C724 1.403 . S
C727 C728 1.524 . S
C727 C731 1.400 . S
C728 H713 0.960 . S
C728 H714 0.960 . S
C728 H715 0.960 . S
C728 C727 1.524 . S
C729 C726 1.403 . S
C729 C730 1.392 . S
C729 C733 1.495 . S
C730 C729 1.392 . S
C730 C731 1.385 . S
C730 C732 1.478 . S
C731 H725 0.930 . S
C731 C727 1.400 . S
C731 C730 1.385 . S
C732 C730 1.478 . S
C732 C734 1.381 . S
C732 C738 1.383 . S
C733 C729 1.495 . S
C733 H739 0.959 1_455 S
C733 H740 0.961 1_455 S
C733 H741 0.960 . S
C734 C732 1.381 . S
C734 C735 1.394 . S
C734 H742 0.930 . S
C735 C734 1.394 . S
C735 C736 1.383 . S
C735 H743 0.929 . S
C736 C735 1.383 . S
C736 C737 1.377 . S
C737 H721 0.930 . S
C737 C736 1.377 . S
C737 C738 1.379 . S
C738 H722 0.931 . S
C738 C732 1.383 . S
C738 C737 1.379 . S
H739 C733 0.959 1_655 S
H740 C733 0.961 1_655 S
H741 C733 0.960 . S
H742 C734 0.930 . S
H743 C735 0.929 . S
H744 C752 0.929 . S
H745 C754 0.930 . S
H746 C756 0.930 . S
H747 C759 0.929 . S
H748 C762 0.930 . S
H749 C764 0.960 . S
H750 C764 0.960 . S
H751 C764 0.960 . S
C752 H744 0.929 . S
C752 C753 1.377 . S
C752 C754 1.384 . S
C753 C752 1.377 . S
C753 C759 1.390 . S
C754 H745 0.930 . S
C754 C752 1.384 . S
C754 C755 1.372 . S
C755 C754 1.372 . S
C755 C756 1.400 . S
C755 C760 1.490 . S
C756 H746 0.930 . S
C756 C755 1.400 . S
C756 C759 1.386 . S
H757 C773 0.930 . S
H758 C774 0.931 . S
C759 H747 0.929 . S
C759 C753 1.390 . S
C759 C756 1.386 . S
C760 C755 1.490 . S
C760 C762 1.395 . S
C760 C763 1.403 . S
H761 C767 0.930 . S
C762 H748 0.930 . S
C762 C760 1.395 . S
C762 C765 1.403 . S
C763 C760 1.403 . S
C763 C764 1.524 . S
C763 C767 1.400 . S
C764 H749 0.960 . S
C764 H750 0.960 . S
C764 H751 0.960 . S
C764 C763 1.524 . S
C765 C762 1.403 . S
C765 C766 1.392 . S
C765 C769 1.495 . S
C766 C765 1.392 . S
C766 C767 1.385 . S
C766 C768 1.478 . S
C767 H761 0.930 . S
C767 C763 1.400 . S
C767 C766 1.385 . S
C768 C766 1.478 . S
C768 C770 1.381 . S
C768 C774 1.383 . S
C769 C765 1.495 . S
C769 H775 0.959 . S
C769 H776 0.961 . S
C769 H777 0.960 . S
C770 C768 1.381 . S
C770 C771 1.394 . S
C770 H778 0.930 . S
C771 C770 1.394 . S
C771 C772 1.383 . S
C771 H779 0.929 . S
C772 C771 1.383 . S
C772 C773 1.377 . S
C773 H757 0.930 . S
C773 C772 1.377 . S
C773 C774 1.379 . S
C774 H758 0.931 . S
C774 C768 1.383 . S
C774 C773 1.379 . S
H775 C769 0.959 . S
H776 C769 0.961 . S
H777 C769 0.960 . S
H778 C770 0.930 . S
H779 C771 0.929 . S
H780 C788 0.929 . S
H781 C790 0.930 . S
H782 C792 0.930 . S
H783 C795 0.929 . S
H784 C798 0.930 . S
H785 C800 0.960 . S
H786 C800 0.960 . S
H787 C800 0.960 . S
C788 H780 0.929 . S
C788 C789 1.377 . S
C788 C790 1.384 . S
C789 C788 1.377 . S
C789 C795 1.390 . S
C790 H781 0.930 . S
C790 C788 1.384 . S
C790 C791 1.372 . S
C791 C790 1.372 . S
C791 C792 1.400 . S
C791 C796 1.490 . S
C792 H782 0.930 . S
C792 C791 1.400 . S
C792 C795 1.386 . S
H793 C809 0.930 . S
H794 C810 0.931 . S
C795 H783 0.929 . S
C795 C789 1.390 . S
C795 C792 1.386 . S
C796 C791 1.490 . S
C796 C798 1.395 . S
C796 C799 1.403 . S
H797 C803 0.930 . S
C798 H784 0.930 . S
C798 C796 1.395 . S
C798 C801 1.403 . S
C799 C796 1.403 . S
C799 C800 1.524 . S
C799 C803 1.400 . S
C800 H785 0.960 . S
C800 H786 0.960 . S
C800 H787 0.960 . S
C800 C799 1.524 . S
C801 C798 1.403 . S
C801 C802 1.392 . S
C801 C805 1.495 . S
C802 C801 1.392 . S
C802 C803 1.385 . S
C802 C804 1.478 . S
C803 H797 0.930 . S
C803 C799 1.400 . S
C803 C802 1.385 . S
C804 C802 1.478 . S
C804 C806 1.381 . S
C804 C810 1.383 . S
C805 C801 1.495 . S
C805 H811 0.959 . S
C805 H812 0.961 . S
C805 H813 0.960 . S
C806 C804 1.381 . S
C806 C807 1.394 . S
C806 H814 0.930 . S
C807 C806 1.394 . S
C807 C808 1.383 . S
C807 H815 0.929 . S
C808 C807 1.383 . S
C808 C809 1.377 . S
C809 H793 0.930 . S
C809 C808 1.377 . S
C809 C810 1.379 . S
C810 H794 0.931 . S
C810 C804 1.383 . S
C810 C809 1.379 . S
H811 C805 0.959 . S
H812 C805 0.961 . S
H813 C805 0.960 . S
H814 C806 0.930 . S
H815 C807 0.929 . S
H816 C824 0.929 . S
H817 C826 0.930 . S
H818 C828 0.930 . S
H819 C831 0.929 . S
H820 C834 0.930 . S
H821 C836 0.960 . S
H822 C836 0.960 . S
H823 C836 0.960 . S
C824 H816 0.929 . S
C824 C825 1.377 . S
C824 C826 1.384 . S
C825 C824 1.377 . S
C825 C831 1.390 . S
C826 H817 0.930 . S
C826 C824 1.384 . S
C826 C827 1.372 . S
C827 C826 1.372 . S
C827 C828 1.400 . S
C827 C832 1.490 . S
C828 H818 0.930 . S
C828 C827 1.400 . S
C828 C831 1.386 . S
H829 C845 0.930 . S
H830 C846 0.931 . S
C831 H819 0.929 . S
C831 C825 1.390 . S
C831 C828 1.386 . S
C832 C827 1.490 . S
C832 C834 1.395 . S
C832 C835 1.403 . S
H833 C839 0.930 . S
C834 H820 0.930 . S
C834 C832 1.395 . S
C834 C837 1.403 . S
C835 C832 1.403 . S
C835 C836 1.524 . S
C835 C839 1.400 . S
C836 H821 0.960 . S
C836 H822 0.960 . S
C836 H823 0.960 . S
C836 C835 1.524 . S
C837 C834 1.403 . S
C837 C838 1.392 . S
C837 C841 1.495 . S
C838 C837 1.392 . S
C838 C839 1.385 . S
C838 C840 1.478 . S
C839 H833 0.930 . S
C839 C835 1.400 . S
C839 C838 1.385 . S
C840 C838 1.478 . S
C840 C842 1.381 . S
C840 C846 1.383 . S
C841 C837 1.495 . S
C841 H847 0.959 . S
C841 H848 0.961 . S
C841 H849 0.960 . S
C842 C840 1.381 . S
C842 C843 1.394 . S
C842 H850 0.930 . S
C843 C842 1.394 . S
C843 C844 1.383 . S
C843 H851 0.929 . S
C844 C843 1.383 . S
C844 C845 1.377 . S
C845 H829 0.930 . S
C845 C844 1.377 . S
C845 C846 1.379 . S
C846 H830 0.931 . S
C846 C840 1.383 . S
C846 C845 1.379 . S
H847 C841 0.959 . S
H848 C841 0.961 . S
H849 C841 0.960 . S
H850 C842 0.930 . S
H851 C843 0.929 . S
H852 C860 0.929 . S
H853 C862 0.930 . S
H854 C864 0.930 . S
H855 C867 0.929 . S
H856 C870 0.930 . S
H857 C872 0.960 . S
H858 C872 0.960 . S
H859 C872 0.960 . S
C860 H852 0.929 . S
C860 C861 1.377 . S
C860 C862 1.384 . S
C861 C860 1.377 . S
C861 C867 1.390 . S
C862 H853 0.930 . S
C862 C860 1.384 . S
C862 C863 1.372 . S
C863 C862 1.372 . S
C863 C864 1.400 . S
C863 C868 1.490 . S
C864 H854 0.930 . S
C864 C863 1.400 . S
C864 C867 1.386 . S
H865 C881 0.930 . S
H866 C882 0.931 . S
C867 H855 0.929 . S
C867 C861 1.390 . S
C867 C864 1.386 . S
C868 C863 1.490 . S
C868 C870 1.395 . S
C868 C871 1.403 . S
H869 C875 0.930 . S
C870 H856 0.930 . S
C870 C868 1.395 . S
C870 C873 1.403 . S
C871 C868 1.403 . S
C871 C872 1.524 . S
C871 C875 1.400 . S
C872 H857 0.960 . S
C872 H858 0.960 . S
C872 H859 0.960 . S
C872 C871 1.524 . S
C873 C870 1.403 . S
C873 C874 1.392 . S
C873 C877 1.495 . S
C874 C873 1.392 . S
C874 C875 1.385 . S
C874 C876 1.478 . S
C875 H869 0.930 . S
C875 C871 1.400 . S
C875 C874 1.385 . S
C876 C874 1.478 . S
C876 C878 1.381 . S
C876 C882 1.383 . S
C877 C873 1.495 . S
C877 H883 0.959 . S
C877 H884 0.961 . S
C877 H885 0.960 . S
C878 C876 1.381 . S
C878 C879 1.394 . S
C878 H886 0.930 . S
C879 C878 1.394 . S
C879 C880 1.383 . S
C879 H887 0.929 . S
C880 C879 1.383 . S
C880 C881 1.377 . S
C881 H865 0.930 . S
C881 C880 1.377 . S
C881 C882 1.379 . S
C882 H866 0.931 . S
C882 C876 1.383 . S
C882 C881 1.379 . S
H883 C877 0.959 . S
H884 C877 0.961 . S
H885 C877 0.960 . S
H886 C878 0.930 . S
H887 C879 0.929 . S
H888 C896 0.929 . S
H889 C898 0.930 . S
H890 C900 0.930 . S
H891 C903 0.929 . S
H892 C906 0.930 . S
H893 C908 0.960 . S
H894 C908 0.960 . S
H895 C908 0.960 . S
C896 H888 0.929 . S
C896 C897 1.377 . S
C896 C898 1.384 . S
C897 C896 1.377 . S
C897 C903 1.390 . S
C898 H889 0.930 . S
C898 C896 1.384 . S
C898 C899 1.372 . S
C899 C898 1.372 . S
C899 C900 1.400 . S
C899 C904 1.490 . S
C900 H890 0.930 . S
C900 C899 1.400 . S
C900 C903 1.386 . S
H901 C917 0.930 . S
H902 C918 0.931 . S
C903 H891 0.929 . S
C903 C897 1.390 . S
C903 C900 1.386 . S
C904 C899 1.490 . S
C904 C906 1.395 . S
C904 C907 1.403 . S
H905 C911 0.930 . S
C906 H892 0.930 . S
C906 C904 1.395 . S
C906 C909 1.403 . S
C907 C904 1.403 . S
C907 C908 1.524 . S
C907 C911 1.400 . S
C908 H893 0.960 . S
C908 H894 0.960 . S
C908 H895 0.960 . S
C908 C907 1.524 . S
C909 C906 1.403 . S
C909 C910 1.392 . S
C909 C913 1.495 . S
C910 C909 1.392 . S
C910 C911 1.385 . S
C910 C912 1.478 . S
C911 H905 0.930 . S
C911 C907 1.400 . S
C911 C910 1.385 . S
C912 C910 1.478 . S
C912 C914 1.381 . S
C912 C918 1.383 . S
C913 C909 1.495 . S
C913 H919 0.959 . S
C913 H920 0.961 . S
C913 H921 0.960 . S
C914 C912 1.381 . S
C914 C915 1.394 . S
C914 H922 0.930 . S
C915 C914 1.394 . S
C915 C916 1.383 . S
C915 H923 0.929 . S
C916 C915 1.383 . S
C916 C917 1.377 . S
C917 H901 0.930 . S
C917 C916 1.377 . S
C917 C918 1.379 . S
C918 H902 0.931 . S
C918 C912 1.383 . S
C918 C917 1.379 . S
H919 C913 0.959 . S
H920 C913 0.961 . S
H921 C913 0.960 . S
H922 C914 0.930 . S
H923 C915 0.929 . S
H924 C932 0.929 . S
H925 C934 0.930 . S
H926 C936 0.930 . S
H927 C939 0.929 . S
H928 C942 0.930 . S
H929 C944 0.960 1_554 S
H930 C944 0.960 . S
H931 C944 0.960 1_554 S
C932 H924 0.929 . S
C932 C933 1.377 . S
C932 C934 1.384 . S
C933 C932 1.377 . S
C933 C939 1.390 . S
C934 H925 0.930 . S
C934 C932 1.384 . S
C934 C935 1.372 . S
C935 C934 1.372 . S
C935 C936 1.400 . S
C935 C940 1.490 . S
C936 H926 0.930 . S
C936 C935 1.400 . S
C936 C939 1.386 . S
H937 C953 0.930 . S
H938 C954 0.931 . S
C939 H927 0.929 . S
C939 C933 1.390 . S
C939 C936 1.386 . S
C940 C935 1.490 . S
C940 C942 1.395 . S
C940 C943 1.403 . S
H941 C947 0.930 1_554 S
C942 H928 0.930 . S
C942 C940 1.395 . S
C942 C945 1.403 . S
C943 C940 1.403 . S
C943 C944 1.524 . S
C943 C947 1.400 . S
C944 H929 0.960 1_556 S
C944 H930 0.960 . S
C944 H931 0.960 1_556 S
C944 C943 1.524 . S
C945 C942 1.403 . S
C945 C946 1.392 . S
C945 C949 1.495 . S
C946 C945 1.392 . S
C946 C947 1.385 . S
C946 C948 1.478 . S
C947 H941 0.930 1_556 S
C947 C943 1.400 . S
C947 C946 1.385 . S
C948 C946 1.478 . S
C948 C950 1.381 . S
C948 C954 1.383 1_556 S
C949 C945 1.495 . S
C949 H955 0.959 . S
C949 H956 0.961 . S
C949 H957 0.960 . S
C950 C948 1.381 . S
C950 C951 1.394 . S
C950 H958 0.930 . S
C951 C950 1.394 . S
C951 C952 1.383 1_556 S
C951 H959 0.929 . S
C952 C951 1.383 1_554 S
C952 C953 1.377 . S
C953 H937 0.930 . S
C953 C952 1.377 . S
C953 C954 1.379 . S
C954 H938 0.931 . S
C954 C948 1.383 1_554 S
C954 C953 1.379 . S
H955 C949 0.959 . S
H956 C949 0.961 . S
H957 C949 0.960 . S
H958 C950 0.930 . S
H959 C951 0.929 . S
C537 C29 1.227 . S
C556 C313 1.219 . S
C573 C117 1.231 . S
C592 C401 1.238 . S
C609 C489 1.227 . S
C628 C205 1.219 . S
C645 C57 1.230 . S
C664 C284 1.233 . S
C681 C145 1.226 . S
C700 C372 1.215 . S
C717 C460 1.230 . S
C736 C233 1.232 . S
C753 C108 1.434 . S
C772 C49 1.441 . S
C789 C196 1.428 . S
C808 C137 1.414 . S
C825 C225 1.433 . S
C844 C293 1.430 . S
C861 C381 1.432 . S
C880 C321 1.439 . S
C897 C469 1.433 . S
C916 C409 1.430 . S
C933 C497 1.431 . S
C952 C20 1.420 . S
