# Generated by pormake.
# Topology crb, (4)-cn, num edge types: 1
# Building blocks:
#     Node 0, Type 0, BuildingBlock: CEKHIL_clean_sbu_0, # of connection points: 4
#     Node 1, Type 0, BuildingBlock: CEKHIL_clean_sbu_0, # of connection points: 4
#     Node 2, Type 0, BuildingBlock: CEKHIL_clean_sbu_0, # of connection points: 4
#     Node 3, Type 0, BuildingBlock: CEKHIL_clean_sbu_0, # of connection points: 4
#     Node 4, Type 0, BuildingBlock: CEKHIL_clean_sbu_0, # of connection points: 4
#     Node 5, Type 0, BuildingBlock: CEKHIL_clean_sbu_0, # of connection points: 4
#     Node 6, Type 0, BuildingBlock: CEKHIL_clean_sbu_0, # of connection points: 4
#     Node 7, Type 0, BuildingBlock: CEKHIL_clean_sbu_0, # of connection points: 4
#     Edge 8, Type (0, 0), BuildingBlock: XIVTED_clean_linker_0, # of connection points: 2
#     Edge 9, Type (0, 0), BuildingBlock: XIVTED_clean_linker_0, # of connection points: 2
#     Edge 10, Type (0, 0), BuildingBlock: XIVTED_clean_linker_0, # of connection points: 2
#     Edge 11, Type (0, 0), BuildingBlock: XIVTED_clean_linker_0, # of connection points: 2
#     Edge 12, Type (0, 0), BuildingBlock: XIVTED_clean_linker_0, # of connection points: 2
#     Edge 13, Type (0, 0), BuildingBlock: XIVTED_clean_linker_0, # of connection points: 2
#     Edge 14, Type (0, 0), BuildingBlock: XIVTED_clean_linker_0, # of connection points: 2
#     Edge 15, Type (0, 0), BuildingBlock: XIVTED_clean_linker_0, # of connection points: 2
#     Edge 16, Type (0, 0), BuildingBlock: XIVTED_clean_linker_0, # of connection points: 2
#     Edge 17, Type (0, 0), BuildingBlock: XIVTED_clean_linker_0, # of connection points: 2
#     Edge 18, Type (0, 0), BuildingBlock: XIVTED_clean_linker_0, # of connection points: 2
#     Edge 19, Type (0, 0), BuildingBlock: XIVTED_clean_linker_0, # of connection points: 2
#     Edge 20, Type (0, 0), BuildingBlock: XIVTED_clean_linker_0, # of connection points: 2
#     Edge 21, Type (0, 0), BuildingBlock: XIVTED_clean_linker_0, # of connection points: 2
#     Edge 22, Type (0, 0), BuildingBlock: XIVTED_clean_linker_0, # of connection points: 2
#     Edge 23, Type (0, 0), BuildingBlock: XIVTED_clean_linker_0, # of connection points: 2
# Relax obj value: 0.118
# Max RMSD: 0.159
# Mean RMSD: 0.159
data_MOF--net-crb--node1-CEKHIL_clean_sbu_0--edge1-XIVTED_clean_linker_0
_symmetry_space_group_name_H-M    P1
_symmetry_Int_Tables_number       1
_symmetry_cell_setting            triclinic
loop_
_symmetry_equiv_pos_as_xyz
'x, y, z'
_cell_length_a     44.12659
_cell_length_b     43.03835
_cell_length_c     23.031829
_cell_angle_alpha  90.010566
_cell_angle_beta   90.05938
_cell_angle_gamma 89.990612
loop_
_atom_site_label
_atom_site_type_symbol
_atom_site_fract_x
_atom_site_fract_y
_atom_site_fract_z
_atom_type_partial_charge
Co0 Co 0.32693 0.3341 0.01338 0.0
O1 O 0.28729 0.32855 0.04884 0.0
O2 O 0.3273 0.29861 0.06384 0.0
C3 C 0.33011 0.3858 0.0282 0.0
O4 O 0.37174 0.33252 0.99234 0.0
Co5 Co 0.34119 0.37511 0.90635 0.0
O6 O 0.38443 0.36895 0.9271 0.0
C7 C 0.30601 0.31718 0.8929 0.0
C8 C 0.29936 0.30517 0.07628 0.0
C9 C 0.39165 0.348 0.96362 0.0
O10 O 0.31431 0.30788 0.94383 0.0
O11 O 0.31189 0.34432 0.87325 0.0
O12 O 0.3362 0.36663 0.0703 0.0
O13 O 0.32054 0.37334 0.98071 0.0
Co14 Co 0.67777 0.33211 0.02822 0.0
O15 O 0.71875 0.32746 0.99874 0.0
O16 O 0.67918 0.29968 0.97076 0.0
C17 C 0.67601 0.38437 0.0219 0.0
O18 O 0.63203 0.33054 0.0418 0.0
Co19 Co 0.65959 0.36802 0.13942 0.0
O20 O 0.61755 0.36459 0.11021 0.0
C21 C 0.68843 0.30619 0.14973 0.0
C22 C 0.70764 0.30636 0.96429 0.0
C23 C 0.61138 0.34541 0.06984 0.0
O24 O 0.687 0.30202 0.0942 0.0
O25 O 0.68016 0.33128 0.17493 0.0
O26 O 0.67141 0.36732 0.97615 0.0
O27 O 0.68341 0.36961 0.0686 0.0
Co28 Co 0.67685 0.66912 0.02066 0.0
O29 O 0.71797 0.67365 0.04953 0.0
O30 O 0.6785 0.70122 0.07878 0.0
C31 C 0.67526 0.61681 0.02614 0.0
O32 O 0.63112 0.67073 0.00758 0.0
Co33 Co 0.65823 0.63368 0.9091 0.0
O34 O 0.61629 0.63716 0.93859 0.0
C35 C 0.68608 0.69604 0.89955 0.0
C36 C 0.70701 0.69452 0.08462 0.0
C37 C 0.61033 0.65619 0.97929 0.0
O38 O 0.68552 0.69963 0.95524 0.0
O39 O 0.67768 0.67112 0.87388 0.0
O40 O 0.67084 0.63366 0.07219 0.0
O41 O 0.6824 0.63179 0.97954 0.0
Co42 Co 0.32737 0.66985 0.06169 0.0
O43 O 0.28651 0.67448 0.03141 0.0
O44 O 0.32605 0.70276 0.00517 0.0
C45 C 0.32961 0.61767 0.05368 0.0
O46 O 0.37294 0.67164 0.07645 0.0
Co47 Co 0.3452 0.63314 0.1722 0.0
O48 O 0.38731 0.63688 0.14368 0.0
C49 C 0.31675 0.69512 0.18369 0.0
C50 C 0.29767 0.69593 0.99782 0.0
C51 C 0.39354 0.65657 0.10426 0.0
O52 O 0.31779 0.69939 0.1282 0.0
O53 O 0.32515 0.66997 0.20854 0.0
O54 O 0.33424 0.63524 0.00868 0.0
O55 O 0.32178 0.63186 0.10076 0.0
Co56 Co 0.82648 0.832 0.52104 0.0
O57 O 0.78562 0.8272 0.55103 0.0
O58 O 0.82547 0.79979 0.57892 0.0
C59 C 0.82787 0.88432 0.52671 0.0
O60 O 0.8721 0.83058 0.5069 0.0
Co61 Co 0.84432 0.86768 0.4094 0.0
O62 O 0.88649 0.86428 0.43791 0.0
C63 C 0.81653 0.80526 0.4 0.0
C64 C 0.79699 0.80632 0.58565 0.0
C65 C 0.89272 0.84518 0.47835 0.0
O66 O 0.81746 0.80156 0.45565 0.0
O67 O 0.82471 0.83025 0.37436 0.0
O68 O 0.83271 0.86745 0.57259 0.0
O69 O 0.82049 0.86936 0.4802 0.0
Co70 Co 0.17612 0.83159 0.56153 0.0
O71 O 0.21719 0.82717 0.53259 0.0
O72 O 0.17805 0.79855 0.50525 0.0
C73 C 0.17365 0.88372 0.55276 0.0
O74 O 0.13045 0.82966 0.57515 0.0
Co75 Co 0.15771 0.86857 0.67135 0.0
O76 O 0.11576 0.86447 0.64206 0.0
C77 C 0.18607 0.80663 0.68404 0.0
C78 C 0.20644 0.80559 0.49876 0.0
C79 C 0.10972 0.84471 0.60262 0.0
O80 O 0.1854 0.80228 0.62855 0.0
O81 O 0.17749 0.83181 0.70855 0.0
O82 O 0.16938 0.86593 0.50792 0.0
O83 O 0.18132 0.86979 0.60024 0.0
Co84 Co 0.17624 0.16725 0.51323 0.0
O85 O 0.21534 0.17376 0.5496 0.0
O86 O 0.17492 0.2033 0.56297 0.0
C87 C 0.17429 0.11564 0.53066 0.0
O88 O 0.13163 0.16727 0.48887 0.0
Co89 Co 0.16565 0.1236 0.40761 0.0
O90 O 0.12283 0.12535 0.43336 0.0
C91 C 0.19693 0.1839 0.39191 0.0
C92 C 0.20286 0.19703 0.57646 0.0
C93 C 0.11343 0.14776 0.46467 0.0
O94 O 0.18896 0.19301 0.44316 0.0
O95 O 0.19196 0.15646 0.37267 0.0
O96 O 0.16698 0.13523 0.57128 0.0
O97 O 0.18426 0.12775 0.48323 0.0
Co98 Co 0.82806 0.16918 0.52997 0.0
O99 O 0.7874 0.17532 0.50024 0.0
O100 O 0.82776 0.20193 0.47263 0.0
C101 C 0.82767 0.11689 0.52251 0.0
O102 O 0.87379 0.16891 0.54558 0.0
Co103 Co 0.84385 0.13155 0.6407 0.0
O104 O 0.88422 0.1285 0.60373 0.0
C105 C 0.81908 0.19529 0.6519 0.0
C106 C 0.79908 0.19615 0.46605 0.0
C107 C 0.89254 0.14925 0.56775 0.0
O108 O 0.81975 0.19926 0.59629 0.0
O109 O 0.82666 0.16991 0.67698 0.0
O110 O 0.83333 0.13397 0.47729 0.0
O111 O 0.82062 0.13176 0.56927 0.0
H112 H 0.3304 0.42764 0.93987 0.0
H113 H 0.32785 0.5767 0.14439 0.0
H114 H 0.33913 0.42129 0.12611 0.0
H115 H 0.34022 0.58112 0.95875 0.0
H116 H 0.33171 0.52003 0.13959 0.0
H117 H 0.3338 0.48393 0.94667 0.0
C118 C 0.33322 0.4381 0.98229 0.0
C119 C 0.33437 0.41975 0.03258 0.0
C120 C 0.33381 0.53341 0.09999 0.0
C121 C 0.33799 0.48447 0.04072 0.0
C122 C 0.33153 0.56575 0.10264 0.0
C123 C 0.33354 0.58361 0.05179 0.0
C124 C 0.33781 0.51884 0.04602 0.0
C125 C 0.33844 0.56824 0.99897 0.0
C126 C 0.33522 0.47031 0.98611 0.0
C127 C 0.33815 0.43462 0.0863 0.0
N128 N 0.34017 0.53673 0.9974 0.0
N129 N 0.33953 0.46621 0.08905 0.0
H130 H 0.41608 0.32501 0.06369 0.0
H131 H 0.58847 0.33132 0.96257 0.0
H132 H 0.44121 0.3594 0.89442 0.0
H133 H 0.56123 0.35008 0.13898 0.0
H134 H 0.53479 0.32863 0.93437 0.0
H135 H 0.46982 0.32091 0.08897 0.0
C136 C 0.43288 0.33127 0.03149 0.0
C137 C 0.42412 0.34267 0.97685 0.0
C138 C 0.54068 0.33309 0.97927 0.0
C139 C 0.48559 0.33776 0.00555 0.0
C140 C 0.57121 0.33443 0.99548 0.0
C141 C 0.57926 0.34102 0.05319 0.0
C142 C 0.51813 0.33761 0.02135 0.0
C143 C 0.55599 0.34514 0.09398 0.0
C144 C 0.4635 0.32909 0.04615 0.0
C145 C 0.44696 0.35067 0.93711 0.0
N146 N 0.52648 0.34322 0.07734 0.0
N147 N 0.47669 0.34797 0.95217 0.0
H148 H 0.66695 0.42263 0.92837 0.0
H149 H 0.66647 0.57839 0.11938 0.0
H150 H 0.67702 0.42371 0.11476 0.0
H151 H 0.67647 0.57759 0.93302 0.0
H152 H 0.66363 0.52156 0.1184 0.0
H153 H 0.66375 0.47948 0.92916 0.0
C154 C 0.6683 0.43482 0.96945 0.0
C155 C 0.67243 0.41848 0.02152 0.0
C156 C 0.66634 0.53385 0.07771 0.0
C157 C 0.66874 0.48335 0.02281 0.0
C158 C 0.66789 0.56626 0.07826 0.0
C159 C 0.67189 0.58268 0.02626 0.0
C160 C 0.66861 0.51779 0.02474 0.0
C161 C 0.67355 0.56583 0.97417 0.0
C162 C 0.66655 0.46723 0.96988 0.0
C163 C 0.67401 0.4354 0.07355 0.0
N164 N 0.67195 0.53431 0.97474 0.0
N165 N 0.6722 0.4669 0.07287 0.0
H166 H 0.44399 0.64821 0.17187 0.0
H167 H 0.55972 0.6496 0.91156 0.0
H168 H 0.41617 0.67496 0.9993 0.0
H169 H 0.58806 0.67283 0.08561 0.0
H170 H 0.50674 0.65376 0.94247 0.0
H171 H 0.49707 0.65213 0.14137 0.0
C172 C 0.44906 0.65509 0.1277 0.0
C173 C 0.42565 0.66126 0.08804 0.0
C174 C 0.52459 0.65823 0.97367 0.0
C175 C 0.48616 0.66521 0.05275 0.0
C176 C 0.55479 0.65574 0.95617 0.0
C177 C 0.57831 0.66086 0.9961 0.0
C178 C 0.51789 0.66511 0.03183 0.0
C179 C 0.57062 0.66885 0.05336 0.0
C180 C 0.47931 0.65743 0.11044 0.0
C181 C 0.43351 0.67017 0.03135 0.0
N182 N 0.54105 0.6703 0.06975 0.0
N183 N 0.46311 0.67145 0.01513 0.0
H184 H 0.83656 0.92282 0.61996 0.0
H185 H 0.83684 0.07856 0.42906 0.0
H186 H 0.82642 0.92352 0.43358 0.0
H187 H 0.82527 0.07745 0.61509 0.0
H188 H 0.83968 0.02168 0.42983 0.0
H189 H 0.8392 0.97967 0.61894 0.0
C190 C 0.83507 0.93492 0.57883 0.0
C191 C 0.8311 0.91847 0.52684 0.0
C192 C 0.83661 0.03393 0.47047 0.0
C193 C 0.83414 0.98337 0.52527 0.0
C194 C 0.83505 0.06637 0.47005 0.0
C195 C 0.83065 0.08271 0.52203 0.0
C196 C 0.834 0.01781 0.52331 0.0
C197 C 0.82851 0.06577 0.57394 0.0
C198 C 0.83649 0.96735 0.57826 0.0
C199 C 0.82932 0.9353 0.47473 0.0
N200 N 0.83019 0.03427 0.57327 0.0
N201 N 0.83082 0.96683 0.47527 0.0
H202 H 0.05933 0.85209 0.67038 0.0
H203 H 0.94313 0.85265 0.41043 0.0
H204 H 0.08715 0.82705 0.49701 0.0
H205 H 0.9154 0.82762 0.58386 0.0
H206 H 0.99624 0.84837 0.44087 0.0
H207 H 0.00626 0.84818 0.63974 0.0
C208 C 0.05426 0.84558 0.62599 0.0
C209 C 0.07765 0.83989 0.58616 0.0
C210 C 0.97848 0.84353 0.47201 0.0
C211 C 0.01714 0.83597 0.5507 0.0
C212 C 0.94822 0.84609 0.45479 0.0
C213 C 0.92483 0.8405 0.49471 0.0
C214 C 0.98538 0.83611 0.52988 0.0
C215 C 0.93272 0.83198 0.55161 0.0
C216 C 0.02401 0.84325 0.60864 0.0
C217 C 0.0698 0.83146 0.52918 0.0
N218 N 0.96234 0.83047 0.56775 0.0
N219 N 0.04018 0.83019 0.51289 0.0
H220 H 0.16256 0.08132 0.62892 0.0
H221 H 0.16355 0.91946 0.45671 0.0
H222 H 0.17698 0.07269 0.44431 0.0
H223 H 0.1749 0.92543 0.64251 0.0
H224 H 0.16008 0.97608 0.45229 0.0
H225 H 0.159 0.0244 0.63559 0.0
C226 C 0.16472 0.0675 0.58983 0.0
C227 C 0.17022 0.08171 0.53606 0.0
C228 C 0.16322 0.965 0.49408 0.0
C229 C 0.16602 0.01697 0.54323 0.0
C230 C 0.16512 0.93268 0.49663 0.0
C231 C 0.16976 0.91777 0.54998 0.0
C232 C 0.16577 0.98255 0.54531 0.0
C233 C 0.17155 0.93605 0.6004 0.0
C234 C 0.16279 0.03509 0.59366 0.0
C235 C 0.17288 0.06276 0.48674 0.0
N236 N 0.16962 0.96753 0.59684 0.0
N237 N 0.17076 0.03143 0.49152 0.0
H238 H 0.93271 0.10139 0.56826 0.0
H239 H 0.08086 0.19876 0.50189 0.0
H240 H 0.92611 0.1992 0.52894 0.0
H241 H 0.07071 0.10247 0.45304 0.0
H242 H 0.02638 0.20064 0.52463 0.0
H243 H 0.98599 0.10242 0.54026 0.0
C244 C 0.94252 0.12316 0.55401 0.0
C245 C 0.92493 0.15028 0.55104 0.0
C246 C 0.03619 0.17926 0.50846 0.0
C247 C 0.98612 0.15159 0.51923 0.0
C248 C 0.06721 0.17811 0.49565 0.0
C249 C 0.08039 0.15042 0.47541 0.0
C250 C 0.01851 0.15233 0.5023 0.0
C251 C 0.06159 0.12437 0.46815 0.0
C252 C 0.97289 0.12366 0.53769 0.0
C253 C 0.93886 0.17776 0.53168 0.0
N254 N 0.03176 0.12588 0.48219 0.0
N255 N 0.96879 0.17781 0.51696 0.0
H256 H 0.1885 0.24693 0.3722 0.0
H257 H 0.31604 0.25028 0.12469 0.0
H258 H 0.24254 0.16824 0.32006 0.0
H259 H 0.24684 0.32092 0.13455 0.0
H260 H 0.29239 0.22323 0.20542 0.0
H261 H 0.21308 0.27813 0.29531 0.0
C262 C 0.2058 0.23642 0.34527 0.0
C263 C 0.21344 0.20497 0.35222 0.0
C264 C 0.28219 0.24458 0.18996 0.0
C265 C 0.24134 0.24013 0.26486 0.0
C266 C 0.29569 0.26004 0.14366 0.0
C267 C 0.2833 0.28781 0.12251 0.0
C268 C 0.25611 0.25697 0.21611 0.0
C269 C 0.25695 0.29938 0.14918 0.0
C270 C 0.21956 0.25407 0.30117 0.0
C271 C 0.23578 0.19233 0.31591 0.0
N272 N 0.24424 0.28396 0.19487 0.0
N273 N 0.24885 0.20988 0.27404 0.0
H274 H 0.74191 0.27465 0.136 0.0
H275 H 0.7373 0.19847 0.45345 0.0
H276 H 0.66599 0.28507 0.25193 0.0
H277 H 0.82046 0.2254 0.36899 0.0
H278 H 0.70869 0.22013 0.37143 0.0
H279 H 0.76867 0.24498 0.21182 0.0
C280 C 0.73055 0.26983 0.17669 0.0
C281 C 0.70171 0.28214 0.18781 0.0
C282 C 0.73321 0.22124 0.37094 0.0
C283 C 0.73211 0.24877 0.27451 0.0
C284 C 0.74953 0.20899 0.41776 0.0
C285 C 0.78129 0.21044 0.41836 0.0
C286 C 0.74877 0.23446 0.32381 0.0
C287 C 0.79598 0.22414 0.37068 0.0
C288 C 0.74593 0.25332 0.22014 0.0
C289 C 0.6882 0.27586 0.24172 0.0
N290 N 0.77962 0.23549 0.32523 0.0
N291 N 0.7035 0.25969 0.28308 0.0
H292 H 0.76417 0.772 0.41467 0.0
H293 H 0.76899 0.69604 0.09693 0.0
H294 H 0.83942 0.78449 0.29783 0.0
H295 H 0.68608 0.72276 0.18262 0.0
H296 H 0.79783 0.71738 0.17921 0.0
H297 H 0.73817 0.74124 0.33948 0.0
C298 C 0.77557 0.76743 0.37392 0.0
C299 C 0.80391 0.78071 0.36226 0.0
C300 C 0.77331 0.71844 0.17988 0.0
C301 C 0.77442 0.74604 0.27635 0.0
C302 C 0.75688 0.70638 0.13296 0.0
C303 C 0.72513 0.70799 0.13261 0.0
C304 C 0.75782 0.73153 0.22726 0.0
C305 C 0.71056 0.72142 0.18069 0.0
C306 C 0.76063 0.75026 0.33085 0.0
C307 C 0.81753 0.77462 0.30835 0.0
N308 N 0.72699 0.73256 0.22613 0.0
N309 N 0.80264 0.75782 0.26731 0.0
H310 H 0.26839 0.80435 0.48657 0.0
H311 H 0.26426 0.72824 0.16912 0.0
H312 H 0.1856 0.77638 0.40158 0.0
H313 H 0.33907 0.71503 0.28703 0.0
H314 H 0.23799 0.7586 0.24448 0.0
H315 H 0.29731 0.78272 0.40474 0.0
C316 C 0.25633 0.79365 0.45079 0.0
C317 C 0.22459 0.7918 0.4512 0.0
C318 C 0.2604 0.74948 0.25333 0.0
C319 C 0.25736 0.76796 0.35703 0.0
C320 C 0.2755 0.73254 0.21019 0.0
C321 C 0.30381 0.7192 0.22206 0.0
C322 C 0.27403 0.75347 0.30809 0.0
C323 C 0.31721 0.72494 0.27634 0.0
C324 C 0.2728 0.78143 0.40414 0.0
C325 C 0.21007 0.77792 0.40346 0.0
N326 N 0.3022 0.74158 0.31741 0.0
N327 N 0.22654 0.76667 0.35822 0.0
H328 H 0.16239 0.78594 0.78559 0.0
H329 H 0.31956 0.72619 0.90283 0.0
H330 H 0.23934 0.77459 0.67253 0.0
H331 H 0.23581 0.69682 0.98217 0.0
H332 H 0.29083 0.74741 0.82115 0.0
H333 H 0.18842 0.75527 0.86009 0.0
C334 C 0.18453 0.77633 0.77607 0.0
C335 C 0.19873 0.78259 0.72283 0.0
C336 C 0.27874 0.73621 0.85629 0.0
C337 C 0.22905 0.74856 0.80855 0.0
C338 C 0.29508 0.72437 0.90328 0.0
C339 C 0.28002 0.70992 0.94968 0.0
C340 C 0.24702 0.73417 0.85605 0.0
C341 C 0.24829 0.7079 0.94745 0.0
C342 C 0.19939 0.75895 0.81862 0.0
C343 C 0.22753 0.76994 0.71278 0.0
N344 N 0.2328 0.7202 0.90169 0.0
N345 N 0.24202 0.754 0.75574 0.0
H346 H 0.25741 0.33365 0.82913 0.0
H347 H 0.2565 0.18202 0.63046 0.0
H348 H 0.31464 0.25502 0.86683 0.0
H349 H 0.18477 0.25015 0.63126 0.0
H350 H 0.28021 0.20889 0.71294 0.0
H351 H 0.2319 0.30357 0.75411 0.0
C352 C 0.26435 0.3098 0.82194 0.0
C353 C 0.28814 0.29677 0.85419 0.0
C354 C 0.25927 0.21788 0.69503 0.0
C355 C 0.25939 0.26222 0.76707 0.0
C356 C 0.24586 0.20275 0.64764 0.0
C357 C 0.21868 0.21398 0.62366 0.0
C358 C 0.24555 0.24461 0.71813 0.0
C359 C 0.20574 0.24071 0.64811 0.0
C360 C 0.2498 0.29263 0.77899 0.0
C361 C 0.29623 0.26579 0.84315 0.0
N362 N 0.21934 0.25513 0.69371 0.0
N363 N 0.28211 0.24962 0.79985 0.0
H364 H 0.68605 0.27717 0.86782 0.0
H365 H 0.84291 0.21556 0.75384 0.0
H366 H 0.7696 0.30487 0.95034 0.0
H367 H 0.76687 0.22892 0.63898 0.0
H368 H 0.81708 0.24658 0.82802 0.0
H369 H 0.71506 0.25621 0.78641 0.0
C370 C 0.71055 0.27868 0.86901 0.0
C371 C 0.72546 0.29259 0.91623 0.0
C372 C 0.8063 0.24329 0.78621 0.0
C373 C 0.7588 0.26863 0.82289 0.0
C374 C 0.82106 0.22574 0.74381 0.0
C375 C 0.80703 0.21989 0.69018 0.0
C376 C 0.77689 0.25428 0.77556 0.0
C377 C 0.77858 0.23323 0.67953 0.0
C378 C 0.72705 0.267 0.82218 0.0
C379 C 0.75722 0.29423 0.91495 0.0
N380 N 0.76414 0.24931 0.72233 0.0
N381 N 0.77289 0.28206 0.8693 0.0
H382 H 0.6616 0.71845 0.79995 0.0
H383 H 0.81904 0.77644 0.68104 0.0
H384 H 0.73972 0.72739 0.91108 0.0
H385 H 0.73516 0.80573 0.60171 0.0
H386 H 0.79049 0.75568 0.76317 0.0
H387 H 0.68749 0.74924 0.72562 0.0
C388 C 0.68396 0.72762 0.80917 0.0
C389 C 0.69853 0.7206 0.86175 0.0
C390 C 0.77833 0.76677 0.72796 0.0
C391 C 0.72871 0.75473 0.77612 0.0
C392 C 0.79457 0.77835 0.6807 0.0
C393 C 0.77943 0.79263 0.63414 0.0
C394 C 0.74661 0.76893 0.72838 0.0
C395 C 0.74771 0.79477 0.63653 0.0
C396 C 0.69876 0.74505 0.76667 0.0
C397 C 0.72761 0.73265 0.87137 0.0
N398 N 0.73231 0.78274 0.6826 0.0
N399 N 0.74202 0.74864 0.82844 0.0
loop_
_geom_bond_atom_site_label_1
_geom_bond_atom_site_label_2
_geom_bond_distance
_geom_bond_site_symmetry_2
_ccdc_geom_bond_type
Co0 O1 2.216 . S
Co0 O2 2.091 . S
Co0 O4 2.004 . S
Co0 O10 2.021 1_554 S
Co0 O12 2.137 . S
Co0 O13 2.244 . S
O1 Co0 2.216 . S
O1 C8 1.247 . S
O2 Co0 2.091 . S
O2 C8 1.261 . S
C3 O12 1.247 . S
C3 O13 1.272 . S
O4 Co0 2.004 . S
O4 C9 1.259 . S
Co5 O6 2.061 . S
Co5 O11 2.052 . S
Co5 O13 2.135 1_556 S
O6 Co5 2.061 . S
O6 C9 1.235 1_556 S
C7 O10 1.238 . S
C7 O11 1.241 . S
C8 O1 1.247 . S
C8 O2 1.261 . S
C9 O4 1.259 . S
C9 O6 1.235 1_554 S
O10 Co0 2.021 1_556 S
O10 C7 1.238 . S
O11 Co5 2.052 . S
O11 C7 1.241 . S
O12 Co0 2.137 . S
O12 C3 1.247 . S
O13 Co0 2.244 . S
O13 C3 1.272 . S
O13 Co5 2.135 1_554 S
Co14 O15 2.216 . S
Co14 O16 2.091 . S
Co14 O18 2.004 1_556 S
Co14 O24 2.021 1_556 S
Co14 O26 2.137 . S
Co14 O27 2.244 1_556 S
O15 Co14 2.216 . S
O15 C22 1.247 . S
O16 Co14 2.091 . S
O16 C22 1.261 . S
C17 O26 1.263 . S
C17 O27 1.255 1_556 S
O18 Co14 2.004 1_554 S
O18 C23 1.259 . S
Co19 O20 2.061 . S
Co19 O25 2.052 . S
Co19 O27 2.135 . S
O20 Co19 2.061 . S
O20 C23 1.235 . S
C21 O24 1.238 . S
C21 O25 1.241 . S
C22 O15 1.247 . S
C22 O16 1.261 . S
C23 O18 1.259 . S
C23 O20 1.235 . S
O24 Co14 2.021 1_554 S
O24 C21 1.238 . S
O25 Co19 2.052 . S
O25 C21 1.241 . S
O26 Co14 2.137 . S
O26 C17 1.263 . S
O27 Co14 2.244 1_554 S
O27 C17 1.255 1_554 S
O27 Co19 2.135 . S
Co28 O29 2.216 . S
Co28 O30 2.091 . S
Co28 O32 2.004 . S
Co28 O38 2.021 1_554 S
Co28 O40 2.137 . S
Co28 O41 2.244 . S
O29 Co28 2.216 . S
O29 C36 1.247 . S
O30 Co28 2.091 . S
O30 C36 1.261 . S
C31 O40 1.247 . S
C31 O41 1.272 . S
O32 Co28 2.004 . S
O32 C37 1.259 . S
Co33 O34 2.061 . S
Co33 O39 2.052 . S
Co33 O41 2.135 1_556 S
O34 Co33 2.061 . S
O34 C37 1.235 1_556 S
C35 O38 1.238 . S
C35 O39 1.241 . S
C36 O29 1.247 . S
C36 O30 1.261 . S
C37 O32 1.259 . S
C37 O34 1.235 1_554 S
O38 Co28 2.021 1_556 S
O38 C35 1.238 . S
O39 Co33 2.052 . S
O39 C35 1.241 . S
O40 Co28 2.137 . S
O40 C31 1.247 . S
O41 Co28 2.244 . S
O41 C31 1.272 . S
O41 Co33 2.135 1_554 S
Co42 O43 2.216 . S
Co42 O44 2.091 . S
Co42 O46 2.004 1_556 S
Co42 O52 2.021 1_556 S
Co42 O54 2.137 . S
Co42 O55 2.244 1_556 S
O43 Co42 2.216 . S
O43 C50 1.247 . S
O44 Co42 2.091 . S
O44 C50 1.261 . S
C45 O54 1.263 . S
C45 O55 1.255 1_556 S
O46 Co42 2.004 1_554 S
O46 C51 1.259 . S
Co47 O48 2.061 . S
Co47 O53 2.052 . S
Co47 O55 2.135 . S
O48 Co47 2.061 . S
O48 C51 1.235 . S
C49 O52 1.238 . S
C49 O53 1.241 . S
C50 O43 1.247 . S
C50 O44 1.261 . S
C51 O46 1.259 . S
C51 O48 1.235 . S
O52 Co42 2.021 1_554 S
O52 C49 1.238 . S
O53 Co47 2.052 . S
O53 C49 1.241 . S
O54 Co42 2.137 . S
O54 C45 1.263 . S
O55 Co42 2.244 1_554 S
O55 C45 1.255 1_554 S
O55 Co47 2.135 . S
Co56 O57 2.216 . S
Co56 O58 2.091 . S
Co56 O60 2.004 . S
Co56 O66 2.021 . S
Co56 O68 2.137 . S
Co56 O69 2.244 . S
O57 Co56 2.216 . S
O57 C64 1.247 . S
O58 Co56 2.091 . S
O58 C64 1.261 . S
C59 O68 1.247 . S
C59 O69 1.272 . S
O60 Co56 2.004 . S
O60 C65 1.259 . S
Co61 O62 2.061 . S
Co61 O67 2.052 . S
Co61 O69 2.135 . S
O62 Co61 2.061 . S
O62 C65 1.235 . S
C63 O66 1.238 . S
C63 O67 1.241 . S
C64 O57 1.247 . S
C64 O58 1.261 . S
C65 O60 1.259 . S
C65 O62 1.235 . S
O66 Co56 2.021 . S
O66 C63 1.238 . S
O67 Co61 2.052 . S
O67 C63 1.241 . S
O68 Co56 2.137 . S
O68 C59 1.247 . S
O69 Co56 2.244 . S
O69 C59 1.272 . S
O69 Co61 2.135 . S
Co70 O71 2.216 . S
Co70 O72 2.091 . S
Co70 O74 2.004 . S
Co70 O80 2.021 . S
Co70 O82 2.137 . S
Co70 O83 2.244 . S
O71 Co70 2.216 . S
O71 C78 1.247 . S
O72 Co70 2.091 . S
O72 C78 1.261 . S
C73 O82 1.247 . S
C73 O83 1.272 . S
O74 Co70 2.004 . S
O74 C79 1.259 . S
Co75 O76 2.061 . S
Co75 O81 2.052 . S
Co75 O83 2.135 . S
O76 Co75 2.061 . S
O76 C79 1.235 . S
C77 O80 1.238 . S
C77 O81 1.241 . S
C78 O71 1.247 . S
C78 O72 1.261 . S
C79 O74 1.259 . S
C79 O76 1.235 . S
O80 Co70 2.021 . S
O80 C77 1.238 . S
O81 Co75 2.052 . S
O81 C77 1.241 . S
O82 Co70 2.137 . S
O82 C73 1.247 . S
O83 Co70 2.244 . S
O83 C73 1.272 . S
O83 Co75 2.135 . S
Co84 O85 2.216 . S
Co84 O86 2.091 . S
Co84 O88 2.004 . S
Co84 O94 2.021 . S
Co84 O96 2.137 . S
Co84 O97 2.244 . S
O85 Co84 2.216 . S
O85 C92 1.247 . S
O86 Co84 2.091 . S
O86 C92 1.261 . S
C87 O96 1.247 . S
C87 O97 1.272 . S
O88 Co84 2.004 . S
O88 C93 1.259 . S
Co89 O90 2.061 . S
Co89 O95 2.052 . S
Co89 O97 2.135 . S
O90 Co89 2.061 . S
O90 C93 1.235 . S
C91 O94 1.238 . S
C91 O95 1.241 . S
C92 O85 1.247 . S
C92 O86 1.261 . S
C93 O88 1.259 . S
C93 O90 1.235 . S
O94 Co84 2.021 . S
O94 C91 1.238 . S
O95 Co89 2.052 . S
O95 C91 1.241 . S
O96 Co84 2.137 . S
O96 C87 1.247 . S
O97 Co84 2.244 . S
O97 C87 1.272 . S
O97 Co89 2.135 . S
Co98 O99 2.216 . S
Co98 O100 2.091 . S
Co98 O102 2.004 . S
Co98 O108 2.021 . S
Co98 O110 2.137 . S
Co98 O111 2.244 . S
O99 Co98 2.216 . S
O99 C106 1.247 . S
O100 Co98 2.091 . S
O100 C106 1.261 . S
C101 O110 1.247 . S
C101 O111 1.272 . S
O102 Co98 2.004 . S
O102 C107 1.259 . S
Co103 O104 2.061 . S
Co103 O109 2.052 . S
Co103 O111 2.135 . S
O104 Co103 2.061 . S
O104 C107 1.235 . S
C105 O108 1.238 . S
C105 O109 1.241 . S
C106 O99 1.247 . S
C106 O100 1.261 . S
C107 O102 1.259 . S
C107 O104 1.235 . S
O108 Co98 2.021 . S
O108 C105 1.238 . S
O109 Co103 2.052 . S
O109 C105 1.241 . S
O110 Co98 2.137 . S
O110 C101 1.247 . S
O111 Co98 2.244 . S
O111 C101 1.272 . S
O111 Co103 2.135 . S
H112 C118 0.920 1_556 S
H113 C122 0.930 . S
H114 C127 0.929 . S
H115 C125 0.929 . S
H116 C120 0.929 . S
H117 C126 0.929 . S
C118 H112 0.920 1_554 S
C118 C119 1.380 . S
C118 C126 1.375 1_554 S
C119 C118 1.380 . S
C119 C127 1.433 . S
C120 H116 0.929 . S
C120 C122 1.378 . S
C120 C124 1.350 . S
C121 C124 1.463 . S
C121 C126 1.350 1_554 S
C121 N129 1.427 . S
C122 H113 0.930 . S
C122 C120 1.378 . S
C122 C123 1.367 . S
C123 C122 1.367 . S
C123 C125 1.433 1_554 S
C124 C120 1.350 . S
C124 C121 1.463 . S
C124 N128 1.427 1_554 S
C125 H115 0.929 . S
C125 C123 1.433 1_556 S
C125 N128 1.384 . S
C126 H117 0.929 . S
C126 C118 1.375 1_556 S
C126 C121 1.350 1_556 S
C127 H114 0.929 . S
C127 C119 1.433 . S
C127 N129 1.384 . S
N128 C124 1.427 1_556 S
N128 C125 1.384 . S
N129 C121 1.427 . S
N129 C127 1.384 . S
H130 C136 0.930 . S
H131 C140 0.930 1_556 S
H132 C145 0.929 . S
H133 C143 0.929 . S
H134 C138 0.922 1_556 S
H135 C144 0.929 . S
C136 H130 0.930 . S
C136 C137 1.367 . S
C136 C144 1.378 . S
C137 C136 1.367 . S
C137 C145 1.433 1_554 S
C138 H134 0.922 1_554 S
C138 C140 1.379 . S
C138 C142 1.355 . S
C139 C142 1.463 . S
C139 C144 1.350 . S
C139 N147 1.427 1_554 S
C140 H131 0.930 1_554 S
C140 C138 1.379 . S
C140 C141 1.367 . S
C141 C140 1.367 . S
C141 C143 1.433 . S
C142 C138 1.355 . S
C142 C139 1.463 . S
C142 N146 1.427 . S
C143 H133 0.929 . S
C143 C141 1.433 . S
C143 N146 1.384 . S
C144 H135 0.929 . S
C144 C136 1.378 . S
C144 C139 1.350 . S
C145 H132 0.929 . S
C145 C137 1.433 1_556 S
C145 N147 1.384 . S
N146 C142 1.427 . S
N146 C143 1.384 . S
N147 C139 1.427 1_556 S
N147 C145 1.384 . S
H148 C154 0.930 . S
H149 C158 0.930 . S
H150 C163 0.929 . S
H151 C161 0.929 . S
H152 C156 0.929 . S
H153 C162 0.929 . S
C154 H148 0.930 . S
C154 C155 1.367 1_556 S
C154 C162 1.378 . S
C155 C154 1.367 1_554 S
C155 C163 1.433 . S
C156 H152 0.929 . S
C156 C158 1.378 . S
C156 C160 1.350 . S
C157 C160 1.463 . S
C157 C162 1.350 1_554 S
C157 N165 1.427 . S
C158 H149 0.930 . S
C158 C156 1.378 . S
C158 C159 1.367 . S
C159 C158 1.367 . S
C159 C161 1.433 1_554 S
C160 C156 1.350 . S
C160 C157 1.463 . S
C160 N164 1.427 1_554 S
C161 H151 0.929 . S
C161 C159 1.433 1_556 S
C161 N164 1.384 . S
C162 H153 0.929 . S
C162 C154 1.378 . S
C162 C157 1.350 1_556 S
C163 H150 0.929 . S
C163 C155 1.433 . S
C163 N165 1.384 . S
N164 C160 1.427 1_556 S
N164 C161 1.384 . S
N165 C157 1.427 . S
N165 C163 1.384 . S
H166 C172 0.930 . S
H167 C176 0.930 . S
H168 C181 0.929 . S
H169 C179 0.929 . S
H170 C174 0.929 . S
H171 C180 0.929 . S
C172 H166 0.930 . S
C172 C173 1.367 . S
C172 C180 1.378 . S
C173 C172 1.367 . S
C173 C181 1.433 1_554 S
C174 H170 0.929 . S
C174 C176 1.378 . S
C174 C178 1.350 1_556 S
C175 C178 1.463 . S
C175 C180 1.350 . S
C175 N183 1.427 1_554 S
C176 H167 0.930 . S
C176 C174 1.378 . S
C176 C177 1.367 1_556 S
C177 C176 1.367 1_554 S
C177 C179 1.433 . S
C178 C174 1.350 1_554 S
C178 C175 1.463 . S
C178 N182 1.427 . S
C179 H169 0.929 . S
C179 C177 1.433 . S
C179 N182 1.384 . S
C180 H171 0.929 . S
C180 C172 1.378 . S
C180 C175 1.350 . S
C181 H168 0.929 . S
C181 C173 1.433 1_556 S
C181 N183 1.384 . S
N182 C178 1.427 . S
N182 C179 1.384 . S
N183 C175 1.427 1_556 S
N183 C181 1.384 . S
H184 C190 0.930 . S
H185 C194 0.930 . S
H186 C199 0.929 . S
H187 C197 0.929 . S
H188 C192 0.929 . S
H189 C198 0.929 . S
C190 H184 0.930 . S
C190 C191 1.367 . S
C190 C198 1.378 . S
C191 C190 1.367 . S
C191 C199 1.433 . S
C192 H188 0.929 . S
C192 C194 1.378 . S
C192 C196 1.350 . S
C193 C196 1.463 1_565 S
C193 C198 1.350 . S
C193 N201 1.427 . S
C194 H185 0.930 . S
C194 C192 1.378 . S
C194 C195 1.367 . S
C195 C194 1.367 . S
C195 C197 1.433 . S
C196 C192 1.350 . S
C196 C193 1.463 1_545 S
C196 N200 1.427 . S
C197 H187 0.929 . S
C197 C195 1.433 . S
C197 N200 1.384 . S
C198 H189 0.929 . S
C198 C190 1.378 . S
C198 C193 1.350 . S
C199 H186 0.929 . S
C199 C191 1.433 . S
C199 N201 1.384 . S
N200 C196 1.427 . S
N200 C197 1.384 . S
N201 C193 1.427 . S
N201 C199 1.384 . S
H202 C208 0.930 . S
H203 C212 0.930 . S
H204 C217 0.929 . S
H205 C215 0.929 . S
H206 C210 0.929 . S
H207 C216 0.929 . S
C208 H202 0.930 . S
C208 C209 1.367 . S
C208 C216 1.378 . S
C209 C208 1.367 . S
C209 C217 1.433 . S
C210 H206 0.929 . S
C210 C212 1.378 . S
C210 C214 1.350 . S
C211 C214 1.463 1_455 S
C211 C216 1.350 . S
C211 N219 1.427 . S
C212 H203 0.930 . S
C212 C210 1.378 . S
C212 C213 1.367 . S
C213 C212 1.367 . S
C213 C215 1.433 . S
C214 C210 1.350 . S
C214 C211 1.463 1_655 S
C214 N218 1.427 . S
C215 H205 0.929 . S
C215 C213 1.433 . S
C215 N218 1.384 . S
C216 H207 0.929 . S
C216 C208 1.378 . S
C216 C211 1.350 . S
C217 H204 0.929 . S
C217 C209 1.433 . S
C217 N219 1.384 . S
N218 C214 1.427 . S
N218 C215 1.384 . S
N219 C211 1.427 . S
N219 C217 1.384 . S
H220 C226 0.930 . S
H221 C230 0.930 . S
H222 C235 0.929 . S
H223 C233 0.929 . S
H224 C228 0.929 . S
H225 C234 0.929 . S
C226 H220 0.930 . S
C226 C227 1.367 . S
C226 C234 1.378 . S
C227 C226 1.367 . S
C227 C235 1.433 . S
C228 H224 0.929 . S
C228 C230 1.378 . S
C228 C232 1.350 . S
C229 C232 1.463 1_545 S
C229 C234 1.350 . S
C229 N237 1.427 . S
C230 H221 0.930 . S
C230 C228 1.378 . S
C230 C231 1.367 . S
C231 C230 1.367 . S
C231 C233 1.433 . S
C232 C228 1.350 . S
C232 C229 1.463 1_565 S
C232 N236 1.427 . S
C233 H223 0.929 . S
C233 C231 1.433 . S
C233 N236 1.384 . S
C234 H225 0.929 . S
C234 C226 1.378 . S
C234 C229 1.350 . S
C235 H222 0.929 . S
C235 C227 1.433 . S
C235 N237 1.384 . S
N236 C232 1.427 . S
N236 C233 1.384 . S
N237 C229 1.427 . S
N237 C235 1.384 . S
H238 C244 0.930 . S
H239 C248 0.930 . S
H240 C253 0.929 . S
H241 C251 0.929 . S
H242 C246 0.929 . S
H243 C252 0.929 . S
C244 H238 0.930 . S
C244 C245 1.367 . S
C244 C252 1.378 . S
C245 C244 1.367 . S
C245 C253 1.433 . S
C246 H242 0.929 . S
C246 C248 1.378 . S
C246 C250 1.350 . S
C247 C250 1.463 1_655 S
C247 C252 1.350 . S
C247 N255 1.427 . S
C248 H239 0.930 . S
C248 C246 1.378 . S
C248 C249 1.367 . S
C249 C248 1.367 . S
C249 C251 1.433 . S
C250 C246 1.350 . S
C250 C247 1.463 1_455 S
C250 N254 1.427 . S
C251 H241 0.929 . S
C251 C249 1.433 . S
C251 N254 1.384 . S
C252 H243 0.929 . S
C252 C244 1.378 . S
C252 C247 1.350 . S
C253 H240 0.929 . S
C253 C245 1.433 . S
C253 N255 1.384 . S
N254 C250 1.427 . S
N254 C251 1.384 . S
N255 C247 1.427 . S
N255 C253 1.384 . S
H256 C262 0.930 . S
H257 C266 0.930 . S
H258 C271 0.929 . S
H259 C269 0.929 . S
H260 C264 0.929 . S
H261 C270 0.929 . S
C262 H256 0.930 . S
C262 C263 1.367 . S
C262 C270 1.378 . S
C263 C262 1.367 . S
C263 C271 1.433 . S
C264 H260 0.929 . S
C264 C266 1.378 . S
C264 C268 1.350 . S
C265 C268 1.463 . S
C265 C270 1.350 . S
C265 N273 1.427 . S
C266 H257 0.930 . S
C266 C264 1.378 . S
C266 C267 1.367 . S
C267 C266 1.367 . S
C267 C269 1.433 . S
C268 C264 1.350 . S
C268 C265 1.463 . S
C268 N272 1.427 . S
C269 H259 0.929 . S
C269 C267 1.433 . S
C269 N272 1.384 . S
C270 H261 0.929 . S
C270 C262 1.378 . S
C270 C265 1.350 . S
C271 H258 0.929 . S
C271 C263 1.433 . S
C271 N273 1.384 . S
N272 C268 1.427 . S
N272 C269 1.384 . S
N273 C265 1.427 . S
N273 C271 1.384 . S
H274 C280 0.930 . S
H275 C284 0.930 . S
H276 C289 0.929 . S
H277 C287 0.929 . S
H278 C282 0.929 . S
H279 C288 0.929 . S
C280 H274 0.930 . S
C280 C281 1.367 . S
C280 C288 1.378 . S
C281 C280 1.367 . S
C281 C289 1.433 . S
C282 H278 0.929 . S
C282 C284 1.378 . S
C282 C286 1.350 . S
C283 C286 1.463 . S
C283 C288 1.350 . S
C283 N291 1.427 . S
C284 H275 0.930 . S
C284 C282 1.378 . S
C284 C285 1.367 . S
C285 C284 1.367 . S
C285 C287 1.433 . S
C286 C282 1.350 . S
C286 C283 1.463 . S
C286 N290 1.427 . S
C287 H277 0.929 . S
C287 C285 1.433 . S
C287 N290 1.384 . S
C288 H279 0.929 . S
C288 C280 1.378 . S
C288 C283 1.350 . S
C289 H276 0.929 . S
C289 C281 1.433 . S
C289 N291 1.384 . S
N290 C286 1.427 . S
N290 C287 1.384 . S
N291 C283 1.427 . S
N291 C289 1.384 . S
H292 C298 0.930 . S
H293 C302 0.930 . S
H294 C307 0.929 . S
H295 C305 0.929 . S
H296 C300 0.929 . S
H297 C306 0.929 . S
C298 H292 0.930 . S
C298 C299 1.367 . S
C298 C306 1.378 . S
C299 C298 1.367 . S
C299 C307 1.433 . S
C300 H296 0.929 . S
C300 C302 1.378 . S
C300 C304 1.350 . S
C301 C304 1.463 . S
C301 C306 1.350 . S
C301 N309 1.427 . S
C302 H293 0.930 . S
C302 C300 1.378 . S
C302 C303 1.367 . S
C303 C302 1.367 . S
C303 C305 1.433 . S
C304 C300 1.350 . S
C304 C301 1.463 . S
C304 N308 1.427 . S
C305 H295 0.929 . S
C305 C303 1.433 . S
C305 N308 1.384 . S
C306 H297 0.929 . S
C306 C298 1.378 . S
C306 C301 1.350 . S
C307 H294 0.929 . S
C307 C299 1.433 . S
C307 N309 1.384 . S
N308 C304 1.427 . S
N308 C305 1.384 . S
N309 C301 1.427 . S
N309 C307 1.384 . S
H310 C316 0.930 . S
H311 C320 0.930 . S
H312 C325 0.929 . S
H313 C323 0.929 . S
H314 C318 0.929 . S
H315 C324 0.929 . S
C316 H310 0.930 . S
C316 C317 1.367 . S
C316 C324 1.378 . S
C317 C316 1.367 . S
C317 C325 1.433 . S
C318 H314 0.929 . S
C318 C320 1.378 . S
C318 C322 1.350 . S
C319 C322 1.463 . S
C319 C324 1.350 . S
C319 N327 1.427 . S
C320 H311 0.930 . S
C320 C318 1.378 . S
C320 C321 1.367 . S
C321 C320 1.367 . S
C321 C323 1.433 . S
C322 C318 1.350 . S
C322 C319 1.463 . S
C322 N326 1.427 . S
C323 H313 0.929 . S
C323 C321 1.433 . S
C323 N326 1.384 . S
C324 H315 0.929 . S
C324 C316 1.378 . S
C324 C319 1.350 . S
C325 H312 0.929 . S
C325 C317 1.433 . S
C325 N327 1.384 . S
N326 C322 1.427 . S
N326 C323 1.384 . S
N327 C319 1.427 . S
N327 C325 1.384 . S
H328 C334 0.930 . S
H329 C338 0.930 . S
H330 C343 0.929 . S
H331 C341 0.929 . S
H332 C336 0.929 . S
H333 C342 0.929 . S
C334 H328 0.930 . S
C334 C335 1.367 . S
C334 C342 1.378 . S
C335 C334 1.367 . S
C335 C343 1.433 . S
C336 H332 0.929 . S
C336 C338 1.378 . S
C336 C340 1.350 . S
C337 C340 1.463 . S
C337 C342 1.350 . S
C337 N345 1.427 . S
C338 H329 0.930 . S
C338 C336 1.378 . S
C338 C339 1.367 . S
C339 C338 1.367 . S
C339 C341 1.433 . S
C340 C336 1.350 . S
C340 C337 1.463 . S
C340 N344 1.427 . S
C341 H331 0.929 . S
C341 C339 1.433 . S
C341 N344 1.384 . S
C342 H333 0.929 . S
C342 C334 1.378 . S
C342 C337 1.350 . S
C343 H330 0.929 . S
C343 C335 1.433 . S
C343 N345 1.384 . S
N344 C340 1.427 . S
N344 C341 1.384 . S
N345 C337 1.427 . S
N345 C343 1.384 . S
H346 C352 0.930 . S
H347 C356 0.930 . S
H348 C361 0.929 . S
H349 C359 0.929 . S
H350 C354 0.929 . S
H351 C360 0.929 . S
C352 H346 0.930 . S
C352 C353 1.367 . S
C352 C360 1.378 . S
C353 C352 1.367 . S
C353 C361 1.433 . S
C354 H350 0.929 . S
C354 C356 1.378 . S
C354 C358 1.350 . S
C355 C358 1.463 . S
C355 C360 1.350 . S
C355 N363 1.427 . S
C356 H347 0.930 . S
C356 C354 1.378 . S
C356 C357 1.367 . S
C357 C356 1.367 . S
C357 C359 1.433 . S
C358 C354 1.350 . S
C358 C355 1.463 . S
C358 N362 1.427 . S
C359 H349 0.929 . S
C359 C357 1.433 . S
C359 N362 1.384 . S
C360 H351 0.929 . S
C360 C352 1.378 . S
C360 C355 1.350 . S
C361 H348 0.929 . S
C361 C353 1.433 . S
C361 N363 1.384 . S
N362 C358 1.427 . S
N362 C359 1.384 . S
N363 C355 1.427 . S
N363 C361 1.384 . S
H364 C370 0.930 . S
H365 C374 0.930 . S
H366 C379 0.929 . S
H367 C377 0.929 . S
H368 C372 0.929 . S
H369 C378 0.929 . S
C370 H364 0.930 . S
C370 C371 1.367 . S
C370 C378 1.378 . S
C371 C370 1.367 . S
C371 C379 1.433 . S
C372 H368 0.929 . S
C372 C374 1.378 . S
C372 C376 1.350 . S
C373 C376 1.463 . S
C373 C378 1.350 . S
C373 N381 1.427 . S
C374 H365 0.930 . S
C374 C372 1.378 . S
C374 C375 1.367 . S
C375 C374 1.367 . S
C375 C377 1.433 . S
C376 C372 1.350 . S
C376 C373 1.463 . S
C376 N380 1.427 . S
C377 H367 0.929 . S
C377 C375 1.433 . S
C377 N380 1.384 . S
C378 H369 0.929 . S
C378 C370 1.378 . S
C378 C373 1.350 . S
C379 H366 0.929 . S
C379 C371 1.433 . S
C379 N381 1.384 . S
N380 C376 1.427 . S
N380 C377 1.384 . S
N381 C373 1.427 . S
N381 C379 1.384 . S
H382 C388 0.930 . S
H383 C392 0.930 . S
H384 C397 0.929 . S
H385 C395 0.929 . S
H386 C390 0.929 . S
H387 C396 0.929 . S
C388 H382 0.930 . S
C388 C389 1.367 . S
C388 C396 1.378 . S
C389 C388 1.367 . S
C389 C397 1.433 . S
C390 H386 0.929 . S
C390 C392 1.378 . S
C390 C394 1.350 . S
C391 C394 1.463 . S
C391 C396 1.350 . S
C391 N399 1.427 . S
C392 H383 0.930 . S
C392 C390 1.378 . S
C392 C393 1.367 . S
C393 C392 1.367 . S
C393 C395 1.433 . S
C394 C390 1.350 . S
C394 C391 1.463 . S
C394 N398 1.427 . S
C395 H385 0.929 . S
C395 C393 1.433 . S
C395 N398 1.384 . S
C396 H387 0.929 . S
C396 C388 1.378 . S
C396 C391 1.350 . S
C397 H384 0.929 . S
C397 C389 1.433 . S
C397 N399 1.384 . S
N398 C394 1.427 . S
N398 C395 1.384 . S
N399 C391 1.427 . S
N399 C397 1.384 . S
C119 C3 1.533 . S
C123 C45 1.530 1_554 S
C137 C9 1.541 . S
C141 C23 1.535 . S
C155 C17 1.535 1_554 S
C159 C31 1.536 . S
C173 C51 1.540 . S
C177 C37 1.539 . S
C191 C59 1.533 . S
C195 C101 1.535 . S
C209 C79 1.539 . S
C213 C65 1.540 . S
C227 C87 1.535 . S
C231 C73 1.537 . S
C245 C107 1.535 . S
C249 C93 1.542 . S
C263 C91 1.465 . S
C267 C8 1.489 . S
C281 C21 1.456 . S
C285 C106 1.491 . S
C299 C63 1.465 . S
C303 C36 1.491 . S
C317 C78 1.492 . S
C321 C49 1.457 . S
C335 C77 1.464 . S
C339 C50 1.488 . S
C353 C7 1.454 . S
C357 C92 1.491 . S
C371 C22 1.486 . S
C375 C105 1.459 . S
C389 C35 1.456 . S
C393 C64 1.486 . S
