# Generated by pormake.
# Topology wmy, (6)-cn, num edge types: 1
# Building blocks:
#     Node 0, Type 0, BuildingBlock: IZENUY_clean_sbu_0, # of connection points: 6
#     Node 1, Type 0, BuildingBlock: IZENUY_clean_sbu_0, # of connection points: 6
#     Node 2, Type 0, BuildingBlock: IZENUY_clean_sbu_0, # of connection points: 6
#     Node 3, Type 0, BuildingBlock: IZENUY_clean_sbu_0, # of connection points: 6
#     Node 4, Type 0, BuildingBlock: IZENUY_clean_sbu_0, # of connection points: 6
#     Node 5, Type 0, BuildingBlock: IZENUY_clean_sbu_0, # of connection points: 6
#     Node 6, Type 0, BuildingBlock: IZENUY_clean_sbu_0, # of connection points: 6
#     Node 7, Type 0, BuildingBlock: IZENUY_clean_sbu_0, # of connection points: 6
#     Node 8, Type 0, BuildingBlock: IZENUY_clean_sbu_0, # of connection points: 6
#     Node 9, Type 0, BuildingBlock: IZENUY_clean_sbu_0, # of connection points: 6
#     Node 10, Type 0, BuildingBlock: IZENUY_clean_sbu_0, # of connection points: 6
#     Node 11, Type 0, BuildingBlock: IZENUY_clean_sbu_0, # of connection points: 6
#     Node 12, Type 0, BuildingBlock: IZENUY_clean_sbu_0, # of connection points: 6
#     Node 13, Type 0, BuildingBlock: IZENUY_clean_sbu_0, # of connection points: 6
#     Node 14, Type 0, BuildingBlock: IZENUY_clean_sbu_0, # of connection points: 6
#     Node 15, Type 0, BuildingBlock: IZENUY_clean_sbu_0, # of connection points: 6
#     Node 16, Type 0, BuildingBlock: IZENUY_clean_sbu_0, # of connection points: 6
#     Node 17, Type 0, BuildingBlock: IZENUY_clean_sbu_0, # of connection points: 6
#     Node 18, Type 0, BuildingBlock: IZENUY_clean_sbu_0, # of connection points: 6
#     Node 19, Type 0, BuildingBlock: IZENUY_clean_sbu_0, # of connection points: 6
#     Node 20, Type 0, BuildingBlock: IZENUY_clean_sbu_0, # of connection points: 6
#     Node 21, Type 0, BuildingBlock: IZENUY_clean_sbu_0, # of connection points: 6
#     Node 22, Type 0, BuildingBlock: IZENUY_clean_sbu_0, # of connection points: 6
#     Node 23, Type 0, BuildingBlock: IZENUY_clean_sbu_0, # of connection points: 6
#     Node 24, Type 0, BuildingBlock: IZENUY_clean_sbu_0, # of connection points: 6
#     Node 25, Type 0, BuildingBlock: IZENUY_clean_sbu_0, # of connection points: 6
#     Node 26, Type 0, BuildingBlock: IZENUY_clean_sbu_0, # of connection points: 6
#     Node 27, Type 0, BuildingBlock: IZENUY_clean_sbu_0, # of connection points: 6
#     Node 28, Type 0, BuildingBlock: IZENUY_clean_sbu_0, # of connection points: 6
#     Node 29, Type 0, BuildingBlock: IZENUY_clean_sbu_0, # of connection points: 6
#     Node 30, Type 0, BuildingBlock: IZENUY_clean_sbu_0, # of connection points: 6
#     Node 31, Type 0, BuildingBlock: IZENUY_clean_sbu_0, # of connection points: 6
#     Node 32, Type 0, BuildingBlock: IZENUY_clean_sbu_0, # of connection points: 6
#     Node 33, Type 0, BuildingBlock: IZENUY_clean_sbu_0, # of connection points: 6
#     Node 34, Type 0, BuildingBlock: IZENUY_clean_sbu_0, # of connection points: 6
#     Node 35, Type 0, BuildingBlock: IZENUY_clean_sbu_0, # of connection points: 6
#     Edge 36, Type (0, 0), BuildingBlock: XIVTED_clean_linker_0, # of connection points: 2
#     Edge 37, Type (0, 0), BuildingBlock: XIVTED_clean_linker_0, # of connection points: 2
#     Edge 38, Type (0, 0), BuildingBlock: XIVTED_clean_linker_0, # of connection points: 2
#     Edge 39, Type (0, 0), BuildingBlock: XIVTED_clean_linker_0, # of connection points: 2
#     Edge 40, Type (0, 0), BuildingBlock: XIVTED_clean_linker_0, # of connection points: 2
#     Edge 41, Type (0, 0), BuildingBlock: XIVTED_clean_linker_0, # of connection points: 2
#     Edge 42, Type (0, 0), BuildingBlock: XIVTED_clean_linker_0, # of connection points: 2
#     Edge 43, Type (0, 0), BuildingBlock: XIVTED_clean_linker_0, # of connection points: 2
#     Edge 44, Type (0, 0), BuildingBlock: XIVTED_clean_linker_0, # of connection points: 2
#     Edge 45, Type (0, 0), BuildingBlock: XIVTED_clean_linker_0, # of connection points: 2
#     Edge 46, Type (0, 0), BuildingBlock: XIVTED_clean_linker_0, # of connection points: 2
#     Edge 47, Type (0, 0), BuildingBlock: XIVTED_clean_linker_0, # of connection points: 2
#     Edge 48, Type (0, 0), BuildingBlock: XIVTED_clean_linker_0, # of connection points: 2
#     Edge 49, Type (0, 0), BuildingBlock: XIVTED_clean_linker_0, # of connection points: 2
#     Edge 50, Type (0, 0), BuildingBlock: XIVTED_clean_linker_0, # of connection points: 2
#     Edge 51, Type (0, 0), BuildingBlock: XIVTED_clean_linker_0, # of connection points: 2
#     Edge 52, Type (0, 0), BuildingBlock: XIVTED_clean_linker_0, # of connection points: 2
#     Edge 53, Type (0, 0), BuildingBlock: XIVTED_clean_linker_0, # of connection points: 2
#     Edge 54, Type (0, 0), BuildingBlock: XIVTED_clean_linker_0, # of connection points: 2
#     Edge 55, Type (0, 0), BuildingBlock: XIVTED_clean_linker_0, # of connection points: 2
#     Edge 56, Type (0, 0), BuildingBlock: XIVTED_clean_linker_0, # of connection points: 2
#     Edge 57, Type (0, 0), BuildingBlock: XIVTED_clean_linker_0, # of connection points: 2
#     Edge 58, Type (0, 0), BuildingBlock: XIVTED_clean_linker_0, # of connection points: 2
#     Edge 59, Type (0, 0), BuildingBlock: XIVTED_clean_linker_0, # of connection points: 2
#     Edge 60, Type (0, 0), BuildingBlock: XIVTED_clean_linker_0, # of connection points: 2
#     Edge 61, Type (0, 0), BuildingBlock: XIVTED_clean_linker_0, # of connection points: 2
#     Edge 62, Type (0, 0), BuildingBlock: XIVTED_clean_linker_0, # of connection points: 2
#     Edge 63, Type (0, 0), BuildingBlock: XIVTED_clean_linker_0, # of connection points: 2
#     Edge 64, Type (0, 0), BuildingBlock: XIVTED_clean_linker_0, # of connection points: 2
#     Edge 65, Type (0, 0), BuildingBlock: XIVTED_clean_linker_0, # of connection points: 2
#     Edge 66, Type (0, 0), BuildingBlock: XIVTED_clean_linker_0, # of connection points: 2
#     Edge 67, Type (0, 0), BuildingBlock: XIVTED_clean_linker_0, # of connection points: 2
#     Edge 68, Type (0, 0), BuildingBlock: XIVTED_clean_linker_0, # of connection points: 2
#     Edge 69, Type (0, 0), BuildingBlock: XIVTED_clean_linker_0, # of connection points: 2
#     Edge 70, Type (0, 0), BuildingBlock: XIVTED_clean_linker_0, # of connection points: 2
#     Edge 71, Type (0, 0), BuildingBlock: XIVTED_clean_linker_0, # of connection points: 2
#     Edge 72, Type (0, 0), BuildingBlock: XIVTED_clean_linker_0, # of connection points: 2
#     Edge 73, Type (0, 0), BuildingBlock: XIVTED_clean_linker_0, # of connection points: 2
#     Edge 74, Type (0, 0), BuildingBlock: XIVTED_clean_linker_0, # of connection points: 2
#     Edge 75, Type (0, 0), BuildingBlock: XIVTED_clean_linker_0, # of connection points: 2
#     Edge 76, Type (0, 0), BuildingBlock: XIVTED_clean_linker_0, # of connection points: 2
#     Edge 77, Type (0, 0), BuildingBlock: XIVTED_clean_linker_0, # of connection points: 2
#     Edge 78, Type (0, 0), BuildingBlock: XIVTED_clean_linker_0, # of connection points: 2
#     Edge 79, Type (0, 0), BuildingBlock: XIVTED_clean_linker_0, # of connection points: 2
#     Edge 80, Type (0, 0), BuildingBlock: XIVTED_clean_linker_0, # of connection points: 2
#     Edge 81, Type (0, 0), BuildingBlock: XIVTED_clean_linker_0, # of connection points: 2
#     Edge 82, Type (0, 0), BuildingBlock: XIVTED_clean_linker_0, # of connection points: 2
#     Edge 83, Type (0, 0), BuildingBlock: XIVTED_clean_linker_0, # of connection points: 2
#     Edge 84, Type (0, 0), BuildingBlock: XIVTED_clean_linker_0, # of connection points: 2
#     Edge 85, Type (0, 0), BuildingBlock: XIVTED_clean_linker_0, # of connection points: 2
#     Edge 86, Type (0, 0), BuildingBlock: XIVTED_clean_linker_0, # of connection points: 2
#     Edge 87, Type (0, 0), BuildingBlock: XIVTED_clean_linker_0, # of connection points: 2
#     Edge 88, Type (0, 0), BuildingBlock: XIVTED_clean_linker_0, # of connection points: 2
#     Edge 89, Type (0, 0), BuildingBlock: XIVTED_clean_linker_0, # of connection points: 2
#     Edge 90, Type (0, 0), BuildingBlock: XIVTED_clean_linker_0, # of connection points: 2
#     Edge 91, Type (0, 0), BuildingBlock: XIVTED_clean_linker_0, # of connection points: 2
#     Edge 92, Type (0, 0), BuildingBlock: XIVTED_clean_linker_0, # of connection points: 2
#     Edge 93, Type (0, 0), BuildingBlock: XIVTED_clean_linker_0, # of connection points: 2
#     Edge 94, Type (0, 0), BuildingBlock: XIVTED_clean_linker_0, # of connection points: 2
#     Edge 95, Type (0, 0), BuildingBlock: XIVTED_clean_linker_0, # of connection points: 2
#     Edge 96, Type (0, 0), BuildingBlock: XIVTED_clean_linker_0, # of connection points: 2
#     Edge 97, Type (0, 0), BuildingBlock: XIVTED_clean_linker_0, # of connection points: 2
#     Edge 98, Type (0, 0), BuildingBlock: XIVTED_clean_linker_0, # of connection points: 2
#     Edge 99, Type (0, 0), BuildingBlock: XIVTED_clean_linker_0, # of connection points: 2
#     Edge 100, Type (0, 0), BuildingBlock: XIVTED_clean_linker_0, # of connection points: 2
#     Edge 101, Type (0, 0), BuildingBlock: XIVTED_clean_linker_0, # of connection points: 2
#     Edge 102, Type (0, 0), BuildingBlock: XIVTED_clean_linker_0, # of connection points: 2
#     Edge 103, Type (0, 0), BuildingBlock: XIVTED_clean_linker_0, # of connection points: 2
#     Edge 104, Type (0, 0), BuildingBlock: XIVTED_clean_linker_0, # of connection points: 2
#     Edge 105, Type (0, 0), BuildingBlock: XIVTED_clean_linker_0, # of connection points: 2
#     Edge 106, Type (0, 0), BuildingBlock: XIVTED_clean_linker_0, # of connection points: 2
#     Edge 107, Type (0, 0), BuildingBlock: XIVTED_clean_linker_0, # of connection points: 2
#     Edge 108, Type (0, 0), BuildingBlock: XIVTED_clean_linker_0, # of connection points: 2
#     Edge 109, Type (0, 0), BuildingBlock: XIVTED_clean_linker_0, # of connection points: 2
#     Edge 110, Type (0, 0), BuildingBlock: XIVTED_clean_linker_0, # of connection points: 2
#     Edge 111, Type (0, 0), BuildingBlock: XIVTED_clean_linker_0, # of connection points: 2
#     Edge 112, Type (0, 0), BuildingBlock: XIVTED_clean_linker_0, # of connection points: 2
#     Edge 113, Type (0, 0), BuildingBlock: XIVTED_clean_linker_0, # of connection points: 2
#     Edge 114, Type (0, 0), BuildingBlock: XIVTED_clean_linker_0, # of connection points: 2
#     Edge 115, Type (0, 0), BuildingBlock: XIVTED_clean_linker_0, # of connection points: 2
#     Edge 116, Type (0, 0), BuildingBlock: XIVTED_clean_linker_0, # of connection points: 2
#     Edge 117, Type (0, 0), BuildingBlock: XIVTED_clean_linker_0, # of connection points: 2
#     Edge 118, Type (0, 0), BuildingBlock: XIVTED_clean_linker_0, # of connection points: 2
#     Edge 119, Type (0, 0), BuildingBlock: XIVTED_clean_linker_0, # of connection points: 2
#     Edge 120, Type (0, 0), BuildingBlock: XIVTED_clean_linker_0, # of connection points: 2
#     Edge 121, Type (0, 0), BuildingBlock: XIVTED_clean_linker_0, # of connection points: 2
#     Edge 122, Type (0, 0), BuildingBlock: XIVTED_clean_linker_0, # of connection points: 2
#     Edge 123, Type (0, 0), BuildingBlock: XIVTED_clean_linker_0, # of connection points: 2
#     Edge 124, Type (0, 0), BuildingBlock: XIVTED_clean_linker_0, # of connection points: 2
#     Edge 125, Type (0, 0), BuildingBlock: XIVTED_clean_linker_0, # of connection points: 2
#     Edge 126, Type (0, 0), BuildingBlock: XIVTED_clean_linker_0, # of connection points: 2
#     Edge 127, Type (0, 0), BuildingBlock: XIVTED_clean_linker_0, # of connection points: 2
#     Edge 128, Type (0, 0), BuildingBlock: XIVTED_clean_linker_0, # of connection points: 2
#     Edge 129, Type (0, 0), BuildingBlock: XIVTED_clean_linker_0, # of connection points: 2
#     Edge 130, Type (0, 0), BuildingBlock: XIVTED_clean_linker_0, # of connection points: 2
#     Edge 131, Type (0, 0), BuildingBlock: XIVTED_clean_linker_0, # of connection points: 2
#     Edge 132, Type (0, 0), BuildingBlock: XIVTED_clean_linker_0, # of connection points: 2
#     Edge 133, Type (0, 0), BuildingBlock: XIVTED_clean_linker_0, # of connection points: 2
#     Edge 134, Type (0, 0), BuildingBlock: XIVTED_clean_linker_0, # of connection points: 2
#     Edge 135, Type (0, 0), BuildingBlock: XIVTED_clean_linker_0, # of connection points: 2
#     Edge 136, Type (0, 0), BuildingBlock: XIVTED_clean_linker_0, # of connection points: 2
#     Edge 137, Type (0, 0), BuildingBlock: XIVTED_clean_linker_0, # of connection points: 2
#     Edge 138, Type (0, 0), BuildingBlock: XIVTED_clean_linker_0, # of connection points: 2
#     Edge 139, Type (0, 0), BuildingBlock: XIVTED_clean_linker_0, # of connection points: 2
#     Edge 140, Type (0, 0), BuildingBlock: XIVTED_clean_linker_0, # of connection points: 2
#     Edge 141, Type (0, 0), BuildingBlock: XIVTED_clean_linker_0, # of connection points: 2
#     Edge 142, Type (0, 0), BuildingBlock: XIVTED_clean_linker_0, # of connection points: 2
#     Edge 143, Type (0, 0), BuildingBlock: XIVTED_clean_linker_0, # of connection points: 2
# Relax obj value: 0.470
# Max RMSD: 0.183
# Mean RMSD: 0.183
data_MOF--net-wmy--node1-IZENUY_clean_sbu_0--edge1-XIVTED_clean_linker_0
_symmetry_space_group_name_H-M    P1
_symmetry_Int_Tables_number       1
_symmetry_cell_setting            triclinic
loop_
_symmetry_equiv_pos_as_xyz
'x, y, z'
_cell_length_a     53.445268
_cell_length_b     53.452008
_cell_length_c     55.589938
_cell_angle_alpha  89.994896
_cell_angle_beta   90.020863
_cell_angle_gamma 120.01807
loop_
_atom_site_label
_atom_site_type_symbol
_atom_site_fract_x
_atom_site_fract_y
_atom_site_fract_z
_atom_type_partial_charge
Fe0 Fe 0.02025 0.14791 0.0867 0.0
Fe1 Fe 0.98514 0.17108 0.11178 0.0
O2 O 0.01884 0.17332 0.10593 0.0
Fe3 Fe 0.0511 0.20079 0.11932 0.0
O4 O 0.06851 0.17855 0.12162 0.0
O5 O 0.03414 0.13538 0.11063 0.0
O6 O 0.98438 0.11841 0.09449 0.0
C7 C 0.97002 0.11415 0.11358 0.0
C8 C 0.07094 0.19976 0.07445 0.0
O9 O 0.97003 0.13487 0.12444 0.0
C10 C 0.02057 0.22935 0.10675 0.0
O11 O 0.00636 0.15914 0.06175 0.0
O12 O 0.96989 0.15691 0.08183 0.0
O13 O 0.06779 0.21507 0.09009 0.0
O14 O 0.05651 0.17253 0.07543 0.0
C15 C 0.01321 0.18517 0.15696 0.0
O16 O 0.99823 0.20697 0.09948 0.0
O17 O 0.03933 0.22769 0.1195 0.0
C18 C 0.98238 0.15837 0.06206 0.0
O19 O 0.99445 0.18474 0.14273 0.0
O20 O 0.03678 0.18831 0.14916 0.0
C21 C 0.05741 0.15131 0.12168 0.0
Fe22 Fe 0.85559 0.86573 0.08351 0.0
Fe23 Fe 0.82448 0.80709 0.10883 0.0
O24 O 0.8275 0.84098 0.10226 0.0
Fe25 Fe 0.80263 0.85027 0.1145 0.0
O26 O 0.82882 0.88934 0.11678 0.0
O27 O 0.87014 0.89242 0.10725 0.0
O28 O 0.8816 0.85472 0.09275 0.0
C29 C 0.88283 0.843 0.1121 0.0
C30 C 0.80809 0.87179 0.06923 0.0
O31 O 0.86018 0.82442 0.12254 0.0
C32 C 0.76777 0.79109 0.10244 0.0
O33 O 0.84247 0.84041 0.05873 0.0
O34 O 0.83855 0.80359 0.07945 0.0
O35 O 0.79086 0.85448 0.08471 0.0
O36 O 0.83498 0.88155 0.07093 0.0
C37 C 0.81231 0.8246 0.15317 0.0
O38 O 0.78847 0.78777 0.09569 0.0
O39 O 0.77222 0.81303 0.11455 0.0
C40 C 0.83963 0.81554 0.05946 0.0
O41 O 0.81019 0.80476 0.13934 0.0
O42 O 0.81284 0.84681 0.14484 0.0
C43 C 0.85622 0.9028 0.11735 0.0
Fe44 Fe 0.1436 0.94781 0.11681 0.0
Fe45 Fe 0.1273 0.98479 0.08612 0.0
O46 O 0.15251 0.98203 0.10473 0.0
Fe47 Fe 0.1864 0.01341 0.11089 0.0
O48 O 0.17975 0.00925 0.14271 0.0
O49 O 0.16358 0.96254 0.14522 0.0
O50 O 0.11173 0.94365 0.13217 0.0
C51 C 0.09151 0.94459 0.12134 0.0
C52 C 0.20003 0.96936 0.10291 0.0
O53 O 0.09527 0.95537 0.10052 0.0
C54 C 0.18024 0.02285 0.06367 0.0
O55 O 0.12215 0.92709 0.09042 0.0
O56 O 0.12911 0.96084 0.06422 0.0
O57 O 0.20691 0.99397 0.11148 0.0
O58 O 0.17416 0.94928 0.10205 0.0
C59 C 0.14539 0.03194 0.11493 0.0
O60 O 0.15411 0.01482 0.06796 0.0
O61 O 0.19582 0.02026 0.07927 0.0
C62 C 0.12307 0.93534 0.06885 0.0
O63 O 0.12451 0.00863 0.10731 0.0
O64 O 0.17137 0.03805 0.11152 0.0
C65 C 0.17298 0.98707 0.15506 0.0
Fe66 Fe 0.14706 0.01847 0.40658 0.0
Fe67 Fe 0.17764 0.99224 0.37835 0.0
O68 O 0.17346 0.02241 0.3855 0.0
Fe69 Fe 0.1953 0.05671 0.37184 0.0
O70 O 0.16427 0.05735 0.35916 0.0
O71 O 0.1406 0.046 0.39327 0.0
O72 O 0.11879 0.99287 0.3874 0.0
C73 C 0.11695 0.97008 0.37909 0.0
C74 C 0.19163 0.07009 0.42074 0.0
O75 O 0.13827 0.96569 0.38 0.0
C76 C 0.23526 0.03999 0.38128 0.0
O77 O 0.14765 0.98989 0.42405 0.0
O78 O 0.18375 0.98638 0.40941 0.0
O79 O 0.19589 0.07752 0.39872 0.0
O80 O 0.17455 0.0442 0.42658 0.0
C81 C 0.18493 0.01712 0.33375 0.0
O82 O 0.21749 0.01398 0.37546 0.0
O83 O 0.22748 0.05857 0.38339 0.0
C84 C 0.16686 0.98299 0.42639 0.0
O85 O 0.17187 0.99509 0.3468 0.0
O86 O 0.19892 0.04216 0.34285 0.0
C87 C 0.14375 0.05504 0.37189 0.0
Fe88 Fe 0.97509 0.12981 0.40868 0.0
Fe89 Fe 0.00642 0.18595 0.38013 0.0
O90 O 0.97417 0.1534 0.38707 0.0
Fe91 Fe 0.94132 0.14447 0.37235 0.0
O92 O 0.9272 0.10502 0.37226 0.0
O93 O 0.9634 0.10115 0.38678 0.0
O94 O 0.01205 0.13879 0.4017 0.0
C95 C 0.02541 0.14714 0.38193 0.0
C96 C 0.9218 0.12692 0.41801 0.0
O97 O 0.02376 0.166 0.36945 0.0
C98 C 0.96698 0.20417 0.38242 0.0
O99 O 0.98703 0.15728 0.4319 0.0
O100 O 0.0223 0.19061 0.41033 0.0
O101 O 0.92327 0.14267 0.4006 0.0
O102 O 0.93821 0.11631 0.4193 0.0
C103 C 0.97931 0.16713 0.33493 0.0
O104 O 0.99048 0.20717 0.39037 0.0
O105 O 0.94992 0.18224 0.37001 0.0
C106 C 0.01049 0.18096 0.43059 0.0
O107 O 0.99657 0.18726 0.34872 0.0
O108 O 0.95689 0.1456 0.34315 0.0
C109 C 0.94043 0.09099 0.37467 0.0
Fe110 Fe 0.81372 0.82275 0.37551 0.0
Fe111 Fe 0.85206 0.79508 0.37007 0.0
O112 O 0.84566 0.82193 0.38263 0.0
Fe113 Fe 0.87114 0.84796 0.40237 0.0
O114 O 0.8642 0.87672 0.39313 0.0
O115 O 0.83417 0.85888 0.36258 0.0
O116 O 0.81069 0.8085 0.34494 0.0
C117 C 0.82985 0.80886 0.33129 0.0
C118 C 0.82158 0.83694 0.42506 0.0
O119 O 0.85075 0.80703 0.33982 0.0
C120 C 0.87098 0.7969 0.41588 0.0
O121 O 0.79161 0.78693 0.38824 0.0
O122 O 0.81358 0.76717 0.36929 0.0
O123 O 0.84488 0.83647 0.42653 0.0
O124 O 0.8111 0.83731 0.40472 0.0
C125 C 0.90743 0.84571 0.36918 0.0
O126 O 0.85388 0.78128 0.3996 0.0
O127 O 0.88303 0.8241 0.415 0.0
C128 C 0.79274 0.76486 0.38187 0.0
O129 O 0.89183 0.81839 0.36878 0.0
O130 O 0.89877 0.861 0.37944 0.0
C131 C 0.85398 0.88019 0.37372 0.0
Fe132 Fe 0.97906 0.85263 0.90134 0.0
Fe133 Fe 0.01103 0.82683 0.87464 0.0
O134 O 0.9786 0.82705 0.88115 0.0
Fe135 Fe 0.94565 0.80159 0.86747 0.0
O136 O 0.93012 0.82551 0.86667 0.0
O137 O 0.96602 0.86735 0.87838 0.0
O138 O 0.0155 0.88098 0.89339 0.0
C139 C 0.02984 0.8848 0.87432 0.0
C140 C 0.92714 0.80173 0.91304 0.0
O141 O 0.0283 0.86365 0.86287 0.0
C142 C 0.97198 0.76907 0.87906 0.0
O143 O 0.99211 0.83943 0.9255 0.0
O144 O 0.02706 0.83962 0.90458 0.0
O145 O 0.92883 0.78656 0.89644 0.0
O146 O 0.94259 0.82894 0.91282 0.0
C147 C 0.98291 0.81623 0.82964 0.0
O148 O 0.9956 0.79011 0.88623 0.0
O149 O 0.95524 0.77327 0.86574 0.0
C150 C 0.0154 0.83886 0.92462 0.0
O151 O 0.00074 0.81426 0.84346 0.0
O152 O 0.96038 0.81508 0.83793 0.0
C153 C 0.94237 0.8528 0.86745 0.0
Fe154 Fe 0.15024 0.13316 0.90901 0.0
Fe155 Fe 0.17584 0.19048 0.88208 0.0
O156 O 0.17584 0.15798 0.88864 0.0
Fe157 Fe 0.20113 0.15031 0.87479 0.0
O158 O 0.17641 0.11079 0.87332 0.0
O159 O 0.13507 0.10542 0.88614 0.0
O160 O 0.12223 0.14177 0.90123 0.0
C161 C 0.11811 0.15088 0.8815 0.0
C162 C 0.20047 0.13058 0.92019 0.0
O163 O 0.13914 0.17048 0.86993 0.0
C164 C 0.23363 0.2096 0.88671 0.0
O165 O 0.164 0.15964 0.93308 0.0
O166 O 0.16274 0.19366 0.91195 0.0
O167 O 0.21579 0.14746 0.90366 0.0
O168 O 0.17339 0.11973 0.92029 0.0
C169 C 0.18721 0.17393 0.837 0.0
O170 O 0.21233 0.21174 0.89387 0.0
O171 O 0.23007 0.1884 0.87392 0.0
C172 C 0.16413 0.18329 0.9321 0.0
O173 O 0.18889 0.19335 0.85106 0.0
O174 O 0.18824 0.15242 0.8451 0.0
C175 C 0.14905 0.09611 0.8746 0.0
Fe176 Fe 0.81003 0.98833 0.87684 0.0
Fe177 Fe 0.85459 0.05295 0.87066 0.0
O178 O 0.84454 0.01872 0.8831 0.0
Fe179 Fe 0.86906 0.01484 0.90169 0.0
O180 O 0.85718 0.97776 0.89233 0.0
O181 O 0.82625 0.96903 0.86297 0.0
O182 O 0.80767 0.00047 0.84636 0.0
C183 C 0.82776 0.01751 0.83237 0.0
C184 C 0.81905 0.98111 0.92611 0.0
O185 O 0.85052 0.03869 0.84056 0.0
C186 C 0.87641 0.06896 0.91578 0.0
O187 O 0.79192 0.00606 0.89027 0.0
O188 O 0.81776 0.047 0.87085 0.0
O189 O 0.84397 0.00306 0.92659 0.0
O190 O 0.80648 0.97061 0.90622 0.0
C191 C 0.90666 0.05096 0.86797 0.0
O192 O 0.85943 0.06937 0.90024 0.0
O193 O 0.88554 0.0513 0.91427 0.0
C194 C 0.79645 0.03073 0.88408 0.0
O195 O 0.89347 0.06513 0.86825 0.0
O196 O 0.89568 0.02651 0.87789 0.0
C197 C 0.84489 0.96479 0.87313 0.0
Fe198 Fe 0.80212 0.95009 0.61479 0.0
Fe199 Fe 0.85341 0.98802 0.58244 0.0
O200 O 0.82634 0.98457 0.60246 0.0
Fe201 Fe 0.82353 0.01542 0.60992 0.0
O202 O 0.82795 0.01088 0.64136 0.0
O203 O 0.79731 0.96425 0.64364 0.0
O204 O 0.83117 0.94698 0.62893 0.0
C205 C 0.8523 0.94898 0.61719 0.0
C206 C 0.76597 0.97073 0.60292 0.0
O207 O 0.85762 0.95927 0.59613 0.0
C208 C 0.83608 0.02526 0.56215 0.0
O209 O 0.80242 0.92965 0.58811 0.0
O210 O 0.82666 0.96349 0.5613 0.0
O211 O 0.78365 0.99513 0.61192 0.0
O212 O 0.77208 0.95092 0.60109 0.0
C213 C 0.88349 0.03523 0.61121 0.0
O214 O 0.85471 0.01759 0.56496 0.0
O215 O 0.819 0.02253 0.57879 0.0
C216 C 0.80849 0.93765 0.56638 0.0
O217 O 0.88114 0.01233 0.60271 0.0
O218 O 0.86306 0.04078 0.60929 0.0
C219 C 0.81298 0.98852 0.65365 0.0
Fe220 Fe 0.05343 0.85351 0.61287 0.0
Fe221 Fe 0.02151 0.87303 0.57922 0.0
O222 O 0.02063 0.84745 0.59969 0.0
Fe223 Fe 0.98731 0.81608 0.60686 0.0
O224 O 0.99196 0.8252 0.63833 0.0
O225 O 0.03688 0.83498 0.64136 0.0
O226 O 0.05974 0.88691 0.62696 0.0
C227 C 0.06137 0.90769 0.61494 0.0
C228 C 0.02688 0.79619 0.60096 0.0
O229 O 0.05234 0.90415 0.59348 0.0
C230 C 0.97976 0.81997 0.55875 0.0
O231 O 0.0762 0.87307 0.58674 0.0
O232 O 0.04456 0.86717 0.55895 0.0
O233 O 0.0033 0.7925 0.60964 0.0
O234 O 0.04889 0.82095 0.59924 0.0
C235 C 0.97425 0.86137 0.60646 0.0
O236 O 0.9909 0.84697 0.56115 0.0
O237 O 0.9798 0.8045 0.57577 0.0
C238 C 0.06934 0.87191 0.56476 0.0
O239 O 0.99862 0.88007 0.59849 0.0
O240 O 0.96594 0.83459 0.60528 0.0
C241 C 0.01328 0.82969 0.65102 0.0
Fe242 Fe 0.14258 0.20129 0.62093 0.0
Fe243 Fe 0.12325 0.14835 0.58893 0.0
O244 O 0.14952 0.17511 0.60775 0.0
Fe245 Fe 0.1826 0.17573 0.61311 0.0
O246 O 0.176 0.17214 0.645 0.0
O247 O 0.16316 0.20511 0.64875 0.0
O248 O 0.11068 0.17409 0.63655 0.0
C249 C 0.08965 0.15377 0.62568 0.0
C250 C 0.19891 0.23434 0.60655 0.0
O251 O 0.09234 0.14692 0.60447 0.0
C252 C 0.17535 0.16191 0.56545 0.0
O253 O 0.12075 0.20219 0.59541 0.0
O254 O 0.12581 0.17539 0.56803 0.0
O255 O 0.20462 0.21561 0.61476 0.0
O256 O 0.17345 0.22981 0.60589 0.0
C257 C 0.13998 0.11616 0.61514 0.0
O258 O 0.14896 0.14462 0.56968 0.0
O259 O 0.19164 0.17909 0.58136 0.0
C260 C 0.12055 0.19513 0.57357 0.0
O261 O 0.11953 0.12011 0.60894 0.0
O262 O 0.16614 0.13593 0.61238 0.0
C263 C 0.17072 0.18819 0.65802 0.0
Fe264 Fe 0.66094 0.50827 0.44748 0.0
Fe265 Fe 0.72728 0.54089 0.45404 0.0
O266 O 0.69545 0.51317 0.44025 0.0
Fe267 Fe 0.69863 0.49042 0.41902 0.0
O268 O 0.67741 0.4591 0.43752 0.0
O269 O 0.64235 0.46833 0.44542 0.0
O270 O 0.66582 0.50391 0.47901 0.0
C271 C 0.68644 0.52138 0.49203 0.0
C272 C 0.65399 0.49756 0.39915 0.0
O273 O 0.70987 0.54057 0.48273 0.0
C274 C 0.74408 0.54164 0.40557 0.0
O275 O 0.67418 0.54741 0.4505 0.0
O276 O 0.72072 0.56812 0.44161 0.0
O277 O 0.66718 0.48362 0.40109 0.0
O278 O 0.65277 0.51201 0.41647 0.0
C279 C 0.73944 0.49745 0.4544 0.0
O280 O 0.75082 0.54673 0.42765 0.0
O281 O 0.71989 0.52081 0.39951 0.0
C282 C 0.69765 0.56895 0.44325 0.0
O283 O 0.73555 0.51467 0.46721 0.0
O284 O 0.73085 0.49256 0.43281 0.0
C285 C 0.6524 0.45118 0.44541 0.0
Fe286 Fe 0.52619 0.19686 0.4259 0.0
Fe287 Fe 0.49057 0.13977 0.45281 0.0
O288 O 0.49714 0.17479 0.44504 0.0
Fe289 Fe 0.47478 0.18757 0.45658 0.0
O290 O 0.5035 0.2258 0.458 0.0
O291 O 0.5429 0.22482 0.44856 0.0
O292 O 0.54945 0.18299 0.43662 0.0
C293 C 0.54919 0.1719 0.45679 0.0
C294 C 0.48196 0.2079 0.41061 0.0
O295 O 0.52575 0.15509 0.46725 0.0
C296 C 0.43604 0.12973 0.44395 0.0
O297 O 0.5111 0.17039 0.40201 0.0
O298 O 0.50436 0.13368 0.42431 0.0
O299 O 0.46406 0.19241 0.42654 0.0
O300 O 0.50827 0.21484 0.41203 0.0
C301 C 0.48084 0.16057 0.49614 0.0
O302 O 0.45502 0.12309 0.43882 0.0
O303 O 0.44228 0.15167 0.45686 0.0
C304 C 0.50624 0.14485 0.40382 0.0
O305 O 0.47578 0.13945 0.48268 0.0
O306 O 0.48423 0.1838 0.48724 0.0
C307 C 0.53083 0.23768 0.45771 0.0
Fe308 Fe 0.78945 0.31435 0.43283 0.0
Fe309 Fe 0.85023 0.34235 0.45436 0.0
O310 O 0.81547 0.31146 0.45021 0.0
Fe311 Fe 0.8067 0.27762 0.46306 0.0
O312 O 0.77649 0.27511 0.47999 0.0
O313 O 0.75827 0.28655 0.44932 0.0
O314 O 0.78944 0.34033 0.45357 0.0
C315 C 0.81157 0.36396 0.45896 0.0
C316 C 0.78245 0.2632 0.41655 0.0
O317 O 0.83675 0.36816 0.45473 0.0
C318 C 0.86166 0.29699 0.44623 0.0
O319 O 0.8155 0.34263 0.41285 0.0
O320 O 0.85738 0.34704 0.42231 0.0
O321 O 0.78291 0.25591 0.43817 0.0
O322 O 0.7884 0.28852 0.41132 0.0
C323 C 0.83912 0.31835 0.49933 0.0
O324 O 0.86969 0.32189 0.45471 0.0
O325 O 0.83558 0.27741 0.44668 0.0
C326 C 0.84105 0.34942 0.40733 0.0
O327 O 0.84556 0.34008 0.48643 0.0
O328 O 0.82909 0.29342 0.49014 0.0
C329 C 0.75579 0.27623 0.47022 0.0
Fe330 Fe 0.81762 0.35279 0.74927 0.0
Fe331 Fe 0.84267 0.31995 0.72313 0.0
O332 O 0.84304 0.35275 0.72918 0.0
Fe333 Fe 0.86861 0.38537 0.71512 0.0
O334 O 0.84448 0.4008 0.71355 0.0
O335 O 0.80274 0.36524 0.72603 0.0
O336 O 0.7892 0.31612 0.74193 0.0
C337 C 0.78499 0.30211 0.7226 0.0
C338 C 0.86845 0.40513 0.76022 0.0
O339 O 0.80594 0.30319 0.71123 0.0
C340 C 0.90061 0.35787 0.7267 0.0
O341 O 0.83116 0.34035 0.77362 0.0
O342 O 0.82987 0.30451 0.75326 0.0
O343 O 0.88357 0.40291 0.74388 0.0
O344 O 0.84126 0.38955 0.76015 0.0
C345 C 0.85405 0.34735 0.67778 0.0
O346 O 0.87931 0.33494 0.73458 0.0
O347 O 0.89702 0.37564 0.71415 0.0
C348 C 0.83161 0.31698 0.7731 0.0
O349 O 0.85531 0.32946 0.69197 0.0
O350 O 0.85539 0.37013 0.68565 0.0
C351 C 0.81714 0.38849 0.71452 0.0
Fe352 Fe 0.68191 0.52191 0.71538 0.0
Fe353 Fe 0.61645 0.4807 0.70908 0.0
O354 O 0.65003 0.48854 0.72172 0.0
Fe355 Fe 0.65168 0.46301 0.74068 0.0
O356 O 0.68815 0.47225 0.73165 0.0
O357 O 0.69962 0.50355 0.70214 0.0
O358 O 0.67067 0.52484 0.68465 0.0
C359 C 0.65276 0.50524 0.6707 0.0
C360 C 0.68759 0.51272 0.76484 0.0
O361 O 0.63055 0.48346 0.67898 0.0
C362 C 0.59912 0.45965 0.75441 0.0
O363 O 0.66611 0.54219 0.72835 0.0
O364 O 0.62503 0.51833 0.70879 0.0
O365 O 0.66484 0.48839 0.76541 0.0
O366 O 0.69884 0.52465 0.74494 0.0
C367 C 0.6142 0.42664 0.70703 0.0
O368 O 0.60009 0.47716 0.73868 0.0
O369 O 0.61543 0.44891 0.7531 0.0
C370 C 0.64193 0.53902 0.72224 0.0
O371 O 0.60178 0.44152 0.70707 0.0
O372 O 0.63843 0.436 0.71708 0.0
C373 C 0.702 0.48389 0.71261 0.0
Fe374 Fe 0.53768 0.18632 0.74674 0.0
Fe375 Fe 0.48018 0.15774 0.71956 0.0
O376 O 0.51358 0.1597 0.72664 0.0
Fe377 Fe 0.52315 0.13517 0.71385 0.0
O378 O 0.5556 0.16401 0.69982 0.0
O379 O 0.57035 0.18987 0.7329 0.0
O380 O 0.54167 0.21443 0.7267 0.0
C381 C 0.52132 0.21736 0.71851 0.0
C382 C 0.54184 0.14054 0.76232 0.0
O383 O 0.49517 0.19735 0.72054 0.0
C384 C 0.46616 0.09973 0.72579 0.0
O385 O 0.50994 0.18833 0.76448 0.0
O386 O 0.46878 0.15324 0.7508 0.0
O387 O 0.54368 0.1346 0.7405 0.0
O388 O 0.53475 0.15908 0.76758 0.0
C389 C 0.4961 0.14754 0.67537 0.0
O390 O 0.45981 0.11788 0.71728 0.0
O391 O 0.49194 0.10529 0.72735 0.0
C392 C 0.48347 0.1703 0.76738 0.0
O393 O 0.48889 0.16236 0.68806 0.0
O394 O 0.50425 0.13128 0.685 0.0
C395 C 0.57504 0.18473 0.7117 0.0
Fe396 Fe 0.64396 0.17571 0.25127 0.0
Fe397 Fe 0.67687 0.15265 0.2228 0.0
O398 O 0.64396 0.15151 0.22984 0.0
Fe399 Fe 0.61131 0.12652 0.21545 0.0
O400 O 0.5958 0.15065 0.21543 0.0
O401 O 0.63137 0.19165 0.22923 0.0
O402 O 0.68053 0.20463 0.24428 0.0
C403 C 0.69391 0.21003 0.2245 0.0
C404 C 0.59194 0.12424 0.26114 0.0
O405 O 0.69295 0.18982 0.21206 0.0
C406 C 0.63936 0.09455 0.22501 0.0
O407 O 0.65666 0.16099 0.27448 0.0
O408 O 0.6926 0.16428 0.25299 0.0
O409 O 0.59395 0.11007 0.24388 0.0
O410 O 0.60734 0.15141 0.26199 0.0
C411 C 0.64915 0.14327 0.17784 0.0
O412 O 0.66236 0.11566 0.23303 0.0
O413 O 0.62137 0.0984 0.21299 0.0
C414 C 0.68044 0.16146 0.27319 0.0
O415 O 0.66711 0.14132 0.19143 0.0
O416 O 0.62624 0.14114 0.18619 0.0
C417 C 0.60832 0.17794 0.21737 0.0
Fe418 Fe 0.80987 0.46014 0.24525 0.0
Fe419 Fe 0.84048 0.51672 0.21685 0.0
O420 O 0.83676 0.48276 0.22466 0.0
Fe421 Fe 0.85989 0.47122 0.21212 0.0
O422 O 0.82991 0.43918 0.19867 0.0
O423 O 0.80432 0.42646 0.23195 0.0
O424 O 0.78191 0.45709 0.22536 0.0
C425 C 0.78006 0.47791 0.21679 0.0
C426 C 0.85442 0.45376 0.26088 0.0
O427 O 0.80115 0.50365 0.21808 0.0
C428 C 0.8977 0.52801 0.22303 0.0
O429 O 0.80996 0.48934 0.26246 0.0
O430 O 0.84604 0.52912 0.24777 0.0
O431 O 0.85961 0.45081 0.2391 0.0
O432 O 0.83681 0.46211 0.26603 0.0
C433 C 0.8491 0.49871 0.17313 0.0
O434 O 0.88034 0.5353 0.21424 0.0
O435 O 0.8908 0.50188 0.22508 0.0
C436 C 0.82913 0.51555 0.26475 0.0
O437 O 0.83503 0.50704 0.18557 0.0
O438 O 0.8645 0.48969 0.183 0.0
C439 C 0.80883 0.42073 0.21086 0.0
Fe440 Fe 0.54193 0.35495 0.24138 0.0
Fe441 Fe 0.4825 0.32061 0.2176 0.0
O442 O 0.51466 0.35405 0.22299 0.0
Fe443 Fe 0.51982 0.38678 0.21031 0.0
O444 O 0.55235 0.39344 0.19438 0.0
O445 O 0.57185 0.38584 0.22625 0.0
O446 O 0.54714 0.33202 0.22069 0.0
C447 C 0.52758 0.30718 0.21434 0.0
C448 C 0.54154 0.40252 0.25779 0.0
O449 O 0.50103 0.29917 0.21741 0.0
C450 C 0.46331 0.36062 0.22513 0.0
O451 O 0.51766 0.32437 0.26021 0.0
O452 O 0.47402 0.31398 0.24954 0.0
O453 O 0.54096 0.40957 0.23606 0.0
O454 O 0.53773 0.3779 0.26291 0.0
C455 C 0.49285 0.34575 0.17282 0.0
O456 O 0.45874 0.33656 0.21686 0.0
O457 O 0.48825 0.38245 0.2256 0.0
C458 C 0.49122 0.31395 0.26502 0.0
O459 O 0.48851 0.32443 0.18552 0.0
O460 O 0.49955 0.36984 0.18244 0.0
C461 C 0.574 0.39535 0.20512 0.0
Fe462 Fe 0.49338 0.34465 0.94822 0.0
Fe463 Fe 0.46537 0.2788 0.95533 0.0
O464 O 0.49176 0.31137 0.94162 0.0
Fe465 Fe 0.51678 0.31086 0.92131 0.0
O466 O 0.5459 0.34694 0.92905 0.0
O467 O 0.53003 0.36008 0.96024 0.0
O468 O 0.4803 0.33484 0.97939 0.0
C469 C 0.48059 0.31623 0.99337 0.0
C470 C 0.50512 0.34866 0.89809 0.0
O471 O 0.47852 0.29329 0.98509 0.0
C472 C 0.46521 0.25943 0.90989 0.0
O473 O 0.45702 0.33086 0.9365 0.0
O474 O 0.43767 0.28959 0.9563 0.0
O475 O 0.50411 0.32457 0.89719 0.0
O476 O 0.50682 0.36062 0.91822 0.0
C477 C 0.51597 0.27413 0.95577 0.0
O478 O 0.45031 0.2618 0.92637 0.0
O479 O 0.49242 0.27455 0.90999 0.0
C480 C 0.4351 0.30789 0.94361 0.0
O481 O 0.48866 0.2624 0.95677 0.0
O482 O 0.53084 0.29728 0.94426 0.0
C483 C 0.55058 0.36053 0.94864 0.0
Fe484 Fe 0.65854 0.14895 0.95621 0.0
Fe485 Fe 0.7235 0.1912 0.96287 0.0
O486 O 0.68984 0.18268 0.94996 0.0
Fe487 Fe 0.68765 0.20785 0.93088 0.0
O488 O 0.65106 0.19817 0.94006 0.0
O489 O 0.63996 0.16644 0.96926 0.0
O490 O 0.66988 0.14655 0.9869 0.0
C491 C 0.68718 0.16649 0.00089 0.0
C492 C 0.6521 0.15785 0.90683 0.0
O493 O 0.70921 0.1886 0.99282 0.0
C494 C 0.74058 0.21163 0.91753 0.0
O495 O 0.67526 0.12941 0.9434 0.0
O496 O 0.7156 0.15377 0.96373 0.0
O497 O 0.6746 0.18239 0.90609 0.0
O498 O 0.64152 0.14572 0.92678 0.0
C499 C 0.72496 0.24493 0.9643 0.0
O500 O 0.73983 0.19444 0.93345 0.0
O501 O 0.72398 0.22211 0.91848 0.0
C502 C 0.69923 0.13271 0.95037 0.0
O503 O 0.73769 0.23035 0.96437 0.0
O504 O 0.70063 0.23512 0.95437 0.0
C505 C 0.63697 0.18575 0.95884 0.0
Fe506 Fe 0.85972 0.51375 0.95103 0.0
Fe507 Fe 0.81417 0.53247 0.95603 0.0
O508 O 0.82557 0.50949 0.94336 0.0
Fe509 Fe 0.80283 0.48202 0.92321 0.0
O510 O 0.81497 0.45683 0.9323 0.0
O511 O 0.84266 0.47755 0.96376 0.0
O512 O 0.86009 0.52678 0.98168 0.0
C513 C 0.839 0.52223 0.99498 0.0
C514 C 0.8546 0.50056 0.90124 0.0
O515 O 0.8166 0.52079 0.98608 0.0
C516 C 0.79516 0.52884 0.91 0.0
O517 O 0.87828 0.55023 0.93883 0.0
O518 O 0.85076 0.56379 0.95757 0.0
O519 O 0.82965 0.49739 0.89961 0.0
O520 O 0.86547 0.50122 0.92168 0.0
C521 C 0.76281 0.4777 0.95587 0.0
O522 O 0.81077 0.54546 0.92657 0.0
O523 O 0.78648 0.5021 0.91058 0.0
C524 C 0.87296 0.5698 0.94515 0.0
O525 O 0.77548 0.50505 0.95664 0.0
O526 O 0.7746 0.46515 0.94565 0.0
C527 C 0.82558 0.45516 0.95215 0.0
Fe528 Fe 0.34914 0.81383 0.75749 0.0
Fe529 Fe 0.31943 0.8411 0.78562 0.0
O530 O 0.35109 0.84003 0.77782 0.0
Fe531 Fe 0.38474 0.86539 0.79059 0.0
O532 O 0.40025 0.84149 0.7903 0.0
O533 O 0.364 0.79955 0.77937 0.0
O534 O 0.31338 0.78566 0.76756 0.0
C535 C 0.29993 0.78302 0.78702 0.0
C536 C 0.40076 0.86479 0.74425 0.0
O537 O 0.30242 0.80479 0.7981 0.0
C538 C 0.35828 0.89841 0.78056 0.0
O539 O 0.33417 0.82614 0.73403 0.0
O540 O 0.30126 0.82747 0.75665 0.0
O541 O 0.40025 0.88008 0.76132 0.0
O542 O 0.38472 0.83757 0.74427 0.0
C543 C 0.3494 0.85165 0.82942 0.0
O544 O 0.33469 0.87742 0.77336 0.0
O545 O 0.37563 0.89415 0.79305 0.0
C546 C 0.31127 0.82727 0.7361 0.0
O547 O 0.33175 0.85468 0.81626 0.0
O548 O 0.37118 0.85188 0.82047 0.0
C549 C 0.38841 0.81428 0.78913 0.0
Fe550 Fe 0.16127 0.48525 0.7833 0.0
Fe551 Fe 0.13046 0.5207 0.79041 0.0
O552 O 0.15817 0.51622 0.77709 0.0
Fe553 Fe 0.18276 0.54308 0.75737 0.0
O554 O 0.21253 0.5505 0.77686 0.0
O555 O 0.20125 0.50521 0.78251 0.0
O556 O 0.16445 0.49267 0.81521 0.0
C557 C 0.14704 0.49617 0.82803 0.0
C558 C 0.17459 0.49185 0.73531 0.0
O559 O 0.12869 0.50153 0.81849 0.0
C560 C 0.1331 0.54022 0.74264 0.0
O561 O 0.12176 0.46038 0.78508 0.0
O562 O 0.10331 0.48817 0.77615 0.0
O563 O 0.18919 0.51878 0.73866 0.0
O564 O 0.15868 0.47522 0.75169 0.0
C565 C 0.17553 0.57546 0.79389 0.0
O566 O 0.12687 0.5406 0.76462 0.0
O567 O 0.15393 0.53674 0.73688 0.0
C568 C 0.1013 0.46369 0.77718 0.0
O569 O 0.1565 0.55399 0.80534 0.0
O570 O 0.18148 0.573 0.77233 0.0
C571 C 0.21909 0.53216 0.78405 0.0
Fe572 Fe 0.47188 0.6561 0.75693 0.0
Fe573 Fe 0.5275 0.68255 0.7866 0.0
O574 O 0.49404 0.65213 0.77825 0.0
Fe575 Fe 0.48274 0.61795 0.79135 0.0
O576 O 0.44389 0.60586 0.79052 0.0
O577 O 0.44268 0.64434 0.77834 0.0
O578 O 0.48258 0.69319 0.76568 0.0
C579 C 0.49215 0.70574 0.78562 0.0
C580 C 0.46629 0.60221 0.74471 0.0
O581 O 0.50928 0.70123 0.79802 0.0
C582 C 0.54236 0.64069 0.78286 0.0
O583 O 0.4998 0.66803 0.73426 0.0
O584 O 0.5341 0.70062 0.75709 0.0
O585 O 0.48097 0.60146 0.7622 0.0
O586 O 0.45694 0.61973 0.74441 0.0
C587 C 0.50553 0.65321 0.83053 0.0
O588 O 0.54725 0.6652 0.77573 0.0
O589 O 0.51952 0.62408 0.79442 0.0
C590 C 0.52421 0.6904 0.73642 0.0
O591 O 0.52684 0.67024 0.8176 0.0
O592 O 0.48359 0.63209 0.82121 0.0
C593 C 0.431 0.62025 0.7889 0.0
Fe594 Fe 0.53093 0.71547 0.04966 0.0
Fe595 Fe 0.48086 0.68145 0.0841 0.0
O596 O 0.5052 0.68192 0.0625 0.0
Fe597 Fe 0.50366 0.6491 0.05402 0.0
O598 O 0.49846 0.65452 0.02282 0.0
O599 O 0.53168 0.70036 0.02004 0.0
O600 O 0.50296 0.7222 0.03776 0.0
C601 C 0.48516 0.72412 0.05143 0.0
C602 C 0.56344 0.68966 0.05815 0.0
O603 O 0.48021 0.71308 0.07221 0.0
C604 C 0.49265 0.63907 0.10208 0.0
O605 O 0.53515 0.73665 0.07721 0.0
O606 O 0.51026 0.70345 0.10434 0.0
O607 O 0.54324 0.66559 0.0505 0.0
O608 O 0.56007 0.71116 0.0609 0.0
C609 C 0.44518 0.63559 0.05583 0.0
O610 O 0.47645 0.64986 0.10048 0.0
O611 O 0.50846 0.64052 0.08475 0.0
C612 C 0.53007 0.7286 0.09904 0.0
O613 O 0.45073 0.65958 0.06465 0.0
O614 O 0.46381 0.62741 0.05609 0.0
C615 C 0.51409 0.67649 0.01028 0.0
Fe616 Fe 0.34532 0.85373 0.05115 0.0
Fe617 Fe 0.28084 0.80944 0.04487 0.0
O618 O 0.31459 0.82017 0.05856 0.0
Fe619 Fe 0.31778 0.79728 0.07956 0.0
O620 O 0.35528 0.80852 0.07191 0.0
O621 O 0.36459 0.83591 0.0399 0.0
O622 O 0.33397 0.85409 0.02002 0.0
C623 C 0.31724 0.83313 0.00669 0.0
C624 C 0.35105 0.8491 0.10135 0.0
O625 O 0.29586 0.81096 0.01534 0.0
C626 C 0.26347 0.79122 0.09076 0.0
O627 O 0.32782 0.87326 0.06196 0.0
O628 O 0.28713 0.84643 0.04239 0.0
O629 O 0.32882 0.82444 0.10288 0.0
O630 O 0.36217 0.85943 0.08102 0.0
C631 C 0.28297 0.75756 0.04637 0.0
O632 O 0.26354 0.8069 0.07376 0.0
O633 O 0.28092 0.78178 0.09103 0.0
C634 C 0.30381 0.86903 0.05421 0.0
O635 O 0.26869 0.7706 0.04493 0.0
O636 O 0.30681 0.76887 0.05738 0.0
C637 C 0.36921 0.81908 0.05264 0.0
Fe638 Fe 0.14178 0.4886 0.05238 0.0
Fe639 Fe 0.18002 0.46096 0.04544 0.0
O640 O 0.17308 0.48658 0.0596 0.0
Fe641 Fe 0.19759 0.51062 0.08097 0.0
O642 O 0.19064 0.53989 0.07393 0.0
O643 O 0.16363 0.52566 0.04157 0.0
O644 O 0.13989 0.47697 0.0209 0.0
C645 C 0.15939 0.47788 0.00733 0.0
C646 C 0.1472 0.49761 0.10291 0.0
O647 O 0.17988 0.4754 0.01596 0.0
C648 C 0.19744 0.45887 0.09121 0.0
O649 O 0.11866 0.45183 0.06268 0.0
O650 O 0.14159 0.43329 0.04318 0.0
O651 O 0.17016 0.49644 0.10414 0.0
O652 O 0.13793 0.5006 0.08269 0.0
C653 C 0.23501 0.51177 0.04716 0.0
O654 O 0.18088 0.44465 0.0741 0.0
O655 O 0.20943 0.48603 0.09188 0.0
C656 C 0.11996 0.43027 0.05503 0.0
O657 O 0.21973 0.48451 0.04529 0.0
O658 O 0.22611 0.52595 0.05889 0.0
C659 C 0.18314 0.54557 0.05408 0.0
Fe660 Fe 0.35052 0.49409 0.55041 0.0
Fe661 Fe 0.28593 0.47433 0.54564 0.0
O662 O 0.32031 0.49784 0.55814 0.0
Fe663 Fe 0.32468 0.52529 0.57812 0.0
O664 O 0.36162 0.55101 0.56848 0.0
O665 O 0.36923 0.53019 0.5374 0.0
O666 O 0.33756 0.48046 0.5197 0.0
C667 C 0.32056 0.48444 0.5064 0.0
C668 C 0.35909 0.50822 0.60014 0.0
O669 O 0.29984 0.48619 0.51544 0.0
C670 C 0.27056 0.47784 0.5918 0.0
O671 O 0.33314 0.45775 0.5629 0.0
O672 O 0.29189 0.44338 0.54405 0.0
O673 O 0.33695 0.51075 0.60173 0.0
O674 O 0.36914 0.50729 0.57968 0.0
C675 C 0.28799 0.52843 0.54595 0.0
O676 O 0.26973 0.46128 0.57522 0.0
O677 O 0.28848 0.50465 0.59117 0.0
C678 C 0.30867 0.43777 0.55609 0.0
O679 O 0.27385 0.50109 0.54514 0.0
O680 O 0.31251 0.54145 0.55578 0.0
C681 C 0.37389 0.55262 0.54862 0.0
Fe682 Fe 0.50355 0.85578 0.55361 0.0
Fe683 Fe 0.52902 0.81532 0.54767 0.0
O684 O 0.50327 0.82314 0.56054 0.0
Fe685 Fe 0.47705 0.79815 0.58055 0.0
O686 O 0.44818 0.79323 0.5607 0.0
O687 O 0.4639 0.83953 0.55536 0.0
O688 O 0.49874 0.84704 0.52205 0.0
C689 C 0.51446 0.84092 0.50938 0.0
C690 C 0.49199 0.85184 0.60154 0.0
O691 O 0.53124 0.83338 0.51891 0.0
C692 C 0.52472 0.79688 0.59606 0.0
O693 O 0.5431 0.87763 0.55055 0.0
O694 O 0.55852 0.84767 0.56038 0.0
O695 O 0.47426 0.82529 0.59853 0.0
O696 O 0.5084 0.86704 0.58483 0.0
C697 C 0.48108 0.76189 0.5456 0.0
O698 O 0.53131 0.7959 0.5743 0.0
O699 O 0.50469 0.80185 0.60134 0.0
C700 C 0.56277 0.87291 0.55795 0.0
O701 O 0.50134 0.78206 0.53397 0.0
O702 O 0.47468 0.76606 0.56652 0.0
C703 C 0.44415 0.81328 0.55349 0.0
Fe704 Fe 0.20061 0.69343 0.58258 0.0
Fe705 Fe 0.14618 0.656 0.55282 0.0
O706 O 0.17555 0.69044 0.56056 0.0
Fe707 Fe 0.18036 0.7223 0.5464 0.0
O708 O 0.21527 0.73043 0.53429 0.0
O709 O 0.2314 0.72544 0.56925 0.0
O710 O 0.21112 0.67217 0.56471 0.0
C711 C 0.19426 0.64733 0.55648 0.0
C712 C 0.19543 0.73934 0.59512 0.0
O713 O 0.16707 0.63714 0.55623 0.0
C714 C 0.12221 0.69277 0.55514 0.0
O715 O 0.17503 0.66207 0.60011 0.0
O716 O 0.13287 0.64802 0.58347 0.0
O717 O 0.19732 0.74586 0.57296 0.0
O718 O 0.19109 0.71488 0.60142 0.0
C719 C 0.1606 0.68146 0.50839 0.0
O720 O 0.12072 0.66944 0.54816 0.0
O721 O 0.14604 0.71582 0.55766 0.0
C722 C 0.14783 0.64923 0.60135 0.0
O723 O 0.15699 0.66087 0.52167 0.0
O724 O 0.16431 0.70484 0.51742 0.0
C725 C 0.23582 0.73381 0.54762 0.0
Fe726 Fe 0.15638 0.67786 0.2847 0.0
Fe727 Fe 0.13446 0.61304 0.29165 0.0
O728 O 0.15924 0.64675 0.27867 0.0
Fe729 Fe 0.18689 0.64937 0.25979 0.0
O730 O 0.21331 0.68628 0.26888 0.0
O731 O 0.1922 0.69657 0.29814 0.0
O732 O 0.14228 0.66652 0.31542 0.0
C733 C 0.14513 0.6495 0.32961 0.0
C734 C 0.17167 0.68397 0.23532 0.0
O735 O 0.14576 0.62772 0.32161 0.0
C736 C 0.13853 0.59583 0.24643 0.0
O737 O 0.12029 0.66081 0.27165 0.0
O738 O 0.10438 0.62031 0.29192 0.0
O739 O 0.17401 0.66166 0.23489 0.0
O740 O 0.17036 0.69495 0.25517 0.0
C741 C 0.1875 0.61286 0.29361 0.0
O742 O 0.12181 0.59631 0.26222 0.0
O743 O 0.16553 0.61283 0.24752 0.0
C744 C 0.09969 0.637 0.27892 0.0
O745 O 0.16012 0.59952 0.29374 0.0
O746 O 0.20145 0.63712 0.28347 0.0
C747 C 0.2147 0.69988 0.28791 0.0
Fe748 Fe 0.38062 0.51151 0.28809 0.0
Fe749 Fe 0.34578 0.52548 0.25236 0.0
O750 O 0.34727 0.50254 0.27432 0.0
Fe751 Fe 0.31505 0.47059 0.28274 0.0
O752 O 0.32656 0.47026 0.314 0.0
O753 O 0.36637 0.5122 0.31764 0.0
O754 O 0.3956 0.5509 0.28695 0.0
C755 C 0.38306 0.56551 0.28448 0.0
C756 C 0.35365 0.45138 0.27964 0.0
O757 O 0.35946 0.5554 0.27329 0.0
C758 C 0.30828 0.47364 0.23233 0.0
O759 O 0.39741 0.51186 0.25942 0.0
O760 O 0.3818 0.53747 0.24029 0.0
O761 O 0.32993 0.44844 0.27228 0.0
O762 O 0.37137 0.47362 0.29143 0.0
C763 C 0.29711 0.51031 0.28089 0.0
O764 O 0.33196 0.4969 0.23007 0.0
O765 O 0.29742 0.4649 0.25304 0.0
C766 C 0.39815 0.52678 0.24153 0.0
O767 O 0.30956 0.51777 0.26068 0.0
O768 O 0.29888 0.49163 0.29359 0.0
C769 C 0.34448 0.49108 0.32694 0.0
Fe770 Fe 0.47637 0.86299 0.29163 0.0
Fe771 Fe 0.45845 0.81087 0.25905 0.0
O772 O 0.48359 0.83668 0.27911 0.0
Fe773 Fe 0.51589 0.8364 0.28631 0.0
O774 O 0.50723 0.83251 0.31785 0.0
O775 O 0.49528 0.86625 0.32015 0.0
O776 O 0.44337 0.83578 0.30603 0.0
C777 C 0.42303 0.81551 0.29446 0.0
C778 C 0.53351 0.89519 0.27933 0.0
O779 O 0.42682 0.80936 0.27329 0.0
C780 C 0.51194 0.82385 0.23847 0.0
O781 O 0.45624 0.86472 0.26531 0.0
O782 O 0.46297 0.8388 0.23825 0.0
O783 O 0.53829 0.87619 0.28842 0.0
O784 O 0.50832 0.8913 0.27763 0.0
C785 C 0.47226 0.77716 0.28645 0.0
O786 O 0.4851 0.8072 0.2411 0.0
O787 O 0.52719 0.84017 0.2552 0.0
C788 C 0.45777 0.85864 0.24353 0.0
O789 O 0.45282 0.78188 0.2788 0.0
O790 O 0.49879 0.79649 0.28529 0.0
C791 C 0.50211 0.84918 0.33014 0.0
H792 H 0.07603 0.23027 0.0336 0.0
H793 H 0.1741 0.17306 0.97835 0.0
H794 H 0.11859 0.19484 0.07568 0.0
H795 H 0.14435 0.22151 0.93703 0.0
H796 H 0.1602 0.18781 0.01517 0.0
H797 H 0.10724 0.23525 0.99933 0.0
C798 C 0.09283 0.22475 0.03587 0.0
C799 C 0.09506 0.21237 0.05737 0.0
C800 C 0.15708 0.19561 0.9981 0.0
C801 C 0.12984 0.21678 0.01829 0.0
C802 C 0.16495 0.18709 0.97704 0.0
C803 C 0.15993 0.19564 0.95455 0.0
C804 C 0.14359 0.2124 0.99669 0.0
C805 C 0.14837 0.21417 0.95397 0.0
C806 C 0.11041 0.22725 0.01628 0.0
C807 C 0.11649 0.20471 0.05935 0.0
N808 N 0.14009 0.22149 0.9747 0.0
N809 N 0.13274 0.20659 0.03994 0.0
H810 H 0.77094 0.84705 0.03123 0.0
H811 H 0.83055 0.00238 0.97171 0.0
H812 H 0.82485 0.92826 0.06686 0.0
H813 H 0.78162 0.92289 0.93214 0.0
H814 H 0.81891 0.97481 0.00896 0.0
H815 H 0.76515 0.87338 0.99726 0.0
C816 C 0.78075 0.87033 0.03216 0.0
C817 C 0.79837 0.88566 0.05168 0.0
C818 C 0.81035 0.96331 0.99221 0.0
C819 C 0.79235 0.91578 0.01312 0.0
C820 C 0.81699 0.97909 0.97092 0.0
C821 C 0.80743 0.96487 0.94877 0.0
C822 C 0.79441 0.93297 0.99142 0.0
C823 C 0.78958 0.93468 0.94884 0.0
C824 C 0.77766 0.88536 0.01277 0.0
C825 C 0.81111 0.91578 0.05202 0.0
N826 N 0.78408 0.91964 0.96982 0.0
N827 N 0.80806 0.92985 0.03296 0.0
H828 H 0.14315 0.94279 0.02317 0.0
H829 H 0.99517 0.82857 0.97089 0.0
H830 H 0.07648 0.88064 0.06972 0.0
H831 H 0.0736 0.86078 0.92941 0.0
H832 H 0.02421 0.84524 0.00765 0.0
H833 H 0.11873 0.91161 0.98869 0.0
C834 C 0.12364 0.92223 0.02611 0.0
C835 C 0.11164 0.91422 0.04915 0.0
C836 C 0.035 0.84807 0.99054 0.0
C837 C 0.08324 0.8789 0.00989 0.0
C838 C 0.01847 0.8387 0.96956 0.0
C839 C 0.03203 0.84374 0.94705 0.0
C840 C 0.06527 0.86314 0.98888 0.0
C841 C 0.06225 0.85666 0.94637 0.0
C842 C 0.10975 0.90443 0.00649 0.0
C843 C 0.08638 0.88745 0.05216 0.0
N844 N 0.0779 0.8665 0.96694 0.0
N845 N 0.07257 0.87097 0.03261 0.0
H846 H 0.19337 0.12196 0.41866 0.0
H847 H 0.2206 0.15236 0.55971 0.0
H848 H 0.20895 0.06746 0.46624 0.0
H849 H 0.15666 0.16226 0.52026 0.0
H850 H 0.23368 0.13684 0.52233 0.0
H851 H 0.19764 0.15266 0.45313 0.0
C852 C 0.19863 0.11703 0.43621 0.0
C853 C 0.20062 0.09211 0.43977 0.0
C854 C 0.21732 0.14315 0.52185 0.0
C855 C 0.20574 0.12704 0.47889 0.0
C856 C 0.21 0.1521 0.54302 0.0
C857 C 0.18752 0.15842 0.54286 0.0
C858 C 0.20245 0.14123 0.50046 0.0
C859 C 0.17405 0.15741 0.52098 0.0
C860 C 0.20087 0.13439 0.45581 0.0
C861 C 0.20708 0.08642 0.46289 0.0
N862 N 0.18166 0.14886 0.5006 0.0
N863 N 0.20925 0.10368 0.48166 0.0
H864 H 0.82662 0.00257 0.51762 0.0
H865 H 0.91729 0.15389 0.45791 0.0
H866 H 0.84796 0.08085 0.55584 0.0
H867 H 0.87373 0.07457 0.41762 0.0
H868 H 0.8859 0.12923 0.49247 0.0
H869 H 0.83711 0.02885 0.47966 0.0
C870 C 0.83291 0.02525 0.51784 0.0
C871 C 0.83652 0.03971 0.53964 0.0
C872 C 0.88248 0.11745 0.47581 0.0
C873 C 0.84961 0.07028 0.49649 0.0
C874 C 0.90023 0.13159 0.45609 0.0
C875 C 0.89778 0.11611 0.43507 0.0
C876 C 0.86277 0.08759 0.47445 0.0
C877 C 0.876 0.08714 0.4336 0.0
C878 C 0.83892 0.0403 0.49622 0.0
C879 C 0.84487 0.06907 0.53922 0.0
N880 N 0.85964 0.07366 0.45319 0.0
N881 N 0.8518 0.08364 0.51794 0.0
H882 H 0.99898 0.83664 0.51348 0.0
H883 H 0.84607 0.76939 0.4579 0.0
H884 H 0.92507 0.77377 0.55349 0.0
H885 H 0.92262 0.79985 0.41456 0.0
H886 H 0.87266 0.76556 0.49249 0.0
H887 H 0.97089 0.81978 0.47642 0.0
C888 C 0.97688 0.81892 0.5143 0.0
C889 C 0.96416 0.80661 0.53638 0.0
C890 C 0.88333 0.77204 0.47519 0.0
C891 C 0.93159 0.78763 0.49427 0.0
C892 C 0.86809 0.774 0.45547 0.0
C893 C 0.88229 0.78475 0.43352 0.0
C894 C 0.91297 0.78161 0.47282 0.0
C895 C 0.91101 0.79128 0.43126 0.0
C896 C 0.96086 0.80918 0.49318 0.0
C897 C 0.93553 0.78369 0.53666 0.0
N898 N 0.9256 0.79014 0.4508 0.0
N899 N 0.91989 0.77532 0.51591 0.0
H900 H 0.82615 0.82448 0.01429 0.0
H901 H 0.92356 0.77024 0.95278 0.0
H902 H 0.86024 0.77813 0.05303 0.0
H903 H 0.87979 0.80721 0.91445 0.0
H904 H 0.89345 0.76397 0.9882 0.0
H905 H 0.83834 0.81006 0.97651 0.0
C906 C 0.83591 0.81094 0.0148 0.0
C907 C 0.84265 0.8029 0.03679 0.0
C908 C 0.88978 0.7726 0.97182 0.0
C909 C 0.85717 0.78663 0.99355 0.0
C910 C 0.90674 0.77589 0.95158 0.0
C911 C 0.90384 0.78906 0.93083 0.0
C912 C 0.87024 0.78302 0.97118 0.0
C913 C 0.88241 0.79678 0.93019 0.0
C914 C 0.84282 0.80262 0.99321 0.0
C915 C 0.85488 0.78497 0.03643 0.0
N916 N 0.86671 0.79404 0.95019 0.0
N917 N 0.86231 0.77791 0.01513 0.0
H918 H 0.23188 0.15546 0.96082 0.0
H919 H 0.16027 0.00301 0.01915 0.0
H920 H 0.19324 0.07711 0.91906 0.0
H921 H 0.22755 0.07649 0.05661 0.0
H922 H 0.17565 0.03007 0.98152 0.0
H923 H 0.23568 0.12854 0.99519 0.0
C924 C 0.22544 0.13288 0.95862 0.0
C925 C 0.21246 0.11838 0.9372 0.0
C926 C 0.18752 0.04022 0.99782 0.0
C927 C 0.21555 0.08738 0.97636 0.0
C928 C 0.17866 0.02477 0.01927 0.0
C929 C 0.19269 0.03766 0.04082 0.0
C930 C 0.20999 0.06916 0.99804 0.0
C931 C 0.21634 0.06588 0.0402 0.0
C932 C 0.22735 0.11747 0.97824 0.0
C933 C 0.20359 0.08898 0.93531 0.0
N934 N 0.22391 0.08102 0.01917 0.0
N935 N 0.20481 0.07432 0.95478 0.0
H936 H 0.93244 0.11019 0.91661 0.0
H937 H 0.92518 0.14169 0.05549 0.0
H938 H 0.85256 0.07904 0.95541 0.0
H939 H 0.00371 0.16539 0.01634 0.0
H940 H 0.89848 0.12823 0.01749 0.0
H941 H 0.95871 0.14065 0.95088 0.0
C942 C 0.92043 0.1105 0.93221 0.0
C943 C 0.89045 0.09232 0.93337 0.0
C944 C 0.92162 0.13676 0.01721 0.0
C945 C 0.92027 0.12609 0.97297 0.0
C946 C 0.9369 0.14448 0.03889 0.0
C947 C 0.96665 0.15412 0.03915 0.0
C948 C 0.93622 0.1388 0.99566 0.0
C949 C 0.98071 0.15753 0.01707 0.0
C950 C 0.93538 0.12768 0.95183 0.0
C951 C 0.87572 0.09305 0.95393 0.0
N952 N 0.96532 0.14958 0.99629 0.0
N953 N 0.89087 0.10932 0.97319 0.0
H954 H 0.78555 0.85932 0.42737 0.0
H955 H 0.80066 0.8832 0.56949 0.0
H956 H 0.8316 0.82985 0.47229 0.0
H957 H 0.79763 0.94338 0.51951 0.0
H958 H 0.79568 0.85152 0.53561 0.0
H959 H 0.77353 0.87776 0.46313 0.0
C960 C 0.79264 0.85618 0.44479 0.0
C961 C 0.81006 0.84349 0.44683 0.0
C962 C 0.79551 0.87139 0.53221 0.0
C963 C 0.79614 0.86433 0.48768 0.0
C964 C 0.79815 0.88934 0.55146 0.0
C965 C 0.79981 0.91599 0.54713 0.0
C966 C 0.79396 0.88001 0.50867 0.0
C967 C 0.79672 0.92311 0.52348 0.0
C968 C 0.78583 0.8668 0.46514 0.0
C969 C 0.81853 0.83992 0.46989 0.0
N970 N 0.79409 0.90527 0.50508 0.0
N971 N 0.81168 0.85054 0.48946 0.0
H972 H 0.12538 0.91522 0.56898 0.0
H973 H 0.15037 0.92608 0.42694 0.0
H974 H 0.06406 0.85469 0.51807 0.0
H975 H 0.17675 -5e-05 0.47297 0.0
H976 H 0.13368 0.89456 0.46256 0.0
H977 H 0.15875 0.94058 0.53567 0.0
C978 C 0.11935 0.90674 0.55089 0.0
C979 C 0.09187 0.8831 0.5461 0.0
C980 C 0.14403 0.91776 0.46487 0.0
C981 C 0.12983 0.91164 0.50829 0.0
C982 C 0.15371 0.93567 0.44467 0.0
C983 C 0.16494 0.96546 0.44728 0.0
C984 C 0.14599 0.92994 0.48765 0.0
C985 C 0.16827 0.977 0.47043 0.0
C986 C 0.13831 0.92126 0.53197 0.0
C987 C 0.08497 0.87307 0.52238 0.0
N988 N 0.1586 0.95916 0.48981 0.0
N989 N 0.10376 0.88756 0.50427 0.0
H990 H 0.07278 0.2011 0.57664 0.0
H991 H 0.06825 0.21996 0.43445 0.0
H992 H 0.13928 0.20995 0.52769 0.0
H993 H 0.99162 0.17038 0.47742 0.0
H994 H 0.09747 0.23305 0.47102 0.0
H995 H 0.04643 0.20638 0.54251 0.0
C996 C 0.08224 0.20511 0.55883 0.0
C997 C 0.10807 0.20497 0.55479 0.0
C998 C 0.0742 0.21975 0.47243 0.0
C999 C 0.07836 0.21107 0.51606 0.0
C1000 C 0.05746 0.21232 0.4516 0.0
C1001 C 0.02746 0.19353 0.45282 0.0
C1002 C 0.06086 0.20865 0.49467 0.0
C1003 C 0.01473 0.18449 0.47562 0.0
C1004 C 0.06714 0.20788 0.53942 0.0
C1005 C 0.11931 0.2098 0.53141 0.0
N1006 N 0.03155 0.19188 0.49567 0.0
N1007 N 0.1043 0.2125 0.51287 0.0
H1008 H 0.73963 0.55844 0.36044 0.0
H1009 H 0.83556 0.50356 0.3108 0.0
H1010 H 0.79842 0.54935 0.40785 0.0
H1011 H 0.8198 0.56112 0.26752 0.0
H1012 H 0.82459 0.52242 0.347 0.0
H1013 H 0.7707 0.56329 0.32633 0.0
C1014 C 0.75964 0.55848 0.36371 0.0
C1015 C 0.76651 0.55339 0.38686 0.0
C1016 C 0.82432 0.53154 0.32967 0.0
C1017 C 0.8014 0.55774 0.34801 0.0
C1018 C 0.83047 0.52072 0.30908 0.0
C1019 C 0.82853 0.53092 0.28638 0.0
C1020 C 0.8151 0.55185 0.32734 0.0
C1021 C 0.82163 0.55293 0.28486 0.0
C1022 C 0.77733 0.5612 0.34428 0.0
C1023 C 0.79248 0.55333 0.39024 0.0
N1024 N 0.8144 0.56221 0.30509 0.0
N1025 N 0.80861 0.55457 0.37088 0.0
H1026 H 0.50572 0.26545 0.40713 0.0
H1027 H 0.44404 0.26063 0.27515 0.0
H1028 H 0.44201 0.18602 0.37395 0.0
H1029 H 0.51607 0.33466 0.30801 0.0
H1030 H 0.43458 0.23451 0.31372 0.0
H1031 H 0.50074 0.29255 0.37406 0.0
C1032 C 0.49027 0.2538 0.39295 0.0
C1033 C 0.47435 0.22359 0.39306 0.0
C1034 C 0.45207 0.25666 0.31255 0.0
C1035 C 0.4691 0.25433 0.35464 0.0
C1036 C 0.45731 0.27158 0.29066 0.0
C1037 C 0.48097 0.29968 0.28851 0.0
C1038 C 0.47049 0.27022 0.33227 0.0
C1039 C 0.49777 0.3129 0.30894 0.0
C1040 C 0.48748 0.26922 0.37401 0.0
C1041 C 0.45458 0.20939 0.37439 0.0
N1042 N 0.49232 0.29803 0.32984 0.0
N1043 N 0.45283 0.22489 0.35561 0.0
H1044 H 0.73884 0.1846 0.27765 0.0
H1045 H 0.738 0.2074 0.41941 0.0
H1046 H 0.66043 0.14991 0.31952 0.0
H1047 H 0.801 0.2696 0.37046 0.0
H1048 H 0.71491 0.17415 0.38542 0.0
H1049 H 0.76698 0.20273 0.31465 0.0
C1050 C 0.72751 0.18014 0.29466 0.0
C1051 C 0.69725 0.16635 0.29549 0.0
C1052 C 0.73415 0.19485 0.38231 0.0
C1053 C 0.72931 0.18691 0.3377 0.0
C1054 C 0.74732 0.21371 0.40161 0.0
C1055 C 0.77108 0.24128 0.39749 0.0
C1056 C 0.74535 0.20356 0.35904 0.0
C1057 C 0.7824 0.24862 0.37419 0.0
C1058 C 0.74361 0.19059 0.31572 0.0
C1059 C 0.68375 0.16099 0.31807 0.0
N1060 N 0.76933 0.2299 0.35577 0.0
N1061 N 0.69991 0.17165 0.33832 0.0
H1062 H 0.84708 0.51299 0.85521 0.0
H1063 H 0.89963 0.41073 0.80071 0.0
H1064 H 0.89213 0.47982 0.89703 0.0
H1065 H 0.86326 0.45265 0.75897 0.0
H1066 H 0.90636 0.44314 0.83453 0.0
H1067 H 0.86165 0.49876 0.81851 0.0
C1068 C 0.86045 0.50309 0.85662 0.0
C1069 C 0.86801 0.49714 0.87917 0.0
C1070 C 0.89774 0.44588 0.81773 0.0
C1071 C 0.88435 0.4802 0.83721 0.0
C1072 C 0.89418 0.42758 0.79842 0.0
C1073 C 0.88109 0.42935 0.77718 0.0
C1074 C 0.88766 0.4656 0.81571 0.0
C1075 C 0.87363 0.4509 0.77512 0.0
C1076 C 0.86881 0.49497 0.83565 0.0
C1077 C 0.88567 0.48462 0.87998 0.0
N1078 N 0.87663 0.46792 0.79427 0.0
N1079 N 0.89275 0.476 0.8593 0.0
H1080 H 0.49544 0.32826 0.85192 0.0
H1081 H 0.59169 0.48435 0.79484 0.0
H1082 H 0.52646 0.407 0.89273 0.0
H1083 H 0.55499 0.40484 0.75473 0.0
H1084 H 0.56117 0.45766 0.82938 0.0
H1085 H 0.51032 0.35661 0.81496 0.0
C1086 C 0.5051 0.35152 0.85309 0.0
C1087 C 0.51011 0.36528 0.87551 0.0
C1088 C 0.55918 0.44617 0.8128 0.0
C1089 C 0.5276 0.39807 0.83314 0.0
C1090 C 0.57635 0.46148 0.79306 0.0
C1091 C 0.57552 0.44669 0.77202 0.0
C1092 C 0.54146 0.41593 0.81138 0.0
C1093 C 0.55598 0.41695 0.77068 0.0
C1094 C 0.51359 0.36775 0.83195 0.0
C1095 C 0.52238 0.39548 0.87586 0.0
N1096 N 0.53999 0.4025 0.79018 0.0
N1097 N 0.53114 0.4109 0.85503 0.0
H1098 H 0.59051 0.13607 0.76037 0.0
H1099 H 0.59441 0.1188 0.90285 0.0
H1100 H 0.52263 0.12611 0.80821 0.0
H1101 H 0.67089 0.16991 0.86014 0.0
H1102 H 0.56525 0.10542 0.86615 0.0
H1103 H 0.61696 0.13228 0.79508 0.0
C1104 C 0.58079 0.13215 0.77807 0.0
C1105 C 0.55451 0.13155 0.7816 0.0
C1106 C 0.58848 0.11914 0.86483 0.0
C1107 C 0.5844 0.1272 0.82102 0.0
C1108 C 0.60516 0.12673 0.88572 0.0
C1109 C 0.63508 0.14589 0.88456 0.0
C1110 C 0.60185 0.13043 0.84263 0.0
C1111 C 0.64783 0.15545 0.86185 0.0
C1112 C 0.59595 0.13024 0.79782 0.0
C1113 C 0.54295 0.12685 0.80487 0.0
N1114 N 0.6311 0.14779 0.84175 0.0
N1115 N 0.55806 0.12501 0.82376 0.0
H1116 H 0.49293 0.15183 0.35801 0.0
H1117 H 0.59082 0.09668 0.3025 0.0
H1118 H 0.52426 0.10517 0.39982 0.0
H1119 H 0.54149 0.12406 0.26 0.0
H1120 H 0.56018 0.09094 0.33731 0.0
H1121 H 0.50387 0.13429 0.32127 0.0
C1122 C 0.50176 0.13753 0.35941 0.0
C1123 C 0.50818 0.13033 0.38192 0.0
C1124 C 0.55535 0.0972 0.32017 0.0
C1125 C 0.52128 0.11052 0.33993 0.0
C1126 C 0.57265 0.10017 0.3003 0.0
C1127 C 0.56833 0.11058 0.27851 0.0
C1128 C 0.5342 0.10543 0.31818 0.0
C1129 C 0.54517 0.1157 0.27656 0.0
C1130 C 0.50791 0.1274 0.33843 0.0
C1131 C 0.51921 0.1114 0.38277 0.0
N1132 N 0.52928 0.11359 0.29628 0.0
N1133 N 0.52604 0.10265 0.36204 0.0
H1134 H 0.88486 0.40463 0.40104 0.0
H1135 H 0.85758 0.40439 0.25974 0.0
H1136 H 0.82261 0.32898 0.36241 0.0
H1137 H 0.87043 0.47434 0.30637 0.0
H1138 H 0.8625 0.37902 0.29471 0.0
H1139 H 0.89704 0.43245 0.36329 0.0
C1140 C 0.87448 0.39376 0.38444 0.0
C1141 C 0.85279 0.36465 0.38457 0.0
C1142 C 0.86495 0.40025 0.29708 0.0
C1143 C 0.86664 0.39589 0.3418 0.0
C1144 C 0.86233 0.41477 0.27721 0.0
C1145 C 0.8634 0.44131 0.28035 0.0
C1146 C 0.86931 0.41276 0.32 0.0
C1147 C 0.86926 0.45376 0.30334 0.0
C1148 C 0.88129 0.40958 0.36306 0.0
C1149 C 0.83948 0.35146 0.36284 0.0
N1150 N 0.87186 0.43929 0.32238 0.0
N1151 N 0.84657 0.36722 0.34225 0.0
H1152 H 0.59753 0.48387 0.39652 0.0
H1153 H 0.5878 0.45708 0.25462 0.0
H1154 H 0.6708 0.50032 0.35278 0.0
H1155 H 0.52348 0.39745 0.30411 0.0
H1156 H 0.61446 0.4885 0.2887 0.0
H1157 H 0.56678 0.46745 0.36034 0.0
C1158 C 0.60723 0.48481 0.37919 0.0
C1159 C 0.63655 0.49318 0.37746 0.0
C1160 C 0.59407 0.46893 0.29192 0.0
C1161 C 0.60196 0.47508 0.33641 0.0
C1162 C 0.5788 0.45115 0.27255 0.0
C1163 C 0.55359 0.42467 0.27673 0.0
C1164 C 0.58361 0.46034 0.3154 0.0
C1165 C 0.54297 0.41769 0.30029 0.0
C1166 C 0.58974 0.47538 0.35869 0.0
C1167 C 0.64817 0.49377 0.35474 0.0
N1168 N 0.55815 0.43536 0.31883 0.0
N1169 N 0.63081 0.48472 0.33505 0.0
H1170 H 0.49712 0.16342 0.81263 0.0
H1171 H 0.43593 0.25569 0.86861 0.0
H1172 H 0.43979 0.18252 0.77246 0.0
H1173 H 0.46833 0.21077 0.91122 0.0
H1174 H 0.43062 0.22443 0.83426 0.0
H1175 H 0.48142 0.17571 0.84981 0.0
C1176 C 0.48068 0.16962 0.81182 0.0
C1177 C 0.46962 0.17195 0.78966 0.0
C1178 C 0.43791 0.22071 0.85136 0.0
C1179 C 0.45223 0.18709 0.83193 0.0
C1180 C 0.44066 0.23836 0.87097 0.0
C1181 C 0.4523 0.23546 0.89267 0.0
C1182 C 0.44752 0.20063 0.8535 0.0
C1183 C 0.45902 0.21338 0.89476 0.0
C1184 C 0.47169 0.17665 0.833 0.0
C1185 C 0.44858 0.1803 0.78935 0.0
N1186 N 0.45701 0.19713 0.87531 0.0
N1187 N 0.44097 0.18821 0.81018 0.0
H1188 H 0.75102 0.18579 0.87945 0.0
H1189 H 0.84382 0.33966 0.8184 0.0
H1190 H 0.78268 0.26722 0.91591 0.0
H1191 H 0.8123 0.2593 0.77988 0.0
H1192 H 0.83112 0.31303 0.85619 0.0
H1193 H 0.78261 0.21143 0.84512 0.0
C1194 C 0.76542 0.20894 0.88049 0.0
C1195 C 0.76442 0.22459 0.90027 0.0
C1196 C 0.8273 0.30117 0.83952 0.0
C1197 C 0.7998 0.25398 0.8613 0.0
C1198 C 0.83451 0.31641 0.81792 0.0
C1199 C 0.8285 0.30161 0.79596 0.0
C1200 C 0.81351 0.27084 0.8392 0.0
C1201 C 0.81695 0.27153 0.79642 0.0
C1202 C 0.78323 0.2236 0.86091 0.0
C1203 C 0.78296 0.25454 0.90082 0.0
N1204 N 0.80929 0.25704 0.8177 0.0
N1205 N 0.79963 0.26831 0.88149 0.0
H1206 H 0.66577 0.50161 0.81033 0.0
H1207 H 0.82038 0.56335 0.87087 0.0
H1208 H 0.7456 0.55066 0.77121 0.0
H1209 H 0.73932 0.51465 0.90808 0.0
H1210 H 0.79437 0.56788 0.83612 0.0
H1211 H 0.69289 0.51492 0.84788 0.0
C1212 C 0.68903 0.51548 0.80968 0.0
C1213 C 0.7035 0.52461 0.7876 0.0
C1214 C 0.78236 0.55687 0.85213 0.0
C1215 C 0.73487 0.53968 0.83061 0.0
C1216 C 0.79723 0.55454 0.87196 0.0
C1217 C 0.78182 0.53875 0.89219 0.0
C1218 C 0.75198 0.54307 0.85267 0.0
C1219 C 0.75185 0.52711 0.89272 0.0
C1220 C 0.70455 0.52313 0.83115 0.0
C1221 C 0.73362 0.54295 0.78785 0.0
N1222 N 0.73786 0.52923 0.87315 0.0
N1223 N 0.74839 0.54946 0.80902 0.0
H1224 H 0.40533 0.89539 0.70361 0.0
H1225 H 0.49938 0.83733 0.64624 0.0
H1226 H 0.44844 0.86003 0.74505 0.0
H1227 H 0.47985 0.89538 0.60767 0.0
H1228 H 0.48691 0.85185 0.68388 0.0
H1229 H 0.43784 0.90276 0.6697 0.0
C1230 C 0.42239 0.89023 0.70577 0.0
C1231 C 0.42447 0.87716 0.7269 0.0
C1232 C 0.48592 0.86201 0.66733 0.0
C1233 C 0.46087 0.88459 0.6884 0.0
C1234 C 0.49307 0.85369 0.64589 0.0
C1235 C 0.49052 0.86521 0.62407 0.0
C1236 C 0.47515 0.88121 0.6668 0.0
C1237 C 0.48213 0.88619 0.62432 0.0
C1238 C 0.44083 0.89428 0.68646 0.0
C1239 C 0.44638 0.87024 0.72892 0.0
N1240 N 0.47404 0.89308 0.64538 0.0
N1241 N 0.46346 0.87361 0.70975 0.0
H1242 H 0.10551 0.59257 0.60376 0.0
H1243 H 0.12314 0.58539 0.74589 0.0
H1244 H 0.15963 0.66675 0.64771 0.0
H1245 H 0.1185 0.52077 0.69678 0.0
H1246 H 0.11642 0.61075 0.71182 0.0
H1247 H 0.09073 0.56216 0.64012 0.0
C1248 C 0.1135 0.60253 0.62117 0.0
C1249 C 0.13391 0.63201 0.62294 0.0
C1250 C 0.116 0.59054 0.7087 0.0
C1251 C 0.11696 0.59779 0.66417 0.0
C1252 C 0.11962 0.576 0.72807 0.0
C1253 C 0.12158 0.55117 0.72395 0.0
C1254 C 0.1138 0.57976 0.68529 0.0
C1255 C 0.11731 0.54003 0.70053 0.0
C1256 C 0.10519 0.58523 0.64178 0.0
C1257 C 0.14398 0.64399 0.64574 0.0
N1258 N 0.11386 0.55456 0.68198 0.0
N1259 N 0.13552 0.62679 0.66552 0.0
H1260 H 0.49206 0.60129 0.70276 0.0
H1261 H 0.33906 0.49488 0.64605 0.0
H1262 H 0.41416 0.55352 0.7442 0.0
H1263 H 0.41789 0.53205 0.60475 0.0
H1264 H 0.36749 0.51025 0.68296 0.0
H1265 H 0.46737 0.57071 0.66776 0.0
C1266 C 0.47007 0.5836 0.70466 0.0
C1267 C 0.45512 0.57949 0.72631 0.0
C1268 C 0.37869 0.51469 0.66589 0.0
C1269 C 0.42644 0.54526 0.68638 0.0
C1270 C 0.36241 0.50589 0.64479 0.0
C1271 C 0.37613 0.51249 0.6223 0.0
C1272 C 0.409 0.53077 0.66457 0.0
C1273 C 0.40645 0.52659 0.62173 0.0
C1274 C 0.45589 0.56632 0.68468 0.0
C1275 C 0.42644 0.55698 0.72782 0.0
N1276 N 0.4219 0.53577 0.64255 0.0
N1277 N 0.41291 0.54095 0.70804 0.0
H1278 H 0.54084 0.72106 0.14556 0.0
H1279 H 0.49991 0.82898 0.19207 0.0
H1280 H 0.54318 0.78489 0.0967 0.0
H1281 H 0.55392 0.80929 0.23648 0.0
H1282 H 0.51602 0.81375 0.15652 0.0
H1283 H 0.54723 0.75318 0.17933 0.0
C1284 C 0.54345 0.74216 0.14194 0.0
C1285 C 0.54113 0.75026 0.11843 0.0
C1286 C 0.52496 0.81351 0.17395 0.0
C1287 C 0.54757 0.78652 0.15679 0.0
C1288 C 0.51571 0.82207 0.19415 0.0
C1289 C 0.52574 0.82034 0.21699 0.0
C1290 C 0.54342 0.80212 0.17687 0.0
C1291 C 0.54595 0.81105 0.21901 0.0
C1292 C 0.54716 0.76046 0.16116 0.0
C1293 C 0.54469 0.7778 0.11461 0.0
N1294 N 0.55362 0.80152 0.1992 0.0
N1295 N 0.54688 0.79467 0.1337 0.0
H1296 H 0.16188 0.6624 0.18971 0.0
H1297 H 0.25634 0.81678 0.1306 0.0
H1298 H 0.19076 0.74176 0.22908 0.0
H1299 H 0.21884 0.73664 0.09134 0.0
H1300 H 0.22561 0.79093 0.16524 0.0
H1301 H 0.1756 0.68974 0.15226 0.0
C1302 C 0.17081 0.68559 0.19043 0.0
C1303 C 0.17561 0.69988 0.21256 0.0
C1304 C 0.22345 0.77912 0.14881 0.0
C1305 C 0.19183 0.73152 0.16967 0.0
C1306 C 0.24077 0.79394 0.12903 0.0
C1307 C 0.23975 0.77872 0.10821 0.0
C1308 C 0.20548 0.74891 0.14771 0.0
C1309 C 0.21993 0.74906 0.10711 0.0
C1310 C 0.17861 0.70124 0.16902 0.0
C1311 C 0.18687 0.72991 0.21241 0.0
N1312 N 0.20385 0.73505 0.1267 0.0
N1313 N 0.19511 0.74483 0.19131 0.0
H1314 H 0.32667 0.47913 0.18575 0.0
H1315 H 0.17223 0.43239 0.13335 0.0
H1316 H 0.2494 0.43859 0.22911 0.0
H1317 H 0.24753 0.45827 0.08937 0.0
H1318 H 0.19781 0.42649 0.16762 0.0
H1319 H 0.29677 0.4645 0.14959 0.0
C1320 C 0.30339 0.46676 0.18765 0.0
C1321 C 0.29053 0.46046 0.21051 0.0
C1322 C 0.20846 0.43254 0.1503 0.0
C1323 C 0.25601 0.44396 0.16909 0.0
C1324 C 0.19371 0.43554 0.13071 0.0
C1325 C 0.20774 0.44535 0.10856 0.0
C1326 C 0.23761 0.44008 0.14772 0.0
C1327 C 0.23591 0.4502 0.10614 0.0
C1328 C 0.28627 0.45835 0.16697 0.0
C1329 C 0.26024 0.44409 0.21186 0.0
N1330 N 0.25009 0.44797 0.12557 0.0
N1331 N 0.24399 0.43689 0.19146 0.0
H1332 H 0.22746 0.48997 0.59091 0.0
H1333 H 0.18346 0.44584 0.72859 0.0
H1334 H 0.26138 0.44586 0.6328 0.0
H1335 H 0.17699 0.51268 0.69061 0.0
H1336 H 0.1999 0.43388 0.69107 0.0
H1337 H 0.19589 0.48553 0.62443 0.0
C1338 C 0.22752 0.47852 0.60699 0.0
C1339 C 0.24674 0.46804 0.60916 0.0
C1340 C 0.19432 0.45077 0.69093 0.0
C1341 C 0.2115 0.46374 0.6479 0.0
C1342 C 0.18477 0.45743 0.71222 0.0
C1343 C 0.17906 0.48035 0.71259 0.0
C1344 C 0.19758 0.46685 0.66996 0.0
C1345 C 0.1814 0.49499 0.69106 0.0
C1346 C 0.20973 0.47622 0.62618 0.0
C1347 C 0.24651 0.45387 0.63045 0.0
N1348 N 0.19057 0.48807 0.67068 0.0
N1349 N 0.2294 0.45244 0.64922 0.0
H1350 H 0.53518 0.81545 0.6424 0.0
H1351 H 0.51957 0.67255 0.68981 0.0
H1352 H 0.54009 0.75521 0.59376 0.0
H1353 H 0.55667 0.74927 0.73389 0.0
H1354 H 0.53025 0.70281 0.65398 0.0
H1355 H 0.54613 0.79292 0.67595 0.0
C1356 C 0.5391 0.79778 0.63879 0.0
C1357 C 0.53648 0.78694 0.61541 0.0
C1358 C 0.53674 0.71308 0.67143 0.0
C1359 C 0.5484 0.76071 0.65365 0.0
C1360 C 0.53061 0.69583 0.69187 0.0
C1361 C 0.53691 0.70843 0.71483 0.0
C1362 C 0.54853 0.74302 0.67407 0.0
C1363 C 0.55134 0.73867 0.71653 0.0
C1364 C 0.54547 0.78501 0.65789 0.0
C1365 C 0.54191 0.76414 0.61158 0.0
N1366 N 0.55602 0.75492 0.69644 0.0
N1367 N 0.54695 0.75128 0.63063 0.0
H1368 H 0.24339 0.79273 0.59175 0.0
H1369 H 0.25404 0.81126 0.73447 0.0
H1370 H 0.17614 0.73648 0.64077 0.0
H1371 H 0.32766 0.83428 0.68863 0.0
H1372 H 0.22327 0.79824 0.6988 0.0
H1373 H 0.27157 0.82258 0.62598 0.0
C1374 C 0.23407 0.78737 0.6096 0.0
C1375 C 0.20755 0.76209 0.61358 0.0
C1376 C 0.24625 0.80662 0.69659 0.0
C1377 C 0.23951 0.79582 0.65253 0.0
C1378 C 0.26387 0.81408 0.7169 0.0
C1379 C 0.29341 0.82336 0.71454 0.0
C1380 C 0.2583 0.80882 0.67375 0.0
C1381 C 0.30491 0.82673 0.69128 0.0
C1382 C 0.25026 0.80419 0.6291 0.0
C1383 C 0.19657 0.7558 0.63706 0.0
N1384 N 0.28726 0.81922 0.67175 0.0
N1385 N 0.21273 0.7724 0.65572 0.0
H1386 H 0.15512 0.48417 0.14856 0.0
H1387 H 0.10138 0.58455 0.20871 0.0
H1388 H 0.11256 0.52165 0.10882 0.0
H1389 H 0.1536 0.55485 0.24384 0.0
H1390 H 0.09448 0.55229 0.17458 0.0
H1391 H 0.14355 0.5 0.18593 0.0
C1392 C 0.14296 0.49539 0.14772 0.0
C1393 C 0.13531 0.50211 0.1255 0.0
C1394 C 0.10685 0.55233 0.19002 0.0
C1395 C 0.12231 0.52072 0.16831 0.0
C1396 C 0.11056 0.57051 0.2095 0.0
C1397 C 0.12803 0.57216 0.22891 0.0
C1398 C 0.12075 0.53584 0.19018 0.0
C1399 C 0.13997 0.55407 0.22909 0.0
C1400 C 0.13637 0.50447 0.16908 0.0
C1401 C 0.11914 0.51627 0.12554 0.0
N1402 N 0.13632 0.53687 0.20993 0.0
N1403 N 0.11363 0.5256 0.14661 0.0
H1404 H 0.4788 0.58239 0.1037 0.0
H1405 H 0.45058 0.57462 0.24553 0.0
H1406 H 0.4978 0.65546 0.14865 0.0
H1407 H 0.3978 0.50482 0.19729 0.0
H1408 H 0.48265 0.60117 0.2119 0.0
H1409 H 0.46318 0.55123 0.13969 0.0
C1410 C 0.48055 0.59196 0.12125 0.0
C1411 C 0.48952 0.6214 0.12339 0.0
C1412 C 0.4646 0.57964 0.20882 0.0
C1413 C 0.47198 0.58626 0.16427 0.0
C1414 C 0.44656 0.56439 0.22803 0.0
C1415 C 0.4219 0.53743 0.2241 0.0
C1416 C 0.45777 0.56785 0.18555 0.0
C1417 C 0.41695 0.5254 0.20099 0.0
C1418 C 0.47149 0.57422 0.14167 0.0
C1419 C 0.49096 0.6328 0.14637 0.0
N1420 N 0.43458 0.54085 0.18244 0.0
N1421 N 0.48216 0.6152 0.16591 0.0
H1422 H 0.33137 0.84119 0.14768 0.0
H1423 H 0.47811 0.87195 0.1979 0.0
H1424 H 0.40911 0.88642 0.10522 0.0
H1425 H 0.41325 0.86982 0.24533 0.0
H1426 H 0.45448 0.88076 0.16394 0.0
H1427 H 0.36097 0.85469 0.18413 0.0
C1428 C 0.35463 0.85447 0.14608 0.0
C1429 C 0.36786 0.86226 0.12341 0.0
C1430 C 0.44579 0.8791 0.18184 0.0
C1431 C 0.40173 0.87731 0.16486 0.0
C1432 C 0.45921 0.87399 0.20116 0.0
C1433 C 0.44737 0.86993 0.22426 0.0
C1434 C 0.41987 0.87921 0.18561 0.0
C1435 C 0.42296 0.87283 0.2277 0.0
C1436 C 0.37149 0.86227 0.16687 0.0
C1437 C 0.39804 0.87973 0.12234 0.0
N1438 N 0.40951 0.87657 0.20842 0.0
N1439 N 0.41403 0.88607 0.14275 0.0
H1440 H 0.11628 0.17525 0.12243 0.0
H1441 H 0.0997 0.02029 0.14295 0.0
H1442 H 0.03682 0.09727 0.13955 0.0
H1443 H 0.17498 0.09121 0.11031 0.0
H1444 H 0.08205 0.05298 0.15329 0.0
H1445 H 0.14278 0.14925 0.12879 0.0
C1446 C 0.10454 0.15288 0.12814 0.0
C1447 C 0.0743 0.13817 0.13016 0.0
C1448 C 0.10264 0.06159 0.14418 0.0
C1449 C 0.10431 0.10853 0.13741 0.0
C1450 C 0.11273 0.04295 0.13831 0.0
C1451 C 0.1385 0.05305 0.12535 0.0
C1452 C 0.11816 0.09051 0.13668 0.0
C1453 C 0.15486 0.08263 0.12014 0.0
C1454 C 0.11964 0.13806 0.13163 0.0
C1455 C 0.06008 0.10923 0.13747 0.0
N1456 N 0.14409 0.10033 0.12538 0.0
N1457 N 0.07517 0.0953 0.14061 0.0
H1458 H 0.91393 0.93547 0.12654 0.0
H1459 H 0.91432 0.08522 0.13155 0.0
H1460 H 0.83537 0.93973 0.12627 0.0
H1461 H 0.98758 0.07514 0.11495 0.0
H1462 H 0.88559 0.0328 0.13964 0.0
H1463 H 0.94152 0.98731 0.13318 0.0
C1464 C 0.9024 0.94724 0.12822 0.0
C1465 C 0.87231 0.93324 0.12546 0.0
C1466 C 0.9081 0.04228 0.13461 0.0
C1467 C 0.90396 0.993 0.13263 0.0
C1468 C 0.92444 0.07207 0.13012 0.0
C1469 C 0.95314 0.08423 0.12231 0.0
C1470 C 0.92091 0.02499 0.1316 0.0
C1471 C 0.96537 0.06645 0.12063 0.0
C1472 C 0.9182 0.97693 0.13195 0.0
C1473 C 0.85858 0.94969 0.12809 0.0
N1474 N 0.94919 0.03779 0.1251 0.0
N1475 N 0.87457 0.97886 0.13113 0.0
H1476 H 0.91287 0.89114 0.13844 0.0
H1477 H 0.06036 0.88717 0.13221 0.0
H1478 H 0.91757 0.81897 0.10936 0.0
H1479 H 0.05487 0.96481 0.12897 0.0
H1480 H 0.0075 0.85874 0.13722 0.0
H1481 H 0.96431 0.91468 0.14871 0.0
C1482 C 0.92473 0.88003 0.13476 0.0
C1483 C 0.91131 0.8533 0.12303 0.0
C1484 C 0.01803 0.88206 0.13604 0.0
C1485 C 0.96989 0.87993 0.13449 0.0
C1486 C 0.04809 0.89825 0.13344 0.0
C1487 C 0.06174 0.92827 0.13035 0.0
C1488 C 0.00184 0.8962 0.13589 0.0
C1489 C 0.045 0.94168 0.13143 0.0
C1490 C 0.95398 0.89343 0.14055 0.0
C1491 C 0.92734 0.8396 0.11854 0.0
N1492 N 0.0159 0.92554 0.13403 0.0
N1493 N 0.95601 0.85323 0.12408 0.0
H1494 H 0.07469 0.16978 0.35345 0.0
H1495 H 0.08592 0.02765 0.37462 0.0
H1496 H 0.01379 0.09323 0.39206 0.0
H1497 H 0.15932 0.10784 0.35168 0.0
H1498 H 0.05529 0.04905 0.37022 0.0
H1499 H 0.10272 0.14574 0.3436 0.0
C1500 C 0.06712 0.14793 0.35961 0.0
C1501 C 0.04223 0.13363 0.37394 0.0
C1502 C 0.07801 0.06199 0.36578 0.0
C1503 C 0.07344 0.10606 0.36241 0.0
C1504 C 0.0954 0.04967 0.36813 0.0
C1505 C 0.12504 0.06612 0.36361 0.0
C1506 C 0.09046 0.09129 0.35949 0.0
C1507 C 0.13642 0.09454 0.35525 0.0
C1508 C 0.08303 0.13427 0.35401 0.0
C1509 C 0.03315 0.1053 0.38137 0.0
N1510 N 0.11916 0.10654 0.3539 0.0
N1511 N 0.04872 0.09257 0.37557 0.0
H1512 H 0.96808 0.06138 0.36436 0.0
H1513 H 0.82393 0.90676 0.3581 0.0
H1514 H 0.88296 0.05167 0.36626 0.0
H1515 H 0.90976 0.92151 0.37121 0.0
H1516 H 0.84458 0.9592 0.3517 0.0
H1517 H 0.94645 0.00983 0.35692 0.0
C1518 C 0.94478 0.04838 0.36298 0.0
C1519 C 0.92727 0.06073 0.36635 0.0
C1520 C 0.85885 0.95079 0.35555 0.0
C1521 C 0.90219 0.00136 0.3581 0.0
C1522 C 0.84711 0.92096 0.35902 0.0
C1523 C 0.86525 0.91005 0.36532 0.0
C1524 C 0.88883 0.96942 0.35812 0.0
C1525 C 0.89507 0.92919 0.36656 0.0
C1526 C 0.9324 0.0189 0.35872 0.0
C1527 C 0.89721 0.04292 0.36391 0.0
N1528 N 0.90587 0.95786 0.36314 0.0
N1529 N 0.88553 0.01396 0.36031 0.0
H1530 H 0.0894 0.9106 0.38361 0.0
H1531 H 0.93936 0.89912 0.34993 0.0
H1532 H 0.0795 0.97974 0.35406 0.0
H1533 H 0.94528 0.82522 0.37292 0.0
H1534 H 0.99165 0.92655 0.34555 0.0
H1535 H 0.03813 0.87661 0.37448 0.0
C1536 C 0.07662 0.91844 0.37471 0.0
C1537 C 0.08843 0.948 0.36991 0.0
C1538 C 0.98166 0.90421 0.35123 0.0
C1539 C 0.03021 0.90965 0.35959 0.0
C1540 C 0.95174 0.88855 0.35367 0.0
C1541 C 0.93808 0.86001 0.36197 0.0
C1542 C 0.99826 0.89152 0.35769 0.0
C1543 C 0.95508 0.84724 0.36645 0.0
C1544 C 0.0474 0.89914 0.3696 0.0
C1545 C 0.07104 0.95717 0.35845 0.0
N1546 N 0.98443 0.86328 0.36471 0.0
N1547 N 0.04285 0.93818 0.35393 0.0
H1548 H 0.96468 0.90924 0.85471 0.0
H1549 H 0.81656 0.90573 0.87372 0.0
H1550 H 0.88383 0.82957 0.86313 0.0
H1551 H 0.89469 0.9809 0.85001 0.0
H1552 H 0.83857 0.87585 0.86495 0.0
H1553 H 0.93805 0.93468 0.84814 0.0
C1554 C 0.94128 0.89706 0.85488 0.0
C1555 C 0.92645 0.86738 0.85978 0.0
C1556 C 0.85064 0.89877 0.86107 0.0
C1557 C 0.89571 0.89635 0.85262 0.0
C1558 C 0.838 0.91568 0.86594 0.0
C1559 C 0.854 0.9456 0.8625 0.0
C1560 C 0.87951 0.91216 0.85313 0.0
C1561 C 0.88184 0.95781 0.85288 0.0
C1562 C 0.92604 0.91155 0.85106 0.0
C1563 C 0.8961 0.85253 0.8595 0.0
N1564 N 0.89389 0.94112 0.84882 0.0
N1565 N 0.8817 0.86728 0.85644 0.0
H1566 H 0.0926 0.06512 0.86155 0.0
H1567 H 0.08694 0.91252 0.85952 0.0
H1568 H 0.16928 0.05814 0.86847 0.0
H1569 H 0.01444 0.92532 0.87142 0.0
H1570 H 0.11784 0.96509 0.85284 0.0
H1571 H 0.06432 0.01333 0.85435 0.0
C1572 C 0.10354 0.05268 0.86131 0.0
C1573 C 0.13321 0.06585 0.86607 0.0
C1574 C 0.09504 0.95619 0.85649 0.0
C1575 C 0.10084 0.00626 0.8581 0.0
C1576 C 0.07746 0.9263 0.86014 0.0
C1577 C 0.04824 0.91481 0.86613 0.0
C1578 C 0.08298 0.97426 0.85851 0.0
C1579 C 0.03692 0.93342 0.86697 0.0
C1580 C 0.08738 0.02307 0.8572 0.0
C1581 C 0.14637 0.04875 0.86503 0.0
N1582 N 0.05428 0.96213 0.86332 0.0
N1583 N 0.12999 0.01966 0.86155 0.0
H1584 H 0.94022 0.02626 0.86175 0.0
H1585 H 0.09057 0.17546 0.85677 0.0
H1586 H 0.94371 0.10867 0.85868 0.0
H1587 H 0.07753 0.09507 0.88605 0.0
H1588 H 0.03858 0.15102 0.84639 0.0
H1589 H 0.99259 0.05106 0.85817 0.0
C1590 C 0.95193 0.04955 0.85993 0.0
C1591 C 0.93753 0.06541 0.86098 0.0
C1592 C 0.04738 0.13881 0.85478 0.0
C1593 C 0.99775 0.09405 0.85719 0.0
C1594 C 0.07691 0.15267 0.86063 0.0
C1595 C 0.08816 0.13727 0.8725 0.0
C1596 C 0.02953 0.10936 0.86037 0.0
C1597 C 0.06968 0.10782 0.87714 0.0
C1598 C 0.98189 0.06373 0.85796 0.0
C1599 C 0.95396 0.0956 0.8582 0.0
N1600 N 0.0414 0.0949 0.87111 0.0
N1601 N 0.98332 0.10904 0.85682 0.0
H1602 H 0.91528 0.82973 0.61373 0.0
H1603 H 0.83206 0.89485 0.6365 0.0
H1604 H 0.98864 0.91594 0.61955 0.0
H1605 H 0.90999 0.97247 0.61604 0.0
H1606 H 0.86007 0.87001 0.64078 0.0
H1607 H 0.88344 0.84877 0.62402 0.0
C1608 C 0.92471 0.85255 0.61758 0.0
C1609 C 0.9546 0.87135 0.61529 0.0
C1610 C 0.8711 0.89251 0.63554 0.0
C1611 C 0.91846 0.89329 0.62759 0.0
C1612 C 0.8552 0.90678 0.63353 0.0
C1613 C 0.86886 0.9356 0.62579 0.0
C1614 C 0.90074 0.90739 0.62975 0.0
C1615 C 0.89872 0.95015 0.62191 0.0
C1616 C 0.90652 0.86343 0.62367 0.0
C1617 C 0.96568 0.9007 0.62058 0.0
N1618 N 0.91359 0.93586 0.62378 0.0
N1619 N 0.94761 0.91074 0.62616 0.0
H1620 H 0.0424 0.93429 0.64535 0.0
H1621 H 0.17396 0.09109 0.61218 0.0
H1622 H 0.11604 0.94838 0.60339 0.0
H1623 H 0.08951 0.07407 0.63445 0.0
H1624 H 0.15857 0.04004 0.61906 0.0
H1625 H 0.06531 0.98664 0.65195 0.0
C1626 C 0.06385 0.94843 0.63826 0.0
C1627 C 0.07764 0.93732 0.62408 0.0
C1628 C 0.14359 0.04764 0.62275 0.0
C1629 C 0.10357 0.99686 0.63092 0.0
C1630 C 0.15239 0.07675 0.61891 0.0
C1631 C 0.13282 0.08669 0.62238 0.0
C1632 C 0.11519 0.02851 0.63037 0.0
C1633 C 0.10513 0.06718 0.63115 0.0
C1634 C 0.07679 0.97823 0.64179 0.0
C1635 C 0.10502 0.95635 0.61466 0.0
N1636 N 0.09708 0.03901 0.63467 0.0
N1637 N 0.11705 0.98529 0.61809 0.0
H1638 H 0.91091 0.0948 0.61116 0.0
H1639 H 0.05868 0.10416 0.65072 0.0
H1640 H 0.91982 0.02301 0.63547 0.0
H1641 H 0.05389 0.1754 0.61959 0.0
H1642 H 0.00609 0.07785 0.6554 0.0
H1643 H 0.96117 0.1279 0.62348 0.0
C1644 C 0.92326 0.08611 0.61951 0.0
C1645 C 0.91156 0.05619 0.62184 0.0
C1646 C 0.0165 0.09954 0.6481 0.0
C1647 C 0.96859 0.09358 0.63598 0.0
C1648 C 0.0465 0.11458 0.64568 0.0
C1649 C 0.06031 0.1419 0.63502 0.0
C1650 C 0.0003 0.11171 0.63917 0.0
C1651 C 0.04377 0.1544 0.62817 0.0
C1652 C 0.9519 0.10493 0.62648 0.0
C1653 C 0.92832 0.04595 0.63285 0.0
N1654 N 0.01449 0.139 0.62999 0.0
N1655 N 0.95602 0.06455 0.63927 0.0
H1656 H 0.84747 0.42174 0.45069 0.0
H1657 H 0.72989 0.46314 0.49359 0.0
H1658 H 0.76604 0.36118 0.48332 0.0
H1659 H 0.78792 0.50329 0.43394 0.0
H1660 H 0.75326 0.43428 0.50167 0.0
H1661 H 0.83568 0.46018 0.45647 0.0
C1662 C 0.82746 0.41669 0.45959 0.0
C1663 C 0.80745 0.38821 0.46619 0.0
C1664 C 0.76131 0.44999 0.48723 0.0
C1665 C 0.79404 0.43192 0.47298 0.0
C1666 C 0.74817 0.46652 0.48276 0.0
C1667 C 0.7571 0.48539 0.46309 0.0
C1668 C 0.78366 0.45284 0.47209 0.0
C1669 C 0.7805 0.48881 0.44925 0.0
C1670 C 0.82072 0.43857 0.46279 0.0
C1671 C 0.78181 0.38282 0.47762 0.0
N1672 N 0.7929 0.47253 0.45391 0.0
N1673 N 0.7757 0.40443 0.48048 0.0
H1674 H 0.5896 0.26958 0.46288 0.0
H1675 H 0.59371 0.421 0.45412 0.0
H1676 H 0.51294 0.27727 0.4639 0.0
H1677 H 0.66921 0.4113 0.45294 0.0
H1678 H 0.56385 0.36915 0.46248 0.0
H1679 H 0.61917 0.32211 0.46453 0.0
C1680 C 0.57896 0.2823 0.46378 0.0
C1681 C 0.54872 0.26896 0.46298 0.0
C1682 C 0.58699 0.37847 0.46058 0.0
C1683 C 0.58254 0.3293 0.46453 0.0
C1684 C 0.60404 0.40807 0.45582 0.0
C1685 C 0.63397 0.42049 0.45246 0.0
C1686 C 0.6 0.36123 0.46206 0.0
C1687 C 0.64618 0.40266 0.455 0.0
C1688 C 0.59588 0.31234 0.46466 0.0
C1689 C 0.53617 0.28659 0.46441 0.0
N1690 N 0.62916 0.37401 0.45946 0.0
N1691 N 0.55313 0.31586 0.46479 0.0
H1692 H 0.72632 0.21874 0.48021 0.0
H1693 H 0.57595 0.21665 0.48735 0.0
H1694 H 0.71832 0.29503 0.48007 0.0
H1695 H 0.58578 0.15041 0.45196 0.0
H1696 H 0.62685 0.2404 0.49961 0.0
H1697 H 0.67357 0.1889 0.48477 0.0
C1698 C 0.71353 0.2292 0.48216 0.0
C1699 C 0.72644 0.25927 0.47996 0.0
C1700 C 0.61766 0.22025 0.48973 0.0
C1701 C 0.66663 0.22558 0.48494 0.0
C1702 C 0.5887 0.20666 0.48288 0.0
C1703 C 0.57693 0.18158 0.46883 0.0
C1704 C 0.63484 0.20856 0.48248 0.0
C1705 C 0.59423 0.16963 0.463 0.0
C1706 C 0.68353 0.21221 0.48448 0.0
C1707 C 0.70903 0.27188 0.48187 0.0
N1708 N 0.62252 0.18338 0.46972 0.0
N1709 N 0.67994 0.25495 0.48413 0.0
H1710 H 0.7607 0.36443 0.70151 0.0
H1711 H 0.76101 0.51362 0.7063 0.0
H1712 H 0.83903 0.44682 0.70823 0.0
H1713 H 0.68511 0.4297 0.6989 0.0
H1714 H 0.7913 0.49141 0.6998 0.0
H1715 H 0.73403 0.38939 0.69324 0.0
C1716 C 0.77234 0.38784 0.70098 0.0
C1717 C 0.80202 0.40357 0.70588 0.0
C1718 C 0.76801 0.47799 0.69904 0.0
C1719 C 0.77151 0.4325 0.6968 0.0
C1720 C 0.75081 0.4907 0.70255 0.0
C1721 C 0.72066 0.47332 0.70312 0.0
C1722 C 0.75473 0.44781 0.69617 0.0
C1723 C 0.70833 0.44372 0.69863 0.0
C1724 C 0.75711 0.40214 0.69624 0.0
C1725 C 0.8161 0.43388 0.70463 0.0
N1726 N 0.72537 0.43187 0.69557 0.0
N1727 N 0.80062 0.44741 0.70062 0.0
H1728 H 0.49076 0.24618 0.72133 0.0
H1729 H 0.55596 0.39376 0.69854 0.0
H1730 H 0.56934 0.25323 0.69356 0.0
H1731 H 0.63433 0.38917 0.70023 0.0
H1732 H 0.528 0.34129 0.69421 0.0
H1733 H 0.50946 0.29724 0.71175 0.0
C1734 C 0.51159 0.25833 0.7126 0.0
C1735 C 0.52887 0.24584 0.70869 0.0
C1736 C 0.55127 0.35172 0.69553 0.0
C1737 C 0.55033 0.3039 0.69739 0.0
C1738 C 0.56733 0.38177 0.6977 0.0
C1739 C 0.59754 0.39584 0.70022 0.0
C1740 C 0.56562 0.33576 0.69588 0.0
C1741 C 0.6111 0.37924 0.69877 0.0
C1742 C 0.52229 0.28748 0.70703 0.0
C1743 C 0.55572 0.26237 0.69743 0.0
N1744 N 0.59501 0.35008 0.69689 0.0
N1745 N 0.5658 0.29062 0.69253 0.0
H1746 H 0.60578 0.24243 0.70847 0.0
H1747 H 0.75859 0.24981 0.69813 0.0
H1748 H 0.61187 0.16612 0.69613 0.0
H1749 H 0.74324 0.31581 0.72708 0.0
H1750 H 0.70673 0.22103 0.68761 0.0
H1751 H 0.65784 0.27208 0.70373 0.0
C1752 C 0.61814 0.23204 0.70405 0.0
C1753 C 0.60469 0.20195 0.70255 0.0
C1754 C 0.71495 0.24199 0.69601 0.0
C1755 C 0.66461 0.23556 0.69837 0.0
C1756 C 0.74442 0.25834 0.70196 0.0
C1757 C 0.75499 0.28494 0.71384 0.0
C1758 C 0.69643 0.25279 0.70155 0.0
C1759 C 0.7359 0.29517 0.71834 0.0
C1760 C 0.64792 0.2489 0.7016 0.0
C1761 C 0.62163 0.18938 0.69717 0.0
N1762 N 0.70768 0.27911 0.71227 0.0
N1763 N 0.65096 0.20626 0.69573 0.0
H1764 H 0.5502 0.15831 0.21249 0.0
H1765 H 0.57944 0.31917 0.19578 0.0
H1766 H 0.63419 0.23416 0.20388 0.0
H1767 H 0.49627 0.24771 0.21603 0.0
H1768 H 0.59712 0.28564 0.18961 0.0
H1769 H 0.5278 0.18812 0.20517 0.0
C1770 C 0.56386 0.18108 0.20856 0.0
C1771 C 0.59407 0.19394 0.20909 0.0
C1772 C 0.5749 0.27716 0.19517 0.0
C1773 C 0.56876 0.22796 0.20079 0.0
C1774 C 0.56478 0.29632 0.1987 0.0
C1775 C 0.5365 0.28626 0.20689 0.0
C1776 C 0.55676 0.24767 0.20009 0.0
C1777 C 0.51831 0.25637 0.20992 0.0
C1778 C 0.5511 0.19808 0.20452 0.0
C1779 C 0.61082 0.22351 0.204 0.0
N1780 N 0.5289 0.23811 0.20689 0.0
N1781 N 0.59796 0.23952 0.20025 0.0
H1782 H 0.8267 0.38483 0.19153 0.0
H1783 H 0.67913 0.25039 0.23309 0.0
H1784 H 0.75105 0.38827 0.21308 0.0
H1785 H 0.74397 0.23852 0.19715 0.0
H1786 H 0.70499 0.30095 0.22229 0.0
H1787 H 0.797 0.33174 0.18891 0.0
C1788 C 0.80368 0.37445 0.19488 0.0
C1789 C 0.79118 0.39069 0.20268 0.0
C1790 C 0.71369 0.28748 0.21652 0.0
C1791 C 0.7575 0.33057 0.20018 0.0
C1792 C 0.69895 0.25852 0.22285 0.0
C1793 C 0.70966 0.24034 0.21631 0.0
C1794 C 0.73991 0.29886 0.20393 0.0
C1795 C 0.73516 0.25197 0.20267 0.0
C1796 C 0.78682 0.34423 0.19357 0.0
C1797 C 0.76146 0.3764 0.20718 0.0
N1798 N 0.7498 0.28076 0.19725 0.0
N1799 N 0.74575 0.34721 0.20612 0.0
H1800 H 0.75456 0.51182 0.21753 0.0
H1801 H 0.60332 0.37811 0.17624 0.0
H1802 H 0.74135 0.42929 0.19365 0.0
H1803 H 0.61122 0.45182 0.21439 0.0
H1804 H 0.65594 0.40331 0.1714 0.0
H1805 H 0.70434 0.4964 0.20622 0.0
C1806 C 0.74128 0.49073 0.20949 0.0
C1807 C 0.75182 0.47156 0.20693 0.0
C1808 C 0.64616 0.41436 0.18025 0.0
C1809 C 0.69483 0.45394 0.19386 0.0
C1810 C 0.61616 0.40009 0.18273 0.0
C1811 C 0.60319 0.41317 0.19544 0.0
C1812 C 0.6632 0.44163 0.19099 0.0
C1813 C 0.62063 0.44131 0.2042 0.0
C1814 C 0.71267 0.48191 0.20311 0.0
C1815 C 0.73382 0.4445 0.19638 0.0
N1816 N 0.64987 0.45451 0.20212 0.0
N1817 N 0.7062 0.43643 0.19043 0.0
H1818 H 0.65156 0.23729 0.97808 0.0
H1819 H 0.49376 0.21556 0.9604 0.0
H1820 H 0.57774 0.15543 0.95921 0.0
H1821 H 0.57155 0.29756 0.97088 0.0
H1822 H 0.52128 0.19095 0.96867 0.0
H1823 H 0.61975 0.25707 0.98491 0.0
C1824 C 0.62845 0.22333 0.97597 0.0
C1825 C 0.61709 0.1948 0.96819 0.0
C1826 C 0.53217 0.2143 0.96953 0.0
C1827 C 0.58056 0.21741 0.97505 0.0
C1828 C 0.51647 0.22834 0.96493 0.0
C1829 C 0.53056 0.25865 0.9646 0.0
C1830 C 0.56202 0.23077 0.974 0.0
C1831 C 0.55999 0.27418 0.97051 0.0
C1832 C 0.61029 0.23462 0.9797 0.0
C1833 C 0.58712 0.17752 0.96542 0.0
N1834 N 0.57475 0.2601 0.97475 0.0
N1835 N 0.56982 0.18925 0.96849 0.0
H1836 H 0.70419 0.2805 0.97776 0.0
H1837 H 0.79362 0.42947 0.9919 0.0
H1838 H 0.78344 0.28006 0.96396 0.0
H1839 H 0.83663 0.41535 0.93233 0.0
H1840 H 0.76994 0.3776 0.0016 0.0
H1841 H 0.73216 0.33329 0.98161 0.0
C1842 C 0.72749 0.29145 0.97603 0.0
C1843 C 0.74152 0.27593 0.97051 0.0
C1844 C 0.78499 0.38604 0.98672 0.0
C1845 C 0.77344 0.336 0.97463 0.0
C1846 C 0.79872 0.41553 0.98139 0.0
C1847 C 0.81711 0.42638 0.96145 0.0
C1848 C 0.79014 0.36767 0.97208 0.0
C1849 C 0.82267 0.4076 0.94795 0.0
C1850 C 0.74343 0.32148 0.9784 0.0
C1851 C 0.77177 0.29117 0.96834 0.0
N1852 N 0.80921 0.37905 0.95353 0.0
N1853 N 0.78665 0.32045 0.96982 0.0
H1854 H 0.72557 0.49713 0.96811 0.0
H1855 H 0.58934 0.34273 0.9463 0.0
H1856 H 0.7295 0.41893 0.95905 0.0
H1857 H 0.58042 0.41476 0.96969 0.0
H1858 H 0.64065 0.37014 0.95489 0.0
H1859 H 0.67305 0.46784 0.9728 0.0
C1860 C 0.7155 0.47381 0.96752 0.0
C1861 C 0.73195 0.46048 0.96272 0.0
C1862 C 0.62762 0.38003 0.95849 0.0
C1863 C 0.67191 0.42697 0.96797 0.0
C1864 C 0.59825 0.36433 0.95357 0.0
C1865 C 0.58072 0.3766 0.95716 0.0
C1866 C 0.63996 0.40867 0.96652 0.0
C1867 C 0.59331 0.4046 0.96669 0.0
C1868 C 0.68549 0.45713 0.97019 0.0
C1869 C 0.71771 0.43021 0.96228 0.0
N1870 N 0.62241 0.42 0.97064 0.0
N1871 N 0.68854 0.41456 0.96455 0.0
H1872 H 0.44465 0.69008 0.81243 0.0
H1873 H 0.44718 0.83953 0.79278 0.0
H1874 H 0.51447 0.76326 0.77688 0.0
H1875 H 0.36868 0.75706 0.79862 0.0
H1876 H 0.47531 0.81514 0.79767 0.0
H1877 H 0.4202 0.71811 0.81852 0.0
C1878 C 0.45514 0.71238 0.80656 0.0
C1879 C 0.48159 0.72463 0.79438 0.0
C1880 C 0.45194 0.80249 0.79818 0.0
C1881 C 0.45382 0.75656 0.80091 0.0
C1882 C 0.43584 0.81636 0.79551 0.0
C1883 C 0.40549 0.80024 0.7951 0.0
C1884 C 0.43762 0.77236 0.80085 0.0
C1885 C 0.39201 0.77027 0.7986 0.0
C1886 C 0.44115 0.72825 0.80985 0.0
C1887 C 0.49424 0.75335 0.78666 0.0
N1888 N 0.40817 0.75728 0.80127 0.0
N1889 N 0.48016 0.76839 0.78996 0.0
H1890 H 0.22764 0.60265 0.81539 0.0
H1891 H 0.24414 0.75946 0.80369 0.0
H1892 H 0.15683 0.61444 0.7939 0.0
H1893 H 0.31199 0.73989 0.79049 0.0
H1894 H 0.2112 0.70809 0.81357 0.0
H1895 H 0.25777 0.65497 0.82104 0.0
C1896 C 0.21822 0.61628 0.81272 0.0
C1897 C 0.18985 0.6045 0.80438 0.0
C1898 C 0.23346 0.71528 0.80891 0.0
C1899 C 0.2241 0.6641 0.81018 0.0
C1900 C 0.25218 0.74445 0.80336 0.0
C1901 C 0.28059 0.75362 0.79607 0.0
C1902 C 0.24365 0.69563 0.8077 0.0
C1903 C 0.29009 0.73349 0.79578 0.0
C1904 C 0.2354 0.64606 0.81574 0.0
C1905 C 0.17859 0.6229 0.80069 0.0
N1906 N 0.27168 0.70547 0.80148 0.0
N1907 N 0.19589 0.65198 0.80335 0.0
H1908 H 0.39985 0.64713 0.79667 0.0
H1909 H 0.24799 0.50177 0.78916 0.0
H1910 H 0.39194 0.56271 0.79559 0.0
H1911 H 0.25915 0.58724 0.79591 0.0
H1912 H 0.29993 0.52232 0.79656 0.0
H1913 H 0.34784 0.62449 0.80177 0.0
C1914 C 0.38717 0.6238 0.79781 0.0
C1915 C 0.4002 0.60678 0.79545 0.0
C1916 C 0.29084 0.53644 0.79674 0.0
C1917 C 0.34037 0.58054 0.80084 0.0
C1918 C 0.26123 0.52472 0.79254 0.0
C1919 C 0.24931 0.54288 0.79151 0.0
C1920 C 0.30845 0.56644 0.79994 0.0
C1921 C 0.26742 0.57244 0.79615 0.0
C1922 C 0.35741 0.61082 0.80071 0.0
C1923 C 0.38271 0.57663 0.79725 0.0
N1924 N 0.29604 0.58328 0.79992 0.0
N1925 N 0.35357 0.5644 0.79945 0.0
H1926 H 0.38089 0.79967 0.01065 0.0
H1927 H 0.49252 0.76744 0.0804 0.0
H1928 H 0.41126 0.82578 0.08316 0.0
H1929 H 0.45607 0.72844 0.01193 0.0
H1930 H 0.47084 0.79779 0.07669 0.0
H1931 H 0.4153 0.78187 0.00613 0.0
C1932 C 0.39539 0.80238 0.02531 0.0
C1933 C 0.39335 0.81408 0.04732 0.0
C1934 C 0.46771 0.78289 0.06225 0.0
C1935 C 0.43226 0.79381 0.04244 0.0
C1936 C 0.48021 0.76562 0.06435 0.0
C1937 C 0.47587 0.74535 0.04652 0.0
C1938 C 0.45004 0.77951 0.04238 0.0
C1939 C 0.45985 0.7439 0.02604 0.0
C1940 C 0.41479 0.79205 0.02282 0.0
C1941 C 0.41215 0.81677 0.06594 0.0
N1942 N 0.44701 0.76045 0.02468 0.0
N1943 N 0.43064 0.80658 0.06312 0.0
H1944 H 0.22687 0.72142 0.03203 0.0
H1945 H 0.23933 0.58384 0.06066 0.0
H1946 H 0.30755 0.72344 0.04488 0.0
H1947 H 0.1618 0.57612 0.02962 0.0
H1948 H 0.26489 0.63503 0.0517 0.0
H1949 H 0.20289 0.66887 0.0274 0.0
C1950 C 0.23966 0.71092 0.03346 0.0
C1951 C 0.26918 0.7268 0.03938 0.0
C1952 C 0.24239 0.62229 0.04653 0.0
C1953 C 0.24184 0.66681 0.0342 0.0
C1954 C 0.22773 0.593 0.05174 0.0
C1955 C 0.19836 0.57587 0.04609 0.0
C1956 C 0.22747 0.63493 0.03612 0.0
C1957 C 0.18445 0.58875 0.03433 0.0
C1958 C 0.22593 0.68092 0.03079 0.0
C1959 C 0.28467 0.71207 0.04081 0.0
N1960 N 0.19904 0.61779 0.03012 0.0
N1961 N 0.27074 0.68291 0.03858 0.0
H1962 H 0.27248 0.49076 0.04477 0.0
H1963 H 0.40697 0.65074 0.03915 0.0
H1964 H 0.26697 0.56764 0.03315 0.0
H1965 H 0.41591 0.57615 0.05302 0.0
H1966 H 0.35629 0.61897 0.02954 0.0
H1967 H 0.32521 0.51972 0.04037 0.0
C1968 C 0.28232 0.51358 0.04071 0.0
C1969 C 0.26552 0.52701 0.03969 0.0
C1970 C 0.36927 0.60941 0.03448 0.0
C1971 C 0.32546 0.56012 0.03487 0.0
C1972 C 0.39823 0.62758 0.04005 0.0
C1973 C 0.41548 0.61603 0.04734 0.0
C1974 C 0.35719 0.57937 0.03655 0.0
C1975 C 0.40322 0.58589 0.04768 0.0
C1976 C 0.31238 0.53011 0.03835 0.0
C1977 C 0.27924 0.55659 0.0345 0.0
N1978 N 0.3746 0.56851 0.04276 0.0
N1979 N 0.30839 0.57218 0.03254 0.0
H1980 H 0.23018 0.50785 0.53826 0.0
H1981 H 0.25032 0.66599 0.5452 0.0
H1982 H 0.31254 0.58691 0.54102 0.0
H1983 H 0.16712 0.58822 0.55043 0.0
H1984 H 0.27244 0.63686 0.53653 0.0
H1985 H 0.20606 0.53643 0.5355 0.0
C1986 C 0.24324 0.53119 0.53781 0.0
C1987 C 0.27345 0.54503 0.54014 0.0
C1988 C 0.24932 0.62607 0.53943 0.0
C1989 C 0.24595 0.57775 0.53715 0.0
C1990 C 0.23664 0.64271 0.54447 0.0
C1991 C 0.20688 0.62947 0.54902 0.0
C1992 C 0.23223 0.59585 0.53909 0.0
C1993 C 0.19019 0.59927 0.54727 0.0
C1994 C 0.22942 0.54747 0.53636 0.0
C1995 C 0.28923 0.57531 0.5395 0.0
N1996 N 0.20317 0.5834 0.54273 0.0
N1997 N 0.27528 0.59061 0.53828 0.0
H1998 H 0.50668 0.73121 0.53085 0.0
H1999 H 0.35499 0.58392 0.52525 0.0
H2000 H 0.42379 0.72473 0.54156 0.0
H2001 H 0.43285 0.58682 0.54969 0.0
H2002 H 0.38267 0.63582 0.51687 0.0
H2003 H 0.48203 0.67854 0.52415 0.0
C2004 C 0.48328 0.71877 0.53104 0.0
C2005 C 0.46708 0.73205 0.53668 0.0
C2006 C 0.39385 0.62501 0.52354 0.0
C2007 C 0.43905 0.67249 0.52902 0.0
C2008 C 0.37812 0.59547 0.52821 0.0
C2009 C 0.3918 0.58138 0.53813 0.0
C2010 C 0.42347 0.64052 0.52892 0.0
C2011 C 0.42173 0.5971 0.54185 0.0
C2012 C 0.46931 0.68885 0.52742 0.0
C2013 C 0.43692 0.71514 0.53722 0.0
N2014 N 0.43664 0.62607 0.53747 0.0
N2015 N 0.42386 0.68622 0.53349 0.0
H2016 H 0.41905 0.84724 0.55452 0.0
H2017 H 0.26364 0.71665 0.51679 0.0
H2018 H 0.40247 0.7622 0.53476 0.0
H2019 H 0.27598 0.7877 0.56156 0.0
H2020 H 0.3163 0.73981 0.5118 0.0
H2021 H 0.36828 0.83182 0.54604 0.0
C2022 C 0.40486 0.82551 0.54804 0.0
C2023 C 0.41479 0.8058 0.54572 0.0
C2024 C 0.30742 0.75068 0.52221 0.0
C2025 C 0.35706 0.78822 0.53578 0.0
C2026 C 0.27748 0.73763 0.52483 0.0
C2027 C 0.2658 0.75056 0.53941 0.0
C2028 C 0.32553 0.77675 0.53426 0.0
C2029 C 0.28441 0.77732 0.55003 0.0
C2030 C 0.37594 0.81672 0.54325 0.0
C2031 C 0.39553 0.77791 0.53719 0.0
N2032 N 0.31346 0.7895 0.54738 0.0
N2033 N 0.36754 0.76989 0.53266 0.0
H2034 H 0.3138 0.56614 0.2741 0.0
H2035 H 0.16522 0.55505 0.30382 0.0
H2036 H 0.24548 0.48842 0.30617 0.0
H2037 H 0.24574 0.63571 0.29834 0.0
H2038 H 0.19258 0.52949 0.30684 0.0
H2039 H 0.28817 0.59134 0.28419 0.0
C2040 C 0.29339 0.55441 0.28351 0.0
C2041 C 0.28169 0.52513 0.28923 0.0
C2042 C 0.20417 0.55283 0.30552 0.0
C2043 C 0.25161 0.55387 0.30047 0.0
C2044 C 0.18861 0.56747 0.30381 0.0
C2045 C 0.2032 0.59759 0.30039 0.0
C2046 C 0.23441 0.56846 0.30363 0.0
C2047 C 0.2335 0.6125 0.30056 0.0
C2048 C 0.27875 0.56888 0.28936 0.0
C2049 C 0.25518 0.51103 0.30147 0.0
N2050 N 0.24801 0.59777 0.30177 0.0
N2051 N 0.24065 0.52544 0.30632 0.0
H2052 H 0.50284 0.74826 0.28336 0.0
H2053 H 0.35842 0.59713 0.29791 0.0
H2054 H 0.42098 0.73798 0.30581 0.0
H2055 H 0.44136 0.60361 0.28705 0.0
H2056 H 0.38257 0.64904 0.30469 0.0
H2057 H 0.48296 0.69599 0.28872 0.0
C2058 C 0.48093 0.73512 0.28989 0.0
C2059 C 0.46331 0.74728 0.29371 0.0
C2060 C 0.39564 0.6392 0.30109 0.0
C2061 C 0.44046 0.68784 0.29965 0.0
C2062 C 0.38178 0.60954 0.29713 0.0
C2063 C 0.3979 0.59619 0.29163 0.0
C2064 C 0.42588 0.65583 0.29911 0.0
C2065 C 0.42817 0.61317 0.29121 0.0
C2066 C 0.46956 0.70532 0.29285 0.0
C2067 C 0.43509 0.72936 0.30214 0.0
N2068 N 0.44122 0.64227 0.2945 0.0
N2069 N 0.42448 0.70058 0.30455 0.0
H2070 H 0.24879 0.68191 0.30743 0.0
H2071 H 0.38963 0.83884 0.30762 0.0
H2072 H 0.24552 0.7591 0.29178 0.0
H2073 H 0.38905 0.75831 0.30082 0.0
H2074 H 0.33682 0.8116 0.31377 0.0
H2075 H 0.29984 0.71143 0.31773 0.0
C2076 C 0.25887 0.70521 0.3066 0.0
C2077 C 0.24329 0.71821 0.2986 0.0
C2078 C 0.34844 0.79998 0.31155 0.0
C2079 C 0.30173 0.75219 0.30983 0.0
C2080 C 0.37847 0.81546 0.30828 0.0
C2081 C 0.39344 0.8006 0.30389 0.0
C2082 C 0.3337 0.76962 0.31065 0.0
C2083 C 0.37817 0.77041 0.30431 0.0
C2084 C 0.28796 0.72206 0.31242 0.0
C2085 C 0.25704 0.74843 0.29792 0.0
N2086 N 0.34914 0.75592 0.30749 0.0
N2087 N 0.28578 0.76453 0.3031 0.0
H2088 H 0.02992 0.20232 0.31163 0.0
H2089 H 0.96157 0.16514 0.18014 0.0
H2090 H 0.94057 0.13871 0.2986 0.0
H2091 H 0.05274 0.20049 0.19338 0.0
H2092 H 0.95305 0.16074 0.22359 0.0
H2093 H 0.03827 0.20722 0.26821 0.0
C2094 C 0.01204 0.18945 0.29963 0.0
C2095 C 0.98449 0.1701 0.30873 0.0
C2096 C 0.9749 0.16946 0.21694 0.0
C2097 C 0.9939 0.17576 0.2591 0.0
C2098 C 0.97981 0.17215 0.19218 0.0
C2099 C 0.00792 0.18324 0.18314 0.0
C2100 C 0.99831 0.17831 0.23276 0.0
C2101 C 0.03072 0.19176 0.19957 0.0
C2102 C 0.01686 0.19218 0.27488 0.0
C2103 C 0.96216 0.15382 0.29235 0.0
N2104 N 0.02543 0.18925 0.2236 0.0
N2105 N 0.96731 0.15715 0.2683 0.0
H2106 H 0.85552 0.79384 0.29577 0.0
H2107 H 0.8004 0.85264 0.18866 0.0
H2108 H 0.79715 0.82658 0.30688 0.0
H2109 H 0.82677 0.78922 0.17756 0.0
H2110 H 0.80395 0.84796 0.23215 0.0
H2111 H 0.85021 0.79663 0.25221 0.0
C2112 C 0.84159 0.80159 0.28905 0.0
C2113 C 0.82667 0.8099 0.30496 0.0
C2114 C 0.80879 0.83497 0.22017 0.0
C2115 C 0.82079 0.81342 0.2553 0.0
C2116 C 0.80686 0.83768 0.19537 0.0
C2117 C 0.8132 0.82121 0.17948 0.0
C2118 C 0.81766 0.81607 0.22912 0.0
C2119 C 0.82146 0.80216 0.18918 0.0
C2120 C 0.83849 0.80306 0.26423 0.0
C2121 C 0.80889 0.81976 0.29527 0.0
N2122 N 0.82368 0.80027 0.21339 0.0
N2123 N 0.8066 0.82144 0.27106 0.0
H2124 H 0.2101 0.05867 0.29868 0.0
H2125 H 0.15496 0.94478 0.18984 0.0
H2126 H 0.15953 0.96624 0.30862 0.0
H2127 H 0.19964 0.03742 0.18055 0.0
H2128 H 0.15924 0.95192 0.23355 0.0
H2129 H 0.20903 0.05105 0.25526 0.0
C2130 C 0.19882 0.0368 0.29177 0.0
C2131 C 0.18486 0.01311 0.30738 0.0
C2132 C 0.1682 0.97065 0.22188 0.0
C2133 C 0.18355 0.00418 0.25765 0.0
C2134 C 0.16584 0.96657 0.19695 0.0
C2135 C 0.17684 0.99049 0.18147 0.0
C2136 C 0.18171 0.99883 0.23135 0.0
C2137 C 0.19067 0.01827 0.19172 0.0
C2138 C 0.19821 0.03244 0.26696 0.0
C2139 C 0.17058 0.98521 0.29733 0.0
N2140 N 0.19263 0.02164 0.21595 0.0
N2141 N 0.17027 0.98153 0.27314 0.0
H2142 H 0.05214 0.83327 0.68536 0.0
H2143 H 0.94696 0.81597 0.79452 0.0
H2144 H 0.96627 0.82082 0.67698 0.0
H2145 H 0.02915 0.82025 0.80471 0.0
H2146 H 0.95474 0.81898 0.75126 0.0
H2147 H 0.04517 0.82972 0.72909 0.0
C2148 C 0.03185 0.82974 0.69267 0.0
C2149 C 0.00975 0.82727 0.67745 0.0
C2150 C 0.97108 0.8192 0.76291 0.0
C2151 C 0.0017 0.82331 0.72732 0.0
C2152 C 0.96665 0.81749 0.78768 0.0
C2153 C 0.98739 0.81776 0.80331 0.0
C2154 C 0.9965 0.82133 0.75361 0.0
C2155 C 0.01252 0.81986 0.79333 0.0
C2156 C 0.02788 0.82771 0.71761 0.0
C2157 C 0.98391 0.82276 0.68793 0.0
N2158 N 0.0164 0.8216 0.76908 0.0
N2159 N 0.98066 0.82098 0.71215 0.0
H2160 H 0.18444 0.15279 0.68301 0.0
H2161 H 0.18142 0.21561 0.81289 0.0
H2162 H 0.16517 0.22149 0.69333 0.0
H2163 H 0.1893 0.14 0.801 0.0
H2164 H 0.17814 0.22025 0.76936 0.0
H2165 H 0.18918 0.1502 0.72623 0.0
C2166 C 0.1813 0.16748 0.69435 0.0
C2167 C 0.17441 0.18745 0.68441 0.0
C2168 C 0.18062 0.20269 0.7763 0.0
C2169 C 0.17975 0.18443 0.73431 0.0
C2170 C 0.18257 0.20004 0.80116 0.0
C2171 C 0.18571 0.17739 0.81067 0.0
C2172 C 0.18194 0.18263 0.76083 0.0
C2173 C 0.18692 0.15781 0.79456 0.0
C2174 C 0.18395 0.16589 0.71913 0.0
C2175 C 0.17052 0.20578 0.70016 0.0
N2176 N 0.18507 0.16092 0.77048 0.0
N2177 N 0.17326 0.20383 0.72437 0.0
H2178 H 0.86209 0.05444 0.79729 0.0
H2179 H 0.7795 0.94767 0.68765 0.0
H2180 H 0.78552 0.97116 0.80742 0.0
H2181 H 0.84734 0.03657 0.68004 0.0
H2182 H 0.78168 0.95437 0.73149 0.0
H2183 H 0.85734 0.04685 0.75406 0.0
C2184 C 0.84417 0.03456 0.79042 0.0
C2185 C 0.82414 0.01343 0.80604 0.0
C2186 C 0.79595 0.97236 0.72012 0.0
C2187 C 0.81865 0.00447 0.75632 0.0
C2188 C 0.79477 0.96854 0.69514 0.0
C2189 C 0.81322 0.99158 0.68011 0.0
C2190 C 0.81586 0.99932 0.73002 0.0
C2191 C 0.83259 0.01816 0.69081 0.0
C2192 C 0.84145 0.03023 0.76567 0.0
C2193 C 0.80138 0.98809 0.79602 0.0
N2194 N 0.83342 0.02123 0.71502 0.0
N2195 N 0.7993 0.98423 0.77175 0.0
H2196 H 0.61704 0.46962 0.63533 0.0
H2197 H 0.72372 0.5577 0.52678 0.0
H2198 H 0.69882 0.5479 0.6458 0.0
H2199 H 0.63948 0.4821 0.51766 0.0
H2200 H 0.71562 0.55466 0.57034 0.0
H2201 H 0.6254 0.47414 0.59207 0.0
C2202 C 0.63673 0.48785 0.62855 0.0
C2203 C 0.65722 0.50844 0.6443 0.0
C2204 C 0.69892 0.53879 0.55876 0.0
C2205 C 0.66705 0.51367 0.59456 0.0
C2206 C 0.70355 0.54049 0.53389 0.0
C2207 C 0.68225 0.52016 0.51847 0.0
C2208 C 0.67286 0.51656 0.56827 0.0
C2209 C 0.65653 0.49833 0.52876 0.0
C2210 C 0.64151 0.49041 0.60379 0.0
C2211 C 0.68237 0.53155 0.63436 0.0
N2212 N 0.6526 0.49712 0.55294 0.0
N2213 N 0.6866 0.53351 0.61014 0.0
H2214 H 0.48741 0.18598 0.64981 0.0
H2215 H 0.48016 0.11606 0.52118 0.0
H2216 H 0.4995 0.1125 0.64046 0.0
H2217 H 0.48456 0.19826 0.53136 0.0
H2218 H 0.48391 0.11224 0.56471 0.0
H2219 H 0.48314 0.18857 0.60652 0.0
C2220 C 0.48909 0.17026 0.63866 0.0
C2221 C 0.49371 0.14886 0.64889 0.0
C2222 C 0.48401 0.13107 0.55741 0.0
C2223 C 0.48885 0.15185 0.59894 0.0
C2224 C 0.48173 0.13324 0.53255 0.0
C2225 C 0.48193 0.1575 0.52255 0.0
C2226 C 0.48633 0.15323 0.57243 0.0
C2227 C 0.48426 0.17915 0.53821 0.0
C2228 C 0.48673 0.17186 0.61385 0.0
C2229 C 0.49594 0.12933 0.63338 0.0
N2230 N 0.48631 0.17646 0.56234 0.0
N2231 N 0.49338 0.13123 0.60915 0.0
H2232 H 0.86001 0.36885 0.52418 0.0
H2233 H 0.84569 0.29882 0.65396 0.0
H2234 H 0.82877 0.27778 0.53438 0.0
H2235 H 0.86017 0.38489 0.64182 0.0
H2236 H 0.84374 0.29139 0.61039 0.0
H2237 H 0.86503 0.37577 0.56741 0.0
C2238 C 0.85433 0.35026 0.53549 0.0
C2239 C 0.84383 0.32262 0.52557 0.0
C2240 C 0.84738 0.31188 0.61732 0.0
C2241 C 0.84945 0.33051 0.57537 0.0
C2242 C 0.84856 0.31618 0.64216 0.0
C2243 C 0.85312 0.34254 0.65156 0.0
C2244 C 0.85097 0.33416 0.60181 0.0
C2245 C 0.85656 0.36421 0.63542 0.0
C2246 C 0.85713 0.35426 0.56025 0.0
C2247 C 0.83689 0.29945 0.54125 0.0
N2248 N 0.85546 0.35954 0.61137 0.0
N2249 N 0.83976 0.3039 0.56544 0.0
H2250 H 0.72629 0.19428 0.03702 0.0
H2251 H 0.60968 0.13094 0.14186 0.0
H2252 H 0.63679 0.13089 0.02421 0.0
H2253 H 0.70041 0.16264 0.15442 0.0
H2254 H 0.61909 0.1364 0.09855 0.0
H2255 H 0.71703 0.18845 0.08037 0.0
C2256 C 0.70472 0.17913 0.04333 0.0
C2257 C 0.68228 0.16293 0.02705 0.0
C2258 C 0.63687 0.14205 0.11083 0.0
C2259 C 0.67156 0.15648 0.0764 0.0
C2260 C 0.63156 0.13906 0.1355 0.0
C2261 C 0.65429 0.14623 0.1517 0.0
C2262 C 0.66517 0.15276 0.10238 0.0
C2263 C 0.68223 0.15664 0.14251 0.0
C2264 C 0.6995 0.17577 0.06802 0.0
C2265 C 0.65475 0.14362 0.03617 0.0
N2266 N 0.68693 0.15976 0.11842 0.0
N2267 N 0.6501 0.14106 0.06027 0.0
H2268 H 0.88424 0.49443 0.1389 0.0
H2269 H 0.80091 0.51857 0.02955 0.0
H2270 H 0.81199 0.50875 0.14704 0.0
H2271 H 0.88133 0.51894 0.02033 0.0
H2272 H 0.80356 0.51211 0.07266 0.0
H2273 H 0.88235 0.50024 0.0952 0.0
C2274 C 0.86799 0.49872 0.13154 0.0
C2275 C 0.84838 0.50129 0.14668 0.0
C2276 C 0.82071 0.51371 0.06125 0.0
C2277 C 0.84605 0.50785 0.09693 0.0
C2278 C 0.81921 0.51742 0.03659 0.0
C2279 C 0.841 0.51947 0.02129 0.0
C2280 C 0.84408 0.51182 0.07075 0.0
C2281 C 0.86414 0.51768 0.03148 0.0
C2282 C 0.86698 0.50212 0.10664 0.0
C2283 C 0.82775 0.50684 0.13615 0.0
N2284 N 0.86504 0.51388 0.05559 0.0
N2285 N 0.82714 0.5099 0.11201 0.0
H2286 H 0.47641 0.27865 0.02875 0.0
H2287 H 0.49862 0.38546 0.1383 0.0
H2288 H 0.48693 0.36347 0.01848 0.0
H2289 H 0.47983 0.29741 0.14669 0.0
H2290 H 0.4949 0.37856 0.09453 0.0
H2291 H 0.47834 0.28593 0.07212 0.0
C2292 C 0.47908 0.29883 0.03558 0.0
C2293 C 0.48145 0.32045 0.01984 0.0
C2294 C 0.49148 0.36075 0.10601 0.0
C2295 C 0.48379 0.329 0.06978 0.0
C2296 C 0.49358 0.36467 0.13101 0.0
C2297 C 0.48951 0.342 0.1463 0.0
C2298 C 0.48542 0.33403 0.09622 0.0
C2299 C 0.48311 0.31555 0.13574 0.0
C2300 C 0.48016 0.30297 0.06043 0.0
C2301 C 0.48493 0.34615 0.02989 0.0
N2302 N 0.48136 0.31237 0.11146 0.0
N2303 N 0.48606 0.34974 0.05421 0.0
H2304 H 0.32847 0.8792 0.85698 0.0
H2305 H 0.30778 0.79037 0.97512 0.0
H2306 H 0.36128 0.82017 0.86112 0.0
H2307 H 0.33682 0.88148 0.97912 0.0
H2308 H 0.31669 0.79533 0.93152 0.0
H2309 H 0.32095 0.87503 0.90072 0.0
C2310 C 0.33405 0.86538 0.86714 0.0
C2311 C 0.3456 0.85008 0.85564 0.0
C2312 C 0.32105 0.81414 0.94204 0.0
C2313 C 0.33643 0.84474 0.90509 0.0
C2314 C 0.31582 0.81132 0.96674 0.0
C2315 C 0.32163 0.83558 0.98054 0.0
C2316 C 0.33131 0.84119 0.93115 0.0
C2317 C 0.33224 0.86233 0.96901 0.0
C2318 C 0.32986 0.86311 0.89196 0.0
C2319 C 0.35255 0.83247 0.86948 0.0
N2320 N 0.33646 0.8644 0.94484 0.0
N2321 N 0.34751 0.82997 0.89355 0.0
H2322 H 0.1952 0.4769 0.97251 0.0
H2323 H 0.11118 0.49884 0.8623 0.0
H2324 H 0.11877 0.48402 0.98166 0.0
H2325 H 0.18439 0.48606 0.8543 0.0
H2326 H 0.11358 0.49404 0.90597 0.0
H2327 H 0.19161 0.48088 0.92912 0.0
C2328 C 0.1776 0.47925 0.96543 0.0
C2329 C 0.15721 0.48004 0.98085 0.0
C2330 C 0.12905 0.49223 0.89462 0.0
C2331 C 0.15302 0.48473 0.93093 0.0
C2332 C 0.1277 0.49496 0.86967 0.0
C2333 C 0.14757 0.4928 0.85451 0.0
C2334 C 0.15049 0.48741 0.90451 0.0
C2335 C 0.16853 0.48781 0.86517 0.0
C2336 C 0.17556 0.48153 0.94058 0.0
C2337 C 0.13495 0.48322 0.9705 0.0
N2338 N 0.16945 0.48534 0.88943 0.0
N2339 N 0.13346 0.48547 0.94621 0.0
H2340 H 0.47494 0.63044 0.98374 0.0
H2341 H 0.54799 0.69763 0.85675 0.0
H2342 H 0.54973 0.71553 0.97621 0.0
H2343 H 0.4669 0.61795 0.8647 0.0
H2344 H 0.55018 0.70395 0.90039 0.0
H2345 H 0.47286 0.62502 0.9402 0.0
C2346 C 0.49099 0.64803 0.97294 0.0
C2347 C 0.51264 0.67348 0.98373 0.0
C2348 C 0.53191 0.6851 0.89258 0.0
C2349 C 0.51032 0.66731 0.93361 0.0
C2350 C 0.53066 0.6814 0.86765 0.0
C2351 C 0.50726 0.65713 0.85699 0.0
C2352 C 0.50966 0.66434 0.90702 0.0
C2353 C 0.48539 0.63695 0.87207 0.0
C2354 C 0.48973 0.64491 0.94802 0.0
C2355 C 0.53268 0.69554 0.9687 0.0
N2356 N 0.48718 0.64098 0.89628 0.0
N2357 N 0.53109 0.69191 0.9444 0.0
H2358 H 0.32317 0.44325 0.35581 0.0
H2359 H 0.31054 0.51705 0.47433 0.0
H2360 H 0.35775 0.53542 0.3582 0.0
H2361 H 0.33813 0.4539 0.47833 0.0
H2362 H 0.31694 0.51898 0.43044 0.0
H2363 H 0.31777 0.44147 0.39984 0.0
C2364 C 0.3295 0.46306 0.3656 0.0
C2365 C 0.34101 0.48955 0.35342 0.0
C2366 C 0.32154 0.50471 0.44099 0.0
C2367 C 0.33426 0.4875 0.40345 0.0
C2368 C 0.31776 0.50347 0.46593 0.0
C2369 C 0.32386 0.48531 0.47992 0.0
C2370 C 0.3306 0.48701 0.4299 0.0
C2371 C 0.33334 0.46829 0.46818 0.0
C2372 C 0.32654 0.46203 0.39065 0.0
C2373 C 0.34898 0.51461 0.36696 0.0
N2374 N 0.3361 0.46928 0.44378 0.0
N2375 N 0.34512 0.51294 0.39124 0.0
H2376 H 0.52561 0.82278 0.35631 0.0
H2377 H 0.48751 0.86415 0.48343 0.0
H2378 H 0.48696 0.87656 0.36404 0.0
H2379 H 0.54062 0.82481 0.47518 0.0
H2380 H 0.48601 0.8679 0.43982 0.0
H2381 H 0.5302 0.82233 0.39985 0.0
C2382 C 0.51813 0.83458 0.36716 0.0
C2383 C 0.50581 0.84971 0.35649 0.0
C2384 C 0.49811 0.85858 0.44755 0.0
C2385 C 0.51094 0.84914 0.40647 0.0
C2386 C 0.49893 0.85635 0.47247 0.0
C2387 C 0.51419 0.84407 0.483 0.0
C2388 C 0.51242 0.84825 0.43301 0.0
C2389 C 0.52862 0.83444 0.46785 0.0
C2390 C 0.52085 0.83435 0.39205 0.0
C2391 C 0.49662 0.86466 0.37149 0.0
N2392 N 0.52725 0.8366 0.4436 0.0
N2393 N 0.49923 0.86386 0.39576 0.0
H2394 H 0.14611 0.69483 0.35375 0.0
H2395 H 0.15574 0.63522 0.48348 0.0
H2396 H 0.14742 0.61563 0.36552 0.0
H2397 H 0.16047 0.71755 0.47302 0.0
H2398 H 0.1514 0.62749 0.44023 0.0
H2399 H 0.14984 0.70314 0.39722 0.0
C2400 C 0.14704 0.67911 0.36544 0.0
C2401 C 0.14638 0.65444 0.35591 0.0
C2402 C 0.15339 0.64728 0.44733 0.0
C2403 C 0.15078 0.66393 0.40568 0.0
C2404 C 0.15585 0.65173 0.4721 0.0
C2405 C 0.15841 0.67709 0.48199 0.0
C2406 C 0.15342 0.66827 0.43215 0.0
C2407 C 0.15855 0.69769 0.46621 0.0
C2408 C 0.14926 0.68394 0.39026 0.0
C2409 C 0.14781 0.63493 0.37198 0.0
N2410 N 0.15603 0.69281 0.44206 0.0
N2411 N 0.14994 0.6401 0.39602 0.0
H2412 H 0.10064 0.38203 0.02729 0.0
H2413 H 0.04402 0.27768 0.13452 0.0
H2414 H 0.08681 0.41167 0.09549 0.0
H2415 H 0.00959 0.24638 0.06372 0.0
H2416 H 0.0602 0.32708 0.12105 0.0
H2417 H 0.06764 0.3321 0.03969 0.0
C2418 C 0.09022 0.37799 0.0447 0.0
C2419 C 0.09649 0.40085 0.06049 0.0
C2420 C 0.04852 0.30934 0.10862 0.0
C2421 C 0.05944 0.34406 0.07491 0.0
C2422 C 0.03942 0.28125 0.11626 0.0
C2423 C 0.02562 0.25813 0.10013 0.0
C2424 C 0.04462 0.31433 0.0845 0.0
C2425 C 0.02011 0.26373 0.07666 0.0
C2426 C 0.07133 0.34958 0.05171 0.0
C2427 C 0.08243 0.39457 0.08282 0.0
N2428 N 0.03028 0.29144 0.06933 0.0
N2429 N 0.06504 0.36664 0.08964 0.0
H2430 H 0.72155 0.77608 0.13124 0.0
H2431 H 0.60519 0.688 0.03038 0.0
H2432 H 0.74542 0.75478 0.06341 0.0
H2433 H 0.5852 0.70101 0.10273 0.0
H2434 H 0.65575 0.70623 0.04272 0.0
H2435 H 0.67101 0.74311 0.1221 0.0
C2436 C 0.71608 0.76421 0.11444 0.0
C2437 C 0.73761 0.76837 0.09793 0.0
C2438 C 0.64011 0.70438 0.05601 0.0
C2439 C 0.67947 0.73074 0.08702 0.0
C2440 C 0.61132 0.6938 0.049 0.0
C2441 C 0.5913 0.69309 0.06565 0.0
C2442 C 0.6486 0.71434 0.07971 0.0
C2443 C 0.60015 0.7013 0.08943 0.0
C2444 C 0.68716 0.74527 0.10921 0.0
C2445 C 0.72936 0.75217 0.07657 0.0
N2446 N 0.62816 0.71183 0.09568 0.0
N2447 N 0.70081 0.73438 0.07149 0.0
H2448 H 0.25353 0.98346 0.12147 0.0
H2449 H 0.2665 0.87762 0.02711 0.0
H2450 H 0.19569 0.94073 0.06212 0.0
H2451 H 0.32109 0.91013 0.08986 0.0
H2452 H 0.24712 0.9091 0.03601 0.0
H2453 H 0.28487 0.96497 0.10682 0.0
C2454 C 0.24782 0.97072 0.10514 0.0
C2455 C 0.22193 0.96319 0.0931 0.0
C2456 C 0.2635 0.90963 0.04781 0.0
C2457 C 0.25724 0.94223 0.07636 0.0
C2458 C 0.27457 0.89159 0.04272 0.0
C2459 C 0.2951 0.89095 0.05798 0.0
C2460 C 0.27258 0.92691 0.06859 0.0
C2461 C 0.30513 0.9099 0.07772 0.0
C2462 C 0.26554 0.96009 0.09686 0.0
C2463 C 0.21529 0.94661 0.0721 0.0
N2464 N 0.29341 0.92684 0.08272 0.0
N2465 N 0.23269 0.93658 0.06451 0.0
H2466 H 0.27987 0.09449 0.37646 0.0
H2467 H 0.40874 0.07497 0.42363 0.0
H2468 H 0.26114 0.00865 0.39603 0.0
H2469 H 0.39564 0.14608 0.44209 0.0
H2470 H 0.35995 0.04987 0.40547 0.0
H2471 H 0.32919 0.11362 0.39024 0.0
C2472 C 0.28621 0.07955 0.38346 0.0
C2473 C 0.26616 0.04997 0.38557 0.0
C2474 C 0.36792 0.07087 0.4137 0.0
C2475 C 0.32287 0.07198 0.40151 0.0
C2476 C 0.39562 0.08518 0.42402 0.0
C2477 C 0.40626 0.11265 0.43446 0.0
C2478 C 0.35139 0.08462 0.41334 0.0
C2479 C 0.38842 0.12493 0.43443 0.0
C2480 C 0.31439 0.09055 0.39136 0.0
C2481 C 0.27592 0.03163 0.39427 0.0
N2482 N 0.36211 0.11099 0.42384 0.0
N2483 N 0.30369 0.04301 0.40226 0.0
H2484 H 0.92841 0.21362 0.358 0.0
H2485 H 0.91873 0.31602 0.45815 0.0
H2486 H 0.98563 0.24383 0.41931 0.0
H2487 H 0.85148 0.26265 0.40785 0.0
H2488 H 0.95018 0.29976 0.43957 0.0
H2489 H 0.90769 0.24283 0.37088 0.0
C2490 C 0.93688 0.22671 0.37405 0.0
C2491 C 0.95842 0.22591 0.38783 0.0
C2492 C 0.92862 0.29194 0.43255 0.0
C2493 C 0.93439 0.25914 0.40296 0.0
C2494 C 0.91078 0.30121 0.44307 0.0
C2495 C 0.8824 0.29023 0.43473 0.0
C2496 C 0.918 0.27215 0.41334 0.0
C2497 C 0.87305 0.2712 0.41512 0.0
C2498 C 0.92499 0.24336 0.38144 0.0
C2499 C 0.96889 0.24372 0.40826 0.0
N2500 N 0.89073 0.26276 0.40518 0.0
N2501 N 0.95641 0.25932 0.41549 0.0
H2502 H 0.75947 0.74993 0.42254 0.0
H2503 H 0.69155 0.58092 0.39747 0.0
H2504 H 0.77445 0.71375 0.35849 0.0
H2505 H 0.70819 0.61686 0.46891 0.0
H2506 H 0.7072 0.629 0.3809 0.0
H2507 H 0.72699 0.70072 0.43741 0.0
C2508 C 0.75541 0.73165 0.41139 0.0
C2509 C 0.76982 0.73582 0.38935 0.0
C2510 C 0.70668 0.62627 0.40023 0.0
C2511 C 0.73269 0.67985 0.40609 0.0
C2512 C 0.69747 0.59886 0.40967 0.0
C2513 C 0.69833 0.59513 0.43451 0.0
C2514 C 0.71699 0.65008 0.4158 0.0
C2515 C 0.70689 0.619 0.44965 0.0
C2516 C 0.73703 0.70367 0.41993 0.0
C2517 C 0.764 0.71145 0.37568 0.0
N2518 N 0.71622 0.64566 0.44003 0.0
N2519 N 0.74597 0.68452 0.38431 0.0
H2520 H 0.86133 0.61362 0.94804 0.0
H2521 H 0.00195 0.74812 0.90506 0.0
H2522 H 0.92758 0.59516 0.92481 0.0
H2523 H 0.9194 0.72175 0.87161 0.0
H2524 H 0.98149 0.69898 0.92207 0.0
H2525 H 0.88948 0.66211 0.93164 0.0
C2526 C 0.88202 0.61984 0.93985 0.0
C2527 C 0.89199 0.60015 0.93765 0.0
C2528 C 0.96827 0.70416 0.91066 0.0
C2529 C 0.92432 0.65585 0.91905 0.0
C2530 C 0.9798 0.73203 0.90101 0.0
C2531 C 0.96233 0.73916 0.88699 0.0
C2532 C 0.93908 0.68388 0.90665 0.0
C2533 C 0.93374 0.71746 0.88234 0.0
C2534 C 0.89796 0.6475 0.93044 0.0
C2535 C 0.91903 0.60963 0.92673 0.0
N2536 N 0.92292 0.69104 0.89248 0.0
N2537 N 0.93439 0.63698 0.91771 0.0
H2538 H 0.3857 0.28066 0.97021 0.0
H2539 H 0.28297 0.22921 0.8603 0.0
H2540 H 0.41794 0.31925 0.90072 0.0
H2541 H 0.25169 0.23901 0.92915 0.0
H2542 H 0.3327 0.26014 0.87439 0.0
H2543 H 0.33624 0.26311 0.95597 0.0
C2544 C 0.38233 0.28583 0.95209 0.0
C2545 C 0.40583 0.3014 0.93659 0.0
C2546 C 0.31493 0.25595 0.88623 0.0
C2547 C 0.3495 0.28077 0.92006 0.0
C2548 C 0.28661 0.23827 0.87826 0.0
C2549 C 0.26329 0.23161 0.89362 0.0
C2550 C 0.3199 0.26624 0.90998 0.0
C2551 C 0.26913 0.24382 0.91673 0.0
C2552 C 0.35418 0.2759 0.94401 0.0
C2553 C 0.40036 0.30747 0.91325 0.0
N2554 N 0.29692 0.26008 0.92442 0.0
N2555 N 0.37268 0.29659 0.90548 0.0
H2556 H 0.7512 0.13758 0.96023 0.0
H2557 H 0.74114 0.00035 0.90303 0.0
H2558 H 0.67084 0.08248 0.92323 0.0
H2559 H 0.80917 0.08647 0.88504 0.0
H2560 H 0.71293 0.02143 0.91992 0.0
H2561 H 0.77101 0.10903 0.94395 0.0
C2562 C 0.73746 0.11922 0.94897 0.0
C2563 C 0.70933 0.11267 0.94287 0.0
C2564 C 0.7339 0.0354 0.91194 0.0
C2565 C 0.73213 0.07977 0.92441 0.0
C2566 C 0.75 0.02353 0.90244 0.0
C2567 C 0.77755 0.0417 0.89263 0.0
C2568 C 0.74598 0.0655 0.91213 0.0
C2569 C 0.78804 0.07158 0.8923 0.0
C2570 C 0.74891 0.10301 0.93968 0.0
C2571 C 0.69269 0.0884 0.92823 0.0
N2572 N 0.77245 0.08253 0.90224 0.0
N2573 N 0.70443 0.07276 0.91931 0.0
H2574 H 0.72837 0.98686 0.62197 0.0
H2575 H 0.60651 0.88644 0.52716 0.0
H2576 H 0.73948 0.94091 0.56299 0.0
H2577 H 0.58627 0.9118 0.59463 0.0
H2578 H 0.65791 0.91849 0.53511 0.0
H2579 H 0.67873 0.97049 0.6078 0.0
C2580 C 0.7205 0.97376 0.60587 0.0
C2581 C 0.73765 0.96472 0.59382 0.0
C2582 C 0.64231 0.91753 0.54805 0.0
C2583 C 0.68172 0.94648 0.57746 0.0
C2584 C 0.61305 0.89941 0.5434 0.0
C2585 C 0.5925 0.89672 0.56029 0.0
C2586 C 0.65104 0.93253 0.57 0.0
C2587 C 0.60175 0.91361 0.58119 0.0
C2588 C 0.69229 0.96441 0.59785 0.0
C2589 C 0.72667 0.94786 0.57304 0.0
N2590 N 0.63053 0.93058 0.5857 0.0
N2591 N 0.69942 0.93921 0.56561 0.0
H2592 H 0.0145 0.74602 0.62452 0.0
H2593 H 0.09621 0.70941 0.52224 0.0
H2594 H 0.04544 0.79139 0.5573 0.0
H2595 H 0.0908 0.68241 0.59595 0.0
H2596 H 0.06206 0.72609 0.53116 0.0
H2597 H 0.02786 0.71037 0.61072 0.0
C2598 C 0.0234 0.74796 0.60666 0.0
C2599 C 0.02929 0.77164 0.59205 0.0
C2600 C 0.0677 0.71581 0.54526 0.0
C2601 C 0.04424 0.73134 0.5762 0.0
C2602 C 0.08693 0.7061 0.5401 0.0
C2603 C 0.09598 0.6945 0.55841 0.0
C2604 C 0.05797 0.71435 0.56901 0.0
C2605 C 0.08397 0.6911 0.58139 0.0
C2606 C 0.03108 0.72779 0.59884 0.0
C2607 C 0.04094 0.7735 0.56913 0.0
N2608 N 0.06585 0.70143 0.5862 0.0
N2609 N 0.04821 0.75376 0.56197 0.0
H2610 H 0.32621 0.41508 0.59258 0.0
H2611 H 0.19832 0.25577 0.56318 0.0
H2612 H 0.26979 0.39079 0.53088 0.0
H2613 H 0.25028 0.27525 0.6272 0.0
H2614 H 0.23073 0.30417 0.54817 0.0
H2615 H 0.30487 0.36361 0.60296 0.0
C2616 C 0.30974 0.39893 0.58101 0.0
C2617 C 0.29946 0.40719 0.56103 0.0
C2618 C 0.23543 0.29799 0.5654 0.0
C2619 C 0.27512 0.34864 0.57271 0.0
C2620 C 0.21694 0.2703 0.57392 0.0
C2621 C 0.22165 0.26177 0.59646 0.0
C2622 C 0.25855 0.3177 0.57979 0.0
C2623 C 0.24608 0.2812 0.60968 0.0
C2624 C 0.29753 0.36962 0.58698 0.0
C2625 C 0.27807 0.38547 0.54667 0.0
N2626 N 0.26346 0.3086 0.60132 0.0
N2627 N 0.26654 0.35732 0.55288 0.0
H2628 H 0.06074 0.41563 0.80153 0.0
H2629 H 0.947 0.38643 0.69743 0.0
H2630 H 0.08096 0.45729 0.73225 0.0
H2631 H 0.92198 0.34435 0.76653 0.0
H2632 H 0.99742 0.40434 0.7075 0.0
H2633 H 0.01152 0.38165 0.78704 0.0
C2634 C 0.05501 0.41696 0.78307 0.0
C2635 C 0.0746 0.43911 0.76797 0.0
C2636 C 0.98102 0.39092 0.72045 0.0
C2637 C 0.01886 0.40105 0.75147 0.0
C2638 C 0.95219 0.38069 0.71467 0.0
C2639 C 0.93041 0.36427 0.73132 0.0
C2640 C 0.9883 0.3853 0.74332 0.0
C2641 C 0.93825 0.35709 0.75325 0.0
C2642 C 0.02697 0.39779 0.77486 0.0
C2643 C 0.06628 0.44044 0.74437 0.0
N2644 N 0.96669 0.36815 0.75886 0.0
N2645 N 0.039 0.42188 0.73693 0.0
H2646 H 0.5385 0.59052 0.79799 0.0
H2647 H 0.67384 0.59582 0.73797 0.0
H2648 H 0.59281 0.66688 0.75599 0.0
H2649 H 0.58654 0.52542 0.7283 0.0
H2650 H 0.65404 0.62521 0.75498 0.0
H2651 H 0.56723 0.56949 0.78467 0.0
C2652 C 0.55674 0.60315 0.78625 0.0
C2653 C 0.56289 0.63038 0.77774 0.0
C2654 C 0.63949 0.60337 0.74892 0.0
C2655 C 0.59601 0.60625 0.76271 0.0
C2656 C 0.65066 0.58665 0.73934 0.0
C2657 C 0.63177 0.55824 0.7316 0.0
C2658 C 0.60947 0.59102 0.75139 0.0
C2659 C 0.60192 0.54727 0.73379 0.0
C2660 C 0.57309 0.59105 0.7787 0.0
C2661 C 0.58714 0.64571 0.76278 0.0
N2662 N 0.59176 0.56353 0.74373 0.0
N2663 N 0.60278 0.63327 0.75546 0.0
H2664 H 0.46695 0.07935 0.76954 0.0
H2665 H 0.3415 0.9189 0.74199 0.0
H2666 H 0.41514 0.05787 0.70526 0.0
H2667 H 0.39332 0.94635 0.8065 0.0
H2668 H 0.36221 0.96988 0.73026 0.0
H2669 H 0.43439 0.03156 0.78554 0.0
C2670 C 0.4484 0.06446 0.75891 0.0
C2671 C 0.44376 0.07224 0.73602 0.0
C2672 C 0.3686 0.96468 0.74717 0.0
C2673 C 0.40658 0.01703 0.75391 0.0
C2674 C 0.35672 0.93565 0.75391 0.0
C2675 C 0.36606 0.92846 0.77507 0.0
C2676 C 0.38977 0.98643 0.76181 0.0
C2677 C 0.38587 0.9509 0.78984 0.0
C2678 C 0.42976 0.03714 0.76802 0.0
C2679 C 0.41934 0.05245 0.723 0.0
N2680 N 0.3972 0.97875 0.78282 0.0
N2681 N 0.40182 0.02539 0.73196 0.0
H2682 H 0.60843 0.0478 0.1965 0.0
H2683 H 0.58524 0.93497 0.30014 0.0
H2684 H 0.65492 0.07343 0.26372 0.0
H2685 H 0.53447 0.91616 0.23544 0.0
H2686 H 0.61899 0.98349 0.28406 0.0
H2687 H 0.59 0.99742 0.20702 0.0
C2688 C 0.61504 0.04275 0.21339 0.0
C2689 C 0.6328 0.0647 0.22945 0.0
C2690 C 0.60075 0.96848 0.27324 0.0
C2691 C 0.61121 0.00693 0.24198 0.0
C2692 C 0.58167 0.94088 0.28236 0.0
C2693 C 0.55704 0.92198 0.26913 0.0
C2694 C 0.59504 0.97671 0.25076 0.0
C2695 C 0.55309 0.93041 0.24628 0.0
C2696 C 0.6045 0.01396 0.21944 0.0
C2697 C 0.64109 0.05703 0.25092 0.0
N2698 N 0.57173 0.95718 0.23791 0.0
N2699 N 0.62973 0.02865 0.25684 0.0
H2700 H 0.05241 0.60287 0.30575 0.0
H2701 H 0.93658 0.58215 0.20488 0.0
H2702 H 0.07807 0.65108 0.23935 0.0
H2703 H 0.92328 0.52308 0.26282 0.0
H2704 H 0.98584 0.61486 0.22041 0.0
H2705 H 0.00211 0.5818 0.29396 0.0
C2706 C 0.04739 0.60924 0.28873 0.0
C2707 C 0.06942 0.62836 0.27332 0.0
C2708 C 0.9719 0.59484 0.22975 0.0
C2709 C 0.01165 0.60381 0.2594 0.0
C2710 C 0.94391 0.57631 0.22097 0.0
C2711 C 0.92617 0.54978 0.23243 0.0
C2712 C 0.9816 0.58683 0.25032 0.0
C2713 C 0.93648 0.54311 0.25321 0.0
C2714 C 0.01863 0.59715 0.28197 0.0
C2715 C 0.06164 0.63625 0.25167 0.0
N2716 N 0.96342 0.56142 0.26141 0.0
N2717 N 0.03328 0.62353 0.2451 0.0
H2718 H 0.33597 0.41261 0.24215 0.0
H2719 H 0.46176 0.3779 0.27002 0.0
H2720 H 0.38981 0.43981 0.30551 0.0
H2721 H 0.41259 0.35143 0.20423 0.0
H2722 H 0.4284 0.39208 0.28627 0.0
H2723 H 0.35666 0.38225 0.2308 0.0
C2724 C 0.35163 0.41168 0.25393 0.0
C2725 C 0.36149 0.42901 0.27464 0.0
C2726 C 0.42449 0.38283 0.26839 0.0
C2727 C 0.38522 0.3946 0.26179 0.0
C2728 C 0.4435 0.37465 0.25918 0.0
C2729 C 0.43984 0.36365 0.23581 0.0
C2730 C 0.40197 0.38072 0.2539 0.0
C2731 C 0.41594 0.35979 0.2224 0.0
C2732 C 0.36352 0.39449 0.24739 0.0
C2733 C 0.3819 0.42714 0.28921 0.0
N2734 N 0.39809 0.36883 0.2315 0.0
N2735 N 0.39321 0.4105 0.2824 0.0
loop_
_geom_bond_atom_site_label_1
_geom_bond_atom_site_label_2
_geom_bond_distance
_geom_bond_site_symmetry_2
_ccdc_geom_bond_type
Fe0 O2 1.918 . S
Fe0 O5 1.997 . S
Fe0 O6 2.002 1_455 S
Fe0 O11 1.976 1_455 S
Fe0 O14 1.996 . S
Fe1 O2 1.918 1_655 S
Fe1 O9 1.997 . S
Fe1 O12 1.996 . S
Fe1 O16 1.978 1_655 S
Fe1 O19 2.002 . S
O2 Fe0 1.918 . S
O2 Fe1 1.918 1_455 S
O2 Fe3 1.918 . S
Fe3 O2 1.918 . S
Fe3 O4 2.002 . S
Fe3 O13 1.976 . S
Fe3 O17 1.996 . S
Fe3 O20 1.997 . S
O4 Fe3 2.002 . S
O4 C21 1.295 . S
O5 Fe0 1.997 . S
O5 C21 1.235 . S
O6 Fe0 2.002 1_655 S
O6 C7 1.295 . S
C7 O6 1.295 . S
C7 O9 1.235 . S
C8 O13 1.287 . S
C8 O14 1.255 . S
O9 Fe1 1.997 . S
O9 C7 1.235 . S
C10 O16 1.316 . S
C10 O17 1.255 . S
O11 Fe0 1.976 1_655 S
O11 C18 1.287 . S
O12 Fe1 1.996 . S
O12 C18 1.255 . S
O13 Fe3 1.976 . S
O13 C8 1.287 . S
O14 Fe0 1.996 . S
O14 C8 1.255 . S
C15 O19 1.295 1_455 S
C15 O20 1.235 . S
O16 Fe1 1.978 1_455 S
O16 C10 1.316 . S
O17 Fe3 1.996 . S
O17 C10 1.255 . S
C18 O11 1.287 . S
C18 O12 1.255 . S
O19 Fe1 2.002 . S
O19 C15 1.295 1_655 S
O20 Fe3 1.997 . S
O20 C15 1.235 . S
C21 O4 1.295 . S
C21 O5 1.235 . S
Fe22 O24 1.918 . S
Fe22 O27 1.997 . S
Fe22 O28 2.002 . S
Fe22 O33 1.976 . S
Fe22 O36 1.996 . S
Fe23 O24 1.918 . S
Fe23 O31 1.997 . S
Fe23 O34 1.996 . S
Fe23 O38 1.976 . S
Fe23 O41 2.002 . S
O24 Fe22 1.918 . S
O24 Fe23 1.918 . S
O24 Fe25 1.918 . S
Fe25 O24 1.918 . S
Fe25 O26 2.002 . S
Fe25 O35 1.976 . S
Fe25 O39 1.996 . S
Fe25 O42 1.997 . S
O26 Fe25 2.002 . S
O26 C43 1.295 . S
O27 Fe22 1.997 . S
O27 C43 1.235 . S
O28 Fe22 2.002 . S
O28 C29 1.295 . S
C29 O28 1.295 . S
C29 O31 1.235 . S
C30 O35 1.287 . S
C30 O36 1.255 . S
O31 Fe23 1.997 . S
O31 C29 1.235 . S
C32 O38 1.287 . S
C32 O39 1.255 . S
O33 Fe22 1.976 . S
O33 C40 1.287 . S
O34 Fe23 1.996 . S
O34 C40 1.255 . S
O35 Fe25 1.976 . S
O35 C30 1.287 . S
O36 Fe22 1.996 . S
O36 C30 1.255 . S
C37 O41 1.295 . S
C37 O42 1.235 . S
O38 Fe23 1.976 . S
O38 C32 1.287 . S
O39 Fe25 1.996 . S
O39 C32 1.255 . S
C40 O33 1.287 . S
C40 O34 1.255 . S
O41 Fe23 2.002 . S
O41 C37 1.295 . S
O42 Fe25 1.997 . S
O42 C37 1.235 . S
C43 O26 1.295 . S
C43 O27 1.235 . S
Fe44 O46 1.918 . S
Fe44 O49 1.997 . S
Fe44 O50 2.002 . S
Fe44 O55 1.976 . S
Fe44 O58 1.996 . S
Fe45 O46 1.918 . S
Fe45 O53 1.997 . S
Fe45 O56 1.996 . S
Fe45 O60 1.976 1_565 S
Fe45 O63 2.002 1_565 S
O46 Fe44 1.918 . S
O46 Fe45 1.918 . S
O46 Fe47 1.918 1_565 S
Fe47 O46 1.918 1_545 S
Fe47 O48 2.002 . S
Fe47 O57 1.940 1_545 S
Fe47 O61 1.996 . S
Fe47 O64 1.997 . S
O48 Fe47 2.002 . S
O48 C65 1.295 1_545 S
O49 Fe44 1.997 . S
O49 C65 1.235 . S
O50 Fe44 2.002 . S
O50 C51 1.295 . S
C51 O50 1.295 . S
C51 O53 1.235 . S
C52 O57 1.329 . S
C52 O58 1.255 . S
O53 Fe45 1.997 . S
O53 C51 1.235 . S
C54 O60 1.287 . S
C54 O61 1.255 . S
O55 Fe44 1.976 . S
O55 C62 1.287 . S
O56 Fe45 1.996 . S
O56 C62 1.255 . S
O57 Fe47 1.940 1_565 S
O57 C52 1.329 . S
O58 Fe44 1.996 . S
O58 C52 1.255 . S
C59 O63 1.295 . S
C59 O64 1.235 . S
O60 Fe45 1.976 1_545 S
O60 C54 1.287 . S
O61 Fe47 1.996 . S
O61 C54 1.255 . S
C62 O55 1.287 . S
C62 O56 1.255 . S
O63 Fe45 2.002 1_545 S
O63 C59 1.295 . S
O64 Fe47 1.997 . S
O64 C59 1.235 . S
C65 O48 1.295 1_565 S
C65 O49 1.235 . S
Fe66 O68 1.918 . S
Fe66 O71 1.997 . S
Fe66 O72 2.002 1_545 S
Fe66 O77 1.976 1_545 S
Fe66 O80 1.996 . S
Fe67 O68 1.918 1_565 S
Fe67 O75 1.997 . S
Fe67 O78 1.996 . S
Fe67 O82 1.978 1_565 S
Fe67 O85 2.002 . S
O68 Fe66 1.918 . S
O68 Fe67 1.918 1_545 S
O68 Fe69 1.918 . S
Fe69 O68 1.918 . S
Fe69 O70 2.002 . S
Fe69 O79 1.976 . S
Fe69 O83 1.996 . S
Fe69 O86 1.997 . S
O70 Fe69 2.002 . S
O70 C87 1.295 . S
O71 Fe66 1.997 . S
O71 C87 1.235 . S
O72 Fe66 2.002 1_565 S
O72 C73 1.295 . S
C73 O72 1.295 . S
C73 O75 1.235 . S
C74 O79 1.287 . S
C74 O80 1.255 . S
O75 Fe67 1.997 . S
O75 C73 1.235 . S
C76 O82 1.316 . S
C76 O83 1.255 . S
O77 Fe66 1.976 1_565 S
O77 C84 1.287 . S
O78 Fe67 1.996 . S
O78 C84 1.255 . S
O79 Fe69 1.976 . S
O79 C74 1.287 . S
O80 Fe66 1.996 . S
O80 C74 1.255 . S
C81 O85 1.295 1_545 S
C81 O86 1.235 . S
O82 Fe67 1.978 1_545 S
O82 C76 1.316 . S
O83 Fe69 1.996 . S
O83 C76 1.255 . S
C84 O77 1.287 . S
C84 O78 1.255 . S
O85 Fe67 2.002 . S
O85 C81 1.295 1_565 S
O86 Fe69 1.997 . S
O86 C81 1.235 . S
C87 O70 1.295 . S
C87 O71 1.235 . S
Fe88 O90 1.918 . S
Fe88 O93 1.997 . S
Fe88 O94 2.002 1_655 S
Fe88 O99 1.976 1_655 S
Fe88 O102 1.996 . S
Fe89 O90 1.918 1_455 S
Fe89 O97 1.997 . S
Fe89 O100 1.996 . S
Fe89 O104 1.940 1_455 S
Fe89 O107 2.002 . S
O90 Fe88 1.918 . S
O90 Fe89 1.918 1_655 S
O90 Fe91 1.918 . S
Fe91 O90 1.918 . S
Fe91 O92 2.002 . S
Fe91 O101 1.976 . S
Fe91 O105 1.996 . S
Fe91 O108 1.997 . S
O92 Fe91 2.002 . S
O92 C109 1.295 . S
O93 Fe88 1.997 . S
O93 C109 1.235 . S
O94 Fe88 2.002 1_455 S
O94 C95 1.295 . S
C95 O94 1.295 . S
C95 O97 1.235 . S
C96 O101 1.287 . S
C96 O102 1.255 . S
O97 Fe89 1.997 . S
O97 C95 1.235 . S
C98 O104 1.329 . S
C98 O105 1.255 . S
O99 Fe88 1.976 1_455 S
O99 C106 1.287 . S
O100 Fe89 1.996 . S
O100 C106 1.255 . S
O101 Fe91 1.976 . S
O101 C96 1.287 . S
O102 Fe88 1.996 . S
O102 C96 1.255 . S
C103 O107 1.295 1_655 S
C103 O108 1.235 . S
O104 Fe89 1.940 1_655 S
O104 C98 1.329 . S
O105 Fe91 1.996 . S
O105 C98 1.255 . S
C106 O99 1.287 . S
C106 O100 1.255 . S
O107 Fe89 2.002 . S
O107 C103 1.295 1_455 S
O108 Fe91 1.997 . S
O108 C103 1.235 . S
C109 O92 1.295 . S
C109 O93 1.235 . S
Fe110 O112 1.918 . S
Fe110 O115 1.997 . S
Fe110 O116 2.002 . S
Fe110 O121 1.976 . S
Fe110 O124 1.996 . S
Fe111 O112 1.918 . S
Fe111 O119 1.997 . S
Fe111 O122 1.996 . S
Fe111 O126 1.976 . S
Fe111 O129 2.002 . S
O112 Fe110 1.918 . S
O112 Fe111 1.918 . S
O112 Fe113 1.918 . S
Fe113 O112 1.918 . S
Fe113 O114 2.002 . S
Fe113 O123 1.976 . S
Fe113 O127 1.996 . S
Fe113 O130 1.997 . S
O114 Fe113 2.002 . S
O114 C131 1.295 . S
O115 Fe110 1.997 . S
O115 C131 1.235 . S
O116 Fe110 2.002 . S
O116 C117 1.295 . S
C117 O116 1.295 . S
C117 O119 1.235 . S
C118 O123 1.287 . S
C118 O124 1.255 . S
O119 Fe111 1.997 . S
O119 C117 1.235 . S
C120 O126 1.287 . S
C120 O127 1.255 . S
O121 Fe110 1.976 . S
O121 C128 1.287 . S
O122 Fe111 1.996 . S
O122 C128 1.255 . S
O123 Fe113 1.976 . S
O123 C118 1.287 . S
O124 Fe110 1.996 . S
O124 C118 1.255 . S
C125 O129 1.295 . S
C125 O130 1.235 . S
O126 Fe111 1.976 . S
O126 C120 1.287 . S
O127 Fe113 1.996 . S
O127 C120 1.255 . S
C128 O121 1.287 . S
C128 O122 1.255 . S
O129 Fe111 2.002 . S
O129 C125 1.295 . S
O130 Fe113 1.997 . S
O130 C125 1.235 . S
C131 O114 1.295 . S
C131 O115 1.235 . S
Fe132 O134 1.918 . S
Fe132 O137 1.997 . S
Fe132 O138 2.002 1_655 S
Fe132 O143 1.976 1_655 S
Fe132 O146 1.996 . S
Fe133 O134 1.918 1_455 S
Fe133 O141 1.997 . S
Fe133 O144 1.996 . S
Fe133 O148 1.978 1_455 S
Fe133 O151 2.002 . S
O134 Fe132 1.918 . S
O134 Fe133 1.918 1_655 S
O134 Fe135 1.918 . S
Fe135 O134 1.918 . S
Fe135 O136 2.002 . S
Fe135 O145 1.976 . S
Fe135 O149 1.996 . S
Fe135 O152 1.997 . S
O136 Fe135 2.002 . S
O136 C153 1.295 . S
O137 Fe132 1.997 . S
O137 C153 1.235 . S
O138 Fe132 2.002 1_455 S
O138 C139 1.295 . S
C139 O138 1.295 . S
C139 O141 1.235 . S
C140 O145 1.287 . S
C140 O146 1.255 . S
O141 Fe133 1.997 . S
O141 C139 1.235 . S
C142 O148 1.316 . S
C142 O149 1.255 . S
O143 Fe132 1.976 1_455 S
O143 C150 1.287 . S
O144 Fe133 1.996 . S
O144 C150 1.255 . S
O145 Fe135 1.976 . S
O145 C140 1.287 . S
O146 Fe132 1.996 . S
O146 C140 1.255 . S
C147 O151 1.295 1_655 S
C147 O152 1.235 . S
O148 Fe133 1.978 1_655 S
O148 C142 1.316 . S
O149 Fe135 1.996 . S
O149 C142 1.255 . S
C150 O143 1.287 . S
C150 O144 1.255 . S
O151 Fe133 2.002 . S
O151 C147 1.295 1_455 S
O152 Fe135 1.997 . S
O152 C147 1.235 . S
C153 O136 1.295 . S
C153 O137 1.235 . S
Fe154 O156 1.918 . S
Fe154 O159 1.997 . S
Fe154 O160 2.002 . S
Fe154 O165 1.976 . S
Fe154 O168 1.996 . S
Fe155 O156 1.918 . S
Fe155 O163 1.997 . S
Fe155 O166 1.996 . S
Fe155 O170 1.976 . S
Fe155 O173 2.002 . S
O156 Fe154 1.918 . S
O156 Fe155 1.918 . S
O156 Fe157 1.918 . S
Fe157 O156 1.918 . S
Fe157 O158 2.002 . S
Fe157 O167 1.976 . S
Fe157 O171 1.996 . S
Fe157 O174 1.997 . S
O158 Fe157 2.002 . S
O158 C175 1.295 . S
O159 Fe154 1.997 . S
O159 C175 1.235 . S
O160 Fe154 2.002 . S
O160 C161 1.295 . S
C161 O160 1.295 . S
C161 O163 1.235 . S
C162 O167 1.287 . S
C162 O168 1.255 . S
O163 Fe155 1.997 . S
O163 C161 1.235 . S
C164 O170 1.287 . S
C164 O171 1.255 . S
O165 Fe154 1.976 . S
O165 C172 1.287 . S
O166 Fe155 1.996 . S
O166 C172 1.255 . S
O167 Fe157 1.976 . S
O167 C162 1.287 . S
O168 Fe154 1.996 . S
O168 C162 1.255 . S
C169 O173 1.295 . S
C169 O174 1.235 . S
O170 Fe155 1.976 . S
O170 C164 1.287 . S
O171 Fe157 1.996 . S
O171 C164 1.255 . S
C172 O165 1.287 . S
C172 O166 1.255 . S
O173 Fe155 2.002 . S
O173 C169 1.295 . S
O174 Fe157 1.997 . S
O174 C169 1.235 . S
C175 O158 1.295 . S
C175 O159 1.235 . S
Fe176 O178 1.918 1_565 S
Fe176 O181 1.997 . S
Fe176 O182 2.002 . S
Fe176 O187 1.940 1_565 S
Fe176 O190 1.996 . S
Fe177 O178 1.918 . S
Fe177 O185 1.997 . S
Fe177 O188 1.996 . S
Fe177 O192 1.976 . S
Fe177 O195 2.002 . S
O178 Fe176 1.918 1_545 S
O178 Fe177 1.918 . S
O178 Fe179 1.918 . S
Fe179 O178 1.918 . S
Fe179 O180 2.002 1_545 S
Fe179 O189 1.976 1_545 S
Fe179 O193 1.996 . S
Fe179 O196 1.997 . S
O180 Fe179 2.002 1_565 S
O180 C197 1.295 . S
O181 Fe176 1.997 . S
O181 C197 1.235 . S
O182 Fe176 2.002 . S
O182 C183 1.295 1_565 S
C183 O182 1.295 1_545 S
C183 O185 1.235 . S
C184 O189 1.287 . S
C184 O190 1.255 . S
O185 Fe177 1.997 . S
O185 C183 1.235 . S
C186 O192 1.287 . S
C186 O193 1.255 . S
O187 Fe176 1.940 1_545 S
O187 C194 1.329 . S
O188 Fe177 1.996 . S
O188 C194 1.255 . S
O189 Fe179 1.976 1_565 S
O189 C184 1.287 . S
O190 Fe176 1.996 . S
O190 C184 1.255 . S
C191 O195 1.295 . S
C191 O196 1.235 . S
O192 Fe177 1.976 . S
O192 C186 1.287 . S
O193 Fe179 1.996 . S
O193 C186 1.255 . S
C194 O187 1.329 . S
C194 O188 1.255 . S
O195 Fe177 2.002 . S
O195 C191 1.295 . S
O196 Fe179 1.997 . S
O196 C191 1.235 . S
C197 O180 1.295 . S
C197 O181 1.235 . S
Fe198 O200 1.918 . S
Fe198 O203 1.997 . S
Fe198 O204 2.002 . S
Fe198 O209 1.976 . S
Fe198 O212 1.996 . S
Fe199 O200 1.918 . S
Fe199 O207 1.997 . S
Fe199 O210 1.996 . S
Fe199 O214 1.976 1_565 S
Fe199 O217 2.002 1_565 S
O200 Fe198 1.918 . S
O200 Fe199 1.918 . S
O200 Fe201 1.918 1_565 S
Fe201 O200 1.918 1_545 S
Fe201 O202 2.002 . S
Fe201 O211 1.978 1_545 S
Fe201 O215 1.996 . S
Fe201 O218 1.997 . S
O202 Fe201 2.002 . S
O202 C219 1.295 1_545 S
O203 Fe198 1.997 . S
O203 C219 1.235 . S
O204 Fe198 2.002 . S
O204 C205 1.295 . S
C205 O204 1.295 . S
C205 O207 1.235 . S
C206 O211 1.316 . S
C206 O212 1.255 . S
O207 Fe199 1.997 . S
O207 C205 1.235 . S
C208 O214 1.287 . S
C208 O215 1.255 . S
O209 Fe198 1.976 . S
O209 C216 1.287 . S
O210 Fe199 1.996 . S
O210 C216 1.255 . S
O211 Fe201 1.978 1_565 S
O211 C206 1.316 . S
O212 Fe198 1.996 . S
O212 C206 1.255 . S
C213 O217 1.295 . S
C213 O218 1.235 . S
O214 Fe199 1.976 1_545 S
O214 C208 1.287 . S
O215 Fe201 1.996 . S
O215 C208 1.255 . S
C216 O209 1.287 . S
C216 O210 1.255 . S
O217 Fe199 2.002 1_545 S
O217 C213 1.295 . S
O218 Fe201 1.997 . S
O218 C213 1.235 . S
C219 O202 1.295 1_565 S
C219 O203 1.235 . S
Fe220 O222 1.918 . S
Fe220 O225 1.997 . S
Fe220 O226 2.002 . S
Fe220 O231 1.976 . S
Fe220 O234 1.996 . S
Fe221 O222 1.918 . S
Fe221 O229 1.997 . S
Fe221 O232 1.996 . S
Fe221 O236 1.976 1_455 S
Fe221 O239 2.002 1_455 S
O222 Fe220 1.918 . S
O222 Fe221 1.918 . S
O222 Fe223 1.918 1_455 S
Fe223 O222 1.918 1_655 S
Fe223 O224 2.002 . S
Fe223 O233 1.940 1_655 S
Fe223 O237 1.996 . S
Fe223 O240 1.997 . S
O224 Fe223 2.002 . S
O224 C241 1.295 1_655 S
O225 Fe220 1.997 . S
O225 C241 1.235 . S
O226 Fe220 2.002 . S
O226 C227 1.295 . S
C227 O226 1.295 . S
C227 O229 1.235 . S
C228 O233 1.329 . S
C228 O234 1.255 . S
O229 Fe221 1.997 . S
O229 C227 1.235 . S
C230 O236 1.287 . S
C230 O237 1.255 . S
O231 Fe220 1.976 . S
O231 C238 1.287 . S
O232 Fe221 1.996 . S
O232 C238 1.255 . S
O233 Fe223 1.940 1_455 S
O233 C228 1.329 . S
O234 Fe220 1.996 . S
O234 C228 1.255 . S
C235 O239 1.295 . S
C235 O240 1.235 . S
O236 Fe221 1.976 1_655 S
O236 C230 1.287 . S
O237 Fe223 1.996 . S
O237 C230 1.255 . S
C238 O231 1.287 . S
C238 O232 1.255 . S
O239 Fe221 2.002 1_655 S
O239 C235 1.295 . S
O240 Fe223 1.997 . S
O240 C235 1.235 . S
C241 O224 1.295 1_455 S
C241 O225 1.235 . S
Fe242 O244 1.918 . S
Fe242 O247 1.997 . S
Fe242 O248 2.002 . S
Fe242 O253 1.976 . S
Fe242 O256 1.996 . S
Fe243 O244 1.918 . S
Fe243 O251 1.997 . S
Fe243 O254 1.996 . S
Fe243 O258 1.976 . S
Fe243 O261 2.002 . S
O244 Fe242 1.918 . S
O244 Fe243 1.918 . S
O244 Fe245 1.918 . S
Fe245 O244 1.918 . S
Fe245 O246 2.002 . S
Fe245 O255 1.976 . S
Fe245 O259 1.996 . S
Fe245 O262 1.997 . S
O246 Fe245 2.002 . S
O246 C263 1.295 . S
O247 Fe242 1.997 . S
O247 C263 1.235 . S
O248 Fe242 2.002 . S
O248 C249 1.295 . S
C249 O248 1.295 . S
C249 O251 1.235 . S
C250 O255 1.287 . S
C250 O256 1.255 . S
O251 Fe243 1.997 . S
O251 C249 1.235 . S
C252 O258 1.287 . S
C252 O259 1.255 . S
O253 Fe242 1.976 . S
O253 C260 1.287 . S
O254 Fe243 1.996 . S
O254 C260 1.255 . S
O255 Fe245 1.976 . S
O255 C250 1.287 . S
O256 Fe242 1.996 . S
O256 C250 1.255 . S
C257 O261 1.295 . S
C257 O262 1.235 . S
O258 Fe243 1.976 . S
O258 C252 1.287 . S
O259 Fe245 1.996 . S
O259 C252 1.255 . S
C260 O253 1.287 . S
C260 O254 1.255 . S
O261 Fe243 2.002 . S
O261 C257 1.295 . S
O262 Fe245 1.997 . S
O262 C257 1.235 . S
C263 O246 1.295 . S
C263 O247 1.235 . S
Fe264 O266 1.918 . S
Fe264 O269 1.997 . S
Fe264 O270 2.002 . S
Fe264 O275 1.976 . S
Fe264 O278 1.996 . S
Fe265 O266 1.918 . S
Fe265 O273 1.997 . S
Fe265 O276 1.996 . S
Fe265 O280 1.976 . S
Fe265 O283 2.002 . S
O266 Fe264 1.918 . S
O266 Fe265 1.918 . S
O266 Fe267 1.918 . S
Fe267 O266 1.918 . S
Fe267 O268 2.002 . S
Fe267 O277 1.976 . S
Fe267 O281 1.996 . S
Fe267 O284 1.997 . S
O268 Fe267 2.002 . S
O268 C285 1.295 . S
O269 Fe264 1.997 . S
O269 C285 1.235 . S
O270 Fe264 2.002 . S
O270 C271 1.295 . S
C271 O270 1.295 . S
C271 O273 1.235 . S
C272 O277 1.287 . S
C272 O278 1.255 . S
O273 Fe265 1.997 . S
O273 C271 1.235 . S
C274 O280 1.287 . S
C274 O281 1.255 . S
O275 Fe264 1.976 . S
O275 C282 1.287 . S
O276 Fe265 1.996 . S
O276 C282 1.255 . S
O277 Fe267 1.976 . S
O277 C272 1.287 . S
O278 Fe264 1.996 . S
O278 C272 1.255 . S
C279 O283 1.295 . S
C279 O284 1.235 . S
O280 Fe265 1.976 . S
O280 C274 1.287 . S
O281 Fe267 1.996 . S
O281 C274 1.255 . S
C282 O275 1.287 . S
C282 O276 1.255 . S
O283 Fe265 2.002 . S
O283 C279 1.295 . S
O284 Fe267 1.997 . S
O284 C279 1.235 . S
C285 O268 1.295 . S
C285 O269 1.235 . S
Fe286 O288 1.918 . S
Fe286 O291 1.997 . S
Fe286 O292 2.002 . S
Fe286 O297 1.976 . S
Fe286 O300 1.996 . S
Fe287 O288 1.918 . S
Fe287 O295 1.997 . S
Fe287 O298 1.996 . S
Fe287 O302 1.976 . S
Fe287 O305 2.002 . S
O288 Fe286 1.918 . S
O288 Fe287 1.918 . S
O288 Fe289 1.918 . S
Fe289 O288 1.918 . S
Fe289 O290 2.002 . S
Fe289 O299 1.976 . S
Fe289 O303 1.996 . S
Fe289 O306 1.997 . S
O290 Fe289 2.002 . S
O290 C307 1.295 . S
O291 Fe286 1.997 . S
O291 C307 1.235 . S
O292 Fe286 2.002 . S
O292 C293 1.295 . S
C293 O292 1.295 . S
C293 O295 1.235 . S
C294 O299 1.287 . S
C294 O300 1.255 . S
O295 Fe287 1.997 . S
O295 C293 1.235 . S
C296 O302 1.287 . S
C296 O303 1.255 . S
O297 Fe286 1.976 . S
O297 C304 1.287 . S
O298 Fe287 1.996 . S
O298 C304 1.255 . S
O299 Fe289 1.976 . S
O299 C294 1.287 . S
O300 Fe286 1.996 . S
O300 C294 1.255 . S
C301 O305 1.295 . S
C301 O306 1.235 . S
O302 Fe287 1.976 . S
O302 C296 1.287 . S
O303 Fe289 1.996 . S
O303 C296 1.255 . S
C304 O297 1.287 . S
C304 O298 1.255 . S
O305 Fe287 2.002 . S
O305 C301 1.295 . S
O306 Fe289 1.997 . S
O306 C301 1.235 . S
C307 O290 1.295 . S
C307 O291 1.235 . S
Fe308 O310 1.918 . S
Fe308 O313 1.997 . S
Fe308 O314 2.002 . S
Fe308 O319 1.976 . S
Fe308 O322 1.996 . S
Fe309 O310 1.918 . S
Fe309 O317 1.997 . S
Fe309 O320 1.996 . S
Fe309 O324 1.976 . S
Fe309 O327 2.002 . S
O310 Fe308 1.918 . S
O310 Fe309 1.918 . S
O310 Fe311 1.918 . S
Fe311 O310 1.918 . S
Fe311 O312 2.002 . S
Fe311 O321 1.976 . S
Fe311 O325 1.996 . S
Fe311 O328 1.997 . S
O312 Fe311 2.002 . S
O312 C329 1.295 . S
O313 Fe308 1.997 . S
O313 C329 1.235 . S
O314 Fe308 2.002 . S
O314 C315 1.295 . S
C315 O314 1.295 . S
C315 O317 1.235 . S
C316 O321 1.287 . S
C316 O322 1.255 . S
O317 Fe309 1.997 . S
O317 C315 1.235 . S
C318 O324 1.287 . S
C318 O325 1.255 . S
O319 Fe308 1.976 . S
O319 C326 1.287 . S
O320 Fe309 1.996 . S
O320 C326 1.255 . S
O321 Fe311 1.976 . S
O321 C316 1.287 . S
O322 Fe308 1.996 . S
O322 C316 1.255 . S
C323 O327 1.295 . S
C323 O328 1.235 . S
O324 Fe309 1.976 . S
O324 C318 1.287 . S
O325 Fe311 1.996 . S
O325 C318 1.255 . S
C326 O319 1.287 . S
C326 O320 1.255 . S
O327 Fe309 2.002 . S
O327 C323 1.295 . S
O328 Fe311 1.997 . S
O328 C323 1.235 . S
C329 O312 1.295 . S
C329 O313 1.235 . S
Fe330 O332 1.918 . S
Fe330 O335 1.997 . S
Fe330 O336 2.002 . S
Fe330 O341 1.976 . S
Fe330 O344 1.996 . S
Fe331 O332 1.918 . S
Fe331 O339 1.997 . S
Fe331 O342 1.996 . S
Fe331 O346 1.976 . S
Fe331 O349 2.002 . S
O332 Fe330 1.918 . S
O332 Fe331 1.918 . S
O332 Fe333 1.918 . S
Fe333 O332 1.918 . S
Fe333 O334 2.002 . S
Fe333 O343 1.976 . S
Fe333 O347 1.996 . S
Fe333 O350 1.997 . S
O334 Fe333 2.002 . S
O334 C351 1.295 . S
O335 Fe330 1.997 . S
O335 C351 1.235 . S
O336 Fe330 2.002 . S
O336 C337 1.295 . S
C337 O336 1.295 . S
C337 O339 1.235 . S
C338 O343 1.287 . S
C338 O344 1.255 . S
O339 Fe331 1.997 . S
O339 C337 1.235 . S
C340 O346 1.287 . S
C340 O347 1.255 . S
O341 Fe330 1.976 . S
O341 C348 1.287 . S
O342 Fe331 1.996 . S
O342 C348 1.255 . S
O343 Fe333 1.976 . S
O343 C338 1.287 . S
O344 Fe330 1.996 . S
O344 C338 1.255 . S
C345 O349 1.295 . S
C345 O350 1.235 . S
O346 Fe331 1.976 . S
O346 C340 1.287 . S
O347 Fe333 1.996 . S
O347 C340 1.255 . S
C348 O341 1.287 . S
C348 O342 1.255 . S
O349 Fe331 2.002 . S
O349 C345 1.295 . S
O350 Fe333 1.997 . S
O350 C345 1.235 . S
C351 O334 1.295 . S
C351 O335 1.235 . S
Fe352 O354 1.918 . S
Fe352 O357 1.997 . S
Fe352 O358 2.002 . S
Fe352 O363 1.976 . S
Fe352 O366 1.996 . S
Fe353 O354 1.918 . S
Fe353 O361 1.997 . S
Fe353 O364 1.996 . S
Fe353 O368 1.976 . S
Fe353 O371 2.002 . S
O354 Fe352 1.918 . S
O354 Fe353 1.918 . S
O354 Fe355 1.918 . S
Fe355 O354 1.918 . S
Fe355 O356 2.002 . S
Fe355 O365 1.976 . S
Fe355 O369 1.996 . S
Fe355 O372 1.997 . S
O356 Fe355 2.002 . S
O356 C373 1.295 . S
O357 Fe352 1.997 . S
O357 C373 1.235 . S
O358 Fe352 2.002 . S
O358 C359 1.295 . S
C359 O358 1.295 . S
C359 O361 1.235 . S
C360 O365 1.287 . S
C360 O366 1.255 . S
O361 Fe353 1.997 . S
O361 C359 1.235 . S
C362 O368 1.287 . S
C362 O369 1.255 . S
O363 Fe352 1.976 . S
O363 C370 1.287 . S
O364 Fe353 1.996 . S
O364 C370 1.255 . S
O365 Fe355 1.976 . S
O365 C360 1.287 . S
O366 Fe352 1.996 . S
O366 C360 1.255 . S
C367 O371 1.295 . S
C367 O372 1.235 . S
O368 Fe353 1.976 . S
O368 C362 1.287 . S
O369 Fe355 1.996 . S
O369 C362 1.255 . S
C370 O363 1.287 . S
C370 O364 1.255 . S
O371 Fe353 2.002 . S
O371 C367 1.295 . S
O372 Fe355 1.997 . S
O372 C367 1.235 . S
C373 O356 1.295 . S
C373 O357 1.235 . S
Fe374 O376 1.918 . S
Fe374 O379 1.997 . S
Fe374 O380 2.002 . S
Fe374 O385 1.976 . S
Fe374 O388 1.996 . S
Fe375 O376 1.918 . S
Fe375 O383 1.997 . S
Fe375 O386 1.996 . S
Fe375 O390 1.976 . S
Fe375 O393 2.002 . S
O376 Fe374 1.918 . S
O376 Fe375 1.918 . S
O376 Fe377 1.918 . S
Fe377 O376 1.918 . S
Fe377 O378 2.002 . S
Fe377 O387 1.976 . S
Fe377 O391 1.996 . S
Fe377 O394 1.997 . S
O378 Fe377 2.002 . S
O378 C395 1.295 . S
O379 Fe374 1.997 . S
O379 C395 1.235 . S
O380 Fe374 2.002 . S
O380 C381 1.295 . S
C381 O380 1.295 . S
C381 O383 1.235 . S
C382 O387 1.287 . S
C382 O388 1.255 . S
O383 Fe375 1.997 . S
O383 C381 1.235 . S
C384 O390 1.287 . S
C384 O391 1.255 . S
O385 Fe374 1.976 . S
O385 C392 1.287 . S
O386 Fe375 1.996 . S
O386 C392 1.255 . S
O387 Fe377 1.976 . S
O387 C382 1.287 . S
O388 Fe374 1.996 . S
O388 C382 1.255 . S
C389 O393 1.295 . S
C389 O394 1.235 . S
O390 Fe375 1.976 . S
O390 C384 1.287 . S
O391 Fe377 1.996 . S
O391 C384 1.255 . S
C392 O385 1.287 . S
C392 O386 1.255 . S
O393 Fe375 2.002 . S
O393 C389 1.295 . S
O394 Fe377 1.997 . S
O394 C389 1.235 . S
C395 O378 1.295 . S
C395 O379 1.235 . S
Fe396 O398 1.918 . S
Fe396 O401 1.997 . S
Fe396 O402 2.002 . S
Fe396 O407 1.976 . S
Fe396 O410 1.996 . S
Fe397 O398 1.918 . S
Fe397 O405 1.997 . S
Fe397 O408 1.996 . S
Fe397 O412 1.976 . S
Fe397 O415 2.002 . S
O398 Fe396 1.918 . S
O398 Fe397 1.918 . S
O398 Fe399 1.918 . S
Fe399 O398 1.918 . S
Fe399 O400 2.002 . S
Fe399 O409 1.976 . S
Fe399 O413 1.996 . S
Fe399 O416 1.997 . S
O400 Fe399 2.002 . S
O400 C417 1.295 . S
O401 Fe396 1.997 . S
O401 C417 1.235 . S
O402 Fe396 2.002 . S
O402 C403 1.295 . S
C403 O402 1.295 . S
C403 O405 1.235 . S
C404 O409 1.287 . S
C404 O410 1.255 . S
O405 Fe397 1.997 . S
O405 C403 1.235 . S
C406 O412 1.287 . S
C406 O413 1.255 . S
O407 Fe396 1.976 . S
O407 C414 1.287 . S
O408 Fe397 1.996 . S
O408 C414 1.255 . S
O409 Fe399 1.976 . S
O409 C404 1.287 . S
O410 Fe396 1.996 . S
O410 C404 1.255 . S
C411 O415 1.295 . S
C411 O416 1.235 . S
O412 Fe397 1.976 . S
O412 C406 1.287 . S
O413 Fe399 1.996 . S
O413 C406 1.255 . S
C414 O407 1.287 . S
C414 O408 1.255 . S
O415 Fe397 2.002 . S
O415 C411 1.295 . S
O416 Fe399 1.997 . S
O416 C411 1.235 . S
C417 O400 1.295 . S
C417 O401 1.235 . S
Fe418 O420 1.918 . S
Fe418 O423 1.997 . S
Fe418 O424 2.002 . S
Fe418 O429 1.976 . S
Fe418 O432 1.996 . S
Fe419 O420 1.918 . S
Fe419 O427 1.997 . S
Fe419 O430 1.996 . S
Fe419 O434 1.976 . S
Fe419 O437 2.002 . S
O420 Fe418 1.918 . S
O420 Fe419 1.918 . S
O420 Fe421 1.918 . S
Fe421 O420 1.918 . S
Fe421 O422 2.002 . S
Fe421 O431 1.976 . S
Fe421 O435 1.996 . S
Fe421 O438 1.997 . S
O422 Fe421 2.002 . S
O422 C439 1.295 . S
O423 Fe418 1.997 . S
O423 C439 1.235 . S
O424 Fe418 2.002 . S
O424 C425 1.295 . S
C425 O424 1.295 . S
C425 O427 1.235 . S
C426 O431 1.287 . S
C426 O432 1.255 . S
O427 Fe419 1.997 . S
O427 C425 1.235 . S
C428 O434 1.287 . S
C428 O435 1.255 . S
O429 Fe418 1.976 . S
O429 C436 1.287 . S
O430 Fe419 1.996 . S
O430 C436 1.255 . S
O431 Fe421 1.976 . S
O431 C426 1.287 . S
O432 Fe418 1.996 . S
O432 C426 1.255 . S
C433 O437 1.295 . S
C433 O438 1.235 . S
O434 Fe419 1.976 . S
O434 C428 1.287 . S
O435 Fe421 1.996 . S
O435 C428 1.255 . S
C436 O429 1.287 . S
C436 O430 1.255 . S
O437 Fe419 2.002 . S
O437 C433 1.295 . S
O438 Fe421 1.997 . S
O438 C433 1.235 . S
C439 O422 1.295 . S
C439 O423 1.235 . S
Fe440 O442 1.918 . S
Fe440 O445 1.997 . S
Fe440 O446 2.002 . S
Fe440 O451 1.976 . S
Fe440 O454 1.996 . S
Fe441 O442 1.918 . S
Fe441 O449 1.997 . S
Fe441 O452 1.996 . S
Fe441 O456 1.976 . S
Fe441 O459 2.002 . S
O442 Fe440 1.918 . S
O442 Fe441 1.918 . S
O442 Fe443 1.918 . S
Fe443 O442 1.918 . S
Fe443 O444 2.002 . S
Fe443 O453 1.976 . S
Fe443 O457 1.996 . S
Fe443 O460 1.997 . S
O444 Fe443 2.002 . S
O444 C461 1.295 . S
O445 Fe440 1.997 . S
O445 C461 1.235 . S
O446 Fe440 2.002 . S
O446 C447 1.295 . S
C447 O446 1.295 . S
C447 O449 1.235 . S
C448 O453 1.287 . S
C448 O454 1.255 . S
O449 Fe441 1.997 . S
O449 C447 1.235 . S
C450 O456 1.287 . S
C450 O457 1.255 . S
O451 Fe440 1.976 . S
O451 C458 1.287 . S
O452 Fe441 1.996 . S
O452 C458 1.255 . S
O453 Fe443 1.976 . S
O453 C448 1.287 . S
O454 Fe440 1.996 . S
O454 C448 1.255 . S
C455 O459 1.295 . S
C455 O460 1.235 . S
O456 Fe441 1.976 . S
O456 C450 1.287 . S
O457 Fe443 1.996 . S
O457 C450 1.255 . S
C458 O451 1.287 . S
C458 O452 1.255 . S
O459 Fe441 2.002 . S
O459 C455 1.295 . S
O460 Fe443 1.997 . S
O460 C455 1.235 . S
C461 O444 1.295 . S
C461 O445 1.235 . S
Fe462 O464 1.918 . S
Fe462 O467 1.997 . S
Fe462 O468 2.002 . S
Fe462 O473 1.976 . S
Fe462 O476 1.996 . S
Fe463 O464 1.918 . S
Fe463 O471 1.997 . S
Fe463 O474 1.996 . S
Fe463 O478 1.976 . S
Fe463 O481 2.002 . S
O464 Fe462 1.918 . S
O464 Fe463 1.918 . S
O464 Fe465 1.918 . S
Fe465 O464 1.918 . S
Fe465 O466 2.002 . S
Fe465 O475 1.976 . S
Fe465 O479 1.996 . S
Fe465 O482 1.997 . S
O466 Fe465 2.002 . S
O466 C483 1.295 . S
O467 Fe462 1.997 . S
O467 C483 1.235 . S
O468 Fe462 2.002 . S
O468 C469 1.295 . S
C469 O468 1.295 . S
C469 O471 1.235 . S
C470 O475 1.287 . S
C470 O476 1.255 . S
O471 Fe463 1.997 . S
O471 C469 1.235 . S
C472 O478 1.287 . S
C472 O479 1.255 . S
O473 Fe462 1.976 . S
O473 C480 1.287 . S
O474 Fe463 1.996 . S
O474 C480 1.255 . S
O475 Fe465 1.976 . S
O475 C470 1.287 . S
O476 Fe462 1.996 . S
O476 C470 1.255 . S
C477 O481 1.295 . S
C477 O482 1.235 . S
O478 Fe463 1.976 . S
O478 C472 1.287 . S
O479 Fe465 1.996 . S
O479 C472 1.255 . S
C480 O473 1.287 . S
C480 O474 1.255 . S
O481 Fe463 2.002 . S
O481 C477 1.295 . S
O482 Fe465 1.997 . S
O482 C477 1.235 . S
C483 O466 1.295 . S
C483 O467 1.235 . S
Fe484 O486 1.918 . S
Fe484 O489 1.997 . S
Fe484 O490 2.002 . S
Fe484 O495 1.976 . S
Fe484 O498 1.996 . S
Fe485 O486 1.918 . S
Fe485 O493 1.997 . S
Fe485 O496 1.996 . S
Fe485 O500 1.976 . S
Fe485 O503 2.002 . S
O486 Fe484 1.918 . S
O486 Fe485 1.918 . S
O486 Fe487 1.918 . S
Fe487 O486 1.918 . S
Fe487 O488 2.002 . S
Fe487 O497 1.976 . S
Fe487 O501 1.996 . S
Fe487 O504 1.997 . S
O488 Fe487 2.002 . S
O488 C505 1.295 . S
O489 Fe484 1.997 . S
O489 C505 1.235 . S
O490 Fe484 2.002 . S
O490 C491 1.295 . S
C491 O490 1.295 . S
C491 O493 1.235 . S
C492 O497 1.287 . S
C492 O498 1.255 . S
O493 Fe485 1.997 . S
O493 C491 1.235 . S
C494 O500 1.287 . S
C494 O501 1.255 . S
O495 Fe484 1.976 . S
O495 C502 1.287 . S
O496 Fe485 1.996 . S
O496 C502 1.255 . S
O497 Fe487 1.976 . S
O497 C492 1.287 . S
O498 Fe484 1.996 . S
O498 C492 1.255 . S
C499 O503 1.295 . S
C499 O504 1.235 . S
O500 Fe485 1.976 . S
O500 C494 1.287 . S
O501 Fe487 1.996 . S
O501 C494 1.255 . S
C502 O495 1.287 . S
C502 O496 1.255 . S
O503 Fe485 2.002 . S
O503 C499 1.295 . S
O504 Fe487 1.997 . S
O504 C499 1.235 . S
C505 O488 1.295 . S
C505 O489 1.235 . S
Fe506 O508 1.918 . S
Fe506 O511 1.997 . S
Fe506 O512 2.002 . S
Fe506 O517 1.976 . S
Fe506 O520 1.996 . S
Fe507 O508 1.918 . S
Fe507 O515 1.997 . S
Fe507 O518 1.996 . S
Fe507 O522 1.976 . S
Fe507 O525 2.002 . S
O508 Fe506 1.918 . S
O508 Fe507 1.918 . S
O508 Fe509 1.918 . S
Fe509 O508 1.918 . S
Fe509 O510 2.002 . S
Fe509 O519 1.976 . S
Fe509 O523 1.996 . S
Fe509 O526 1.997 . S
O510 Fe509 2.002 . S
O510 C527 1.295 . S
O511 Fe506 1.997 . S
O511 C527 1.235 . S
O512 Fe506 2.002 . S
O512 C513 1.295 . S
C513 O512 1.295 . S
C513 O515 1.235 . S
C514 O519 1.287 . S
C514 O520 1.255 . S
O515 Fe507 1.997 . S
O515 C513 1.235 . S
C516 O522 1.287 . S
C516 O523 1.255 . S
O517 Fe506 1.976 . S
O517 C524 1.287 . S
O518 Fe507 1.996 . S
O518 C524 1.255 . S
O519 Fe509 1.976 . S
O519 C514 1.287 . S
O520 Fe506 1.996 . S
O520 C514 1.255 . S
C521 O525 1.295 . S
C521 O526 1.235 . S
O522 Fe507 1.976 . S
O522 C516 1.287 . S
O523 Fe509 1.996 . S
O523 C516 1.255 . S
C524 O517 1.287 . S
C524 O518 1.255 . S
O525 Fe507 2.002 . S
O525 C521 1.295 . S
O526 Fe509 1.997 . S
O526 C521 1.235 . S
C527 O510 1.295 . S
C527 O511 1.235 . S
Fe528 O530 1.918 . S
Fe528 O533 1.997 . S
Fe528 O534 2.002 . S
Fe528 O539 1.976 . S
Fe528 O542 1.996 . S
Fe529 O530 1.918 . S
Fe529 O537 1.997 . S
Fe529 O540 1.996 . S
Fe529 O544 1.976 . S
Fe529 O547 2.002 . S
O530 Fe528 1.918 . S
O530 Fe529 1.918 . S
O530 Fe531 1.918 . S
Fe531 O530 1.918 . S
Fe531 O532 2.002 . S
Fe531 O541 1.976 . S
Fe531 O545 1.996 . S
Fe531 O548 1.997 . S
O532 Fe531 2.002 . S
O532 C549 1.295 . S
O533 Fe528 1.997 . S
O533 C549 1.235 . S
O534 Fe528 2.002 . S
O534 C535 1.295 . S
C535 O534 1.295 . S
C535 O537 1.235 . S
C536 O541 1.287 . S
C536 O542 1.255 . S
O537 Fe529 1.997 . S
O537 C535 1.235 . S
C538 O544 1.287 . S
C538 O545 1.255 . S
O539 Fe528 1.976 . S
O539 C546 1.287 . S
O540 Fe529 1.996 . S
O540 C546 1.255 . S
O541 Fe531 1.976 . S
O541 C536 1.287 . S
O542 Fe528 1.996 . S
O542 C536 1.255 . S
C543 O547 1.295 . S
C543 O548 1.235 . S
O544 Fe529 1.976 . S
O544 C538 1.287 . S
O545 Fe531 1.996 . S
O545 C538 1.255 . S
C546 O539 1.287 . S
C546 O540 1.255 . S
O547 Fe529 2.002 . S
O547 C543 1.295 . S
O548 Fe531 1.997 . S
O548 C543 1.235 . S
C549 O532 1.295 . S
C549 O533 1.235 . S
Fe550 O552 1.918 . S
Fe550 O555 1.997 . S
Fe550 O556 2.002 . S
Fe550 O561 1.976 . S
Fe550 O564 1.996 . S
Fe551 O552 1.918 . S
Fe551 O559 1.997 . S
Fe551 O562 1.996 . S
Fe551 O566 1.976 . S
Fe551 O569 2.002 . S
O552 Fe550 1.918 . S
O552 Fe551 1.918 . S
O552 Fe553 1.918 . S
Fe553 O552 1.918 . S
Fe553 O554 2.002 . S
Fe553 O563 1.976 . S
Fe553 O567 1.996 . S
Fe553 O570 1.997 . S
O554 Fe553 2.002 . S
O554 C571 1.295 . S
O555 Fe550 1.997 . S
O555 C571 1.235 . S
O556 Fe550 2.002 . S
O556 C557 1.295 . S
C557 O556 1.295 . S
C557 O559 1.235 . S
C558 O563 1.287 . S
C558 O564 1.255 . S
O559 Fe551 1.997 . S
O559 C557 1.235 . S
C560 O566 1.287 . S
C560 O567 1.255 . S
O561 Fe550 1.976 . S
O561 C568 1.287 . S
O562 Fe551 1.996 . S
O562 C568 1.255 . S
O563 Fe553 1.976 . S
O563 C558 1.287 . S
O564 Fe550 1.996 . S
O564 C558 1.255 . S
C565 O569 1.295 . S
C565 O570 1.235 . S
O566 Fe551 1.976 . S
O566 C560 1.287 . S
O567 Fe553 1.996 . S
O567 C560 1.255 . S
C568 O561 1.287 . S
C568 O562 1.255 . S
O569 Fe551 2.002 . S
O569 C565 1.295 . S
O570 Fe553 1.997 . S
O570 C565 1.235 . S
C571 O554 1.295 . S
C571 O555 1.235 . S
Fe572 O574 1.918 . S
Fe572 O577 1.997 . S
Fe572 O578 2.002 . S
Fe572 O583 1.976 . S
Fe572 O586 1.996 . S
Fe573 O574 1.918 . S
Fe573 O581 1.997 . S
Fe573 O584 1.996 . S
Fe573 O588 1.976 . S
Fe573 O591 2.002 . S
O574 Fe572 1.918 . S
O574 Fe573 1.918 . S
O574 Fe575 1.918 . S
Fe575 O574 1.918 . S
Fe575 O576 2.002 . S
Fe575 O585 1.976 . S
Fe575 O589 1.996 . S
Fe575 O592 1.997 . S
O576 Fe575 2.002 . S
O576 C593 1.295 . S
O577 Fe572 1.997 . S
O577 C593 1.235 . S
O578 Fe572 2.002 . S
O578 C579 1.295 . S
C579 O578 1.295 . S
C579 O581 1.235 . S
C580 O585 1.287 . S
C580 O586 1.255 . S
O581 Fe573 1.997 . S
O581 C579 1.235 . S
C582 O588 1.287 . S
C582 O589 1.255 . S
O583 Fe572 1.976 . S
O583 C590 1.287 . S
O584 Fe573 1.996 . S
O584 C590 1.255 . S
O585 Fe575 1.976 . S
O585 C580 1.287 . S
O586 Fe572 1.996 . S
O586 C580 1.255 . S
C587 O591 1.295 . S
C587 O592 1.235 . S
O588 Fe573 1.976 . S
O588 C582 1.287 . S
O589 Fe575 1.996 . S
O589 C582 1.255 . S
C590 O583 1.287 . S
C590 O584 1.255 . S
O591 Fe573 2.002 . S
O591 C587 1.295 . S
O592 Fe575 1.997 . S
O592 C587 1.235 . S
C593 O576 1.295 . S
C593 O577 1.235 . S
Fe594 O596 1.918 . S
Fe594 O599 1.997 . S
Fe594 O600 2.002 . S
Fe594 O605 1.976 . S
Fe594 O608 1.996 . S
Fe595 O596 1.918 . S
Fe595 O603 1.997 . S
Fe595 O606 1.996 . S
Fe595 O610 1.976 . S
Fe595 O613 2.002 . S
O596 Fe594 1.918 . S
O596 Fe595 1.918 . S
O596 Fe597 1.918 . S
Fe597 O596 1.918 . S
Fe597 O598 2.002 . S
Fe597 O607 1.976 . S
Fe597 O611 1.996 . S
Fe597 O614 1.997 . S
O598 Fe597 2.002 . S
O598 C615 1.295 . S
O599 Fe594 1.997 . S
O599 C615 1.235 . S
O600 Fe594 2.002 . S
O600 C601 1.295 . S
C601 O600 1.295 . S
C601 O603 1.235 . S
C602 O607 1.287 . S
C602 O608 1.255 . S
O603 Fe595 1.997 . S
O603 C601 1.235 . S
C604 O610 1.287 . S
C604 O611 1.255 . S
O605 Fe594 1.976 . S
O605 C612 1.287 . S
O606 Fe595 1.996 . S
O606 C612 1.255 . S
O607 Fe597 1.976 . S
O607 C602 1.287 . S
O608 Fe594 1.996 . S
O608 C602 1.255 . S
C609 O613 1.295 . S
C609 O614 1.235 . S
O610 Fe595 1.976 . S
O610 C604 1.287 . S
O611 Fe597 1.996 . S
O611 C604 1.255 . S
C612 O605 1.287 . S
C612 O606 1.255 . S
O613 Fe595 2.002 . S
O613 C609 1.295 . S
O614 Fe597 1.997 . S
O614 C609 1.235 . S
C615 O598 1.295 . S
C615 O599 1.235 . S
Fe616 O618 1.918 . S
Fe616 O621 1.997 . S
Fe616 O622 2.002 . S
Fe616 O627 1.976 . S
Fe616 O630 1.996 . S
Fe617 O618 1.918 . S
Fe617 O625 1.997 . S
Fe617 O628 1.996 . S
Fe617 O632 1.976 . S
Fe617 O635 2.002 . S
O618 Fe616 1.918 . S
O618 Fe617 1.918 . S
O618 Fe619 1.918 . S
Fe619 O618 1.918 . S
Fe619 O620 2.002 . S
Fe619 O629 1.976 . S
Fe619 O633 1.996 . S
Fe619 O636 1.997 . S
O620 Fe619 2.002 . S
O620 C637 1.295 . S
O621 Fe616 1.997 . S
O621 C637 1.235 . S
O622 Fe616 2.002 . S
O622 C623 1.295 . S
C623 O622 1.295 . S
C623 O625 1.235 . S
C624 O629 1.287 . S
C624 O630 1.255 . S
O625 Fe617 1.997 . S
O625 C623 1.235 . S
C626 O632 1.287 . S
C626 O633 1.255 . S
O627 Fe616 1.976 . S
O627 C634 1.287 . S
O628 Fe617 1.996 . S
O628 C634 1.255 . S
O629 Fe619 1.976 . S
O629 C624 1.287 . S
O630 Fe616 1.996 . S
O630 C624 1.255 . S
C631 O635 1.295 . S
C631 O636 1.235 . S
O632 Fe617 1.976 . S
O632 C626 1.287 . S
O633 Fe619 1.996 . S
O633 C626 1.255 . S
C634 O627 1.287 . S
C634 O628 1.255 . S
O635 Fe617 2.002 . S
O635 C631 1.295 . S
O636 Fe619 1.997 . S
O636 C631 1.235 . S
C637 O620 1.295 . S
C637 O621 1.235 . S
Fe638 O640 1.918 . S
Fe638 O643 1.997 . S
Fe638 O644 2.002 . S
Fe638 O649 1.976 . S
Fe638 O652 1.996 . S
Fe639 O640 1.918 . S
Fe639 O647 1.997 . S
Fe639 O650 1.996 . S
Fe639 O654 1.976 . S
Fe639 O657 2.002 . S
O640 Fe638 1.918 . S
O640 Fe639 1.918 . S
O640 Fe641 1.918 . S
Fe641 O640 1.918 . S
Fe641 O642 2.002 . S
Fe641 O651 1.976 . S
Fe641 O655 1.996 . S
Fe641 O658 1.997 . S
O642 Fe641 2.002 . S
O642 C659 1.295 . S
O643 Fe638 1.997 . S
O643 C659 1.235 . S
O644 Fe638 2.002 . S
O644 C645 1.295 . S
C645 O644 1.295 . S
C645 O647 1.235 . S
C646 O651 1.287 . S
C646 O652 1.255 . S
O647 Fe639 1.997 . S
O647 C645 1.235 . S
C648 O654 1.287 . S
C648 O655 1.255 . S
O649 Fe638 1.976 . S
O649 C656 1.287 . S
O650 Fe639 1.996 . S
O650 C656 1.255 . S
O651 Fe641 1.976 . S
O651 C646 1.287 . S
O652 Fe638 1.996 . S
O652 C646 1.255 . S
C653 O657 1.295 . S
C653 O658 1.235 . S
O654 Fe639 1.976 . S
O654 C648 1.287 . S
O655 Fe641 1.996 . S
O655 C648 1.255 . S
C656 O649 1.287 . S
C656 O650 1.255 . S
O657 Fe639 2.002 . S
O657 C653 1.295 . S
O658 Fe641 1.997 . S
O658 C653 1.235 . S
C659 O642 1.295 . S
C659 O643 1.235 . S
Fe660 O662 1.918 . S
Fe660 O665 1.997 . S
Fe660 O666 2.002 . S
Fe660 O671 1.976 . S
Fe660 O674 1.996 . S
Fe661 O662 1.918 . S
Fe661 O669 1.997 . S
Fe661 O672 1.996 . S
Fe661 O676 1.976 . S
Fe661 O679 2.002 . S
O662 Fe660 1.918 . S
O662 Fe661 1.918 . S
O662 Fe663 1.918 . S
Fe663 O662 1.918 . S
Fe663 O664 2.002 . S
Fe663 O673 1.976 . S
Fe663 O677 1.996 . S
Fe663 O680 1.997 . S
O664 Fe663 2.002 . S
O664 C681 1.295 . S
O665 Fe660 1.997 . S
O665 C681 1.235 . S
O666 Fe660 2.002 . S
O666 C667 1.295 . S
C667 O666 1.295 . S
C667 O669 1.235 . S
C668 O673 1.287 . S
C668 O674 1.255 . S
O669 Fe661 1.997 . S
O669 C667 1.235 . S
C670 O676 1.287 . S
C670 O677 1.255 . S
O671 Fe660 1.976 . S
O671 C678 1.287 . S
O672 Fe661 1.996 . S
O672 C678 1.255 . S
O673 Fe663 1.976 . S
O673 C668 1.287 . S
O674 Fe660 1.996 . S
O674 C668 1.255 . S
C675 O679 1.295 . S
C675 O680 1.235 . S
O676 Fe661 1.976 . S
O676 C670 1.287 . S
O677 Fe663 1.996 . S
O677 C670 1.255 . S
C678 O671 1.287 . S
C678 O672 1.255 . S
O679 Fe661 2.002 . S
O679 C675 1.295 . S
O680 Fe663 1.997 . S
O680 C675 1.235 . S
C681 O664 1.295 . S
C681 O665 1.235 . S
Fe682 O684 1.918 . S
Fe682 O687 1.997 . S
Fe682 O688 2.002 . S
Fe682 O693 1.976 . S
Fe682 O696 1.996 . S
Fe683 O684 1.918 . S
Fe683 O691 1.997 . S
Fe683 O694 1.996 . S
Fe683 O698 1.976 . S
Fe683 O701 2.002 . S
O684 Fe682 1.918 . S
O684 Fe683 1.918 . S
O684 Fe685 1.918 . S
Fe685 O684 1.918 . S
Fe685 O686 2.002 . S
Fe685 O695 1.976 . S
Fe685 O699 1.996 . S
Fe685 O702 1.997 . S
O686 Fe685 2.002 . S
O686 C703 1.295 . S
O687 Fe682 1.997 . S
O687 C703 1.235 . S
O688 Fe682 2.002 . S
O688 C689 1.295 . S
C689 O688 1.295 . S
C689 O691 1.235 . S
C690 O695 1.287 . S
C690 O696 1.255 . S
O691 Fe683 1.997 . S
O691 C689 1.235 . S
C692 O698 1.287 . S
C692 O699 1.255 . S
O693 Fe682 1.976 . S
O693 C700 1.287 . S
O694 Fe683 1.996 . S
O694 C700 1.255 . S
O695 Fe685 1.976 . S
O695 C690 1.287 . S
O696 Fe682 1.996 . S
O696 C690 1.255 . S
C697 O701 1.295 . S
C697 O702 1.235 . S
O698 Fe683 1.976 . S
O698 C692 1.287 . S
O699 Fe685 1.996 . S
O699 C692 1.255 . S
C700 O693 1.287 . S
C700 O694 1.255 . S
O701 Fe683 2.002 . S
O701 C697 1.295 . S
O702 Fe685 1.997 . S
O702 C697 1.235 . S
C703 O686 1.295 . S
C703 O687 1.235 . S
Fe704 O706 1.918 . S
Fe704 O709 1.997 . S
Fe704 O710 2.002 . S
Fe704 O715 1.976 . S
Fe704 O718 1.996 . S
Fe705 O706 1.918 . S
Fe705 O713 1.997 . S
Fe705 O716 1.996 . S
Fe705 O720 1.976 . S
Fe705 O723 2.002 . S
O706 Fe704 1.918 . S
O706 Fe705 1.918 . S
O706 Fe707 1.918 . S
Fe707 O706 1.918 . S
Fe707 O708 2.002 . S
Fe707 O717 1.976 . S
Fe707 O721 1.996 . S
Fe707 O724 1.997 . S
O708 Fe707 2.002 . S
O708 C725 1.295 . S
O709 Fe704 1.997 . S
O709 C725 1.235 . S
O710 Fe704 2.002 . S
O710 C711 1.295 . S
C711 O710 1.295 . S
C711 O713 1.235 . S
C712 O717 1.287 . S
C712 O718 1.255 . S
O713 Fe705 1.997 . S
O713 C711 1.235 . S
C714 O720 1.287 . S
C714 O721 1.255 . S
O715 Fe704 1.976 . S
O715 C722 1.287 . S
O716 Fe705 1.996 . S
O716 C722 1.255 . S
O717 Fe707 1.976 . S
O717 C712 1.287 . S
O718 Fe704 1.996 . S
O718 C712 1.255 . S
C719 O723 1.295 . S
C719 O724 1.235 . S
O720 Fe705 1.976 . S
O720 C714 1.287 . S
O721 Fe707 1.996 . S
O721 C714 1.255 . S
C722 O715 1.287 . S
C722 O716 1.255 . S
O723 Fe705 2.002 . S
O723 C719 1.295 . S
O724 Fe707 1.997 . S
O724 C719 1.235 . S
C725 O708 1.295 . S
C725 O709 1.235 . S
Fe726 O728 1.918 . S
Fe726 O731 1.997 . S
Fe726 O732 2.002 . S
Fe726 O737 1.976 . S
Fe726 O740 1.996 . S
Fe727 O728 1.918 . S
Fe727 O735 1.997 . S
Fe727 O738 1.996 . S
Fe727 O742 1.976 . S
Fe727 O745 2.002 . S
O728 Fe726 1.918 . S
O728 Fe727 1.918 . S
O728 Fe729 1.918 . S
Fe729 O728 1.918 . S
Fe729 O730 2.002 . S
Fe729 O739 1.976 . S
Fe729 O743 1.996 . S
Fe729 O746 1.997 . S
O730 Fe729 2.002 . S
O730 C747 1.295 . S
O731 Fe726 1.997 . S
O731 C747 1.235 . S
O732 Fe726 2.002 . S
O732 C733 1.295 . S
C733 O732 1.295 . S
C733 O735 1.235 . S
C734 O739 1.287 . S
C734 O740 1.255 . S
O735 Fe727 1.997 . S
O735 C733 1.235 . S
C736 O742 1.287 . S
C736 O743 1.255 . S
O737 Fe726 1.976 . S
O737 C744 1.287 . S
O738 Fe727 1.996 . S
O738 C744 1.255 . S
O739 Fe729 1.976 . S
O739 C734 1.287 . S
O740 Fe726 1.996 . S
O740 C734 1.255 . S
C741 O745 1.295 . S
C741 O746 1.235 . S
O742 Fe727 1.976 . S
O742 C736 1.287 . S
O743 Fe729 1.996 . S
O743 C736 1.255 . S
C744 O737 1.287 . S
C744 O738 1.255 . S
O745 Fe727 2.002 . S
O745 C741 1.295 . S
O746 Fe729 1.997 . S
O746 C741 1.235 . S
C747 O730 1.295 . S
C747 O731 1.235 . S
Fe748 O750 1.918 . S
Fe748 O753 1.997 . S
Fe748 O754 2.002 . S
Fe748 O759 1.976 . S
Fe748 O762 1.996 . S
Fe749 O750 1.918 . S
Fe749 O757 1.997 . S
Fe749 O760 1.996 . S
Fe749 O764 1.976 . S
Fe749 O767 2.002 . S
O750 Fe748 1.918 . S
O750 Fe749 1.918 . S
O750 Fe751 1.918 . S
Fe751 O750 1.918 . S
Fe751 O752 2.002 . S
Fe751 O761 1.976 . S
Fe751 O765 1.996 . S
Fe751 O768 1.997 . S
O752 Fe751 2.002 . S
O752 C769 1.295 . S
O753 Fe748 1.997 . S
O753 C769 1.235 . S
O754 Fe748 2.002 . S
O754 C755 1.295 . S
C755 O754 1.295 . S
C755 O757 1.235 . S
C756 O761 1.287 . S
C756 O762 1.255 . S
O757 Fe749 1.997 . S
O757 C755 1.235 . S
C758 O764 1.287 . S
C758 O765 1.255 . S
O759 Fe748 1.976 . S
O759 C766 1.287 . S
O760 Fe749 1.996 . S
O760 C766 1.255 . S
O761 Fe751 1.976 . S
O761 C756 1.287 . S
O762 Fe748 1.996 . S
O762 C756 1.255 . S
C763 O767 1.295 . S
C763 O768 1.235 . S
O764 Fe749 1.976 . S
O764 C758 1.287 . S
O765 Fe751 1.996 . S
O765 C758 1.255 . S
C766 O759 1.287 . S
C766 O760 1.255 . S
O767 Fe749 2.002 . S
O767 C763 1.295 . S
O768 Fe751 1.997 . S
O768 C763 1.235 . S
C769 O752 1.295 . S
C769 O753 1.235 . S
Fe770 O772 1.918 . S
Fe770 O775 1.997 . S
Fe770 O776 2.002 . S
Fe770 O781 1.976 . S
Fe770 O784 1.996 . S
Fe771 O772 1.918 . S
Fe771 O779 1.997 . S
Fe771 O782 1.996 . S
Fe771 O786 1.976 . S
Fe771 O789 2.002 . S
O772 Fe770 1.918 . S
O772 Fe771 1.918 . S
O772 Fe773 1.918 . S
Fe773 O772 1.918 . S
Fe773 O774 2.002 . S
Fe773 O783 1.976 . S
Fe773 O787 1.996 . S
Fe773 O790 1.997 . S
O774 Fe773 2.002 . S
O774 C791 1.295 . S
O775 Fe770 1.997 . S
O775 C791 1.235 . S
O776 Fe770 2.002 . S
O776 C777 1.295 . S
C777 O776 1.295 . S
C777 O779 1.235 . S
C778 O783 1.287 . S
C778 O784 1.255 . S
O779 Fe771 1.997 . S
O779 C777 1.235 . S
C780 O786 1.287 . S
C780 O787 1.255 . S
O781 Fe770 1.976 . S
O781 C788 1.287 . S
O782 Fe771 1.996 . S
O782 C788 1.255 . S
O783 Fe773 1.976 . S
O783 C778 1.287 . S
O784 Fe770 1.996 . S
O784 C778 1.255 . S
C785 O789 1.295 . S
C785 O790 1.235 . S
O786 Fe771 1.976 . S
O786 C780 1.287 . S
O787 Fe773 1.996 . S
O787 C780 1.255 . S
C788 O781 1.287 . S
C788 O782 1.255 . S
O789 Fe771 2.002 . S
O789 C785 1.295 . S
O790 Fe773 1.997 . S
O790 C785 1.235 . S
C791 O774 1.295 . S
C791 O775 1.235 . S
H792 C798 0.930 . S
H793 C802 0.930 . S
H794 C807 0.929 . S
H795 C805 0.929 . S
H796 C800 0.929 . S
H797 C806 0.929 . S
C798 H792 0.930 . S
C798 C799 1.367 . S
C798 C806 1.378 . S
C799 C798 1.367 . S
C799 C807 1.433 . S
C800 H796 0.929 . S
C800 C802 1.378 . S
C800 C804 1.350 . S
C801 C804 1.463 1_554 S
C801 C806 1.350 . S
C801 N809 1.427 . S
C802 H793 0.930 . S
C802 C800 1.378 . S
C802 C803 1.367 . S
C803 C802 1.367 . S
C803 C805 1.433 . S
C804 C800 1.350 . S
C804 C801 1.463 1_556 S
C804 N808 1.427 . S
C805 H795 0.929 . S
C805 C803 1.433 . S
C805 N808 1.384 . S
C806 H797 0.929 . S
C806 C798 1.378 . S
C806 C801 1.350 . S
C807 H794 0.929 . S
C807 C799 1.433 . S
C807 N809 1.384 . S
N808 C804 1.427 . S
N808 C805 1.384 . S
N809 C801 1.427 . S
N809 C807 1.384 . S
H810 C816 0.930 . S
H811 C820 0.930 . S
H812 C825 0.929 . S
H813 C823 0.929 . S
H814 C818 0.929 . S
H815 C824 0.929 . S
C816 H810 0.930 . S
C816 C817 1.367 . S
C816 C824 1.378 . S
C817 C816 1.367 . S
C817 C825 1.433 . S
C818 H814 0.929 . S
C818 C820 1.378 . S
C818 C822 1.350 . S
C819 C822 1.463 1_554 S
C819 C824 1.350 . S
C819 N827 1.427 . S
C820 H811 0.930 . S
C820 C818 1.378 . S
C820 C821 1.367 . S
C821 C820 1.367 . S
C821 C823 1.433 . S
C822 C818 1.350 . S
C822 C819 1.463 1_556 S
C822 N826 1.427 . S
C823 H813 0.929 . S
C823 C821 1.433 . S
C823 N826 1.384 . S
C824 H815 0.929 . S
C824 C816 1.378 . S
C824 C819 1.350 . S
C825 H812 0.929 . S
C825 C817 1.433 . S
C825 N827 1.384 . S
N826 C822 1.427 . S
N826 C823 1.384 . S
N827 C819 1.427 . S
N827 C825 1.384 . S
H828 C834 0.930 . S
H829 C838 0.930 . S
H830 C843 0.929 . S
H831 C841 0.929 . S
H832 C836 0.929 1_554 S
H833 C842 0.929 1_556 S
C834 H828 0.930 . S
C834 C835 1.367 . S
C834 C842 1.378 . S
C835 C834 1.367 . S
C835 C843 1.433 . S
C836 H832 0.929 1_556 S
C836 C838 1.378 . S
C836 C840 1.350 . S
C837 C840 1.463 1_554 S
C837 C842 1.350 . S
C837 N845 1.427 . S
C838 H829 0.930 . S
C838 C836 1.378 . S
C838 C839 1.367 . S
C839 C838 1.367 . S
C839 C841 1.433 . S
C840 C836 1.350 . S
C840 C837 1.463 1_556 S
C840 N844 1.427 . S
C841 H831 0.929 . S
C841 C839 1.433 . S
C841 N844 1.384 . S
C842 H833 0.929 1_554 S
C842 C834 1.378 . S
C842 C837 1.350 . S
C843 H830 0.929 . S
C843 C835 1.433 . S
C843 N845 1.384 . S
N844 C840 1.427 . S
N844 C841 1.384 . S
N845 C837 1.427 . S
N845 C843 1.384 . S
H846 C852 0.930 . S
H847 C856 0.930 . S
H848 C861 0.929 . S
H849 C859 0.929 . S
H850 C854 0.929 . S
H851 C860 0.929 . S
C852 H846 0.930 . S
C852 C853 1.367 . S
C852 C860 1.378 . S
C853 C852 1.367 . S
C853 C861 1.433 . S
C854 H850 0.929 . S
C854 C856 1.378 . S
C854 C858 1.350 . S
C855 C858 1.463 . S
C855 C860 1.350 . S
C855 N863 1.427 . S
C856 H847 0.930 . S
C856 C854 1.378 . S
C856 C857 1.367 . S
C857 C856 1.367 . S
C857 C859 1.433 . S
C858 C854 1.350 . S
C858 C855 1.463 . S
C858 N862 1.427 . S
C859 H849 0.929 . S
C859 C857 1.433 . S
C859 N862 1.384 . S
C860 H851 0.929 . S
C860 C852 1.378 . S
C860 C855 1.350 . S
C861 H848 0.929 . S
C861 C853 1.433 . S
C861 N863 1.384 . S
N862 C858 1.427 . S
N862 C859 1.384 . S
N863 C855 1.427 . S
N863 C861 1.384 . S
H864 C870 0.930 . S
H865 C874 0.930 . S
H866 C879 0.929 . S
H867 C877 0.929 . S
H868 C872 0.929 . S
H869 C878 0.929 . S
C870 H864 0.930 . S
C870 C871 1.367 . S
C870 C878 1.378 . S
C871 C870 1.367 . S
C871 C879 1.433 . S
C872 H868 0.929 . S
C872 C874 1.378 . S
C872 C876 1.350 . S
C873 C876 1.463 . S
C873 C878 1.350 . S
C873 N881 1.427 . S
C874 H865 0.930 . S
C874 C872 1.378 . S
C874 C875 1.367 . S
C875 C874 1.367 . S
C875 C877 1.433 . S
C876 C872 1.350 . S
C876 C873 1.463 . S
C876 N880 1.427 . S
C877 H867 0.929 . S
C877 C875 1.433 . S
C877 N880 1.384 . S
C878 H869 0.929 . S
C878 C870 1.378 . S
C878 C873 1.350 . S
C879 H866 0.929 . S
C879 C871 1.433 . S
C879 N881 1.384 . S
N880 C876 1.427 . S
N880 C877 1.384 . S
N881 C873 1.427 . S
N881 C879 1.384 . S
H882 C888 0.930 . S
H883 C892 0.930 . S
H884 C897 0.929 . S
H885 C895 0.929 . S
H886 C890 0.929 . S
H887 C896 0.929 . S
C888 H882 0.930 . S
C888 C889 1.367 . S
C888 C896 1.378 . S
C889 C888 1.367 . S
C889 C897 1.433 . S
C890 H886 0.929 . S
C890 C892 1.378 . S
C890 C894 1.350 . S
C891 C894 1.463 . S
C891 C896 1.350 . S
C891 N899 1.427 . S
C892 H883 0.930 . S
C892 C890 1.378 . S
C892 C893 1.367 . S
C893 C892 1.367 . S
C893 C895 1.433 . S
C894 C890 1.350 . S
C894 C891 1.463 . S
C894 N898 1.427 . S
C895 H885 0.929 . S
C895 C893 1.433 . S
C895 N898 1.384 . S
C896 H887 0.929 . S
C896 C888 1.378 . S
C896 C891 1.350 . S
C897 H884 0.929 . S
C897 C889 1.433 . S
C897 N899 1.384 . S
N898 C894 1.427 . S
N898 C895 1.384 . S
N899 C891 1.427 . S
N899 C897 1.384 . S
H900 C906 0.930 . S
H901 C910 0.930 . S
H902 C915 0.929 . S
H903 C913 0.929 . S
H904 C908 0.929 1_554 S
H905 C914 0.929 1_556 S
C906 H900 0.930 . S
C906 C907 1.367 . S
C906 C914 1.378 . S
C907 C906 1.367 . S
C907 C915 1.433 . S
C908 H904 0.929 1_556 S
C908 C910 1.378 . S
C908 C912 1.350 . S
C909 C912 1.463 1_554 S
C909 C914 1.350 . S
C909 N917 1.427 . S
C910 H901 0.930 . S
C910 C908 1.378 . S
C910 C911 1.367 . S
C911 C910 1.367 . S
C911 C913 1.433 . S
C912 C908 1.350 . S
C912 C909 1.463 1_556 S
C912 N916 1.427 . S
C913 H903 0.929 . S
C913 C911 1.433 . S
C913 N916 1.384 . S
C914 H905 0.929 1_554 S
C914 C906 1.378 . S
C914 C909 1.350 . S
C915 H902 0.929 . S
C915 C907 1.433 . S
C915 N917 1.384 . S
N916 C912 1.427 . S
N916 C913 1.384 . S
N917 C909 1.427 . S
N917 C915 1.384 . S
H918 C924 0.930 . S
H919 C928 0.930 . S
H920 C933 0.929 . S
H921 C931 0.929 . S
H922 C926 0.929 1_556 S
H923 C932 0.929 1_554 S
C924 H918 0.930 . S
C924 C925 1.367 . S
C924 C932 1.378 . S
C925 C924 1.367 . S
C925 C933 1.433 . S
C926 H922 0.929 1_554 S
C926 C928 1.378 . S
C926 C930 1.350 . S
C927 C930 1.463 1_556 S
C927 C932 1.350 . S
C927 N935 1.427 . S
C928 H919 0.930 . S
C928 C926 1.378 . S
C928 C929 1.367 . S
C929 C928 1.367 . S
C929 C931 1.433 . S
C930 C926 1.350 . S
C930 C927 1.463 1_554 S
C930 N934 1.427 . S
C931 H921 0.929 . S
C931 C929 1.433 . S
C931 N934 1.384 . S
C932 H923 0.929 1_556 S
C932 C924 1.378 . S
C932 C927 1.350 . S
C933 H920 0.929 . S
C933 C925 1.433 . S
C933 N935 1.384 . S
N934 C930 1.427 . S
N934 C931 1.384 . S
N935 C927 1.427 . S
N935 C933 1.384 . S
H936 C942 0.930 . S
H937 C946 0.930 . S
H938 C951 0.929 . S
H939 C949 0.929 . S
H940 C944 0.929 . S
H941 C950 0.929 . S
C942 H936 0.930 . S
C942 C943 1.367 . S
C942 C950 1.378 . S
C943 C942 1.367 . S
C943 C951 1.433 . S
C944 H940 0.929 . S
C944 C946 1.378 . S
C944 C948 1.350 . S
C945 C948 1.463 1_556 S
C945 C950 1.350 . S
C945 N953 1.427 . S
C946 H937 0.930 . S
C946 C944 1.378 . S
C946 C947 1.367 . S
C947 C946 1.367 . S
C947 C949 1.433 . S
C948 C944 1.350 . S
C948 C945 1.463 1_554 S
C948 N952 1.427 . S
C949 H939 0.929 . S
C949 C947 1.433 . S
C949 N952 1.384 . S
C950 H941 0.929 . S
C950 C942 1.378 . S
C950 C945 1.350 . S
C951 H938 0.929 . S
C951 C943 1.433 . S
C951 N953 1.384 . S
N952 C948 1.427 . S
N952 C949 1.384 . S
N953 C945 1.427 . S
N953 C951 1.384 . S
H954 C960 0.930 . S
H955 C964 0.930 . S
H956 C969 0.929 . S
H957 C967 0.929 . S
H958 C962 0.929 . S
H959 C968 0.929 . S
C960 H954 0.930 . S
C960 C961 1.367 . S
C960 C968 1.378 . S
C961 C960 1.367 . S
C961 C969 1.433 . S
C962 H958 0.929 . S
C962 C964 1.378 . S
C962 C966 1.350 . S
C963 C966 1.463 . S
C963 C968 1.350 . S
C963 N971 1.427 . S
C964 H955 0.930 . S
C964 C962 1.378 . S
C964 C965 1.367 . S
C965 C964 1.367 . S
C965 C967 1.433 . S
C966 C962 1.350 . S
C966 C963 1.463 . S
C966 N970 1.427 . S
C967 H957 0.929 . S
C967 C965 1.433 . S
C967 N970 1.384 . S
C968 H959 0.929 . S
C968 C960 1.378 . S
C968 C963 1.350 . S
C969 H956 0.929 . S
C969 C961 1.433 . S
C969 N971 1.384 . S
N970 C966 1.427 . S
N970 C967 1.384 . S
N971 C963 1.427 . S
N971 C969 1.384 . S
H972 C978 0.930 . S
H973 C982 0.930 . S
H974 C987 0.929 . S
H975 C985 0.929 . S
H976 C980 0.929 . S
H977 C986 0.929 . S
C978 H972 0.930 . S
C978 C979 1.367 . S
C978 C986 1.378 . S
C979 C978 1.367 . S
C979 C987 1.433 . S
C980 H976 0.929 . S
C980 C982 1.378 . S
C980 C984 1.350 . S
C981 C984 1.463 . S
C981 C986 1.350 . S
C981 N989 1.427 . S
C982 H973 0.930 . S
C982 C980 1.378 . S
C982 C983 1.367 . S
C983 C982 1.367 . S
C983 C985 1.433 . S
C984 C980 1.350 . S
C984 C981 1.463 . S
C984 N988 1.427 . S
C985 H975 0.929 . S
C985 C983 1.433 . S
C985 N988 1.384 . S
C986 H977 0.929 . S
C986 C978 1.378 . S
C986 C981 1.350 . S
C987 H974 0.929 . S
C987 C979 1.433 . S
C987 N989 1.384 . S
N988 C984 1.427 . S
N988 C985 1.384 . S
N989 C981 1.427 . S
N989 C987 1.384 . S
H990 C996 0.930 . S
H991 C1000 0.930 . S
H992 C1005 0.929 . S
H993 C1003 0.929 . S
H994 C998 0.929 . S
H995 C1004 0.929 . S
C996 H990 0.930 . S
C996 C997 1.367 . S
C996 C1004 1.378 . S
C997 C996 1.367 . S
C997 C1005 1.433 . S
C998 H994 0.929 . S
C998 C1000 1.378 . S
C998 C1002 1.350 . S
C999 C1002 1.463 . S
C999 C1004 1.350 . S
C999 N1007 1.427 . S
C1000 H991 0.930 . S
C1000 C998 1.378 . S
C1000 C1001 1.367 . S
C1001 C1000 1.367 . S
C1001 C1003 1.433 . S
C1002 C998 1.350 . S
C1002 C999 1.463 . S
C1002 N1006 1.427 . S
C1003 H993 0.929 . S
C1003 C1001 1.433 . S
C1003 N1006 1.384 . S
C1004 H995 0.929 . S
C1004 C996 1.378 . S
C1004 C999 1.350 . S
C1005 H992 0.929 . S
C1005 C997 1.433 . S
C1005 N1007 1.384 . S
N1006 C1002 1.427 . S
N1006 C1003 1.384 . S
N1007 C999 1.427 . S
N1007 C1005 1.384 . S
H1008 C1014 0.930 . S
H1009 C1018 0.930 . S
H1010 C1023 0.929 . S
H1011 C1021 0.929 . S
H1012 C1016 0.929 . S
H1013 C1022 0.929 . S
C1014 H1008 0.930 . S
C1014 C1015 1.367 . S
C1014 C1022 1.378 . S
C1015 C1014 1.367 . S
C1015 C1023 1.433 . S
C1016 H1012 0.929 . S
C1016 C1018 1.378 . S
C1016 C1020 1.350 . S
C1017 C1020 1.463 . S
C1017 C1022 1.350 . S
C1017 N1025 1.427 . S
C1018 H1009 0.930 . S
C1018 C1016 1.378 . S
C1018 C1019 1.367 . S
C1019 C1018 1.367 . S
C1019 C1021 1.433 . S
C1020 C1016 1.350 . S
C1020 C1017 1.463 . S
C1020 N1024 1.427 . S
C1021 H1011 0.929 . S
C1021 C1019 1.433 . S
C1021 N1024 1.384 . S
C1022 H1013 0.929 . S
C1022 C1014 1.378 . S
C1022 C1017 1.350 . S
C1023 H1010 0.929 . S
C1023 C1015 1.433 . S
C1023 N1025 1.384 . S
N1024 C1020 1.427 . S
N1024 C1021 1.384 . S
N1025 C1017 1.427 . S
N1025 C1023 1.384 . S
H1026 C1032 0.930 . S
H1027 C1036 0.930 . S
H1028 C1041 0.929 . S
H1029 C1039 0.929 . S
H1030 C1034 0.929 . S
H1031 C1040 0.929 . S
C1032 H1026 0.930 . S
C1032 C1033 1.367 . S
C1032 C1040 1.378 . S
C1033 C1032 1.367 . S
C1033 C1041 1.433 . S
C1034 H1030 0.929 . S
C1034 C1036 1.378 . S
C1034 C1038 1.350 . S
C1035 C1038 1.463 . S
C1035 C1040 1.350 . S
C1035 N1043 1.427 . S
C1036 H1027 0.930 . S
C1036 C1034 1.378 . S
C1036 C1037 1.367 . S
C1037 C1036 1.367 . S
C1037 C1039 1.433 . S
C1038 C1034 1.350 . S
C1038 C1035 1.463 . S
C1038 N1042 1.427 . S
C1039 H1029 0.929 . S
C1039 C1037 1.433 . S
C1039 N1042 1.384 . S
C1040 H1031 0.929 . S
C1040 C1032 1.378 . S
C1040 C1035 1.350 . S
C1041 H1028 0.929 . S
C1041 C1033 1.433 . S
C1041 N1043 1.384 . S
N1042 C1038 1.427 . S
N1042 C1039 1.384 . S
N1043 C1035 1.427 . S
N1043 C1041 1.384 . S
H1044 C1050 0.930 . S
H1045 C1054 0.930 . S
H1046 C1059 0.929 . S
H1047 C1057 0.929 . S
H1048 C1052 0.929 . S
H1049 C1058 0.929 . S
C1050 H1044 0.930 . S
C1050 C1051 1.367 . S
C1050 C1058 1.378 . S
C1051 C1050 1.367 . S
C1051 C1059 1.433 . S
C1052 H1048 0.929 . S
C1052 C1054 1.378 . S
C1052 C1056 1.350 . S
C1053 C1056 1.463 . S
C1053 C1058 1.350 . S
C1053 N1061 1.427 . S
C1054 H1045 0.930 . S
C1054 C1052 1.378 . S
C1054 C1055 1.367 . S
C1055 C1054 1.367 . S
C1055 C1057 1.433 . S
C1056 C1052 1.350 . S
C1056 C1053 1.463 . S
C1056 N1060 1.427 . S
C1057 H1047 0.929 . S
C1057 C1055 1.433 . S
C1057 N1060 1.384 . S
C1058 H1049 0.929 . S
C1058 C1050 1.378 . S
C1058 C1053 1.350 . S
C1059 H1046 0.929 . S
C1059 C1051 1.433 . S
C1059 N1061 1.384 . S
N1060 C1056 1.427 . S
N1060 C1057 1.384 . S
N1061 C1053 1.427 . S
N1061 C1059 1.384 . S
H1062 C1068 0.930 . S
H1063 C1072 0.930 . S
H1064 C1077 0.929 . S
H1065 C1075 0.929 . S
H1066 C1070 0.929 . S
H1067 C1076 0.929 . S
C1068 H1062 0.930 . S
C1068 C1069 1.367 . S
C1068 C1076 1.378 . S
C1069 C1068 1.367 . S
C1069 C1077 1.433 . S
C1070 H1066 0.929 . S
C1070 C1072 1.378 . S
C1070 C1074 1.350 . S
C1071 C1074 1.463 . S
C1071 C1076 1.350 . S
C1071 N1079 1.427 . S
C1072 H1063 0.930 . S
C1072 C1070 1.378 . S
C1072 C1073 1.367 . S
C1073 C1072 1.367 . S
C1073 C1075 1.433 . S
C1074 C1070 1.350 . S
C1074 C1071 1.463 . S
C1074 N1078 1.427 . S
C1075 H1065 0.929 . S
C1075 C1073 1.433 . S
C1075 N1078 1.384 . S
C1076 H1067 0.929 . S
C1076 C1068 1.378 . S
C1076 C1071 1.350 . S
C1077 H1064 0.929 . S
C1077 C1069 1.433 . S
C1077 N1079 1.384 . S
N1078 C1074 1.427 . S
N1078 C1075 1.384 . S
N1079 C1071 1.427 . S
N1079 C1077 1.384 . S
H1080 C1086 0.930 . S
H1081 C1090 0.930 . S
H1082 C1095 0.929 . S
H1083 C1093 0.929 . S
H1084 C1088 0.929 . S
H1085 C1094 0.929 . S
C1086 H1080 0.930 . S
C1086 C1087 1.367 . S
C1086 C1094 1.378 . S
C1087 C1086 1.367 . S
C1087 C1095 1.433 . S
C1088 H1084 0.929 . S
C1088 C1090 1.378 . S
C1088 C1092 1.350 . S
C1089 C1092 1.463 . S
C1089 C1094 1.350 . S
C1089 N1097 1.427 . S
C1090 H1081 0.930 . S
C1090 C1088 1.378 . S
C1090 C1091 1.367 . S
C1091 C1090 1.367 . S
C1091 C1093 1.433 . S
C1092 C1088 1.350 . S
C1092 C1089 1.463 . S
C1092 N1096 1.427 . S
C1093 H1083 0.929 . S
C1093 C1091 1.433 . S
C1093 N1096 1.384 . S
C1094 H1085 0.929 . S
C1094 C1086 1.378 . S
C1094 C1089 1.350 . S
C1095 H1082 0.929 . S
C1095 C1087 1.433 . S
C1095 N1097 1.384 . S
N1096 C1092 1.427 . S
N1096 C1093 1.384 . S
N1097 C1089 1.427 . S
N1097 C1095 1.384 . S
H1098 C1104 0.930 . S
H1099 C1108 0.930 . S
H1100 C1113 0.929 . S
H1101 C1111 0.929 . S
H1102 C1106 0.929 . S
H1103 C1112 0.929 . S
C1104 H1098 0.930 . S
C1104 C1105 1.367 . S
C1104 C1112 1.378 . S
C1105 C1104 1.367 . S
C1105 C1113 1.433 . S
C1106 H1102 0.929 . S
C1106 C1108 1.378 . S
C1106 C1110 1.350 . S
C1107 C1110 1.463 . S
C1107 C1112 1.350 . S
C1107 N1115 1.427 . S
C1108 H1099 0.930 . S
C1108 C1106 1.378 . S
C1108 C1109 1.367 . S
C1109 C1108 1.367 . S
C1109 C1111 1.433 . S
C1110 C1106 1.350 . S
C1110 C1107 1.463 . S
C1110 N1114 1.427 . S
C1111 H1101 0.929 . S
C1111 C1109 1.433 . S
C1111 N1114 1.384 . S
C1112 H1103 0.929 . S
C1112 C1104 1.378 . S
C1112 C1107 1.350 . S
C1113 H1100 0.929 . S
C1113 C1105 1.433 . S
C1113 N1115 1.384 . S
N1114 C1110 1.427 . S
N1114 C1111 1.384 . S
N1115 C1107 1.427 . S
N1115 C1113 1.384 . S
H1116 C1122 0.930 . S
H1117 C1126 0.930 . S
H1118 C1131 0.929 . S
H1119 C1129 0.929 . S
H1120 C1124 0.929 . S
H1121 C1130 0.929 . S
C1122 H1116 0.930 . S
C1122 C1123 1.367 . S
C1122 C1130 1.378 . S
C1123 C1122 1.367 . S
C1123 C1131 1.433 . S
C1124 H1120 0.929 . S
C1124 C1126 1.378 . S
C1124 C1128 1.350 . S
C1125 C1128 1.463 . S
C1125 C1130 1.350 . S
C1125 N1133 1.427 . S
C1126 H1117 0.930 . S
C1126 C1124 1.378 . S
C1126 C1127 1.367 . S
C1127 C1126 1.367 . S
C1127 C1129 1.433 . S
C1128 C1124 1.350 . S
C1128 C1125 1.463 . S
C1128 N1132 1.427 . S
C1129 H1119 0.929 . S
C1129 C1127 1.433 . S
C1129 N1132 1.384 . S
C1130 H1121 0.929 . S
C1130 C1122 1.378 . S
C1130 C1125 1.350 . S
C1131 H1118 0.929 . S
C1131 C1123 1.433 . S
C1131 N1133 1.384 . S
N1132 C1128 1.427 . S
N1132 C1129 1.384 . S
N1133 C1125 1.427 . S
N1133 C1131 1.384 . S
H1134 C1140 0.930 . S
H1135 C1144 0.930 . S
H1136 C1149 0.929 . S
H1137 C1147 0.929 . S
H1138 C1142 0.929 . S
H1139 C1148 0.929 . S
C1140 H1134 0.930 . S
C1140 C1141 1.367 . S
C1140 C1148 1.378 . S
C1141 C1140 1.367 . S
C1141 C1149 1.433 . S
C1142 H1138 0.929 . S
C1142 C1144 1.378 . S
C1142 C1146 1.350 . S
C1143 C1146 1.463 . S
C1143 C1148 1.350 . S
C1143 N1151 1.427 . S
C1144 H1135 0.930 . S
C1144 C1142 1.378 . S
C1144 C1145 1.367 . S
C1145 C1144 1.367 . S
C1145 C1147 1.433 . S
C1146 C1142 1.350 . S
C1146 C1143 1.463 . S
C1146 N1150 1.427 . S
C1147 H1137 0.929 . S
C1147 C1145 1.433 . S
C1147 N1150 1.384 . S
C1148 H1139 0.929 . S
C1148 C1140 1.378 . S
C1148 C1143 1.350 . S
C1149 H1136 0.929 . S
C1149 C1141 1.433 . S
C1149 N1151 1.384 . S
N1150 C1146 1.427 . S
N1150 C1147 1.384 . S
N1151 C1143 1.427 . S
N1151 C1149 1.384 . S
H1152 C1158 0.930 . S
H1153 C1162 0.930 . S
H1154 C1167 0.929 . S
H1155 C1165 0.929 . S
H1156 C1160 0.929 . S
H1157 C1166 0.929 . S
C1158 H1152 0.930 . S
C1158 C1159 1.367 . S
C1158 C1166 1.378 . S
C1159 C1158 1.367 . S
C1159 C1167 1.433 . S
C1160 H1156 0.929 . S
C1160 C1162 1.378 . S
C1160 C1164 1.350 . S
C1161 C1164 1.463 . S
C1161 C1166 1.350 . S
C1161 N1169 1.427 . S
C1162 H1153 0.930 . S
C1162 C1160 1.378 . S
C1162 C1163 1.367 . S
C1163 C1162 1.367 . S
C1163 C1165 1.433 . S
C1164 C1160 1.350 . S
C1164 C1161 1.463 . S
C1164 N1168 1.427 . S
C1165 H1155 0.929 . S
C1165 C1163 1.433 . S
C1165 N1168 1.384 . S
C1166 H1157 0.929 . S
C1166 C1158 1.378 . S
C1166 C1161 1.350 . S
C1167 H1154 0.929 . S
C1167 C1159 1.433 . S
C1167 N1169 1.384 . S
N1168 C1164 1.427 . S
N1168 C1165 1.384 . S
N1169 C1161 1.427 . S
N1169 C1167 1.384 . S
H1170 C1176 0.930 . S
H1171 C1180 0.930 . S
H1172 C1185 0.929 . S
H1173 C1183 0.929 . S
H1174 C1178 0.929 . S
H1175 C1184 0.929 . S
C1176 H1170 0.930 . S
C1176 C1177 1.367 . S
C1176 C1184 1.378 . S
C1177 C1176 1.367 . S
C1177 C1185 1.433 . S
C1178 H1174 0.929 . S
C1178 C1180 1.378 . S
C1178 C1182 1.350 . S
C1179 C1182 1.463 . S
C1179 C1184 1.350 . S
C1179 N1187 1.427 . S
C1180 H1171 0.930 . S
C1180 C1178 1.378 . S
C1180 C1181 1.367 . S
C1181 C1180 1.367 . S
C1181 C1183 1.433 . S
C1182 C1178 1.350 . S
C1182 C1179 1.463 . S
C1182 N1186 1.427 . S
C1183 H1173 0.929 . S
C1183 C1181 1.433 . S
C1183 N1186 1.384 . S
C1184 H1175 0.929 . S
C1184 C1176 1.378 . S
C1184 C1179 1.350 . S
C1185 H1172 0.929 . S
C1185 C1177 1.433 . S
C1185 N1187 1.384 . S
N1186 C1182 1.427 . S
N1186 C1183 1.384 . S
N1187 C1179 1.427 . S
N1187 C1185 1.384 . S
H1188 C1194 0.930 . S
H1189 C1198 0.930 . S
H1190 C1203 0.929 . S
H1191 C1201 0.929 . S
H1192 C1196 0.929 . S
H1193 C1202 0.929 . S
C1194 H1188 0.930 . S
C1194 C1195 1.367 . S
C1194 C1202 1.378 . S
C1195 C1194 1.367 . S
C1195 C1203 1.433 . S
C1196 H1192 0.929 . S
C1196 C1198 1.378 . S
C1196 C1200 1.350 . S
C1197 C1200 1.463 . S
C1197 C1202 1.350 . S
C1197 N1205 1.427 . S
C1198 H1189 0.930 . S
C1198 C1196 1.378 . S
C1198 C1199 1.367 . S
C1199 C1198 1.367 . S
C1199 C1201 1.433 . S
C1200 C1196 1.350 . S
C1200 C1197 1.463 . S
C1200 N1204 1.427 . S
C1201 H1191 0.929 . S
C1201 C1199 1.433 . S
C1201 N1204 1.384 . S
C1202 H1193 0.929 . S
C1202 C1194 1.378 . S
C1202 C1197 1.350 . S
C1203 H1190 0.929 . S
C1203 C1195 1.433 . S
C1203 N1205 1.384 . S
N1204 C1200 1.427 . S
N1204 C1201 1.384 . S
N1205 C1197 1.427 . S
N1205 C1203 1.384 . S
H1206 C1212 0.930 . S
H1207 C1216 0.930 . S
H1208 C1221 0.929 . S
H1209 C1219 0.929 . S
H1210 C1214 0.929 . S
H1211 C1220 0.929 . S
C1212 H1206 0.930 . S
C1212 C1213 1.367 . S
C1212 C1220 1.378 . S
C1213 C1212 1.367 . S
C1213 C1221 1.433 . S
C1214 H1210 0.929 . S
C1214 C1216 1.378 . S
C1214 C1218 1.350 . S
C1215 C1218 1.463 . S
C1215 C1220 1.350 . S
C1215 N1223 1.427 . S
C1216 H1207 0.930 . S
C1216 C1214 1.378 . S
C1216 C1217 1.367 . S
C1217 C1216 1.367 . S
C1217 C1219 1.433 . S
C1218 C1214 1.350 . S
C1218 C1215 1.463 . S
C1218 N1222 1.427 . S
C1219 H1209 0.929 . S
C1219 C1217 1.433 . S
C1219 N1222 1.384 . S
C1220 H1211 0.929 . S
C1220 C1212 1.378 . S
C1220 C1215 1.350 . S
C1221 H1208 0.929 . S
C1221 C1213 1.433 . S
C1221 N1223 1.384 . S
N1222 C1218 1.427 . S
N1222 C1219 1.384 . S
N1223 C1215 1.427 . S
N1223 C1221 1.384 . S
H1224 C1230 0.930 . S
H1225 C1234 0.930 . S
H1226 C1239 0.929 . S
H1227 C1237 0.929 . S
H1228 C1232 0.929 . S
H1229 C1238 0.929 . S
C1230 H1224 0.930 . S
C1230 C1231 1.367 . S
C1230 C1238 1.378 . S
C1231 C1230 1.367 . S
C1231 C1239 1.433 . S
C1232 H1228 0.929 . S
C1232 C1234 1.378 . S
C1232 C1236 1.350 . S
C1233 C1236 1.463 . S
C1233 C1238 1.350 . S
C1233 N1241 1.427 . S
C1234 H1225 0.930 . S
C1234 C1232 1.378 . S
C1234 C1235 1.367 . S
C1235 C1234 1.367 . S
C1235 C1237 1.433 . S
C1236 C1232 1.350 . S
C1236 C1233 1.463 . S
C1236 N1240 1.427 . S
C1237 H1227 0.929 . S
C1237 C1235 1.433 . S
C1237 N1240 1.384 . S
C1238 H1229 0.929 . S
C1238 C1230 1.378 . S
C1238 C1233 1.350 . S
C1239 H1226 0.929 . S
C1239 C1231 1.433 . S
C1239 N1241 1.384 . S
N1240 C1236 1.427 . S
N1240 C1237 1.384 . S
N1241 C1233 1.427 . S
N1241 C1239 1.384 . S
H1242 C1248 0.930 . S
H1243 C1252 0.930 . S
H1244 C1257 0.929 . S
H1245 C1255 0.929 . S
H1246 C1250 0.929 . S
H1247 C1256 0.929 . S
C1248 H1242 0.930 . S
C1248 C1249 1.367 . S
C1248 C1256 1.378 . S
C1249 C1248 1.367 . S
C1249 C1257 1.433 . S
C1250 H1246 0.929 . S
C1250 C1252 1.378 . S
C1250 C1254 1.350 . S
C1251 C1254 1.463 . S
C1251 C1256 1.350 . S
C1251 N1259 1.427 . S
C1252 H1243 0.930 . S
C1252 C1250 1.378 . S
C1252 C1253 1.367 . S
C1253 C1252 1.367 . S
C1253 C1255 1.433 . S
C1254 C1250 1.350 . S
C1254 C1251 1.463 . S
C1254 N1258 1.427 . S
C1255 H1245 0.929 . S
C1255 C1253 1.433 . S
C1255 N1258 1.384 . S
C1256 H1247 0.929 . S
C1256 C1248 1.378 . S
C1256 C1251 1.350 . S
C1257 H1244 0.929 . S
C1257 C1249 1.433 . S
C1257 N1259 1.384 . S
N1258 C1254 1.427 . S
N1258 C1255 1.384 . S
N1259 C1251 1.427 . S
N1259 C1257 1.384 . S
H1260 C1266 0.930 . S
H1261 C1270 0.930 . S
H1262 C1275 0.929 . S
H1263 C1273 0.929 . S
H1264 C1268 0.929 . S
H1265 C1274 0.929 . S
C1266 H1260 0.930 . S
C1266 C1267 1.367 . S
C1266 C1274 1.378 . S
C1267 C1266 1.367 . S
C1267 C1275 1.433 . S
C1268 H1264 0.929 . S
C1268 C1270 1.378 . S
C1268 C1272 1.350 . S
C1269 C1272 1.463 . S
C1269 C1274 1.350 . S
C1269 N1277 1.427 . S
C1270 H1261 0.930 . S
C1270 C1268 1.378 . S
C1270 C1271 1.367 . S
C1271 C1270 1.367 . S
C1271 C1273 1.433 . S
C1272 C1268 1.350 . S
C1272 C1269 1.463 . S
C1272 N1276 1.427 . S
C1273 H1263 0.929 . S
C1273 C1271 1.433 . S
C1273 N1276 1.384 . S
C1274 H1265 0.929 . S
C1274 C1266 1.378 . S
C1274 C1269 1.350 . S
C1275 H1262 0.929 . S
C1275 C1267 1.433 . S
C1275 N1277 1.384 . S
N1276 C1272 1.427 . S
N1276 C1273 1.384 . S
N1277 C1269 1.427 . S
N1277 C1275 1.384 . S
H1278 C1284 0.930 . S
H1279 C1288 0.930 . S
H1280 C1293 0.929 . S
H1281 C1291 0.929 . S
H1282 C1286 0.929 . S
H1283 C1292 0.929 . S
C1284 H1278 0.930 . S
C1284 C1285 1.367 . S
C1284 C1292 1.378 . S
C1285 C1284 1.367 . S
C1285 C1293 1.433 . S
C1286 H1282 0.929 . S
C1286 C1288 1.378 . S
C1286 C1290 1.350 . S
C1287 C1290 1.463 . S
C1287 C1292 1.350 . S
C1287 N1295 1.427 . S
C1288 H1279 0.930 . S
C1288 C1286 1.378 . S
C1288 C1289 1.367 . S
C1289 C1288 1.367 . S
C1289 C1291 1.433 . S
C1290 C1286 1.350 . S
C1290 C1287 1.463 . S
C1290 N1294 1.427 . S
C1291 H1281 0.929 . S
C1291 C1289 1.433 . S
C1291 N1294 1.384 . S
C1292 H1283 0.929 . S
C1292 C1284 1.378 . S
C1292 C1287 1.350 . S
C1293 H1280 0.929 . S
C1293 C1285 1.433 . S
C1293 N1295 1.384 . S
N1294 C1290 1.427 . S
N1294 C1291 1.384 . S
N1295 C1287 1.427 . S
N1295 C1293 1.384 . S
H1296 C1302 0.930 . S
H1297 C1306 0.930 . S
H1298 C1311 0.929 . S
H1299 C1309 0.929 . S
H1300 C1304 0.929 . S
H1301 C1310 0.929 . S
C1302 H1296 0.930 . S
C1302 C1303 1.367 . S
C1302 C1310 1.378 . S
C1303 C1302 1.367 . S
C1303 C1311 1.433 . S
C1304 H1300 0.929 . S
C1304 C1306 1.378 . S
C1304 C1308 1.350 . S
C1305 C1308 1.463 . S
C1305 C1310 1.350 . S
C1305 N1313 1.427 . S
C1306 H1297 0.930 . S
C1306 C1304 1.378 . S
C1306 C1307 1.367 . S
C1307 C1306 1.367 . S
C1307 C1309 1.433 . S
C1308 C1304 1.350 . S
C1308 C1305 1.463 . S
C1308 N1312 1.427 . S
C1309 H1299 0.929 . S
C1309 C1307 1.433 . S
C1309 N1312 1.384 . S
C1310 H1301 0.929 . S
C1310 C1302 1.378 . S
C1310 C1305 1.350 . S
C1311 H1298 0.929 . S
C1311 C1303 1.433 . S
C1311 N1313 1.384 . S
N1312 C1308 1.427 . S
N1312 C1309 1.384 . S
N1313 C1305 1.427 . S
N1313 C1311 1.384 . S
H1314 C1320 0.930 . S
H1315 C1324 0.930 . S
H1316 C1329 0.929 . S
H1317 C1327 0.929 . S
H1318 C1322 0.929 . S
H1319 C1328 0.929 . S
C1320 H1314 0.930 . S
C1320 C1321 1.367 . S
C1320 C1328 1.378 . S
C1321 C1320 1.367 . S
C1321 C1329 1.433 . S
C1322 H1318 0.929 . S
C1322 C1324 1.378 . S
C1322 C1326 1.350 . S
C1323 C1326 1.463 . S
C1323 C1328 1.350 . S
C1323 N1331 1.427 . S
C1324 H1315 0.930 . S
C1324 C1322 1.378 . S
C1324 C1325 1.367 . S
C1325 C1324 1.367 . S
C1325 C1327 1.433 . S
C1326 C1322 1.350 . S
C1326 C1323 1.463 . S
C1326 N1330 1.427 . S
C1327 H1317 0.929 . S
C1327 C1325 1.433 . S
C1327 N1330 1.384 . S
C1328 H1319 0.929 . S
C1328 C1320 1.378 . S
C1328 C1323 1.350 . S
C1329 H1316 0.929 . S
C1329 C1321 1.433 . S
C1329 N1331 1.384 . S
N1330 C1326 1.427 . S
N1330 C1327 1.384 . S
N1331 C1323 1.427 . S
N1331 C1329 1.384 . S
H1332 C1338 0.930 . S
H1333 C1342 0.930 . S
H1334 C1347 0.929 . S
H1335 C1345 0.929 . S
H1336 C1340 0.929 . S
H1337 C1346 0.929 . S
C1338 H1332 0.930 . S
C1338 C1339 1.367 . S
C1338 C1346 1.378 . S
C1339 C1338 1.367 . S
C1339 C1347 1.433 . S
C1340 H1336 0.929 . S
C1340 C1342 1.378 . S
C1340 C1344 1.350 . S
C1341 C1344 1.463 . S
C1341 C1346 1.350 . S
C1341 N1349 1.427 . S
C1342 H1333 0.930 . S
C1342 C1340 1.378 . S
C1342 C1343 1.367 . S
C1343 C1342 1.367 . S
C1343 C1345 1.433 . S
C1344 C1340 1.350 . S
C1344 C1341 1.463 . S
C1344 N1348 1.427 . S
C1345 H1335 0.929 . S
C1345 C1343 1.433 . S
C1345 N1348 1.384 . S
C1346 H1337 0.929 . S
C1346 C1338 1.378 . S
C1346 C1341 1.350 . S
C1347 H1334 0.929 . S
C1347 C1339 1.433 . S
C1347 N1349 1.384 . S
N1348 C1344 1.427 . S
N1348 C1345 1.384 . S
N1349 C1341 1.427 . S
N1349 C1347 1.384 . S
H1350 C1356 0.930 . S
H1351 C1360 0.930 . S
H1352 C1365 0.929 . S
H1353 C1363 0.929 . S
H1354 C1358 0.929 . S
H1355 C1364 0.929 . S
C1356 H1350 0.930 . S
C1356 C1357 1.367 . S
C1356 C1364 1.378 . S
C1357 C1356 1.367 . S
C1357 C1365 1.433 . S
C1358 H1354 0.929 . S
C1358 C1360 1.378 . S
C1358 C1362 1.350 . S
C1359 C1362 1.463 . S
C1359 C1364 1.350 . S
C1359 N1367 1.427 . S
C1360 H1351 0.930 . S
C1360 C1358 1.378 . S
C1360 C1361 1.367 . S
C1361 C1360 1.367 . S
C1361 C1363 1.433 . S
C1362 C1358 1.350 . S
C1362 C1359 1.463 . S
C1362 N1366 1.427 . S
C1363 H1353 0.929 . S
C1363 C1361 1.433 . S
C1363 N1366 1.384 . S
C1364 H1355 0.929 . S
C1364 C1356 1.378 . S
C1364 C1359 1.350 . S
C1365 H1352 0.929 . S
C1365 C1357 1.433 . S
C1365 N1367 1.384 . S
N1366 C1362 1.427 . S
N1366 C1363 1.384 . S
N1367 C1359 1.427 . S
N1367 C1365 1.384 . S
H1368 C1374 0.930 . S
H1369 C1378 0.930 . S
H1370 C1383 0.929 . S
H1371 C1381 0.929 . S
H1372 C1376 0.929 . S
H1373 C1382 0.929 . S
C1374 H1368 0.930 . S
C1374 C1375 1.367 . S
C1374 C1382 1.378 . S
C1375 C1374 1.367 . S
C1375 C1383 1.433 . S
C1376 H1372 0.929 . S
C1376 C1378 1.378 . S
C1376 C1380 1.350 . S
C1377 C1380 1.463 . S
C1377 C1382 1.350 . S
C1377 N1385 1.427 . S
C1378 H1369 0.930 . S
C1378 C1376 1.378 . S
C1378 C1379 1.367 . S
C1379 C1378 1.367 . S
C1379 C1381 1.433 . S
C1380 C1376 1.350 . S
C1380 C1377 1.463 . S
C1380 N1384 1.427 . S
C1381 H1371 0.929 . S
C1381 C1379 1.433 . S
C1381 N1384 1.384 . S
C1382 H1373 0.929 . S
C1382 C1374 1.378 . S
C1382 C1377 1.350 . S
C1383 H1370 0.929 . S
C1383 C1375 1.433 . S
C1383 N1385 1.384 . S
N1384 C1380 1.427 . S
N1384 C1381 1.384 . S
N1385 C1377 1.427 . S
N1385 C1383 1.384 . S
H1386 C1392 0.930 . S
H1387 C1396 0.930 . S
H1388 C1401 0.929 . S
H1389 C1399 0.929 . S
H1390 C1394 0.929 . S
H1391 C1400 0.929 . S
C1392 H1386 0.930 . S
C1392 C1393 1.367 . S
C1392 C1400 1.378 . S
C1393 C1392 1.367 . S
C1393 C1401 1.433 . S
C1394 H1390 0.929 . S
C1394 C1396 1.378 . S
C1394 C1398 1.350 . S
C1395 C1398 1.463 . S
C1395 C1400 1.350 . S
C1395 N1403 1.427 . S
C1396 H1387 0.930 . S
C1396 C1394 1.378 . S
C1396 C1397 1.367 . S
C1397 C1396 1.367 . S
C1397 C1399 1.433 . S
C1398 C1394 1.350 . S
C1398 C1395 1.463 . S
C1398 N1402 1.427 . S
C1399 H1389 0.929 . S
C1399 C1397 1.433 . S
C1399 N1402 1.384 . S
C1400 H1391 0.929 . S
C1400 C1392 1.378 . S
C1400 C1395 1.350 . S
C1401 H1388 0.929 . S
C1401 C1393 1.433 . S
C1401 N1403 1.384 . S
N1402 C1398 1.427 . S
N1402 C1399 1.384 . S
N1403 C1395 1.427 . S
N1403 C1401 1.384 . S
H1404 C1410 0.930 . S
H1405 C1414 0.930 . S
H1406 C1419 0.929 . S
H1407 C1417 0.929 . S
H1408 C1412 0.929 . S
H1409 C1418 0.929 . S
C1410 H1404 0.930 . S
C1410 C1411 1.367 . S
C1410 C1418 1.378 . S
C1411 C1410 1.367 . S
C1411 C1419 1.433 . S
C1412 H1408 0.929 . S
C1412 C1414 1.378 . S
C1412 C1416 1.350 . S
C1413 C1416 1.463 . S
C1413 C1418 1.350 . S
C1413 N1421 1.427 . S
C1414 H1405 0.930 . S
C1414 C1412 1.378 . S
C1414 C1415 1.367 . S
C1415 C1414 1.367 . S
C1415 C1417 1.433 . S
C1416 C1412 1.350 . S
C1416 C1413 1.463 . S
C1416 N1420 1.427 . S
C1417 H1407 0.929 . S
C1417 C1415 1.433 . S
C1417 N1420 1.384 . S
C1418 H1409 0.929 . S
C1418 C1410 1.378 . S
C1418 C1413 1.350 . S
C1419 H1406 0.929 . S
C1419 C1411 1.433 . S
C1419 N1421 1.384 . S
N1420 C1416 1.427 . S
N1420 C1417 1.384 . S
N1421 C1413 1.427 . S
N1421 C1419 1.384 . S
H1422 C1428 0.930 . S
H1423 C1432 0.930 . S
H1424 C1437 0.929 . S
H1425 C1435 0.929 . S
H1426 C1430 0.929 . S
H1427 C1436 0.929 . S
C1428 H1422 0.930 . S
C1428 C1429 1.367 . S
C1428 C1436 1.378 . S
C1429 C1428 1.367 . S
C1429 C1437 1.433 . S
C1430 H1426 0.929 . S
C1430 C1432 1.378 . S
C1430 C1434 1.350 . S
C1431 C1434 1.463 . S
C1431 C1436 1.350 . S
C1431 N1439 1.427 . S
C1432 H1423 0.930 . S
C1432 C1430 1.378 . S
C1432 C1433 1.367 . S
C1433 C1432 1.367 . S
C1433 C1435 1.433 . S
C1434 C1430 1.350 . S
C1434 C1431 1.463 . S
C1434 N1438 1.427 . S
C1435 H1425 0.929 . S
C1435 C1433 1.433 . S
C1435 N1438 1.384 . S
C1436 H1427 0.929 . S
C1436 C1428 1.378 . S
C1436 C1431 1.350 . S
C1437 H1424 0.929 . S
C1437 C1429 1.433 . S
C1437 N1439 1.384 . S
N1438 C1434 1.427 . S
N1438 C1435 1.384 . S
N1439 C1431 1.427 . S
N1439 C1437 1.384 . S
H1440 C1446 0.930 . S
H1441 C1450 0.930 . S
H1442 C1455 0.929 . S
H1443 C1453 0.929 . S
H1444 C1448 0.929 . S
H1445 C1454 0.929 . S
C1446 H1440 0.930 . S
C1446 C1447 1.367 . S
C1446 C1454 1.378 . S
C1447 C1446 1.367 . S
C1447 C1455 1.433 . S
C1448 H1444 0.929 . S
C1448 C1450 1.378 . S
C1448 C1452 1.350 . S
C1449 C1452 1.463 . S
C1449 C1454 1.350 . S
C1449 N1457 1.427 . S
C1450 H1441 0.930 . S
C1450 C1448 1.378 . S
C1450 C1451 1.367 . S
C1451 C1450 1.367 . S
C1451 C1453 1.433 . S
C1452 C1448 1.350 . S
C1452 C1449 1.463 . S
C1452 N1456 1.427 . S
C1453 H1443 0.929 . S
C1453 C1451 1.433 . S
C1453 N1456 1.384 . S
C1454 H1445 0.929 . S
C1454 C1446 1.378 . S
C1454 C1449 1.350 . S
C1455 H1442 0.929 . S
C1455 C1447 1.433 . S
C1455 N1457 1.384 . S
N1456 C1452 1.427 . S
N1456 C1453 1.384 . S
N1457 C1449 1.427 . S
N1457 C1455 1.384 . S
H1458 C1464 0.930 . S
H1459 C1468 0.930 . S
H1460 C1473 0.929 . S
H1461 C1471 0.929 . S
H1462 C1466 0.929 . S
H1463 C1472 0.929 . S
C1464 H1458 0.930 . S
C1464 C1465 1.367 . S
C1464 C1472 1.378 . S
C1465 C1464 1.367 . S
C1465 C1473 1.433 . S
C1466 H1462 0.929 . S
C1466 C1468 1.378 . S
C1466 C1470 1.350 . S
C1467 C1470 1.463 1_565 S
C1467 C1472 1.350 . S
C1467 N1475 1.427 . S
C1468 H1459 0.930 . S
C1468 C1466 1.378 . S
C1468 C1469 1.367 . S
C1469 C1468 1.367 . S
C1469 C1471 1.433 . S
C1470 C1466 1.350 . S
C1470 C1467 1.463 1_545 S
C1470 N1474 1.427 . S
C1471 H1461 0.929 . S
C1471 C1469 1.433 . S
C1471 N1474 1.384 . S
C1472 H1463 0.929 . S
C1472 C1464 1.378 . S
C1472 C1467 1.350 . S
C1473 H1460 0.929 . S
C1473 C1465 1.433 . S
C1473 N1475 1.384 . S
N1474 C1470 1.427 . S
N1474 C1471 1.384 . S
N1475 C1467 1.427 . S
N1475 C1473 1.384 . S
H1476 C1482 0.930 . S
H1477 C1486 0.930 . S
H1478 C1491 0.929 . S
H1479 C1489 0.929 . S
H1480 C1484 0.929 . S
H1481 C1490 0.929 . S
C1482 H1476 0.930 . S
C1482 C1483 1.367 . S
C1482 C1490 1.378 . S
C1483 C1482 1.367 . S
C1483 C1491 1.433 . S
C1484 H1480 0.929 . S
C1484 C1486 1.378 . S
C1484 C1488 1.350 . S
C1485 C1488 1.463 1_655 S
C1485 C1490 1.350 . S
C1485 N1493 1.427 . S
C1486 H1477 0.930 . S
C1486 C1484 1.378 . S
C1486 C1487 1.367 . S
C1487 C1486 1.367 . S
C1487 C1489 1.433 . S
C1488 C1484 1.350 . S
C1488 C1485 1.463 1_455 S
C1488 N1492 1.427 . S
C1489 H1479 0.929 . S
C1489 C1487 1.433 . S
C1489 N1492 1.384 . S
C1490 H1481 0.929 . S
C1490 C1482 1.378 . S
C1490 C1485 1.350 . S
C1491 H1478 0.929 . S
C1491 C1483 1.433 . S
C1491 N1493 1.384 . S
N1492 C1488 1.427 . S
N1492 C1489 1.384 . S
N1493 C1485 1.427 . S
N1493 C1491 1.384 . S
H1494 C1500 0.930 . S
H1495 C1504 0.930 . S
H1496 C1509 0.929 . S
H1497 C1507 0.929 . S
H1498 C1502 0.929 . S
H1499 C1508 0.929 . S
C1500 H1494 0.930 . S
C1500 C1501 1.367 . S
C1500 C1508 1.378 . S
C1501 C1500 1.367 . S
C1501 C1509 1.433 . S
C1502 H1498 0.929 . S
C1502 C1504 1.378 . S
C1502 C1506 1.350 . S
C1503 C1506 1.463 . S
C1503 C1508 1.350 . S
C1503 N1511 1.427 . S
C1504 H1495 0.930 . S
C1504 C1502 1.378 . S
C1504 C1505 1.367 . S
C1505 C1504 1.367 . S
C1505 C1507 1.433 . S
C1506 C1502 1.350 . S
C1506 C1503 1.463 . S
C1506 N1510 1.427 . S
C1507 H1497 0.929 . S
C1507 C1505 1.433 . S
C1507 N1510 1.384 . S
C1508 H1499 0.929 . S
C1508 C1500 1.378 . S
C1508 C1503 1.350 . S
C1509 H1496 0.929 . S
C1509 C1501 1.433 . S
C1509 N1511 1.384 . S
N1510 C1506 1.427 . S
N1510 C1507 1.384 . S
N1511 C1503 1.427 . S
N1511 C1509 1.384 . S
H1512 C1518 0.930 . S
H1513 C1522 0.930 . S
H1514 C1527 0.929 . S
H1515 C1525 0.929 . S
H1516 C1520 0.929 . S
H1517 C1526 0.929 . S
C1518 H1512 0.930 . S
C1518 C1519 1.367 . S
C1518 C1526 1.378 . S
C1519 C1518 1.367 . S
C1519 C1527 1.433 . S
C1520 H1516 0.929 . S
C1520 C1522 1.378 . S
C1520 C1524 1.350 . S
C1521 C1524 1.463 1_545 S
C1521 C1526 1.350 . S
C1521 N1529 1.427 . S
C1522 H1513 0.930 . S
C1522 C1520 1.378 . S
C1522 C1523 1.367 . S
C1523 C1522 1.367 . S
C1523 C1525 1.433 . S
C1524 C1520 1.350 . S
C1524 C1521 1.463 1_565 S
C1524 N1528 1.427 . S
C1525 H1515 0.929 . S
C1525 C1523 1.433 . S
C1525 N1528 1.384 . S
C1526 H1517 0.929 . S
C1526 C1518 1.378 . S
C1526 C1521 1.350 . S
C1527 H1514 0.929 . S
C1527 C1519 1.433 . S
C1527 N1529 1.384 . S
N1528 C1524 1.427 . S
N1528 C1525 1.384 . S
N1529 C1521 1.427 . S
N1529 C1527 1.384 . S
H1530 C1536 0.930 . S
H1531 C1540 0.930 . S
H1532 C1545 0.929 . S
H1533 C1543 0.929 . S
H1534 C1538 0.929 . S
H1535 C1544 0.929 . S
C1536 H1530 0.930 . S
C1536 C1537 1.367 . S
C1536 C1544 1.378 . S
C1537 C1536 1.367 . S
C1537 C1545 1.433 . S
C1538 H1534 0.929 . S
C1538 C1540 1.378 . S
C1538 C1542 1.350 . S
C1539 C1542 1.463 1_455 S
C1539 C1544 1.350 . S
C1539 N1547 1.427 . S
C1540 H1531 0.930 . S
C1540 C1538 1.378 . S
C1540 C1541 1.367 . S
C1541 C1540 1.367 . S
C1541 C1543 1.433 . S
C1542 C1538 1.350 . S
C1542 C1539 1.463 1_655 S
C1542 N1546 1.427 . S
C1543 H1533 0.929 . S
C1543 C1541 1.433 . S
C1543 N1546 1.384 . S
C1544 H1535 0.929 . S
C1544 C1536 1.378 . S
C1544 C1539 1.350 . S
C1545 H1532 0.929 . S
C1545 C1537 1.433 . S
C1545 N1547 1.384 . S
N1546 C1542 1.427 . S
N1546 C1543 1.384 . S
N1547 C1539 1.427 . S
N1547 C1545 1.384 . S
H1548 C1554 0.930 . S
H1549 C1558 0.930 . S
H1550 C1563 0.929 . S
H1551 C1561 0.929 . S
H1552 C1556 0.929 . S
H1553 C1562 0.929 . S
C1554 H1548 0.930 . S
C1554 C1555 1.367 . S
C1554 C1562 1.378 . S
C1555 C1554 1.367 . S
C1555 C1563 1.433 . S
C1556 H1552 0.929 . S
C1556 C1558 1.378 . S
C1556 C1560 1.350 . S
C1557 C1560 1.463 . S
C1557 C1562 1.350 . S
C1557 N1565 1.427 . S
C1558 H1549 0.930 . S
C1558 C1556 1.378 . S
C1558 C1559 1.367 . S
C1559 C1558 1.367 . S
C1559 C1561 1.433 . S
C1560 C1556 1.350 . S
C1560 C1557 1.463 . S
C1560 N1564 1.427 . S
C1561 H1551 0.929 . S
C1561 C1559 1.433 . S
C1561 N1564 1.384 . S
C1562 H1553 0.929 . S
C1562 C1554 1.378 . S
C1562 C1557 1.350 . S
C1563 H1550 0.929 . S
C1563 C1555 1.433 . S
C1563 N1565 1.384 . S
N1564 C1560 1.427 . S
N1564 C1561 1.384 . S
N1565 C1557 1.427 . S
N1565 C1563 1.384 . S
H1566 C1572 0.930 . S
H1567 C1576 0.930 . S
H1568 C1581 0.929 . S
H1569 C1579 0.929 . S
H1570 C1574 0.929 . S
H1571 C1580 0.929 . S
C1572 H1566 0.930 . S
C1572 C1573 1.367 . S
C1572 C1580 1.378 . S
C1573 C1572 1.367 . S
C1573 C1581 1.433 . S
C1574 H1570 0.929 . S
C1574 C1576 1.378 . S
C1574 C1578 1.350 . S
C1575 C1578 1.463 1_545 S
C1575 C1580 1.350 . S
C1575 N1583 1.427 . S
C1576 H1567 0.930 . S
C1576 C1574 1.378 . S
C1576 C1577 1.367 . S
C1577 C1576 1.367 . S
C1577 C1579 1.433 . S
C1578 C1574 1.350 . S
C1578 C1575 1.463 1_565 S
C1578 N1582 1.427 . S
C1579 H1569 0.929 . S
C1579 C1577 1.433 . S
C1579 N1582 1.384 . S
C1580 H1571 0.929 . S
C1580 C1572 1.378 . S
C1580 C1575 1.350 . S
C1581 H1568 0.929 . S
C1581 C1573 1.433 . S
C1581 N1583 1.384 . S
N1582 C1578 1.427 . S
N1582 C1579 1.384 . S
N1583 C1575 1.427 . S
N1583 C1581 1.384 . S
H1584 C1590 0.930 . S
H1585 C1594 0.930 . S
H1586 C1599 0.929 . S
H1587 C1597 0.929 . S
H1588 C1592 0.929 . S
H1589 C1598 0.929 . S
C1590 H1584 0.930 . S
C1590 C1591 1.367 . S
C1590 C1598 1.378 . S
C1591 C1590 1.367 . S
C1591 C1599 1.433 . S
C1592 H1588 0.929 . S
C1592 C1594 1.378 . S
C1592 C1596 1.350 . S
C1593 C1596 1.463 1_655 S
C1593 C1598 1.350 . S
C1593 N1601 1.427 . S
C1594 H1585 0.930 . S
C1594 C1592 1.378 . S
C1594 C1595 1.367 . S
C1595 C1594 1.367 . S
C1595 C1597 1.433 . S
C1596 C1592 1.350 . S
C1596 C1593 1.463 1_455 S
C1596 N1600 1.427 . S
C1597 H1587 0.929 . S
C1597 C1595 1.433 . S
C1597 N1600 1.384 . S
C1598 H1589 0.929 . S
C1598 C1590 1.378 . S
C1598 C1593 1.350 . S
C1599 H1586 0.929 . S
C1599 C1591 1.433 . S
C1599 N1601 1.384 . S
N1600 C1596 1.427 . S
N1600 C1597 1.384 . S
N1601 C1593 1.427 . S
N1601 C1599 1.384 . S
H1602 C1608 0.930 . S
H1603 C1612 0.930 . S
H1604 C1617 0.929 . S
H1605 C1615 0.929 . S
H1606 C1610 0.929 . S
H1607 C1616 0.929 . S
C1608 H1602 0.930 . S
C1608 C1609 1.367 . S
C1608 C1616 1.378 . S
C1609 C1608 1.367 . S
C1609 C1617 1.433 . S
C1610 H1606 0.929 . S
C1610 C1612 1.378 . S
C1610 C1614 1.350 . S
C1611 C1614 1.463 . S
C1611 C1616 1.350 . S
C1611 N1619 1.427 . S
C1612 H1603 0.930 . S
C1612 C1610 1.378 . S
C1612 C1613 1.367 . S
C1613 C1612 1.367 . S
C1613 C1615 1.433 . S
C1614 C1610 1.350 . S
C1614 C1611 1.463 . S
C1614 N1618 1.427 . S
C1615 H1605 0.929 . S
C1615 C1613 1.433 . S
C1615 N1618 1.384 . S
C1616 H1607 0.929 . S
C1616 C1608 1.378 . S
C1616 C1611 1.350 . S
C1617 H1604 0.929 . S
C1617 C1609 1.433 . S
C1617 N1619 1.384 . S
N1618 C1614 1.427 . S
N1618 C1615 1.384 . S
N1619 C1611 1.427 . S
N1619 C1617 1.384 . S
H1620 C1626 0.930 . S
H1621 C1630 0.930 . S
H1622 C1635 0.929 . S
H1623 C1633 0.929 . S
H1624 C1628 0.929 . S
H1625 C1634 0.929 . S
C1626 H1620 0.930 . S
C1626 C1627 1.367 . S
C1626 C1634 1.378 . S
C1627 C1626 1.367 . S
C1627 C1635 1.433 . S
C1628 H1624 0.929 . S
C1628 C1630 1.378 . S
C1628 C1632 1.350 . S
C1629 C1632 1.463 1_565 S
C1629 C1634 1.350 . S
C1629 N1637 1.427 . S
C1630 H1621 0.930 . S
C1630 C1628 1.378 . S
C1630 C1631 1.367 . S
C1631 C1630 1.367 . S
C1631 C1633 1.433 . S
C1632 C1628 1.350 . S
C1632 C1629 1.463 1_545 S
C1632 N1636 1.427 . S
C1633 H1623 0.929 . S
C1633 C1631 1.433 . S
C1633 N1636 1.384 . S
C1634 H1625 0.929 . S
C1634 C1626 1.378 . S
C1634 C1629 1.350 . S
C1635 H1622 0.929 . S
C1635 C1627 1.433 . S
C1635 N1637 1.384 . S
N1636 C1632 1.427 . S
N1636 C1633 1.384 . S
N1637 C1629 1.427 . S
N1637 C1635 1.384 . S
H1638 C1644 0.930 . S
H1639 C1648 0.930 . S
H1640 C1653 0.929 . S
H1641 C1651 0.929 . S
H1642 C1646 0.929 . S
H1643 C1652 0.929 . S
C1644 H1638 0.930 . S
C1644 C1645 1.367 . S
C1644 C1652 1.378 . S
C1645 C1644 1.367 . S
C1645 C1653 1.433 . S
C1646 H1642 0.929 . S
C1646 C1648 1.378 . S
C1646 C1650 1.350 . S
C1647 C1650 1.463 1_655 S
C1647 C1652 1.350 . S
C1647 N1655 1.427 . S
C1648 H1639 0.930 . S
C1648 C1646 1.378 . S
C1648 C1649 1.367 . S
C1649 C1648 1.367 . S
C1649 C1651 1.433 . S
C1650 C1646 1.350 . S
C1650 C1647 1.463 1_455 S
C1650 N1654 1.427 . S
C1651 H1641 0.929 . S
C1651 C1649 1.433 . S
C1651 N1654 1.384 . S
C1652 H1643 0.929 . S
C1652 C1644 1.378 . S
C1652 C1647 1.350 . S
C1653 H1640 0.929 . S
C1653 C1645 1.433 . S
C1653 N1655 1.384 . S
N1654 C1650 1.427 . S
N1654 C1651 1.384 . S
N1655 C1647 1.427 . S
N1655 C1653 1.384 . S
H1656 C1662 0.930 . S
H1657 C1666 0.930 . S
H1658 C1671 0.929 . S
H1659 C1669 0.929 . S
H1660 C1664 0.929 . S
H1661 C1670 0.929 . S
C1662 H1656 0.930 . S
C1662 C1663 1.367 . S
C1662 C1670 1.378 . S
C1663 C1662 1.367 . S
C1663 C1671 1.433 . S
C1664 H1660 0.929 . S
C1664 C1666 1.378 . S
C1664 C1668 1.350 . S
C1665 C1668 1.463 . S
C1665 C1670 1.350 . S
C1665 N1673 1.427 . S
C1666 H1657 0.930 . S
C1666 C1664 1.378 . S
C1666 C1667 1.367 . S
C1667 C1666 1.367 . S
C1667 C1669 1.433 . S
C1668 C1664 1.350 . S
C1668 C1665 1.463 . S
C1668 N1672 1.427 . S
C1669 H1659 0.929 . S
C1669 C1667 1.433 . S
C1669 N1672 1.384 . S
C1670 H1661 0.929 . S
C1670 C1662 1.378 . S
C1670 C1665 1.350 . S
C1671 H1658 0.929 . S
C1671 C1663 1.433 . S
C1671 N1673 1.384 . S
N1672 C1668 1.427 . S
N1672 C1669 1.384 . S
N1673 C1665 1.427 . S
N1673 C1671 1.384 . S
H1674 C1680 0.930 . S
H1675 C1684 0.930 . S
H1676 C1689 0.929 . S
H1677 C1687 0.929 . S
H1678 C1682 0.929 . S
H1679 C1688 0.929 . S
C1680 H1674 0.930 . S
C1680 C1681 1.367 . S
C1680 C1688 1.378 . S
C1681 C1680 1.367 . S
C1681 C1689 1.433 . S
C1682 H1678 0.929 . S
C1682 C1684 1.378 . S
C1682 C1686 1.350 . S
C1683 C1686 1.463 . S
C1683 C1688 1.350 . S
C1683 N1691 1.427 . S
C1684 H1675 0.930 . S
C1684 C1682 1.378 . S
C1684 C1685 1.367 . S
C1685 C1684 1.367 . S
C1685 C1687 1.433 . S
C1686 C1682 1.350 . S
C1686 C1683 1.463 . S
C1686 N1690 1.427 . S
C1687 H1677 0.929 . S
C1687 C1685 1.433 . S
C1687 N1690 1.384 . S
C1688 H1679 0.929 . S
C1688 C1680 1.378 . S
C1688 C1683 1.350 . S
C1689 H1676 0.929 . S
C1689 C1681 1.433 . S
C1689 N1691 1.384 . S
N1690 C1686 1.427 . S
N1690 C1687 1.384 . S
N1691 C1683 1.427 . S
N1691 C1689 1.384 . S
H1692 C1698 0.930 . S
H1693 C1702 0.930 . S
H1694 C1707 0.929 . S
H1695 C1705 0.929 . S
H1696 C1700 0.929 . S
H1697 C1706 0.929 . S
C1698 H1692 0.930 . S
C1698 C1699 1.367 . S
C1698 C1706 1.378 . S
C1699 C1698 1.367 . S
C1699 C1707 1.433 . S
C1700 H1696 0.929 . S
C1700 C1702 1.378 . S
C1700 C1704 1.350 . S
C1701 C1704 1.463 . S
C1701 C1706 1.350 . S
C1701 N1709 1.427 . S
C1702 H1693 0.930 . S
C1702 C1700 1.378 . S
C1702 C1703 1.367 . S
C1703 C1702 1.367 . S
C1703 C1705 1.433 . S
C1704 C1700 1.350 . S
C1704 C1701 1.463 . S
C1704 N1708 1.427 . S
C1705 H1695 0.929 . S
C1705 C1703 1.433 . S
C1705 N1708 1.384 . S
C1706 H1697 0.929 . S
C1706 C1698 1.378 . S
C1706 C1701 1.350 . S
C1707 H1694 0.929 . S
C1707 C1699 1.433 . S
C1707 N1709 1.384 . S
N1708 C1704 1.427 . S
N1708 C1705 1.384 . S
N1709 C1701 1.427 . S
N1709 C1707 1.384 . S
H1710 C1716 0.930 . S
H1711 C1720 0.930 . S
H1712 C1725 0.929 . S
H1713 C1723 0.929 . S
H1714 C1718 0.929 . S
H1715 C1724 0.929 . S
C1716 H1710 0.930 . S
C1716 C1717 1.367 . S
C1716 C1724 1.378 . S
C1717 C1716 1.367 . S
C1717 C1725 1.433 . S
C1718 H1714 0.929 . S
C1718 C1720 1.378 . S
C1718 C1722 1.350 . S
C1719 C1722 1.463 . S
C1719 C1724 1.350 . S
C1719 N1727 1.427 . S
C1720 H1711 0.930 . S
C1720 C1718 1.378 . S
C1720 C1721 1.367 . S
C1721 C1720 1.367 . S
C1721 C1723 1.433 . S
C1722 C1718 1.350 . S
C1722 C1719 1.463 . S
C1722 N1726 1.427 . S
C1723 H1713 0.929 . S
C1723 C1721 1.433 . S
C1723 N1726 1.384 . S
C1724 H1715 0.929 . S
C1724 C1716 1.378 . S
C1724 C1719 1.350 . S
C1725 H1712 0.929 . S
C1725 C1717 1.433 . S
C1725 N1727 1.384 . S
N1726 C1722 1.427 . S
N1726 C1723 1.384 . S
N1727 C1719 1.427 . S
N1727 C1725 1.384 . S
H1728 C1734 0.930 . S
H1729 C1738 0.930 . S
H1730 C1743 0.929 . S
H1731 C1741 0.929 . S
H1732 C1736 0.929 . S
H1733 C1742 0.929 . S
C1734 H1728 0.930 . S
C1734 C1735 1.367 . S
C1734 C1742 1.378 . S
C1735 C1734 1.367 . S
C1735 C1743 1.433 . S
C1736 H1732 0.929 . S
C1736 C1738 1.378 . S
C1736 C1740 1.350 . S
C1737 C1740 1.463 . S
C1737 C1742 1.350 . S
C1737 N1745 1.427 . S
C1738 H1729 0.930 . S
C1738 C1736 1.378 . S
C1738 C1739 1.367 . S
C1739 C1738 1.367 . S
C1739 C1741 1.433 . S
C1740 C1736 1.350 . S
C1740 C1737 1.463 . S
C1740 N1744 1.427 . S
C1741 H1731 0.929 . S
C1741 C1739 1.433 . S
C1741 N1744 1.384 . S
C1742 H1733 0.929 . S
C1742 C1734 1.378 . S
C1742 C1737 1.350 . S
C1743 H1730 0.929 . S
C1743 C1735 1.433 . S
C1743 N1745 1.384 . S
N1744 C1740 1.427 . S
N1744 C1741 1.384 . S
N1745 C1737 1.427 . S
N1745 C1743 1.384 . S
H1746 C1752 0.930 . S
H1747 C1756 0.930 . S
H1748 C1761 0.929 . S
H1749 C1759 0.929 . S
H1750 C1754 0.929 . S
H1751 C1760 0.929 . S
C1752 H1746 0.930 . S
C1752 C1753 1.367 . S
C1752 C1760 1.378 . S
C1753 C1752 1.367 . S
C1753 C1761 1.433 . S
C1754 H1750 0.929 . S
C1754 C1756 1.378 . S
C1754 C1758 1.350 . S
C1755 C1758 1.463 . S
C1755 C1760 1.350 . S
C1755 N1763 1.427 . S
C1756 H1747 0.930 . S
C1756 C1754 1.378 . S
C1756 C1757 1.367 . S
C1757 C1756 1.367 . S
C1757 C1759 1.433 . S
C1758 C1754 1.350 . S
C1758 C1755 1.463 . S
C1758 N1762 1.427 . S
C1759 H1749 0.929 . S
C1759 C1757 1.433 . S
C1759 N1762 1.384 . S
C1760 H1751 0.929 . S
C1760 C1752 1.378 . S
C1760 C1755 1.350 . S
C1761 H1748 0.929 . S
C1761 C1753 1.433 . S
C1761 N1763 1.384 . S
N1762 C1758 1.427 . S
N1762 C1759 1.384 . S
N1763 C1755 1.427 . S
N1763 C1761 1.384 . S
H1764 C1770 0.930 . S
H1765 C1774 0.930 . S
H1766 C1779 0.929 . S
H1767 C1777 0.929 . S
H1768 C1772 0.929 . S
H1769 C1778 0.929 . S
C1770 H1764 0.930 . S
C1770 C1771 1.367 . S
C1770 C1778 1.378 . S
C1771 C1770 1.367 . S
C1771 C1779 1.433 . S
C1772 H1768 0.929 . S
C1772 C1774 1.378 . S
C1772 C1776 1.350 . S
C1773 C1776 1.463 . S
C1773 C1778 1.350 . S
C1773 N1781 1.427 . S
C1774 H1765 0.930 . S
C1774 C1772 1.378 . S
C1774 C1775 1.367 . S
C1775 C1774 1.367 . S
C1775 C1777 1.433 . S
C1776 C1772 1.350 . S
C1776 C1773 1.463 . S
C1776 N1780 1.427 . S
C1777 H1767 0.929 . S
C1777 C1775 1.433 . S
C1777 N1780 1.384 . S
C1778 H1769 0.929 . S
C1778 C1770 1.378 . S
C1778 C1773 1.350 . S
C1779 H1766 0.929 . S
C1779 C1771 1.433 . S
C1779 N1781 1.384 . S
N1780 C1776 1.427 . S
N1780 C1777 1.384 . S
N1781 C1773 1.427 . S
N1781 C1779 1.384 . S
H1782 C1788 0.930 . S
H1783 C1792 0.930 . S
H1784 C1797 0.929 . S
H1785 C1795 0.929 . S
H1786 C1790 0.929 . S
H1787 C1796 0.929 . S
C1788 H1782 0.930 . S
C1788 C1789 1.367 . S
C1788 C1796 1.378 . S
C1789 C1788 1.367 . S
C1789 C1797 1.433 . S
C1790 H1786 0.929 . S
C1790 C1792 1.378 . S
C1790 C1794 1.350 . S
C1791 C1794 1.463 . S
C1791 C1796 1.350 . S
C1791 N1799 1.427 . S
C1792 H1783 0.930 . S
C1792 C1790 1.378 . S
C1792 C1793 1.367 . S
C1793 C1792 1.367 . S
C1793 C1795 1.433 . S
C1794 C1790 1.350 . S
C1794 C1791 1.463 . S
C1794 N1798 1.427 . S
C1795 H1785 0.929 . S
C1795 C1793 1.433 . S
C1795 N1798 1.384 . S
C1796 H1787 0.929 . S
C1796 C1788 1.378 . S
C1796 C1791 1.350 . S
C1797 H1784 0.929 . S
C1797 C1789 1.433 . S
C1797 N1799 1.384 . S
N1798 C1794 1.427 . S
N1798 C1795 1.384 . S
N1799 C1791 1.427 . S
N1799 C1797 1.384 . S
H1800 C1806 0.930 . S
H1801 C1810 0.930 . S
H1802 C1815 0.929 . S
H1803 C1813 0.929 . S
H1804 C1808 0.929 . S
H1805 C1814 0.929 . S
C1806 H1800 0.930 . S
C1806 C1807 1.367 . S
C1806 C1814 1.378 . S
C1807 C1806 1.367 . S
C1807 C1815 1.433 . S
C1808 H1804 0.929 . S
C1808 C1810 1.378 . S
C1808 C1812 1.350 . S
C1809 C1812 1.463 . S
C1809 C1814 1.350 . S
C1809 N1817 1.427 . S
C1810 H1801 0.930 . S
C1810 C1808 1.378 . S
C1810 C1811 1.367 . S
C1811 C1810 1.367 . S
C1811 C1813 1.433 . S
C1812 C1808 1.350 . S
C1812 C1809 1.463 . S
C1812 N1816 1.427 . S
C1813 H1803 0.929 . S
C1813 C1811 1.433 . S
C1813 N1816 1.384 . S
C1814 H1805 0.929 . S
C1814 C1806 1.378 . S
C1814 C1809 1.350 . S
C1815 H1802 0.929 . S
C1815 C1807 1.433 . S
C1815 N1817 1.384 . S
N1816 C1812 1.427 . S
N1816 C1813 1.384 . S
N1817 C1809 1.427 . S
N1817 C1815 1.384 . S
H1818 C1824 0.930 . S
H1819 C1828 0.930 . S
H1820 C1833 0.929 . S
H1821 C1831 0.929 . S
H1822 C1826 0.929 . S
H1823 C1832 0.929 . S
C1824 H1818 0.930 . S
C1824 C1825 1.367 . S
C1824 C1832 1.378 . S
C1825 C1824 1.367 . S
C1825 C1833 1.433 . S
C1826 H1822 0.929 . S
C1826 C1828 1.378 . S
C1826 C1830 1.350 . S
C1827 C1830 1.463 . S
C1827 C1832 1.350 . S
C1827 N1835 1.427 . S
C1828 H1819 0.930 . S
C1828 C1826 1.378 . S
C1828 C1829 1.367 . S
C1829 C1828 1.367 . S
C1829 C1831 1.433 . S
C1830 C1826 1.350 . S
C1830 C1827 1.463 . S
C1830 N1834 1.427 . S
C1831 H1821 0.929 . S
C1831 C1829 1.433 . S
C1831 N1834 1.384 . S
C1832 H1823 0.929 . S
C1832 C1824 1.378 . S
C1832 C1827 1.350 . S
C1833 H1820 0.929 . S
C1833 C1825 1.433 . S
C1833 N1835 1.384 . S
N1834 C1830 1.427 . S
N1834 C1831 1.384 . S
N1835 C1827 1.427 . S
N1835 C1833 1.384 . S
H1836 C1842 0.930 . S
H1837 C1846 0.930 . S
H1838 C1851 0.929 . S
H1839 C1849 0.929 . S
H1840 C1844 0.929 . S
H1841 C1850 0.929 . S
C1842 H1836 0.930 . S
C1842 C1843 1.367 . S
C1842 C1850 1.378 . S
C1843 C1842 1.367 . S
C1843 C1851 1.433 . S
C1844 H1840 0.929 . S
C1844 C1846 1.378 . S
C1844 C1848 1.350 . S
C1845 C1848 1.463 . S
C1845 C1850 1.350 . S
C1845 N1853 1.427 . S
C1846 H1837 0.930 . S
C1846 C1844 1.378 . S
C1846 C1847 1.367 . S
C1847 C1846 1.367 . S
C1847 C1849 1.433 . S
C1848 C1844 1.350 . S
C1848 C1845 1.463 . S
C1848 N1852 1.427 . S
C1849 H1839 0.929 . S
C1849 C1847 1.433 . S
C1849 N1852 1.384 . S
C1850 H1841 0.929 . S
C1850 C1842 1.378 . S
C1850 C1845 1.350 . S
C1851 H1838 0.929 . S
C1851 C1843 1.433 . S
C1851 N1853 1.384 . S
N1852 C1848 1.427 . S
N1852 C1849 1.384 . S
N1853 C1845 1.427 . S
N1853 C1851 1.384 . S
H1854 C1860 0.930 . S
H1855 C1864 0.930 . S
H1856 C1869 0.929 . S
H1857 C1867 0.929 . S
H1858 C1862 0.929 . S
H1859 C1868 0.929 . S
C1860 H1854 0.930 . S
C1860 C1861 1.367 . S
C1860 C1868 1.378 . S
C1861 C1860 1.367 . S
C1861 C1869 1.433 . S
C1862 H1858 0.929 . S
C1862 C1864 1.378 . S
C1862 C1866 1.350 . S
C1863 C1866 1.463 . S
C1863 C1868 1.350 . S
C1863 N1871 1.427 . S
C1864 H1855 0.930 . S
C1864 C1862 1.378 . S
C1864 C1865 1.367 . S
C1865 C1864 1.367 . S
C1865 C1867 1.433 . S
C1866 C1862 1.350 . S
C1866 C1863 1.463 . S
C1866 N1870 1.427 . S
C1867 H1857 0.929 . S
C1867 C1865 1.433 . S
C1867 N1870 1.384 . S
C1868 H1859 0.929 . S
C1868 C1860 1.378 . S
C1868 C1863 1.350 . S
C1869 H1856 0.929 . S
C1869 C1861 1.433 . S
C1869 N1871 1.384 . S
N1870 C1866 1.427 . S
N1870 C1867 1.384 . S
N1871 C1863 1.427 . S
N1871 C1869 1.384 . S
H1872 C1878 0.930 . S
H1873 C1882 0.930 . S
H1874 C1887 0.929 . S
H1875 C1885 0.929 . S
H1876 C1880 0.929 . S
H1877 C1886 0.929 . S
C1878 H1872 0.930 . S
C1878 C1879 1.367 . S
C1878 C1886 1.378 . S
C1879 C1878 1.367 . S
C1879 C1887 1.433 . S
C1880 H1876 0.929 . S
C1880 C1882 1.378 . S
C1880 C1884 1.350 . S
C1881 C1884 1.463 . S
C1881 C1886 1.350 . S
C1881 N1889 1.427 . S
C1882 H1873 0.930 . S
C1882 C1880 1.378 . S
C1882 C1883 1.367 . S
C1883 C1882 1.367 . S
C1883 C1885 1.433 . S
C1884 C1880 1.350 . S
C1884 C1881 1.463 . S
C1884 N1888 1.427 . S
C1885 H1875 0.929 . S
C1885 C1883 1.433 . S
C1885 N1888 1.384 . S
C1886 H1877 0.929 . S
C1886 C1878 1.378 . S
C1886 C1881 1.350 . S
C1887 H1874 0.929 . S
C1887 C1879 1.433 . S
C1887 N1889 1.384 . S
N1888 C1884 1.427 . S
N1888 C1885 1.384 . S
N1889 C1881 1.427 . S
N1889 C1887 1.384 . S
H1890 C1896 0.930 . S
H1891 C1900 0.930 . S
H1892 C1905 0.929 . S
H1893 C1903 0.929 . S
H1894 C1898 0.929 . S
H1895 C1904 0.929 . S
C1896 H1890 0.930 . S
C1896 C1897 1.367 . S
C1896 C1904 1.378 . S
C1897 C1896 1.367 . S
C1897 C1905 1.433 . S
C1898 H1894 0.929 . S
C1898 C1900 1.378 . S
C1898 C1902 1.350 . S
C1899 C1902 1.463 . S
C1899 C1904 1.350 . S
C1899 N1907 1.427 . S
C1900 H1891 0.930 . S
C1900 C1898 1.378 . S
C1900 C1901 1.367 . S
C1901 C1900 1.367 . S
C1901 C1903 1.433 . S
C1902 C1898 1.350 . S
C1902 C1899 1.463 . S
C1902 N1906 1.427 . S
C1903 H1893 0.929 . S
C1903 C1901 1.433 . S
C1903 N1906 1.384 . S
C1904 H1895 0.929 . S
C1904 C1896 1.378 . S
C1904 C1899 1.350 . S
C1905 H1892 0.929 . S
C1905 C1897 1.433 . S
C1905 N1907 1.384 . S
N1906 C1902 1.427 . S
N1906 C1903 1.384 . S
N1907 C1899 1.427 . S
N1907 C1905 1.384 . S
H1908 C1914 0.930 . S
H1909 C1918 0.930 . S
H1910 C1923 0.929 . S
H1911 C1921 0.929 . S
H1912 C1916 0.929 . S
H1913 C1922 0.929 . S
C1914 H1908 0.930 . S
C1914 C1915 1.367 . S
C1914 C1922 1.378 . S
C1915 C1914 1.367 . S
C1915 C1923 1.433 . S
C1916 H1912 0.929 . S
C1916 C1918 1.378 . S
C1916 C1920 1.350 . S
C1917 C1920 1.463 . S
C1917 C1922 1.350 . S
C1917 N1925 1.427 . S
C1918 H1909 0.930 . S
C1918 C1916 1.378 . S
C1918 C1919 1.367 . S
C1919 C1918 1.367 . S
C1919 C1921 1.433 . S
C1920 C1916 1.350 . S
C1920 C1917 1.463 . S
C1920 N1924 1.427 . S
C1921 H1911 0.929 . S
C1921 C1919 1.433 . S
C1921 N1924 1.384 . S
C1922 H1913 0.929 . S
C1922 C1914 1.378 . S
C1922 C1917 1.350 . S
C1923 H1910 0.929 . S
C1923 C1915 1.433 . S
C1923 N1925 1.384 . S
N1924 C1920 1.427 . S
N1924 C1921 1.384 . S
N1925 C1917 1.427 . S
N1925 C1923 1.384 . S
H1926 C1932 0.930 . S
H1927 C1936 0.930 . S
H1928 C1941 0.929 . S
H1929 C1939 0.929 . S
H1930 C1934 0.929 . S
H1931 C1940 0.929 . S
C1932 H1926 0.930 . S
C1932 C1933 1.367 . S
C1932 C1940 1.378 . S
C1933 C1932 1.367 . S
C1933 C1941 1.433 . S
C1934 H1930 0.929 . S
C1934 C1936 1.378 . S
C1934 C1938 1.350 . S
C1935 C1938 1.463 . S
C1935 C1940 1.350 . S
C1935 N1943 1.427 . S
C1936 H1927 0.930 . S
C1936 C1934 1.378 . S
C1936 C1937 1.367 . S
C1937 C1936 1.367 . S
C1937 C1939 1.433 . S
C1938 C1934 1.350 . S
C1938 C1935 1.463 . S
C1938 N1942 1.427 . S
C1939 H1929 0.929 . S
C1939 C1937 1.433 . S
C1939 N1942 1.384 . S
C1940 H1931 0.929 . S
C1940 C1932 1.378 . S
C1940 C1935 1.350 . S
C1941 H1928 0.929 . S
C1941 C1933 1.433 . S
C1941 N1943 1.384 . S
N1942 C1938 1.427 . S
N1942 C1939 1.384 . S
N1943 C1935 1.427 . S
N1943 C1941 1.384 . S
H1944 C1950 0.930 . S
H1945 C1954 0.930 . S
H1946 C1959 0.929 . S
H1947 C1957 0.929 . S
H1948 C1952 0.929 . S
H1949 C1958 0.929 . S
C1950 H1944 0.930 . S
C1950 C1951 1.367 . S
C1950 C1958 1.378 . S
C1951 C1950 1.367 . S
C1951 C1959 1.433 . S
C1952 H1948 0.929 . S
C1952 C1954 1.378 . S
C1952 C1956 1.350 . S
C1953 C1956 1.463 . S
C1953 C1958 1.350 . S
C1953 N1961 1.427 . S
C1954 H1945 0.930 . S
C1954 C1952 1.378 . S
C1954 C1955 1.367 . S
C1955 C1954 1.367 . S
C1955 C1957 1.433 . S
C1956 C1952 1.350 . S
C1956 C1953 1.463 . S
C1956 N1960 1.427 . S
C1957 H1947 0.929 . S
C1957 C1955 1.433 . S
C1957 N1960 1.384 . S
C1958 H1949 0.929 . S
C1958 C1950 1.378 . S
C1958 C1953 1.350 . S
C1959 H1946 0.929 . S
C1959 C1951 1.433 . S
C1959 N1961 1.384 . S
N1960 C1956 1.427 . S
N1960 C1957 1.384 . S
N1961 C1953 1.427 . S
N1961 C1959 1.384 . S
H1962 C1968 0.930 . S
H1963 C1972 0.930 . S
H1964 C1977 0.929 . S
H1965 C1975 0.929 . S
H1966 C1970 0.929 . S
H1967 C1976 0.929 . S
C1968 H1962 0.930 . S
C1968 C1969 1.367 . S
C1968 C1976 1.378 . S
C1969 C1968 1.367 . S
C1969 C1977 1.433 . S
C1970 H1966 0.929 . S
C1970 C1972 1.378 . S
C1970 C1974 1.350 . S
C1971 C1974 1.463 . S
C1971 C1976 1.350 . S
C1971 N1979 1.427 . S
C1972 H1963 0.930 . S
C1972 C1970 1.378 . S
C1972 C1973 1.367 . S
C1973 C1972 1.367 . S
C1973 C1975 1.433 . S
C1974 C1970 1.350 . S
C1974 C1971 1.463 . S
C1974 N1978 1.427 . S
C1975 H1965 0.929 . S
C1975 C1973 1.433 . S
C1975 N1978 1.384 . S
C1976 H1967 0.929 . S
C1976 C1968 1.378 . S
C1976 C1971 1.350 . S
C1977 H1964 0.929 . S
C1977 C1969 1.433 . S
C1977 N1979 1.384 . S
N1978 C1974 1.427 . S
N1978 C1975 1.384 . S
N1979 C1971 1.427 . S
N1979 C1977 1.384 . S
H1980 C1986 0.930 . S
H1981 C1990 0.930 . S
H1982 C1995 0.929 . S
H1983 C1993 0.929 . S
H1984 C1988 0.929 . S
H1985 C1994 0.929 . S
C1986 H1980 0.930 . S
C1986 C1987 1.367 . S
C1986 C1994 1.378 . S
C1987 C1986 1.367 . S
C1987 C1995 1.433 . S
C1988 H1984 0.929 . S
C1988 C1990 1.378 . S
C1988 C1992 1.350 . S
C1989 C1992 1.463 . S
C1989 C1994 1.350 . S
C1989 N1997 1.427 . S
C1990 H1981 0.930 . S
C1990 C1988 1.378 . S
C1990 C1991 1.367 . S
C1991 C1990 1.367 . S
C1991 C1993 1.433 . S
C1992 C1988 1.350 . S
C1992 C1989 1.463 . S
C1992 N1996 1.427 . S
C1993 H1983 0.929 . S
C1993 C1991 1.433 . S
C1993 N1996 1.384 . S
C1994 H1985 0.929 . S
C1994 C1986 1.378 . S
C1994 C1989 1.350 . S
C1995 H1982 0.929 . S
C1995 C1987 1.433 . S
C1995 N1997 1.384 . S
N1996 C1992 1.427 . S
N1996 C1993 1.384 . S
N1997 C1989 1.427 . S
N1997 C1995 1.384 . S
H1998 C2004 0.930 . S
H1999 C2008 0.930 . S
H2000 C2013 0.929 . S
H2001 C2011 0.929 . S
H2002 C2006 0.929 . S
H2003 C2012 0.929 . S
C2004 H1998 0.930 . S
C2004 C2005 1.367 . S
C2004 C2012 1.378 . S
C2005 C2004 1.367 . S
C2005 C2013 1.433 . S
C2006 H2002 0.929 . S
C2006 C2008 1.378 . S
C2006 C2010 1.350 . S
C2007 C2010 1.463 . S
C2007 C2012 1.350 . S
C2007 N2015 1.427 . S
C2008 H1999 0.930 . S
C2008 C2006 1.378 . S
C2008 C2009 1.367 . S
C2009 C2008 1.367 . S
C2009 C2011 1.433 . S
C2010 C2006 1.350 . S
C2010 C2007 1.463 . S
C2010 N2014 1.427 . S
C2011 H2001 0.929 . S
C2011 C2009 1.433 . S
C2011 N2014 1.384 . S
C2012 H2003 0.929 . S
C2012 C2004 1.378 . S
C2012 C2007 1.350 . S
C2013 H2000 0.929 . S
C2013 C2005 1.433 . S
C2013 N2015 1.384 . S
N2014 C2010 1.427 . S
N2014 C2011 1.384 . S
N2015 C2007 1.427 . S
N2015 C2013 1.384 . S
H2016 C2022 0.930 . S
H2017 C2026 0.930 . S
H2018 C2031 0.929 . S
H2019 C2029 0.929 . S
H2020 C2024 0.929 . S
H2021 C2030 0.929 . S
C2022 H2016 0.930 . S
C2022 C2023 1.367 . S
C2022 C2030 1.378 . S
C2023 C2022 1.367 . S
C2023 C2031 1.433 . S
C2024 H2020 0.929 . S
C2024 C2026 1.378 . S
C2024 C2028 1.350 . S
C2025 C2028 1.463 . S
C2025 C2030 1.350 . S
C2025 N2033 1.427 . S
C2026 H2017 0.930 . S
C2026 C2024 1.378 . S
C2026 C2027 1.367 . S
C2027 C2026 1.367 . S
C2027 C2029 1.433 . S
C2028 C2024 1.350 . S
C2028 C2025 1.463 . S
C2028 N2032 1.427 . S
C2029 H2019 0.929 . S
C2029 C2027 1.433 . S
C2029 N2032 1.384 . S
C2030 H2021 0.929 . S
C2030 C2022 1.378 . S
C2030 C2025 1.350 . S
C2031 H2018 0.929 . S
C2031 C2023 1.433 . S
C2031 N2033 1.384 . S
N2032 C2028 1.427 . S
N2032 C2029 1.384 . S
N2033 C2025 1.427 . S
N2033 C2031 1.384 . S
H2034 C2040 0.930 . S
H2035 C2044 0.930 . S
H2036 C2049 0.929 . S
H2037 C2047 0.929 . S
H2038 C2042 0.929 . S
H2039 C2048 0.929 . S
C2040 H2034 0.930 . S
C2040 C2041 1.367 . S
C2040 C2048 1.378 . S
C2041 C2040 1.367 . S
C2041 C2049 1.433 . S
C2042 H2038 0.929 . S
C2042 C2044 1.378 . S
C2042 C2046 1.350 . S
C2043 C2046 1.463 . S
C2043 C2048 1.350 . S
C2043 N2051 1.427 . S
C2044 H2035 0.930 . S
C2044 C2042 1.378 . S
C2044 C2045 1.367 . S
C2045 C2044 1.367 . S
C2045 C2047 1.433 . S
C2046 C2042 1.350 . S
C2046 C2043 1.463 . S
C2046 N2050 1.427 . S
C2047 H2037 0.929 . S
C2047 C2045 1.433 . S
C2047 N2050 1.384 . S
C2048 H2039 0.929 . S
C2048 C2040 1.378 . S
C2048 C2043 1.350 . S
C2049 H2036 0.929 . S
C2049 C2041 1.433 . S
C2049 N2051 1.384 . S
N2050 C2046 1.427 . S
N2050 C2047 1.384 . S
N2051 C2043 1.427 . S
N2051 C2049 1.384 . S
H2052 C2058 0.930 . S
H2053 C2062 0.930 . S
H2054 C2067 0.929 . S
H2055 C2065 0.929 . S
H2056 C2060 0.929 . S
H2057 C2066 0.929 . S
C2058 H2052 0.930 . S
C2058 C2059 1.367 . S
C2058 C2066 1.378 . S
C2059 C2058 1.367 . S
C2059 C2067 1.433 . S
C2060 H2056 0.929 . S
C2060 C2062 1.378 . S
C2060 C2064 1.350 . S
C2061 C2064 1.463 . S
C2061 C2066 1.350 . S
C2061 N2069 1.427 . S
C2062 H2053 0.930 . S
C2062 C2060 1.378 . S
C2062 C2063 1.367 . S
C2063 C2062 1.367 . S
C2063 C2065 1.433 . S
C2064 C2060 1.350 . S
C2064 C2061 1.463 . S
C2064 N2068 1.427 . S
C2065 H2055 0.929 . S
C2065 C2063 1.433 . S
C2065 N2068 1.384 . S
C2066 H2057 0.929 . S
C2066 C2058 1.378 . S
C2066 C2061 1.350 . S
C2067 H2054 0.929 . S
C2067 C2059 1.433 . S
C2067 N2069 1.384 . S
N2068 C2064 1.427 . S
N2068 C2065 1.384 . S
N2069 C2061 1.427 . S
N2069 C2067 1.384 . S
H2070 C2076 0.930 . S
H2071 C2080 0.930 . S
H2072 C2085 0.929 . S
H2073 C2083 0.929 . S
H2074 C2078 0.929 . S
H2075 C2084 0.929 . S
C2076 H2070 0.930 . S
C2076 C2077 1.367 . S
C2076 C2084 1.378 . S
C2077 C2076 1.367 . S
C2077 C2085 1.433 . S
C2078 H2074 0.929 . S
C2078 C2080 1.378 . S
C2078 C2082 1.350 . S
C2079 C2082 1.463 . S
C2079 C2084 1.350 . S
C2079 N2087 1.427 . S
C2080 H2071 0.930 . S
C2080 C2078 1.378 . S
C2080 C2081 1.367 . S
C2081 C2080 1.367 . S
C2081 C2083 1.433 . S
C2082 C2078 1.350 . S
C2082 C2079 1.463 . S
C2082 N2086 1.427 . S
C2083 H2073 0.929 . S
C2083 C2081 1.433 . S
C2083 N2086 1.384 . S
C2084 H2075 0.929 . S
C2084 C2076 1.378 . S
C2084 C2079 1.350 . S
C2085 H2072 0.929 . S
C2085 C2077 1.433 . S
C2085 N2087 1.384 . S
N2086 C2082 1.427 . S
N2086 C2083 1.384 . S
N2087 C2079 1.427 . S
N2087 C2085 1.384 . S
H2088 C2094 0.930 . S
H2089 C2098 0.930 . S
H2090 C2103 0.929 . S
H2091 C2101 0.929 . S
H2092 C2096 0.929 . S
H2093 C2102 0.929 . S
C2094 H2088 0.930 . S
C2094 C2095 1.367 1_455 S
C2094 C2102 1.378 . S
C2095 C2094 1.367 1_655 S
C2095 C2103 1.433 . S
C2096 H2092 0.929 . S
C2096 C2098 1.378 . S
C2096 C2100 1.350 1_655 S
C2097 C2100 1.463 1_655 S
C2097 C2102 1.350 1_655 S
C2097 N2105 1.427 . S
C2098 H2089 0.930 . S
C2098 C2096 1.378 . S
C2098 C2099 1.367 1_655 S
C2099 C2098 1.367 1_455 S
C2099 C2101 1.433 . S
C2100 C2096 1.350 1_455 S
C2100 C2097 1.463 1_455 S
C2100 N2104 1.427 . S
C2101 H2091 0.929 . S
C2101 C2099 1.433 . S
C2101 N2104 1.384 . S
C2102 H2093 0.929 . S
C2102 C2094 1.378 . S
C2102 C2097 1.350 1_455 S
C2103 H2090 0.929 . S
C2103 C2095 1.433 . S
C2103 N2105 1.384 . S
N2104 C2100 1.427 . S
N2104 C2101 1.384 . S
N2105 C2097 1.427 . S
N2105 C2103 1.384 . S
H2106 C2112 0.930 . S
H2107 C2116 0.930 . S
H2108 C2121 0.929 . S
H2109 C2119 0.929 . S
H2110 C2114 0.929 . S
H2111 C2120 0.929 . S
C2112 H2106 0.930 . S
C2112 C2113 1.367 . S
C2112 C2120 1.378 . S
C2113 C2112 1.367 . S
C2113 C2121 1.433 . S
C2114 H2110 0.929 . S
C2114 C2116 1.378 . S
C2114 C2118 1.350 . S
C2115 C2118 1.463 . S
C2115 C2120 1.350 . S
C2115 N2123 1.427 . S
C2116 H2107 0.930 . S
C2116 C2114 1.378 . S
C2116 C2117 1.367 . S
C2117 C2116 1.367 . S
C2117 C2119 1.433 . S
C2118 C2114 1.350 . S
C2118 C2115 1.463 . S
C2118 N2122 1.427 . S
C2119 H2109 0.929 . S
C2119 C2117 1.433 . S
C2119 N2122 1.384 . S
C2120 H2111 0.929 . S
C2120 C2112 1.378 . S
C2120 C2115 1.350 . S
C2121 H2108 0.929 . S
C2121 C2113 1.433 . S
C2121 N2123 1.384 . S
N2122 C2118 1.427 . S
N2122 C2119 1.384 . S
N2123 C2115 1.427 . S
N2123 C2121 1.384 . S
H2124 C2130 0.930 . S
H2125 C2134 0.930 . S
H2126 C2139 0.929 . S
H2127 C2137 0.929 . S
H2128 C2132 0.929 . S
H2129 C2138 0.929 . S
C2130 H2124 0.930 . S
C2130 C2131 1.367 . S
C2130 C2138 1.378 . S
C2131 C2130 1.367 . S
C2131 C2139 1.433 1_545 S
C2132 H2128 0.929 . S
C2132 C2134 1.378 . S
C2132 C2136 1.350 . S
C2133 C2136 1.463 1_545 S
C2133 C2138 1.350 . S
C2133 N2141 1.427 1_545 S
C2134 H2125 0.930 . S
C2134 C2132 1.378 . S
C2134 C2135 1.367 . S
C2135 C2134 1.367 . S
C2135 C2137 1.433 1_565 S
C2136 C2132 1.350 . S
C2136 C2133 1.463 1_565 S
C2136 N2140 1.427 1_565 S
C2137 H2127 0.929 . S
C2137 C2135 1.433 1_545 S
C2137 N2140 1.384 . S
C2138 H2129 0.929 . S
C2138 C2130 1.378 . S
C2138 C2133 1.350 . S
C2139 H2126 0.929 . S
C2139 C2131 1.433 1_565 S
C2139 N2141 1.384 . S
N2140 C2136 1.427 1_545 S
N2140 C2137 1.384 . S
N2141 C2133 1.427 1_565 S
N2141 C2139 1.384 . S
H2142 C2148 0.930 . S
H2143 C2152 0.930 . S
H2144 C2157 0.929 . S
H2145 C2155 0.929 . S
H2146 C2150 0.929 . S
H2147 C2156 0.928 . S
C2148 H2142 0.930 . S
C2148 C2149 1.367 . S
C2148 C2156 1.378 1_455 S
C2149 C2148 1.367 . S
C2149 C2157 1.433 . S
C2150 H2146 0.929 . S
C2150 C2152 1.378 1_455 S
C2150 C2154 1.350 1_455 S
C2151 C2154 1.463 1_455 S
C2151 C2156 1.350 1_455 S
C2151 N2159 1.427 . S
C2152 H2143 0.930 . S
C2152 C2150 1.378 1_655 S
C2152 C2153 1.367 . S
C2153 C2152 1.367 . S
C2153 C2155 1.433 . S
C2154 C2150 1.350 1_655 S
C2154 C2151 1.463 1_655 S
C2154 N2158 1.427 . S
C2155 H2145 0.929 . S
C2155 C2153 1.433 . S
C2155 N2158 1.384 . S
C2156 H2147 0.928 . S
C2156 C2148 1.378 1_655 S
C2156 C2151 1.350 1_655 S
C2157 H2144 0.929 . S
C2157 C2149 1.433 . S
C2157 N2159 1.384 . S
N2158 C2154 1.427 . S
N2158 C2155 1.384 . S
N2159 C2151 1.427 . S
N2159 C2157 1.384 . S
H2160 C2166 0.930 . S
H2161 C2170 0.930 . S
H2162 C2175 0.929 . S
H2163 C2173 0.929 . S
H2164 C2168 0.929 . S
H2165 C2174 0.929 . S
C2166 H2160 0.930 . S
C2166 C2167 1.367 . S
C2166 C2174 1.378 . S
C2167 C2166 1.367 . S
C2167 C2175 1.433 . S
C2168 H2164 0.929 . S
C2168 C2170 1.378 . S
C2168 C2172 1.350 . S
C2169 C2172 1.463 . S
C2169 C2174 1.350 . S
C2169 N2177 1.427 . S
C2170 H2161 0.930 . S
C2170 C2168 1.378 . S
C2170 C2171 1.367 . S
C2171 C2170 1.367 . S
C2171 C2173 1.433 . S
C2172 C2168 1.350 . S
C2172 C2169 1.463 . S
C2172 N2176 1.427 . S
C2173 H2163 0.929 . S
C2173 C2171 1.433 . S
C2173 N2176 1.384 . S
C2174 H2165 0.929 . S
C2174 C2166 1.378 . S
C2174 C2169 1.350 . S
C2175 H2162 0.929 . S
C2175 C2167 1.433 . S
C2175 N2177 1.384 . S
N2176 C2172 1.427 . S
N2176 C2173 1.384 . S
N2177 C2169 1.427 . S
N2177 C2175 1.384 . S
H2178 C2184 0.930 . S
H2179 C2188 0.930 . S
H2180 C2193 0.929 . S
H2181 C2191 0.929 . S
H2182 C2186 0.929 . S
H2183 C2192 0.929 . S
C2184 H2178 0.930 . S
C2184 C2185 1.367 . S
C2184 C2192 1.378 . S
C2185 C2184 1.367 . S
C2185 C2193 1.433 . S
C2186 H2182 0.929 . S
C2186 C2188 1.378 . S
C2186 C2190 1.350 . S
C2187 C2190 1.463 1_545 S
C2187 C2192 1.350 . S
C2187 N2195 1.427 . S
C2188 H2179 0.930 . S
C2188 C2186 1.378 . S
C2188 C2189 1.367 . S
C2189 C2188 1.367 . S
C2189 C2191 1.433 . S
C2190 C2186 1.350 . S
C2190 C2187 1.463 1_565 S
C2190 N2194 1.427 . S
C2191 H2181 0.929 . S
C2191 C2189 1.433 . S
C2191 N2194 1.384 . S
C2192 H2183 0.929 . S
C2192 C2184 1.378 . S
C2192 C2187 1.350 . S
C2193 H2180 0.929 . S
C2193 C2185 1.433 . S
C2193 N2195 1.384 . S
N2194 C2190 1.427 . S
N2194 C2191 1.384 . S
N2195 C2187 1.427 . S
N2195 C2193 1.384 . S
H2196 C2202 0.930 . S
H2197 C2206 0.930 . S
H2198 C2211 0.929 . S
H2199 C2209 0.929 . S
H2200 C2204 0.929 . S
H2201 C2210 0.929 . S
C2202 H2196 0.930 . S
C2202 C2203 1.367 . S
C2202 C2210 1.378 . S
C2203 C2202 1.367 . S
C2203 C2211 1.433 . S
C2204 H2200 0.929 . S
C2204 C2206 1.378 . S
C2204 C2208 1.350 . S
C2205 C2208 1.463 . S
C2205 C2210 1.350 . S
C2205 N2213 1.427 . S
C2206 H2197 0.930 . S
C2206 C2204 1.378 . S
C2206 C2207 1.367 . S
C2207 C2206 1.367 . S
C2207 C2209 1.433 . S
C2208 C2204 1.350 . S
C2208 C2205 1.463 . S
C2208 N2212 1.427 . S
C2209 H2199 0.929 . S
C2209 C2207 1.433 . S
C2209 N2212 1.384 . S
C2210 H2201 0.929 . S
C2210 C2202 1.378 . S
C2210 C2205 1.350 . S
C2211 H2198 0.929 . S
C2211 C2203 1.433 . S
C2211 N2213 1.384 . S
N2212 C2208 1.427 . S
N2212 C2209 1.384 . S
N2213 C2205 1.427 . S
N2213 C2211 1.384 . S
H2214 C2220 0.930 . S
H2215 C2224 0.930 . S
H2216 C2229 0.929 . S
H2217 C2227 0.929 . S
H2218 C2222 0.929 . S
H2219 C2228 0.929 . S
C2220 H2214 0.930 . S
C2220 C2221 1.367 . S
C2220 C2228 1.378 . S
C2221 C2220 1.367 . S
C2221 C2229 1.433 . S
C2222 H2218 0.929 . S
C2222 C2224 1.378 . S
C2222 C2226 1.350 . S
C2223 C2226 1.463 . S
C2223 C2228 1.350 . S
C2223 N2231 1.427 . S
C2224 H2215 0.930 . S
C2224 C2222 1.378 . S
C2224 C2225 1.367 . S
C2225 C2224 1.367 . S
C2225 C2227 1.433 . S
C2226 C2222 1.350 . S
C2226 C2223 1.463 . S
C2226 N2230 1.427 . S
C2227 H2217 0.929 . S
C2227 C2225 1.433 . S
C2227 N2230 1.384 . S
C2228 H2219 0.929 . S
C2228 C2220 1.378 . S
C2228 C2223 1.350 . S
C2229 H2216 0.929 . S
C2229 C2221 1.433 . S
C2229 N2231 1.384 . S
N2230 C2226 1.427 . S
N2230 C2227 1.384 . S
N2231 C2223 1.427 . S
N2231 C2229 1.384 . S
H2232 C2238 0.930 . S
H2233 C2242 0.930 . S
H2234 C2247 0.929 . S
H2235 C2245 0.929 . S
H2236 C2240 0.929 . S
H2237 C2246 0.929 . S
C2238 H2232 0.930 . S
C2238 C2239 1.367 . S
C2238 C2246 1.378 . S
C2239 C2238 1.367 . S
C2239 C2247 1.433 . S
C2240 H2236 0.929 . S
C2240 C2242 1.378 . S
C2240 C2244 1.350 . S
C2241 C2244 1.463 . S
C2241 C2246 1.350 . S
C2241 N2249 1.427 . S
C2242 H2233 0.930 . S
C2242 C2240 1.378 . S
C2242 C2243 1.367 . S
C2243 C2242 1.367 . S
C2243 C2245 1.433 . S
C2244 C2240 1.350 . S
C2244 C2241 1.463 . S
C2244 N2248 1.427 . S
C2245 H2235 0.929 . S
C2245 C2243 1.433 . S
C2245 N2248 1.384 . S
C2246 H2237 0.929 . S
C2246 C2238 1.378 . S
C2246 C2241 1.350 . S
C2247 H2234 0.929 . S
C2247 C2239 1.433 . S
C2247 N2249 1.384 . S
N2248 C2244 1.427 . S
N2248 C2245 1.384 . S
N2249 C2241 1.427 . S
N2249 C2247 1.384 . S
H2250 C2256 0.930 . S
H2251 C2260 0.930 . S
H2252 C2265 0.929 . S
H2253 C2263 0.929 . S
H2254 C2258 0.929 . S
H2255 C2264 0.929 . S
C2256 H2250 0.930 . S
C2256 C2257 1.367 . S
C2256 C2264 1.378 . S
C2257 C2256 1.367 . S
C2257 C2265 1.433 . S
C2258 H2254 0.929 . S
C2258 C2260 1.378 . S
C2258 C2262 1.350 . S
C2259 C2262 1.463 . S
C2259 C2264 1.350 . S
C2259 N2267 1.427 . S
C2260 H2251 0.930 . S
C2260 C2258 1.378 . S
C2260 C2261 1.367 . S
C2261 C2260 1.367 . S
C2261 C2263 1.433 . S
C2262 C2258 1.350 . S
C2262 C2259 1.463 . S
C2262 N2266 1.427 . S
C2263 H2253 0.929 . S
C2263 C2261 1.433 . S
C2263 N2266 1.384 . S
C2264 H2255 0.929 . S
C2264 C2256 1.378 . S
C2264 C2259 1.350 . S
C2265 H2252 0.929 . S
C2265 C2257 1.433 . S
C2265 N2267 1.384 . S
N2266 C2262 1.427 . S
N2266 C2263 1.384 . S
N2267 C2259 1.427 . S
N2267 C2265 1.384 . S
H2268 C2274 0.930 . S
H2269 C2278 0.930 . S
H2270 C2283 0.929 . S
H2271 C2281 0.929 . S
H2272 C2276 0.929 . S
H2273 C2282 0.929 . S
C2274 H2268 0.930 . S
C2274 C2275 1.367 . S
C2274 C2282 1.378 . S
C2275 C2274 1.367 . S
C2275 C2283 1.433 . S
C2276 H2272 0.929 . S
C2276 C2278 1.378 . S
C2276 C2280 1.350 . S
C2277 C2280 1.463 . S
C2277 C2282 1.350 . S
C2277 N2285 1.427 . S
C2278 H2269 0.930 . S
C2278 C2276 1.378 . S
C2278 C2279 1.367 . S
C2279 C2278 1.367 . S
C2279 C2281 1.433 . S
C2280 C2276 1.350 . S
C2280 C2277 1.463 . S
C2280 N2284 1.427 . S
C2281 H2271 0.929 . S
C2281 C2279 1.433 . S
C2281 N2284 1.384 . S
C2282 H2273 0.929 . S
C2282 C2274 1.378 . S
C2282 C2277 1.350 . S
C2283 H2270 0.929 . S
C2283 C2275 1.433 . S
C2283 N2285 1.384 . S
N2284 C2280 1.427 . S
N2284 C2281 1.384 . S
N2285 C2277 1.427 . S
N2285 C2283 1.384 . S
H2286 C2292 0.930 . S
H2287 C2296 0.930 . S
H2288 C2301 0.929 . S
H2289 C2299 0.929 . S
H2290 C2294 0.929 . S
H2291 C2300 0.929 . S
C2292 H2286 0.930 . S
C2292 C2293 1.367 . S
C2292 C2300 1.378 . S
C2293 C2292 1.367 . S
C2293 C2301 1.433 . S
C2294 H2290 0.929 . S
C2294 C2296 1.378 . S
C2294 C2298 1.350 . S
C2295 C2298 1.463 . S
C2295 C2300 1.350 . S
C2295 N2303 1.427 . S
C2296 H2287 0.930 . S
C2296 C2294 1.378 . S
C2296 C2297 1.367 . S
C2297 C2296 1.367 . S
C2297 C2299 1.433 . S
C2298 C2294 1.350 . S
C2298 C2295 1.463 . S
C2298 N2302 1.427 . S
C2299 H2289 0.929 . S
C2299 C2297 1.433 . S
C2299 N2302 1.384 . S
C2300 H2291 0.929 . S
C2300 C2292 1.378 . S
C2300 C2295 1.350 . S
C2301 H2288 0.929 . S
C2301 C2293 1.433 . S
C2301 N2303 1.384 . S
N2302 C2298 1.427 . S
N2302 C2299 1.384 . S
N2303 C2295 1.427 . S
N2303 C2301 1.384 . S
H2304 C2310 0.930 . S
H2305 C2314 0.930 . S
H2306 C2319 0.929 . S
H2307 C2317 0.929 . S
H2308 C2312 0.929 . S
H2309 C2318 0.929 . S
C2310 H2304 0.930 . S
C2310 C2311 1.367 . S
C2310 C2318 1.378 . S
C2311 C2310 1.367 . S
C2311 C2319 1.433 . S
C2312 H2308 0.929 . S
C2312 C2314 1.378 . S
C2312 C2316 1.350 . S
C2313 C2316 1.463 . S
C2313 C2318 1.350 . S
C2313 N2321 1.427 . S
C2314 H2305 0.930 . S
C2314 C2312 1.378 . S
C2314 C2315 1.367 . S
C2315 C2314 1.367 . S
C2315 C2317 1.433 . S
C2316 C2312 1.350 . S
C2316 C2313 1.463 . S
C2316 N2320 1.427 . S
C2317 H2307 0.929 . S
C2317 C2315 1.433 . S
C2317 N2320 1.384 . S
C2318 H2309 0.929 . S
C2318 C2310 1.378 . S
C2318 C2313 1.350 . S
C2319 H2306 0.929 . S
C2319 C2311 1.433 . S
C2319 N2321 1.384 . S
N2320 C2316 1.427 . S
N2320 C2317 1.384 . S
N2321 C2313 1.427 . S
N2321 C2319 1.384 . S
H2322 C2328 0.930 . S
H2323 C2332 0.930 . S
H2324 C2337 0.929 . S
H2325 C2335 0.929 . S
H2326 C2330 0.929 . S
H2327 C2336 0.929 . S
C2328 H2322 0.930 . S
C2328 C2329 1.367 . S
C2328 C2336 1.378 . S
C2329 C2328 1.367 . S
C2329 C2337 1.433 . S
C2330 H2326 0.929 . S
C2330 C2332 1.378 . S
C2330 C2334 1.350 . S
C2331 C2334 1.463 . S
C2331 C2336 1.350 . S
C2331 N2339 1.427 . S
C2332 H2323 0.930 . S
C2332 C2330 1.378 . S
C2332 C2333 1.367 . S
C2333 C2332 1.367 . S
C2333 C2335 1.433 . S
C2334 C2330 1.350 . S
C2334 C2331 1.463 . S
C2334 N2338 1.427 . S
C2335 H2325 0.929 . S
C2335 C2333 1.433 . S
C2335 N2338 1.384 . S
C2336 H2327 0.929 . S
C2336 C2328 1.378 . S
C2336 C2331 1.350 . S
C2337 H2324 0.929 . S
C2337 C2329 1.433 . S
C2337 N2339 1.384 . S
N2338 C2334 1.427 . S
N2338 C2335 1.384 . S
N2339 C2331 1.427 . S
N2339 C2337 1.384 . S
H2340 C2346 0.930 . S
H2341 C2350 0.930 . S
H2342 C2355 0.929 . S
H2343 C2353 0.929 . S
H2344 C2348 0.929 . S
H2345 C2354 0.929 . S
C2346 H2340 0.930 . S
C2346 C2347 1.367 . S
C2346 C2354 1.378 . S
C2347 C2346 1.367 . S
C2347 C2355 1.433 . S
C2348 H2344 0.929 . S
C2348 C2350 1.378 . S
C2348 C2352 1.350 . S
C2349 C2352 1.463 . S
C2349 C2354 1.350 . S
C2349 N2357 1.427 . S
C2350 H2341 0.930 . S
C2350 C2348 1.378 . S
C2350 C2351 1.367 . S
C2351 C2350 1.367 . S
C2351 C2353 1.433 . S
C2352 C2348 1.350 . S
C2352 C2349 1.463 . S
C2352 N2356 1.427 . S
C2353 H2343 0.929 . S
C2353 C2351 1.433 . S
C2353 N2356 1.384 . S
C2354 H2345 0.929 . S
C2354 C2346 1.378 . S
C2354 C2349 1.350 . S
C2355 H2342 0.929 . S
C2355 C2347 1.433 . S
C2355 N2357 1.384 . S
N2356 C2352 1.427 . S
N2356 C2353 1.384 . S
N2357 C2349 1.427 . S
N2357 C2355 1.384 . S
H2358 C2364 0.930 . S
H2359 C2368 0.930 . S
H2360 C2373 0.929 . S
H2361 C2371 0.929 . S
H2362 C2366 0.929 . S
H2363 C2372 0.929 . S
C2364 H2358 0.930 . S
C2364 C2365 1.367 . S
C2364 C2372 1.378 . S
C2365 C2364 1.367 . S
C2365 C2373 1.433 . S
C2366 H2362 0.929 . S
C2366 C2368 1.378 . S
C2366 C2370 1.350 . S
C2367 C2370 1.463 . S
C2367 C2372 1.350 . S
C2367 N2375 1.427 . S
C2368 H2359 0.930 . S
C2368 C2366 1.378 . S
C2368 C2369 1.367 . S
C2369 C2368 1.367 . S
C2369 C2371 1.433 . S
C2370 C2366 1.350 . S
C2370 C2367 1.463 . S
C2370 N2374 1.427 . S
C2371 H2361 0.929 . S
C2371 C2369 1.433 . S
C2371 N2374 1.384 . S
C2372 H2363 0.929 . S
C2372 C2364 1.378 . S
C2372 C2367 1.350 . S
C2373 H2360 0.929 . S
C2373 C2365 1.433 . S
C2373 N2375 1.384 . S
N2374 C2370 1.427 . S
N2374 C2371 1.384 . S
N2375 C2367 1.427 . S
N2375 C2373 1.384 . S
H2376 C2382 0.930 . S
H2377 C2386 0.930 . S
H2378 C2391 0.929 . S
H2379 C2389 0.929 . S
H2380 C2384 0.929 . S
H2381 C2390 0.929 . S
C2382 H2376 0.930 . S
C2382 C2383 1.367 . S
C2382 C2390 1.378 . S
C2383 C2382 1.367 . S
C2383 C2391 1.433 . S
C2384 H2380 0.929 . S
C2384 C2386 1.378 . S
C2384 C2388 1.350 . S
C2385 C2388 1.463 . S
C2385 C2390 1.350 . S
C2385 N2393 1.427 . S
C2386 H2377 0.930 . S
C2386 C2384 1.378 . S
C2386 C2387 1.367 . S
C2387 C2386 1.367 . S
C2387 C2389 1.433 . S
C2388 C2384 1.350 . S
C2388 C2385 1.463 . S
C2388 N2392 1.427 . S
C2389 H2379 0.929 . S
C2389 C2387 1.433 . S
C2389 N2392 1.384 . S
C2390 H2381 0.929 . S
C2390 C2382 1.378 . S
C2390 C2385 1.350 . S
C2391 H2378 0.929 . S
C2391 C2383 1.433 . S
C2391 N2393 1.384 . S
N2392 C2388 1.427 . S
N2392 C2389 1.384 . S
N2393 C2385 1.427 . S
N2393 C2391 1.384 . S
H2394 C2400 0.930 . S
H2395 C2404 0.930 . S
H2396 C2409 0.929 . S
H2397 C2407 0.929 . S
H2398 C2402 0.929 . S
H2399 C2408 0.929 . S
C2400 H2394 0.930 . S
C2400 C2401 1.367 . S
C2400 C2408 1.378 . S
C2401 C2400 1.367 . S
C2401 C2409 1.433 . S
C2402 H2398 0.929 . S
C2402 C2404 1.378 . S
C2402 C2406 1.350 . S
C2403 C2406 1.463 . S
C2403 C2408 1.350 . S
C2403 N2411 1.427 . S
C2404 H2395 0.930 . S
C2404 C2402 1.378 . S
C2404 C2405 1.367 . S
C2405 C2404 1.367 . S
C2405 C2407 1.433 . S
C2406 C2402 1.350 . S
C2406 C2403 1.463 . S
C2406 N2410 1.427 . S
C2407 H2397 0.929 . S
C2407 C2405 1.433 . S
C2407 N2410 1.384 . S
C2408 H2399 0.929 . S
C2408 C2400 1.378 . S
C2408 C2403 1.350 . S
C2409 H2396 0.929 . S
C2409 C2401 1.433 . S
C2409 N2411 1.384 . S
N2410 C2406 1.427 . S
N2410 C2407 1.384 . S
N2411 C2403 1.427 . S
N2411 C2409 1.384 . S
H2412 C2418 0.930 . S
H2413 C2422 0.930 . S
H2414 C2427 0.929 . S
H2415 C2425 0.929 . S
H2416 C2420 0.929 . S
H2417 C2426 0.929 . S
C2418 H2412 0.930 . S
C2418 C2419 1.367 . S
C2418 C2426 1.378 . S
C2419 C2418 1.367 . S
C2419 C2427 1.433 . S
C2420 H2416 0.929 . S
C2420 C2422 1.378 . S
C2420 C2424 1.350 . S
C2421 C2424 1.463 . S
C2421 C2426 1.350 . S
C2421 N2429 1.427 . S
C2422 H2413 0.930 . S
C2422 C2420 1.378 . S
C2422 C2423 1.367 . S
C2423 C2422 1.367 . S
C2423 C2425 1.433 . S
C2424 C2420 1.350 . S
C2424 C2421 1.463 . S
C2424 N2428 1.427 . S
C2425 H2415 0.929 . S
C2425 C2423 1.433 . S
C2425 N2428 1.384 . S
C2426 H2417 0.929 . S
C2426 C2418 1.378 . S
C2426 C2421 1.350 . S
C2427 H2414 0.929 . S
C2427 C2419 1.433 . S
C2427 N2429 1.384 . S
N2428 C2424 1.427 . S
N2428 C2425 1.384 . S
N2429 C2421 1.427 . S
N2429 C2427 1.384 . S
H2430 C2436 0.930 . S
H2431 C2440 0.930 . S
H2432 C2445 0.929 . S
H2433 C2443 0.929 . S
H2434 C2438 0.929 . S
H2435 C2444 0.929 . S
C2436 H2430 0.930 . S
C2436 C2437 1.367 . S
C2436 C2444 1.378 . S
C2437 C2436 1.367 . S
C2437 C2445 1.433 . S
C2438 H2434 0.929 . S
C2438 C2440 1.378 . S
C2438 C2442 1.350 . S
C2439 C2442 1.463 . S
C2439 C2444 1.350 . S
C2439 N2447 1.427 . S
C2440 H2431 0.930 . S
C2440 C2438 1.378 . S
C2440 C2441 1.367 . S
C2441 C2440 1.367 . S
C2441 C2443 1.433 . S
C2442 C2438 1.350 . S
C2442 C2439 1.463 . S
C2442 N2446 1.427 . S
C2443 H2433 0.929 . S
C2443 C2441 1.433 . S
C2443 N2446 1.384 . S
C2444 H2435 0.929 . S
C2444 C2436 1.378 . S
C2444 C2439 1.350 . S
C2445 H2432 0.929 . S
C2445 C2437 1.433 . S
C2445 N2447 1.384 . S
N2446 C2442 1.427 . S
N2446 C2443 1.384 . S
N2447 C2439 1.427 . S
N2447 C2445 1.384 . S
H2448 C2454 0.930 . S
H2449 C2458 0.930 . S
H2450 C2463 0.929 . S
H2451 C2461 0.929 . S
H2452 C2456 0.929 . S
H2453 C2462 0.929 . S
C2454 H2448 0.930 . S
C2454 C2455 1.367 . S
C2454 C2462 1.378 . S
C2455 C2454 1.367 . S
C2455 C2463 1.433 . S
C2456 H2452 0.929 . S
C2456 C2458 1.378 . S
C2456 C2460 1.350 . S
C2457 C2460 1.463 . S
C2457 C2462 1.350 . S
C2457 N2465 1.427 . S
C2458 H2449 0.930 . S
C2458 C2456 1.378 . S
C2458 C2459 1.367 . S
C2459 C2458 1.367 . S
C2459 C2461 1.433 . S
C2460 C2456 1.350 . S
C2460 C2457 1.463 . S
C2460 N2464 1.427 . S
C2461 H2451 0.929 . S
C2461 C2459 1.433 . S
C2461 N2464 1.384 . S
C2462 H2453 0.929 . S
C2462 C2454 1.378 . S
C2462 C2457 1.350 . S
C2463 H2450 0.929 . S
C2463 C2455 1.433 . S
C2463 N2465 1.384 . S
N2464 C2460 1.427 . S
N2464 C2461 1.384 . S
N2465 C2457 1.427 . S
N2465 C2463 1.384 . S
H2466 C2472 0.930 . S
H2467 C2476 0.930 . S
H2468 C2481 0.925 1_565 S
H2469 C2479 0.929 . S
H2470 C2474 0.929 . S
H2471 C2480 0.929 . S
C2472 H2466 0.930 . S
C2472 C2473 1.367 . S
C2472 C2480 1.378 . S
C2473 C2472 1.367 . S
C2473 C2481 1.433 . S
C2474 H2470 0.929 . S
C2474 C2476 1.378 . S
C2474 C2478 1.350 . S
C2475 C2478 1.463 . S
C2475 C2480 1.350 . S
C2475 N2483 1.427 . S
C2476 H2467 0.930 . S
C2476 C2474 1.378 . S
C2476 C2477 1.367 . S
C2477 C2476 1.367 . S
C2477 C2479 1.433 . S
C2478 C2474 1.350 . S
C2478 C2475 1.463 . S
C2478 N2482 1.427 . S
C2479 H2469 0.929 . S
C2479 C2477 1.433 . S
C2479 N2482 1.384 . S
C2480 H2471 0.929 . S
C2480 C2472 1.378 . S
C2480 C2475 1.350 . S
C2481 H2468 0.925 1_545 S
C2481 C2473 1.433 . S
C2481 N2483 1.384 . S
N2482 C2478 1.427 . S
N2482 C2479 1.384 . S
N2483 C2475 1.427 . S
N2483 C2481 1.384 . S
H2484 C2490 0.930 . S
H2485 C2494 0.930 . S
H2486 C2499 0.929 . S
H2487 C2497 0.929 . S
H2488 C2492 0.929 . S
H2489 C2498 0.929 . S
C2490 H2484 0.930 . S
C2490 C2491 1.367 . S
C2490 C2498 1.378 . S
C2491 C2490 1.367 . S
C2491 C2499 1.433 . S
C2492 H2488 0.929 . S
C2492 C2494 1.378 . S
C2492 C2496 1.350 . S
C2493 C2496 1.463 . S
C2493 C2498 1.350 . S
C2493 N2501 1.427 . S
C2494 H2485 0.930 . S
C2494 C2492 1.378 . S
C2494 C2495 1.367 . S
C2495 C2494 1.367 . S
C2495 C2497 1.433 . S
C2496 C2492 1.350 . S
C2496 C2493 1.463 . S
C2496 N2500 1.427 . S
C2497 H2487 0.929 . S
C2497 C2495 1.433 . S
C2497 N2500 1.384 . S
C2498 H2489 0.929 . S
C2498 C2490 1.378 . S
C2498 C2493 1.350 . S
C2499 H2486 0.929 . S
C2499 C2491 1.433 . S
C2499 N2501 1.384 . S
N2500 C2496 1.427 . S
N2500 C2497 1.384 . S
N2501 C2493 1.427 . S
N2501 C2499 1.384 . S
H2502 C2508 0.930 . S
H2503 C2512 0.930 . S
H2504 C2517 0.929 . S
H2505 C2515 0.929 . S
H2506 C2510 0.929 . S
H2507 C2516 0.929 . S
C2508 H2502 0.930 . S
C2508 C2509 1.367 . S
C2508 C2516 1.378 . S
C2509 C2508 1.367 . S
C2509 C2517 1.433 . S
C2510 H2506 0.929 . S
C2510 C2512 1.378 . S
C2510 C2514 1.350 . S
C2511 C2514 1.463 . S
C2511 C2516 1.350 . S
C2511 N2519 1.427 . S
C2512 H2503 0.930 . S
C2512 C2510 1.378 . S
C2512 C2513 1.367 . S
C2513 C2512 1.367 . S
C2513 C2515 1.433 . S
C2514 C2510 1.350 . S
C2514 C2511 1.463 . S
C2514 N2518 1.427 . S
C2515 H2505 0.929 . S
C2515 C2513 1.433 . S
C2515 N2518 1.384 . S
C2516 H2507 0.929 . S
C2516 C2508 1.378 . S
C2516 C2511 1.350 . S
C2517 H2504 0.929 . S
C2517 C2509 1.433 . S
C2517 N2519 1.384 . S
N2518 C2514 1.427 . S
N2518 C2515 1.384 . S
N2519 C2511 1.427 . S
N2519 C2517 1.384 . S
H2520 C2526 0.930 . S
H2521 C2530 0.930 . S
H2522 C2535 0.929 . S
H2523 C2533 0.929 . S
H2524 C2528 0.929 . S
H2525 C2534 0.929 . S
C2526 H2520 0.930 . S
C2526 C2527 1.367 . S
C2526 C2534 1.378 . S
C2527 C2526 1.367 . S
C2527 C2535 1.433 . S
C2528 H2524 0.929 . S
C2528 C2530 1.378 . S
C2528 C2532 1.350 . S
C2529 C2532 1.463 . S
C2529 C2534 1.350 . S
C2529 N2537 1.427 . S
C2530 H2521 0.930 . S
C2530 C2528 1.378 . S
C2530 C2531 1.367 . S
C2531 C2530 1.367 . S
C2531 C2533 1.433 . S
C2532 C2528 1.350 . S
C2532 C2529 1.463 . S
C2532 N2536 1.427 . S
C2533 H2523 0.929 . S
C2533 C2531 1.433 . S
C2533 N2536 1.384 . S
C2534 H2525 0.929 . S
C2534 C2526 1.378 . S
C2534 C2529 1.350 . S
C2535 H2522 0.929 . S
C2535 C2527 1.433 . S
C2535 N2537 1.384 . S
N2536 C2532 1.427 . S
N2536 C2533 1.384 . S
N2537 C2529 1.427 . S
N2537 C2535 1.384 . S
H2538 C2544 0.930 . S
H2539 C2548 0.930 . S
H2540 C2553 0.929 . S
H2541 C2551 0.929 . S
H2542 C2546 0.929 . S
H2543 C2552 0.929 . S
C2544 H2538 0.930 . S
C2544 C2545 1.367 . S
C2544 C2552 1.378 . S
C2545 C2544 1.367 . S
C2545 C2553 1.433 . S
C2546 H2542 0.929 . S
C2546 C2548 1.378 . S
C2546 C2550 1.350 . S
C2547 C2550 1.463 . S
C2547 C2552 1.350 . S
C2547 N2555 1.427 . S
C2548 H2539 0.930 . S
C2548 C2546 1.378 . S
C2548 C2549 1.367 . S
C2549 C2548 1.367 . S
C2549 C2551 1.433 . S
C2550 C2546 1.350 . S
C2550 C2547 1.463 . S
C2550 N2554 1.427 . S
C2551 H2541 0.929 . S
C2551 C2549 1.433 . S
C2551 N2554 1.384 . S
C2552 H2543 0.929 . S
C2552 C2544 1.378 . S
C2552 C2547 1.350 . S
C2553 H2540 0.929 . S
C2553 C2545 1.433 . S
C2553 N2555 1.384 . S
N2554 C2550 1.427 . S
N2554 C2551 1.384 . S
N2555 C2547 1.427 . S
N2555 C2553 1.384 . S
H2556 C2562 0.930 . S
H2557 C2566 0.930 . S
H2558 C2571 0.929 . S
H2559 C2569 0.929 . S
H2560 C2564 0.929 . S
H2561 C2570 0.929 . S
C2562 H2556 0.930 . S
C2562 C2563 1.367 . S
C2562 C2570 1.378 . S
C2563 C2562 1.367 . S
C2563 C2571 1.433 . S
C2564 H2560 0.929 . S
C2564 C2566 1.378 . S
C2564 C2568 1.350 . S
C2565 C2568 1.463 . S
C2565 C2570 1.350 . S
C2565 N2573 1.427 . S
C2566 H2557 0.930 . S
C2566 C2564 1.378 . S
C2566 C2567 1.367 . S
C2567 C2566 1.367 . S
C2567 C2569 1.433 . S
C2568 C2564 1.350 . S
C2568 C2565 1.463 . S
C2568 N2572 1.427 . S
C2569 H2559 0.929 . S
C2569 C2567 1.433 . S
C2569 N2572 1.384 . S
C2570 H2561 0.929 . S
C2570 C2562 1.378 . S
C2570 C2565 1.350 . S
C2571 H2558 0.929 . S
C2571 C2563 1.433 . S
C2571 N2573 1.384 . S
N2572 C2568 1.427 . S
N2572 C2569 1.384 . S
N2573 C2565 1.427 . S
N2573 C2571 1.384 . S
H2574 C2580 0.930 . S
H2575 C2584 0.930 . S
H2576 C2589 0.929 . S
H2577 C2587 0.929 . S
H2578 C2582 0.929 . S
H2579 C2588 0.929 . S
C2580 H2574 0.930 . S
C2580 C2581 1.367 . S
C2580 C2588 1.378 . S
C2581 C2580 1.367 . S
C2581 C2589 1.433 . S
C2582 H2578 0.929 . S
C2582 C2584 1.378 . S
C2582 C2586 1.350 . S
C2583 C2586 1.463 . S
C2583 C2588 1.350 . S
C2583 N2591 1.427 . S
C2584 H2575 0.930 . S
C2584 C2582 1.378 . S
C2584 C2585 1.367 . S
C2585 C2584 1.367 . S
C2585 C2587 1.433 . S
C2586 C2582 1.350 . S
C2586 C2583 1.463 . S
C2586 N2590 1.427 . S
C2587 H2577 0.929 . S
C2587 C2585 1.433 . S
C2587 N2590 1.384 . S
C2588 H2579 0.929 . S
C2588 C2580 1.378 . S
C2588 C2583 1.350 . S
C2589 H2576 0.929 . S
C2589 C2581 1.433 . S
C2589 N2591 1.384 . S
N2590 C2586 1.427 . S
N2590 C2587 1.384 . S
N2591 C2583 1.427 . S
N2591 C2589 1.384 . S
H2592 C2598 0.930 . S
H2593 C2602 0.930 . S
H2594 C2607 0.929 . S
H2595 C2605 0.929 . S
H2596 C2600 0.929 . S
H2597 C2606 0.929 . S
C2598 H2592 0.930 . S
C2598 C2599 1.367 . S
C2598 C2606 1.378 . S
C2599 C2598 1.367 . S
C2599 C2607 1.433 . S
C2600 H2596 0.929 . S
C2600 C2602 1.378 . S
C2600 C2604 1.350 . S
C2601 C2604 1.463 . S
C2601 C2606 1.350 . S
C2601 N2609 1.427 . S
C2602 H2593 0.930 . S
C2602 C2600 1.378 . S
C2602 C2603 1.367 . S
C2603 C2602 1.367 . S
C2603 C2605 1.433 . S
C2604 C2600 1.350 . S
C2604 C2601 1.463 . S
C2604 N2608 1.427 . S
C2605 H2595 0.929 . S
C2605 C2603 1.433 . S
C2605 N2608 1.384 . S
C2606 H2597 0.929 . S
C2606 C2598 1.378 . S
C2606 C2601 1.350 . S
C2607 H2594 0.929 . S
C2607 C2599 1.433 . S
C2607 N2609 1.384 . S
N2608 C2604 1.427 . S
N2608 C2605 1.384 . S
N2609 C2601 1.427 . S
N2609 C2607 1.384 . S
H2610 C2616 0.930 . S
H2611 C2620 0.930 . S
H2612 C2625 0.929 . S
H2613 C2623 0.929 . S
H2614 C2618 0.929 . S
H2615 C2624 0.929 . S
C2616 H2610 0.930 . S
C2616 C2617 1.367 . S
C2616 C2624 1.378 . S
C2617 C2616 1.367 . S
C2617 C2625 1.433 . S
C2618 H2614 0.929 . S
C2618 C2620 1.378 . S
C2618 C2622 1.350 . S
C2619 C2622 1.463 . S
C2619 C2624 1.350 . S
C2619 N2627 1.427 . S
C2620 H2611 0.930 . S
C2620 C2618 1.378 . S
C2620 C2621 1.367 . S
C2621 C2620 1.367 . S
C2621 C2623 1.433 . S
C2622 C2618 1.350 . S
C2622 C2619 1.463 . S
C2622 N2626 1.427 . S
C2623 H2613 0.929 . S
C2623 C2621 1.433 . S
C2623 N2626 1.384 . S
C2624 H2615 0.929 . S
C2624 C2616 1.378 . S
C2624 C2619 1.350 . S
C2625 H2612 0.929 . S
C2625 C2617 1.433 . S
C2625 N2627 1.384 . S
N2626 C2622 1.427 . S
N2626 C2623 1.384 . S
N2627 C2619 1.427 . S
N2627 C2625 1.384 . S
H2628 C2634 0.930 . S
H2629 C2638 0.930 . S
H2630 C2643 0.929 . S
H2631 C2641 0.929 . S
H2632 C2636 0.929 . S
H2633 C2642 0.929 . S
C2634 H2628 0.930 . S
C2634 C2635 1.367 . S
C2634 C2642 1.378 . S
C2635 C2634 1.367 . S
C2635 C2643 1.433 . S
C2636 H2632 0.929 . S
C2636 C2638 1.378 . S
C2636 C2640 1.350 . S
C2637 C2640 1.463 1_455 S
C2637 C2642 1.350 . S
C2637 N2645 1.427 . S
C2638 H2629 0.930 . S
C2638 C2636 1.378 . S
C2638 C2639 1.367 . S
C2639 C2638 1.367 . S
C2639 C2641 1.433 . S
C2640 C2636 1.350 . S
C2640 C2637 1.463 1_655 S
C2640 N2644 1.427 . S
C2641 H2631 0.929 . S
C2641 C2639 1.433 . S
C2641 N2644 1.384 . S
C2642 H2633 0.929 . S
C2642 C2634 1.378 . S
C2642 C2637 1.350 . S
C2643 H2630 0.929 . S
C2643 C2635 1.433 . S
C2643 N2645 1.384 . S
N2644 C2640 1.427 . S
N2644 C2641 1.384 . S
N2645 C2637 1.427 . S
N2645 C2643 1.384 . S
H2646 C2652 0.930 . S
H2647 C2656 0.930 . S
H2648 C2661 0.929 . S
H2649 C2659 0.929 . S
H2650 C2654 0.929 . S
H2651 C2660 0.929 . S
C2652 H2646 0.930 . S
C2652 C2653 1.367 . S
C2652 C2660 1.378 . S
C2653 C2652 1.367 . S
C2653 C2661 1.433 . S
C2654 H2650 0.929 . S
C2654 C2656 1.378 . S
C2654 C2658 1.350 . S
C2655 C2658 1.463 . S
C2655 C2660 1.350 . S
C2655 N2663 1.427 . S
C2656 H2647 0.930 . S
C2656 C2654 1.378 . S
C2656 C2657 1.367 . S
C2657 C2656 1.367 . S
C2657 C2659 1.433 . S
C2658 C2654 1.350 . S
C2658 C2655 1.463 . S
C2658 N2662 1.427 . S
C2659 H2649 0.929 . S
C2659 C2657 1.433 . S
C2659 N2662 1.384 . S
C2660 H2651 0.929 . S
C2660 C2652 1.378 . S
C2660 C2655 1.350 . S
C2661 H2648 0.929 . S
C2661 C2653 1.433 . S
C2661 N2663 1.384 . S
N2662 C2658 1.427 . S
N2662 C2659 1.384 . S
N2663 C2655 1.427 . S
N2663 C2661 1.384 . S
H2664 C2670 0.930 . S
H2665 C2674 0.930 . S
H2666 C2679 0.929 . S
H2667 C2677 0.929 . S
H2668 C2672 0.929 . S
H2669 C2678 0.929 . S
C2670 H2664 0.930 . S
C2670 C2671 1.367 . S
C2670 C2678 1.378 . S
C2671 C2670 1.367 . S
C2671 C2679 1.433 . S
C2672 H2668 0.929 . S
C2672 C2674 1.378 . S
C2672 C2676 1.350 . S
C2673 C2676 1.463 1_545 S
C2673 C2678 1.350 . S
C2673 N2681 1.427 . S
C2674 H2665 0.930 . S
C2674 C2672 1.378 . S
C2674 C2675 1.367 . S
C2675 C2674 1.367 . S
C2675 C2677 1.433 . S
C2676 C2672 1.350 . S
C2676 C2673 1.463 1_565 S
C2676 N2680 1.427 . S
C2677 H2667 0.929 . S
C2677 C2675 1.433 . S
C2677 N2680 1.384 . S
C2678 H2669 0.929 . S
C2678 C2670 1.378 . S
C2678 C2673 1.350 . S
C2679 H2666 0.929 . S
C2679 C2671 1.433 . S
C2679 N2681 1.384 . S
N2680 C2676 1.427 . S
N2680 C2677 1.384 . S
N2681 C2673 1.427 . S
N2681 C2679 1.384 . S
H2682 C2688 0.930 . S
H2683 C2692 0.930 . S
H2684 C2697 0.929 . S
H2685 C2695 0.929 . S
H2686 C2690 0.929 . S
H2687 C2696 0.929 . S
C2688 H2682 0.930 . S
C2688 C2689 1.367 . S
C2688 C2696 1.378 . S
C2689 C2688 1.367 . S
C2689 C2697 1.433 . S
C2690 H2686 0.929 . S
C2690 C2692 1.378 . S
C2690 C2694 1.350 . S
C2691 C2694 1.463 1_545 S
C2691 C2696 1.350 . S
C2691 N2699 1.427 . S
C2692 H2683 0.930 . S
C2692 C2690 1.378 . S
C2692 C2693 1.367 . S
C2693 C2692 1.367 . S
C2693 C2695 1.433 . S
C2694 C2690 1.350 . S
C2694 C2691 1.463 1_565 S
C2694 N2698 1.427 . S
C2695 H2685 0.929 . S
C2695 C2693 1.433 . S
C2695 N2698 1.384 . S
C2696 H2687 0.929 . S
C2696 C2688 1.378 . S
C2696 C2691 1.350 . S
C2697 H2684 0.929 . S
C2697 C2689 1.433 . S
C2697 N2699 1.384 . S
N2698 C2694 1.427 . S
N2698 C2695 1.384 . S
N2699 C2691 1.427 . S
N2699 C2697 1.384 . S
H2700 C2706 0.930 . S
H2701 C2710 0.930 . S
H2702 C2715 0.929 . S
H2703 C2713 0.929 . S
H2704 C2708 0.929 . S
H2705 C2714 0.929 . S
C2706 H2700 0.930 . S
C2706 C2707 1.367 . S
C2706 C2714 1.378 . S
C2707 C2706 1.367 . S
C2707 C2715 1.433 . S
C2708 H2704 0.929 . S
C2708 C2710 1.378 . S
C2708 C2712 1.350 . S
C2709 C2712 1.463 1_455 S
C2709 C2714 1.350 . S
C2709 N2717 1.427 . S
C2710 H2701 0.930 . S
C2710 C2708 1.378 . S
C2710 C2711 1.367 . S
C2711 C2710 1.367 . S
C2711 C2713 1.433 . S
C2712 C2708 1.350 . S
C2712 C2709 1.463 1_655 S
C2712 N2716 1.427 . S
C2713 H2703 0.929 . S
C2713 C2711 1.433 . S
C2713 N2716 1.384 . S
C2714 H2705 0.929 . S
C2714 C2706 1.378 . S
C2714 C2709 1.350 . S
C2715 H2702 0.929 . S
C2715 C2707 1.433 . S
C2715 N2717 1.384 . S
N2716 C2712 1.427 . S
N2716 C2713 1.384 . S
N2717 C2709 1.427 . S
N2717 C2715 1.384 . S
H2718 C2724 0.930 . S
H2719 C2728 0.930 . S
H2720 C2733 0.929 . S
H2721 C2731 0.929 . S
H2722 C2726 0.929 . S
H2723 C2732 0.929 . S
C2724 H2718 0.930 . S
C2724 C2725 1.367 . S
C2724 C2732 1.378 . S
C2725 C2724 1.367 . S
C2725 C2733 1.433 . S
C2726 H2722 0.929 . S
C2726 C2728 1.378 . S
C2726 C2730 1.350 . S
C2727 C2730 1.463 . S
C2727 C2732 1.350 . S
C2727 N2735 1.427 . S
C2728 H2719 0.930 . S
C2728 C2726 1.378 . S
C2728 C2729 1.367 . S
C2729 C2728 1.367 . S
C2729 C2731 1.433 . S
C2730 C2726 1.350 . S
C2730 C2727 1.463 . S
C2730 N2734 1.427 . S
C2731 H2721 0.929 . S
C2731 C2729 1.433 . S
C2731 N2734 1.384 . S
C2732 H2723 0.929 . S
C2732 C2724 1.378 . S
C2732 C2727 1.350 . S
C2733 H2720 0.929 . S
C2733 C2725 1.433 . S
C2733 N2735 1.384 . S
N2734 C2730 1.427 . S
N2734 C2731 1.384 . S
N2735 C2727 1.427 . S
N2735 C2733 1.384 . S
C799 C8 0.943 . S
C803 C172 0.947 . S
C817 C30 0.943 . S
C821 C184 0.947 . S
C835 C62 0.950 . S
C839 C150 0.937 . S
C853 C74 0.946 . S
C857 C252 0.940 . S
C871 C208 0.933 . S
C875 C96 0.953 . S
C889 C230 0.927 . S
C893 C120 0.956 . S
C907 C40 0.946 . S
C911 C140 0.944 . S
C925 C162 0.953 . S
C929 C54 0.933 . S
C943 C186 0.955 . S
C947 C18 0.927 . S
C961 C118 0.927 . S
C965 C216 0.955 . S
C979 C238 0.952 . S
C983 C84 0.931 . S
C997 C260 0.950 . S
C1001 C106 0.934 . S
C1015 C274 0.956 . S
C1019 C436 0.927 . S
C1033 C294 0.944 . S
C1037 C458 0.945 . S
C1051 C414 0.947 . S
C1055 C316 0.942 . S
C1069 C514 0.946 . S
C1073 C338 0.943 . S
C1087 C470 0.942 . S
C1091 C362 0.946 . S
C1105 C382 0.957 . S
C1109 C492 0.924 . S
C1123 C304 0.924 . S
C1127 C404 0.957 . S
C1141 C326 0.940 . S
C1145 C426 0.946 . S
C1159 C272 0.939 . S
C1163 C448 0.947 . S
C1177 C392 0.940 . S
C1181 C472 0.948 . S
C1195 C494 0.945 . S
C1199 C348 0.945 . S
C1213 C360 0.948 . S
C1217 C516 0.942 . S
C1231 C536 0.955 . S
C1235 C690 0.928 . S
C1249 C722 0.932 . S
C1253 C560 0.951 . S
C1267 C580 0.945 . S
C1271 C668 0.944 . S
C1285 C612 0.949 . S
C1289 C780 0.938 . S
C1303 C734 0.937 . S
C1307 C626 0.950 . S
C1321 C758 0.946 . S
C1325 C648 0.944 . S
C1339 C670 0.943 . S
C1343 C558 0.945 . S
C1357 C692 0.949 . S
C1361 C590 0.939 . S
C1375 C712 0.957 . S
C1379 C546 0.924 . S
C1393 C646 0.946 . S
C1397 C736 0.943 . S
C1411 C604 0.942 . S
C1415 C766 0.945 . S
C1429 C624 0.948 . S
C1433 C788 0.942 . S
C1447 C21 1.158 . S
C1451 C59 1.157 . S
C1465 C43 1.160 . S
C1469 C7 1.160 . S
C1483 C29 1.142 . S
C1487 C51 1.168 . S
C1501 C95 1.160 . S
C1505 C87 1.163 . S
C1519 C109 1.169 . S
C1523 C131 1.155 . S
C1537 C73 1.159 . S
C1541 C125 1.158 . S
C1555 C153 1.173 . S
C1559 C197 1.148 . S
C1573 C175 1.166 . S
C1577 C139 1.158 . S
C1591 C191 1.161 . S
C1595 C161 1.160 . S
C1609 C235 1.141 . S
C1613 C205 1.172 . S
C1627 C227 1.173 . S
C1631 C257 1.149 . S
C1645 C213 1.141 . S
C1649 C249 1.172 . S
C1663 C315 1.142 . S
C1667 C279 1.173 . S
C1681 C307 1.172 . S
C1685 C285 1.149 . S
C1699 C329 1.158 . S
C1703 C293 1.157 . S
C1717 C351 1.168 . S
C1721 C373 1.156 . S
C1735 C381 1.142 . S
C1739 C367 1.173 . S
C1753 C395 1.168 . S
C1757 C337 1.156 . S
C1771 C417 1.173 . S
C1775 C447 1.142 . S
C1789 C439 1.172 . S
C1793 C403 1.141 . S
C1807 C425 1.160 . S
C1811 C461 1.160 . S
C1825 C505 1.156 . S
C1829 C477 1.158 . S
C1843 C499 1.160 . S
C1847 C527 1.160 . S
C1861 C521 1.167 . S
C1865 C483 1.142 . S
C1879 C579 1.145 . S
C1883 C549 1.164 . S
C1897 C565 1.172 . S
C1901 C535 1.151 . S
C1915 C593 1.159 . S
C1919 C571 1.160 . S
C1933 C637 1.160 . S
C1937 C601 1.159 . S
C1951 C631 1.173 . S
C1955 C659 1.141 . S
C1969 C653 1.158 . S
C1973 C609 1.155 . S
C1987 C675 1.171 . S
C1991 C711 1.141 . S
C2005 C697 1.170 . S
C2009 C681 1.141 . S
C2023 C703 1.160 . S
C2027 C725 1.161 . S
C2041 C763 1.141 . S
C2045 C741 1.171 . S
C2059 C785 1.145 . S
C2063 C755 1.174 . S
C2077 C747 1.144 . S
C2081 C777 1.165 . S
C2095 C103 1.558 . S
C2099 C15 1.558 . S
C2113 C117 1.562 . S
C2117 C37 1.562 . S
C2131 C81 1.563 . S
C2135 C65 1.563 . S
C2149 C241 1.560 . S
C2153 C147 1.560 . S
C2167 C263 1.558 . S
C2171 C169 1.558 . S
C2185 C183 1.561 . S
C2189 C219 1.561 . S
C2203 C359 1.561 . S
C2207 C271 1.561 . S
C2221 C389 1.561 . S
C2225 C301 1.561 . S
C2239 C323 1.558 . S
C2243 C345 1.558 . S
C2257 C491 1.562 1_554 S
C2261 C411 1.562 . S
C2275 C433 1.561 . S
C2279 C513 1.561 1_554 S
C2293 C469 1.563 1_554 S
C2297 C455 1.563 . S
C2311 C543 1.560 . S
C2315 C623 1.560 1_556 S
C2329 C645 1.561 1_556 S
C2333 C557 1.561 . S
C2347 C615 1.558 1_556 S
C2351 C587 1.558 . S
C2365 C769 1.561 . S
C2369 C667 1.561 . S
C2383 C791 1.558 . S
C2387 C689 1.558 . S
C2401 C733 1.560 . S
C2405 C719 1.560 . S
C2419 C656 1.333 . S
C2423 C10 1.340 . S
C2437 C32 1.339 . S
C2441 C602 1.335 . S
C2455 C52 1.340 . S
C2459 C634 1.334 . S
C2473 C76 1.328 . S
C2477 C296 1.340 . S
C2491 C98 1.328 . S
C2495 C318 1.339 . S
C2509 C128 1.335 . S
C2513 C282 1.328 . S
C2527 C524 1.327 . S
C2531 C142 1.337 . S
C2545 C480 1.339 . S
C2549 C164 1.336 . S
C2563 C502 1.331 . S
C2567 C194 1.341 . S
C2581 C206 1.340 . S
C2585 C700 1.334 . S
C2599 C228 1.339 . S
C2603 C714 1.336 . S
C2617 C678 1.327 . S
C2621 C250 1.336 . S
C2635 C568 1.340 . S
C2639 C340 1.333 . S
C2653 C582 1.331 . S
C2657 C370 1.341 . S
C2671 C384 1.335 . S
C2675 C538 1.327 . S
C2689 C406 1.340 . S
C2693 C778 1.334 . S
C2707 C744 1.332 . S
C2711 C428 1.340 . S
C2725 C756 1.337 . S
C2729 C450 1.327 . S
