# Generated by pormake.
# Topology unv, (4)-cn, num edge types: 1
# Building blocks:
#     Node 0, Type 0, BuildingBlock: GALJAG_clean_sbu_0, # of connection points: 4
#     Node 1, Type 0, BuildingBlock: GALJAG_clean_sbu_0, # of connection points: 4
#     Node 2, Type 0, BuildingBlock: GALJAG_clean_sbu_0, # of connection points: 4
#     Node 3, Type 0, BuildingBlock: GALJAG_clean_sbu_0, # of connection points: 4
#     Node 4, Type 0, BuildingBlock: GALJAG_clean_sbu_0, # of connection points: 4
#     Node 5, Type 0, BuildingBlock: GALJAG_clean_sbu_0, # of connection points: 4
#     Node 6, Type 0, BuildingBlock: GALJAG_clean_sbu_0, # of connection points: 4
#     Node 7, Type 0, BuildingBlock: GALJAG_clean_sbu_0, # of connection points: 4
#     Node 8, Type 0, BuildingBlock: GALJAG_clean_sbu_0, # of connection points: 4
#     Node 9, Type 0, BuildingBlock: GALJAG_clean_sbu_0, # of connection points: 4
#     Node 10, Type 0, BuildingBlock: GALJAG_clean_sbu_0, # of connection points: 4
#     Node 11, Type 0, BuildingBlock: GALJAG_clean_sbu_0, # of connection points: 4
#     Node 12, Type 0, BuildingBlock: GALJAG_clean_sbu_0, # of connection points: 4
#     Node 13, Type 0, BuildingBlock: GALJAG_clean_sbu_0, # of connection points: 4
#     Node 14, Type 0, BuildingBlock: GALJAG_clean_sbu_0, # of connection points: 4
#     Node 15, Type 0, BuildingBlock: GALJAG_clean_sbu_0, # of connection points: 4
#     Node 16, Type 0, BuildingBlock: GALJAG_clean_sbu_0, # of connection points: 4
#     Node 17, Type 0, BuildingBlock: GALJAG_clean_sbu_0, # of connection points: 4
#     Node 18, Type 0, BuildingBlock: GALJAG_clean_sbu_0, # of connection points: 4
#     Node 19, Type 0, BuildingBlock: GALJAG_clean_sbu_0, # of connection points: 4
#     Node 20, Type 0, BuildingBlock: GALJAG_clean_sbu_0, # of connection points: 4
#     Node 21, Type 0, BuildingBlock: GALJAG_clean_sbu_0, # of connection points: 4
#     Node 22, Type 0, BuildingBlock: GALJAG_clean_sbu_0, # of connection points: 4
#     Node 23, Type 0, BuildingBlock: GALJAG_clean_sbu_0, # of connection points: 4
#     Edge 24, Type (0, 0), BuildingBlock: KIFKEQ_clean_linker_1, # of connection points: 2
#     Edge 25, Type (0, 0), BuildingBlock: KIFKEQ_clean_linker_1, # of connection points: 2
#     Edge 26, Type (0, 0), BuildingBlock: KIFKEQ_clean_linker_1, # of connection points: 2
#     Edge 27, Type (0, 0), BuildingBlock: KIFKEQ_clean_linker_1, # of connection points: 2
#     Edge 28, Type (0, 0), BuildingBlock: KIFKEQ_clean_linker_1, # of connection points: 2
#     Edge 29, Type (0, 0), BuildingBlock: KIFKEQ_clean_linker_1, # of connection points: 2
#     Edge 30, Type (0, 0), BuildingBlock: KIFKEQ_clean_linker_1, # of connection points: 2
#     Edge 31, Type (0, 0), BuildingBlock: KIFKEQ_clean_linker_1, # of connection points: 2
#     Edge 32, Type (0, 0), BuildingBlock: KIFKEQ_clean_linker_1, # of connection points: 2
#     Edge 33, Type (0, 0), BuildingBlock: KIFKEQ_clean_linker_1, # of connection points: 2
#     Edge 34, Type (0, 0), BuildingBlock: KIFKEQ_clean_linker_1, # of connection points: 2
#     Edge 35, Type (0, 0), BuildingBlock: KIFKEQ_clean_linker_1, # of connection points: 2
#     Edge 36, Type (0, 0), BuildingBlock: KIFKEQ_clean_linker_1, # of connection points: 2
#     Edge 37, Type (0, 0), BuildingBlock: KIFKEQ_clean_linker_1, # of connection points: 2
#     Edge 38, Type (0, 0), BuildingBlock: KIFKEQ_clean_linker_1, # of connection points: 2
#     Edge 39, Type (0, 0), BuildingBlock: KIFKEQ_clean_linker_1, # of connection points: 2
#     Edge 40, Type (0, 0), BuildingBlock: KIFKEQ_clean_linker_1, # of connection points: 2
#     Edge 41, Type (0, 0), BuildingBlock: KIFKEQ_clean_linker_1, # of connection points: 2
#     Edge 42, Type (0, 0), BuildingBlock: KIFKEQ_clean_linker_1, # of connection points: 2
#     Edge 43, Type (0, 0), BuildingBlock: KIFKEQ_clean_linker_1, # of connection points: 2
#     Edge 44, Type (0, 0), BuildingBlock: KIFKEQ_clean_linker_1, # of connection points: 2
#     Edge 45, Type (0, 0), BuildingBlock: KIFKEQ_clean_linker_1, # of connection points: 2
#     Edge 46, Type (0, 0), BuildingBlock: KIFKEQ_clean_linker_1, # of connection points: 2
#     Edge 47, Type (0, 0), BuildingBlock: KIFKEQ_clean_linker_1, # of connection points: 2
#     Edge 48, Type (0, 0), BuildingBlock: KIFKEQ_clean_linker_1, # of connection points: 2
#     Edge 49, Type (0, 0), BuildingBlock: KIFKEQ_clean_linker_1, # of connection points: 2
#     Edge 50, Type (0, 0), BuildingBlock: KIFKEQ_clean_linker_1, # of connection points: 2
#     Edge 51, Type (0, 0), BuildingBlock: KIFKEQ_clean_linker_1, # of connection points: 2
#     Edge 52, Type (0, 0), BuildingBlock: KIFKEQ_clean_linker_1, # of connection points: 2
#     Edge 53, Type (0, 0), BuildingBlock: KIFKEQ_clean_linker_1, # of connection points: 2
#     Edge 54, Type (0, 0), BuildingBlock: KIFKEQ_clean_linker_1, # of connection points: 2
#     Edge 55, Type (0, 0), BuildingBlock: KIFKEQ_clean_linker_1, # of connection points: 2
#     Edge 56, Type (0, 0), BuildingBlock: KIFKEQ_clean_linker_1, # of connection points: 2
#     Edge 57, Type (0, 0), BuildingBlock: KIFKEQ_clean_linker_1, # of connection points: 2
#     Edge 58, Type (0, 0), BuildingBlock: KIFKEQ_clean_linker_1, # of connection points: 2
#     Edge 59, Type (0, 0), BuildingBlock: KIFKEQ_clean_linker_1, # of connection points: 2
#     Edge 60, Type (0, 0), BuildingBlock: KIFKEQ_clean_linker_1, # of connection points: 2
#     Edge 61, Type (0, 0), BuildingBlock: KIFKEQ_clean_linker_1, # of connection points: 2
#     Edge 62, Type (0, 0), BuildingBlock: KIFKEQ_clean_linker_1, # of connection points: 2
#     Edge 63, Type (0, 0), BuildingBlock: KIFKEQ_clean_linker_1, # of connection points: 2
#     Edge 64, Type (0, 0), BuildingBlock: KIFKEQ_clean_linker_1, # of connection points: 2
#     Edge 65, Type (0, 0), BuildingBlock: KIFKEQ_clean_linker_1, # of connection points: 2
#     Edge 66, Type (0, 0), BuildingBlock: KIFKEQ_clean_linker_1, # of connection points: 2
#     Edge 67, Type (0, 0), BuildingBlock: KIFKEQ_clean_linker_1, # of connection points: 2
#     Edge 68, Type (0, 0), BuildingBlock: KIFKEQ_clean_linker_1, # of connection points: 2
#     Edge 69, Type (0, 0), BuildingBlock: KIFKEQ_clean_linker_1, # of connection points: 2
#     Edge 70, Type (0, 0), BuildingBlock: KIFKEQ_clean_linker_1, # of connection points: 2
#     Edge 71, Type (0, 0), BuildingBlock: KIFKEQ_clean_linker_1, # of connection points: 2
# Relax obj value: 0.404
# Max RMSD: 0.239
# Mean RMSD: 0.210
data_MOF--net-unv--node1-GALJAG_clean_sbu_0--edge1-KIFKEQ_clean_linker_1
_symmetry_space_group_name_H-M    P1
_symmetry_Int_Tables_number       1
_symmetry_cell_setting            triclinic
loop_
_symmetry_equiv_pos_as_xyz
'x, y, z'
_cell_length_a     49.471417
_cell_length_b     49.478331
_cell_length_c     49.444547
_cell_angle_alpha  90.00067
_cell_angle_beta   90.022206
_cell_angle_gamma 90.006702
loop_
_atom_site_label
_atom_site_type_symbol
_atom_site_fract_x
_atom_site_fract_y
_atom_site_fract_z
_atom_type_partial_charge
In0 In 0.03169 0.10142 0.36641 0.0
O1 O 0.05524 0.08358 0.33066 0.0
O2 O 0.01238 0.08514 0.32834 0.0
C3 C 0.07107 0.106 0.40392 0.0
C4 C 0.01554 0.15237 0.35641 0.0
C5 C 0.00261 0.06186 0.38985 0.0
O6 O 0.07585 0.09899 0.37982 0.0
O7 O 0.04672 0.11193 0.40859 0.0
O8 O 0.99249 0.08466 0.3844 0.0
O9 O 0.02723 0.05934 0.38379 0.0
C10 C 0.03418 0.07787 0.31738 0.0
O11 O 0.00201 0.13608 0.37059 0.0
O12 O 0.03757 0.14311 0.34749 0.0
In13 In 0.93687 0.3944 0.3547 0.0
O14 O 0.96955 0.3629 0.34957 0.0
O15 O 0.929 0.3512 0.34077 0.0
C16 C 0.9674 0.43517 0.37433 0.0
C17 C 0.92594 0.41548 0.30576 0.0
C18 C 0.90459 0.38544 0.39772 0.0
O19 O 0.97601 0.41121 0.37301 0.0
O20 O 0.94354 0.43835 0.36606 0.0
O21 O 0.89577 0.39601 0.3762 0.0
O22 O 0.92922 0.37904 0.39713 0.0
C23 C 0.95358 0.34434 0.34237 0.0
O24 O 0.90795 0.41329 0.32379 0.0
O25 O 0.9486 0.40567 0.31207 0.0
In26 In -0.00052 0.90215 0.1366 0.0
O27 O 0.97393 0.86471 0.14458 0.0
O28 O 0.01525 0.86357 0.15616 0.0
C29 C 0.95474 0.93017 0.12222 0.0
C30 C 0.01893 0.93626 0.17432 0.0
C31 C 0.03218 0.8961 0.09339 0.0
O32 O 0.97156 0.92124 0.10535 0.0
O33 O 0.95993 0.92422 0.14643 0.0
O34 O 0.03983 0.90759 0.11488 0.0
O35 O 0.00833 0.88708 0.09403 0.0
C36 C 0.99295 0.85131 0.15498 0.0
O37 O 0.02257 0.94006 0.14934 0.0
O38 O 0.0063 0.91488 0.18016 0.0
In39 In 0.9686 0.60239 0.14152 0.0
O40 O 0.9373 0.57081 0.15451 0.0
O41 O 0.96705 0.58293 0.183 0.0
C42 C 0.94032 0.61538 0.09694 0.0
C43 C 0.97685 0.65221 0.16181 0.0
C44 C 0.00975 0.57072 0.12446 0.0
O45 O 0.92972 0.60328 0.11682 0.0
O46 O 0.96495 0.6214 0.09994 0.0
O47 O 0.00988 0.58194 0.14733 0.0
O48 O 0.9893 0.57585 0.11023 0.0
C49 C 0.94724 0.56776 0.17781 0.0
O50 O 0.9951 0.63888 0.15004 0.0
O51 O 0.95451 0.64013 0.16395 0.0
In52 In 0.36628 0.02857 0.09897 0.0
O53 O 0.36653 -0.00154 0.13346 0.0
O54 O 0.34746 0.03638 0.14047 0.0
C55 C 0.39067 -0.00082 0.06017 0.0
C56 C 0.3181 0.03225 0.07386 0.0
C57 C 0.40555 0.06586 0.10518 0.0
O58 O 0.38474 0.98916 0.08291 0.0
O59 O 0.3846 0.02375 0.0574 0.0
O60 O 0.38268 0.07168 0.09536 0.0
O61 O 0.40792 0.04172 0.11303 0.0
C62 C 0.35388 0.01346 0.14975 0.0
O63 O 0.33194 0.05298 0.07948 0.0
O64 O 0.32797 0.01028 0.08216 0.0
In65 In 0.628 0.48804 0.09583 0.0
O66 O 0.65135 0.46377 0.06456 0.0
O67 O 0.67331 0.49134 0.08936 0.0
C68 C 0.58772 0.45152 0.09121 0.0
C69 C 0.64112 0.49328 0.14842 0.0
C70 C 0.60922 0.53091 0.06711 0.0
O71 O 0.61038 0.44837 0.07994 0.0
O72 O 0.58583 0.4725 0.10555 0.0
O73 O 0.59514 0.51858 0.08431 0.0
O74 O 0.63305 0.52232 0.0651 0.0
C75 C 0.67389 0.47435 0.07029 0.0
O76 O 0.63457 0.51311 0.13382 0.0
O77 O 0.64099 0.47075 0.13653 0.0
In78 In 0.36037 0.93491 0.39063 0.0
O79 O 0.35437 0.96887 0.36047 0.0
O80 O 0.34105 0.92945 0.34919 0.0
C81 C 0.37883 0.96799 0.43 0.0
C82 C 0.31918 0.91299 0.41912 0.0
C83 C 0.40352 0.90701 0.3725 0.0
O84 O 0.36082 0.97538 0.4135 0.0
O85 O 0.38779 0.94453 0.42606 0.0
O86 O 0.38304 0.89536 0.38243 0.0
O87 O 0.40189 0.93241 0.37142 0.0
C88 C 0.34397 0.95396 0.34251 0.0
O89 O 0.34303 0.90417 0.42045 0.0
O90 O 0.31579 0.93169 0.40214 0.0
In91 In 0.6442 0.529 0.3996 0.0
O92 O 0.67077 0.56064 0.42008 0.0
O93 O 0.6883 0.52262 0.41004 0.0
C94 C 0.59782 0.55619 0.39088 0.0
C95 C 0.65697 0.51708 0.34831 0.0
C96 C 0.6294 0.4965 0.44077 0.0
O97 O 0.61896 0.56779 0.39934 0.0
O98 O 0.60034 0.53121 0.38659 0.0
O99 O 0.63092 0.52183 0.44271 0.0
O100 O 0.63525 0.48716 0.41771 0.0
C101 C 0.69134 0.5455 0.42092 0.0
O102 O 0.64843 0.49945 0.36471 0.0
O103 O 0.65963 0.54054 0.35804 0.0
In104 In 0.0991 0.36651 0.01989 0.0
O105 O 0.06374 0.35089 0.04493 0.0
O106 O 0.08939 0.32213 0.02576 0.0
C107 C 0.1013 0.41023 0.05236 0.0
C108 C 0.15005 0.34927 0.01139 0.0
C109 C 0.06914 0.38186 0.97654 0.0
O110 O 0.09166 0.38794 0.06021 0.0
O111 O 0.11079 0.40997 0.02871 0.0
O112 O 0.08482 0.39763 0.98886 0.0
O113 O 0.06928 0.35802 0.98536 0.0
C114 C 0.06864 0.32631 0.04003 0.0
O115 O 0.13439 0.35591 0.99241 0.0
O116 O 0.14005 0.35136 0.03474 0.0
In117 In 0.08698 0.61936 0.5057 0.0
O118 O 0.0674 0.65445 0.48271 0.0
O119 O 0.0698 0.65671 0.52559 0.0
C120 C 0.06522 0.58591 0.46861 0.0
C121 C 0.14046 0.62958 0.50223 0.0
C122 C 0.06976 0.59332 0.55045 0.0
O123 O 0.05175 0.60381 0.48077 0.0
O124 O 0.09003 0.58529 0.47459 0.0
O125 O 0.07872 0.58099 0.53 0.0
O126 O 0.07106 0.61871 0.54887 0.0
C127 C 0.06195 0.66757 0.50392 0.0
O128 O 0.13 0.61786 0.52226 0.0
O129 O 0.12403 0.63594 0.48388 0.0
In130 In 0.90022 0.86711 0.5173 0.0
O131 O 0.85697 0.86428 0.53413 0.0
O132 O 0.86577 0.84391 0.49762 0.0
C133 C 0.92231 0.88901 0.56215 0.0
C134 C 0.93449 0.82544 0.51096 0.0
C135 C 0.91082 0.90619 0.48086 0.0
O136 O 0.91429 0.9031 0.54247 0.0
O137 O 0.91728 0.86409 0.56005 0.0
O138 O 0.92341 0.88404 0.48146 0.0
O139 O 0.89236 0.90846 0.49832 0.0
C140 C 0.84831 0.84981 0.51504 0.0
O141 O 0.92353 0.83696 0.49097 0.0
O142 O 0.92754 0.83441 0.53377 0.0
In143 In 0.39433 0.6343 0.49601 0.0
O144 O 0.35478 0.63847 0.47254 0.0
O145 O 0.35505 0.64957 0.51403 0.0
C146 C 0.42285 0.62055 0.45135 0.0
C147 C 0.42494 0.67532 0.51436 0.0
C148 C 0.3945 0.59184 0.53007 0.0
O149 O 0.41361 0.60352 0.46781 0.0
O150 O 0.41657 0.64466 0.45657 0.0
O151 O 0.4053 0.61422 0.53589 0.0
O152 O 0.38309 0.59107 0.50726 0.0
C153 C 0.3415 0.64686 0.49263 0.0
O154 O 0.43031 0.65085 0.51919 0.0
O155 O 0.40365 0.67916 0.50076 0.0
In156 In 0.48496 0.59929 0.86121 0.0
O157 O 0.46814 0.64197 0.85551 0.0
O158 O 0.50753 0.63371 0.84079 0.0
C159 C 0.43759 0.57529 0.87414 0.0
C160 C 0.49955 0.56176 0.82468 0.0
C161 C 0.51649 0.6 0.90544 0.0
O162 O 0.45562 0.5806 0.89132 0.0
O163 O 0.44267 0.58362 0.85061 0.0
O164 O 0.52405 0.58983 0.88325 0.0
O165 O 0.49303 0.61011 0.90522 0.0
C166 C 0.48914 0.65094 0.84418 0.0
O167 O 0.50879 0.56194 0.84846 0.0
O168 O 0.48387 0.58108 0.81909 0.0
In169 In 0.5211 0.90174 0.86556 0.0
O170 O 0.53883 0.85884 0.86388 0.0
O171 O 0.50283 0.86659 0.84221 0.0
C172 C 0.56515 0.92512 0.88766 0.0
C173 C 0.51392 0.93593 0.82379 0.0
C174 C 0.48415 0.90999 0.90471 0.0
O175 O 0.5441 0.9198 0.901 0.0
O176 O 0.56471 0.91701 0.86345 0.0
O177 O 0.484 0.92271 0.88259 0.0
O178 O 0.50269 0.8926 0.90692 0.0
C179 C 0.52036 0.84955 0.84902 0.0
O180 O 0.4943 0.92425 0.83519 0.0
O181 O 0.53686 0.92975 0.83293 0.0
In182 In 0.50553 0.39624 0.63754 0.0
O183 O 0.4818 0.35675 0.63947 0.0
O184 O 0.52418 0.35523 0.64623 0.0
C185 C 0.46563 0.42998 0.62182 0.0
C186 C 0.51279 0.41482 0.68798 0.0
C187 C 0.5407 0.40532 0.59678 0.0
O188 O 0.46767 0.40633 0.61244 0.0
O189 O 0.48333 0.43623 0.63896 0.0
O190 O 0.54625 0.41073 0.62109 0.0
O191 O 0.51774 0.39492 0.59322 0.0
C192 C 0.50227 0.34238 0.64442 0.0
O193 O 0.53093 0.41653 0.67005 0.0
O194 O 0.49158 0.40252 0.68072 0.0
In195 In 0.4983 0.08697 0.61736 0.0
O196 O 0.51945 0.12792 0.61763 0.0
O197 O 0.47958 0.12591 0.63327 0.0
C198 C 0.53789 0.06456 0.58718 0.0
C199 C 0.49932 0.06351 0.66628 0.0
C200 C 0.45739 0.06933 0.58595 0.0
O201 O 0.52094 0.08093 0.57748 0.0
O202 O 0.53571 0.06074 0.61226 0.0
O203 O 0.46659 0.05582 0.60553 0.0
O204 O 0.46798 0.09234 0.58302 0.0
C205 C 0.4999 0.14037 0.62819 0.0
O206 O 0.47738 0.06826 0.65404 0.0
O207 O 0.52035 0.07141 0.65418 0.0
In208 In 0.85169 0.4974 0.60197 0.0
O209 O 0.84899 0.52131 0.56275 0.0
O210 O 0.81347 0.518 0.58678 0.0
C211 C 0.90113 0.51844 0.61111 0.0
C212 C 0.83174 0.49484 0.65261 0.0
C213 C 0.85301 0.45135 0.57274 0.0
O214 O 0.88139 0.53258 0.60327 0.0
O215 O 0.89583 0.49377 0.61462 0.0
O216 O 0.8739 0.4628 0.58177 0.0
O217 O 0.83107 0.46235 0.57963 0.0
C218 C 0.82421 0.52677 0.56533 0.0
O219 O 0.83976 0.47415 0.64005 0.0
O220 O 0.83302 0.51649 0.63931 0.0
In221 In 0.15434 0.97152 0.59257 0.0
O222 O 0.16242 -0.00026 0.62824 0.0
O223 O 0.17087 0.95795 0.6333 0.0
C224 C 0.15321 0.0097 0.55371 0.0
C225 C 0.19045 0.93989 0.56687 0.0
C226 C 0.10223 0.95688 0.60062 0.0
O227 O 0.15858 0.01555 0.57804 0.0
O228 O 0.14863 0.98502 0.54939 0.0
O229 O 0.12161 0.94086 0.60475 0.0
O230 O 0.10914 0.97991 0.59238 0.0
C231 C 0.17009 0.98111 0.64391 0.0
O232 O 0.16545 0.93472 0.56729 0.0
O233 O 0.1974 0.96032 0.58057 0.0
In234 In 0.86365 0.50239 0.90365 0.0
O235 O 0.85528 0.52379 0.86358 0.0
O236 O 0.84502 0.48223 0.86687 0.0
C237 C 0.87665 0.55023 0.92671 0.0
C238 C 0.82596 0.4853 0.93892 0.0
C239 C 0.90657 0.46875 0.90268 0.0
O240 O 0.89405 0.53348 0.91867 0.0
O241 O 0.85255 0.54349 0.92191 0.0
O242 O 0.88482 0.46303 0.91468 0.0
O243 O 0.90649 0.49122 0.89065 0.0
C244 C 0.84557 0.50308 0.85228 0.0
O245 O 0.8203 0.49227 0.91502 0.0
O246 O 0.85072 0.4866 0.94491 0.0
In247 In 0.13596 0.0017 0.89705 0.0
O248 O 0.15395 0.02822 0.93019 0.0
O249 O 0.17965 -0.00061 0.91124 0.0
C250 C 0.09384 0.03618 0.89981 0.0
C251 C 0.15131 -0.00286 0.84461 0.0
C252 C 0.11866 0.95855 0.92622 0.0
O253 O 0.11751 0.04281 0.9067 0.0
O254 O 0.09169 0.01253 0.8905 0.0
O255 O 0.10328 0.97221 0.91124 0.0
O256 O 0.14305 0.9657 0.92541 0.0
C257 C 0.17709 0.01751 0.92907 0.0
O258 O 0.14278 0.97741 0.85824 0.0
O259 O 0.15215 0.01913 0.85737 0.0
In260 In 0.59853 0.84894 0.4715 0.0
O261 O 0.64139 0.8422 0.45564 0.0
O262 O 0.63353 0.83507 0.49737 0.0
C263 C 0.57899 0.8504 0.42039 0.0
C264 C 0.56709 0.81355 0.49845 0.0
C265 C 0.59271 0.89915 0.49197 0.0
O266 O 0.59118 0.87005 0.4311 0.0
O267 O 0.57887 0.82928 0.43459 0.0
O268 O 0.57325 0.88578 0.48234 0.0
O269 O 0.61512 0.88702 0.49177 0.0
C270 C 0.65067 0.83548 0.47851 0.0
O271 O 0.56451 0.83878 0.50104 0.0
O272 O 0.58596 0.8063 0.48293 0.0
In273 In 0.59903 0.15014 0.9758 0.0
O274 O 0.56395 0.15867 0.94699 0.0
O275 O 0.58772 0.19187 0.96039 0.0
C276 C 0.61172 0.10296 0.95167 0.0
C277 C 0.64879 0.17031 0.98465 0.0
C278 C 0.56645 0.13985 0.01868 0.0
O279 O 0.59897 0.12147 0.93951 0.0
O280 O 0.61829 0.10851 0.97567 0.0
O281 O 0.57693 0.12169 0.00431 0.0
O282 O 0.57284 0.16357 0.01195 0.0
C283 C 0.56779 0.18389 0.94661 0.0
O284 O 0.63328 0.16342 0.0037 0.0
O285 O 0.63889 0.16768 0.96131 0.0
In286 In 0.395 0.35573 0.95955 0.0
O287 O 0.42952 0.34309 0.93169 0.0
O288 O 0.40388 0.31236 0.94731 0.0
C289 C 0.38103 0.39965 0.93033 0.0
C290 C 0.34655 0.33669 0.97502 0.0
C291 C 0.42922 0.37083 -0.0004 0.0
O292 O 0.39547 0.38094 0.92065 0.0
O293 O 0.37322 0.39573 0.95425 0.0
O294 O 0.41742 0.38738 0.98433 0.0
O295 O 0.4234 0.34644 0.99518 0.0
C296 C 0.42442 0.31814 0.93333 0.0
O297 O 0.36351 0.3461 0.99161 0.0
O298 O 0.35435 0.33624 0.95072 0.0
In299 In 0.89655 0.14213 0.02241 0.0
O300 O 0.86121 0.14868 0.99369 0.0
O301 O 0.85792 0.16402 0.0338 0.0
C302 C 0.93535 0.12105 0.99057 0.0
C303 C 0.92409 0.18727 0.03434 0.0
C304 C 0.8855 0.09844 0.05291 0.0
O305 O 0.9128 0.12845 0.98105 0.0
O306 O 0.93778 0.12384 0.01579 0.0
O307 O 0.89649 0.11938 0.06257 0.0
O308 O 0.8795 0.09996 0.02816 0.0
C309 C 0.84699 0.16104 0.01093 0.0
O310 O 0.91747 0.17042 0.05239 0.0
O311 O 0.91575 0.18178 0.01085 0.0
H312 H 0.14525 0.06441 0.55848 0.0
H313 H 0.15402 0.00033 0.49987 0.0
H314 H 0.13264 0.09572 0.52211 0.0
H315 H 0.14137 0.03114 0.4639 0.0
H316 H 0.12314 0.08799 0.40001 0.0
H317 H 0.15114 0.07113 0.43699 0.0
H318 H 0.0912 0.09793 0.49457 0.0
H319 H 0.06358 0.11526 0.45774 0.0
C320 C 0.1451 0.05721 0.53779 0.0
C321 C 0.15028 0.02992 0.53198 0.0
C322 C 0.13779 0.07506 0.51701 0.0
C323 C 0.13591 0.06592 0.49011 0.0
C324 C 0.14295 0.03902 0.48427 0.0
C325 C 0.14995 0.02124 0.50496 0.0
C326 C 0.11637 0.09106 0.42061 0.0
C327 C 0.09094 0.10246 0.42596 0.0
C328 C 0.13235 0.08128 0.4418 0.0
C329 C 0.12314 0.08269 0.46868 0.0
C330 C 0.09896 0.09658 0.47414 0.0
C331 C 0.08303 0.10639 0.45297 0.0
H332 H 0.85916 0.41384 0.41077 0.0
H333 H 0.91514 0.35463 0.44198 0.0
H334 H 0.84106 0.42058 0.45607 0.0
H335 H 0.89636 0.36048 0.48716 0.0
H336 H 0.81282 0.43314 0.5393 0.0
H337 H 0.819 0.40741 0.49751 0.0
H338 H 0.90376 0.39771 0.5166 0.0
H339 H 0.89738 0.42265 0.55823 0.0
C340 C 0.86687 0.40152 0.42716 0.0
C341 C 0.88891 0.38417 0.42304 0.0
C342 C 0.85641 0.40526 0.45317 0.0
C343 C 0.86765 0.39146 0.47541 0.0
C344 C 0.88771 0.37192 0.47061 0.0
C345 C 0.8984 0.36849 0.44472 0.0
C346 C 0.83253 0.42465 0.53493 0.0
C347 C 0.85473 0.4302 0.55178 0.0
C348 C 0.83612 0.41011 0.51091 0.0
C349 C 0.86194 0.40083 0.50343 0.0
C350 C 0.88351 0.40429 0.52167 0.0
C351 C 0.87993 0.4188 0.54556 0.0
H352 H 0.01906 0.8742 0.04444 0.0
H353 H 0.08193 0.91854 0.08577 0.0
H354 H 0.04251 0.88085 0.00152 0.0
H355 H 0.10503 0.92572 0.04293 0.0
H356 H 0.14729 0.93109 0.96465 0.0
H357 H 0.12894 0.90778 0.00411 0.0
H358 H 0.04801 0.92071 0.9738 0.0
H359 H 0.06636 0.94338 0.93425 0.0
C360 C 0.03812 0.88497 0.04442 0.0
C361 C 0.04852 0.89614 0.06839 0.0
C362 C 0.05149 0.88888 0.01982 0.0
C363 C 0.07549 0.90405 0.01872 0.0
C364 C 0.08674 0.91368 0.04302 0.0
C365 C 0.0734 0.90974 0.0676 0.0
C366 C 0.12563 0.92825 0.96608 0.0
C367 C 0.10823 0.93934 0.94655 0.0
C368 C 0.11511 0.91508 0.98878 0.0
C369 C 0.087 0.91274 0.99234 0.0
C370 C 0.06976 0.92195 0.97166 0.0
C371 C 0.08028 0.93509 0.949 0.0
H372 H 0.88996 0.59771 0.08327 0.0
H373 H 0.9595 0.63966 0.05126 0.0
H374 H 0.87189 0.59292 0.03782 0.0
H375 H 0.94109 0.63547 0.00567 0.0
H376 H 0.84243 0.58235 0.9559 0.0
H377 H 0.85468 0.60975 0.99513 0.0
H378 H 0.93921 0.59489 0.97877 0.0
H379 H 0.92699 0.56816 0.93951 0.0
C380 C 0.90095 0.60669 0.06659 0.0
C381 C 0.92641 0.6185 0.07072 0.0
C382 C 0.89049 0.60414 0.04048 0.0
C383 C 0.90527 0.61345 0.01801 0.0
C384 C 0.92947 0.62765 0.0225 0.0
C385 C 0.93998 0.63011 0.04862 0.0
C386 C 0.86364 0.58578 0.96017 0.0
C387 C 0.88377 0.57268 0.94502 0.0
C388 C 0.87064 0.60133 0.98274 0.0
C389 C 0.89788 0.60405 0.99043 0.0
C390 C 0.91803 0.59335 0.97345 0.0
C391 C 0.91103 0.57783 0.95097 0.0
H392 H 0.45551 0.05857 0.12713 0.0
H393 H 0.40931 0.1134 0.07732 0.0
H394 H 0.49708 0.08144 0.11381 0.0
H395 H 0.45092 0.13588 0.06347 0.0
H396 H 0.53063 0.17425 0.04327 0.0
H397 H 0.49267 0.16164 0.07254 0.0
H398 H 0.51874 0.07832 0.06985 0.0
H399 H 0.55642 0.09091 0.04109 0.0
C400 C 0.45417 0.07595 0.11387 0.0
C401 C 0.42923 0.08392 0.10289 0.0
C402 C 0.478 0.08896 0.10613 0.0
C403 C 0.47736 0.11008 0.08712 0.0
C404 C 0.45214 0.11973 0.0782 0.0
C405 C 0.42826 0.10678 0.08607 0.0
C406 C 0.52852 0.15338 0.04952 0.0
C407 C 0.54631 0.1335 0.03976 0.0
C408 C 0.50674 0.14615 0.06614 0.0
C409 C 0.50262 0.11898 0.07349 0.0
C410 C 0.52146 0.09948 0.06495 0.0
C411 C 0.54298 0.10665 0.04825 0.0
H412 H 0.53602 0.458 0.10899 0.0
H413 H 0.586 0.40665 0.05907 0.0
H414 H 0.49571 0.435 0.09228 0.0
H415 H 0.54562 0.38374 0.04226 0.0
H416 H 0.46695 0.33956 0.02522 0.0
H417 H 0.50465 0.35528 0.05332 0.0
H418 H 0.47564 0.43729 0.04599 0.0
H419 H 0.43824 0.42169 0.01804 0.0
C420 C 0.53844 0.44141 0.09488 0.0
C421 C 0.56412 0.4343 0.08508 0.0
C422 C 0.51535 0.42834 0.08525 0.0
C423 C 0.51752 0.4078 0.06576 0.0
C424 C 0.54334 0.39939 0.05741 0.0
C425 C 0.56645 0.41258 0.06694 0.0
C426 C 0.46842 0.36086 0.03007 0.0
C427 C 0.4498 0.37945 0.01938 0.0
C428 C 0.49002 0.36984 0.04601 0.0
C429 C 0.49307 0.39749 0.05183 0.0
C430 C 0.47365 0.41583 0.04215 0.0
C431 C 0.45233 0.40692 0.02599 0.0
H432 H 0.54712 0.81231 0.39604 0.0
H433 H 0.56662 0.89735 0.39458 0.0
H434 H 0.50515 0.8215 0.37187 0.0
H435 H 0.52446 0.90678 0.37179 0.0
H436 H 0.41958 0.85747 0.39032 0.0
H437 H 0.46528 0.83968 0.38979 0.0
H438 H 0.49067 0.90632 0.33914 0.0
H439 H 0.44504 0.9248 0.34106 0.0
C440 C 0.54287 0.83286 0.38977 0.0
C441 C 0.5598 0.85421 0.3978 0.0
C442 C 0.51864 0.83819 0.37619 0.0
C443 C 0.51081 0.86499 0.3707 0.0
C444 C 0.52955 0.88585 0.37563 0.0
C445 C 0.55388 0.88047 0.38888 0.0
C446 C 0.43478 0.86791 0.3785 0.0
C447 C 0.42896 0.89279 0.36625 0.0
C448 C 0.46108 0.85761 0.37798 0.0
C449 C 0.48201 0.87182 0.36485 0.0
C450 C 0.47533 0.89522 0.35011 0.0
C451 C 0.44914 0.90576 0.35107 0.0
H452 H 0.45523 0.65436 0.42192 0.0
H453 H 0.43751 0.57003 0.4358 0.0
H454 H 0.49635 0.64169 0.39763 0.0
H455 H 0.47857 0.5574 0.41221 0.0
H456 H 0.55174 0.53674 0.36796 0.0
H457 H 0.50624 0.5551 0.37249 0.0
H458 H 0.53857 0.62407 0.41532 0.0
H459 H 0.58408 0.60607 0.41002 0.0
C460 C 0.45972 0.63312 0.41911 0.0
C461 C 0.44341 0.61317 0.43106 0.0
C462 C 0.48337 0.62587 0.4054 0.0
C463 C 0.491 0.59857 0.40333 0.0
C464 C 0.4733 0.57862 0.4132 0.0
C465 C 0.44977 0.58585 0.42691 0.0
C466 C 0.54915 0.55615 0.37778 0.0
C467 C 0.57135 0.56978 0.38907 0.0
C468 C 0.52309 0.56662 0.38043 0.0
C469 C 0.51869 0.59082 0.39466 0.0
C470 C 0.54119 0.60549 0.40405 0.0
C471 C 0.56731 0.5951 0.4012 0.0
H472 H 0.1144 0.46109 0.03602 0.0
H473 H 0.07902 0.41683 0.10251 0.0
H474 H 0.09882 0.50342 0.05591 0.0
H475 H 0.06349 0.45928 0.1224 0.0
H476 H 0.04601 0.54321 0.15584 0.0
H477 H 0.07578 0.50625 0.14142 0.0
H478 H 0.04956 0.51763 0.05888 0.0
H479 H 0.0198 0.55409 0.07322 0.0
C480 C 0.10395 0.46045 0.05526 0.0
C481 C 0.09756 0.43564 0.06754 0.0
C482 C 0.09498 0.48468 0.06657 0.0
C483 C 0.07968 0.48455 0.09048 0.0
C484 C 0.07535 0.45995 0.10401 0.0
C485 C 0.08415 0.43565 0.09257 0.0
C486 C 0.04709 0.53809 0.13456 0.0
C487 C 0.03055 0.55133 0.11563 0.0
C488 C 0.064 0.51695 0.12637 0.0
C489 C 0.06498 0.50915 0.09906 0.0
C490 C 0.04948 0.52342 0.08001 0.0
C491 C 0.03231 0.54418 0.08823 0.0
H492 H 0.01518 0.43271 0.402 0.0
H493 H 0.95613 0.48873 0.37043 0.0
H494 H 0.04011 0.47031 0.42208 0.0
H495 H 0.98146 0.52633 0.3895 0.0
H496 H 0.01163 0.58039 0.45809 0.0
H497 H 0.98946 0.54441 0.43314 0.0
H498 H 0.06731 0.50971 0.41381 0.0
H499 H 0.08951 0.54545 0.43975 0.0
C500 C 0.00776 0.4531 0.39907 0.0
C501 C 0.9836 0.45781 0.38495 0.0
C502 C 0.02212 0.47467 0.41039 0.0
C503 C 0.01269 0.50136 0.40757 0.0
C504 C 0.989 0.50602 0.39256 0.0
C505 C 0.97454 0.48448 0.38153 0.0
C506 C 0.02405 0.56526 0.44827 0.0
C507 C 0.05229 0.56568 0.45091 0.0
C508 C 0.01134 0.54467 0.43382 0.0
C509 C 0.02658 0.52411 0.42145 0.0
C510 C 0.05495 0.52501 0.42342 0.0
C511 C 0.06768 0.54558 0.43807 0.0
H512 H 0.94493 0.90396 0.43786 0.0
H513 H 0.89647 0.9593 0.48488 0.0
H514 H 0.96449 0.94186 0.41328 0.0
H515 H 0.91674 -0.00261 0.46094 0.0
H516 H 0.94823 0.05987 0.40011 0.0
H517 H 0.92266 0.02186 0.41881 0.0
H518 H 0.99663 0.97583 0.42563 0.0
H519 H 0.0218 0.01327 0.40638 0.0
C520 C 0.93827 0.92424 0.44274 0.0
C521 C 0.9194 0.92874 0.46341 0.0
C522 C 0.94961 0.94597 0.42882 0.0
C523 C 0.94256 0.97268 0.43552 0.0
C524 C 0.92253 0.97708 0.4552 0.0
C525 C 0.91097 0.95527 0.46896 0.0
C526 C 0.95892 0.04156 0.40561 0.0
C527 C 0.98697 0.03947 0.40177 0.0
C528 C 0.94431 0.01985 0.41635 0.0
C529 C 0.95755 0.99571 0.42346 0.0
C530 C 0.98567 0.99386 0.41977 0.0
C531 C 0.00017 0.01543 0.40897 0.0
H532 H 0.3715 0.54208 0.52304 0.0
H533 H 0.42468 0.58708 0.5757 0.0
H534 H 0.38121 0.50087 0.54846 0.0
H535 H 0.43525 0.54607 0.60031 0.0
H536 H 0.4463 0.47351 0.64874 0.0
H537 H 0.42153 0.51158 0.62976 0.0
H538 H 0.41836 0.47073 0.55247 0.0
H539 H 0.44188 0.43207 0.57208 0.0
C540 C 0.38503 0.54319 0.54023 0.0
C541 C 0.39748 0.56772 0.54732 0.0
C542 C 0.39073 0.51957 0.55469 0.0
C543 C 0.40914 0.52001 0.57637 0.0
C544 C 0.42061 0.5449 0.58408 0.0
C545 C 0.41472 0.56848 0.56981 0.0
C546 C 0.43965 0.47246 0.62788 0.0
C547 C 0.44621 0.4501 0.61173 0.0
C548 C 0.42566 0.49434 0.61693 0.0
C549 C 0.41851 0.49457 0.5894 0.0
C550 C 0.42338 0.47126 0.57378 0.0
C551 C 0.43695 0.4491 0.58494 0.0
H552 H 0.63571 0.55973 0.02827 0.0
H553 H 0.55647 0.54585 0.06217 0.0
H554 H 0.61534 0.58442 0.99074 0.0
H555 H 0.53604 0.56973 0.02435 0.0
H556 H 0.5039 0.61851 0.95598 0.0
H557 H 0.5286 0.60999 -0.00207 0.0
H558 H 0.59023 0.56767 0.95269 0.0
H559 H 0.56599 0.57678 0.91096 0.0
C560 C 0.61398 0.56243 0.02797 0.0
C561 C 0.59763 0.55055 0.0479 0.0
C562 C 0.6023 0.57641 0.00639 0.0
C563 C 0.57404 0.57862 0.00426 0.0
C564 C 0.55788 0.56858 0.0254 0.0
C565 C 0.56957 0.55474 0.04705 0.0
C566 C 0.52299 0.60783 0.95502 0.0
C567 C 0.53291 0.59805 0.93027 0.0
C568 C 0.53708 0.60287 0.97904 0.0
C569 C 0.5613 0.588 0.97872 0.0
C570 C 0.57184 0.57951 0.95371 0.0
C571 C 0.55782 0.58452 0.92975 0.0
H572 H 0.40684 0.01826 0.01146 0.0
H573 H 0.40242 0.94499 0.05879 0.0
H574 H 0.4266 0.99324 0.97423 0.0
H575 H 0.42182 0.91955 0.02094 0.0
H576 H 0.48908 0.89577 0.95785 0.0
H577 H 0.46446 0.915 0.9961 0.0
H578 H 0.41423 0.96022 0.9407 0.0
H579 H 0.43937 0.94169 0.90266 0.0
C580 C 0.40997 0.99671 0.01384 0.0
C581 C 0.40307 0.98356 0.03801 0.0
C582 C 0.42107 0.9823 0.99237 0.0
C583 C 0.42543 0.95432 0.99446 0.0
C584 C 0.41875 0.94111 0.01875 0.0
C585 C 0.40763 0.95563 0.04037 0.0
C586 C 0.47245 0.90944 0.95389 0.0
C587 C 0.46634 0.91755 0.92735 0.0
C588 C 0.4583 0.9204 0.97578 0.0
C589 C 0.43772 0.93951 0.97144 0.0
C590 C 0.43044 0.94607 0.94474 0.0
C591 C 0.4447 0.93533 0.92294 0.0
H592 H 0.5316 0.39716 0.54305 0.0
H593 H 0.58954 0.43087 0.59907 0.0
H594 H 0.55721 0.41569 0.50526 0.0
H595 H 0.61546 0.44904 0.56118 0.0
H596 H 0.62231 0.51258 0.49265 0.0
H597 H 0.60504 0.48631 0.53034 0.0
H598 H 0.59986 0.41581 0.47902 0.0
H599 H 0.61705 0.44244 0.44089 0.0
C600 C 0.55012 0.40806 0.54725 0.0
C601 C 0.5584 0.4129 0.57401 0.0
C602 C 0.56489 0.41852 0.52558 0.0
C603 C 0.5882 0.43405 0.53026 0.0
C604 C 0.59733 0.4375 0.55699 0.0
C605 C 0.58257 0.42701 0.57866 0.0
C606 C 0.61773 0.49141 0.48942 0.0
C607 C 0.62083 0.47959 0.46379 0.0
C608 C 0.60806 0.47628 0.51111 0.0
C609 C 0.60117 0.44895 0.5077 0.0
C610 C 0.60488 0.43688 0.4822 0.0
C611 C 0.61477 0.45206 0.46043 0.0
H612 H 0.43321 0.01995 0.58759 0.0
H613 H 0.44102 0.09146 0.53806 0.0
H614 H 0.41063 0.99673 0.55044 0.0
H615 H 0.41879 0.06802 0.50069 0.0
H616 H 0.36277 0.01928 0.4437 0.0
H617 H 0.37702 0.04555 0.48328 0.0
H618 H 0.42952 0.98012 0.50756 0.0
H619 H 0.41523 0.95401 0.46851 0.0
C620 C 0.42965 0.03087 0.56894 0.0
C621 C 0.43912 0.0574 0.56561 0.0
C622 C 0.4169 0.01751 0.5476 0.0
C623 C 0.41341 0.03041 0.52251 0.0
C624 C 0.42116 0.05759 0.5198 0.0
C625 C 0.43392 0.07098 0.54119 0.0
C626 C 0.37738 0.01062 0.45753 0.0
C627 C 0.3879 0.98462 0.45305 0.0
C628 C 0.38551 0.02562 0.48014 0.0
C629 C 0.40411 0.01474 0.49869 0.0
C630 C 0.41471 0.98883 0.49398 0.0
C631 C 0.40672 0.97397 0.47143 0.0
H632 H 0.04499 0.61622 0.59408 0.0
H633 H 0.05668 0.5399 0.55331 0.0
H634 H 0.00722 0.597 0.61925 0.0
H635 H 0.01868 0.5209 0.57793 0.0
H636 H 0.94759 0.49079 0.62239 0.0
H637 H 0.99388 0.50757 0.61835 0.0
H638 H 0.9631 0.58723 0.5999 0.0
H639 H 0.91713 0.5706 0.60437 0.0
C640 C 0.04005 0.5951 0.59112 0.0
C641 C 0.05336 0.57971 0.57131 0.0
C642 C 0.01831 0.58414 0.60542 0.0
C643 C 0.00952 0.55766 0.60009 0.0
C644 C 0.02489 0.54137 0.58257 0.0
C645 C 0.04667 0.5523 0.56834 0.0
C646 C 0.95079 0.51203 0.61809 0.0
C647 C 0.92879 0.52934 0.61327 0.0
C648 C 0.97728 0.5216 0.61573 0.0
C649 C 0.9822 0.54866 0.60861 0.0
C650 C 0.96011 0.56633 0.60574 0.0
C651 C 0.93369 0.55677 0.60804 0.0
H652 H 0.96161 0.86047 0.58743 0.0
H653 H 0.9296 0.94111 0.57874 0.0
H654 H 0.00362 0.87869 0.60448 0.0
H655 H 0.971 0.95962 0.59803 0.0
H656 H 0.05878 0.98162 0.57841 0.0
H657 H 0.0123 0.96661 0.57868 0.0
H658 H 0.03407 0.90041 0.6317 0.0
H659 H 0.08128 0.91471 0.62965 0.0
C660 C 0.96309 0.8821 0.59048 0.0
C661 C 0.9426 0.89944 0.58128 0.0
C662 C 0.98732 0.89268 0.60036 0.0
C663 C 0.99128 0.92083 0.60186 0.0
C664 C 0.96921 0.93791 0.59608 0.0
C665 C 0.94528 0.92733 0.58543 0.0
C666 C 0.05357 0.964 0.59031 0.0
C667 C 0.07364 0.94908 0.60364 0.0
C668 C 0.02672 0.95549 0.59082 0.0
C669 C 0.01909 0.93211 0.60519 0.0
C670 C 0.03911 0.91812 0.6199 0.0
C671 C 0.06617 0.92634 0.61884 0.0
H672 H 0.02977 0.35265 0.95111 0.0
H673 H 0.06329 0.43303 0.95721 0.0
H674 H 0.99162 0.37053 0.92537 0.0
H675 H 0.02501 0.45097 0.93215 0.0
H676 H 0.95656 0.47839 0.88126 0.0
H677 H -0.0016 0.45411 0.89118 0.0
H678 H 0.95362 0.39744 0.94033 0.0
H679 H 0.91192 0.42126 0.92992 0.0
C680 C 0.02928 0.37404 0.94645 0.0
C681 C 0.0493 0.39152 0.95646 0.0
C682 C 0.00735 0.3843 0.93187 0.0
C683 C 0.00505 0.41222 0.92705 0.0
C684 C 0.0262 0.42934 0.9353 0.0
C685 C 0.04811 0.41909 0.94983 0.0
C686 C 0.95564 0.4604 0.89371 0.0
C687 C 0.93105 0.45187 0.90508 0.0
C688 C 0.9796 0.44657 0.89948 0.0
C689 C 0.97941 0.42398 0.91674 0.0
C690 C 0.95451 0.41456 0.92672 0.0
C691 C 0.93059 0.42834 0.92092 0.0
H692 H 0.04072 0.02455 0.8902 0.0
H693 H 0.09318 0.08557 0.92418 0.0
H694 H 0.00142 0.048 0.90873 0.0
H695 H 0.05389 0.1091 0.94244 0.0
H696 H 0.98664 0.11122 0.00691 0.0
H697 H 0.02422 0.09433 0.98028 0.0
H698 H 0.97298 0.09074 0.90962 0.0
H699 H 0.93492 0.10782 0.93656 0.0
C700 C 0.0438 0.04332 0.90103 0.0
C701 C 0.07003 0.05305 0.90606 0.0
C702 C 0.02128 0.05679 0.91156 0.0
C703 C 0.02466 0.08014 0.92736 0.0
C704 C 0.05076 0.09088 0.9307 0.0
C705 C 0.07322 0.07748 0.92013 0.0
C706 C 0.98332 0.10693 0.98568 0.0
C707 C 0.95781 0.11078 0.97382 0.0
C708 C 0.00495 0.09749 0.97036 0.0
C709 C 0.00163 0.09151 0.9428 0.0
C710 C 0.97609 0.09524 0.93084 0.0
C711 C 0.95437 0.105 0.94621 0.0
H712 H 0.53772 0.06082 0.53215 0.0
H713 H 0.5757 0.02815 0.60373 0.0
H714 H 0.55638 0.02379 0.50539 0.0
H715 H 0.59412 0.99109 0.57706 0.0
H716 H 0.62978 0.92958 0.51946 0.0
H717 H 0.62307 0.97456 0.53901 0.0
H718 H 0.54151 0.97573 0.50777 0.0
H719 H 0.5482 0.93107 0.48828 0.0
C720 C 0.55073 0.04621 0.542 0.0
C721 C 0.55492 0.04708 0.57008 0.0
C722 C 0.56124 0.02493 0.52672 0.0
C723 C 0.57625 0.00431 0.53925 0.0
C724 C 0.58266 0.0067 0.56683 0.0
C725 C 0.57203 0.02789 0.58213 0.0
C726 C 0.61052 0.93962 0.51659 0.0
C727 C 0.5894 0.92678 0.50259 0.0
C728 C 0.60672 0.96532 0.52775 0.0
C729 C 0.58184 0.9787 0.52479 0.0
C730 C 0.56107 0.96614 0.51 0.0
C731 C 0.56478 0.94042 0.49909 0.0
H732 H 0.59795 0.08536 0.9012 0.0
H733 H 0.63476 0.05921 0.97599 0.0
H734 H 0.59742 0.03879 0.88518 0.0
H735 H 0.63443 0.01258 0.95985 0.0
H736 H 0.60082 0.95484 0.85789 0.0
H737 H 0.62227 0.99695 0.87225 0.0
H738 H 0.59453 0.98305 0.95391 0.0
H739 H 0.57326 0.94112 0.93961 0.0
C740 C 0.60654 0.06975 0.91392 0.0
C741 C 0.61597 0.07584 0.93999 0.0
C742 C 0.60647 0.04307 0.90467 0.0
C743 C 0.61573 0.02198 0.92136 0.0
C744 C 0.62693 0.02838 0.94667 0.0
C745 C 0.62712 0.05507 0.95587 0.0
C746 C 0.60025 0.96026 0.87911 0.0
C747 C 0.58506 0.94495 0.8976 0.0
C748 C 0.61233 0.98448 0.88726 0.0
C749 C 0.60967 0.99354 0.91408 0.0
C750 C 0.59704 0.97663 0.93312 0.0
C751 C 0.58477 0.9526 0.92492 0.0
H752 H 0.41939 0.55936 0.92344 0.0
H753 H 0.40798 0.54605 0.83789 0.0
H754 H 0.39487 0.51795 0.93323 0.0
H755 H 0.38323 0.50441 0.84769 0.0
H756 H 0.35209 0.44284 0.94846 0.0
H757 H 0.3544 0.4891 0.93154 0.0
H758 H 0.40402 0.46212 0.86493 0.0
H759 H 0.40144 0.41588 0.88165 0.0
C760 C 0.41073 0.54808 0.90677 0.0
C761 C 0.41593 0.55566 0.87993 0.0
C762 C 0.39656 0.52436 0.91235 0.0
C763 C 0.38748 0.50767 0.89118 0.0
C764 C 0.39031 0.51671 0.86438 0.0
C765 C 0.4043 0.54063 0.8588 0.0
C766 C 0.36285 0.44668 0.92977 0.0
C767 C 0.37706 0.42587 0.91664 0.0
C768 C 0.36418 0.47318 0.92013 0.0
C769 C 0.3797 0.47933 0.89716 0.0
C770 C 0.39173 0.45805 0.8826 0.0
C771 C 0.39043 0.43155 0.89227 0.0
H772 H 0.90472 0.08761 0.10346 0.0
H773 H 0.86265 0.0512 0.03612 0.0
H774 H 0.91178 0.04311 0.12316 0.0
H775 H 0.86917 0.00662 0.05615 0.0
H776 H 0.93836 0.9431 0.07143 0.0
H777 H 0.91154 0.98196 0.05816 0.0
H778 H 0.89618 0.00025 0.14224 0.0
H779 H 0.92353 0.96129 0.15556 0.0
C780 C 0.8962 0.07017 0.09332 0.0
C781 C 0.88368 0.07278 0.06799 0.0
C782 C 0.90008 0.04462 0.1047 0.0
C783 C 0.89142 0.02127 0.09097 0.0
C784 C 0.87652 0.0242 0.06694 0.0
C785 C 0.87273 0.04973 0.05552 0.0
C786 C 0.92867 0.95497 0.08707 0.0
C787 C 0.93339 0.94947 0.1145 0.0
C788 C 0.91308 0.97718 0.07948 0.0
C789 C 0.90196 0.99441 0.09918 0.0
C790 C 0.9048 0.98755 0.12663 0.0
C791 C 0.92034 0.96518 0.13423 0.0
H792 H 0.04094 0.19137 0.32667 0.0
H793 H 0.96878 0.17578 0.37334 0.0
H794 H 0.02551 0.23756 0.31833 0.0
H795 H 0.95365 0.22191 0.36546 0.0
H796 H 0.92283 0.29989 0.33107 0.0
H797 H 0.93763 0.25279 0.3304 0.0
H798 H 0.01978 0.27846 0.3454 0.0
H799 H 0.0051 0.32541 0.34553 0.0
C800 C 0.02179 0.19781 0.33509 0.0
C801 C 0.00613 0.18007 0.35077 0.0
C802 C 0.01299 0.22424 0.33038 0.0
C803 C 0.98835 0.23336 0.34121 0.0
C804 C 0.97251 0.21539 0.35648 0.0
C805 C 0.98131 0.18903 0.3612 0.0
C806 C 0.9441 0.29545 0.33378 0.0
C807 C 0.96278 0.31626 0.33857 0.0
C808 C 0.95254 0.26851 0.33357 0.0
C809 C 0.97983 0.26192 0.33811 0.0
C810 C -0.00133 0.28287 0.34161 0.0
C811 C 0.99023 0.30977 0.34184 0.0
H812 H 0.93989 0.68594 0.1851 0.0
H813 H 0.02191 0.68299 0.15528 0.0
H814 H 0.94373 0.73483 0.19071 0.0
H815 H 0.02553 0.73171 0.16013 0.0
H816 H 0.94841 0.81948 0.14951 0.0
H817 H 0.94497 0.77121 0.1582 0.0
H818 H 0.02679 0.77087 0.18895 0.0
H819 H 0.03044 0.81915 0.17948 0.0
C820 C 0.95886 0.69569 0.18015 0.0
C821 C 0.98049 0.68076 0.16945 0.0
C822 C 0.96101 0.72368 0.18321 0.0
C823 C 0.98481 0.73721 0.17556 0.0
C824 C 0.00699 0.72195 0.16648 0.0
C825 C 0.00487 0.69401 0.16351 0.0
C826 C 0.96552 0.80916 0.15846 0.0
C827 C 0.98981 0.82294 0.16347 0.0
C828 C 0.96349 0.78152 0.16368 0.0
C829 C 0.98568 0.76715 0.17413 0.0
C830 C 0.00949 0.7813 0.1805 0.0
C831 C 0.01155 0.80894 0.17516 0.0
H832 H 0.32918 0.04269 0.18972 0.0
H833 H 0.36472 0.96477 0.17275 0.0
H834 H 0.32111 0.02874 0.23651 0.0
H835 H 0.35713 0.95104 0.21934 0.0
H836 H 0.35133 0.00498 0.32311 0.0
H837 H 0.34933 0.01964 0.27613 0.0
H838 H 0.32236 0.94002 0.25239 0.0
H839 H 0.32489 0.92519 0.29942 0.0
C840 C 0.33513 0.02256 0.19595 0.0
C841 C 0.3477 0.00486 0.17765 0.0
C842 C 0.33059 0.01461 0.22272 0.0
C843 C 0.33844 0.98877 0.23163 0.0
C844 C 0.35043 0.97091 0.21306 0.0
C845 C 0.355 0.97887 0.18639 0.0
C846 C 0.34454 0.99073 0.30792 0.0
C847 C 0.33855 0.96386 0.31487 0.0
C848 C 0.34326 -0.00082 0.281 0.0
C849 C 0.33596 0.98091 0.26049 0.0
C850 C 0.3285 0.95444 0.26769 0.0
C851 C 0.32979 0.94599 0.29463 0.0
H852 H 0.63798 0.53884 0.17901 0.0
H853 H 0.65937 0.45428 0.18292 0.0
H854 H 0.64635 0.54327 0.22726 0.0
H855 H 0.66863 0.45886 0.23122 0.0
H856 H 0.67945 0.55014 0.31048 0.0
H857 H 0.68037 0.54337 0.26166 0.0
H858 H 0.64294 0.46507 0.27194 0.0
H859 H 0.64293 0.47151 0.32077 0.0
C860 C 0.64482 0.52128 0.19016 0.0
C861 C 0.64784 0.49619 0.1773 0.0
C862 C 0.64986 0.52385 0.21779 0.0
C863 C 0.65821 0.50141 0.23312 0.0
C864 C 0.6619 0.47644 0.22005 0.0
C865 C 0.65669 0.47385 0.1924 0.0
C866 C 0.67186 0.5313 0.30229 0.0
C867 C 0.6609 0.51145 0.31934 0.0
C868 C 0.67221 0.52749 0.27434 0.0
C869 C 0.66137 0.50385 0.26286 0.0
C870 C 0.65167 0.48342 0.28009 0.0
C871 C 0.65154 0.48715 0.30807 0.0
H872 H 0.32174 0.34753 0.02289 0.0
H873 H 0.30825 0.31143 0.9445 0.0
H874 H 0.27365 0.34482 0.03251 0.0
H875 H 0.26013 0.30761 0.95452 0.0
H876 H 0.17738 0.34971 0.96373 0.0
H877 H 0.22497 0.34018 0.95645 0.0
H878 H 0.23381 0.31929 0.04093 0.0
H879 H 0.18618 0.32989 0.04835 0.0
C880 C 0.30856 0.3383 0.00803 0.0
C881 C 0.3186 0.33007 0.9828 0.0
C882 C 0.28096 0.33659 0.01359 0.0
C883 C 0.26292 0.32635 0.99412 0.0
C884 C 0.27338 0.31621 0.96969 0.0
C885 C 0.30094 0.31822 0.96401 0.0
C886 C 0.18943 0.34282 0.98069 0.0
C887 C 0.17821 0.34084 0.00666 0.0
C888 C 0.2167 0.33709 0.97648 0.0
C889 C 0.23329 0.32899 -0.00187 0.0
C890 C 0.2217 0.32587 0.02391 0.0
C891 C 0.19443 0.33185 0.02816 0.0
H892 H 0.17913 0.61871 0.53981 0.0
H893 H 0.16748 0.65342 0.46047 0.0
H894 H 0.22752 0.62709 0.53641 0.0
H895 H 0.21598 0.6622 0.45721 0.0
H896 H 0.30692 0.63615 0.45095 0.0
H897 H 0.25762 0.63512 0.45281 0.0
H898 H 0.26017 0.66433 0.53513 0.0
H899 H 0.30939 0.6649 0.53344 0.0
C900 C 0.18691 0.6283 0.52173 0.0
C901 C 0.16961 0.63532 0.50037 0.0
C902 C 0.21458 0.63331 0.51985 0.0
C903 C 0.22551 0.64543 0.49658 0.0
C904 C 0.20814 0.65267 0.4753 0.0
C905 C 0.18041 0.64771 0.4772 0.0
C906 C 0.2969 0.64278 0.46927 0.0
C907 C 0.31194 0.65032 0.49214 0.0
C908 C 0.26869 0.64227 0.47031 0.0
C909 C 0.25509 0.64931 0.49425 0.0
C910 C 0.27015 0.6583 0.51659 0.0
C911 C 0.2983 0.65878 0.51556 0.0
H912 H 0.67445 0.82214 0.5263 0.0
H913 H 0.69235 0.83956 0.44257 0.0
H914 H 0.72266 0.82074 0.53643 0.0
H915 H 0.74059 0.83855 0.45278 0.0
H916 H 0.82628 0.81865 0.47545 0.0
H917 H 0.77848 0.80997 0.46718 0.0
H918 H 0.75793 0.85558 0.5388 0.0
H919 H 0.80581 0.8639 0.54732 0.0
C920 C 0.6887 0.82535 0.50999 0.0
C921 C 0.67969 0.83116 0.48367 0.0
C922 C 0.71628 0.82469 0.51584 0.0
C923 C 0.73538 0.82977 0.49547 0.0
C924 C 0.72636 0.83432 0.46887 0.0
C925 C 0.69875 0.83501 0.46302 0.0
C926 C 0.81156 0.82652 0.48963 0.0
C927 C 0.8197 0.84214 0.51193 0.0
C928 C 0.78421 0.82164 0.4848 0.0
C929 C 0.76446 0.83226 0.5022 0.0
C930 C 0.77269 0.84691 0.52516 0.0
C931 C 0.80008 0.85179 0.52999 0.0
H932 H 0.48013 0.82548 0.82025 0.0
H933 H 0.55466 0.80848 0.86255 0.0
H934 H 0.47284 0.77718 0.81354 0.0
H935 H 0.54725 0.76013 0.85599 0.0
H936 H 0.53489 0.67516 0.82547 0.0
H937 H 0.54359 0.72356 0.8214 0.0
H938 H 0.46142 0.74027 0.84578 0.0
H939 H 0.45267 0.6919 0.8497 0.0
C940 C 0.49514 0.81142 0.8278 0.0
C941 C 0.51787 0.82068 0.84212 0.0
C942 C 0.49088 0.7838 0.82405 0.0
C943 C 0.50936 0.76492 0.8344 0.0
C944 C 0.53277 0.77424 0.84758 0.0
C945 C 0.53696 0.80189 0.85146 0.0
C946 C 0.51856 0.68917 0.82952 0.0
C947 C 0.49315 0.67982 0.83809 0.0
C948 C 0.5236 0.71684 0.82732 0.0
C949 C 0.50326 0.73564 0.83345 0.0
C950 C 0.47744 0.72623 0.8407 0.0
C951 C 0.47245 0.69856 0.84306 0.0
H952 H 0.459 0.3097 0.63445 0.0
H953 H 0.54302 0.30814 0.65827 0.0
H954 H 0.45849 0.26044 0.63302 0.0
H955 H 0.54234 0.2589 0.65759 0.0
H956 H 0.54017 0.17585 0.61608 0.0
H957 H 0.54028 0.22458 0.62294 0.0
H958 H 0.46127 0.2196 0.65993 0.0
H959 H 0.4609 0.17086 0.65239 0.0
C960 C 0.47722 0.2988 0.6398 0.0
C961 C 0.5011 0.31269 0.64625 0.0
C962 C 0.47691 0.27058 0.63911 0.0
C963 C 0.50044 0.25577 0.645 0.0
C964 C 0.52403 0.26974 0.65247 0.0
C965 C 0.52437 0.29793 0.65301 0.0
C966 C 0.52289 0.18516 0.62578 0.0
C967 C 0.50048 0.16963 0.63358 0.0
C968 C 0.52302 0.21305 0.6299 0.0
C969 C 0.50077 0.22596 0.642 0.0
C970 C 0.47855 0.2103 0.65025 0.0
C971 C 0.4784 0.18239 0.64605 0.0
H972 H 0.8199 0.46234 0.82561 0.0
H973 H 0.85162 0.54296 0.81477 0.0
H974 H 0.80914 0.46003 0.77753 0.0
H975 H 0.84173 0.54039 0.76661 0.0
H976 H 0.83781 0.45312 0.68803 0.0
H977 H 0.83545 0.45549 0.73712 0.0
H978 H 0.80795 0.53827 0.73185 0.0
H979 H 0.8112 0.5361 0.68269 0.0
C980 C 0.82441 0.47963 0.81295 0.0
C981 C 0.83683 0.50274 0.82381 0.0
C982 C 0.81834 0.47827 0.78542 0.0
C983 C 0.82473 0.49993 0.76818 0.0
C984 C 0.83617 0.52347 0.77934 0.0
C985 C 0.84206 0.52489 0.80691 0.0
C986 C 0.83072 0.47163 0.69735 0.0
C987 C 0.82504 0.49453 0.68162 0.0
C988 C 0.82925 0.47298 0.72551 0.0
C989 C 0.82186 0.49721 0.73843 0.0
C990 C 0.81428 0.5195 0.72252 0.0
C991 C 0.81595 0.5182 0.69438 0.0
H992 H 0.15945 0.0265 0.67335 0.0
H993 H 0.18961 0.94492 0.68059 0.0
H994 H 0.1588 0.03065 0.72243 0.0
H995 H 0.18986 0.9493 0.72971 0.0
H996 H 0.17318 0.03615 0.81227 0.0
H997 H 0.18336 0.0331 0.76406 0.0
H998 H 0.15555 0.95026 0.76365 0.0
H999 H 0.14624 0.95313 0.81189 0.0
C1000 C 0.16659 0.00969 0.68544 0.0
C1001 C 0.17432 0.9853 0.67317 0.0
C1002 C 0.16631 0.01208 0.71361 0.0
C1003 C 0.17395 0.99017 0.73008 0.0
C1004 C 0.18327 0.96635 0.71766 0.0
C1005 C 0.18334 0.96391 0.68951 0.0
C1006 C 0.1695 0.01723 0.80187 0.0
C1007 C 0.1588 0.99491 0.81579 0.0
C1008 C 0.17522 0.01552 0.77424 0.0
C1009 C 0.17023 0.99146 0.75991 0.0
C1010 C 0.16008 0.96897 0.77407 0.0
C1011 C 0.15452 0.97065 0.80171 0.0
H1012 H 0.8138 0.19024 0.04384 0.0
H1013 H 0.81694 0.15092 0.9659 0.0
H1014 H 0.76592 0.19992 0.03704 0.0
H1015 H 0.76901 0.15981 0.95942 0.0
H1016 H 0.68501 0.18779 0.94702 0.0
H1017 H 0.73377 0.19248 0.95261 0.0
H1018 H 0.72581 0.17256 0.03737 0.0
H1019 H 0.67708 0.16874 0.0319 0.0
C1020 C 0.80429 0.18389 0.02515 0.0
C1021 C 0.81898 0.16959 0.0055 0.0
C1022 C 0.77686 0.18933 0.02131 0.0
C1023 C 0.76357 0.18046 -0.0022 0.0
C1024 C 0.77866 0.16726 0.97762 0.0
C1025 C 0.8061 0.16196 0.9814 0.0
C1026 C 0.69367 0.18499 0.96695 0.0
C1027 C 0.67735 0.1776 0.98898 0.0
C1028 C 0.7216 0.18751 0.97012 0.0
C1029 C 0.73374 0.18251 0.99533 0.0
C1030 C 0.71714 0.17679 0.01771 0.0
C1031 C 0.68919 0.17445 0.01457 0.0
H1032 H 0.04915 0.98223 0.16787 0.0
H1033 H 0.00402 0.93653 0.22712 0.0
H1034 H 0.05552 0.01863 0.20107 0.0
H1035 H 0.01003 0.97293 0.2598 0.0
H1036 H 0.99064 0.05791 0.29076 0.0
H1037 H 0.99026 0.02381 0.25528 0.0
H1038 H 0.07743 0.02449 0.25312 0.0
H1039 H 0.07801 0.05858 0.2893 0.0
C1040 C 0.04094 0.97981 0.18804 0.0
C1041 C 0.02597 0.95664 0.19491 0.0
C1042 C 0.04462 0.00057 0.20694 0.0
C1043 C 0.03299 -0.00145 0.23273 0.0
C1044 C 0.01894 0.97497 0.23988 0.0
C1045 C 0.01563 0.95413 0.22123 0.0
C1046 C 0.00978 0.05116 0.28251 0.0
C1047 C 0.03439 0.06075 0.29295 0.0
C1048 C 0.0095 0.03157 0.26231 0.0
C1049 C 0.0338 0.02141 0.25185 0.0
C1050 C 0.05846 0.03208 0.26101 0.0
C1051 C 0.05877 0.05152 0.28161 0.0
H1052 H 0.8835 0.4487 0.29261 0.0
H1053 H 0.96189 0.42189 0.2649 0.0
H1054 H 0.88448 0.48543 0.25921 0.0
H1055 H 0.96285 0.45858 0.23208 0.0
H1056 H 0.97286 0.55152 0.22342 0.0
H1057 H 0.9632 0.51176 0.25076 0.0
H1058 H 0.89322 0.49443 0.20167 0.0
H1059 H 0.90316 0.53428 0.17358 0.0
C1060 C 0.90048 0.4501 0.27886 0.0
C1061 C 0.9228 0.43268 0.28158 0.0
C1062 C 0.90103 0.4711 0.25985 0.0
C1063 C 0.92392 0.47488 0.24354 0.0
C1064 C 0.94511 0.45611 0.2447 0.0
C1065 C 0.9445 0.43511 0.26344 0.0
C1066 C 0.9552 0.53951 0.21858 0.0
C1067 C 0.93884 0.54591 0.19629 0.0
C1068 C 0.94979 0.5167 0.23414 0.0
C1069 C 0.9277 0.50003 0.22799 0.0
C1070 C 0.91041 0.50704 0.20662 0.0
C1071 C 0.9161 0.52976 0.19067 0.0
H1072 H 0.22492 0.99122 0.93549 0.0
H1073 H 0.17722 0.05668 0.96813 0.0
H1074 H 0.25766 0.99696 0.97188 0.0
H1075 H 0.21023 0.06246 0.00465 0.0
H1076 H 0.29537 0.07593 0.04824 0.0
H1077 H 0.26082 0.07479 0.01262 0.0
H1078 H 0.25366 0.9884 0.0225 0.0
H1079 H 0.28781 0.98944 0.05788 0.0
C1080 C 0.22162 0.00707 0.95023 0.0
C1081 C 0.19845 0.0234 0.94907 0.0
C1082 C 0.24025 0.01023 0.97116 0.0
C1083 C 0.23624 0.02991 0.99125 0.0
C1084 C 0.21376 0.04714 0.98941 0.0
C1085 C 0.19491 0.0438 0.96856 0.0
C1086 C 0.28601 0.05681 0.04311 0.0
C1087 C 0.2944 0.03276 0.0557 0.0
C1088 C 0.26633 0.05617 0.02274 0.0
C1089 C 0.255 0.03144 0.01453 0.0
C1090 C 0.26248 0.00766 0.02807 0.0
C1091 C 0.28188 0.00832 0.04848 0.0
H1092 H 0.72368 0.49686 0.0772 0.0
H1093 H 0.67913 0.44173 0.02614 0.0
H1094 H 0.76189 0.49471 0.04621 0.0
H1095 H 0.71758 0.43922 0.99531 0.0
H1096 H 0.77191 0.47998 0.93011 0.0
H1097 H 0.73672 0.47231 0.96367 0.0
H1098 H 0.79745 0.46629 0.02622 0.0
H1099 H 0.83273 0.47435 0.9926 0.0
C1100 C 0.72228 0.48384 0.05964 0.0
C1101 C 0.69835 0.46967 0.05392 0.0
C1102 C 0.74422 0.4825 0.04195 0.0
C1103 C 0.74264 0.46697 0.0182 0.0
C1104 C 0.71922 0.45167 0.01326 0.0
C1105 C 0.69728 0.45298 0.03098 0.0
C1106 C 0.77777 0.47669 0.95097 0.0
C1107 C 0.80501 0.47793 0.95879 0.0
C1108 C 0.75763 0.47211 0.97017 0.0
C1109 C 0.76433 0.46872 -0.0024 0.0
C1110 C 0.79168 0.46908 0.00527 0.0
C1111 C 0.81186 0.47357 0.98602 0.0
H1112 H 0.3264 0.88718 0.46729 0.0
H1113 H 0.26527 0.92418 0.41708 0.0
H1114 H 0.29451 0.88569 0.50504 0.0
H1115 H 0.23335 0.92232 0.45468 0.0
H1116 H 0.17773 0.9068 0.52466 0.0
H1117 H 0.20796 0.89176 0.48855 0.0
H1118 H 0.27572 0.92717 0.53066 0.0
H1119 H 0.24551 0.94254 0.56656 0.0
C1120 C 0.30591 0.89417 0.46404 0.0
C1121 C 0.29835 0.906 0.43932 0.0
C1122 C 0.28774 0.89345 0.4857 0.0
C1123 C 0.26157 0.90406 0.48281 0.0
C1124 C 0.25335 0.91382 0.45741 0.0
C1125 C 0.27163 0.91496 0.43591 0.0
C1126 C 0.19918 0.91076 0.52655 0.0
C1127 C 0.20928 0.92603 0.54831 0.0
C1128 C 0.21642 0.90224 0.50582 0.0
C1129 C 0.24411 0.90841 0.50677 0.0
C1130 C 0.25448 0.92193 0.52952 0.0
C1131 C 0.23719 0.93083 0.55002 0.0
H1132 H 0.84057 0.53806 0.51389 0.0
H1133 H 0.77173 0.54328 0.56736 0.0
H1134 H 0.81192 0.5509 0.47572 0.0
H1135 H 0.74316 0.55603 0.52929 0.0
H1136 H 0.69709 0.5856 0.4584 0.0
H1137 H 0.73299 0.58932 0.49224 0.0
H1138 H 0.77541 0.52314 0.45425 0.0
H1139 H 0.73968 0.51944 0.42058 0.0
C1140 C 0.81948 0.54258 0.51759 0.0
C1141 C 0.80826 0.53936 0.5435 0.0
C1142 C 0.80309 0.54985 0.49575 0.0
C1143 C 0.7753 0.55429 0.49951 0.0
C1144 C 0.76456 0.553 0.5258 0.0
C1145 C 0.78087 0.5455 0.54757 0.0
C1146 C 0.7145 0.57241 0.45684 0.0
C1147 C 0.7155 0.55201 0.4371 0.0
C1148 C 0.73494 0.57445 0.47627 0.0
C1149 C 0.75683 0.55636 0.47602 0.0
C1150 C 0.7589 0.5375 0.45486 0.0
C1151 C 0.73836 0.53528 0.43566 0.0
H1152 H 0.07078 0.274 0.02356 0.0
H1153 H 0.0227 0.3297 0.0707 0.0
H1154 H 0.03462 0.2406 0.02625 0.0
H1155 H 0.98661 0.29578 0.07369 0.0
H1156 H 0.94405 0.20535 0.08292 0.0
H1157 H 0.98015 0.23895 0.08958 0.0
H1158 H 0.98357 0.2521 0.00341 0.0
H1159 H 0.94748 0.21934 0.99667 0.0
C1160 C 0.05281 0.27886 0.03511 0.0
C1161 C 0.04939 0.30455 0.04665 0.0
C1162 C 0.03217 0.25976 0.03658 0.0
C1163 C 0.00795 0.26588 0.04997 0.0
C1164 C 0.00523 0.29073 0.06333 0.0
C1165 C 0.02581 0.31005 0.06155 0.0
C1166 C 0.95224 0.21581 0.06551 0.0
C1167 C 0.94305 0.20971 0.03928 0.0
C1168 C 0.97282 0.23489 0.06934 0.0
C1169 C 0.98466 0.24763 0.04693 0.0
C1170 C 0.97483 0.24221 0.02091 0.0
C1171 C 0.9541 0.2236 0.01712 0.0
H1172 H 0.03834 0.69142 0.5471 0.0
H1173 H 0.04844 0.6995 0.46072 0.0
H1174 H 0.00852 0.73019 0.54745 0.0
H1175 H 0.01952 0.73958 0.46114 0.0
H1176 H 0.94153 0.79038 0.4688 0.0
H1177 H 0.97399 0.7532 0.46612 0.0
H1178 H 0.00688 0.7768 0.54373 0.0
H1179 H 0.97346 0.81256 0.54696 0.0
C1180 C 0.03457 0.70188 0.52821 0.0
C1181 C 0.04572 0.69251 0.50389 0.0
C1182 C 0.01756 0.72428 0.52841 0.0
C1183 C 0.01166 0.73824 0.50433 0.0
C1184 C 0.0233 0.72913 0.48 0.0
C1185 C 0.04004 0.70633 0.47976 0.0
C1186 C 0.95576 0.78745 0.4852 0.0
C1187 C 0.9548 0.80393 0.50826 0.0
C1188 C 0.97451 0.76634 0.48362 0.0
C1189 C 0.99294 0.76175 0.50485 0.0
C1190 C 0.99254 0.77914 0.52735 0.0
C1191 C 0.97347 0.79976 0.52917 0.0
H1192 H 0.51923 0.8244 0.52376 0.0
H1193 H 0.57083 0.75876 0.49825 0.0
H1194 H 0.48382 0.79195 0.5355 0.0
H1195 H 0.53556 0.7265 0.50968 0.0
H1196 H 0.47291 0.67124 0.54116 0.0
H1197 H 0.50771 0.70595 0.5453 0.0
H1198 H 0.45485 0.76348 0.50626 0.0
H1199 H 0.41994 0.72892 0.50248 0.0
C1200 C 0.5232 0.80302 0.5212 0.0
C1201 C 0.54765 0.79407 0.50987 0.0
C1202 C 0.50291 0.78449 0.52778 0.0
C1203 C 0.50684 0.75671 0.52335 0.0
C1204 C 0.53198 0.74773 0.51361 0.0
C1205 C 0.55215 0.76623 0.50689 0.0
C1206 C 0.46852 0.69147 0.534 0.0
C1207 C 0.44387 0.69732 0.52117 0.0
C1208 C 0.48847 0.71129 0.5363 0.0
C1209 C 0.48413 0.73733 0.52584 0.0
C1210 C 0.45874 0.74366 0.51471 0.0
C1211 C 0.43879 0.72382 0.51239 0.0
H1212 H 0.53827 0.5224 0.82791 0.0
H1213 H 0.47116 0.55003 0.77925 0.0
H1214 H 0.54357 0.48311 0.798 0.0
H1215 H 0.47618 0.51072 0.74993 0.0
H1216 H 0.4719 0.42376 0.72358 0.0
H1217 H 0.47059 0.45806 0.75899 0.0
H1218 H 0.55462 0.47649 0.74466 0.0
H1219 H 0.55597 0.44234 0.7088 0.0
C1220 C 0.52479 0.52013 0.81078 0.0
C1221 C 0.50436 0.53924 0.80579 0.0
C1222 C 0.52781 0.49771 0.79379 0.0
C1223 C 0.51004 0.49385 0.772 0.0
C1224 C 0.48987 0.51312 0.76688 0.0
C1225 C 0.48718 0.53571 0.78349 0.0
C1226 C 0.4903 0.43461 0.7284 0.0
C1227 C 0.51397 0.4306 0.71325 0.0
C1228 C 0.48947 0.45432 0.74854 0.0
C1229 C 0.5124 0.47005 0.75416 0.0
C1230 C 0.5367 0.46456 0.74061 0.0
C1231 C 0.53745 0.44506 0.72015 0.0
H1232 H 0.54954 0.97481 0.80935 0.0
H1233 H 0.47066 0.94283 0.7901 0.0
H1234 H 0.54482 0.00835 0.77382 0.0
H1235 H 0.46643 0.97542 0.75321 0.0
H1236 H 0.45796 0.0499 0.70045 0.0
H1237 H 0.46055 0.02096 0.74044 0.0
H1238 H 0.5464 0.01088 0.72709 0.0
H1239 H 0.54392 0.04075 0.68838 0.0
C1240 C 0.53127 0.97482 0.79724 0.0
C1241 C 0.51056 0.95612 0.80222 0.0
C1242 C 0.52859 0.99396 0.77676 0.0
C1243 C 0.50538 0.99447 0.76032 0.0
C1244 C 0.48444 0.97591 0.76564 0.0
C1245 C 0.48692 0.95707 0.78658 0.0
C1246 C 0.47738 0.04173 0.70641 0.0
C1247 C 0.50075 0.04764 0.69144 0.0
C1248 C 0.47886 0.02496 0.72915 0.0
C1249 C 0.50368 0.01348 0.73707 0.0
C1250 C 0.52703 0.01974 0.72208 0.0
C1251 C 0.52561 0.0368 0.69972 0.0
H1252 H 0.47208 0.32547 0.90638 0.0
H1253 H 0.41977 0.26363 0.93897 0.0
H1254 H 0.50759 0.29187 0.89968 0.0
H1255 H 0.45531 0.23033 0.93306 0.0
H1256 H 0.57105 0.23874 0.94559 0.0
H1257 H 0.53574 0.27033 0.93289 0.0
H1258 H 0.48578 0.20387 0.90595 0.0
H1259 H 0.52109 0.17208 0.91944 0.0
C1260 C 0.46796 0.3046 0.91154 0.0
C1261 C 0.44334 0.29724 0.92361 0.0
C1262 C 0.48834 0.28539 0.90786 0.0
C1263 C 0.48449 0.2585 0.91627 0.0
C1264 C 0.45898 0.25077 0.92617 0.0
C1265 C 0.43861 0.26994 0.92974 0.0
C1266 C 0.55277 0.23089 0.93644 0.0
C1267 C 0.54864 0.20293 0.93393 0.0
C1268 C 0.53255 0.24904 0.92891 0.0
C1269 C 0.50776 0.23963 0.91863 0.0
C1270 C 0.50446 0.21173 0.91422 0.0
C1271 C 0.52472 0.19354 0.92183 0.0
loop_
_geom_bond_atom_site_label_1
_geom_bond_atom_site_label_2
_geom_bond_distance
_geom_bond_site_symmetry_2
_ccdc_geom_bond_type
In0 O1 2.294 . S
In0 O2 2.326 1_455 S
In0 O6 2.266 . S
In0 O7 2.325 . S
In0 O8 2.266 1_455 S
In0 O9 2.326 1_455 S
In0 O11 2.294 1_455 S
In0 O12 2.326 . S
O1 In0 2.294 . S
O1 C10 1.240 1_455 S
O2 In0 2.326 1_655 S
O2 C10 1.252 . S
C3 O6 1.252 . S
C3 O7 1.260 . S
C4 O11 1.240 . S
C4 O12 1.252 1_655 S
C5 O8 1.252 . S
C5 O9 1.260 . S
O6 In0 2.266 . S
O6 C3 1.252 . S
O7 In0 2.325 . S
O7 C3 1.260 . S
O8 In0 2.266 1_655 S
O8 C5 1.252 . S
O9 In0 2.326 1_655 S
O9 C5 1.260 . S
C10 O1 1.240 1_655 S
C10 O2 1.252 . S
O11 In0 2.294 1_655 S
O11 C4 1.240 . S
O12 In0 2.326 . S
O12 C4 1.252 1_455 S
In13 O14 2.294 1_655 S
In13 O15 2.326 . S
In13 O19 2.266 1_655 S
In13 O20 2.326 1_655 S
In13 O21 2.266 . S
In13 O22 2.325 . S
In13 O24 2.294 . S
In13 O25 2.326 1_655 S
O14 In13 2.294 1_455 S
O14 C23 1.240 . S
O15 In13 2.326 . S
O15 C23 1.252 1_655 S
C16 O19 1.252 . S
C16 O20 1.260 . S
C17 O24 1.227 1_455 S
C17 O25 1.265 . S
C18 O21 1.252 . S
C18 O22 1.260 . S
O19 In13 2.266 1_455 S
O19 C16 1.252 . S
O20 In13 2.326 1_455 S
O20 C16 1.260 . S
O21 In13 2.266 . S
O21 C18 1.252 . S
O22 In13 2.325 . S
O22 C18 1.260 . S
C23 O14 1.240 . S
C23 O15 1.252 1_455 S
O24 In13 2.294 . S
O24 C17 1.227 1_655 S
O25 In13 2.326 1_455 S
O25 C17 1.265 . S
In26 O27 2.294 1_455 S
In26 O28 2.326 . S
In26 O32 2.266 1_455 S
In26 O33 2.326 1_455 S
In26 O34 2.266 . S
In26 O35 2.325 . S
In26 O37 2.294 . S
In26 O38 2.326 1_455 S
O27 In26 2.294 1_655 S
O27 C36 1.240 . S
O28 In26 2.326 . S
O28 C36 1.252 1_455 S
C29 O32 1.252 . S
C29 O33 1.260 . S
C30 O37 1.255 . S
C30 O38 1.237 1_455 S
C31 O34 1.252 . S
C31 O35 1.260 . S
O32 In26 2.266 1_655 S
O32 C29 1.252 . S
O33 In26 2.326 1_655 S
O33 C29 1.260 . S
O34 In26 2.266 . S
O34 C31 1.252 . S
O35 In26 2.325 . S
O35 C31 1.260 . S
C36 O27 1.240 . S
C36 O28 1.252 1_655 S
O37 In26 2.294 . S
O37 C30 1.255 . S
O38 In26 2.326 1_655 S
O38 C30 1.237 1_655 S
In39 O40 2.294 . S
In39 O41 2.326 1_655 S
In39 O45 2.266 . S
In39 O46 2.325 . S
In39 O47 2.266 1_655 S
In39 O48 2.326 1_655 S
In39 O50 2.294 1_655 S
In39 O51 2.326 . S
O40 In39 2.294 . S
O40 C49 1.240 . S
O41 In39 2.326 1_455 S
O41 C49 1.252 1_455 S
C42 O45 1.252 . S
C42 O46 1.260 . S
C43 O50 1.240 . S
C43 O51 1.252 1_455 S
C44 O47 1.252 . S
C44 O48 1.260 . S
O45 In39 2.266 . S
O45 C42 1.252 . S
O46 In39 2.325 . S
O46 C42 1.260 . S
O47 In39 2.266 1_455 S
O47 C44 1.252 . S
O48 In39 2.326 1_455 S
O48 C44 1.260 . S
C49 O40 1.240 . S
C49 O41 1.252 1_655 S
O50 In39 2.294 1_455 S
O50 C43 1.240 . S
O51 In39 2.326 . S
O51 C43 1.252 1_655 S
In52 O53 2.294 1_545 S
In52 O54 2.326 . S
In52 O58 2.266 1_545 S
In52 O59 2.326 1_545 S
In52 O60 2.266 . S
In52 O61 2.325 . S
In52 O63 2.294 . S
In52 O64 2.326 1_545 S
O53 In52 2.294 1_565 S
O53 C62 1.240 . S
O54 In52 2.326 . S
O54 C62 1.252 1_545 S
C55 O58 1.252 . S
C55 O59 1.260 . S
C56 O63 1.240 1_565 S
C56 O64 1.252 . S
C57 O60 1.252 . S
C57 O61 1.260 . S
O58 In52 2.266 1_565 S
O58 C55 1.252 . S
O59 In52 2.326 1_565 S
O59 C55 1.260 . S
O60 In52 2.266 . S
O60 C57 1.252 . S
O61 In52 2.325 . S
O61 C57 1.260 . S
C62 O53 1.240 . S
C62 O54 1.252 1_565 S
O63 In52 2.294 . S
O63 C56 1.240 1_545 S
O64 In52 2.326 1_565 S
O64 C56 1.252 . S
In65 O66 2.294 . S
In65 O67 2.326 . S
In65 O71 2.266 . S
In65 O72 2.326 . S
In65 O73 2.266 . S
In65 O74 2.326 . S
In65 O76 2.294 . S
In65 O77 2.326 . S
O66 In65 2.294 . S
O66 C75 1.240 . S
O67 In65 2.326 . S
O67 C75 1.252 . S
C68 O71 1.252 . S
C68 O72 1.260 . S
C69 O76 1.240 . S
C69 O77 1.252 . S
C70 O73 1.252 . S
C70 O74 1.260 . S
O71 In65 2.266 . S
O71 C68 1.252 . S
O72 In65 2.326 . S
O72 C68 1.260 . S
O73 In65 2.266 . S
O73 C70 1.252 . S
O74 In65 2.326 . S
O74 C70 1.260 . S
C75 O66 1.240 . S
C75 O67 1.252 . S
O76 In65 2.294 . S
O76 C69 1.240 . S
O77 In65 2.326 . S
O77 C69 1.252 . S
In78 O79 2.294 1_565 S
In78 O80 2.326 . S
In78 O84 2.266 1_565 S
In78 O85 2.326 1_565 S
In78 O86 2.266 . S
In78 O87 2.325 . S
In78 O89 2.294 . S
In78 O90 2.326 1_565 S
O79 In78 2.294 1_545 S
O79 C88 1.240 . S
O80 In78 2.326 . S
O80 C88 1.252 1_565 S
C81 O84 1.252 . S
C81 O85 1.260 . S
C82 O89 1.227 1_545 S
C82 O90 1.265 . S
C83 O86 1.252 . S
C83 O87 1.260 . S
O84 In78 2.266 1_545 S
O84 C81 1.252 . S
O85 In78 2.326 1_545 S
O85 C81 1.260 . S
O86 In78 2.266 . S
O86 C83 1.252 . S
O87 In78 2.325 . S
O87 C83 1.260 . S
C88 O79 1.240 . S
C88 O80 1.252 1_545 S
O89 In78 2.294 . S
O89 C82 1.227 1_565 S
O90 In78 2.326 1_545 S
O90 C82 1.265 . S
In91 O92 2.294 . S
In91 O93 2.326 . S
In91 O97 2.266 . S
In91 O98 2.326 . S
In91 O99 2.266 . S
In91 O100 2.326 . S
In91 O102 2.294 . S
In91 O103 2.326 . S
O92 In91 2.294 . S
O92 C101 1.240 . S
O93 In91 2.326 . S
O93 C101 1.252 . S
C94 O97 1.252 . S
C94 O98 1.260 . S
C95 O102 1.240 . S
C95 O103 1.252 . S
C96 O99 1.252 . S
C96 O100 1.260 . S
O97 In91 2.266 . S
O97 C94 1.252 . S
O98 In91 2.326 . S
O98 C94 1.260 . S
O99 In91 2.266 . S
O99 C96 1.252 . S
O100 In91 2.326 . S
O100 C96 1.260 . S
C101 O92 1.240 . S
C101 O93 1.252 . S
O102 In91 2.294 . S
O102 C95 1.240 . S
O103 In91 2.326 . S
O103 C95 1.252 . S
In104 O105 2.294 . S
In104 O106 2.326 1_554 S
In104 O110 2.266 . S
In104 O111 2.325 . S
In104 O112 2.266 1_554 S
In104 O113 2.326 1_554 S
In104 O115 2.294 1_554 S
In104 O116 2.326 . S
O105 In104 2.294 . S
O105 C114 1.240 1_554 S
O106 In104 2.326 1_556 S
O106 C114 1.252 . S
C107 O110 1.252 . S
C107 O111 1.260 . S
C108 O115 1.240 . S
C108 O116 1.252 1_556 S
C109 O112 1.252 . S
C109 O113 1.260 . S
O110 In104 2.266 . S
O110 C107 1.252 . S
O111 In104 2.325 . S
O111 C107 1.260 . S
O112 In104 2.266 1_556 S
O112 C109 1.252 . S
O113 In104 2.326 1_556 S
O113 C109 1.260 . S
C114 O105 1.240 1_556 S
C114 O106 1.252 . S
O115 In104 2.294 1_556 S
O115 C108 1.240 . S
O116 In104 2.326 . S
O116 C108 1.252 1_554 S
In117 O118 2.294 . S
In117 O119 2.326 . S
In117 O123 2.266 . S
In117 O124 2.326 . S
In117 O125 2.266 . S
In117 O126 2.326 . S
In117 O128 2.294 . S
In117 O129 2.326 . S
O118 In117 2.294 . S
O118 C127 1.240 . S
O119 In117 2.326 . S
O119 C127 1.252 . S
C120 O123 1.252 . S
C120 O124 1.260 . S
C121 O128 1.240 . S
C121 O129 1.252 . S
C122 O125 1.252 . S
C122 O126 1.260 . S
O123 In117 2.266 . S
O123 C120 1.252 . S
O124 In117 2.326 . S
O124 C120 1.260 . S
O125 In117 2.266 . S
O125 C122 1.252 . S
O126 In117 2.326 . S
O126 C122 1.260 . S
C127 O118 1.240 . S
C127 O119 1.252 . S
O128 In117 2.294 . S
O128 C121 1.240 . S
O129 In117 2.326 . S
O129 C121 1.252 . S
In130 O131 2.294 . S
In130 O132 2.326 . S
In130 O136 2.266 . S
In130 O137 2.326 . S
In130 O138 2.266 . S
In130 O139 2.326 . S
In130 O141 2.294 . S
In130 O142 2.326 . S
O131 In130 2.294 . S
O131 C140 1.240 . S
O132 In130 2.326 . S
O132 C140 1.252 . S
C133 O136 1.252 . S
C133 O137 1.260 . S
C134 O141 1.240 . S
C134 O142 1.252 . S
C135 O138 1.252 . S
C135 O139 1.260 . S
O136 In130 2.266 . S
O136 C133 1.252 . S
O137 In130 2.326 . S
O137 C133 1.260 . S
O138 In130 2.266 . S
O138 C135 1.252 . S
O139 In130 2.326 . S
O139 C135 1.260 . S
C140 O131 1.240 . S
C140 O132 1.252 . S
O141 In130 2.294 . S
O141 C134 1.240 . S
O142 In130 2.326 . S
O142 C134 1.252 . S
In143 O144 2.294 . S
In143 O145 2.326 . S
In143 O149 2.266 . S
In143 O150 2.326 . S
In143 O151 2.266 . S
In143 O152 2.326 . S
In143 O154 2.294 . S
In143 O155 2.326 . S
O144 In143 2.294 . S
O144 C153 1.240 . S
O145 In143 2.326 . S
O145 C153 1.252 . S
C146 O149 1.252 . S
C146 O150 1.260 . S
C147 O154 1.240 . S
C147 O155 1.252 . S
C148 O151 1.252 . S
C148 O152 1.260 . S
O149 In143 2.266 . S
O149 C146 1.252 . S
O150 In143 2.326 . S
O150 C146 1.260 . S
O151 In143 2.266 . S
O151 C148 1.252 . S
O152 In143 2.326 . S
O152 C148 1.260 . S
C153 O144 1.240 . S
C153 O145 1.252 . S
O154 In143 2.294 . S
O154 C147 1.240 . S
O155 In143 2.326 . S
O155 C147 1.252 . S
In156 O157 2.294 . S
In156 O158 2.326 . S
In156 O162 2.266 . S
In156 O163 2.326 . S
In156 O164 2.266 . S
In156 O165 2.326 . S
In156 O167 2.294 . S
In156 O168 2.326 . S
O157 In156 2.294 . S
O157 C166 1.240 . S
O158 In156 2.326 . S
O158 C166 1.252 . S
C159 O162 1.252 . S
C159 O163 1.260 . S
C160 O167 1.240 . S
C160 O168 1.252 . S
C161 O164 1.252 . S
C161 O165 1.260 . S
O162 In156 2.266 . S
O162 C159 1.252 . S
O163 In156 2.326 . S
O163 C159 1.260 . S
O164 In156 2.266 . S
O164 C161 1.252 . S
O165 In156 2.326 . S
O165 C161 1.260 . S
C166 O157 1.240 . S
C166 O158 1.252 . S
O167 In156 2.294 . S
O167 C160 1.240 . S
O168 In156 2.326 . S
O168 C160 1.252 . S
In169 O170 2.294 . S
In169 O171 2.326 . S
In169 O175 2.266 . S
In169 O176 2.326 . S
In169 O177 2.266 . S
In169 O178 2.326 . S
In169 O180 2.294 . S
In169 O181 2.326 . S
O170 In169 2.294 . S
O170 C179 1.240 . S
O171 In169 2.326 . S
O171 C179 1.252 . S
C172 O175 1.252 . S
C172 O176 1.260 . S
C173 O180 1.240 . S
C173 O181 1.252 . S
C174 O177 1.252 . S
C174 O178 1.260 . S
O175 In169 2.266 . S
O175 C172 1.252 . S
O176 In169 2.326 . S
O176 C172 1.260 . S
O177 In169 2.266 . S
O177 C174 1.252 . S
O178 In169 2.326 . S
O178 C174 1.260 . S
C179 O170 1.240 . S
C179 O171 1.252 . S
O180 In169 2.294 . S
O180 C173 1.240 . S
O181 In169 2.326 . S
O181 C173 1.252 . S
In182 O183 2.294 . S
In182 O184 2.326 . S
In182 O188 2.266 . S
In182 O189 2.326 . S
In182 O190 2.266 . S
In182 O191 2.326 . S
In182 O193 2.294 . S
In182 O194 2.326 . S
O183 In182 2.294 . S
O183 C192 1.240 . S
O184 In182 2.326 . S
O184 C192 1.252 . S
C185 O188 1.252 . S
C185 O189 1.260 . S
C186 O193 1.240 . S
C186 O194 1.252 . S
C187 O190 1.252 . S
C187 O191 1.260 . S
O188 In182 2.266 . S
O188 C185 1.252 . S
O189 In182 2.326 . S
O189 C185 1.260 . S
O190 In182 2.266 . S
O190 C187 1.252 . S
O191 In182 2.326 . S
O191 C187 1.260 . S
C192 O183 1.240 . S
C192 O184 1.252 . S
O193 In182 2.294 . S
O193 C186 1.240 . S
O194 In182 2.326 . S
O194 C186 1.252 . S
In195 O196 2.294 . S
In195 O197 2.326 . S
In195 O201 2.266 . S
In195 O202 2.326 . S
In195 O203 2.266 . S
In195 O204 2.326 . S
In195 O206 2.294 . S
In195 O207 2.326 . S
O196 In195 2.294 . S
O196 C205 1.240 . S
O197 In195 2.326 . S
O197 C205 1.252 . S
C198 O201 1.252 . S
C198 O202 1.260 . S
C199 O206 1.240 . S
C199 O207 1.252 . S
C200 O203 1.252 . S
C200 O204 1.260 . S
O201 In195 2.266 . S
O201 C198 1.252 . S
O202 In195 2.326 . S
O202 C198 1.260 . S
O203 In195 2.266 . S
O203 C200 1.252 . S
O204 In195 2.326 . S
O204 C200 1.260 . S
C205 O196 1.240 . S
C205 O197 1.252 . S
O206 In195 2.294 . S
O206 C199 1.240 . S
O207 In195 2.326 . S
O207 C199 1.252 . S
In208 O209 2.294 . S
In208 O210 2.326 . S
In208 O214 2.266 . S
In208 O215 2.326 . S
In208 O216 2.266 . S
In208 O217 2.326 . S
In208 O219 2.294 . S
In208 O220 2.326 . S
O209 In208 2.294 . S
O209 C218 1.240 . S
O210 In208 2.326 . S
O210 C218 1.252 . S
C211 O214 1.252 . S
C211 O215 1.260 . S
C212 O219 1.240 . S
C212 O220 1.252 . S
C213 O216 1.252 . S
C213 O217 1.260 . S
O214 In208 2.266 . S
O214 C211 1.252 . S
O215 In208 2.326 . S
O215 C211 1.260 . S
O216 In208 2.266 . S
O216 C213 1.252 . S
O217 In208 2.326 . S
O217 C213 1.260 . S
C218 O209 1.240 . S
C218 O210 1.252 . S
O219 In208 2.294 . S
O219 C212 1.240 . S
O220 In208 2.326 . S
O220 C212 1.252 . S
In221 O222 2.294 1_565 S
In221 O223 2.326 . S
In221 O227 2.266 1_565 S
In221 O228 2.326 1_565 S
In221 O229 2.266 . S
In221 O230 2.325 . S
In221 O232 2.294 . S
In221 O233 2.326 1_565 S
O222 In221 2.294 1_545 S
O222 C231 1.240 . S
O223 In221 2.326 . S
O223 C231 1.252 1_565 S
C224 O227 1.252 . S
C224 O228 1.260 . S
C225 O232 1.240 . S
C225 O233 1.252 1_565 S
C226 O229 1.252 . S
C226 O230 1.260 . S
O227 In221 2.266 1_545 S
O227 C224 1.252 . S
O228 In221 2.326 1_545 S
O228 C224 1.260 . S
O229 In221 2.266 . S
O229 C226 1.252 . S
O230 In221 2.325 . S
O230 C226 1.260 . S
C231 O222 1.240 . S
C231 O223 1.252 1_545 S
O232 In221 2.294 . S
O232 C225 1.240 . S
O233 In221 2.326 1_545 S
O233 C225 1.252 1_545 S
In234 O235 2.294 . S
In234 O236 2.326 . S
In234 O240 2.266 . S
In234 O241 2.326 . S
In234 O242 2.266 . S
In234 O243 2.326 . S
In234 O245 2.294 . S
In234 O246 2.326 . S
O235 In234 2.294 . S
O235 C244 1.240 . S
O236 In234 2.326 . S
O236 C244 1.252 . S
C237 O240 1.252 . S
C237 O241 1.260 . S
C238 O245 1.240 . S
C238 O246 1.252 . S
C239 O242 1.252 . S
C239 O243 1.260 . S
O240 In234 2.266 . S
O240 C237 1.252 . S
O241 In234 2.326 . S
O241 C237 1.260 . S
O242 In234 2.266 . S
O242 C239 1.252 . S
O243 In234 2.326 . S
O243 C239 1.260 . S
C244 O235 1.240 . S
C244 O236 1.252 . S
O245 In234 2.294 . S
O245 C238 1.240 . S
O246 In234 2.326 . S
O246 C238 1.252 . S
In247 O248 2.294 . S
In247 O249 2.326 1_545 S
In247 O253 2.266 . S
In247 O254 2.325 . S
In247 O255 2.266 1_545 S
In247 O256 2.326 1_545 S
In247 O258 2.294 1_545 S
In247 O259 2.326 . S
O248 In247 2.294 . S
O248 C257 1.255 . S
O249 In247 2.326 1_565 S
O249 C257 1.237 1_565 S
C250 O253 1.252 . S
C250 O254 1.260 . S
C251 O258 1.240 . S
C251 O259 1.252 1_565 S
C252 O255 1.252 . S
C252 O256 1.260 . S
O253 In247 2.266 . S
O253 C250 1.252 . S
O254 In247 2.325 . S
O254 C250 1.260 . S
O255 In247 2.266 1_565 S
O255 C252 1.252 . S
O256 In247 2.326 1_565 S
O256 C252 1.260 . S
C257 O248 1.255 . S
C257 O249 1.237 1_545 S
O258 In247 2.294 1_565 S
O258 C251 1.240 . S
O259 In247 2.326 . S
O259 C251 1.252 1_545 S
In260 O261 2.294 . S
In260 O262 2.326 . S
In260 O266 2.266 . S
In260 O267 2.326 . S
In260 O268 2.266 . S
In260 O269 2.326 . S
In260 O271 2.294 . S
In260 O272 2.326 . S
O261 In260 2.294 . S
O261 C270 1.240 . S
O262 In260 2.326 . S
O262 C270 1.252 . S
C263 O266 1.252 . S
C263 O267 1.260 . S
C264 O271 1.240 . S
C264 O272 1.252 . S
C265 O268 1.252 . S
C265 O269 1.260 . S
O266 In260 2.266 . S
O266 C263 1.252 . S
O267 In260 2.326 . S
O267 C263 1.260 . S
O268 In260 2.266 . S
O268 C265 1.252 . S
O269 In260 2.326 . S
O269 C265 1.260 . S
C270 O261 1.240 . S
C270 O262 1.252 . S
O271 In260 2.294 . S
O271 C264 1.240 . S
O272 In260 2.326 . S
O272 C264 1.252 . S
In273 O274 2.294 . S
In273 O275 2.326 1_556 S
In273 O279 2.266 . S
In273 O280 2.325 . S
In273 O281 2.266 1_556 S
In273 O282 2.326 1_556 S
In273 O284 2.294 1_556 S
In273 O285 2.326 . S
O274 In273 2.294 . S
O274 C283 1.240 . S
O275 In273 2.326 1_554 S
O275 C283 1.252 1_554 S
C276 O279 1.252 . S
C276 O280 1.260 . S
C277 O284 1.240 . S
C277 O285 1.252 1_554 S
C278 O281 1.252 . S
C278 O282 1.260 . S
O279 In273 2.266 . S
O279 C276 1.252 . S
O280 In273 2.325 . S
O280 C276 1.260 . S
O281 In273 2.266 1_554 S
O281 C278 1.252 . S
O282 In273 2.326 1_554 S
O282 C278 1.260 . S
C283 O274 1.240 . S
C283 O275 1.252 1_556 S
O284 In273 2.294 1_554 S
O284 C277 1.240 . S
O285 In273 2.326 . S
O285 C277 1.252 1_556 S
In286 O287 2.294 . S
In286 O288 2.326 1_556 S
In286 O292 2.266 . S
In286 O293 2.325 . S
In286 O294 2.266 1_556 S
In286 O295 2.326 1_556 S
In286 O297 2.294 1_556 S
In286 O298 2.326 . S
O287 In286 2.294 . S
O287 C296 1.227 1_556 S
O288 In286 2.326 1_554 S
O288 C296 1.265 . S
C289 O292 1.252 . S
C289 O293 1.260 . S
C290 O297 1.240 . S
C290 O298 1.252 1_554 S
C291 O294 1.252 . S
C291 O295 1.260 . S
O292 In286 2.266 . S
O292 C289 1.252 . S
O293 In286 2.325 . S
O293 C289 1.260 . S
O294 In286 2.266 1_554 S
O294 C291 1.252 . S
O295 In286 2.326 1_554 S
O295 C291 1.260 . S
C296 O287 1.227 1_554 S
C296 O288 1.265 . S
O297 In286 2.294 1_554 S
O297 C290 1.240 . S
O298 In286 2.326 . S
O298 C290 1.252 1_556 S
In299 O300 2.294 1_554 S
In299 O301 2.326 . S
In299 O305 2.266 1_554 S
In299 O306 2.326 1_554 S
In299 O307 2.266 . S
In299 O308 2.325 . S
In299 O310 2.294 . S
In299 O311 2.326 1_554 S
O300 In299 2.294 1_556 S
O300 C309 1.240 . S
O301 In299 2.326 . S
O301 C309 1.252 1_554 S
C302 O305 1.252 . S
C302 O306 1.260 . S
C303 O310 1.255 . S
C303 O311 1.237 1_554 S
C304 O307 1.252 . S
C304 O308 1.260 . S
O305 In299 2.266 1_556 S
O305 C302 1.252 . S
O306 In299 2.326 1_556 S
O306 C302 1.260 . S
O307 In299 2.266 . S
O307 C304 1.252 . S
O308 In299 2.325 . S
O308 C304 1.260 . S
C309 O300 1.240 . S
C309 O301 1.252 1_556 S
O310 In299 2.294 . S
O310 C303 1.255 . S
O311 In299 2.326 1_556 S
O311 C303 1.237 1_556 S
H312 C320 0.950 . S
H313 C325 0.950 1_565 S
H314 C322 0.950 . S
H315 C324 0.950 . S
H316 C326 0.950 . S
H317 C328 0.950 . S
H318 C330 0.950 . S
H319 C331 0.950 . S
C320 H312 0.950 . S
C320 C321 1.386 . S
C320 C322 1.391 . S
C321 C320 1.386 . S
C321 C325 1.393 . S
C322 H314 0.950 . S
C322 C320 1.391 . S
C322 C323 1.400 . S
C323 C322 1.400 . S
C323 C324 1.398 . S
C323 C329 1.491 . S
C324 H315 0.950 . S
C324 C323 1.398 . S
C324 C325 1.391 . S
C325 H313 0.950 1_545 S
C325 C321 1.393 . S
C325 C324 1.391 . S
C326 H316 0.950 . S
C326 C327 1.386 . S
C326 C328 1.391 . S
C327 C326 1.386 . S
C327 C331 1.393 . S
C328 H317 0.950 . S
C328 C326 1.391 . S
C328 C329 1.400 . S
C329 C323 1.491 . S
C329 C328 1.400 . S
C329 C330 1.398 . S
C330 H318 0.950 . S
C330 C329 1.398 . S
C330 C331 1.391 . S
C331 H319 0.950 . S
C331 C327 1.393 . S
C331 C330 1.391 . S
H332 C340 0.950 . S
H333 C345 0.950 . S
H334 C342 0.950 . S
H335 C344 0.950 . S
H336 C346 0.950 . S
H337 C348 0.950 . S
H338 C350 0.950 . S
H339 C351 0.950 . S
C340 H332 0.950 . S
C340 C341 1.386 . S
C340 C342 1.391 . S
C341 C340 1.386 . S
C341 C345 1.393 . S
C342 H334 0.950 . S
C342 C340 1.391 . S
C342 C343 1.400 . S
C343 C342 1.400 . S
C343 C344 1.398 . S
C343 C349 1.491 . S
C344 H335 0.950 . S
C344 C343 1.398 . S
C344 C345 1.391 . S
C345 H333 0.950 . S
C345 C341 1.393 . S
C345 C344 1.391 . S
C346 H336 0.950 . S
C346 C347 1.386 . S
C346 C348 1.391 . S
C347 C346 1.386 . S
C347 C351 1.393 . S
C348 H337 0.950 . S
C348 C346 1.391 . S
C348 C349 1.400 . S
C349 C343 1.491 . S
C349 C348 1.400 . S
C349 C350 1.398 . S
C350 H338 0.950 . S
C350 C349 1.398 . S
C350 C351 1.391 . S
C351 H339 0.950 . S
C351 C347 1.393 . S
C351 C350 1.391 . S
H352 C360 0.950 . S
H353 C365 0.950 . S
H354 C362 0.950 . S
H355 C364 0.950 . S
H356 C366 0.950 . S
H357 C368 0.950 . S
H358 C370 0.950 . S
H359 C371 0.950 . S
C360 H352 0.950 . S
C360 C361 1.386 . S
C360 C362 1.391 . S
C361 C360 1.386 . S
C361 C365 1.393 . S
C362 H354 0.950 . S
C362 C360 1.391 . S
C362 C363 1.400 . S
C363 C362 1.400 . S
C363 C364 1.398 . S
C363 C369 1.491 . S
C364 H355 0.950 . S
C364 C363 1.398 . S
C364 C365 1.391 . S
C365 H353 0.950 . S
C365 C361 1.393 . S
C365 C364 1.391 . S
C366 H356 0.950 . S
C366 C367 1.386 . S
C366 C368 1.391 1_556 S
C367 C366 1.386 . S
C367 C371 1.393 . S
C368 H357 0.950 . S
C368 C366 1.391 1_554 S
C368 C369 1.400 . S
C369 C363 1.491 . S
C369 C368 1.400 . S
C369 C370 1.398 1_554 S
C370 H358 0.950 . S
C370 C369 1.398 1_556 S
C370 C371 1.391 . S
C371 H359 0.950 . S
C371 C367 1.393 . S
C371 C370 1.391 . S
H372 C380 0.950 . S
H373 C385 0.950 . S
H374 C382 0.950 . S
H375 C384 0.950 . S
H376 C386 0.950 . S
H377 C388 0.950 . S
H378 C390 0.950 . S
H379 C391 0.950 . S
C380 H372 0.950 . S
C380 C381 1.386 . S
C380 C382 1.391 . S
C381 C380 1.386 . S
C381 C385 1.393 . S
C382 H374 0.950 . S
C382 C380 1.391 . S
C382 C383 1.400 . S
C383 C382 1.400 . S
C383 C384 1.398 . S
C383 C389 1.491 . S
C384 H375 0.950 . S
C384 C383 1.398 . S
C384 C385 1.391 . S
C385 H373 0.950 . S
C385 C381 1.393 . S
C385 C384 1.391 . S
C386 H376 0.950 . S
C386 C387 1.386 . S
C386 C388 1.391 . S
C387 C386 1.386 . S
C387 C391 1.393 . S
C388 H377 0.950 . S
C388 C386 1.391 . S
C388 C389 1.400 1_556 S
C389 C383 1.491 . S
C389 C388 1.400 1_554 S
C389 C390 1.398 . S
C390 H378 0.950 . S
C390 C389 1.398 . S
C390 C391 1.391 1_554 S
C391 H379 0.950 . S
C391 C387 1.393 . S
C391 C390 1.391 1_556 S
H392 C400 0.950 . S
H393 C405 0.950 . S
H394 C402 0.950 . S
H395 C404 0.950 . S
H396 C406 0.950 . S
H397 C408 0.950 . S
H398 C410 0.950 . S
H399 C411 0.950 . S
C400 H392 0.950 . S
C400 C401 1.386 . S
C400 C402 1.391 . S
C401 C400 1.386 . S
C401 C405 1.393 . S
C402 H394 0.950 . S
C402 C400 1.391 . S
C402 C403 1.400 . S
C403 C402 1.400 . S
C403 C404 1.398 . S
C403 C409 1.491 . S
C404 H395 0.950 . S
C404 C403 1.398 . S
C404 C405 1.391 . S
C405 H393 0.950 . S
C405 C401 1.393 . S
C405 C404 1.391 . S
C406 H396 0.950 . S
C406 C407 1.386 . S
C406 C408 1.391 . S
C407 C406 1.386 . S
C407 C411 1.393 . S
C408 H397 0.950 . S
C408 C406 1.391 . S
C408 C409 1.400 . S
C409 C403 1.491 . S
C409 C408 1.400 . S
C409 C410 1.398 . S
C410 H398 0.950 . S
C410 C409 1.398 . S
C410 C411 1.391 . S
C411 H399 0.950 . S
C411 C407 1.393 . S
C411 C410 1.391 . S
H412 C420 0.950 . S
H413 C425 0.950 . S
H414 C422 0.950 . S
H415 C424 0.950 . S
H416 C426 0.950 . S
H417 C428 0.950 . S
H418 C430 0.950 . S
H419 C431 0.950 . S
C420 H412 0.950 . S
C420 C421 1.386 . S
C420 C422 1.391 . S
C421 C420 1.386 . S
C421 C425 1.393 . S
C422 H414 0.950 . S
C422 C420 1.391 . S
C422 C423 1.400 . S
C423 C422 1.400 . S
C423 C424 1.398 . S
C423 C429 1.491 . S
C424 H415 0.950 . S
C424 C423 1.398 . S
C424 C425 1.391 . S
C425 H413 0.950 . S
C425 C421 1.393 . S
C425 C424 1.391 . S
C426 H416 0.950 . S
C426 C427 1.386 . S
C426 C428 1.391 . S
C427 C426 1.386 . S
C427 C431 1.393 . S
C428 H417 0.950 . S
C428 C426 1.391 . S
C428 C429 1.400 . S
C429 C423 1.491 . S
C429 C428 1.400 . S
C429 C430 1.398 . S
C430 H418 0.950 . S
C430 C429 1.398 . S
C430 C431 1.391 . S
C431 H419 0.950 . S
C431 C427 1.393 . S
C431 C430 1.391 . S
H432 C440 0.950 . S
H433 C445 0.950 . S
H434 C442 0.950 . S
H435 C444 0.950 . S
H436 C446 0.950 . S
H437 C448 0.950 . S
H438 C450 0.950 . S
H439 C451 0.950 . S
C440 H432 0.950 . S
C440 C441 1.386 . S
C440 C442 1.391 . S
C441 C440 1.386 . S
C441 C445 1.393 . S
C442 H434 0.950 . S
C442 C440 1.391 . S
C442 C443 1.400 . S
C443 C442 1.400 . S
C443 C444 1.398 . S
C443 C449 1.491 . S
C444 H435 0.950 . S
C444 C443 1.398 . S
C444 C445 1.391 . S
C445 H433 0.950 . S
C445 C441 1.393 . S
C445 C444 1.391 . S
C446 H436 0.950 . S
C446 C447 1.386 . S
C446 C448 1.391 . S
C447 C446 1.386 . S
C447 C451 1.393 . S
C448 H437 0.950 . S
C448 C446 1.391 . S
C448 C449 1.400 . S
C449 C443 1.491 . S
C449 C448 1.400 . S
C449 C450 1.398 . S
C450 H438 0.950 . S
C450 C449 1.398 . S
C450 C451 1.391 . S
C451 H439 0.950 . S
C451 C447 1.393 . S
C451 C450 1.391 . S
H452 C460 0.950 . S
H453 C465 0.950 . S
H454 C462 0.950 . S
H455 C464 0.950 . S
H456 C466 0.950 . S
H457 C468 0.950 . S
H458 C470 0.950 . S
H459 C471 0.950 . S
C460 H452 0.950 . S
C460 C461 1.386 . S
C460 C462 1.391 . S
C461 C460 1.386 . S
C461 C465 1.393 . S
C462 H454 0.950 . S
C462 C460 1.391 . S
C462 C463 1.400 . S
C463 C462 1.400 . S
C463 C464 1.398 . S
C463 C469 1.491 . S
C464 H455 0.950 . S
C464 C463 1.398 . S
C464 C465 1.391 . S
C465 H453 0.950 . S
C465 C461 1.393 . S
C465 C464 1.391 . S
C466 H456 0.950 . S
C466 C467 1.386 . S
C466 C468 1.391 . S
C467 C466 1.386 . S
C467 C471 1.393 . S
C468 H457 0.950 . S
C468 C466 1.391 . S
C468 C469 1.400 . S
C469 C463 1.491 . S
C469 C468 1.400 . S
C469 C470 1.398 . S
C470 H458 0.950 . S
C470 C469 1.398 . S
C470 C471 1.391 . S
C471 H459 0.950 . S
C471 C467 1.393 . S
C471 C470 1.391 . S
H472 C480 0.950 . S
H473 C485 0.950 . S
H474 C482 0.950 . S
H475 C484 0.950 . S
H476 C486 0.950 . S
H477 C488 0.950 . S
H478 C490 0.950 . S
H479 C491 0.950 . S
C480 H472 0.950 . S
C480 C481 1.386 . S
C480 C482 1.391 . S
C481 C480 1.386 . S
C481 C485 1.393 . S
C482 H474 0.950 . S
C482 C480 1.391 . S
C482 C483 1.400 . S
C483 C482 1.400 . S
C483 C484 1.398 . S
C483 C489 1.491 . S
C484 H475 0.950 . S
C484 C483 1.398 . S
C484 C485 1.391 . S
C485 H473 0.950 . S
C485 C481 1.393 . S
C485 C484 1.391 . S
C486 H476 0.950 . S
C486 C487 1.386 . S
C486 C488 1.391 . S
C487 C486 1.386 . S
C487 C491 1.393 . S
C488 H477 0.950 . S
C488 C486 1.391 . S
C488 C489 1.400 . S
C489 C483 1.491 . S
C489 C488 1.400 . S
C489 C490 1.398 . S
C490 H478 0.950 . S
C490 C489 1.398 . S
C490 C491 1.391 . S
C491 H479 0.950 . S
C491 C487 1.393 . S
C491 C490 1.391 . S
H492 C500 0.950 . S
H493 C505 0.950 . S
H494 C502 0.950 . S
H495 C504 0.950 . S
H496 C506 0.950 . S
H497 C508 0.950 . S
H498 C510 0.950 . S
H499 C511 0.950 . S
C500 H492 0.950 . S
C500 C501 1.386 . S
C500 C502 1.391 . S
C501 C500 1.386 . S
C501 C505 1.393 . S
C502 H494 0.950 . S
C502 C500 1.391 . S
C502 C503 1.400 . S
C503 C502 1.400 . S
C503 C504 1.398 . S
C503 C509 1.491 . S
C504 H495 0.950 . S
C504 C503 1.398 . S
C504 C505 1.391 . S
C505 H493 0.950 . S
C505 C501 1.393 . S
C505 C504 1.391 . S
C506 H496 0.950 . S
C506 C507 1.386 . S
C506 C508 1.391 . S
C507 C506 1.386 . S
C507 C511 1.393 . S
C508 H497 0.950 . S
C508 C506 1.391 . S
C508 C509 1.400 . S
C509 C503 1.491 . S
C509 C508 1.400 . S
C509 C510 1.398 . S
C510 H498 0.950 . S
C510 C509 1.398 . S
C510 C511 1.391 . S
C511 H499 0.950 . S
C511 C507 1.393 . S
C511 C510 1.391 . S
H512 C520 0.950 . S
H513 C525 0.950 . S
H514 C522 0.950 . S
H515 C524 0.950 . S
H516 C526 0.950 . S
H517 C528 0.950 . S
H518 C530 0.950 . S
H519 C531 0.989 . S
C520 H512 0.950 . S
C520 C521 1.386 . S
C520 C522 1.391 . S
C521 C520 1.386 . S
C521 C525 1.393 . S
C522 H514 0.950 . S
C522 C520 1.391 . S
C522 C523 1.400 . S
C523 C522 1.400 . S
C523 C524 1.398 . S
C523 C529 1.491 . S
C524 H515 0.950 . S
C524 C523 1.398 . S
C524 C525 1.391 . S
C525 H513 0.950 . S
C525 C521 1.393 . S
C525 C524 1.391 . S
C526 H516 0.950 . S
C526 C527 1.386 . S
C526 C528 1.391 . S
C527 C526 1.386 . S
C527 C531 1.393 . S
C528 H517 0.950 . S
C528 C526 1.391 . S
C528 C529 1.400 1_545 S
C529 C523 1.491 . S
C529 C528 1.400 1_565 S
C529 C530 1.398 . S
C530 H518 0.950 . S
C530 C529 1.398 . S
C530 C531 1.391 1_565 S
C531 H519 0.989 . S
C531 C527 1.393 . S
C531 C530 1.391 1_545 S
H532 C540 0.950 . S
H533 C545 0.950 . S
H534 C542 0.950 . S
H535 C544 0.950 . S
H536 C546 0.950 . S
H537 C548 0.950 . S
H538 C550 0.950 . S
H539 C551 0.950 . S
C540 H532 0.950 . S
C540 C541 1.386 . S
C540 C542 1.391 . S
C541 C540 1.386 . S
C541 C545 1.393 . S
C542 H534 0.950 . S
C542 C540 1.391 . S
C542 C543 1.400 . S
C543 C542 1.400 . S
C543 C544 1.398 . S
C543 C549 1.491 . S
C544 H535 0.950 . S
C544 C543 1.398 . S
C544 C545 1.391 . S
C545 H533 0.950 . S
C545 C541 1.393 . S
C545 C544 1.391 . S
C546 H536 0.950 . S
C546 C547 1.386 . S
C546 C548 1.391 . S
C547 C546 1.386 . S
C547 C551 1.393 . S
C548 H537 0.950 . S
C548 C546 1.391 . S
C548 C549 1.400 . S
C549 C543 1.491 . S
C549 C548 1.400 . S
C549 C550 1.398 . S
C550 H538 0.950 . S
C550 C549 1.398 . S
C550 C551 1.391 . S
C551 H539 0.950 . S
C551 C547 1.393 . S
C551 C550 1.391 . S
H552 C560 0.950 . S
H553 C565 0.950 . S
H554 C562 0.950 . S
H555 C564 0.950 . S
H556 C566 0.950 . S
H557 C568 0.950 . S
H558 C570 0.950 . S
H559 C571 0.950 . S
C560 H552 0.950 . S
C560 C561 1.386 . S
C560 C562 1.391 1_554 S
C561 C560 1.386 . S
C561 C565 1.393 . S
C562 H554 0.950 . S
C562 C560 1.391 1_556 S
C562 C563 1.400 . S
C563 C562 1.400 . S
C563 C564 1.398 1_556 S
C563 C569 1.491 . S
C564 H555 0.950 . S
C564 C563 1.398 1_554 S
C564 C565 1.391 . S
C565 H553 0.950 . S
C565 C561 1.393 . S
C565 C564 1.391 . S
C566 H556 0.950 . S
C566 C567 1.386 . S
C566 C568 1.391 . S
C567 C566 1.386 . S
C567 C571 1.393 . S
C568 H557 0.950 . S
C568 C566 1.391 . S
C568 C569 1.400 . S
C569 C563 1.491 . S
C569 C568 1.400 . S
C569 C570 1.398 . S
C570 H558 0.950 . S
C570 C569 1.398 . S
C570 C571 1.391 . S
C571 H559 0.950 . S
C571 C567 1.393 . S
C571 C570 1.391 . S
H572 C580 0.950 . S
H573 C585 0.950 . S
H574 C582 0.950 . S
H575 C584 0.950 . S
H576 C586 0.950 . S
H577 C588 0.950 . S
H578 C590 0.950 . S
H579 C591 0.950 . S
C580 H572 0.950 . S
C580 C581 1.386 . S
C580 C582 1.391 1_554 S
C581 C580 1.386 . S
C581 C585 1.393 . S
C582 H574 0.950 . S
C582 C580 1.391 1_556 S
C582 C583 1.400 . S
C583 C582 1.400 . S
C583 C584 1.398 . S
C583 C589 1.491 . S
C584 H575 0.950 . S
C584 C583 1.398 . S
C584 C585 1.391 1_556 S
C585 H573 0.950 . S
C585 C581 1.393 . S
C585 C584 1.391 1_554 S
C586 H576 0.950 . S
C586 C587 1.386 . S
C586 C588 1.391 . S
C587 C586 1.386 . S
C587 C591 1.393 . S
C588 H577 0.950 . S
C588 C586 1.391 . S
C588 C589 1.400 . S
C589 C583 1.491 . S
C589 C588 1.400 . S
C589 C590 1.398 . S
C590 H578 0.950 . S
C590 C589 1.398 . S
C590 C591 1.391 . S
C591 H579 0.950 . S
C591 C587 1.393 . S
C591 C590 1.391 . S
H592 C600 0.950 . S
H593 C605 0.950 . S
H594 C602 0.950 . S
H595 C604 0.950 . S
H596 C606 0.950 . S
H597 C608 0.950 . S
H598 C610 0.950 . S
H599 C611 0.950 . S
C600 H592 0.950 . S
C600 C601 1.386 . S
C600 C602 1.391 . S
C601 C600 1.386 . S
C601 C605 1.393 . S
C602 H594 0.950 . S
C602 C600 1.391 . S
C602 C603 1.400 . S
C603 C602 1.400 . S
C603 C604 1.398 . S
C603 C609 1.491 . S
C604 H595 0.950 . S
C604 C603 1.398 . S
C604 C605 1.391 . S
C605 H593 0.950 . S
C605 C601 1.393 . S
C605 C604 1.391 . S
C606 H596 0.950 . S
C606 C607 1.386 . S
C606 C608 1.391 . S
C607 C606 1.386 . S
C607 C611 1.393 . S
C608 H597 0.950 . S
C608 C606 1.391 . S
C608 C609 1.400 . S
C609 C603 1.491 . S
C609 C608 1.400 . S
C609 C610 1.398 . S
C610 H598 0.950 . S
C610 C609 1.398 . S
C610 C611 1.391 . S
C611 H599 0.950 . S
C611 C607 1.393 . S
C611 C610 1.391 . S
H612 C620 0.950 . S
H613 C625 0.950 . S
H614 C622 0.950 . S
H615 C624 0.950 . S
H616 C626 0.950 . S
H617 C628 0.950 . S
H618 C630 0.950 . S
H619 C631 0.950 1_565 S
C620 H612 0.950 . S
C620 C621 1.386 . S
C620 C622 1.391 . S
C621 C620 1.386 . S
C621 C625 1.393 . S
C622 H614 0.950 . S
C622 C620 1.391 . S
C622 C623 1.400 . S
C623 C622 1.400 . S
C623 C624 1.398 . S
C623 C629 1.491 . S
C624 H615 0.950 . S
C624 C623 1.398 . S
C624 C625 1.391 . S
C625 H613 0.950 . S
C625 C621 1.393 . S
C625 C624 1.391 . S
C626 H616 0.950 . S
C626 C627 1.386 . S
C626 C628 1.391 . S
C627 C626 1.386 . S
C627 C631 1.393 . S
C628 H617 0.950 . S
C628 C626 1.391 . S
C628 C629 1.400 . S
C629 C623 1.491 . S
C629 C628 1.400 . S
C629 C630 1.398 . S
C630 H618 0.950 . S
C630 C629 1.398 . S
C630 C631 1.391 . S
C631 H619 0.950 1_545 S
C631 C627 1.393 . S
C631 C630 1.391 . S
H632 C640 0.950 . S
H633 C645 0.950 . S
H634 C642 0.950 . S
H635 C644 0.950 . S
H636 C646 0.950 . S
H637 C648 0.950 . S
H638 C650 0.950 . S
H639 C651 0.950 . S
C640 H632 0.950 . S
C640 C641 1.386 . S
C640 C642 1.391 1_455 S
C641 C640 1.386 . S
C641 C645 1.393 . S
C642 H634 0.950 . S
C642 C640 1.391 1_655 S
C642 C643 1.400 . S
C643 C642 1.400 . S
C643 C644 1.398 1_655 S
C643 C649 1.491 . S
C644 H635 0.950 . S
C644 C643 1.398 1_455 S
C644 C645 1.391 . S
C645 H633 0.950 . S
C645 C641 1.393 . S
C645 C644 1.391 . S
C646 H636 0.950 . S
C646 C647 1.386 . S
C646 C648 1.391 . S
C647 C646 1.386 . S
C647 C651 1.393 . S
C648 H637 0.950 . S
C648 C646 1.391 . S
C648 C649 1.400 . S
C649 C643 1.491 . S
C649 C648 1.400 . S
C649 C650 1.398 . S
C650 H638 0.950 . S
C650 C649 1.398 . S
C650 C651 1.391 . S
C651 H639 0.950 . S
C651 C647 1.393 . S
C651 C650 1.391 . S
H652 C660 0.950 . S
H653 C665 0.950 . S
H654 C662 0.950 . S
H655 C664 0.958 . S
H656 C666 0.950 . S
H657 C668 0.950 . S
H658 C670 0.950 . S
H659 C671 0.950 . S
C660 H652 0.950 . S
C660 C661 1.386 . S
C660 C662 1.391 1_655 S
C661 C660 1.386 . S
C661 C665 1.393 . S
C662 H654 0.950 . S
C662 C660 1.391 1_455 S
C662 C663 1.400 . S
C663 C662 1.400 . S
C663 C664 1.398 1_455 S
C663 C669 1.491 . S
C664 H655 0.958 . S
C664 C663 1.398 1_655 S
C664 C665 1.391 . S
C665 H653 0.950 . S
C665 C661 1.393 . S
C665 C664 1.391 . S
C666 H656 0.950 . S
C666 C667 1.386 . S
C666 C668 1.391 . S
C667 C666 1.386 . S
C667 C671 1.393 . S
C668 H657 0.950 . S
C668 C666 1.391 . S
C668 C669 1.400 . S
C669 C663 1.491 . S
C669 C668 1.400 . S
C669 C670 1.398 . S
C670 H658 0.950 . S
C670 C669 1.398 . S
C670 C671 1.391 . S
C671 H659 0.950 . S
C671 C667 1.393 . S
C671 C670 1.391 . S
H672 C680 0.950 . S
H673 C685 0.950 . S
H674 C682 0.950 . S
H675 C684 0.950 . S
H676 C686 0.950 . S
H677 C688 0.950 . S
H678 C690 0.950 . S
H679 C691 0.950 . S
C680 H672 0.950 . S
C680 C681 1.386 . S
C680 C682 1.391 1_455 S
C681 C680 1.386 . S
C681 C685 1.393 . S
C682 H674 0.950 . S
C682 C680 1.391 1_655 S
C682 C683 1.400 . S
C683 C682 1.400 . S
C683 C684 1.398 1_655 S
C683 C689 1.491 . S
C684 H675 0.950 . S
C684 C683 1.398 1_455 S
C684 C685 1.391 . S
C685 H673 0.950 . S
C685 C681 1.393 . S
C685 C684 1.391 . S
C686 H676 0.950 . S
C686 C687 1.386 . S
C686 C688 1.391 . S
C687 C686 1.386 . S
C687 C691 1.393 . S
C688 H677 0.950 . S
C688 C686 1.391 . S
C688 C689 1.400 . S
C689 C683 1.491 . S
C689 C688 1.400 . S
C689 C690 1.398 . S
C690 H678 0.950 . S
C690 C689 1.398 . S
C690 C691 1.391 . S
C691 H679 0.950 . S
C691 C687 1.393 . S
C691 C690 1.391 . S
H692 C700 0.950 . S
H693 C705 0.950 . S
H694 C702 0.950 . S
H695 C704 0.950 . S
H696 C706 0.950 . S
H697 C708 0.950 1_455 S
H698 C710 0.950 . S
H699 C711 0.950 . S
C700 H692 0.950 . S
C700 C701 1.386 . S
C700 C702 1.391 . S
C701 C700 1.386 . S
C701 C705 1.393 . S
C702 H694 0.950 . S
C702 C700 1.391 . S
C702 C703 1.400 . S
C703 C702 1.400 . S
C703 C704 1.398 . S
C703 C709 1.491 . S
C704 H695 0.950 . S
C704 C703 1.398 . S
C704 C705 1.391 . S
C705 H693 0.950 . S
C705 C701 1.393 . S
C705 C704 1.391 . S
C706 H696 0.950 . S
C706 C707 1.386 . S
C706 C708 1.391 . S
C707 C706 1.386 . S
C707 C711 1.393 . S
C708 H697 0.950 1_655 S
C708 C706 1.391 . S
C708 C709 1.400 1_655 S
C709 C703 1.491 . S
C709 C708 1.400 1_455 S
C709 C710 1.398 . S
C710 H698 0.950 . S
C710 C709 1.398 . S
C710 C711 1.391 1_455 S
C711 H699 0.950 . S
C711 C707 1.393 . S
C711 C710 1.391 1_655 S
H712 C720 0.950 . S
H713 C725 0.950 . S
H714 C722 0.950 . S
H715 C724 0.950 . S
H716 C726 0.950 . S
H717 C728 0.950 . S
H718 C730 0.950 . S
H719 C731 0.950 . S
C720 H712 0.950 . S
C720 C721 1.386 . S
C720 C722 1.391 . S
C721 C720 1.386 . S
C721 C725 1.393 . S
C722 H714 0.950 . S
C722 C720 1.391 . S
C722 C723 1.400 1_545 S
C723 C722 1.400 1_565 S
C723 C724 1.398 . S
C723 C729 1.491 . S
C724 H715 0.950 . S
C724 C723 1.398 . S
C724 C725 1.391 1_565 S
C725 H713 0.950 . S
C725 C721 1.393 . S
C725 C724 1.391 1_545 S
C726 H716 0.950 . S
C726 C727 1.386 . S
C726 C728 1.391 . S
C727 C726 1.386 . S
C727 C731 1.393 . S
C728 H717 0.950 . S
C728 C726 1.391 . S
C728 C729 1.400 . S
C729 C723 1.491 . S
C729 C728 1.400 . S
C729 C730 1.398 . S
C730 H718 0.950 . S
C730 C729 1.398 . S
C730 C731 1.391 . S
C731 H719 0.950 . S
C731 C727 1.393 . S
C731 C730 1.391 . S
H732 C740 0.950 . S
H733 C745 0.950 . S
H734 C742 0.950 . S
H735 C744 0.950 . S
H736 C746 0.950 . S
H737 C748 0.950 1_545 S
H738 C750 0.950 1_545 S
H739 C751 0.950 . S
C740 H732 0.950 . S
C740 C741 1.386 . S
C740 C742 1.391 . S
C741 C740 1.386 . S
C741 C745 1.393 . S
C742 H734 0.950 . S
C742 C740 1.391 . S
C742 C743 1.400 . S
C743 C742 1.400 . S
C743 C744 1.398 . S
C743 C749 1.491 . S
C744 H735 0.950 . S
C744 C743 1.398 . S
C744 C745 1.391 . S
C745 H733 0.950 . S
C745 C741 1.393 . S
C745 C744 1.391 . S
C746 H736 0.950 . S
C746 C747 1.386 . S
C746 C748 1.391 . S
C747 C746 1.386 . S
C747 C751 1.393 . S
C748 H737 0.950 1_565 S
C748 C746 1.391 . S
C748 C749 1.400 1_565 S
C749 C743 1.491 . S
C749 C748 1.400 1_545 S
C749 C750 1.398 1_545 S
C750 H738 0.950 1_565 S
C750 C749 1.398 1_565 S
C750 C751 1.391 . S
C751 H739 0.950 . S
C751 C747 1.393 . S
C751 C750 1.391 . S
H752 C760 0.950 . S
H753 C765 0.950 . S
H754 C762 0.950 . S
H755 C764 0.950 . S
H756 C766 0.950 . S
H757 C768 0.950 . S
H758 C770 0.950 . S
H759 C771 0.950 . S
C760 H752 0.950 . S
C760 C761 1.386 . S
C760 C762 1.391 . S
C761 C760 1.386 . S
C761 C765 1.393 . S
C762 H754 0.950 . S
C762 C760 1.391 . S
C762 C763 1.400 . S
C763 C762 1.400 . S
C763 C764 1.398 . S
C763 C769 1.491 . S
C764 H755 0.950 . S
C764 C763 1.398 . S
C764 C765 1.391 . S
C765 H753 0.950 . S
C765 C761 1.393 . S
C765 C764 1.391 . S
C766 H756 0.950 . S
C766 C767 1.386 . S
C766 C768 1.391 . S
C767 C766 1.386 . S
C767 C771 1.393 . S
C768 H757 0.950 . S
C768 C766 1.391 . S
C768 C769 1.400 . S
C769 C763 1.491 . S
C769 C768 1.400 . S
C769 C770 1.398 . S
C770 H758 0.950 . S
C770 C769 1.398 . S
C770 C771 1.391 . S
C771 H759 0.950 . S
C771 C767 1.393 . S
C771 C770 1.391 . S
H772 C780 0.950 . S
H773 C785 0.950 . S
H774 C782 0.950 . S
H775 C784 0.950 . S
H776 C786 0.950 . S
H777 C788 0.950 . S
H778 C790 0.950 . S
H779 C791 0.950 . S
C780 H772 0.950 . S
C780 C781 1.386 . S
C780 C782 1.391 . S
C781 C780 1.386 . S
C781 C785 1.393 . S
C782 H774 0.950 . S
C782 C780 1.391 . S
C782 C783 1.400 . S
C783 C782 1.400 . S
C783 C784 1.398 . S
C783 C789 1.491 . S
C784 H775 0.950 . S
C784 C783 1.398 . S
C784 C785 1.391 . S
C785 H773 0.950 . S
C785 C781 1.393 . S
C785 C784 1.391 . S
C786 H776 0.950 . S
C786 C787 1.386 . S
C786 C788 1.391 . S
C787 C786 1.386 . S
C787 C791 1.393 . S
C788 H777 0.950 . S
C788 C786 1.391 . S
C788 C789 1.400 1_565 S
C789 C783 1.491 . S
C789 C788 1.400 1_545 S
C789 C790 1.398 . S
C790 H778 0.950 . S
C790 C789 1.398 . S
C790 C791 1.391 1_545 S
C791 H779 0.950 . S
C791 C787 1.393 . S
C791 C790 1.391 1_565 S
H792 C800 0.950 . S
H793 C805 0.950 . S
H794 C802 0.950 . S
H795 C804 0.950 . S
H796 C806 0.950 . S
H797 C808 0.950 . S
H798 C810 0.950 . S
H799 C811 0.950 . S
C800 H792 0.950 . S
C800 C801 1.386 1_455 S
C800 C802 1.391 . S
C801 C800 1.386 1_655 S
C801 C805 1.393 . S
C802 H794 0.950 . S
C802 C800 1.391 . S
C802 C803 1.403 1_455 S
C803 C802 1.403 1_655 S
C803 C804 1.396 . S
C803 C809 1.491 1_655 S
C804 H795 0.950 . S
C804 C803 1.396 . S
C804 C805 1.391 . S
C805 H793 0.950 . S
C805 C801 1.393 . S
C805 C804 1.391 . S
C806 H796 0.950 . S
C806 C807 1.386 1_655 S
C806 C808 1.391 . S
C807 C806 1.386 1_455 S
C807 C811 1.393 . S
C808 H797 0.950 . S
C808 C806 1.391 . S
C808 C809 1.400 1_655 S
C809 C803 1.491 1_455 S
C809 C808 1.400 1_455 S
C809 C810 1.398 . S
C810 H798 0.950 . S
C810 C809 1.398 . S
C810 C811 1.391 . S
C811 H799 0.950 . S
C811 C807 1.393 . S
C811 C810 1.391 . S
H812 C820 0.949 . S
H813 C825 0.950 . S
H814 C822 0.955 . S
H815 C824 0.950 . S
H816 C826 0.945 1_455 S
H817 C828 0.950 . S
H818 C830 0.950 . S
H819 C831 0.950 . S
C820 H812 0.949 . S
C820 C821 1.386 . S
C820 C822 1.389 1_455 S
C821 C820 1.386 . S
C821 C825 1.393 . S
C822 H814 0.955 . S
C822 C820 1.389 1_655 S
C822 C823 1.398 1_655 S
C823 C822 1.398 1_455 S
C823 C824 1.398 . S
C823 C829 1.491 1_455 S
C824 H815 0.950 . S
C824 C823 1.398 . S
C824 C825 1.391 . S
C825 H813 0.950 . S
C825 C821 1.393 . S
C825 C824 1.391 . S
C826 H816 0.945 1_655 S
C826 C827 1.393 . S
C826 C828 1.388 1_655 S
C827 C826 1.393 . S
C827 C831 1.393 . S
C828 H817 0.950 . S
C828 C826 1.388 1_455 S
C828 C829 1.400 1_455 S
C829 C823 1.491 1_655 S
C829 C828 1.400 1_655 S
C829 C830 1.398 . S
C830 H818 0.950 . S
C830 C829 1.398 . S
C830 C831 1.391 . S
C831 H819 0.950 . S
C831 C827 1.393 . S
C831 C830 1.391 . S
H832 C840 0.949 . S
H833 C845 0.950 . S
H834 C842 0.950 . S
H835 C844 0.950 . S
H836 C846 0.950 . S
H837 C848 0.947 1_565 S
H838 C850 0.950 . S
H839 C851 0.950 . S
C840 H832 0.949 . S
C840 C841 1.386 . S
C840 C842 1.391 1_565 S
C841 C840 1.386 . S
C841 C845 1.393 . S
C842 H834 0.950 . S
C842 C840 1.391 1_545 S
C842 C843 1.398 1_545 S
C843 C842 1.398 1_565 S
C843 C844 1.405 . S
C843 C849 1.487 1_565 S
C844 H835 0.950 . S
C844 C843 1.405 . S
C844 C845 1.391 . S
C845 H833 0.950 . S
C845 C841 1.393 . S
C845 C844 1.391 . S
C846 H836 0.950 . S
C846 C847 1.386 . S
C846 C848 1.393 . S
C847 C846 1.386 . S
C847 C851 1.393 . S
C848 H837 0.947 1_545 S
C848 C846 1.393 . S
C848 C849 1.401 . S
C849 C843 1.487 1_545 S
C849 C848 1.401 . S
C849 C850 1.398 . S
C850 H838 0.950 . S
C850 C849 1.398 . S
C850 C851 1.391 . S
C851 H839 0.950 . S
C851 C847 1.393 . S
C851 C850 1.391 . S
H852 C860 0.950 . S
H853 C865 0.950 . S
H854 C862 0.950 . S
H855 C864 0.950 . S
H856 C866 0.950 . S
H857 C868 0.950 . S
H858 C870 0.950 . S
H859 C871 0.950 . S
C860 H852 0.950 . S
C860 C861 1.386 . S
C860 C862 1.391 . S
C861 C860 1.386 . S
C861 C865 1.393 . S
C862 H854 0.950 . S
C862 C860 1.391 . S
C862 C863 1.400 . S
C863 C862 1.400 . S
C863 C864 1.398 . S
C863 C869 1.491 . S
C864 H855 0.950 . S
C864 C863 1.398 . S
C864 C865 1.391 . S
C865 H853 0.950 . S
C865 C861 1.393 . S
C865 C864 1.391 . S
C866 H856 0.950 . S
C866 C867 1.386 . S
C866 C868 1.391 . S
C867 C866 1.386 . S
C867 C871 1.393 . S
C868 H857 0.950 . S
C868 C866 1.391 . S
C868 C869 1.400 . S
C869 C863 1.491 . S
C869 C868 1.400 . S
C869 C870 1.398 . S
C870 H858 0.950 . S
C870 C869 1.398 . S
C870 C871 1.391 . S
C871 H859 0.950 . S
C871 C867 1.393 . S
C871 C870 1.391 . S
H872 C880 0.950 . S
H873 C885 0.950 . S
H874 C882 0.950 . S
H875 C884 0.950 . S
H876 C886 0.950 . S
H877 C888 0.950 . S
H878 C890 0.950 . S
H879 C891 0.950 . S
C880 H872 0.950 . S
C880 C881 1.386 . S
C880 C882 1.391 . S
C881 C880 1.386 . S
C881 C885 1.393 1_554 S
C882 H874 0.950 . S
C882 C880 1.391 . S
C882 C883 1.400 . S
C883 C882 1.400 . S
C883 C884 1.398 1_554 S
C883 C889 1.490 1_554 S
C884 H875 0.950 . S
C884 C883 1.398 1_556 S
C884 C885 1.391 . S
C885 H873 0.950 . S
C885 C881 1.393 1_556 S
C885 C884 1.391 . S
C886 H876 0.950 . S
C886 C887 1.386 . S
C886 C888 1.391 . S
C887 C886 1.386 . S
C887 C891 1.393 1_556 S
C888 H877 0.950 . S
C888 C886 1.391 . S
C888 C889 1.404 . S
C889 C883 1.490 1_556 S
C889 C888 1.404 . S
C889 C890 1.394 1_556 S
C890 H878 0.950 . S
C890 C889 1.394 1_554 S
C890 C891 1.391 . S
C891 H879 0.950 . S
C891 C887 1.393 1_554 S
C891 C890 1.391 . S
H892 C900 0.950 . S
H893 C905 0.950 . S
H894 C902 0.950 . S
H895 C904 0.950 . S
H896 C906 0.950 . S
H897 C908 0.950 . S
H898 C910 0.950 . S
H899 C911 0.950 . S
C900 H892 0.950 . S
C900 C901 1.386 . S
C900 C902 1.391 . S
C901 C900 1.386 . S
C901 C905 1.393 . S
C902 H894 0.950 . S
C902 C900 1.391 . S
C902 C903 1.400 . S
C903 C902 1.400 . S
C903 C904 1.398 . S
C903 C909 1.491 . S
C904 H895 0.950 . S
C904 C903 1.398 . S
C904 C905 1.391 . S
C905 H893 0.950 . S
C905 C901 1.393 . S
C905 C904 1.391 . S
C906 H896 0.950 . S
C906 C907 1.386 . S
C906 C908 1.391 . S
C907 C906 1.386 . S
C907 C911 1.393 . S
C908 H897 0.950 . S
C908 C906 1.391 . S
C908 C909 1.400 . S
C909 C903 1.491 . S
C909 C908 1.400 . S
C909 C910 1.398 . S
C910 H898 0.950 . S
C910 C909 1.398 . S
C910 C911 1.391 . S
C911 H899 0.950 . S
C911 C907 1.393 . S
C911 C910 1.391 . S
H912 C920 0.950 . S
H913 C925 0.950 . S
H914 C922 0.950 . S
H915 C924 0.950 . S
H916 C926 0.950 . S
H917 C928 0.950 . S
H918 C930 0.950 . S
H919 C931 0.950 . S
C920 H912 0.950 . S
C920 C921 1.386 . S
C920 C922 1.391 . S
C921 C920 1.386 . S
C921 C925 1.393 . S
C922 H914 0.950 . S
C922 C920 1.391 . S
C922 C923 1.400 . S
C923 C922 1.400 . S
C923 C924 1.398 . S
C923 C929 1.491 . S
C924 H915 0.950 . S
C924 C923 1.398 . S
C924 C925 1.391 . S
C925 H913 0.950 . S
C925 C921 1.393 . S
C925 C924 1.391 . S
C926 H916 0.950 . S
C926 C927 1.386 . S
C926 C928 1.391 . S
C927 C926 1.386 . S
C927 C931 1.393 . S
C928 H917 0.950 . S
C928 C926 1.391 . S
C928 C929 1.400 . S
C929 C923 1.491 . S
C929 C928 1.400 . S
C929 C930 1.398 . S
C930 H918 0.950 . S
C930 C929 1.398 . S
C930 C931 1.391 . S
C931 H919 0.950 . S
C931 C927 1.393 . S
C931 C930 1.391 . S
H932 C940 0.950 . S
H933 C945 0.950 . S
H934 C942 0.950 . S
H935 C944 0.950 . S
H936 C946 0.950 . S
H937 C948 0.950 . S
H938 C950 0.950 . S
H939 C951 0.950 . S
C940 H932 0.950 . S
C940 C941 1.386 . S
C940 C942 1.391 . S
C941 C940 1.386 . S
C941 C945 1.393 . S
C942 H934 0.950 . S
C942 C940 1.391 . S
C942 C943 1.400 . S
C943 C942 1.400 . S
C943 C944 1.398 . S
C943 C949 1.491 . S
C944 H935 0.950 . S
C944 C943 1.398 . S
C944 C945 1.391 . S
C945 H933 0.950 . S
C945 C941 1.393 . S
C945 C944 1.391 . S
C946 H936 0.950 . S
C946 C947 1.386 . S
C946 C948 1.391 . S
C947 C946 1.386 . S
C947 C951 1.393 . S
C948 H937 0.950 . S
C948 C946 1.391 . S
C948 C949 1.400 . S
C949 C943 1.491 . S
C949 C948 1.400 . S
C949 C950 1.398 . S
C950 H938 0.950 . S
C950 C949 1.398 . S
C950 C951 1.391 . S
C951 H939 0.950 . S
C951 C947 1.393 . S
C951 C950 1.391 . S
H952 C960 0.950 . S
H953 C965 0.950 . S
H954 C962 0.950 . S
H955 C964 0.950 . S
H956 C966 0.950 . S
H957 C968 0.950 . S
H958 C970 0.950 . S
H959 C971 0.950 . S
C960 H952 0.950 . S
C960 C961 1.386 . S
C960 C962 1.391 . S
C961 C960 1.386 . S
C961 C965 1.393 . S
C962 H954 0.950 . S
C962 C960 1.391 . S
C962 C963 1.400 . S
C963 C962 1.400 . S
C963 C964 1.398 . S
C963 C969 1.491 . S
C964 H955 0.950 . S
C964 C963 1.398 . S
C964 C965 1.391 . S
C965 H953 0.950 . S
C965 C961 1.393 . S
C965 C964 1.391 . S
C966 H956 0.950 . S
C966 C967 1.386 . S
C966 C968 1.391 . S
C967 C966 1.386 . S
C967 C971 1.393 . S
C968 H957 0.950 . S
C968 C966 1.391 . S
C968 C969 1.400 . S
C969 C963 1.491 . S
C969 C968 1.400 . S
C969 C970 1.398 . S
C970 H958 0.950 . S
C970 C969 1.398 . S
C970 C971 1.391 . S
C971 H959 0.950 . S
C971 C967 1.393 . S
C971 C970 1.391 . S
H972 C980 0.950 . S
H973 C985 0.950 . S
H974 C982 0.950 . S
H975 C984 0.950 . S
H976 C986 0.950 . S
H977 C988 0.950 . S
H978 C990 0.950 . S
H979 C991 0.950 . S
C980 H972 0.950 . S
C980 C981 1.386 . S
C980 C982 1.391 . S
C981 C980 1.386 . S
C981 C985 1.393 . S
C982 H974 0.950 . S
C982 C980 1.391 . S
C982 C983 1.400 . S
C983 C982 1.400 . S
C983 C984 1.398 . S
C983 C989 1.491 . S
C984 H975 0.950 . S
C984 C983 1.398 . S
C984 C985 1.391 . S
C985 H973 0.950 . S
C985 C981 1.393 . S
C985 C984 1.391 . S
C986 H976 0.950 . S
C986 C987 1.386 . S
C986 C988 1.391 . S
C987 C986 1.386 . S
C987 C991 1.393 . S
C988 H977 0.950 . S
C988 C986 1.391 . S
C988 C989 1.400 . S
C989 C983 1.491 . S
C989 C988 1.400 . S
C989 C990 1.398 . S
C990 H978 0.950 . S
C990 C989 1.398 . S
C990 C991 1.391 . S
C991 H979 0.950 . S
C991 C987 1.393 . S
C991 C990 1.391 . S
H992 C1000 0.950 . S
H993 C1005 0.950 . S
H994 C1002 0.950 . S
H995 C1004 0.948 1_565 S
H996 C1006 0.950 . S
H997 C1008 0.951 . S
H998 C1010 0.950 1_545 S
H999 C1011 0.950 . S
C1000 H992 0.950 . S
C1000 C1001 1.386 . S
C1000 C1002 1.391 . S
C1001 C1000 1.386 . S
C1001 C1005 1.393 . S
C1002 H994 0.950 . S
C1002 C1000 1.391 . S
C1002 C1003 1.400 . S
C1003 C1002 1.400 . S
C1003 C1004 1.398 . S
C1003 C1009 1.491 1_545 S
C1004 H995 0.948 1_545 S
C1004 C1003 1.398 . S
C1004 C1005 1.391 . S
C1005 H993 0.950 . S
C1005 C1001 1.393 . S
C1005 C1004 1.391 . S
C1006 H996 0.950 . S
C1006 C1007 1.386 . S
C1006 C1008 1.391 . S
C1007 C1006 1.386 . S
C1007 C1011 1.393 . S
C1008 H997 0.951 . S
C1008 C1006 1.391 . S
C1008 C1009 1.400 . S
C1009 C1003 1.491 1_565 S
C1009 C1008 1.400 . S
C1009 C1010 1.398 . S
C1010 H998 0.950 1_565 S
C1010 C1009 1.398 . S
C1010 C1011 1.391 . S
C1011 H999 0.950 . S
C1011 C1007 1.393 . S
C1011 C1010 1.391 . S
H1012 C1020 0.950 . S
H1013 C1025 0.950 . S
H1014 C1022 0.950 . S
H1015 C1024 0.950 . S
H1016 C1026 0.950 . S
H1017 C1028 0.950 . S
H1018 C1030 0.950 . S
H1019 C1031 0.950 . S
C1020 H1012 0.950 . S
C1020 C1021 1.386 1_554 S
C1020 C1022 1.391 . S
C1021 C1020 1.386 1_556 S
C1021 C1025 1.393 . S
C1022 H1014 0.950 . S
C1022 C1020 1.391 . S
C1022 C1023 1.379 1_554 S
C1023 C1022 1.379 1_556 S
C1023 C1024 1.422 . S
C1023 C1029 1.488 1_556 S
C1024 H1015 0.950 . S
C1024 C1023 1.422 . S
C1024 C1025 1.391 . S
C1025 H1013 0.950 . S
C1025 C1021 1.393 . S
C1025 C1024 1.391 . S
C1026 H1016 0.950 . S
C1026 C1027 1.386 1_556 S
C1026 C1028 1.391 . S
C1027 C1026 1.386 1_554 S
C1027 C1031 1.393 . S
C1028 H1017 0.950 . S
C1028 C1026 1.391 . S
C1028 C1029 1.400 1_556 S
C1029 C1023 1.488 1_554 S
C1029 C1028 1.400 1_554 S
C1029 C1030 1.398 . S
C1030 H1018 0.950 . S
C1030 C1029 1.398 . S
C1030 C1031 1.391 . S
C1031 H1019 0.950 . S
C1031 C1027 1.393 . S
C1031 C1030 1.391 . S
H1032 C1040 0.950 . S
H1033 C1045 0.950 . S
H1034 C1042 0.950 . S
H1035 C1044 0.950 . S
H1036 C1046 0.950 . S
H1037 C1048 0.950 . S
H1038 C1050 0.950 . S
H1039 C1051 0.950 . S
C1040 H1032 0.950 . S
C1040 C1041 1.387 1_455 S
C1040 C1042 1.391 . S
C1041 C1040 1.387 1_655 S
C1041 C1045 1.392 . S
C1042 H1034 0.950 . S
C1042 C1040 1.391 . S
C1042 C1043 1.384 1_455 S
C1043 C1042 1.384 1_655 S
C1043 C1044 1.414 . S
C1043 C1049 1.491 1_565 S
C1044 H1035 0.950 . S
C1044 C1043 1.414 . S
C1044 C1045 1.391 . S
C1045 H1033 0.950 . S
C1045 C1041 1.392 . S
C1045 C1044 1.391 . S
C1046 H1036 0.950 . S
C1046 C1047 1.414 . S
C1046 C1048 1.391 . S
C1047 C1046 1.414 . S
C1047 C1051 1.365 1_655 S
C1048 H1037 0.950 . S
C1048 C1046 1.391 . S
C1048 C1049 1.411 . S
C1049 C1043 1.491 1_545 S
C1049 C1048 1.411 . S
C1049 C1050 1.387 1_655 S
C1050 H1038 0.950 . S
C1050 C1049 1.387 1_455 S
C1050 C1051 1.391 . S
C1051 H1039 0.950 . S
C1051 C1047 1.365 1_455 S
C1051 C1050 1.391 . S
H1052 C1060 0.950 . S
H1053 C1065 0.950 . S
H1054 C1062 0.950 . S
H1055 C1064 0.950 . S
H1056 C1066 0.950 . S
H1057 C1068 0.950 . S
H1058 C1070 0.950 . S
H1059 C1071 0.950 . S
C1060 H1052 0.950 . S
C1060 C1061 1.394 . S
C1060 C1062 1.391 . S
C1061 C1060 1.394 . S
C1061 C1065 1.385 1_655 S
C1062 H1054 0.950 . S
C1062 C1060 1.391 . S
C1062 C1063 1.415 . S
C1063 C1062 1.415 . S
C1063 C1064 1.385 1_655 S
C1063 C1069 1.490 . S
C1064 H1055 0.950 . S
C1064 C1063 1.385 1_455 S
C1064 C1065 1.391 . S
C1065 H1053 0.950 . S
C1065 C1061 1.385 1_455 S
C1065 C1064 1.391 . S
C1066 H1056 0.950 . S
C1066 C1067 1.376 1_455 S
C1066 C1068 1.391 . S
C1067 C1066 1.376 1_655 S
C1067 C1071 1.402 . S
C1068 H1057 0.950 . S
C1068 C1066 1.391 . S
C1068 C1069 1.397 1_455 S
C1069 C1063 1.490 . S
C1069 C1068 1.397 1_655 S
C1069 C1070 1.402 . S
C1070 H1058 0.950 . S
C1070 C1069 1.402 . S
C1070 C1071 1.391 . S
C1071 H1059 0.950 . S
C1071 C1067 1.402 . S
C1071 C1070 1.391 . S
H1072 C1080 0.950 . S
H1073 C1085 0.950 . S
H1074 C1082 0.950 1_554 S
H1075 C1084 0.950 . S
H1076 C1086 0.950 . S
H1077 C1088 0.950 1_556 S
H1078 C1090 0.950 . S
H1079 C1091 0.950 . S
C1080 H1072 0.950 . S
C1080 C1081 1.389 . S
C1080 C1082 1.391 . S
C1081 C1080 1.389 . S
C1081 C1085 1.390 1_565 S
C1082 H1074 0.950 1_556 S
C1082 C1080 1.391 . S
C1082 C1083 1.406 . S
C1083 C1082 1.406 . S
C1083 C1084 1.394 1_565 S
C1083 C1089 1.490 1_556 S
C1084 H1075 0.950 . S
C1084 C1083 1.394 1_545 S
C1084 C1085 1.391 . S
C1085 H1073 0.950 . S
C1085 C1081 1.390 1_545 S
C1085 C1084 1.391 . S
C1086 H1076 0.950 . S
C1086 C1087 1.383 1_545 S
C1086 C1088 1.391 . S
C1087 C1086 1.383 1_565 S
C1087 C1091 1.395 . S
C1088 H1077 0.950 1_554 S
C1088 C1086 1.391 . S
C1088 C1089 1.400 1_545 S
C1089 C1083 1.490 1_554 S
C1089 C1088 1.400 1_565 S
C1089 C1090 1.399 . S
C1090 H1078 0.950 . S
C1090 C1089 1.399 . S
C1090 C1091 1.391 . S
C1091 H1079 0.950 . S
C1091 C1087 1.395 . S
C1091 C1090 1.391 . S
H1092 C1100 0.950 . S
H1093 C1105 0.950 . S
H1094 C1102 0.950 1_556 S
H1095 C1104 0.950 . S
H1096 C1106 0.950 . S
H1097 C1108 0.950 1_554 S
H1098 C1110 0.950 . S
H1099 C1111 0.950 . S
C1100 H1092 0.950 . S
C1100 C1101 1.386 . S
C1100 C1102 1.391 . S
C1101 C1100 1.386 . S
C1101 C1105 1.393 . S
C1102 H1094 0.950 1_554 S
C1102 C1100 1.391 . S
C1102 C1103 1.400 . S
C1103 C1102 1.400 . S
C1103 C1104 1.398 . S
C1103 C1109 1.491 1_554 S
C1104 H1095 0.950 . S
C1104 C1103 1.398 . S
C1104 C1105 1.391 . S
C1105 H1093 0.950 . S
C1105 C1101 1.393 . S
C1105 C1104 1.391 . S
C1106 H1096 0.950 . S
C1106 C1107 1.386 . S
C1106 C1108 1.391 . S
C1107 C1106 1.386 . S
C1107 C1111 1.393 . S
C1108 H1097 0.950 1_556 S
C1108 C1106 1.391 . S
C1108 C1109 1.400 . S
C1109 C1103 1.491 1_556 S
C1109 C1108 1.400 . S
C1109 C1110 1.398 . S
C1110 H1098 0.950 . S
C1110 C1109 1.398 . S
C1110 C1111 1.391 . S
C1111 H1099 0.950 . S
C1111 C1107 1.393 . S
C1111 C1110 1.391 . S
H1112 C1120 0.950 . S
H1113 C1125 0.950 . S
H1114 C1122 0.950 . S
H1115 C1124 0.950 . S
H1116 C1126 0.950 . S
H1117 C1128 0.950 . S
H1118 C1130 0.950 . S
H1119 C1131 0.950 . S
C1120 H1112 0.950 . S
C1120 C1121 1.386 . S
C1120 C1122 1.391 . S
C1121 C1120 1.386 . S
C1121 C1125 1.393 1_545 S
C1122 H1114 0.950 . S
C1122 C1120 1.391 . S
C1122 C1123 1.400 . S
C1123 C1122 1.400 . S
C1123 C1124 1.399 1_545 S
C1123 C1129 1.491 1_545 S
C1124 H1115 0.950 . S
C1124 C1123 1.399 1_565 S
C1124 C1125 1.391 . S
C1125 H1113 0.950 . S
C1125 C1121 1.393 1_565 S
C1125 C1124 1.391 . S
C1126 H1116 0.950 . S
C1126 C1127 1.386 . S
C1126 C1128 1.391 . S
C1127 C1126 1.386 . S
C1127 C1131 1.393 1_565 S
C1128 H1117 0.950 . S
C1128 C1126 1.391 . S
C1128 C1129 1.400 . S
C1129 C1123 1.491 1_565 S
C1129 C1128 1.400 . S
C1129 C1130 1.398 1_565 S
C1130 H1118 0.950 . S
C1130 C1129 1.398 1_545 S
C1130 C1131 1.391 . S
C1131 H1119 0.950 . S
C1131 C1127 1.393 1_545 S
C1131 C1130 1.391 . S
H1132 C1140 0.950 . S
H1133 C1145 0.950 . S
H1134 C1142 0.950 . S
H1135 C1144 0.950 . S
H1136 C1146 0.950 . S
H1137 C1148 0.950 . S
H1138 C1150 0.950 . S
H1139 C1151 0.950 . S
C1140 H1132 0.950 . S
C1140 C1141 1.386 . S
C1140 C1142 1.391 . S
C1141 C1140 1.386 . S
C1141 C1145 1.393 . S
C1142 H1134 0.950 . S
C1142 C1140 1.391 . S
C1142 C1143 1.400 . S
C1143 C1142 1.400 . S
C1143 C1144 1.398 . S
C1143 C1149 1.491 . S
C1144 H1135 0.950 . S
C1144 C1143 1.398 . S
C1144 C1145 1.391 . S
C1145 H1133 0.950 . S
C1145 C1141 1.393 . S
C1145 C1144 1.391 . S
C1146 H1136 0.950 . S
C1146 C1147 1.386 . S
C1146 C1148 1.391 . S
C1147 C1146 1.386 . S
C1147 C1151 1.393 . S
C1148 H1137 0.950 . S
C1148 C1146 1.391 . S
C1148 C1149 1.400 . S
C1149 C1143 1.491 . S
C1149 C1148 1.400 . S
C1149 C1150 1.398 . S
C1150 H1138 0.950 . S
C1150 C1149 1.398 . S
C1150 C1151 1.391 . S
C1151 H1139 0.950 . S
C1151 C1147 1.393 . S
C1151 C1150 1.391 . S
H1152 C1160 0.950 . S
H1153 C1165 0.950 . S
H1154 C1162 0.950 . S
H1155 C1164 0.950 1_655 S
H1156 C1166 0.950 . S
H1157 C1168 0.950 . S
H1158 C1170 0.950 1_455 S
H1159 C1171 0.950 . S
C1160 H1152 0.950 . S
C1160 C1161 1.390 . S
C1160 C1162 1.391 . S
C1161 C1160 1.390 . S
C1161 C1165 1.389 1_556 S
C1162 H1154 0.950 . S
C1162 C1160 1.391 . S
C1162 C1163 1.401 . S
C1163 C1162 1.401 . S
C1163 C1164 1.398 1_556 S
C1163 C1169 1.490 1_455 S
C1164 H1155 0.950 1_455 S
C1164 C1163 1.398 1_554 S
C1164 C1165 1.391 . S
C1165 H1153 0.950 . S
C1165 C1161 1.389 1_554 S
C1165 C1164 1.391 . S
C1166 H1156 0.950 . S
C1166 C1167 1.379 1_554 S
C1166 C1168 1.391 . S
C1167 C1166 1.379 1_556 S
C1167 C1171 1.400 . S
C1168 H1157 0.950 . S
C1168 C1166 1.391 . S
C1168 C1169 1.390 1_554 S
C1169 C1163 1.490 1_655 S
C1169 C1168 1.390 1_556 S
C1169 C1170 1.410 . S
C1170 H1158 0.950 1_655 S
C1170 C1169 1.410 . S
C1170 C1171 1.391 . S
C1171 H1159 0.950 . S
C1171 C1167 1.400 . S
C1171 C1170 1.391 . S
H1172 C1180 0.950 . S
H1173 C1185 0.950 . S
H1174 C1182 0.950 1_655 S
H1175 C1184 0.950 . S
H1176 C1186 0.950 . S
H1177 C1188 0.950 1_455 S
H1178 C1190 0.950 . S
H1179 C1191 0.950 . S
C1180 H1172 0.950 . S
C1180 C1181 1.386 . S
C1180 C1182 1.391 . S
C1181 C1180 1.386 . S
C1181 C1185 1.393 . S
C1182 H1174 0.950 1_455 S
C1182 C1180 1.391 . S
C1182 C1183 1.400 . S
C1183 C1182 1.400 . S
C1183 C1184 1.398 . S
C1183 C1189 1.491 1_455 S
C1184 H1175 0.950 . S
C1184 C1183 1.398 . S
C1184 C1185 1.391 . S
C1185 H1173 0.950 . S
C1185 C1181 1.393 . S
C1185 C1184 1.391 . S
C1186 H1176 0.950 . S
C1186 C1187 1.386 . S
C1186 C1188 1.391 . S
C1187 C1186 1.386 . S
C1187 C1191 1.393 . S
C1188 H1177 0.950 1_655 S
C1188 C1186 1.391 . S
C1188 C1189 1.400 . S
C1189 C1183 1.491 1_655 S
C1189 C1188 1.400 . S
C1189 C1190 1.398 . S
C1190 H1178 0.950 . S
C1190 C1189 1.398 . S
C1190 C1191 1.391 . S
C1191 H1179 0.950 . S
C1191 C1187 1.393 . S
C1191 C1190 1.391 . S
H1192 C1200 0.950 . S
H1193 C1205 0.950 . S
H1194 C1202 0.950 . S
H1195 C1204 0.950 . S
H1196 C1206 0.950 . S
H1197 C1208 0.950 . S
H1198 C1210 0.950 . S
H1199 C1211 0.950 . S
C1200 H1192 0.950 . S
C1200 C1201 1.386 . S
C1200 C1202 1.391 . S
C1201 C1200 1.386 . S
C1201 C1205 1.393 . S
C1202 H1194 0.950 . S
C1202 C1200 1.391 . S
C1202 C1203 1.400 . S
C1203 C1202 1.400 . S
C1203 C1204 1.398 . S
C1203 C1209 1.491 . S
C1204 H1195 0.950 . S
C1204 C1203 1.398 . S
C1204 C1205 1.391 . S
C1205 H1193 0.950 . S
C1205 C1201 1.393 . S
C1205 C1204 1.391 . S
C1206 H1196 0.950 . S
C1206 C1207 1.386 . S
C1206 C1208 1.391 . S
C1207 C1206 1.386 . S
C1207 C1211 1.393 . S
C1208 H1197 0.950 . S
C1208 C1206 1.391 . S
C1208 C1209 1.400 . S
C1209 C1203 1.491 . S
C1209 C1208 1.400 . S
C1209 C1210 1.398 . S
C1210 H1198 0.950 . S
C1210 C1209 1.398 . S
C1210 C1211 1.391 . S
C1211 H1199 0.950 . S
C1211 C1207 1.393 . S
C1211 C1210 1.391 . S
H1212 C1220 0.950 . S
H1213 C1225 0.950 . S
H1214 C1222 0.950 . S
H1215 C1224 0.950 . S
H1216 C1226 0.950 . S
H1217 C1228 0.950 . S
H1218 C1230 0.950 . S
H1219 C1231 0.950 . S
C1220 H1212 0.950 . S
C1220 C1221 1.386 . S
C1220 C1222 1.391 . S
C1221 C1220 1.386 . S
C1221 C1225 1.393 . S
C1222 H1214 0.950 . S
C1222 C1220 1.391 . S
C1222 C1223 1.400 . S
C1223 C1222 1.400 . S
C1223 C1224 1.398 . S
C1223 C1229 1.491 . S
C1224 H1215 0.950 . S
C1224 C1223 1.398 . S
C1224 C1225 1.391 . S
C1225 H1213 0.950 . S
C1225 C1221 1.393 . S
C1225 C1224 1.391 . S
C1226 H1216 0.950 . S
C1226 C1227 1.386 . S
C1226 C1228 1.391 . S
C1227 C1226 1.386 . S
C1227 C1231 1.393 . S
C1228 H1217 0.950 . S
C1228 C1226 1.391 . S
C1228 C1229 1.400 . S
C1229 C1223 1.491 . S
C1229 C1228 1.400 . S
C1229 C1230 1.398 . S
C1230 H1218 0.950 . S
C1230 C1229 1.398 . S
C1230 C1231 1.391 . S
C1231 H1219 0.950 . S
C1231 C1227 1.393 . S
C1231 C1230 1.391 . S
H1232 C1240 0.950 . S
H1233 C1245 0.950 . S
H1234 C1242 0.950 . S
H1235 C1244 0.950 . S
H1236 C1246 0.950 . S
H1237 C1248 0.950 . S
H1238 C1250 0.950 . S
H1239 C1251 0.950 . S
C1240 H1232 0.950 . S
C1240 C1241 1.386 . S
C1240 C1242 1.391 . S
C1241 C1240 1.386 . S
C1241 C1245 1.393 . S
C1242 H1234 0.950 . S
C1242 C1240 1.391 . S
C1242 C1243 1.400 . S
C1243 C1242 1.400 . S
C1243 C1244 1.398 . S
C1243 C1249 1.491 1_565 S
C1244 H1235 0.950 . S
C1244 C1243 1.398 . S
C1244 C1245 1.391 . S
C1245 H1233 0.950 . S
C1245 C1241 1.393 . S
C1245 C1244 1.391 . S
C1246 H1236 0.950 . S
C1246 C1247 1.386 . S
C1246 C1248 1.391 . S
C1247 C1246 1.386 . S
C1247 C1251 1.393 . S
C1248 H1237 0.950 . S
C1248 C1246 1.391 . S
C1248 C1249 1.400 . S
C1249 C1243 1.491 1_545 S
C1249 C1248 1.400 . S
C1249 C1250 1.398 . S
C1250 H1238 0.950 . S
C1250 C1249 1.398 . S
C1250 C1251 1.391 . S
C1251 H1239 0.950 . S
C1251 C1247 1.393 . S
C1251 C1250 1.391 . S
H1252 C1260 0.950 . S
H1253 C1265 0.950 . S
H1254 C1262 0.950 . S
H1255 C1264 0.950 . S
H1256 C1266 0.950 . S
H1257 C1268 0.950 . S
H1258 C1270 0.950 . S
H1259 C1271 0.950 . S
C1260 H1252 0.950 . S
C1260 C1261 1.386 1_556 S
C1260 C1262 1.391 . S
C1261 C1260 1.386 1_554 S
C1261 C1265 1.393 . S
C1262 H1254 0.950 . S
C1262 C1260 1.391 . S
C1262 C1263 1.401 1_556 S
C1263 C1262 1.401 1_554 S
C1263 C1264 1.398 . S
C1263 C1269 1.491 1_554 S
C1264 H1255 0.950 . S
C1264 C1263 1.398 . S
C1264 C1265 1.391 . S
C1265 H1253 0.950 . S
C1265 C1261 1.393 . S
C1265 C1264 1.391 . S
C1266 H1256 0.950 . S
C1266 C1267 1.386 1_554 S
C1266 C1268 1.391 . S
C1267 C1266 1.386 1_556 S
C1267 C1271 1.393 . S
C1268 H1257 0.950 . S
C1268 C1266 1.391 . S
C1268 C1269 1.400 1_554 S
C1269 C1263 1.491 1_556 S
C1269 C1268 1.400 1_556 S
C1269 C1270 1.398 . S
C1270 H1258 0.950 . S
C1270 C1269 1.398 . S
C1270 C1271 1.391 . S
C1271 H1259 0.950 . S
C1271 C1267 1.393 . S
C1271 C1270 1.391 . S
C321 C224 0.478 . S
C327 C3 0.452 . S
C341 C18 0.532 . S
C347 C213 0.555 . S
C361 C31 0.647 . S
C367 C252 0.675 . S
C381 C42 0.705 . S
C387 C237 0.693 . S
C401 C57 0.452 . S
C407 C278 0.496 . S
C421 C68 0.605 . S
C427 C291 0.633 . S
C441 C263 0.552 . S
C447 C83 0.488 . S
C461 C146 0.629 . S
C467 C94 0.640 . S
C481 C107 0.485 . S
C487 C44 0.505 . S
C501 C16 0.633 . S
C507 C120 0.598 . S
C521 C135 0.797 . S
C527 C5 0.783 . S
C541 C148 0.637 . S
C547 C185 0.688 . S
C561 C70 0.803 . S
C567 C161 0.832 . S
C581 C55 0.795 . S
C587 C174 0.792 . S
C601 C187 0.630 . S
C607 C96 0.672 . S
C621 C200 0.615 . S
C627 C81 0.615 . S
C641 C122 0.801 . S
C647 C211 0.831 . S
C661 C133 0.674 . S
C667 C226 0.677 . S
C681 C109 0.778 . S
C687 C239 0.798 . S
C701 C250 0.643 . S
C707 C302 0.640 . S
C721 C198 0.833 . S
C727 C265 0.831 . S
C741 C276 0.705 . S
C747 C172 0.702 . S
C761 C159 0.585 . S
C767 C289 0.527 . S
C781 C304 0.668 . S
C787 C29 0.641 . S
C801 C4 2.005 . S
C807 C23 1.988 . S
C821 C43 1.918 . S
C827 C36 1.928 . S
C841 C62 2.008 . S
C847 C88 1.997 . S
C861 C69 2.181 . S
C867 C95 2.165 . S
C881 C290 1.988 . S
C887 C108 2.005 . S
C901 C121 2.184 . S
C907 C153 2.176 . S
C921 C270 2.100 . S
C927 C140 2.110 . S
C941 C179 2.114 . S
C947 C166 2.097 . S
C961 C192 2.165 . S
C967 C205 2.183 . S
C981 C244 2.113 . S
C987 C212 2.101 . S
C1001 C231 1.912 . S
C1007 C251 1.921 . S
C1021 C309 1.929 . S
C1027 C277 1.912 . S
C1041 C30 1.307 1_655 S
C1047 C10 1.310 . S
C1061 C17 1.559 1_655 S
C1067 C49 1.555 . S
C1081 C257 1.326 1_565 S
C1087 C56 1.329 . S
C1101 C75 1.490 . S
C1107 C238 1.487 . S
C1121 C82 1.577 . S
C1127 C225 1.573 . S
C1141 C218 1.723 . S
C1147 C101 1.725 . S
C1161 C114 1.328 . S
C1167 C303 1.325 1_556 S
C1181 C127 1.492 . S
C1187 C134 1.489 . S
C1201 C264 1.728 . S
C1207 C147 1.731 . S
C1221 C160 1.717 . S
C1227 C186 1.720 . S
C1241 C173 1.493 . S
C1247 C199 1.493 . S
C1261 C296 1.562 . S
C1267 C283 1.557 . S
