# Generated by pormake.
# Topology umz, (4)-cn, num edge types: 1
# Building blocks:
#     Node 0, Type 0, BuildingBlock: NAHDIM_clean_sbu_0, # of connection points: 4
#     Node 1, Type 0, BuildingBlock: NAHDIM_clean_sbu_0, # of connection points: 4
#     Node 2, Type 0, BuildingBlock: NAHDIM_clean_sbu_0, # of connection points: 4
#     Node 3, Type 0, BuildingBlock: NAHDIM_clean_sbu_0, # of connection points: 4
#     Node 4, Type 0, BuildingBlock: NAHDIM_clean_sbu_0, # of connection points: 4
#     Node 5, Type 0, BuildingBlock: NAHDIM_clean_sbu_0, # of connection points: 4
#     Node 6, Type 0, BuildingBlock: NAHDIM_clean_sbu_0, # of connection points: 4
#     Node 7, Type 0, BuildingBlock: NAHDIM_clean_sbu_0, # of connection points: 4
#     Node 8, Type 0, BuildingBlock: NAHDIM_clean_sbu_0, # of connection points: 4
#     Node 9, Type 0, BuildingBlock: NAHDIM_clean_sbu_0, # of connection points: 4
#     Node 10, Type 0, BuildingBlock: NAHDIM_clean_sbu_0, # of connection points: 4
#     Node 11, Type 0, BuildingBlock: NAHDIM_clean_sbu_0, # of connection points: 4
#     Node 12, Type 0, BuildingBlock: NAHDIM_clean_sbu_0, # of connection points: 4
#     Node 13, Type 0, BuildingBlock: NAHDIM_clean_sbu_0, # of connection points: 4
#     Node 14, Type 0, BuildingBlock: NAHDIM_clean_sbu_0, # of connection points: 4
#     Node 15, Type 0, BuildingBlock: NAHDIM_clean_sbu_0, # of connection points: 4
#     Edge 16, Type (0, 0), BuildingBlock: AJUNOK_clean_linker_0, # of connection points: 2
#     Edge 17, Type (0, 0), BuildingBlock: AJUNOK_clean_linker_0, # of connection points: 2
#     Edge 18, Type (0, 0), BuildingBlock: AJUNOK_clean_linker_0, # of connection points: 2
#     Edge 19, Type (0, 0), BuildingBlock: AJUNOK_clean_linker_0, # of connection points: 2
#     Edge 20, Type (0, 0), BuildingBlock: AJUNOK_clean_linker_0, # of connection points: 2
#     Edge 21, Type (0, 0), BuildingBlock: AJUNOK_clean_linker_0, # of connection points: 2
#     Edge 22, Type (0, 0), BuildingBlock: AJUNOK_clean_linker_0, # of connection points: 2
#     Edge 23, Type (0, 0), BuildingBlock: AJUNOK_clean_linker_0, # of connection points: 2
#     Edge 24, Type (0, 0), BuildingBlock: AJUNOK_clean_linker_0, # of connection points: 2
#     Edge 25, Type (0, 0), BuildingBlock: AJUNOK_clean_linker_0, # of connection points: 2
#     Edge 26, Type (0, 0), BuildingBlock: AJUNOK_clean_linker_0, # of connection points: 2
#     Edge 27, Type (0, 0), BuildingBlock: AJUNOK_clean_linker_0, # of connection points: 2
#     Edge 28, Type (0, 0), BuildingBlock: AJUNOK_clean_linker_0, # of connection points: 2
#     Edge 29, Type (0, 0), BuildingBlock: AJUNOK_clean_linker_0, # of connection points: 2
#     Edge 30, Type (0, 0), BuildingBlock: AJUNOK_clean_linker_0, # of connection points: 2
#     Edge 31, Type (0, 0), BuildingBlock: AJUNOK_clean_linker_0, # of connection points: 2
#     Edge 32, Type (0, 0), BuildingBlock: AJUNOK_clean_linker_0, # of connection points: 2
#     Edge 33, Type (0, 0), BuildingBlock: AJUNOK_clean_linker_0, # of connection points: 2
#     Edge 34, Type (0, 0), BuildingBlock: AJUNOK_clean_linker_0, # of connection points: 2
#     Edge 35, Type (0, 0), BuildingBlock: AJUNOK_clean_linker_0, # of connection points: 2
#     Edge 36, Type (0, 0), BuildingBlock: AJUNOK_clean_linker_0, # of connection points: 2
#     Edge 37, Type (0, 0), BuildingBlock: AJUNOK_clean_linker_0, # of connection points: 2
#     Edge 38, Type (0, 0), BuildingBlock: AJUNOK_clean_linker_0, # of connection points: 2
#     Edge 39, Type (0, 0), BuildingBlock: AJUNOK_clean_linker_0, # of connection points: 2
#     Edge 40, Type (0, 0), BuildingBlock: AJUNOK_clean_linker_0, # of connection points: 2
#     Edge 41, Type (0, 0), BuildingBlock: AJUNOK_clean_linker_0, # of connection points: 2
#     Edge 42, Type (0, 0), BuildingBlock: AJUNOK_clean_linker_0, # of connection points: 2
#     Edge 43, Type (0, 0), BuildingBlock: AJUNOK_clean_linker_0, # of connection points: 2
#     Edge 44, Type (0, 0), BuildingBlock: AJUNOK_clean_linker_0, # of connection points: 2
#     Edge 45, Type (0, 0), BuildingBlock: AJUNOK_clean_linker_0, # of connection points: 2
#     Edge 46, Type (0, 0), BuildingBlock: AJUNOK_clean_linker_0, # of connection points: 2
#     Edge 47, Type (0, 0), BuildingBlock: AJUNOK_clean_linker_0, # of connection points: 2
# Relax obj value: 0.217
# Max RMSD: 0.162
# Mean RMSD: 0.160
data_MOF--net-umz--node1-NAHDIM_clean_sbu_0--edge1-AJUNOK_clean_linker_0
_symmetry_space_group_name_H-M    P1
_symmetry_Int_Tables_number       1
_symmetry_cell_setting            triclinic
loop_
_symmetry_equiv_pos_as_xyz
'x, y, z'
_cell_length_a     44.85627
_cell_length_b     44.79309
_cell_length_c     16.119911
_cell_angle_alpha  89.845188
_cell_angle_beta   89.939468
_cell_angle_gamma 90.043147
loop_
_atom_site_label
_atom_site_type_symbol
_atom_site_fract_x
_atom_site_fract_y
_atom_site_fract_z
_atom_type_partial_charge
C0 C 0.99091 0.69551 0.03481 0.0
O1 O 0.97056 0.67492 0.02235 0.0
O2 O 0.98641 0.62287 0.13048 0.0
Zn3 Zn 0.02359 0.64669 0.1062 0.0
O4 O 0.04608 0.62978 0.00943 0.0
C5 C 0.03741 0.64443 0.27947 0.0
O6 O 0.00927 0.6522 0.28596 0.0
O7 O 0.01452 0.68888 0.07423 0.0
C8 C 0.06933 0.61376 0.01568 0.0
O9 O 0.07848 0.60523 0.08939 0.0
C10 C 0.99039 0.59796 0.16674 0.0
O11 O 0.01778 0.58859 0.17921 0.0
O12 O 0.04926 0.64384 0.20784 0.0
C13 C 0.80538 0.0175 0.63091 0.0
O14 O 0.82609 0.99684 0.62777 0.0
O15 O 0.87557 0.01545 0.7375 0.0
Zn16 Zn 0.85346 0.05174 0.69698 0.0
O17 O 0.87337 0.07009 0.59837 0.0
C18 C 0.8592 0.07313 0.86178 0.0
O19 O 0.85384 0.04496 0.87914 0.0
O20 O 0.81144 0.0426 0.66335 0.0
C21 C 0.89715 0.08532 0.60449 0.0
O22 O 0.91078 0.08697 0.67643 0.0
C23 C 0.89205 -0.00144 0.69418 0.0
O24 O 0.89431 0.00333 0.61396 0.0
O25 O 0.85651 0.08198 0.78733 0.0
C26 C 0.47469 0.81149 0.02535 0.0
O27 O 0.49199 0.82918 0.98147 0.0
O28 O 0.51694 0.86525 0.17436 0.0
Zn29 Zn 0.47657 0.86297 0.12168 0.0
O30 O 0.47241 0.8879 0.01853 0.0
C31 C 0.45353 0.9108 0.20621 0.0
O32 O 0.47415 0.92287 0.15887 0.0
O33 O 0.46491 0.82082 0.09461 0.0
C34 C 0.44563 0.88941 0.99323 0.0
O35 O 0.42523 0.87334 0.0313 0.0
C36 C 0.53839 0.88065 0.14596 0.0
O37 O 0.53578 0.89276 0.07198 0.0
O38 O 0.4495 0.88268 0.20369 0.0
C39 C 0.70618 0.51513 0.566 0.0
O40 O 0.69329 0.54144 0.56561 0.0
O41 O 0.63799 0.53804 0.65255 0.0
Zn42 Zn 0.64737 0.49712 0.60923 0.0
O43 O 0.62471 0.48673 0.50597 0.0
C44 C 0.60345 0.47378 0.70713 0.0
O45 O 0.58977 0.49284 0.65827 0.0
O46 O 0.69101 0.49225 0.58604 0.0
C47 C 0.62596 0.4594 0.48536 0.0
O48 O 0.64284 0.44129 0.5291 0.0
C49 C 0.61919 0.5552 0.61825 0.0
O50 O 0.60845 0.54778 0.54538 0.0
O51 O 0.63135 0.46981 0.69757 0.0
C52 C 0.98635 0.81127 0.87366 0.0
O53 O 0.96708 0.83108 0.90049 0.0
O54 O 0.97771 0.88689 0.79721 0.0
Zn55 Zn 0.01532 0.86383 0.81944 0.0
O56 O 0.03541 0.87525 0.92584 0.0
C57 C 0.05084 0.90264 0.73133 0.0
O58 O 0.03972 0.91917 0.79096 0.0
O59 O 0.00827 0.81993 0.82971 0.0
C60 C 0.06298 0.86892 0.93169 0.0
O61 O 0.07661 0.8563 0.86876 0.0
C62 C 0.96953 0.90894 0.84102 0.0
O63 O 0.98438 0.9152 0.90898 0.0
O64 O 0.04336 0.87527 0.72783 0.0
C65 C 0.69246 0.99392 0.46808 0.0
O66 O 0.67749 0.96998 0.49035 0.0
O67 O 0.63241 0.96282 0.34193 0.0
Zn68 Zn 0.63822 0.00407 0.38751 0.0
O69 O 0.61369 0.01316 0.48839 0.0
C70 C 0.59506 0.02473 0.28266 0.0
O71 O 0.58178 0.00376 0.32619 0.0
O72 O 0.68066 0.01214 0.41735 0.0
C73 C 0.61602 0.04027 0.51066 0.0
O74 O 0.63408 0.05786 0.4688 0.0
C75 C 0.61424 0.94399 0.37214 0.0
O76 O 0.60228 0.94934 0.44501 0.0
O77 O 0.62217 0.0309 0.29842 0.0
C78 C 0.45283 0.68923 0.92363 0.0
O79 O 0.43334 0.67226 0.96225 0.0
O80 O 0.51889 0.62641 0.81516 0.0
Zn81 Zn 0.47836 0.63335 0.8626 0.0
O82 O 0.46912 0.61017 0.96602 0.0
C83 C 0.46153 0.58849 0.76152 0.0
O84 O 0.48284 0.57719 0.8078 0.0
O85 O 0.47241 0.67728 0.87749 0.0
C86 C 0.47101 0.61891 0.04061 0.0
O87 O 0.48288 0.64509 0.05649 0.0
C88 C 0.5455 0.62349 0.84003 0.0
O89 O 0.55151 0.62545 0.91957 0.0
O90 O 0.45262 0.61501 0.77535 0.0
C91 C 0.82668 0.49977 0.44172 0.0
O92 O 0.84905 0.51432 0.47522 0.0
O93 O 0.89958 0.50751 0.35988 0.0
Zn94 Zn 0.87509 0.47008 0.36814 0.0
O95 O 0.88911 0.44438 0.46319 0.0
C96 C 0.91051 0.44643 0.24611 0.0
O97 O 0.92935 0.4534 0.30538 0.0
O98 O 0.83213 0.47949 0.38884 0.0
C99 C 0.89329 0.41639 0.45721 0.0
O100 O 0.88898 0.40301 0.38585 0.0
C101 C 0.8947 0.52407 0.29716 0.0
O102 O 0.8718 0.51798 0.24935 0.0
O103 O 0.88276 0.44997 0.25893 0.0
C104 C 0.9818 0.30869 0.94918 0.0
O105 O 0.95793 0.32544 0.95648 0.0
O106 O 0.96933 0.35772 0.74975 0.0
Zn107 Zn 0.99623 0.35776 0.84975 0.0
O108 O 0.97847 0.38253 0.94109 0.0
C109 C 0.04267 0.37846 0.7406 0.0
O110 O 0.02662 0.36439 0.68493 0.0
O111 O 0.0023 0.31693 0.89954 0.0
C112 C 0.96108 0.40482 0.93594 0.0
O113 O 0.95392 0.41566 0.86287 0.0
C114 C 0.94112 0.35997 0.75062 0.0
O115 O 0.92685 0.35966 0.82181 0.0
O116 O 0.03489 0.37711 0.8164 0.0
C117 C 0.2067 0.94393 0.38597 0.0
O118 O 0.19293 0.9186 0.40125 0.0
O119 O 0.1454 0.92789 0.21292 0.0
Zn120 Zn 0.15137 0.95552 0.31009 0.0
O121 O 0.13082 0.93852 0.4096 0.0
C122 C 0.10234 0.98957 0.26749 0.0
O123 O 0.09144 0.96239 0.27258 0.0
O124 O 0.19378 0.96338 0.34124 0.0
C125 C 0.12585 0.95411 0.4736 0.0
O126 O 0.13521 0.9819 0.47522 0.0
C127 C 0.12915 0.90486 0.22262 0.0
O128 O 0.12168 0.89649 0.29789 0.0
O129 O 0.12993 0.99345 0.28174 0.0
C130 C 0.55621 0.18885 0.94038 0.0
O131 O 0.5792 0.17085 0.94721 0.0
O132 O 0.5513 0.11994 0.79892 0.0
Zn133 Zn 0.52733 0.13444 0.89629 0.0
O134 O 0.54319 0.11288 0.99583 0.0
C135 C 0.47375 0.12925 0.80413 0.0
O136 O 0.48983 0.14471 0.75108 0.0
O137 O 0.53143 0.17832 0.91599 0.0
C138 C 0.53122 0.08945 0.0253 0.0
O139 O 0.50626 0.07964 0.99271 0.0
C140 C 0.54713 0.09269 0.77985 0.0
O141 O 0.52776 0.07707 0.82297 0.0
O142 O 0.48467 0.1235 0.87508 0.0
C143 C 0.3141 0.53698 0.3936 0.0
O144 O 0.33288 0.55941 0.3987 0.0
O145 O 0.38654 0.53389 0.27736 0.0
Zn146 Zn 0.36855 0.50794 0.3669 0.0
O147 O 0.38513 0.52169 0.47476 0.0
C148 C 0.38324 0.45787 0.26914 0.0
O149 O 0.37085 0.47501 0.21267 0.0
O150 O 0.32412 0.5113 0.37523 0.0
C151 C 0.41297 0.52041 0.48789 0.0
O152 O 0.43022 0.50796 0.43189 0.0
C153 C 0.39937 0.55867 0.29163 0.0
O154 O 0.39786 0.57023 0.3663 0.0
O155 O 0.38262 0.46631 0.34431 0.0
C156 C 0.98934 0.20458 0.16429 0.0
O157 O 0.97038 0.2024 0.22617 0.0
O158 O 0.97434 0.14092 0.3007 0.0
Zn159 Zn 0.99157 0.14094 0.18507 0.0
O160 O 0.96044 0.12315 0.10975 0.0
C161 C 0.01883 0.08635 0.20617 0.0
O162 O 0.99043 0.08045 0.21796 0.0
O163 O 0.00282 0.18127 0.14016 0.0
C164 C 0.94253 0.13856 0.06611 0.0
O165 O 0.94466 0.16778 0.06667 0.0
C166 C 0.94625 0.14215 0.31048 0.0
O167 O 0.92947 0.14843 0.24615 0.0
O168 O 0.02634 0.11292 0.18793 0.0
C169 C 0.31867 0.96664 0.55613 0.0
O170 O 0.33694 0.94404 0.56699 0.0
O171 O 0.37885 0.97078 0.71301 0.0
Zn172 Zn 0.36992 0.99512 0.61191 0.0
O173 O 0.39332 0.97587 0.52203 0.0
C174 C 0.38087 0.0486 0.70138 0.0
O175 O 0.36502 0.03423 0.7573 0.0
O176 O 0.32724 0.9926 0.57699 0.0
C177 C 0.39266 0.98456 0.44718 0.0
O178 O 0.3773 0.0085 0.42735 0.0
C179 C 0.40621 0.97051 0.73361 0.0
O180 O 0.4252 0.9866 0.69035 0.0
O181 O 0.38439 0.03686 0.6304 0.0
C182 C 0.56001 0.31199 0.05405 0.0
O183 O 0.58354 0.32903 0.04312 0.0
O184 O 0.55775 0.38119 0.20018 0.0
Zn185 Zn 0.53417 0.36762 0.10122 0.0
O186 O 0.55183 0.38824 0.00212 0.0
C187 C 0.4784 0.37653 0.18567 0.0
O188 O 0.49217 0.36188 0.24506 0.0
O189 O 0.53622 0.32355 0.0822 0.0
C190 C 0.53947 0.41065 0.96826 0.0
O191 O 0.51376 0.42003 -0.00286 0.0
C192 C 0.55522 0.40879 0.21739 0.0
O193 O 0.53754 0.42534 0.17151 0.0
O194 O 0.49172 0.38052 0.11701 0.0
C195 C 0.19355 0.5498 0.52166 0.0
O196 O 0.17805 0.57443 0.51205 0.0
O197 O 0.13432 0.54863 0.70895 0.0
Zn198 Zn 0.13889 0.53093 0.5951 0.0
O199 O 0.11708 0.5572 0.51408 0.0
C200 C 0.12539 0.47359 0.66005 0.0
O201 O 0.14471 0.48264 0.71585 0.0
O202 O 0.18159 0.52774 0.55869 0.0
C203 C 0.09222 0.56937 0.53091 0.0
O204 O 0.07917 0.56316 0.60187 0.0
C205 C 0.13279 0.57667 0.71944 0.0
O206 O 0.13831 0.59453 0.65651 0.0
O207 O 0.11975 0.49048 0.5986 0.0
C208 C 0.01483 0.7391 0.96578 0.0
C209 C 0.98867 0.72479 0.99302 0.0
C210 C 0.01367 0.76644 0.92385 0.0
C211 C 0.98633 0.78084 0.90907 0.0
H212 H 0.03644 0.72899 0.97623 0.0
H213 H 0.03448 0.77678 0.90521 0.0
S214 S 0.91139 0.75252 0.96674 0.0
N215 N 0.93457 0.72654 0.00041 0.0
N216 N 0.93243 0.77861 0.92371 0.0
C217 C 0.95996 0.76673 0.93554 0.0
C218 C 0.96112 0.73851 0.97686 0.0
C219 C 0.73876 0.97722 0.53995 0.0
C220 C 0.72145 0.0006 0.50727 0.0
C221 C 0.76583 0.98293 0.58016 0.0
C222 C 0.77624 0.01228 0.59081 0.0
H223 H 0.73147 0.95426 0.53393 0.0
H224 H 0.77856 0.96418 0.60365 0.0
S225 S 0.73905 0.0815 0.51753 0.0
N226 N 0.71658 0.05429 0.48829 0.0
N227 N 0.76721 0.06507 0.56509 0.0
C228 C 0.75904 0.03593 0.55899 0.0
C229 C 0.73173 0.03007 0.51676 0.0
C230 C 0.45076 0.7614 0.04559 0.0
C231 C 0.46722 0.78115 0.9951 0.0
C232 C 0.4449 0.73205 0.0203 0.0
C233 C 0.45541 0.72131 0.94377 0.0
H234 H 0.4429 0.76838 0.10605 0.0
H235 H 0.43307 0.71738 0.06254 0.0
S236 S 0.49652 0.76483 0.78424 0.0
N237 N 0.49169 0.78844 0.8615 0.0
N238 N 0.4808 0.73333 0.81462 0.0
C239 C 0.47073 0.74115 0.89112 0.0
C240 C 0.47661 0.77104 0.91661 0.0
C241 C 0.74616 0.48482 0.49942 0.0
C242 C 0.73713 0.51181 0.53601 0.0
C243 C 0.77494 0.48142 0.46712 0.0
C244 C 0.79594 0.50469 0.47167 0.0
H245 H 0.73075 0.46627 0.49451 0.0
H246 H 0.78091 0.46018 0.43976 0.0
S247 S 0.7835 0.57975 0.56212 0.0
N248 N 0.75138 0.56227 0.57474 0.0
N249 N 0.80574 0.55567 0.51554 0.0
C250 C 0.78726 0.53175 0.5085 0.0
C251 C 0.75778 0.53537 0.54022 0.0
C252 C 0.96588 0.27858 0.07155 0.0
C253 C 0.98539 0.28229 0.00385 0.0
C254 C 0.96828 0.25409 0.12502 0.0
C255 C 0.99011 0.23204 0.11275 0.0
H256 H 0.94842 0.29469 0.08362 0.0
H257 H 0.95225 0.25213 0.17506 0.0
S258 S 0.0477 0.23187 0.94692 0.0
N259 N 0.02813 0.26243 0.92926 0.0
N260 N 0.03253 0.2161 0.02951 0.0
C261 C 0.01028 0.23576 0.0464 0.0
C262 C 0.00794 0.26092 0.99205 0.0
C263 C 0.27841 0.93276 0.50616 0.0
C264 C 0.28974 0.96191 0.51404 0.0
C265 C 0.25176 0.92722 0.46384 0.0
C266 C 0.23551 0.95054 0.42679 0.0
H267 H 0.29014 0.91398 0.53314 0.0
H268 H 0.2439 0.90438 0.46009 0.0
S269 S 0.25569 0.03098 0.42871 0.0
N270 N 0.28271 0.01447 0.48088 0.0
N271 N 0.2327 0.00404 0.4008 0.0
C272 C 0.24665 0.97983 0.43372 0.0
C273 C 0.27369 0.98552 0.47762 0.0
C274 C 0.53187 0.23621 0.98523 0.0
C275 C 0.55819 0.22031 0.96793 0.0
C276 C 0.5328 0.26556 0.01444 0.0
C277 C 0.56008 0.28044 0.02662 0.0
H278 H 0.51026 0.22582 0.97712 0.0
H279 H 0.51186 0.27676 0.02654 0.0
S280 S 0.63547 0.24892 0.98998 0.0
N281 N 0.61241 0.22164 0.96506 0.0
N282 N 0.61416 0.27704 0.01917 0.0
C283 C 0.58662 0.26491 0.00926 0.0
C284 C 0.58567 0.23481 0.98019 0.0
C285 C 0.26611 0.51576 0.44618 0.0
C286 C 0.28274 0.54075 0.42023 0.0
C287 C 0.2374 0.51896 0.47916 0.0
C288 C 0.224 0.54723 0.4866 0.0
H289 H 0.2756 0.49356 0.44307 0.0
H290 H 0.22566 0.49903 0.49899 0.0
S291 S 0.25755 0.61966 0.42349 0.0
N292 N 0.28334 0.59464 0.40144 0.0
N293 N 0.2293 0.60067 0.46273 0.0
C294 C 0.2401 0.57236 0.459 0.0
C295 C 0.26947 0.56911 0.42603 0.0
C296 C 0.10556 0.58073 0.94177 0.0
C297 C 0.08647 0.60563 0.94054 0.0
C298 C 0.12122 0.57201 0.87052 0.0
C299 C 0.1189 0.58826 0.79602 0.0
H300 H 0.10786 0.56739 -0.00245 0.0
H301 H 0.13497 0.55216 0.87353 0.0
S302 S 0.07289 0.65597 0.76102 0.0
N303 N 0.06679 0.64697 0.85894 0.0
N304 N 0.09653 0.63081 0.72568 0.0
C305 C 0.1006 0.61373 0.7946 0.0
C306 C 0.08427 0.62232 0.86666 0.0
C307 C 0.95087 0.12366 0.45671 0.0
C308 C 0.93262 0.13106 0.3886 0.0
C309 C 0.93913 0.10945 0.52713 0.0
C310 C 0.9088 0.10174 0.53165 0.0
H311 H 0.97459 0.12821 0.45497 0.0
H312 H 0.95414 0.10368 0.57728 0.0
S313 S 0.85084 0.11867 0.37417 0.0
N314 N 0.88206 0.13156 0.3334 0.0
N315 N 0.86023 0.10457 0.4651 0.0
C316 C 0.89007 0.10998 0.46553 0.0
C317 C 0.90191 0.12477 0.39428 0.0
C318 C 0.40795 0.90804 0.89225 0.0
C319 C 0.43675 0.91019 0.9262 0.0
C320 C 0.39819 0.92789 0.831 0.0
C321 C 0.41685 0.95072 0.80098 0.0
H322 H 0.39269 0.89079 0.91293 0.0
H323 H 0.3759 0.92504 0.8064 0.0
S324 S 0.49382 0.96718 0.87261 0.0
N325 N 0.48354 0.93776 0.92752 0.0
N326 N 0.46524 0.9751 0.81201 0.0
C327 C 0.44566 0.95339 0.83487 0.0
C328 C 0.45562 0.93312 0.89749 0.0
C329 C 0.59479 0.40551 0.32621 0.0
C330 C 0.57263 0.42231 0.28588 0.0
C331 C 0.61201 0.41784 0.38991 0.0
C332 C 0.60781 0.4475 0.41608 0.0
H333 H 0.59908 0.38262 0.30825 0.0
H334 H 0.62879 0.40389 0.41874 0.0
S335 S 0.55185 0.50081 0.33302 0.0
N336 N 0.54689 0.47013 0.27823 0.0
N337 N 0.57926 0.49324 0.39795 0.0
C338 C 0.5856 0.46458 0.37669 0.0
C339 C 0.56802 0.45201 0.31171 0.0
C340 C 0.12627 0.89282 0.07174 0.0
C341 C 0.11297 0.89265 0.15068 0.0
C342 C 0.1101 0.88435 0.00128 0.0
C343 C 0.07986 0.87628 0.00722 0.0
H344 H 0.14923 0.89988 0.06428 0.0
H345 H 0.1211 0.88503 0.94144 0.0
S346 S 0.03472 0.87175 0.19953 0.0
N347 N 0.06792 0.88291 0.2309 0.0
N348 N 0.03744 0.86777 0.09803 0.0
C349 C 0.06638 0.87568 0.08576 0.0
C350 C 0.08298 0.88363 0.15768 0.0
C351 C 0.58611 0.09509 0.66909 0.0
C352 C 0.56418 0.07859 0.71151 0.0
C353 C 0.60278 0.08235 0.60492 0.0
C354 C 0.59827 0.05255 0.58029 0.0
H355 H 0.59056 0.1181 0.68552 0.0
H356 H 0.61936 0.09614 0.57441 0.0
S357 S 0.54329 -0.00038 0.67065 0.0
N358 N 0.53866 0.03071 0.72383 0.0
N359 N 0.57005 0.00683 0.60315 0.0
C360 C 0.57641 0.0357 0.62208 0.0
C361 C 0.55936 0.0487 0.68758 0.0
C362 C 0.42981 0.60187 0.24093 0.0
C363 C 0.41801 0.57318 0.22699 0.0
C364 C 0.4479 0.61602 0.18176 0.0
C365 C 0.45494 0.60206 0.10619 0.0
H366 H 0.42482 0.61374 0.29772 0.0
H367 H 0.45575 0.6384 0.19468 0.0
S368 S 0.43191 0.52579 0.04205 0.0
N369 N 0.41622 0.53053 0.13369 0.0
N370 N 0.4502 0.55704 0.02277 0.0
C371 C 0.44403 0.57298 0.0924 0.0
C372 C 0.42555 0.55859 0.15258 0.0
C373 C 0.90387 0.39254 0.68062 0.0
C374 C 0.92601 0.37044 0.67471 0.0
C375 C 0.89305 0.40699 0.60959 0.0
C376 C 0.90344 0.39929 0.53017 0.0
H377 H 0.89597 0.39988 0.74074 0.0
H378 H 0.87674 0.42462 0.617 0.0
S379 S 0.95975 0.34144 0.48093 0.0
N380 N 0.9571 0.3407 0.58314 0.0
N381 N 0.93594 0.36716 0.44926 0.0
C382 C 0.92447 0.37622 0.52307 0.0
C383 C 0.93599 0.36198 0.59551 0.0
C384 C 0.96261 0.41228 0.08862 0.0
C385 C 0.94772 0.4167 0.01286 0.0
C386 C 0.95017 0.4218 0.16349 0.0
C387 C 0.92208 0.43564 0.16589 0.0
H388 H 0.9842 0.40145 0.09022 0.0
H389 H 0.96263 0.41804 0.22011 0.0
S390 S 0.87372 0.4523 0.98507 0.0
N391 N 0.90331 0.43591 0.94462 0.0
N392 N 0.87967 0.45352 0.08612 0.0
C393 C 0.90677 0.4401 0.09079 0.0
C394 C 0.9197 0.43078 0.01405 0.0
C395 C 0.07942 0.89933 0.59862 0.0
C396 C 0.07112 0.91592 0.6688 0.0
C397 C 0.0975 0.91176 0.53679 0.0
C398 C 0.10812 0.94129 0.54263 0.0
H399 H 0.07152 0.87667 0.59049 0.0
H400 H 0.10283 0.89811 0.48345 0.0
S401 S 0.09433 0.99369 0.71654 0.0
N402 N 0.076 0.9631 0.74248 0.0
N403 N 0.10998 0.98642 0.62615 0.0
C404 C 0.1006 0.95794 0.61345 0.0
C405 C 0.08211 0.94527 0.6765 0.0
C406 C 0.58796 0.06902 0.19042 0.0
C407 C 0.57848 0.04069 0.21704 0.0
C408 C 0.57224 0.08473 0.12935 0.0
C409 C 0.54653 0.07263 0.0921 0.0
H410 H 0.60752 0.07931 0.21748 0.0
H411 H 0.58046 0.10653 0.11117 0.0
S412 S 0.51357 -0.00183 0.13658 0.0
N413 N 0.54244 0.00054 0.19959 0.0
N414 N 0.51294 0.02997 0.08465 0.0
C415 C 0.53695 0.04413 0.11774 0.0
C416 C 0.55292 0.02819 0.18019 0.0
C417 C 0.40771 0.5562 0.60547 0.0
C418 C 0.42581 0.53653 0.55941 0.0
C419 C 0.41947 0.57328 0.67024 0.0
C420 C 0.44959 0.5709 0.69221 0.0
H421 H 0.38431 0.55887 0.59067 0.0
H422 H 0.4048 0.58817 0.7039 0.0
S423 S 0.50683 0.5237 0.59035 0.0
N424 N 0.47571 0.51635 0.5397 0.0
N425 N 0.49766 0.54825 0.66216 0.0
C426 C 0.468 0.55137 0.64715 0.0
C427 C 0.45614 0.53423 0.58055 0.0
C428 C 0.89107 0.07784 0.98754 0.0
C429 C 0.8762 0.0917 0.92099 0.0
C430 C 0.91205 0.09338 0.03485 0.0
C431 C 0.91879 0.12349 0.01818 0.0
H432 H 0.88762 0.05438 0.00096 0.0
H433 H 0.92349 0.08143 0.0839 0.0
S434 S 0.88357 0.17102 0.85677 0.0
N435 N 0.86784 0.13797 0.84511 0.0
N436 N 0.90717 0.16729 0.93462 0.0
C437 C 0.90286 0.13813 0.95492 0.0
C438 C 0.88159 0.12222 0.90625 0.0
C439 C 0.41226 0.93572 0.39824 0.0
C440 C 0.40739 0.96631 0.38312 0.0
C441 C 0.42639 0.91767 0.33952 0.0
C442 C 0.43663 0.92968 0.26422 0.0
H443 H 0.40503 0.92554 0.4559 0.0
H444 H 0.42999 0.89433 0.35419 0.0
S445 S 0.42857 0.00816 0.19321 0.0
N446 N 0.41312 0.00762 0.28624 0.0
N447 N 0.4401 0.97373 0.17601 0.0
C448 C 0.4316 0.96013 0.24771 0.0
C449 C 0.41682 0.97844 0.3071 0.0
C450 C 0.58328 0.41734 0.87382 0.0
C451 C 0.55483 0.42676 0.90006 0.0
C452 C 0.59887 0.43266 0.81156 0.0
C453 C 0.58657 0.45788 0.77264 0.0
H454 H 0.59381 0.39806 0.90193 0.0
H455 H 0.62069 0.42455 0.79365 0.0
S456 S 0.51298 0.49217 0.81913 0.0
N457 N 0.51509 0.46323 0.88237 0.0
N458 N 0.54435 0.49199 0.7656 0.0
C459 C 0.5581 0.46756 0.798 0.0
C460 C 0.54225 0.45201 0.86161 0.0
C461 C 0.09273 0.59585 0.39442 0.0
C462 C 0.07875 0.59076 0.47134 0.0
C463 C 0.08003 0.61465 0.33483 0.0
C464 C 0.0527 0.62916 0.34931 0.0
H465 H 0.11342 0.58469 0.37893 0.0
H466 H 0.09132 0.61688 0.2757 0.0
S467 S 0.00878 0.62634 0.5447 0.0
N468 N 0.03737 0.604 0.56191 0.0
N469 N 0.01336 0.63927 0.44954 0.0
C470 C 0.0392 0.62554 0.42763 0.0
C471 C 0.05221 0.60634 0.48861 0.0
C472 C 0.94716 0.54256 0.29792 0.0
C473 C 0.91775 0.54551 0.26889 0.0
C474 C 0.97033 0.55971 0.26446 0.0
C475 C 0.96503 0.58078 0.2013 0.0
H476 H 0.95263 0.52615 0.34496 0.0
H477 H 0.99265 0.55625 0.28826 0.0
S478 S 0.89164 0.59876 0.10777 0.0
N479 N 0.88428 0.57219 0.176 0.0
N480 N 0.9279 0.60477 0.11385 0.0
C481 C 0.93557 0.58481 0.17377 0.0
C482 C 0.91193 0.56708 0.20732 0.0
C483 C 0.92165 0.95138 0.68688 0.0
C484 C 0.90968 0.97465 0.73471 0.0
C485 C 0.93984 0.92946 0.7227 0.0
C486 C 0.94717 0.93017 0.80767 0.0
H487 H 0.91723 0.95021 0.6209 0.0
H488 H 0.94905 0.91243 0.68259 0.0
S489 S 0.92047 0.98572 0.96115 0.0
N490 N 0.90548 0.99646 0.87252 0.0
N491 N 0.93989 0.95543 0.9395 0.0
C492 C 0.9347 0.95287 0.85675 0.0
C493 C 0.9159 0.97505 0.82041 0.0
C494 C 0.58411 0.91085 0.17393 0.0
C495 C 0.56239 0.89071 0.20289 0.0
C496 C 0.60273 0.92612 0.22906 0.0
C497 C 0.6002 0.92206 0.31553 0.0
H498 H 0.58565 0.91626 0.10853 0.0
H499 H 0.61772 0.94277 0.20363 0.0
S500 S 0.5513 0.86734 0.42233 0.0
N501 N 0.54282 0.86395 0.32318 0.0
N502 N 0.57757 0.89311 0.42659 0.0
C503 C 0.5806 0.89995 0.34482 0.0
C504 C 0.56178 0.88414 0.28858 0.0
C505 C 0.61166 0.58124 0.75395 0.0
C506 C 0.60431 0.57838 0.66925 0.0
C507 C 0.59374 0.59778 0.80832 0.0
C508 C 0.56783 0.61212 0.78 0.0
H509 H 0.63041 0.56918 0.77984 0.0
H510 H 0.59928 0.59772 0.8737 0.0
S511 S 0.54194 0.61648 0.56117 0.0
N512 N 0.57169 0.59489 0.55776 0.0
N513 N 0.53822 0.62616 0.65931 0.0
C514 C 0.56182 0.61178 0.69407 0.0
C515 C 0.58001 0.59488 0.63885 0.0
C516 C 0.10601 0.43416 0.75567 0.0
C517 C 0.1073 0.44643 0.6753 0.0
C518 C 0.08597 0.41121 0.77523 0.0
C519 C 0.06665 0.39935 0.71501 0.0
H520 H 0.11961 0.44319 0.80509 0.0
H521 H 0.08501 0.40337 0.83881 0.0
S522 S 0.0638 0.4212 0.49263 0.0
N523 N 0.08941 0.44324 0.53318 0.0
N524 N 0.05192 0.39991 0.5696 0.0
C525 C 0.06901 0.41013 0.63307 0.0
C526 C 0.08926 0.43374 0.61334 0.0
C527 C 0.03144 0.03271 0.22534 0.0
C528 C 0.04122 0.06241 0.21734 0.0
C529 C 0.05149 0.00949 0.24027 0.0
C530 C 0.08224 0.0149 0.24832 0.0
H531 H 0.00798 0.02722 0.22062 0.0
H532 H 0.04258 0.98711 0.24656 0.0
S533 S 0.11963 0.08862 0.23003 0.0
N534 N 0.08391 0.096 0.21641 0.0
N535 N 0.12173 0.0522 0.2449 0.0
C536 C 0.09252 0.04443 0.23909 0.0
C537 C 0.072 0.0682 0.22341 0.0
C538 C 0.40648 0.0783 0.81086 0.0
C539 C 0.4 0.07396 0.72639 0.0
C540 C 0.42921 0.09772 0.83574 0.0
C541 C 0.44618 0.11379 0.77721 0.0
H542 H 0.39522 0.06527 0.85816 0.0
H543 H 0.4344 0.09904 0.90126 0.0
S544 S 0.43441 0.11426 0.54908 0.0
N545 N 0.40968 0.09012 0.58477 0.0
N546 N 0.45226 0.12688 0.63136 0.0
C547 C 0.43818 0.11159 0.69295 0.0
C548 C 0.41515 0.0916 0.66759 0.0
C549 C 0.44082 0.39636 0.28591 0.0
C550 C 0.45035 0.39283 0.20334 0.0
C551 C 0.4177 0.41605 0.30611 0.0
C552 C 0.40307 0.43289 0.24454 0.0
H553 H 0.4523 0.38509 0.33608 0.0
H554 H 0.41227 0.41909 0.37104 0.0
S555 S 0.41633 0.42806 0.01738 0.0
N556 N 0.44093 0.40501 0.05849 0.0
N557 N 0.39745 0.44192 0.09628 0.0
C558 C 0.41077 0.42774 0.16105 0.0
C559 C 0.43443 0.40777 0.14051 0.0
loop_
_geom_bond_atom_site_label_1
_geom_bond_atom_site_label_2
_geom_bond_distance
_geom_bond_site_symmetry_2
_ccdc_geom_bond_type
C0 O1 1.160 1_455 S
C0 O7 1.185 . S
O1 C0 1.160 1_655 S
O2 Zn3 1.899 1_655 S
O2 C10 1.284 . S
Zn3 O2 1.899 1_455 S
Zn3 O4 2.032 . S
Zn3 O7 2.086 . S
Zn3 O12 1.977 . S
O4 Zn3 2.032 . S
O4 C8 1.278 . S
C5 O6 1.203 . S
C5 O12 1.267 . S
O6 C5 1.203 . S
O7 C0 1.185 . S
O7 Zn3 2.086 . S
C8 O4 1.278 . S
C8 O9 1.211 . S
O9 C8 1.211 . S
C10 O2 1.284 . S
C10 O11 1.273 . S
O11 C10 1.273 . S
O12 Zn3 1.977 . S
O12 C5 1.267 . S
C13 O14 1.160 1_545 S
C13 O20 1.185 . S
O14 C13 1.160 1_565 S
O15 Zn16 1.899 1_565 S
O15 C23 1.284 . S
Zn16 O15 1.899 1_545 S
Zn16 O17 2.032 . S
Zn16 O20 2.086 . S
Zn16 O25 1.977 . S
O17 Zn16 2.032 . S
O17 C21 1.278 . S
C18 O19 1.203 . S
C18 O25 1.267 . S
O19 C18 1.203 . S
O20 C13 1.185 . S
O20 Zn16 2.086 . S
C21 O17 1.278 . S
C21 O22 1.211 . S
O22 C21 1.211 . S
C23 O15 1.284 . S
C23 O24 1.273 . S
O24 C23 1.273 . S
O25 Zn16 1.977 . S
O25 C18 1.267 . S
C26 O27 1.160 . S
C26 O33 1.185 . S
O27 C26 1.160 . S
O28 Zn29 1.899 . S
O28 C36 1.284 . S
Zn29 O28 1.899 . S
Zn29 O30 2.032 . S
Zn29 O33 2.086 . S
Zn29 O38 1.977 . S
O30 Zn29 2.032 . S
O30 C34 1.278 . S
C31 O32 1.203 . S
C31 O38 1.267 . S
O32 C31 1.203 . S
O33 C26 1.185 . S
O33 Zn29 2.086 . S
C34 O30 1.278 . S
C34 O35 1.211 . S
O35 C34 1.211 . S
C36 O28 1.284 . S
C36 O37 1.273 . S
O37 C36 1.273 . S
O38 Zn29 1.977 . S
O38 C31 1.267 . S
C39 O40 1.160 . S
C39 O46 1.185 . S
O40 C39 1.160 . S
O41 Zn42 1.899 . S
O41 C49 1.284 . S
Zn42 O41 1.899 . S
Zn42 O43 2.032 . S
Zn42 O46 2.086 . S
Zn42 O51 1.977 . S
O43 Zn42 2.032 . S
O43 C47 1.278 . S
C44 O45 1.203 . S
C44 O51 1.267 . S
O45 C44 1.203 . S
O46 C39 1.185 . S
O46 Zn42 2.086 . S
C47 O43 1.278 . S
C47 O48 1.211 . S
O48 C47 1.211 . S
C49 O41 1.284 . S
C49 O50 1.273 . S
O50 C49 1.273 . S
O51 Zn42 1.977 . S
O51 C44 1.267 . S
C52 O53 1.160 1_455 S
C52 O59 1.185 . S
O53 C52 1.160 1_655 S
O54 Zn55 1.899 1_655 S
O54 C62 1.284 . S
Zn55 O54 1.899 1_455 S
Zn55 O56 2.032 . S
Zn55 O59 2.086 . S
Zn55 O64 1.977 . S
O56 Zn55 2.032 . S
O56 C60 1.278 . S
C57 O58 1.203 . S
C57 O64 1.267 . S
O58 C57 1.203 . S
O59 C52 1.185 . S
O59 Zn55 2.086 . S
C60 O56 1.278 . S
C60 O61 1.211 . S
O61 C60 1.211 . S
C62 O54 1.284 . S
C62 O63 1.273 . S
O63 C62 1.273 . S
O64 Zn55 1.977 . S
O64 C57 1.267 . S
C65 O66 1.160 1_545 S
C65 O72 1.185 . S
O66 C65 1.160 1_565 S
O67 Zn68 1.899 1_565 S
O67 C75 1.284 . S
Zn68 O67 1.899 1_545 S
Zn68 O69 2.032 . S
Zn68 O72 2.086 . S
Zn68 O77 1.977 . S
O69 Zn68 2.032 . S
O69 C73 1.278 . S
C70 O71 1.203 . S
C70 O77 1.267 . S
O71 C70 1.203 . S
O72 C65 1.185 . S
O72 Zn68 2.086 . S
C73 O69 1.278 . S
C73 O74 1.211 . S
O74 C73 1.211 . S
C75 O67 1.284 . S
C75 O76 1.273 . S
O76 C75 1.273 . S
O77 Zn68 1.977 . S
O77 C70 1.267 . S
C78 O79 1.160 . S
C78 O85 1.185 . S
O79 C78 1.160 . S
O80 Zn81 1.899 . S
O80 C88 1.284 . S
Zn81 O80 1.899 . S
Zn81 O82 2.032 . S
Zn81 O85 2.086 . S
Zn81 O90 1.977 . S
O82 Zn81 2.032 . S
O82 C86 1.278 . S
C83 O84 1.203 . S
C83 O90 1.267 . S
O84 C83 1.203 . S
O85 C78 1.185 . S
O85 Zn81 2.086 . S
C86 O82 1.278 . S
C86 O87 1.211 . S
O87 C86 1.211 . S
C88 O80 1.284 . S
C88 O89 1.273 . S
O89 C88 1.273 . S
O90 Zn81 1.977 . S
O90 C83 1.267 . S
C91 O92 1.160 . S
C91 O98 1.185 . S
O92 C91 1.160 . S
O93 Zn94 1.899 . S
O93 C101 1.284 . S
Zn94 O93 1.899 . S
Zn94 O95 2.032 . S
Zn94 O98 2.086 . S
Zn94 O103 1.977 . S
O95 Zn94 2.032 . S
O95 C99 1.278 . S
C96 O97 1.203 . S
C96 O103 1.267 . S
O97 C96 1.203 . S
O98 C91 1.185 . S
O98 Zn94 2.086 . S
C99 O95 1.278 . S
C99 O100 1.211 . S
O100 C99 1.211 . S
C101 O93 1.284 . S
C101 O102 1.273 . S
O102 C101 1.273 . S
O103 Zn94 1.977 . S
O103 C96 1.267 . S
C104 O105 1.160 . S
C104 O111 1.185 . S
O105 C104 1.160 . S
O106 Zn107 1.899 . S
O106 C114 1.284 . S
Zn107 O106 1.899 . S
Zn107 O108 2.032 . S
Zn107 O111 2.086 . S
Zn107 O116 1.977 1_655 S
O108 Zn107 2.032 . S
O108 C112 1.278 . S
C109 O110 1.203 . S
C109 O116 1.267 . S
O110 C109 1.203 . S
O111 C104 1.185 . S
O111 Zn107 2.086 . S
C112 O108 1.278 . S
C112 O113 1.211 . S
O113 C112 1.211 . S
C114 O106 1.284 . S
C114 O115 1.273 . S
O115 C114 1.273 . S
O116 Zn107 1.977 1_455 S
O116 C109 1.267 . S
C117 O118 1.160 . S
C117 O124 1.185 . S
O118 C117 1.160 . S
O119 Zn120 1.899 . S
O119 C127 1.284 . S
Zn120 O119 1.899 . S
Zn120 O121 2.032 . S
Zn120 O124 2.086 . S
Zn120 O129 1.977 1_565 S
O121 Zn120 2.032 . S
O121 C125 1.278 . S
C122 O123 1.203 . S
C122 O129 1.267 . S
O123 C122 1.203 . S
O124 C117 1.185 . S
O124 Zn120 2.086 . S
C125 O121 1.278 . S
C125 O126 1.211 . S
O126 C125 1.211 . S
C127 O119 1.284 . S
C127 O128 1.273 . S
O128 C127 1.273 . S
O129 Zn120 1.977 1_545 S
O129 C122 1.267 . S
C130 O131 1.160 . S
C130 O137 1.185 . S
O131 C130 1.160 . S
O132 Zn133 1.899 . S
O132 C140 1.284 . S
Zn133 O132 1.899 . S
Zn133 O134 2.032 . S
Zn133 O137 2.086 . S
Zn133 O142 1.977 . S
O134 Zn133 2.032 . S
O134 C138 1.278 . S
C135 O136 1.203 . S
C135 O142 1.267 . S
O136 C135 1.203 . S
O137 C130 1.185 . S
O137 Zn133 2.086 . S
C138 O134 1.278 . S
C138 O139 1.211 . S
O139 C138 1.211 . S
C140 O132 1.284 . S
C140 O141 1.273 . S
O141 C140 1.273 . S
O142 Zn133 1.977 . S
O142 C135 1.267 . S
C143 O144 1.160 . S
C143 O150 1.185 . S
O144 C143 1.160 . S
O145 Zn146 1.899 . S
O145 C153 1.284 . S
Zn146 O145 1.899 . S
Zn146 O147 2.032 . S
Zn146 O150 2.086 . S
Zn146 O155 1.977 . S
O147 Zn146 2.032 . S
O147 C151 1.278 . S
C148 O149 1.203 . S
C148 O155 1.267 . S
O149 C148 1.203 . S
O150 C143 1.185 . S
O150 Zn146 2.086 . S
C151 O147 1.278 . S
C151 O152 1.211 . S
O152 C151 1.211 . S
C153 O145 1.284 . S
C153 O154 1.273 . S
O154 C153 1.273 . S
O155 Zn146 1.977 . S
O155 C148 1.267 . S
C156 O157 1.160 . S
C156 O163 1.185 . S
O157 C156 1.160 . S
O158 Zn159 1.899 . S
O158 C166 1.284 . S
Zn159 O158 1.899 . S
Zn159 O160 2.032 . S
Zn159 O163 2.086 . S
Zn159 O168 1.977 1_655 S
O160 Zn159 2.032 . S
O160 C164 1.278 . S
C161 O162 1.203 . S
C161 O168 1.267 . S
O162 C161 1.203 . S
O163 C156 1.185 . S
O163 Zn159 2.086 . S
C164 O160 1.278 . S
C164 O165 1.211 . S
O165 C164 1.211 . S
C166 O158 1.284 . S
C166 O167 1.273 . S
O167 C166 1.273 . S
O168 Zn159 1.977 1_455 S
O168 C161 1.267 . S
C169 O170 1.160 . S
C169 O176 1.185 . S
O170 C169 1.160 . S
O171 Zn172 1.899 . S
O171 C179 1.284 . S
Zn172 O171 1.899 . S
Zn172 O173 2.032 . S
Zn172 O176 2.086 . S
Zn172 O181 1.977 1_565 S
O173 Zn172 2.032 . S
O173 C177 1.278 . S
C174 O175 1.203 . S
C174 O181 1.267 . S
O175 C174 1.203 . S
O176 C169 1.185 . S
O176 Zn172 2.086 . S
C177 O173 1.278 . S
C177 O178 1.211 . S
O178 C177 1.211 . S
C179 O171 1.284 . S
C179 O180 1.273 . S
O180 C179 1.273 . S
O181 Zn172 1.977 1_545 S
O181 C174 1.267 . S
C182 O183 1.160 . S
C182 O189 1.185 . S
O183 C182 1.160 . S
O184 Zn185 1.899 . S
O184 C192 1.284 . S
Zn185 O184 1.899 . S
Zn185 O186 2.032 . S
Zn185 O189 2.086 . S
Zn185 O194 1.977 . S
O186 Zn185 2.032 . S
O186 C190 1.278 . S
C187 O188 1.203 . S
C187 O194 1.267 . S
O188 C187 1.203 . S
O189 C182 1.185 . S
O189 Zn185 2.086 . S
C190 O186 1.278 . S
C190 O191 1.211 . S
O191 C190 1.211 . S
C192 O184 1.284 . S
C192 O193 1.273 . S
O193 C192 1.273 . S
O194 Zn185 1.977 . S
O194 C187 1.267 . S
C195 O196 1.160 . S
C195 O202 1.185 . S
O196 C195 1.160 . S
O197 Zn198 1.899 . S
O197 C205 1.284 . S
Zn198 O197 1.899 . S
Zn198 O199 2.032 . S
Zn198 O202 2.086 . S
Zn198 O207 1.977 . S
O199 Zn198 2.032 . S
O199 C203 1.278 . S
C200 O201 1.203 . S
C200 O207 1.267 . S
O201 C200 1.203 . S
O202 C195 1.185 . S
O202 Zn198 2.086 . S
C203 O199 1.278 . S
C203 O204 1.211 . S
O204 C203 1.211 . S
C205 O197 1.284 . S
C205 O206 1.273 . S
O206 C205 1.273 . S
O207 Zn198 1.977 . S
O207 C200 1.267 . S
C208 C209 1.369 . S
C208 C210 1.419 1_554 S
C208 H212 0.930 . S
C209 C208 1.369 . S
C209 C218 1.429 1_455 S
C210 C208 1.419 1_556 S
C210 C211 1.363 . S
C210 H213 0.929 . S
C211 C210 1.363 . S
C211 C217 1.428 1_455 S
H212 C208 0.930 . S
H213 C210 0.929 . S
S214 N215 1.613 1_556 S
S214 N216 1.610 . S
N215 S214 1.613 1_554 S
N215 C218 1.350 . S
N216 S214 1.610 . S
N216 C217 1.351 . S
C217 C211 1.428 1_655 S
C217 N216 1.351 . S
C217 C218 1.434 1_556 S
C218 C209 1.429 1_655 S
C218 N215 1.350 . S
C218 C217 1.434 1_554 S
C219 C220 1.369 . S
C219 C221 1.419 . S
C219 H223 0.930 1_545 S
C220 C219 1.369 . S
C220 C229 1.429 . S
C221 C219 1.419 . S
C221 C222 1.363 . S
C221 H224 0.929 1_545 S
C222 C221 1.363 . S
C222 C228 1.428 . S
H223 C219 0.930 1_565 S
H224 C221 0.929 1_565 S
S225 N226 1.613 . S
S225 N227 1.610 . S
N226 S225 1.613 . S
N226 C229 1.350 . S
N227 S225 1.610 . S
N227 C228 1.351 . S
C228 C222 1.428 . S
C228 N227 1.351 . S
C228 C229 1.434 . S
C229 C220 1.429 . S
C229 N226 1.350 . S
C229 C228 1.434 . S
C230 C231 1.369 . S
C230 C232 1.419 . S
C230 H234 0.930 . S
C231 C230 1.369 . S
C231 C240 1.429 1_554 S
C232 C230 1.419 . S
C232 C233 1.363 1_554 S
C232 H235 0.929 . S
C233 C232 1.363 1_556 S
C233 C239 1.428 . S
H234 C230 0.930 . S
H235 C232 0.929 . S
S236 N237 1.613 . S
S236 N238 1.610 . S
N237 S236 1.613 . S
N237 C240 1.350 . S
N238 S236 1.610 . S
N238 C239 1.351 . S
C239 C233 1.428 . S
C239 N238 1.351 . S
C239 C240 1.434 . S
C240 C231 1.429 1_556 S
C240 N237 1.350 . S
C240 C239 1.434 . S
C241 C242 1.369 . S
C241 C243 1.419 . S
C241 H245 0.930 . S
C242 C241 1.369 . S
C242 C251 1.429 . S
C243 C241 1.419 . S
C243 C244 1.363 . S
C243 H246 0.929 . S
C244 C243 1.363 . S
C244 C250 1.428 . S
H245 C241 0.930 . S
H246 C243 0.929 . S
S247 N248 1.613 . S
S247 N249 1.610 . S
N248 S247 1.613 . S
N248 C251 1.350 . S
N249 S247 1.610 . S
N249 C250 1.351 . S
C250 C244 1.428 . S
C250 N249 1.351 . S
C250 C251 1.434 . S
C251 C242 1.429 . S
C251 N248 1.350 . S
C251 C250 1.434 . S
C252 C253 1.369 . S
C252 C254 1.419 . S
C252 H256 0.930 . S
C253 C252 1.369 . S
C253 C262 1.429 1_556 S
C254 C252 1.419 . S
C254 C255 1.363 1_556 S
C254 H257 0.929 . S
C255 C254 1.363 1_554 S
C255 C261 1.428 . S
H256 C252 0.930 . S
H257 C254 0.929 . S
S258 N259 1.613 . S
S258 N260 1.610 . S
N259 S258 1.613 . S
N259 C262 1.350 1_455 S
N260 S258 1.610 . S
N260 C261 1.351 1_455 S
C261 C255 1.428 . S
C261 N260 1.351 1_655 S
C261 C262 1.434 . S
C262 C253 1.429 1_554 S
C262 N259 1.350 1_655 S
C262 C261 1.434 . S
C263 C264 1.369 . S
C263 C265 1.419 . S
C263 H267 0.930 . S
C264 C263 1.369 . S
C264 C273 1.429 . S
C265 C263 1.419 . S
C265 C266 1.363 . S
C265 H268 0.929 . S
C266 C265 1.363 . S
C266 C272 1.428 . S
H267 C263 0.930 . S
H268 C265 0.929 . S
S269 N270 1.613 . S
S269 N271 1.610 . S
N270 S269 1.613 . S
N270 C273 1.350 1_545 S
N271 S269 1.610 . S
N271 C272 1.351 1_545 S
C272 C266 1.428 . S
C272 N271 1.351 1_565 S
C272 C273 1.434 . S
C273 C264 1.429 . S
C273 N270 1.350 1_565 S
C273 C272 1.434 . S
C274 C275 1.369 1_554 S
C274 C276 1.419 . S
C274 H278 0.930 . S
C275 C274 1.369 1_556 S
C275 C284 1.429 . S
C276 C274 1.419 . S
C276 C277 1.363 . S
C276 H279 0.929 . S
C277 C276 1.363 . S
C277 C283 1.428 1_554 S
H278 C274 0.930 . S
H279 C276 0.929 . S
S280 N281 1.613 . S
S280 N282 1.610 . S
N281 S280 1.613 . S
N281 C284 1.350 . S
N282 S280 1.610 . S
N282 C283 1.351 . S
C283 C277 1.428 1_556 S
C283 N282 1.351 . S
C283 C284 1.434 . S
C284 C275 1.429 . S
C284 N281 1.350 . S
C284 C283 1.434 . S
C285 C286 1.369 . S
C285 C287 1.419 . S
C285 H289 0.930 . S
C286 C285 1.369 . S
C286 C295 1.429 . S
C287 C285 1.419 . S
C287 C288 1.363 . S
C287 H290 0.929 . S
C288 C287 1.363 . S
C288 C294 1.428 . S
H289 C285 0.930 . S
H290 C287 0.929 . S
S291 N292 1.613 . S
S291 N293 1.610 . S
N292 S291 1.613 . S
N292 C295 1.350 . S
N293 S291 1.610 . S
N293 C294 1.351 . S
C294 C288 1.428 . S
C294 N293 1.351 . S
C294 C295 1.434 . S
C295 C286 1.429 . S
C295 N292 1.350 . S
C295 C294 1.434 . S
C296 C297 1.369 . S
C296 C298 1.419 . S
C296 H300 0.930 . S
C297 C296 1.369 . S
C297 C306 1.429 . S
C298 C296 1.419 . S
C298 C299 1.363 . S
C298 H301 0.929 . S
C299 C298 1.363 . S
C299 C305 1.428 . S
H300 C296 0.930 . S
H301 C298 0.929 . S
S302 N303 1.613 . S
S302 N304 1.610 . S
N303 S302 1.613 . S
N303 C306 1.350 . S
N304 S302 1.610 . S
N304 C305 1.351 . S
C305 C299 1.428 . S
C305 N304 1.351 . S
C305 C306 1.434 . S
C306 C297 1.429 . S
C306 N303 1.350 . S
C306 C305 1.434 . S
C307 C308 1.369 . S
C307 C309 1.419 . S
C307 H311 0.930 . S
C308 C307 1.369 . S
C308 C317 1.429 . S
C309 C307 1.419 . S
C309 C310 1.363 . S
C309 H312 0.929 . S
C310 C309 1.363 . S
C310 C316 1.428 . S
H311 C307 0.930 . S
H312 C309 0.929 . S
S313 N314 1.613 . S
S313 N315 1.610 . S
N314 S313 1.613 . S
N314 C317 1.350 . S
N315 S313 1.610 . S
N315 C316 1.351 . S
C316 C310 1.428 . S
C316 N315 1.351 . S
C316 C317 1.434 . S
C317 C308 1.429 . S
C317 N314 1.350 . S
C317 C316 1.434 . S
C318 C319 1.369 . S
C318 C320 1.419 . S
C318 H322 0.930 1_556 S
C319 C318 1.369 . S
C319 C328 1.429 . S
C320 C318 1.419 . S
C320 C321 1.363 . S
C320 H323 0.929 . S
C321 C320 1.363 . S
C321 C327 1.428 . S
H322 C318 0.930 1_554 S
H323 C320 0.929 . S
S324 N325 1.613 . S
S324 N326 1.610 . S
N325 S324 1.613 . S
N325 C328 1.350 . S
N326 S324 1.610 . S
N326 C327 1.351 . S
C327 C321 1.428 . S
C327 N326 1.351 . S
C327 C328 1.434 . S
C328 C319 1.429 . S
C328 N325 1.350 . S
C328 C327 1.434 . S
C329 C330 1.369 . S
C329 C331 1.419 . S
C329 H333 0.930 . S
C330 C329 1.369 . S
C330 C339 1.429 . S
C331 C329 1.419 . S
C331 C332 1.363 . S
C331 H334 0.929 . S
C332 C331 1.363 . S
C332 C338 1.428 . S
H333 C329 0.930 . S
H334 C331 0.929 . S
S335 N336 1.613 . S
S335 N337 1.610 . S
N336 S335 1.613 . S
N336 C339 1.350 . S
N337 S335 1.610 . S
N337 C338 1.351 . S
C338 C332 1.428 . S
C338 N337 1.351 . S
C338 C339 1.434 . S
C339 C330 1.429 . S
C339 N336 1.350 . S
C339 C338 1.434 . S
C340 C341 1.369 . S
C340 C342 1.419 . S
C340 H344 0.930 . S
C341 C340 1.369 . S
C341 C350 1.429 . S
C342 C340 1.419 . S
C342 C343 1.363 . S
C342 H345 0.929 . S
C343 C342 1.363 . S
C343 C349 1.428 . S
H344 C340 0.930 . S
H345 C342 0.929 . S
S346 N347 1.613 . S
S346 N348 1.610 . S
N347 S346 1.613 . S
N347 C350 1.350 . S
N348 S346 1.610 . S
N348 C349 1.351 . S
C349 C343 1.428 . S
C349 N348 1.351 . S
C349 C350 1.434 . S
C350 C341 1.429 . S
C350 N347 1.350 . S
C350 C349 1.434 . S
C351 C352 1.369 . S
C351 C353 1.419 . S
C351 H355 0.930 . S
C352 C351 1.369 . S
C352 C361 1.429 . S
C353 C351 1.419 . S
C353 C354 1.363 . S
C353 H356 0.929 . S
C354 C353 1.363 . S
C354 C360 1.428 . S
H355 C351 0.930 . S
H356 C353 0.929 . S
S357 N358 1.613 . S
S357 N359 1.610 . S
N358 S357 1.613 . S
N358 C361 1.350 . S
N359 S357 1.610 . S
N359 C360 1.351 . S
C360 C354 1.428 . S
C360 N359 1.351 . S
C360 C361 1.434 . S
C361 C352 1.429 . S
C361 N358 1.350 . S
C361 C360 1.434 . S
C362 C363 1.369 . S
C362 C364 1.419 . S
C362 H366 0.930 . S
C363 C362 1.369 . S
C363 C372 1.429 . S
C364 C362 1.419 . S
C364 C365 1.363 . S
C364 H367 0.929 . S
C365 C364 1.363 . S
C365 C371 1.428 . S
H366 C362 0.930 . S
H367 C364 0.929 . S
S368 N369 1.613 1_556 S
S368 N370 1.610 . S
N369 S368 1.613 1_554 S
N369 C372 1.350 . S
N370 S368 1.610 . S
N370 C371 1.351 1_556 S
C371 C365 1.428 . S
C371 N370 1.351 1_554 S
C371 C372 1.434 . S
C372 C363 1.429 . S
C372 N369 1.350 . S
C372 C371 1.434 . S
C373 C374 1.369 . S
C373 C375 1.419 . S
C373 H377 0.930 . S
C374 C373 1.369 . S
C374 C383 1.429 . S
C375 C373 1.419 . S
C375 C376 1.363 . S
C375 H378 0.929 . S
C376 C375 1.363 . S
C376 C382 1.428 . S
H377 C373 0.930 . S
H378 C375 0.929 . S
S379 N380 1.613 . S
S379 N381 1.610 . S
N380 S379 1.613 . S
N380 C383 1.350 . S
N381 S379 1.610 . S
N381 C382 1.351 . S
C382 C376 1.428 . S
C382 N381 1.351 . S
C382 C383 1.434 . S
C383 C374 1.429 . S
C383 N380 1.350 . S
C383 C382 1.434 . S
C384 C385 1.369 . S
C384 C386 1.419 . S
C384 H388 0.930 . S
C385 C384 1.369 . S
C385 C394 1.429 . S
C386 C384 1.419 . S
C386 C387 1.363 . S
C386 H389 0.929 . S
C387 C386 1.363 . S
C387 C393 1.428 . S
H388 C384 0.930 . S
H389 C386 0.929 . S
S390 N391 1.613 . S
S390 N392 1.610 1_556 S
N391 S390 1.613 . S
N391 C394 1.350 1_556 S
N392 S390 1.610 1_554 S
N392 C393 1.351 . S
C393 C387 1.428 . S
C393 N392 1.351 . S
C393 C394 1.434 . S
C394 C385 1.429 . S
C394 N391 1.350 1_554 S
C394 C393 1.434 . S
C395 C396 1.369 . S
C395 C397 1.419 . S
C395 H399 0.930 . S
C396 C395 1.369 . S
C396 C405 1.429 . S
C397 C395 1.419 . S
C397 C398 1.363 . S
C397 H400 0.929 . S
C398 C397 1.363 . S
C398 C404 1.428 . S
H399 C395 0.930 . S
H400 C397 0.929 . S
S401 N402 1.613 . S
S401 N403 1.610 . S
N402 S401 1.613 . S
N402 C405 1.350 . S
N403 S401 1.610 . S
N403 C404 1.351 . S
C404 C398 1.428 . S
C404 N403 1.351 . S
C404 C405 1.434 . S
C405 C396 1.429 . S
C405 N402 1.350 . S
C405 C404 1.434 . S
C406 C407 1.369 . S
C406 C408 1.419 . S
C406 H410 0.930 . S
C407 C406 1.369 . S
C407 C416 1.429 . S
C408 C406 1.419 . S
C408 C409 1.363 . S
C408 H411 0.929 . S
C409 C408 1.363 . S
C409 C415 1.428 . S
H410 C406 0.930 . S
H411 C408 0.929 . S
S412 N413 1.613 . S
S412 N414 1.610 1_554 S
N413 S412 1.613 . S
N413 C416 1.350 . S
N414 S412 1.610 1_556 S
N414 C415 1.351 1_556 S
C415 C409 1.428 . S
C415 N414 1.351 1_554 S
C415 C416 1.434 . S
C416 C407 1.429 . S
C416 N413 1.350 . S
C416 C415 1.434 . S
C417 C418 1.369 . S
C417 C419 1.419 . S
C417 H421 0.930 . S
C418 C417 1.369 . S
C418 C427 1.429 . S
C419 C417 1.419 . S
C419 C420 1.363 . S
C419 H422 0.929 . S
C420 C419 1.363 . S
C420 C426 1.428 . S
H421 C417 0.930 . S
H422 C419 0.929 . S
S423 N424 1.613 . S
S423 N425 1.610 . S
N424 S423 1.613 . S
N424 C427 1.350 . S
N425 S423 1.610 . S
N425 C426 1.351 . S
C426 C420 1.428 . S
C426 N425 1.351 . S
C426 C427 1.434 . S
C427 C418 1.429 . S
C427 N424 1.350 . S
C427 C426 1.434 . S
C428 C429 1.369 . S
C428 C430 1.419 . S
C428 H432 0.930 . S
C429 C428 1.369 . S
C429 C438 1.429 . S
C430 C428 1.419 . S
C430 C431 1.363 . S
C430 H433 0.929 1_556 S
C431 C430 1.363 . S
C431 C437 1.428 . S
H432 C428 0.930 . S
H433 C430 0.929 1_554 S
S434 N435 1.613 . S
S434 N436 1.610 . S
N435 S434 1.613 . S
N435 C438 1.350 . S
N436 S434 1.610 . S
N436 C437 1.351 . S
C437 C431 1.428 . S
C437 N436 1.351 . S
C437 C438 1.434 . S
C438 C429 1.429 . S
C438 N435 1.350 . S
C438 C437 1.434 . S
C439 C440 1.369 . S
C439 C441 1.419 . S
C439 H443 0.930 . S
C440 C439 1.369 . S
C440 C449 1.429 . S
C441 C439 1.419 . S
C441 C442 1.363 . S
C441 H444 0.929 . S
C442 C441 1.363 . S
C442 C448 1.428 . S
H443 C439 0.930 . S
H444 C441 0.929 . S
S445 N446 1.613 . S
S445 N447 1.610 . S
N446 S445 1.613 . S
N446 C449 1.350 . S
N447 S445 1.610 . S
N447 C448 1.351 . S
C448 C442 1.428 . S
C448 N447 1.351 . S
C448 C449 1.434 . S
C449 C440 1.429 . S
C449 N446 1.350 . S
C449 C448 1.434 . S
C450 C451 1.369 . S
C450 C452 1.419 . S
C450 H454 0.930 . S
C451 C450 1.369 . S
C451 C460 1.429 . S
C452 C450 1.419 . S
C452 C453 1.363 . S
C452 H455 0.929 . S
C453 C452 1.363 . S
C453 C459 1.428 . S
H454 C450 0.930 . S
H455 C452 0.929 . S
S456 N457 1.613 . S
S456 N458 1.610 1_554 S
N457 S456 1.613 . S
N457 C460 1.350 1_554 S
N458 S456 1.610 1_556 S
N458 C459 1.351 . S
C459 C453 1.428 . S
C459 N458 1.351 . S
C459 C460 1.434 . S
C460 C451 1.429 . S
C460 N457 1.350 1_556 S
C460 C459 1.434 . S
C461 C462 1.369 . S
C461 C463 1.419 . S
C461 H465 0.930 . S
C462 C461 1.369 . S
C462 C471 1.429 . S
C463 C461 1.419 . S
C463 C464 1.363 . S
C463 H466 0.929 . S
C464 C463 1.363 . S
C464 C470 1.428 . S
H465 C461 0.930 . S
H466 C463 0.929 . S
S467 N468 1.613 . S
S467 N469 1.610 . S
N468 S467 1.613 . S
N468 C471 1.350 . S
N469 S467 1.610 . S
N469 C470 1.351 . S
C470 C464 1.428 . S
C470 N469 1.351 . S
C470 C471 1.434 . S
C471 C462 1.429 . S
C471 N468 1.350 . S
C471 C470 1.434 . S
C472 C473 1.369 . S
C472 C474 1.419 . S
C472 H476 0.930 . S
C473 C472 1.369 . S
C473 C482 1.429 . S
C474 C472 1.419 . S
C474 C475 1.363 . S
C474 H477 0.929 . S
C475 C474 1.363 . S
C475 C481 1.428 . S
H476 C472 0.930 . S
H477 C474 0.929 . S
S478 N479 1.613 . S
S478 N480 1.610 . S
N479 S478 1.613 . S
N479 C482 1.350 . S
N480 S478 1.610 . S
N480 C481 1.351 . S
C481 C475 1.428 . S
C481 N480 1.351 . S
C481 C482 1.434 . S
C482 C473 1.429 . S
C482 N479 1.350 . S
C482 C481 1.434 . S
C483 C484 1.369 . S
C483 C485 1.419 . S
C483 H487 0.930 . S
C484 C483 1.369 . S
C484 C493 1.429 . S
C485 C483 1.419 . S
C485 C486 1.363 . S
C485 H488 0.929 . S
C486 C485 1.363 . S
C486 C492 1.428 . S
H487 C483 0.930 . S
H488 C485 0.929 . S
S489 N490 1.613 . S
S489 N491 1.610 . S
N490 S489 1.613 . S
N490 C493 1.350 . S
N491 S489 1.610 . S
N491 C492 1.351 . S
C492 C486 1.428 . S
C492 N491 1.351 . S
C492 C493 1.434 . S
C493 C484 1.429 . S
C493 N490 1.350 . S
C493 C492 1.434 . S
C494 C495 1.369 . S
C494 C496 1.419 . S
C494 H498 0.930 . S
C495 C494 1.369 . S
C495 C504 1.429 . S
C496 C494 1.419 . S
C496 C497 1.363 . S
C496 H499 0.929 . S
C497 C496 1.363 . S
C497 C503 1.428 . S
H498 C494 0.930 . S
H499 C496 0.929 . S
S500 N501 1.613 . S
S500 N502 1.610 . S
N501 S500 1.613 . S
N501 C504 1.350 . S
N502 S500 1.610 . S
N502 C503 1.351 . S
C503 C497 1.428 . S
C503 N502 1.351 . S
C503 C504 1.434 . S
C504 C495 1.429 . S
C504 N501 1.350 . S
C504 C503 1.434 . S
C505 C506 1.369 . S
C505 C507 1.419 . S
C505 H509 0.930 . S
C506 C505 1.369 . S
C506 C515 1.429 . S
C507 C505 1.419 . S
C507 C508 1.363 . S
C507 H510 0.929 . S
C508 C507 1.363 . S
C508 C514 1.428 . S
H509 C505 0.930 . S
H510 C507 0.929 . S
S511 N512 1.613 . S
S511 N513 1.610 . S
N512 S511 1.613 . S
N512 C515 1.350 . S
N513 S511 1.610 . S
N513 C514 1.351 . S
C514 C508 1.428 . S
C514 N513 1.351 . S
C514 C515 1.434 . S
C515 C506 1.429 . S
C515 N512 1.350 . S
C515 C514 1.434 . S
C516 C517 1.369 . S
C516 C518 1.419 . S
C516 H520 0.930 . S
C517 C516 1.369 . S
C517 C526 1.429 . S
C518 C516 1.419 . S
C518 C519 1.363 . S
C518 H521 0.929 . S
C519 C518 1.363 . S
C519 C525 1.428 . S
H520 C516 0.930 . S
H521 C518 0.929 . S
S522 N523 1.613 . S
S522 N524 1.610 . S
N523 S522 1.613 . S
N523 C526 1.350 . S
N524 S522 1.610 . S
N524 C525 1.351 . S
C525 C519 1.428 . S
C525 N524 1.351 . S
C525 C526 1.434 . S
C526 C517 1.429 . S
C526 N523 1.350 . S
C526 C525 1.434 . S
C527 C528 1.369 . S
C527 C529 1.419 . S
C527 H531 0.930 . S
C528 C527 1.369 . S
C528 C537 1.429 . S
C529 C527 1.419 . S
C529 C530 1.363 . S
C529 H532 0.929 . S
C530 C529 1.363 . S
C530 C536 1.428 . S
H531 C527 0.930 . S
H532 C529 0.929 . S
S533 N534 1.613 . S
S533 N535 1.610 . S
N534 S533 1.613 . S
N534 C537 1.350 . S
N535 S533 1.610 . S
N535 C536 1.351 . S
C536 C530 1.428 . S
C536 N535 1.351 . S
C536 C537 1.434 . S
C537 C528 1.429 . S
C537 N534 1.350 . S
C537 C536 1.434 . S
C538 C539 1.369 . S
C538 C540 1.419 . S
C538 H542 0.930 . S
C539 C538 1.369 . S
C539 C548 1.429 . S
C540 C538 1.419 . S
C540 C541 1.363 . S
C540 H543 0.929 . S
C541 C540 1.363 . S
C541 C547 1.428 . S
H542 C538 0.930 . S
H543 C540 0.929 . S
S544 N545 1.613 . S
S544 N546 1.610 . S
N545 S544 1.613 . S
N545 C548 1.350 . S
N546 S544 1.610 . S
N546 C547 1.351 . S
C547 C541 1.428 . S
C547 N546 1.351 . S
C547 C548 1.434 . S
C548 C539 1.429 . S
C548 N545 1.350 . S
C548 C547 1.434 . S
C549 C550 1.369 . S
C549 C551 1.419 . S
C549 H553 0.930 . S
C550 C549 1.369 . S
C550 C559 1.429 . S
C551 C549 1.419 . S
C551 C552 1.363 . S
C551 H554 0.929 . S
C552 C551 1.363 . S
C552 C558 1.428 . S
H553 C549 0.930 . S
H554 C551 0.929 . S
S555 N556 1.613 . S
S555 N557 1.610 . S
N556 S555 1.613 . S
N556 C559 1.350 . S
N557 S555 1.610 . S
N557 C558 1.351 . S
C558 C552 1.428 . S
C558 N557 1.351 . S
C558 C559 1.434 . S
C559 C550 1.429 . S
C559 N556 1.350 . S
C559 C558 1.434 . S
C209 C0 1.327 . S
C211 C52 1.330 . S
C220 C65 1.331 . S
C222 C13 1.334 . S
C231 C26 1.331 . S
C233 C78 1.334 . S
C242 C39 1.330 . S
C244 C91 1.328 . S
C253 C104 1.419 . S
C255 C156 1.422 . S
C264 C169 1.420 . S
C266 C117 1.422 . S
C275 C130 1.419 . S
C277 C182 1.417 . S
C286 C143 1.417 . S
C288 C195 1.420 . S
C297 C8 1.327 1_556 S
C299 C205 1.295 . S
C308 C166 1.303 . S
C310 C21 1.320 . S
C319 C34 1.327 1_556 S
C321 C179 1.291 . S
C330 C192 1.289 . S
C332 C47 1.328 . S
C341 C127 1.302 . S
C343 C60 1.320 1_554 S
C352 C140 1.289 . S
C354 C73 1.328 . S
C363 C153 1.303 . S
C365 C86 1.319 1_554 S
C374 C114 1.302 . S
C376 C99 1.319 . S
C385 C112 1.254 1_554 S
C387 C96 1.166 . S
C396 C57 1.157 . S
C398 C125 1.257 . S
C407 C70 1.162 . S
C409 C138 1.254 1_554 S
C418 C151 1.255 . S
C420 C83 1.157 . S
C429 C18 1.156 . S
C431 C164 1.256 1_556 S
C440 C177 1.258 . S
C442 C31 1.161 . S
C451 C190 1.253 1_556 S
C453 C44 1.161 . S
C462 C203 1.257 . S
C464 C5 1.158 . S
C473 C101 1.443 . S
C475 C10 1.441 . S
C484 C23 1.436 . S
C486 C62 1.437 . S
C495 C36 1.439 . S
C497 C75 1.440 . S
C506 C49 1.441 . S
C508 C88 1.439 . S
C517 C200 1.257 . S
C519 C109 1.250 . S
C528 C161 1.259 . S
C530 C122 1.252 . S
C539 C174 1.252 . S
C541 C135 1.248 . S
C550 C187 1.257 . S
C552 C148 1.250 . S
