# Generated by pormake.
# Topology wjv, (5)-cn, num edge types: 1
# Building blocks:
#     Node 0, Type 0, BuildingBlock: XOMCOT_clean_sbu_1, # of connection points: 5
#     Node 1, Type 0, BuildingBlock: XOMCOT_clean_sbu_1, # of connection points: 5
#     Node 2, Type 0, BuildingBlock: XOMCOT_clean_sbu_1, # of connection points: 5
#     Node 3, Type 0, BuildingBlock: XOMCOT_clean_sbu_1, # of connection points: 5
#     Node 4, Type 0, BuildingBlock: XOMCOT_clean_sbu_1, # of connection points: 5
#     Node 5, Type 0, BuildingBlock: XOMCOT_clean_sbu_1, # of connection points: 5
#     Node 6, Type 0, BuildingBlock: XOMCOT_clean_sbu_1, # of connection points: 5
#     Node 7, Type 0, BuildingBlock: XOMCOT_clean_sbu_1, # of connection points: 5
#     Node 8, Type 0, BuildingBlock: XOMCOT_clean_sbu_1, # of connection points: 5
#     Node 9, Type 0, BuildingBlock: XOMCOT_clean_sbu_1, # of connection points: 5
#     Node 10, Type 0, BuildingBlock: XOMCOT_clean_sbu_1, # of connection points: 5
#     Node 11, Type 0, BuildingBlock: XOMCOT_clean_sbu_1, # of connection points: 5
#     Edge 12, Type (0, 0), BuildingBlock: TEMPAE_clean_linker_10, # of connection points: 2
#     Edge 13, Type (0, 0), BuildingBlock: TEMPAE_clean_linker_10, # of connection points: 2
#     Edge 14, Type (0, 0), BuildingBlock: TEMPAE_clean_linker_10, # of connection points: 2
#     Edge 15, Type (0, 0), BuildingBlock: TEMPAE_clean_linker_10, # of connection points: 2
#     Edge 16, Type (0, 0), BuildingBlock: TEMPAE_clean_linker_10, # of connection points: 2
#     Edge 17, Type (0, 0), BuildingBlock: TEMPAE_clean_linker_10, # of connection points: 2
#     Edge 18, Type (0, 0), BuildingBlock: TEMPAE_clean_linker_10, # of connection points: 2
#     Edge 19, Type (0, 0), BuildingBlock: TEMPAE_clean_linker_10, # of connection points: 2
#     Edge 20, Type (0, 0), BuildingBlock: TEMPAE_clean_linker_10, # of connection points: 2
#     Edge 21, Type (0, 0), BuildingBlock: TEMPAE_clean_linker_10, # of connection points: 2
#     Edge 22, Type (0, 0), BuildingBlock: TEMPAE_clean_linker_10, # of connection points: 2
#     Edge 23, Type (0, 0), BuildingBlock: TEMPAE_clean_linker_10, # of connection points: 2
#     Edge 24, Type (0, 0), BuildingBlock: TEMPAE_clean_linker_10, # of connection points: 2
#     Edge 25, Type (0, 0), BuildingBlock: TEMPAE_clean_linker_10, # of connection points: 2
#     Edge 26, Type (0, 0), BuildingBlock: TEMPAE_clean_linker_10, # of connection points: 2
#     Edge 27, Type (0, 0), BuildingBlock: TEMPAE_clean_linker_10, # of connection points: 2
#     Edge 28, Type (0, 0), BuildingBlock: TEMPAE_clean_linker_10, # of connection points: 2
#     Edge 29, Type (0, 0), BuildingBlock: TEMPAE_clean_linker_10, # of connection points: 2
#     Edge 30, Type (0, 0), BuildingBlock: TEMPAE_clean_linker_10, # of connection points: 2
#     Edge 31, Type (0, 0), BuildingBlock: TEMPAE_clean_linker_10, # of connection points: 2
#     Edge 32, Type (0, 0), BuildingBlock: TEMPAE_clean_linker_10, # of connection points: 2
#     Edge 33, Type (0, 0), BuildingBlock: TEMPAE_clean_linker_10, # of connection points: 2
#     Edge 34, Type (0, 0), BuildingBlock: TEMPAE_clean_linker_10, # of connection points: 2
#     Edge 35, Type (0, 0), BuildingBlock: TEMPAE_clean_linker_10, # of connection points: 2
#     Edge 36, Type (0, 0), BuildingBlock: TEMPAE_clean_linker_10, # of connection points: 2
#     Edge 37, Type (0, 0), BuildingBlock: TEMPAE_clean_linker_10, # of connection points: 2
#     Edge 38, Type (0, 0), BuildingBlock: TEMPAE_clean_linker_10, # of connection points: 2
#     Edge 39, Type (0, 0), BuildingBlock: TEMPAE_clean_linker_10, # of connection points: 2
#     Edge 40, Type (0, 0), BuildingBlock: TEMPAE_clean_linker_10, # of connection points: 2
#     Edge 41, Type (0, 0), BuildingBlock: TEMPAE_clean_linker_10, # of connection points: 2
# Relax obj value: 0.260
# Max RMSD: 0.170
# Mean RMSD: 0.170
data_MOF--net-wjv--node1-XOMCOT_clean_sbu_1--edge1-TEMPAE_clean_linker_10
_symmetry_space_group_name_H-M    P1
_symmetry_Int_Tables_number       1
_symmetry_cell_setting            triclinic
loop_
_symmetry_equiv_pos_as_xyz
'x, y, z'
_cell_length_a     35.15522
_cell_length_b     35.114712
_cell_length_c     50.331569
_cell_angle_alpha  89.916877
_cell_angle_beta   90.199224
_cell_angle_gamma 120.46752
loop_
_atom_site_label
_atom_site_type_symbol
_atom_site_fract_x
_atom_site_fract_y
_atom_site_fract_z
_atom_type_partial_charge
C0 C 0.20614 0.31263 0.2336 0.0
C1 C 0.21174 0.29995 0.2584 0.0
N2 N 0.2526 0.32909 0.26748 0.0
N3 N 0.2428 0.35023 0.22644 0.0
C4 C 0.27046 0.35979 0.24771 0.0
H5 H 0.17693 0.29477 0.22145 0.0
Co6 Co 0.24826 0.37729 0.19241 0.0
C7 C 0.34438 0.44835 0.18904 0.0
O8 O 0.34 0.43677 0.16391 0.0
N9 N 0.25219 0.40485 0.15852 0.0
C10 C 0.26291 0.45769 0.12966 0.0
C11 C 0.26782 0.44856 0.15559 0.0
C12 C 0.23537 0.38805 0.13408 0.0
N13 N 0.2423 0.41943 0.11598 0.0
O14 O 0.20463 0.39516 0.20349 0.0
H15 H 0.28166 0.47253 0.17149 0.0
H16 H 0.2155 0.35343 0.12974 0.0
O17 O 0.30915 0.43106 0.20391 0.0
C18 C 0.16999 0.36188 0.1928 0.0
O19 O 0.17666 0.3337 0.1795 0.0
N20 N 0.27837 0.34987 0.18005 0.0
C21 C 0.30259 0.28882 0.16635 0.0
C22 C 0.32699 0.3214 0.18534 0.0
C23 C 0.31397 0.35141 0.19212 0.0
C24 C 0.25486 0.31826 0.16154 0.0
C25 C 0.268 0.28935 0.15312 0.0
H26 H 0.33005 0.3728 0.20873 0.0
H27 H 0.2229 0.31151 0.15539 0.0
H28 H 0.30339 0.38821 0.2484 0.0
H29 H 0.18695 0.27091 0.26865 0.0
H30 H 0.27351 0.49021 0.12177 0.0
H31 H 0.35288 0.321 0.19685 0.0
H32 H 0.24779 0.26412 0.13873 0.0
C33 C 0.88351 0.20452 0.57646 0.0
C34 C 0.90157 0.21383 0.60155 0.0
N35 N 0.92006 0.25748 0.60592 0.0
N36 N 0.88991 0.24193 0.56477 0.0
C37 C 0.91254 0.27385 0.58333 0.0
H38 H 0.86741 0.17232 0.56723 0.0
Co39 Co 0.87075 0.24352 0.52956 0.0
C40 C 0.90301 0.33902 0.51782 0.0
O41 O 0.90682 0.32757 0.49359 0.0
N42 N 0.8497 0.24381 0.49464 0.0
C43 C 0.80907 0.25252 0.4638 0.0
C44 C 0.81895 0.25547 0.49039 0.0
C45 C 0.8566 0.23223 0.47017 0.0
N46 N 0.8328 0.23787 0.45116 0.0
O47 O 0.80833 0.20753 0.54062 0.0
H48 H 0.80495 0.26604 0.50579 0.0
H49 H 0.87847 0.22003 0.46581 0.0
O50 O 0.88344 0.3078 0.53547 0.0
C51 C 0.80037 0.16899 0.5327 0.0
O52 O 0.83268 0.16623 0.52181 0.0
N53 N 0.92809 0.26687 0.5181 0.0
C54 C 0.01033 0.28376 0.5032 0.0
C55 C 1.0062 0.31496 0.51812 0.0
C56 C 0.96453 0.30528 0.52606 0.0
C57 C 0.9324 0.23607 0.50424 0.0
C58 C 0.97301 0.24459 0.49547 0.0
H59 H 0.9623 0.32739 0.53992 0.0
H60 H 0.90438 0.20363 0.50095 0.0
H61 H 0.92348 0.30843 0.58043 0.0
H62 H 0.90241 0.19044 0.61522 0.0
H63 H 0.78568 0.25985 0.45452 0.0
H64 H 0.03498 0.34436 0.52573 0.0
H65 H 0.97566 0.21905 0.48503 0.0
C66 C 0.69982 0.89116 0.90879 0.0
C67 C 0.70866 0.90706 0.93434 0.0
N68 N 0.67515 0.91198 0.94287 0.0
N69 N 0.66096 0.88635 0.90079 0.0
C70 C 0.6457 0.89755 0.92253 0.0
H71 H 0.72271 0.88806 0.896 0.0
Co72 Co 0.64367 0.87952 0.86429 0.0
C73 C 0.58895 0.92574 0.87335 0.0
O74 O 0.62448 0.96347 0.86852 0.0
N75 N 0.62454 0.87132 0.82796 0.0
C76 C 0.60393 0.88658 0.78945 0.0
C77 C 0.60939 0.89548 0.81594 0.0
C78 C 0.6275 0.84723 0.80777 0.0
N79 N 0.61534 0.85623 0.78403 0.0
O80 O 0.61324 0.81511 0.86909 0.0
H81 H 0.60715 0.92185 0.82491 0.0
H82 H 0.64013 0.82508 0.81014 0.0
O83 O 0.59045 0.88933 0.87297 0.0
C84 C 0.64596 0.80953 0.86319 0.0
O85 O 0.68279 0.8441 0.85503 0.0
N86 N 0.68432 0.94089 0.85798 0.0
C87 C 0.74239 0.02868 0.84541 0.0
C88 C 0.72829 0.01623 0.87154 0.0
C89 C 0.70018 0.97241 0.87749 0.0
C90 C 0.70465 0.952 0.83365 0.0
C91 C 0.73215 0.99594 0.82647 0.0
H92 H 0.68809 0.96581 0.89737 0.0
H93 H 0.69992 0.92715 0.81936 0.0
H94 H 0.61716 0.90154 0.92214 0.0
H95 H 0.73944 0.91834 0.94492 0.0
H96 H 0.59548 0.90406 0.77509 0.0
H97 H 0.73849 0.04023 0.88747 0.0
H98 H 0.74548 1.004 0.80655 0.0
C99 C 0.80544 0.69946 0.23732 0.0
C100 C 0.79807 0.70912 0.26258 0.0
N101 N 0.75714 0.67817 0.27004 0.0
N102 N 0.7696 0.66211 0.22863 0.0
C103 C 0.74047 0.65004 0.24911 0.0
H104 H 0.83528 0.71893 0.22604 0.0
Co105 Co 0.76588 0.63616 0.19474 0.0
C106 C 0.67066 0.55892 0.19147 0.0
O107 O 0.67385 0.56717 0.16586 0.0
N108 N 0.76353 0.61027 0.16124 0.0
C109 C 0.75978 0.5613 0.13175 0.0
C110 C 0.75309 0.56794 0.1578 0.0
C111 C 0.7785 0.62904 0.1371 0.0
N112 N 0.77612 0.6 0.11868 0.0
O113 O 0.81116 0.6202 0.20603 0.0
H114 H 0.74187 0.54348 0.17345 0.0
H115 H 0.79371 0.66381 0.13324 0.0
O116 O 0.70612 0.58025 0.20607 0.0
C117 C 0.84534 0.65429 0.19568 0.0
O118 O 0.83776 0.68265 0.18332 0.0
N119 N 0.73434 0.66183 0.18193 0.0
C120 C 0.70589 0.71987 0.16922 0.0
C121 C 0.67861 0.68158 0.18365 0.0
C122 C 0.69475 0.65444 0.19107 0.0
C123 C 0.75969 0.69772 0.16639 0.0
C124 C 0.74555 0.72645 0.15904 0.0
H125 H 0.67786 0.63134 0.20653 0.0
H126 H 0.79332 0.70757 0.16212 0.0
H127 H 0.70791 0.62102 0.24895 0.0
H128 H 0.82084 0.73737 0.27442 0.0
H129 H 0.75344 0.53029 0.12334 0.0
H130 H 0.64843 0.67658 0.19264 0.0
H131 H 0.76843 0.75678 0.14888 0.0
C132 C 0.08996 0.78799 0.56424 0.0
C133 C 0.074 0.7828 0.58968 0.0
N134 N 0.09303 0.76532 0.60466 0.0
N135 N 0.11783 0.77218 0.5626 0.0
C136 C 0.12079 0.7608 0.58804 0.0
H137 H 0.07886 0.79895 0.54737 0.0
Co138 Co 0.13785 0.76363 0.52886 0.0
C139 C 0.11192 0.66963 0.55558 0.0
O140 O 0.09787 0.67441 0.57867 0.0
N141 N 0.15792 0.75602 0.49524 0.0
C142 C 0.15906 0.72187 0.45832 0.0
C143 C 0.14822 0.7167 0.48466 0.0
C144 C 0.17531 0.78479 0.47463 0.0
N145 N 0.17557 0.76454 0.4518 0.0
O146 O 0.1996 0.80792 0.53886 0.0
H147 H 0.13046 0.68505 0.49444 0.0
H148 H 0.18409 0.81905 0.4758 0.0
O149 O 0.13185 0.70331 0.53967 0.0
C150 C 0.19966 0.84372 0.53216 0.0
O151 O 0.16284 0.83907 0.52231 0.0
N152 N 0.07992 0.73113 0.51686 0.0
C153 C 0.9945 0.70414 0.50218 0.0
C154 C 1.00272 0.68784 0.52545 0.0
C155 C 0.04599 0.70265 0.53272 0.0
C156 C 0.0716 0.74452 0.49316 0.0
C157 C 0.02889 0.72981 0.48486 0.0
H158 H 0.05193 0.69438 0.55224 0.0
H159 H 0.09766 0.77044 0.48175 0.0
H160 H 0.1414 0.7477 0.59413 0.0
H161 H 0.04789 0.78834 0.59623 0.0
H162 H 0.15174 0.69535 0.44453 0.0
H163 H 0.97671 0.669 0.53967 0.0
H164 H 0.02333 0.74396 0.46716 0.0
C165 C 0.30653 0.09042 0.8952 0.0
C166 C 0.2918 0.07104 0.91955 0.0
N167 N 0.32638 0.0757 0.934 0.0
N168 N 0.35046 0.10769 0.89367 0.0
C169 C 0.36182 0.09861 0.91774 0.0
H170 H 0.28589 0.08949 0.87894 0.0
Co171 Co 0.38067 0.12948 0.86087 0.0
C172 C 0.46737 0.12699 0.88388 0.0
O173 O 0.49417 0.16192 0.89802 0.0
N174 N 0.41019 0.15082 0.82776 0.0
C175 C 0.44956 0.15619 0.792 0.0
C176 C 0.44348 0.14599 0.81849 0.0
C177 C 0.3971 0.16474 0.80626 0.0
N178 N 0.41972 0.16713 0.78392 0.0
O179 O 0.39989 0.18983 0.8724 0.0
H180 H 0.46053 0.1327 0.82944 0.0
H181 H 0.3688 0.16905 0.8065 0.0
O182 O 0.4325 0.12503 0.87406 0.0
C183 C 0.36689 0.19366 0.86473 0.0
O184 O 0.33454 0.16043 0.85191 0.0
N185 N 0.35548 0.07273 0.84862 0.0
C186 C 0.29519 0.98702 0.83569 0.0
C187 C 0.3239 0.99586 0.85703 0.0
C188 C 0.35284 0.03936 0.8638 0.0
C189 C 0.32967 0.06407 0.82661 0.0
C190 C 0.29979 0.02109 0.81934 0.0
H191 H 0.37114 0.0462 0.88215 0.0
H192 H 0.32812 0.09017 0.81638 0.0
H193 H 0.39506 0.10674 0.92265 0.0
H194 H 0.2575 0.05282 0.9253 0.0
H195 H 0.47318 0.15358 0.77963 0.0
H196 H 0.31962 0.96988 0.87052 0.0
H197 H 0.2763 0.01491 0.80355 0.0
C198 C 0.69788 0.80472 0.47543 0.0
C199 C 0.70811 0.79778 0.45031 0.0
N200 N 0.67534 0.75858 0.44139 0.0
N201 N 0.6585 0.77039 0.48275 0.0
C202 C 0.64559 0.74234 0.46157 0.0
H203 H 0.71864 0.83283 0.48786 0.0
Co204 Co 0.6357 0.76875 0.51714 0.0
C205 C 0.56615 0.67417 0.5273 0.0
O206 O 0.57988 0.68449 0.55194 0.0
N207 N 0.61349 0.76913 0.55152 0.0
C208 C 0.56555 0.76267 0.58268 0.0
C209 C 0.57159 0.75955 0.55593 0.0
C210 C 0.63271 0.78012 0.57588 0.0
N211 N 0.60419 0.77572 0.595 0.0
O212 O 0.61408 0.80845 0.50512 0.0
H213 H 0.54673 0.75008 0.54062 0.0
H214 H 0.66675 0.79116 0.58015 0.0
O215 O 0.58104 0.70605 0.50986 0.0
C216 C 0.64677 0.84598 0.51322 0.0
O217 O 0.6789 0.84529 0.52611 0.0
N218 N 0.66553 0.74139 0.52926 0.0
C219 C 0.72969 0.72049 0.53939 0.0
C220 C 0.69141 0.69057 0.52573 0.0
C221 C 0.66048 0.70261 0.51982 0.0
C222 C 0.70245 0.77 0.54308 0.0
C223 C 0.73417 0.75942 0.54942 0.0
H224 H 0.63558 0.683 0.50531 0.0
H225 H 0.70978 0.80321 0.54691 0.0
H226 H 0.61529 0.71067 0.46098 0.0
H227 H 0.73821 0.8195 0.43968 0.0
H228 H 0.53546 0.75654 0.59229 0.0
H229 H 0.68863 0.6614 0.51647 0.0
H230 H 0.76473 0.78426 0.55861 0.0
C231 C 0.90628 0.7044 0.80993 0.0
C232 C 0.92625 0.71693 0.78558 0.0
N233 N 0.9312 0.68405 0.77572 0.0
N234 N 0.89802 0.66349 0.81586 0.0
C235 C 0.91396 0.65192 0.79462 0.0
H236 H 0.89923 0.72457 0.82286 0.0
Co237 Co 0.87281 0.63763 0.84908 0.0
C238 C 0.88533 0.55934 0.85563 0.0
O239 O 0.88731 0.56767 0.88118 0.0
N240 N 0.84658 0.61301 0.8824 0.0
C241 C 0.79503 0.56808 0.91111 0.0
C242 C 0.80901 0.57356 0.88515 0.0
C243 C 0.85433 0.63092 0.9071 0.0
N244 N 0.82371 0.60434 0.92479 0.0
O245 O 0.81326 0.62001 0.83557 0.0
H246 H 0.79222 0.55064 0.86905 0.0
H247 H 0.88015 0.66365 0.91229 0.0
O248 O 0.87497 0.58156 0.83945 0.0
C249 C 0.80761 0.65138 0.84439 0.0
O250 O 0.8398 0.68328 0.85809 0.0
N251 N 0.92907 0.66232 0.86299 0.0
C252 C 0.01494 0.71848 0.87858 0.0
C253 C 1.00435 0.68055 0.86402 0.0
C254 C 0.96122 0.65368 0.8555 0.0
C255 C 0.93942 0.69902 0.87745 0.0
C256 C 0.98178 0.72634 0.88678 0.0
H257 H 0.95533 0.62962 0.84051 0.0
H258 H 0.91541 0.70922 0.87995 0.0
H259 H 0.91314 0.62081 0.79306 0.0
H260 H 0.93754 0.74864 0.77621 0.0
H261 H 0.76581 0.53991 0.91922 0.0
H262 H 0.03009 0.67575 0.85581 0.0
H263 H 0.9897 0.75707 0.89647 0.0
C264 C 0.22839 0.91917 0.15035 0.0
C265 C 0.23695 0.94039 0.1263 0.0
N266 N 0.26596 0.93333 0.11307 0.0
N267 N 0.25193 0.89865 0.15269 0.0
C268 C 0.27444 0.90764 0.12936 0.0
H269 H 0.20883 0.9216 0.16606 0.0
Co270 Co 0.25773 0.87751 0.18634 0.0
C271 C 0.34603 0.87452 0.16613 0.0
O272 O 0.3397 0.83895 0.15362 0.0
N273 N 0.26301 0.85763 0.22017 0.0
C274 C 0.2921 0.84916 0.2574 0.0
C275 C 0.29832 0.85739 0.23063 0.0
C276 C 0.23536 0.84844 0.24101 0.0
N277 N 0.25272 0.84407 0.26395 0.0
O278 O 0.21119 0.81602 0.17697 0.0
H279 H 0.32812 0.86536 0.22013 0.0
H280 H 0.20481 0.84876 0.23994 0.0
O281 O 0.3113 0.87516 0.17388 0.0
C282 C 0.17476 0.81361 0.18424 0.0
O283 O 0.1772 0.84992 0.19311 0.0
N284 N 0.29412 0.93478 0.19687 0.0
C285 C 0.32359 0.02315 0.20305 0.0
C286 C 0.34702 0.00965 0.18697 0.0
C287 C 0.33022 0.96488 0.18308 0.0
C288 C 0.27483 0.94782 0.21532 0.0
C289 C 0.28936 0.99215 0.21898 0.0
H290 H 0.34315 0.95483 0.16692 0.0
H291 H 0.24435 0.92394 0.22461 0.0
H292 H 0.29916 0.89877 0.12527 0.0
H293 H 0.22438 0.96121 0.1195 0.0
H294 H 0.31557 0.84879 0.27122 0.0
H295 H 0.3737 0.03303 0.17441 0.0
H296 H 0.26983 1.00119 0.23119 0.0
C297 C 0.31595 0.22089 0.47824 0.0
C298 C 0.305 0.22883 0.45342 0.0
N299 N 0.34205 0.25932 0.44126 0.0
N300 N 0.35987 0.24652 0.48218 0.0
C301 C 0.37507 0.26929 0.45894 0.0
H302 H 0.29268 0.20067 0.49339 0.0
Co303 Co 0.38444 0.25505 0.51716 0.0
C304 C 0.47649 0.34687 0.49854 0.0
O305 O 0.50574 0.34063 0.48619 0.0
N306 N 0.40821 0.26383 0.55203 0.0
C307 C 0.4387 0.30046 0.58936 0.0
C308 C 0.43432 0.3042 0.56269 0.0
C309 C 0.3973 0.23581 0.573 0.0
N310 N 0.41539 0.25743 0.59617 0.0
O311 O 0.40283 0.21102 0.50985 0.0
H312 H 0.44654 0.33515 0.55238 0.0
H313 H 0.3746 0.20065 0.57153 0.0
O314 O 0.4404 0.31195 0.50604 0.0
C315 C 0.36848 0.17339 0.51594 0.0
O316 O 0.33355 0.17371 0.52478 0.0
N317 N 0.35956 0.28827 0.52551 0.0
C318 C 0.30285 0.31909 0.53325 0.0
C319 C 0.33421 0.33693 0.51309 0.0
C320 C 0.36097 0.3194 0.50879 0.0
C321 C 0.33166 0.27347 0.54671 0.0
C322 C 0.30339 0.28931 0.55135 0.0
H323 H 0.38202 0.33016 0.49158 0.0
H324 H 0.32823 0.24629 0.55861 0.0
H325 H 0.40871 0.29579 0.45605 0.0
H326 H 0.27193 0.21539 0.44554 0.0
H327 H 0.45554 0.32812 0.60281 0.0
H328 H 0.33337 0.35917 0.49845 0.0
H329 H 0.27813 0.27377 0.56645 0.0
C330 C 0.17382 0.37569 0.79149 0.0
C331 C 0.1587 0.36577 0.76578 0.0
N332 N 0.12729 0.37643 0.76204 0.0
N333 N 0.15131 0.39125 0.80495 0.0
C334 C 0.12613 0.39491 0.78548 0.0
H335 H 0.20005 0.37165 0.79943 0.0
Co336 Co 0.15579 0.40443 0.84301 0.0
C337 C 0.08419 0.4292 0.84946 0.0
O338 O 0.0685 0.40219 0.86983 0.0
N339 N 0.16405 0.42109 0.87996 0.0
C340 C 0.16475 0.45348 0.91833 0.0
C341 C 0.15875 0.45304 0.89131 0.0
C342 C 0.17792 0.40596 0.9006 0.0
N343 N 0.17654 0.42361 0.9241 0.0
O344 O 0.19272 0.37541 0.84897 0.0
H345 H 0.15135 0.47533 0.88083 0.0
H346 H 0.18785 0.38153 0.89878 0.0
O347 O 0.11901 0.43453 0.83737 0.0
C348 C 0.18462 0.33557 0.84563 0.0
O349 O 0.1465 0.30607 0.83532 0.0
N350 N 0.10207 0.34964 0.85072 0.0
C351 C 0.017 0.28647 0.86586 0.0
C352 C 0.02525 0.305 0.84058 0.0
C353 C 0.06718 0.33718 0.83391 0.0
C354 C 0.09538 0.32549 0.87352 0.0
C355 C 0.05273 0.29456 0.88198 0.0
H356 H 0.06895 0.35493 0.8166 0.0
H357 H 0.12228 0.33006 0.88577 0.0
H358 H 0.10493 0.40839 0.78894 0.0
H359 H 0.16999 0.35125 0.75113 0.0
H360 H 0.16105 0.47433 0.93267 0.0
H361 H 0.99888 0.29741 0.82653 0.0
H362 H 0.04785 0.27838 0.90103 0.0
C363 C 0.80066 0.10646 0.14854 0.0
C364 C 0.79618 0.08659 0.1244 0.0
N365 N 0.76145 0.08428 0.11144 0.0
N366 N 0.76954 0.11781 0.15117 0.0
C367 C 0.74633 0.10429 0.12795 0.0
H368 H 0.8237 0.10974 0.16385 0.0
Co369 Co 0.75988 0.1378 0.18431 0.0
C370 C 0.66933 0.1337 0.16124 0.0
O371 O 0.67483 0.16669 0.14617 0.0
N372 N 0.75084 0.15729 0.21745 0.0
C373 C 0.71813 0.16404 0.25341 0.0
C374 C 0.71349 0.15444 0.22675 0.0
C375 C 0.77797 0.16969 0.23889 0.0
N376 N 0.75852 0.17292 0.26114 0.0
O377 O 0.8044 0.20003 0.17499 0.0
H378 H 0.6835 0.14348 0.21557 0.0
H379 H 0.80983 0.17213 0.23886 0.0
O380 O 0.70458 0.13523 0.17025 0.0
C381 C 0.84078 0.20425 0.18423 0.0
O382 O 0.8388 0.16927 0.19506 0.0
N383 N 0.72588 0.08017 0.19506 0.0
C384 C 0.70045 0.99367 0.20542 0.0
C385 C 0.68015 1.00381 0.18483 0.0
C386 C 0.69372 0.0477 0.17983 0.0
C387 C 0.74292 0.07015 0.2165 0.0
C388 C 0.72919 0.02683 0.22276 0.0
H389 H 0.68116 0.05554 0.16239 0.0
H390 H 0.77079 0.09555 0.22717 0.0
H391 H 0.71697 0.106 0.12407 0.0
H392 H 0.81631 0.07346 0.11742 0.0
H393 H 0.69292 0.16282 0.26626 0.0
H394 H 0.6581 0.97895 0.1708 0.0
H395 H 0.74544 0.01993 0.23883 0.0
C396 C 0.32119 0.3063 0.41602 0.0
C397 C 0.34296 0.28211 0.41707 0.0
C398 C 0.31373 0.32146 0.39167 0.0
C399 C 0.32741 0.31135 0.3675 0.0
C400 C 0.35187 0.28925 0.36871 0.0
C401 C 0.35944 0.27502 0.39346 0.0
C402 C 0.28847 0.34565 0.39171 0.0
C403 C 0.36745 0.27792 0.34367 0.0
C404 C 0.25065 0.28697 0.30797 0.0
C405 C 0.27245 0.32557 0.29235 0.0
C406 C 0.26832 0.28236 0.33207 0.0
C407 C 0.30961 0.31685 0.34129 0.0
C408 C 0.33252 0.35577 0.32565 0.0
C409 C 0.31368 0.35978 0.30156 0.0
C410 C 0.24237 0.24016 0.3478 0.0
C411 C 0.3766 0.39358 0.33454 0.0
H412 H 0.30835 0.3117 0.43429 0.0
H413 H 0.3759 0.256 0.39422 0.0
H414 H 0.30487 0.37519 0.37871 0.0
H415 H 0.2548 0.32373 0.38367 0.0
H416 H 0.28548 0.35625 0.41201 0.0
H417 H 0.38999 0.26514 0.34793 0.0
H418 H 0.33856 0.25237 0.3324 0.0
H419 H 0.38475 0.30743 0.3307 0.0
H420 H 0.21945 0.25956 0.3015 0.0
H421 H 0.33132 0.3899 0.29012 0.0
H422 H 0.23465 0.24772 0.36778 0.0
H423 H 0.26237 0.22415 0.3507 0.0
H424 H 0.21089 0.21618 0.33791 0.0
H425 H 0.37155 0.41111 0.35125 0.0
H426 H 0.39383 0.4177 0.31829 0.0
H427 H 0.39826 0.38131 0.34187 0.0
C428 C 0.93236 0.26159 0.65451 0.0
C429 C 0.94558 0.28079 0.62923 0.0
C430 C 0.95951 0.2803 0.67703 0.0
C431 C 1.00158 0.31889 0.67428 0.0
C432 C 0.01424 0.33953 0.64899 0.0
C433 C 0.98597 0.32048 0.62685 0.0
C434 C 0.94387 0.25756 0.70356 0.0
C435 C 0.05883 0.38033 0.64497 0.0
C436 C 0.06875 0.38115 0.73619 0.0
C437 C 0.09668 0.36361 0.73964 0.0
C438 C 0.03755 0.36694 0.71524 0.0
C439 C 0.0341 0.33457 0.69698 0.0
C440 C 0.06192 0.31663 0.7004 0.0
C441 C 0.09243 0.3311 0.72153 0.0
C442 C 0.008 0.38636 0.71275 0.0
C443 C 0.0592 0.28161 0.68178 0.0
H444 H 0.90096 0.23119 0.65652 0.0
H445 H 0.99655 0.33528 0.60737 0.0
H446 H 0.96445 0.24338 0.70972 0.0
H447 H 0.94758 0.28169 0.71902 0.0
H448 H 0.90882 0.23051 0.70292 0.0
H449 H 0.06214 0.39492 0.62491 0.0
H450 H 0.06471 0.40565 0.66013 0.0
H451 H 0.08498 0.37174 0.64748 0.0
H452 H 0.07111 0.40604 0.74984 0.0
H453 H 0.11238 0.31596 0.72401 0.0
H454 H 0.97289 0.35967 0.7136 0.0
H455 H 0.01316 0.4029 0.6932 0.0
H456 H 0.01416 0.41071 0.72868 0.0
H457 H 0.02574 0.25185 0.68263 0.0
H458 H 0.08374 0.27162 0.68669 0.0
H459 H 0.06472 0.29391 0.66102 0.0
C460 C 0.64755 0.92545 0.98506 0.0
C461 C 0.67868 0.94057 0.96457 0.0
C462 C 0.65514 0.95087 1.00835 0.0
C463 C 0.6946 0.99248 1.01103 0.0
C464 C 0.72418 0.00923 0.9893 0.0
C465 C 0.71597 0.98304 0.9665 0.0
C466 C 0.62235 0.93197 0.03076 0.0
C467 C 0.76631 0.05348 0.99083 0.0
C468 C 0.71668 0.07063 0.07008 0.0
C469 C 0.74225 0.06027 0.08684 0.0
C470 C 0.69991 0.04835 0.04561 0.0
C471 C 0.70879 0.01482 0.03767 0.0
C472 C 0.73366 1.00366 0.05482 0.0
C473 C 0.74963 0.02609 0.07905 0.0
C474 C 0.67335 0.06118 0.02807 0.0
C475 C 0.74429 0.9684 0.04735 0.0
H476 H 0.61857 0.8928 0.98347 0.0
H477 H 0.73966 0.9951 0.95041 0.0
H478 H 0.63717 0.92373 0.0477 0.0
H479 H 0.61409 0.95676 0.03794 0.0
H480 H 0.59142 0.90161 0.02472 0.0
H481 H 0.78214 0.06471 0.97107 0.0
H482 H 0.75991 0.07896 0.99908 0.0
H483 H 0.78993 0.05094 1.00435 0.0
H484 H 0.7106 0.09679 0.0758 0.0
H485 H 0.76802 0.01652 0.09196 0.0
H486 H 0.64016 0.03202 0.02446 0.0
H487 H 0.68955 0.07245 1.00844 0.0
H488 H 0.66937 0.0879 0.03695 0.0
H489 H 0.7134 0.93666 0.04352 0.0
H490 H 0.76333 0.963 0.06306 0.0
H491 H 0.76387 0.97791 0.02875 0.0
C492 C 0.76118 0.68884 0.31866 0.0
C493 C 0.73647 0.67749 0.29506 0.0
C494 C 0.7444 0.69475 0.34267 0.0
C495 C 0.7019 0.69008 0.34324 0.0
C496 C 0.67579 0.67631 0.31972 0.0
C497 C 0.69326 0.6699 0.29597 0.0
C498 C 0.77333 0.7085 0.36715 0.0
C499 C 0.63045 0.67098 0.31916 0.0
C500 C 0.65949 0.6939 0.41298 0.0
C501 C 0.67512 0.73928 0.41584 0.0
C502 C 0.66574 0.67669 0.389 0.0
C503 C 0.68803 0.70545 0.36735 0.0
C504 C 0.7014 0.75075 0.36976 0.0
C505 C 0.6948 0.76692 0.39379 0.0
C506 C 0.65041 0.62813 0.38732 0.0
C507 C 0.72484 0.78283 0.34735 0.0
H508 H 0.79436 0.69419 0.31813 0.0
H509 H 0.67407 0.66136 0.27777 0.0
H510 H 0.78346 0.74306 0.3724 0.0
H511 H 0.75478 0.68736 0.38428 0.0
H512 H 0.80353 0.70642 0.36419 0.0
H513 H 0.6113 0.65235 0.30135 0.0
H514 H 0.6116 0.65373 0.33725 0.0
H515 H 0.6337 0.7041 0.31879 0.0
H516 H 0.64433 0.67227 0.42986 0.0
H517 H 0.70622 0.80183 0.39561 0.0
H518 H 0.67946 0.62366 0.38763 0.0
H519 H 0.63258 0.61404 0.36836 0.0
H520 H 0.62845 0.60921 0.40411 0.0
H521 H 0.75754 0.78604 0.34406 0.0
H522 H 0.72996 0.81617 0.35152 0.0
H523 H 0.70572 0.77034 0.32862 0.0
C524 C 0.03549 0.70353 0.63059 0.0
C525 C 0.07575 0.74367 0.62984 0.0
C526 C 0.01263 0.68636 0.65466 0.0
C527 C 0.03015 0.71018 0.67866 0.0
C528 C 0.07242 0.74919 0.67814 0.0
C529 C 0.09457 0.76557 0.65374 0.0
C530 C 0.96816 0.64449 0.65397 0.0
C531 C 0.09282 0.77548 0.70314 0.0
C532 C 0.95047 0.71112 0.72955 0.0
C533 C 0.95221 0.68564 0.75056 0.0
C534 C 0.9747 0.71819 0.70607 0.0
C535 C 1.00154 0.69909 0.70301 0.0
C536 C 1.00192 0.67146 0.72357 0.0
C537 C 0.97722 0.665 0.74708 0.0
C538 C 0.97245 0.74736 0.68475 0.0
C539 C 0.02882 0.6492 0.72089 0.0
H540 H 0.0208 0.68683 0.61202 0.0
H541 H 0.12545 0.79677 0.6531 0.0
H542 H 0.96416 0.62309 0.67121 0.0
H543 H 0.9418 0.65297 0.65512 0.0
H544 H 0.96329 0.62548 0.63538 0.0
H545 H 0.12774 0.80179 0.70014 0.0
H546 H 0.0738 0.79115 0.70963 0.0
H547 H 0.09138 0.75345 0.71942 0.0
H548 H 0.93041 0.72627 0.73163 0.0
H549 H 0.97871 0.64509 0.76306 0.0
H550 H 0.96143 0.72907 0.66569 0.0
H551 H 1.00576 0.77651 0.68148 0.0
H552 H 0.94952 0.75921 0.68996 0.0
H553 H 0.01569 0.62523 0.70423 0.0
H554 H 0.0282 0.63133 0.73927 0.0
H555 H 0.06359 0.6739 0.71609 0.0
C556 C 0.2846 0.03756 0.97491 0.0
C557 C 0.32398 0.05632 0.96011 0.0
C558 C 0.28038 0.01677 0.9995 0.0
C559 C 0.31675 0.01536 1.0105 0.0
C560 C 0.35697 0.0348 0.99613 0.0
C561 C 0.35999 0.05458 0.97109 0.0
C562 C 0.2367 0.99646 1.01387 0.0
C563 C 0.39684 0.03462 1.00715 0.0
C564 C 0.3052 1.00034 0.08555 0.0
C565 C 0.28687 0.95456 0.08836 0.0
C566 C 0.31856 0.02106 0.0606 0.0
C567 C 0.31243 0.9953 0.03759 0.0
C568 C 0.29629 0.94934 0.04057 0.0
C569 C 0.28403 0.92958 0.06597 0.0
C570 C 0.33667 0.0702 0.0587 0.0
C571 C 0.28901 0.92046 1.01672 0.0
H572 H 0.25653 0.03904 0.96749 0.0
H573 H 0.39062 0.06844 0.96018 0.0
H574 H 0.22499 0.96135 1.01862 0.0
H575 H 0.24083 0.01394 0.03295 0.0
H576 H 0.21079 0.99798 1.00201 0.0
H577 H 0.42704 0.05577 0.99537 0.0
H578 H 0.40293 0.04627 0.02807 0.0
H579 H 0.39073 1.00038 1.00709 0.0
H580 H 0.30765 0.01972 0.10289 0.0
H581 H 0.26958 0.89419 0.0681 0.0
H582 H 0.31102 0.07634 0.05032 0.0
H583 H 0.36555 0.08582 0.04522 0.0
H584 H 0.34681 0.08656 0.07841 0.0
H585 H 0.26091 0.91738 1.00485 0.0
H586 H 0.28157 0.88683 1.02249 0.0
H587 H 0.31849 0.93562 1.00372 0.0
C588 C 0.22306 0.41722 0.95849 0.0
C589 C 0.18217 0.41082 0.95032 0.0
C590 C 0.23077 0.41171 0.98532 0.0
C591 C 0.19636 0.39851 1.00417 0.0
C592 C 0.15382 0.38807 0.99533 0.0
C593 C 0.14749 0.39515 0.9686 0.0
C594 C 0.27656 0.42315 0.99382 0.0
C595 C 0.11564 0.37197 1.01438 0.0
C596 C 0.21666 0.37306 0.07497 0.0
C597 C 0.22918 0.41314 0.08816 0.0
C598 C 0.20479 0.36716 0.04786 0.0
C599 C 0.20652 0.4025 0.03326 0.0
C600 C 0.21864 0.44272 0.04642 0.0
C601 C 0.22931 0.44735 0.07358 0.0
C602 C 0.1907 0.32322 0.03485 0.0
C603 C 0.22082 0.4813 0.0317 0.0
H604 H 0.24965 0.4291 0.94419 0.0
H605 H 0.11567 0.38956 0.962 0.0
H606 H 0.29125 0.45322 1.00645 0.0
H607 H 0.27519 0.39609 1.00594 0.0
H608 H 0.29863 0.42937 0.97659 0.0
H609 H 0.0835 0.35776 1.00378 0.0
H610 H 0.11463 0.34658 0.02798 0.0
H611 H 0.11983 0.39996 0.02676 0.0
H612 H 0.2166 0.34626 0.08562 0.0
H613 H 0.23784 0.47812 0.08329 0.0
H614 H 0.21563 0.32712 1.01999 0.0
H615 H 0.159 0.31112 0.0241 0.0
H616 H 0.18672 0.29773 0.04948 0.0
H617 H 0.24404 0.49075 1.01477 0.0
H618 H 0.23174 0.51067 0.04464 0.0
H619 H 0.1879 0.47177 0.02339 0.0
C620 C 0.82043 0.20133 0.29338 0.0
C621 C 0.7749 0.17825 0.28803 0.0
C622 C 0.83635 0.20864 0.31966 0.0
C623 C 0.80599 0.19279 0.34098 0.0
C624 C 0.76019 0.16718 0.33563 0.0
C625 C 0.74529 0.16013 0.30928 0.0
C626 C 0.88548 0.23494 0.32461 0.0
C627 C 0.72664 0.14925 0.35777 0.0
C628 C 0.83402 0.19273 0.41393 0.0
C629 C 0.83199 0.22933 0.42316 0.0
C630 C 0.82835 0.18161 0.38679 0.0
C631 C 0.82084 0.208 0.36864 0.0
C632 C 0.82171 0.24657 0.37775 0.0
C633 C 0.82709 0.25662 0.4049 0.0
C634 C 0.82808 0.14048 0.37781 0.0
C635 C 0.81439 0.27594 0.35903 0.0
H636 H 0.8436 0.21502 0.2771 0.0
H637 H 0.71019 0.14079 0.30538 0.0
H638 H 0.89442 0.26699 0.33401 0.0
H639 H 0.89535 0.21703 0.3386 0.0
H640 H 0.90473 0.24158 0.30599 0.0
H641 H 0.69268 0.12648 0.35033 0.0
H642 H 0.73525 0.13135 0.37254 0.0
H643 H 0.72674 0.17707 0.36828 0.0
H644 H 0.83792 0.17165 0.42807 0.0
H645 H 0.82658 0.28547 0.412 0.0
H646 H 0.85025 0.14795 0.36052 0.0
H647 H 0.79436 0.11529 0.37127 0.0
H648 H 0.83856 0.126 0.39387 0.0
H649 H 0.83714 0.28554 0.34186 0.0
H650 H 0.81948 0.30645 0.36891 0.0
H651 H 0.78019 0.25759 0.3511 0.0
C652 C 0.59479 0.84676 0.73665 0.0
C653 C 0.61813 0.84149 0.75766 0.0
C654 C 0.59936 0.83657 0.71049 0.0
C655 C 0.62633 0.81843 0.70503 0.0
C656 C 0.64951 0.81204 0.72602 0.0
C657 C 0.6455 0.82409 0.75212 0.0
C658 C 0.57477 0.84494 0.68867 0.0
C659 C 0.67844 0.79257 0.72087 0.0
C660 C 0.58517 0.75333 0.6415 0.0
C661 C 0.61353 0.78405 0.62284 0.0
C662 C 0.59199 0.76235 0.66877 0.0
C663 C 0.62711 0.80375 0.67745 0.0
C664 C 0.65737 0.8339 0.65866 0.0
C665 C 0.65042 0.82339 0.6315 0.0
C666 C 0.5598 0.72879 0.68821 0.0
C667 C 0.69476 0.87876 0.66687 0.0
H668 H 0.57261 0.85894 0.74053 0.0
H669 H 0.66413 0.82029 0.76801 0.0
H670 H 0.59782 0.86482 0.67255 0.0
H671 H 0.54936 0.81307 0.67989 0.0
H672 H 0.55819 0.86268 0.69598 0.0
H673 H 0.69266 0.78785 0.73948 0.0
H674 H 0.65917 0.76021 0.71069 0.0
H675 H 0.70589 0.81457 0.70747 0.0
H676 H 0.55725 0.72254 0.63463 0.0
H677 H 0.67238 0.84697 0.61691 0.0
H678 H 0.53788 0.74029 0.69606 0.0
H679 H 0.57763 0.7251 0.70534 0.0
H680 H 0.53891 0.69592 0.67882 0.0
H681 H 0.68162 0.90118 0.67022 0.0
H682 H 0.7206 0.8936 0.65129 0.0
H683 H 0.71018 0.87688 0.6857 0.0
C684 C 0.85959 0.6378 0.96761 0.0
C685 C 0.82112 0.61412 0.95226 0.0
C686 C 0.85716 0.64428 0.99495 0.0
C687 C 0.81528 0.62668 1.00707 0.0
C688 C 0.77662 0.60586 0.99121 0.0
C689 C 0.78002 0.59956 0.96403 0.0
C690 C 0.89919 0.66769 1.01107 0.0
C691 C 0.73139 0.588 1.0032 0.0
C692 C 0.79636 0.579 0.07642 0.0
C693 C 0.78971 0.60901 0.09115 0.0
C694 C 0.80652 0.58554 0.04931 0.0
C695 C 0.81093 0.62346 0.03648 0.0
C696 C 0.80671 0.65525 0.05136 0.0
C697 C 0.79582 0.6475 0.07846 0.0
C698 C 0.81077 0.55079 0.03413 0.0
C699 C 0.81293 0.69698 0.0386 0.0
H700 H 0.8915 0.64953 0.95846 0.0
H701 H 0.75041 0.5826 0.952 0.0
H702 H 0.89837 0.69197 0.02476 0.0
H703 H 0.90244 0.64329 0.02342 0.0
H704 H 0.92886 0.68512 0.99825 0.0
H705 H 0.70512 0.57664 0.98782 0.0
H706 H 0.72396 0.55972 1.0164 0.0
H707 H 0.73042 0.61364 1.01554 0.0
H708 H 0.79313 0.54988 0.08592 0.0
H709 H 0.79098 0.67119 0.08938 0.0
H710 H 0.8429 0.56607 0.02365 0.0
H711 H 0.78439 0.53568 1.01882 0.0
H712 H 0.80824 0.52412 0.04723 0.0
H713 H 0.84753 0.71748 0.03176 0.0
H714 H 0.80565 0.717 0.0525 0.0
H715 H 0.79141 0.68899 1.02084 0.0
C716 C 0.19758 0.76191 0.40587 0.0
C717 C 0.18423 0.78165 0.42501 0.0
C718 C 0.20308 0.77508 0.37925 0.0
C719 C 0.19584 0.80961 0.37137 0.0
C720 C 0.1822 0.82984 0.39048 0.0
C721 C 0.17646 0.81554 0.41714 0.0
C722 C 0.21752 0.75241 0.35959 0.0
C723 C 0.1735 0.86627 0.38275 0.0
C724 C 0.2656 0.86442 0.31116 0.0
C725 C 0.23618 0.84108 0.29047 0.0
C726 C 0.25162 0.8578 0.33765 0.0
C727 C 0.20713 0.82663 0.34367 0.0
C728 C 0.17633 0.80595 0.32267 0.0
C729 C 0.19127 0.81354 0.2962 0.0
C730 C 0.28541 0.88144 0.35929 0.0
C731 C 0.1284 0.77318 0.32813 0.0
H732 H 0.204 0.73603 0.4118 0.0
H733 H 0.16513 0.83028 0.43165 0.0
H734 H 0.1941 0.73937 0.34262 0.0
H735 H 0.25045 0.77657 0.35152 0.0
H736 H 0.21951 0.72462 0.36867 0.0
H737 H 0.1651 0.88 0.40015 0.0
H738 H 0.2028 0.89346 0.37275 0.0
H739 H 0.14575 0.8534 0.36833 0.0
H740 H 0.30004 0.88695 0.30665 0.0
H741 H 0.16836 0.79601 0.28014 0.0
H742 H 0.2925 0.85766 0.36948 0.0
H743 H 0.27253 0.89495 0.37441 0.0
H744 H 0.31687 0.90892 0.35134 0.0
H745 H 0.12479 0.74081 0.3334 0.0
H746 H 0.10737 0.76835 0.31046 0.0
H747 H 0.11613 0.78397 0.34511 0.0
C748 C 0.38179 0.18974 0.75083 0.0
C749 C 0.41069 0.17412 0.75667 0.0
C750 C 0.37447 0.19811 0.72444 0.0
C751 C 0.39693 0.19126 0.70335 0.0
C752 C 0.42444 0.1737 0.70894 0.0
C753 C 0.43068 0.1651 0.73531 0.0
C754 C 0.34397 0.2158 0.71922 0.0
C755 C 0.44939 0.1662 0.68713 0.0
C756 C 0.37479 0.19736 0.62948 0.0
C757 C 0.409 0.24022 0.62307 0.0
C758 C 0.36902 0.18122 0.65576 0.0
C759 C 0.39773 0.20869 0.67615 0.0
C760 C 0.43128 0.2522 0.66994 0.0
C761 C 0.43688 0.26701 0.64364 0.0
C762 C 0.33276 0.1346 0.66163 0.0
C763 C 0.46254 0.28288 0.69101 0.0
H764 H 0.36561 0.19657 0.76679 0.0
H765 H 0.452 0.15184 0.73893 0.0
H766 H 0.36266 0.24916 0.71018 0.0
H767 H 0.318 0.19418 0.7048 0.0
H768 H 0.32783 0.21798 0.73763 0.0
H769 H 0.46607 0.14842 0.69433 0.0
H770 H 0.42678 0.14697 0.67063 0.0
H771 H 0.47483 0.19851 0.67888 0.0
H772 H 0.35255 0.17631 0.61408 0.0
H773 H 0.46405 0.29971 0.63932 0.0
H774 H 0.31077 0.13486 0.67729 0.0
H775 H 0.34716 0.11504 0.66938 0.0
H776 H 0.31259 0.1177 0.64376 0.0
H777 H 0.44373 0.28486 0.70808 0.0
H778 H 0.48456 0.31684 0.68336 0.0
H779 H 0.48334 0.26977 0.69858 0.0
C780 C 0.60925 0.55429 0.2214 0.0
C781 C 0.62361 0.53527 0.20209 0.0
C782 C 0.56423 0.54294 0.22319 0.0
C783 C 0.53127 0.50846 0.20721 0.0
C784 C 0.545 0.48547 0.19016 0.0
C785 C 0.59048 0.49991 0.18724 0.0
C786 C 0.55255 0.57022 0.2408 0.0
C787 C 0.51183 0.44693 0.17366 0.0
C788 C 0.40548 0.45656 0.22072 0.0
C789 C 0.39162 0.47228 0.19918 0.0
C790 C 0.4506 0.46883 0.22417 0.0
C791 C 0.48358 0.49886 0.20626 0.0
C792 C 0.47004 0.51744 0.18583 0.0
C793 C 0.42482 0.50364 0.18241 0.0
C794 C 0.46239 0.44696 0.24587 0.0
C795 C 0.50318 0.55061 0.1666 0.0
H796 H 0.63338 0.58054 0.23383 0.0
H797 H 0.60038 0.48453 0.17224 0.0
H798 H 0.53603 0.58435 0.22887 0.0
H799 H 0.52897 0.54908 0.25633 0.0
H800 H 0.58202 0.59774 0.25063 0.0
H801 H 0.52608 0.42752 0.16545 0.0
H802 H 0.48239 0.42463 0.1857 0.0
H803 H 0.50059 0.45921 0.15683 0.0
H804 H 0.38081 0.43217 0.23383 0.0
H805 H 0.41504 0.51594 0.1655 0.0
H806 H 0.49003 0.47211 0.25807 0.0
H807 H 0.47372 0.42563 0.23683 0.0
H808 H 0.434 0.42638 0.25911 0.0
H809 H 0.53153 0.57744 0.17758 0.0
H810 H 0.48851 0.56548 0.15364 0.0
H811 H 0.5163 0.53429 0.15374 0.0
C812 C 0.93782 0.40618 0.54978 0.0
C813 C 0.93263 0.38783 0.52427 0.0
C814 C 0.96871 0.45177 0.55469 0.0
C815 C 0.99643 0.47977 0.53394 0.0
C816 C 0.9916 0.46112 0.50838 0.0
C817 C 0.9598 0.41638 0.50386 0.0
C818 C 0.97142 0.4702 0.58208 0.0
C819 C 0.02101 0.48818 0.48567 0.0
C820 C 0.04576 0.60572 0.53364 0.0
C821 C 0.08792 0.62271 0.54506 0.0
C822 C 0.01568 0.56 0.53095 0.0
C823 C 0.02841 0.52901 0.53812 0.0
C824 C 0.0722 0.54572 0.54783 0.0
C825 C 0.10062 0.59194 0.55213 0.0
C826 C 0.96944 0.54493 0.52121 0.0
C827 C 0.08893 0.51482 0.55417 0.0
H828 H 0.91783 0.38505 0.56587 0.0
H829 H 0.95722 0.40355 0.48397 0.0
H830 H 1.0048 0.48236 0.59054 0.0
H831 H 0.96624 0.49883 0.58093 0.0
H832 H 0.94662 0.4452 0.59581 0.0
H833 H 0.0125 0.4693 0.46675 0.0
H834 H 0.01881 0.51822 0.48238 0.0
H835 H 0.05589 0.49934 0.49071 0.0
H836 H 0.0348 0.62784 0.52782 0.0
H837 H 0.13254 0.60388 0.56144 0.0
H838 H 0.94491 0.52079 0.53539 0.0
H839 H 0.96361 0.52799 0.50178 0.0
H840 H 0.96327 0.57282 0.51883 0.0
H841 H 0.07434 0.49756 0.57315 0.0
H842 H 0.12544 0.53278 0.5562 0.0
H843 H 0.07898 0.4893 0.53846 0.0
C844 C 0.51911 0.0965 0.88932 0.0
C845 C 0.47926 0.09136 0.87931 0.0
C846 C 0.53046 0.06336 0.88613 0.0
C847 C 0.49954 0.02161 0.87507 0.0
C848 C 0.45955 0.01634 0.86471 0.0
C849 C 0.45197 0.05229 0.86511 0.0
C850 C 0.57619 0.07364 0.894 0.0
C851 C 0.42351 0.97225 0.85435 0.0
C852 C 0.54304 0.94828 0.84862 0.0
C853 C 0.54822 0.92909 0.87196 0.0
C854 C 0.52631 0.97732 0.84907 0.0
C855 C 0.51047 0.98497 0.87318 0.0
C856 C 0.50954 0.96052 0.89603 0.0
C857 C 0.52972 0.93425 0.89541 0.0
C858 C 0.53099 1.00385 0.82435 0.0
C859 C 0.4897 0.96427 0.92169 0.0
H860 H 0.5423 0.12713 0.89911 0.0
H861 H 0.425 0.04969 0.85382 0.0
H862 H 0.5745 0.05454 0.91194 0.0
H863 H 0.591 0.06389 0.87785 0.0
H864 H 0.59844 0.10931 0.89831 0.0
H865 H 0.39821 0.97534 0.84281 0.0
H866 H 0.43668 0.95568 0.84185 0.0
H867 H 0.40693 0.95019 0.87155 0.0
H868 H 0.55791 0.94564 0.83044 0.0
H869 H 0.53414 0.92073 0.91376 0.0
H870 H 0.5569 0.03882 0.82777 0.0
H871 H 0.50003 1.00351 0.81967 0.0
H872 H 0.54038 0.99147 0.80671 0.0
H873 H 0.51331 0.99535 0.93198 0.0
H874 H 0.48197 0.93628 0.93525 0.0
H875 H 0.45904 0.96514 0.91779 0.0
C876 C 0.45824 0.40637 0.51421 0.0
C877 C 0.4878 0.39475 0.50337 0.0
C878 C 0.46686 0.45047 0.51437 0.0
C879 C 0.5095 0.48613 0.50788 0.0
C880 C 0.54199 0.47529 0.50072 0.0
C881 C 0.53022 0.43042 0.49708 0.0
C882 C 0.43011 0.4584 0.52236 0.0
C883 C 0.58995 0.51084 0.49876 0.0
C884 C 0.54075 0.60825 0.49476 0.0
C885 C 0.54583 0.62531 0.52064 0.0
C886 C 0.5275 0.56297 0.49025 0.0
C887 C 0.5214 0.53414 0.512 0.0
C888 C 0.52617 0.55142 0.53805 0.0
C889 C 0.53668 0.59548 0.54187 0.0
C890 C 0.51921 0.54583 0.46213 0.0
C891 C 0.52111 0.52439 0.5626 0.0
H892 H 0.42891 0.38174 0.5236 0.0
H893 H 0.55523 0.42338 0.49033 0.0
H894 H 0.42994 0.46145 0.54426 0.0
H895 H 0.43379 0.48888 0.51321 0.0
H896 H 0.39753 0.43017 0.51643 0.0
H897 H 0.61185 0.49693 0.49591 0.0
H898 H 0.59503 0.53337 0.48201 0.0
H899 H 0.60023 0.53104 0.5172 0.0
H900 H 0.5475 0.63022 0.47804 0.0
H901 H 0.53954 0.60699 0.56215 0.0
H902 H 0.48684 0.51468 0.46082 0.0
H903 H 0.54485 0.53823 0.45599 0.0
H904 H 0.51946 0.57011 0.44785 0.0
H905 H 0.48865 0.51395 0.57184 0.0
H906 H 0.5467 0.54488 0.57756 0.0
H907 H 0.52356 0.49469 0.55857 0.0
C908 C 0.9359 0.54661 0.82486 0.0
C909 C 0.90797 0.53442 0.84713 0.0
C910 C 0.96643 0.53165 0.82163 0.0
C911 C 0.96855 0.5027 0.84064 0.0
C912 C 0.93851 0.48828 0.86219 0.0
C913 C 0.90915 0.50431 0.86517 0.0
C914 C 0.99789 0.54851 0.79849 0.0
C915 C 0.93865 0.45728 0.88297 0.0
C916 C 0.02068 0.43081 0.82765 0.0
C917 C 0.06062 0.45312 0.84181 0.0
C918 C 0.99181 0.44779 0.82575 0.0
C919 C 1.00238 0.48793 0.83872 0.0
C920 C 0.04352 0.51129 0.85235 0.0
C921 C 0.07187 0.4936 0.85379 0.0
C922 C 0.94861 0.42129 0.81114 0.0
C923 C 0.05662 0.55394 0.86667 0.0
H924 H 0.93598 0.57 0.8108 0.0
H925 H 0.88808 0.49455 0.88253 0.0
H926 H 0.0323 0.56809 0.80596 0.0
H927 H 0.9954 0.52038 0.78702 0.0
H928 H 0.99145 0.56962 0.78493 0.0
H929 H 0.9116 0.44699 0.89762 0.0
H930 H 0.93527 0.42726 0.87341 0.0
H931 H 0.97058 0.47366 0.89382 0.0
H932 H 0.01099 0.39884 0.81906 0.0
H933 H 0.1019 0.51038 0.86551 0.0
H934 H 0.94361 0.4427 0.79706 0.0
H935 H 0.921 0.40796 0.82556 0.0
H936 H 0.94696 0.39322 0.79996 0.0
H937 H 0.05493 0.57773 0.85289 0.0
H938 H 0.09048 0.5694 0.87512 0.0
H939 H 0.03316 0.54767 0.88309 0.0
C940 C 0.58693 0.09409 0.15152 0.0
C941 C 0.62207 0.09594 0.1663 0.0
C942 C 0.54248 0.05975 0.15471 0.0
C943 C 0.53159 0.02424 0.17246 0.0
C944 C 0.56651 0.02622 0.18804 0.0
C945 C 0.61057 0.06251 0.18546 0.0
C946 C 0.50695 0.06129 0.13863 0.0
C947 C 0.55775 0.9892 0.20685 0.0
C948 C 0.40762 0.94472 0.18969 0.0
C949 C 0.39352 0.91274 0.16936 0.0
C950 C 0.45192 0.9809 0.19115 0.0
C951 C 0.48451 0.98424 0.17296 0.0
C952 C 0.47105 0.95027 0.15368 0.0
C953 C 0.42633 0.91589 0.15191 0.0
C954 C 0.46354 0.01615 0.21185 0.0
C955 C 0.50403 0.95041 0.13451 0.0
H956 H 0.59407 0.11978 0.1371 0.0
H957 H 0.63582 0.06456 0.19864 0.0
H958 H 0.49266 0.03377 0.12408 0.0
H959 H 0.47979 0.05691 0.15185 0.0
H960 H 0.51969 0.09291 0.12767 0.0
H961 H 0.58718 0.99686 0.21906 0.0
H962 H 0.52994 0.98198 0.22026 0.0
H963 H 0.54799 0.95871 0.19526 0.0
H964 H 0.38409 0.94167 0.20455 0.0
H965 H 0.417 0.89126 0.13644 0.0
H966 H 0.47696 0.04882 0.20208 0.0
H967 H 0.48963 0.01822 0.22524 0.0
H968 H 0.43458 0.00976 0.22403 0.0
H969 H 0.51613 0.97915 0.12094 0.0
H970 H 0.48969 0.91981 0.12235 0.0
H971 H 0.53303 0.95386 0.14552 0.0
C972 C 0.10674 0.37935 0.19914 0.0
C973 C 0.12194 0.34982 0.1944 0.0
C974 C 0.06076 0.36518 0.19718 0.0
C975 C 0.02907 0.32061 0.1902 0.0
C976 C 0.04459 0.29111 0.18558 0.0
C977 C 0.08981 0.30574 0.18799 0.0
C978 C 0.04601 0.39793 0.2024 0.0
C979 C 0.01325 0.2434 0.17808 0.0
C980 C 0.9076 0.25486 0.21056 0.0
C981 C 0.88499 0.24615 0.18613 0.0
C982 C 0.95389 0.28217 0.21253 0.0
C983 C 0.9794 0.30259 0.18952 0.0
C984 C 0.9564 0.29729 0.16512 0.0
C985 C 0.9097 0.26885 0.16362 0.0
C986 C 0.97579 0.28498 0.23889 0.0
C987 C 0.98151 0.31886 0.14006 0.0
H988 H 0.13058 0.41345 0.20382 0.0
H989 H 0.1 0.28178 0.18447 0.0
H990 H 0.02597 0.39837 0.18544 0.0
H991 H 0.02464 0.38775 0.22024 0.0
H992 H 0.07432 0.43187 0.20562 0.0
H993 H 0.03046 0.22457 0.17497 0.0
H994 H 0.98819 0.22673 0.19387 0.0
H995 H 0.9954 0.24174 0.15951 0.0
H996 H 0.88924 0.23707 0.22806 0.0
H997 H 0.89321 0.26182 0.1445 0.0
H998 H 1.00206 0.31944 0.24315 0.0
H999 H 0.9916 0.26451 0.23809 0.0
H1000 H 0.95182 0.27288 0.25555 0.0
H1001 H 0.00727 0.3537 0.14399 0.0
H1002 H 0.9594 0.31805 0.12397 0.0
H1003 H 0.99844 0.30136 0.133 0.0
C1004 C 0.6965 0.92416 0.50039 0.0
C1005 C 0.65389 0.89142 0.50843 0.0
C1006 C 0.71299 0.96962 0.50467 0.0
C1007 C 0.68612 0.98395 0.51691 0.0
C1008 C 0.64189 0.95137 0.52342 0.0
C1009 C 0.6265 0.90559 0.51949 0.0
C1010 C 0.76059 1.00199 0.49787 0.0
C1011 C 0.61156 0.9648 0.53586 0.0
C1012 C 0.75305 0.09537 0.55335 0.0
C1013 C 0.75759 0.12618 0.5339 0.0
C1014 C 0.72756 0.04917 0.54883 0.0
C1015 C 0.70564 0.03255 0.52409 0.0
C1016 C 0.70764 0.06347 0.50508 0.0
C1017 C 0.73356 0.1095 0.51013 0.0
C1018 C 0.72783 0.01837 0.56966 0.0
C1019 C 0.68572 0.04817 0.4783 0.0
H1020 H 0.71851 0.91381 0.49247 0.0
H1021 H 0.59419 0.88098 0.52667 0.0
H1022 H 0.76327 0.02989 0.48603 0.0
H1023 H 0.77976 0.01602 0.51645 0.0
H1024 H 0.77608 0.98627 0.48652 0.0
H1025 H 0.57726 0.93656 0.53766 0.0
H1026 H 0.62391 0.97859 0.55596 0.0
H1027 H 0.61123 0.99118 0.52386 0.0
H1028 H 0.7731 0.10745 0.57119 0.0
H1029 H 0.73846 0.13258 0.49433 0.0
H1030 H 0.74855 1.00483 0.56272 0.0
H1031 H 0.69403 0.99004 0.57288 0.0
H1032 H 0.74125 0.03538 0.58894 0.0
H1033 H 0.70466 0.03726 0.46607 0.0
H1034 H 0.68414 0.07488 0.46742 0.0
H1035 H 0.6518 0.0195 0.48051 0.0
C1036 C 0.68123 0.77033 0.88272 0.0
C1037 C 0.64778 0.76808 0.86621 0.0
C1038 C 0.69972 0.74326 0.8786 0.0
C1039 C 0.68419 0.71208 0.85753 0.0
C1040 C 0.64777 0.70694 0.8422 0.0
C1041 C 0.63051 0.73533 0.84641 0.0
C1042 C 0.73892 0.75134 0.89528 0.0
C1043 C 0.62912 0.67356 0.82001 0.0
C1044 C 0.77325 0.69306 0.82701 0.0
C1045 C 0.76767 0.65552 0.84051 0.0
C1046 C 0.74508 0.71022 0.83131 0.0
C1047 C 0.70972 0.68947 0.84967 0.0
C1048 C 0.70224 0.64992 0.86223 0.0
C1049 C 0.73147 0.63378 0.85775 0.0
C1050 C 0.75568 0.7529 0.81781 0.0
C1051 C 0.66526 0.62632 0.8819 0.0
H1052 H 0.69599 0.79645 0.89745 0.0
H1053 H 0.60596 0.7342 0.83283 0.0
H1054 H 0.73513 0.71971 0.9024 0.0
H1055 H 0.76922 0.76785 0.88297 0.0
H1056 H 0.7437 0.77265 0.91276 0.0
H1057 H 0.59729 0.6689 0.81248 0.0
H1058 H 0.65291 0.68477 0.80331 0.0
H1059 H 0.62402 0.64123 0.82686 0.0
H1060 H 0.80214 0.71129 0.81456 0.0
H1061 H 0.72791 0.60607 0.86931 0.0
H1062 H 0.76682 0.77954 0.83289 0.0
H1063 H 0.72582 0.74961 0.80807 0.0
H1064 H 0.78201 0.76322 0.80265 0.0
H1065 H 0.67406 0.64532 0.90074 0.0
H1066 H 0.65881 0.59256 0.88636 0.0
H1067 H 0.63448 0.62397 0.87428 0.0
C1068 C 0.90941 0.63784 0.20223 0.0
C1069 C 0.89353 0.66642 0.19605 0.0
C1070 C 0.95539 0.65218 0.19999 0.0
C1071 C 0.98642 0.696 0.19135 0.0
C1072 C 0.97018 0.7244 0.18502 0.0
C1073 C 0.925 0.70962 0.18761 0.0
C1074 C 0.97086 0.62047 0.20686 0.0
C1075 C 1.00078 0.77127 0.1757 0.0
C1076 C 0.10803 0.76564 0.21124 0.0
C1077 C 0.1304 0.7721 0.18701 0.0
C1078 C 0.06185 0.73781 0.21346 0.0
C1079 C 0.03621 0.71474 0.19091 0.0
C1080 C 0.05902 0.71804 0.16683 0.0
C1081 C 0.10561 0.74691 0.16506 0.0
C1082 C 0.04012 0.73709 0.23942 0.0
C1083 C 0.03377 0.69368 0.14229 0.0
H1084 H 0.88614 0.60441 0.20848 0.0
H1085 H 0.91444 0.73293 0.18279 0.0
H1086 H 0.99152 0.61942 0.19058 0.0
H1087 H 0.99177 0.6321 0.22497 0.0
H1088 H 0.94287 0.58652 0.21049 0.0
H1089 H 0.98301 0.78917 0.17118 0.0
H1090 H 0.02601 0.79004 0.19117 0.0
H1091 H 0.01847 0.77115 0.15753 0.0
H1092 H 0.12644 0.78534 0.22828 0.0
H1093 H 0.12194 0.75212 0.14606 0.0
H1094 H 0.01452 0.70288 0.24474 0.0
H1095 H 0.02351 0.75669 0.23731 0.0
H1096 H 0.06433 0.75134 0.25599 0.0
H1097 H 0.00866 0.65907 0.14727 0.0
H1098 H 0.0559 0.69351 0.12664 0.0
H1099 H 0.01602 0.70972 0.13409 0.0
C1100 C 0.27846 0.90713 0.52285 0.0
C1101 C 0.23705 0.89097 0.53496 0.0
C1102 C 0.30776 0.95342 0.51895 0.0
C1103 C 0.29548 0.9847 0.52692 0.0
C1104 C 0.25432 0.96831 0.53992 0.0
C1105 C 0.22622 0.92239 0.54378 0.0
C1106 C 0.35112 0.96874 0.50516 0.0
C1107 C 0.23855 0.99918 0.54851 0.0
C1108 C 0.37303 0.11057 0.5368 0.0
C1109 C 0.36432 0.12863 0.51422 0.0
C1110 C 0.35366 0.06416 0.54027 0.0
C1111 C 0.32391 0.03418 0.52096 0.0
C1112 C 0.31693 0.05242 0.49745 0.0
C1113 C 0.3368 0.09891 0.49451 0.0
C1114 C 0.36238 0.04718 0.56573 0.0
C1115 C 0.28553 0.02274 0.47621 0.0
H1116 H 0.28691 0.88364 0.51503 0.0
H1117 H 0.19404 0.91066 0.55261 0.0
H1118 H 0.35073 0.98273 0.48545 0.0
H1119 H 0.37849 0.99541 0.51683 0.0
H1120 H 0.35795 0.94142 0.50225 0.0
H1121 H 0.20689 0.98179 0.55955 0.0
H1122 H 0.26364 0.02581 0.56133 0.0
H1123 H 0.2338 0.01518 0.53079 0.0
H1124 H 0.39239 0.13265 0.55279 0.0
H1125 H 0.32808 0.11198 0.47751 0.0
H1126 H 0.36916 0.02017 0.56153 0.0
H1127 H 0.33264 0.03334 0.57851 0.0
H1128 H 0.39066 0.07369 0.57697 0.0
H1129 H 0.29341 0.997 0.47056 0.0
H1130 H 0.28661 0.04142 0.45811 0.0
H1131 H 0.25132 1.00555 0.48402 0.0
C1132 C 0.25603 0.34779 0.86707 0.0
C1133 C 0.21854 0.32231 0.85114 0.0
C1134 C 0.28679 0.33385 0.87256 0.0
C1135 C 0.28054 0.29373 0.86162 0.0
C1136 C 0.24295 0.26825 0.84535 0.0
C1137 C 0.21262 0.28258 0.84052 0.0
C1138 C 0.32589 0.36193 0.89022 0.0
C1139 C 0.23445 0.22539 0.83305 0.0
C1140 C 0.37029 0.26359 0.85104 0.0
C1141 C 0.36002 0.23131 0.87063 0.0
C1142 C 0.34731 0.28698 0.84923 0.0
C1143 C 0.31241 0.27748 0.86714 0.0
C1144 C 0.30421 0.24723 0.88814 0.0
C1145 C 0.32794 0.22464 0.88957 0.0
C1146 C 0.35767 0.31882 0.82653 0.0
C1147 C 0.26742 0.23543 0.90769 0.0
H1148 H 0.26101 0.37832 0.8756 0.0
H1149 H 0.18407 0.26242 0.82812 0.0
H1150 H 0.32579 0.34232 0.90755 0.0
H1151 H 0.35693 0.37247 0.87918 0.0
H1152 H 0.32597 0.39179 0.89757 0.0
H1153 H 0.20454 0.21002 0.82024 0.0
H1154 H 0.26317 0.23118 0.82089 0.0
H1155 H 0.23024 0.20157 0.8489 0.0
H1156 H 0.39359 0.26777 0.83564 0.0
H1157 H 0.31839 0.19853 0.90411 0.0
H1158 H 0.3587 0.3493 0.83348 0.0
H1159 H 0.33124 0.30332 0.81128 0.0
H1160 H 0.38967 0.32803 0.81702 0.0
H1161 H 0.26866 0.26567 0.91529 0.0
H1162 H 0.26893 0.21619 0.92479 0.0
H1163 H 0.23515 0.21529 0.89754 0.0
C1164 C 0.26657 0.20738 0.16671 0.0
C1165 C 0.30559 0.24873 0.16553 0.0
C1166 C 0.26799 0.16906 0.17116 0.0
C1167 C 0.30938 0.17268 0.17523 0.0
C1168 C 0.34892 0.21382 0.17294 0.0
C1169 C 0.34656 0.25157 0.16779 0.0
C1170 C 0.22502 0.12553 0.17317 0.0
C1171 C 0.39351 0.21815 0.17719 0.0
C1172 C 0.31915 0.08894 0.21653 0.0
C1173 C 0.32432 0.06416 0.19662 0.0
C1174 C 0.31239 0.12364 0.20979 0.0
C1175 C 0.31179 0.13379 0.18265 0.0
C1176 C 0.316 0.1084 0.16253 0.0
C1177 C 0.32216 0.07375 0.16977 0.0
C1178 C 0.30544 0.1491 0.23153 0.0
C1179 C 0.3134 0.11748 0.13341 0.0
H1180 H 0.23462 0.20499 0.16574 0.0
H1181 H 0.3766 0.28351 0.16674 0.0
H1182 H 0.22815 0.09761 0.16556 0.0
H1183 H 0.21504 0.11879 0.19433 0.0
H1184 H 0.19813 0.12643 0.16204 0.0
H1185 H 0.42112 0.25242 0.17389 0.0
H1186 H 0.39585 0.20823 0.1978 0.0
H1187 H 0.39753 0.19563 0.16356 0.0
H1188 H 0.31945 0.08053 0.23723 0.0
H1189 H 0.32359 0.05307 0.15429 0.0
H1190 H 0.27368 0.14807 0.22835 0.0
H1191 H 0.33203 0.1843 0.23088 0.0
H1192 H 0.30504 0.1357 0.2516 0.0
H1193 H 0.28254 0.11781 0.12926 0.0
H1194 H 0.31421 0.09246 0.12036 0.0
H1195 H 0.34144 0.15056 0.12814 0.0
C1196 C 0.24165 0.33053 0.5465 0.0
C1197 C 0.26098 0.31598 0.5281 0.0
C1198 C 0.19984 0.32423 0.54134 0.0
C1199 C 0.178 0.30266 0.51753 0.0
C1200 C 0.19714 0.28689 0.49937 0.0
C1201 C 0.23863 0.29371 0.50497 0.0
C1202 C 0.17894 0.34026 0.56119 0.0
C1203 C 0.17388 0.26275 0.47416 0.0
C1204 C 0.05601 0.25262 0.51553 0.0
C1205 C 0.05258 0.28611 0.50267 0.0
C1206 C 0.09701 0.25727 0.52019 0.0
C1207 C 0.13479 0.29623 0.51154 0.0
C1208 C 0.13148 0.32916 0.49733 0.0
C1209 C 0.08989 0.32385 0.49322 0.0
C1210 C 0.0999 0.22161 0.53539 0.0
C1211 C 0.17183 0.37048 0.48742 0.0
H1212 H 0.25909 0.34653 0.56467 0.0
H1213 H 0.25354 0.281 0.49142 0.0
H1214 H 0.1718 0.36445 0.5516 0.0
H1215 H 0.147 0.31219 0.56806 0.0
H1216 H 0.20041 0.35611 0.57878 0.0
H1217 H 0.19361 0.25203 0.46251 0.0
H1218 H 0.14165 0.23314 0.47899 0.0
H1219 H 0.16705 0.28447 0.46147 0.0
H1220 H 0.02675 0.2239 0.52328 0.0
H1221 H 0.08649 0.34953 0.48346 0.0
H1222 H 0.11629 0.23484 0.55483 0.0
H1223 H 0.12021 0.21097 0.52439 0.0
H1224 H 0.0669 0.19215 0.53908 0.0
H1225 H 0.19217 0.39018 0.50457 0.0
H1226 H 0.16314 0.39143 0.47527 0.0
H1227 H 0.19254 0.36167 0.47527 0.0
C1228 C 0.81254 0.08903 0.82744 0.0
C1229 C 0.77223 0.07559 0.83988 0.0
C1230 C 0.84859 0.13078 0.83277 0.0
C1231 C 0.84412 0.15741 0.85226 0.0
C1232 C 0.80196 0.14629 0.86172 0.0
C1233 C 0.76581 0.10638 0.85376 0.0
C1234 C 0.89209 0.14397 0.81956 0.0
C1235 C 0.79443 0.17315 0.88223 0.0
C1236 C 0.95544 0.21643 0.88403 0.0
C1237 C 0.97071 0.2587 0.87381 0.0
C1238 C 0.91121 0.18387 0.88045 0.0
C1239 C 0.88399 0.19367 0.86439 0.0
C1240 C 0.89804 0.23764 0.85718 0.0
C1241 C 0.94042 0.27038 0.86427 0.0
C1242 C 0.89535 0.13824 0.89149 0.0
C1243 C 0.87083 0.2497 0.83953 0.0
H1244 H 0.81731 0.0658 0.81584 0.0
H1245 H 0.73359 0.0964 0.86201 0.0
H1246 H 0.91365 0.18041 0.81832 0.0
H1247 H 0.90961 0.13049 0.83104 0.0
H1248 H 0.88666 0.12995 0.79919 0.0
H1249 H 0.7716 0.15109 0.89785 0.0
H1250 H 0.82508 0.19866 0.89207 0.0
H1251 H 0.77806 0.18949 0.87251 0.0
H1252 H 0.97836 0.20768 0.89252 0.0
H1253 H 0.95209 0.30416 0.85811 0.0
H1254 H 0.90439 0.11953 0.87769 0.0
H1255 H 0.85903 0.11949 0.8943 0.0
H1256 H 0.91158 0.14035 0.91085 0.0
H1257 H 0.85492 0.22539 0.82319 0.0
H1258 H 0.89108 0.28301 0.83056 0.0
H1259 H 0.84451 0.24996 0.85142 0.0
C1260 C 0.66342 0.9132 0.19742 0.0
C1261 C 0.70161 0.95276 0.20392 0.0
C1262 C 0.66603 0.87627 0.19043 0.0
C1263 C 0.70762 0.87921 0.19068 0.0
C1264 C 0.74617 0.91851 0.19819 0.0
C1265 C 0.74274 0.95517 0.2045 0.0
C1266 C 0.62448 0.83432 0.18241 0.0
C1267 C 0.79103 0.92236 0.19868 0.0
C1268 C 0.69875 0.76991 0.19975 0.0
C1269 C 0.70216 0.75886 0.17348 0.0
C1270 C 0.70254 0.81018 0.2057 0.0
C1271 C 0.70974 0.83979 0.18481 0.0
C1272 C 0.71478 0.82977 0.15832 0.0
C1273 C 0.71056 0.78883 0.15288 0.0
C1274 C 0.6988 0.82099 0.23432 0.0
C1275 C 0.72402 0.86182 0.13584 0.0
H1276 H 0.63185 0.91168 0.19692 0.0
H1277 H 0.77263 0.98626 0.20866 0.0
H1278 H 0.62833 0.82434 0.16215 0.0
H1279 H 0.61865 0.80712 0.19613 0.0
H1280 H 0.59496 0.83808 0.18259 0.0
H1281 H 0.81657 0.95363 0.20809 0.0
H1282 H 0.7897 0.89422 0.20957 0.0
H1283 H 0.80153 0.92134 0.17806 0.0
H1284 H 0.69474 0.74768 0.21589 0.0
H1285 H 0.71467 0.78055 0.13275 0.0
H1286 H 0.66961 0.82493 0.23664 0.0
H1287 H 0.72831 0.85276 0.2401 0.0
H1288 H 0.69553 0.79497 0.24829 0.0
H1289 H 0.69337 0.86202 0.13082 0.0
H1290 H 0.73562 0.85273 0.11772 0.0
H1291 H 0.74925 0.89593 0.14171 0.0
C1292 C 0.78313 0.72385 0.50759 0.0
C1293 C 0.76991 0.72017 0.53411 0.0
C1294 C 0.82329 0.72789 0.50126 0.0
C1295 C 0.85002 0.72757 0.52204 0.0
C1296 C 0.83833 0.72691 0.54896 0.0
C1297 C 0.79784 0.7232 0.55478 0.0
C1298 C 0.83643 0.73105 0.47242 0.0
C1299 C 0.86811 0.72923 0.57136 0.0
C1300 C 0.91421 0.67248 0.50577 0.0
C1301 C 0.95603 0.70914 0.50189 0.0
C1302 C 0.87914 0.67836 0.51237 0.0
C1303 C 0.88692 0.72182 0.51534 0.0
C1304 C 0.92897 0.75899 0.51092 0.0
C1305 C 0.96312 0.7521 0.50387 0.0
C1306 C 0.83409 0.63823 0.51692 0.0
C1307 C 0.93843 0.80588 0.51389 0.0
H1308 H 0.76215 0.72412 0.49181 0.0
H1309 H 0.7879 0.7225 0.57523 0.0
H1310 H 0.86992 0.76 0.4694 0.0
H1311 H 0.83758 0.70113 0.46673 0.0
H1312 H 0.81311 0.73419 0.4589 0.0
H1313 H 0.85603 0.73276 0.59105 0.0
H1314 H 0.87026 0.69878 0.57149 0.0
H1315 H 0.90201 0.7576 0.56833 0.0
H1316 H 0.90956 0.63953 0.50474 0.0
H1317 H 0.99609 0.78044 0.50159 0.0
H1318 H 0.80964 0.63903 0.50326 0.0
H1319 H 0.82314 0.63856 0.53753 0.0
H1320 H 0.83384 0.60681 0.51373 0.0
H1321 H 0.93221 0.81713 0.49461 0.0
H1322 H 0.97352 0.82877 0.51933 0.0
H1323 H 0.9172 0.80868 0.52908 0.0
C1324 C 0.24691 0.90635 0.83488 0.0
C1325 C 0.2521 0.94808 0.83793 0.0
C1326 C 0.20783 0.86921 0.84289 0.0
C1327 C 0.17455 0.87496 0.85462 0.0
C1328 C 0.1796 0.91722 0.85743 0.0
C1329 C 0.21855 0.95354 0.84877 0.0
C1330 C 0.20221 0.82398 0.83913 0.0
C1331 C 0.14471 0.92417 0.87022 0.0
C1332 C 0.06218 0.7768 0.8484 0.0
C1333 C 0.05712 0.75733 0.87336 0.0
C1334 C 0.09979 0.81646 0.84249 0.0
C1335 C 0.13306 0.83619 0.86199 0.0
C1336 C 0.1277 0.81735 0.88759 0.0
C1337 C 0.08902 0.77762 0.89312 0.0
C1338 C 0.10405 0.83694 0.81539 0.0
C1339 C 0.16286 0.83879 0.90875 0.0
H1340 H 0.2738 0.90309 0.82701 0.0
H1341 H 0.22392 0.98652 0.85182 0.0
H1342 H 0.19572 0.80682 0.85854 0.0
H1343 H 0.17326 0.80367 0.82615 0.0
H1344 H 0.23173 0.82555 0.83006 0.0
H1345 H 0.15309 0.95921 0.86927 0.0
H1346 H 0.11224 0.90331 0.86045 0.0
H1347 H 0.14094 0.9141 0.89139 0.0
H1348 H 0.03608 0.76115 0.83366 0.0
H1349 H 0.08366 0.76252 0.91259 0.0
H1350 H 0.13259 0.83902 0.80469 0.0
H1351 H 0.11033 0.87111 0.81749 0.0
H1352 H 0.07397 0.81777 0.803 0.0
H1353 H 0.1926 0.83771 0.90266 0.0
H1354 H 0.15159 0.82207 0.92829 0.0
H1355 H 0.17291 0.87408 0.9111 0.0
loop_
_geom_bond_atom_site_label_1
_geom_bond_atom_site_label_2
_geom_bond_distance
_geom_bond_site_symmetry_2
_ccdc_geom_bond_type
C0 C1 1.351 . S
C0 N3 1.368 . S
C0 H5 0.931 . S
C1 C0 1.351 . S
C1 N2 1.373 . S
C1 H29 0.930 . S
N2 C1 1.373 . S
N2 C4 1.340 . S
N3 C0 1.368 . S
N3 C4 1.321 . S
N3 Co6 2.135 . S
C4 N2 1.340 . S
C4 N3 1.321 . S
C4 H28 0.930 . S
H5 C0 0.931 . S
Co6 N3 2.135 . S
Co6 N9 2.121 . S
Co6 O14 2.055 . S
Co6 O17 2.039 . S
Co6 N20 2.140 . S
C7 O8 1.227 . S
C7 O17 1.265 . S
O8 C7 1.227 . S
N9 Co6 2.121 . S
N9 C11 1.375 . S
N9 C12 1.313 . S
C10 C11 1.338 . S
C10 N13 1.377 . S
C10 H30 0.930 . S
C11 N9 1.375 . S
C11 C10 1.338 . S
C11 H15 0.931 . S
C12 N9 1.313 . S
C12 N13 1.344 . S
C12 H16 0.930 . S
N13 C10 1.377 . S
N13 C12 1.344 . S
O14 Co6 2.055 . S
O14 C18 1.253 . S
H15 C11 0.931 . S
H16 C12 0.930 . S
O17 Co6 2.039 . S
O17 C7 1.265 . S
C18 O14 1.253 . S
C18 O19 1.227 . S
O19 C18 1.227 . S
N20 Co6 2.140 . S
N20 C23 1.346 . S
N20 C24 1.345 . S
C21 C22 1.387 . S
C21 C25 1.391 . S
C22 C21 1.387 . S
C22 C23 1.369 . S
C22 H31 0.929 . S
C23 N20 1.346 . S
C23 C22 1.369 . S
C23 H26 0.928 . S
C24 N20 1.345 . S
C24 C25 1.371 . S
C24 H27 0.931 . S
C25 C21 1.391 . S
C25 C24 1.371 . S
C25 H32 0.930 . S
H26 C23 0.928 . S
H27 C24 0.931 . S
H28 C4 0.930 . S
H29 C1 0.930 . S
H30 C10 0.930 . S
H31 C22 0.929 . S
H32 C25 0.930 . S
C33 C34 1.351 . S
C33 N36 1.368 . S
C33 H38 0.931 . S
C34 C33 1.351 . S
C34 N35 1.373 . S
C34 H62 0.930 . S
N35 C34 1.373 . S
N35 C37 1.340 . S
N36 C33 1.368 . S
N36 C37 1.321 . S
N36 Co39 2.135 . S
C37 N35 1.340 . S
C37 N36 1.321 . S
C37 H61 0.930 . S
H38 C33 0.931 . S
Co39 N36 2.135 . S
Co39 N42 2.121 . S
Co39 O47 2.055 . S
Co39 O50 2.039 . S
Co39 N53 2.140 . S
C40 O41 1.227 . S
C40 O50 1.265 . S
O41 C40 1.227 . S
N42 Co39 2.121 . S
N42 C44 1.375 . S
N42 C45 1.313 . S
C43 C44 1.338 . S
C43 N46 1.377 . S
C43 H63 0.930 . S
C44 N42 1.375 . S
C44 C43 1.338 . S
C44 H48 0.931 . S
C45 N42 1.313 . S
C45 N46 1.344 . S
C45 H49 0.930 . S
N46 C43 1.377 . S
N46 C45 1.344 . S
O47 Co39 2.055 . S
O47 C51 1.253 . S
H48 C44 0.931 . S
H49 C45 0.930 . S
O50 Co39 2.039 . S
O50 C40 1.265 . S
C51 O47 1.253 . S
C51 O52 1.227 . S
O52 C51 1.227 . S
N53 Co39 2.140 . S
N53 C56 1.346 . S
N53 C57 1.345 . S
C54 C55 1.387 . S
C54 C58 1.391 1_455 S
C55 C54 1.387 . S
C55 C56 1.369 1_455 S
C55 H64 0.929 . S
C56 N53 1.346 . S
C56 C55 1.369 1_655 S
C56 H59 0.928 . S
C57 N53 1.345 . S
C57 C58 1.371 . S
C57 H60 0.931 . S
C58 C54 1.391 1_655 S
C58 C57 1.371 . S
C58 H65 0.930 . S
H59 C56 0.928 . S
H60 C57 0.931 . S
H61 C37 0.930 . S
H62 C34 0.930 . S
H63 C43 0.930 . S
H64 C55 0.929 . S
H65 C58 0.930 . S
C66 C67 1.351 . S
C66 N69 1.368 . S
C66 H71 0.931 . S
C67 C66 1.351 . S
C67 N68 1.373 . S
C67 H95 0.930 . S
N68 C67 1.373 . S
N68 C70 1.340 . S
N69 C66 1.368 . S
N69 C70 1.321 . S
N69 Co72 2.135 . S
C70 N68 1.340 . S
C70 N69 1.321 . S
C70 H94 0.930 . S
H71 C66 0.931 . S
Co72 N69 2.135 . S
Co72 N75 2.121 . S
Co72 O80 2.055 . S
Co72 O83 2.039 . S
Co72 N86 2.140 . S
C73 O74 1.227 . S
C73 O83 1.265 . S
O74 C73 1.227 . S
N75 Co72 2.121 . S
N75 C77 1.375 . S
N75 C78 1.313 . S
C76 C77 1.338 . S
C76 N79 1.377 . S
C76 H96 0.930 . S
C77 N75 1.375 . S
C77 C76 1.338 . S
C77 H81 0.931 . S
C78 N75 1.313 . S
C78 N79 1.344 . S
C78 H82 0.930 . S
N79 C76 1.377 . S
N79 C78 1.344 . S
O80 Co72 2.055 . S
O80 C84 1.253 . S
H81 C77 0.931 . S
H82 C78 0.930 . S
O83 Co72 2.039 . S
O83 C73 1.265 . S
C84 O80 1.253 . S
C84 O85 1.227 . S
O85 C84 1.227 . S
N86 Co72 2.140 . S
N86 C89 1.346 . S
N86 C90 1.345 . S
C87 C88 1.387 . S
C87 C91 1.391 1_545 S
C88 C87 1.387 . S
C88 C89 1.369 1_545 S
C88 H97 0.929 . S
C89 N86 1.346 . S
C89 C88 1.369 1_565 S
C89 H92 0.928 . S
C90 N86 1.345 . S
C90 C91 1.371 . S
C90 H93 0.931 . S
C91 C87 1.391 1_565 S
C91 C90 1.371 . S
C91 H98 0.930 . S
H92 C89 0.928 . S
H93 C90 0.931 . S
H94 C70 0.930 . S
H95 C67 0.930 . S
H96 C76 0.930 . S
H97 C88 0.929 . S
H98 C91 0.930 . S
C99 C100 1.351 . S
C99 N102 1.368 . S
C99 H104 0.931 . S
C100 C99 1.351 . S
C100 N101 1.373 . S
C100 H128 0.930 . S
N101 C100 1.373 . S
N101 C103 1.340 . S
N102 C99 1.368 . S
N102 C103 1.321 . S
N102 Co105 2.135 . S
C103 N101 1.340 . S
C103 N102 1.321 . S
C103 H127 0.930 . S
H104 C99 0.931 . S
Co105 N102 2.135 . S
Co105 N108 2.121 . S
Co105 O113 2.055 . S
Co105 O116 2.039 . S
Co105 N119 2.140 . S
C106 O107 1.227 . S
C106 O116 1.265 . S
O107 C106 1.227 . S
N108 Co105 2.121 . S
N108 C110 1.375 . S
N108 C111 1.313 . S
C109 C110 1.338 . S
C109 N112 1.377 . S
C109 H129 0.930 . S
C110 N108 1.375 . S
C110 C109 1.338 . S
C110 H114 0.931 . S
C111 N108 1.313 . S
C111 N112 1.344 . S
C111 H115 0.930 . S
N112 C109 1.377 . S
N112 C111 1.344 . S
O113 Co105 2.055 . S
O113 C117 1.253 . S
H114 C110 0.931 . S
H115 C111 0.930 . S
O116 Co105 2.039 . S
O116 C106 1.265 . S
C117 O113 1.253 . S
C117 O118 1.227 . S
O118 C117 1.227 . S
N119 Co105 2.140 . S
N119 C122 1.346 . S
N119 C123 1.345 . S
C120 C121 1.387 . S
C120 C124 1.391 . S
C121 C120 1.387 . S
C121 C122 1.369 . S
C121 H130 0.929 . S
C122 N119 1.346 . S
C122 C121 1.369 . S
C122 H125 0.928 . S
C123 N119 1.345 . S
C123 C124 1.371 . S
C123 H126 0.931 . S
C124 C120 1.391 . S
C124 C123 1.371 . S
C124 H131 0.930 . S
H125 C122 0.928 . S
H126 C123 0.931 . S
H127 C103 0.930 . S
H128 C100 0.930 . S
H129 C109 0.930 . S
H130 C121 0.929 . S
H131 C124 0.930 . S
C132 C133 1.351 . S
C132 N135 1.368 . S
C132 H137 0.931 . S
C133 C132 1.351 . S
C133 N134 1.373 . S
C133 H161 0.930 . S
N134 C133 1.373 . S
N134 C136 1.340 . S
N135 C132 1.368 . S
N135 C136 1.321 . S
N135 Co138 2.135 . S
C136 N134 1.340 . S
C136 N135 1.321 . S
C136 H160 0.930 . S
H137 C132 0.931 . S
Co138 N135 2.135 . S
Co138 N141 2.121 . S
Co138 O146 2.055 . S
Co138 O149 2.039 . S
Co138 N152 2.140 . S
C139 O140 1.227 . S
C139 O149 1.265 . S
O140 C139 1.227 . S
N141 Co138 2.121 . S
N141 C143 1.375 . S
N141 C144 1.313 . S
C142 C143 1.338 . S
C142 N145 1.377 . S
C142 H162 0.930 . S
C143 N141 1.375 . S
C143 C142 1.338 . S
C143 H147 0.931 . S
C144 N141 1.313 . S
C144 N145 1.344 . S
C144 H148 0.930 . S
N145 C142 1.377 . S
N145 C144 1.344 . S
O146 Co138 2.055 . S
O146 C150 1.253 . S
H147 C143 0.931 . S
H148 C144 0.930 . S
O149 Co138 2.039 . S
O149 C139 1.265 . S
C150 O146 1.253 . S
C150 O151 1.227 . S
O151 C150 1.227 . S
N152 Co138 2.140 . S
N152 C155 1.346 . S
N152 C156 1.345 . S
C153 C154 1.387 . S
C153 C157 1.391 1_655 S
C154 C153 1.387 . S
C154 C155 1.369 1_655 S
C154 H163 0.929 . S
C155 N152 1.346 . S
C155 C154 1.369 1_455 S
C155 H158 0.928 . S
C156 N152 1.345 . S
C156 C157 1.371 . S
C156 H159 0.931 . S
C157 C153 1.391 1_455 S
C157 C156 1.371 . S
C157 H164 0.930 . S
H158 C155 0.928 . S
H159 C156 0.931 . S
H160 C136 0.930 . S
H161 C133 0.930 . S
H162 C142 0.930 . S
H163 C154 0.929 . S
H164 C157 0.930 . S
C165 C166 1.351 . S
C165 N168 1.368 . S
C165 H170 0.931 . S
C166 C165 1.351 . S
C166 N167 1.373 . S
C166 H194 0.930 . S
N167 C166 1.373 . S
N167 C169 1.340 . S
N168 C165 1.368 . S
N168 C169 1.321 . S
N168 Co171 2.135 . S
C169 N167 1.340 . S
C169 N168 1.321 . S
C169 H193 0.930 . S
H170 C165 0.931 . S
Co171 N168 2.135 . S
Co171 N174 2.121 . S
Co171 O179 2.055 . S
Co171 O182 2.039 . S
Co171 N185 2.140 . S
C172 O173 1.227 . S
C172 O182 1.265 . S
O173 C172 1.227 . S
N174 Co171 2.121 . S
N174 C176 1.375 . S
N174 C177 1.313 . S
C175 C176 1.338 . S
C175 N178 1.377 . S
C175 H195 0.930 . S
C176 N174 1.375 . S
C176 C175 1.338 . S
C176 H180 0.931 . S
C177 N174 1.313 . S
C177 N178 1.344 . S
C177 H181 0.930 . S
N178 C175 1.377 . S
N178 C177 1.344 . S
O179 Co171 2.055 . S
O179 C183 1.253 . S
H180 C176 0.931 . S
H181 C177 0.930 . S
O182 Co171 2.039 . S
O182 C172 1.265 . S
C183 O179 1.253 . S
C183 O184 1.227 . S
O184 C183 1.227 . S
N185 Co171 2.140 . S
N185 C188 1.346 . S
N185 C189 1.345 . S
C186 C187 1.387 . S
C186 C190 1.391 1_565 S
C187 C186 1.387 . S
C187 C188 1.369 1_565 S
C187 H196 0.929 . S
C188 N185 1.346 . S
C188 C187 1.369 1_545 S
C188 H191 0.928 . S
C189 N185 1.345 . S
C189 C190 1.371 . S
C189 H192 0.931 . S
C190 C186 1.391 1_545 S
C190 C189 1.371 . S
C190 H197 0.930 . S
H191 C188 0.928 . S
H192 C189 0.931 . S
H193 C169 0.930 . S
H194 C166 0.930 . S
H195 C175 0.930 . S
H196 C187 0.929 . S
H197 C190 0.930 . S
C198 C199 1.351 . S
C198 N201 1.368 . S
C198 H203 0.931 . S
C199 C198 1.351 . S
C199 N200 1.373 . S
C199 H227 0.930 . S
N200 C199 1.373 . S
N200 C202 1.340 . S
N201 C198 1.368 . S
N201 C202 1.321 . S
N201 Co204 2.135 . S
C202 N200 1.340 . S
C202 N201 1.321 . S
C202 H226 0.930 . S
H203 C198 0.931 . S
Co204 N201 2.135 . S
Co204 N207 2.121 . S
Co204 O212 2.055 . S
Co204 O215 2.039 . S
Co204 N218 2.140 . S
C205 O206 1.227 . S
C205 O215 1.265 . S
O206 C205 1.227 . S
N207 Co204 2.121 . S
N207 C209 1.375 . S
N207 C210 1.313 . S
C208 C209 1.338 . S
C208 N211 1.377 . S
C208 H228 0.930 . S
C209 N207 1.375 . S
C209 C208 1.338 . S
C209 H213 0.931 . S
C210 N207 1.313 . S
C210 N211 1.344 . S
C210 H214 0.930 . S
N211 C208 1.377 . S
N211 C210 1.344 . S
O212 Co204 2.055 . S
O212 C216 1.253 . S
H213 C209 0.931 . S
H214 C210 0.930 . S
O215 Co204 2.039 . S
O215 C205 1.265 . S
C216 O212 1.253 . S
C216 O217 1.227 . S
O217 C216 1.227 . S
N218 Co204 2.140 . S
N218 C221 1.346 . S
N218 C222 1.345 . S
C219 C220 1.387 . S
C219 C223 1.391 . S
C220 C219 1.387 . S
C220 C221 1.369 . S
C220 H229 0.929 . S
C221 N218 1.346 . S
C221 C220 1.369 . S
C221 H224 0.928 . S
C222 N218 1.345 . S
C222 C223 1.371 . S
C222 H225 0.931 . S
C223 C219 1.391 . S
C223 C222 1.371 . S
C223 H230 0.930 . S
H224 C221 0.928 . S
H225 C222 0.931 . S
H226 C202 0.930 . S
H227 C199 0.930 . S
H228 C208 0.930 . S
H229 C220 0.929 . S
H230 C223 0.930 . S
C231 C232 1.351 . S
C231 N234 1.368 . S
C231 H236 0.931 . S
C232 C231 1.351 . S
C232 N233 1.373 . S
C232 H260 0.930 . S
N233 C232 1.373 . S
N233 C235 1.340 . S
N234 C231 1.368 . S
N234 C235 1.321 . S
N234 Co237 2.135 . S
C235 N233 1.340 . S
C235 N234 1.321 . S
C235 H259 0.930 . S
H236 C231 0.931 . S
Co237 N234 2.135 . S
Co237 N240 2.121 . S
Co237 O245 2.055 . S
Co237 O248 2.039 . S
Co237 N251 2.140 . S
C238 O239 1.227 . S
C238 O248 1.265 . S
O239 C238 1.227 . S
N240 Co237 2.121 . S
N240 C242 1.375 . S
N240 C243 1.313 . S
C241 C242 1.338 . S
C241 N244 1.377 . S
C241 H261 0.930 . S
C242 N240 1.375 . S
C242 C241 1.338 . S
C242 H246 0.931 . S
C243 N240 1.313 . S
C243 N244 1.344 . S
C243 H247 0.930 . S
N244 C241 1.377 . S
N244 C243 1.344 . S
O245 Co237 2.055 . S
O245 C249 1.253 . S
H246 C242 0.931 . S
H247 C243 0.930 . S
O248 Co237 2.039 . S
O248 C238 1.265 . S
C249 O245 1.253 . S
C249 O250 1.227 . S
O250 C249 1.227 . S
N251 Co237 2.140 . S
N251 C254 1.346 . S
N251 C255 1.345 . S
C252 C253 1.387 . S
C252 C256 1.391 1_455 S
C253 C252 1.387 . S
C253 C254 1.369 1_455 S
C253 H262 0.929 . S
C254 N251 1.346 . S
C254 C253 1.369 1_655 S
C254 H257 0.928 . S
C255 N251 1.345 . S
C255 C256 1.371 . S
C255 H258 0.931 . S
C256 C252 1.391 1_655 S
C256 C255 1.371 . S
C256 H263 0.930 . S
H257 C254 0.928 . S
H258 C255 0.931 . S
H259 C235 0.930 . S
H260 C232 0.930 . S
H261 C241 0.930 . S
H262 C253 0.929 . S
H263 C256 0.930 . S
C264 C265 1.351 . S
C264 N267 1.368 . S
C264 H269 0.931 . S
C265 C264 1.351 . S
C265 N266 1.373 . S
C265 H293 0.930 . S
N266 C265 1.373 . S
N266 C268 1.340 . S
N267 C264 1.368 . S
N267 C268 1.321 . S
N267 Co270 2.135 . S
C268 N266 1.340 . S
C268 N267 1.321 . S
C268 H292 0.930 . S
H269 C264 0.931 . S
Co270 N267 2.135 . S
Co270 N273 2.121 . S
Co270 O278 2.055 . S
Co270 O281 2.039 . S
Co270 N284 2.140 . S
C271 O272 1.227 . S
C271 O281 1.265 . S
O272 C271 1.227 . S
N273 Co270 2.121 . S
N273 C275 1.375 . S
N273 C276 1.313 . S
C274 C275 1.338 . S
C274 N277 1.377 . S
C274 H294 0.930 . S
C275 N273 1.375 . S
C275 C274 1.338 . S
C275 H279 0.931 . S
C276 N273 1.313 . S
C276 N277 1.344 . S
C276 H280 0.930 . S
N277 C274 1.377 . S
N277 C276 1.344 . S
O278 Co270 2.055 . S
O278 C282 1.253 . S
H279 C275 0.931 . S
H280 C276 0.930 . S
O281 Co270 2.039 . S
O281 C271 1.265 . S
C282 O278 1.253 . S
C282 O283 1.227 . S
O283 C282 1.227 . S
N284 Co270 2.140 . S
N284 C287 1.346 . S
N284 C288 1.345 . S
C285 C286 1.387 . S
C285 C289 1.391 1_545 S
C286 C285 1.387 . S
C286 C287 1.369 1_545 S
C286 H295 0.929 . S
C287 N284 1.346 . S
C287 C286 1.369 1_565 S
C287 H290 0.928 . S
C288 N284 1.345 . S
C288 C289 1.371 . S
C288 H291 0.931 . S
C289 C285 1.391 1_565 S
C289 C288 1.371 . S
C289 H296 0.930 . S
H290 C287 0.928 . S
H291 C288 0.931 . S
H292 C268 0.930 . S
H293 C265 0.930 . S
H294 C274 0.930 . S
H295 C286 0.929 . S
H296 C289 0.930 . S
C297 C298 1.351 . S
C297 N300 1.368 . S
C297 H302 0.931 . S
C298 C297 1.351 . S
C298 N299 1.373 . S
C298 H326 0.930 . S
N299 C298 1.373 . S
N299 C301 1.340 . S
N300 C297 1.368 . S
N300 C301 1.321 . S
N300 Co303 2.135 . S
C301 N299 1.340 . S
C301 N300 1.321 . S
C301 H325 0.930 . S
H302 C297 0.931 . S
Co303 N300 2.135 . S
Co303 N306 2.121 . S
Co303 O311 2.055 . S
Co303 O314 2.039 . S
Co303 N317 2.140 . S
C304 O305 1.227 . S
C304 O314 1.265 . S
O305 C304 1.227 . S
N306 Co303 2.121 . S
N306 C308 1.375 . S
N306 C309 1.313 . S
C307 C308 1.338 . S
C307 N310 1.377 . S
C307 H327 0.930 . S
C308 N306 1.375 . S
C308 C307 1.338 . S
C308 H312 0.931 . S
C309 N306 1.313 . S
C309 N310 1.344 . S
C309 H313 0.930 . S
N310 C307 1.377 . S
N310 C309 1.344 . S
O311 Co303 2.055 . S
O311 C315 1.253 . S
H312 C308 0.931 . S
H313 C309 0.930 . S
O314 Co303 2.039 . S
O314 C304 1.265 . S
C315 O311 1.253 . S
C315 O316 1.227 . S
O316 C315 1.227 . S
N317 Co303 2.140 . S
N317 C320 1.346 . S
N317 C321 1.345 . S
C318 C319 1.387 . S
C318 C322 1.391 . S
C319 C318 1.387 . S
C319 C320 1.369 . S
C319 H328 0.929 . S
C320 N317 1.346 . S
C320 C319 1.369 . S
C320 H323 0.928 . S
C321 N317 1.345 . S
C321 C322 1.371 . S
C321 H324 0.931 . S
C322 C318 1.391 . S
C322 C321 1.371 . S
C322 H329 0.930 . S
H323 C320 0.928 . S
H324 C321 0.931 . S
H325 C301 0.930 . S
H326 C298 0.930 . S
H327 C307 0.930 . S
H328 C319 0.929 . S
H329 C322 0.930 . S
C330 C331 1.351 . S
C330 N333 1.368 . S
C330 H335 0.931 . S
C331 C330 1.351 . S
C331 N332 1.373 . S
C331 H359 0.930 . S
N332 C331 1.373 . S
N332 C334 1.340 . S
N333 C330 1.368 . S
N333 C334 1.321 . S
N333 Co336 2.135 . S
C334 N332 1.340 . S
C334 N333 1.321 . S
C334 H358 0.930 . S
H335 C330 0.931 . S
Co336 N333 2.135 . S
Co336 N339 2.121 . S
Co336 O344 2.055 . S
Co336 O347 2.039 . S
Co336 N350 2.140 . S
C337 O338 1.227 . S
C337 O347 1.265 . S
O338 C337 1.227 . S
N339 Co336 2.121 . S
N339 C341 1.375 . S
N339 C342 1.313 . S
C340 C341 1.338 . S
C340 N343 1.377 . S
C340 H360 0.930 . S
C341 N339 1.375 . S
C341 C340 1.338 . S
C341 H345 0.931 . S
C342 N339 1.313 . S
C342 N343 1.344 . S
C342 H346 0.930 . S
N343 C340 1.377 . S
N343 C342 1.344 . S
O344 Co336 2.055 . S
O344 C348 1.253 . S
H345 C341 0.931 . S
H346 C342 0.930 . S
O347 Co336 2.039 . S
O347 C337 1.265 . S
C348 O344 1.253 . S
C348 O349 1.227 . S
O349 C348 1.227 . S
N350 Co336 2.140 . S
N350 C353 1.346 . S
N350 C354 1.345 . S
C351 C352 1.387 . S
C351 C355 1.391 1_655 S
C352 C351 1.387 . S
C352 C353 1.369 1_655 S
C352 H361 0.929 . S
C353 N350 1.346 . S
C353 C352 1.369 1_455 S
C353 H356 0.928 . S
C354 N350 1.345 . S
C354 C355 1.371 . S
C354 H357 0.931 . S
C355 C351 1.391 1_455 S
C355 C354 1.371 . S
C355 H362 0.930 . S
H356 C353 0.928 . S
H357 C354 0.931 . S
H358 C334 0.930 . S
H359 C331 0.930 . S
H360 C340 0.930 . S
H361 C352 0.929 . S
H362 C355 0.930 . S
C363 C364 1.351 . S
C363 N366 1.368 . S
C363 H368 0.931 . S
C364 C363 1.351 . S
C364 N365 1.373 . S
C364 H392 0.930 . S
N365 C364 1.373 . S
N365 C367 1.340 . S
N366 C363 1.368 . S
N366 C367 1.321 . S
N366 Co369 2.135 . S
C367 N365 1.340 . S
C367 N366 1.321 . S
C367 H391 0.930 . S
H368 C363 0.931 . S
Co369 N366 2.135 . S
Co369 N372 2.121 . S
Co369 O377 2.055 . S
Co369 O380 2.039 . S
Co369 N383 2.140 . S
C370 O371 1.227 . S
C370 O380 1.265 . S
O371 C370 1.227 . S
N372 Co369 2.121 . S
N372 C374 1.375 . S
N372 C375 1.313 . S
C373 C374 1.338 . S
C373 N376 1.377 . S
C373 H393 0.930 . S
C374 N372 1.375 . S
C374 C373 1.338 . S
C374 H378 0.931 . S
C375 N372 1.313 . S
C375 N376 1.344 . S
C375 H379 0.930 . S
N376 C373 1.377 . S
N376 C375 1.344 . S
O377 Co369 2.055 . S
O377 C381 1.253 . S
H378 C374 0.931 . S
H379 C375 0.930 . S
O380 Co369 2.039 . S
O380 C370 1.265 . S
C381 O377 1.253 . S
C381 O382 1.227 . S
O382 C381 1.227 . S
N383 Co369 2.140 . S
N383 C386 1.346 . S
N383 C387 1.345 . S
C384 C385 1.387 . S
C384 C388 1.391 1_565 S
C385 C384 1.387 . S
C385 C386 1.369 1_565 S
C385 H394 0.929 . S
C386 N383 1.346 . S
C386 C385 1.369 1_545 S
C386 H389 0.928 . S
C387 N383 1.345 . S
C387 C388 1.371 . S
C387 H390 0.931 . S
C388 C384 1.391 1_545 S
C388 C387 1.371 . S
C388 H395 0.930 . S
H389 C386 0.928 . S
H390 C387 0.931 . S
H391 C367 0.930 . S
H392 C364 0.930 . S
H393 C373 0.930 . S
H394 C385 0.929 . S
H395 C388 0.930 . S
C396 C397 1.391 . S
C396 C398 1.394 . S
C396 H412 0.931 . S
C397 C396 1.391 . S
C397 C401 1.376 . S
C398 C396 1.394 . S
C398 C399 1.369 . S
C398 C402 1.531 . S
C399 C398 1.369 . S
C399 C400 1.410 . S
C399 C407 1.503 . S
C400 C399 1.410 . S
C400 C401 1.392 . S
C400 C403 1.511 . S
C401 C397 1.376 . S
C401 C400 1.392 . S
C401 H413 0.929 . S
C402 C398 1.531 . S
C402 H414 0.960 . S
C402 H415 0.962 . S
C402 H416 0.960 . S
C403 C400 1.511 . S
C403 H417 0.961 . S
C403 H418 0.961 . S
C403 H419 0.961 . S
C404 C405 1.370 . S
C404 C406 1.363 . S
C404 H420 0.931 . S
C405 C404 1.370 . S
C405 C409 1.408 . S
C406 C404 1.363 . S
C406 C407 1.370 . S
C406 C410 1.524 . S
C407 C399 1.503 . S
C407 C406 1.370 . S
C407 C408 1.403 . S
C408 C407 1.403 . S
C408 C409 1.404 . S
C408 C411 1.539 . S
C409 C405 1.408 . S
C409 C408 1.404 . S
C409 H421 0.930 . S
C410 C406 1.524 . S
C410 H422 0.956 . S
C410 H423 0.961 . S
C410 H424 0.961 . S
C411 C408 1.539 . S
C411 H425 0.958 . S
C411 H426 0.961 . S
C411 H427 0.960 . S
H412 C396 0.931 . S
H413 C401 0.929 . S
H414 C402 0.960 . S
H415 C402 0.962 . S
H416 C402 0.960 . S
H417 C403 0.961 . S
H418 C403 0.961 . S
H419 C403 0.961 . S
H420 C404 0.931 . S
H421 C409 0.930 . S
H422 C410 0.956 . S
H423 C410 0.961 . S
H424 C410 0.961 . S
H425 C411 0.958 . S
H426 C411 0.961 . S
H427 C411 0.960 . S
C428 C429 1.391 . S
C428 C430 1.394 . S
C428 H444 0.931 . S
C429 C428 1.391 . S
C429 C433 1.376 . S
C430 C428 1.394 . S
C430 C431 1.369 . S
C430 C434 1.531 . S
C431 C430 1.369 . S
C431 C432 1.410 1_655 S
C431 C439 1.503 1_655 S
C432 C431 1.410 1_455 S
C432 C433 1.392 1_455 S
C432 C435 1.511 . S
C433 C429 1.376 . S
C433 C432 1.392 1_655 S
C433 H445 0.929 . S
C434 C430 1.531 . S
C434 H446 0.960 . S
C434 H447 0.962 . S
C434 H448 0.960 . S
C435 C432 1.511 . S
C435 H449 0.961 . S
C435 H450 0.961 . S
C435 H451 0.961 . S
C436 C437 1.370 . S
C436 C438 1.363 . S
C436 H452 0.931 . S
C437 C436 1.370 . S
C437 C441 1.408 . S
C438 C436 1.363 . S
C438 C439 1.370 . S
C438 C442 1.524 1_455 S
C439 C431 1.503 1_455 S
C439 C438 1.370 . S
C439 C440 1.403 . S
C440 C439 1.403 . S
C440 C441 1.404 . S
C440 C443 1.539 . S
C441 C437 1.408 . S
C441 C440 1.404 . S
C441 H453 0.930 . S
C442 C438 1.524 1_655 S
C442 H454 0.956 . S
C442 H455 0.961 . S
C442 H456 0.961 . S
C443 C440 1.539 . S
C443 H457 0.958 . S
C443 H458 0.961 . S
C443 H459 0.960 . S
H444 C428 0.931 . S
H445 C433 0.929 . S
H446 C434 0.960 . S
H447 C434 0.962 . S
H448 C434 0.960 . S
H449 C435 0.961 . S
H450 C435 0.961 . S
H451 C435 0.961 . S
H452 C436 0.931 . S
H453 C441 0.930 . S
H454 C442 0.956 . S
H455 C442 0.961 . S
H456 C442 0.961 . S
H457 C443 0.958 . S
H458 C443 0.961 . S
H459 C443 0.960 . S
C460 C461 1.391 . S
C460 C462 1.394 . S
C460 H476 0.931 . S
C461 C460 1.391 . S
C461 C465 1.376 . S
C462 C460 1.394 . S
C462 C463 1.369 . S
C462 C466 1.531 1_556 S
C463 C462 1.369 . S
C463 C464 1.410 . S
C463 C471 1.503 1_566 S
C464 C463 1.410 . S
C464 C465 1.392 . S
C464 C467 1.511 1_565 S
C465 C461 1.376 . S
C465 C464 1.392 . S
C465 H477 0.929 . S
C466 C462 1.531 1_554 S
C466 H478 0.960 . S
C466 H479 0.962 . S
C466 H480 0.960 . S
C467 C464 1.511 1_545 S
C467 H481 0.961 . S
C467 H482 0.961 . S
C467 H483 0.961 . S
C468 C469 1.370 . S
C468 C470 1.363 . S
C468 H484 0.931 . S
C469 C468 1.370 . S
C469 C473 1.408 . S
C470 C468 1.363 . S
C470 C471 1.370 . S
C470 C474 1.524 1_554 S
C471 C463 1.503 1_544 S
C471 C470 1.370 . S
C471 C472 1.403 . S
C472 C471 1.403 . S
C472 C473 1.404 . S
C472 C475 1.539 1_545 S
C473 C469 1.408 . S
C473 C472 1.404 . S
C473 H485 0.930 . S
C474 C470 1.524 1_556 S
C474 H486 0.956 . S
C474 H487 0.961 . S
C474 H488 0.971 . S
C475 C472 1.539 1_565 S
C475 H489 0.958 . S
C475 H490 0.961 . S
C475 H491 0.960 . S
H476 C460 0.931 . S
H477 C465 0.929 . S
H478 C466 0.960 . S
H479 C466 0.962 . S
H480 C466 0.960 . S
H481 C467 0.961 . S
H482 C467 0.961 . S
H483 C467 0.961 . S
H484 C468 0.931 . S
H485 C473 0.930 . S
H486 C474 0.956 . S
H487 C474 0.961 . S
H488 C474 0.971 . S
H489 C475 0.958 . S
H490 C475 0.961 . S
H491 C475 0.960 . S
C492 C493 1.391 . S
C492 C494 1.394 . S
C492 H508 0.931 . S
C493 C492 1.391 . S
C493 C497 1.376 . S
C494 C492 1.394 . S
C494 C495 1.369 . S
C494 C498 1.531 . S
C495 C494 1.369 . S
C495 C496 1.410 . S
C495 C503 1.503 . S
C496 C495 1.410 . S
C496 C497 1.392 . S
C496 C499 1.511 . S
C497 C493 1.376 . S
C497 C496 1.392 . S
C497 H509 0.929 . S
C498 C494 1.531 . S
C498 H510 0.960 . S
C498 H511 0.962 . S
C498 H512 0.960 . S
C499 C496 1.511 . S
C499 H513 0.961 . S
C499 H514 0.961 . S
C499 H515 0.961 . S
C500 C501 1.370 . S
C500 C502 1.363 . S
C500 H516 0.931 . S
C501 C500 1.370 . S
C501 C505 1.408 . S
C502 C500 1.363 . S
C502 C503 1.370 . S
C502 C506 1.524 . S
C503 C495 1.503 . S
C503 C502 1.370 . S
C503 C504 1.403 . S
C504 C503 1.403 . S
C504 C505 1.404 . S
C504 C507 1.539 . S
C505 C501 1.408 . S
C505 C504 1.404 . S
C505 H517 0.930 . S
C506 C502 1.524 . S
C506 H518 0.956 . S
C506 H519 0.961 . S
C506 H520 0.961 . S
C507 C504 1.539 . S
C507 H521 0.958 . S
C507 H522 0.961 . S
C507 H523 0.960 . S
H508 C492 0.931 . S
H509 C497 0.929 . S
H510 C498 0.960 . S
H511 C498 0.962 . S
H512 C498 0.960 . S
H513 C499 0.961 . S
H514 C499 0.961 . S
H515 C499 0.961 . S
H516 C500 0.931 . S
H517 C505 0.930 . S
H518 C506 0.956 . S
H519 C506 0.961 . S
H520 C506 0.961 . S
H521 C507 0.958 . S
H522 C507 0.961 . S
H523 C507 0.960 . S
C524 C525 1.391 . S
C524 C526 1.394 1_455 S
C524 H540 0.931 . S
C525 C524 1.391 . S
C525 C529 1.376 . S
C526 C524 1.394 1_655 S
C526 C527 1.369 1_655 S
C526 C530 1.531 . S
C527 C526 1.369 1_455 S
C527 C528 1.410 . S
C527 C535 1.503 1_455 S
C528 C527 1.410 . S
C528 C529 1.392 . S
C528 C531 1.511 . S
C529 C525 1.376 . S
C529 C528 1.392 . S
C529 H541 0.929 . S
C530 C526 1.531 . S
C530 H542 0.960 . S
C530 H543 0.962 . S
C530 H544 0.960 . S
C531 C528 1.511 . S
C531 H545 0.961 . S
C531 H546 0.961 . S
C531 H547 0.961 . S
C532 C533 1.370 . S
C532 C534 1.363 . S
C532 H548 0.931 . S
C533 C532 1.370 . S
C533 C537 1.408 . S
C534 C532 1.363 . S
C534 C535 1.370 . S
C534 C538 1.524 . S
C535 C527 1.503 1_655 S
C535 C534 1.370 . S
C535 C536 1.403 . S
C536 C535 1.403 . S
C536 C537 1.404 . S
C536 C539 1.539 1_655 S
C537 C533 1.408 . S
C537 C536 1.404 . S
C537 H549 0.930 . S
C538 C534 1.524 . S
C538 H550 0.956 . S
C538 H551 0.961 . S
C538 H552 0.961 . S
C539 C536 1.539 1_455 S
C539 H553 0.958 1_455 S
C539 H554 0.961 . S
C539 H555 0.960 . S
H540 C524 0.931 . S
H541 C529 0.929 . S
H542 C530 0.960 . S
H543 C530 0.962 . S
H544 C530 0.960 . S
H545 C531 0.961 . S
H546 C531 0.961 . S
H547 C531 0.961 . S
H548 C532 0.931 . S
H549 C537 0.930 . S
H550 C538 0.956 . S
H551 C538 0.961 . S
H552 C538 0.961 . S
H553 C539 0.958 1_655 S
H554 C539 0.961 . S
H555 C539 0.960 . S
C556 C557 1.391 . S
C556 C558 1.394 . S
C556 H572 0.931 . S
C557 C556 1.391 . S
C557 C561 1.376 . S
C558 C556 1.394 . S
C558 C559 1.369 . S
C558 C562 1.531 1_545 S
C559 C558 1.369 . S
C559 C560 1.410 . S
C559 C567 1.503 1_546 S
C560 C559 1.410 . S
C560 C561 1.392 . S
C560 C563 1.511 . S
C561 C557 1.376 . S
C561 C560 1.392 . S
C561 H573 0.929 . S
C562 C558 1.531 1_565 S
C562 H574 0.960 . S
C562 H575 0.962 1_565 S
C562 H576 0.960 . S
C563 C560 1.511 . S
C563 H577 0.961 . S
C563 H578 0.961 1_556 S
C563 H579 0.961 1_545 S
C564 C565 1.370 . S
C564 C566 1.363 1_565 S
C564 H580 0.931 . S
C565 C564 1.370 . S
C565 C569 1.408 . S
C566 C564 1.363 1_545 S
C566 C567 1.370 1_545 S
C566 C570 1.524 . S
C567 C559 1.503 1_564 S
C567 C566 1.370 1_565 S
C567 C568 1.403 . S
C568 C567 1.403 . S
C568 C569 1.404 . S
C568 C571 1.539 1_554 S
C569 C565 1.408 . S
C569 C568 1.404 . S
C569 H581 0.930 . S
C570 C566 1.524 . S
C570 H582 0.956 . S
C570 H583 0.961 . S
C570 H584 0.961 . S
C571 C568 1.539 1_556 S
C571 H585 0.958 . S
C571 H586 0.961 . S
C571 H587 0.960 . S
H572 C556 0.931 . S
H573 C561 0.929 . S
H574 C562 0.960 . S
H575 C562 0.962 1_545 S
H576 C562 0.960 . S
H577 C563 0.961 . S
H578 C563 0.961 1_554 S
H579 C563 0.961 1_565 S
H580 C564 0.931 . S
H581 C569 0.930 . S
H582 C570 0.956 . S
H583 C570 0.961 . S
H584 C570 0.961 . S
H585 C571 0.958 . S
H586 C571 0.961 . S
H587 C571 0.960 . S
C588 C589 1.391 . S
C588 C590 1.394 . S
C588 H604 0.931 . S
C589 C588 1.391 . S
C589 C593 1.376 . S
C590 C588 1.394 . S
C590 C591 1.369 . S
C590 C594 1.531 . S
C591 C590 1.369 . S
C591 C592 1.410 . S
C591 C599 1.503 1_556 S
C592 C591 1.410 . S
C592 C593 1.392 . S
C592 C595 1.499 1_556 S
C593 C589 1.376 . S
C593 C592 1.392 . S
C593 H605 0.929 . S
C594 C590 1.531 . S
C594 H606 0.960 . S
C594 H607 0.962 . S
C594 H608 0.960 . S
C595 C592 1.499 1_554 S
C595 H609 0.954 1_554 S
C595 H610 0.975 . S
C595 H611 0.966 . S
C596 C597 1.370 . S
C596 C598 1.363 . S
C596 H612 0.931 . S
C597 C596 1.370 . S
C597 C601 1.408 . S
C598 C596 1.363 . S
C598 C599 1.370 . S
C598 C602 1.524 . S
C599 C591 1.503 1_554 S
C599 C598 1.370 . S
C599 C600 1.403 . S
C600 C599 1.403 . S
C600 C601 1.404 . S
C600 C603 1.539 . S
C601 C597 1.408 . S
C601 C600 1.404 . S
C601 H613 0.930 . S
C602 C598 1.524 . S
C602 H614 0.956 1_554 S
C602 H615 0.961 1_554 S
C602 H616 0.961 . S
C603 C600 1.539 . S
C603 H617 0.958 . S
C603 H618 0.961 . S
C603 H619 0.960 . S
H604 C588 0.931 . S
H605 C593 0.929 . S
H606 C594 0.960 . S
H607 C594 0.962 . S
H608 C594 0.960 . S
H609 C595 0.954 1_556 S
H610 C595 0.975 . S
H611 C595 0.966 . S
H612 C596 0.931 . S
H613 C601 0.930 . S
H614 C602 0.956 1_556 S
H615 C602 0.961 1_556 S
H616 C602 0.961 . S
H617 C603 0.958 . S
H618 C603 0.961 . S
H619 C603 0.960 . S
C620 C621 1.391 . S
C620 C622 1.394 . S
C620 H636 0.931 . S
C621 C620 1.391 . S
C621 C625 1.376 . S
C622 C620 1.394 . S
C622 C623 1.369 . S
C622 C626 1.531 . S
C623 C622 1.369 . S
C623 C624 1.410 . S
C623 C631 1.503 . S
C624 C623 1.410 . S
C624 C625 1.392 . S
C624 C627 1.511 . S
C625 C621 1.376 . S
C625 C624 1.392 . S
C625 H637 0.929 . S
C626 C622 1.531 . S
C626 H638 0.960 . S
C626 H639 0.962 . S
C626 H640 0.960 . S
C627 C624 1.511 . S
C627 H641 0.961 . S
C627 H642 0.961 . S
C627 H643 0.961 . S
C628 C629 1.370 . S
C628 C630 1.363 . S
C628 H644 0.931 . S
C629 C628 1.370 . S
C629 C633 1.408 . S
C630 C628 1.363 . S
C630 C631 1.370 . S
C630 C634 1.524 . S
C631 C623 1.503 . S
C631 C630 1.370 . S
C631 C632 1.403 . S
C632 C631 1.403 . S
C632 C633 1.404 . S
C632 C635 1.539 . S
C633 C629 1.408 . S
C633 C632 1.404 . S
C633 H645 0.930 . S
C634 C630 1.524 . S
C634 H646 0.956 . S
C634 H647 0.961 . S
C634 H648 0.961 . S
C635 C632 1.539 . S
C635 H649 0.958 . S
C635 H650 0.961 . S
C635 H651 0.960 . S
H636 C620 0.931 . S
H637 C625 0.929 . S
H638 C626 0.960 . S
H639 C626 0.962 . S
H640 C626 0.960 . S
H641 C627 0.961 . S
H642 C627 0.961 . S
H643 C627 0.961 . S
H644 C628 0.931 . S
H645 C633 0.930 . S
H646 C634 0.956 . S
H647 C634 0.961 . S
H648 C634 0.961 . S
H649 C635 0.958 . S
H650 C635 0.961 . S
H651 C635 0.960 . S
C652 C653 1.391 . S
C652 C654 1.394 . S
C652 H668 0.931 . S
C653 C652 1.391 . S
C653 C657 1.376 . S
C654 C652 1.394 . S
C654 C655 1.369 . S
C654 C658 1.531 . S
C655 C654 1.369 . S
C655 C656 1.410 . S
C655 C663 1.503 . S
C656 C655 1.410 . S
C656 C657 1.392 . S
C656 C659 1.511 . S
C657 C653 1.376 . S
C657 C656 1.392 . S
C657 H669 0.929 . S
C658 C654 1.531 . S
C658 H670 0.960 . S
C658 H671 0.962 . S
C658 H672 0.960 . S
C659 C656 1.511 . S
C659 H673 0.961 . S
C659 H674 0.961 . S
C659 H675 0.961 . S
C660 C661 1.370 . S
C660 C662 1.363 . S
C660 H676 0.931 . S
C661 C660 1.370 . S
C661 C665 1.408 . S
C662 C660 1.363 . S
C662 C663 1.370 . S
C662 C666 1.524 . S
C663 C655 1.503 . S
C663 C662 1.370 . S
C663 C664 1.403 . S
C664 C663 1.403 . S
C664 C665 1.404 . S
C664 C667 1.539 . S
C665 C661 1.408 . S
C665 C664 1.404 . S
C665 H677 0.930 . S
C666 C662 1.524 . S
C666 H678 0.956 . S
C666 H679 0.961 . S
C666 H680 0.961 . S
C667 C664 1.539 . S
C667 H681 0.958 . S
C667 H682 0.961 . S
C667 H683 0.960 . S
H668 C652 0.931 . S
H669 C657 0.929 . S
H670 C658 0.960 . S
H671 C658 0.962 . S
H672 C658 0.960 . S
H673 C659 0.961 . S
H674 C659 0.961 . S
H675 C659 0.961 . S
H676 C660 0.931 . S
H677 C665 0.930 . S
H678 C666 0.956 . S
H679 C666 0.961 . S
H680 C666 0.961 . S
H681 C667 0.958 . S
H682 C667 0.961 . S
H683 C667 0.960 . S
C684 C685 1.391 . S
C684 C686 1.394 . S
C684 H700 0.931 . S
C685 C684 1.391 . S
C685 C689 1.376 . S
C686 C684 1.394 . S
C686 C687 1.369 . S
C686 C690 1.531 . S
C687 C686 1.369 . S
C687 C688 1.410 . S
C687 C695 1.503 1_556 S
C688 C687 1.410 . S
C688 C689 1.392 . S
C688 C691 1.511 . S
C689 C685 1.376 . S
C689 C688 1.392 . S
C689 H701 0.929 . S
C690 C686 1.531 . S
C690 H702 0.960 1_556 S
C690 H703 0.962 1_556 S
C690 H704 0.960 . S
C691 C688 1.511 . S
C691 H705 0.961 . S
C691 H706 0.961 . S
C691 H707 0.961 . S
C692 C693 1.370 . S
C692 C694 1.363 . S
C692 H708 0.931 . S
C693 C692 1.370 . S
C693 C697 1.408 . S
C694 C692 1.363 . S
C694 C695 1.370 . S
C694 C698 1.524 . S
C695 C687 1.503 1_554 S
C695 C694 1.370 . S
C695 C696 1.403 . S
C696 C695 1.403 . S
C696 C697 1.404 . S
C696 C699 1.539 . S
C697 C693 1.408 . S
C697 C696 1.404 . S
C697 H709 0.930 . S
C698 C694 1.524 . S
C698 H710 0.956 . S
C698 H711 0.962 1_554 S
C698 H712 0.961 . S
C699 C696 1.539 . S
C699 H713 0.958 . S
C699 H714 0.961 . S
C699 H715 0.960 1_554 S
H700 C684 0.931 . S
H701 C689 0.929 . S
H702 C690 0.960 1_554 S
H703 C690 0.962 1_554 S
H704 C690 0.960 . S
H705 C691 0.961 . S
H706 C691 0.961 . S
H707 C691 0.961 . S
H708 C692 0.931 . S
H709 C697 0.930 . S
H710 C698 0.956 . S
H711 C698 0.962 1_556 S
H712 C698 0.961 . S
H713 C699 0.958 . S
H714 C699 0.961 . S
H715 C699 0.960 1_556 S
C716 C717 1.391 . S
C716 C718 1.394 . S
C716 H732 0.931 . S
C717 C716 1.391 . S
C717 C721 1.376 . S
C718 C716 1.394 . S
C718 C719 1.369 . S
C718 C722 1.531 . S
C719 C718 1.369 . S
C719 C720 1.410 . S
C719 C727 1.503 . S
C720 C719 1.410 . S
C720 C721 1.392 . S
C720 C723 1.511 . S
C721 C717 1.376 . S
C721 C720 1.392 . S
C721 H733 0.929 . S
C722 C718 1.531 . S
C722 H734 0.960 . S
C722 H735 0.962 . S
C722 H736 0.960 . S
C723 C720 1.511 . S
C723 H737 0.961 . S
C723 H738 0.961 . S
C723 H739 0.961 . S
C724 C725 1.370 . S
C724 C726 1.363 . S
C724 H740 0.931 . S
C725 C724 1.370 . S
C725 C729 1.408 . S
C726 C724 1.363 . S
C726 C727 1.370 . S
C726 C730 1.524 . S
C727 C719 1.503 . S
C727 C726 1.370 . S
C727 C728 1.403 . S
C728 C727 1.403 . S
C728 C729 1.404 . S
C728 C731 1.539 . S
C729 C725 1.408 . S
C729 C728 1.404 . S
C729 H741 0.930 . S
C730 C726 1.524 . S
C730 H742 0.956 . S
C730 H743 0.961 . S
C730 H744 0.961 . S
C731 C728 1.539 . S
C731 H745 0.958 . S
C731 H746 0.961 . S
C731 H747 0.960 . S
H732 C716 0.931 . S
H733 C721 0.929 . S
H734 C722 0.960 . S
H735 C722 0.962 . S
H736 C722 0.960 . S
H737 C723 0.961 . S
H738 C723 0.961 . S
H739 C723 0.961 . S
H740 C724 0.931 . S
H741 C729 0.930 . S
H742 C730 0.956 . S
H743 C730 0.961 . S
H744 C730 0.961 . S
H745 C731 0.958 . S
H746 C731 0.961 . S
H747 C731 0.960 . S
C748 C749 1.391 . S
C748 C750 1.394 . S
C748 H764 0.931 . S
C749 C748 1.391 . S
C749 C753 1.376 . S
C750 C748 1.394 . S
C750 C751 1.369 . S
C750 C754 1.531 . S
C751 C750 1.369 . S
C751 C752 1.410 . S
C751 C759 1.503 . S
C752 C751 1.410 . S
C752 C753 1.392 . S
C752 C755 1.511 . S
C753 C749 1.376 . S
C753 C752 1.392 . S
C753 H765 0.929 . S
C754 C750 1.531 . S
C754 H766 0.960 . S
C754 H767 0.962 . S
C754 H768 0.960 . S
C755 C752 1.511 . S
C755 H769 0.961 . S
C755 H770 0.961 . S
C755 H771 0.961 . S
C756 C757 1.370 . S
C756 C758 1.363 . S
C756 H772 0.931 . S
C757 C756 1.370 . S
C757 C761 1.408 . S
C758 C756 1.363 . S
C758 C759 1.370 . S
C758 C762 1.524 . S
C759 C751 1.503 . S
C759 C758 1.370 . S
C759 C760 1.403 . S
C760 C759 1.403 . S
C760 C761 1.404 . S
C760 C763 1.539 . S
C761 C757 1.408 . S
C761 C760 1.404 . S
C761 H773 0.930 . S
C762 C758 1.524 . S
C762 H774 0.956 . S
C762 H775 0.961 . S
C762 H776 0.961 . S
C763 C760 1.539 . S
C763 H777 0.958 . S
C763 H778 0.961 . S
C763 H779 0.960 . S
H764 C748 0.931 . S
H765 C753 0.929 . S
H766 C754 0.960 . S
H767 C754 0.962 . S
H768 C754 0.960 . S
H769 C755 0.961 . S
H770 C755 0.961 . S
H771 C755 0.961 . S
H772 C756 0.931 . S
H773 C761 0.930 . S
H774 C762 0.956 . S
H775 C762 0.961 . S
H776 C762 0.961 . S
H777 C763 0.958 . S
H778 C763 0.961 . S
H779 C763 0.960 . S
C780 C781 1.391 . S
C780 C782 1.394 . S
C780 H796 0.931 . S
C781 C780 1.391 . S
C781 C785 1.376 . S
C782 C780 1.394 . S
C782 C783 1.369 . S
C782 C786 1.531 . S
C783 C782 1.369 . S
C783 C784 1.410 . S
C783 C791 1.503 . S
C784 C783 1.410 . S
C784 C785 1.392 . S
C784 C787 1.511 . S
C785 C781 1.376 . S
C785 C784 1.392 . S
C785 H797 0.929 . S
C786 C782 1.531 . S
C786 H798 0.960 . S
C786 H799 0.962 . S
C786 H800 0.960 . S
C787 C784 1.511 . S
C787 H801 0.961 . S
C787 H802 0.961 . S
C787 H803 0.961 . S
C788 C789 1.370 . S
C788 C790 1.363 . S
C788 H804 0.931 . S
C789 C788 1.370 . S
C789 C793 1.408 . S
C790 C788 1.363 . S
C790 C791 1.370 . S
C790 C794 1.524 . S
C791 C783 1.503 . S
C791 C790 1.370 . S
C791 C792 1.403 . S
C792 C791 1.403 . S
C792 C793 1.404 . S
C792 C795 1.539 . S
C793 C789 1.408 . S
C793 C792 1.404 . S
C793 H805 0.930 . S
C794 C790 1.524 . S
C794 H806 0.956 . S
C794 H807 0.961 . S
C794 H808 0.961 . S
C795 C792 1.539 . S
C795 H809 0.958 . S
C795 H810 0.961 . S
C795 H811 0.960 . S
H796 C780 0.931 . S
H797 C785 0.929 . S
H798 C786 0.960 . S
H799 C786 0.962 . S
H800 C786 0.960 . S
H801 C787 0.961 . S
H802 C787 0.961 . S
H803 C787 0.961 . S
H804 C788 0.931 . S
H805 C793 0.930 . S
H806 C794 0.956 . S
H807 C794 0.961 . S
H808 C794 0.961 . S
H809 C795 0.958 . S
H810 C795 0.961 . S
H811 C795 0.960 . S
C812 C813 1.391 . S
C812 C814 1.394 . S
C812 H828 0.931 . S
C813 C812 1.391 . S
C813 C817 1.376 . S
C814 C812 1.394 . S
C814 C815 1.369 . S
C814 C818 1.531 . S
C815 C814 1.369 . S
C815 C816 1.410 . S
C815 C823 1.503 1_655 S
C816 C815 1.410 . S
C816 C817 1.392 . S
C816 C819 1.511 1_655 S
C817 C813 1.376 . S
C817 C816 1.392 . S
C817 H829 0.929 . S
C818 C814 1.531 . S
C818 H830 0.960 1_655 S
C818 H831 0.962 . S
C818 H832 0.960 . S
C819 C816 1.511 1_455 S
C819 H833 0.961 1_455 S
C819 H834 0.961 . S
C819 H835 0.961 . S
C820 C821 1.370 . S
C820 C822 1.363 . S
C820 H836 0.931 . S
C821 C820 1.370 . S
C821 C825 1.408 . S
C822 C820 1.363 . S
C822 C823 1.370 . S
C822 C826 1.524 1_455 S
C823 C815 1.503 1_455 S
C823 C822 1.370 . S
C823 C824 1.403 . S
C824 C823 1.403 . S
C824 C825 1.404 . S
C824 C827 1.539 . S
C825 C821 1.408 . S
C825 C824 1.404 . S
C825 H837 0.930 . S
C826 C822 1.524 1_655 S
C826 H838 0.956 . S
C826 H839 0.961 . S
C826 H840 0.961 . S
C827 C824 1.539 . S
C827 H841 0.958 . S
C827 H842 0.961 . S
C827 H843 0.960 . S
H828 C812 0.931 . S
H829 C817 0.929 . S
H830 C818 0.960 1_455 S
H831 C818 0.962 . S
H832 C818 0.960 . S
H833 C819 0.961 1_655 S
H834 C819 0.961 . S
H835 C819 0.961 . S
H836 C820 0.931 . S
H837 C825 0.930 . S
H838 C826 0.956 . S
H839 C826 0.961 . S
H840 C826 0.961 . S
H841 C827 0.958 . S
H842 C827 0.961 . S
H843 C827 0.960 . S
C844 C845 1.391 . S
C844 C846 1.394 . S
C844 H860 0.931 . S
C845 C844 1.391 . S
C845 C849 1.376 . S
C846 C844 1.394 . S
C846 C847 1.369 . S
C846 C850 1.531 . S
C847 C846 1.369 . S
C847 C848 1.405 . S
C847 C855 1.503 1_545 S
C848 C847 1.405 . S
C848 C849 1.414 . S
C848 C851 1.495 1_545 S
C849 C845 1.376 . S
C849 C848 1.414 . S
C849 H861 0.929 . S
C850 C846 1.531 . S
C850 H862 0.960 . S
C850 H863 0.962 . S
C850 H864 0.960 . S
C851 C848 1.495 1_565 S
C851 H865 0.961 . S
C851 H866 0.961 . S
C851 H867 0.961 . S
C852 C853 1.370 . S
C852 C854 1.363 . S
C852 H868 0.931 . S
C853 C852 1.370 . S
C853 C857 1.408 . S
C854 C852 1.363 . S
C854 C855 1.370 . S
C854 C858 1.514 1_565 S
C855 C847 1.503 1_565 S
C855 C854 1.370 . S
C855 C856 1.403 . S
C856 C855 1.403 . S
C856 C857 1.404 . S
C856 C859 1.539 . S
C857 C853 1.408 . S
C857 C856 1.404 . S
C857 H869 0.930 . S
C858 C854 1.514 1_545 S
C858 H870 0.969 . S
C858 H871 0.967 1_545 S
C858 H872 0.951 1_545 S
C859 C856 1.539 . S
C859 H873 0.958 . S
C859 H874 0.961 . S
C859 H875 0.960 . S
H860 C844 0.931 . S
H861 C849 0.929 . S
H862 C850 0.960 . S
H863 C850 0.962 . S
H864 C850 0.960 . S
H865 C851 0.961 . S
H866 C851 0.961 . S
H867 C851 0.961 . S
H868 C852 0.931 . S
H869 C857 0.930 . S
H870 C858 0.969 . S
H871 C858 0.967 1_565 S
H872 C858 0.951 1_565 S
H873 C859 0.958 . S
H874 C859 0.961 . S
H875 C859 0.960 . S
C876 C877 1.391 . S
C876 C878 1.394 . S
C876 H892 0.931 . S
C877 C876 1.391 . S
C877 C881 1.376 . S
C878 C876 1.394 . S
C878 C879 1.369 . S
C878 C882 1.531 . S
C879 C878 1.369 . S
C879 C880 1.410 . S
C879 C887 1.503 . S
C880 C879 1.410 . S
C880 C881 1.392 . S
C880 C883 1.511 . S
C881 C877 1.376 . S
C881 C880 1.392 . S
C881 H893 0.929 . S
C882 C878 1.531 . S
C882 H894 0.960 . S
C882 H895 0.962 . S
C882 H896 0.960 . S
C883 C880 1.511 . S
C883 H897 0.961 . S
C883 H898 0.961 . S
C883 H899 0.961 . S
C884 C885 1.370 . S
C884 C886 1.363 . S
C884 H900 0.931 . S
C885 C884 1.370 . S
C885 C889 1.408 . S
C886 C884 1.363 . S
C886 C887 1.370 . S
C886 C890 1.524 . S
C887 C879 1.503 . S
C887 C886 1.370 . S
C887 C888 1.403 . S
C888 C887 1.403 . S
C888 C889 1.404 . S
C888 C891 1.539 . S
C889 C885 1.408 . S
C889 C888 1.404 . S
C889 H901 0.930 . S
C890 C886 1.524 . S
C890 H902 0.956 . S
C890 H903 0.961 . S
C890 H904 0.961 . S
C891 C888 1.539 . S
C891 H905 0.958 . S
C891 H906 0.961 . S
C891 H907 0.960 . S
H892 C876 0.931 . S
H893 C881 0.929 . S
H894 C882 0.960 . S
H895 C882 0.962 . S
H896 C882 0.960 . S
H897 C883 0.961 . S
H898 C883 0.961 . S
H899 C883 0.961 . S
H900 C884 0.931 . S
H901 C889 0.930 . S
H902 C890 0.956 . S
H903 C890 0.961 . S
H904 C890 0.961 . S
H905 C891 0.958 . S
H906 C891 0.961 . S
H907 C891 0.960 . S
C908 C909 1.391 . S
C908 C910 1.394 . S
C908 H924 0.931 . S
C909 C908 1.391 . S
C909 C913 1.376 . S
C910 C908 1.394 . S
C910 C911 1.369 . S
C910 C914 1.531 1_655 S
C911 C910 1.369 . S
C911 C912 1.410 . S
C911 C919 1.503 1_655 S
C912 C911 1.410 . S
C912 C913 1.392 . S
C912 C915 1.511 . S
C913 C909 1.376 . S
C913 C912 1.392 . S
C913 H925 0.929 . S
C914 C910 1.531 1_455 S
C914 H926 0.960 . S
C914 H927 0.962 . S
C914 H928 0.960 . S
C915 C912 1.511 . S
C915 H929 0.961 . S
C915 H930 0.961 . S
C915 H931 0.961 . S
C916 C917 1.370 . S
C916 C918 1.363 . S
C916 H932 0.931 . S
C917 C916 1.370 . S
C917 C921 1.408 . S
C918 C916 1.363 . S
C918 C919 1.370 . S
C918 C922 1.524 1_455 S
C919 C911 1.503 1_455 S
C919 C918 1.370 . S
C919 C920 1.403 . S
C920 C919 1.403 . S
C920 C921 1.404 . S
C920 C923 1.539 . S
C921 C917 1.408 . S
C921 C920 1.404 . S
C921 H933 0.930 . S
C922 C918 1.524 1_655 S
C922 H934 0.956 . S
C922 H935 0.961 . S
C922 H936 0.961 . S
C923 C920 1.539 . S
C923 H937 0.958 . S
C923 H938 0.961 . S
C923 H939 0.960 . S
H924 C908 0.931 . S
H925 C913 0.929 . S
H926 C914 0.960 . S
H927 C914 0.962 . S
H928 C914 0.960 . S
H929 C915 0.961 . S
H930 C915 0.961 . S
H931 C915 0.961 . S
H932 C916 0.931 . S
H933 C921 0.930 . S
H934 C922 0.956 . S
H935 C922 0.961 . S
H936 C922 0.961 . S
H937 C923 0.958 . S
H938 C923 0.961 . S
H939 C923 0.960 . S
C940 C941 1.391 . S
C940 C942 1.394 . S
C940 H956 0.931 . S
C941 C940 1.391 . S
C941 C945 1.376 . S
C942 C940 1.394 . S
C942 C943 1.369 . S
C942 C946 1.531 . S
C943 C942 1.369 . S
C943 C944 1.410 . S
C943 C951 1.503 1_545 S
C944 C943 1.410 . S
C944 C945 1.392 . S
C944 C947 1.511 1_545 S
C945 C941 1.376 . S
C945 C944 1.392 . S
C945 H957 0.929 . S
C946 C942 1.531 . S
C946 H958 0.960 . S
C946 H959 0.962 . S
C946 H960 0.960 . S
C947 C944 1.511 1_565 S
C947 H961 0.961 . S
C947 H962 0.961 . S
C947 H963 0.961 . S
C948 C949 1.370 . S
C948 C950 1.363 . S
C948 H964 0.931 . S
C949 C948 1.370 . S
C949 C953 1.408 . S
C950 C948 1.363 . S
C950 C951 1.370 . S
C950 C954 1.524 1_565 S
C951 C943 1.503 1_565 S
C951 C950 1.370 . S
C951 C952 1.403 . S
C952 C951 1.403 . S
C952 C953 1.404 . S
C952 C955 1.539 . S
C953 C949 1.408 . S
C953 C952 1.404 . S
C953 H965 0.930 . S
C954 C950 1.524 1_545 S
C954 H966 0.956 . S
C954 H967 0.961 . S
C954 H968 0.961 . S
C955 C952 1.539 . S
C955 H969 0.958 . S
C955 H970 0.961 . S
C955 H971 0.960 . S
H956 C940 0.931 . S
H957 C945 0.929 . S
H958 C946 0.960 . S
H959 C946 0.962 . S
H960 C946 0.960 . S
H961 C947 0.961 . S
H962 C947 0.961 . S
H963 C947 0.961 . S
H964 C948 0.931 . S
H965 C953 0.930 . S
H966 C954 0.956 . S
H967 C954 0.961 . S
H968 C954 0.961 . S
H969 C955 0.958 . S
H970 C955 0.961 . S
H971 C955 0.960 . S
C972 C973 1.391 . S
C972 C974 1.394 . S
C972 H988 0.931 . S
C973 C972 1.391 . S
C973 C977 1.376 . S
C974 C972 1.394 . S
C974 C975 1.369 . S
C974 C978 1.531 . S
C975 C974 1.369 . S
C975 C976 1.410 . S
C975 C983 1.503 1_455 S
C976 C975 1.410 . S
C976 C977 1.392 . S
C976 C979 1.511 . S
C977 C973 1.376 . S
C977 C976 1.392 . S
C977 H989 0.929 . S
C978 C974 1.531 . S
C978 H990 0.960 1_455 S
C978 H991 0.962 . S
C978 H992 0.960 . S
C979 C976 1.511 . S
C979 H993 0.961 . S
C979 H994 0.961 1_455 S
C979 H995 0.961 . S
C980 C981 1.370 . S
C980 C982 1.363 . S
C980 H996 0.931 . S
C981 C980 1.370 . S
C981 C985 1.408 . S
C982 C980 1.363 . S
C982 C983 1.370 . S
C982 C986 1.524 . S
C983 C975 1.503 1_655 S
C983 C982 1.370 . S
C983 C984 1.403 . S
C984 C983 1.403 . S
C984 C985 1.404 . S
C984 C987 1.539 . S
C985 C981 1.408 . S
C985 C984 1.404 . S
C985 H997 0.930 . S
C986 C982 1.524 . S
C986 H998 0.956 . S
C986 H999 0.961 . S
C986 H1000 0.961 . S
C987 C984 1.539 . S
C987 H1001 0.958 . S
C987 H1002 0.961 . S
C987 H1003 0.960 1_655 S
H988 C972 0.931 . S
H989 C977 0.929 . S
H990 C978 0.960 1_655 S
H991 C978 0.962 . S
H992 C978 0.960 . S
H993 C979 0.961 . S
H994 C979 0.961 1_655 S
H995 C979 0.961 . S
H996 C980 0.931 . S
H997 C985 0.930 . S
H998 C986 0.956 . S
H999 C986 0.961 . S
H1000 C986 0.961 . S
H1001 C987 0.958 . S
H1002 C987 0.961 . S
H1003 C987 0.960 1_455 S
C1004 C1005 1.391 . S
C1004 C1006 1.394 . S
C1004 H1020 0.931 . S
C1005 C1004 1.391 . S
C1005 C1009 1.376 . S
C1006 C1004 1.394 . S
C1006 C1007 1.369 . S
C1006 C1010 1.531 . S
C1007 C1006 1.369 . S
C1007 C1008 1.410 . S
C1007 C1015 1.503 1_565 S
C1008 C1007 1.410 . S
C1008 C1009 1.392 . S
C1008 C1011 1.511 . S
C1009 C1005 1.376 . S
C1009 C1008 1.392 . S
C1009 H1021 0.929 . S
C1010 C1006 1.531 . S
C1010 H1022 0.960 1_565 S
C1010 H1023 0.962 . S
C1010 H1024 0.960 . S
C1011 C1008 1.511 . S
C1011 H1025 0.961 . S
C1011 H1026 0.961 1_565 S
C1011 H1027 0.961 . S
C1012 C1013 1.370 . S
C1012 C1014 1.363 . S
C1012 H1028 0.931 . S
C1013 C1012 1.370 . S
C1013 C1017 1.408 . S
C1014 C1012 1.363 . S
C1014 C1015 1.370 . S
C1014 C1018 1.524 . S
C1015 C1007 1.503 1_545 S
C1015 C1014 1.370 . S
C1015 C1016 1.403 . S
C1016 C1015 1.403 . S
C1016 C1017 1.404 . S
C1016 C1019 1.539 . S
C1017 C1013 1.408 . S
C1017 C1016 1.404 . S
C1017 H1029 0.930 . S
C1018 C1014 1.524 . S
C1018 H1030 0.956 1_545 S
C1018 H1031 0.961 1_545 S
C1018 H1032 0.961 . S
C1019 C1016 1.539 . S
C1019 H1033 0.958 . S
C1019 H1034 0.961 . S
C1019 H1035 0.960 . S
H1020 C1004 0.931 . S
H1021 C1009 0.929 . S
H1022 C1010 0.960 1_545 S
H1023 C1010 0.962 . S
H1024 C1010 0.960 . S
H1025 C1011 0.961 . S
H1026 C1011 0.961 1_545 S
H1027 C1011 0.961 . S
H1028 C1012 0.931 . S
H1029 C1017 0.930 . S
H1030 C1018 0.956 1_565 S
H1031 C1018 0.961 1_565 S
H1032 C1018 0.961 . S
H1033 C1019 0.958 . S
H1034 C1019 0.961 . S
H1035 C1019 0.960 . S
C1036 C1037 1.391 . S
C1036 C1038 1.394 . S
C1036 H1052 0.931 . S
C1037 C1036 1.391 . S
C1037 C1041 1.376 . S
C1038 C1036 1.394 . S
C1038 C1039 1.369 . S
C1038 C1042 1.531 . S
C1039 C1038 1.369 . S
C1039 C1040 1.410 . S
C1039 C1047 1.503 . S
C1040 C1039 1.410 . S
C1040 C1041 1.392 . S
C1040 C1043 1.511 . S
C1041 C1037 1.376 . S
C1041 C1040 1.392 . S
C1041 H1053 0.929 . S
C1042 C1038 1.531 . S
C1042 H1054 0.960 . S
C1042 H1055 0.962 . S
C1042 H1056 0.960 . S
C1043 C1040 1.511 . S
C1043 H1057 0.961 . S
C1043 H1058 0.961 . S
C1043 H1059 0.961 . S
C1044 C1045 1.370 . S
C1044 C1046 1.363 . S
C1044 H1060 0.931 . S
C1045 C1044 1.370 . S
C1045 C1049 1.408 . S
C1046 C1044 1.363 . S
C1046 C1047 1.370 . S
C1046 C1050 1.524 . S
C1047 C1039 1.503 . S
C1047 C1046 1.370 . S
C1047 C1048 1.403 . S
C1048 C1047 1.403 . S
C1048 C1049 1.404 . S
C1048 C1051 1.539 . S
C1049 C1045 1.408 . S
C1049 C1048 1.404 . S
C1049 H1061 0.930 . S
C1050 C1046 1.524 . S
C1050 H1062 0.956 . S
C1050 H1063 0.961 . S
C1050 H1064 0.961 . S
C1051 C1048 1.539 . S
C1051 H1065 0.958 . S
C1051 H1066 0.961 . S
C1051 H1067 0.960 . S
H1052 C1036 0.931 . S
H1053 C1041 0.929 . S
H1054 C1042 0.960 . S
H1055 C1042 0.962 . S
H1056 C1042 0.960 . S
H1057 C1043 0.961 . S
H1058 C1043 0.961 . S
H1059 C1043 0.961 . S
H1060 C1044 0.931 . S
H1061 C1049 0.930 . S
H1062 C1050 0.956 . S
H1063 C1050 0.961 . S
H1064 C1050 0.961 . S
H1065 C1051 0.958 . S
H1066 C1051 0.961 . S
H1067 C1051 0.960 . S
C1068 C1069 1.391 . S
C1068 C1070 1.394 . S
C1068 H1084 0.931 . S
C1069 C1068 1.391 . S
C1069 C1073 1.376 . S
C1070 C1068 1.394 . S
C1070 C1071 1.369 . S
C1070 C1074 1.531 . S
C1071 C1070 1.369 . S
C1071 C1072 1.410 . S
C1071 C1079 1.503 1_655 S
C1072 C1071 1.410 . S
C1072 C1073 1.392 . S
C1072 C1075 1.511 . S
C1073 C1069 1.376 . S
C1073 C1072 1.392 . S
C1073 H1085 0.929 . S
C1074 C1070 1.531 . S
C1074 H1086 0.960 1_655 S
C1074 H1087 0.962 . S
C1074 H1088 0.960 . S
C1075 C1072 1.511 . S
C1075 H1089 0.961 . S
C1075 H1090 0.961 1_655 S
C1075 H1091 0.961 . S
C1076 C1077 1.370 . S
C1076 C1078 1.363 . S
C1076 H1092 0.931 . S
C1077 C1076 1.370 . S
C1077 C1081 1.408 . S
C1078 C1076 1.363 . S
C1078 C1079 1.370 . S
C1078 C1082 1.524 . S
C1079 C1071 1.503 1_455 S
C1079 C1078 1.370 . S
C1079 C1080 1.403 . S
C1080 C1079 1.403 . S
C1080 C1081 1.404 . S
C1080 C1083 1.539 . S
C1081 C1077 1.408 . S
C1081 C1080 1.404 . S
C1081 H1093 0.930 . S
C1082 C1078 1.524 . S
C1082 H1094 0.956 . S
C1082 H1095 0.961 . S
C1082 H1096 0.961 . S
C1083 C1080 1.539 . S
C1083 H1097 0.958 . S
C1083 H1098 0.961 . S
C1083 H1099 0.960 1_455 S
H1084 C1068 0.931 . S
H1085 C1073 0.929 . S
H1086 C1074 0.960 1_455 S
H1087 C1074 0.962 . S
H1088 C1074 0.960 . S
H1089 C1075 0.961 . S
H1090 C1075 0.961 1_455 S
H1091 C1075 0.961 . S
H1092 C1076 0.931 . S
H1093 C1081 0.930 . S
H1094 C1082 0.956 . S
H1095 C1082 0.961 . S
H1096 C1082 0.961 . S
H1097 C1083 0.958 . S
H1098 C1083 0.961 . S
H1099 C1083 0.960 1_655 S
C1100 C1101 1.391 . S
C1100 C1102 1.394 . S
C1100 H1116 0.931 . S
C1101 C1100 1.391 . S
C1101 C1105 1.376 . S
C1102 C1100 1.394 . S
C1102 C1103 1.369 . S
C1102 C1106 1.531 . S
C1103 C1102 1.369 . S
C1103 C1104 1.410 . S
C1103 C1111 1.503 1_565 S
C1104 C1103 1.410 . S
C1104 C1105 1.392 . S
C1104 C1107 1.511 . S
C1105 C1101 1.376 . S
C1105 C1104 1.392 . S
C1105 H1117 0.929 . S
C1106 C1102 1.531 . S
C1106 H1118 0.960 . S
C1106 H1119 0.962 . S
C1106 H1120 0.960 . S
C1107 C1104 1.511 . S
C1107 H1121 0.961 . S
C1107 H1122 0.961 1_565 S
C1107 H1123 0.961 . S
C1108 C1109 1.370 . S
C1108 C1110 1.363 . S
C1108 H1124 0.931 . S
C1109 C1108 1.370 . S
C1109 C1113 1.408 . S
C1110 C1108 1.363 . S
C1110 C1111 1.370 . S
C1110 C1114 1.524 . S
C1111 C1103 1.503 1_545 S
C1111 C1110 1.370 . S
C1111 C1112 1.403 . S
C1112 C1111 1.403 . S
C1112 C1113 1.404 . S
C1112 C1115 1.539 . S
C1113 C1109 1.408 . S
C1113 C1112 1.404 . S
C1113 H1125 0.930 . S
C1114 C1110 1.524 . S
C1114 H1126 0.956 . S
C1114 H1127 0.961 . S
C1114 H1128 0.961 . S
C1115 C1112 1.539 . S
C1115 H1129 0.958 . S
C1115 H1130 0.961 . S
C1115 H1131 0.960 1_545 S
H1116 C1100 0.931 . S
H1117 C1105 0.929 . S
H1118 C1106 0.960 . S
H1119 C1106 0.962 . S
H1120 C1106 0.960 . S
H1121 C1107 0.961 . S
H1122 C1107 0.961 1_545 S
H1123 C1107 0.961 . S
H1124 C1108 0.931 . S
H1125 C1113 0.930 . S
H1126 C1114 0.956 . S
H1127 C1114 0.961 . S
H1128 C1114 0.961 . S
H1129 C1115 0.958 . S
H1130 C1115 0.961 . S
H1131 C1115 0.960 1_565 S
C1132 C1133 1.391 . S
C1132 C1134 1.394 . S
C1132 H1148 0.931 . S
C1133 C1132 1.391 . S
C1133 C1137 1.376 . S
C1134 C1132 1.394 . S
C1134 C1135 1.369 . S
C1134 C1138 1.531 . S
C1135 C1134 1.369 . S
C1135 C1136 1.410 . S
C1135 C1143 1.503 . S
C1136 C1135 1.410 . S
C1136 C1137 1.392 . S
C1136 C1139 1.511 . S
C1137 C1133 1.376 . S
C1137 C1136 1.392 . S
C1137 H1149 0.929 . S
C1138 C1134 1.531 . S
C1138 H1150 0.960 . S
C1138 H1151 0.962 . S
C1138 H1152 0.960 . S
C1139 C1136 1.511 . S
C1139 H1153 0.961 . S
C1139 H1154 0.961 . S
C1139 H1155 0.961 . S
C1140 C1141 1.370 . S
C1140 C1142 1.363 . S
C1140 H1156 0.931 . S
C1141 C1140 1.370 . S
C1141 C1145 1.408 . S
C1142 C1140 1.363 . S
C1142 C1143 1.370 . S
C1142 C1146 1.524 . S
C1143 C1135 1.503 . S
C1143 C1142 1.370 . S
C1143 C1144 1.403 . S
C1144 C1143 1.403 . S
C1144 C1145 1.404 . S
C1144 C1147 1.539 . S
C1145 C1141 1.408 . S
C1145 C1144 1.404 . S
C1145 H1157 0.930 . S
C1146 C1142 1.524 . S
C1146 H1158 0.956 . S
C1146 H1159 0.961 . S
C1146 H1160 0.961 . S
C1147 C1144 1.539 . S
C1147 H1161 0.958 . S
C1147 H1162 0.961 . S
C1147 H1163 0.960 . S
H1148 C1132 0.931 . S
H1149 C1137 0.929 . S
H1150 C1138 0.960 . S
H1151 C1138 0.962 . S
H1152 C1138 0.960 . S
H1153 C1139 0.961 . S
H1154 C1139 0.961 . S
H1155 C1139 0.961 . S
H1156 C1140 0.931 . S
H1157 C1145 0.930 . S
H1158 C1146 0.956 . S
H1159 C1146 0.961 . S
H1160 C1146 0.961 . S
H1161 C1147 0.958 . S
H1162 C1147 0.961 . S
H1163 C1147 0.960 . S
C1164 C1165 1.391 . S
C1164 C1166 1.394 . S
C1164 H1180 0.931 . S
C1165 C1164 1.391 . S
C1165 C1169 1.376 . S
C1166 C1164 1.394 . S
C1166 C1167 1.369 . S
C1166 C1170 1.531 . S
C1167 C1166 1.369 . S
C1167 C1168 1.410 . S
C1167 C1175 1.503 . S
C1168 C1167 1.410 . S
C1168 C1169 1.392 . S
C1168 C1171 1.511 . S
C1169 C1165 1.376 . S
C1169 C1168 1.392 . S
C1169 H1181 0.929 . S
C1170 C1166 1.531 . S
C1170 H1182 0.960 . S
C1170 H1183 0.962 . S
C1170 H1184 0.960 . S
C1171 C1168 1.511 . S
C1171 H1185 0.961 . S
C1171 H1186 0.961 . S
C1171 H1187 0.961 . S
C1172 C1173 1.370 . S
C1172 C1174 1.363 . S
C1172 H1188 0.931 . S
C1173 C1172 1.370 . S
C1173 C1177 1.408 . S
C1174 C1172 1.363 . S
C1174 C1175 1.370 . S
C1174 C1178 1.524 . S
C1175 C1167 1.503 . S
C1175 C1174 1.370 . S
C1175 C1176 1.403 . S
C1176 C1175 1.403 . S
C1176 C1177 1.404 . S
C1176 C1179 1.539 . S
C1177 C1173 1.408 . S
C1177 C1176 1.404 . S
C1177 H1189 0.930 . S
C1178 C1174 1.524 . S
C1178 H1190 0.956 . S
C1178 H1191 0.961 . S
C1178 H1192 0.961 . S
C1179 C1176 1.539 . S
C1179 H1193 0.958 . S
C1179 H1194 0.961 . S
C1179 H1195 0.960 . S
H1180 C1164 0.931 . S
H1181 C1169 0.929 . S
H1182 C1170 0.960 . S
H1183 C1170 0.962 . S
H1184 C1170 0.960 . S
H1185 C1171 0.961 . S
H1186 C1171 0.961 . S
H1187 C1171 0.961 . S
H1188 C1172 0.931 . S
H1189 C1177 0.930 . S
H1190 C1178 0.956 . S
H1191 C1178 0.961 . S
H1192 C1178 0.961 . S
H1193 C1179 0.958 . S
H1194 C1179 0.961 . S
H1195 C1179 0.960 . S
C1196 C1197 1.391 . S
C1196 C1198 1.394 . S
C1196 H1212 0.931 . S
C1197 C1196 1.391 . S
C1197 C1201 1.376 . S
C1198 C1196 1.394 . S
C1198 C1199 1.369 . S
C1198 C1202 1.531 . S
C1199 C1198 1.369 . S
C1199 C1200 1.410 . S
C1199 C1207 1.503 . S
C1200 C1199 1.410 . S
C1200 C1201 1.392 . S
C1200 C1203 1.511 . S
C1201 C1197 1.376 . S
C1201 C1200 1.392 . S
C1201 H1213 0.929 . S
C1202 C1198 1.531 . S
C1202 H1214 0.960 . S
C1202 H1215 0.962 . S
C1202 H1216 0.960 . S
C1203 C1200 1.511 . S
C1203 H1217 0.961 . S
C1203 H1218 0.961 . S
C1203 H1219 0.961 . S
C1204 C1205 1.370 . S
C1204 C1206 1.363 . S
C1204 H1220 0.931 . S
C1205 C1204 1.370 . S
C1205 C1209 1.408 . S
C1206 C1204 1.363 . S
C1206 C1207 1.370 . S
C1206 C1210 1.524 . S
C1207 C1199 1.503 . S
C1207 C1206 1.370 . S
C1207 C1208 1.403 . S
C1208 C1207 1.403 . S
C1208 C1209 1.404 . S
C1208 C1211 1.539 . S
C1209 C1205 1.408 . S
C1209 C1208 1.404 . S
C1209 H1221 0.930 . S
C1210 C1206 1.524 . S
C1210 H1222 0.956 . S
C1210 H1223 0.961 . S
C1210 H1224 0.961 . S
C1211 C1208 1.539 . S
C1211 H1225 0.958 . S
C1211 H1226 0.961 . S
C1211 H1227 0.960 . S
H1212 C1196 0.931 . S
H1213 C1201 0.929 . S
H1214 C1202 0.960 . S
H1215 C1202 0.962 . S
H1216 C1202 0.960 . S
H1217 C1203 0.961 . S
H1218 C1203 0.961 . S
H1219 C1203 0.961 . S
H1220 C1204 0.931 . S
H1221 C1209 0.930 . S
H1222 C1210 0.956 . S
H1223 C1210 0.961 . S
H1224 C1210 0.961 . S
H1225 C1211 0.958 . S
H1226 C1211 0.961 . S
H1227 C1211 0.960 . S
C1228 C1229 1.391 . S
C1228 C1230 1.394 . S
C1228 H1244 0.931 . S
C1229 C1228 1.391 . S
C1229 C1233 1.376 . S
C1230 C1228 1.394 . S
C1230 C1231 1.369 . S
C1230 C1234 1.531 . S
C1231 C1230 1.369 . S
C1231 C1232 1.410 . S
C1231 C1239 1.503 . S
C1232 C1231 1.410 . S
C1232 C1233 1.392 . S
C1232 C1235 1.511 . S
C1233 C1229 1.376 . S
C1233 C1232 1.392 . S
C1233 H1245 0.929 . S
C1234 C1230 1.531 . S
C1234 H1246 0.960 . S
C1234 H1247 0.962 . S
C1234 H1248 0.960 . S
C1235 C1232 1.511 . S
C1235 H1249 0.961 . S
C1235 H1250 0.961 . S
C1235 H1251 0.961 . S
C1236 C1237 1.370 . S
C1236 C1238 1.363 . S
C1236 H1252 0.931 . S
C1237 C1236 1.370 . S
C1237 C1241 1.408 . S
C1238 C1236 1.363 . S
C1238 C1239 1.370 . S
C1238 C1242 1.524 . S
C1239 C1231 1.503 . S
C1239 C1238 1.370 . S
C1239 C1240 1.403 . S
C1240 C1239 1.403 . S
C1240 C1241 1.404 . S
C1240 C1243 1.539 . S
C1241 C1237 1.408 . S
C1241 C1240 1.404 . S
C1241 H1253 0.930 . S
C1242 C1238 1.524 . S
C1242 H1254 0.956 . S
C1242 H1255 0.961 . S
C1242 H1256 0.961 . S
C1243 C1240 1.539 . S
C1243 H1257 0.958 . S
C1243 H1258 0.961 . S
C1243 H1259 0.960 . S
H1244 C1228 0.931 . S
H1245 C1233 0.929 . S
H1246 C1234 0.960 . S
H1247 C1234 0.962 . S
H1248 C1234 0.960 . S
H1249 C1235 0.961 . S
H1250 C1235 0.961 . S
H1251 C1235 0.961 . S
H1252 C1236 0.931 . S
H1253 C1241 0.930 . S
H1254 C1242 0.956 . S
H1255 C1242 0.961 . S
H1256 C1242 0.961 . S
H1257 C1243 0.958 . S
H1258 C1243 0.961 . S
H1259 C1243 0.960 . S
C1260 C1261 1.391 . S
C1260 C1262 1.394 . S
C1260 H1276 0.931 . S
C1261 C1260 1.391 . S
C1261 C1265 1.376 . S
C1262 C1260 1.394 . S
C1262 C1263 1.369 . S
C1262 C1266 1.531 . S
C1263 C1262 1.369 . S
C1263 C1264 1.410 . S
C1263 C1271 1.503 . S
C1264 C1263 1.410 . S
C1264 C1265 1.392 . S
C1264 C1267 1.511 . S
C1265 C1261 1.376 . S
C1265 C1264 1.392 . S
C1265 H1277 0.929 . S
C1266 C1262 1.531 . S
C1266 H1278 0.960 . S
C1266 H1279 0.962 . S
C1266 H1280 0.960 . S
C1267 C1264 1.511 . S
C1267 H1281 0.961 . S
C1267 H1282 0.961 . S
C1267 H1283 0.961 . S
C1268 C1269 1.370 . S
C1268 C1270 1.363 . S
C1268 H1284 0.931 . S
C1269 C1268 1.370 . S
C1269 C1273 1.408 . S
C1270 C1268 1.363 . S
C1270 C1271 1.370 . S
C1270 C1274 1.524 . S
C1271 C1263 1.503 . S
C1271 C1270 1.370 . S
C1271 C1272 1.403 . S
C1272 C1271 1.403 . S
C1272 C1273 1.404 . S
C1272 C1275 1.539 . S
C1273 C1269 1.408 . S
C1273 C1272 1.404 . S
C1273 H1285 0.930 . S
C1274 C1270 1.524 . S
C1274 H1286 0.956 . S
C1274 H1287 0.961 . S
C1274 H1288 0.961 . S
C1275 C1272 1.539 . S
C1275 H1289 0.958 . S
C1275 H1290 0.961 . S
C1275 H1291 0.960 . S
H1276 C1260 0.931 . S
H1277 C1265 0.929 . S
H1278 C1266 0.960 . S
H1279 C1266 0.962 . S
H1280 C1266 0.960 . S
H1281 C1267 0.961 . S
H1282 C1267 0.961 . S
H1283 C1267 0.961 . S
H1284 C1268 0.931 . S
H1285 C1273 0.930 . S
H1286 C1274 0.956 . S
H1287 C1274 0.961 . S
H1288 C1274 0.961 . S
H1289 C1275 0.958 . S
H1290 C1275 0.961 . S
H1291 C1275 0.960 . S
C1292 C1293 1.391 . S
C1292 C1294 1.394 . S
C1292 H1308 0.931 . S
C1293 C1292 1.391 . S
C1293 C1297 1.376 . S
C1294 C1292 1.394 . S
C1294 C1295 1.369 . S
C1294 C1298 1.531 . S
C1295 C1294 1.369 . S
C1295 C1296 1.410 . S
C1295 C1303 1.503 . S
C1296 C1295 1.410 . S
C1296 C1297 1.392 . S
C1296 C1299 1.511 . S
C1297 C1293 1.376 . S
C1297 C1296 1.392 . S
C1297 H1309 0.929 . S
C1298 C1294 1.531 . S
C1298 H1310 0.960 . S
C1298 H1311 0.962 . S
C1298 H1312 0.960 . S
C1299 C1296 1.511 . S
C1299 H1313 0.961 . S
C1299 H1314 0.961 . S
C1299 H1315 0.961 . S
C1300 C1301 1.370 . S
C1300 C1302 1.363 . S
C1300 H1316 0.931 . S
C1301 C1300 1.370 . S
C1301 C1305 1.408 . S
C1302 C1300 1.363 . S
C1302 C1303 1.370 . S
C1302 C1306 1.524 . S
C1303 C1295 1.503 . S
C1303 C1302 1.370 . S
C1303 C1304 1.403 . S
C1304 C1303 1.403 . S
C1304 C1305 1.404 . S
C1304 C1307 1.539 . S
C1305 C1301 1.408 . S
C1305 C1304 1.404 . S
C1305 H1317 0.930 . S
C1306 C1302 1.524 . S
C1306 H1318 0.956 . S
C1306 H1319 0.961 . S
C1306 H1320 0.961 . S
C1307 C1304 1.539 . S
C1307 H1321 0.958 . S
C1307 H1322 0.961 . S
C1307 H1323 0.960 . S
H1308 C1292 0.931 . S
H1309 C1297 0.929 . S
H1310 C1298 0.960 . S
H1311 C1298 0.962 . S
H1312 C1298 0.960 . S
H1313 C1299 0.961 . S
H1314 C1299 0.961 . S
H1315 C1299 0.961 . S
H1316 C1300 0.931 . S
H1317 C1305 0.930 . S
H1318 C1306 0.956 . S
H1319 C1306 0.961 . S
H1320 C1306 0.961 . S
H1321 C1307 0.958 . S
H1322 C1307 0.961 . S
H1323 C1307 0.960 . S
C1324 C1325 1.391 . S
C1324 C1326 1.394 . S
C1324 H1340 0.931 . S
C1325 C1324 1.391 . S
C1325 C1329 1.376 . S
C1326 C1324 1.394 . S
C1326 C1327 1.369 . S
C1326 C1330 1.531 . S
C1327 C1326 1.369 . S
C1327 C1328 1.410 . S
C1327 C1335 1.503 . S
C1328 C1327 1.410 . S
C1328 C1329 1.392 . S
C1328 C1331 1.511 . S
C1329 C1325 1.376 . S
C1329 C1328 1.392 . S
C1329 H1341 0.929 . S
C1330 C1326 1.531 . S
C1330 H1342 0.960 . S
C1330 H1343 0.962 . S
C1330 H1344 0.960 . S
C1331 C1328 1.511 . S
C1331 H1345 0.961 . S
C1331 H1346 0.961 . S
C1331 H1347 0.961 . S
C1332 C1333 1.370 . S
C1332 C1334 1.363 . S
C1332 H1348 0.931 . S
C1333 C1332 1.370 . S
C1333 C1337 1.408 . S
C1334 C1332 1.363 . S
C1334 C1335 1.370 . S
C1334 C1338 1.524 . S
C1335 C1327 1.503 . S
C1335 C1334 1.370 . S
C1335 C1336 1.403 . S
C1336 C1335 1.403 . S
C1336 C1337 1.404 . S
C1336 C1339 1.539 . S
C1337 C1333 1.408 . S
C1337 C1336 1.404 . S
C1337 H1349 0.930 . S
C1338 C1334 1.524 . S
C1338 H1350 0.956 . S
C1338 H1351 0.961 . S
C1338 H1352 0.961 . S
C1339 C1336 1.539 . S
C1339 H1353 0.958 . S
C1339 H1354 0.961 . S
C1339 H1355 0.960 . S
H1340 C1324 0.931 . S
H1341 C1329 0.929 . S
H1342 C1330 0.960 . S
H1343 C1330 0.962 . S
H1344 C1330 0.960 . S
H1345 C1331 0.961 . S
H1346 C1331 0.961 . S
H1347 C1331 0.961 . S
H1348 C1332 0.931 . S
H1349 C1337 0.930 . S
H1350 C1338 0.956 . S
H1351 C1338 0.961 . S
H1352 C1338 0.961 . S
H1353 C1339 0.958 . S
H1354 C1339 0.961 . S
H1355 C1339 0.960 . S
C397 N299 1.620 . S
C405 N2 1.610 . S
C429 N35 1.573 . S
C437 N332 1.593 . S
C461 N68 1.579 . S
C469 N365 1.591 . S
C493 N101 1.574 . S
C501 N200 1.594 . S
C525 N134 1.619 . S
C533 N233 1.607 . S
C557 N167 1.596 . S
C565 N266 1.605 . S
C589 N343 1.621 . S
C597 N13 1.639 . S
C621 N376 1.635 . S
C629 N46 1.632 . S
C653 N79 1.630 . S
C661 N211 1.645 . S
C685 N244 1.649 . S
C693 N112 1.637 . S
C717 N145 1.620 . S
C725 N277 1.647 . S
C749 N178 1.640 . S
C757 N310 1.632 . S
C781 C106 1.483 . S
C789 C7 1.507 . S
C813 C40 1.453 . S
C821 C139 1.518 . S
C845 C172 1.481 . S
C853 C73 1.505 . S
C877 C304 1.502 . S
C885 C205 1.499 . S
C909 C238 1.464 . S
C917 C337 1.515 . S
C941 C370 1.464 . S
C949 C271 1.512 . S
C973 C18 1.642 . S
C981 C381 1.655 . S
C1005 C216 1.663 . S
C1013 C51 1.650 . S
C1037 C84 1.671 . S
C1045 C249 1.656 . S
C1069 C117 1.643 . S
C1077 C282 1.655 . S
C1101 C150 1.626 . S
C1109 C315 1.648 . S
C1133 C348 1.621 . S
C1141 C183 1.644 . S
C1165 C21 0.398 . S
C1173 C285 0.294 . S
C1197 C318 0.312 . S
C1205 C54 0.344 . S
C1229 C87 0.393 . S
C1237 C351 0.304 . S
C1261 C384 0.248 . S
C1269 C120 0.338 . S
C1293 C219 0.299 . S
C1301 C153 0.310 . S
C1325 C186 0.267 . S
C1333 C252 0.349 . S
