# Generated by pormake.
# Topology fob, (5)-cn, num edge types: 1
# Building blocks:
#     Node 0, Type 0, BuildingBlock: XOMCOT_clean_sbu_0, # of connection points: 5
#     Node 1, Type 0, BuildingBlock: XOMCOT_clean_sbu_0, # of connection points: 5
#     Node 2, Type 0, BuildingBlock: XOMCOT_clean_sbu_0, # of connection points: 5
#     Node 3, Type 0, BuildingBlock: XOMCOT_clean_sbu_0, # of connection points: 5
#     Node 4, Type 0, BuildingBlock: XOMCOT_clean_sbu_0, # of connection points: 5
#     Node 5, Type 0, BuildingBlock: XOMCOT_clean_sbu_0, # of connection points: 5
#     Node 6, Type 0, BuildingBlock: XOMCOT_clean_sbu_0, # of connection points: 5
#     Node 7, Type 0, BuildingBlock: XOMCOT_clean_sbu_0, # of connection points: 5
#     Node 8, Type 0, BuildingBlock: XOMCOT_clean_sbu_0, # of connection points: 5
#     Node 9, Type 0, BuildingBlock: XOMCOT_clean_sbu_0, # of connection points: 5
#     Node 10, Type 0, BuildingBlock: XOMCOT_clean_sbu_0, # of connection points: 5
#     Node 11, Type 0, BuildingBlock: XOMCOT_clean_sbu_0, # of connection points: 5
#     Node 12, Type 0, BuildingBlock: XOMCOT_clean_sbu_0, # of connection points: 5
#     Node 13, Type 0, BuildingBlock: XOMCOT_clean_sbu_0, # of connection points: 5
#     Node 14, Type 0, BuildingBlock: XOMCOT_clean_sbu_0, # of connection points: 5
#     Node 15, Type 0, BuildingBlock: XOMCOT_clean_sbu_0, # of connection points: 5
#     Edge 16, Type (0, 0), BuildingBlock: ZUJKAS_clean_linker_0, # of connection points: 2
#     Edge 17, Type (0, 0), BuildingBlock: ZUJKAS_clean_linker_0, # of connection points: 2
#     Edge 18, Type (0, 0), BuildingBlock: ZUJKAS_clean_linker_0, # of connection points: 2
#     Edge 19, Type (0, 0), BuildingBlock: ZUJKAS_clean_linker_0, # of connection points: 2
#     Edge 20, Type (0, 0), BuildingBlock: ZUJKAS_clean_linker_0, # of connection points: 2
#     Edge 21, Type (0, 0), BuildingBlock: ZUJKAS_clean_linker_0, # of connection points: 2
#     Edge 22, Type (0, 0), BuildingBlock: ZUJKAS_clean_linker_0, # of connection points: 2
#     Edge 23, Type (0, 0), BuildingBlock: ZUJKAS_clean_linker_0, # of connection points: 2
#     Edge 24, Type (0, 0), BuildingBlock: ZUJKAS_clean_linker_0, # of connection points: 2
#     Edge 25, Type (0, 0), BuildingBlock: ZUJKAS_clean_linker_0, # of connection points: 2
#     Edge 26, Type (0, 0), BuildingBlock: ZUJKAS_clean_linker_0, # of connection points: 2
#     Edge 27, Type (0, 0), BuildingBlock: ZUJKAS_clean_linker_0, # of connection points: 2
#     Edge 28, Type (0, 0), BuildingBlock: ZUJKAS_clean_linker_0, # of connection points: 2
#     Edge 29, Type (0, 0), BuildingBlock: ZUJKAS_clean_linker_0, # of connection points: 2
#     Edge 30, Type (0, 0), BuildingBlock: ZUJKAS_clean_linker_0, # of connection points: 2
#     Edge 31, Type (0, 0), BuildingBlock: ZUJKAS_clean_linker_0, # of connection points: 2
#     Edge 32, Type (0, 0), BuildingBlock: ZUJKAS_clean_linker_0, # of connection points: 2
#     Edge 33, Type (0, 0), BuildingBlock: ZUJKAS_clean_linker_0, # of connection points: 2
#     Edge 34, Type (0, 0), BuildingBlock: ZUJKAS_clean_linker_0, # of connection points: 2
#     Edge 35, Type (0, 0), BuildingBlock: ZUJKAS_clean_linker_0, # of connection points: 2
#     Edge 36, Type (0, 0), BuildingBlock: ZUJKAS_clean_linker_0, # of connection points: 2
#     Edge 37, Type (0, 0), BuildingBlock: ZUJKAS_clean_linker_0, # of connection points: 2
#     Edge 38, Type (0, 0), BuildingBlock: ZUJKAS_clean_linker_0, # of connection points: 2
#     Edge 39, Type (0, 0), BuildingBlock: ZUJKAS_clean_linker_0, # of connection points: 2
#     Edge 40, Type (0, 0), BuildingBlock: ZUJKAS_clean_linker_0, # of connection points: 2
#     Edge 41, Type (0, 0), BuildingBlock: ZUJKAS_clean_linker_0, # of connection points: 2
#     Edge 42, Type (0, 0), BuildingBlock: ZUJKAS_clean_linker_0, # of connection points: 2
#     Edge 43, Type (0, 0), BuildingBlock: ZUJKAS_clean_linker_0, # of connection points: 2
#     Edge 44, Type (0, 0), BuildingBlock: ZUJKAS_clean_linker_0, # of connection points: 2
#     Edge 45, Type (0, 0), BuildingBlock: ZUJKAS_clean_linker_0, # of connection points: 2
#     Edge 46, Type (0, 0), BuildingBlock: ZUJKAS_clean_linker_0, # of connection points: 2
#     Edge 47, Type (0, 0), BuildingBlock: ZUJKAS_clean_linker_0, # of connection points: 2
#     Edge 48, Type (0, 0), BuildingBlock: ZUJKAS_clean_linker_0, # of connection points: 2
#     Edge 49, Type (0, 0), BuildingBlock: ZUJKAS_clean_linker_0, # of connection points: 2
#     Edge 50, Type (0, 0), BuildingBlock: ZUJKAS_clean_linker_0, # of connection points: 2
#     Edge 51, Type (0, 0), BuildingBlock: ZUJKAS_clean_linker_0, # of connection points: 2
#     Edge 52, Type (0, 0), BuildingBlock: ZUJKAS_clean_linker_0, # of connection points: 2
#     Edge 53, Type (0, 0), BuildingBlock: ZUJKAS_clean_linker_0, # of connection points: 2
#     Edge 54, Type (0, 0), BuildingBlock: ZUJKAS_clean_linker_0, # of connection points: 2
#     Edge 55, Type (0, 0), BuildingBlock: ZUJKAS_clean_linker_0, # of connection points: 2
# Relax obj value: 0.078
# Max RMSD: 0.143
# Mean RMSD: 0.143
data_MOF--net-fob--node1-XOMCOT_clean_sbu_0--edge1-ZUJKAS_clean_linker_0
_symmetry_space_group_name_H-M    P1
_symmetry_Int_Tables_number       1
_symmetry_cell_setting            triclinic
loop_
_symmetry_equiv_pos_as_xyz
'x, y, z'
_cell_length_a     33.851996
_cell_length_b     80.766756
_cell_length_c     63.002342
_cell_angle_alpha  100.50741
_cell_angle_beta   89.946489
_cell_angle_gamma 89.930665
loop_
_atom_site_label
_atom_site_type_symbol
_atom_site_fract_x
_atom_site_fract_y
_atom_site_fract_z
_atom_type_partial_charge
Co0 Co 0.10871 0.14137 0.46872 0.0
C1 C 0.08484 0.10631 0.46917 0.0
C2 C 0.1427 0.10745 0.45553 0.0
C3 C 0.13376 0.09085 0.45589 0.0
N4 N 0.11193 0.11708 0.46377 0.0
N5 N 0.09738 0.09013 0.46453 0.0
H6 H 0.05663 0.1103 0.47644 0.0
H7 H 0.17007 0.11217 0.4501 0.0
C8 C 0.14011 0.15145 0.42866 0.0
O9 O 0.11129 0.16247 0.42959 0.0
N10 N 0.10635 0.16593 0.47422 0.0
C11 C 0.07568 0.17617 0.48126 0.0
C12 C 0.08845 0.1926 0.48491 0.0
C13 C 0.13758 0.17639 0.47422 0.0
N14 N 0.12737 0.19276 0.48048 0.0
C15 C 0.02488 0.14257 0.46306 0.0
C16 C 0.02403 0.1299 0.41929 0.0
C17 C 0.98826 0.13463 0.4299 0.0
C18 C 0.98893 0.14074 0.45216 0.0
C19 C 0.05938 0.13199 0.43086 0.0
N20 N 0.05977 0.13923 0.45224 0.0
H21 H 0.02442 0.14639 0.48036 0.0
H22 H 0.08619 0.12735 0.42259 0.0
H23 H 0.04617 0.17231 0.48432 0.0
H24 H 0.16737 0.17205 0.47018 0.0
O25 O 0.08732 0.14122 0.49694 0.0
O26 O 0.15114 0.14269 0.48933 0.0
O27 O 0.14217 0.14169 0.44245 0.0
C28 C 0.12371 0.14211 0.50365 0.0
H29 H 0.15316 0.0802 0.4508 0.0
H30 H 0.07034 0.20358 0.49049 0.0
H31 H 0.0248 0.12468 0.4022 0.0
H32 H 0.96181 0.14375 0.46119 0.0
Co33 Co 0.1122 0.1444 0.76191 0.0
C34 C 0.08467 0.17988 0.76342 0.0
C35 C 0.14301 0.17865 0.77605 0.0
C36 C 0.13407 0.19525 0.77584 0.0
N37 N 0.11168 0.16896 0.76877 0.0
N38 N 0.09732 0.19604 0.76784 0.0
H39 H 0.05714 0.17617 0.7555 0.0
H40 H 0.17129 0.17392 0.78025 0.0
C41 C 0.1442 0.15188 0.80682 0.0
O42 O 0.11449 0.16223 0.81256 0.0
N43 N 0.11367 0.12011 0.7546 0.0
C44 C 0.08372 0.11008 0.7462 0.0
C45 C 0.09686 0.09368 0.74219 0.0
C46 C 0.14471 0.10976 0.75551 0.0
N47 N 0.13524 0.09346 0.74798 0.0
C48 C 0.02904 0.14782 0.77052 0.0
C49 C 0.02829 0.13155 0.80545 0.0
C50 C 0.99276 0.13789 0.79877 0.0
C51 C 0.99337 0.14592 0.78087 0.0
C52 C 0.0633 0.13374 0.7946 0.0
N53 N 0.0638 0.14261 0.77807 0.0
H54 H 0.02819 0.15275 0.75579 0.0
H55 H 0.08982 0.12787 0.7992 0.0
H56 H 0.05445 0.11441 0.74304 0.0
H57 H 0.17378 0.11414 0.76103 0.0
O58 O 0.08965 0.14514 0.7341 0.0
O59 O 0.15386 0.14563 0.74148 0.0
O60 O 0.14669 0.14357 0.78759 0.0
C61 C 0.12589 0.14572 0.72736 0.0
H62 H 0.154 0.20578 0.78018 0.0
H63 H 0.07931 0.08277 0.73561 0.0
H64 H 0.0291 0.12491 0.81891 0.0
H65 H 0.96633 0.15021 0.77444 0.0
Co66 Co 0.88985 0.89229 0.51094 0.0
C67 C 0.91492 0.9269 0.50822 0.0
C68 C 0.85663 0.92646 0.52157 0.0
C69 C 0.86611 0.94287 0.52045 0.0
N70 N 0.88731 0.91651 0.51401 0.0
N71 N 0.90278 0.94315 0.51203 0.0
H72 H 0.94329 0.92262 0.50141 0.0
H73 H 0.82902 0.92207 0.52717 0.0
C74 C 0.8581 0.88444 0.55227 0.0
O75 O 0.88621 0.87319 0.55217 0.0
N76 N 0.89149 0.86778 0.50739 0.0
C77 C 0.92223 0.85725 0.50165 0.0
C78 C 0.90906 0.84091 0.49877 0.0
C79 C 0.85985 0.85754 0.50749 0.0
N80 N 0.86982 0.84106 0.50239 0.0
C81 C 0.9738 0.89099 0.51587 0.0
C82 C 0.97634 0.90392 0.55953 0.0
C83 C 0.01154 0.89842 0.54874 0.0
C84 C 0.01003 0.89229 0.52649 0.0
C85 C 0.94066 0.90235 0.54822 0.0
N86 N 0.93935 0.89484 0.52695 0.0
H87 H 0.9736 0.88671 0.49863 0.0
H88 H 0.91435 0.90747 0.55661 0.0
H89 H 0.95211 0.8608 0.49892 0.0
H90 H 0.82997 0.86212 0.51063 0.0
O91 O 0.91034 0.8908 0.48217 0.0
O92 O 0.84676 0.89024 0.49068 0.0
O93 O 0.85689 0.89352 0.53768 0.0
C94 C 0.87372 0.88969 0.47585 0.0
H95 H 0.84697 0.95368 0.52498 0.0
H96 H 0.92711 0.82976 0.49418 0.0
H97 H 0.97638 0.90953 0.5765 0.0
H98 H 0.03648 0.88819 0.51733 0.0
Co99 Co 0.89141 0.89359 0.22095 0.0
C100 C 0.91573 0.85787 0.2208 0.0
C101 C 0.85781 0.85963 0.20786 0.0
C102 C 0.86542 0.843 0.20865 0.0
N103 N 0.88978 0.86899 0.21494 0.0
N104 N 0.90188 0.8419 0.21687 0.0
H105 H 0.94341 0.86131 0.22871 0.0
H106 H 0.83008 0.86464 0.2033 0.0
C107 C 0.86092 0.88542 0.17572 0.0
O108 O 0.88842 0.87382 0.17111 0.0
N109 N 0.89201 0.91792 0.22744 0.0
C110 C 0.92248 0.92769 0.2357 0.0
C111 C 0.91046 0.94425 0.23916 0.0
C112 C 0.86179 0.92859 0.22605 0.0
N113 N 0.87225 0.94484 0.23315 0.0
C114 C 0.97467 0.88856 0.21412 0.0
C115 C 0.97981 0.90198 0.17695 0.0
C116 C 0.01372 0.89494 0.18451 0.0
C117 C 0.01093 0.88848 0.20363 0.0
C118 C 0.94404 0.90172 0.18795 0.0
N119 N 0.94122 0.89408 0.20554 0.0
H120 H 0.97393 0.88456 0.22949 0.0
H121 H 0.91885 0.90797 0.18247 0.0
H122 H 0.95131 0.92307 0.2392 0.0
H123 H 0.83254 0.92449 0.22054 0.0
O124 O 0.91167 0.89298 0.24928 0.0
O125 O 0.84808 0.89344 0.24072 0.0
O126 O 0.85908 0.89456 0.19449 0.0
C127 C 0.87492 0.89288 0.25533 0.0
H128 H 0.84486 0.83266 0.20453 0.0
H129 H 0.92862 0.95502 0.24555 0.0
H130 H 0.98099 0.9079 0.16286 0.0
H131 H 0.03645 0.88329 0.21046 0.0
Co132 Co 0.11098 0.64294 0.97208 0.0
C133 C 0.08637 0.60788 0.97143 0.0
C134 C 0.14287 0.60892 0.95623 0.0
C135 C 0.13366 0.5923 0.95629 0.0
N136 N 0.11312 0.61863 0.96567 0.0
N137 N 0.09816 0.59165 0.96594 0.0
H138 H 0.05904 0.61194 0.97969 0.0
H139 H 0.16986 0.6136 0.95029 0.0
C140 C 0.14063 0.65449 0.93271 0.0
O141 O 0.11141 0.66539 0.93472 0.0
N142 N 0.10964 0.6675 0.97913 0.0
C143 C 0.07992 0.67771 0.98779 0.0
C144 C 0.09319 0.69406 -0.00801 0.0
C145 C 0.14094 0.67789 0.97883 0.0
N146 N 0.13156 0.69419 0.98634 0.0
C147 C 0.02704 0.64537 0.9672 0.0
C148 C 0.02486 0.63416 0.92312 0.0
C149 C 0.98967 0.63937 0.93406 0.0
C150 C 0.99093 0.64467 0.95647 0.0
C151 C 0.06037 0.63514 0.93453 0.0
N152 N 0.06155 0.64179 0.95609 0.0
H153 H 0.02697 0.6485 0.98458 0.0
H154 H 0.08672 0.63027 0.92595 0.0
H155 H 0.05083 0.67385 -0.00835 0.0
H156 H 0.17023 0.67351 0.97365 0.0
O157 O 0.0903 0.64192 0.00023 0.0
O158 O 0.15397 0.64318 -0.00782 0.0
O159 O 0.14369 0.64412 0.9457 0.0
C160 C 0.12687 0.64237 0.00661 0.0
H161 H 0.15242 0.58158 0.9504 0.0
H162 H 0.07579 0.705 -0.00123 0.0
H163 H 0.02508 0.62948 0.90588 0.0
H164 H 0.96414 0.64795 0.96571 0.0
Co165 Co 0.10815 0.64398 0.26406 0.0
C166 C 0.08316 0.67864 0.26198 0.0
C167 C 0.14089 0.67821 0.27596 0.0
C168 C 0.13137 0.69463 0.27482 0.0
N169 N 0.11056 0.66825 0.26798 0.0
N170 N 0.09506 0.6949 0.26598 0.0
H171 H 0.05517 0.67432 0.25476 0.0
H172 H 0.16835 0.67382 0.28174 0.0
C173 C 0.13994 0.63488 0.30452 0.0
O174 O 0.11119 0.62389 0.30397 0.0
N175 N 0.10661 0.61942 0.25961 0.0
C176 C 0.07562 0.60887 0.25509 0.0
C177 C 0.08896 0.59253 0.25223 0.0
C178 C 0.13851 0.6092 0.2589 0.0
N179 N 0.12852 0.5927 0.25466 0.0
C180 C 0.02426 0.64275 0.26977 0.0
C181 C 0.02312 0.65621 0.31332 0.0
C182 C 0.98743 0.65119 0.30285 0.0
C183 C 0.98824 0.64469 0.28068 0.0
C184 C 0.05852 0.65399 0.30175 0.0
N185 N 0.05908 0.64635 0.28052 0.0
H186 H 0.02399 0.6384 0.25253 0.0
H187 H 0.08524 0.65881 0.3099 0.0
H188 H 0.04535 0.61241 0.25334 0.0
H189 H 0.16841 0.61381 0.26163 0.0
O190 O 0.08696 0.64328 0.23558 0.0
O191 O 0.15073 0.64235 0.24348 0.0
O192 O 0.14165 0.64443 0.29048 0.0
C193 C 0.12346 0.64244 0.22898 0.0
H194 H 0.15032 0.70545 0.27954 0.0
H195 H 0.0709 0.58137 0.24802 0.0
H196 H 0.0238 0.66171 0.33033 0.0
H197 H 0.96119 0.64138 0.27174 0.0
Co198 Co 0.89446 0.39309 0.01073 0.0
C199 C 0.91984 0.42797 0.0105 0.0
C200 C 0.86302 0.42732 0.0255 0.0
C201 C 0.87253 0.44385 0.02502 0.0
N202 N 0.89279 0.41743 0.01646 0.0
N203 N 0.90823 0.44425 0.01551 0.0
H204 H 0.94724 0.42373 0.00245 0.0
H205 H 0.83582 0.42284 0.03144 0.0
C206 C 0.86245 0.38231 0.05018 0.0
O207 O 0.89077 0.37102 0.04872 0.0
N208 N 0.8953 0.36853 0.00442 0.0
C209 C 0.92573 0.35797 -0.00197 0.0
C210 C 0.91194 0.34171 -0.00622 0.0
C211 C 0.86324 0.35841 0.0035 0.0
N212 N 0.87262 0.34195 -0.0028 0.0
C213 C 0.97826 0.39095 0.01604 0.0
C214 C 0.97979 0.40264 0.06004 0.0
C215 C 0.0153 0.39778 0.04922 0.0
C216 C 0.01431 0.39217 0.02686 0.0
C217 C 0.94434 0.40115 0.04856 0.0
N218 N 0.94355 0.39437 0.02703 0.0
H219 H 0.97846 0.38744 -0.00131 0.0
H220 H 0.91778 0.40586 0.05703 0.0
H221 H 0.95589 0.36149 -0.00406 0.0
H222 H 0.83353 0.36309 0.00697 0.0
O223 O 0.91574 0.39357 0.98254 0.0
O224 O 0.8519 0.39273 0.99037 0.0
O225 O 0.86098 0.39255 0.03695 0.0
C226 C 0.87927 0.39335 0.97603 0.0
H227 H 0.85386 0.45467 0.03055 0.0
H228 H 0.92968 0.33055 0.98855 0.0
H229 H 0.97932 0.4075 0.07724 0.0
H230 H 0.04127 0.38905 0.01772 0.0
Co231 Co 0.88929 0.39387 0.71942 0.0
C232 C 0.91442 0.35871 0.7228 0.0
C233 C 0.85269 0.36061 0.71622 0.0
C234 C 0.8608 0.3443 0.71836 0.0
N235 N 0.88643 0.36963 0.71853 0.0
N236 N 0.89964 0.34312 0.72255 0.0
H237 H 0.94475 0.36196 0.72649 0.0
H238 H 0.82388 0.36568 0.71357 0.0
C239 C 0.85321 0.3801 0.67651 0.0
O240 O 0.87807 0.36738 0.67409 0.0
N241 N 0.89093 0.41795 0.72084 0.0
C242 C 0.92277 0.42803 0.72465 0.0
C243 C 0.91065 0.4445 0.72628 0.0
C244 C 0.85986 0.42837 0.72043 0.0
N245 N 0.87106 0.44472 0.72371 0.0
C246 C 0.97226 0.38834 0.71213 0.0
C247 C 0.97381 0.39417 0.67029 0.0
C248 C 0.00872 0.38947 0.6795 0.0
C249 C 0.00791 0.3869 0.70085 0.0
C250 C 0.93889 0.3957 0.68228 0.0
N251 N 0.93784 0.39177 0.70248 0.0
H252 H 0.97259 0.38692 0.72881 0.0
H253 H 0.91311 0.40048 0.67537 0.0
H254 H 0.95255 0.42377 0.72678 0.0
H255 H 0.82965 0.42404 0.71815 0.0
O256 O 0.91165 0.39676 0.74792 0.0
O257 O 0.84752 0.39677 0.74054 0.0
O258 O 0.85487 0.39177 0.69314 0.0
C259 C 0.8754 0.39799 0.75492 0.0
H260 H 0.83946 0.33424 0.71765 0.0
H261 H 0.92939 0.45549 0.72997 0.0
H262 H 0.9737 0.39705 0.65416 0.0
H263 H 0.03454 0.3837 0.70874 0.0
Co264 Co 0.61335 0.14296 0.97078 0.0
C265 C 0.58848 0.10763 0.97325 0.0
C266 C 0.64951 0.10944 0.965 0.0
C267 C 0.64164 0.09302 0.96671 0.0
N268 N 0.61603 0.11859 0.96863 0.0
N269 N 0.60324 0.0919 0.97196 0.0
H270 H 0.55856 0.11097 0.97797 0.0
H271 H 0.67807 0.11447 0.96183 0.0
C272 C 0.64687 0.13029 0.92692 0.0
O273 O 0.62047 0.11817 0.92404 0.0
N274 N 0.61173 0.16717 0.97345 0.0
C275 C 0.58013 0.17715 0.97904 0.0
C276 C 0.5919 0.19368 0.98147 0.0
C277 C 0.64239 0.17773 0.97265 0.0
N278 N 0.63109 0.19407 0.97757 0.0
C279 C 0.53001 0.13815 0.96465 0.0
C280 C 0.52609 0.1468 0.9243 0.0
C281 C 0.49107 0.14258 0.93397 0.0
C282 C 0.49342 0.13838 0.95456 0.0
C283 C 0.56196 0.14671 0.93515 0.0
N284 N 0.56401 0.14161 0.95465 0.0
H285 H 0.5306 0.13586 0.98097 0.0
H286 H 0.5877 0.15136 0.92806 0.0
H287 H 0.55075 0.17275 0.98179 0.0
H288 H 0.67253 0.17351 0.96948 0.0
O289 O 0.59231 0.14512 -0.00047 0.0
O290 O 0.65609 0.14511 -0.00877 0.0
O291 O 0.6467 0.14143 0.94413 0.0
C292 C 0.62887 0.14611 0.00598 0.0
H293 H 0.66294 0.08287 0.96507 0.0
H294 H 0.573 0.20457 0.986 0.0
H295 H 0.52597 0.15036 0.90855 0.0
H296 H 0.46713 0.13584 0.96322 0.0
Co297 Co 0.6102 0.14439 0.26154 0.0
C298 C 0.58514 0.1795 0.26222 0.0
C299 C 0.64202 0.17839 0.27694 0.0
C300 C 0.63276 0.19502 0.27692 0.0
N301 N 0.61208 0.16872 0.26779 0.0
N302 N 0.597 0.19572 0.26759 0.0
H303 H 0.55765 0.17546 0.25418 0.0
H304 H 0.66919 0.17368 0.28265 0.0
C305 C 0.64049 0.13314 0.30103 0.0
O306 O 0.61192 0.12196 0.29926 0.0
N307 N 0.60931 0.11982 0.25472 0.0
C308 C 0.57945 0.10944 0.24684 0.0
C309 C 0.59315 0.09314 0.24266 0.0
C310 C 0.64102 0.10957 0.25468 0.0
N311 N 0.63188 0.09319 0.2476 0.0
C312 C 0.5262 0.14218 0.26623 0.0
C313 C 0.52355 0.15386 0.31021 0.0
C314 C 0.48829 0.14911 0.29916 0.0
C315 C 0.48984 0.14346 0.27682 0.0
C316 C 0.55929 0.15231 0.29897 0.0
N317 N 0.56062 0.14557 0.27744 0.0
H318 H 0.52641 0.13881 0.24887 0.0
H319 H 0.58565 0.15699 0.30762 0.0
H320 H 0.5499 0.11314 0.24359 0.0
H321 H 0.6704 0.1141 0.25934 0.0
O322 O 0.58988 0.14529 0.2333 0.0
O323 O 0.65344 0.14416 0.24162 0.0
O324 O 0.64272 0.14344 0.28793 0.0
C325 C 0.62659 0.14502 0.22711 0.0
H326 H 0.65166 0.20569 0.28263 0.0
H327 H 0.57577 0.08208 0.23643 0.0
H328 H 0.52363 0.15871 0.32741 0.0
H329 H 0.4631 0.14044 0.26749 0.0
Co330 Co 0.39232 0.89353 0.01199 0.0
C331 C 0.41877 0.92844 0.01271 0.0
C332 C 0.36075 0.92769 0.02628 0.0
C333 C 0.37053 0.94423 0.02622 0.0
N334 N 0.39107 0.91785 0.01789 0.0
N335 N 0.40703 0.94472 0.01763 0.0
H336 H 0.4467 0.92424 0.00526 0.0
H337 H 0.33299 0.92313 0.03147 0.0
C338 C 0.35997 0.88324 0.05196 0.0
O339 O 0.38745 0.8716 0.05083 0.0
N340 N 0.39276 0.86897 0.00557 0.0
C341 C 0.4224 0.85856 -0.00268 0.0
C342 C 0.40874 0.84228 -0.00665 0.0
C343 C 0.36114 0.85877 0.00593 0.0
N344 N 0.37022 0.84238 -0.00124 0.0
C345 C 0.47612 0.89094 0.01636 0.0
C346 C 0.4796 0.90096 0.06061 0.0
C347 C 0.51446 0.89586 0.04921 0.0
C348 C 0.51248 0.89125 0.02672 0.0
C349 C 0.44376 0.9005 0.04952 0.0
N350 N 0.44194 0.89443 0.02782 0.0
H351 H 0.47571 0.88801 -0.00102 0.0
H352 H 0.41777 0.90531 0.05847 0.0
H353 H 0.45171 0.86226 -0.00641 0.0
H354 H 0.33186 0.86332 0.01086 0.0
O355 O 0.41287 0.89405 0.98365 0.0
O356 O 0.34923 0.89335 -0.00803 0.0
O357 O 0.35934 0.8932 0.0384 0.0
C358 C 0.37624 0.89391 0.97742 0.0
H359 H 0.35151 0.95499 0.03138 0.0
H360 H 0.42598 0.83121 0.98687 0.0
H361 H 0.47984 0.90511 0.07795 0.0
H362 H 0.53891 0.88808 0.01712 0.0
Co363 Co 0.38783 0.89258 0.72007 0.0
C364 C 0.41066 0.85673 0.72012 0.0
C365 C 0.35238 0.85891 0.70783 0.0
C366 C 0.35941 0.84223 0.70864 0.0
N367 N 0.3849 0.86803 0.71452 0.0
N368 N 0.39615 0.84088 0.71638 0.0
H369 H 0.43825 0.86001 0.72824 0.0
H370 H 0.3248 0.8641 0.70337 0.0
C371 C 0.35541 0.88445 0.67521 0.0
O372 O 0.38244 0.87267 0.67028 0.0
N373 N 0.38972 0.91688 0.72608 0.0
C374 C 0.42089 0.92646 0.73373 0.0
C375 C 0.40949 0.9431 0.73726 0.0
C376 C 0.35972 0.92774 0.72513 0.0
N377 N 0.37099 0.94391 0.73192 0.0
C378 C 0.47056 0.8867 0.71205 0.0
C379 C 0.47484 0.90046 0.6751 0.0
C380 C 0.50895 0.89337 0.68238 0.0
C381 C 0.50657 0.88666 0.70132 0.0
C382 C 0.43935 0.90017 0.68634 0.0
N383 N 0.43695 0.89245 0.70389 0.0
H384 H 0.47023 0.88262 0.72737 0.0
H385 H 0.41412 0.90658 0.68117 0.0
H386 H 0.44975 0.92165 0.73682 0.0
H387 H 0.33003 0.92381 0.72025 0.0
O388 O 0.40933 0.8922 0.74821 0.0
O389 O 0.34541 0.89313 0.74055 0.0
O390 O 0.35442 0.89355 0.69402 0.0
C391 C 0.37288 0.89278 0.75489 0.0
H392 H 0.33871 0.83199 0.70424 0.0
H393 H 0.42821 0.95376 0.74331 0.0
H394 H 0.47573 0.90654 0.66114 0.0
H395 H 0.53229 0.88142 0.7079 0.0
Co396 Co 0.60862 0.64194 0.47291 0.0
C397 C 0.58421 0.60687 0.47268 0.0
C398 C 0.64072 0.60789 0.45748 0.0
C399 C 0.63163 0.59128 0.45768 0.0
N400 N 0.61089 0.61761 0.46682 0.0
N401 N 0.59614 0.59065 0.46733 0.0
H402 H 0.55684 0.61091 0.4809 0.0
H403 H 0.66769 0.61256 0.45151 0.0
C404 C 0.64076 0.65315 0.43372 0.0
O405 O 0.61205 0.66426 0.4351 0.0
N406 N 0.60716 0.6665 0.47958 0.0
C407 C 0.57669 0.67679 0.48682 0.0
C408 C 0.58989 0.69315 0.49103 0.0
C409 C 0.63871 0.67685 0.48006 0.0
N410 N 0.6289 0.69322 0.48677 0.0
C411 C 0.52485 0.6439 0.46721 0.0
C412 C 0.52406 0.63238 0.42318 0.0
C413 C 0.48834 0.63709 0.43385 0.0
C414 C 0.48896 0.64264 0.45622 0.0
C415 C 0.55934 0.63393 0.43482 0.0
N416 N 0.55975 0.64061 0.45639 0.0
H417 H 0.52431 0.64722 0.48458 0.0
H418 H 0.58608 0.62933 0.42646 0.0
H419 H 0.54698 0.67302 0.48957 0.0
H420 H 0.6684 0.67241 0.47593 0.0
O421 O 0.58702 0.6411 0.50093 0.0
O422 O 0.65093 0.6423 0.49343 0.0
O423 O 0.6424 0.64287 0.44689 0.0
C424 C 0.6234 0.64144 0.5076 0.0
H425 H 0.65045 0.58057 0.45188 0.0
H426 H 0.57194 0.70415 0.49678 0.0
H427 H 0.52481 0.62756 0.40597 0.0
H428 H 0.46183 0.64561 0.46526 0.0
Co429 Co 0.60727 0.64398 0.7649 0.0
C430 C 0.58207 0.67824 0.76051 0.0
C431 C 0.64081 0.6781 0.77333 0.0
C432 C 0.63137 0.69432 0.77123 0.0
N433 N 0.60986 0.66808 0.76666 0.0
N434 N 0.59444 0.69441 0.76313 0.0
H435 H 0.55381 0.67377 0.7538 0.0
H436 H 0.66848 0.67389 0.77909 0.0
C437 C 0.63939 0.63721 0.80646 0.0
O438 O 0.611 0.62618 0.80677 0.0
N439 N 0.60583 0.61956 0.7627 0.0
C440 C 0.57479 0.60891 0.76062 0.0
C441 C 0.58855 0.59265 0.75825 0.0
C442 C 0.63804 0.60946 0.76125 0.0
N443 N 0.62835 0.59297 0.75862 0.0
C444 C 0.52348 0.64308 0.77097 0.0
C445 C 0.52255 0.65911 0.81359 0.0
C446 C 0.48674 0.65362 0.80357 0.0
C447 C 0.4875 0.64574 0.78183 0.0
C448 C 0.55792 0.65609 0.80212 0.0
N449 N 0.55835 0.64726 0.78143 0.0
H450 H 0.5232 0.63749 0.75405 0.0
H451 H 0.5847 0.66132 0.8098 0.0
H452 H 0.54411 0.61227 0.76031 0.0
H453 H 0.66801 0.61418 0.76216 0.0
O454 O 0.58583 0.6416 0.73623 0.0
O455 O 0.64969 0.64124 0.74414 0.0
O456 O 0.64088 0.64592 0.79149 0.0
C457 C 0.62226 0.64028 0.72954 0.0
H458 H 0.6503 0.70521 0.77545 0.0
H459 H 0.57048 0.58142 0.75574 0.0
H460 H 0.52324 0.666 0.83003 0.0
H461 H 0.46061 0.64148 0.77326 0.0
Co462 Co 0.38939 0.39214 0.50937 0.0
C463 C 0.4173 0.42697 0.51137 0.0
C464 C 0.36126 0.42641 0.5272 0.0
C465 C 0.37169 0.44297 0.52762 0.0
N466 N 0.38996 0.41643 0.51707 0.0
N467 N 0.40687 0.44332 0.51756 0.0
H468 H 0.44392 0.42269 0.50252 0.0
H469 H 0.33401 0.422 0.53317 0.0
C470 C 0.35557 0.37987 0.54758 0.0
O471 O 0.38172 0.36763 0.545 0.0
N472 N 0.38815 0.36767 0.50104 0.0
C473 C 0.41747 0.35715 0.49261 0.0
C474 C 0.40295 0.34102 0.48773 0.0
C475 C 0.35586 0.35771 0.50051 0.0
N476 N 0.36422 0.34134 0.49275 0.0
C477 C 0.47306 0.38837 0.51405 0.0
C478 C 0.47476 0.39565 0.55859 0.0
C479 C 0.50969 0.39073 0.54729 0.0
C480 C 0.50888 0.38756 0.52472 0.0
C481 C 0.43971 0.39653 0.54723 0.0
N482 N 0.43856 0.39167 0.52529 0.0
H483 H 0.47322 0.3863 0.49665 0.0
H484 H 0.4138 0.40139 0.55622 0.0
H485 H 0.44725 0.36069 0.48954 0.0
H486 H 0.32673 0.36244 0.50552 0.0
O487 O 0.41061 0.39369 0.48147 0.0
O488 O 0.34677 0.3935 0.48953 0.0
O489 O 0.35589 0.39089 0.53541 0.0
C490 C 0.37411 0.39435 0.47525 0.0
H491 H 0.35383 0.45386 0.53402 0.0
H492 H 0.41984 0.32989 0.48108 0.0
H493 H 0.47466 0.39904 0.57604 0.0
H494 H 0.53555 0.38422 0.5154 0.0
Co495 Co 0.39503 0.39446 0.21958 0.0
C496 C 0.4189 0.35984 0.22319 0.0
C497 C 0.361 0.36046 0.20945 0.0
C498 C 0.36994 0.34406 0.21093 0.0
N499 N 0.39178 0.37029 0.21703 0.0
N500 N 0.40636 0.34366 0.21959 0.0
H501 H 0.44723 0.36402 0.23009 0.0
H502 H 0.3337 0.36492 0.20358 0.0
C503 C 0.36441 0.40218 0.17809 0.0
O504 O 0.3929 0.41325 0.17834 0.0
N505 N 0.39722 0.41894 0.22258 0.0
C506 C 0.42849 0.42942 0.22633 0.0
C507 C 0.4154 0.44578 0.22871 0.0
C508 C 0.36548 0.42924 0.22318 0.0
N509 N 0.37576 0.4457 0.22671 0.0
C510 C 0.47912 0.3951 0.21449 0.0
C511 C 0.48122 0.38062 0.17128 0.0
C512 C 0.51669 0.38585 0.18186 0.0
C513 C 0.5154 0.39283 0.20388 0.0
C514 C 0.44555 0.38317 0.18255 0.0
N515 N 0.44454 0.39132 0.20356 0.0
H516 H 0.47896 0.39998 0.23162 0.0
H517 H 0.41897 0.37824 0.17435 0.0
H518 H 0.45877 0.42585 0.22792 0.0
H519 H 0.33544 0.42468 0.22099 0.0
O520 O 0.41532 0.39623 0.24841 0.0
O521 O 0.35184 0.39703 0.23983 0.0
O522 O 0.36243 0.39315 0.19271 0.0
C523 C 0.37866 0.39763 0.2547 0.0
H524 H 0.3506 0.33333 0.20647 0.0
H525 H 0.43373 0.4569 0.23235 0.0
H526 H 0.48089 0.37476 0.15439 0.0
H527 H 0.54224 0.39635 0.21292 0.0
H528 H 0.19344 0.19642 0.45726 0.0
H529 H 0.23415 0.22183 0.45967 0.0
H530 H 0.15805 0.24789 0.50979 0.0
H531 H 0.11795 0.22256 0.50783 0.0
H532 H 0.20876 0.25417 0.45329 0.0
H533 H 0.26893 0.25678 0.53576 0.0
H534 H 0.2466 0.23804 0.52049 0.0
H535 H 0.21611 0.25499 0.53398 0.0
C536 C 0.18577 0.20748 0.46902 0.0
C537 C 0.15242 0.20743 0.48235 0.0
C538 C 0.20888 0.22202 0.47028 0.0
C539 C 0.19939 0.2367 0.48508 0.0
C540 C 0.16631 0.23664 0.49849 0.0
H541 H 0.29898 0.3379 0.51677 0.0
H542 H 0.25699 0.31288 0.5142 0.0
C543 C 0.14314 0.22218 0.49717 0.0
C544 C 0.22311 0.2523 0.48604 0.0
H545 H 0.27977 0.28075 0.51963 0.0
C546 C 0.22449 0.25994 0.46774 0.0
C547 C 0.24335 0.25989 0.50497 0.0
C548 C 0.24406 0.25196 0.52488 0.0
C549 C 0.24506 0.27509 0.46796 0.0
C550 C 0.26546 0.28264 0.48687 0.0
C551 C 0.264 0.27501 0.50518 0.0
C552 C 0.28962 0.29813 0.48776 0.0
C553 C 0.24403 0.28305 0.44809 0.0
C554 C 0.32192 0.29817 0.4738 0.0
C555 C 0.34573 0.31244 0.47515 0.0
C556 C 0.33803 0.32701 0.49061 0.0
C557 C 0.30544 0.327 0.50449 0.0
C558 C 0.28159 0.31267 0.50314 0.0
H559 H 0.21836 0.27857 0.43763 0.0
H560 H 0.24262 0.29699 0.45247 0.0
H561 H 0.27131 0.27959 0.43852 0.0
H562 H 0.32917 0.28703 0.46207 0.0
H563 H 0.37032 0.31203 0.46408 0.0
H564 H 0.96031 0.94392 0.48201 0.0
H565 H 0.99473 0.96878 0.47421 0.0
H566 H 0.92653 1.00045 0.52346 0.0
H567 H 0.89285 0.9757 0.53178 0.0
H568 H 0.96205 0.99704 0.46064 0.0
H569 H 0.03977 1.01558 0.53883 0.0
H570 H 0.01773 0.99507 0.53058 0.0
H571 H 0.98743 1.01293 0.54138 0.0
C572 C 0.95302 0.95613 0.49142 0.0
C573 C 0.9238 0.95774 0.5076 0.0
C574 C 0.97256 0.97035 0.48683 0.0
C575 C 0.9636 0.98647 0.49843 0.0
C576 C 0.93446 0.98813 0.51454 0.0
H577 H 0.0407 0.08854 0.49476 0.0
H578 H 0.00747 0.06332 0.50213 0.0
C579 C 0.91488 0.97394 0.51912 0.0
C580 C 0.98379 1.00161 0.49327 0.0
H581 H 0.04098 0.03528 0.51506 0.0
C582 C 0.97953 1.00535 0.47248 0.0
C583 C 0.00647 1.01248 0.50877 0.0
C584 C 0.01351 1.00878 0.53108 0.0
C585 C 0.9966 0.01984 0.46691 0.0
C586 C 0.01919 0.03074 0.48243 0.0
C587 C 0.02357 0.02696 0.50319 0.0
C588 C 0.03872 0.04609 0.47744 0.0
C589 C 0.98945 0.02358 0.44462 0.0
C590 C 0.06755 0.04482 0.46119 0.0
C591 C 0.08644 0.05924 0.45683 0.0
C592 C 0.07713 0.07529 0.46872 0.0
C593 C 0.04826 0.07649 0.48504 0.0
C594 C 0.0294 0.06204 0.4894 0.0
H595 H 0.96333 1.01668 0.43683 0.0
H596 H 0.9849 0.03727 0.44518 0.0
H597 H 0.0156 0.01956 0.43433 0.0
H598 H 0.07579 0.03263 0.45201 0.0
H599 H 0.10824 0.0578 0.44406 0.0
H600 H 0.20066 0.08956 0.77166 0.0
H601 H 0.24244 0.06442 0.76855 0.0
H602 H 0.16834 0.03882 0.7173 0.0
H603 H 0.12735 0.06393 0.71982 0.0
H604 H 0.22032 0.032 0.77378 0.0
H605 H 0.2786 0.03104 0.69127 0.0
H606 H 0.25466 0.0493 0.70681 0.0
H607 H 0.22568 0.03202 0.69292 0.0
C608 C 0.19359 0.07868 0.75952 0.0
C609 C 0.16057 0.07883 0.74599 0.0
C610 C 0.21736 0.06427 0.75785 0.0
C611 C 0.20883 0.04981 0.7425 0.0
C612 C 0.17595 0.04992 0.729 0.0
H613 H 0.30539 0.94846 0.70876 0.0
H614 H 0.26525 0.97408 0.71197 0.0
C615 C 0.1522 0.06427 0.73066 0.0
C616 C 0.23338 0.03436 0.74102 0.0
H617 H 0.28979 1.00647 0.70632 0.0
C618 C 0.23576 0.02648 0.75909 0.0
C619 C 0.25336 0.02712 0.7218 0.0
C620 C 0.25333 0.03537 0.70215 0.0
C621 C 0.25688 1.01139 0.75832 0.0
C622 C 0.27669 1.00411 0.73907 0.0
C623 C 0.27443 1.01202 0.72102 0.0
C624 C 0.30054 0.98847 0.73744 0.0
C625 C 0.25704 1.00314 0.77797 0.0
C626 C 0.33386 0.98809 0.75056 0.0
C627 C 0.35673 0.97348 0.74882 0.0
C628 C 0.34693 0.95891 0.73383 0.0
C629 C 0.31353 0.95935 0.72065 0.0
C630 C 0.29069 0.97402 0.72237 0.0
H631 H 0.23242 1.00777 0.78918 0.0
H632 H 0.25473 0.98924 0.7733 0.0
H633 H 0.28521 1.00612 0.78683 0.0
H634 H 0.34241 0.99917 0.76205 0.0
H635 H 0.38193 0.97359 0.75938 0.0
H636 H 0.9642 0.34233 0.74798 0.0
H637 H 0.99871 0.31729 0.7553 0.0
H638 H 0.91636 0.28551 0.71455 0.0
H639 H 0.88212 0.31045 0.70686 0.0
H640 H 0.96508 0.29019 0.77373 0.0
H641 H 0.02659 0.26796 0.69167 0.0
H642 H 0.00897 0.28922 0.70054 0.0
H643 H 0.97448 0.27234 0.6927 0.0
C644 C 0.95372 0.33003 0.74034 0.0
C645 C 0.92044 0.32842 0.72674 0.0
C646 C 0.97333 0.31573 0.74466 0.0
C647 C 0.96037 0.29955 0.73528 0.0
C648 C 0.92719 0.29788 0.72173 0.0
H649 H 0.03798 0.19758 0.73895 0.0
H650 H 0.00416 0.22274 0.73202 0.0
C651 C 0.90743 0.31215 0.71751 0.0
C652 C 0.98089 0.28439 0.7401 0.0
H653 H 0.03364 0.2497 0.71686 0.0
C654 C 0.98026 0.28137 0.76134 0.0
C655 C 0.00046 0.27286 0.72388 0.0
C656 C 0.00307 0.27576 0.70093 0.0
C657 C 0.99802 0.26694 0.76673 0.0
C658 C 0.01781 0.25542 0.75052 0.0
C659 C 0.01848 0.2585 0.72928 0.0
C660 C 0.03802 0.24011 0.75523 0.0
C661 C 0.99444 0.26395 0.78961 0.0
C662 C 0.0686 0.24145 0.77047 0.0
C663 C 0.08775 0.22703 0.7747 0.0
C664 C 0.0771 0.21091 0.76359 0.0
C665 C 0.04667 0.20966 0.74814 0.0
C666 C 0.02744 0.22409 0.744 0.0
H667 H 0.96927 0.27107 0.79822 0.0
H668 H 0.99041 0.25037 0.79 0.0
H669 H 0.02185 0.26829 0.79856 0.0
H670 H 0.07793 0.25368 0.77902 0.0
H671 H 0.11076 0.22856 0.78679 0.0
H672 H 0.80116 0.83834 0.52391 0.0
H673 H 0.75992 0.81309 0.5217 0.0
H674 H 0.83923 0.78574 0.47424 0.0
H675 H 0.8803 0.81076 0.47634 0.0
H676 H 0.72106 0.79373 0.48662 0.0
H677 H 0.83408 0.75537 0.51917 0.0
H678 H 0.83861 0.77787 0.52123 0.0
H679 H 0.85089 0.76395 0.49643 0.0
C680 C 0.80964 0.82697 0.51292 0.0
C681 C 0.84433 0.82653 0.50051 0.0
C682 C 0.78616 0.81253 0.51174 0.0
C683 C 0.79699 0.7974 0.49817 0.0
C684 C 0.8309 0.7971 0.4853 0.0
H685 H 0.69667 0.69666 0.46475 0.0
H686 H 0.73755 0.72203 0.46756 0.0
C687 C 0.85437 0.81146 0.48651 0.0
C688 C 0.77269 0.78194 0.49716 0.0
H689 H 0.77682 0.74088 0.50381 0.0
C690 C 0.73316 0.78222 0.49052 0.0
C691 C 0.78854 0.76688 0.50218 0.0
C692 C 0.83024 0.76598 0.51035 0.0
C693 C 0.70932 0.76776 0.48834 0.0
C694 C 0.72524 0.75268 0.49326 0.0
C695 C 0.76472 0.75242 0.49995 0.0
C696 C 0.70113 0.73716 0.49194 0.0
C697 C 0.66753 0.76864 0.4803 0.0
C698 C 0.66768 0.73711 0.50508 0.0
C699 C 0.64445 0.72265 0.50359 0.0
C700 C 0.65422 0.70784 0.48899 0.0
C701 C 0.68841 0.70778 0.47625 0.0
C702 C 0.71168 0.7223 0.47776 0.0
H703 H 0.66322 0.77951 0.47197 0.0
H704 H 0.65951 0.75691 0.46901 0.0
H705 H 0.64692 0.77018 0.49423 0.0
H706 H 0.65954 0.74828 0.51655 0.0
H707 H 0.6189 0.72307 0.51401 0.0
H708 H 0.80729 0.94897 0.20921 0.0
H709 H 0.76711 0.9745 0.21144 0.0
H710 H 0.84134 1.00001 0.26267 0.0
H711 H 0.88136 0.97465 0.26066 0.0
H712 H 0.72474 0.99251 0.24632 0.0
H713 H 0.84152 0.03256 0.22013 0.0
H714 H 0.84596 1.00995 0.21666 0.0
H715 H 0.85544 0.0229 0.24252 0.0
C716 C 0.81497 0.95998 0.22102 0.0
C717 C 0.84789 0.95974 0.2346 0.0
C718 C 0.79207 0.97459 0.22221 0.0
C719 C 0.80168 0.98929 0.23692 0.0
C720 C 0.83398 0.98899 0.25078 0.0
H721 H 0.69782 0.08969 0.27104 0.0
H722 H 0.73928 0.06447 0.26856 0.0
C723 C 0.85688 0.97443 0.24959 0.0
C724 C 0.77747 1.00484 0.23816 0.0
H725 H 0.7823 0.04637 0.23375 0.0
C726 C 0.73726 1.00426 0.24345 0.0
C727 C 0.79387 0.02021 0.23453 0.0
C728 C 0.83648 0.02148 0.22795 0.0
C729 C 0.71319 0.01867 0.24555 0.0
C730 C 0.72957 0.03403 0.24187 0.0
C731 C 0.76979 0.03462 0.23663 0.0
C732 C 0.7052 0.04952 0.24298 0.0
C733 C 0.67061 1.01739 0.25217 0.0
C734 C 0.67289 0.04965 0.22909 0.0
C735 C 0.64929 0.06402 0.23043 0.0
C736 C 0.6576 0.07868 0.2456 0.0
C737 C 0.69071 0.07868 0.25909 0.0
C738 C 0.71431 0.06424 0.25777 0.0
H739 H 0.66564 1.00635 0.26008 0.0
H740 H 0.66109 0.02894 0.26341 0.0
H741 H 0.65161 1.01588 0.23761 0.0
H742 H 0.6659 0.03861 0.21715 0.0
H743 H 0.62462 0.06366 0.21945 0.0
H744 H 0.88939 0.80949 0.19739 0.0
H745 H 0.92063 0.7842 0.20607 0.0
H746 H 0.98955 0.815 0.25564 0.0
H747 H 0.95767 0.84025 0.24757 0.0
H748 H 0.00039 0.77534 0.20485 0.0
H749 H 0.94063 0.78051 0.28782 0.0
H750 H 0.92099 0.79252 0.2687 0.0
H751 H 0.96577 0.79907 0.28313 0.0
C752 C 0.91084 0.81089 0.21031 0.0
C753 C 0.92079 0.82697 0.2218 0.0
C754 C 0.92886 0.79642 0.21517 0.0
C755 C 0.95702 0.79767 0.23173 0.0
C756 C 0.96739 0.81368 0.24306 0.0
H757 H 0.10442 0.7276 0.28528 0.0
H758 H 0.07085 0.7522 0.27626 0.0
C759 C 0.94943 0.82816 0.23821 0.0
C760 C 0.97614 0.78225 0.23684 0.0
H761 H 0.99071 0.75999 0.27741 0.0
C762 C 0.99807 0.77192 0.22067 0.0
C763 C 0.97314 0.7778 0.2575 0.0
C764 C 0.94857 0.78795 0.27525 0.0
C765 C 0.01785 0.75749 0.22474 0.0
C766 C 0.01504 0.75309 0.24544 0.0
C767 C 0.99291 0.76338 0.26157 0.0
C768 C 0.03525 0.738 0.2508 0.0
C769 C 0.04248 0.74735 0.207 0.0
C770 C 0.02607 0.72176 0.2397 0.0
C771 C 0.04543 0.70764 0.24473 0.0
C772 C 0.0743 0.70942 0.26107 0.0
C773 C 0.0829 0.72571 0.27238 0.0
C774 C 0.06351 0.73982 0.26734 0.0
H775 H 0.04975 0.75466 0.19419 0.0
H776 H 0.07044 0.74311 0.21352 0.0
H777 H 0.02568 0.73602 0.19944 0.0
H778 H 0.00384 0.72 0.22714 0.0
H779 H 0.03815 0.69536 0.23556 0.0
H780 H 0.30565 0.83874 0.02319 0.0
H781 H 0.26482 0.81342 0.02126 0.0
H782 H 0.3358 0.78792 0.96837 0.0
H783 H 0.37646 0.81305 0.97016 0.0
H784 H 0.22034 0.79536 0.98719 0.0
H785 H 0.33996 0.75545 0.01096 0.0
H786 H 0.34397 0.77807 0.01436 0.0
H787 H 0.35223 0.76512 0.98832 0.0
C788 C 0.31234 0.82779 0.01105 0.0
C789 C 0.34464 0.82788 -0.003 0.0
C790 C 0.28912 0.8133 0.01003 0.0
C791 C 0.29782 0.79864 -0.00501 0.0
C792 C 0.32921 0.7989 0.98051 0.0
H793 H 0.19563 0.69819 0.96172 0.0
H794 H 0.23607 0.72363 0.96378 0.0
C795 C 0.35244 0.81331 0.98155 0.0
C796 C 0.27396 0.78309 -0.00578 0.0
H797 H 0.28051 0.74151 -0.00183 0.0
C798 C 0.23342 0.78362 0.98973 0.0
C799 C 0.29111 0.76773 -0.00256 0.0
C800 C 0.33413 0.76653 0.00324 0.0
C801 C 0.20973 0.76914 0.98795 0.0
C802 C 0.2269 0.75378 -0.00886 0.0
C803 C 0.26743 0.75326 -0.00435 0.0
C804 C 0.20312 0.7382 0.99023 0.0
C805 C 0.1667 0.77034 0.98219 0.0
C806 C 0.17185 0.73779 0.00474 0.0
C807 C 0.14885 0.7233 0.00364 0.0
C808 C 0.15676 0.70881 0.9881 0.0
C809 C 0.18888 0.70908 0.97396 0.0
C810 C 0.21187 0.72363 0.97505 0.0
H811 H 0.16074 0.78149 0.97463 0.0
H812 H 0.15694 0.75885 0.97094 0.0
H813 H 0.1486 0.77159 -0.00291 0.0
H814 H 0.16521 0.74871 0.01697 0.0
H815 H 0.12496 0.72344 0.01509 0.0
H816 H 0.90041 0.47666 0.03623 0.0
H817 H 0.93259 0.50154 0.02713 0.0
H818 H 0.99502 0.47015 0.97511 0.0
H819 H 0.9621 0.44526 0.98365 0.0
H820 H 0.01283 0.50917 0.02592 0.0
H821 H 0.94469 0.50578 0.94513 0.0
H822 H 0.92631 0.49384 0.96463 0.0
H823 H 0.96948 0.48685 0.94887 0.0
C824 C 0.92065 0.47503 0.02271 0.0
C825 C 0.92837 0.4589 0.01061 0.0
C826 C 0.93924 0.48928 0.01761 0.0
C827 C 0.96576 0.48777 0.00022 0.0
C828 C 0.9741 0.47168 0.98834 0.0
H829 H 0.10649 0.55939 0.94468 0.0
H830 H 0.07496 0.53423 0.95341 0.0
C831 C 0.95557 0.45741 -0.00656 0.0
C832 C 0.98506 0.503 -0.00523 0.0
H833 H 0.99516 0.52609 0.95468 0.0
C834 C 0.00886 0.51291 0.01038 0.0
C835 C 0.97992 0.50786 0.97446 0.0
C836 C 0.95345 0.49813 0.95735 0.0
C837 C 0.02813 0.52737 0.00613 0.0
C838 C 0.02288 0.53227 0.98584 0.0
C839 C 0.99918 0.52234 0.97021 0.0
C840 C 0.04174 0.54765 0.98054 0.0
C841 C 0.05465 0.53708 0.02324 0.0
C842 C 0.03312 0.56362 -0.00735 0.0
C843 C 0.05129 0.57804 0.98778 0.0
C844 C 0.07838 0.57683 0.97058 0.0
C845 C 0.08633 0.56081 0.95822 0.0
C846 C 0.06812 0.5464 0.96311 0.0
H847 H 0.06379 0.52934 0.03528 0.0
H848 H 0.08156 0.54155 0.01594 0.0
H849 H 0.03846 0.54824 0.03194 0.0
H850 H 0.01229 0.56495 0.00591 0.0
H851 H 0.04457 0.59008 -0.00224 0.0
H852 H 0.20621 0.59075 0.2432 0.0
H853 H 0.2484 0.56564 0.23829 0.0
H854 H 0.15157 0.53663 0.2567 0.0
H855 H 0.10942 0.56157 0.26171 0.0
H856 H 0.26994 0.54477 0.26736 0.0
H857 H 0.18533 0.50885 0.19873 0.0
H858 H 0.17866 0.53118 0.208 0.0
H859 H 0.15587 0.51633 0.22224 0.0
C860 C 0.19396 0.57907 0.24635 0.0
C861 C 0.1542 0.57817 0.2526 0.0
C862 C 0.21807 0.5647 0.24344 0.0
C863 C 0.2029 0.54916 0.24666 0.0
C864 C 0.16363 0.54836 0.25352 0.0
H865 H 0.29836 0.44792 0.23879 0.0
H866 H 0.25643 0.47309 0.24366 0.0
C867 C 0.13954 0.56266 0.25638 0.0
C868 C 0.22814 0.53381 0.24313 0.0
H869 H 0.2349 0.4938 0.214 0.0
C870 C 0.26243 0.53366 0.2556 0.0
C871 C 0.21822 0.51928 0.22783 0.0
C872 C 0.18272 0.5189 0.21328 0.0
C873 C 0.28664 0.51929 0.2535 0.0
C874 C 0.27669 0.50476 0.23823 0.0
C875 C 0.24242 0.50491 0.22574 0.0
C876 C 0.30182 0.48939 0.23475 0.0
C877 C 0.32222 0.51967 0.26799 0.0
C878 C 0.34094 0.49007 0.22762 0.0
C879 C 0.36488 0.47571 0.22472 0.0
C880 C 0.35022 0.46028 0.22879 0.0
C881 C 0.31062 0.45953 0.23538 0.0
C882 C 0.28665 0.47393 0.23828 0.0
H883 H 0.3199 0.52983 0.28243 0.0
H884 H 0.32605 0.50744 0.27344 0.0
H885 H 0.34909 0.52204 0.25891 0.0
H886 H 0.35299 0.50173 0.22423 0.0
H887 H 0.39487 0.47671 0.21915 0.0
H888 H 0.7006 0.19738 0.95708 0.0
H889 H 0.7418 0.22271 0.96061 0.0
H890 H 0.6582 0.2498 0.00574 0.0
H891 H 0.6176 0.22458 0.00277 0.0
H892 H 0.72052 0.25481 0.95195 0.0
H893 H 0.76369 0.2587 0.03768 0.0
H894 H 0.74294 0.23989 0.02171 0.0
H895 H 0.7114 0.25721 0.03297 0.0
C896 C 0.69124 0.20867 0.96794 0.0
C897 C 0.65573 0.20889 0.97963 0.0
C898 C 0.71469 0.22316 0.96985 0.0
C899 C 0.70333 0.23809 0.98365 0.0
C900 C 0.6679 0.23836 -0.00474 0.0
H901 H 0.80298 0.3391 0.01777 0.0
H902 H 0.76024 0.31422 0.01373 0.0
C903 C 0.64444 0.22394 -0.00667 0.0
C904 C 0.72786 0.25354 0.98554 0.0
H905 H 0.77952 0.28224 0.02157 0.0
C906 C 0.73362 0.26077 0.96713 0.0
C907 C 0.74469 0.26135 0.00541 0.0
C908 C 0.74074 0.25384 0.02555 0.0
C909 C 0.75525 0.27574 0.96812 0.0
C910 C 0.77221 0.28353 0.98798 0.0
C911 C 0.76637 0.27631 0.00639 0.0
C912 C 0.79721 0.29885 0.98984 0.0
C913 C 0.75903 0.28327 0.94799 0.0
C914 C 0.83225 0.29847 0.97786 0.0
C915 C 0.85653 0.31266 0.98005 0.0
C916 C 0.84654 0.32756 -0.00559 0.0
C917 C 0.81131 0.32794 0.00637 0.0
C918 C 0.787 0.31368 0.00418 0.0
H919 H 0.73544 0.27868 0.93612 0.0
H920 H 0.75771 0.29723 0.95187 0.0
H921 H 0.78792 0.27956 0.94021 0.0
H922 H 0.84115 0.2871 0.96699 0.0
H923 H 0.88316 0.31193 0.97041 0.0
H924 H 0.61255 0.56206 0.76764 0.0
H925 H 0.65522 0.53727 0.7612 0.0
H926 H 0.74635 0.56607 0.73689 0.0
H927 H 0.70363 0.59097 0.7431 0.0
H928 H 0.68739 0.52132 0.72158 0.0
H929 H 0.80512 0.5437 0.7813 0.0
H930 H 0.75743 0.55381 0.78191 0.0
H931 H 0.7942 0.55754 0.76275 0.0
C932 C 0.6416 0.56317 0.76087 0.0
C933 C 0.65453 0.57857 0.75585 0.0
C934 C 0.66604 0.54897 0.75729 0.0
C935 C 0.7041 0.54983 0.74875 0.0
C936 C 0.71735 0.56518 0.74387 0.0
H937 H 0.89109 0.47543 0.71551 0.0
H938 H 0.85005 0.50079 0.72069 0.0
C939 C 0.69288 0.57943 0.74746 0.0
C940 C 0.72921 0.53447 0.7443 0.0
H941 H 0.81611 0.51762 0.75798 0.0
C942 C 0.71551 0.52048 0.72957 0.0
C943 C 0.76594 0.53343 0.75467 0.0
C944 C 0.78153 0.54785 0.77118 0.0
C945 C 0.73771 0.50555 0.72475 0.0
C946 C 0.77427 0.50443 0.73529 0.0
C947 C 0.78809 0.51847 0.74991 0.0
C948 C 0.79857 0.48881 0.7315 0.0
C949 C 0.72213 0.49123 0.70808 0.0
C950 C 0.7834 0.47361 0.73592 0.0
C951 C 0.80682 0.45907 0.73295 0.0
C952 C 0.84611 0.45946 0.72574 0.0
C953 C 0.86114 0.47471 0.72129 0.0
C954 C 0.83767 0.48921 0.72418 0.0
H955 H 0.70019 0.49568 0.69727 0.0
H956 H 0.74646 0.48469 0.69805 0.0
H957 H 0.70723 0.48197 0.71639 0.0
H958 H 0.75364 0.47306 0.74208 0.0
H959 H 0.79449 0.44765 0.7369 0.0
H960 H 0.54083 0.0908 -0.00111 0.0
H961 H 0.5081 0.06563 0.00687 0.0
H962 H 0.58669 0.03426 0.96287 0.0
H963 H 0.61963 0.05934 0.9549 0.0
H964 H 0.46888 0.04023 0.98052 0.0
H965 H 0.59868 1.01416 0.01687 0.0
H966 H 0.59752 0.0354 0.01169 0.0
H967 H 0.60777 0.01802 0.99014 0.0
C968 C 0.55103 0.07856 0.99081 0.0
C969 C 0.58309 0.07711 0.97635 0.0
C970 C 0.53239 0.06416 -0.00453 0.0
C971 C 0.54542 0.04802 0.98582 0.0
C972 C 0.57681 0.04655 0.97101 0.0
H973 H 0.46572 0.946 0.9883 0.0
H974 H 0.49916 0.97112 0.9808 0.0
C975 C 0.59558 0.06092 0.96642 0.0
C976 C 0.52569 0.03274 0.99091 0.0
H977 H 0.54263 0.99628 0.00981 0.0
C978 C 0.48497 0.03068 0.98705 0.0
C979 C 0.54668 0.02025 -0.00058 0.0
C980 C 0.58999 0.0221 0.00498 0.0
C981 C 0.46487 1.01634 0.99108 0.0
C982 C 0.48592 1.00382 -0.00055 0.0
C983 C 0.52659 1.00587 0.00332 0.0
C984 C 0.46614 0.98856 0.00442 0.0
C985 C 0.42138 1.01454 0.98595 0.0
C986 C 0.43701 0.98997 0.0205 0.0
C987 C 0.41803 0.97562 0.02499 0.0
C988 C 0.42778 0.95948 0.0135 0.0
C989 C 0.45758 0.95812 -0.00235 0.0
C990 C 0.47663 0.9725 -0.00677 0.0
H991 H 0.41174 0.02313 0.97503 0.0
H992 H 0.41419 1.0014 0.97829 0.0
H993 H 0.40416 1.01769 0.00115 0.0
H994 H 0.42904 1.0022 0.02967 0.0
H995 H 0.3959 0.9772 0.03759 0.0
H996 H 0.39632 0.31109 0.20007 0.0
H997 H 0.42899 0.28626 0.209 0.0
H998 H 0.49645 0.31795 0.25841 0.0
H999 H 0.4631 0.34286 0.24998 0.0
H1000 H 0.50965 0.27823 0.20818 0.0
H1001 H 0.44776 0.28318 0.29078 0.0
H1002 H 0.42775 0.29479 0.27133 0.0
H1003 H 0.47223 0.3018 0.28573 0.0
C1004 C 0.41777 0.31281 0.213 0.0
C1005 C 0.42676 0.32903 0.22441 0.0
C1006 C 0.43664 0.29858 0.21799 0.0
C1007 C 0.46474 0.30019 0.23459 0.0
C1008 C 0.47434 0.31636 0.24579 0.0
H1009 H 0.60654 0.22799 0.28856 0.0
H1010 H 0.5751 0.25325 0.28011 0.0
C1011 C 0.45554 0.33063 0.24077 0.0
C1012 C 0.48426 0.28494 0.23992 0.0
H1013 H 0.49631 0.26216 0.28019 0.0
C1014 C 0.50666 0.27468 0.22391 0.0
C1015 C 0.48039 0.28034 0.26045 0.0
C1016 C 0.45547 0.29049 0.27804 0.0
C1017 C 0.52576 0.2601 0.22794 0.0
C1018 C 0.52169 0.25543 0.24844 0.0
C1019 C 0.4994 0.26573 0.26448 0.0
C1020 C 0.54044 0.23994 0.25358 0.0
C1021 C 0.55085 0.25004 0.21036 0.0
C1022 C 0.53099 0.22398 0.24173 0.0
C1023 C 0.54918 0.20948 0.24642 0.0
C1024 C 0.57709 0.2106 0.26318 0.0
C1025 C 0.58579 0.22662 0.27532 0.0
C1026 C 0.5676 0.2411 0.2706 0.0
H1027 H 0.5596 0.25762 0.19807 0.0
H1028 H 0.57798 0.24528 0.21713 0.0
H1029 H 0.53368 0.23905 0.20206 0.0
H1030 H 0.50951 0.22272 0.22881 0.0
H1031 H 0.54181 0.19745 0.23662 0.0
H1032 H 0.36092 0.81249 0.72483 0.0
H1033 H 0.39353 0.78731 0.73285 0.0
H1034 H 0.50724 0.80982 0.72629 0.0
H1035 H 0.47493 0.83499 0.71812 0.0
H1036 H 0.44701 0.76539 0.70814 0.0
H1037 H 0.51501 0.79603 0.78543 0.0
H1038 H 0.47633 0.80589 0.77242 0.0
H1039 H 0.52648 0.80613 0.76305 0.0
C1040 C 0.39285 0.81208 0.72496 0.0
C1041 C 0.41524 0.82588 0.72096 0.0
C1042 C 0.41146 0.79768 0.72965 0.0
C1043 C 0.45282 0.79678 0.73055 0.0
C1044 C 0.47528 0.81038 0.72621 0.0
H1045 H 0.62572 0.72311 0.75351 0.0
H1046 H 0.58999 0.74748 0.74544 0.0
C1047 C 0.45672 0.82479 0.72155 0.0
C1048 C 0.47251 0.78151 0.73568 0.0
H1049 H 0.53596 0.76812 0.77121 0.0
C1050 C 0.46626 0.76595 0.722 0.0
C1051 C 0.4976 0.78226 0.75379 0.0
C1052 C 0.50404 0.79843 0.76965 0.0
C1053 C 0.48523 0.75121 0.72562 0.0
C1054 C 0.51063 0.752 0.74361 0.0
C1055 C 0.51658 0.76753 0.75739 0.0
C1056 C 0.53194 0.73694 0.74826 0.0
C1057 C 0.47882 0.73502 0.7098 0.0
C1058 C 0.51122 0.72291 0.75274 0.0
C1059 C 0.53163 0.70893 0.75747 0.0
C1060 C 0.57321 0.70873 0.75799 0.0
C1061 C 0.59377 0.72286 0.75356 0.0
C1062 C 0.57337 0.7368 0.74882 0.0
H1063 H 0.46657 0.73734 0.69424 0.0
H1064 H 0.50688 0.72787 0.70651 0.0
H1065 H 0.4575 0.72705 0.71676 0.0
H1066 H 0.47923 0.72287 0.75288 0.0
H1067 H 0.51479 0.69842 0.76114 0.0
H1068 H 0.54386 0.58903 0.49972 0.0
H1069 H 0.51233 0.5638 0.50823 0.0
H1070 H 0.57201 0.53334 0.45436 0.0
H1071 H 0.60358 0.55849 0.4457 0.0
H1072 H 0.46286 0.54056 0.4836 0.0
H1073 H 0.60036 0.50943 0.50392 0.0
H1074 H 0.59879 0.53131 0.50132 0.0
H1075 H 0.60092 0.51508 0.47765 0.0
C1076 C 0.5501 0.577 0.48955 0.0
C1077 C 0.57652 0.57583 0.47206 0.0
C1078 C 0.53217 0.56256 0.49452 0.0
C1079 C 0.54034 0.54662 0.48219 0.0
C1080 C 0.56602 0.54543 0.46446 0.0
H1081 H 0.4586 0.44486 0.48484 0.0
H1082 H 0.49082 0.46999 0.47649 0.0
C1083 C 0.58403 0.55985 0.45951 0.0
C1084 C 0.52148 0.53128 0.48767 0.0
H1085 H 0.54164 0.49315 0.50156 0.0
C1086 C 0.48008 0.53023 0.48763 0.0
C1087 C 0.54396 0.51778 0.4929 0.0
C1088 C 0.58845 0.51846 0.49417 0.0
C1089 C 0.46057 0.51595 0.49229 0.0
C1090 C 0.48304 0.50244 0.49751 0.0
C1091 C 0.52444 0.50349 0.49753 0.0
C1092 C 0.46412 0.48714 0.50301 0.0
C1093 C 0.41607 0.51528 0.49111 0.0
C1094 C 0.43903 0.48835 0.52097 0.0
C1095 C 0.42069 0.47398 0.52588 0.0
C1096 C 0.4272 0.45804 0.51299 0.0
C1097 C 0.45311 0.45684 0.49527 0.0
C1098 C 0.47143 0.47123 0.49038 0.0
H1099 H 0.40404 0.52444 0.48159 0.0
H1100 H 0.40574 0.50247 0.48377 0.0
H1101 H 0.40372 0.51846 0.50768 0.0
H1102 H 0.43368 0.50042 0.53127 0.0
H1103 H 0.40158 0.47537 0.53987 0.0
H1104 H 0.15559 0.17423 0.40246 0.0
H1105 H 0.21197 0.1742 0.37806 0.0
H1106 H 0.25195 0.1271 0.39358 0.0
H1107 H 0.19625 0.12714 0.41816 0.0
H1108 H 0.30968 0.15138 0.39822 0.0
H1109 H 0.23569 0.14588 0.31858 0.0
H1110 H 0.21764 0.16269 0.33898 0.0
H1111 H 0.21084 0.14121 0.34217 0.0
C1112 C 0.17605 0.16374 0.4004 0.0
C1113 C 0.17156 0.15072 0.41227 0.0
C1114 C 0.20814 0.16371 0.3864 0.0
C1115 C 0.23589 0.15058 0.3839 0.0
C1116 C 0.23081 0.13735 0.39528 0.0
H1117 H 0.4284 0.12614 0.29377 0.0
H1118 H 0.36638 0.12736 0.31398 0.0
C1119 C 0.19896 0.1374 0.40933 0.0
C1120 C 0.27184 0.15112 0.37071 0.0
H1121 H 0.30467 0.1513 0.31951 0.0
C1122 C 0.30861 0.15136 0.38101 0.0
C1123 C 0.27024 0.15096 0.34825 0.0
C1124 C 0.23153 0.15002 0.33625 0.0
C1125 C 0.34396 0.15142 0.36946 0.0
C1126 C 0.3424 0.15161 0.34708 0.0
C1127 C 0.30565 0.15132 0.33673 0.0
C1128 C 0.37877 0.15149 0.33407 0.0
C1129 C 0.38265 0.15087 0.38121 0.0
C1130 C 0.40581 0.16482 0.33845 0.0
C1131 C 0.44126 0.16415 0.32698 0.0
C1132 C 0.45006 0.1502 0.31081 0.0
C1133 C 0.42232 0.1371 0.30604 0.0
C1134 C 0.38695 0.13776 0.31758 0.0
H1135 H 0.37864 0.14671 0.39694 0.0
H1136 H 0.40392 0.14224 0.3713 0.0
H1137 H 0.3958 0.16366 0.38444 0.0
H1138 H 0.39961 0.17568 0.35085 0.0
H1139 H 0.46171 0.17458 0.33071 0.0
H1140 H 0.6556 0.10928 0.32577 0.0
H1141 H 0.71211 0.10828 0.34978 0.0
H1142 H 0.75265 0.15607 0.33685 0.0
H1143 H 0.69678 0.1571 0.31272 0.0
H1144 H 0.80992 0.13086 0.33045 0.0
H1145 H 0.73639 0.13547 0.41029 0.0
H1146 H 0.71764 0.11941 0.38915 0.0
H1147 H 0.71189 0.14119 0.3872 0.0
C1148 C 0.6762 0.1197 0.32833 0.0
C1149 C 0.67181 0.13324 0.31732 0.0
C1150 C 0.70838 0.11913 0.34209 0.0
C1151 C 0.73632 0.13216 0.34515 0.0
C1152 C 0.73134 0.1459 0.33466 0.0
H1153 H 0.92762 0.15724 0.43427 0.0
H1154 H 0.86585 0.15526 0.41391 0.0
C1155 C 0.69939 0.14646 0.32089 0.0
C1156 C 0.7723 0.13107 0.35808 0.0
H1157 H 0.80542 0.13062 0.4091 0.0
C1158 C 0.809 0.13076 0.34764 0.0
C1159 C 0.77081 0.13103 0.38048 0.0
C1160 C 0.73213 0.13193 0.39256 0.0
C1161 C 0.84441 0.13059 0.35907 0.0
C1162 C 0.84297 0.13042 0.38145 0.0
C1163 C 0.80628 0.13061 0.39189 0.0
C1164 C 0.87936 0.13096 0.39446 0.0
C1165 C 0.88306 0.13113 0.34723 0.0
C1166 C 0.90702 0.11782 0.39044 0.0
C1167 C 0.94236 0.11891 0.40204 0.0
C1168 C 0.95039 0.13312 0.41794 0.0
C1169 C 0.92212 0.14607 0.42225 0.0
C1170 C 0.88689 0.14498 0.41062 0.0
H1171 H 0.8789 0.13496 0.33131 0.0
H1172 H 0.90397 0.14003 0.35693 0.0
H1173 H 0.89672 0.11843 0.34441 0.0
H1174 H 0.90136 0.10677 0.37827 0.0
H1175 H 0.96328 0.10861 0.39864 0.0
H1176 H 0.14214 0.16019 0.85098 0.0
H1177 H 0.19611 0.15761 0.87612 0.0
H1178 H 0.27214 0.13792 0.82237 0.0
H1179 H 0.21817 0.13972 0.79741 0.0
H1180 H 0.28102 0.12053 0.85326 0.0
H1181 H 0.28842 0.18865 0.88875 0.0
H1182 H 0.24146 0.17919 0.89212 0.0
H1183 H 0.25855 0.18067 0.86547 0.0
C1184 C 0.1704 0.1553 0.84459 0.0
C1185 C 0.17603 0.15022 0.82225 0.0
C1186 C 0.20125 0.15393 0.85894 0.0
C1187 C 0.23841 0.14787 0.8511 0.0
C1188 C 0.24377 0.14264 0.82881 0.0
H1189 H 0.46696 0.16457 0.90805 0.0
H1190 H 0.40436 0.16487 0.88921 0.0
C1191 C 0.21287 0.1437 0.81454 0.0
C1192 C 0.27209 0.1469 0.86584 0.0
H1193 H 0.33176 0.17065 0.9031 0.0
C1194 C 0.29208 0.13148 0.86422 0.0
C1195 C 0.28664 0.16125 0.87997 0.0
C1196 C 0.26793 0.17841 0.88159 0.0
C1197 C 0.32691 0.13009 0.87578 0.0
C1198 C 0.34125 0.14438 0.89009 0.0
C1199 C 0.3206 0.15969 0.8922 0.0
C1200 C 0.37902 0.14407 0.90189 0.0
C1201 C 0.34888 0.11352 0.8717 0.0
C1202 C 0.38558 0.13237 0.91545 0.0
C1203 C 0.42198 0.13178 0.92572 0.0
C1204 C 0.45223 0.14319 0.92308 0.0
C1205 C 0.44495 0.15527 0.91003 0.0
C1206 C 0.40886 0.15562 0.89946 0.0
H1207 H 0.34008 0.10555 0.85614 0.0
H1208 H 0.38131 0.11551 0.87143 0.0
H1209 H 0.34195 0.10645 0.88477 0.0
H1210 H 0.36264 0.12362 0.91803 0.0
H1211 H 0.42647 0.12223 0.93551 0.0
H1212 H 0.9335 0.16095 0.80885 0.0
H1213 H 0.87192 0.15778 0.82803 0.0
H1214 H 0.90521 0.10715 0.83335 0.0
H1215 H 0.96674 0.11011 0.81393 0.0
H1216 H 0.81015 0.13283 0.81807 0.0
H1217 H 0.88521 0.13174 0.89638 0.0
H1218 H 0.90951 0.13894 0.87421 0.0
H1219 H 0.9029 0.11681 0.87364 0.0
C1220 C 0.92755 0.14907 0.8139 0.0
C1221 C 0.95511 0.13582 0.81002 0.0
C1222 C 0.89243 0.1473 0.82487 0.0
C1223 C 0.88434 0.1323 0.83223 0.0
C1224 C 0.91131 0.11891 0.82803 0.0
H1225 H 0.66261 0.10703 0.89041 0.0
H1226 H 0.71873 0.10693 0.86576 0.0
C1227 C 0.94647 0.12066 0.81705 0.0
C1228 C 0.84818 0.13093 0.8449 0.0
H1229 H 0.8161 0.12831 0.89549 0.0
C1230 C 0.81131 0.13175 0.83496 0.0
C1231 C 0.85007 0.12968 0.86695 0.0
C1232 C 0.88898 0.12937 0.87856 0.0
C1233 C 0.77607 0.13143 0.84663 0.0
C1234 C 0.77801 0.13017 0.86868 0.0
C1235 C 0.81487 0.12921 0.87853 0.0
C1236 C 0.74232 0.1307 0.88226 0.0
C1237 C 0.7371 0.13294 0.83554 0.0
C1238 C 0.73712 0.14411 0.89957 0.0
C1239 C 0.70535 0.1442 0.91365 0.0
C1240 C 0.67824 0.1308 0.91075 0.0
C1241 C 0.68292 0.11756 0.89303 0.0
C1242 C 0.71485 0.11749 0.87891 0.0
H1243 H 0.74097 0.13684 0.81965 0.0
H1244 H 0.72193 0.12057 0.83287 0.0
H1245 H 0.71764 0.1422 0.84581 0.0
H1246 H 0.7581 0.15441 0.90238 0.0
H1247 H 0.70257 0.15463 0.92708 0.0
H1248 H 0.58334 0.89926 0.69927 0.0
H1249 H 0.6459 0.89778 0.67965 0.0
H1250 H 0.58317 0.8863 0.61921 0.0
H1251 H 0.52054 0.88703 0.6387 0.0
H1252 H 0.64692 0.86536 0.62121 0.0
H1253 H 0.68969 0.93245 0.64631 0.0
H1254 H 0.67941 0.92171 0.66827 0.0
H1255 H 0.64044 0.92495 0.6501 0.0
C1256 C 0.58283 0.8963 0.6818 0.0
C1257 C 0.54691 0.89324 0.67054 0.0
C1258 C 0.61859 0.89567 0.67062 0.0
C1259 C 0.61908 0.89215 0.648 0.0
C1260 C 0.58335 0.88912 0.6367 0.0
H1261 H 0.79635 0.90649 0.55673 0.0
H1262 H 0.74085 0.90799 0.58162 0.0
C1263 C 0.54759 0.88968 0.64785 0.0
C1264 C 0.65684 0.89121 0.63601 0.0
H1265 H 0.73685 0.91437 0.6262 0.0
C1266 C 0.66668 0.87605 0.62232 0.0
C1267 C 0.68233 0.90524 0.63744 0.0
C1268 C 0.67238 0.92206 0.65116 0.0
C1269 C 0.7012 0.87455 0.6098 0.0
C1270 C 0.7269 0.88852 0.61139 0.0
C1271 C 0.71726 0.90364 0.62524 0.0
C1272 C 0.76223 0.88812 0.59748 0.0
C1273 C 0.70911 0.85825 0.5944 0.0
C1274 C 0.79314 0.87669 0.5985 0.0
C1275 C 0.82499 0.87572 0.58415 0.0
C1276 C 0.82645 0.88627 0.56871 0.0
C1277 C 0.79611 0.89813 0.56835 0.0
C1278 C 0.76435 0.89904 0.5826 0.0
H1279 H 0.6824 0.85016 0.59173 0.0
H1280 H 0.71955 0.8607 0.57855 0.0
H1281 H 0.73253 0.85114 0.6012 0.0
H1282 H 0.79236 0.86837 0.61017 0.0
H1283 H 0.84799 0.86652 0.58492 0.0
H1284 H 0.34671 0.86749 0.63361 0.0
H1285 H 0.29383 0.87103 0.60826 0.0
H1286 H 0.24228 0.91036 0.65578 0.0
H1287 H 0.2951 0.90721 0.68091 0.0
H1288 H 0.21568 0.86622 0.6138 0.0
H1289 H 0.24058 0.93174 0.60263 0.0
H1290 H 0.27723 0.91994 0.61447 0.0
H1291 H 0.23736 0.93029 0.63065 0.0
C1292 C 0.3244 0.87705 0.63853 0.0
C1293 C 0.32512 0.88706 0.65927 0.0
C1294 C 0.29426 0.87905 0.62405 0.0
C1295 C 0.26453 0.89115 0.63002 0.0
C1296 C 0.26547 0.90126 0.65062 0.0
H1297 H 0.02383 0.89047 0.58854 0.0
H1298 H 0.08675 0.88896 0.60702 0.0
C1299 C 0.29556 0.89932 0.66505 0.0
C1300 C 0.23067 0.89236 0.61555 0.0
H1301 H 0.17565 0.9204 0.59359 0.0
C1302 C 0.20723 0.87801 0.60911 0.0
C1303 C 0.21998 0.90768 0.60922 0.0
C1304 C 0.24537 0.92323 0.61441 0.0
C1305 C 0.17239 0.87876 0.59732 0.0
C1306 C 0.1603 0.89436 0.59228 0.0
C1307 C 0.18466 0.90852 0.59783 0.0
C1308 C 0.1221 0.89625 0.58161 0.0
C1309 C 0.14883 0.86283 0.59043 0.0
C1310 C 0.12103 0.90162 0.56167 0.0
C1311 C 0.08503 0.90279 0.55123 0.0
C1312 C 0.04946 0.89864 0.56059 0.0
C1313 C 0.05062 0.89385 0.58094 0.0
C1314 C 0.0866 0.89274 0.59139 0.0
H1315 H 0.16749 0.85143 0.58981 0.0
H1316 H 0.12483 0.86231 0.6023 0.0
H1317 H 0.13522 0.86247 0.57432 0.0
H1318 H 0.14811 0.90459 0.554 0.0
H1319 H 0.08509 0.90683 0.53576 0.0
H1320 H 0.80443 0.90985 0.179 0.0
H1321 H 0.74971 0.91162 0.15434 0.0
H1322 H 0.79302 0.86751 0.11152 0.0
H1323 H 0.8479 0.86548 0.13626 0.0
H1324 H 0.74863 0.91371 0.10926 0.0
H1325 H 0.67859 0.85536 0.12687 0.0
H1326 H 0.71714 0.86633 0.14355 0.0
H1327 H 0.72917 0.85345 0.11802 0.0
C1328 C 0.80255 0.90056 0.16428 0.0
C1329 C 0.83027 0.88739 0.15969 0.0
C1330 C 0.77131 0.90164 0.15019 0.0
C1331 C 0.76711 0.88956 0.13133 0.0
C1332 C 0.79555 0.8768 0.1262 0.0
H1333 H 0.57185 0.87181 0.04074 0.0
H1334 H 0.635 0.87078 0.05917 0.0
C1335 C 0.82694 0.87571 0.14029 0.0
C1336 C 0.7319 0.89001 0.11762 0.0
H1337 H 0.64629 0.86911 0.10192 0.0
C1338 C 0.72629 0.90394 0.10753 0.0
C1339 C 0.70289 0.87724 0.11552 0.0
C1340 C 0.70689 0.86229 0.12667 0.0
C1341 C 0.6923 0.90544 0.09529 0.0
C1342 C 0.66295 0.89282 0.09352 0.0
C1343 C 0.66889 0.87876 0.10335 0.0
C1344 C 0.62549 0.894 0.08183 0.0
C1345 C 0.68829 0.92041 0.08421 0.0
C1346 C 0.59912 0.90735 0.0886 0.0
C1347 C 0.56309 0.90805 0.07799 0.0
C1348 C 0.55274 0.89534 0.06052 0.0
C1349 C 0.57921 0.88194 0.0539 0.0
C1350 C 0.6152 0.88128 0.06448 0.0
H1351 H 0.7174 0.92626 0.08214 0.0
H1352 H 0.67424 0.91678 0.06812 0.0
H1353 H 0.66939 0.93006 0.09419 0.0
H1354 H 0.60618 0.91711 0.10226 0.0
H1355 H 0.54349 0.91859 0.08338 0.0
H1356 H 0.08843 0.9002 0.20132 0.0
H1357 H 0.15099 0.89771 0.18165 0.0
H1358 H 0.08791 0.88651 0.1213 0.0
H1359 H 0.02526 0.88817 0.14084 0.0
H1360 H 0.14997 0.86497 0.1232 0.0
H1361 H 0.19761 0.93147 0.14812 0.0
H1362 H 0.18688 0.92084 0.17012 0.0
H1363 H 0.14792 0.92462 0.15222 0.0
C1364 C 0.08782 0.89709 0.18386 0.0
C1365 C 0.05177 0.89438 0.17265 0.0
C1366 C 0.12362 0.89588 0.17265 0.0
C1367 C 0.12403 0.89215 0.15002 0.0
C1368 C 0.08818 0.88948 0.13878 0.0
H1369 H 0.29876 0.90551 0.05772 0.0
H1370 H 0.24439 0.90696 0.08326 0.0
C1371 C 0.05239 0.8906 0.14996 0.0
C1372 C 0.16178 0.89068 0.13796 0.0
H1373 H 0.24304 0.91285 0.12755 0.0
C1374 C 0.17045 0.8754 0.12418 0.0
C1375 C 0.18824 0.90436 0.13925 0.0
C1376 C 0.17965 0.9213 0.15307 0.0
C1377 C 0.20457 0.87351 0.11132 0.0
C1378 C 0.23111 0.88718 0.11267 0.0
C1379 C 0.22279 0.90235 0.12674 0.0
C1380 C 0.26565 0.88654 0.09814 0.0
C1381 C 0.21106 0.85716 0.09577 0.0
C1382 C 0.29609 0.87474 0.0983 0.0
C1383 C 0.32732 0.87378 0.08354 0.0
C1384 C 0.32865 0.88472 0.06856 0.0
C1385 C 0.29868 0.89685 0.06898 0.0
C1386 C 0.26754 0.89774 0.08361 0.0
H1387 H 0.18387 0.84935 0.09346 0.0
H1388 H 0.22093 0.85955 0.07978 0.0
H1389 H 0.23443 0.8498 0.10219 0.0
H1390 H 0.29551 0.86619 0.10968 0.0
H1391 H 0.35006 0.86436 0.08371 0.0
H1392 H 0.15294 0.67861 0.90809 0.0
H1393 H 0.20727 0.68001 0.88278 0.0
H1394 H 0.25241 0.63268 0.89494 0.0
H1395 H 0.19832 0.63112 0.92019 0.0
H1396 H 0.28942 0.67985 0.89427 0.0
H1397 H 0.25072 0.62709 0.82807 0.0
H1398 H 0.21511 0.63696 0.84779 0.0
H1399 H 0.24957 0.6218 0.85456 0.0
C1400 C 0.17409 0.66837 0.90513 0.0
C1401 C 0.17134 0.65474 0.91612 0.0
C1402 C 0.20511 0.66922 0.89072 0.0
C1403 C 0.23349 0.65636 0.88687 0.0
C1404 C 0.23038 0.64259 0.89746 0.0
H1405 H 0.47337 0.65034 0.84541 0.0
H1406 H 0.41061 0.65299 0.86489 0.0
C1407 C 0.19959 0.64177 0.91197 0.0
C1408 C 0.26795 0.6578 0.87293 0.0
H1409 H 0.31665 0.63765 0.82814 0.0
C1410 C 0.29519 0.67076 0.87966 0.0
C1411 C 0.2751 0.646 0.85382 0.0
C1412 C 0.24594 0.63225 0.84547 0.0
C1413 C 0.33038 0.67181 0.86821 0.0
C1414 C 0.33842 0.65952 0.84971 0.0
C1415 C 0.31041 0.64698 0.84246 0.0
C1416 C 0.37658 0.65897 0.83824 0.0
C1417 C 0.3589 0.68592 0.87611 0.0
C1418 C 0.37804 0.66138 0.81678 0.0
C1419 C 0.41393 0.66003 0.80564 0.0
C1420 C 0.44889 0.65601 0.8157 0.0
C1421 C 0.4472 0.65372 0.83729 0.0
C1422 C 0.41136 0.65519 0.84844 0.0
H1423 H 0.34438 0.69647 0.88717 0.0
H1424 H 0.38327 0.68107 0.88504 0.0
H1425 H 0.37203 0.69085 0.86234 0.0
H1426 H 0.35139 0.66428 0.80867 0.0
H1427 H 0.41426 0.66212 0.78914 0.0
H1428 H 0.65538 0.6166 0.83533 0.0
H1429 H 0.71246 0.61793 0.85935 0.0
H1430 H 0.75221 0.66306 0.83838 0.0
H1431 H 0.69576 0.66166 0.81405 0.0
H1432 H 0.80971 0.63928 0.83558 0.0
H1433 H 0.73878 0.64851 0.91629 0.0
H1434 H 0.71993 0.63076 0.89772 0.0
H1435 H 0.71271 0.65168 0.89236 0.0
C1436 C 0.67591 0.62696 0.83611 0.0
C1437 C 0.67115 0.63899 0.82275 0.0
C1438 C 0.70841 0.62774 0.84992 0.0
C1439 C 0.73632 0.64068 0.85079 0.0
C1440 C 0.73095 0.65299 0.83796 0.0
H1441 H 0.93237 0.66353 0.93963 0.0
H1442 H 0.87058 0.66366 0.91956 0.0
C1443 C 0.69867 0.65216 0.82407 0.0
C1444 C 0.77277 0.64069 0.86372 0.0
H1445 H 0.80726 0.64143 0.91476 0.0
C1446 C 0.8092 0.63984 0.85292 0.0
C1447 C 0.77196 0.64156 0.88634 0.0
C1448 C 0.73378 0.64334 0.89892 0.0
C1449 C 0.84491 0.63964 0.86408 0.0
C1450 C 0.84408 0.63992 0.88657 0.0
C1451 C 0.8077 0.64101 0.89746 0.0
C1452 C 0.88078 0.63944 0.89914 0.0
C1453 C 0.88321 0.63943 0.85173 0.0
C1454 C 0.90659 0.62564 0.89451 0.0
C1455 C 0.94192 0.62555 0.9059 0.0
C1456 C 0.9518 0.63918 0.92227 0.0
C1457 C 0.9254 0.6528 0.9272 0.0
C1458 C 0.89018 0.65292 0.91574 0.0
H1459 H 0.87898 0.64368 0.83607 0.0
H1460 H 0.90564 0.64762 0.86128 0.0
H1461 H 0.89497 0.62639 0.84826 0.0
H1462 H 0.8994 0.61496 0.88206 0.0
H1463 H 0.96135 0.61475 0.90202 0.0
H1464 H 0.19852 0.6583 0.31312 0.0
H1465 H 0.2553 0.65788 0.33686 0.0
H1466 H 0.21158 0.61247 0.3555 0.0
H1467 H 0.15417 0.6129 0.33198 0.0
H1468 H 0.24158 0.63599 0.39012 0.0
H1469 H 0.34631 0.62433 0.32121 0.0
H1470 H 0.316 0.64266 0.32174 0.0
H1471 H 0.29353 0.62216 0.31775 0.0
C1472 C 0.20076 0.64828 0.32237 0.0
C1473 C 0.17204 0.63553 0.32051 0.0
C1474 C 0.23333 0.64802 0.33585 0.0
C1475 C 0.23799 0.63494 0.34753 0.0
C1476 C 0.20858 0.6226 0.34646 0.0
H1477 H 0.46276 0.61151 0.40223 0.0
H1478 H 0.40058 0.61003 0.38216 0.0
C1479 C 0.17582 0.62288 0.33304 0.0
C1480 C 0.27414 0.63395 0.36038 0.0
H1481 H 0.37451 0.6312 0.35626 0.0
C1482 C 0.27066 0.63485 0.38275 0.0
C1483 C 0.31192 0.63214 0.35062 0.0
C1484 C 0.31728 0.63009 0.32649 0.0
C1485 C 0.3042 0.63449 0.39575 0.0
C1486 C 0.34209 0.63349 0.38609 0.0
C1487 C 0.34543 0.63212 0.36364 0.0
C1488 C 0.3788 0.6341 0.39893 0.0
C1489 C 0.29871 0.63502 0.41963 0.0
C1490 C 0.38726 0.64819 0.41485 0.0
C1491 C 0.42269 0.64907 0.42631 0.0
C1492 C 0.45051 0.63595 0.42187 0.0
C1493 C 0.44205 0.62188 0.40585 0.0
C1494 C 0.4065 0.62097 0.39447 0.0
H1495 H 0.26868 0.63078 0.42333 0.0
H1496 H 0.32087 0.62699 0.42592 0.0
H1497 H 0.30245 0.64816 0.42832 0.0
H1498 H 0.36678 0.65866 0.41813 0.0
H1499 H 0.4287 0.66018 0.43833 0.0
H1500 H 0.65517 0.67636 0.40794 0.0
H1501 H 0.71166 0.67715 0.38383 0.0
H1502 H 0.75479 0.63048 0.39922 0.0
H1503 H 0.69894 0.62968 0.42349 0.0
H1504 H 0.81118 0.65574 0.40378 0.0
H1505 H 0.73588 0.64867 0.32427 0.0
H1506 H 0.7171 0.66524 0.34477 0.0
H1507 H 0.71203 0.6437 0.34798 0.0
C1508 C 0.67638 0.66614 0.40594 0.0
C1509 C 0.67261 0.65297 0.41764 0.0
C1510 C 0.70855 0.66659 0.39211 0.0
C1511 C 0.73717 0.6538 0.38963 0.0
C1512 C 0.73297 0.64046 0.40092 0.0
H1513 H 0.92746 0.62833 0.29921 0.0
H1514 H 0.86611 0.63021 0.32001 0.0
C1515 C 0.701 0.64003 0.41477 0.0
C1516 C 0.77283 0.6547 0.37632 0.0
H1517 H 0.80463 0.65419 0.32478 0.0
C1518 C 0.80979 0.65544 0.38651 0.0
C1519 C 0.77079 0.65419 0.3538 0.0
C1520 C 0.73188 0.65276 0.34196 0.0
C1521 C 0.84492 0.65556 0.37475 0.0
C1522 C 0.84291 0.65525 0.35227 0.0
C1523 C 0.80595 0.65458 0.34207 0.0
C1524 C 0.879 0.65475 0.33894 0.0
C1525 C 0.88387 0.65551 0.38639 0.0
C1526 C 0.90617 0.66807 0.34247 0.0
C1527 C 0.94127 0.66703 0.33061 0.0
C1528 C 0.94959 0.6527 0.31492 0.0
C1529 C 0.92175 0.63959 0.31105 0.0
C1530 C 0.88675 0.64062 0.32295 0.0
H1531 H 0.88032 0.65191 0.40248 0.0
H1532 H 0.90507 0.64668 0.37674 0.0
H1533 H 0.89684 0.66833 0.38884 0.0
H1534 H 0.90032 0.67921 0.35448 0.0
H1535 H 0.96182 0.67746 0.33368 0.0
H1536 H 0.57647 0.40879 0.18515 0.0
H1537 H 0.63794 0.40674 0.16445 0.0
H1538 H 0.60457 0.35729 0.13109 0.0
H1539 H 0.54297 0.35919 0.15182 0.0
H1540 H 0.69995 0.38283 0.16014 0.0
H1541 H 0.62355 0.38412 0.08236 0.0
H1542 H 0.599 0.38962 0.10812 0.0
H1543 H 0.60729 0.36789 0.09642 0.0
C1544 C 0.58241 0.39738 0.1736 0.0
C1545 C 0.55476 0.38419 0.17 0.0
C1546 C 0.61748 0.39626 0.16177 0.0
C1547 C 0.62547 0.38197 0.14609 0.0
C1548 C 0.59853 0.36856 0.14286 0.0
H1549 H 0.84832 0.35957 0.07664 0.0
H1550 H 0.79224 0.35923 0.10114 0.0
C1551 C 0.56337 0.36968 0.15467 0.0
C1552 C 0.66145 0.3814 0.13268 0.0
H1553 H 0.69272 0.3804 0.08099 0.0
C1554 C 0.69849 0.38225 0.14282 0.0
C1555 C 0.65925 0.38085 0.11015 0.0
C1556 C 0.62019 0.38072 0.09858 0.0
C1557 C 0.73353 0.38256 0.13097 0.0
C1558 C 0.7313 0.38179 0.10841 0.0
C1559 C 0.69426 0.3809 0.09829 0.0
C1560 C 0.76683 0.38249 0.09494 0.0
C1561 C 0.77254 0.38415 0.14272 0.0
C1562 C 0.77096 0.39563 0.08333 0.0
C1563 C 0.8027 0.3958 0.06926 0.0
C1564 C 0.83091 0.3828 0.06649 0.0
C1565 C 0.82723 0.36983 0.07853 0.0
C1566 C 0.7953 0.36964 0.09259 0.0
H1567 H 0.76867 0.38845 0.16038 0.0
H1568 H 0.78739 0.37169 0.14011 0.0
H1569 H 0.79227 0.39313 0.13645 0.0
H1570 H 0.74923 0.40564 0.08493 0.0
H1571 H 0.80469 0.406 0.06028 0.0
H1572 H 0.07453 0.37448 0.04424 0.0
H1573 H 0.13641 0.37553 0.06445 0.0
H1574 H 0.10385 0.42412 0.10095 0.0
H1575 H 0.04181 0.42316 0.08083 0.0
H1576 H 0.19813 0.39889 0.06916 0.0
H1577 H 0.1258 0.39601 0.14758 0.0
H1578 H 0.09978 0.39144 0.1222 0.0
H1579 H 0.10876 0.41289 0.13492 0.0
C1580 C 0.0807 0.38545 0.05646 0.0
C1581 C 0.05322 0.39869 0.06108 0.0
C1582 C 0.11599 0.38601 0.068 0.0
C1583 C 0.12437 0.39979 0.08436 0.0
C1584 C 0.09749 0.41322 0.08867 0.0
H1585 H 0.34872 0.42358 0.15011 0.0
H1586 H 0.29203 0.42266 0.12585 0.0
C1587 C 0.06209 0.41264 0.0772 0.0
C1588 C 0.16099 0.39993 0.09714 0.0
H1589 H 0.19482 0.40065 0.14826 0.0
C1590 C 0.19752 0.39926 0.08645 0.0
C1591 C 0.15992 0.40018 0.11963 0.0
C1592 C 0.12149 0.40001 0.13178 0.0
C1593 C 0.23317 0.39899 0.09774 0.0
C1594 C 0.23207 0.39966 0.12031 0.0
C1595 C 0.19552 0.40023 0.13095 0.0
C1596 C 0.26834 0.39951 0.13334 0.0
C1597 C 0.27157 0.39762 0.08537 0.0
C1598 C 0.27371 0.38683 0.1456 0.0
C1599 C 0.30575 0.38741 0.15959 0.0
C1600 C 0.33305 0.4007 0.1616 0.0
C1601 C 0.32835 0.41311 0.14879 0.0
C1602 C 0.29606 0.41257 0.13486 0.0
H1603 H 0.26697 0.39287 0.06786 0.0
H1604 H 0.28529 0.41028 0.08721 0.0
H1605 H 0.29259 0.38913 0.09168 0.0
H1606 H 0.25259 0.37665 0.14465 0.0
H1607 H 0.30863 0.37761 0.16917 0.0
H1608 H 0.81247 0.40778 0.67003 0.0
H1609 H 0.75683 0.40881 0.6457 0.0
H1610 H 0.76729 0.35531 0.6226 0.0
H1611 H 0.82401 0.35426 0.64649 0.0
H1612 H 0.75055 0.37233 0.59007 0.0
H1613 H 0.64871 0.39219 0.65892 0.0
H1614 H 0.68958 0.40631 0.65905 0.0
H1615 H 0.69828 0.38494 0.66241 0.0
C1616 C 0.80312 0.39624 0.65965 0.0
C1617 C 0.82222 0.38089 0.66032 0.0
C1618 C 0.77122 0.39685 0.64585 0.0
C1619 C 0.7573 0.38206 0.63281 0.0
C1620 C 0.77742 0.36684 0.6327 0.0
H1621 H 0.52014 0.37381 0.58036 0.0
H1622 H 0.58125 0.37055 0.59988 0.0
C1623 C 0.80978 0.36626 0.64632 0.0
C1624 C 0.72096 0.38246 0.61989 0.0
H1625 H 0.62382 0.39379 0.62408 0.0
C1626 C 0.72274 0.37693 0.59747 0.0
C1627 C 0.68458 0.38815 0.62968 0.0
C1628 C 0.67998 0.39306 0.65386 0.0
C1629 C 0.6892 0.37729 0.58447 0.0
C1630 C 0.65331 0.38378 0.59417 0.0
C1631 C 0.65145 0.389 0.61664 0.0
C1632 C 0.61701 0.38512 0.58148 0.0
C1633 C 0.69243 0.37043 0.5606 0.0
C1634 C 0.61678 0.39446 0.56475 0.0
C1635 C 0.58198 0.39618 0.55344 0.0
C1636 C 0.54672 0.38888 0.55903 0.0
C1637 C 0.54691 0.37967 0.57589 0.0
C1638 C 0.58178 0.37776 0.58697 0.0
H1639 H 0.71743 0.36143 0.55697 0.0
H1640 H 0.66482 0.36395 0.55424 0.0
H1641 H 0.69787 0.38098 0.5519 0.0
H1642 H 0.64332 0.40067 0.56066 0.0
H1643 H 0.58241 0.40351 0.54065 0.0
H1644 H 0.02012 0.37212 0.63872 0.0
H1645 H 0.08163 0.36896 0.61792 0.0
H1646 H 0.14217 0.3999 0.67107 0.0
H1647 H 0.08094 0.40266 0.69213 0.0
H1648 H 0.12406 0.39229 0.60436 0.0
H1649 H 0.21735 0.36095 0.65746 0.0
H1650 H 0.16461 0.36322 0.66103 0.0
H1651 H 0.19704 0.38046 0.67135 0.0
C1652 C 0.04665 0.37817 0.64595 0.0
C1653 C 0.04594 0.38757 0.66702 0.0
C1654 C 0.08174 0.37632 0.63412 0.0
C1655 C 0.11667 0.38394 0.64308 0.0
C1656 C 0.1159 0.39349 0.66407 0.0
H1657 H 0.3135 0.40737 0.56633 0.0
H1658 H 0.25699 0.40818 0.59063 0.0
C1659 C 0.0809 0.39515 0.67602 0.0
C1660 C 0.15324 0.38266 0.62997 0.0
H1661 H 0.25089 0.37195 0.62962 0.0
C1662 C 0.15172 0.38773 0.60983 0.0
C1663 C 0.18918 0.37649 0.63699 0.0
C1664 C 0.19212 0.3698 0.65779 0.0
C1665 C 0.18523 0.38706 0.59666 0.0
C1666 C 0.22163 0.3817 0.60416 0.0
C1667 C 0.22307 0.3763 0.62409 0.0
C1668 C 0.25834 0.38149 0.59135 0.0
C1669 C 0.18106 0.39182 0.57468 0.0
C1670 C 0.27919 0.3664 0.58473 0.0
C1671 C 0.31202 0.36596 0.57116 0.0
C1672 C 0.32422 0.38061 0.56395 0.0
C1673 C 0.30435 0.39584 0.57139 0.0
C1674 C 0.27196 0.39631 0.58517 0.0
H1675 H 0.14998 0.39069 0.56894 0.0
H1676 H 0.19019 0.40513 0.57564 0.0
H1677 H 0.19996 0.38378 0.56254 0.0
H1678 H 0.26929 0.35485 0.58946 0.0
H1679 H 0.32679 0.35405 0.56561 0.0
H1680 H 0.19847 0.14708 0.7087 0.0
H1681 H 0.21273 0.14606 0.67028 0.0
H1682 H 0.08794 0.1437 0.65642 0.0
H1683 H 0.07335 0.14471 0.69459 0.0
H1684 H 0.14393 0.11717 0.63106 0.0
H1685 H 0.18402 0.18447 0.63316 0.0
H1686 H 0.20364 0.1733 0.65316 0.0
H1687 H 0.15213 0.17844 0.65346 0.0
C1688 C 0.1741 0.14645 0.69746 0.0
C1689 C 0.13479 0.14594 0.70457 0.0
C1690 C 0.18232 0.14591 0.67561 0.0
C1691 C 0.15132 0.14485 0.66072 0.0
C1692 C 0.11214 0.14453 0.66781 0.0
H1693 H 0.07273 0.13768 0.53537 0.0
H1694 H 0.08802 0.13724 0.57307 0.0
C1695 C 0.1039 0.14512 0.68958 0.0
C1696 C 0.1591 0.14349 0.63753 0.0
H1697 H 0.17493 0.16741 0.59902 0.0
C1698 C 0.1515 0.12805 0.624 0.0
C1699 C 0.16936 0.1577 0.62858 0.0
C1700 C 0.17778 0.17449 0.64272 0.0
C1701 C 0.15165 0.12666 0.60156 0.0
C1702 C 0.15892 0.14118 0.5926 0.0
C1703 C 0.16924 0.15635 0.60607 0.0
C1704 C 0.15071 0.14133 0.56971 0.0
C1705 C 0.14246 0.10987 0.58761 0.0
C1706 C 0.1809 0.14417 0.55558 0.0
C1707 C 0.17225 0.14443 0.53396 0.0
C1708 C 0.13322 0.14208 0.52639 0.0
C1709 C 0.10307 0.1395 0.54074 0.0
C1710 C 0.11177 0.13914 0.56222 0.0
H1711 H 0.14925 0.09929 0.59609 0.0
H1712 H 0.1105 0.10932 0.58364 0.0
H1713 H 0.15939 0.10809 0.57225 0.0
H1714 H 0.21106 0.14603 0.56124 0.0
H1715 H 0.19601 0.14651 0.52322 0.0
H1716 H 0.80018 0.89064 0.4582 0.0
H1717 H 0.78387 0.88802 0.41977 0.0
H1718 H 0.90752 0.8819 0.4036 0.0
H1719 H 0.92405 0.88451 0.44172 0.0
H1720 H 0.81474 0.90946 0.3916 0.0
H1721 H 0.85229 0.84237 0.36317 0.0
H1722 H 0.84165 0.85099 0.39113 0.0
H1723 H 0.88987 0.85351 0.38011 0.0
C1724 C 0.8238 0.88861 0.4464 0.0
C1725 C 0.86338 0.88777 0.45288 0.0
C1726 C 0.81442 0.88709 0.42454 0.0
C1727 C 0.84446 0.88448 0.40897 0.0
C1728 C 0.8839 0.88357 0.41542 0.0
H1729 H 0.9251 0.88993 0.28802 0.0
H1730 H 0.908 0.88693 0.32474 0.0
C1731 C 0.89331 0.88519 0.4372 0.0
C1732 C 0.83565 0.88384 0.38596 0.0
H1733 H 0.85563 0.86042 0.33648 0.0
C1734 C 0.82251 0.89861 0.37945 0.0
C1735 C 0.8456 0.8696 0.37031 0.0
C1736 C 0.85776 0.85316 0.37652 0.0
C1737 C 0.82256 0.9 0.35759 0.0
C1738 C 0.83576 0.8862 0.34211 0.0
C1739 C 0.84582 0.871 0.34851 0.0
C1740 C 0.84487 0.88803 0.31983 0.0
C1741 C 0.81148 0.91654 0.3513 0.0
C1742 C 0.81486 0.88966 0.30505 0.0
C1743 C 0.82455 0.89141 0.28401 0.0
C1744 C 0.86434 0.89155 0.27759 0.0
C1745 C 0.8942 0.88993 0.29252 0.0
C1746 C 0.88451 0.88815 0.31345 0.0
H1747 H 0.80444 0.9264 0.36554 0.0
H1748 H 0.83604 0.92109 0.34217 0.0
H1749 H 0.78526 0.91473 0.34057 0.0
H1750 H 0.7841 0.88947 0.30975 0.0
H1751 H 0.80095 0.89257 0.27277 0.0
H1752 H 0.20035 0.64327 0.02493 0.0
H1753 H 0.21587 0.64351 0.06309 0.0
H1754 H 0.0916 0.64118 0.07725 0.0
H1755 H 0.07576 0.64091 0.03942 0.0
H1756 H 0.14941 0.66952 0.10338 0.0
H1757 H 0.18781 0.6017 0.09818 0.0
H1758 H 0.20385 0.61332 0.07778 0.0
H1759 H 0.1528 0.6079 0.07946 0.0
C1760 C 0.1764 0.64275 0.03619 0.0
C1761 C 0.13684 0.64211 0.02927 0.0
C1762 C 0.18533 0.64286 0.05788 0.0
C1763 C 0.1548 0.64233 0.07275 0.0
C1764 C 0.11543 0.64157 0.06586 0.0
H1765 H 0.07316 0.64664 0.19684 0.0
H1766 H 0.08963 0.64743 0.15932 0.0
C1767 C 0.10649 0.64143 0.04428 0.0
C1768 C 0.16303 0.64306 0.09579 0.0
H1769 H 0.17563 0.61765 0.1329 0.0
C1770 C 0.15612 0.6583 0.1099 0.0
C1771 C 0.17196 0.62838 0.10403 0.0
C1772 C 0.17965 0.61183 0.08919 0.0
C1773 C 0.15547 0.65902 0.13225 0.0
C1774 C 0.16128 0.64405 0.14047 0.0
C1775 C 0.17105 0.62906 0.12643 0.0
C1776 C 0.15221 0.64335 0.16312 0.0
C1777 C 0.14676 0.67558 0.14688 0.0
C1778 C 0.18197 0.6404 0.17742 0.0
C1779 C 0.17266 0.63997 0.19892 0.0
C1780 C 0.13341 0.64227 0.20622 0.0
C1781 C 0.10365 0.64485 0.19168 0.0
C1782 C 0.11301 0.64539 0.1703 0.0
H1783 H 0.15386 0.68642 0.13894 0.0
H1784 H 0.11483 0.67621 0.15097 0.0
H1785 H 0.16376 0.67681 0.16216 0.0
H1786 H 0.21232 0.63867 0.172 0.0
H1787 H 0.19614 0.63789 0.20982 0.0
H1788 H 0.80602 0.3931 0.95769 0.0
H1789 H 0.79053 0.39622 0.92057 0.0
H1790 H 0.9149 0.39944 0.907 0.0
H1791 H 0.93065 0.39642 0.94388 0.0
H1792 H 0.86263 0.42589 0.8952 0.0
H1793 H 0.81348 0.35993 0.86451 0.0
H1794 H 0.7931 0.37118 0.88945 0.0
H1795 H 0.84415 0.36516 0.88822 0.0
C1796 C 0.83002 0.39438 0.94673 0.0
C1797 C 0.86954 0.39448 0.95361 0.0
C1798 C 0.82111 0.39614 0.9256 0.0
C1799 C 0.85164 0.398 0.9112 0.0
C1800 C 0.89102 0.39804 0.91801 0.0
H1801 H 0.92744 0.40401 0.78822 0.0
H1802 H 0.91313 0.40627 0.8266 0.0
C1803 C 0.89994 0.39625 0.93903 0.0
C1804 C 0.84325 0.40007 0.88892 0.0
H1805 H 0.82221 0.37753 0.83907 0.0
C1806 C 0.85304 0.41544 0.88294 0.0
C1807 C 0.83037 0.38643 0.87315 0.0
C1808 C 0.81972 0.36968 0.87897 0.0
C1809 C 0.85249 0.41724 0.86128 0.0
C1810 C 0.84251 0.40321 0.84532 0.0
C1811 C 0.82998 0.38821 0.85144 0.0
C1812 C 0.84998 0.40313 0.82228 0.0
C1813 C 0.86401 0.43392 0.85555 0.0
C1814 C 0.81916 0.4004 0.80722 0.0
C1815 C 0.82727 0.39909 0.78523 0.0
C1816 C 0.86637 0.40025 0.77809 0.0
C1817 C 0.89705 0.4031 0.79327 0.0
C1818 C 0.8889 0.40451 0.81519 0.0
H1819 H 0.85862 0.44447 0.86924 0.0
H1820 H 0.89602 0.43372 0.85169 0.0
H1821 H 0.84741 0.43635 0.84123 0.0
H1822 H 0.78901 0.39913 0.81247 0.0
H1823 H 0.80308 0.39684 0.77384 0.0
H1824 H 0.57642 0.14838 0.19458 0.0
H1825 H 0.5935 0.151 0.15772 0.0
H1826 H 0.71731 0.1473 0.1723 0.0
H1827 H 0.70047 0.14456 0.20941 0.0
H1828 H 0.64677 0.17673 0.1453 0.0
H1829 H 0.69509 0.11024 0.11712 0.0
H1830 H 0.66415 0.11608 0.14067 0.0
H1831 H 0.71523 0.12198 0.1418 0.0
C1832 C 0.60729 0.14806 0.18997 0.0
C1833 C 0.63713 0.14621 0.20481 0.0
C1834 C 0.61697 0.14962 0.16896 0.0
C1835 C 0.65658 0.14929 0.16242 0.0
C1836 C 0.68657 0.14745 0.17713 0.0
H1837 H 0.70204 0.14486 0.02388 0.0
H1838 H 0.71794 0.14784 0.06239 0.0
C1839 C 0.67689 0.14591 0.19824 0.0
C1840 C 0.66567 0.15083 0.14004 0.0
H1841 H 0.68588 0.12702 0.09079 0.0
C1842 C 0.65617 0.166 0.1334 0.0
C1843 C 0.67832 0.13682 0.12473 0.0
C1844 C 0.68875 0.12029 0.13126 0.0
C1845 C 0.65647 0.16718 0.11153 0.0
C1846 C 0.66593 0.15276 0.09606 0.0
C1847 C 0.67848 0.138 0.1028 0.0
C1848 C 0.65738 0.15199 0.07301 0.0
C1849 C 0.64497 0.18361 0.10506 0.0
C1850 C 0.61808 0.15314 0.06643 0.0
C1851 C 0.60889 0.15132 0.0446 0.0
C1852 C 0.63891 0.1483 0.029 0.0
C1853 C 0.67836 0.14724 0.03561 0.0
C1854 C 0.68751 0.14895 0.05752 0.0
H1855 H 0.65078 0.19446 0.11828 0.0
H1856 H 0.66124 0.18554 0.09039 0.0
H1857 H 0.61287 0.18344 0.10146 0.0
H1858 H 0.59438 0.15513 0.0782 0.0
H1859 H 0.57825 0.15218 0.03997 0.0
H1860 H 0.42456 0.89377 0.78803 0.0
H1861 H 0.40912 0.89545 0.82621 0.0
H1862 H 0.28454 0.89491 0.81187 0.0
H1863 H 0.29969 0.89322 0.77341 0.0
H1864 H 0.35583 0.92247 0.85188 0.0
H1865 H 0.30817 0.85588 0.84831 0.0
H1866 H 0.34044 0.86161 0.82798 0.0
H1867 H 0.28954 0.86778 0.82886 0.0
C1868 C 0.39387 0.89395 0.79294 0.0
C1869 C 0.36331 0.89336 0.77778 0.0
C1870 C 0.38513 0.89494 0.81472 0.0
C1871 C 0.34578 0.89526 0.82168 0.0
C1872 C 0.31508 0.89458 0.80665 0.0
H1873 H 0.30304 0.89125 0.95874 0.0
H1874 H 0.28685 0.89317 0.92127 0.0
C1875 C 0.3238 0.89364 0.78478 0.0
C1876 C 0.33762 0.89651 0.84483 0.0
H1877 H 0.31932 0.87223 0.88266 0.0
C1878 C 0.347 0.91162 0.85867 0.0
C1879 C 0.32573 0.88235 0.85345 0.0
C1880 C 0.31537 0.86591 0.839 0.0
C1881 C 0.34718 0.91263 0.88107 0.0
C1882 C 0.33843 0.89807 0.88965 0.0
C1883 C 0.32616 0.88332 0.8759 0.0
C1884 C 0.34726 0.89726 0.91231 0.0
C1885 C 0.35838 0.92904 0.89533 0.0
C1886 C 0.38658 0.89863 0.91934 0.0
C1887 C 0.39591 0.89743 0.94051 0.0
C1888 C 0.36603 0.89482 0.95499 0.0
C1889 C 0.32661 0.89332 0.94789 0.0
C1890 C 0.3173 0.89443 0.92658 0.0
H1891 H 0.35222 0.93993 0.88731 0.0
H1892 H 0.3422 0.93082 0.91093 0.0
H1893 H 0.39051 0.92894 0.89879 0.0
H1894 H 0.41014 0.90048 0.90836 0.0
H1895 H 0.42654 0.89861 0.94551 0.0
H1896 H 0.57164 0.63823 0.53954 0.0
H1897 H 0.58687 0.63557 0.57659 0.0
H1898 H 0.71141 0.63896 0.56355 0.0
H1899 H 0.69643 0.64176 0.52625 0.0
H1900 H 0.63794 0.60984 0.58981 0.0
H1901 H 0.68857 0.67588 0.61839 0.0
H1902 H 0.65895 0.67017 0.59435 0.0
H1903 H 0.70985 0.66399 0.5941 0.0
C1904 C 0.60228 0.63849 0.54453 0.0
C1905 C 0.63286 0.64027 0.53006 0.0
C1906 C 0.61091 0.63691 0.56566 0.0
C1907 C 0.65019 0.63714 0.5727 0.0
C1908 C 0.6809 0.63891 0.55836 0.0
H1909 H 0.69524 0.64077 0.71109 0.0
H1910 H 0.71045 0.63775 0.67248 0.0
C1911 C 0.67228 0.64048 0.53713 0.0
C1912 C 0.65821 0.63554 0.5952 0.0
H1913 H 0.67907 0.65899 0.64456 0.0
C1914 C 0.64769 0.62046 0.60177 0.0
C1915 C 0.67132 0.64939 0.61059 0.0
C1916 C 0.68275 0.66584 0.60418 0.0
C1917 C 0.64765 0.6192 0.62363 0.0
C1918 C 0.65781 0.63346 0.63916 0.0
C1919 C 0.67115 0.64813 0.6325 0.0
C1920 C 0.64959 0.63417 0.66227 0.0
C1921 C 0.63525 0.60285 0.62999 0.0
C1922 C 0.61037 0.63331 0.66913 0.0
C1923 C 0.60158 0.63515 0.69103 0.0
C1924 C 0.63192 0.6379 0.70642 0.0
C1925 C 0.6713 0.63861 0.69952 0.0
C1926 C 0.68005 0.63688 0.67755 0.0
H1927 H 0.64045 0.59199 0.61667 0.0
H1928 H 0.65142 0.60066 0.64456 0.0
H1929 H 0.60317 0.60336 0.63371 0.0
H1930 H 0.58642 0.63157 0.65754 0.0
H1931 H 0.57098 0.63456 0.69588 0.0
H1932 H 0.30489 0.39741 0.27231 0.0
H1933 H 0.28814 0.40047 0.31074 0.0
H1934 H 0.41174 0.4059 0.32705 0.0
H1935 H 0.42872 0.40284 0.28891 0.0
H1936 H 0.31765 0.37903 0.33904 0.0
H1937 H 0.35747 0.44584 0.36728 0.0
H1938 H 0.34711 0.43723 0.3393 0.0
H1939 H 0.39495 0.43434 0.35053 0.0
C1940 C 0.32842 0.39939 0.28414 0.0
C1941 C 0.36811 0.39989 0.27769 0.0
C1942 C 0.31878 0.40116 0.306 0.0
C1943 C 0.34868 0.40369 0.32162 0.0
C1944 C 0.38824 0.4043 0.3152 0.0
H1945 H 0.42552 0.39807 0.44338 0.0
H1946 H 0.40986 0.40159 0.40669 0.0
C1947 C 0.3979 0.40242 0.29341 0.0
C1948 C 0.33954 0.40447 0.34462 0.0
H1949 H 0.35919 0.4279 0.39411 0.0
C1950 C 0.32559 0.38985 0.35117 0.0
C1951 C 0.34974 0.41867 0.36025 0.0
C1952 C 0.36278 0.43498 0.35399 0.0
C1953 C 0.325 0.38854 0.37305 0.0
C1954 C 0.33832 0.40229 0.38854 0.0
C1955 C 0.34928 0.41736 0.38209 0.0
C1956 C 0.34654 0.40048 0.41093 0.0
C1957 C 0.31307 0.3721 0.37934 0.0
C1958 C 0.31596 0.39875 0.42536 0.0
C1959 C 0.32482 0.39669 0.44638 0.0
C1960 C 0.36436 0.39636 0.45313 0.0
C1961 C 0.3948 0.39821 0.43861 0.0
C1962 C 0.38593 0.40029 0.4177 0.0
H1963 H 0.30671 0.36218 0.36508 0.0
H1964 H 0.33686 0.36754 0.38897 0.0
H1965 H 0.28618 0.37407 0.38958 0.0
H1966 H 0.28539 0.39901 0.42037 0.0
H1967 H 0.30079 0.39536 0.45731 0.0
loop_
_geom_bond_atom_site_label_1
_geom_bond_atom_site_label_2
_geom_bond_distance
_geom_bond_site_symmetry_2
_ccdc_geom_bond_type
Co0 N4 2.148 . S
Co0 N10 2.128 . S
Co0 N20 2.194 . S
Co0 O25 2.351 . S
Co0 O26 2.155 . S
Co0 O27 2.096 . S
C1 N4 1.301 . S
C1 N5 1.328 . S
C1 H6 0.930 . S
C2 C3 1.333 . S
C2 N4 1.317 . S
C2 H7 0.930 . S
C3 C2 1.333 . S
C3 N5 1.350 . S
C3 H29 0.931 . S
N4 Co0 2.148 . S
N4 C1 1.301 . S
N4 C2 1.317 . S
N5 C1 1.328 . S
N5 C3 1.350 . S
H6 C1 0.930 . S
H7 C2 0.930 . S
C8 O9 1.224 . S
C8 O27 1.247 . S
O9 C8 1.224 . S
N10 Co0 2.128 . S
N10 C11 1.355 . S
N10 C13 1.311 . S
C11 N10 1.355 . S
C11 C12 1.363 . S
C11 H23 0.929 . S
C12 C11 1.363 . S
C12 N14 1.375 . S
C12 H30 0.931 . S
C13 N10 1.311 . S
C13 N14 1.347 . S
C13 H24 0.929 . S
N14 C12 1.375 . S
N14 C13 1.347 . S
C15 C18 1.365 1_455 S
C15 N20 1.328 . S
C15 H21 0.929 . S
C16 C17 1.362 1_455 S
C16 C19 1.378 . S
C16 H31 0.929 . S
C17 C16 1.362 1_655 S
C17 C18 1.366 . S
C18 C15 1.365 1_655 S
C18 C17 1.366 . S
C18 H32 0.930 . S
C19 C16 1.378 . S
C19 N20 1.315 . S
C19 H22 0.930 . S
N20 Co0 2.194 . S
N20 C15 1.328 . S
N20 C19 1.315 . S
H21 C15 0.929 . S
H22 C19 0.930 . S
H23 C11 0.929 . S
H24 C13 0.929 . S
O25 Co0 2.351 . S
O25 C28 1.244 . S
O26 Co0 2.155 . S
O26 C28 1.240 . S
O27 Co0 2.096 . S
O27 C8 1.247 . S
C28 O25 1.244 . S
C28 O26 1.240 . S
H29 C3 0.931 . S
H30 C12 0.931 . S
H31 C16 0.929 . S
H32 C18 0.930 . S
Co33 N37 2.148 . S
Co33 N43 2.128 . S
Co33 N53 2.194 . S
Co33 O58 2.351 . S
Co33 O59 2.155 . S
Co33 O60 2.096 . S
C34 N37 1.301 . S
C34 N38 1.328 . S
C34 H39 0.930 . S
C35 C36 1.333 . S
C35 N37 1.317 . S
C35 H40 0.930 . S
C36 C35 1.333 . S
C36 N38 1.350 . S
C36 H62 0.931 . S
N37 Co33 2.148 . S
N37 C34 1.301 . S
N37 C35 1.317 . S
N38 C34 1.328 . S
N38 C36 1.350 . S
H39 C34 0.930 . S
H40 C35 0.930 . S
C41 O42 1.224 . S
C41 O60 1.247 . S
O42 C41 1.224 . S
N43 Co33 2.128 . S
N43 C44 1.355 . S
N43 C46 1.311 . S
C44 N43 1.355 . S
C44 C45 1.363 . S
C44 H56 0.929 . S
C45 C44 1.363 . S
C45 N47 1.375 . S
C45 H63 0.931 . S
C46 N43 1.311 . S
C46 N47 1.347 . S
C46 H57 0.929 . S
N47 C45 1.375 . S
N47 C46 1.347 . S
C48 C51 1.365 1_455 S
C48 N53 1.328 . S
C48 H54 0.929 . S
C49 C50 1.362 1_455 S
C49 C52 1.378 . S
C49 H64 0.929 . S
C50 C49 1.362 1_655 S
C50 C51 1.366 . S
C51 C48 1.365 1_655 S
C51 C50 1.366 . S
C51 H65 0.930 . S
C52 C49 1.378 . S
C52 N53 1.315 . S
C52 H55 0.930 . S
N53 Co33 2.194 . S
N53 C48 1.328 . S
N53 C52 1.315 . S
H54 C48 0.929 . S
H55 C52 0.930 . S
H56 C44 0.929 . S
H57 C46 0.929 . S
O58 Co33 2.351 . S
O58 C61 1.244 . S
O59 Co33 2.155 . S
O59 C61 1.240 . S
O60 Co33 2.096 . S
O60 C41 1.247 . S
C61 O58 1.244 . S
C61 O59 1.240 . S
H62 C36 0.931 . S
H63 C45 0.931 . S
H64 C49 0.929 . S
H65 C51 0.930 . S
Co66 N70 2.148 . S
Co66 N76 2.128 . S
Co66 N86 2.194 . S
Co66 O91 2.351 . S
Co66 O92 2.155 . S
Co66 O93 2.096 . S
C67 N70 1.301 . S
C67 N71 1.328 . S
C67 H72 0.930 . S
C68 C69 1.333 . S
C68 N70 1.317 . S
C68 H73 0.930 . S
C69 C68 1.333 . S
C69 N71 1.350 . S
C69 H95 0.931 . S
N70 Co66 2.148 . S
N70 C67 1.301 . S
N70 C68 1.317 . S
N71 C67 1.328 . S
N71 C69 1.350 . S
H72 C67 0.930 . S
H73 C68 0.930 . S
C74 O75 1.224 . S
C74 O93 1.247 . S
O75 C74 1.224 . S
N76 Co66 2.128 . S
N76 C77 1.355 . S
N76 C79 1.311 . S
C77 N76 1.355 . S
C77 C78 1.363 . S
C77 H89 0.929 . S
C78 C77 1.363 . S
C78 N80 1.375 . S
C78 H96 0.931 . S
C79 N76 1.311 . S
C79 N80 1.347 . S
C79 H90 0.929 . S
N80 C78 1.375 . S
N80 C79 1.347 . S
C81 C84 1.365 1_655 S
C81 N86 1.328 . S
C81 H87 0.929 . S
C82 C83 1.362 1_655 S
C82 C85 1.378 . S
C82 H97 0.929 . S
C83 C82 1.362 1_455 S
C83 C84 1.366 . S
C84 C81 1.365 1_455 S
C84 C83 1.366 . S
C84 H98 0.930 . S
C85 C82 1.378 . S
C85 N86 1.315 . S
C85 H88 0.930 . S
N86 Co66 2.194 . S
N86 C81 1.328 . S
N86 C85 1.315 . S
H87 C81 0.929 . S
H88 C85 0.930 . S
H89 C77 0.929 . S
H90 C79 0.929 . S
O91 Co66 2.351 . S
O91 C94 1.244 . S
O92 Co66 2.155 . S
O92 C94 1.240 . S
O93 Co66 2.096 . S
O93 C74 1.247 . S
C94 O91 1.244 . S
C94 O92 1.240 . S
H95 C69 0.931 . S
H96 C78 0.931 . S
H97 C82 0.929 . S
H98 C84 0.930 . S
Co99 N103 2.148 . S
Co99 N109 2.128 . S
Co99 N119 2.194 . S
Co99 O124 2.351 . S
Co99 O125 2.155 . S
Co99 O126 2.096 . S
C100 N103 1.301 . S
C100 N104 1.328 . S
C100 H105 0.930 . S
C101 C102 1.333 . S
C101 N103 1.317 . S
C101 H106 0.930 . S
C102 C101 1.333 . S
C102 N104 1.350 . S
C102 H128 0.931 . S
N103 Co99 2.148 . S
N103 C100 1.301 . S
N103 C101 1.317 . S
N104 C100 1.328 . S
N104 C102 1.350 . S
H105 C100 0.930 . S
H106 C101 0.930 . S
C107 O108 1.224 . S
C107 O126 1.247 . S
O108 C107 1.224 . S
N109 Co99 2.128 . S
N109 C110 1.355 . S
N109 C112 1.311 . S
C110 N109 1.355 . S
C110 C111 1.363 . S
C110 H122 0.929 . S
C111 C110 1.363 . S
C111 N113 1.375 . S
C111 H129 0.931 . S
C112 N109 1.311 . S
C112 N113 1.347 . S
C112 H123 0.929 . S
N113 C111 1.375 . S
N113 C112 1.347 . S
C114 C117 1.365 1_655 S
C114 N119 1.328 . S
C114 H120 0.929 . S
C115 C116 1.362 1_655 S
C115 C118 1.378 . S
C115 H130 0.929 . S
C116 C115 1.362 1_455 S
C116 C117 1.366 . S
C117 C114 1.365 1_455 S
C117 C116 1.366 . S
C117 H131 0.930 . S
C118 C115 1.378 . S
C118 N119 1.315 . S
C118 H121 0.930 . S
N119 Co99 2.194 . S
N119 C114 1.328 . S
N119 C118 1.315 . S
H120 C114 0.929 . S
H121 C118 0.930 . S
H122 C110 0.929 . S
H123 C112 0.929 . S
O124 Co99 2.351 . S
O124 C127 1.244 . S
O125 Co99 2.155 . S
O125 C127 1.240 . S
O126 Co99 2.096 . S
O126 C107 1.247 . S
C127 O124 1.244 . S
C127 O125 1.240 . S
H128 C102 0.931 . S
H129 C111 0.931 . S
H130 C115 0.929 . S
H131 C117 0.930 . S
Co132 N136 2.148 . S
Co132 N142 2.128 . S
Co132 N152 2.194 . S
Co132 O157 2.351 1_556 S
Co132 O158 2.155 1_556 S
Co132 O159 2.096 . S
C133 N136 1.301 . S
C133 N137 1.328 . S
C133 H138 0.930 . S
C134 C135 1.333 . S
C134 N136 1.317 . S
C134 H139 0.930 . S
C135 C134 1.333 . S
C135 N137 1.350 . S
C135 H161 0.931 . S
N136 Co132 2.148 . S
N136 C133 1.301 . S
N136 C134 1.317 . S
N137 C133 1.328 . S
N137 C135 1.350 . S
H138 C133 0.930 . S
H139 C134 0.930 . S
C140 O141 1.224 . S
C140 O159 1.247 . S
O141 C140 1.224 . S
N142 Co132 2.128 . S
N142 C143 1.355 . S
N142 C145 1.311 . S
C143 N142 1.355 . S
C143 C144 1.363 . S
C143 H155 0.929 . S
C144 C143 1.363 . S
C144 N146 1.375 . S
C144 H162 0.931 . S
C145 N142 1.311 . S
C145 N146 1.347 . S
C145 H156 0.929 . S
N146 C144 1.375 . S
N146 C145 1.347 . S
C147 C150 1.365 1_455 S
C147 N152 1.328 . S
C147 H153 0.929 . S
C148 C149 1.362 1_455 S
C148 C151 1.378 . S
C148 H163 0.929 . S
C149 C148 1.362 1_655 S
C149 C150 1.366 . S
C150 C147 1.365 1_655 S
C150 C149 1.366 . S
C150 H164 0.930 . S
C151 C148 1.378 . S
C151 N152 1.315 . S
C151 H154 0.930 . S
N152 Co132 2.194 . S
N152 C147 1.328 . S
N152 C151 1.315 . S
H153 C147 0.929 . S
H154 C151 0.930 . S
H155 C143 0.929 . S
H156 C145 0.929 . S
O157 Co132 2.351 1_554 S
O157 C160 1.244 . S
O158 Co132 2.155 1_554 S
O158 C160 1.240 . S
O159 Co132 2.096 . S
O159 C140 1.247 . S
C160 O157 1.244 . S
C160 O158 1.240 . S
H161 C135 0.931 . S
H162 C144 0.931 . S
H163 C148 0.929 . S
H164 C150 0.930 . S
Co165 N169 2.148 . S
Co165 N175 2.128 . S
Co165 N185 2.194 . S
Co165 O190 2.351 . S
Co165 O191 2.155 . S
Co165 O192 2.096 . S
C166 N169 1.301 . S
C166 N170 1.328 . S
C166 H171 0.930 . S
C167 C168 1.333 . S
C167 N169 1.317 . S
C167 H172 0.930 . S
C168 C167 1.333 . S
C168 N170 1.350 . S
C168 H194 0.931 . S
N169 Co165 2.148 . S
N169 C166 1.301 . S
N169 C167 1.317 . S
N170 C166 1.328 . S
N170 C168 1.350 . S
H171 C166 0.930 . S
H172 C167 0.930 . S
C173 O174 1.224 . S
C173 O192 1.247 . S
O174 C173 1.224 . S
N175 Co165 2.128 . S
N175 C176 1.355 . S
N175 C178 1.311 . S
C176 N175 1.355 . S
C176 C177 1.363 . S
C176 H188 0.929 . S
C177 C176 1.363 . S
C177 N179 1.375 . S
C177 H195 0.931 . S
C178 N175 1.311 . S
C178 N179 1.347 . S
C178 H189 0.929 . S
N179 C177 1.375 . S
N179 C178 1.347 . S
C180 C183 1.365 1_455 S
C180 N185 1.328 . S
C180 H186 0.929 . S
C181 C182 1.362 1_455 S
C181 C184 1.378 . S
C181 H196 0.929 . S
C182 C181 1.362 1_655 S
C182 C183 1.366 . S
C183 C180 1.365 1_655 S
C183 C182 1.366 . S
C183 H197 0.930 . S
C184 C181 1.378 . S
C184 N185 1.315 . S
C184 H187 0.930 . S
N185 Co165 2.194 . S
N185 C180 1.328 . S
N185 C184 1.315 . S
H186 C180 0.929 . S
H187 C184 0.930 . S
H188 C176 0.929 . S
H189 C178 0.929 . S
O190 Co165 2.351 . S
O190 C193 1.244 . S
O191 Co165 2.155 . S
O191 C193 1.240 . S
O192 Co165 2.096 . S
O192 C173 1.247 . S
C193 O190 1.244 . S
C193 O191 1.240 . S
H194 C168 0.931 . S
H195 C177 0.931 . S
H196 C181 0.929 . S
H197 C183 0.930 . S
Co198 N202 2.148 . S
Co198 N208 2.128 . S
Co198 N218 2.194 . S
Co198 O223 2.351 1_554 S
Co198 O224 2.155 1_554 S
Co198 O225 2.096 . S
C199 N202 1.301 . S
C199 N203 1.328 . S
C199 H204 0.930 . S
C200 C201 1.333 . S
C200 N202 1.317 . S
C200 H205 0.930 . S
C201 C200 1.333 . S
C201 N203 1.350 . S
C201 H227 0.931 . S
N202 Co198 2.148 . S
N202 C199 1.301 . S
N202 C200 1.317 . S
N203 C199 1.328 . S
N203 C201 1.350 . S
H204 C199 0.930 . S
H205 C200 0.930 . S
C206 O207 1.224 . S
C206 O225 1.247 . S
O207 C206 1.224 . S
N208 Co198 2.128 . S
N208 C209 1.355 . S
N208 C211 1.311 . S
C209 N208 1.355 . S
C209 C210 1.363 . S
C209 H221 0.929 . S
C210 C209 1.363 . S
C210 N212 1.375 . S
C210 H228 0.931 . S
C211 N208 1.311 . S
C211 N212 1.347 . S
C211 H222 0.929 . S
N212 C210 1.375 . S
N212 C211 1.347 . S
C213 C216 1.365 1_655 S
C213 N218 1.328 . S
C213 H219 0.929 . S
C214 C215 1.362 1_655 S
C214 C217 1.378 . S
C214 H229 0.929 . S
C215 C214 1.362 1_455 S
C215 C216 1.366 . S
C216 C213 1.365 1_455 S
C216 C215 1.366 . S
C216 H230 0.930 . S
C217 C214 1.378 . S
C217 N218 1.315 . S
C217 H220 0.930 . S
N218 Co198 2.194 . S
N218 C213 1.328 . S
N218 C217 1.315 . S
H219 C213 0.929 . S
H220 C217 0.930 . S
H221 C209 0.929 . S
H222 C211 0.929 . S
O223 Co198 2.351 1_556 S
O223 C226 1.244 . S
O224 Co198 2.155 1_556 S
O224 C226 1.240 . S
O225 Co198 2.096 . S
O225 C206 1.247 . S
C226 O223 1.244 . S
C226 O224 1.240 . S
H227 C201 0.931 . S
H228 C210 0.931 . S
H229 C214 0.929 . S
H230 C216 0.930 . S
Co231 N235 2.148 . S
Co231 N241 2.128 . S
Co231 N251 2.194 . S
Co231 O256 2.351 . S
Co231 O257 2.155 . S
Co231 O258 2.096 . S
C232 N235 1.301 . S
C232 N236 1.328 . S
C232 H237 0.930 . S
C233 C234 1.333 . S
C233 N235 1.317 . S
C233 H238 0.930 . S
C234 C233 1.333 . S
C234 N236 1.350 . S
C234 H260 0.931 . S
N235 Co231 2.148 . S
N235 C232 1.301 . S
N235 C233 1.317 . S
N236 C232 1.328 . S
N236 C234 1.350 . S
H237 C232 0.930 . S
H238 C233 0.930 . S
C239 O240 1.224 . S
C239 O258 1.247 . S
O240 C239 1.224 . S
N241 Co231 2.128 . S
N241 C242 1.355 . S
N241 C244 1.311 . S
C242 N241 1.355 . S
C242 C243 1.363 . S
C242 H254 0.929 . S
C243 C242 1.363 . S
C243 N245 1.375 . S
C243 H261 0.931 . S
C244 N241 1.311 . S
C244 N245 1.347 . S
C244 H255 0.929 . S
N245 C243 1.375 . S
N245 C244 1.347 . S
C246 C249 1.365 1_655 S
C246 N251 1.328 . S
C246 H252 0.929 . S
C247 C248 1.362 1_655 S
C247 C250 1.378 . S
C247 H262 0.929 . S
C248 C247 1.362 1_455 S
C248 C249 1.366 . S
C249 C246 1.365 1_455 S
C249 C248 1.366 . S
C249 H263 0.930 . S
C250 C247 1.378 . S
C250 N251 1.315 . S
C250 H253 0.930 . S
N251 Co231 2.194 . S
N251 C246 1.328 . S
N251 C250 1.315 . S
H252 C246 0.929 . S
H253 C250 0.930 . S
H254 C242 0.929 . S
H255 C244 0.929 . S
O256 Co231 2.351 . S
O256 C259 1.244 . S
O257 Co231 2.155 . S
O257 C259 1.240 . S
O258 Co231 2.096 . S
O258 C239 1.247 . S
C259 O256 1.244 . S
C259 O257 1.240 . S
H260 C234 0.931 . S
H261 C243 0.931 . S
H262 C247 0.929 . S
H263 C249 0.930 . S
Co264 N268 2.148 . S
Co264 N274 2.128 . S
Co264 N284 2.194 . S
Co264 O289 2.351 1_556 S
Co264 O290 2.155 1_556 S
Co264 O291 2.096 . S
C265 N268 1.301 . S
C265 N269 1.328 . S
C265 H270 0.930 . S
C266 C267 1.333 . S
C266 N268 1.317 . S
C266 H271 0.930 . S
C267 C266 1.333 . S
C267 N269 1.350 . S
C267 H293 0.931 . S
N268 Co264 2.148 . S
N268 C265 1.301 . S
N268 C266 1.317 . S
N269 C265 1.328 . S
N269 C267 1.350 . S
H270 C265 0.930 . S
H271 C266 0.930 . S
C272 O273 1.224 . S
C272 O291 1.247 . S
O273 C272 1.224 . S
N274 Co264 2.128 . S
N274 C275 1.355 . S
N274 C277 1.311 . S
C275 N274 1.355 . S
C275 C276 1.363 . S
C275 H287 0.929 . S
C276 C275 1.363 . S
C276 N278 1.375 . S
C276 H294 0.931 . S
C277 N274 1.311 . S
C277 N278 1.347 . S
C277 H288 0.929 . S
N278 C276 1.375 . S
N278 C277 1.347 . S
C279 C282 1.365 . S
C279 N284 1.328 . S
C279 H285 0.929 . S
C280 C281 1.362 . S
C280 C283 1.378 . S
C280 H295 0.929 . S
C281 C280 1.362 . S
C281 C282 1.366 . S
C282 C279 1.365 . S
C282 C281 1.366 . S
C282 H296 0.930 . S
C283 C280 1.378 . S
C283 N284 1.315 . S
C283 H286 0.930 . S
N284 Co264 2.194 . S
N284 C279 1.328 . S
N284 C283 1.315 . S
H285 C279 0.929 . S
H286 C283 0.930 . S
H287 C275 0.929 . S
H288 C277 0.929 . S
O289 Co264 2.351 1_554 S
O289 C292 1.244 . S
O290 Co264 2.155 1_554 S
O290 C292 1.240 . S
O291 Co264 2.096 . S
O291 C272 1.247 . S
C292 O289 1.244 . S
C292 O290 1.240 . S
H293 C267 0.931 . S
H294 C276 0.931 . S
H295 C280 0.929 . S
H296 C282 0.930 . S
Co297 N301 2.148 . S
Co297 N307 2.128 . S
Co297 N317 2.194 . S
Co297 O322 2.351 . S
Co297 O323 2.155 . S
Co297 O324 2.096 . S
C298 N301 1.301 . S
C298 N302 1.328 . S
C298 H303 0.930 . S
C299 C300 1.333 . S
C299 N301 1.317 . S
C299 H304 0.930 . S
C300 C299 1.333 . S
C300 N302 1.350 . S
C300 H326 0.931 . S
N301 Co297 2.148 . S
N301 C298 1.301 . S
N301 C299 1.317 . S
N302 C298 1.328 . S
N302 C300 1.350 . S
H303 C298 0.930 . S
H304 C299 0.930 . S
C305 O306 1.224 . S
C305 O324 1.247 . S
O306 C305 1.224 . S
N307 Co297 2.128 . S
N307 C308 1.355 . S
N307 C310 1.311 . S
C308 N307 1.355 . S
C308 C309 1.363 . S
C308 H320 0.929 . S
C309 C308 1.363 . S
C309 N311 1.375 . S
C309 H327 0.931 . S
C310 N307 1.311 . S
C310 N311 1.347 . S
C310 H321 0.929 . S
N311 C309 1.375 . S
N311 C310 1.347 . S
C312 C315 1.365 . S
C312 N317 1.328 . S
C312 H318 0.929 . S
C313 C314 1.362 . S
C313 C316 1.378 . S
C313 H328 0.929 . S
C314 C313 1.362 . S
C314 C315 1.366 . S
C315 C312 1.365 . S
C315 C314 1.366 . S
C315 H329 0.930 . S
C316 C313 1.378 . S
C316 N317 1.315 . S
C316 H319 0.930 . S
N317 Co297 2.194 . S
N317 C312 1.328 . S
N317 C316 1.315 . S
H318 C312 0.929 . S
H319 C316 0.930 . S
H320 C308 0.929 . S
H321 C310 0.929 . S
O322 Co297 2.351 . S
O322 C325 1.244 . S
O323 Co297 2.155 . S
O323 C325 1.240 . S
O324 Co297 2.096 . S
O324 C305 1.247 . S
C325 O322 1.244 . S
C325 O323 1.240 . S
H326 C300 0.931 . S
H327 C309 0.931 . S
H328 C313 0.929 . S
H329 C315 0.930 . S
Co330 N334 2.148 . S
Co330 N340 2.128 . S
Co330 N350 2.194 . S
Co330 O355 2.351 1_554 S
Co330 O356 2.155 1_554 S
Co330 O357 2.096 . S
C331 N334 1.301 . S
C331 N335 1.328 . S
C331 H336 0.930 . S
C332 C333 1.333 . S
C332 N334 1.317 . S
C332 H337 0.930 . S
C333 C332 1.333 . S
C333 N335 1.350 . S
C333 H359 0.931 . S
N334 Co330 2.148 . S
N334 C331 1.301 . S
N334 C332 1.317 . S
N335 C331 1.328 . S
N335 C333 1.350 . S
H336 C331 0.930 . S
H337 C332 0.930 . S
C338 O339 1.224 . S
C338 O357 1.247 . S
O339 C338 1.224 . S
N340 Co330 2.128 . S
N340 C341 1.355 . S
N340 C343 1.311 . S
C341 N340 1.355 . S
C341 C342 1.363 . S
C341 H353 0.929 . S
C342 C341 1.363 . S
C342 N344 1.375 . S
C342 H360 0.931 . S
C343 N340 1.311 . S
C343 N344 1.347 . S
C343 H354 0.929 . S
N344 C342 1.375 . S
N344 C343 1.347 . S
C345 C348 1.365 . S
C345 N350 1.328 . S
C345 H351 0.929 . S
C346 C347 1.362 . S
C346 C349 1.378 . S
C346 H361 0.929 . S
C347 C346 1.362 . S
C347 C348 1.366 . S
C348 C345 1.365 . S
C348 C347 1.366 . S
C348 H362 0.930 . S
C349 C346 1.378 . S
C349 N350 1.315 . S
C349 H352 0.930 . S
N350 Co330 2.194 . S
N350 C345 1.328 . S
N350 C349 1.315 . S
H351 C345 0.929 . S
H352 C349 0.930 . S
H353 C341 0.929 . S
H354 C343 0.929 . S
O355 Co330 2.351 1_556 S
O355 C358 1.244 . S
O356 Co330 2.155 1_556 S
O356 C358 1.240 . S
O357 Co330 2.096 . S
O357 C338 1.247 . S
C358 O355 1.244 . S
C358 O356 1.240 . S
H359 C333 0.931 . S
H360 C342 0.931 . S
H361 C346 0.929 . S
H362 C348 0.930 . S
Co363 N367 2.148 . S
Co363 N373 2.128 . S
Co363 N383 2.194 . S
Co363 O388 2.351 . S
Co363 O389 2.155 . S
Co363 O390 2.096 . S
C364 N367 1.301 . S
C364 N368 1.328 . S
C364 H369 0.930 . S
C365 C366 1.333 . S
C365 N367 1.317 . S
C365 H370 0.930 . S
C366 C365 1.333 . S
C366 N368 1.350 . S
C366 H392 0.931 . S
N367 Co363 2.148 . S
N367 C364 1.301 . S
N367 C365 1.317 . S
N368 C364 1.328 . S
N368 C366 1.350 . S
H369 C364 0.930 . S
H370 C365 0.930 . S
C371 O372 1.224 . S
C371 O390 1.247 . S
O372 C371 1.224 . S
N373 Co363 2.128 . S
N373 C374 1.355 . S
N373 C376 1.311 . S
C374 N373 1.355 . S
C374 C375 1.363 . S
C374 H386 0.929 . S
C375 C374 1.363 . S
C375 N377 1.375 . S
C375 H393 0.931 . S
C376 N373 1.311 . S
C376 N377 1.347 . S
C376 H387 0.929 . S
N377 C375 1.375 . S
N377 C376 1.347 . S
C378 C381 1.365 . S
C378 N383 1.328 . S
C378 H384 0.929 . S
C379 C380 1.362 . S
C379 C382 1.378 . S
C379 H394 0.929 . S
C380 C379 1.362 . S
C380 C381 1.366 . S
C381 C378 1.365 . S
C381 C380 1.366 . S
C381 H395 0.930 . S
C382 C379 1.378 . S
C382 N383 1.315 . S
C382 H385 0.930 . S
N383 Co363 2.194 . S
N383 C378 1.328 . S
N383 C382 1.315 . S
H384 C378 0.929 . S
H385 C382 0.930 . S
H386 C374 0.929 . S
H387 C376 0.929 . S
O388 Co363 2.351 . S
O388 C391 1.244 . S
O389 Co363 2.155 . S
O389 C391 1.240 . S
O390 Co363 2.096 . S
O390 C371 1.247 . S
C391 O388 1.244 . S
C391 O389 1.240 . S
H392 C366 0.931 . S
H393 C375 0.931 . S
H394 C379 0.929 . S
H395 C381 0.930 . S
Co396 N400 2.148 . S
Co396 N406 2.128 . S
Co396 N416 2.194 . S
Co396 O421 2.351 . S
Co396 O422 2.155 . S
Co396 O423 2.096 . S
C397 N400 1.301 . S
C397 N401 1.328 . S
C397 H402 0.930 . S
C398 C399 1.333 . S
C398 N400 1.317 . S
C398 H403 0.930 . S
C399 C398 1.333 . S
C399 N401 1.350 . S
C399 H425 0.931 . S
N400 Co396 2.148 . S
N400 C397 1.301 . S
N400 C398 1.317 . S
N401 C397 1.328 . S
N401 C399 1.350 . S
H402 C397 0.930 . S
H403 C398 0.930 . S
C404 O405 1.224 . S
C404 O423 1.247 . S
O405 C404 1.224 . S
N406 Co396 2.128 . S
N406 C407 1.355 . S
N406 C409 1.311 . S
C407 N406 1.355 . S
C407 C408 1.363 . S
C407 H419 0.929 . S
C408 C407 1.363 . S
C408 N410 1.375 . S
C408 H426 0.931 . S
C409 N406 1.311 . S
C409 N410 1.347 . S
C409 H420 0.929 . S
N410 C408 1.375 . S
N410 C409 1.347 . S
C411 C414 1.365 . S
C411 N416 1.328 . S
C411 H417 0.929 . S
C412 C413 1.362 . S
C412 C415 1.378 . S
C412 H427 0.929 . S
C413 C412 1.362 . S
C413 C414 1.366 . S
C414 C411 1.365 . S
C414 C413 1.366 . S
C414 H428 0.930 . S
C415 C412 1.378 . S
C415 N416 1.315 . S
C415 H418 0.930 . S
N416 Co396 2.194 . S
N416 C411 1.328 . S
N416 C415 1.315 . S
H417 C411 0.929 . S
H418 C415 0.930 . S
H419 C407 0.929 . S
H420 C409 0.929 . S
O421 Co396 2.351 . S
O421 C424 1.244 . S
O422 Co396 2.155 . S
O422 C424 1.240 . S
O423 Co396 2.096 . S
O423 C404 1.247 . S
C424 O421 1.244 . S
C424 O422 1.240 . S
H425 C399 0.931 . S
H426 C408 0.931 . S
H427 C412 0.929 . S
H428 C414 0.930 . S
Co429 N433 2.148 . S
Co429 N439 2.128 . S
Co429 N449 2.194 . S
Co429 O454 2.351 . S
Co429 O455 2.155 . S
Co429 O456 2.096 . S
C430 N433 1.301 . S
C430 N434 1.328 . S
C430 H435 0.930 . S
C431 C432 1.333 . S
C431 N433 1.317 . S
C431 H436 0.930 . S
C432 C431 1.333 . S
C432 N434 1.350 . S
C432 H458 0.931 . S
N433 Co429 2.148 . S
N433 C430 1.301 . S
N433 C431 1.317 . S
N434 C430 1.328 . S
N434 C432 1.350 . S
H435 C430 0.930 . S
H436 C431 0.930 . S
C437 O438 1.224 . S
C437 O456 1.247 . S
O438 C437 1.224 . S
N439 Co429 2.128 . S
N439 C440 1.355 . S
N439 C442 1.311 . S
C440 N439 1.355 . S
C440 C441 1.363 . S
C440 H452 0.929 . S
C441 C440 1.363 . S
C441 N443 1.375 . S
C441 H459 0.931 . S
C442 N439 1.311 . S
C442 N443 1.347 . S
C442 H453 0.929 . S
N443 C441 1.375 . S
N443 C442 1.347 . S
C444 C447 1.365 . S
C444 N449 1.328 . S
C444 H450 0.929 . S
C445 C446 1.362 . S
C445 C448 1.378 . S
C445 H460 0.929 . S
C446 C445 1.362 . S
C446 C447 1.366 . S
C447 C444 1.365 . S
C447 C446 1.366 . S
C447 H461 0.930 . S
C448 C445 1.378 . S
C448 N449 1.315 . S
C448 H451 0.930 . S
N449 Co429 2.194 . S
N449 C444 1.328 . S
N449 C448 1.315 . S
H450 C444 0.929 . S
H451 C448 0.930 . S
H452 C440 0.929 . S
H453 C442 0.929 . S
O454 Co429 2.351 . S
O454 C457 1.244 . S
O455 Co429 2.155 . S
O455 C457 1.240 . S
O456 Co429 2.096 . S
O456 C437 1.247 . S
C457 O454 1.244 . S
C457 O455 1.240 . S
H458 C432 0.931 . S
H459 C441 0.931 . S
H460 C445 0.929 . S
H461 C447 0.930 . S
Co462 N466 2.148 . S
Co462 N472 2.128 . S
Co462 N482 2.194 . S
Co462 O487 2.351 . S
Co462 O488 2.155 . S
Co462 O489 2.096 . S
C463 N466 1.301 . S
C463 N467 1.328 . S
C463 H468 0.930 . S
C464 C465 1.333 . S
C464 N466 1.317 . S
C464 H469 0.930 . S
C465 C464 1.333 . S
C465 N467 1.350 . S
C465 H491 0.931 . S
N466 Co462 2.148 . S
N466 C463 1.301 . S
N466 C464 1.317 . S
N467 C463 1.328 . S
N467 C465 1.350 . S
H468 C463 0.930 . S
H469 C464 0.930 . S
C470 O471 1.224 . S
C470 O489 1.247 . S
O471 C470 1.224 . S
N472 Co462 2.128 . S
N472 C473 1.355 . S
N472 C475 1.311 . S
C473 N472 1.355 . S
C473 C474 1.363 . S
C473 H485 0.929 . S
C474 C473 1.363 . S
C474 N476 1.375 . S
C474 H492 0.931 . S
C475 N472 1.311 . S
C475 N476 1.347 . S
C475 H486 0.929 . S
N476 C474 1.375 . S
N476 C475 1.347 . S
C477 C480 1.365 . S
C477 N482 1.328 . S
C477 H483 0.929 . S
C478 C479 1.362 . S
C478 C481 1.378 . S
C478 H493 0.929 . S
C479 C478 1.362 . S
C479 C480 1.366 . S
C480 C477 1.365 . S
C480 C479 1.366 . S
C480 H494 0.930 . S
C481 C478 1.378 . S
C481 N482 1.315 . S
C481 H484 0.930 . S
N482 Co462 2.194 . S
N482 C477 1.328 . S
N482 C481 1.315 . S
H483 C477 0.929 . S
H484 C481 0.930 . S
H485 C473 0.929 . S
H486 C475 0.929 . S
O487 Co462 2.351 . S
O487 C490 1.244 . S
O488 Co462 2.155 . S
O488 C490 1.240 . S
O489 Co462 2.096 . S
O489 C470 1.247 . S
C490 O487 1.244 . S
C490 O488 1.240 . S
H491 C465 0.931 . S
H492 C474 0.931 . S
H493 C478 0.929 . S
H494 C480 0.930 . S
Co495 N499 2.148 . S
Co495 N505 2.128 . S
Co495 N515 2.194 . S
Co495 O520 2.351 . S
Co495 O521 2.155 . S
Co495 O522 2.096 . S
C496 N499 1.301 . S
C496 N500 1.328 . S
C496 H501 0.930 . S
C497 C498 1.333 . S
C497 N499 1.317 . S
C497 H502 0.930 . S
C498 C497 1.333 . S
C498 N500 1.350 . S
C498 H524 0.931 . S
N499 Co495 2.148 . S
N499 C496 1.301 . S
N499 C497 1.317 . S
N500 C496 1.328 . S
N500 C498 1.350 . S
H501 C496 0.930 . S
H502 C497 0.930 . S
C503 O504 1.224 . S
C503 O522 1.247 . S
O504 C503 1.224 . S
N505 Co495 2.128 . S
N505 C506 1.355 . S
N505 C508 1.311 . S
C506 N505 1.355 . S
C506 C507 1.363 . S
C506 H518 0.929 . S
C507 C506 1.363 . S
C507 N509 1.375 . S
C507 H525 0.931 . S
C508 N505 1.311 . S
C508 N509 1.347 . S
C508 H519 0.929 . S
N509 C507 1.375 . S
N509 C508 1.347 . S
C510 C513 1.365 . S
C510 N515 1.328 . S
C510 H516 0.929 . S
C511 C512 1.362 . S
C511 C514 1.378 . S
C511 H526 0.929 . S
C512 C511 1.362 . S
C512 C513 1.366 . S
C513 C510 1.365 . S
C513 C512 1.366 . S
C513 H527 0.930 . S
C514 C511 1.378 . S
C514 N515 1.315 . S
C514 H517 0.930 . S
N515 Co495 2.194 . S
N515 C510 1.328 . S
N515 C514 1.315 . S
H516 C510 0.929 . S
H517 C514 0.930 . S
H518 C506 0.929 . S
H519 C508 0.929 . S
O520 Co495 2.351 . S
O520 C523 1.244 . S
O521 Co495 2.155 . S
O521 C523 1.240 . S
O522 Co495 2.096 . S
O522 C503 1.247 . S
C523 O520 1.244 . S
C523 O521 1.240 . S
H524 C498 0.931 . S
H525 C507 0.931 . S
H526 C511 0.929 . S
H527 C513 0.930 . S
H528 C536 0.929 . S
H529 C538 0.930 . S
H530 C540 0.930 . S
H531 C543 0.929 . S
H532 C546 0.930 . S
H533 C548 0.960 . S
H534 C548 0.960 . S
H535 C548 0.960 . S
C536 H528 0.929 . S
C536 C537 1.377 . S
C536 C538 1.384 . S
C537 C536 1.377 . S
C537 C543 1.390 . S
C538 H529 0.930 . S
C538 C536 1.384 . S
C538 C539 1.372 . S
C539 C538 1.372 . S
C539 C540 1.400 . S
C539 C544 1.490 . S
C540 H530 0.930 . S
C540 C539 1.400 . S
C540 C543 1.386 . S
H541 C557 0.930 . S
H542 C558 0.931 . S
C543 H531 0.929 . S
C543 C537 1.390 . S
C543 C540 1.386 . S
C544 C539 1.490 . S
C544 C546 1.395 . S
C544 C547 1.403 . S
H545 C551 0.930 . S
C546 H532 0.930 . S
C546 C544 1.395 . S
C546 C549 1.403 . S
C547 C544 1.403 . S
C547 C548 1.524 . S
C547 C551 1.400 . S
C548 H533 0.960 . S
C548 H534 0.960 . S
C548 H535 0.960 . S
C548 C547 1.524 . S
C549 C546 1.403 . S
C549 C550 1.392 . S
C549 C553 1.495 . S
C550 C549 1.392 . S
C550 C551 1.385 . S
C550 C552 1.478 . S
C551 H545 0.930 . S
C551 C547 1.400 . S
C551 C550 1.385 . S
C552 C550 1.478 . S
C552 C554 1.381 . S
C552 C558 1.383 . S
C553 C549 1.495 . S
C553 H559 0.959 . S
C553 H560 0.961 . S
C553 H561 0.960 . S
C554 C552 1.381 . S
C554 C555 1.394 . S
C554 H562 0.930 . S
C555 C554 1.394 . S
C555 C556 1.383 . S
C555 H563 0.929 . S
C556 C555 1.383 . S
C556 C557 1.377 . S
C557 H541 0.930 . S
C557 C556 1.377 . S
C557 C558 1.379 . S
C558 H542 0.931 . S
C558 C552 1.383 . S
C558 C557 1.379 . S
H559 C553 0.959 . S
H560 C553 0.961 . S
H561 C553 0.960 . S
H562 C554 0.930 . S
H563 C555 0.929 . S
H564 C572 0.929 . S
H565 C574 0.930 . S
H566 C576 0.930 . S
H567 C579 0.929 . S
H568 C582 0.930 . S
H569 C584 0.960 . S
H570 C584 0.960 . S
H571 C584 0.960 . S
C572 H564 0.929 . S
C572 C573 1.377 . S
C572 C574 1.384 . S
C573 C572 1.377 . S
C573 C579 1.390 . S
C574 H565 0.930 . S
C574 C572 1.384 . S
C574 C575 1.372 . S
C575 C574 1.372 . S
C575 C576 1.400 . S
C575 C580 1.490 . S
C576 H566 0.930 . S
C576 C575 1.400 . S
C576 C579 1.386 . S
H577 C593 0.930 . S
H578 C594 0.931 . S
C579 H567 0.929 . S
C579 C573 1.390 . S
C579 C576 1.386 . S
C580 C575 1.490 . S
C580 C582 1.395 . S
C580 C583 1.403 1_655 S
H581 C587 0.930 . S
C582 H568 0.930 . S
C582 C580 1.395 . S
C582 C585 1.403 1_565 S
C583 C580 1.403 1_455 S
C583 C584 1.524 . S
C583 C587 1.400 1_565 S
C584 H569 0.960 . S
C584 H570 0.960 . S
C584 H571 0.960 . S
C584 C583 1.524 . S
C585 C582 1.403 1_545 S
C585 C586 1.392 1_655 S
C585 C589 1.495 . S
C586 C585 1.392 1_455 S
C586 C587 1.385 . S
C586 C588 1.478 . S
C587 H581 0.930 . S
C587 C583 1.400 1_545 S
C587 C586 1.385 . S
C588 C586 1.478 . S
C588 C590 1.381 . S
C588 C594 1.383 . S
C589 C585 1.495 . S
C589 H595 0.959 . S
C589 H596 0.961 . S
C589 H597 0.960 . S
C590 C588 1.381 . S
C590 C591 1.394 . S
C590 H598 0.930 . S
C591 C590 1.394 . S
C591 C592 1.383 . S
C591 H599 0.929 . S
C592 C591 1.383 . S
C592 C593 1.377 . S
C593 H577 0.930 . S
C593 C592 1.377 . S
C593 C594 1.379 . S
C594 H578 0.931 . S
C594 C588 1.383 . S
C594 C593 1.379 . S
H595 C589 0.959 . S
H596 C589 0.961 . S
H597 C589 0.960 . S
H598 C590 0.930 . S
H599 C591 0.929 . S
H600 C608 0.929 . S
H601 C610 0.930 . S
H602 C612 0.930 . S
H603 C615 0.929 . S
H604 C618 0.930 . S
H605 C620 0.960 . S
H606 C620 0.960 . S
H607 C620 0.960 . S
C608 H600 0.929 . S
C608 C609 1.377 . S
C608 C610 1.384 . S
C609 C608 1.377 . S
C609 C615 1.390 . S
C610 H601 0.930 . S
C610 C608 1.384 . S
C610 C611 1.372 . S
C611 C610 1.372 . S
C611 C612 1.400 . S
C611 C616 1.490 . S
C612 H602 0.930 . S
C612 C611 1.400 . S
C612 C615 1.386 . S
H613 C629 0.930 . S
H614 C630 0.931 . S
C615 H603 0.929 . S
C615 C609 1.390 . S
C615 C612 1.386 . S
C616 C611 1.490 . S
C616 C618 1.395 . S
C616 C619 1.403 . S
H617 C623 0.930 . S
C618 H604 0.930 . S
C618 C616 1.395 . S
C618 C621 1.403 1_545 S
C619 C616 1.403 . S
C619 C620 1.524 . S
C619 C623 1.400 1_545 S
C620 H605 0.960 . S
C620 H606 0.960 . S
C620 H607 0.960 . S
C620 C619 1.524 . S
C621 C618 1.403 1_565 S
C621 C622 1.392 . S
C621 C625 1.495 . S
C622 C621 1.392 . S
C622 C623 1.385 . S
C622 C624 1.478 . S
C623 H617 0.930 . S
C623 C619 1.400 1_565 S
C623 C622 1.385 . S
C624 C622 1.478 . S
C624 C626 1.381 . S
C624 C630 1.383 . S
C625 C621 1.495 . S
C625 H631 0.959 . S
C625 H632 0.961 . S
C625 H633 0.960 . S
C626 C624 1.381 . S
C626 C627 1.394 . S
C626 H634 0.930 . S
C627 C626 1.394 . S
C627 C628 1.383 . S
C627 H635 0.929 . S
C628 C627 1.383 . S
C628 C629 1.377 . S
C629 H613 0.930 . S
C629 C628 1.377 . S
C629 C630 1.379 . S
C630 H614 0.931 . S
C630 C624 1.383 . S
C630 C629 1.379 . S
H631 C625 0.959 . S
H632 C625 0.961 . S
H633 C625 0.960 . S
H634 C626 0.930 . S
H635 C627 0.929 . S
H636 C644 0.929 . S
H637 C646 0.930 1_455 S
H638 C648 0.930 . S
H639 C651 0.929 . S
H640 C654 0.930 . S
H641 C656 0.960 1_455 S
H642 C656 0.960 1_455 S
H643 C656 0.960 . S
C644 H636 0.929 . S
C644 C645 1.377 . S
C644 C646 1.384 . S
C645 C644 1.377 . S
C645 C651 1.390 . S
C646 H637 0.930 1_655 S
C646 C644 1.384 . S
C646 C647 1.372 . S
C647 C646 1.372 . S
C647 C648 1.400 . S
C647 C652 1.490 . S
C648 H638 0.930 . S
C648 C647 1.400 . S
C648 C651 1.386 . S
H649 C665 0.930 . S
H650 C666 0.931 1_655 S
C651 H639 0.929 . S
C651 C645 1.390 . S
C651 C648 1.386 . S
C652 C647 1.490 . S
C652 C654 1.395 . S
C652 C655 1.403 . S
H653 C659 0.930 . S
C654 H640 0.930 . S
C654 C652 1.395 . S
C654 C657 1.403 1_655 S
C655 C652 1.403 . S
C655 C656 1.524 . S
C655 C659 1.400 1_655 S
C656 H641 0.960 1_655 S
C656 H642 0.960 1_655 S
C656 H643 0.960 . S
C656 C655 1.524 . S
C657 C654 1.403 1_455 S
C657 C658 1.392 . S
C657 C661 1.495 . S
C658 C657 1.392 . S
C658 C659 1.385 . S
C658 C660 1.478 . S
C659 H653 0.930 . S
C659 C655 1.400 1_455 S
C659 C658 1.385 . S
C660 C658 1.478 . S
C660 C662 1.381 . S
C660 C666 1.383 . S
C661 C657 1.495 . S
C661 H667 0.960 . S
C661 H668 0.961 1_455 S
C661 H669 0.960 . S
C662 C660 1.381 . S
C662 C663 1.394 . S
C662 H670 0.930 . S
C663 C662 1.394 . S
C663 C664 1.383 . S
C663 H671 0.929 . S
C664 C663 1.383 . S
C664 C665 1.377 . S
C665 H649 0.930 . S
C665 C664 1.377 . S
C665 C666 1.379 . S
C666 H650 0.931 1_455 S
C666 C660 1.383 . S
C666 C665 1.379 . S
H667 C661 0.960 . S
H668 C661 0.961 1_655 S
H669 C661 0.960 . S
H670 C662 0.930 . S
H671 C663 0.929 . S
H672 C680 0.929 . S
H673 C682 0.930 . S
H674 C684 0.930 . S
H675 C687 0.929 . S
H676 C690 0.930 . S
H677 C692 0.960 . S
H678 C692 0.960 . S
H679 C692 0.960 . S
C680 H672 0.929 . S
C680 C681 1.377 . S
C680 C682 1.384 . S
C681 C680 1.377 . S
C681 C687 1.390 . S
C682 H673 0.930 . S
C682 C680 1.384 . S
C682 C683 1.372 . S
C683 C682 1.372 . S
C683 C684 1.400 . S
C683 C688 1.490 . S
C684 H674 0.930 . S
C684 C683 1.400 . S
C684 C687 1.386 . S
H685 C701 0.930 . S
H686 C702 0.931 . S
C687 H675 0.929 . S
C687 C681 1.390 . S
C687 C684 1.386 . S
C688 C683 1.490 . S
C688 C690 1.395 . S
C688 C691 1.403 . S
H689 C695 0.930 . S
C690 H676 0.930 . S
C690 C688 1.395 . S
C690 C693 1.403 . S
C691 C688 1.403 . S
C691 C692 1.524 . S
C691 C695 1.400 . S
C692 H677 0.960 . S
C692 H678 0.960 . S
C692 H679 0.960 . S
C692 C691 1.524 . S
C693 C690 1.403 . S
C693 C694 1.392 . S
C693 C697 1.495 . S
C694 C693 1.392 . S
C694 C695 1.385 . S
C694 C696 1.478 . S
C695 H689 0.930 . S
C695 C691 1.400 . S
C695 C694 1.385 . S
C696 C694 1.478 . S
C696 C698 1.381 . S
C696 C702 1.383 . S
C697 C693 1.495 . S
C697 H703 0.959 . S
C697 H704 0.961 . S
C697 H705 0.960 . S
C698 C696 1.381 . S
C698 C699 1.394 . S
C698 H706 0.930 . S
C699 C698 1.394 . S
C699 C700 1.383 . S
C699 H707 0.929 . S
C700 C699 1.383 . S
C700 C701 1.377 . S
C701 H685 0.930 . S
C701 C700 1.377 . S
C701 C702 1.379 . S
C702 H686 0.931 . S
C702 C696 1.383 . S
C702 C701 1.379 . S
H703 C697 0.959 . S
H704 C697 0.961 . S
H705 C697 0.960 . S
H706 C698 0.930 . S
H707 C699 0.929 . S
H708 C716 0.929 . S
H709 C718 0.930 . S
H710 C720 0.930 . S
H711 C723 0.929 . S
H712 C726 0.930 . S
H713 C728 0.960 . S
H714 C728 0.960 1_565 S
H715 C728 0.960 1_565 S
C716 H708 0.929 . S
C716 C717 1.377 . S
C716 C718 1.384 . S
C717 C716 1.377 . S
C717 C723 1.390 . S
C718 H709 0.930 . S
C718 C716 1.384 . S
C718 C719 1.372 . S
C719 C718 1.372 . S
C719 C720 1.400 . S
C719 C724 1.490 . S
C720 H710 0.930 . S
C720 C719 1.400 . S
C720 C723 1.386 . S
H721 C737 0.930 . S
H722 C738 0.931 . S
C723 H711 0.929 . S
C723 C717 1.390 . S
C723 C720 1.386 . S
C724 C719 1.490 . S
C724 C726 1.395 . S
C724 C727 1.369 1_565 S
H725 C731 0.930 . S
C726 H712 0.930 . S
C726 C724 1.395 . S
C726 C729 1.403 . S
C727 C724 1.369 1_545 S
C727 C728 1.531 . S
C727 C731 1.428 . S
C728 H713 0.960 . S
C728 H714 0.960 1_545 S
C728 H715 0.960 1_545 S
C728 C727 1.531 . S
C729 C726 1.403 . S
C729 C730 1.392 1_565 S
C729 C733 1.495 . S
C730 C729 1.392 1_545 S
C730 C731 1.385 . S
C730 C732 1.478 . S
C731 H725 0.930 . S
C731 C727 1.428 . S
C731 C730 1.385 . S
C732 C730 1.478 . S
C732 C734 1.381 . S
C732 C738 1.383 . S
C733 C729 1.495 . S
C733 H739 0.959 . S
C733 H740 0.961 1_565 S
C733 H741 0.976 . S
C734 C732 1.381 . S
C734 C735 1.394 . S
C734 H742 0.930 . S
C735 C734 1.394 . S
C735 C736 1.383 . S
C735 H743 0.929 . S
C736 C735 1.383 . S
C736 C737 1.377 . S
C737 H721 0.930 . S
C737 C736 1.377 . S
C737 C738 1.379 . S
C738 H722 0.931 . S
C738 C732 1.383 . S
C738 C737 1.379 . S
H739 C733 0.959 . S
H740 C733 0.961 1_545 S
H741 C733 0.976 . S
H742 C734 0.930 . S
H743 C735 0.929 . S
H744 C752 0.929 . S
H745 C754 0.930 . S
H746 C756 0.930 . S
H747 C759 0.929 . S
H748 C762 0.930 . S
H749 C764 0.960 . S
H750 C764 0.960 . S
H751 C764 0.960 . S
C752 H744 0.929 . S
C752 C753 1.377 . S
C752 C754 1.384 . S
C753 C752 1.377 . S
C753 C759 1.390 . S
C754 H745 0.930 . S
C754 C752 1.384 . S
C754 C755 1.372 . S
C755 C754 1.372 . S
C755 C756 1.400 . S
C755 C760 1.490 . S
C756 H746 0.930 . S
C756 C755 1.400 . S
C756 C759 1.386 . S
H757 C773 0.930 . S
H758 C774 0.931 . S
C759 H747 0.929 . S
C759 C753 1.390 . S
C759 C756 1.386 . S
C760 C755 1.490 . S
C760 C762 1.395 1_655 S
C760 C763 1.403 . S
H761 C767 0.930 . S
C762 H748 0.930 . S
C762 C760 1.395 1_455 S
C762 C765 1.403 . S
C763 C760 1.403 . S
C763 C764 1.524 . S
C763 C767 1.400 . S
C764 H749 0.960 . S
C764 H750 0.960 . S
C764 H751 0.960 . S
C764 C763 1.524 . S
C765 C762 1.403 . S
C765 C766 1.392 . S
C765 C769 1.495 . S
C766 C765 1.392 . S
C766 C767 1.385 1_455 S
C766 C768 1.478 . S
C767 H761 0.930 . S
C767 C763 1.400 . S
C767 C766 1.385 1_655 S
C768 C766 1.478 . S
C768 C770 1.381 . S
C768 C774 1.383 . S
C769 C765 1.495 . S
C769 H775 0.959 . S
C769 H776 0.961 . S
C769 H777 0.960 . S
C770 C768 1.381 . S
C770 C771 1.394 . S
C770 H778 0.930 . S
C771 C770 1.394 . S
C771 C772 1.383 . S
C771 H779 0.929 . S
C772 C771 1.383 . S
C772 C773 1.377 . S
C773 H757 0.930 . S
C773 C772 1.377 . S
C773 C774 1.379 . S
C774 H758 0.931 . S
C774 C768 1.383 . S
C774 C773 1.379 . S
H775 C769 0.959 . S
H776 C769 0.961 . S
H777 C769 0.960 . S
H778 C770 0.930 . S
H779 C771 0.929 . S
H780 C788 0.929 . S
H781 C790 0.930 . S
H782 C792 0.930 . S
H783 C795 0.929 . S
H784 C798 0.930 . S
H785 C800 0.960 . S
H786 C800 0.960 . S
H787 C800 0.960 . S
C788 H780 0.929 . S
C788 C789 1.377 . S
C788 C790 1.384 . S
C789 C788 1.377 . S
C789 C795 1.390 1_554 S
C790 H781 0.930 . S
C790 C788 1.384 . S
C790 C791 1.372 . S
C791 C790 1.372 . S
C791 C792 1.400 1_554 S
C791 C796 1.490 . S
C792 H782 0.930 . S
C792 C791 1.400 1_556 S
C792 C795 1.386 . S
H793 C809 0.930 . S
H794 C810 0.931 . S
C795 H783 0.929 . S
C795 C789 1.390 1_556 S
C795 C792 1.386 . S
C796 C791 1.490 . S
C796 C798 1.395 . S
C796 C799 1.403 1_554 S
H797 C803 0.930 . S
C798 H784 0.930 . S
C798 C796 1.395 . S
C798 C801 1.403 . S
C799 C796 1.403 1_556 S
C799 C800 1.524 . S
C799 C803 1.400 . S
C800 H785 0.960 . S
C800 H786 0.960 . S
C800 H787 0.960 . S
C800 C799 1.524 . S
C801 C798 1.403 . S
C801 C802 1.392 1_554 S
C801 C805 1.495 . S
C802 C801 1.392 1_556 S
C802 C803 1.385 . S
C802 C804 1.478 . S
C803 H797 0.930 . S
C803 C799 1.400 . S
C803 C802 1.385 . S
C804 C802 1.478 . S
C804 C806 1.381 1_556 S
C804 C810 1.383 . S
C805 C801 1.495 . S
C805 H811 0.959 . S
C805 H812 0.961 . S
C805 H813 0.960 . S
C806 C804 1.381 1_554 S
C806 C807 1.394 . S
C806 H814 0.930 . S
C807 C806 1.394 . S
C807 C808 1.383 1_554 S
C807 H815 0.929 . S
C808 C807 1.383 1_556 S
C808 C809 1.377 . S
C809 H793 0.930 . S
C809 C808 1.377 . S
C809 C810 1.379 . S
C810 H794 0.931 . S
C810 C804 1.383 . S
C810 C809 1.379 . S
H811 C805 0.959 . S
H812 C805 0.961 . S
H813 C805 0.960 . S
H814 C806 0.930 . S
H815 C807 0.929 . S
H816 C824 0.929 . S
H817 C826 0.930 . S
H818 C828 0.930 . S
H819 C831 0.929 1_556 S
H820 C834 0.930 . S
H821 C836 0.964 . S
H822 C836 0.960 . S
H823 C836 0.960 1_556 S
C824 H816 0.929 . S
C824 C825 1.377 . S
C824 C826 1.384 . S
C825 C824 1.377 . S
C825 C831 1.390 . S
C826 H817 0.930 . S
C826 C824 1.384 . S
C826 C827 1.372 . S
C827 C826 1.372 . S
C827 C828 1.400 1_554 S
C827 C832 1.490 . S
C828 H818 0.930 . S
C828 C827 1.400 1_556 S
C828 C831 1.386 1_556 S
H829 C845 0.930 . S
H830 C846 0.931 . S
C831 H819 0.929 1_554 S
C831 C825 1.390 . S
C831 C828 1.386 1_554 S
C832 C827 1.490 . S
C832 C834 1.395 1_655 S
C832 C835 1.403 . S
H833 C839 0.930 . S
C834 H820 0.930 . S
C834 C832 1.395 1_455 S
C834 C837 1.407 . S
C835 C832 1.403 . S
C835 C836 1.524 . S
C835 C839 1.400 1_554 S
C836 H821 0.964 . S
C836 H822 0.960 . S
C836 H823 0.960 1_554 S
C836 C835 1.524 . S
C837 C834 1.407 . S
C837 C838 1.389 1_554 S
C837 C841 1.493 1_554 S
C838 C837 1.389 1_556 S
C838 C839 1.385 1_455 S
C838 C840 1.478 . S
C839 H833 0.930 . S
C839 C835 1.400 1_556 S
C839 C838 1.385 1_655 S
C840 C838 1.478 . S
C840 C842 1.381 1_556 S
C840 C846 1.383 . S
C841 C837 1.493 1_556 S
C841 H847 0.944 1_556 S
C841 H848 0.999 . S
C841 H849 0.940 1_556 S
C842 C840 1.381 1_554 S
C842 C843 1.396 1_554 S
C842 H850 0.930 . S
C843 C842 1.396 1_556 S
C843 C844 1.379 . S
C843 H851 0.931 1_556 S
C844 C843 1.379 . S
C844 C845 1.377 . S
C845 H829 0.930 . S
C845 C844 1.377 . S
C845 C846 1.379 . S
C846 H830 0.931 . S
C846 C840 1.383 . S
C846 C845 1.379 . S
H847 C841 0.944 1_554 S
H848 C841 0.999 . S
H849 C841 0.940 1_554 S
H850 C842 0.930 . S
H851 C843 0.931 1_554 S
H852 C860 0.929 . S
H853 C862 0.930 . S
H854 C864 0.930 . S
H855 C867 0.929 . S
H856 C870 0.930 . S
H857 C872 0.960 . S
H858 C872 0.960 . S
H859 C872 0.960 . S
C860 H852 0.929 . S
C860 C861 1.377 . S
C860 C862 1.384 . S
C861 C860 1.377 . S
C861 C867 1.390 . S
C862 H853 0.930 . S
C862 C860 1.384 . S
C862 C863 1.372 . S
C863 C862 1.372 . S
C863 C864 1.400 . S
C863 C868 1.490 . S
C864 H854 0.930 . S
C864 C863 1.400 . S
C864 C867 1.386 . S
H865 C881 0.930 . S
H866 C882 0.931 . S
C867 H855 0.929 . S
C867 C861 1.390 . S
C867 C864 1.386 . S
C868 C863 1.490 . S
C868 C870 1.395 . S
C868 C871 1.403 . S
H869 C875 0.930 . S
C870 H856 0.930 . S
C870 C868 1.395 . S
C870 C873 1.403 . S
C871 C868 1.403 . S
C871 C872 1.524 . S
C871 C875 1.400 . S
C872 H857 0.960 . S
C872 H858 0.960 . S
C872 H859 0.960 . S
C872 C871 1.524 . S
C873 C870 1.403 . S
C873 C874 1.392 . S
C873 C877 1.495 . S
C874 C873 1.392 . S
C874 C875 1.385 . S
C874 C876 1.478 . S
C875 H869 0.930 . S
C875 C871 1.400 . S
C875 C874 1.385 . S
C876 C874 1.478 . S
C876 C878 1.381 . S
C876 C882 1.383 . S
C877 C873 1.495 . S
C877 H883 0.959 . S
C877 H884 0.961 . S
C877 H885 0.960 . S
C878 C876 1.381 . S
C878 C879 1.394 . S
C878 H886 0.930 . S
C879 C878 1.394 . S
C879 C880 1.383 . S
C879 H887 0.929 . S
C880 C879 1.383 . S
C880 C881 1.377 . S
C881 H865 0.930 . S
C881 C880 1.377 . S
C881 C882 1.379 . S
C882 H866 0.931 . S
C882 C876 1.383 . S
C882 C881 1.379 . S
H883 C877 0.959 . S
H884 C877 0.961 . S
H885 C877 0.960 . S
H886 C878 0.930 . S
H887 C879 0.929 . S
H888 C896 0.929 . S
H889 C898 0.930 . S
H890 C900 0.930 1_554 S
H891 C903 0.922 1_554 S
H892 C906 0.930 . S
H893 C908 0.960 . S
H894 C908 0.960 . S
H895 C908 0.960 . S
C896 H888 0.929 . S
C896 C897 1.377 . S
C896 C898 1.384 . S
C897 C896 1.377 . S
C897 C903 1.390 . S
C898 H889 0.930 . S
C898 C896 1.384 . S
C898 C899 1.372 . S
C899 C898 1.372 . S
C899 C900 1.400 . S
C899 C904 1.490 . S
C900 H890 0.930 1_556 S
C900 C899 1.400 . S
C900 C903 1.386 . S
H901 C917 0.930 . S
H902 C918 0.931 . S
C903 H891 0.922 1_556 S
C903 C897 1.390 . S
C903 C900 1.386 . S
C904 C899 1.490 . S
C904 C906 1.395 . S
C904 C907 1.403 1_556 S
H905 C911 0.930 . S
C906 H892 0.930 . S
C906 C904 1.395 . S
C906 C909 1.403 . S
C907 C904 1.403 1_554 S
C907 C908 1.524 . S
C907 C911 1.400 . S
C908 H893 0.960 . S
C908 H894 0.960 . S
C908 H895 0.960 . S
C908 C907 1.524 . S
C909 C906 1.403 . S
C909 C910 1.369 1_556 S
C909 C913 1.495 . S
C910 C909 1.369 1_554 S
C910 C911 1.409 . S
C910 C912 1.479 . S
C911 H905 0.930 . S
C911 C907 1.400 . S
C911 C910 1.409 . S
C912 C910 1.479 . S
C912 C914 1.371 1_554 S
C912 C918 1.383 . S
C913 C909 1.495 . S
C913 H919 0.959 . S
C913 H920 0.961 . S
C913 H921 0.960 . S
C914 C912 1.371 1_556 S
C914 C915 1.391 1_556 S
C914 H922 0.945 . S
C915 C914 1.391 1_554 S
C915 C916 1.383 . S
C915 H923 0.929 . S
C916 C915 1.383 . S
C916 C917 1.377 . S
C917 H901 0.930 . S
C917 C916 1.377 . S
C917 C918 1.379 . S
C918 H902 0.931 . S
C918 C912 1.383 . S
C918 C917 1.379 . S
H919 C913 0.959 . S
H920 C913 0.961 . S
H921 C913 0.960 . S
H922 C914 0.945 . S
H923 C915 0.929 . S
H924 C932 0.929 . S
H925 C934 0.930 . S
H926 C936 0.930 . S
H927 C939 0.929 . S
H928 C942 0.930 . S
H929 C944 0.960 . S
H930 C944 0.960 . S
H931 C944 0.960 . S
C932 H924 0.929 . S
C932 C933 1.377 . S
C932 C934 1.384 . S
C933 C932 1.377 . S
C933 C939 1.390 . S
C934 H925 0.930 . S
C934 C932 1.384 . S
C934 C935 1.372 . S
C935 C934 1.372 . S
C935 C936 1.400 . S
C935 C940 1.490 . S
C936 H926 0.930 . S
C936 C935 1.400 . S
C936 C939 1.386 . S
H937 C953 0.930 . S
H938 C954 0.931 . S
C939 H927 0.929 . S
C939 C933 1.390 . S
C939 C936 1.386 . S
C940 C935 1.490 . S
C940 C942 1.395 . S
C940 C943 1.403 . S
H941 C947 0.930 . S
C942 H928 0.930 . S
C942 C940 1.395 . S
C942 C945 1.403 . S
C943 C940 1.403 . S
C943 C944 1.524 . S
C943 C947 1.400 . S
C944 H929 0.960 . S
C944 H930 0.960 . S
C944 H931 0.960 . S
C944 C943 1.524 . S
C945 C942 1.403 . S
C945 C946 1.392 . S
C945 C949 1.495 . S
C946 C945 1.392 . S
C946 C947 1.385 . S
C946 C948 1.478 . S
C947 H941 0.930 . S
C947 C943 1.400 . S
C947 C946 1.385 . S
C948 C946 1.478 . S
C948 C950 1.381 . S
C948 C954 1.383 . S
C949 C945 1.495 . S
C949 H955 0.959 . S
C949 H956 0.961 . S
C949 H957 0.960 . S
C950 C948 1.381 . S
C950 C951 1.394 . S
C950 H958 0.930 . S
C951 C950 1.394 . S
C951 C952 1.383 . S
C951 H959 0.929 . S
C952 C951 1.383 . S
C952 C953 1.377 . S
C953 H937 0.930 . S
C953 C952 1.377 . S
C953 C954 1.379 . S
C954 H938 0.931 . S
C954 C948 1.383 . S
C954 C953 1.379 . S
H955 C949 0.959 . S
H956 C949 0.961 . S
H957 C949 0.960 . S
H958 C950 0.930 . S
H959 C951 0.929 . S
H960 C968 0.907 1_554 S
H961 C970 0.930 . S
H962 C972 0.930 . S
H963 C975 0.929 . S
H964 C978 0.930 . S
H965 C980 0.977 1_565 S
H966 C980 0.960 1_554 S
H967 C980 0.960 . S
C968 H960 0.907 1_556 S
C968 C969 1.421 . S
C968 C970 1.364 1_556 S
C969 C968 1.421 . S
C969 C975 1.390 . S
C970 H961 0.930 . S
C970 C968 1.364 1_554 S
C970 C971 1.372 1_554 S
C971 C970 1.372 1_556 S
C971 C972 1.400 . S
C971 C976 1.490 . S
C972 H962 0.930 . S
C972 C971 1.400 . S
C972 C975 1.386 . S
H973 C989 0.922 1_556 S
H974 C990 0.931 . S
C975 H963 0.929 . S
C975 C969 1.390 . S
C975 C972 1.386 . S
C976 C971 1.490 . S
C976 C978 1.395 . S
C976 C979 1.403 . S
H977 C983 0.930 . S
C978 H964 0.930 . S
C978 C976 1.395 . S
C978 C981 1.375 1_546 S
C979 C976 1.403 . S
C979 C980 1.524 . S
C979 C983 1.400 1_546 S
C980 H965 0.977 1_545 S
C980 H966 0.960 1_556 S
C980 H967 0.960 . S
C980 C979 1.524 . S
C981 C978 1.375 1_564 S
C981 C982 1.418 . S
C981 C985 1.498 . S
C982 C981 1.418 . S
C982 C983 1.385 . S
C982 C984 1.478 . S
C983 H977 0.930 . S
C983 C979 1.400 1_564 S
C983 C982 1.385 . S
C984 C982 1.478 . S
C984 C986 1.381 . S
C984 C990 1.383 1_554 S
C985 C981 1.498 . S
C985 H991 0.959 1_565 S
C985 H992 0.961 1_554 S
C985 H993 0.960 . S
C986 C984 1.381 . S
C986 C987 1.394 . S
C986 H994 0.930 . S
C987 C986 1.394 . S
C987 C988 1.383 . S
C987 H995 0.929 . S
C988 C987 1.383 . S
C988 C989 1.391 . S
C989 H973 0.922 1_554 S
C989 C988 1.391 . S
C989 C990 1.374 1_554 S
C990 H974 0.931 . S
C990 C984 1.383 1_556 S
C990 C989 1.374 1_556 S
H991 C985 0.959 1_545 S
H992 C985 0.961 1_556 S
H993 C985 0.960 . S
H994 C986 0.930 . S
H995 C987 0.929 . S
H996 C1004 0.929 . S
H997 C1006 0.930 . S
H998 C1008 0.930 . S
H999 C1011 0.929 . S
H1000 C1014 0.930 . S
H1001 C1016 0.960 . S
H1002 C1016 0.960 . S
H1003 C1016 0.960 . S
C1004 H996 0.929 . S
C1004 C1005 1.377 . S
C1004 C1006 1.384 . S
C1005 C1004 1.377 . S
C1005 C1011 1.390 . S
C1006 H997 0.930 . S
C1006 C1004 1.384 . S
C1006 C1007 1.372 . S
C1007 C1006 1.372 . S
C1007 C1008 1.400 . S
C1007 C1012 1.490 . S
C1008 H998 0.930 . S
C1008 C1007 1.400 . S
C1008 C1011 1.386 . S
H1009 C1025 0.930 . S
H1010 C1026 0.931 . S
C1011 H999 0.929 . S
C1011 C1005 1.390 . S
C1011 C1008 1.386 . S
C1012 C1007 1.490 . S
C1012 C1014 1.395 . S
C1012 C1015 1.403 . S
H1013 C1019 0.930 . S
C1014 H1000 0.930 . S
C1014 C1012 1.395 . S
C1014 C1017 1.403 . S
C1015 C1012 1.403 . S
C1015 C1016 1.524 . S
C1015 C1019 1.400 . S
C1016 H1001 0.960 . S
C1016 H1002 0.960 . S
C1016 H1003 0.960 . S
C1016 C1015 1.524 . S
C1017 C1014 1.403 . S
C1017 C1018 1.392 . S
C1017 C1021 1.495 . S
C1018 C1017 1.392 . S
C1018 C1019 1.385 . S
C1018 C1020 1.478 . S
C1019 H1013 0.930 . S
C1019 C1015 1.400 . S
C1019 C1018 1.385 . S
C1020 C1018 1.478 . S
C1020 C1022 1.381 . S
C1020 C1026 1.383 . S
C1021 C1017 1.495 . S
C1021 H1027 0.959 . S
C1021 H1028 0.961 . S
C1021 H1029 0.960 . S
C1022 C1020 1.381 . S
C1022 C1023 1.394 . S
C1022 H1030 0.930 . S
C1023 C1022 1.394 . S
C1023 C1024 1.383 . S
C1023 H1031 0.929 . S
C1024 C1023 1.383 . S
C1024 C1025 1.377 . S
C1025 H1009 0.930 . S
C1025 C1024 1.377 . S
C1025 C1026 1.379 . S
C1026 H1010 0.931 . S
C1026 C1020 1.383 . S
C1026 C1025 1.379 . S
H1027 C1021 0.959 . S
H1028 C1021 0.961 . S
H1029 C1021 0.960 . S
H1030 C1022 0.930 . S
H1031 C1023 0.929 . S
H1032 C1040 0.929 . S
H1033 C1042 0.930 . S
H1034 C1044 0.930 . S
H1035 C1047 0.929 . S
H1036 C1050 0.930 . S
H1037 C1052 0.960 . S
H1038 C1052 0.960 . S
H1039 C1052 0.960 . S
C1040 H1032 0.929 . S
C1040 C1041 1.377 . S
C1040 C1042 1.384 . S
C1041 C1040 1.377 . S
C1041 C1047 1.390 . S
C1042 H1033 0.930 . S
C1042 C1040 1.384 . S
C1042 C1043 1.372 . S
C1043 C1042 1.372 . S
C1043 C1044 1.400 . S
C1043 C1048 1.490 . S
C1044 H1034 0.930 . S
C1044 C1043 1.400 . S
C1044 C1047 1.386 . S
H1045 C1061 0.930 . S
H1046 C1062 0.931 . S
C1047 H1035 0.929 . S
C1047 C1041 1.390 . S
C1047 C1044 1.386 . S
C1048 C1043 1.490 . S
C1048 C1050 1.395 . S
C1048 C1051 1.403 . S
H1049 C1055 0.930 . S
C1050 H1036 0.930 . S
C1050 C1048 1.395 . S
C1050 C1053 1.403 . S
C1051 C1048 1.403 . S
C1051 C1052 1.524 . S
C1051 C1055 1.400 . S
C1052 H1037 0.960 . S
C1052 H1038 0.960 . S
C1052 H1039 0.960 . S
C1052 C1051 1.524 . S
C1053 C1050 1.403 . S
C1053 C1054 1.392 . S
C1053 C1057 1.495 . S
C1054 C1053 1.392 . S
C1054 C1055 1.385 . S
C1054 C1056 1.478 . S
C1055 H1049 0.930 . S
C1055 C1051 1.400 . S
C1055 C1054 1.385 . S
C1056 C1054 1.478 . S
C1056 C1058 1.381 . S
C1056 C1062 1.383 . S
C1057 C1053 1.495 . S
C1057 H1063 0.959 . S
C1057 H1064 0.961 . S
C1057 H1065 0.960 . S
C1058 C1056 1.381 . S
C1058 C1059 1.394 . S
C1058 H1066 0.930 . S
C1059 C1058 1.394 . S
C1059 C1060 1.383 . S
C1059 H1067 0.929 . S
C1060 C1059 1.383 . S
C1060 C1061 1.377 . S
C1061 H1045 0.930 . S
C1061 C1060 1.377 . S
C1061 C1062 1.379 . S
C1062 H1046 0.931 . S
C1062 C1056 1.383 . S
C1062 C1061 1.379 . S
H1063 C1057 0.959 . S
H1064 C1057 0.961 . S
H1065 C1057 0.960 . S
H1066 C1058 0.930 . S
H1067 C1059 0.929 . S
H1068 C1076 0.929 . S
H1069 C1078 0.930 . S
H1070 C1080 0.930 . S
H1071 C1083 0.929 . S
H1072 C1086 0.930 . S
H1073 C1088 0.960 . S
H1074 C1088 0.960 . S
H1075 C1088 0.960 . S
C1076 H1068 0.929 . S
C1076 C1077 1.377 . S
C1076 C1078 1.384 . S
C1077 C1076 1.377 . S
C1077 C1083 1.390 . S
C1078 H1069 0.930 . S
C1078 C1076 1.384 . S
C1078 C1079 1.372 . S
C1079 C1078 1.372 . S
C1079 C1080 1.400 . S
C1079 C1084 1.490 . S
C1080 H1070 0.930 . S
C1080 C1079 1.400 . S
C1080 C1083 1.386 . S
H1081 C1097 0.930 . S
H1082 C1098 0.931 . S
C1083 H1071 0.929 . S
C1083 C1077 1.390 . S
C1083 C1080 1.386 . S
C1084 C1079 1.490 . S
C1084 C1086 1.395 . S
C1084 C1087 1.403 . S
H1085 C1091 0.930 . S
C1086 H1072 0.930 . S
C1086 C1084 1.395 . S
C1086 C1089 1.403 . S
C1087 C1084 1.403 . S
C1087 C1088 1.524 . S
C1087 C1091 1.400 . S
C1088 H1073 0.960 . S
C1088 H1074 0.960 . S
C1088 H1075 0.960 . S
C1088 C1087 1.524 . S
C1089 C1086 1.403 . S
C1089 C1090 1.392 . S
C1089 C1093 1.495 . S
C1090 C1089 1.392 . S
C1090 C1091 1.385 . S
C1090 C1092 1.478 . S
C1091 H1085 0.930 . S
C1091 C1087 1.400 . S
C1091 C1090 1.385 . S
C1092 C1090 1.478 . S
C1092 C1094 1.381 . S
C1092 C1098 1.383 . S
C1093 C1089 1.495 . S
C1093 H1099 0.959 . S
C1093 H1100 0.961 . S
C1093 H1101 0.960 . S
C1094 C1092 1.381 . S
C1094 C1095 1.394 . S
C1094 H1102 0.930 . S
C1095 C1094 1.394 . S
C1095 C1096 1.383 . S
C1095 H1103 0.929 . S
C1096 C1095 1.383 . S
C1096 C1097 1.377 . S
C1097 H1081 0.930 . S
C1097 C1096 1.377 . S
C1097 C1098 1.379 . S
C1098 H1082 0.931 . S
C1098 C1092 1.383 . S
C1098 C1097 1.379 . S
H1099 C1093 0.959 . S
H1100 C1093 0.961 . S
H1101 C1093 0.960 . S
H1102 C1094 0.930 . S
H1103 C1095 0.929 . S
H1104 C1112 0.929 . S
H1105 C1114 0.930 . S
H1106 C1116 0.930 . S
H1107 C1119 0.929 . S
H1108 C1122 0.930 . S
H1109 C1124 0.960 . S
H1110 C1124 0.960 . S
H1111 C1124 0.960 . S
C1112 H1104 0.929 . S
C1112 C1113 1.377 . S
C1112 C1114 1.384 . S
C1113 C1112 1.377 . S
C1113 C1119 1.390 . S
C1114 H1105 0.930 . S
C1114 C1112 1.384 . S
C1114 C1115 1.372 . S
C1115 C1114 1.372 . S
C1115 C1116 1.400 . S
C1115 C1120 1.490 . S
C1116 H1106 0.930 . S
C1116 C1115 1.400 . S
C1116 C1119 1.386 . S
H1117 C1133 0.930 . S
H1118 C1134 0.931 . S
C1119 H1107 0.929 . S
C1119 C1113 1.390 . S
C1119 C1116 1.386 . S
C1120 C1115 1.490 . S
C1120 C1122 1.395 . S
C1120 C1123 1.403 . S
H1121 C1127 0.930 . S
C1122 H1108 0.930 . S
C1122 C1120 1.395 . S
C1122 C1125 1.403 . S
C1123 C1120 1.403 . S
C1123 C1124 1.524 . S
C1123 C1127 1.400 . S
C1124 H1109 0.960 . S
C1124 H1110 0.960 . S
C1124 H1111 0.960 . S
C1124 C1123 1.524 . S
C1125 C1122 1.403 . S
C1125 C1126 1.392 . S
C1125 C1129 1.495 . S
C1126 C1125 1.392 . S
C1126 C1127 1.385 . S
C1126 C1128 1.478 . S
C1127 H1121 0.930 . S
C1127 C1123 1.400 . S
C1127 C1126 1.385 . S
C1128 C1126 1.478 . S
C1128 C1130 1.381 . S
C1128 C1134 1.383 . S
C1129 C1125 1.495 . S
C1129 H1135 0.959 . S
C1129 H1136 0.961 . S
C1129 H1137 0.960 . S
C1130 C1128 1.381 . S
C1130 C1131 1.394 . S
C1130 H1138 0.930 . S
C1131 C1130 1.394 . S
C1131 C1132 1.383 . S
C1131 H1139 0.929 . S
C1132 C1131 1.383 . S
C1132 C1133 1.377 . S
C1133 H1117 0.930 . S
C1133 C1132 1.377 . S
C1133 C1134 1.379 . S
C1134 H1118 0.931 . S
C1134 C1128 1.383 . S
C1134 C1133 1.379 . S
H1135 C1129 0.959 . S
H1136 C1129 0.961 . S
H1137 C1129 0.960 . S
H1138 C1130 0.930 . S
H1139 C1131 0.929 . S
H1140 C1148 0.929 . S
H1141 C1150 0.930 . S
H1142 C1152 0.930 . S
H1143 C1155 0.929 . S
H1144 C1158 0.930 . S
H1145 C1160 0.960 . S
H1146 C1160 0.960 . S
H1147 C1160 0.960 . S
C1148 H1140 0.929 . S
C1148 C1149 1.377 . S
C1148 C1150 1.384 . S
C1149 C1148 1.377 . S
C1149 C1155 1.390 . S
C1150 H1141 0.930 . S
C1150 C1148 1.384 . S
C1150 C1151 1.372 . S
C1151 C1150 1.372 . S
C1151 C1152 1.400 . S
C1151 C1156 1.490 . S
C1152 H1142 0.930 . S
C1152 C1151 1.400 . S
C1152 C1155 1.386 . S
H1153 C1169 0.930 . S
H1154 C1170 0.931 . S
C1155 H1143 0.929 . S
C1155 C1149 1.390 . S
C1155 C1152 1.386 . S
C1156 C1151 1.490 . S
C1156 C1158 1.395 . S
C1156 C1159 1.403 . S
H1157 C1163 0.930 . S
C1158 H1144 0.930 . S
C1158 C1156 1.395 . S
C1158 C1161 1.403 . S
C1159 C1156 1.403 . S
C1159 C1160 1.524 . S
C1159 C1163 1.400 . S
C1160 H1145 0.960 . S
C1160 H1146 0.960 . S
C1160 H1147 0.960 . S
C1160 C1159 1.524 . S
C1161 C1158 1.403 . S
C1161 C1162 1.392 . S
C1161 C1165 1.495 . S
C1162 C1161 1.392 . S
C1162 C1163 1.385 . S
C1162 C1164 1.478 . S
C1163 H1157 0.930 . S
C1163 C1159 1.400 . S
C1163 C1162 1.385 . S
C1164 C1162 1.478 . S
C1164 C1166 1.381 . S
C1164 C1170 1.383 . S
C1165 C1161 1.495 . S
C1165 H1171 0.959 . S
C1165 H1172 0.961 . S
C1165 H1173 0.960 . S
C1166 C1164 1.381 . S
C1166 C1167 1.394 . S
C1166 H1174 0.930 . S
C1167 C1166 1.394 . S
C1167 C1168 1.383 . S
C1167 H1175 0.929 . S
C1168 C1167 1.383 . S
C1168 C1169 1.377 . S
C1169 H1153 0.930 . S
C1169 C1168 1.377 . S
C1169 C1170 1.379 . S
C1170 H1154 0.931 . S
C1170 C1164 1.383 . S
C1170 C1169 1.379 . S
H1171 C1165 0.959 . S
H1172 C1165 0.961 . S
H1173 C1165 0.960 . S
H1174 C1166 0.930 . S
H1175 C1167 0.929 . S
H1176 C1184 0.929 . S
H1177 C1186 0.930 . S
H1178 C1188 0.930 . S
H1179 C1191 0.929 . S
H1180 C1194 0.930 . S
H1181 C1196 0.960 . S
H1182 C1196 0.960 . S
H1183 C1196 0.960 . S
C1184 H1176 0.929 . S
C1184 C1185 1.377 . S
C1184 C1186 1.384 . S
C1185 C1184 1.377 . S
C1185 C1191 1.390 . S
C1186 H1177 0.930 . S
C1186 C1184 1.384 . S
C1186 C1187 1.372 . S
C1187 C1186 1.372 . S
C1187 C1188 1.400 . S
C1187 C1192 1.490 . S
C1188 H1178 0.930 . S
C1188 C1187 1.400 . S
C1188 C1191 1.386 . S
H1189 C1205 0.930 . S
H1190 C1206 0.931 . S
C1191 H1179 0.929 . S
C1191 C1185 1.390 . S
C1191 C1188 1.386 . S
C1192 C1187 1.490 . S
C1192 C1194 1.395 . S
C1192 C1195 1.403 . S
H1193 C1199 0.930 . S
C1194 H1180 0.930 . S
C1194 C1192 1.395 . S
C1194 C1197 1.403 . S
C1195 C1192 1.403 . S
C1195 C1196 1.524 . S
C1195 C1199 1.400 . S
C1196 H1181 0.960 . S
C1196 H1182 0.960 . S
C1196 H1183 0.960 . S
C1196 C1195 1.524 . S
C1197 C1194 1.403 . S
C1197 C1198 1.392 . S
C1197 C1201 1.495 . S
C1198 C1197 1.392 . S
C1198 C1199 1.385 . S
C1198 C1200 1.478 . S
C1199 H1193 0.930 . S
C1199 C1195 1.400 . S
C1199 C1198 1.385 . S
C1200 C1198 1.478 . S
C1200 C1202 1.381 . S
C1200 C1206 1.383 . S
C1201 C1197 1.495 . S
C1201 H1207 0.959 . S
C1201 H1208 0.961 . S
C1201 H1209 0.960 . S
C1202 C1200 1.381 . S
C1202 C1203 1.394 . S
C1202 H1210 0.930 . S
C1203 C1202 1.394 . S
C1203 C1204 1.383 . S
C1203 H1211 0.929 . S
C1204 C1203 1.383 . S
C1204 C1205 1.377 . S
C1205 H1189 0.930 . S
C1205 C1204 1.377 . S
C1205 C1206 1.379 . S
C1206 H1190 0.931 . S
C1206 C1200 1.383 . S
C1206 C1205 1.379 . S
H1207 C1201 0.959 . S
H1208 C1201 0.961 . S
H1209 C1201 0.960 . S
H1210 C1202 0.930 . S
H1211 C1203 0.929 . S
H1212 C1220 0.929 . S
H1213 C1222 0.930 . S
H1214 C1224 0.930 . S
H1215 C1227 0.929 . S
H1216 C1230 0.930 . S
H1217 C1232 0.960 . S
H1218 C1232 0.960 . S
H1219 C1232 0.960 . S
C1220 H1212 0.929 . S
C1220 C1221 1.377 . S
C1220 C1222 1.384 . S
C1221 C1220 1.377 . S
C1221 C1227 1.390 . S
C1222 H1213 0.930 . S
C1222 C1220 1.384 . S
C1222 C1223 1.372 . S
C1223 C1222 1.372 . S
C1223 C1224 1.400 . S
C1223 C1228 1.490 . S
C1224 H1214 0.930 . S
C1224 C1223 1.400 . S
C1224 C1227 1.386 . S
H1225 C1241 0.930 . S
H1226 C1242 0.931 . S
C1227 H1215 0.929 . S
C1227 C1221 1.390 . S
C1227 C1224 1.386 . S
C1228 C1223 1.490 . S
C1228 C1230 1.395 . S
C1228 C1231 1.403 . S
H1229 C1235 0.930 . S
C1230 H1216 0.930 . S
C1230 C1228 1.395 . S
C1230 C1233 1.403 . S
C1231 C1228 1.403 . S
C1231 C1232 1.524 . S
C1231 C1235 1.400 . S
C1232 H1217 0.960 . S
C1232 H1218 0.960 . S
C1232 H1219 0.960 . S
C1232 C1231 1.524 . S
C1233 C1230 1.403 . S
C1233 C1234 1.392 . S
C1233 C1237 1.495 . S
C1234 C1233 1.392 . S
C1234 C1235 1.385 . S
C1234 C1236 1.478 . S
C1235 H1229 0.930 . S
C1235 C1231 1.400 . S
C1235 C1234 1.385 . S
C1236 C1234 1.478 . S
C1236 C1238 1.381 . S
C1236 C1242 1.383 . S
C1237 C1233 1.495 . S
C1237 H1243 0.959 . S
C1237 H1244 0.961 . S
C1237 H1245 0.960 . S
C1238 C1236 1.381 . S
C1238 C1239 1.394 . S
C1238 H1246 0.930 . S
C1239 C1238 1.394 . S
C1239 C1240 1.383 . S
C1239 H1247 0.929 . S
C1240 C1239 1.383 . S
C1240 C1241 1.377 . S
C1241 H1225 0.930 . S
C1241 C1240 1.377 . S
C1241 C1242 1.379 . S
C1242 H1226 0.931 . S
C1242 C1236 1.383 . S
C1242 C1241 1.379 . S
H1243 C1237 0.959 . S
H1244 C1237 0.961 . S
H1245 C1237 0.960 . S
H1246 C1238 0.930 . S
H1247 C1239 0.929 . S
H1248 C1256 0.929 . S
H1249 C1258 0.930 . S
H1250 C1260 0.930 . S
H1251 C1263 0.929 . S
H1252 C1266 0.930 . S
H1253 C1268 0.960 . S
H1254 C1268 0.960 . S
H1255 C1268 0.960 . S
C1256 H1248 0.929 . S
C1256 C1257 1.377 . S
C1256 C1258 1.384 . S
C1257 C1256 1.377 . S
C1257 C1263 1.390 . S
C1258 H1249 0.930 . S
C1258 C1256 1.384 . S
C1258 C1259 1.372 . S
C1259 C1258 1.372 . S
C1259 C1260 1.400 . S
C1259 C1264 1.490 . S
C1260 H1250 0.930 . S
C1260 C1259 1.400 . S
C1260 C1263 1.386 . S
H1261 C1277 0.930 . S
H1262 C1278 0.931 . S
C1263 H1251 0.929 . S
C1263 C1257 1.390 . S
C1263 C1260 1.386 . S
C1264 C1259 1.490 . S
C1264 C1266 1.395 . S
C1264 C1267 1.403 . S
H1265 C1271 0.930 . S
C1266 H1252 0.930 . S
C1266 C1264 1.395 . S
C1266 C1269 1.403 . S
C1267 C1264 1.403 . S
C1267 C1268 1.524 . S
C1267 C1271 1.400 . S
C1268 H1253 0.960 . S
C1268 H1254 0.960 . S
C1268 H1255 0.960 . S
C1268 C1267 1.524 . S
C1269 C1266 1.403 . S
C1269 C1270 1.392 . S
C1269 C1273 1.495 . S
C1270 C1269 1.392 . S
C1270 C1271 1.385 . S
C1270 C1272 1.478 . S
C1271 H1265 0.930 . S
C1271 C1267 1.400 . S
C1271 C1270 1.385 . S
C1272 C1270 1.478 . S
C1272 C1274 1.381 . S
C1272 C1278 1.383 . S
C1273 C1269 1.495 . S
C1273 H1279 0.959 . S
C1273 H1280 0.961 . S
C1273 H1281 0.960 . S
C1274 C1272 1.381 . S
C1274 C1275 1.394 . S
C1274 H1282 0.930 . S
C1275 C1274 1.394 . S
C1275 C1276 1.383 . S
C1275 H1283 0.929 . S
C1276 C1275 1.383 . S
C1276 C1277 1.377 . S
C1277 H1261 0.930 . S
C1277 C1276 1.377 . S
C1277 C1278 1.379 . S
C1278 H1262 0.931 . S
C1278 C1272 1.383 . S
C1278 C1277 1.379 . S
H1279 C1273 0.959 . S
H1280 C1273 0.961 . S
H1281 C1273 0.960 . S
H1282 C1274 0.930 . S
H1283 C1275 0.929 . S
H1284 C1292 0.929 . S
H1285 C1294 0.930 . S
H1286 C1296 0.930 . S
H1287 C1299 0.929 . S
H1288 C1302 0.930 . S
H1289 C1304 0.960 . S
H1290 C1304 0.960 . S
H1291 C1304 0.960 . S
C1292 H1284 0.929 . S
C1292 C1293 1.377 . S
C1292 C1294 1.384 . S
C1293 C1292 1.377 . S
C1293 C1299 1.390 . S
C1294 H1285 0.930 . S
C1294 C1292 1.384 . S
C1294 C1295 1.372 . S
C1295 C1294 1.372 . S
C1295 C1296 1.400 . S
C1295 C1300 1.490 . S
C1296 H1286 0.930 . S
C1296 C1295 1.400 . S
C1296 C1299 1.386 . S
H1297 C1313 0.930 . S
H1298 C1314 0.931 . S
C1299 H1287 0.929 . S
C1299 C1293 1.390 . S
C1299 C1296 1.386 . S
C1300 C1295 1.490 . S
C1300 C1302 1.395 . S
C1300 C1303 1.403 . S
H1301 C1307 0.930 . S
C1302 H1288 0.930 . S
C1302 C1300 1.395 . S
C1302 C1305 1.403 . S
C1303 C1300 1.403 . S
C1303 C1304 1.524 . S
C1303 C1307 1.400 . S
C1304 H1289 0.960 . S
C1304 H1290 0.960 . S
C1304 H1291 0.960 . S
C1304 C1303 1.524 . S
C1305 C1302 1.403 . S
C1305 C1306 1.392 . S
C1305 C1309 1.495 . S
C1306 C1305 1.392 . S
C1306 C1307 1.385 . S
C1306 C1308 1.478 . S
C1307 H1301 0.930 . S
C1307 C1303 1.400 . S
C1307 C1306 1.385 . S
C1308 C1306 1.478 . S
C1308 C1310 1.381 . S
C1308 C1314 1.383 . S
C1309 C1305 1.495 . S
C1309 H1315 0.959 . S
C1309 H1316 0.961 . S
C1309 H1317 0.960 . S
C1310 C1308 1.381 . S
C1310 C1311 1.394 . S
C1310 H1318 0.930 . S
C1311 C1310 1.394 . S
C1311 C1312 1.383 . S
C1311 H1319 0.929 . S
C1312 C1311 1.383 . S
C1312 C1313 1.377 . S
C1313 H1297 0.930 . S
C1313 C1312 1.377 . S
C1313 C1314 1.379 . S
C1314 H1298 0.931 . S
C1314 C1308 1.383 . S
C1314 C1313 1.379 . S
H1315 C1309 0.959 . S
H1316 C1309 0.961 . S
H1317 C1309 0.960 . S
H1318 C1310 0.930 . S
H1319 C1311 0.929 . S
H1320 C1328 0.929 . S
H1321 C1330 0.930 . S
H1322 C1332 0.930 . S
H1323 C1335 0.929 . S
H1324 C1338 0.930 . S
H1325 C1340 0.960 . S
H1326 C1340 0.960 . S
H1327 C1340 0.960 . S
C1328 H1320 0.929 . S
C1328 C1329 1.377 . S
C1328 C1330 1.384 . S
C1329 C1328 1.377 . S
C1329 C1335 1.390 . S
C1330 H1321 0.930 . S
C1330 C1328 1.384 . S
C1330 C1331 1.372 . S
C1331 C1330 1.372 . S
C1331 C1332 1.400 . S
C1331 C1336 1.490 . S
C1332 H1322 0.930 . S
C1332 C1331 1.400 . S
C1332 C1335 1.386 . S
H1333 C1349 0.930 . S
H1334 C1350 0.931 . S
C1335 H1323 0.929 . S
C1335 C1329 1.390 . S
C1335 C1332 1.386 . S
C1336 C1331 1.490 . S
C1336 C1338 1.395 . S
C1336 C1339 1.403 . S
H1337 C1343 0.930 . S
C1338 H1324 0.930 . S
C1338 C1336 1.395 . S
C1338 C1341 1.403 . S
C1339 C1336 1.403 . S
C1339 C1340 1.524 . S
C1339 C1343 1.400 . S
C1340 H1325 0.960 . S
C1340 H1326 0.960 . S
C1340 H1327 0.960 . S
C1340 C1339 1.524 . S
C1341 C1338 1.403 . S
C1341 C1342 1.392 . S
C1341 C1345 1.495 . S
C1342 C1341 1.392 . S
C1342 C1343 1.385 . S
C1342 C1344 1.478 . S
C1343 H1337 0.930 . S
C1343 C1339 1.400 . S
C1343 C1342 1.385 . S
C1344 C1342 1.478 . S
C1344 C1346 1.381 . S
C1344 C1350 1.383 . S
C1345 C1341 1.495 . S
C1345 H1351 0.959 . S
C1345 H1352 0.961 . S
C1345 H1353 0.960 . S
C1346 C1344 1.381 . S
C1346 C1347 1.394 . S
C1346 H1354 0.930 . S
C1347 C1346 1.394 . S
C1347 C1348 1.383 . S
C1347 H1355 0.929 . S
C1348 C1347 1.383 . S
C1348 C1349 1.377 . S
C1349 H1333 0.930 . S
C1349 C1348 1.377 . S
C1349 C1350 1.379 . S
C1350 H1334 0.931 . S
C1350 C1344 1.383 . S
C1350 C1349 1.379 . S
H1351 C1345 0.959 . S
H1352 C1345 0.961 . S
H1353 C1345 0.960 . S
H1354 C1346 0.930 . S
H1355 C1347 0.929 . S
H1356 C1364 0.929 . S
H1357 C1366 0.930 . S
H1358 C1368 0.930 . S
H1359 C1371 0.929 . S
H1360 C1374 0.930 . S
H1361 C1376 0.960 . S
H1362 C1376 0.960 . S
H1363 C1376 0.960 . S
C1364 H1356 0.929 . S
C1364 C1365 1.377 . S
C1364 C1366 1.384 . S
C1365 C1364 1.377 . S
C1365 C1371 1.390 . S
C1366 H1357 0.930 . S
C1366 C1364 1.384 . S
C1366 C1367 1.372 . S
C1367 C1366 1.372 . S
C1367 C1368 1.400 . S
C1367 C1372 1.490 . S
C1368 H1358 0.930 . S
C1368 C1367 1.400 . S
C1368 C1371 1.386 . S
H1369 C1385 0.930 . S
H1370 C1386 0.931 . S
C1371 H1359 0.929 . S
C1371 C1365 1.390 . S
C1371 C1368 1.386 . S
C1372 C1367 1.490 . S
C1372 C1374 1.395 . S
C1372 C1375 1.403 . S
H1373 C1379 0.930 . S
C1374 H1360 0.930 . S
C1374 C1372 1.395 . S
C1374 C1377 1.403 . S
C1375 C1372 1.403 . S
C1375 C1376 1.524 . S
C1375 C1379 1.400 . S
C1376 H1361 0.960 . S
C1376 H1362 0.960 . S
C1376 H1363 0.960 . S
C1376 C1375 1.524 . S
C1377 C1374 1.403 . S
C1377 C1378 1.392 . S
C1377 C1381 1.495 . S
C1378 C1377 1.392 . S
C1378 C1379 1.385 . S
C1378 C1380 1.478 . S
C1379 H1373 0.930 . S
C1379 C1375 1.400 . S
C1379 C1378 1.385 . S
C1380 C1378 1.478 . S
C1380 C1382 1.381 . S
C1380 C1386 1.383 . S
C1381 C1377 1.495 . S
C1381 H1387 0.959 . S
C1381 H1388 0.961 . S
C1381 H1389 0.960 . S
C1382 C1380 1.381 . S
C1382 C1383 1.394 . S
C1382 H1390 0.930 . S
C1383 C1382 1.394 . S
C1383 C1384 1.383 . S
C1383 H1391 0.929 . S
C1384 C1383 1.383 . S
C1384 C1385 1.377 . S
C1385 H1369 0.930 . S
C1385 C1384 1.377 . S
C1385 C1386 1.379 . S
C1386 H1370 0.931 . S
C1386 C1380 1.383 . S
C1386 C1385 1.379 . S
H1387 C1381 0.959 . S
H1388 C1381 0.961 . S
H1389 C1381 0.960 . S
H1390 C1382 0.930 . S
H1391 C1383 0.929 . S
H1392 C1400 0.929 . S
H1393 C1402 0.930 . S
H1394 C1404 0.930 . S
H1395 C1407 0.929 . S
H1396 C1410 0.930 . S
H1397 C1412 0.960 . S
H1398 C1412 0.960 . S
H1399 C1412 0.960 . S
C1400 H1392 0.929 . S
C1400 C1401 1.377 . S
C1400 C1402 1.384 . S
C1401 C1400 1.377 . S
C1401 C1407 1.390 . S
C1402 H1393 0.930 . S
C1402 C1400 1.384 . S
C1402 C1403 1.372 . S
C1403 C1402 1.372 . S
C1403 C1404 1.400 . S
C1403 C1408 1.490 . S
C1404 H1394 0.930 . S
C1404 C1403 1.400 . S
C1404 C1407 1.386 . S
H1405 C1421 0.930 . S
H1406 C1422 0.931 . S
C1407 H1395 0.929 . S
C1407 C1401 1.390 . S
C1407 C1404 1.386 . S
C1408 C1403 1.490 . S
C1408 C1410 1.395 . S
C1408 C1411 1.403 . S
H1409 C1415 0.930 . S
C1410 H1396 0.930 . S
C1410 C1408 1.395 . S
C1410 C1413 1.403 . S
C1411 C1408 1.403 . S
C1411 C1412 1.524 . S
C1411 C1415 1.400 . S
C1412 H1397 0.960 . S
C1412 H1398 0.960 . S
C1412 H1399 0.960 . S
C1412 C1411 1.524 . S
C1413 C1410 1.403 . S
C1413 C1414 1.392 . S
C1413 C1417 1.495 . S
C1414 C1413 1.392 . S
C1414 C1415 1.385 . S
C1414 C1416 1.478 . S
C1415 H1409 0.930 . S
C1415 C1411 1.400 . S
C1415 C1414 1.385 . S
C1416 C1414 1.478 . S
C1416 C1418 1.381 . S
C1416 C1422 1.383 . S
C1417 C1413 1.495 . S
C1417 H1423 0.959 . S
C1417 H1424 0.961 . S
C1417 H1425 0.960 . S
C1418 C1416 1.381 . S
C1418 C1419 1.394 . S
C1418 H1426 0.930 . S
C1419 C1418 1.394 . S
C1419 C1420 1.383 . S
C1419 H1427 0.929 . S
C1420 C1419 1.383 . S
C1420 C1421 1.377 . S
C1421 H1405 0.930 . S
C1421 C1420 1.377 . S
C1421 C1422 1.379 . S
C1422 H1406 0.931 . S
C1422 C1416 1.383 . S
C1422 C1421 1.379 . S
H1423 C1417 0.959 . S
H1424 C1417 0.961 . S
H1425 C1417 0.960 . S
H1426 C1418 0.930 . S
H1427 C1419 0.929 . S
H1428 C1436 0.929 . S
H1429 C1438 0.930 . S
H1430 C1440 0.930 . S
H1431 C1443 0.929 . S
H1432 C1446 0.930 . S
H1433 C1448 0.960 . S
H1434 C1448 0.960 . S
H1435 C1448 0.960 . S
C1436 H1428 0.929 . S
C1436 C1437 1.377 . S
C1436 C1438 1.384 . S
C1437 C1436 1.377 . S
C1437 C1443 1.390 . S
C1438 H1429 0.930 . S
C1438 C1436 1.384 . S
C1438 C1439 1.372 . S
C1439 C1438 1.372 . S
C1439 C1440 1.400 . S
C1439 C1444 1.490 . S
C1440 H1430 0.930 . S
C1440 C1439 1.400 . S
C1440 C1443 1.386 . S
H1441 C1457 0.930 . S
H1442 C1458 0.931 . S
C1443 H1431 0.929 . S
C1443 C1437 1.390 . S
C1443 C1440 1.386 . S
C1444 C1439 1.490 . S
C1444 C1446 1.395 . S
C1444 C1447 1.403 . S
H1445 C1451 0.930 . S
C1446 H1432 0.930 . S
C1446 C1444 1.395 . S
C1446 C1449 1.403 . S
C1447 C1444 1.403 . S
C1447 C1448 1.524 . S
C1447 C1451 1.400 . S
C1448 H1433 0.960 . S
C1448 H1434 0.960 . S
C1448 H1435 0.960 . S
C1448 C1447 1.524 . S
C1449 C1446 1.403 . S
C1449 C1450 1.392 . S
C1449 C1453 1.495 . S
C1450 C1449 1.392 . S
C1450 C1451 1.385 . S
C1450 C1452 1.478 . S
C1451 H1445 0.930 . S
C1451 C1447 1.400 . S
C1451 C1450 1.385 . S
C1452 C1450 1.478 . S
C1452 C1454 1.381 . S
C1452 C1458 1.383 . S
C1453 C1449 1.495 . S
C1453 H1459 0.959 . S
C1453 H1460 0.961 . S
C1453 H1461 0.960 . S
C1454 C1452 1.381 . S
C1454 C1455 1.394 . S
C1454 H1462 0.930 . S
C1455 C1454 1.394 . S
C1455 C1456 1.383 . S
C1455 H1463 0.929 . S
C1456 C1455 1.383 . S
C1456 C1457 1.377 . S
C1457 H1441 0.930 . S
C1457 C1456 1.377 . S
C1457 C1458 1.379 . S
C1458 H1442 0.931 . S
C1458 C1452 1.383 . S
C1458 C1457 1.379 . S
H1459 C1453 0.959 . S
H1460 C1453 0.961 . S
H1461 C1453 0.960 . S
H1462 C1454 0.930 . S
H1463 C1455 0.929 . S
H1464 C1472 0.929 . S
H1465 C1474 0.930 . S
H1466 C1476 0.930 . S
H1467 C1479 0.929 . S
H1468 C1482 0.930 . S
H1469 C1484 0.960 . S
H1470 C1484 0.960 . S
H1471 C1484 0.960 . S
C1472 H1464 0.929 . S
C1472 C1473 1.377 . S
C1472 C1474 1.384 . S
C1473 C1472 1.377 . S
C1473 C1479 1.390 . S
C1474 H1465 0.930 . S
C1474 C1472 1.384 . S
C1474 C1475 1.372 . S
C1475 C1474 1.372 . S
C1475 C1476 1.400 . S
C1475 C1480 1.490 . S
C1476 H1466 0.930 . S
C1476 C1475 1.400 . S
C1476 C1479 1.386 . S
H1477 C1493 0.930 . S
H1478 C1494 0.931 . S
C1479 H1467 0.929 . S
C1479 C1473 1.390 . S
C1479 C1476 1.386 . S
C1480 C1475 1.490 . S
C1480 C1482 1.395 . S
C1480 C1483 1.403 . S
H1481 C1487 0.930 . S
C1482 H1468 0.930 . S
C1482 C1480 1.395 . S
C1482 C1485 1.403 . S
C1483 C1480 1.403 . S
C1483 C1484 1.524 . S
C1483 C1487 1.400 . S
C1484 H1469 0.960 . S
C1484 H1470 0.960 . S
C1484 H1471 0.960 . S
C1484 C1483 1.524 . S
C1485 C1482 1.403 . S
C1485 C1486 1.392 . S
C1485 C1489 1.495 . S
C1486 C1485 1.392 . S
C1486 C1487 1.385 . S
C1486 C1488 1.478 . S
C1487 H1481 0.930 . S
C1487 C1483 1.400 . S
C1487 C1486 1.385 . S
C1488 C1486 1.478 . S
C1488 C1490 1.381 . S
C1488 C1494 1.383 . S
C1489 C1485 1.495 . S
C1489 H1495 0.959 . S
C1489 H1496 0.961 . S
C1489 H1497 0.960 . S
C1490 C1488 1.381 . S
C1490 C1491 1.394 . S
C1490 H1498 0.930 . S
C1491 C1490 1.394 . S
C1491 C1492 1.383 . S
C1491 H1499 0.929 . S
C1492 C1491 1.383 . S
C1492 C1493 1.377 . S
C1493 H1477 0.930 . S
C1493 C1492 1.377 . S
C1493 C1494 1.379 . S
C1494 H1478 0.931 . S
C1494 C1488 1.383 . S
C1494 C1493 1.379 . S
H1495 C1489 0.959 . S
H1496 C1489 0.961 . S
H1497 C1489 0.960 . S
H1498 C1490 0.930 . S
H1499 C1491 0.929 . S
H1500 C1508 0.929 . S
H1501 C1510 0.930 . S
H1502 C1512 0.930 . S
H1503 C1515 0.929 . S
H1504 C1518 0.930 . S
H1505 C1520 0.960 . S
H1506 C1520 0.960 . S
H1507 C1520 0.960 . S
C1508 H1500 0.929 . S
C1508 C1509 1.377 . S
C1508 C1510 1.384 . S
C1509 C1508 1.377 . S
C1509 C1515 1.390 . S
C1510 H1501 0.930 . S
C1510 C1508 1.384 . S
C1510 C1511 1.372 . S
C1511 C1510 1.372 . S
C1511 C1512 1.400 . S
C1511 C1516 1.490 . S
C1512 H1502 0.930 . S
C1512 C1511 1.400 . S
C1512 C1515 1.386 . S
H1513 C1529 0.930 . S
H1514 C1530 0.931 . S
C1515 H1503 0.929 . S
C1515 C1509 1.390 . S
C1515 C1512 1.386 . S
C1516 C1511 1.490 . S
C1516 C1518 1.395 . S
C1516 C1519 1.403 . S
H1517 C1523 0.930 . S
C1518 H1504 0.930 . S
C1518 C1516 1.395 . S
C1518 C1521 1.403 . S
C1519 C1516 1.403 . S
C1519 C1520 1.524 . S
C1519 C1523 1.400 . S
C1520 H1505 0.960 . S
C1520 H1506 0.960 . S
C1520 H1507 0.960 . S
C1520 C1519 1.524 . S
C1521 C1518 1.403 . S
C1521 C1522 1.392 . S
C1521 C1525 1.495 . S
C1522 C1521 1.392 . S
C1522 C1523 1.385 . S
C1522 C1524 1.478 . S
C1523 H1517 0.930 . S
C1523 C1519 1.400 . S
C1523 C1522 1.385 . S
C1524 C1522 1.478 . S
C1524 C1526 1.381 . S
C1524 C1530 1.383 . S
C1525 C1521 1.495 . S
C1525 H1531 0.959 . S
C1525 H1532 0.961 . S
C1525 H1533 0.960 . S
C1526 C1524 1.381 . S
C1526 C1527 1.394 . S
C1526 H1534 0.930 . S
C1527 C1526 1.394 . S
C1527 C1528 1.383 . S
C1527 H1535 0.929 . S
C1528 C1527 1.383 . S
C1528 C1529 1.377 . S
C1529 H1513 0.930 . S
C1529 C1528 1.377 . S
C1529 C1530 1.379 . S
C1530 H1514 0.931 . S
C1530 C1524 1.383 . S
C1530 C1529 1.379 . S
H1531 C1525 0.959 . S
H1532 C1525 0.961 . S
H1533 C1525 0.960 . S
H1534 C1526 0.930 . S
H1535 C1527 0.929 . S
H1536 C1544 0.929 . S
H1537 C1546 0.930 . S
H1538 C1548 0.930 . S
H1539 C1551 0.929 . S
H1540 C1554 0.930 . S
H1541 C1556 0.960 . S
H1542 C1556 0.960 . S
H1543 C1556 0.960 . S
C1544 H1536 0.929 . S
C1544 C1545 1.377 . S
C1544 C1546 1.384 . S
C1545 C1544 1.377 . S
C1545 C1551 1.390 . S
C1546 H1537 0.930 . S
C1546 C1544 1.384 . S
C1546 C1547 1.372 . S
C1547 C1546 1.372 . S
C1547 C1548 1.400 . S
C1547 C1552 1.490 . S
C1548 H1538 0.930 . S
C1548 C1547 1.400 . S
C1548 C1551 1.386 . S
H1549 C1565 0.930 . S
H1550 C1566 0.931 . S
C1551 H1539 0.929 . S
C1551 C1545 1.390 . S
C1551 C1548 1.386 . S
C1552 C1547 1.490 . S
C1552 C1554 1.395 . S
C1552 C1555 1.403 . S
H1553 C1559 0.930 . S
C1554 H1540 0.930 . S
C1554 C1552 1.395 . S
C1554 C1557 1.403 . S
C1555 C1552 1.403 . S
C1555 C1556 1.524 . S
C1555 C1559 1.400 . S
C1556 H1541 0.960 . S
C1556 H1542 0.960 . S
C1556 H1543 0.960 . S
C1556 C1555 1.524 . S
C1557 C1554 1.403 . S
C1557 C1558 1.392 . S
C1557 C1561 1.495 . S
C1558 C1557 1.392 . S
C1558 C1559 1.385 . S
C1558 C1560 1.478 . S
C1559 H1553 0.930 . S
C1559 C1555 1.400 . S
C1559 C1558 1.385 . S
C1560 C1558 1.478 . S
C1560 C1562 1.381 . S
C1560 C1566 1.383 . S
C1561 C1557 1.495 . S
C1561 H1567 0.959 . S
C1561 H1568 0.961 . S
C1561 H1569 0.960 . S
C1562 C1560 1.381 . S
C1562 C1563 1.394 . S
C1562 H1570 0.930 . S
C1563 C1562 1.394 . S
C1563 C1564 1.383 . S
C1563 H1571 0.929 . S
C1564 C1563 1.383 . S
C1564 C1565 1.377 . S
C1565 H1549 0.930 . S
C1565 C1564 1.377 . S
C1565 C1566 1.379 . S
C1566 H1550 0.931 . S
C1566 C1560 1.383 . S
C1566 C1565 1.379 . S
H1567 C1561 0.959 . S
H1568 C1561 0.961 . S
H1569 C1561 0.960 . S
H1570 C1562 0.930 . S
H1571 C1563 0.929 . S
H1572 C1580 0.929 . S
H1573 C1582 0.930 . S
H1574 C1584 0.930 . S
H1575 C1587 0.929 . S
H1576 C1590 0.930 . S
H1577 C1592 0.960 . S
H1578 C1592 0.960 . S
H1579 C1592 0.960 . S
C1580 H1572 0.929 . S
C1580 C1581 1.377 . S
C1580 C1582 1.384 . S
C1581 C1580 1.377 . S
C1581 C1587 1.390 . S
C1582 H1573 0.930 . S
C1582 C1580 1.384 . S
C1582 C1583 1.372 . S
C1583 C1582 1.372 . S
C1583 C1584 1.400 . S
C1583 C1588 1.490 . S
C1584 H1574 0.930 . S
C1584 C1583 1.400 . S
C1584 C1587 1.386 . S
H1585 C1601 0.930 . S
H1586 C1602 0.931 . S
C1587 H1575 0.929 . S
C1587 C1581 1.390 . S
C1587 C1584 1.386 . S
C1588 C1583 1.490 . S
C1588 C1590 1.395 . S
C1588 C1591 1.403 . S
H1589 C1595 0.930 . S
C1590 H1576 0.930 . S
C1590 C1588 1.395 . S
C1590 C1593 1.403 . S
C1591 C1588 1.403 . S
C1591 C1592 1.524 . S
C1591 C1595 1.400 . S
C1592 H1577 0.960 . S
C1592 H1578 0.960 . S
C1592 H1579 0.960 . S
C1592 C1591 1.524 . S
C1593 C1590 1.403 . S
C1593 C1594 1.392 . S
C1593 C1597 1.495 . S
C1594 C1593 1.392 . S
C1594 C1595 1.385 . S
C1594 C1596 1.478 . S
C1595 H1589 0.930 . S
C1595 C1591 1.400 . S
C1595 C1594 1.385 . S
C1596 C1594 1.478 . S
C1596 C1598 1.381 . S
C1596 C1602 1.383 . S
C1597 C1593 1.495 . S
C1597 H1603 0.959 . S
C1597 H1604 0.961 . S
C1597 H1605 0.960 . S
C1598 C1596 1.381 . S
C1598 C1599 1.394 . S
C1598 H1606 0.930 . S
C1599 C1598 1.394 . S
C1599 C1600 1.383 . S
C1599 H1607 0.929 . S
C1600 C1599 1.383 . S
C1600 C1601 1.377 . S
C1601 H1585 0.930 . S
C1601 C1600 1.377 . S
C1601 C1602 1.379 . S
C1602 H1586 0.931 . S
C1602 C1596 1.383 . S
C1602 C1601 1.379 . S
H1603 C1597 0.959 . S
H1604 C1597 0.961 . S
H1605 C1597 0.960 . S
H1606 C1598 0.930 . S
H1607 C1599 0.929 . S
H1608 C1616 0.929 . S
H1609 C1618 0.930 . S
H1610 C1620 0.930 . S
H1611 C1623 0.929 . S
H1612 C1626 0.930 . S
H1613 C1628 0.960 . S
H1614 C1628 0.960 . S
H1615 C1628 0.960 . S
C1616 H1608 0.929 . S
C1616 C1617 1.377 . S
C1616 C1618 1.384 . S
C1617 C1616 1.377 . S
C1617 C1623 1.390 . S
C1618 H1609 0.930 . S
C1618 C1616 1.384 . S
C1618 C1619 1.372 . S
C1619 C1618 1.372 . S
C1619 C1620 1.400 . S
C1619 C1624 1.490 . S
C1620 H1610 0.930 . S
C1620 C1619 1.400 . S
C1620 C1623 1.386 . S
H1621 C1637 0.930 . S
H1622 C1638 0.931 . S
C1623 H1611 0.929 . S
C1623 C1617 1.390 . S
C1623 C1620 1.386 . S
C1624 C1619 1.490 . S
C1624 C1626 1.395 . S
C1624 C1627 1.403 . S
H1625 C1631 0.930 . S
C1626 H1612 0.930 . S
C1626 C1624 1.395 . S
C1626 C1629 1.403 . S
C1627 C1624 1.403 . S
C1627 C1628 1.524 . S
C1627 C1631 1.400 . S
C1628 H1613 0.960 . S
C1628 H1614 0.960 . S
C1628 H1615 0.960 . S
C1628 C1627 1.524 . S
C1629 C1626 1.403 . S
C1629 C1630 1.392 . S
C1629 C1633 1.495 . S
C1630 C1629 1.392 . S
C1630 C1631 1.385 . S
C1630 C1632 1.478 . S
C1631 H1625 0.930 . S
C1631 C1627 1.400 . S
C1631 C1630 1.385 . S
C1632 C1630 1.478 . S
C1632 C1634 1.381 . S
C1632 C1638 1.383 . S
C1633 C1629 1.495 . S
C1633 H1639 0.959 . S
C1633 H1640 0.961 . S
C1633 H1641 0.960 . S
C1634 C1632 1.381 . S
C1634 C1635 1.394 . S
C1634 H1642 0.930 . S
C1635 C1634 1.394 . S
C1635 C1636 1.383 . S
C1635 H1643 0.929 . S
C1636 C1635 1.383 . S
C1636 C1637 1.377 . S
C1637 H1621 0.930 . S
C1637 C1636 1.377 . S
C1637 C1638 1.379 . S
C1638 H1622 0.931 . S
C1638 C1632 1.383 . S
C1638 C1637 1.379 . S
H1639 C1633 0.959 . S
H1640 C1633 0.961 . S
H1641 C1633 0.960 . S
H1642 C1634 0.930 . S
H1643 C1635 0.929 . S
H1644 C1652 0.929 . S
H1645 C1654 0.930 . S
H1646 C1656 0.930 . S
H1647 C1659 0.929 . S
H1648 C1662 0.930 . S
H1649 C1664 0.960 . S
H1650 C1664 0.960 . S
H1651 C1664 0.960 . S
C1652 H1644 0.929 . S
C1652 C1653 1.377 . S
C1652 C1654 1.384 . S
C1653 C1652 1.377 . S
C1653 C1659 1.390 . S
C1654 H1645 0.930 . S
C1654 C1652 1.384 . S
C1654 C1655 1.372 . S
C1655 C1654 1.372 . S
C1655 C1656 1.400 . S
C1655 C1660 1.490 . S
C1656 H1646 0.930 . S
C1656 C1655 1.400 . S
C1656 C1659 1.386 . S
H1657 C1673 0.930 . S
H1658 C1674 0.931 . S
C1659 H1647 0.929 . S
C1659 C1653 1.390 . S
C1659 C1656 1.386 . S
C1660 C1655 1.490 . S
C1660 C1662 1.395 . S
C1660 C1663 1.403 . S
H1661 C1667 0.930 . S
C1662 H1648 0.930 . S
C1662 C1660 1.395 . S
C1662 C1665 1.403 . S
C1663 C1660 1.403 . S
C1663 C1664 1.524 . S
C1663 C1667 1.400 . S
C1664 H1649 0.960 . S
C1664 H1650 0.960 . S
C1664 H1651 0.960 . S
C1664 C1663 1.524 . S
C1665 C1662 1.403 . S
C1665 C1666 1.392 . S
C1665 C1669 1.495 . S
C1666 C1665 1.392 . S
C1666 C1667 1.385 . S
C1666 C1668 1.478 . S
C1667 H1661 0.930 . S
C1667 C1663 1.400 . S
C1667 C1666 1.385 . S
C1668 C1666 1.478 . S
C1668 C1670 1.381 . S
C1668 C1674 1.383 . S
C1669 C1665 1.495 . S
C1669 H1675 0.959 . S
C1669 H1676 0.961 . S
C1669 H1677 0.960 . S
C1670 C1668 1.381 . S
C1670 C1671 1.394 . S
C1670 H1678 0.930 . S
C1671 C1670 1.394 . S
C1671 C1672 1.383 . S
C1671 H1679 0.929 . S
C1672 C1671 1.383 . S
C1672 C1673 1.377 . S
C1673 H1657 0.930 . S
C1673 C1672 1.377 . S
C1673 C1674 1.379 . S
C1674 H1658 0.931 . S
C1674 C1668 1.383 . S
C1674 C1673 1.379 . S
H1675 C1669 0.959 . S
H1676 C1669 0.961 . S
H1677 C1669 0.960 . S
H1678 C1670 0.930 . S
H1679 C1671 0.929 . S
H1680 C1688 0.929 . S
H1681 C1690 0.930 . S
H1682 C1692 0.930 . S
H1683 C1695 0.929 . S
H1684 C1698 0.930 . S
H1685 C1700 0.960 . S
H1686 C1700 0.960 . S
H1687 C1700 0.960 . S
C1688 H1680 0.929 . S
C1688 C1689 1.377 . S
C1688 C1690 1.384 . S
C1689 C1688 1.377 . S
C1689 C1695 1.390 . S
C1690 H1681 0.930 . S
C1690 C1688 1.384 . S
C1690 C1691 1.372 . S
C1691 C1690 1.372 . S
C1691 C1692 1.400 . S
C1691 C1696 1.490 . S
C1692 H1682 0.930 . S
C1692 C1691 1.400 . S
C1692 C1695 1.386 . S
H1693 C1709 0.930 . S
H1694 C1710 0.931 . S
C1695 H1683 0.929 . S
C1695 C1689 1.390 . S
C1695 C1692 1.386 . S
C1696 C1691 1.490 . S
C1696 C1698 1.395 . S
C1696 C1699 1.403 . S
H1697 C1703 0.930 . S
C1698 H1684 0.930 . S
C1698 C1696 1.395 . S
C1698 C1701 1.403 . S
C1699 C1696 1.403 . S
C1699 C1700 1.524 . S
C1699 C1703 1.400 . S
C1700 H1685 0.960 . S
C1700 H1686 0.960 . S
C1700 H1687 0.960 . S
C1700 C1699 1.524 . S
C1701 C1698 1.403 . S
C1701 C1702 1.392 . S
C1701 C1705 1.495 . S
C1702 C1701 1.392 . S
C1702 C1703 1.385 . S
C1702 C1704 1.478 . S
C1703 H1697 0.930 . S
C1703 C1699 1.400 . S
C1703 C1702 1.385 . S
C1704 C1702 1.478 . S
C1704 C1706 1.381 . S
C1704 C1710 1.383 . S
C1705 C1701 1.495 . S
C1705 H1711 0.959 . S
C1705 H1712 0.961 . S
C1705 H1713 0.960 . S
C1706 C1704 1.381 . S
C1706 C1707 1.394 . S
C1706 H1714 0.930 . S
C1707 C1706 1.394 . S
C1707 C1708 1.383 . S
C1707 H1715 0.929 . S
C1708 C1707 1.383 . S
C1708 C1709 1.377 . S
C1709 H1693 0.930 . S
C1709 C1708 1.377 . S
C1709 C1710 1.379 . S
C1710 H1694 0.931 . S
C1710 C1704 1.383 . S
C1710 C1709 1.379 . S
H1711 C1705 0.959 . S
H1712 C1705 0.961 . S
H1713 C1705 0.960 . S
H1714 C1706 0.930 . S
H1715 C1707 0.929 . S
H1716 C1724 0.929 . S
H1717 C1726 0.930 . S
H1718 C1728 0.930 . S
H1719 C1731 0.929 . S
H1720 C1734 0.930 . S
H1721 C1736 0.960 . S
H1722 C1736 0.960 . S
H1723 C1736 0.960 . S
C1724 H1716 0.929 . S
C1724 C1725 1.377 . S
C1724 C1726 1.384 . S
C1725 C1724 1.377 . S
C1725 C1731 1.390 . S
C1726 H1717 0.930 . S
C1726 C1724 1.384 . S
C1726 C1727 1.372 . S
C1727 C1726 1.372 . S
C1727 C1728 1.400 . S
C1727 C1732 1.490 . S
C1728 H1718 0.930 . S
C1728 C1727 1.400 . S
C1728 C1731 1.386 . S
H1729 C1745 0.930 . S
H1730 C1746 0.931 . S
C1731 H1719 0.929 . S
C1731 C1725 1.390 . S
C1731 C1728 1.386 . S
C1732 C1727 1.490 . S
C1732 C1734 1.395 . S
C1732 C1735 1.403 . S
H1733 C1739 0.930 . S
C1734 H1720 0.930 . S
C1734 C1732 1.395 . S
C1734 C1737 1.403 . S
C1735 C1732 1.403 . S
C1735 C1736 1.524 . S
C1735 C1739 1.400 . S
C1736 H1721 0.960 . S
C1736 H1722 0.960 . S
C1736 H1723 0.960 . S
C1736 C1735 1.524 . S
C1737 C1734 1.403 . S
C1737 C1738 1.392 . S
C1737 C1741 1.495 . S
C1738 C1737 1.392 . S
C1738 C1739 1.385 . S
C1738 C1740 1.478 . S
C1739 H1733 0.930 . S
C1739 C1735 1.400 . S
C1739 C1738 1.385 . S
C1740 C1738 1.478 . S
C1740 C1742 1.381 . S
C1740 C1746 1.383 . S
C1741 C1737 1.495 . S
C1741 H1747 0.959 . S
C1741 H1748 0.961 . S
C1741 H1749 0.960 . S
C1742 C1740 1.381 . S
C1742 C1743 1.394 . S
C1742 H1750 0.930 . S
C1743 C1742 1.394 . S
C1743 C1744 1.383 . S
C1743 H1751 0.929 . S
C1744 C1743 1.383 . S
C1744 C1745 1.377 . S
C1745 H1729 0.930 . S
C1745 C1744 1.377 . S
C1745 C1746 1.379 . S
C1746 H1730 0.931 . S
C1746 C1740 1.383 . S
C1746 C1745 1.379 . S
H1747 C1741 0.959 . S
H1748 C1741 0.961 . S
H1749 C1741 0.960 . S
H1750 C1742 0.930 . S
H1751 C1743 0.929 . S
H1752 C1760 0.929 . S
H1753 C1762 0.930 . S
H1754 C1764 0.930 . S
H1755 C1767 0.929 . S
H1756 C1770 0.930 . S
H1757 C1772 0.960 . S
H1758 C1772 0.960 . S
H1759 C1772 0.960 . S
C1760 H1752 0.929 . S
C1760 C1761 1.377 . S
C1760 C1762 1.384 . S
C1761 C1760 1.377 . S
C1761 C1767 1.390 . S
C1762 H1753 0.930 . S
C1762 C1760 1.384 . S
C1762 C1763 1.372 . S
C1763 C1762 1.372 . S
C1763 C1764 1.400 . S
C1763 C1768 1.490 . S
C1764 H1754 0.930 . S
C1764 C1763 1.400 . S
C1764 C1767 1.386 . S
H1765 C1781 0.930 . S
H1766 C1782 0.931 . S
C1767 H1755 0.929 . S
C1767 C1761 1.390 . S
C1767 C1764 1.386 . S
C1768 C1763 1.490 . S
C1768 C1770 1.395 . S
C1768 C1771 1.403 . S
H1769 C1775 0.930 . S
C1770 H1756 0.930 . S
C1770 C1768 1.395 . S
C1770 C1773 1.403 . S
C1771 C1768 1.403 . S
C1771 C1772 1.524 . S
C1771 C1775 1.400 . S
C1772 H1757 0.960 . S
C1772 H1758 0.960 . S
C1772 H1759 0.960 . S
C1772 C1771 1.524 . S
C1773 C1770 1.403 . S
C1773 C1774 1.392 . S
C1773 C1777 1.495 . S
C1774 C1773 1.392 . S
C1774 C1775 1.385 . S
C1774 C1776 1.478 . S
C1775 H1769 0.930 . S
C1775 C1771 1.400 . S
C1775 C1774 1.385 . S
C1776 C1774 1.478 . S
C1776 C1778 1.381 . S
C1776 C1782 1.383 . S
C1777 C1773 1.495 . S
C1777 H1783 0.959 . S
C1777 H1784 0.961 . S
C1777 H1785 0.960 . S
C1778 C1776 1.381 . S
C1778 C1779 1.394 . S
C1778 H1786 0.930 . S
C1779 C1778 1.394 . S
C1779 C1780 1.383 . S
C1779 H1787 0.929 . S
C1780 C1779 1.383 . S
C1780 C1781 1.377 . S
C1781 H1765 0.930 . S
C1781 C1780 1.377 . S
C1781 C1782 1.379 . S
C1782 H1766 0.931 . S
C1782 C1776 1.383 . S
C1782 C1781 1.379 . S
H1783 C1777 0.959 . S
H1784 C1777 0.961 . S
H1785 C1777 0.960 . S
H1786 C1778 0.930 . S
H1787 C1779 0.929 . S
H1788 C1796 0.929 . S
H1789 C1798 0.930 . S
H1790 C1800 0.930 . S
H1791 C1803 0.929 . S
H1792 C1806 0.930 . S
H1793 C1808 0.960 . S
H1794 C1808 0.960 . S
H1795 C1808 0.960 . S
C1796 H1788 0.929 . S
C1796 C1797 1.377 . S
C1796 C1798 1.384 . S
C1797 C1796 1.377 . S
C1797 C1803 1.390 . S
C1798 H1789 0.930 . S
C1798 C1796 1.384 . S
C1798 C1799 1.372 . S
C1799 C1798 1.372 . S
C1799 C1800 1.400 . S
C1799 C1804 1.490 . S
C1800 H1790 0.930 . S
C1800 C1799 1.400 . S
C1800 C1803 1.386 . S
H1801 C1817 0.930 . S
H1802 C1818 0.931 . S
C1803 H1791 0.929 . S
C1803 C1797 1.390 . S
C1803 C1800 1.386 . S
C1804 C1799 1.490 . S
C1804 C1806 1.395 . S
C1804 C1807 1.403 . S
H1805 C1811 0.930 . S
C1806 H1792 0.930 . S
C1806 C1804 1.395 . S
C1806 C1809 1.403 . S
C1807 C1804 1.403 . S
C1807 C1808 1.524 . S
C1807 C1811 1.400 . S
C1808 H1793 0.960 . S
C1808 H1794 0.960 . S
C1808 H1795 0.960 . S
C1808 C1807 1.524 . S
C1809 C1806 1.403 . S
C1809 C1810 1.392 . S
C1809 C1813 1.495 . S
C1810 C1809 1.392 . S
C1810 C1811 1.385 . S
C1810 C1812 1.478 . S
C1811 H1805 0.930 . S
C1811 C1807 1.400 . S
C1811 C1810 1.385 . S
C1812 C1810 1.478 . S
C1812 C1814 1.381 . S
C1812 C1818 1.383 . S
C1813 C1809 1.495 . S
C1813 H1819 0.959 . S
C1813 H1820 0.961 . S
C1813 H1821 0.960 . S
C1814 C1812 1.381 . S
C1814 C1815 1.394 . S
C1814 H1822 0.930 . S
C1815 C1814 1.394 . S
C1815 C1816 1.383 . S
C1815 H1823 0.929 . S
C1816 C1815 1.383 . S
C1816 C1817 1.377 . S
C1817 H1801 0.930 . S
C1817 C1816 1.377 . S
C1817 C1818 1.379 . S
C1818 H1802 0.931 . S
C1818 C1812 1.383 . S
C1818 C1817 1.379 . S
H1819 C1813 0.959 . S
H1820 C1813 0.961 . S
H1821 C1813 0.960 . S
H1822 C1814 0.930 . S
H1823 C1815 0.929 . S
H1824 C1832 0.929 . S
H1825 C1834 0.930 . S
H1826 C1836 0.930 . S
H1827 C1839 0.929 . S
H1828 C1842 0.930 . S
H1829 C1844 0.960 . S
H1830 C1844 0.960 . S
H1831 C1844 0.960 . S
C1832 H1824 0.929 . S
C1832 C1833 1.377 . S
C1832 C1834 1.384 . S
C1833 C1832 1.377 . S
C1833 C1839 1.390 . S
C1834 H1825 0.930 . S
C1834 C1832 1.384 . S
C1834 C1835 1.372 . S
C1835 C1834 1.372 . S
C1835 C1836 1.400 . S
C1835 C1840 1.490 . S
C1836 H1826 0.930 . S
C1836 C1835 1.400 . S
C1836 C1839 1.386 . S
H1837 C1853 0.930 . S
H1838 C1854 0.931 . S
C1839 H1827 0.929 . S
C1839 C1833 1.390 . S
C1839 C1836 1.386 . S
C1840 C1835 1.490 . S
C1840 C1842 1.395 . S
C1840 C1843 1.403 . S
H1841 C1847 0.930 . S
C1842 H1828 0.930 . S
C1842 C1840 1.395 . S
C1842 C1845 1.403 . S
C1843 C1840 1.403 . S
C1843 C1844 1.524 . S
C1843 C1847 1.400 . S
C1844 H1829 0.960 . S
C1844 H1830 0.960 . S
C1844 H1831 0.960 . S
C1844 C1843 1.524 . S
C1845 C1842 1.403 . S
C1845 C1846 1.392 . S
C1845 C1849 1.495 . S
C1846 C1845 1.392 . S
C1846 C1847 1.385 . S
C1846 C1848 1.478 . S
C1847 H1841 0.930 . S
C1847 C1843 1.400 . S
C1847 C1846 1.385 . S
C1848 C1846 1.478 . S
C1848 C1850 1.381 . S
C1848 C1854 1.383 . S
C1849 C1845 1.495 . S
C1849 H1855 0.959 . S
C1849 H1856 0.961 . S
C1849 H1857 0.960 . S
C1850 C1848 1.381 . S
C1850 C1851 1.394 . S
C1850 H1858 0.930 . S
C1851 C1850 1.394 . S
C1851 C1852 1.383 . S
C1851 H1859 0.929 . S
C1852 C1851 1.383 . S
C1852 C1853 1.377 . S
C1853 H1837 0.930 . S
C1853 C1852 1.377 . S
C1853 C1854 1.379 . S
C1854 H1838 0.931 . S
C1854 C1848 1.383 . S
C1854 C1853 1.379 . S
H1855 C1849 0.959 . S
H1856 C1849 0.961 . S
H1857 C1849 0.960 . S
H1858 C1850 0.930 . S
H1859 C1851 0.929 . S
H1860 C1868 0.929 . S
H1861 C1870 0.930 . S
H1862 C1872 0.930 . S
H1863 C1875 0.929 . S
H1864 C1878 0.930 . S
H1865 C1880 0.960 . S
H1866 C1880 0.960 . S
H1867 C1880 0.960 . S
C1868 H1860 0.929 . S
C1868 C1869 1.377 . S
C1868 C1870 1.384 . S
C1869 C1868 1.377 . S
C1869 C1875 1.390 . S
C1870 H1861 0.930 . S
C1870 C1868 1.384 . S
C1870 C1871 1.372 . S
C1871 C1870 1.372 . S
C1871 C1872 1.400 . S
C1871 C1876 1.490 . S
C1872 H1862 0.930 . S
C1872 C1871 1.400 . S
C1872 C1875 1.386 . S
H1873 C1889 0.930 . S
H1874 C1890 0.931 . S
C1875 H1863 0.929 . S
C1875 C1869 1.390 . S
C1875 C1872 1.386 . S
C1876 C1871 1.490 . S
C1876 C1878 1.395 . S
C1876 C1879 1.403 . S
H1877 C1883 0.930 . S
C1878 H1864 0.930 . S
C1878 C1876 1.395 . S
C1878 C1881 1.403 . S
C1879 C1876 1.403 . S
C1879 C1880 1.524 . S
C1879 C1883 1.400 . S
C1880 H1865 0.960 . S
C1880 H1866 0.960 . S
C1880 H1867 0.960 . S
C1880 C1879 1.524 . S
C1881 C1878 1.403 . S
C1881 C1882 1.392 . S
C1881 C1885 1.495 . S
C1882 C1881 1.392 . S
C1882 C1883 1.385 . S
C1882 C1884 1.478 . S
C1883 H1877 0.930 . S
C1883 C1879 1.400 . S
C1883 C1882 1.385 . S
C1884 C1882 1.478 . S
C1884 C1886 1.381 . S
C1884 C1890 1.383 . S
C1885 C1881 1.495 . S
C1885 H1891 0.959 . S
C1885 H1892 0.961 . S
C1885 H1893 0.960 . S
C1886 C1884 1.381 . S
C1886 C1887 1.394 . S
C1886 H1894 0.930 . S
C1887 C1886 1.394 . S
C1887 C1888 1.383 . S
C1887 H1895 0.929 . S
C1888 C1887 1.383 . S
C1888 C1889 1.377 . S
C1889 H1873 0.930 . S
C1889 C1888 1.377 . S
C1889 C1890 1.379 . S
C1890 H1874 0.931 . S
C1890 C1884 1.383 . S
C1890 C1889 1.379 . S
H1891 C1885 0.959 . S
H1892 C1885 0.961 . S
H1893 C1885 0.960 . S
H1894 C1886 0.930 . S
H1895 C1887 0.929 . S
H1896 C1904 0.929 . S
H1897 C1906 0.930 . S
H1898 C1908 0.930 . S
H1899 C1911 0.929 . S
H1900 C1914 0.930 . S
H1901 C1916 0.960 . S
H1902 C1916 0.960 . S
H1903 C1916 0.960 . S
C1904 H1896 0.929 . S
C1904 C1905 1.377 . S
C1904 C1906 1.384 . S
C1905 C1904 1.377 . S
C1905 C1911 1.390 . S
C1906 H1897 0.930 . S
C1906 C1904 1.384 . S
C1906 C1907 1.372 . S
C1907 C1906 1.372 . S
C1907 C1908 1.400 . S
C1907 C1912 1.490 . S
C1908 H1898 0.930 . S
C1908 C1907 1.400 . S
C1908 C1911 1.386 . S
H1909 C1925 0.930 . S
H1910 C1926 0.931 . S
C1911 H1899 0.929 . S
C1911 C1905 1.390 . S
C1911 C1908 1.386 . S
C1912 C1907 1.490 . S
C1912 C1914 1.395 . S
C1912 C1915 1.403 . S
H1913 C1919 0.930 . S
C1914 H1900 0.930 . S
C1914 C1912 1.395 . S
C1914 C1917 1.403 . S
C1915 C1912 1.403 . S
C1915 C1916 1.524 . S
C1915 C1919 1.400 . S
C1916 H1901 0.960 . S
C1916 H1902 0.960 . S
C1916 H1903 0.960 . S
C1916 C1915 1.524 . S
C1917 C1914 1.403 . S
C1917 C1918 1.392 . S
C1917 C1921 1.495 . S
C1918 C1917 1.392 . S
C1918 C1919 1.385 . S
C1918 C1920 1.478 . S
C1919 H1913 0.930 . S
C1919 C1915 1.400 . S
C1919 C1918 1.385 . S
C1920 C1918 1.478 . S
C1920 C1922 1.381 . S
C1920 C1926 1.383 . S
C1921 C1917 1.495 . S
C1921 H1927 0.959 . S
C1921 H1928 0.961 . S
C1921 H1929 0.960 . S
C1922 C1920 1.381 . S
C1922 C1923 1.394 . S
C1922 H1930 0.930 . S
C1923 C1922 1.394 . S
C1923 C1924 1.383 . S
C1923 H1931 0.929 . S
C1924 C1923 1.383 . S
C1924 C1925 1.377 . S
C1925 H1909 0.930 . S
C1925 C1924 1.377 . S
C1925 C1926 1.379 . S
C1926 H1910 0.931 . S
C1926 C1920 1.383 . S
C1926 C1925 1.379 . S
H1927 C1921 0.959 . S
H1928 C1921 0.961 . S
H1929 C1921 0.960 . S
H1930 C1922 0.930 . S
H1931 C1923 0.929 . S
H1932 C1940 0.929 . S
H1933 C1942 0.930 . S
H1934 C1944 0.930 . S
H1935 C1947 0.929 . S
H1936 C1950 0.930 . S
H1937 C1952 0.960 . S
H1938 C1952 0.960 . S
H1939 C1952 0.960 . S
C1940 H1932 0.929 . S
C1940 C1941 1.377 . S
C1940 C1942 1.384 . S
C1941 C1940 1.377 . S
C1941 C1947 1.390 . S
C1942 H1933 0.930 . S
C1942 C1940 1.384 . S
C1942 C1943 1.372 . S
C1943 C1942 1.372 . S
C1943 C1944 1.400 . S
C1943 C1948 1.490 . S
C1944 H1934 0.930 . S
C1944 C1943 1.400 . S
C1944 C1947 1.386 . S
H1945 C1961 0.930 . S
H1946 C1962 0.931 . S
C1947 H1935 0.929 . S
C1947 C1941 1.390 . S
C1947 C1944 1.386 . S
C1948 C1943 1.490 . S
C1948 C1950 1.395 . S
C1948 C1951 1.403 . S
H1949 C1955 0.930 . S
C1950 H1936 0.930 . S
C1950 C1948 1.395 . S
C1950 C1953 1.403 . S
C1951 C1948 1.403 . S
C1951 C1952 1.524 . S
C1951 C1955 1.400 . S
C1952 H1937 0.960 . S
C1952 H1938 0.960 . S
C1952 H1939 0.960 . S
C1952 C1951 1.524 . S
C1953 C1950 1.403 . S
C1953 C1954 1.392 . S
C1953 C1957 1.495 . S
C1954 C1953 1.392 . S
C1954 C1955 1.385 . S
C1954 C1956 1.478 . S
C1955 H1949 0.930 . S
C1955 C1951 1.400 . S
C1955 C1954 1.385 . S
C1956 C1954 1.478 . S
C1956 C1958 1.381 . S
C1956 C1962 1.383 . S
C1957 C1953 1.495 . S
C1957 H1963 0.959 . S
C1957 H1964 0.961 . S
C1957 H1965 0.960 . S
C1958 C1956 1.381 . S
C1958 C1959 1.394 . S
C1958 H1966 0.930 . S
C1959 C1958 1.394 . S
C1959 C1960 1.383 . S
C1959 H1967 0.929 . S
C1960 C1959 1.383 . S
C1960 C1961 1.377 . S
C1961 H1945 0.930 . S
C1961 C1960 1.377 . S
C1961 C1962 1.379 . S
C1962 H1946 0.931 . S
C1962 C1956 1.383 . S
C1962 C1961 1.379 . S
H1963 C1957 0.959 . S
H1964 C1957 0.961 . S
H1965 C1957 0.960 . S
H1966 C1958 0.930 . S
H1967 C1959 0.929 . S
C537 N14 1.666 . S
C556 N476 1.646 . S
C573 N71 1.608 . S
C592 N5 1.612 . S
C609 N47 1.670 . S
C628 N377 1.655 . S
C645 N236 1.608 . S
C664 N38 1.603 . S
C681 N80 1.670 . S
C700 N410 1.655 . S
C717 N113 1.671 . S
C736 N311 1.665 . S
C753 N104 1.603 . S
C772 N170 1.593 . S
C789 N344 1.669 . S
C808 N146 1.653 . S
C825 N203 1.605 . S
C844 N137 1.591 . S
C861 N179 1.664 . S
C880 N509 1.653 . S
C897 N278 1.667 . S
C916 N212 1.647 . S
C933 N443 1.671 . S
C952 N245 1.676 . S
C969 N269 1.605 . S
C988 N335 1.591 . S
C1005 N500 1.604 . S
C1024 N302 1.592 . S
C1041 N368 1.604 . S
C1060 N434 1.608 . S
C1077 N401 1.603 . S
C1096 N467 1.595 . S
C1113 C8 1.149 . S
C1132 C314 1.145 . S
C1149 C305 1.148 . S
C1168 C17 1.139 . S
C1185 C41 1.150 . S
C1204 C281 1.131 . S
C1221 C50 1.146 . S
C1240 C272 1.138 . S
C1257 C380 1.153 . S
C1276 C74 1.134 . S
C1293 C371 1.150 . S
C1312 C83 1.160 . S
C1329 C107 1.152 . S
C1348 C347 1.147 . S
C1365 C116 1.153 . S
C1384 C338 1.134 . S
C1401 C140 1.150 . S
C1420 C446 1.133 . S
C1437 C437 1.149 . S
C1456 C149 1.144 . S
C1473 C173 1.153 . S
C1492 C413 1.145 . S
C1509 C404 1.148 . S
C1528 C182 1.136 . S
C1545 C512 1.153 . S
C1564 C206 1.135 . S
C1581 C215 1.151 . S
C1600 C503 1.141 . S
C1617 C239 1.151 . S
C1636 C479 1.156 . S
C1653 C248 1.146 . S
C1672 C470 1.165 . S
C1689 C61 0.806 . S
C1708 C28 0.809 . S
C1725 C94 0.808 . S
C1744 C127 0.799 . S
C1761 C160 0.806 . S
C1780 C193 0.810 . S
C1797 C226 0.806 . S
C1816 C259 0.807 . S
C1833 C325 0.809 . S
C1852 C292 0.807 . S
C1869 C391 0.808 . S
C1888 C358 0.813 . S
C1905 C424 0.809 . S
C1924 C457 0.800 . S
C1941 C523 0.807 . S
C1960 C490 0.802 . S
