# Generated by pormake.
# Topology rac, (4)-cn, num edge types: 1
# Building blocks:
#     Node 0, Type 0, BuildingBlock: AZAVOO_clean_sbu_0, # of connection points: 4
#     Node 1, Type 0, BuildingBlock: AZAVOO_clean_sbu_0, # of connection points: 4
#     Node 2, Type 0, BuildingBlock: AZAVOO_clean_sbu_0, # of connection points: 4
#     Node 3, Type 0, BuildingBlock: AZAVOO_clean_sbu_0, # of connection points: 4
#     Node 4, Type 0, BuildingBlock: AZAVOO_clean_sbu_0, # of connection points: 4
#     Node 5, Type 0, BuildingBlock: AZAVOO_clean_sbu_0, # of connection points: 4
#     Node 6, Type 0, BuildingBlock: AZAVOO_clean_sbu_0, # of connection points: 4
#     Node 7, Type 0, BuildingBlock: AZAVOO_clean_sbu_0, # of connection points: 4
#     Edge 8, Type (0, 0), BuildingBlock: ZUJKAS_clean_linker_0, # of connection points: 2
#     Edge 9, Type (0, 0), BuildingBlock: ZUJKAS_clean_linker_0, # of connection points: 2
#     Edge 10, Type (0, 0), BuildingBlock: ZUJKAS_clean_linker_0, # of connection points: 2
#     Edge 11, Type (0, 0), BuildingBlock: ZUJKAS_clean_linker_0, # of connection points: 2
#     Edge 12, Type (0, 0), BuildingBlock: ZUJKAS_clean_linker_0, # of connection points: 2
#     Edge 13, Type (0, 0), BuildingBlock: ZUJKAS_clean_linker_0, # of connection points: 2
#     Edge 14, Type (0, 0), BuildingBlock: ZUJKAS_clean_linker_0, # of connection points: 2
#     Edge 15, Type (0, 0), BuildingBlock: ZUJKAS_clean_linker_0, # of connection points: 2
#     Edge 16, Type (0, 0), BuildingBlock: ZUJKAS_clean_linker_0, # of connection points: 2
#     Edge 17, Type (0, 0), BuildingBlock: ZUJKAS_clean_linker_0, # of connection points: 2
#     Edge 18, Type (0, 0), BuildingBlock: ZUJKAS_clean_linker_0, # of connection points: 2
#     Edge 19, Type (0, 0), BuildingBlock: ZUJKAS_clean_linker_0, # of connection points: 2
#     Edge 20, Type (0, 0), BuildingBlock: ZUJKAS_clean_linker_0, # of connection points: 2
#     Edge 21, Type (0, 0), BuildingBlock: ZUJKAS_clean_linker_0, # of connection points: 2
#     Edge 22, Type (0, 0), BuildingBlock: ZUJKAS_clean_linker_0, # of connection points: 2
#     Edge 23, Type (0, 0), BuildingBlock: ZUJKAS_clean_linker_0, # of connection points: 2
# Relax obj value: 0.244
# Max RMSD: 0.131
# Mean RMSD: 0.131
data_MOF--net-rac--node1-AZAVOO_clean_sbu_0--edge1-ZUJKAS_clean_linker_0
_symmetry_space_group_name_H-M    P1
_symmetry_Int_Tables_number       1
_symmetry_cell_setting            triclinic
loop_
_symmetry_equiv_pos_as_xyz
'x, y, z'
_cell_length_a     49.681535
_cell_length_b     25.346557
_cell_length_c     58.79871
_cell_angle_alpha  89.990257
_cell_angle_beta   89.986915
_cell_angle_gamma 90.10192
loop_
_atom_site_label
_atom_site_type_symbol
_atom_site_fract_x
_atom_site_fract_y
_atom_site_fract_z
_atom_type_partial_charge
Mg0 Mg 0.38644 0.21655 0.0802 0.0
O1 O 0.3523 0.27708 0.0844 0.0
O2 O 0.31829 0.2374 0.10268 0.0
Mg3 Mg 0.32993 0.15121 0.1088 0.0
C4 C 0.32881 0.27796 0.09328 0.0
C5 C 0.42944 0.27618 0.0528 0.0
O6 O 0.42775 0.23115 0.04181 0.0
O7 O 0.39672 0.2239 0.11824 0.0
O8 O 0.36228 0.17969 0.1335 0.0
O9 O 0.36919 0.19119 0.04673 0.0
O10 O 0.35775 0.15654 0.07985 0.0
C11 C 0.38439 0.20497 0.1355 0.0
C12 C 0.35376 0.1599 0.05824 0.0
O13 O 0.4153 0.28266 0.07059 0.0
Mg14 Mg 0.10282 0.79244 0.0746 0.0
O15 O 0.14032 0.74069 0.07899 0.0
O16 O 0.17267 0.7885 0.09557 0.0
Mg17 Mg 0.15583 0.87157 0.1013 0.0
C18 C 0.16407 0.74531 0.08704 0.0
C19 C 0.06279 0.72378 0.04864 0.0
O20 O 0.06091 0.76976 0.03843 0.0
O21 O 0.09367 0.78501 0.11281 0.0
O22 O 0.12615 0.83649 0.12702 0.0
O23 O 0.11888 0.81988 0.04099 0.0
O24 O 0.12664 0.85972 0.07377 0.0
C25 C 0.10555 0.80686 0.12968 0.0
C26 C 0.13116 0.85655 0.05227 0.0
O27 O 0.07838 0.71941 0.06566 0.0
Mg28 Mg 0.39497 0.27665 0.4236 0.0
O29 O 0.35788 0.22346 0.41942 0.0
O30 O 0.32427 0.27065 0.40462 0.0
Mg31 Mg 0.34067 0.35399 0.39817 0.0
C32 C 0.33364 0.22736 0.4124 0.0
C33 C 0.43676 0.21061 0.44827 0.0
O34 O 0.43928 0.2576 0.45748 0.0
O35 O 0.40349 0.27023 0.38532 0.0
O36 O 0.36985 0.31961 0.3718 0.0
O37 O 0.37915 0.30258 0.45746 0.0
O38 O 0.37094 0.34349 0.42492 0.0
C39 C 0.39076 0.29118 0.36871 0.0
C40 C 0.36688 0.33958 0.44644 0.0
O41 O 0.42002 0.20444 0.43215 0.0
Mg42 Mg 0.10599 0.7098 0.41757 0.0
O43 O 0.143 0.76379 0.41452 0.0
O44 O 0.17639 0.71987 0.39765 0.0
Mg45 Mg 0.16008 0.63781 0.38872 0.0
C46 C 0.16708 0.76149 0.40699 0.0
C47 C 0.08894 0.80384 0.4469 0.0
O48 O 0.11071 0.78674 0.4572 0.0
O49 O 0.09666 0.72299 0.37967 0.0
O50 O 0.1302 0.67646 0.36422 0.0
O51 O 0.12263 0.67704 0.45016 0.0
O52 O 0.13038 0.64326 0.41619 0.0
C53 C 0.10918 0.70509 0.36229 0.0
C54 C 0.13515 0.64301 0.43767 0.0
O55 O 0.08118 0.78076 0.42884 0.0
Mg56 Mg 0.60936 0.78487 0.92771 0.0
O57 O 0.64572 0.73009 0.92328 0.0
O58 O 0.67913 0.77513 0.90684 0.0
Mg59 Mg 0.66371 0.85893 0.90021 0.0
C60 C 0.66966 0.73269 0.91543 0.0
C61 C 0.56981 0.7178 0.95524 0.0
O62 O 0.57014 0.76271 0.9664 0.0
O63 O 0.59964 0.7771 0.88967 0.0
O64 O 0.63303 0.82542 0.87489 0.0
O65 O 0.62632 0.81256 0.96101 0.0
O66 O 0.63443 0.85053 0.9279 0.0
C67 C 0.61176 0.79748 0.87259 0.0
C68 C 0.63908 0.84803 0.94939 0.0
O69 O 0.58372 0.71373 0.93718 0.0
Mg70 Mg 0.89283 0.20923 0.92048 0.0
O71 O 0.85629 0.26434 0.91831 0.0
O72 O 0.82161 0.22005 0.90347 0.0
Mg73 Mg 0.83643 0.13659 0.89537 0.0
C74 C 0.8318 0.26215 0.91176 0.0
C75 C 0.93495 0.27421 0.94609 0.0
O76 O 0.93615 0.22807 0.95622 0.0
O77 O 0.89971 0.21883 0.88208 0.0
O78 O 0.86505 0.17173 0.86872 0.0
O79 O 0.87839 0.18025 0.95439 0.0
O80 O 0.86771 0.14366 0.92152 0.0
C81 C 0.88615 0.1997 0.86551 0.0
C82 C 0.86471 0.14531 0.94323 0.0
O83 O 0.91914 0.27983 0.92927 0.0
Mg84 Mg 0.60452 0.70836 0.5858 0.0
O85 O 0.64104 0.76367 0.58877 0.0
O86 O 0.67489 0.71974 0.60499 0.0
Mg87 Mg 0.65961 0.63649 0.61312 0.0
C88 C 0.66522 0.76156 0.59608 0.0
C89 C 0.5626 0.77103 0.55922 0.0
O90 O 0.5609 0.72368 0.55023 0.0
O91 O 0.59574 0.71872 0.62391 0.0
O92 O 0.62961 0.67167 0.6385 0.0
O93 O 0.62076 0.67893 0.55257 0.0
O94 O 0.62958 0.64293 0.58596 0.0
C95 C 0.60841 0.69956 0.64096 0.0
C96 C 0.63392 0.64452 0.56442 0.0
O97 O 0.57868 0.77843 0.57572 0.0
Mg98 Mg 0.89162 0.28028 0.57553 0.0
O99 O 0.85509 0.22505 0.57932 0.0
O100 O 0.82097 0.27136 0.59388 0.0
Mg101 Mg 0.83608 0.35541 0.60044 0.0
C102 C 0.83076 0.22831 0.58622 0.0
C103 C 0.93276 0.21767 0.54938 0.0
O104 O 0.93161 0.26371 0.53915 0.0
O105 O 0.89949 0.27387 0.61391 0.0
O106 O 0.86525 0.32219 0.6271 0.0
O107 O 0.87622 0.30583 0.54145 0.0
O108 O 0.86657 0.34566 0.57394 0.0
C109 C 0.88635 0.2944 0.6304 0.0
C110 C 0.86311 0.34185 0.55235 0.0
O111 O 0.91836 0.21023 0.56697 0.0
H112 H 0.30411 0.14204 0.07605 0.0
H113 H 0.26732 0.09185 0.05947 0.0
H114 H 0.31405 0.06715 0.9986 0.0
H115 H 0.35159 0.11748 0.01549 0.0
H116 H 0.24029 0.10975 0.01353 0.0
H117 H 0.29104 0.91544 0.02536 0.0
H118 H 0.3013 0.97166 0.04211 0.0
H119 H 0.30849 0.97005 0.01225 0.0
C120 C 0.30684 0.12546 0.05932 0.0
C121 C 0.33099 0.13239 0.04735 0.0
C122 C 0.28561 0.09741 0.0497 0.0
C123 C 0.2881 0.07557 0.02792 0.0
C124 C 0.31188 0.08359 0.0155 0.0
H125 H 0.15892 0.84051 0.01244 0.0
H126 H 0.19616 0.8945 0.99745 0.0
C127 C 0.33319 0.11228 0.02512 0.0
C128 C 0.26584 0.04254 0.01931 0.0
H129 H 0.24386 0.91527 0.02236 0.0
C130 C 0.24117 0.06706 0.01463 0.0
C131 C 0.26717 0.98693 0.02054 0.0
C132 C 0.29336 0.95904 0.02531 0.0
C133 C 0.21731 0.03763 0.01338 0.0
C134 C 0.21821 0.98266 0.01735 0.0
C135 C 0.24323 0.95752 0.01947 0.0
C136 C 0.19384 0.95304 0.02415 0.0
C137 C 0.1911 0.06607 0.00941 0.0
C138 C 0.18039 0.96806 0.0441 0.0
C139 C 0.15956 0.93727 0.05275 0.0
C140 C 0.15167 0.89075 0.04165 0.0
C141 C 0.16454 0.87637 0.02126 0.0
C142 C 0.18574 0.90708 0.01269 0.0
H143 H 0.19421 0.10173 0.99872 0.0
H144 H 0.17607 0.04002 0.00105 0.0
H145 H 0.18281 0.07921 0.02599 0.0
H146 H 0.18673 0.00266 0.05351 0.0
H147 H 0.14996 0.94946 0.06844 0.0
H148 H 0.16548 0.65861 0.47613 0.0
H149 H 0.20636 0.61002 0.48697 0.0
H150 H 0.19431 0.50389 0.43055 0.0
H151 H 0.15406 0.55241 0.41946 0.0
H152 H 0.21918 0.49724 0.49562 0.0
H153 H 0.26731 0.57993 0.41838 0.0
H154 H 0.23641 0.6059 0.42998 0.0
H155 H 0.2359 0.54748 0.41261 0.0
C156 C 0.17133 0.62429 0.46635 0.0
C157 C 0.15692 0.60969 0.44675 0.0
C158 C 0.19461 0.59664 0.47255 0.0
C159 C 0.20349 0.55404 0.4593 0.0
C160 C 0.18796 0.5372 0.44077 0.0
H161 H 0.31911 0.30817 0.46422 0.0
H162 H 0.28074 0.36534 0.47293 0.0
C163 C 0.16501 0.56498 0.43444 0.0
C164 C 0.23017 0.52995 0.46311 0.0
H165 H 0.28918 0.50651 0.43557 0.0
C166 C 0.23475 0.49976 0.48273 0.0
C167 C 0.2506 0.53442 0.44651 0.0
C168 C 0.24748 0.56912 0.42579 0.0
C169 C 0.25886 0.47142 0.48554 0.0
C170 C 0.27845 0.47267 0.46803 0.0
C171 C 0.27423 0.50516 0.44901 0.0
C172 C 0.30269 0.43846 0.46792 0.0
C173 C 0.26298 0.4404 0.50713 0.0
C174 C 0.32789 0.46026 0.46238 0.0
C175 C 0.34944 0.4276 0.45672 0.0
C176 C 0.34638 0.37269 0.45716 0.0
C177 C 0.32192 0.35058 0.46429 0.0
C178 C 0.30008 0.38328 0.4694 0.0
H179 H 0.25195 0.45859 0.52157 0.0
H180 H 0.25493 0.3999 0.50478 0.0
H181 H 0.28463 0.43762 0.51166 0.0
H182 H 0.33041 0.50262 0.46104 0.0
H183 H 0.36815 0.44523 0.45101 0.0
H184 H 0.6653 0.83459 0.99016 0.0
H185 H 0.70339 0.88682 0.00466 0.0
H186 H 0.69854 0.98797 0.94579 0.0
H187 H 0.66075 0.93686 0.93147 0.0
H188 H 0.75184 0.89809 0.98258 0.0
H189 H 0.70802 0.09474 0.9965 0.0
H190 H 0.68756 0.03582 0.99471 0.0
H191 H 0.6979 0.07001 0.96925 0.0
C192 C 0.67209 0.86862 0.98059 0.0
C193 C 0.66019 0.88151 0.95962 0.0
C194 C 0.69379 0.89837 0.98889 0.0
C195 C 0.70346 0.94187 0.97651 0.0
C196 C 0.691 0.95547 0.95594 0.0
H197 H 0.84109 0.0578 0.92581 0.0
H198 H 0.80464 0.00605 0.94209 0.0
C199 C 0.66958 0.92575 0.94761 0.0
C200 C 0.72849 0.96969 0.98314 0.0
H201 H 0.75511 0.09372 0.98339 0.0
C202 C 0.75255 0.94082 0.98354 0.0
C203 C 0.72947 0.02529 0.98498 0.0
C204 C 0.70427 0.05812 0.9866 0.0
C205 C 0.77758 0.96647 0.98297 0.0
C206 C 0.77841 0.02216 0.98159 0.0
C207 C 0.75448 0.05095 0.98399 0.0
C208 C 0.80272 0.05037 0.97353 0.0
C209 C 0.80285 0.93361 0.98247 0.0
C210 C 0.8136 0.09311 0.98566 0.0
C211 C 0.83451 0.12323 0.97624 0.0
C212 C 0.84441 0.1115 0.95441 0.0
C213 C 0.83381 0.06804 0.9426 0.0
C214 C 0.81317 0.03793 0.95203 0.0
H215 H 0.80007 0.89643 0.99221 0.0
H216 H 0.80749 0.92273 0.96462 0.0
H217 H 0.82029 0.95549 0.98961 0.0
H218 H 0.80555 0.10376 0.00215 0.0
H219 H 0.84227 0.15663 0.98569 0.0
H220 H 0.6559 0.55611 0.58223 0.0
H221 H 0.6961 0.5099 0.56935 0.0
H222 H 0.70208 0.61429 0.51166 0.0
H223 H 0.6614 0.66105 0.52445 0.0
H224 H 0.71408 0.49479 0.50487 0.0
H225 H 0.76988 0.59559 0.57415 0.0
H226 H 0.73876 0.56573 0.583 0.0
H227 H 0.73825 0.61975 0.5632 0.0
C228 C 0.66552 0.56893 0.56664 0.0
C229 C 0.65579 0.61265 0.55452 0.0
C230 C 0.68841 0.54237 0.55928 0.0
C231 C 0.70211 0.5592 0.53975 0.0
C232 C 0.69168 0.6009 0.5268 0.0
H233 H 0.86654 0.4448 0.54112 0.0
H234 H 0.82919 0.50276 0.5304 0.0
C235 C 0.66853 0.62749 0.53412 0.0
C236 C 0.72856 0.53581 0.53451 0.0
H237 H 0.79029 0.51881 0.55841 0.0
C238 C 0.73103 0.50065 0.51623 0.0
C239 C 0.75068 0.54446 0.54911 0.0
C240 C 0.74945 0.58381 0.56836 0.0
C241 C 0.7547 0.47116 0.51308 0.0
C242 C 0.776 0.47649 0.52893 0.0
C243 C 0.774 0.51435 0.54628 0.0
C244 C 0.79941 0.44024 0.52954 0.0
C245 C 0.75642 0.43409 0.49309 0.0
C246 C 0.79532 0.38558 0.53186 0.0
C247 C 0.81676 0.35247 0.53755 0.0
C248 C 0.84241 0.37374 0.54129 0.0
C249 C 0.84687 0.42776 0.53797 0.0
C250 C 0.82557 0.46074 0.53191 0.0
H251 H 0.74427 0.44886 0.47857 0.0
H252 H 0.77754 0.42869 0.48737 0.0
H253 H 0.74813 0.39508 0.49807 0.0
H254 H 0.77527 0.36895 0.53087 0.0
H255 H 0.81293 0.31095 0.54056 0.0
H256 H 0.36109 0.17486 0.1753 0.0
H257 H 0.37696 0.18944 0.21372 0.0
H258 H 0.44829 0.26593 0.18783 0.0
H259 H 0.43209 0.25243 0.14873 0.0
H260 H 0.42284 0.15692 0.23573 0.0
H261 H 0.41741 0.37635 0.23108 0.0
H262 H 0.40275 0.33489 0.20944 0.0
H263 H 0.4386 0.34308 0.21089 0.0
C264 C 0.38022 0.19476 0.17757 0.0
C265 C 0.3952 0.21284 0.1588 0.0
C266 C 0.38934 0.20283 0.19966 0.0
C267 C 0.41371 0.22905 0.2037 0.0
C268 C 0.42921 0.24623 0.1851 0.0
H269 H 0.43755 0.24407 0.35351 0.0
H270 H 0.45142 0.23041 0.31381 0.0
C271 C 0.41996 0.23836 0.16278 0.0
C272 C 0.42157 0.23966 0.22762 0.0
H273 H 0.42227 0.33845 0.26703 0.0
C274 C 0.42338 0.19662 0.24261 0.0
C275 C 0.4223 0.29152 0.23647 0.0
C276 C 0.42004 0.33928 0.22126 0.0
C277 C 0.42348 0.20386 0.26629 0.0
C278 C 0.4224 0.25567 0.27516 0.0
C279 C 0.42303 0.29878 0.26014 0.0
C280 C 0.4157 0.2659 0.29936 0.0
C281 C 0.42245 0.15598 0.28153 0.0
C282 C 0.39138 0.29131 0.30439 0.0
C283 C 0.38358 0.29954 0.32685 0.0
C284 C 0.39986 0.28239 0.34496 0.0
C285 C 0.42444 0.25737 0.33997 0.0
C286 C 0.43237 0.24944 0.31731 0.0
H287 H 0.4196 0.11884 0.27179 0.0
H288 H 0.44159 0.15288 0.29114 0.0
H289 H 0.40579 0.15962 0.29402 0.0
H290 H 0.3781 0.3041 0.29086 0.0
H291 H 0.3645 0.31888 0.32993 0.0
H292 H 0.13571 0.68686 0.32267 0.0
H293 H 0.12082 0.7044 0.28417 0.0
H294 H 0.04596 0.76681 0.30967 0.0
H295 H 0.06106 0.75012 0.34886 0.0
H296 H 0.07647 0.6654 0.26126 0.0
H297 H 0.07336 0.8847 0.26791 0.0
H298 H 0.08945 0.84452 0.28926 0.0
H299 H 0.05341 0.84708 0.28766 0.0
C300 C 0.11604 0.70437 0.32028 0.0
C301 C 0.0996 0.71715 0.33896 0.0
C302 C 0.10752 0.71421 0.29815 0.0
C303 C 0.08232 0.73697 0.294 0.0
C304 C 0.06563 0.74974 0.3125 0.0
H305 H 0.06004 0.75353 0.14412 0.0
H306 H 0.0459 0.73748 0.18359 0.0
C307 C 0.07427 0.74013 0.33486 0.0
C308 C 0.07452 0.74768 0.27008 0.0
H309 H 0.07035 0.84797 0.23155 0.0
C310 C 0.07449 0.70523 0.25472 0.0
C311 C 0.07188 0.79968 0.2617 0.0
C312 C 0.07213 0.84682 0.27737 0.0
C313 C 0.07429 0.71356 0.23111 0.0
C314 C 0.07341 0.76581 0.22269 0.0
C315 C 0.07105 0.80797 0.23808 0.0
C316 C 0.0799 0.77812 0.19862 0.0
C317 C 0.0773 0.66669 0.21549 0.0
C318 C 0.10322 0.80737 0.19397 0.0
C319 C 0.11115 0.81694 0.17165 0.0
C320 C 0.09601 0.79735 0.15326 0.0
C321 C 0.07229 0.7688 0.15787 0.0
C322 C 0.06422 0.75948 0.1804 0.0
H323 H 0.08157 0.62969 0.22495 0.0
H324 H 0.05838 0.66095 0.20578 0.0
H325 H 0.09382 0.67353 0.2031 0.0
H326 H 0.11573 0.82193 0.20771 0.0
H327 H 0.12952 0.83913 0.16889 0.0
H328 H 0.63444 0.83079 0.83294 0.0
H329 H 0.61885 0.81611 0.79444 0.0
H330 H 0.5499 0.73093 0.81987 0.0
H331 H 0.5658 0.74465 0.85901 0.0
H332 H 0.57381 0.67864 0.78588 0.0
H333 H 0.56011 0.8839 0.75804 0.0
H334 H 0.59283 0.87711 0.77045 0.0
H335 H 0.56328 0.86639 0.7877 0.0
C336 C 0.61579 0.80931 0.83055 0.0
C337 C 0.60135 0.78902 0.8492 0.0
C338 C 0.60672 0.80148 0.8084 0.0
C339 C 0.58279 0.77377 0.80423 0.0
C340 C 0.56823 0.75318 0.82272 0.0
H341 H 0.5631 0.75363 0.6551 0.0
H342 H 0.54833 0.76874 0.69449 0.0
C343 C 0.57738 0.76091 0.84506 0.0
C344 C 0.57487 0.76269 0.78036 0.0
H345 H 0.57377 0.82143 0.72814 0.0
C346 C 0.57301 0.70993 0.77332 0.0
C347 C 0.57298 0.80335 0.76392 0.0
C348 C 0.57208 0.86083 0.77051 0.0
C349 C 0.57226 0.69678 0.75014 0.0
C350 C 0.57413 0.73738 0.73367 0.0
C351 C 0.57298 0.79018 0.74073 0.0
C352 C 0.58144 0.72597 0.7097 0.0
C353 C 0.57069 0.63934 0.74357 0.0
C354 C 0.60514 0.69794 0.70522 0.0
C355 C 0.61358 0.68937 0.68296 0.0
C356 C 0.59871 0.70917 0.66448 0.0
C357 C 0.57499 0.73772 0.66892 0.0
C358 C 0.56648 0.74624 0.69139 0.0
H359 H 0.55891 0.61654 0.75629 0.0
H360 H 0.56131 0.63405 0.72657 0.0
H361 H 0.59129 0.62253 0.74315 0.0
H362 H 0.61755 0.68351 0.71902 0.0
H363 H 0.63205 0.66759 0.68034 0.0
H364 H 0.93206 0.24422 0.64608 0.0
H365 H 0.945 0.22929 0.68589 0.0
H366 H 0.87301 0.30889 0.70816 0.0
H367 H 0.86032 0.32492 0.66895 0.0
H368 H 0.91744 0.33888 0.73269 0.0
H369 H 0.90973 0.1199 0.72711 0.0
H370 H 0.93282 0.15185 0.708 0.0
H371 H 0.89728 0.16245 0.70491 0.0
C372 C 0.91906 0.25863 0.65949 0.0
C373 C 0.89507 0.28553 0.65424 0.0
C374 C 0.92645 0.24994 0.68222 0.0
C375 C 0.90984 0.26756 0.7 0.0
C376 C 0.88621 0.29509 0.69475 0.0
H377 H 0.8586 0.17471 0.82698 0.0
H378 H 0.87129 0.19123 0.78779 0.0
C379 C 0.87892 0.30403 0.67221 0.0
C380 C 0.91592 0.25633 0.72424 0.0
H381 H 0.91503 0.15669 0.76328 0.0
C382 C 0.91747 0.29903 0.73942 0.0
C383 C 0.91593 0.20427 0.7329 0.0
C384 C 0.9137 0.15684 0.71749 0.0
C385 C 0.91705 0.29127 0.76307 0.0
C386 C 0.91565 0.23928 0.77173 0.0
C387 C 0.91611 0.19649 0.75655 0.0
C388 C 0.90928 0.22855 0.79595 0.0
C389 C 0.91608 0.3388 0.77851 0.0
C390 C 0.92648 0.24399 0.81373 0.0
C391 C 0.91911 0.23497 0.83645 0.0
C392 C 0.89455 0.20993 0.84168 0.0
C393 C 0.87768 0.19402 0.82372 0.0
C394 C 0.88495 0.20327 0.8012 0.0
H395 H 0.91321 0.37612 0.7689 0.0
H396 H 0.89947 0.33479 0.79103 0.0
H397 H 0.93526 0.34179 0.78808 0.0
H398 H 0.94554 0.26291 0.81005 0.0
H399 H 0.93266 0.24738 0.84986 0.0
H400 H 0.43476 0.3765 0.06956 0.0
H401 H 0.45942 0.4502 0.05245 0.0
H402 H 0.48598 0.34868 0.99809 0.0
H403 H 0.46121 0.27495 0.01488 0.0
H404 H 0.51471 0.46008 0.04163 0.0
H405 H 0.45028 0.47262 0.96459 0.0
H406 H 0.44043 0.43606 0.98961 0.0
H407 H 0.46431 0.40855 0.96997 0.0
C408 C 0.44593 0.36977 0.05401 0.0
C409 C 0.44585 0.31994 0.04349 0.0
C410 C 0.45999 0.41192 0.04427 0.0
C411 C 0.47408 0.40505 0.02381 0.0
C412 C 0.47474 0.35503 0.01364 0.0
H413 H 0.56693 0.61762 0.93782 0.0
H414 H 0.54411 0.54106 0.9545 0.0
C415 C 0.46069 0.31288 0.02334 0.0
C416 C 0.48806 0.45029 0.01308 0.0
H417 H 0.48898 0.52725 0.9654 0.0
C418 C 0.50907 0.4749 0.025 0.0
C419 C 0.48065 0.46935 0.99135 0.0
C420 C 0.45754 0.44566 0.97816 0.0
C421 C 0.52311 0.51782 0.01564 0.0
C422 C 0.51558 0.53709 0.99398 0.0
C423 C 0.49469 0.51227 0.98199 0.0
C424 C 0.52885 0.58362 0.98365 0.0
C425 C 0.54616 0.54162 0.02885 0.0
C426 C 0.52727 0.63304 0.99428 0.0
C427 C 0.54023 0.67677 0.98482 0.0
C428 C 0.55489 0.67195 0.96446 0.0
C429 C 0.55586 0.62262 0.95354 0.0
C430 C 0.54287 0.57885 0.96304 0.0
H431 H 0.5538 0.51418 0.04209 0.0
H432 H 0.56305 0.55244 0.01737 0.0
H433 H 0.53914 0.57801 0.03748 0.0
H434 H 0.51606 0.63776 0.00994 0.0
H435 H 0.53893 0.71423 0.9936 0.0
H436 H 0.02841 0.72092 0.01247 0.0
H437 H 0.00681 0.64363 0.99561 0.0
H438 H 0.04364 0.54409 0.04625 0.0
H439 H 0.06514 0.62135 0.06345 0.0
H440 H 0.03288 0.55509 0.97757 0.0
H441 H 0.9642 0.49963 0.04825 0.0
H442 H 0.98025 0.56349 0.04656 0.0
H443 H 0.99889 0.50713 0.05628 0.0
C444 C 0.03174 0.68269 0.02019 0.0
C445 C 0.04846 0.67731 0.03934 0.0
C446 C 0.01941 0.63857 0.01049 0.0
C447 C 0.02342 0.58827 0.01981 0.0
C448 C 0.0399 0.58271 0.03904 0.0
H449 H 0.96972 0.27471 0.98203 0.0
H450 H 0.99238 0.3507 0.99903 0.0
C451 C 0.05225 0.62688 0.04879 0.0
C452 C 0.01123 0.5415 0.00877 0.0
H453 H 0.96736 0.4397 0.01744 0.0
C454 C 0.01848 0.52992 0.98624 0.0
C455 C 0.99253 0.50875 0.02017 0.0
C456 C 0.98327 0.52047 0.04408 0.0
C457 C 0.00777 0.48597 0.97487 0.0
C458 C 0.98899 0.45334 0.98624 0.0
C459 C 0.98181 0.46481 0.0088 0.0
C460 C 0.97637 0.4072 0.97504 0.0
C461 C 0.01702 0.47428 0.95095 0.0
C462 C 0.9599 0.41383 0.95586 0.0
C463 C 0.94694 0.37043 0.94604 0.0
C464 C 0.9501 0.31971 0.95535 0.0
C465 C 0.96688 0.3132 0.97441 0.0
C466 C 0.97982 0.35658 0.98419 0.0
H467 H 0.0363 0.49451 0.94692 0.0
H468 H 0.01966 0.43121 0.94834 0.0
H469 H 0.0016 0.48842 0.93875 0.0
H470 H 0.95658 0.45274 0.94879 0.0
H471 H 0.93403 0.37684 0.93146 0.0
H472 H 0.56513 0.87554 0.57091 0.0
H473 H 0.54296 0.94965 0.55191 0.0
H474 H 0.50518 0.84187 0.50496 0.0
H475 H 0.52696 0.7676 0.52392 0.0
H476 H 0.54897 0.97725 0.50558 0.0
H477 H 0.44231 0.93379 0.52695 0.0
H478 H 0.47015 0.9043 0.54201 0.0
H479 H 0.46035 0.87954 0.51459 0.0
C480 C 0.55183 0.86753 0.55673 0.0
C481 C 0.54777 0.81565 0.54895 0.0
C482 C 0.53925 0.90991 0.54587 0.0
C483 C 0.52224 0.90112 0.5272 0.0
C484 C 0.51786 0.84939 0.51959 0.0
H485 H 0.43307 0.10659 0.43588 0.0
H486 H 0.45515 0.03111 0.45395 0.0
C487 C 0.53044 0.80702 0.5304 0.0
C488 C 0.51014 0.94623 0.51494 0.0
H489 H 0.45012 0.00119 0.49972 0.0
C490 C 0.52737 0.98269 0.50437 0.0
C491 C 0.48196 0.95288 0.51329 0.0
C492 C 0.46256 0.91586 0.52496 0.0
C493 C 0.51714 0.02544 0.49194 0.0
C494 C 0.48895 0.03227 0.49039 0.0
C495 C 0.47173 0.99567 0.50087 0.0
C496 C 0.47689 0.07809 0.4786 0.0
C497 C 0.53657 0.06235 0.48023 0.0
C498 C 0.48185 0.12941 0.48647 0.0
C499 C 0.46934 0.17253 0.47619 0.0
C500 C 0.45147 0.16511 0.45792 0.0
C501 C 0.44679 0.11366 0.44986 0.0
C502 C 0.45933 0.0705 0.46019 0.0
H503 H 0.5566 0.0438 0.47776 0.0
H504 H 0.52871 0.07496 0.46341 0.0
H505 H 0.53938 0.09808 0.49088 0.0
H506 H 0.49492 0.13604 0.50094 0.0
H507 H 0.4733 0.21158 0.48289 0.0
H508 H 0.96145 0.22014 0.50994 0.0
H509 H 0.98751 0.14919 0.49276 0.0
H510 H 0.96854 0.04787 0.54952 0.0
H511 H 0.94175 0.11859 0.56667 0.0
H512 H 0.03147 0.0978 0.5083 0.0
H513 H 0.94715 0.95695 0.49552 0.0
H514 H 0.94181 0.02524 0.50291 0.0
H515 H 0.95118 0.97833 0.52443 0.0
C516 C 0.96275 0.18279 0.51882 0.0
C517 C 0.9494 0.17492 0.53964 0.0
C518 C 0.97768 0.14226 0.50895 0.0
C519 C 0.97961 0.093 0.51967 0.0
C520 C 0.96679 0.08522 0.5407 0.0
H521 H 0.09822 0.85433 0.48708 0.0
H522 H 0.07177 0.92466 0.50436 0.0
C523 C 0.95166 0.12577 0.55056 0.0
C524 C 0.99547 0.05036 0.50883 0.0
H525 H 0.99111 0.92513 0.48774 0.0
C526 C 0.02265 0.06006 0.50378 0.0
C527 C 0.98378 0.0015 0.50261 0.0
C528 C 0.95432 0.9899 0.50642 0.0
C529 C 0.03856 0.02204 0.49288 0.0
C530 C 0.02712 0.97252 0.48735 0.0
C531 C -0.00013 0.963 0.49216 0.0
C532 C 0.04317 0.92993 0.47671 0.0
C533 C 0.06731 0.03571 0.48699 0.0
C534 C 0.03548 0.90859 0.45565 0.0
C535 C 0.05044 0.86788 0.44578 0.0
C536 C 0.0733 0.84776 0.45686 0.0
C537 C 0.08086 0.86918 0.47798 0.0
C538 C 0.06584 0.90962 0.48786 0.0
H539 H 0.0705 0.07908 0.48629 0.0
H540 H 0.08086 0.01956 0.50027 0.0
H541 H 0.07321 0.01847 0.47037 0.0
H542 H 0.01795 0.92358 0.44683 0.0
H543 H 0.04405 0.85212 0.42953 0.0
H544 H 0.16197 0.66002 0.05868 0.0
H545 H 0.19109 0.58239 0.05895 0.0
H546 H 0.23503 0.64657 0.11591 0.0
H547 H 0.20683 0.72549 0.11497 0.0
H548 H 0.26865 0.60441 0.08743 0.0
H549 H 0.18616 0.46107 0.10138 0.0
H550 H 0.18134 0.49823 0.07579 0.0
H551 H 0.18091 0.5313 0.10292 0.0
C552 C 0.17784 0.65756 0.07126 0.0
C553 C 0.18199 0.69871 0.08691 0.0
C554 C 0.19436 0.61295 0.07151 0.0
C555 C 0.21484 0.60784 0.08784 0.0
C556 C 0.21929 0.64937 0.10322 0.0
H557 H 0.28876 0.30829 0.12215 0.0
H558 H 0.26259 0.38972 0.12115 0.0
C559 C 0.20314 0.69448 0.10268 0.0
C560 C 0.2318 0.55957 0.08881 0.0
H561 H 0.22888 0.42515 0.09172 0.0
C562 C 0.25994 0.56521 0.0885 0.0
C563 C 0.22052 0.50837 0.09062 0.0
C564 C 0.1906 0.49935 0.09295 0.0
C565 C 0.27707 0.52125 0.08978 0.0
C566 C 0.26575 0.46993 0.09048 0.0
C567 C 0.23762 0.46435 0.09093 0.0
C568 C 0.28256 0.42141 0.09136 0.0
C569 C 0.30704 0.53059 0.09104 0.0
C570 C 0.30251 0.41177 0.07493 0.0
C571 C 0.31792 0.36565 0.07578 0.0
C572 C 0.31313 0.32754 0.09268 0.0
C573 C 0.29287 0.33682 0.10887 0.0
C574 C 0.27789 0.38338 0.1083 0.0
H575 H 0.31174 0.5706 0.09768 0.0
H576 H 0.31704 0.50102 0.1021 0.0
H577 H 0.31576 0.5277 0.07371 0.0
H578 H 0.30596 0.43954 0.06124 0.0
H579 H 0.33316 0.35927 0.06289 0.0
H580 H 0.3458 0.12886 0.42867 0.0
H581 H 0.31734 0.0501 0.42836 0.0
H582 H 0.25325 0.13902 0.39729 0.0
H583 H 0.28156 0.21804 0.39734 0.0
H584 H 0.26606 0.03337 0.4484 0.0
H585 H 0.26331 0.01157 0.35441 0.0
H586 H 0.28746 0.05325 0.36872 0.0
H587 H 0.25343 0.07533 0.3648 0.0
C588 C 0.32565 0.13183 0.42176 0.0
C589 C 0.31607 0.17987 0.41289 0.0
C590 C 0.30941 0.08672 0.42163 0.0
C591 C 0.28334 0.08856 0.41252 0.0
C592 C 0.27349 0.13654 0.40404 0.0
H593 H 0.15528 0.85634 0.4271 0.0
H594 H 0.18367 0.93507 0.42908 0.0
C595 C 0.28969 0.18174 0.40419 0.0
C596 C 0.26649 0.04021 0.41191 0.0
H597 H 0.23513 0.95449 0.37571 0.0
C598 C 0.2593 0.01606 0.43252 0.0
C599 C 0.25798 0.01739 0.39115 0.0
C600 C 0.26609 0.04033 0.36848 0.0
C601 C 0.24349 0.97004 0.43295 0.0
C602 C 0.23444 0.94797 0.41221 0.0
C603 C 0.24194 0.97173 0.39159 0.0
C604 C 0.21741 0.89987 0.41148 0.0
C605 C 0.23697 0.9449 0.45556 0.0
C606 C 0.22679 0.85418 0.40062 0.0
C607 C 0.2106 0.80908 0.39938 0.0
C608 C 0.18456 0.80891 0.40883 0.0
C609 C 0.17523 0.8549 0.4197 0.0
C610 C 0.19149 0.89993 0.42096 0.0
H611 H 0.2506 0.95905 0.46924 0.0
H612 H 0.21603 0.9551 0.46041 0.0
H613 H 0.23843 0.90126 0.45449 0.0
H614 H 0.2467 0.85341 0.39311 0.0
H615 H 0.21845 0.77452 0.39084 0.0
H616 H 0.65785 0.63649 0.93436 0.0
H617 H 0.68589 0.55736 0.93477 0.0
H618 H 0.74827 0.6407 0.89852 0.0
H619 H 0.72038 0.72007 0.89785 0.0
H620 H 0.73545 0.54039 0.88024 0.0
H621 H 0.75414 0.53094 0.97328 0.0
H622 H 0.71932 0.53618 0.96533 0.0
H623 H 0.74197 0.58973 0.95933 0.0
C624 C 0.67758 0.6382 0.92654 0.0
C625 C 0.68685 0.68484 0.91611 0.0
C626 C 0.69363 0.59294 0.92692 0.0
C627 C 0.71928 0.59339 0.91693 0.0
C628 C 0.72858 0.63966 0.90642 0.0
H629 H 0.84591 0.35906 0.9288 0.0
H630 H 0.81855 0.43912 0.92998 0.0
C631 C 0.71259 0.68501 0.9061 0.0
C632 C 0.73609 0.54511 0.91678 0.0
H633 H 0.76823 0.45723 0.95141 0.0
C634 C 0.74268 0.52223 0.89578 0.0
C635 C 0.7457 0.52188 0.93709 0.0
C636 C 0.74017 0.54608 0.96006 0.0
C637 C 0.7583 0.47621 0.89454 0.0
C638 C 0.76729 0.45215 0.91488 0.0
C639 C 0.76108 0.47551 0.93587 0.0
C640 C 0.78349 0.40307 0.91465 0.0
C641 C 0.76539 0.45415 0.87148 0.0
C642 C 0.77267 0.35602 0.90599 0.0
C643 C 0.78822 0.31013 0.90528 0.0
C644 C 0.81492 0.31033 0.9133 0.0
C645 C 0.82549 0.3574 0.9224 0.0
C646 C 0.80988 0.40324 0.92312 0.0
H647 H 0.76254 0.48378 0.85776 0.0
H648 H 0.78658 0.4403 0.8711 0.0
H649 H 0.75215 0.41992 0.86775 0.0
H650 H 0.75217 0.35483 0.89974 0.0
H651 H 0.77934 0.27462 0.89828 0.0
H652 H 0.65378 0.85515 0.57475 0.0
H653 H 0.68234 0.93359 0.57203 0.0
H654 H 0.74436 0.85476 0.61032 0.0
H655 H 0.716 0.7761 0.61324 0.0
H656 H 0.73166 0.95887 0.62568 0.0
H657 H 0.75129 0.95139 0.5327 0.0
H658 H 0.71644 0.94738 0.54079 0.0
H659 H 0.73905 0.8952 0.54855 0.0
C660 C 0.67352 0.85431 0.58255 0.0
C661 C 0.68258 0.80913 0.59419 0.0
C662 C 0.68987 0.89914 0.58086 0.0
C663 C 0.71557 0.89972 0.59074 0.0
C664 C 0.72463 0.85496 0.60248 0.0
H665 H 0.84427 0.1285 0.57222 0.0
H666 H 0.81628 0.04903 0.57332 0.0
C667 C 0.70838 0.81001 0.60409 0.0
C668 C 0.73272 0.94753 0.58942 0.0
H669 H 0.76612 0.02796 0.55225 0.0
C670 C 0.73924 0.97398 0.60965 0.0
C671 C 0.7428 0.96673 0.56849 0.0
C672 C 0.73729 0.93858 0.54637 0.0
C673 C 0.75527 0.01967 0.60948 0.0
C674 C 0.76476 0.03971 0.58849 0.0
C675 C 0.75861 0.01275 0.56829 0.0
C676 C 0.78135 0.08833 0.58723 0.0
C677 C 0.76222 0.04568 0.63181 0.0
C678 C 0.77081 0.13696 0.59428 0.0
C679 C 0.78673 0.18248 0.5937 0.0
C680 C 0.81352 0.18035 0.58593 0.0
C681 C 0.82379 0.13167 0.57838 0.0
C682 C 0.80782 0.08616 0.57897 0.0
H683 H 0.75904 0.01862 0.64644 0.0
H684 H 0.78349 0.05925 0.63192 0.0
H685 H 0.74913 0.08064 0.63428 0.0
H686 H 0.75026 0.13968 0.60031 0.0
H687 H 0.77805 0.21926 0.5995 0.0
loop_
_geom_bond_atom_site_label_1
_geom_bond_atom_site_label_2
_geom_bond_distance
_geom_bond_site_symmetry_2
_ccdc_geom_bond_type
Mg0 O1 2.028 . S
Mg0 O7 1.986 . S
Mg0 O9 2.114 . S
Mg0 O10 2.251 . S
Mg0 O13 2.010 . S
O1 Mg0 2.028 . S
O1 C4 1.250 . S
O2 Mg3 2.028 . S
O2 C4 1.248 . S
Mg3 O2 2.028 . S
Mg3 O8 2.032 . S
Mg3 O10 2.079 . S
C4 O1 1.250 . S
C4 O2 1.248 . S
C5 O6 1.264 . S
C5 O13 1.249 . S
O6 C5 1.264 . S
O7 Mg0 1.986 . S
O7 C11 1.246 . S
O8 Mg3 2.032 . S
O8 C11 1.259 . S
O9 Mg0 2.114 . S
O9 C12 1.252 . S
O10 Mg0 2.251 . S
O10 Mg3 2.079 . S
O10 C12 1.273 . S
C11 O7 1.246 . S
C11 O8 1.259 . S
C12 O9 1.252 . S
C12 O10 1.273 . S
O13 Mg0 2.010 . S
O13 C5 1.249 . S
Mg14 O15 2.028 . S
Mg14 O21 1.986 . S
Mg14 O23 2.114 . S
Mg14 O24 2.251 . S
Mg14 O27 2.010 . S
O15 Mg14 2.028 . S
O15 C18 1.250 . S
O16 Mg17 2.028 . S
O16 C18 1.248 . S
Mg17 O16 2.028 . S
Mg17 O22 2.032 . S
Mg17 O24 2.079 . S
C18 O15 1.250 . S
C18 O16 1.248 . S
C19 O20 1.264 . S
C19 O27 1.249 . S
O20 C19 1.264 . S
O21 Mg14 1.986 . S
O21 C25 1.246 . S
O22 Mg17 2.032 . S
O22 C25 1.259 . S
O23 Mg14 2.114 . S
O23 C26 1.252 . S
O24 Mg14 2.251 . S
O24 Mg17 2.079 . S
O24 C26 1.273 . S
C25 O21 1.246 . S
C25 O22 1.259 . S
C26 O23 1.252 . S
C26 O24 1.273 . S
O27 Mg14 2.010 . S
O27 C19 1.249 . S
Mg28 O29 2.028 . S
Mg28 O35 1.986 . S
Mg28 O37 2.114 . S
Mg28 O38 2.251 . S
Mg28 O41 2.010 . S
O29 Mg28 2.028 . S
O29 C32 1.250 . S
O30 Mg31 2.028 . S
O30 C32 1.248 . S
Mg31 O30 2.028 . S
Mg31 O36 2.032 . S
Mg31 O38 2.079 . S
C32 O29 1.250 . S
C32 O30 1.248 . S
C33 O34 1.264 . S
C33 O41 1.249 . S
O34 C33 1.264 . S
O35 Mg28 1.986 . S
O35 C39 1.246 . S
O36 Mg31 2.032 . S
O36 C39 1.259 . S
O37 Mg28 2.114 . S
O37 C40 1.252 . S
O38 Mg28 2.251 . S
O38 Mg31 2.079 . S
O38 C40 1.273 . S
C39 O35 1.246 . S
C39 O36 1.259 . S
C40 O37 1.252 . S
C40 O38 1.273 . S
O41 Mg28 2.010 . S
O41 C33 1.249 . S
Mg42 O43 2.028 . S
Mg42 O49 1.986 . S
Mg42 O51 2.114 . S
Mg42 O52 2.251 . S
Mg42 O55 2.010 . S
O43 Mg42 2.028 . S
O43 C46 1.250 . S
O44 Mg45 2.028 . S
O44 C46 1.248 . S
Mg45 O44 2.028 . S
Mg45 O50 2.032 . S
Mg45 O52 2.079 . S
C46 O43 1.250 . S
C46 O44 1.248 . S
C47 O48 1.264 . S
C47 O55 1.249 . S
O48 C47 1.264 . S
O49 Mg42 1.986 . S
O49 C53 1.246 . S
O50 Mg45 2.032 . S
O50 C53 1.259 . S
O51 Mg42 2.114 . S
O51 C54 1.252 . S
O52 Mg42 2.251 . S
O52 Mg45 2.079 . S
O52 C54 1.273 . S
C53 O49 1.246 . S
C53 O50 1.259 . S
C54 O51 1.252 . S
C54 O52 1.273 . S
O55 Mg42 2.010 . S
O55 C47 1.249 . S
Mg56 O57 2.028 . S
Mg56 O63 1.986 . S
Mg56 O65 2.114 . S
Mg56 O66 2.251 . S
Mg56 O69 2.010 . S
O57 Mg56 2.028 . S
O57 C60 1.250 . S
O58 Mg59 2.028 . S
O58 C60 1.248 . S
Mg59 O58 2.028 . S
Mg59 O64 2.032 . S
Mg59 O66 2.079 . S
C60 O57 1.250 . S
C60 O58 1.248 . S
C61 O62 1.264 . S
C61 O69 1.249 . S
O62 C61 1.264 . S
O63 Mg56 1.986 . S
O63 C67 1.246 . S
O64 Mg59 2.032 . S
O64 C67 1.259 . S
O65 Mg56 2.114 . S
O65 C68 1.252 . S
O66 Mg56 2.251 . S
O66 Mg59 2.079 . S
O66 C68 1.273 . S
C67 O63 1.246 . S
C67 O64 1.259 . S
C68 O65 1.252 . S
C68 O66 1.273 . S
O69 Mg56 2.010 . S
O69 C61 1.249 . S
Mg70 O71 2.028 . S
Mg70 O77 1.986 . S
Mg70 O79 2.114 . S
Mg70 O80 2.251 . S
Mg70 O83 2.010 . S
O71 Mg70 2.028 . S
O71 C74 1.250 . S
O72 Mg73 2.028 . S
O72 C74 1.248 . S
Mg73 O72 2.028 . S
Mg73 O78 2.032 . S
Mg73 O80 2.079 . S
C74 O71 1.250 . S
C74 O72 1.248 . S
C75 O76 1.264 . S
C75 O83 1.249 . S
O76 C75 1.264 . S
O77 Mg70 1.986 . S
O77 C81 1.246 . S
O78 Mg73 2.032 . S
O78 C81 1.259 . S
O79 Mg70 2.114 . S
O79 C82 1.252 . S
O80 Mg70 2.251 . S
O80 Mg73 2.079 . S
O80 C82 1.273 . S
C81 O77 1.246 . S
C81 O78 1.259 . S
C82 O79 1.252 . S
C82 O80 1.273 . S
O83 Mg70 2.010 . S
O83 C75 1.249 . S
Mg84 O85 2.028 . S
Mg84 O91 1.986 . S
Mg84 O93 2.114 . S
Mg84 O94 2.251 . S
Mg84 O97 2.010 . S
O85 Mg84 2.028 . S
O85 C88 1.250 . S
O86 Mg87 2.028 . S
O86 C88 1.248 . S
Mg87 O86 2.028 . S
Mg87 O92 2.032 . S
Mg87 O94 2.079 . S
C88 O85 1.250 . S
C88 O86 1.248 . S
C89 O90 1.264 . S
C89 O97 1.249 . S
O90 C89 1.264 . S
O91 Mg84 1.986 . S
O91 C95 1.246 . S
O92 Mg87 2.032 . S
O92 C95 1.259 . S
O93 Mg84 2.114 . S
O93 C96 1.252 . S
O94 Mg84 2.251 . S
O94 Mg87 2.079 . S
O94 C96 1.273 . S
C95 O91 1.246 . S
C95 O92 1.259 . S
C96 O93 1.252 . S
C96 O94 1.273 . S
O97 Mg84 2.010 . S
O97 C89 1.249 . S
Mg98 O99 2.028 . S
Mg98 O105 1.986 . S
Mg98 O107 2.114 . S
Mg98 O108 2.251 . S
Mg98 O111 2.010 . S
O99 Mg98 2.028 . S
O99 C102 1.250 . S
O100 Mg101 2.028 . S
O100 C102 1.248 . S
Mg101 O100 2.028 . S
Mg101 O106 2.032 . S
Mg101 O108 2.079 . S
C102 O99 1.250 . S
C102 O100 1.248 . S
C103 O104 1.264 . S
C103 O111 1.249 . S
O104 C103 1.264 . S
O105 Mg98 1.986 . S
O105 C109 1.246 . S
O106 Mg101 2.032 . S
O106 C109 1.259 . S
O107 Mg98 2.114 . S
O107 C110 1.252 . S
O108 Mg98 2.251 . S
O108 Mg101 2.079 . S
O108 C110 1.273 . S
C109 O105 1.246 . S
C109 O106 1.259 . S
C110 O107 1.252 . S
C110 O108 1.273 . S
O111 Mg98 2.010 . S
O111 C103 1.249 . S
H112 C120 0.929 . S
H113 C122 0.930 . S
H114 C124 0.930 . S
H115 C127 0.929 . S
H116 C130 0.930 . S
H117 C132 0.960 . S
H118 C132 0.960 1_545 S
H119 C132 0.960 . S
C120 H112 0.929 . S
C120 C121 1.377 . S
C120 C122 1.384 . S
C121 C120 1.377 . S
C121 C127 1.390 . S
C122 H113 0.930 . S
C122 C120 1.384 . S
C122 C123 1.372 . S
C123 C122 1.372 . S
C123 C124 1.400 . S
C123 C128 1.490 . S
C124 H114 0.930 . S
C124 C123 1.400 . S
C124 C127 1.386 . S
H125 C141 0.930 . S
H126 C142 0.931 . S
C127 H115 0.929 . S
C127 C121 1.390 . S
C127 C124 1.386 . S
C128 C123 1.490 . S
C128 C130 1.395 . S
C128 C131 1.403 1_545 S
H129 C135 0.930 . S
C130 H116 0.930 . S
C130 C128 1.395 . S
C130 C133 1.403 . S
C131 C128 1.403 1_565 S
C131 C132 1.524 . S
C131 C135 1.400 . S
C132 H117 0.960 . S
C132 H118 0.960 1_565 S
C132 H119 0.960 . S
C132 C131 1.524 . S
C133 C130 1.403 . S
C133 C134 1.392 1_545 S
C133 C137 1.495 . S
C134 C133 1.392 1_565 S
C134 C135 1.385 . S
C134 C136 1.478 . S
C135 H129 0.930 . S
C135 C131 1.400 . S
C135 C134 1.385 . S
C136 C134 1.478 . S
C136 C138 1.381 . S
C136 C142 1.383 . S
C137 C133 1.495 . S
C137 H143 0.959 . S
C137 H144 0.961 1_545 S
C137 H145 0.960 . S
C138 C136 1.381 . S
C138 C139 1.394 . S
C138 H146 0.930 . S
C139 C138 1.394 . S
C139 C140 1.383 . S
C139 H147 0.929 . S
C140 C139 1.383 . S
C140 C141 1.377 . S
C141 H125 0.930 . S
C141 C140 1.377 . S
C141 C142 1.379 . S
C142 H126 0.931 . S
C142 C136 1.383 . S
C142 C141 1.379 . S
H143 C137 0.959 . S
H144 C137 0.961 1_565 S
H145 C137 0.960 . S
H146 C138 0.930 . S
H147 C139 0.929 . S
H148 C156 0.929 . S
H149 C158 0.930 . S
H150 C160 0.930 . S
H151 C163 0.929 . S
H152 C166 0.930 . S
H153 C168 0.960 . S
H154 C168 0.960 . S
H155 C168 0.960 . S
C156 H148 0.929 . S
C156 C157 1.377 . S
C156 C158 1.384 . S
C157 C156 1.377 . S
C157 C163 1.390 . S
C158 H149 0.930 . S
C158 C156 1.384 . S
C158 C159 1.372 . S
C159 C158 1.372 . S
C159 C160 1.400 . S
C159 C164 1.490 . S
C160 H150 0.930 . S
C160 C159 1.400 . S
C160 C163 1.386 . S
H161 C177 0.930 . S
H162 C178 0.931 . S
C163 H151 0.929 . S
C163 C157 1.390 . S
C163 C160 1.386 . S
C164 C159 1.490 . S
C164 C166 1.395 . S
C164 C167 1.403 . S
H165 C171 0.930 . S
C166 H152 0.930 . S
C166 C164 1.395 . S
C166 C169 1.403 . S
C167 C164 1.403 . S
C167 C168 1.524 . S
C167 C171 1.400 . S
C168 H153 0.960 . S
C168 H154 0.960 . S
C168 H155 0.960 . S
C168 C167 1.524 . S
C169 C166 1.403 . S
C169 C170 1.392 . S
C169 C173 1.495 . S
C170 C169 1.392 . S
C170 C171 1.385 . S
C170 C172 1.478 . S
C171 H165 0.930 . S
C171 C167 1.400 . S
C171 C170 1.385 . S
C172 C170 1.478 . S
C172 C174 1.381 . S
C172 C178 1.383 . S
C173 C169 1.495 . S
C173 H179 0.959 . S
C173 H180 0.961 . S
C173 H181 0.960 . S
C174 C172 1.381 . S
C174 C175 1.394 . S
C174 H182 0.930 . S
C175 C174 1.394 . S
C175 C176 1.383 . S
C175 H183 0.929 . S
C176 C175 1.383 . S
C176 C177 1.377 . S
C177 H161 0.930 . S
C177 C176 1.377 . S
C177 C178 1.379 . S
C178 H162 0.931 . S
C178 C172 1.383 . S
C178 C177 1.379 . S
H179 C173 0.959 . S
H180 C173 0.961 . S
H181 C173 0.960 . S
H182 C174 0.930 . S
H183 C175 0.929 . S
H184 C192 0.929 . S
H185 C194 0.930 . S
H186 C196 0.930 . S
H187 C199 0.929 . S
H188 C202 0.930 . S
H189 C204 0.960 . S
H190 C204 0.960 . S
H191 C204 0.960 1_565 S
C192 H184 0.929 . S
C192 C193 1.377 . S
C192 C194 1.384 . S
C193 C192 1.377 . S
C193 C199 1.390 . S
C194 H185 0.930 . S
C194 C192 1.384 . S
C194 C195 1.372 . S
C195 C194 1.372 . S
C195 C196 1.400 . S
C195 C200 1.490 . S
C196 H186 0.930 . S
C196 C195 1.400 . S
C196 C199 1.386 . S
H197 C213 0.930 . S
H198 C214 0.931 . S
C199 H187 0.929 . S
C199 C193 1.390 . S
C199 C196 1.386 . S
C200 C195 1.490 . S
C200 C202 1.395 . S
C200 C203 1.403 1_565 S
H201 C207 0.930 . S
C202 H188 0.930 . S
C202 C200 1.395 . S
C202 C205 1.403 . S
C203 C200 1.403 1_545 S
C203 C204 1.524 . S
C203 C207 1.400 . S
C204 H189 0.960 . S
C204 H190 0.960 . S
C204 H191 0.960 1_545 S
C204 C203 1.524 . S
C205 C202 1.403 . S
C205 C206 1.392 1_565 S
C205 C209 1.495 . S
C206 C205 1.392 1_545 S
C206 C207 1.385 . S
C206 C208 1.478 . S
C207 H201 0.930 . S
C207 C203 1.400 . S
C207 C206 1.385 . S
C208 C206 1.478 . S
C208 C210 1.381 . S
C208 C214 1.383 . S
C209 C205 1.495 . S
C209 H215 0.959 . S
C209 H216 0.961 . S
C209 H217 0.960 1_565 S
C210 C208 1.381 . S
C210 C211 1.394 . S
C210 H218 0.930 . S
C211 C210 1.394 . S
C211 C212 1.383 . S
C211 H219 0.929 . S
C212 C211 1.383 . S
C212 C213 1.377 . S
C213 H197 0.930 . S
C213 C212 1.377 . S
C213 C214 1.379 . S
C214 H198 0.931 . S
C214 C208 1.383 . S
C214 C213 1.379 . S
H215 C209 0.959 . S
H216 C209 0.961 . S
H217 C209 0.960 1_545 S
H218 C210 0.930 . S
H219 C211 0.929 . S
H220 C228 0.929 . S
H221 C230 0.930 . S
H222 C232 0.930 . S
H223 C235 0.929 . S
H224 C238 0.930 . S
H225 C240 0.960 . S
H226 C240 0.960 . S
H227 C240 0.960 . S
C228 H220 0.929 . S
C228 C229 1.377 . S
C228 C230 1.384 . S
C229 C228 1.377 . S
C229 C235 1.390 . S
C230 H221 0.930 . S
C230 C228 1.384 . S
C230 C231 1.372 . S
C231 C230 1.372 . S
C231 C232 1.400 . S
C231 C236 1.490 . S
C232 H222 0.930 . S
C232 C231 1.400 . S
C232 C235 1.386 . S
H233 C249 0.930 . S
H234 C250 0.931 . S
C235 H223 0.929 . S
C235 C229 1.390 . S
C235 C232 1.386 . S
C236 C231 1.490 . S
C236 C238 1.395 . S
C236 C239 1.403 . S
H237 C243 0.930 . S
C238 H224 0.930 . S
C238 C236 1.395 . S
C238 C241 1.403 . S
C239 C236 1.403 . S
C239 C240 1.524 . S
C239 C243 1.400 . S
C240 H225 0.960 . S
C240 H226 0.960 . S
C240 H227 0.960 . S
C240 C239 1.524 . S
C241 C238 1.403 . S
C241 C242 1.392 . S
C241 C245 1.495 . S
C242 C241 1.392 . S
C242 C243 1.385 . S
C242 C244 1.478 . S
C243 H237 0.930 . S
C243 C239 1.400 . S
C243 C242 1.385 . S
C244 C242 1.478 . S
C244 C246 1.381 . S
C244 C250 1.383 . S
C245 C241 1.495 . S
C245 H251 0.959 . S
C245 H252 0.961 . S
C245 H253 0.960 . S
C246 C244 1.381 . S
C246 C247 1.394 . S
C246 H254 0.930 . S
C247 C246 1.394 . S
C247 C248 1.383 . S
C247 H255 0.929 . S
C248 C247 1.383 . S
C248 C249 1.377 . S
C249 H233 0.930 . S
C249 C248 1.377 . S
C249 C250 1.379 . S
C250 H234 0.931 . S
C250 C244 1.383 . S
C250 C249 1.379 . S
H251 C245 0.959 . S
H252 C245 0.961 . S
H253 C245 0.960 . S
H254 C246 0.930 . S
H255 C247 0.929 . S
H256 C264 0.929 . S
H257 C266 0.930 . S
H258 C268 0.930 . S
H259 C271 0.929 . S
H260 C274 0.930 . S
H261 C276 0.960 . S
H262 C276 0.960 . S
H263 C276 0.960 . S
C264 H256 0.929 . S
C264 C265 1.377 . S
C264 C266 1.384 . S
C265 C264 1.377 . S
C265 C271 1.390 . S
C266 H257 0.930 . S
C266 C264 1.384 . S
C266 C267 1.372 . S
C267 C266 1.372 . S
C267 C268 1.400 . S
C267 C272 1.490 . S
C268 H258 0.930 . S
C268 C267 1.400 . S
C268 C271 1.386 . S
H269 C285 0.930 . S
H270 C286 0.931 . S
C271 H259 0.929 . S
C271 C265 1.390 . S
C271 C268 1.386 . S
C272 C267 1.490 . S
C272 C274 1.395 . S
C272 C275 1.403 . S
H273 C279 0.930 . S
C274 H260 0.930 . S
C274 C272 1.395 . S
C274 C277 1.403 . S
C275 C272 1.403 . S
C275 C276 1.524 . S
C275 C279 1.400 . S
C276 H261 0.960 . S
C276 H262 0.960 . S
C276 H263 0.960 . S
C276 C275 1.524 . S
C277 C274 1.403 . S
C277 C278 1.392 . S
C277 C281 1.495 . S
C278 C277 1.392 . S
C278 C279 1.385 . S
C278 C280 1.478 . S
C279 H273 0.930 . S
C279 C275 1.400 . S
C279 C278 1.385 . S
C280 C278 1.478 . S
C280 C282 1.381 . S
C280 C286 1.383 . S
C281 C277 1.495 . S
C281 H287 0.959 . S
C281 H288 0.961 . S
C281 H289 0.960 . S
C282 C280 1.381 . S
C282 C283 1.394 . S
C282 H290 0.930 . S
C283 C282 1.394 . S
C283 C284 1.383 . S
C283 H291 0.929 . S
C284 C283 1.383 . S
C284 C285 1.377 . S
C285 H269 0.930 . S
C285 C284 1.377 . S
C285 C286 1.379 . S
C286 H270 0.931 . S
C286 C280 1.383 . S
C286 C285 1.379 . S
H287 C281 0.959 . S
H288 C281 0.961 . S
H289 C281 0.960 . S
H290 C282 0.930 . S
H291 C283 0.929 . S
H292 C300 0.929 . S
H293 C302 0.930 . S
H294 C304 0.930 . S
H295 C307 0.929 . S
H296 C310 0.930 . S
H297 C312 0.960 . S
H298 C312 0.960 . S
H299 C312 0.960 . S
C300 H292 0.929 . S
C300 C301 1.377 . S
C300 C302 1.384 . S
C301 C300 1.377 . S
C301 C307 1.390 . S
C302 H293 0.930 . S
C302 C300 1.384 . S
C302 C303 1.372 . S
C303 C302 1.372 . S
C303 C304 1.400 . S
C303 C308 1.490 . S
C304 H294 0.930 . S
C304 C303 1.400 . S
C304 C307 1.386 . S
H305 C321 0.930 . S
H306 C322 0.931 . S
C307 H295 0.929 . S
C307 C301 1.390 . S
C307 C304 1.386 . S
C308 C303 1.490 . S
C308 C310 1.395 . S
C308 C311 1.403 . S
H309 C315 0.930 . S
C310 H296 0.930 . S
C310 C308 1.395 . S
C310 C313 1.403 . S
C311 C308 1.403 . S
C311 C312 1.524 . S
C311 C315 1.400 . S
C312 H297 0.960 . S
C312 H298 0.960 . S
C312 H299 0.960 . S
C312 C311 1.524 . S
C313 C310 1.403 . S
C313 C314 1.392 . S
C313 C317 1.495 . S
C314 C313 1.392 . S
C314 C315 1.385 . S
C314 C316 1.478 . S
C315 H309 0.930 . S
C315 C311 1.400 . S
C315 C314 1.385 . S
C316 C314 1.478 . S
C316 C318 1.381 . S
C316 C322 1.383 . S
C317 C313 1.495 . S
C317 H323 0.959 . S
C317 H324 0.961 . S
C317 H325 0.960 . S
C318 C316 1.381 . S
C318 C319 1.394 . S
C318 H326 0.930 . S
C319 C318 1.394 . S
C319 C320 1.383 . S
C319 H327 0.929 . S
C320 C319 1.383 . S
C320 C321 1.377 . S
C321 H305 0.930 . S
C321 C320 1.377 . S
C321 C322 1.379 . S
C322 H306 0.931 . S
C322 C316 1.383 . S
C322 C321 1.379 . S
H323 C317 0.959 . S
H324 C317 0.961 . S
H325 C317 0.960 . S
H326 C318 0.930 . S
H327 C319 0.929 . S
H328 C336 0.929 . S
H329 C338 0.930 . S
H330 C340 0.930 . S
H331 C343 0.929 . S
H332 C346 0.930 . S
H333 C348 0.960 . S
H334 C348 0.960 . S
H335 C348 0.960 . S
C336 H328 0.929 . S
C336 C337 1.377 . S
C336 C338 1.384 . S
C337 C336 1.377 . S
C337 C343 1.390 . S
C338 H329 0.930 . S
C338 C336 1.384 . S
C338 C339 1.372 . S
C339 C338 1.372 . S
C339 C340 1.400 . S
C339 C344 1.490 . S
C340 H330 0.930 . S
C340 C339 1.400 . S
C340 C343 1.386 . S
H341 C357 0.930 . S
H342 C358 0.931 . S
C343 H331 0.929 . S
C343 C337 1.390 . S
C343 C340 1.386 . S
C344 C339 1.490 . S
C344 C346 1.395 . S
C344 C347 1.403 . S
H345 C351 0.930 . S
C346 H332 0.930 . S
C346 C344 1.395 . S
C346 C349 1.403 . S
C347 C344 1.403 . S
C347 C348 1.524 . S
C347 C351 1.400 . S
C348 H333 0.960 . S
C348 H334 0.960 . S
C348 H335 0.960 . S
C348 C347 1.524 . S
C349 C346 1.403 . S
C349 C350 1.392 . S
C349 C353 1.495 . S
C350 C349 1.392 . S
C350 C351 1.385 . S
C350 C352 1.478 . S
C351 H345 0.930 . S
C351 C347 1.400 . S
C351 C350 1.385 . S
C352 C350 1.478 . S
C352 C354 1.381 . S
C352 C358 1.383 . S
C353 C349 1.495 . S
C353 H359 0.959 . S
C353 H360 0.961 . S
C353 H361 0.960 . S
C354 C352 1.381 . S
C354 C355 1.394 . S
C354 H362 0.930 . S
C355 C354 1.394 . S
C355 C356 1.383 . S
C355 H363 0.929 . S
C356 C355 1.383 . S
C356 C357 1.377 . S
C357 H341 0.930 . S
C357 C356 1.377 . S
C357 C358 1.379 . S
C358 H342 0.931 . S
C358 C352 1.383 . S
C358 C357 1.379 . S
H359 C353 0.959 . S
H360 C353 0.961 . S
H361 C353 0.960 . S
H362 C354 0.930 . S
H363 C355 0.929 . S
H364 C372 0.929 . S
H365 C374 0.930 . S
H366 C376 0.930 . S
H367 C379 0.929 . S
H368 C382 0.930 . S
H369 C384 0.960 . S
H370 C384 0.960 . S
H371 C384 0.960 . S
C372 H364 0.929 . S
C372 C373 1.377 . S
C372 C374 1.384 . S
C373 C372 1.377 . S
C373 C379 1.390 . S
C374 H365 0.930 . S
C374 C372 1.384 . S
C374 C375 1.372 . S
C375 C374 1.372 . S
C375 C376 1.400 . S
C375 C380 1.490 . S
C376 H366 0.930 . S
C376 C375 1.400 . S
C376 C379 1.386 . S
H377 C393 0.930 . S
H378 C394 0.931 . S
C379 H367 0.929 . S
C379 C373 1.390 . S
C379 C376 1.386 . S
C380 C375 1.490 . S
C380 C382 1.395 . S
C380 C383 1.403 . S
H381 C387 0.930 . S
C382 H368 0.930 . S
C382 C380 1.395 . S
C382 C385 1.403 . S
C383 C380 1.403 . S
C383 C384 1.524 . S
C383 C387 1.400 . S
C384 H369 0.960 . S
C384 H370 0.960 . S
C384 H371 0.960 . S
C384 C383 1.524 . S
C385 C382 1.403 . S
C385 C386 1.392 . S
C385 C389 1.495 . S
C386 C385 1.392 . S
C386 C387 1.385 . S
C386 C388 1.478 . S
C387 H381 0.930 . S
C387 C383 1.400 . S
C387 C386 1.385 . S
C388 C386 1.478 . S
C388 C390 1.381 . S
C388 C394 1.383 . S
C389 C385 1.495 . S
C389 H395 0.959 . S
C389 H396 0.961 . S
C389 H397 0.960 . S
C390 C388 1.381 . S
C390 C391 1.394 . S
C390 H398 0.930 . S
C391 C390 1.394 . S
C391 C392 1.383 . S
C391 H399 0.929 . S
C392 C391 1.383 . S
C392 C393 1.377 . S
C393 H377 0.930 . S
C393 C392 1.377 . S
C393 C394 1.379 . S
C394 H378 0.931 . S
C394 C388 1.383 . S
C394 C393 1.379 . S
H395 C389 0.959 . S
H396 C389 0.961 . S
H397 C389 0.960 . S
H398 C390 0.930 . S
H399 C391 0.929 . S
H400 C408 0.929 . S
H401 C410 0.930 . S
H402 C412 0.930 1_556 S
H403 C415 0.929 . S
H404 C418 0.930 . S
H405 C420 0.960 . S
H406 C420 0.960 . S
H407 C420 0.960 . S
C408 H400 0.929 . S
C408 C409 1.377 . S
C408 C410 1.384 . S
C409 C408 1.377 . S
C409 C415 1.390 . S
C410 H401 0.930 . S
C410 C408 1.384 . S
C410 C411 1.372 . S
C411 C410 1.372 . S
C411 C412 1.400 . S
C411 C416 1.490 . S
C412 H402 0.930 1_554 S
C412 C411 1.400 . S
C412 C415 1.386 . S
H413 C429 0.930 . S
H414 C430 0.931 . S
C415 H403 0.929 . S
C415 C409 1.390 . S
C415 C412 1.386 . S
C416 C411 1.490 . S
C416 C418 1.395 . S
C416 C419 1.403 1_554 S
H417 C423 0.930 . S
C418 H404 0.930 . S
C418 C416 1.395 . S
C418 C421 1.403 . S
C419 C416 1.403 1_556 S
C419 C420 1.524 . S
C419 C423 1.400 . S
C420 H405 0.960 . S
C420 H406 0.960 . S
C420 H407 0.960 . S
C420 C419 1.524 . S
C421 C418 1.403 . S
C421 C422 1.392 1_554 S
C421 C425 1.495 . S
C422 C421 1.392 1_556 S
C422 C423 1.385 . S
C422 C424 1.478 . S
C423 H417 0.930 . S
C423 C419 1.400 . S
C423 C422 1.385 . S
C424 C422 1.478 . S
C424 C426 1.381 . S
C424 C430 1.383 . S
C425 C421 1.495 . S
C425 H431 0.959 . S
C425 H432 0.961 . S
C425 H433 0.960 . S
C426 C424 1.381 . S
C426 C427 1.394 . S
C426 H434 0.930 1_556 S
C427 C426 1.394 . S
C427 C428 1.383 . S
C427 H435 0.929 . S
C428 C427 1.383 . S
C428 C429 1.377 . S
C429 H413 0.930 . S
C429 C428 1.377 . S
C429 C430 1.379 . S
C430 H414 0.931 . S
C430 C424 1.383 . S
C430 C429 1.379 . S
H431 C425 0.959 . S
H432 C425 0.961 . S
H433 C425 0.960 . S
H434 C426 0.930 1_554 S
H435 C427 0.929 . S
H436 C444 0.929 . S
H437 C446 0.930 1_556 S
H438 C448 0.930 . S
H439 C451 0.929 . S
H440 C454 0.930 . S
H441 C456 0.960 . S
H442 C456 0.960 . S
H443 C456 0.960 . S
C444 H436 0.929 . S
C444 C445 1.377 . S
C444 C446 1.384 . S
C445 C444 1.377 . S
C445 C451 1.390 . S
C446 H437 0.930 1_554 S
C446 C444 1.384 . S
C446 C447 1.372 . S
C447 C446 1.372 . S
C447 C448 1.400 . S
C447 C452 1.490 . S
C448 H438 0.930 . S
C448 C447 1.400 . S
C448 C451 1.386 . S
H449 C465 0.930 . S
H450 C466 0.931 1_554 S
C451 H439 0.929 . S
C451 C445 1.390 . S
C451 C448 1.386 . S
C452 C447 1.490 . S
C452 C454 1.395 1_554 S
C452 C455 1.403 1_455 S
H453 C459 0.930 . S
C454 H440 0.930 . S
C454 C452 1.395 1_556 S
C454 C457 1.403 . S
C455 C452 1.403 1_655 S
C455 C456 1.524 . S
C455 C459 1.400 . S
C456 H441 0.960 . S
C456 H442 0.960 . S
C456 H443 0.960 . S
C456 C455 1.524 . S
C457 C454 1.403 . S
C457 C458 1.392 1_455 S
C457 C461 1.495 . S
C458 C457 1.392 1_655 S
C458 C459 1.385 1_556 S
C458 C460 1.478 . S
C459 H453 0.930 . S
C459 C455 1.400 . S
C459 C458 1.385 1_554 S
C460 C458 1.478 . S
C460 C462 1.381 . S
C460 C466 1.383 . S
C461 C457 1.495 . S
C461 H467 0.959 . S
C461 H468 0.961 . S
C461 H469 0.960 . S
C462 C460 1.381 . S
C462 C463 1.394 . S
C462 H470 0.930 . S
C463 C462 1.394 . S
C463 C464 1.383 . S
C463 H471 0.929 . S
C464 C463 1.383 . S
C464 C465 1.377 . S
C465 H449 0.930 . S
C465 C464 1.377 . S
C465 C466 1.379 . S
C466 H450 0.931 1_556 S
C466 C460 1.383 . S
C466 C465 1.379 . S
H467 C461 0.959 . S
H468 C461 0.961 . S
H469 C461 0.960 . S
H470 C462 0.930 . S
H471 C463 0.929 . S
H472 C480 0.929 . S
H473 C482 0.930 . S
H474 C484 0.930 . S
H475 C487 0.929 . S
H476 C490 0.930 . S
H477 C492 0.960 . S
H478 C492 0.960 . S
H479 C492 0.960 . S
C480 H472 0.929 . S
C480 C481 1.377 . S
C480 C482 1.384 . S
C481 C480 1.377 . S
C481 C487 1.390 . S
C482 H473 0.930 . S
C482 C480 1.384 . S
C482 C483 1.372 . S
C483 C482 1.372 . S
C483 C484 1.400 . S
C483 C488 1.490 . S
C484 H474 0.930 . S
C484 C483 1.400 . S
C484 C487 1.386 . S
H485 C501 0.930 . S
H486 C502 0.931 . S
C487 H475 0.929 . S
C487 C481 1.390 . S
C487 C484 1.386 . S
C488 C483 1.490 . S
C488 C490 1.395 1_565 S
C488 C491 1.403 . S
H489 C495 0.931 . S
C490 H476 0.930 . S
C490 C488 1.395 1_545 S
C490 C493 1.403 . S
C491 C488 1.403 . S
C491 C492 1.524 . S
C491 C495 1.402 . S
C492 H477 0.960 . S
C492 H478 0.960 . S
C492 H479 0.960 . S
C492 C491 1.524 . S
C493 C490 1.403 . S
C493 C494 1.392 . S
C493 C497 1.495 . S
C494 C493 1.392 . S
C494 C495 1.383 1_545 S
C494 C496 1.478 . S
C495 H489 0.931 . S
C495 C491 1.402 . S
C495 C494 1.383 1_565 S
C496 C494 1.478 . S
C496 C498 1.381 . S
C496 C502 1.383 . S
C497 C493 1.495 . S
C497 H503 0.959 . S
C497 H504 0.961 . S
C497 H505 0.960 . S
C498 C496 1.381 . S
C498 C499 1.394 . S
C498 H506 0.930 . S
C499 C498 1.394 . S
C499 C500 1.383 . S
C499 H507 0.929 . S
C500 C499 1.383 . S
C500 C501 1.377 . S
C501 H485 0.930 . S
C501 C500 1.377 . S
C501 C502 1.379 . S
C502 H486 0.931 . S
C502 C496 1.383 . S
C502 C501 1.379 . S
H503 C497 0.959 . S
H504 C497 0.961 . S
H505 C497 0.960 . S
H506 C498 0.930 . S
H507 C499 0.929 . S
H508 C516 0.929 . S
H509 C518 0.930 . S
H510 C520 0.930 . S
H511 C523 0.929 . S
H512 C526 0.930 . S
H513 C528 0.960 . S
H514 C528 0.960 . S
H515 C528 0.960 . S
C516 H508 0.929 . S
C516 C517 1.377 . S
C516 C518 1.384 . S
C517 C516 1.377 . S
C517 C523 1.390 . S
C518 H509 0.930 . S
C518 C516 1.384 . S
C518 C519 1.372 . S
C519 C518 1.372 . S
C519 C520 1.400 . S
C519 C524 1.490 . S
C520 H510 0.930 . S
C520 C519 1.400 . S
C520 C523 1.386 . S
H521 C537 0.930 . S
H522 C538 0.931 . S
C523 H511 0.929 . S
C523 C517 1.390 . S
C523 C520 1.386 . S
C524 C519 1.490 . S
C524 C526 1.395 1_655 S
C524 C527 1.403 1_545 S
H525 C531 0.930 . S
C526 H512 0.930 . S
C526 C524 1.395 1_455 S
C526 C529 1.403 . S
C527 C524 1.403 1_565 S
C527 C528 1.524 . S
C527 C531 1.400 . S
C528 H513 0.960 . S
C528 H514 0.960 . S
C528 H515 0.960 . S
C528 C527 1.524 . S
C529 C526 1.403 . S
C529 C530 1.392 1_545 S
C529 C533 1.495 . S
C530 C529 1.392 1_565 S
C530 C531 1.385 1_455 S
C530 C532 1.478 . S
C531 H525 0.930 . S
C531 C527 1.400 . S
C531 C530 1.385 1_655 S
C532 C530 1.478 . S
C532 C534 1.381 . S
C532 C538 1.383 . S
C533 C529 1.495 . S
C533 H539 0.959 . S
C533 H540 0.961 . S
C533 H541 0.960 . S
C534 C532 1.381 . S
C534 C535 1.394 . S
C534 H542 0.930 . S
C535 C534 1.394 . S
C535 C536 1.383 . S
C535 H543 0.929 . S
C536 C535 1.383 . S
C536 C537 1.377 . S
C537 H521 0.930 . S
C537 C536 1.377 . S
C537 C538 1.379 . S
C538 H522 0.931 . S
C538 C532 1.383 . S
C538 C537 1.379 . S
H539 C533 0.959 . S
H540 C533 0.961 . S
H541 C533 0.960 . S
H542 C534 0.930 . S
H543 C535 0.929 . S
H544 C552 0.929 . S
H545 C554 0.930 . S
H546 C556 0.930 . S
H547 C559 0.929 . S
H548 C562 0.930 . S
H549 C564 0.960 . S
H550 C564 0.960 . S
H551 C564 0.960 . S
C552 H544 0.929 . S
C552 C553 1.377 . S
C552 C554 1.384 . S
C553 C552 1.377 . S
C553 C559 1.390 . S
C554 H545 0.930 . S
C554 C552 1.384 . S
C554 C555 1.372 . S
C555 C554 1.372 . S
C555 C556 1.400 . S
C555 C560 1.490 . S
C556 H546 0.930 . S
C556 C555 1.400 . S
C556 C559 1.386 . S
H557 C573 0.930 . S
H558 C574 0.931 . S
C559 H547 0.929 . S
C559 C553 1.390 . S
C559 C556 1.386 . S
C560 C555 1.490 . S
C560 C562 1.395 . S
C560 C563 1.403 . S
H561 C567 0.930 . S
C562 H548 0.930 . S
C562 C560 1.395 . S
C562 C565 1.403 . S
C563 C560 1.403 . S
C563 C564 1.524 . S
C563 C567 1.400 . S
C564 H549 0.960 . S
C564 H550 0.960 . S
C564 H551 0.960 . S
C564 C563 1.524 . S
C565 C562 1.403 . S
C565 C566 1.392 . S
C565 C569 1.495 . S
C566 C565 1.392 . S
C566 C567 1.385 . S
C566 C568 1.478 . S
C567 H561 0.930 . S
C567 C563 1.400 . S
C567 C566 1.385 . S
C568 C566 1.478 . S
C568 C570 1.381 . S
C568 C574 1.383 . S
C569 C565 1.495 . S
C569 H575 0.959 . S
C569 H576 0.961 . S
C569 H577 0.960 . S
C570 C568 1.381 . S
C570 C571 1.394 . S
C570 H578 0.930 . S
C571 C570 1.394 . S
C571 C572 1.383 . S
C571 H579 0.929 . S
C572 C571 1.383 . S
C572 C573 1.377 . S
C573 H557 0.930 . S
C573 C572 1.377 . S
C573 C574 1.379 . S
C574 H558 0.931 . S
C574 C568 1.383 . S
C574 C573 1.379 . S
H575 C569 0.959 . S
H576 C569 0.961 . S
H577 C569 0.960 . S
H578 C570 0.930 . S
H579 C571 0.929 . S
H580 C588 0.929 . S
H581 C590 0.930 . S
H582 C592 0.930 . S
H583 C595 0.929 . S
H584 C598 0.930 . S
H585 C600 0.960 . S
H586 C600 0.960 . S
H587 C600 0.960 . S
C588 H580 0.929 . S
C588 C589 1.377 . S
C588 C590 1.384 . S
C589 C588 1.377 . S
C589 C595 1.390 . S
C590 H581 0.930 . S
C590 C588 1.384 . S
C590 C591 1.372 . S
C591 C590 1.372 . S
C591 C592 1.400 . S
C591 C596 1.490 . S
C592 H582 0.930 . S
C592 C591 1.400 . S
C592 C595 1.386 . S
H593 C609 0.930 . S
H594 C610 0.931 . S
C595 H583 0.929 . S
C595 C589 1.390 . S
C595 C592 1.386 . S
C596 C591 1.490 . S
C596 C598 1.395 1_545 S
C596 C599 1.403 . S
H597 C603 0.930 . S
C598 H584 0.930 . S
C598 C596 1.395 1_565 S
C598 C601 1.403 . S
C599 C596 1.403 . S
C599 C600 1.524 . S
C599 C603 1.400 1_545 S
C600 H585 0.960 . S
C600 H586 0.960 . S
C600 H587 0.960 . S
C600 C599 1.524 . S
C601 C598 1.403 . S
C601 C602 1.392 . S
C601 C605 1.495 . S
C602 C601 1.392 . S
C602 C603 1.385 . S
C602 C604 1.478 . S
C603 H597 0.930 . S
C603 C599 1.400 1_565 S
C603 C602 1.385 . S
C604 C602 1.478 . S
C604 C606 1.381 . S
C604 C610 1.383 . S
C605 C601 1.495 . S
C605 H611 0.959 . S
C605 H612 0.961 . S
C605 H613 0.960 . S
C606 C604 1.381 . S
C606 C607 1.394 . S
C606 H614 0.930 . S
C607 C606 1.394 . S
C607 C608 1.383 . S
C607 H615 0.929 . S
C608 C607 1.383 . S
C608 C609 1.377 . S
C609 H593 0.930 . S
C609 C608 1.377 . S
C609 C610 1.379 . S
C610 H594 0.931 . S
C610 C604 1.383 . S
C610 C609 1.379 . S
H611 C605 0.959 . S
H612 C605 0.961 . S
H613 C605 0.960 . S
H614 C606 0.930 . S
H615 C607 0.929 . S
H616 C624 0.929 . S
H617 C626 0.930 . S
H618 C628 0.930 . S
H619 C631 0.929 . S
H620 C634 0.930 . S
H621 C636 0.960 . S
H622 C636 0.960 . S
H623 C636 0.960 . S
C624 H616 0.929 . S
C624 C625 1.377 . S
C624 C626 1.384 . S
C625 C624 1.377 . S
C625 C631 1.390 . S
C626 H617 0.930 . S
C626 C624 1.384 . S
C626 C627 1.372 . S
C627 C626 1.372 . S
C627 C628 1.400 . S
C627 C632 1.490 . S
C628 H618 0.930 . S
C628 C627 1.400 . S
C628 C631 1.386 . S
H629 C645 0.930 . S
H630 C646 0.931 . S
C631 H619 0.929 . S
C631 C625 1.390 . S
C631 C628 1.386 . S
C632 C627 1.490 . S
C632 C634 1.395 . S
C632 C635 1.403 . S
H633 C639 0.930 . S
C634 H620 0.930 . S
C634 C632 1.395 . S
C634 C637 1.403 . S
C635 C632 1.403 . S
C635 C636 1.524 . S
C635 C639 1.400 . S
C636 H621 0.960 . S
C636 H622 0.960 . S
C636 H623 0.960 . S
C636 C635 1.524 . S
C637 C634 1.403 . S
C637 C638 1.392 . S
C637 C641 1.495 . S
C638 C637 1.392 . S
C638 C639 1.385 . S
C638 C640 1.478 . S
C639 H633 0.930 . S
C639 C635 1.400 . S
C639 C638 1.385 . S
C640 C638 1.478 . S
C640 C642 1.381 . S
C640 C646 1.383 . S
C641 C637 1.495 . S
C641 H647 0.959 . S
C641 H648 0.961 . S
C641 H649 0.960 . S
C642 C640 1.381 . S
C642 C643 1.394 . S
C642 H650 0.930 . S
C643 C642 1.394 . S
C643 C644 1.383 . S
C643 H651 0.929 . S
C644 C643 1.383 . S
C644 C645 1.377 . S
C645 H629 0.930 . S
C645 C644 1.377 . S
C645 C646 1.379 . S
C646 H630 0.931 . S
C646 C640 1.383 . S
C646 C645 1.379 . S
H647 C641 0.959 . S
H648 C641 0.961 . S
H649 C641 0.960 . S
H650 C642 0.930 . S
H651 C643 0.929 . S
H652 C660 0.929 . S
H653 C662 0.930 . S
H654 C664 0.930 . S
H655 C667 0.929 . S
H656 C670 0.930 1_565 S
H657 C672 0.960 . S
H658 C672 0.960 . S
H659 C672 0.960 . S
C660 H652 0.929 . S
C660 C661 1.377 . S
C660 C662 1.384 . S
C661 C660 1.377 . S
C661 C667 1.390 . S
C662 H653 0.930 . S
C662 C660 1.384 . S
C662 C663 1.372 . S
C663 C662 1.372 . S
C663 C664 1.400 . S
C663 C668 1.490 . S
C664 H654 0.930 . S
C664 C663 1.400 . S
C664 C667 1.386 . S
H665 C681 0.930 . S
H666 C682 0.931 . S
C667 H655 0.929 . S
C667 C661 1.390 . S
C667 C664 1.386 . S
C668 C663 1.490 . S
C668 C670 1.395 1_565 S
C668 C671 1.403 . S
H669 C675 0.930 . S
C670 H656 0.930 1_545 S
C670 C668 1.395 1_545 S
C670 C673 1.403 . S
C671 C668 1.403 . S
C671 C672 1.524 . S
C671 C675 1.400 1_565 S
C672 H657 0.960 . S
C672 H658 0.960 . S
C672 H659 0.960 . S
C672 C671 1.524 . S
C673 C670 1.403 . S
C673 C674 1.392 . S
C673 C677 1.495 . S
C674 C673 1.392 . S
C674 C675 1.385 . S
C674 C676 1.478 . S
C675 H669 0.930 . S
C675 C671 1.400 1_545 S
C675 C674 1.385 . S
C676 C674 1.478 . S
C676 C678 1.381 . S
C676 C682 1.383 . S
C677 C673 1.495 . S
C677 H683 0.959 . S
C677 H684 0.961 . S
C677 H685 0.960 . S
C678 C676 1.381 . S
C678 C679 1.394 . S
C678 H686 0.930 . S
C679 C678 1.394 . S
C679 C680 1.383 . S
C679 H687 0.929 . S
C680 C679 1.383 . S
C680 C681 1.377 . S
C681 H665 0.930 . S
C681 C680 1.377 . S
C681 C682 1.379 . S
C682 H666 0.931 . S
C682 C676 1.383 . S
C682 C681 1.379 . S
H683 C677 0.959 . S
H684 C677 0.961 . S
H685 C677 0.960 . S
H686 C678 0.930 . S
H687 C679 0.929 . S
C121 C12 1.126 . S
C140 C26 1.159 . S
C157 C54 1.126 . S
C176 C40 1.157 . S
C193 C68 1.138 . S
C212 C82 1.160 . S
C229 C96 1.134 . S
C248 C110 1.147 . S
C265 C11 1.434 . S
C284 C39 1.401 . S
C301 C53 1.428 . S
C320 C25 1.425 . S
C337 C67 1.426 . S
C356 C95 1.431 . S
C373 C109 1.432 . S
C392 C81 1.456 . S
C409 C5 1.350 . S
C428 C61 1.373 . S
C445 C19 1.337 . S
C464 C75 1.307 . S
C481 C89 1.338 . S
C500 C33 1.304 . S
C517 C103 1.350 . S
C536 C47 1.369 . S
C553 C18 0.659 . S
C572 C4 0.698 . S
C589 C32 0.641 . S
C608 C46 0.653 . S
C625 C60 0.657 . S
C644 C74 0.586 . S
C661 C88 0.659 . S
C680 C102 0.589 . S
