# Generated by pormake.
# Topology vbx, (6)-cn, num edge types: 1
# Building blocks:
#     Node 0, Type 0, BuildingBlock: OJICUG_clean_sbu_0, # of connection points: 6
#     Node 1, Type 0, BuildingBlock: OJICUG_clean_sbu_0, # of connection points: 6
#     Node 2, Type 0, BuildingBlock: OJICUG_clean_sbu_0, # of connection points: 6
#     Node 3, Type 0, BuildingBlock: OJICUG_clean_sbu_0, # of connection points: 6
#     Node 4, Type 0, BuildingBlock: OJICUG_clean_sbu_0, # of connection points: 6
#     Node 5, Type 0, BuildingBlock: OJICUG_clean_sbu_0, # of connection points: 6
#     Node 6, Type 0, BuildingBlock: OJICUG_clean_sbu_0, # of connection points: 6
#     Node 7, Type 0, BuildingBlock: OJICUG_clean_sbu_0, # of connection points: 6
#     Node 8, Type 0, BuildingBlock: OJICUG_clean_sbu_0, # of connection points: 6
#     Node 9, Type 0, BuildingBlock: OJICUG_clean_sbu_0, # of connection points: 6
#     Node 10, Type 0, BuildingBlock: OJICUG_clean_sbu_0, # of connection points: 6
#     Node 11, Type 0, BuildingBlock: OJICUG_clean_sbu_0, # of connection points: 6
#     Node 12, Type 0, BuildingBlock: OJICUG_clean_sbu_0, # of connection points: 6
#     Node 13, Type 0, BuildingBlock: OJICUG_clean_sbu_0, # of connection points: 6
#     Node 14, Type 0, BuildingBlock: OJICUG_clean_sbu_0, # of connection points: 6
#     Node 15, Type 0, BuildingBlock: OJICUG_clean_sbu_0, # of connection points: 6
#     Edge 16, Type (0, 0), BuildingBlock: XUDNAN_clean_linker_2, # of connection points: 2
#     Edge 17, Type (0, 0), BuildingBlock: XUDNAN_clean_linker_2, # of connection points: 2
#     Edge 18, Type (0, 0), BuildingBlock: XUDNAN_clean_linker_2, # of connection points: 2
#     Edge 19, Type (0, 0), BuildingBlock: XUDNAN_clean_linker_2, # of connection points: 2
#     Edge 20, Type (0, 0), BuildingBlock: XUDNAN_clean_linker_2, # of connection points: 2
#     Edge 21, Type (0, 0), BuildingBlock: XUDNAN_clean_linker_2, # of connection points: 2
#     Edge 22, Type (0, 0), BuildingBlock: XUDNAN_clean_linker_2, # of connection points: 2
#     Edge 23, Type (0, 0), BuildingBlock: XUDNAN_clean_linker_2, # of connection points: 2
#     Edge 24, Type (0, 0), BuildingBlock: XUDNAN_clean_linker_2, # of connection points: 2
#     Edge 25, Type (0, 0), BuildingBlock: XUDNAN_clean_linker_2, # of connection points: 2
#     Edge 26, Type (0, 0), BuildingBlock: XUDNAN_clean_linker_2, # of connection points: 2
#     Edge 27, Type (0, 0), BuildingBlock: XUDNAN_clean_linker_2, # of connection points: 2
#     Edge 28, Type (0, 0), BuildingBlock: XUDNAN_clean_linker_2, # of connection points: 2
#     Edge 29, Type (0, 0), BuildingBlock: XUDNAN_clean_linker_2, # of connection points: 2
#     Edge 30, Type (0, 0), BuildingBlock: XUDNAN_clean_linker_2, # of connection points: 2
#     Edge 31, Type (0, 0), BuildingBlock: XUDNAN_clean_linker_2, # of connection points: 2
#     Edge 32, Type (0, 0), BuildingBlock: XUDNAN_clean_linker_2, # of connection points: 2
#     Edge 33, Type (0, 0), BuildingBlock: XUDNAN_clean_linker_2, # of connection points: 2
#     Edge 34, Type (0, 0), BuildingBlock: XUDNAN_clean_linker_2, # of connection points: 2
#     Edge 35, Type (0, 0), BuildingBlock: XUDNAN_clean_linker_2, # of connection points: 2
#     Edge 36, Type (0, 0), BuildingBlock: XUDNAN_clean_linker_2, # of connection points: 2
#     Edge 37, Type (0, 0), BuildingBlock: XUDNAN_clean_linker_2, # of connection points: 2
#     Edge 38, Type (0, 0), BuildingBlock: XUDNAN_clean_linker_2, # of connection points: 2
#     Edge 39, Type (0, 0), BuildingBlock: XUDNAN_clean_linker_2, # of connection points: 2
#     Edge 40, Type (0, 0), BuildingBlock: XUDNAN_clean_linker_2, # of connection points: 2
#     Edge 41, Type (0, 0), BuildingBlock: XUDNAN_clean_linker_2, # of connection points: 2
#     Edge 42, Type (0, 0), BuildingBlock: XUDNAN_clean_linker_2, # of connection points: 2
#     Edge 43, Type (0, 0), BuildingBlock: XUDNAN_clean_linker_2, # of connection points: 2
#     Edge 44, Type (0, 0), BuildingBlock: XUDNAN_clean_linker_2, # of connection points: 2
#     Edge 45, Type (0, 0), BuildingBlock: XUDNAN_clean_linker_2, # of connection points: 2
#     Edge 46, Type (0, 0), BuildingBlock: XUDNAN_clean_linker_2, # of connection points: 2
#     Edge 47, Type (0, 0), BuildingBlock: XUDNAN_clean_linker_2, # of connection points: 2
#     Edge 48, Type (0, 0), BuildingBlock: XUDNAN_clean_linker_2, # of connection points: 2
#     Edge 49, Type (0, 0), BuildingBlock: XUDNAN_clean_linker_2, # of connection points: 2
#     Edge 50, Type (0, 0), BuildingBlock: XUDNAN_clean_linker_2, # of connection points: 2
#     Edge 51, Type (0, 0), BuildingBlock: XUDNAN_clean_linker_2, # of connection points: 2
#     Edge 52, Type (0, 0), BuildingBlock: XUDNAN_clean_linker_2, # of connection points: 2
#     Edge 53, Type (0, 0), BuildingBlock: XUDNAN_clean_linker_2, # of connection points: 2
#     Edge 54, Type (0, 0), BuildingBlock: XUDNAN_clean_linker_2, # of connection points: 2
#     Edge 55, Type (0, 0), BuildingBlock: XUDNAN_clean_linker_2, # of connection points: 2
#     Edge 56, Type (0, 0), BuildingBlock: XUDNAN_clean_linker_2, # of connection points: 2
#     Edge 57, Type (0, 0), BuildingBlock: XUDNAN_clean_linker_2, # of connection points: 2
#     Edge 58, Type (0, 0), BuildingBlock: XUDNAN_clean_linker_2, # of connection points: 2
#     Edge 59, Type (0, 0), BuildingBlock: XUDNAN_clean_linker_2, # of connection points: 2
#     Edge 60, Type (0, 0), BuildingBlock: XUDNAN_clean_linker_2, # of connection points: 2
#     Edge 61, Type (0, 0), BuildingBlock: XUDNAN_clean_linker_2, # of connection points: 2
#     Edge 62, Type (0, 0), BuildingBlock: XUDNAN_clean_linker_2, # of connection points: 2
#     Edge 63, Type (0, 0), BuildingBlock: XUDNAN_clean_linker_2, # of connection points: 2
# Relax obj value: 0.244
# Max RMSD: 0.241
# Mean RMSD: 0.241
data_MOF--net-vbx--node1-OJICUG_clean_sbu_0--edge1-XUDNAN_clean_linker_2
_symmetry_space_group_name_H-M    P1
_symmetry_Int_Tables_number       1
_symmetry_cell_setting            triclinic
loop_
_symmetry_equiv_pos_as_xyz
'x, y, z'
_cell_length_a     47.297943
_cell_length_b     28.755191
_cell_length_c     57.842181
_cell_angle_alpha  89.882576
_cell_angle_beta   90.065034
_cell_angle_gamma 90.028403
loop_
_atom_site_label
_atom_site_type_symbol
_atom_site_fract_x
_atom_site_fract_y
_atom_site_fract_z
_atom_type_partial_charge
Sc0 Sc 0.33856 0.44487 0.11384 0.0
Sc1 Sc 0.27897 0.37669 0.10309 0.0
Sc2 Sc 0.34589 0.34235 0.08404 0.0
O3 O 0.32078 0.38743 0.10051 0.0
C4 C 0.36458 0.44083 0.06505 0.0
C5 C 0.27721 0.48444 0.10187 0.0
C6 C 0.29324 0.35035 0.05073 0.0
C7 C 0.30067 0.40742 0.15378 0.0
C8 C 0.38722 0.37014 0.12219 0.0
C9 C 0.30075 0.2729 0.10679 0.0
O10 O 0.35066 0.46511 0.0795 0.0
O11 O 0.26795 0.44669 0.09366 0.0
O12 O 0.31959 0.34541 0.05423 0.0
O13 O 0.32459 0.4233 0.14721 0.0
O14 O 0.37337 0.33692 0.11331 0.0
O15 O 0.2834 0.30469 0.11219 0.0
O16 O 0.37947 0.41228 0.11987 0.0
O17 O 0.28128 0.3938 0.1398 0.0
O18 O 0.32376 0.28122 0.0962 0.0
O19 O 0.30117 0.48752 0.11155 0.0
O20 O 0.37072 0.39828 0.06887 0.0
O21 O 0.27544 0.35882 0.06677 0.0
Sc22 Sc 0.65584 0.58439 0.62109 0.0
Sc23 Sc 0.7192 0.64922 0.61943 0.0
Sc24 Sc 0.6651 0.67282 0.57959 0.0
O25 O 0.68011 0.63535 0.60667 0.0
C26 C 0.64555 0.56877 0.56738 0.0
C27 C 0.71722 0.53975 0.62663 0.0
C28 C 0.72988 0.65751 0.56585 0.0
C29 C 0.68102 0.63808 0.6645 0.0
C30 C 0.60941 0.6618 0.60921 0.0
C31 C 0.69869 0.75178 0.60601 0.0
O32 O 0.64758 0.5525 0.58784 0.0
O33 O 0.73046 0.57755 0.62362 0.0
O34 O 0.70417 0.6665 0.56122 0.0
O35 O 0.66215 0.61273 0.65512 0.0
O36 O 0.62471 0.68451 0.5952 0.0
O37 O 0.71459 0.72321 0.61656 0.0
O38 O 0.61758 0.62444 0.61884 0.0
O39 O 0.70274 0.65298 0.65386 0.0
O40 O 0.67851 0.739 0.59301 0.0
O41 O 0.69045 0.53683 0.62631 0.0
O42 O 0.65037 0.61118 0.56249 0.0
O43 O 0.73865 0.64804 0.58608 0.0
Sc44 Sc 0.33609 0.70235 0.89939 0.0
Sc45 Sc 0.28179 0.68696 0.85884 0.0
Sc46 Sc 0.33757 0.60667 0.86257 0.0
O47 O 0.31829 0.66523 0.87365 0.0
C48 C 0.38974 0.67585 0.87101 0.0
C49 C 0.30955 0.78381 0.86831 0.0
C50 C 0.3188 0.65405 0.81579 0.0
C51 C 0.27235 0.70819 0.91279 0.0
C52 C 0.34795 0.59734 0.91572 0.0
C53 C 0.27191 0.5785 0.85892 0.0
O54 O 0.37556 0.70694 0.8814 0.0
O55 O 0.29643 0.75691 0.85462 0.0
O56 O 0.33661 0.63153 0.82783 0.0
O57 O 0.2978 0.70065 0.91876 0.0
O58 O 0.34068 0.57818 0.89685 0.0
O59 O 0.26259 0.61954 0.86161 0.0
O60 O 0.34967 0.64121 0.91813 0.0
O61 O 0.26384 0.70637 0.89187 0.0
O62 O 0.2982 0.56927 0.85776 0.0
O63 O 0.32388 0.76913 0.88542 0.0
O64 O 0.37935 0.63655 0.86549 0.0
O65 O 0.29649 0.67221 0.82412 0.0
Sc66 Sc 0.66136 0.42253 0.37157 0.0
Sc67 Sc 0.71845 0.34409 0.37474 0.0
Sc68 Sc 0.651 0.31068 0.39438 0.0
O69 O 0.67695 0.35902 0.38005 0.0
C70 C 0.63348 0.4044 0.42064 0.0
C71 C 0.72368 0.4522 0.38648 0.0
C72 C 0.70708 0.30501 0.42519 0.0
C73 C 0.69872 0.39305 0.32786 0.0
C74 C 0.60921 0.35589 0.35811 0.0
C75 C 0.69072 0.24388 0.36593 0.0
O76 O 0.64328 0.43196 0.40538 0.0
O77 O 0.734 0.41205 0.38347 0.0
O78 O 0.68139 0.2961 0.42057 0.0
O79 O 0.67956 0.41705 0.33773 0.0
O80 O 0.61777 0.32119 0.36975 0.0
O81 O 0.71084 0.273 0.36575 0.0
O82 O 0.62231 0.39454 0.35781 0.0
O83 O 0.71431 0.36353 0.33846 0.0
O84 O 0.66635 0.25378 0.37369 0.0
O85 O 0.69761 0.46081 0.38364 0.0
O86 O 0.63324 0.36048 0.4181 0.0
O87 O 0.72398 0.3241 0.41079 0.0
Sc88 Sc 0.63994 0.56752 0.87085 0.0
Sc89 Sc 0.6992 0.63794 0.88078 0.0
Sc90 Sc 0.63974 0.64854 0.91504 0.0
O91 O 0.6598 0.61785 0.88868 0.0
C92 C 0.59218 0.64544 0.87876 0.0
C93 C 0.66949 0.62577 0.83156 0.0
C94 C 0.67682 0.73353 0.89626 0.0
C95 C 0.70393 0.53024 0.872 0.0
C96 C 0.6196 0.54423 0.92065 0.0
C97 C 0.69876 0.63257 0.93611 0.0
O98 O 0.5998 0.6047 0.87251 0.0
O99 O 0.69022 0.63716 0.84441 0.0
O100 O 0.66096 0.71503 0.91139 0.0
O101 O 0.67786 0.52566 0.86687 0.0
O102 O 0.61604 0.5873 0.92448 0.0
O103 O 0.71109 0.64202 0.91703 0.0
O104 O 0.63106 0.52943 0.90222 0.0
O105 O 0.71427 0.56791 0.87972 0.0
O106 O 0.67226 0.62617 0.93778 0.0
O107 O 0.64833 0.60245 0.8387 0.0
O108 O 0.6069 0.67065 0.89223 0.0
O109 O 0.68819 0.71011 0.88028 0.0
Sc110 Sc 0.36917 0.29738 0.38632 0.0
Sc111 Sc 0.30004 0.33127 0.37071 0.0
Sc112 Sc 0.35691 0.40703 0.36161 0.0
O113 O 0.342 0.34494 0.37274 0.0
C114 C 0.387 0.39396 0.40997 0.0
C115 C 0.31608 0.28956 0.41991 0.0
C116 C 0.29578 0.43902 0.37954 0.0
C117 C 0.32695 0.23215 0.35847 0.0
C118 C 0.40928 0.34077 0.34888 0.0
C119 C 0.31538 0.37706 0.32167 0.0
O120 O 0.38926 0.3501 0.40733 0.0
O121 O 0.29798 0.30605 0.40581 0.0
O122 O 0.32015 0.44641 0.37121 0.0
O123 O 0.35087 0.23906 0.36794 0.0
O124 O 0.39656 0.37958 0.34954 0.0
O125 O 0.29892 0.35541 0.33543 0.0
O126 O 0.40015 0.30505 0.3594 0.0
O127 O 0.30742 0.26242 0.35796 0.0
O128 O 0.33871 0.39544 0.32799 0.0
O129 O 0.342 0.28455 0.41496 0.0
O130 O 0.37457 0.42022 0.39535 0.0
O131 O 0.28637 0.39829 0.38295 0.0
Sc132 Sc 0.6291 0.28521 0.09667 0.0
Sc133 Sc 0.69708 0.3182 0.11506 0.0
Sc134 Sc 0.64086 0.39874 0.1164 0.0
O135 O 0.65574 0.33405 0.10955 0.0
C136 C 0.61451 0.37692 0.06711 0.0
C137 C 0.68533 0.26983 0.06695 0.0
C138 C 0.70412 0.42526 0.10208 0.0
C139 C 0.6671 0.22098 0.12787 0.0
C140 C 0.5868 0.33716 0.12992 0.0
C141 C 0.67814 0.37283 0.16071 0.0
O142 O 0.61338 0.33329 0.07089 0.0
O143 O 0.7023 0.29226 0.08001 0.0
O144 O 0.67824 0.43455 0.1053 0.0
O145 O 0.64282 0.23106 0.11989 0.0
O146 O 0.60036 0.37523 0.12915 0.0
O147 O 0.69389 0.34326 0.1504 0.0
O148 O 0.5955 0.30049 0.12016 0.0
O149 O 0.68788 0.24885 0.12669 0.0
O150 O 0.65802 0.39493 0.15084 0.0
O151 O 0.65946 0.26369 0.07183 0.0
O152 O 0.6243 0.40573 0.0818 0.0
O153 O 0.71393 0.38447 0.10421 0.0
Sc154 Sc 0.35666 0.66213 0.56643 0.0
Sc155 Sc 0.298 0.636 0.60126 0.0
Sc156 Sc 0.36196 0.57486 0.60759 0.0
O157 O 0.3386 0.62434 0.59174 0.0
C158 C 0.3788 0.55886 0.55615 0.0
C159 C 0.29605 0.64096 0.54615 0.0
C160 C 0.30043 0.52824 0.60951 0.0
C161 C 0.3172 0.73881 0.58982 0.0
C162 C 0.40782 0.65513 0.5997 0.0
C163 C 0.33255 0.62717 0.64886 0.0
O164 O 0.37818 0.60246 0.5523 0.0
O165 O 0.28349 0.63909 0.56564 0.0
O166 O 0.32686 0.52832 0.61337 0.0
O167 O 0.33697 0.72665 0.5763 0.0
O168 O 0.40087 0.61403 0.60551 0.0
O169 O 0.30978 0.6357 0.6377 0.0
O170 O 0.39202 0.6808 0.58743 0.0
O171 O 0.30264 0.70995 0.60137 0.0
O172 O 0.35402 0.60749 0.63996 0.0
O173 O 0.32253 0.64645 0.54391 0.0
O174 O 0.37083 0.54091 0.57521 0.0
O175 O 0.28722 0.56358 0.60211 0.0
Sc176 Sc 0.83039 0.89702 0.12678 0.0
Sc177 Sc 0.77477 0.81782 0.12175 0.0
Sc178 Sc 0.83431 0.80668 0.08634 0.0
O179 O 0.81312 0.84052 0.11153 0.0
C180 C 0.84678 0.91432 0.07497 0.0
C181 C 0.76466 0.92528 0.1242 0.0
C182 C 0.77288 0.79838 0.06739 0.0
C183 C 0.80376 0.84603 0.16937 0.0
C184 C 0.88432 0.83117 0.1199 0.0
C185 C 0.80436 0.72205 0.1132 0.0
O186 O 0.83764 0.93008 0.09408 0.0
O187 O 0.7559 0.88539 0.11806 0.0
O188 O 0.79864 0.8081 0.06337 0.0
O189 O 0.82455 0.86764 0.16051 0.0
O190 O 0.87185 0.80139 0.10726 0.0
O191 O 0.78958 0.74798 0.12623 0.0
O192 O 0.87261 0.86869 0.12644 0.0
O193 O 0.78325 0.83048 0.15752 0.0
O194 O 0.82097 0.73812 0.0978 0.0
O195 O 0.79042 0.93323 0.12925 0.0
O196 O 0.84892 0.87097 0.07078 0.0
O197 O 0.76209 0.79992 0.08745 0.0
Sc198 Sc 0.15679 0.07476 0.60563 0.0
Sc199 Sc 0.21741 0.14377 0.61221 0.0
Sc200 Sc 0.15913 0.18712 0.58075 0.0
O201 O 0.17775 0.13532 0.59951 0.0
C202 C 0.1382 0.09667 0.55388 0.0
C203 C 0.21896 0.03746 0.5965 0.0
C204 C 0.22222 0.18711 0.56174 0.0
C205 C 0.18708 0.09277 0.65393 0.0
C206 C 0.10882 0.15157 0.61288 0.0
C207 C 0.19304 0.24625 0.61824 0.0
O208 O 0.14175 0.06925 0.57083 0.0
O209 O 0.23058 0.07542 0.60233 0.0
O210 O 0.19601 0.19599 0.55968 0.0
O211 O 0.1689 0.0729 0.6412 0.0
O212 O 0.12029 0.18265 0.60029 0.0
O213 O 0.2097 0.21329 0.62337 0.0
O214 O 0.11953 0.11154 0.61612 0.0
O215 O 0.20561 0.12063 0.64613 0.0
O216 O 0.17334 0.2422 0.60339 0.0
O217 O 0.1923 0.03176 0.59619 0.0
O218 O 0.14368 0.13985 0.55473 0.0
O219 O 0.23294 0.16828 0.5796 0.0
Sc220 Sc 0.83805 0.17842 0.90269 0.0
Sc221 Sc 0.78122 0.12971 0.87184 0.0
Sc222 Sc 0.84407 0.06587 0.87971 0.0
O223 O 0.82116 0.12475 0.88467 0.0
C224 C 0.89046 0.14534 0.87253 0.0
C225 C 0.80208 0.23515 0.86635 0.0
C226 C 0.81477 0.0841 0.83041 0.0
C227 C 0.77499 0.17136 0.92223 0.0
C228 C 0.85942 0.09064 0.93181 0.0
C229 C 0.78317 0.02285 0.88676 0.0
O230 O 0.87712 0.1757 0.88409 0.0
O231 O 0.78462 0.20228 0.86309 0.0
O232 O 0.83226 0.06367 0.84377 0.0
O233 O 0.80031 0.18627 0.92278 0.0
O234 O 0.85749 0.06209 0.91517 0.0
O235 O 0.77046 0.0584 0.87901 0.0
O236 O 0.85354 0.13353 0.92969 0.0
O237 O 0.76491 0.14797 0.90542 0.0
O238 O 0.80972 0.02093 0.88954 0.0
O239 O 0.82415 0.23044 0.8786 0.0
O240 O 0.88147 0.10403 0.86966 0.0
O241 O 0.79566 0.1117 0.83765 0.0
Sc242 Sc 0.1604 0.90821 0.36194 0.0
Sc243 Sc 0.21966 0.83618 0.36311 0.0
Sc244 Sc 0.16258 0.81637 0.4002 0.0
O245 O 0.18121 0.85362 0.37522 0.0
C246 C 0.14583 0.92138 0.41318 0.0
C247 C 0.22465 0.94366 0.35942 0.0
C248 C 0.22438 0.81578 0.41762 0.0
C249 C 0.18368 0.85897 0.318 0.0
C250 C 0.11041 0.83542 0.36962 0.0
C251 C 0.1955 0.73669 0.37232 0.0
O252 O 0.15671 0.94021 0.39537 0.0
O253 O 0.23569 0.9062 0.36684 0.0
O254 O 0.19866 0.82492 0.42221 0.0
O255 O 0.16299 0.87689 0.32876 0.0
O256 O 0.1258 0.80478 0.37923 0.0
O257 O 0.20816 0.76432 0.35858 0.0
O258 O 0.11917 0.87657 0.36585 0.0
O259 O 0.20735 0.84936 0.32747 0.0
O260 O 0.17968 0.75082 0.38862 0.0
O261 O 0.1984 0.94745 0.35512 0.0
O262 O 0.14349 0.87745 0.41553 0.0
O263 O 0.23453 0.81786 0.39722 0.0
Sc264 Sc 0.14407 0.10846 0.87009 0.0
Sc265 Sc 0.20114 0.1851 0.8612 0.0
Sc266 Sc 0.14112 0.22165 0.89221 0.0
O267 O 0.16219 0.17181 0.87443 0.0
C268 C 0.09141 0.1776 0.8635 0.0
C269 C 0.17113 0.12732 0.82093 0.0
C270 C 0.17287 0.28414 0.85443 0.0
C271 C 0.20897 0.07974 0.87657 0.0
C272 C 0.12612 0.12982 0.92131 0.0
C273 C 0.20364 0.2325 0.91103 0.0
O274 O 0.10287 0.13759 0.86325 0.0
O275 O 0.19024 0.15483 0.82827 0.0
O276 O 0.15423 0.27769 0.86989 0.0
O277 O 0.1827 0.07062 0.87596 0.0
O278 O 0.12565 0.17354 0.91801 0.0
O279 O 0.21534 0.21673 0.89285 0.0
O280 O 0.13447 0.10135 0.90605 0.0
O281 O 0.21874 0.12014 0.87276 0.0
O282 O 0.177 0.23419 0.91386 0.0
O283 O 0.15234 0.10947 0.83387 0.0
O284 O 0.1036 0.21331 0.87174 0.0
O285 O 0.18982 0.25245 0.84805 0.0
Sc286 Sc 0.86592 0.83014 0.41369 0.0
Sc287 Sc 0.79989 0.84942 0.38918 0.0
Sc288 Sc 0.85739 0.91703 0.37253 0.0
O289 O 0.84097 0.86545 0.39184 0.0
C290 C 0.885 0.93626 0.42021 0.0
C291 C 0.81187 0.83795 0.4434 0.0
C292 C 0.79487 0.9557 0.38294 0.0
C293 C 0.82445 0.7497 0.39509 0.0
C294 C 0.90772 0.84248 0.37331 0.0
C295 C 0.81951 0.86587 0.33701 0.0
O296 O 0.88868 0.8928 0.4237 0.0
O297 O 0.7956 0.83657 0.42584 0.0
O298 O 0.81868 0.95814 0.37271 0.0
O299 O 0.84511 0.76336 0.40755 0.0
O300 O 0.89835 0.88321 0.36914 0.0
O301 O 0.80047 0.85815 0.35211 0.0
O302 O 0.89511 0.81443 0.38672 0.0
O303 O 0.80869 0.77765 0.38402 0.0
O304 O 0.84362 0.88287 0.34187 0.0
O305 O 0.83836 0.84363 0.44184 0.0
O306 O 0.87125 0.95215 0.40303 0.0
O307 O 0.78715 0.91987 0.39409 0.0
Sc308 Sc 0.13216 0.84648 0.07301 0.0
Sc309 Sc 0.19566 0.8661 0.10249 0.0
Sc310 Sc 0.13664 0.93655 0.11318 0.0
O311 O 0.15498 0.88322 0.09609 0.0
C312 C 0.11401 0.95256 0.06323 0.0
C313 C 0.19028 0.85525 0.0475 0.0
C314 C 0.20027 0.97451 0.10618 0.0
C315 C 0.16876 0.76659 0.09721 0.0
C316 C 0.0863 0.86188 0.11085 0.0
C317 C 0.16943 0.88391 0.15241 0.0
O318 O 0.11236 0.90896 0.05937 0.0
O319 O 0.20499 0.85525 0.06601 0.0
O320 O 0.17495 0.97908 0.11339 0.0
O321 O 0.1498 0.77925 0.0829 0.0
O322 O 0.09563 0.90224 0.1158 0.0
O323 O 0.19033 0.87336 0.13957 0.0
O324 O 0.09916 0.83454 0.09732 0.0
O325 O 0.18544 0.79474 0.10705 0.0
O326 O 0.14748 0.90471 0.14515 0.0
O327 O 0.16351 0.85566 0.04733 0.0
O328 O 0.1247 0.96937 0.08155 0.0
O329 O 0.20992 0.93606 0.099 0.0
Sc330 Sc 0.85867 0.20135 0.59065 0.0
Sc331 Sc 0.79914 0.15691 0.61998 0.0
Sc332 Sc 0.85948 0.08736 0.6134 0.0
O333 O 0.83911 0.14861 0.60805 0.0
C334 C 0.87829 0.11144 0.56213 0.0
C335 C 0.79658 0.20502 0.57002 0.0
C336 C 0.79652 0.05158 0.60384 0.0
C337 C 0.82405 0.25778 0.62887 0.0
C338 C 0.90874 0.1626 0.6213 0.0
C339 C 0.82892 0.10255 0.66166 0.0
O340 O 0.87585 0.15512 0.56488 0.0
O341 O 0.78497 0.18692 0.58775 0.0
O342 O 0.82303 0.04499 0.60547 0.0
O343 O 0.84315 0.25531 0.61345 0.0
O344 O 0.89832 0.12189 0.62255 0.0
O345 O 0.80929 0.12805 0.6535 0.0
O346 O 0.89646 0.1962 0.61113 0.0
O347 O 0.80786 0.22406 0.63379 0.0
O348 O 0.84882 0.08633 0.64936 0.0
O349 O 0.82308 0.21121 0.56829 0.0
O350 O 0.87197 0.08222 0.57781 0.0
O351 O 0.78505 0.09065 0.60766 0.0
H352 H 0.24816 0.24007 0.11861 0.0
H353 H 0.33334 0.19453 0.10209 0.0
H354 H 0.31701 0.11304 0.10217 0.0
H355 H 0.22884 0.13992 0.15575 0.0
H356 H 0.19304 0.13888 0.14504 0.0
H357 H 0.21212 0.19307 0.1464 0.0
H358 H 0.20252 0.2064 0.10278 0.0
H359 H 0.18379 0.15201 0.10117 0.0
H360 H 0.21331 0.16285 0.08223 0.0
H361 H 0.29083 0.038 0.10013 0.0
H362 H 0.25721 0.97302 0.09829 0.0
H363 H 0.18853 0.06677 0.116 0.0
C364 C 0.26361 0.21297 0.11563 0.0
C365 C 0.29214 0.22383 0.11047 0.0
C366 C 0.31144 0.18719 0.10618 0.0
C367 C 0.30235 0.14077 0.10617 0.0
C368 C 0.27393 0.13151 0.11053 0.0
C369 C 0.25487 0.16647 0.11542 0.0
C370 C 0.22515 0.14734 0.11812 0.0
C371 C 0.21414 0.15527 0.1428 0.0
C372 C 0.20502 0.16841 0.1 0.0
C373 C 0.23039 0.09621 0.11355 0.0
C374 C 0.2587 0.08794 0.10931 0.0
C375 C 0.26866 0.04393 0.10369 0.0
C376 C 0.24926 0.00725 0.10257 0.0
C377 C 0.22008 0.01457 0.10703 0.0
C378 C 0.21064 0.05983 0.11263 0.0
H379 H 0.75057 0.78744 0.61599 0.0
H380 H 0.6659 0.82774 0.59494 0.0
H381 H 0.68213 0.90921 0.59051 0.0
H382 H 0.76852 0.89086 0.64784 0.0
H383 H 0.80467 0.89063 0.638 0.0
H384 H 0.78557 0.83673 0.64065 0.0
H385 H 0.79665 0.8182 0.59773 0.0
H386 H 0.81533 0.87249 0.59481 0.0
H387 H 0.78647 0.85906 0.57557 0.0
H388 H 0.70815 0.98615 0.58829 0.0
H389 H 0.74119 0.05266 0.58963 0.0
H390 H 0.80905 0.95953 0.61004 0.0
C391 C 0.7352 0.81346 0.61093 0.0
C392 C 0.70683 0.80139 0.60614 0.0
C393 C 0.68767 0.83636 0.59891 0.0
C394 C 0.69673 0.88259 0.59624 0.0
C395 C 0.72506 0.89295 0.60057 0.0
C396 C 0.74396 0.85932 0.60779 0.0
C397 C 0.77344 0.87884 0.61061 0.0
C398 C 0.78364 0.87399 0.63577 0.0
C399 C 0.79419 0.85577 0.59367 0.0
C400 C 0.76817 0.92905 0.60422 0.0
C401 C 0.74017 0.93656 0.59843 0.0
C402 C 0.73014 0.98062 0.59268 0.0
C403 C 0.74908 0.01813 0.59345 0.0
C404 C 0.77776 0.01126 0.5998 0.0
C405 C 0.78741 0.96589 0.60476 0.0
H406 H 0.25742 0.81812 0.86127 0.0
H407 H 0.34336 0.86005 0.87686 0.0
H408 H 0.32707 0.94166 0.8818 0.0
H409 H 0.23387 0.92032 0.83102 0.0
H410 H 0.1993 0.91859 0.8441 0.0
H411 H 0.21878 0.86553 0.83989 0.0
H412 H 0.21381 0.84699 0.88361 0.0
H413 H 0.19489 0.90054 0.88811 0.0
H414 H 0.22639 0.88837 0.9046 0.0
H415 H 0.30028 0.01895 0.88476 0.0
H416 H 0.26606 0.08401 0.88581 0.0
H417 H 0.19773 0.98714 0.87186 0.0
C418 C 0.273 0.84471 0.865 0.0
C419 C 0.30179 0.83336 0.86791 0.0
C420 C 0.32132 0.86854 0.87402 0.0
C421 C 0.3122 0.91473 0.877 0.0
C422 C 0.28343 0.92451 0.87445 0.0
C423 C 0.26417 0.89026 0.86873 0.0
C424 C 0.23424 0.90846 0.86851 0.0
C425 C 0.22077 0.90291 0.84445 0.0
C426 C 0.21629 0.88468 0.88732 0.0
C427 C 0.23958 0.95888 0.87426 0.0
C428 C 0.26803 0.96765 0.87767 0.0
C429 C 0.27796 0.01234 0.88229 0.0
C430 C 0.25835 0.04904 0.8829 0.0
C431 C 0.22915 0.04069 0.87909 0.0
C432 C 0.21979 0.99476 0.8752 0.0
H433 H 0.80377 0.04312 0.36474 0.0
H434 H 0.73858 0.95412 0.39384 0.0
H435 H 0.70303 0.01478 0.38638 0.0
H436 H 0.77847 0.14727 0.38948 0.0
H437 H 0.78765 0.18306 0.36499 0.0
H438 H 0.80727 0.1308 0.37082 0.0
H439 H 0.79631 0.10193 0.32929 0.0
H440 H 0.77608 0.15381 0.32357 0.0
H441 H 0.76007 0.09742 0.31985 0.0
H442 H 0.67481 0.08612 0.37759 0.0
H443 H 0.65769 0.16667 0.37356 0.0
H444 H 0.741 0.20928 0.35006 0.0
C445 C 0.782 0.03627 0.36944 0.0
C446 C 0.77405 0.99372 0.37983 0.0
C447 C 0.74533 0.98644 0.38593 0.0
C448 C 0.72485 0.02049 0.38153 0.0
C449 C 0.73333 0.06173 0.37099 0.0
C450 C 0.76127 0.07002 0.3653 0.0
C451 C 0.76518 0.11881 0.35599 0.0
C452 C 0.78585 0.14661 0.37123 0.0
C453 C 0.77499 0.11791 0.33067 0.0
C454 C 0.73523 0.13702 0.35796 0.0
C455 C 0.71705 0.10325 0.36617 0.0
C456 C 0.68876 0.1128 0.37094 0.0
C457 C 0.67917 0.1587 0.36845 0.0
C458 C 0.69796 0.19452 0.36155 0.0
C459 C 0.72596 0.1828 0.3552 0.0
H460 H 0.75485 0.96571 0.8575 0.0
H461 H 0.77361 0.98892 0.92987 0.0
H462 H 0.74339 0.92162 0.94052 0.0
H463 H 0.68229 0.92553 0.8638 0.0
H464 H 0.68568 0.88141 0.84188 0.0
H465 H 0.70659 0.9337 0.84014 0.0
H466 H 0.75248 0.88452 0.83848 0.0
H467 H 0.73168 0.83219 0.83991 0.0
H468 H 0.75928 0.84219 0.86084 0.0
H469 H 0.71131 0.85192 0.94301 0.0
H470 H 0.68604 0.77766 0.93716 0.0
H471 H 0.69136 0.79661 0.86287 0.0
C472 C 0.75232 0.95662 0.87556 0.0
C473 C 0.76609 0.98224 0.89298 0.0
C474 C 0.76298 0.96938 0.91642 0.0
C475 C 0.74577 0.93159 0.92258 0.0
C476 C 0.73223 0.90696 0.905 0.0
C477 C 0.73575 0.91843 0.88194 0.0
C478 C 0.72103 0.88389 0.86631 0.0
C479 C 0.6975 0.90756 0.8522 0.0
C480 C 0.7424 0.85923 0.85046 0.0
C481 C 0.70887 0.85093 0.88414 0.0
C482 C 0.71499 0.86545 0.90636 0.0
C483 C 0.7063 0.84029 0.9257 0.0
C484 C 0.69173 0.79839 0.92221 0.0
C485 C 0.68656 0.78176 0.89956 0.0
C486 C 0.69484 0.80882 0.88035 0.0
H487 H 0.27032 0.97951 0.38333 0.0
H488 H 0.21969 0.99745 0.32139 0.0
H489 H 0.2478 0.0663 0.31072 0.0
H490 H 0.2725 0.09695 0.39719 0.0
H491 H 0.30808 0.09709 0.40839 0.0
H492 H 0.28752 0.04452 0.40913 0.0
H493 H 0.32703 0.00174 0.38658 0.0
H494 H 0.34759 0.05455 0.38559 0.0
H495 H 0.33881 0.0246 0.35919 0.0
H496 H 0.2761 0.13768 0.30907 0.0
H497 H 0.30056 0.21115 0.31828 0.0
H498 H 0.33359 0.14968 0.38118 0.0
C499 C 0.26573 0.99742 0.36727 0.0
C500 C 0.24301 0.98317 0.35308 0.0
C501 C 0.237 0.00799 0.3325 0.0
C502 C 0.25302 0.04684 0.32617 0.0
C503 C 0.27498 0.06066 0.34064 0.0
C504 C 0.28131 0.03702 0.36086 0.0
C505 C 0.30357 0.06291 0.37471 0.0
C506 C 0.29223 0.07616 0.39876 0.0
C507 C 0.33087 0.03423 0.37662 0.0
C508 C 0.30788 0.1055 0.35954 0.0
C509 C 0.29159 0.10283 0.33972 0.0
C510 C 0.2895 0.13981 0.32421 0.0
C511 C 0.3035 0.18133 0.32951 0.0
C512 C 0.31946 0.18546 0.35008 0.0
C513 C 0.32245 0.14662 0.36488 0.0
H514 H 0.77506 0.01497 0.13774 0.0
H515 H 0.70727 0.92266 0.11627 0.0
H516 H 0.67297 0.98663 0.12108 0.0
H517 H 0.7343 0.08094 0.18057 0.0
H518 H 0.75146 0.13495 0.1732 0.0
H519 H 0.77023 0.08076 0.17019 0.0
H520 H 0.78027 0.09934 0.12705 0.0
H521 H 0.76202 0.15377 0.13009 0.0
H522 H 0.75116 0.11316 0.1081 0.0
H523 H 0.64672 0.06261 0.12526 0.0
H524 H 0.6319 0.14488 0.12474 0.0
H525 H 0.71689 0.1861 0.14449 0.0
C526 C 0.75298 0.0079 0.13422 0.0
C527 C 0.74393 0.96364 0.12664 0.0
C528 C 0.7148 0.95621 0.1221 0.0
C529 C 0.69509 0.99225 0.12496 0.0
C530 C 0.70478 0.03537 0.13258 0.0
C531 C 0.73308 0.04329 0.13705 0.0
C532 C 0.7385 0.09353 0.14331 0.0
C533 C 0.74926 0.09777 0.16831 0.0
C534 C 0.75919 0.11627 0.12611 0.0
C535 C 0.70897 0.1131 0.14089 0.0
C536 C 0.68968 0.07895 0.13508 0.0
C537 C 0.66155 0.08955 0.13011 0.0
C538 C 0.65329 0.13646 0.12998 0.0
C539 C 0.6732 0.17217 0.13456 0.0
C540 C 0.70102 0.15983 0.14111 0.0
H541 H 0.2061 0.94483 0.59941 0.0
H542 H 0.27423 0.04043 0.58282 0.0
H543 H 0.30698 0.97421 0.57853 0.0
H544 H 0.24622 0.87012 0.63404 0.0
H545 H 0.22905 0.81743 0.62469 0.0
H546 H 0.21012 0.87169 0.62401 0.0
H547 H 0.19957 0.86052 0.58039 0.0
H548 H 0.21824 0.80593 0.58088 0.0
H549 H 0.22838 0.85061 0.56063 0.0
H550 H 0.33277 0.89754 0.57757 0.0
H551 H 0.34933 0.81592 0.57992 0.0
H552 H 0.2647 0.77219 0.59917 0.0
C553 C 0.22774 0.95179 0.59438 0.0
C554 C 0.2376 0.99769 0.59134 0.0
C555 C 0.26624 0.00544 0.58523 0.0
C556 C 0.285 0.96811 0.58273 0.0
C557 C 0.27479 0.92333 0.58648 0.0
C558 C 0.24681 0.91501 0.59208 0.0
C559 C 0.24152 0.86391 0.59642 0.0
C560 C 0.23112 0.85531 0.62127 0.0
C561 C 0.2207 0.84408 0.57851 0.0
C562 C 0.27099 0.84496 0.59287 0.0
C563 C 0.28984 0.87958 0.58683 0.0
C564 C 0.31822 0.8701 0.58232 0.0
C565 C 0.32745 0.8238 0.58378 0.0
C566 C 0.30841 0.78796 0.59008 0.0
C567 C 0.27991 0.79896 0.5948 0.0
H568 H 0.75349 0.68439 0.12338 0.0
H569 H 0.83735 0.64778 0.09927 0.0
H570 H 0.82103 0.5667 0.09264 0.0
H571 H 0.73514 0.57675 0.15153 0.0
H572 H 0.69897 0.57952 0.14177 0.0
H573 H 0.71861 0.63231 0.1464 0.0
H574 H 0.70767 0.65795 0.10419 0.0
H575 H 0.68835 0.60485 0.09943 0.0
H576 H 0.71728 0.62018 0.08065 0.0
H577 H 0.79411 0.48872 0.08877 0.0
H578 H 0.75995 0.42326 0.08794 0.0
H579 H 0.69373 0.51651 0.11117 0.0
C580 C 0.76878 0.65914 0.11735 0.0
C581 C 0.79694 0.67207 0.11245 0.0
C582 C 0.81582 0.63831 0.10358 0.0
C583 C 0.80667 0.59234 0.09963 0.0
C584 C 0.77845 0.5812 0.10416 0.0
C585 C 0.75986 0.61392 0.11275 0.0
C586 C 0.73024 0.5948 0.11486 0.0
C587 C 0.72016 0.59589 0.14014 0.0
C588 C 0.70968 0.62101 0.09883 0.0
C589 C 0.73501 0.5457 0.1066 0.0
C590 C 0.76288 0.53815 0.10054 0.0
C591 C 0.7722 0.49448 0.09331 0.0
C592 C 0.75264 0.45755 0.0928 0.0
C593 C 0.72403 0.46474 0.09921 0.0
C594 C 0.71524 0.50977 0.10573 0.0
H595 H 0.25312 0.4928 0.58844 0.0
H596 H 0.31041 0.47124 0.64608 0.0
H597 H 0.28157 0.40475 0.65922 0.0
H598 H 0.18705 0.45563 0.61747 0.0
H599 H 0.17409 0.42583 0.59219 0.0
H600 H 0.19659 0.47609 0.58904 0.0
H601 H 0.23179 0.42826 0.56425 0.0
H602 H 0.20904 0.37848 0.56689 0.0
H603 H 0.24557 0.37435 0.57555 0.0
H604 H 0.24917 0.33826 0.66468 0.0
H605 H 0.22117 0.26735 0.65796 0.0
H606 H 0.18557 0.32922 0.59598 0.0
C607 C 0.25932 0.4743 0.60397 0.0
C608 C 0.28385 0.48709 0.61634 0.0
C609 C 0.29174 0.4617 0.63631 0.0
C610 C 0.27527 0.42438 0.64409 0.0
C611 C 0.25109 0.41272 0.63162 0.0
C612 C 0.2434 0.4363 0.61173 0.0
C613 C 0.2187 0.41277 0.59984 0.0
C614 C 0.19256 0.44448 0.59963 0.0
C615 C 0.22677 0.39754 0.57519 0.0
C616 C 0.21436 0.37139 0.61573 0.0
C617 C 0.23271 0.37295 0.63435 0.0
C618 C 0.23447 0.33683 0.65035 0.0
C619 C 0.21839 0.29676 0.64644 0.0
C620 C 0.20113 0.2929 0.62651 0.0
C621 C 0.198 0.33165 0.61167 0.0
H622 H 0.69086 0.43881 0.86251 0.0
H623 H 0.76171 0.53306 0.87212 0.0
H624 H 0.79482 0.46868 0.86525 0.0
H625 H 0.72072 0.3453 0.89248 0.0
H626 H 0.70643 0.301 0.87382 0.0
H627 H 0.68839 0.35565 0.87676 0.0
H628 H 0.69036 0.36695 0.83229 0.0
H629 H 0.70884 0.31247 0.82929 0.0
H630 H 0.72401 0.36509 0.81771 0.0
H631 H 0.82032 0.3937 0.861 0.0
H632 H 0.8361 0.31204 0.86298 0.0
H633 H 0.74908 0.26624 0.8556 0.0
C634 C 0.71332 0.44605 0.86285 0.0
C635 C 0.7236 0.49109 0.86782 0.0
C636 C 0.75322 0.49888 0.86844 0.0
C637 C 0.77226 0.46261 0.86432 0.0
C638 C 0.76146 0.41868 0.85952 0.0
C639 C 0.7327 0.41015 0.85887 0.0
C640 C 0.72669 0.3589 0.85545 0.0
C641 C 0.70956 0.33906 0.87584 0.0
C642 C 0.71158 0.35037 0.8323 0.0
C643 C 0.75655 0.33987 0.85506 0.0
C644 C 0.7763 0.37505 0.85701 0.0
C645 C 0.80512 0.36582 0.85909 0.0
C646 C 0.8139 0.31933 0.86017 0.0
C647 C 0.79388 0.28271 0.85927 0.0
C648 C 0.76499 0.29333 0.85579 0.0
H649 H 0.30587 0.52969 0.36758 0.0
H650 H 0.24186 0.43973 0.39765 0.0
H651 H 0.2082 0.50553 0.3978 0.0
H652 H 0.28613 0.63502 0.39856 0.0
H653 H 0.2937 0.67182 0.37408 0.0
H654 H 0.31291 0.61833 0.37803 0.0
H655 H 0.29795 0.59229 0.33688 0.0
H656 H 0.2782 0.64524 0.33297 0.0
H657 H 0.26091 0.58979 0.32955 0.0
H658 H 0.18126 0.5818 0.39388 0.0
H659 H 0.16432 0.66241 0.38783 0.0
H660 H 0.24556 0.6995 0.35834 0.0
C661 C 0.28494 0.52376 0.37458 0.0
C662 C 0.27661 0.47938 0.38268 0.0
C663 C 0.24884 0.47337 0.39143 0.0
C664 C 0.22952 0.5105 0.3915 0.0
C665 C 0.23825 0.55335 0.38269 0.0
C666 C 0.2654 0.56015 0.37457 0.0
C667 C 0.26949 0.60911 0.36556 0.0
C668 C 0.29188 0.63509 0.37992 0.0
C669 C 0.27708 0.60907 0.33971 0.0
C670 C 0.24028 0.62876 0.36955 0.0
C671 C 0.22257 0.5963 0.37963 0.0
C672 C 0.1949 0.60735 0.38584 0.0
C673 C 0.18541 0.65309 0.38222 0.0
C674 C 0.20341 0.68695 0.37217 0.0
C675 C 0.23099 0.67413 0.3654 0.0
H676 H 0.28239 0.48827 0.846 0.0
H677 H 0.2144 0.58191 0.86529 0.0
H678 H 0.17994 0.51834 0.86012 0.0
H679 H 0.24241 0.42235 0.80247 0.0
H680 H 0.2589 0.36806 0.81032 0.0
H681 H 0.27801 0.4219 0.81364 0.0
H682 H 0.28658 0.40352 0.85704 0.0
H683 H 0.26801 0.3494 0.85367 0.0
H684 H 0.25678 0.39035 0.87534 0.0
H685 H 0.15356 0.44271 0.85664 0.0
H686 H 0.13819 0.36058 0.8573 0.0
H687 H 0.22302 0.31774 0.83838 0.0
C688 C 0.26025 0.49561 0.849 0.0
C689 C 0.25118 0.54019 0.85608 0.0
C690 C 0.22194 0.54813 0.85982 0.0
C691 C 0.20214 0.5123 0.85679 0.0
C692 C 0.21182 0.46885 0.84972 0.0
C693 C 0.24019 0.46042 0.84588 0.0
C694 C 0.24538 0.40999 0.83983 0.0
C695 C 0.25685 0.40532 0.81509 0.0
C696 C 0.26535 0.38698 0.85753 0.0
C697 C 0.21561 0.39098 0.84164 0.0
C698 C 0.19647 0.42553 0.8471 0.0
C699 C 0.16823 0.41548 0.85193 0.0
C700 C 0.15965 0.36873 0.85217 0.0
C701 C 0.17927 0.33267 0.8476 0.0
C702 C 0.20727 0.34439 0.84132 0.0
H703 H 0.77194 0.71613 0.38631 0.0
H704 H 0.85638 0.67184 0.40582 0.0
H705 H 0.83947 0.59006 0.40766 0.0
H706 H 0.73462 0.63635 0.42384 0.0
H707 H 0.70622 0.62881 0.40342 0.0
H708 H 0.72559 0.68275 0.40417 0.0
H709 H 0.7369 0.67342 0.36037 0.0
H710 H 0.71781 0.61931 0.35983 0.0
H711 H 0.75414 0.6212 0.35051 0.0
H712 H 0.81275 0.51246 0.4056 0.0
H713 H 0.7793 0.44719 0.40034 0.0
H714 H 0.71253 0.54547 0.38397 0.0
C715 C 0.7871 0.68934 0.39076 0.0
C716 C 0.81565 0.70027 0.39553 0.0
C717 C 0.83448 0.66416 0.40188 0.0
C718 C 0.82502 0.61774 0.40304 0.0
C719 C 0.79662 0.60838 0.39821 0.0
C720 C 0.77797 0.64341 0.39237 0.0
C721 C 0.7485 0.62496 0.38812 0.0
C722 C 0.7275 0.6444 0.40595 0.0
C723 C 0.73878 0.63533 0.36323 0.0
C724 C 0.75346 0.57366 0.39186 0.0
C725 C 0.78127 0.5646 0.39776 0.0
C726 C 0.79091 0.5193 0.40117 0.0
C727 C 0.77173 0.48245 0.39814 0.0
C728 C 0.7432 0.49113 0.39183 0.0
C729 C 0.73404 0.53751 0.38905 0.0
H730 H 0.24656 0.53136 0.06859 0.0
H731 H 0.26303 0.52361 0.14224 0.0
H732 H 0.22853 0.58632 0.14912 0.0
H733 H 0.24452 0.65379 0.06639 0.0
H734 H 0.21715 0.65714 0.04474 0.0
H735 H 0.23987 0.60711 0.04596 0.0
H736 H 0.19556 0.55428 0.04912 0.0
H737 H 0.17291 0.6047 0.04838 0.0
H738 H 0.17045 0.56399 0.07203 0.0
H739 H 0.1962 0.65245 0.14824 0.0
H740 H 0.1734 0.72733 0.13927 0.0
H741 H 0.17835 0.69687 0.06605 0.0
C742 C 0.24249 0.54272 0.08611 0.0
C743 C 0.25719 0.52289 0.10496 0.0
C744 C 0.25196 0.53879 0.12765 0.0
C745 C 0.23218 0.57387 0.13173 0.0
C746 C 0.21798 0.59298 0.11288 0.0
C747 C 0.22318 0.5787 0.09046 0.0
C748 C 0.20769 0.60939 0.07323 0.0
C749 C 0.22857 0.63327 0.05662 0.0
C750 C 0.18532 0.5814 0.0599 0.0
C751 C 0.19392 0.64408 0.08947 0.0
C752 C 0.19949 0.63284 0.11229 0.0
C753 C 0.19124 0.6613 0.1305 0.0
C754 C 0.17821 0.70361 0.12527 0.0
C755 C 0.17369 0.71712 0.10205 0.0
C756 C 0.18066 0.68633 0.08394 0.0
H757 H 0.83222 0.34335 0.60923 0.0
H758 H 0.79559 0.2745 0.66891 0.0
H759 H 0.76769 0.34456 0.67738 0.0
H760 H 0.83065 0.46722 0.63495 0.0
H761 H 0.822 0.49112 0.60699 0.0
H762 H 0.84433 0.44048 0.60911 0.0
H763 H 0.81032 0.39664 0.58166 0.0
H764 H 0.78734 0.44625 0.58004 0.0
H765 H 0.77356 0.39089 0.58941 0.0
H766 H 0.73504 0.41106 0.67316 0.0
H767 H 0.70621 0.47872 0.66125 0.0
H768 H 0.76527 0.5079 0.60583 0.0
C769 C 0.81959 0.344 0.62483 0.0
C770 C 0.81605 0.30351 0.6384 0.0
C771 C 0.79862 0.30517 0.65829 0.0
C772 C 0.78262 0.3448 0.66322 0.0
C773 C 0.78475 0.38279 0.64838 0.0
C774 C 0.8035 0.38349 0.63003 0.0
C775 C 0.79947 0.42677 0.61537 0.0
C776 C 0.82567 0.45827 0.61669 0.0
C777 C 0.79224 0.41435 0.59014 0.0
C778 C 0.77445 0.44862 0.62751 0.0
C779 C 0.76635 0.42271 0.64654 0.0
C780 C 0.74173 0.43258 0.6588 0.0
C781 C 0.72529 0.47055 0.65175 0.0
C782 C 0.73376 0.49834 0.63279 0.0
C783 C 0.75872 0.48745 0.62064 0.0
H784 H 0.354 0.52942 0.0491 0.0
H785 H 0.38782 0.39556 0.02806 0.0
H786 H 0.38945 0.42258 0.98772 0.0
H787 H 0.30907 0.54493 0.00255 0.0
H788 H 0.31458 0.60666 -0.00054 0.0
H789 H 0.31919 0.57938 0.02722 0.0
H790 H 0.37026 0.61164 0.02987 0.0
H791 H 0.36565 0.63971 0.00224 0.0
H792 H 0.39483 0.60039 0.00674 0.0
H793 H 0.38117 0.45976 0.94913 0.0
H794 H 0.36885 0.50862 0.91534 0.0
H795 H 0.34239 0.61918 0.96145 0.0
C796 C 0.36254 0.50621 0.03615 0.0
C797 C 0.37085 0.46037 0.04188 0.0
C798 C 0.3815 0.43095 0.02425 0.0
C799 C 0.38242 0.4459 0.0012 0.0
C800 C 0.37302 0.49058 -0.00395 0.0
C801 C 0.36381 0.52068 0.01305 0.0
C802 C 0.35366 0.56617 0.00273 0.0
C803 C 0.32227 0.57475 0.00833 0.0
C804 C 0.37222 0.60688 0.01088 0.0
C805 C 0.35794 0.5564 0.97727 0.0
C806 C 0.36904 0.51256 0.97376 0.0
C807 C 0.373 0.49453 0.95164 0.0
C808 C 0.36575 0.52233 0.93258 0.0
C809 C 0.35496 0.56775 0.93581 0.0
C810 C 0.35109 0.58488 0.95847 0.0
H811 H 0.63822 0.49462 0.43549 0.0
H812 H 0.61301 0.35671 0.4583 0.0
H813 H 0.60948 0.38529 0.49834 0.0
H814 H 0.68257 0.51782 0.48089 0.0
H815 H 0.67411 0.57872 0.48332 0.0
H816 H 0.67026 0.54976 0.45599 0.0
H817 H 0.61771 0.57489 0.45377 0.0
H818 H 0.62148 0.60463 0.481 0.0
H819 H 0.59427 0.56134 0.4774 0.0
H820 H 0.61516 0.42635 0.53668 0.0
H821 H 0.6265 0.47812 0.56956 0.0
H822 H 0.64774 0.5884 0.52116 0.0
C823 C 0.63107 0.47067 0.44872 0.0
C824 C 0.6258 0.42342 0.44362 0.0
C825 C 0.61702 0.39316 0.46166 0.0
C826 C 0.61499 0.40904 0.48451 0.0
C827 C 0.62153 0.45536 0.48906 0.0
C828 C 0.62898 0.48589 0.4716 0.0
C829 C 0.63708 0.53296 0.48117 0.0
C830 C 0.66782 0.54551 0.47498 0.0
C831 C 0.61639 0.57068 0.47284 0.0
C832 C 0.63382 0.52373 0.50678 0.0
C833 C 0.62466 0.47893 0.51106 0.0
C834 C 0.62187 0.46179 0.53353 0.0
C835 C 0.62849 0.49134 0.5521 0.0
C836 C 0.63784 0.53746 0.54803 0.0
C837 C 0.6403 0.5536 0.525 0.0
H838 H 0.61183 0.46753 0.05199 0.0
H839 H 0.602 0.32498 0.02862 0.0
H840 H 0.5977 0.35269 0.98843 0.0
H841 H 0.56315 0.52087 0.00898 0.0
H842 H 0.58526 0.57159 0.00594 0.0
H843 H 0.58402 0.54083 0.0331 0.0
H844 H 0.63855 0.53143 0.0321 0.0
H845 H 0.63991 0.56184 0.00494 0.0
H846 H 0.65487 0.50442 0.00739 0.0
H847 H 0.60161 0.39517 0.95017 0.0
H848 H 0.6096 0.44989 0.91764 0.0
H849 H 0.61471 0.56404 0.96642 0.0
C850 C 0.60804 0.44214 0.03854 0.0
C851 C 0.60719 0.39405 0.0436 0.0
C852 C 0.60252 0.36206 0.02533 0.0
C853 C 0.60011 0.37743 0.00237 0.0
C854 C 0.602 0.42495 -0.00207 0.0
C855 C 0.6054 0.45688 0.01557 0.0
C856 C 0.60847 0.50574 0.00616 0.0
C857 C 0.58374 0.53657 0.01401 0.0
C858 C 0.63714 0.52707 0.01306 0.0
C859 C 0.60705 0.49617 0.98047 0.0
C860 C 0.6033 0.44943 0.97599 0.0
C861 C 0.60389 0.43202 0.95346 0.0
C862 C 0.60852 0.46325 0.9351 0.0
C863 C 0.61225 0.51131 0.93942 0.0
C864 C 0.61113 0.52772 0.96243 0.0
H865 H 0.37641 0.57934 0.51027 0.0
H866 H 0.39903 0.46912 0.55818 0.0
H867 H 0.41023 0.41776 0.52508 0.0
H868 H 0.34043 0.50851 0.47177 0.0
H869 H 0.35103 0.53988 0.4462 0.0
H870 H 0.34892 0.56953 0.47347 0.0
H871 H 0.4011 0.59577 0.46926 0.0
H872 H 0.40343 0.56602 0.44194 0.0
H873 H 0.42828 0.55283 0.46468 0.0
H874 H 0.4155 0.37714 0.48676 0.0
H875 H 0.4101 0.3478 0.44705 0.0
H876 H 0.38226 0.48458 0.42454 0.0
C877 C 0.38442 0.54479 0.51387 0.0
C878 C 0.38731 0.5284 0.53681 0.0
C879 C 0.39689 0.48244 0.54074 0.0
C880 C 0.40345 0.4532 0.52206 0.0
C881 C 0.40012 0.47045 0.49964 0.0
C882 C 0.39063 0.51512 0.49552 0.0
C883 C 0.38587 0.52386 0.47 0.0
C884 C 0.35472 0.53613 0.46508 0.0
C885 C 0.40587 0.56187 0.46094 0.0
C886 C 0.39358 0.47672 0.46034 0.0
C887 C 0.40227 0.44667 0.47764 0.0
C888 C 0.409 0.40049 0.47306 0.0
C889 C 0.4059 0.38419 0.45036 0.0
C890 C 0.39576 0.41385 0.43253 0.0
C891 C 0.39034 0.46106 0.43761 0.0
H892 H 0.86287 0.99935 0.9452 0.0
H893 H 0.86858 0.14036 0.97161 0.0
H894 H 0.87096 0.10959 0.01138 0.0
H895 H 0.81708 0.95873 0.98644 0.0
H896 H 0.83209 0.90131 0.98882 0.0
H897 H 0.83558 0.9335 0.9623 0.0
H898 H 0.89009 0.92495 0.96416 0.0
H899 H 0.88678 0.89218 0.99062 0.0
H900 H 0.9088 0.94333 0.98973 0.0
H901 H 0.86605 0.06447 0.04821 0.0
H902 H 0.85625 0.00798 0.07937 0.0
H903 H 0.85391 0.89658 0.02882 0.0
C904 C 0.86552 0.02381 0.95925 0.0
C905 C 0.86568 0.07231 0.95521 0.0
C906 C 0.86854 0.10305 0.97421 0.0
C907 C 0.86994 0.08591 -0.00311 0.0
C908 C 0.86867 0.03798 0.00027 0.0
C909 C 0.86683 0.00732 0.98196 0.0
C910 C 0.86327 0.95773 0.99029 0.0
C911 C 0.83535 0.93661 0.98144 0.0
C912 C 0.88876 0.92779 0.98328 0.0
C913 C 0.86252 0.96544 0.01614 0.0
C914 C 0.86591 0.01189 0.02156 0.0
C915 C 0.86389 0.02789 0.04422 0.0
C916 C 0.85816 0.99556 0.06178 0.0
C917 C 0.85448 0.94779 0.05657 0.0
C918 C 0.85707 0.93269 0.03344 0.0
H919 H 0.16574 0.00651 0.42744 0.0
H920 H 0.10243 0.90127 0.44207 0.0
H921 H 0.08784 0.94421 0.47679 0.0
H922 H 0.18863 0.01882 0.48302 0.0
H923 H 0.19457 0.08074 0.48223 0.0
H924 H 0.19626 0.04754 0.45599 0.0
H925 H 0.15834 0.10094 0.43747 0.0
H926 H 0.15664 0.13435 0.46378 0.0
H927 H 0.12492 0.1091 0.45187 0.0
H928 H 0.08589 0.98856 0.51274 0.0
H929 H 0.09657 0.03311 0.54811 0.0
H930 H 0.1601 0.11199 0.51094 0.0
C931 C 0.14818 0.99352 0.43757 0.0
C932 C 0.13511 0.95077 0.43208 0.0
C933 C 0.11275 0.93395 0.44604 0.0
C934 C 0.10415 0.95828 0.46568 0.0
C935 C 0.11803 0.9995 0.47112 0.0
C936 C 0.13946 0.01732 0.45746 0.0
C937 C 0.15319 0.05913 0.46885 0.0
C938 C 0.18503 0.05103 0.47276 0.0
C939 C 0.14794 0.10351 0.45464 0.0
C940 C 0.1371 0.06031 0.4915 0.0
C941 C 0.11658 0.02607 0.49222 0.0
C942 C 0.10128 0.01639 0.51222 0.0
C943 C 0.10753 0.04166 0.53222 0.0
C944 C 0.12871 0.07631 0.53196 0.0
C945 C 0.14314 0.08665 0.51124 0.0
H946 H 0.11173 0.93429 0.01703 0.0
H947 H 0.10075 0.04487 0.06716 0.0
H948 H 0.09655 0.1019 0.03538 0.0
H949 H 0.15641 0.99333 0.98209 0.0
H950 H 0.1436 0.97107 0.95491 0.0
H951 H 0.13955 0.93714 0.98079 0.0
H952 H 0.08554 0.93211 0.97451 0.0
H953 H 0.08923 0.96507 0.94814 0.0
H954 H 0.06537 0.98465 0.97036 0.0
H955 H 0.10038 0.14784 -0.00121 0.0
H956 H 0.11159 0.1792 0.96014 0.0
H957 H 0.12128 0.03843 0.93418 0.0
C958 C 0.1073 0.9702 0.02132 0.0
C959 C 0.10622 0.98511 0.04453 0.0
C960 C 0.10144 0.03269 0.04946 0.0
C961 C 0.09895 0.0653 0.03154 0.0
C962 C 0.10125 0.0497 0.00883 0.0
C963 C 0.1051 0.00319 0.00366 0.0
C964 C 0.11025 0.99608 0.97811 0.0
C965 C 0.13917 0.97309 0.97374 0.0
C966 C 0.08615 0.96781 0.96713 0.0
C967 C 0.10983 0.046 0.96986 0.0
C968 C 0.1041 0.07635 0.98773 0.0
C969 C 0.1044 0.12439 0.98456 0.0
C970 C 0.11089 0.14186 0.96255 0.0
C971 C 0.1173 0.11132 0.94407 0.0
C972 C 0.11634 0.06278 0.94785 0.0
H973 H 0.8924 0.91783 0.46602 0.0
H974 H 0.89566 0.02947 0.41555 0.0
H975 H 0.90149 0.08649 0.44708 0.0
H976 H 0.84933 0.97356 0.50347 0.0
H977 H 0.86492 0.95145 0.52973 0.0
H978 H 0.86756 0.91851 0.50347 0.0
H979 H 0.92215 0.91717 0.50709 0.0
H980 H 0.91973 0.94968 0.53363 0.0
H981 H 0.94125 0.97107 0.5102 0.0
H982 H 0.89964 0.13181 0.48389 0.0
H983 H 0.88986 0.16203 0.52291 0.0
H984 H 0.88626 0.02058 0.54929 0.0
C985 C 0.89555 0.95405 0.46154 0.0
C986 C 0.89401 0.9692 0.43833 0.0
C987 C 0.89706 0.01711 0.43321 0.0
C988 C 0.90046 0.04971 0.451 0.0
C989 C 0.90074 0.03379 0.47378 0.0
C990 C 0.89853 0.98701 0.47908 0.0
C991 C 0.8956 0.97936 0.50487 0.0
C992 C 0.8677 0.95427 0.51071 0.0
C993 C 0.92122 0.95275 0.51451 0.0
C994 C 0.89538 0.0292 0.51317 0.0
C995 C 0.89892 0.06006 0.49506 0.0
C996 C 0.89738 0.10799 0.49827 0.0
C997 C 0.89172 0.12481 0.52053 0.0
C998 C 0.88733 0.09373 0.53926 0.0
C999 C 0.88975 0.04535 0.53546 0.0
H1000 H 0.43174 0.42963 0.12823 0.0
H1001 H 0.40568 0.2866 0.13911 0.0
H1002 H 0.45425 0.26633 0.15088 0.0
H1003 H 0.49226 0.40486 0.10089 0.0
H1004 H 0.51328 0.4515 0.11263 0.0
H1005 H 0.47559 0.4575 0.11087 0.0
H1006 H 0.47333 0.47405 0.15486 0.0
H1007 H 0.51122 0.46813 0.15675 0.0
H1008 H 0.48869 0.43319 0.17494 0.0
H1009 H 0.50617 0.25806 0.15363 0.0
H1010 H 0.55744 0.26211 0.14626 0.0
H1011 H 0.55045 0.41043 0.13379 0.0
C1012 C 0.43601 0.39447 0.13398 0.0
C1013 C 0.41491 0.35976 0.1329 0.0
C1014 C 0.42151 0.31379 0.13987 0.0
C1015 C 0.44901 0.30202 0.14674 0.0
C1016 C 0.46964 0.33665 0.14671 0.0
C1017 C 0.46343 0.38208 0.14067 0.0
C1018 C 0.49007 0.41109 0.13868 0.0
C1019 C 0.49296 0.43244 0.11433 0.0
C1020 C 0.49087 0.44885 0.15743 0.0
C1021 C 0.5123 0.37423 0.1431 0.0
C1022 C 0.50005 0.3318 0.14829 0.0
C1023 C 0.51606 0.2913 0.15021 0.0
C1024 C 0.54517 0.2939 0.14592 0.0
C1025 C 0.55794 0.33667 0.13968 0.0
C1026 C 0.54141 0.37754 0.13916 0.0
H1027 H 0.56704 0.61369 0.63054 0.0
H1028 H 0.58504 0.74393 0.5954 0.0
H1029 H 0.53429 0.7633 0.59594 0.0
H1030 H 0.5107 0.58522 0.59886 0.0
H1031 H 0.49006 0.55909 0.62163 0.0
H1032 H 0.52788 0.56061 0.6239 0.0
H1033 H 0.52421 0.60317 0.66325 0.0
H1034 H 0.48618 0.60144 0.66121 0.0
H1035 H 0.50405 0.65619 0.66529 0.0
H1036 H 0.48185 0.76166 0.59358 0.0
H1037 H 0.43205 0.73886 0.5882 0.0
H1038 H 0.44836 0.60925 0.62452 0.0
C1039 C 0.56049 0.64708 0.62371 0.0
C1040 C 0.58001 0.67729 0.61296 0.0
C1041 C 0.57047 0.72021 0.60376 0.0
C1042 C 0.54169 0.73168 0.60412 0.0
C1043 C 0.52283 0.7001 0.61394 0.0
C1044 C 0.53189 0.65885 0.62379 0.0
C1045 C 0.50727 0.62787 0.6302 0.0
C1046 C 0.5091 0.58045 0.6179 0.0
C1047 C 0.50531 0.62183 0.65656 0.0
C1048 C 0.48305 0.65681 0.62108 0.0
C1049 C 0.49235 0.69889 0.61233 0.0
C1050 C 0.47419 0.72932 0.60085 0.0
C1051 C 0.44596 0.71592 0.59778 0.0
C1052 C 0.4363 0.67216 0.60589 0.0
C1053 C 0.45499 0.64306 0.61828 0.0
H1054 H 0.54822 0.59478 0.86114 0.0
H1055 H 0.57205 0.73449 0.88179 0.0
H1056 H 0.52297 0.76059 0.87579 0.0
H1057 H 0.49209 0.62936 0.81795 0.0
H1058 H 0.46996 0.58127 0.82648 0.0
H1059 H 0.5079 0.57579 0.82774 0.0
H1060 H 0.5045 0.55271 0.871 0.0
H1061 H 0.46671 0.5584 0.86993 0.0
H1062 H 0.48675 0.59106 0.89088 0.0
H1063 H 0.47069 0.7685 0.87394 0.0
H1064 H 0.41907 0.75756 0.87624 0.0
H1065 H 0.42928 0.61272 0.8568 0.0
C1066 C 0.54335 0.63121 0.86365 0.0
C1067 C 0.56397 0.66259 0.87188 0.0
C1068 C 0.55659 0.70978 0.87549 0.0
C1069 C 0.5288 0.72503 0.87198 0.0
C1070 C 0.50873 0.69278 0.86469 0.0
C1071 C 0.5157 0.64692 0.86036 0.0
C1072 C 0.48967 0.61801 0.85541 0.0
C1073 C 0.48993 0.60006 0.8304 0.0
C1074 C 0.48675 0.57771 0.87285 0.0
C1075 C 0.4669 0.65424 0.85881 0.0
C1076 C 0.47833 0.69735 0.8637 0.0
C1077 C 0.46145 0.73517 0.86964 0.0
C1078 C 0.43216 0.72854 0.87103 0.0
C1079 C 0.42009 0.6843 0.86666 0.0
C1080 C 0.43775 0.64714 0.85991 0.0
H1081 H 0.56962 0.28733 0.36313 0.0
H1082 H 0.58527 0.41783 0.32755 0.0
H1083 H 0.53593 0.41825 0.31366 0.0
H1084 H 0.51505 0.23928 0.32103 0.0
H1085 H 0.49484 0.21507 0.34456 0.0
H1086 H 0.53283 0.21875 0.34667 0.0
H1087 H 0.52804 0.26478 0.38496 0.0
H1088 H 0.49027 0.2613 0.38295 0.0
H1089 H 0.50719 0.31727 0.38537 0.0
H1090 H 0.48359 0.41287 0.31032 0.0
H1091 H 0.43289 0.40386 0.31902 0.0
H1092 H 0.45102 0.27698 0.35693 0.0
C1093 C 0.56305 0.31514 0.35168 0.0
C1094 C 0.58142 0.35244 0.34635 0.0
C1095 C 0.57166 0.38876 0.33181 0.0
C1096 C 0.54369 0.38913 0.32371 0.0
C1097 C 0.52578 0.35277 0.33011 0.0
C1098 C 0.53517 0.3162 0.34364 0.0
C1099 C 0.51093 0.28518 0.35108 0.0
C1100 C 0.51358 0.23669 0.34018 0.0
C1101 C 0.509 0.28201 0.37765 0.0
C1102 C 0.48621 0.31163 0.3409 0.0
C1103 C 0.49526 0.34979 0.32832 0.0
C1104 C 0.47626 0.38251 0.31964 0.0
C1105 C 0.44746 0.37715 0.32473 0.0
C1106 C 0.43794 0.33958 0.33859 0.0
C1107 C 0.45751 0.30545 0.34586 0.0
H1108 H 0.92313 0.89776 0.13096 0.0
H1109 H 0.914 0.7493 0.11988 0.0
H1110 H 0.9657 0.73988 0.12353 0.0
H1111 H 0.98002 0.91156 0.09612 0.0
H1112 H 0.99779 0.95508 0.11319 0.0
H1113 H 0.96007 0.94906 0.11499 0.0
H1114 H 0.96364 0.93745 0.15934 0.0
H1115 H 0.00153 0.94367 0.1577 0.0
H1116 H 0.9863 0.8926 0.17084 0.0
H1117 H 0.01784 0.748 0.12219 0.0
H1118 H 0.06671 0.773 0.11449 0.0
H1119 H 0.04238 0.91674 0.12557 0.0
C1120 C 0.93189 0.86302 0.13015 0.0
C1121 C 0.91454 0.82415 0.12539 0.0
C1122 C 0.9269 0.77949 0.12366 0.0
C1123 C 0.95621 0.77379 0.12585 0.0
C1124 C 0.97282 0.81308 0.12979 0.0
C1125 C 0.96111 0.85685 0.13201 0.0
C1126 C 0.98373 0.89413 0.13298 0.0
C1127 C 0.98018 0.9295 0.11314 0.0
C1128 C 0.9838 0.91839 0.15663 0.0
C1129 C 0.00997 0.86471 0.12984 0.0
C1130 C 0.00322 0.81796 0.12858 0.0
C1131 C 0.02346 0.78437 0.12358 0.0
C1132 C 0.05115 0.79898 0.11911 0.0
C1133 C 0.05834 0.84684 0.11948 0.0
C1134 C 0.03762 0.8799 0.12561 0.0
H1135 H 0.94899 0.22009 0.60357 0.0
H1136 H 0.93412 0.11784 0.65736 0.0
H1137 H 0.98503 0.11737 0.66661 0.0
H1138 H 0.00543 0.16819 0.58138 0.0
H1139 H 0.02548 0.21944 0.57401 0.0
H1140 H 0.98768 0.22264 0.57598 0.0
H1141 H 0.9917 0.28887 0.6061 0.0
H1142 H 0.02971 0.28625 0.60406 0.0
H1143 H 0.01271 0.28033 0.63178 0.0
H1144 H 0.03686 0.11482 0.66443 0.0
H1145 H 0.08607 0.10967 0.65087 0.0
H1146 H 0.06826 0.21245 0.5978 0.0
C1147 C 0.95634 0.19934 0.61802 0.0
C1148 C 0.93772 0.16945 0.62998 0.0
C1149 C 0.94811 0.14123 0.64814 0.0
C1150 C 0.97695 0.14098 0.65359 0.0
C1151 C 0.99506 0.16915 0.64071 0.0
C1152 C 0.98516 0.19816 0.62339 0.0
C1153 C 0.00931 0.21884 0.60957 0.0
C1154 C 0.00681 0.2065 0.58373 0.0
C1155 C 0.01095 0.27172 0.6131 0.0
C1156 C 0.03417 0.19455 0.62082 0.0
C1157 C 0.02552 0.16707 0.63916 0.0
C1158 C 0.04403 0.13707 0.65051 0.0
C1159 C 0.07189 0.13413 0.64256 0.0
C1160 C 0.08094 0.16081 0.62334 0.0
C1161 C 0.06206 0.19246 0.61286 0.0
H1162 H 0.05357 0.10712 0.85668 0.0
H1163 H 0.06151 0.2575 0.85494 0.0
H1164 H 0.00996 0.26438 0.8497 0.0
H1165 H 0.99078 0.09782 0.81588 0.0
H1166 H 0.97583 0.05141 0.83294 0.0
H1167 H 0.01368 0.05777 0.83091 0.0
H1168 H 0.01699 0.06073 0.87561 0.0
H1169 H 0.9793 0.05487 0.87779 0.0
H1170 H 0.99678 0.10367 0.89113 0.0
H1171 H 0.95803 0.25593 0.85249 0.0
H1172 H 0.9094 0.23274 0.86253 0.0
H1173 H 0.93479 0.08775 0.86246 0.0
C1174 C 0.04464 0.14146 0.85429 0.0
C1175 C 0.06159 0.18176 0.85612 0.0
C1176 C 0.04896 0.22611 0.85354 0.0
C1177 C 0.0197 0.23036 0.85042 0.0
C1178 C 0.00343 0.18996 0.84974 0.0
C1179 C 0.01548 0.14628 0.85135 0.0
C1180 C 0.99313 0.10875 0.85336 0.0
C1181 C 0.99337 0.07707 0.83199 0.0
C1182 C 0.99678 0.08039 0.8758 0.0
C1183 C 0.96672 0.13835 0.85399 0.0
C1184 C 0.97309 0.18502 0.85138 0.0
C1185 C 0.95266 0.21946 0.85397 0.0
C1186 C 0.92515 0.20596 0.85983 0.0
C1187 C 0.91835 0.15843 0.86315 0.0
C1188 C 0.93925 0.12423 0.85953 0.0
H1189 H 0.06883 0.89598 0.35657 0.0
H1190 H 0.08434 0.75002 0.37117 0.0
H1191 H 0.03345 0.73371 0.36627 0.0
H1192 H 0.00951 0.90542 0.38899 0.0
H1193 H 0.99101 0.94505 0.37012 0.0
H1194 H 0.02895 0.94355 0.37 0.0
H1195 H 0.02861 0.92767 0.32589 0.0
H1196 H 0.99049 0.92909 0.32589 0.0
H1197 H 0.00884 0.87903 0.3147 0.0
H1198 H 0.98083 0.73538 0.36592 0.0
H1199 H 0.93067 0.7552 0.37176 0.0
H1200 H 0.94944 0.9002 0.35749 0.0
C1201 C 0.06172 0.8603 0.35808 0.0
C1202 C 0.08062 0.82425 0.36418 0.0
C1203 C 0.07029 0.77822 0.36647 0.0
C1204 C 0.04144 0.76856 0.36355 0.0
C1205 C 0.02328 0.80521 0.35817 0.0
C1206 C 0.03306 0.85016 0.35536 0.0
C1207 C 0.00894 0.88427 0.35253 0.0
C1208 C 0.00965 0.92173 0.37155 0.0
C1209 C 0.00924 0.90631 0.3283 0.0
C1210 C 0.984 0.85186 0.35541 0.0
C1211 C 0.9927 0.80625 0.35809 0.0
C1212 C 0.97371 0.77078 0.36336 0.0
C1213 C 0.94526 0.78243 0.36673 0.0
C1214 C 0.93613 0.82926 0.36501 0.0
C1215 C 0.95564 0.864 0.35845 0.0
H1216 H 0.23997 0.3256 0.03682 0.0
H1217 H 0.32416 0.35694 0.01116 0.0
H1218 H 0.30969 0.33288 0.97209 0.0
H1219 H 0.23018 0.22453 0.00546 0.0
H1220 H 0.19319 0.23344 -0.00065 0.0
H1221 H 0.20873 0.25855 0.02484 0.0
H1222 H 0.19201 0.34059 0.01216 0.0
H1223 H 0.17593 0.31561 0.9868 0.0
H1224 H 0.20128 0.36208 0.98386 0.0
H1225 H 0.28812 0.29741 0.93718 0.0
H1226 H 0.25899 0.25925 0.90732 0.0
H1227 H 0.18886 0.25155 0.95567 0.0
C1228 C 0.25511 0.32859 0.02285 0.0
C1229 C 0.28316 0.3429 0.02699 0.0
C1230 C 0.30256 0.34568 0.00837 0.0
C1231 C 0.29457 0.33222 0.98611 0.0
C1232 C 0.26709 0.31642 0.98279 0.0
C1233 C 0.24751 0.31517 0.00052 0.0
C1234 C 0.21983 0.29434 -0.00743 0.0
C1235 C 0.21258 0.25009 0.00638 0.0
C1236 C 0.19585 0.33031 -0.00608 0.0
C1237 C 0.22722 0.28308 0.96779 0.0
C1238 C 0.25454 0.29619 0.96249 0.0
C1239 C 0.26654 0.28749 0.94097 0.0
C1240 C 0.24994 0.26544 0.92423 0.0
C1241 C 0.22168 0.25254 0.92919 0.0
C1242 C 0.21032 0.26135 0.95131 0.0
H1243 H 0.76341 0.78887 0.45087 0.0
H1244 H 0.83738 0.84484 0.48575 0.0
H1245 H 0.82757 0.79463 0.51941 0.0
H1246 H 0.71913 0.77777 0.50233 0.0
H1247 H 0.70318 0.72494 0.49178 0.0
H1248 H 0.71554 0.76817 0.47167 0.0
H1249 H 0.74624 0.70486 0.45193 0.0
H1250 H 0.73489 0.66201 0.47271 0.0
H1251 H 0.77205 0.67349 0.46877 0.0
H1252 H 0.81213 0.73417 0.54758 0.0
H1253 H 0.78476 0.68287 0.5732 0.0
H1254 H 0.72149 0.66569 0.51939 0.0
C1255 C 0.77707 0.79181 0.46584 0.0
C1256 C 0.80127 0.82048 0.46564 0.0
C1257 C 0.81875 0.82291 0.48554 0.0
C1258 C 0.81359 0.79411 0.50458 0.0
C1259 C 0.79087 0.76348 0.50338 0.0
C1260 C 0.77239 0.76318 0.48488 0.0
C1261 C 0.74929 0.72749 0.48802 0.0
C1262 C 0.72006 0.751 0.4885 0.0
C1263 C 0.75072 0.68973 0.46925 0.0
C1264 C 0.75745 0.70823 0.5114 0.0
C1265 C 0.78186 0.72871 0.51971 0.0
C1266 C 0.79295 0.71791 0.54134 0.0
C1267 C 0.77741 0.68819 0.55566 0.0
C1268 C 0.75085 0.6707 0.54832 0.0
C1269 C 0.74175 0.67849 0.52541 0.0
H1270 H 0.23652 0.80166 0.03833 0.0
H1271 H 0.1729 0.88901 0.0061 0.0
H1272 H 0.18626 0.85879 0.96777 0.0
H1273 H 0.28927 0.8092 0.98997 0.0
H1274 H 0.29978 0.74953 -0.0058 0.0
H1275 H 0.28787 0.78356 0.01841 0.0
H1276 H 0.25046 0.72032 0.02725 0.0
H1277 H 0.26136 0.68696 0.00253 0.0
H1278 H 0.22499 0.70475 0.00536 0.0
H1279 H 0.20198 0.81208 0.93397 0.0
H1280 H 0.2255 0.76187 0.90535 0.0
H1281 H 0.27842 0.70409 0.95974 0.0
C1282 C 0.22632 0.81586 0.0231 0.0
C1283 C 0.20384 0.84776 0.02502 0.0
C1284 C 0.19029 0.86464 0.00483 0.0
C1285 C 0.19757 0.84749 0.98305 0.0
C1286 C 0.21854 0.81371 0.98185 0.0
C1287 C 0.23326 0.79891 0.00121 0.0
C1288 C 0.25398 0.76076 -0.00478 0.0
C1289 C 0.28454 0.77674 -0.0003 0.0
C1290 C 0.24727 0.71553 0.00837 0.0
C1291 C 0.24807 0.75577 0.96965 0.0
C1292 C 0.22752 0.78652 0.9623 0.0
C1293 C 0.2183 0.78807 0.93943 0.0
C1294 C 0.23149 0.75891 0.92337 0.0
C1295 C 0.25373 0.72898 0.93033 0.0
C1296 C 0.26143 0.7265 0.95391 0.0
H1297 H 0.81331 0.23149 0.52647 0.0
H1298 H 0.73896 0.21348 0.56972 0.0
H1299 H 0.70886 0.24059 0.53765 0.0
H1300 H 0.78975 0.33536 0.49678 0.0
H1301 H 0.80455 0.31843 0.46936 0.0
H1302 H 0.82067 0.29879 0.49587 0.0
H1303 H 0.81584 0.21323 0.48245 0.0
H1304 H 0.79982 0.23257 0.45586 0.0
H1305 H 0.7816 0.19138 0.47406 0.0
H1306 H 0.68695 0.26858 0.50166 0.0
H1307 H 0.67336 0.29252 0.46256 0.0
H1308 H 0.76163 0.29189 0.44162 0.0
C1309 C 0.79071 0.23342 0.52927 0.0
C1310 C 0.77849 0.22047 0.55067 0.0
C1311 C 0.7488 0.2231 0.55351 0.0
C1312 C 0.73154 0.23865 0.53543 0.0
C1313 C 0.74429 0.25128 0.51467 0.0
C1314 C 0.77312 0.24865 0.51138 0.0
C1315 C 0.78123 0.26303 0.48702 0.0
C1316 C 0.80017 0.30649 0.48729 0.0
C1317 C 0.79545 0.22264 0.47409 0.0
C1318 C 0.75232 0.27383 0.47709 0.0
C1319 C 0.73145 0.26705 0.49349 0.0
C1320 C 0.70304 0.27391 0.48863 0.0
C1321 C 0.69559 0.28736 0.46627 0.0
C1322 C 0.71645 0.29365 0.4489 0.0
C1323 C 0.74527 0.28747 0.45452 0.0
H1324 H 0.78137 0.79837 0.02029 0.0
H1325 H 0.72977 0.73776 0.07478 0.0
H1326 H 0.71119 0.68041 0.04743 0.0
H1327 H 0.72768 0.78482 0.97538 0.0
H1328 H 0.75345 0.773 0.95323 0.0
H1329 H 0.76272 0.80918 0.97742 0.0
H1330 H 0.80518 0.75457 0.98598 0.0
H1331 H 0.79527 0.71723 0.96233 0.0
H1332 H 0.7989 0.69355 -0.00894 0.0
H1333 H 0.69989 0.62739 0.01558 0.0
H1334 H 0.68634 0.59439 0.97793 0.0
H1335 H 0.74367 0.68996 0.94346 0.0
C1336 C 0.76579 0.77356 0.02632 0.0
C1337 C 0.75712 0.77257 0.04965 0.0
C1338 C 0.73659 0.73964 0.05693 0.0
C1339 C 0.72625 0.70626 0.04165 0.0
C1340 C 0.73632 0.70667 0.01912 0.0
C1341 C 0.7548 0.74033 0.01118 0.0
C1342 C 0.76045 0.73476 0.98561 0.0
C1343 C 0.75047 0.77798 0.97212 0.0
C1344 C 0.79182 0.72441 0.98099 0.0
C1345 C 0.74217 0.69276 0.98053 0.0
C1346 C 0.72901 0.67655 0.00028 0.0
C1347 C 0.70999 0.63966 -6e-05 0.0
C1348 C 0.7026 0.62093 0.97852 0.0
C1349 C 0.71398 0.63973 0.95789 0.0
C1350 C 0.73511 0.67432 0.95901 0.0
H1351 H 0.20727 0.21549 0.51819 0.0
H1352 H 0.28006 0.1882 0.56214 0.0
H1353 H 0.31174 0.21225 0.53054 0.0
H1354 H 0.2386 0.17386 0.46537 0.0
H1355 H 0.22198 0.21772 0.44768 0.0
H1356 H 0.20498 0.19794 0.47376 0.0
H1357 H 0.20257 0.28296 0.48852 0.0
H1358 H 0.21974 0.303 0.46257 0.0
H1359 H 0.2346 0.31679 0.49044 0.0
H1360 H 0.33529 0.2403 0.49498 0.0
H1361 H 0.3499 0.26829 0.45665 0.0
H1362 H 0.26176 0.27702 0.43561 0.0
C1363 C 0.22986 0.21455 0.52121 0.0
C1364 C 0.2412 0.20012 0.54265 0.0
C1365 C 0.2709 0.19905 0.54584 0.0
C1366 C 0.28907 0.21273 0.52803 0.0
C1367 C 0.27716 0.2271 0.50722 0.0
C1368 C 0.2483 0.22787 0.50364 0.0
C1369 C 0.24101 0.24452 0.47954 0.0
C1370 C 0.22575 0.20623 0.46578 0.0
C1371 C 0.22345 0.2895 0.48033 0.0
C1372 C 0.27036 0.25343 0.47022 0.0
C1373 C 0.29085 0.2431 0.48649 0.0
C1374 C 0.31951 0.24838 0.48202 0.0
C1375 C 0.32755 0.26428 0.46018 0.0
C1376 C 0.30695 0.27472 0.4431 0.0
C1377 C 0.27798 0.2695 0.44831 0.0
H1378 H 0.73682 0.28183 0.04486 0.0
H1379 H 0.6557 0.21143 0.03895 0.0
H1380 H 0.6699 0.17907 0.00166 0.0
H1381 H 0.74302 0.31191 0.98498 0.0
H1382 H 0.78057 0.30169 0.98356 0.0
H1383 H 0.7646 0.31907 0.01044 0.0
H1384 H 0.78554 0.24625 0.03067 0.0
H1385 H 0.80167 0.22877 0.00387 0.0
H1386 H 0.77842 0.18939 0.01893 0.0
H1387 H 0.69164 0.15535 0.96472 0.0
H1388 H 0.72108 0.14004 0.9304 0.0
H1389 H 0.78809 0.22496 0.95988 0.0
C1390 C 0.72215 0.25941 0.03579 0.0
C1391 C 0.69513 0.2495 0.04491 0.0
C1392 C 0.6765 0.21998 0.03239 0.0
C1393 C 0.68432 0.20122 0.01113 0.0
C1394 C 0.71086 0.21206 0.00252 0.0
C1395 C 0.7296 0.24022 0.0144 0.0
C1396 C 0.75677 0.24644 0.00095 0.0
C1397 C 0.7615 0.29783 -0.00539 0.0
C1398 C 0.78209 0.22651 0.01441 0.0
C1399 C 0.75015 0.21755 0.97975 0.0
C1400 C 0.72356 0.19807 0.98102 0.0
C1401 C 0.7126 0.17027 0.96346 0.0
C1402 C 0.72943 0.16187 0.94403 0.0
C1403 C 0.75689 0.18121 0.9424 0.0
C1404 C 0.76722 0.20951 0.96055 0.0
H1405 H 0.21624 0.81337 0.46469 0.0
H1406 H 0.26716 0.7547 0.40944 0.0
H1407 H 0.28428 0.69409 0.43589 0.0
H1408 H 0.26843 0.79304 0.51015 0.0
H1409 H 0.24181 0.78048 0.53155 0.0
H1410 H 0.23391 0.81929 0.50799 0.0
H1411 H 0.19074 0.76772 0.49757 0.0
H1412 H 0.1993 0.72772 0.52056 0.0
H1413 H 0.196 0.70694 0.49129 0.0
H1414 H 0.29444 0.63819 0.46716 0.0
H1415 H 0.30736 0.60267 0.5045 0.0
H1416 H 0.25067 0.69707 0.5399 0.0
C1417 C 0.23149 0.7884 0.45832 0.0
C1418 C 0.2403 0.78886 0.43499 0.0
C1419 C 0.26029 0.75555 0.42729 0.0
C1420 C 0.26976 0.72035 0.44206 0.0
C1421 C 0.25936 0.71931 0.46453 0.0
C1422 C 0.2415 0.75329 0.47292 0.0
C1423 C 0.23505 0.74562 0.49828 0.0
C1424 C 0.24544 0.78704 0.51285 0.0
C1425 C 0.20338 0.73645 0.50214 0.0
C1426 C 0.25236 0.70223 0.50281 0.0
C1427 C 0.2656 0.68706 0.4829 0.0
C1428 C 0.28413 0.64948 0.48286 0.0
C1429 C 0.29106 0.62915 0.50407 0.0
C1430 C 0.27968 0.64689 0.52488 0.0
C1431 C 0.25889 0.68198 0.52413 0.0
H1432 H 0.33637 0.43372 0.18854 0.0
H1433 H 0.25405 0.37136 0.17591 0.0
H1434 H 0.24779 0.36029 0.21795 0.0
H1435 H 0.35727 0.35766 0.23263 0.0
H1436 H 0.37537 0.40136 0.24935 0.0
H1437 H 0.37234 0.40781 0.2185 0.0
H1438 H 0.34881 0.4885 0.22388 0.0
H1439 H 0.3519 0.48244 0.25479 0.0
H1440 H 0.31787 0.49359 0.24187 0.0
H1441 H 0.25202 0.35155 0.261 0.0
H1442 H 0.26585 0.34697 0.30201 0.0
H1443 H 0.34551 0.41507 0.28583 0.0
C1444 C 0.31682 0.41821 0.19451 0.0
C1445 C 0.29569 0.40342 0.17889 0.0
C1446 C 0.27053 0.38308 0.18754 0.0
C1447 C 0.26676 0.37667 0.21137 0.0
C1448 C 0.28828 0.391 0.22621 0.0
C1449 C 0.31273 0.41156 0.21811 0.0
C1450 C 0.33318 0.42214 0.23748 0.0
C1451 C 0.36118 0.39565 0.23429 0.0
C1452 C 0.33822 0.4748 0.23963 0.0
C1453 C 0.31662 0.40355 0.25778 0.0
C1454 C 0.29072 0.38598 0.25096 0.0
C1455 C 0.27213 0.36556 0.26659 0.0
C1456 C 0.28026 0.36302 0.28984 0.0
C1457 C 0.3068 0.38073 0.29718 0.0
C1458 C 0.32505 0.40144 0.28086 0.0
H1459 H 0.64078 0.58803 0.79496 0.0
H1460 H 0.70068 0.69648 0.81326 0.0
H1461 H 0.70519 0.71793 0.77223 0.0
H1462 H 0.6764 0.54985 0.74671 0.0
H1463 H 0.6455 0.53773 0.72947 0.0
H1464 H 0.64333 0.53551 0.76047 0.0
H1465 H 0.60238 0.5954 0.7597 0.0
H1466 H 0.60438 0.59773 0.7286 0.0
H1467 H 0.60733 0.65042 0.74526 0.0
H1468 H 0.70779 0.72162 0.72977 0.0
H1469 H 0.70884 0.70661 0.68791 0.0
H1470 H 0.6474 0.59561 0.69679 0.0
C1471 C 0.65431 0.61701 0.79036 0.0
C1472 C 0.67036 0.64061 0.80723 0.0
C1473 C 0.68829 0.67775 0.80056 0.0
C1474 C 0.69082 0.69048 0.77734 0.0
C1475 C 0.6752 0.66585 0.76107 0.0
C1476 C 0.65723 0.62999 0.76722 0.0
C1477 C 0.64508 0.60617 0.74613 0.0
C1478 C 0.65307 0.55426 0.74568 0.0
C1479 C 0.61288 0.61285 0.74485 0.0
C1480 C 0.65995 0.63309 0.72723 0.0
C1481 C 0.67684 0.66785 0.73625 0.0
C1482 C 0.69431 0.69505 0.72241 0.0
C1483 C 0.69489 0.68603 0.69869 0.0
C1484 C 0.67819 0.64994 0.68913 0.0
C1485 C 0.66009 0.62384 0.70357 0.0
H1486 H 0.28158 0.65598 0.77927 0.0
H1487 H 0.37064 0.66465 0.79693 0.0
H1488 H 0.38284 0.66851 0.75563 0.0
H1489 H 0.29026 0.58003 0.73328 0.0
H1490 H 0.26324 0.6047 0.715 0.0
H1491 H 0.26069 0.61029 0.7459 0.0
H1492 H 0.25744 0.69989 0.74182 0.0
H1493 H 0.25988 0.69456 0.71083 0.0
H1494 H 0.28458 0.73085 0.72625 0.0
H1495 H 0.38623 0.66265 0.71368 0.0
H1496 H 0.38089 0.64577 0.67231 0.0
H1497 H 0.28968 0.63925 0.68056 0.0
C1498 C 0.30353 0.6599 0.77434 0.0
C1499 C 0.3252 0.66025 0.79114 0.0
C1500 C 0.35378 0.66421 0.78422 0.0
C1501 C 0.36091 0.66678 0.76085 0.0
C1502 C 0.33919 0.66523 0.74465 0.0
C1503 C 0.31108 0.66189 0.75096 0.0
C1504 C 0.29228 0.65599 0.7299 0.0
C1505 C 0.27565 0.61002 0.7311 0.0
C1506 C 0.27237 0.69782 0.72704 0.0
C1507 C 0.31438 0.65492 0.71095 0.0
C1508 C 0.34121 0.6611 0.71993 0.0
C1509 C 0.36534 0.65839 0.70632 0.0
C1510 C 0.36207 0.64845 0.68288 0.0
C1511 C 0.33486 0.64113 0.67327 0.0
C1512 C 0.31067 0.6453 0.68742 0.0
H1513 H 0.69778 0.31559 0.19559 0.0
H1514 H 0.67241 0.45749 0.18044 0.0
H1515 H 0.68145 0.47936 0.22088 0.0
H1516 H 0.66385 0.30969 0.24962 0.0
H1517 H 0.69052 0.2748 0.26362 0.0
H1518 H 0.68572 0.27113 0.23282 0.0
H1519 H 0.73858 0.2913 0.22673 0.0
H1520 H 0.7435 0.29529 0.25759 0.0
H1521 H 0.75285 0.34367 0.23926 0.0
H1522 H 0.68919 0.48531 0.26258 0.0
H1523 H 0.69191 0.47393 0.30466 0.0
H1524 H 0.7115 0.32797 0.29445 0.0
C1525 C 0.69463 0.35137 0.20079 0.0
C1526 C 0.68448 0.38494 0.18493 0.0
C1527 C 0.68002 0.43122 0.19237 0.0
C1528 C 0.68535 0.44409 0.21524 0.0
C1529 C 0.69501 0.41024 0.23053 0.0
C1530 C 0.69945 0.36475 0.22379 0.0
C1531 C 0.70726 0.33451 0.24439 0.0
C1532 C 0.68554 0.29523 0.24781 0.0
C1533 C 0.73734 0.31505 0.24183 0.0
C1534 C 0.70573 0.36998 0.26377 0.0
C1535 C 0.69913 0.41355 0.25518 0.0
C1536 C 0.69468 0.45155 0.26954 0.0
C1537 C 0.69621 0.44469 0.29341 0.0
C1538 C 0.70205 0.40016 0.30275 0.0
C1539 C 0.7076 0.36255 0.28772 0.0
H1540 H 0.84219 0.87645 0.20139 0.0
H1541 H 0.76285 0.80129 0.19437 0.0
H1542 H 0.75966 0.79448 0.23668 0.0
H1543 H 0.86861 0.81118 0.2514 0.0
H1544 H 0.88417 0.8621 0.26435 0.0
H1545 H 0.88137 0.85786 0.23336 0.0
H1546 H 0.85414 0.9361 0.23227 0.0
H1547 H 0.85671 0.94046 0.26322 0.0
H1548 H 0.82256 0.94266 0.24939 0.0
H1549 H 0.7631 0.80082 0.27938 0.0
H1550 H 0.7738 0.81819 0.32017 0.0
H1551 H 0.85096 0.88864 0.29905 0.0
C1552 C 0.82431 0.85804 0.20869 0.0
C1553 C 0.80277 0.83952 0.19457 0.0
C1554 C 0.77963 0.81587 0.20484 0.0
C1555 C 0.77763 0.81167 0.22885 0.0
C1556 C 0.79899 0.83102 0.24224 0.0
C1557 C 0.82198 0.85346 0.23258 0.0
C1558 C 0.84139 0.87296 0.25088 0.0
C1559 C 0.87061 0.84961 0.24994 0.0
C1560 C 0.84382 0.92619 0.24881 0.0
C1561 C 0.82535 0.85884 0.27232 0.0
C1562 C 0.80106 0.83446 0.26698 0.0
C1563 C 0.78221 0.81946 0.28386 0.0
C1564 C 0.78841 0.82971 0.30694 0.0
C1565 C 0.81323 0.85474 0.31276 0.0
C1566 C 0.83193 0.86916 0.29518 0.0
H1567 H 0.20209 0.1656 0.78555 0.0
H1568 H 0.14078 0.05721 0.801 0.0
H1569 H 0.14181 0.03226 0.7604 0.0
H1570 H 0.17345 0.19653 0.73116 0.0
H1571 H 0.20721 0.20737 0.71776 0.0
H1572 H 0.20316 0.21482 0.74846 0.0
H1573 H 0.24454 0.1574 0.75561 0.0
H1574 H 0.24855 0.14949 0.72489 0.0
H1575 H 0.24299 0.09982 0.7434 0.0
H1576 H 0.14765 0.02091 0.71841 0.0
H1577 H 0.15577 0.02702 0.67651 0.0
H1578 H 0.21315 0.14283 0.68812 0.0
C1579 C 0.18903 0.13642 0.78044 0.0
C1580 C 0.17141 0.11336 0.79646 0.0
C1581 C 0.1544 0.07559 0.78903 0.0
C1582 C 0.15497 0.06087 0.76605 0.0
C1583 C 0.17264 0.08423 0.75076 0.0
C1584 C 0.18923 0.12134 0.75754 0.0
C1585 C 0.20508 0.14204 0.7373 0.0
C1586 C 0.19671 0.19321 0.73344 0.0
C1587 C 0.2372 0.13686 0.7405 0.0
C1588 C 0.19432 0.11125 0.71804 0.0
C1589 C 0.17591 0.07781 0.72627 0.0
C1590 C 0.16219 0.04668 0.71171 0.0
C1591 C 0.16691 0.05052 0.68795 0.0
C1592 C 0.1851 0.08542 0.67906 0.0
C1593 C 0.1994 0.11546 0.6944 0.0
H1594 H 0.79759 0.14311 0.69626 0.0
H1595 H 0.85986 0.03516 0.68334 0.0
H1596 H 0.86044 0.01579 0.72478 0.0
H1597 H 0.8274 0.18238 0.74895 0.0
H1598 H 0.79396 0.19364 0.76275 0.0
H1599 H 0.79687 0.1972 0.73177 0.0
H1600 H 0.7562 0.13738 0.72747 0.0
H1601 H 0.7532 0.13357 0.75847 0.0
H1602 H 0.75893 0.0817 0.74167 0.0
H1603 H 0.85605 0.00995 0.76731 0.0
H1604 H 0.84801 0.0195 0.80901 0.0
H1605 H 0.78882 0.13165 0.79484 0.0
C1606 C 0.81112 0.11507 0.7021 0.0
C1607 C 0.82863 0.09061 0.68652 0.0
C1608 C 0.84631 0.05453 0.69493 0.0
C1609 C 0.8467 0.04306 0.71843 0.0
C1610 C 0.82934 0.06799 0.73331 0.0
C1611 C 0.81191 0.10328 0.72557 0.0
C1612 C 0.7964 0.12604 0.74545 0.0
C1613 C 0.80413 0.17788 0.74734 0.0
C1614 C 0.76428 0.11925 0.74312 0.0
C1615 C 0.80817 0.09836 0.76558 0.0
C1616 C 0.82694 0.06483 0.75811 0.0
C1617 C 0.84127 0.03588 0.77342 0.0
C1618 C 0.83658 0.0417 0.7971 0.0
C1619 C 0.81777 0.07635 0.80527 0.0
C1620 C 0.80314 0.1046 0.78919 0.0
H1621 H 0.22159 0.8682 0.28244 0.0
H1622 H 0.13557 0.82717 0.29867 0.0
H1623 H 0.12535 0.81762 0.25726 0.0
H1624 H 0.20451 0.93817 0.23687 0.0
H1625 H 0.23429 0.92431 0.21872 0.0
H1626 H 0.23724 0.91855 0.24958 0.0
H1627 H 0.25202 0.8323 0.24508 0.0
H1628 H 0.24936 0.83788 0.21409 0.0
H1629 H 0.22975 0.79313 0.22894 0.0
H1630 H 0.12156 0.82524 0.21569 0.0
H1631 H 0.12461 0.84811 0.1748 0.0
H1632 H 0.21305 0.88405 0.18387 0.0
C1633 C 0.20096 0.85572 0.27717 0.0
C1634 C 0.17935 0.84819 0.29353 0.0
C1635 C 0.15231 0.83317 0.28624 0.0
C1636 C 0.14639 0.82728 0.26282 0.0
C1637 C 0.16776 0.83652 0.24698 0.0
C1638 C 0.19458 0.85015 0.25371 0.0
C1639 C 0.21244 0.86339 0.23296 0.0
C1640 C 0.2227 0.91411 0.23465 0.0
C1641 C 0.23737 0.82965 0.2301 0.0
C1642 C 0.19096 0.85735 0.21376 0.0
C1643 C 0.16552 0.84101 0.22232 0.0
C1644 C 0.1415 0.83701 0.20861 0.0
C1645 C 0.14336 0.85051 0.18552 0.0
C1646 C 0.16906 0.86768 0.1764 0.0
C1647 C 0.19334 0.87023 0.1905 0.0
loop_
_geom_bond_atom_site_label_1
_geom_bond_atom_site_label_2
_geom_bond_distance
_geom_bond_site_symmetry_2
_ccdc_geom_bond_type
Sc0 O3 2.025 . S
Sc0 O10 2.105 . S
Sc0 O13 2.105 . S
Sc0 O16 2.105 . S
Sc0 O19 2.105 . S
Sc1 O3 2.025 . S
Sc1 O11 2.105 . S
Sc1 O15 2.105 . S
Sc1 O17 2.105 . S
Sc1 O21 2.105 . S
Sc2 O3 2.025 . S
Sc2 O12 2.105 . S
Sc2 O14 2.105 . S
Sc2 O18 2.105 . S
Sc2 O20 2.105 . S
O3 Sc0 2.025 . S
O3 Sc1 2.025 . S
O3 Sc2 2.025 . S
C4 O10 1.268 . S
C4 O20 1.268 . S
C5 O11 1.268 . S
C5 O19 1.268 . S
C6 O12 1.268 . S
C6 O21 1.268 . S
C7 O13 1.268 . S
C7 O17 1.268 . S
C8 O14 1.268 . S
C8 O16 1.268 . S
C9 O15 1.268 . S
C9 O18 1.268 . S
O10 Sc0 2.105 . S
O10 C4 1.268 . S
O11 Sc1 2.105 . S
O11 C5 1.268 . S
O12 Sc2 2.105 . S
O12 C6 1.268 . S
O13 Sc0 2.105 . S
O13 C7 1.268 . S
O14 Sc2 2.105 . S
O14 C8 1.268 . S
O15 Sc1 2.105 . S
O15 C9 1.268 . S
O16 Sc0 2.105 . S
O16 C8 1.268 . S
O17 Sc1 2.105 . S
O17 C7 1.268 . S
O18 Sc2 2.105 . S
O18 C9 1.268 . S
O19 Sc0 2.105 . S
O19 C5 1.268 . S
O20 Sc2 2.105 . S
O20 C4 1.268 . S
O21 Sc1 2.105 . S
O21 C6 1.268 . S
Sc22 O25 2.025 . S
Sc22 O32 2.105 . S
Sc22 O35 2.105 . S
Sc22 O38 2.105 . S
Sc22 O41 2.105 . S
Sc23 O25 2.025 . S
Sc23 O33 2.105 . S
Sc23 O37 2.105 . S
Sc23 O39 2.105 . S
Sc23 O43 2.105 . S
Sc24 O25 2.025 . S
Sc24 O34 2.105 . S
Sc24 O36 2.105 . S
Sc24 O40 2.105 . S
Sc24 O42 2.105 . S
O25 Sc22 2.025 . S
O25 Sc23 2.025 . S
O25 Sc24 2.025 . S
C26 O32 1.268 . S
C26 O42 1.268 . S
C27 O33 1.268 . S
C27 O41 1.268 . S
C28 O34 1.268 . S
C28 O43 1.268 . S
C29 O35 1.268 . S
C29 O39 1.268 . S
C30 O36 1.268 . S
C30 O38 1.268 . S
C31 O37 1.268 . S
C31 O40 1.268 . S
O32 Sc22 2.105 . S
O32 C26 1.268 . S
O33 Sc23 2.105 . S
O33 C27 1.268 . S
O34 Sc24 2.105 . S
O34 C28 1.268 . S
O35 Sc22 2.105 . S
O35 C29 1.268 . S
O36 Sc24 2.105 . S
O36 C30 1.268 . S
O37 Sc23 2.105 . S
O37 C31 1.268 . S
O38 Sc22 2.105 . S
O38 C30 1.268 . S
O39 Sc23 2.105 . S
O39 C29 1.268 . S
O40 Sc24 2.105 . S
O40 C31 1.268 . S
O41 Sc22 2.105 . S
O41 C27 1.268 . S
O42 Sc24 2.105 . S
O42 C26 1.268 . S
O43 Sc23 2.105 . S
O43 C28 1.268 . S
Sc44 O47 2.025 . S
Sc44 O54 2.105 . S
Sc44 O57 2.105 . S
Sc44 O60 2.105 . S
Sc44 O63 2.105 . S
Sc45 O47 2.025 . S
Sc45 O55 2.105 . S
Sc45 O59 2.105 . S
Sc45 O61 2.105 . S
Sc45 O65 2.105 . S
Sc46 O47 2.025 . S
Sc46 O56 2.105 . S
Sc46 O58 2.105 . S
Sc46 O62 2.105 . S
Sc46 O64 2.105 . S
O47 Sc44 2.025 . S
O47 Sc45 2.025 . S
O47 Sc46 2.025 . S
C48 O54 1.268 . S
C48 O64 1.268 . S
C49 O55 1.268 . S
C49 O63 1.268 . S
C50 O56 1.268 . S
C50 O65 1.268 . S
C51 O57 1.268 . S
C51 O61 1.268 . S
C52 O58 1.268 . S
C52 O60 1.268 . S
C53 O59 1.268 . S
C53 O62 1.268 . S
O54 Sc44 2.105 . S
O54 C48 1.268 . S
O55 Sc45 2.105 . S
O55 C49 1.268 . S
O56 Sc46 2.105 . S
O56 C50 1.268 . S
O57 Sc44 2.105 . S
O57 C51 1.268 . S
O58 Sc46 2.105 . S
O58 C52 1.268 . S
O59 Sc45 2.105 . S
O59 C53 1.268 . S
O60 Sc44 2.105 . S
O60 C52 1.268 . S
O61 Sc45 2.105 . S
O61 C51 1.268 . S
O62 Sc46 2.105 . S
O62 C53 1.268 . S
O63 Sc44 2.105 . S
O63 C49 1.268 . S
O64 Sc46 2.105 . S
O64 C48 1.268 . S
O65 Sc45 2.105 . S
O65 C50 1.268 . S
Sc66 O69 2.025 . S
Sc66 O76 2.105 . S
Sc66 O79 2.105 . S
Sc66 O82 2.105 . S
Sc66 O85 2.105 . S
Sc67 O69 2.025 . S
Sc67 O77 2.105 . S
Sc67 O81 2.105 . S
Sc67 O83 2.105 . S
Sc67 O87 2.105 . S
Sc68 O69 2.025 . S
Sc68 O78 2.105 . S
Sc68 O80 2.105 . S
Sc68 O84 2.105 . S
Sc68 O86 2.105 . S
O69 Sc66 2.025 . S
O69 Sc67 2.025 . S
O69 Sc68 2.025 . S
C70 O76 1.268 . S
C70 O86 1.268 . S
C71 O77 1.268 . S
C71 O85 1.268 . S
C72 O78 1.268 . S
C72 O87 1.268 . S
C73 O79 1.268 . S
C73 O83 1.268 . S
C74 O80 1.268 . S
C74 O82 1.268 . S
C75 O81 1.268 . S
C75 O84 1.268 . S
O76 Sc66 2.105 . S
O76 C70 1.268 . S
O77 Sc67 2.105 . S
O77 C71 1.268 . S
O78 Sc68 2.105 . S
O78 C72 1.268 . S
O79 Sc66 2.105 . S
O79 C73 1.268 . S
O80 Sc68 2.105 . S
O80 C74 1.268 . S
O81 Sc67 2.105 . S
O81 C75 1.268 . S
O82 Sc66 2.105 . S
O82 C74 1.268 . S
O83 Sc67 2.105 . S
O83 C73 1.268 . S
O84 Sc68 2.105 . S
O84 C75 1.268 . S
O85 Sc66 2.105 . S
O85 C71 1.268 . S
O86 Sc68 2.105 . S
O86 C70 1.268 . S
O87 Sc67 2.105 . S
O87 C72 1.268 . S
Sc88 O91 2.025 . S
Sc88 O98 2.105 . S
Sc88 O101 2.105 . S
Sc88 O104 2.105 . S
Sc88 O107 2.105 . S
Sc89 O91 2.025 . S
Sc89 O99 2.105 . S
Sc89 O103 2.105 . S
Sc89 O105 2.105 . S
Sc89 O109 2.105 . S
Sc90 O91 2.025 . S
Sc90 O100 2.105 . S
Sc90 O102 2.105 . S
Sc90 O106 2.105 . S
Sc90 O108 2.105 . S
O91 Sc88 2.025 . S
O91 Sc89 2.025 . S
O91 Sc90 2.025 . S
C92 O98 1.268 . S
C92 O108 1.268 . S
C93 O99 1.268 . S
C93 O107 1.268 . S
C94 O100 1.268 . S
C94 O109 1.268 . S
C95 O101 1.268 . S
C95 O105 1.268 . S
C96 O102 1.268 . S
C96 O104 1.268 . S
C97 O103 1.268 . S
C97 O106 1.268 . S
O98 Sc88 2.105 . S
O98 C92 1.268 . S
O99 Sc89 2.105 . S
O99 C93 1.268 . S
O100 Sc90 2.105 . S
O100 C94 1.268 . S
O101 Sc88 2.105 . S
O101 C95 1.268 . S
O102 Sc90 2.105 . S
O102 C96 1.268 . S
O103 Sc89 2.105 . S
O103 C97 1.268 . S
O104 Sc88 2.105 . S
O104 C96 1.268 . S
O105 Sc89 2.105 . S
O105 C95 1.268 . S
O106 Sc90 2.105 . S
O106 C97 1.268 . S
O107 Sc88 2.105 . S
O107 C93 1.268 . S
O108 Sc90 2.105 . S
O108 C92 1.268 . S
O109 Sc89 2.105 . S
O109 C94 1.268 . S
Sc110 O113 2.025 . S
Sc110 O120 2.105 . S
Sc110 O123 2.105 . S
Sc110 O126 2.105 . S
Sc110 O129 2.105 . S
Sc111 O113 2.025 . S
Sc111 O121 2.105 . S
Sc111 O125 2.105 . S
Sc111 O127 2.105 . S
Sc111 O131 2.105 . S
Sc112 O113 2.025 . S
Sc112 O122 2.105 . S
Sc112 O124 2.105 . S
Sc112 O128 2.105 . S
Sc112 O130 2.105 . S
O113 Sc110 2.025 . S
O113 Sc111 2.025 . S
O113 Sc112 2.025 . S
C114 O120 1.268 . S
C114 O130 1.268 . S
C115 O121 1.268 . S
C115 O129 1.268 . S
C116 O122 1.268 . S
C116 O131 1.268 . S
C117 O123 1.268 . S
C117 O127 1.268 . S
C118 O124 1.268 . S
C118 O126 1.268 . S
C119 O125 1.268 . S
C119 O128 1.268 . S
O120 Sc110 2.105 . S
O120 C114 1.268 . S
O121 Sc111 2.105 . S
O121 C115 1.268 . S
O122 Sc112 2.105 . S
O122 C116 1.268 . S
O123 Sc110 2.105 . S
O123 C117 1.268 . S
O124 Sc112 2.105 . S
O124 C118 1.268 . S
O125 Sc111 2.105 . S
O125 C119 1.268 . S
O126 Sc110 2.105 . S
O126 C118 1.268 . S
O127 Sc111 2.105 . S
O127 C117 1.268 . S
O128 Sc112 2.105 . S
O128 C119 1.268 . S
O129 Sc110 2.105 . S
O129 C115 1.268 . S
O130 Sc112 2.105 . S
O130 C114 1.268 . S
O131 Sc111 2.105 . S
O131 C116 1.268 . S
Sc132 O135 2.025 . S
Sc132 O142 2.105 . S
Sc132 O145 2.105 . S
Sc132 O148 2.105 . S
Sc132 O151 2.105 . S
Sc133 O135 2.025 . S
Sc133 O143 2.105 . S
Sc133 O147 2.105 . S
Sc133 O149 2.105 . S
Sc133 O153 2.105 . S
Sc134 O135 2.025 . S
Sc134 O144 2.105 . S
Sc134 O146 2.105 . S
Sc134 O150 2.105 . S
Sc134 O152 2.105 . S
O135 Sc132 2.025 . S
O135 Sc133 2.025 . S
O135 Sc134 2.025 . S
C136 O142 1.268 . S
C136 O152 1.268 . S
C137 O143 1.268 . S
C137 O151 1.268 . S
C138 O144 1.268 . S
C138 O153 1.268 . S
C139 O145 1.268 . S
C139 O149 1.268 . S
C140 O146 1.268 . S
C140 O148 1.268 . S
C141 O147 1.268 . S
C141 O150 1.268 . S
O142 Sc132 2.105 . S
O142 C136 1.268 . S
O143 Sc133 2.105 . S
O143 C137 1.268 . S
O144 Sc134 2.105 . S
O144 C138 1.268 . S
O145 Sc132 2.105 . S
O145 C139 1.268 . S
O146 Sc134 2.105 . S
O146 C140 1.268 . S
O147 Sc133 2.105 . S
O147 C141 1.268 . S
O148 Sc132 2.105 . S
O148 C140 1.268 . S
O149 Sc133 2.105 . S
O149 C139 1.268 . S
O150 Sc134 2.105 . S
O150 C141 1.268 . S
O151 Sc132 2.105 . S
O151 C137 1.268 . S
O152 Sc134 2.105 . S
O152 C136 1.268 . S
O153 Sc133 2.105 . S
O153 C138 1.268 . S
Sc154 O157 2.025 . S
Sc154 O164 2.105 . S
Sc154 O167 2.105 . S
Sc154 O170 2.105 . S
Sc154 O173 2.105 . S
Sc155 O157 2.025 . S
Sc155 O165 2.105 . S
Sc155 O169 2.105 . S
Sc155 O171 2.105 . S
Sc155 O175 2.105 . S
Sc156 O157 2.025 . S
Sc156 O166 2.105 . S
Sc156 O168 2.105 . S
Sc156 O172 2.105 . S
Sc156 O174 2.105 . S
O157 Sc154 2.025 . S
O157 Sc155 2.025 . S
O157 Sc156 2.025 . S
C158 O164 1.268 . S
C158 O174 1.268 . S
C159 O165 1.268 . S
C159 O173 1.268 . S
C160 O166 1.268 . S
C160 O175 1.268 . S
C161 O167 1.268 . S
C161 O171 1.268 . S
C162 O168 1.268 . S
C162 O170 1.268 . S
C163 O169 1.268 . S
C163 O172 1.268 . S
O164 Sc154 2.105 . S
O164 C158 1.268 . S
O165 Sc155 2.105 . S
O165 C159 1.268 . S
O166 Sc156 2.105 . S
O166 C160 1.268 . S
O167 Sc154 2.105 . S
O167 C161 1.268 . S
O168 Sc156 2.105 . S
O168 C162 1.268 . S
O169 Sc155 2.105 . S
O169 C163 1.268 . S
O170 Sc154 2.105 . S
O170 C162 1.268 . S
O171 Sc155 2.105 . S
O171 C161 1.268 . S
O172 Sc156 2.105 . S
O172 C163 1.268 . S
O173 Sc154 2.105 . S
O173 C159 1.268 . S
O174 Sc156 2.105 . S
O174 C158 1.268 . S
O175 Sc155 2.105 . S
O175 C160 1.268 . S
Sc176 O179 2.025 . S
Sc176 O186 2.105 . S
Sc176 O189 2.105 . S
Sc176 O192 2.105 . S
Sc176 O195 2.105 . S
Sc177 O179 2.025 . S
Sc177 O187 2.105 . S
Sc177 O191 2.105 . S
Sc177 O193 2.105 . S
Sc177 O197 2.105 . S
Sc178 O179 2.025 . S
Sc178 O188 2.105 . S
Sc178 O190 2.105 . S
Sc178 O194 2.105 . S
Sc178 O196 2.105 . S
O179 Sc176 2.025 . S
O179 Sc177 2.025 . S
O179 Sc178 2.025 . S
C180 O186 1.268 . S
C180 O196 1.268 . S
C181 O187 1.268 . S
C181 O195 1.268 . S
C182 O188 1.268 . S
C182 O197 1.268 . S
C183 O189 1.268 . S
C183 O193 1.268 . S
C184 O190 1.268 . S
C184 O192 1.268 . S
C185 O191 1.268 . S
C185 O194 1.268 . S
O186 Sc176 2.105 . S
O186 C180 1.268 . S
O187 Sc177 2.105 . S
O187 C181 1.268 . S
O188 Sc178 2.105 . S
O188 C182 1.268 . S
O189 Sc176 2.105 . S
O189 C183 1.268 . S
O190 Sc178 2.105 . S
O190 C184 1.268 . S
O191 Sc177 2.105 . S
O191 C185 1.268 . S
O192 Sc176 2.105 . S
O192 C184 1.268 . S
O193 Sc177 2.105 . S
O193 C183 1.268 . S
O194 Sc178 2.105 . S
O194 C185 1.268 . S
O195 Sc176 2.105 . S
O195 C181 1.268 . S
O196 Sc178 2.105 . S
O196 C180 1.268 . S
O197 Sc177 2.105 . S
O197 C182 1.268 . S
Sc198 O201 2.025 . S
Sc198 O208 2.105 . S
Sc198 O211 2.105 . S
Sc198 O214 2.105 . S
Sc198 O217 2.105 . S
Sc199 O201 2.025 . S
Sc199 O209 2.105 . S
Sc199 O213 2.105 . S
Sc199 O215 2.105 . S
Sc199 O219 2.105 . S
Sc200 O201 2.025 . S
Sc200 O210 2.105 . S
Sc200 O212 2.105 . S
Sc200 O216 2.105 . S
Sc200 O218 2.105 . S
O201 Sc198 2.025 . S
O201 Sc199 2.025 . S
O201 Sc200 2.025 . S
C202 O208 1.268 . S
C202 O218 1.268 . S
C203 O209 1.268 . S
C203 O217 1.268 . S
C204 O210 1.268 . S
C204 O219 1.268 . S
C205 O211 1.268 . S
C205 O215 1.268 . S
C206 O212 1.268 . S
C206 O214 1.268 . S
C207 O213 1.268 . S
C207 O216 1.268 . S
O208 Sc198 2.105 . S
O208 C202 1.268 . S
O209 Sc199 2.105 . S
O209 C203 1.268 . S
O210 Sc200 2.105 . S
O210 C204 1.268 . S
O211 Sc198 2.105 . S
O211 C205 1.268 . S
O212 Sc200 2.105 . S
O212 C206 1.268 . S
O213 Sc199 2.105 . S
O213 C207 1.268 . S
O214 Sc198 2.105 . S
O214 C206 1.268 . S
O215 Sc199 2.105 . S
O215 C205 1.268 . S
O216 Sc200 2.105 . S
O216 C207 1.268 . S
O217 Sc198 2.105 . S
O217 C203 1.268 . S
O218 Sc200 2.105 . S
O218 C202 1.268 . S
O219 Sc199 2.105 . S
O219 C204 1.268 . S
Sc220 O223 2.025 . S
Sc220 O230 2.105 . S
Sc220 O233 2.105 . S
Sc220 O236 2.105 . S
Sc220 O239 2.105 . S
Sc221 O223 2.025 . S
Sc221 O231 2.105 . S
Sc221 O235 2.105 . S
Sc221 O237 2.105 . S
Sc221 O241 2.105 . S
Sc222 O223 2.025 . S
Sc222 O232 2.105 . S
Sc222 O234 2.105 . S
Sc222 O238 2.105 . S
Sc222 O240 2.105 . S
O223 Sc220 2.025 . S
O223 Sc221 2.025 . S
O223 Sc222 2.025 . S
C224 O230 1.268 . S
C224 O240 1.268 . S
C225 O231 1.268 . S
C225 O239 1.268 . S
C226 O232 1.268 . S
C226 O241 1.268 . S
C227 O233 1.268 . S
C227 O237 1.268 . S
C228 O234 1.268 . S
C228 O236 1.268 . S
C229 O235 1.268 . S
C229 O238 1.268 . S
O230 Sc220 2.105 . S
O230 C224 1.268 . S
O231 Sc221 2.105 . S
O231 C225 1.268 . S
O232 Sc222 2.105 . S
O232 C226 1.268 . S
O233 Sc220 2.105 . S
O233 C227 1.268 . S
O234 Sc222 2.105 . S
O234 C228 1.268 . S
O235 Sc221 2.105 . S
O235 C229 1.268 . S
O236 Sc220 2.105 . S
O236 C228 1.268 . S
O237 Sc221 2.105 . S
O237 C227 1.268 . S
O238 Sc222 2.105 . S
O238 C229 1.268 . S
O239 Sc220 2.105 . S
O239 C225 1.268 . S
O240 Sc222 2.105 . S
O240 C224 1.268 . S
O241 Sc221 2.105 . S
O241 C226 1.268 . S
Sc242 O245 2.025 . S
Sc242 O252 2.105 . S
Sc242 O255 2.105 . S
Sc242 O258 2.105 . S
Sc242 O261 2.105 . S
Sc243 O245 2.025 . S
Sc243 O253 2.105 . S
Sc243 O257 2.105 . S
Sc243 O259 2.105 . S
Sc243 O263 2.105 . S
Sc244 O245 2.025 . S
Sc244 O254 2.105 . S
Sc244 O256 2.105 . S
Sc244 O260 2.105 . S
Sc244 O262 2.105 . S
O245 Sc242 2.025 . S
O245 Sc243 2.025 . S
O245 Sc244 2.025 . S
C246 O252 1.268 . S
C246 O262 1.268 . S
C247 O253 1.268 . S
C247 O261 1.268 . S
C248 O254 1.268 . S
C248 O263 1.268 . S
C249 O255 1.268 . S
C249 O259 1.268 . S
C250 O256 1.268 . S
C250 O258 1.268 . S
C251 O257 1.268 . S
C251 O260 1.268 . S
O252 Sc242 2.105 . S
O252 C246 1.268 . S
O253 Sc243 2.105 . S
O253 C247 1.268 . S
O254 Sc244 2.105 . S
O254 C248 1.268 . S
O255 Sc242 2.105 . S
O255 C249 1.268 . S
O256 Sc244 2.105 . S
O256 C250 1.268 . S
O257 Sc243 2.105 . S
O257 C251 1.268 . S
O258 Sc242 2.105 . S
O258 C250 1.268 . S
O259 Sc243 2.105 . S
O259 C249 1.268 . S
O260 Sc244 2.105 . S
O260 C251 1.268 . S
O261 Sc242 2.105 . S
O261 C247 1.268 . S
O262 Sc244 2.105 . S
O262 C246 1.268 . S
O263 Sc243 2.105 . S
O263 C248 1.268 . S
Sc264 O267 2.025 . S
Sc264 O274 2.105 . S
Sc264 O277 2.105 . S
Sc264 O280 2.105 . S
Sc264 O283 2.105 . S
Sc265 O267 2.025 . S
Sc265 O275 2.105 . S
Sc265 O279 2.105 . S
Sc265 O281 2.105 . S
Sc265 O285 2.105 . S
Sc266 O267 2.025 . S
Sc266 O276 2.105 . S
Sc266 O278 2.105 . S
Sc266 O282 2.105 . S
Sc266 O284 2.105 . S
O267 Sc264 2.025 . S
O267 Sc265 2.025 . S
O267 Sc266 2.025 . S
C268 O274 1.268 . S
C268 O284 1.268 . S
C269 O275 1.268 . S
C269 O283 1.268 . S
C270 O276 1.268 . S
C270 O285 1.268 . S
C271 O277 1.268 . S
C271 O281 1.268 . S
C272 O278 1.268 . S
C272 O280 1.268 . S
C273 O279 1.268 . S
C273 O282 1.268 . S
O274 Sc264 2.105 . S
O274 C268 1.268 . S
O275 Sc265 2.105 . S
O275 C269 1.268 . S
O276 Sc266 2.105 . S
O276 C270 1.268 . S
O277 Sc264 2.105 . S
O277 C271 1.268 . S
O278 Sc266 2.105 . S
O278 C272 1.268 . S
O279 Sc265 2.105 . S
O279 C273 1.268 . S
O280 Sc264 2.105 . S
O280 C272 1.268 . S
O281 Sc265 2.105 . S
O281 C271 1.268 . S
O282 Sc266 2.105 . S
O282 C273 1.268 . S
O283 Sc264 2.105 . S
O283 C269 1.268 . S
O284 Sc266 2.105 . S
O284 C268 1.268 . S
O285 Sc265 2.105 . S
O285 C270 1.268 . S
Sc286 O289 2.025 . S
Sc286 O296 2.105 . S
Sc286 O299 2.105 . S
Sc286 O302 2.105 . S
Sc286 O305 2.105 . S
Sc287 O289 2.025 . S
Sc287 O297 2.105 . S
Sc287 O301 2.105 . S
Sc287 O303 2.105 . S
Sc287 O307 2.105 . S
Sc288 O289 2.025 . S
Sc288 O298 2.105 . S
Sc288 O300 2.105 . S
Sc288 O304 2.105 . S
Sc288 O306 2.105 . S
O289 Sc286 2.025 . S
O289 Sc287 2.025 . S
O289 Sc288 2.025 . S
C290 O296 1.268 . S
C290 O306 1.268 . S
C291 O297 1.268 . S
C291 O305 1.268 . S
C292 O298 1.268 . S
C292 O307 1.268 . S
C293 O299 1.268 . S
C293 O303 1.268 . S
C294 O300 1.268 . S
C294 O302 1.268 . S
C295 O301 1.268 . S
C295 O304 1.268 . S
O296 Sc286 2.105 . S
O296 C290 1.268 . S
O297 Sc287 2.105 . S
O297 C291 1.268 . S
O298 Sc288 2.105 . S
O298 C292 1.268 . S
O299 Sc286 2.105 . S
O299 C293 1.268 . S
O300 Sc288 2.105 . S
O300 C294 1.268 . S
O301 Sc287 2.105 . S
O301 C295 1.268 . S
O302 Sc286 2.105 . S
O302 C294 1.268 . S
O303 Sc287 2.105 . S
O303 C293 1.268 . S
O304 Sc288 2.105 . S
O304 C295 1.268 . S
O305 Sc286 2.105 . S
O305 C291 1.268 . S
O306 Sc288 2.105 . S
O306 C290 1.268 . S
O307 Sc287 2.105 . S
O307 C292 1.268 . S
Sc308 O311 2.025 . S
Sc308 O318 2.105 . S
Sc308 O321 2.105 . S
Sc308 O324 2.105 . S
Sc308 O327 2.105 . S
Sc309 O311 2.025 . S
Sc309 O319 2.105 . S
Sc309 O323 2.105 . S
Sc309 O325 2.105 . S
Sc309 O329 2.105 . S
Sc310 O311 2.025 . S
Sc310 O320 2.105 . S
Sc310 O322 2.105 . S
Sc310 O326 2.105 . S
Sc310 O328 2.105 . S
O311 Sc308 2.025 . S
O311 Sc309 2.025 . S
O311 Sc310 2.025 . S
C312 O318 1.268 . S
C312 O328 1.268 . S
C313 O319 1.268 . S
C313 O327 1.268 . S
C314 O320 1.268 . S
C314 O329 1.268 . S
C315 O321 1.268 . S
C315 O325 1.268 . S
C316 O322 1.268 . S
C316 O324 1.268 . S
C317 O323 1.268 . S
C317 O326 1.268 . S
O318 Sc308 2.105 . S
O318 C312 1.268 . S
O319 Sc309 2.105 . S
O319 C313 1.268 . S
O320 Sc310 2.105 . S
O320 C314 1.268 . S
O321 Sc308 2.105 . S
O321 C315 1.268 . S
O322 Sc310 2.105 . S
O322 C316 1.268 . S
O323 Sc309 2.105 . S
O323 C317 1.268 . S
O324 Sc308 2.105 . S
O324 C316 1.268 . S
O325 Sc309 2.105 . S
O325 C315 1.268 . S
O326 Sc310 2.105 . S
O326 C317 1.268 . S
O327 Sc308 2.105 . S
O327 C313 1.268 . S
O328 Sc310 2.105 . S
O328 C312 1.268 . S
O329 Sc309 2.105 . S
O329 C314 1.268 . S
Sc330 O333 2.025 . S
Sc330 O340 2.105 . S
Sc330 O343 2.105 . S
Sc330 O346 2.105 . S
Sc330 O349 2.105 . S
Sc331 O333 2.025 . S
Sc331 O341 2.105 . S
Sc331 O345 2.105 . S
Sc331 O347 2.105 . S
Sc331 O351 2.105 . S
Sc332 O333 2.025 . S
Sc332 O342 2.105 . S
Sc332 O344 2.105 . S
Sc332 O348 2.105 . S
Sc332 O350 2.105 . S
O333 Sc330 2.025 . S
O333 Sc331 2.025 . S
O333 Sc332 2.025 . S
C334 O340 1.268 . S
C334 O350 1.268 . S
C335 O341 1.268 . S
C335 O349 1.268 . S
C336 O342 1.268 . S
C336 O351 1.268 . S
C337 O343 1.268 . S
C337 O347 1.268 . S
C338 O344 1.268 . S
C338 O346 1.268 . S
C339 O345 1.268 . S
C339 O348 1.268 . S
O340 Sc330 2.105 . S
O340 C334 1.268 . S
O341 Sc331 2.105 . S
O341 C335 1.268 . S
O342 Sc332 2.105 . S
O342 C336 1.268 . S
O343 Sc330 2.105 . S
O343 C337 1.268 . S
O344 Sc332 2.105 . S
O344 C338 1.268 . S
O345 Sc331 2.105 . S
O345 C339 1.268 . S
O346 Sc330 2.105 . S
O346 C338 1.268 . S
O347 Sc331 2.105 . S
O347 C337 1.268 . S
O348 Sc332 2.105 . S
O348 C339 1.268 . S
O349 Sc330 2.105 . S
O349 C335 1.268 . S
O350 Sc332 2.105 . S
O350 C334 1.268 . S
O351 Sc331 2.105 . S
O351 C336 1.268 . S
H352 C364 0.930 . S
H353 C366 0.930 . S
H354 C367 0.930 . S
H355 C371 0.959 . S
H356 C371 0.959 . S
H357 C371 0.961 . S
H358 C372 0.960 . S
H359 C372 0.961 . S
H360 C372 0.959 . S
H361 C375 0.929 . S
H362 C376 0.931 . S
H363 C378 0.930 . S
C364 H352 0.930 . S
C364 C365 1.399 . S
C364 C369 1.399 . S
C365 C364 1.399 . S
C365 C366 1.376 . S
C366 H353 0.930 . S
C366 C365 1.376 . S
C366 C367 1.388 . S
C367 H354 0.930 . S
C367 C366 1.388 . S
C367 C368 1.390 . S
C368 C367 1.390 . S
C368 C369 1.394 . S
C368 C374 1.465 . S
C369 C364 1.399 . S
C369 C368 1.394 . S
C369 C370 1.516 . S
C370 C369 1.516 . S
C370 C371 1.502 . S
C370 C372 1.561 . S
C370 C373 1.526 . S
C371 H355 0.959 . S
C371 H356 0.959 . S
C371 H357 0.961 . S
C371 C370 1.502 . S
C372 H358 0.960 . S
C372 H359 0.961 . S
C372 H360 0.959 . S
C372 C370 1.561 . S
C373 C370 1.526 . S
C373 C374 1.396 . S
C373 C378 1.390 1_545 S
C374 C368 1.465 . S
C374 C373 1.396 . S
C374 C375 1.399 . S
C375 H361 0.929 . S
C375 C374 1.399 . S
C375 C376 1.385 1_545 S
C376 H362 0.931 . S
C376 C375 1.385 1_565 S
C376 C377 1.389 . S
C377 C376 1.389 . S
C377 C378 1.387 . S
C378 H363 0.930 . S
C378 C373 1.390 1_565 S
C378 C377 1.387 . S
H379 C391 0.930 . S
H380 C393 0.930 . S
H381 C394 0.930 . S
H382 C398 0.959 . S
H383 C398 0.959 1_545 S
H384 C398 0.961 . S
H385 C399 0.960 . S
H386 C399 0.961 . S
H387 C399 0.959 . S
H388 C402 0.929 . S
H389 C403 0.931 . S
H390 C405 0.930 . S
C391 H379 0.930 . S
C391 C392 1.399 . S
C391 C396 1.399 . S
C392 C391 1.399 . S
C392 C393 1.376 . S
C393 H380 0.930 . S
C393 C392 1.376 . S
C393 C394 1.388 . S
C394 H381 0.930 . S
C394 C393 1.388 . S
C394 C395 1.390 . S
C395 C394 1.390 . S
C395 C396 1.394 . S
C395 C401 1.465 . S
C396 C391 1.399 . S
C396 C395 1.394 . S
C396 C397 1.516 . S
C397 C396 1.516 . S
C397 C398 1.502 . S
C397 C399 1.561 . S
C397 C400 1.526 . S
C398 H382 0.959 . S
C398 H383 0.959 1_565 S
C398 H384 0.961 . S
C398 C397 1.502 . S
C399 H385 0.960 . S
C399 H386 0.961 . S
C399 H387 0.959 . S
C399 C397 1.561 . S
C400 C397 1.526 . S
C400 C401 1.396 . S
C400 C405 1.390 1_565 S
C401 C395 1.465 . S
C401 C400 1.396 . S
C401 C402 1.399 . S
C402 H388 0.929 . S
C402 C401 1.399 . S
C402 C403 1.385 1_565 S
C403 H389 0.931 . S
C403 C402 1.385 1_545 S
C403 C404 1.389 . S
C404 C403 1.389 . S
C404 C405 1.387 . S
C405 H390 0.930 . S
C405 C400 1.390 1_545 S
C405 C404 1.387 . S
H406 C418 0.930 . S
H407 C420 0.930 . S
H408 C421 0.930 . S
H409 C425 0.959 . S
H410 C425 0.959 . S
H411 C425 0.961 . S
H412 C426 0.960 . S
H413 C426 0.961 . S
H414 C426 0.959 . S
H415 C429 0.929 . S
H416 C430 0.931 . S
H417 C432 0.930 . S
C418 H406 0.930 . S
C418 C419 1.399 . S
C418 C423 1.399 . S
C419 C418 1.399 . S
C419 C420 1.376 . S
C420 H407 0.930 . S
C420 C419 1.376 . S
C420 C421 1.388 . S
C421 H408 0.930 . S
C421 C420 1.388 . S
C421 C422 1.390 . S
C422 C421 1.390 . S
C422 C423 1.394 . S
C422 C428 1.465 . S
C423 C418 1.399 . S
C423 C422 1.394 . S
C423 C424 1.516 . S
C424 C423 1.516 . S
C424 C425 1.502 . S
C424 C426 1.561 . S
C424 C427 1.526 . S
C425 H409 0.959 . S
C425 H410 0.959 . S
C425 H411 0.961 . S
C425 C424 1.502 . S
C426 H412 0.960 . S
C426 H413 0.961 . S
C426 H414 0.959 . S
C426 C424 1.561 . S
C427 C424 1.526 . S
C427 C428 1.396 . S
C427 C432 1.390 1_565 S
C428 C422 1.465 . S
C428 C427 1.396 . S
C428 C429 1.399 1_565 S
C429 H415 0.929 . S
C429 C428 1.399 1_545 S
C429 C430 1.385 . S
C430 H416 0.931 . S
C430 C429 1.385 . S
C430 C431 1.389 . S
C431 C430 1.389 . S
C431 C432 1.387 . S
C432 H417 0.930 . S
C432 C427 1.390 1_545 S
C432 C431 1.387 . S
H433 C445 0.930 . S
H434 C447 0.930 . S
H435 C448 0.930 1_545 S
H436 C452 0.959 . S
H437 C452 0.959 . S
H438 C452 0.961 . S
H439 C453 0.960 1_565 S
H440 C453 0.961 . S
H441 C453 0.959 . S
H442 C456 0.929 . S
H443 C457 0.931 . S
H444 C459 0.930 . S
C445 H433 0.930 . S
C445 C446 1.399 . S
C445 C450 1.399 1_565 S
C446 C445 1.399 . S
C446 C447 1.376 . S
C447 H434 0.930 . S
C447 C446 1.376 . S
C447 C448 1.388 . S
C448 H435 0.930 1_565 S
C448 C447 1.388 . S
C448 C449 1.390 1_565 S
C449 C448 1.390 1_545 S
C449 C450 1.394 . S
C449 C455 1.465 . S
C450 C445 1.399 1_545 S
C450 C449 1.394 . S
C450 C451 1.516 . S
C451 C450 1.516 . S
C451 C452 1.502 . S
C451 C453 1.561 . S
C451 C454 1.526 . S
C452 H436 0.959 . S
C452 H437 0.959 . S
C452 H438 0.961 . S
C452 C451 1.502 . S
C453 H439 0.960 1_545 S
C453 H440 0.961 . S
C453 H441 0.959 . S
C453 C451 1.561 . S
C454 C451 1.526 . S
C454 C455 1.396 . S
C454 C459 1.390 . S
C455 C449 1.465 . S
C455 C454 1.396 . S
C455 C456 1.399 . S
C456 H442 0.929 . S
C456 C455 1.399 . S
C456 C457 1.385 . S
C457 H443 0.931 . S
C457 C456 1.385 . S
C457 C458 1.389 . S
C458 C457 1.389 . S
C458 C459 1.387 . S
C459 H444 0.930 . S
C459 C454 1.390 . S
C459 C458 1.387 . S
H460 C472 0.930 . S
H461 C474 0.930 . S
H462 C475 0.930 . S
H463 C479 0.959 . S
H464 C479 0.959 . S
H465 C479 0.961 1_545 S
H466 C480 0.960 . S
H467 C480 0.961 . S
H468 C480 0.959 . S
H469 C483 0.929 . S
H470 C484 0.931 . S
H471 C486 0.930 . S
C472 H460 0.930 . S
C472 C473 1.399 . S
C472 C477 1.399 1_545 S
C473 C472 1.399 . S
C473 C474 1.376 . S
C474 H461 0.930 . S
C474 C473 1.376 . S
C474 C475 1.388 1_545 S
C475 H462 0.930 . S
C475 C474 1.388 1_565 S
C475 C476 1.390 . S
C476 C475 1.390 . S
C476 C477 1.394 . S
C476 C482 1.465 . S
C477 C472 1.399 1_565 S
C477 C476 1.394 . S
C477 C478 1.516 . S
C478 C477 1.516 . S
C478 C479 1.502 . S
C478 C480 1.561 . S
C478 C481 1.526 . S
C479 H463 0.959 . S
C479 H464 0.959 . S
C479 H465 0.961 1_565 S
C479 C478 1.502 . S
C480 H466 0.960 . S
C480 H467 0.961 . S
C480 H468 0.959 . S
C480 C478 1.561 . S
C481 C478 1.526 . S
C481 C482 1.396 . S
C481 C486 1.390 . S
C482 C476 1.465 . S
C482 C481 1.396 . S
C482 C483 1.399 . S
C483 H469 0.929 . S
C483 C482 1.399 . S
C483 C484 1.385 . S
C484 H470 0.931 . S
C484 C483 1.385 . S
C484 C485 1.389 . S
C485 C484 1.389 . S
C485 C486 1.387 . S
C486 H471 0.930 . S
C486 C481 1.390 . S
C486 C485 1.387 . S
H487 C499 0.930 . S
H488 C501 0.930 . S
H489 C502 0.929 1_545 S
H490 C506 0.959 . S
H491 C506 0.959 . S
H492 C506 0.961 . S
H493 C507 0.960 . S
H494 C507 0.961 . S
H495 C507 0.959 . S
H496 C510 0.929 . S
H497 C511 0.931 . S
H498 C513 0.930 . S
C499 H487 0.930 . S
C499 C500 1.399 . S
C499 C504 1.399 1_565 S
C500 C499 1.399 . S
C500 C501 1.376 . S
C501 H488 0.930 . S
C501 C500 1.376 . S
C501 C502 1.388 . S
C502 H489 0.929 1_565 S
C502 C501 1.388 . S
C502 C503 1.390 1_565 S
C503 C502 1.390 1_545 S
C503 C504 1.394 . S
C503 C509 1.465 . S
C504 C499 1.399 1_545 S
C504 C503 1.394 . S
C504 C505 1.516 . S
C505 C504 1.516 . S
C505 C506 1.502 . S
C505 C507 1.561 . S
C505 C508 1.526 . S
C506 H490 0.959 . S
C506 H491 0.959 . S
C506 H492 0.961 . S
C506 C505 1.502 . S
C507 H493 0.960 . S
C507 H494 0.961 . S
C507 H495 0.959 . S
C507 C505 1.561 . S
C508 C505 1.526 . S
C508 C509 1.396 . S
C508 C513 1.390 . S
C509 C503 1.465 . S
C509 C508 1.396 . S
C509 C510 1.399 . S
C510 H496 0.929 . S
C510 C509 1.399 . S
C510 C511 1.385 . S
C511 H497 0.931 . S
C511 C510 1.385 . S
C511 C512 1.389 . S
C512 C511 1.389 . S
C512 C513 1.387 . S
C513 H498 0.930 . S
C513 C508 1.390 . S
C513 C512 1.387 . S
H514 C526 0.930 . S
H515 C528 0.930 . S
H516 C529 0.930 . S
H517 C533 0.959 . S
H518 C533 0.959 . S
H519 C533 0.961 1_565 S
H520 C534 0.960 . S
H521 C534 0.961 . S
H522 C534 0.959 . S
H523 C537 0.929 . S
H524 C538 0.931 . S
H525 C540 0.930 . S
C526 H514 0.930 . S
C526 C527 1.399 . S
C526 C531 1.399 1_565 S
C527 C526 1.399 . S
C527 C528 1.376 . S
C528 H515 0.930 . S
C528 C527 1.376 . S
C528 C529 1.388 1_565 S
C529 H516 0.930 . S
C529 C528 1.388 1_545 S
C529 C530 1.390 . S
C530 C529 1.390 . S
C530 C531 1.394 . S
C530 C536 1.465 . S
C531 C526 1.399 1_545 S
C531 C530 1.394 . S
C531 C532 1.516 . S
C532 C531 1.516 . S
C532 C533 1.502 . S
C532 C534 1.561 . S
C532 C535 1.526 . S
C533 H517 0.959 . S
C533 H518 0.959 . S
C533 H519 0.961 1_545 S
C533 C532 1.502 . S
C534 H520 0.960 . S
C534 H521 0.961 . S
C534 H522 0.959 . S
C534 C532 1.561 . S
C535 C532 1.526 . S
C535 C536 1.396 . S
C535 C540 1.390 . S
C536 C530 1.465 . S
C536 C535 1.396 . S
C536 C537 1.399 . S
C537 H523 0.929 . S
C537 C536 1.399 . S
C537 C538 1.385 . S
C538 H524 0.931 . S
C538 C537 1.385 . S
C538 C539 1.389 . S
C539 C538 1.389 . S
C539 C540 1.387 . S
C540 H525 0.930 . S
C540 C535 1.390 . S
C540 C539 1.387 . S
H541 C553 0.930 . S
H542 C555 0.930 . S
H543 C556 0.930 . S
H544 C560 0.959 . S
H545 C560 0.959 . S
H546 C560 0.961 . S
H547 C561 0.960 . S
H548 C561 0.961 . S
H549 C561 0.959 . S
H550 C564 0.929 . S
H551 C565 0.931 . S
H552 C567 0.930 . S
C553 H541 0.930 . S
C553 C554 1.399 . S
C553 C558 1.399 1_545 S
C554 C553 1.399 . S
C554 C555 1.376 . S
C555 H542 0.930 . S
C555 C554 1.376 . S
C555 C556 1.388 . S
C556 H543 0.930 . S
C556 C555 1.388 . S
C556 C557 1.390 1_545 S
C557 C556 1.390 1_565 S
C557 C558 1.394 . S
C557 C563 1.465 . S
C558 C553 1.399 1_565 S
C558 C557 1.394 . S
C558 C559 1.516 . S
C559 C558 1.516 . S
C559 C560 1.502 . S
C559 C561 1.561 . S
C559 C562 1.526 . S
C560 H544 0.959 . S
C560 H545 0.959 . S
C560 H546 0.961 . S
C560 C559 1.502 . S
C561 H547 0.960 . S
C561 H548 0.961 . S
C561 H549 0.959 . S
C561 C559 1.561 . S
C562 C559 1.526 . S
C562 C563 1.396 . S
C562 C567 1.390 . S
C563 C557 1.465 . S
C563 C562 1.396 . S
C563 C564 1.399 . S
C564 H550 0.929 . S
C564 C563 1.399 . S
C564 C565 1.385 . S
C565 H551 0.931 . S
C565 C564 1.385 . S
C565 C566 1.389 . S
C566 C565 1.389 . S
C566 C567 1.387 . S
C567 H552 0.930 . S
C567 C562 1.390 . S
C567 C566 1.387 . S
H568 C580 0.930 . S
H569 C582 0.930 . S
H570 C583 0.930 . S
H571 C587 0.959 . S
H572 C587 0.959 . S
H573 C587 0.961 . S
H574 C588 0.960 . S
H575 C588 0.961 . S
H576 C588 0.959 . S
H577 C591 0.929 . S
H578 C592 0.931 . S
H579 C594 0.930 . S
C580 H568 0.930 . S
C580 C581 1.399 . S
C580 C585 1.399 . S
C581 C580 1.399 . S
C581 C582 1.376 . S
C582 H569 0.930 . S
C582 C581 1.376 . S
C582 C583 1.388 . S
C583 H570 0.930 . S
C583 C582 1.388 . S
C583 C584 1.390 . S
C584 C583 1.390 . S
C584 C585 1.394 . S
C584 C590 1.465 . S
C585 C580 1.399 . S
C585 C584 1.394 . S
C585 C586 1.516 . S
C586 C585 1.516 . S
C586 C587 1.502 . S
C586 C588 1.561 . S
C586 C589 1.526 . S
C587 H571 0.959 . S
C587 H572 0.959 . S
C587 H573 0.961 . S
C587 C586 1.502 . S
C588 H574 0.960 . S
C588 H575 0.961 . S
C588 H576 0.959 . S
C588 C586 1.561 . S
C589 C586 1.526 . S
C589 C590 1.396 . S
C589 C594 1.390 . S
C590 C584 1.465 . S
C590 C589 1.396 . S
C590 C591 1.399 . S
C591 H577 0.929 . S
C591 C590 1.399 . S
C591 C592 1.385 . S
C592 H578 0.931 . S
C592 C591 1.385 . S
C592 C593 1.389 . S
C593 C592 1.389 . S
C593 C594 1.387 . S
C594 H579 0.930 . S
C594 C589 1.390 . S
C594 C593 1.387 . S
H595 C607 0.930 . S
H596 C609 0.930 . S
H597 C610 0.930 . S
H598 C614 0.959 . S
H599 C614 0.959 . S
H600 C614 0.961 . S
H601 C615 0.960 . S
H602 C615 0.961 . S
H603 C615 0.959 . S
H604 C618 0.929 . S
H605 C619 0.931 . S
H606 C621 0.930 . S
C607 H595 0.930 . S
C607 C608 1.399 . S
C607 C612 1.399 . S
C608 C607 1.399 . S
C608 C609 1.376 . S
C609 H596 0.930 . S
C609 C608 1.376 . S
C609 C610 1.388 . S
C610 H597 0.930 . S
C610 C609 1.388 . S
C610 C611 1.390 . S
C611 C610 1.390 . S
C611 C612 1.394 . S
C611 C617 1.465 . S
C612 C607 1.399 . S
C612 C611 1.394 . S
C612 C613 1.516 . S
C613 C612 1.516 . S
C613 C614 1.502 . S
C613 C615 1.561 . S
C613 C616 1.526 . S
C614 H598 0.959 . S
C614 H599 0.959 . S
C614 H600 0.961 . S
C614 C613 1.502 . S
C615 H601 0.960 . S
C615 H602 0.961 . S
C615 H603 0.959 . S
C615 C613 1.561 . S
C616 C613 1.526 . S
C616 C617 1.396 . S
C616 C621 1.390 . S
C617 C611 1.465 . S
C617 C616 1.396 . S
C617 C618 1.399 . S
C618 H604 0.929 . S
C618 C617 1.399 . S
C618 C619 1.385 . S
C619 H605 0.931 . S
C619 C618 1.385 . S
C619 C620 1.389 . S
C620 C619 1.389 . S
C620 C621 1.387 . S
C621 H606 0.930 . S
C621 C616 1.390 . S
C621 C620 1.387 . S
H622 C634 0.930 . S
H623 C636 0.930 . S
H624 C637 0.930 . S
H625 C641 0.959 . S
H626 C641 0.959 . S
H627 C641 0.961 . S
H628 C642 0.960 . S
H629 C642 0.961 . S
H630 C642 0.959 . S
H631 C645 0.929 . S
H632 C646 0.931 . S
H633 C648 0.930 . S
C634 H622 0.930 . S
C634 C635 1.399 . S
C634 C639 1.399 . S
C635 C634 1.399 . S
C635 C636 1.376 . S
C636 H623 0.930 . S
C636 C635 1.376 . S
C636 C637 1.388 . S
C637 H624 0.930 . S
C637 C636 1.388 . S
C637 C638 1.390 . S
C638 C637 1.390 . S
C638 C639 1.394 . S
C638 C644 1.465 . S
C639 C634 1.399 . S
C639 C638 1.394 . S
C639 C640 1.516 . S
C640 C639 1.516 . S
C640 C641 1.502 . S
C640 C642 1.561 . S
C640 C643 1.526 . S
C641 H625 0.959 . S
C641 H626 0.959 . S
C641 H627 0.961 . S
C641 C640 1.502 . S
C642 H628 0.960 . S
C642 H629 0.961 . S
C642 H630 0.959 . S
C642 C640 1.561 . S
C643 C640 1.526 . S
C643 C644 1.396 . S
C643 C648 1.390 . S
C644 C638 1.465 . S
C644 C643 1.396 . S
C644 C645 1.399 . S
C645 H631 0.929 . S
C645 C644 1.399 . S
C645 C646 1.385 . S
C646 H632 0.931 . S
C646 C645 1.385 . S
C646 C647 1.389 . S
C647 C646 1.389 . S
C647 C648 1.387 . S
C648 H633 0.930 . S
C648 C643 1.390 . S
C648 C647 1.387 . S
H649 C661 0.930 . S
H650 C663 0.930 . S
H651 C664 0.930 . S
H652 C668 0.959 . S
H653 C668 0.959 . S
H654 C668 0.961 . S
H655 C669 0.960 . S
H656 C669 0.961 . S
H657 C669 0.959 . S
H658 C672 0.929 . S
H659 C673 0.931 . S
H660 C675 0.930 . S
C661 H649 0.930 . S
C661 C662 1.399 . S
C661 C666 1.399 . S
C662 C661 1.399 . S
C662 C663 1.376 . S
C663 H650 0.930 . S
C663 C662 1.376 . S
C663 C664 1.388 . S
C664 H651 0.930 . S
C664 C663 1.388 . S
C664 C665 1.390 . S
C665 C664 1.390 . S
C665 C666 1.394 . S
C665 C671 1.465 . S
C666 C661 1.399 . S
C666 C665 1.394 . S
C666 C667 1.516 . S
C667 C666 1.516 . S
C667 C668 1.502 . S
C667 C669 1.561 . S
C667 C670 1.526 . S
C668 H652 0.959 . S
C668 H653 0.959 . S
C668 H654 0.961 . S
C668 C667 1.502 . S
C669 H655 0.960 . S
C669 H656 0.961 . S
C669 H657 0.959 . S
C669 C667 1.561 . S
C670 C667 1.526 . S
C670 C671 1.396 . S
C670 C675 1.390 . S
C671 C665 1.465 . S
C671 C670 1.396 . S
C671 C672 1.399 . S
C672 H658 0.929 . S
C672 C671 1.399 . S
C672 C673 1.385 . S
C673 H659 0.931 . S
C673 C672 1.385 . S
C673 C674 1.389 . S
C674 C673 1.389 . S
C674 C675 1.387 . S
C675 H660 0.930 . S
C675 C670 1.390 . S
C675 C674 1.387 . S
H676 C688 0.930 . S
H677 C690 0.930 . S
H678 C691 0.930 . S
H679 C695 0.959 . S
H680 C695 0.959 . S
H681 C695 0.961 . S
H682 C696 0.960 . S
H683 C696 0.961 . S
H684 C696 0.959 . S
H685 C699 0.929 . S
H686 C700 0.931 . S
H687 C702 0.930 . S
C688 H676 0.930 . S
C688 C689 1.399 . S
C688 C693 1.399 . S
C689 C688 1.399 . S
C689 C690 1.376 . S
C690 H677 0.930 . S
C690 C689 1.376 . S
C690 C691 1.388 . S
C691 H678 0.930 . S
C691 C690 1.388 . S
C691 C692 1.390 . S
C692 C691 1.390 . S
C692 C693 1.394 . S
C692 C698 1.465 . S
C693 C688 1.399 . S
C693 C692 1.394 . S
C693 C694 1.516 . S
C694 C693 1.516 . S
C694 C695 1.502 . S
C694 C696 1.561 . S
C694 C697 1.526 . S
C695 H679 0.959 . S
C695 H680 0.959 . S
C695 H681 0.961 . S
C695 C694 1.502 . S
C696 H682 0.960 . S
C696 H683 0.961 . S
C696 H684 0.959 . S
C696 C694 1.561 . S
C697 C694 1.526 . S
C697 C698 1.396 . S
C697 C702 1.390 . S
C698 C692 1.465 . S
C698 C697 1.396 . S
C698 C699 1.399 . S
C699 H685 0.929 . S
C699 C698 1.399 . S
C699 C700 1.385 . S
C700 H686 0.931 . S
C700 C699 1.385 . S
C700 C701 1.389 . S
C701 C700 1.389 . S
C701 C702 1.387 . S
C702 H687 0.930 . S
C702 C697 1.390 . S
C702 C701 1.387 . S
H703 C715 0.930 . S
H704 C717 0.930 . S
H705 C718 0.930 . S
H706 C722 0.959 . S
H707 C722 0.959 . S
H708 C722 0.961 . S
H709 C723 0.960 . S
H710 C723 0.961 . S
H711 C723 0.959 . S
H712 C726 0.929 . S
H713 C727 0.931 . S
H714 C729 0.930 . S
C715 H703 0.930 . S
C715 C716 1.399 . S
C715 C720 1.399 . S
C716 C715 1.399 . S
C716 C717 1.376 . S
C717 H704 0.930 . S
C717 C716 1.376 . S
C717 C718 1.388 . S
C718 H705 0.930 . S
C718 C717 1.388 . S
C718 C719 1.390 . S
C719 C718 1.390 . S
C719 C720 1.394 . S
C719 C725 1.465 . S
C720 C715 1.399 . S
C720 C719 1.394 . S
C720 C721 1.516 . S
C721 C720 1.516 . S
C721 C722 1.502 . S
C721 C723 1.561 . S
C721 C724 1.526 . S
C722 H706 0.959 . S
C722 H707 0.959 . S
C722 H708 0.961 . S
C722 C721 1.502 . S
C723 H709 0.960 . S
C723 H710 0.961 . S
C723 H711 0.959 . S
C723 C721 1.561 . S
C724 C721 1.526 . S
C724 C725 1.396 . S
C724 C729 1.390 . S
C725 C719 1.465 . S
C725 C724 1.396 . S
C725 C726 1.399 . S
C726 H712 0.929 . S
C726 C725 1.399 . S
C726 C727 1.385 . S
C727 H713 0.931 . S
C727 C726 1.385 . S
C727 C728 1.389 . S
C728 C727 1.389 . S
C728 C729 1.387 . S
C729 H714 0.930 . S
C729 C724 1.390 . S
C729 C728 1.387 . S
H730 C742 0.930 . S
H731 C744 0.930 . S
H732 C745 0.930 . S
H733 C749 0.959 . S
H734 C749 0.959 . S
H735 C749 0.961 . S
H736 C750 0.960 . S
H737 C750 0.961 . S
H738 C750 0.959 . S
H739 C753 0.929 . S
H740 C754 0.931 . S
H741 C756 0.930 . S
C742 H730 0.930 . S
C742 C743 1.399 . S
C742 C747 1.399 . S
C743 C742 1.399 . S
C743 C744 1.376 . S
C744 H731 0.930 . S
C744 C743 1.376 . S
C744 C745 1.388 . S
C745 H732 0.930 . S
C745 C744 1.388 . S
C745 C746 1.390 . S
C746 C745 1.390 . S
C746 C747 1.394 . S
C746 C752 1.465 . S
C747 C742 1.399 . S
C747 C746 1.394 . S
C747 C748 1.516 . S
C748 C747 1.516 . S
C748 C749 1.502 . S
C748 C750 1.561 . S
C748 C751 1.526 . S
C749 H733 0.959 . S
C749 H734 0.959 . S
C749 H735 0.961 . S
C749 C748 1.502 . S
C750 H736 0.960 . S
C750 H737 0.961 . S
C750 H738 0.959 . S
C750 C748 1.561 . S
C751 C748 1.526 . S
C751 C752 1.396 . S
C751 C756 1.390 . S
C752 C746 1.465 . S
C752 C751 1.396 . S
C752 C753 1.399 . S
C753 H739 0.929 . S
C753 C752 1.399 . S
C753 C754 1.385 . S
C754 H740 0.931 . S
C754 C753 1.385 . S
C754 C755 1.389 . S
C755 C754 1.389 . S
C755 C756 1.387 . S
C756 H741 0.930 . S
C756 C751 1.390 . S
C756 C755 1.387 . S
H757 C769 0.930 . S
H758 C771 0.930 . S
H759 C772 0.930 . S
H760 C776 0.959 . S
H761 C776 0.959 . S
H762 C776 0.961 . S
H763 C777 0.960 . S
H764 C777 0.961 . S
H765 C777 0.959 . S
H766 C780 0.929 . S
H767 C781 0.931 . S
H768 C783 0.930 . S
C769 H757 0.930 . S
C769 C770 1.399 . S
C769 C774 1.399 . S
C770 C769 1.399 . S
C770 C771 1.376 . S
C771 H758 0.930 . S
C771 C770 1.376 . S
C771 C772 1.388 . S
C772 H759 0.930 . S
C772 C771 1.388 . S
C772 C773 1.390 . S
C773 C772 1.390 . S
C773 C774 1.394 . S
C773 C779 1.465 . S
C774 C769 1.399 . S
C774 C773 1.394 . S
C774 C775 1.516 . S
C775 C774 1.516 . S
C775 C776 1.502 . S
C775 C777 1.561 . S
C775 C778 1.526 . S
C776 H760 0.959 . S
C776 H761 0.959 . S
C776 H762 0.961 . S
C776 C775 1.502 . S
C777 H763 0.960 . S
C777 H764 0.961 . S
C777 H765 0.959 . S
C777 C775 1.561 . S
C778 C775 1.526 . S
C778 C779 1.396 . S
C778 C783 1.390 . S
C779 C773 1.465 . S
C779 C778 1.396 . S
C779 C780 1.399 . S
C780 H766 0.929 . S
C780 C779 1.399 . S
C780 C781 1.385 . S
C781 H767 0.931 . S
C781 C780 1.385 . S
C781 C782 1.389 . S
C782 C781 1.389 . S
C782 C783 1.387 . S
C783 H768 0.930 . S
C783 C778 1.390 . S
C783 C782 1.387 . S
H784 C796 0.930 . S
H785 C798 0.930 . S
H786 C799 0.930 . S
H787 C803 0.959 1_556 S
H788 C803 0.959 1_556 S
H789 C803 0.961 . S
H790 C804 0.960 . S
H791 C804 0.961 . S
H792 C804 0.959 . S
H793 C807 0.929 . S
H794 C808 0.931 . S
H795 C810 0.930 . S
C796 H784 0.930 . S
C796 C797 1.399 . S
C796 C801 1.399 . S
C797 C796 1.399 . S
C797 C798 1.376 . S
C798 H785 0.930 . S
C798 C797 1.376 . S
C798 C799 1.388 . S
C799 H786 0.930 . S
C799 C798 1.388 . S
C799 C800 1.390 . S
C800 C799 1.390 . S
C800 C801 1.394 . S
C800 C806 1.465 1_554 S
C801 C796 1.399 . S
C801 C800 1.394 . S
C801 C802 1.516 . S
C802 C801 1.516 . S
C802 C803 1.502 . S
C802 C804 1.561 . S
C802 C805 1.526 1_554 S
C803 H787 0.959 1_554 S
C803 H788 0.959 1_554 S
C803 H789 0.961 . S
C803 C802 1.502 . S
C804 H790 0.960 . S
C804 H791 0.961 . S
C804 H792 0.959 . S
C804 C802 1.561 . S
C805 C802 1.526 1_556 S
C805 C806 1.396 . S
C805 C810 1.390 . S
C806 C800 1.465 1_556 S
C806 C805 1.396 . S
C806 C807 1.399 . S
C807 H793 0.929 . S
C807 C806 1.399 . S
C807 C808 1.385 . S
C808 H794 0.931 . S
C808 C807 1.385 . S
C808 C809 1.389 . S
C809 C808 1.389 . S
C809 C810 1.387 . S
C810 H795 0.930 . S
C810 C805 1.390 . S
C810 C809 1.387 . S
H811 C823 0.930 . S
H812 C825 0.930 . S
H813 C826 0.930 . S
H814 C830 0.959 . S
H815 C830 0.959 . S
H816 C830 0.961 . S
H817 C831 0.960 . S
H818 C831 0.961 . S
H819 C831 0.959 . S
H820 C834 0.929 . S
H821 C835 0.931 . S
H822 C837 0.930 . S
C823 H811 0.930 . S
C823 C824 1.399 . S
C823 C828 1.399 . S
C824 C823 1.399 . S
C824 C825 1.376 . S
C825 H812 0.930 . S
C825 C824 1.376 . S
C825 C826 1.388 . S
C826 H813 0.930 . S
C826 C825 1.388 . S
C826 C827 1.390 . S
C827 C826 1.390 . S
C827 C828 1.394 . S
C827 C833 1.465 . S
C828 C823 1.399 . S
C828 C827 1.394 . S
C828 C829 1.516 . S
C829 C828 1.516 . S
C829 C830 1.502 . S
C829 C831 1.561 . S
C829 C832 1.526 . S
C830 H814 0.959 . S
C830 H815 0.959 . S
C830 H816 0.961 . S
C830 C829 1.502 . S
C831 H817 0.960 . S
C831 H818 0.961 . S
C831 H819 0.959 . S
C831 C829 1.561 . S
C832 C829 1.526 . S
C832 C833 1.396 . S
C832 C837 1.390 . S
C833 C827 1.465 . S
C833 C832 1.396 . S
C833 C834 1.399 . S
C834 H820 0.929 . S
C834 C833 1.399 . S
C834 C835 1.385 . S
C835 H821 0.931 . S
C835 C834 1.385 . S
C835 C836 1.389 . S
C836 C835 1.389 . S
C836 C837 1.387 . S
C837 H822 0.930 . S
C837 C832 1.390 . S
C837 C836 1.387 . S
H838 C850 0.930 . S
H839 C852 0.930 . S
H840 C853 0.930 1_556 S
H841 C857 0.959 . S
H842 C857 0.959 . S
H843 C857 0.961 . S
H844 C858 0.960 . S
H845 C858 0.961 . S
H846 C858 0.959 . S
H847 C861 0.929 . S
H848 C862 0.931 . S
H849 C864 0.930 . S
C850 H838 0.930 . S
C850 C851 1.399 . S
C850 C855 1.399 . S
C851 C850 1.399 . S
C851 C852 1.376 . S
C852 H839 0.930 . S
C852 C851 1.376 . S
C852 C853 1.388 . S
C853 H840 0.930 1_554 S
C853 C852 1.388 . S
C853 C854 1.390 . S
C854 C853 1.390 . S
C854 C855 1.394 . S
C854 C860 1.465 1_554 S
C855 C850 1.399 . S
C855 C854 1.394 . S
C855 C856 1.516 . S
C856 C855 1.516 . S
C856 C857 1.502 . S
C856 C858 1.561 . S
C856 C859 1.526 1_554 S
C857 H841 0.959 . S
C857 H842 0.959 . S
C857 H843 0.961 . S
C857 C856 1.502 . S
C858 H844 0.960 . S
C858 H845 0.961 . S
C858 H846 0.959 . S
C858 C856 1.561 . S
C859 C856 1.526 1_556 S
C859 C860 1.396 . S
C859 C864 1.390 . S
C860 C854 1.465 1_556 S
C860 C859 1.396 . S
C860 C861 1.399 . S
C861 H847 0.929 . S
C861 C860 1.399 . S
C861 C862 1.385 . S
C862 H848 0.931 . S
C862 C861 1.385 . S
C862 C863 1.389 . S
C863 C862 1.389 . S
C863 C864 1.387 . S
C864 H849 0.930 . S
C864 C859 1.390 . S
C864 C863 1.387 . S
H865 C877 0.930 . S
H866 C879 0.930 . S
H867 C880 0.930 . S
H868 C884 0.959 . S
H869 C884 0.959 . S
H870 C884 0.961 . S
H871 C885 0.960 . S
H872 C885 0.961 . S
H873 C885 0.959 . S
H874 C888 0.929 . S
H875 C889 0.931 . S
H876 C891 0.930 . S
C877 H865 0.930 . S
C877 C878 1.399 . S
C877 C882 1.399 . S
C878 C877 1.399 . S
C878 C879 1.376 . S
C879 H866 0.930 . S
C879 C878 1.376 . S
C879 C880 1.388 . S
C880 H867 0.930 . S
C880 C879 1.388 . S
C880 C881 1.390 . S
C881 C880 1.390 . S
C881 C882 1.394 . S
C881 C887 1.465 . S
C882 C877 1.399 . S
C882 C881 1.394 . S
C882 C883 1.516 . S
C883 C882 1.516 . S
C883 C884 1.502 . S
C883 C885 1.561 . S
C883 C886 1.526 . S
C884 H868 0.959 . S
C884 H869 0.959 . S
C884 H870 0.961 . S
C884 C883 1.502 . S
C885 H871 0.960 . S
C885 H872 0.961 . S
C885 H873 0.959 . S
C885 C883 1.561 . S
C886 C883 1.526 . S
C886 C887 1.396 . S
C886 C891 1.390 . S
C887 C881 1.465 . S
C887 C886 1.396 . S
C887 C888 1.399 . S
C888 H874 0.929 . S
C888 C887 1.399 . S
C888 C889 1.385 . S
C889 H875 0.931 . S
C889 C888 1.385 . S
C889 C890 1.389 . S
C890 C889 1.389 . S
C890 C891 1.387 . S
C891 H876 0.930 . S
C891 C886 1.390 . S
C891 C890 1.387 . S
H892 C904 0.930 . S
H893 C906 0.930 . S
H894 C907 0.930 1_554 S
H895 C911 0.959 . S
H896 C911 0.959 . S
H897 C911 0.961 . S
H898 C912 0.960 1_556 S
H899 C912 0.961 1_565 S
H900 C912 0.959 . S
H901 C915 0.929 1_545 S
H902 C916 0.931 . S
H903 C918 0.930 . S
C904 H892 0.930 . S
C904 C905 1.399 . S
C904 C909 1.399 . S
C905 C904 1.399 . S
C905 C906 1.376 . S
C906 H893 0.930 . S
C906 C905 1.376 . S
C906 C907 1.388 . S
C907 H894 0.930 1_556 S
C907 C906 1.388 . S
C907 C908 1.390 . S
C908 C907 1.390 . S
C908 C909 1.394 . S
C908 C914 1.465 1_546 S
C909 C904 1.399 . S
C909 C908 1.394 . S
C909 C910 1.516 1_545 S
C910 C909 1.516 1_565 S
C910 C911 1.502 . S
C910 C912 1.561 1_566 S
C910 C913 1.526 1_556 S
C911 H895 0.959 . S
C911 H896 0.959 . S
C911 H897 0.961 . S
C911 C910 1.502 . S
C912 H898 0.960 1_554 S
C912 H899 0.961 1_545 S
C912 H900 0.959 . S
C912 C910 1.561 1_544 S
C913 C910 1.526 1_554 S
C913 C914 1.396 . S
C913 C918 1.390 . S
C914 C908 1.465 1_564 S
C914 C913 1.396 . S
C914 C915 1.399 . S
C915 H901 0.929 1_565 S
C915 C914 1.399 . S
C915 C916 1.385 . S
C916 H902 0.931 . S
C916 C915 1.385 . S
C916 C917 1.389 . S
C917 C916 1.389 . S
C917 C918 1.387 . S
C918 H903 0.930 . S
C918 C913 1.390 . S
C918 C917 1.387 . S
H919 C931 0.930 . S
H920 C933 0.930 . S
H921 C934 0.930 . S
H922 C938 0.959 . S
H923 C938 0.959 . S
H924 C938 0.961 . S
H925 C939 0.960 . S
H926 C939 0.961 . S
H927 C939 0.959 . S
H928 C942 0.929 1_565 S
H929 C943 0.931 . S
H930 C945 0.930 . S
C931 H919 0.930 . S
C931 C932 1.399 . S
C931 C936 1.399 . S
C932 C931 1.399 . S
C932 C933 1.376 . S
C933 H920 0.930 . S
C933 C932 1.376 . S
C933 C934 1.388 . S
C934 H921 0.930 . S
C934 C933 1.388 . S
C934 C935 1.390 . S
C935 C934 1.390 . S
C935 C936 1.394 . S
C935 C941 1.465 1_565 S
C936 C931 1.399 . S
C936 C935 1.394 . S
C936 C937 1.516 1_565 S
C937 C936 1.516 1_545 S
C937 C938 1.502 . S
C937 C939 1.561 . S
C937 C940 1.526 . S
C938 H922 0.959 . S
C938 H923 0.959 . S
C938 H924 0.961 . S
C938 C937 1.502 . S
C939 H925 0.960 . S
C939 H926 0.961 . S
C939 H927 0.959 . S
C939 C937 1.561 . S
C940 C937 1.526 . S
C940 C941 1.396 . S
C940 C945 1.390 . S
C941 C935 1.465 1_545 S
C941 C940 1.396 . S
C941 C942 1.399 . S
C942 H928 0.929 1_545 S
C942 C941 1.399 . S
C942 C943 1.385 . S
C943 H929 0.931 . S
C943 C942 1.385 . S
C943 C944 1.389 . S
C944 C943 1.389 . S
C944 C945 1.387 . S
C945 H930 0.930 . S
C945 C940 1.390 . S
C945 C944 1.387 . S
H946 C958 0.930 . S
H947 C960 0.930 . S
H948 C961 0.930 1_545 S
H949 C965 0.959 . S
H950 C965 0.959 . S
H951 C965 0.961 . S
H952 C966 0.960 . S
H953 C966 0.961 . S
H954 C966 0.959 . S
H955 C969 0.929 1_554 S
H956 C970 0.931 . S
H957 C972 0.930 . S
C958 H946 0.930 . S
C958 C959 1.399 . S
C958 C963 1.399 . S
C959 C958 1.399 . S
C959 C960 1.376 . S
C960 H947 0.930 . S
C960 C959 1.376 . S
C960 C961 1.388 . S
C961 H948 0.930 1_565 S
C961 C960 1.388 . S
C961 C962 1.390 . S
C962 C961 1.390 . S
C962 C963 1.394 . S
C962 C968 1.465 1_564 S
C963 C958 1.399 . S
C963 C962 1.394 . S
C963 C964 1.516 1_554 S
C964 C963 1.516 1_556 S
C964 C965 1.502 . S
C964 C966 1.561 . S
C964 C967 1.526 1_565 S
C965 H949 0.959 . S
C965 H950 0.959 . S
C965 H951 0.961 . S
C965 C964 1.502 . S
C966 H952 0.960 . S
C966 H953 0.961 . S
C966 H954 0.959 . S
C966 C964 1.561 . S
C967 C964 1.526 1_545 S
C967 C968 1.396 . S
C967 C972 1.390 . S
C968 C962 1.465 1_546 S
C968 C967 1.396 . S
C968 C969 1.399 . S
C969 H955 0.929 1_556 S
C969 C968 1.399 . S
C969 C970 1.385 . S
C970 H956 0.931 . S
C970 C969 1.385 . S
C970 C971 1.389 . S
C971 C970 1.389 . S
C971 C972 1.387 . S
C972 H957 0.930 . S
C972 C967 1.390 . S
C972 C971 1.387 . S
H973 C985 0.930 . S
H974 C987 0.930 . S
H975 C988 0.930 . S
H976 C992 0.959 . S
H977 C992 0.959 . S
H978 C992 0.961 . S
H979 C993 0.960 . S
H980 C993 0.961 . S
H981 C993 0.959 . S
H982 C996 0.929 . S
H983 C997 0.931 . S
H984 C999 0.930 . S
C985 H973 0.930 . S
C985 C986 1.399 . S
C985 C990 1.399 . S
C986 C985 1.399 . S
C986 C987 1.376 . S
C987 H974 0.930 . S
C987 C986 1.376 . S
C987 C988 1.388 1_565 S
C988 H975 0.930 . S
C988 C987 1.388 1_545 S
C988 C989 1.388 1_545 S
C989 C988 1.388 1_565 S
C989 C990 1.411 . S
C989 C995 1.452 1_565 S
C990 C985 1.399 . S
C990 C989 1.411 . S
C990 C991 1.516 . S
C991 C990 1.516 . S
C991 C992 1.502 . S
C991 C993 1.561 . S
C991 C994 1.526 1_565 S
C992 H976 0.959 . S
C992 H977 0.959 . S
C992 H978 0.961 . S
C992 C991 1.502 . S
C993 H979 0.960 . S
C993 H980 0.961 . S
C993 H981 0.959 . S
C993 C991 1.561 . S
C994 C991 1.526 1_545 S
C994 C995 1.396 . S
C994 C999 1.390 . S
C995 C989 1.452 1_545 S
C995 C994 1.396 . S
C995 C996 1.399 . S
C996 H982 0.929 . S
C996 C995 1.399 . S
C996 C997 1.385 . S
C997 H983 0.931 . S
C997 C996 1.385 . S
C997 C998 1.389 . S
C998 C997 1.389 . S
C998 C999 1.387 . S
C999 H984 0.930 . S
C999 C994 1.390 . S
C999 C998 1.387 . S
H1000 C1012 0.930 . S
H1001 C1014 0.930 . S
H1002 C1015 0.930 . S
H1003 C1019 0.959 . S
H1004 C1019 0.959 . S
H1005 C1019 0.961 . S
H1006 C1020 0.960 . S
H1007 C1020 0.961 . S
H1008 C1020 0.959 . S
H1009 C1023 0.929 . S
H1010 C1024 0.931 . S
H1011 C1026 0.930 . S
C1012 H1000 0.930 . S
C1012 C1013 1.399 . S
C1012 C1017 1.399 . S
C1013 C1012 1.399 . S
C1013 C1014 1.376 . S
C1014 H1001 0.930 . S
C1014 C1013 1.376 . S
C1014 C1015 1.388 . S
C1015 H1002 0.930 . S
C1015 C1014 1.388 . S
C1015 C1016 1.390 . S
C1016 C1015 1.390 . S
C1016 C1017 1.394 . S
C1016 C1022 1.465 . S
C1017 C1012 1.399 . S
C1017 C1016 1.394 . S
C1017 C1018 1.516 . S
C1018 C1017 1.516 . S
C1018 C1019 1.502 . S
C1018 C1020 1.561 . S
C1018 C1021 1.526 . S
C1019 H1003 0.959 . S
C1019 H1004 0.959 . S
C1019 H1005 0.961 . S
C1019 C1018 1.502 . S
C1020 H1006 0.960 . S
C1020 H1007 0.961 . S
C1020 H1008 0.959 . S
C1020 C1018 1.561 . S
C1021 C1018 1.526 . S
C1021 C1022 1.396 . S
C1021 C1026 1.390 . S
C1022 C1016 1.465 . S
C1022 C1021 1.396 . S
C1022 C1023 1.399 . S
C1023 H1009 0.929 . S
C1023 C1022 1.399 . S
C1023 C1024 1.385 . S
C1024 H1010 0.931 . S
C1024 C1023 1.385 . S
C1024 C1025 1.389 . S
C1025 C1024 1.389 . S
C1025 C1026 1.387 . S
C1026 H1011 0.930 . S
C1026 C1021 1.390 . S
C1026 C1025 1.387 . S
H1027 C1039 0.930 . S
H1028 C1041 0.930 . S
H1029 C1042 0.930 . S
H1030 C1046 0.959 . S
H1031 C1046 0.959 . S
H1032 C1046 0.961 . S
H1033 C1047 0.960 . S
H1034 C1047 0.961 . S
H1035 C1047 0.959 . S
H1036 C1050 0.929 . S
H1037 C1051 0.931 . S
H1038 C1053 0.930 . S
C1039 H1027 0.930 . S
C1039 C1040 1.399 . S
C1039 C1044 1.399 . S
C1040 C1039 1.399 . S
C1040 C1041 1.376 . S
C1041 H1028 0.930 . S
C1041 C1040 1.376 . S
C1041 C1042 1.388 . S
C1042 H1029 0.930 . S
C1042 C1041 1.388 . S
C1042 C1043 1.390 . S
C1043 C1042 1.390 . S
C1043 C1044 1.394 . S
C1043 C1049 1.465 . S
C1044 C1039 1.399 . S
C1044 C1043 1.394 . S
C1044 C1045 1.516 . S
C1045 C1044 1.516 . S
C1045 C1046 1.502 . S
C1045 C1047 1.561 . S
C1045 C1048 1.526 . S
C1046 H1030 0.959 . S
C1046 H1031 0.959 . S
C1046 H1032 0.961 . S
C1046 C1045 1.502 . S
C1047 H1033 0.960 . S
C1047 H1034 0.961 . S
C1047 H1035 0.959 . S
C1047 C1045 1.561 . S
C1048 C1045 1.526 . S
C1048 C1049 1.396 . S
C1048 C1053 1.390 . S
C1049 C1043 1.465 . S
C1049 C1048 1.396 . S
C1049 C1050 1.399 . S
C1050 H1036 0.929 . S
C1050 C1049 1.399 . S
C1050 C1051 1.385 . S
C1051 H1037 0.931 . S
C1051 C1050 1.385 . S
C1051 C1052 1.389 . S
C1052 C1051 1.389 . S
C1052 C1053 1.387 . S
C1053 H1038 0.930 . S
C1053 C1048 1.390 . S
C1053 C1052 1.387 . S
H1054 C1066 0.930 . S
H1055 C1068 0.930 . S
H1056 C1069 0.930 . S
H1057 C1073 0.959 . S
H1058 C1073 0.959 . S
H1059 C1073 0.961 . S
H1060 C1074 0.960 . S
H1061 C1074 0.961 . S
H1062 C1074 0.959 . S
H1063 C1077 0.929 . S
H1064 C1078 0.931 . S
H1065 C1080 0.930 . S
C1066 H1054 0.930 . S
C1066 C1067 1.399 . S
C1066 C1071 1.399 . S
C1067 C1066 1.399 . S
C1067 C1068 1.376 . S
C1068 H1055 0.930 . S
C1068 C1067 1.376 . S
C1068 C1069 1.388 . S
C1069 H1056 0.930 . S
C1069 C1068 1.388 . S
C1069 C1070 1.390 . S
C1070 C1069 1.390 . S
C1070 C1071 1.394 . S
C1070 C1076 1.465 . S
C1071 C1066 1.399 . S
C1071 C1070 1.394 . S
C1071 C1072 1.516 . S
C1072 C1071 1.516 . S
C1072 C1073 1.502 . S
C1072 C1074 1.561 . S
C1072 C1075 1.526 . S
C1073 H1057 0.959 . S
C1073 H1058 0.959 . S
C1073 H1059 0.961 . S
C1073 C1072 1.502 . S
C1074 H1060 0.960 . S
C1074 H1061 0.961 . S
C1074 H1062 0.959 . S
C1074 C1072 1.561 . S
C1075 C1072 1.526 . S
C1075 C1076 1.396 . S
C1075 C1080 1.390 . S
C1076 C1070 1.465 . S
C1076 C1075 1.396 . S
C1076 C1077 1.399 . S
C1077 H1063 0.929 . S
C1077 C1076 1.399 . S
C1077 C1078 1.385 . S
C1078 H1064 0.931 . S
C1078 C1077 1.385 . S
C1078 C1079 1.389 . S
C1079 C1078 1.389 . S
C1079 C1080 1.387 . S
C1080 H1065 0.930 . S
C1080 C1075 1.390 . S
C1080 C1079 1.387 . S
H1081 C1093 0.930 . S
H1082 C1095 0.930 . S
H1083 C1096 0.930 . S
H1084 C1100 0.959 . S
H1085 C1100 0.959 . S
H1086 C1100 0.961 . S
H1087 C1101 0.960 . S
H1088 C1101 0.961 . S
H1089 C1101 0.959 . S
H1090 C1104 0.929 . S
H1091 C1105 0.931 . S
H1092 C1107 0.930 . S
C1093 H1081 0.930 . S
C1093 C1094 1.399 . S
C1093 C1098 1.399 . S
C1094 C1093 1.399 . S
C1094 C1095 1.376 . S
C1095 H1082 0.930 . S
C1095 C1094 1.376 . S
C1095 C1096 1.388 . S
C1096 H1083 0.930 . S
C1096 C1095 1.388 . S
C1096 C1097 1.390 . S
C1097 C1096 1.390 . S
C1097 C1098 1.394 . S
C1097 C1103 1.465 . S
C1098 C1093 1.399 . S
C1098 C1097 1.394 . S
C1098 C1099 1.516 . S
C1099 C1098 1.516 . S
C1099 C1100 1.502 . S
C1099 C1101 1.561 . S
C1099 C1102 1.526 . S
C1100 H1084 0.959 . S
C1100 H1085 0.959 . S
C1100 H1086 0.961 . S
C1100 C1099 1.502 . S
C1101 H1087 0.960 . S
C1101 H1088 0.961 . S
C1101 H1089 0.959 . S
C1101 C1099 1.561 . S
C1102 C1099 1.526 . S
C1102 C1103 1.396 . S
C1102 C1107 1.390 . S
C1103 C1097 1.465 . S
C1103 C1102 1.396 . S
C1103 C1104 1.399 . S
C1104 H1090 0.929 . S
C1104 C1103 1.399 . S
C1104 C1105 1.385 . S
C1105 H1091 0.931 . S
C1105 C1104 1.385 . S
C1105 C1106 1.389 . S
C1106 C1105 1.389 . S
C1106 C1107 1.387 . S
C1107 H1092 0.930 . S
C1107 C1102 1.390 . S
C1107 C1106 1.387 . S
H1108 C1120 0.930 . S
H1109 C1122 0.930 . S
H1110 C1123 0.930 . S
H1111 C1127 0.962 . S
H1112 C1127 0.980 . S
H1113 C1127 0.939 1_655 S
H1114 C1128 0.957 1_655 S
H1115 C1128 0.964 . S
H1116 C1128 0.959 . S
H1117 C1131 0.929 . S
H1118 C1132 0.931 . S
H1119 C1134 0.930 . S
C1120 H1108 0.930 . S
C1120 C1121 1.399 . S
C1120 C1125 1.399 . S
C1121 C1120 1.399 . S
C1121 C1122 1.376 . S
C1122 H1109 0.930 . S
C1122 C1121 1.376 . S
C1122 C1123 1.388 . S
C1123 H1110 0.930 . S
C1123 C1122 1.388 . S
C1123 C1124 1.390 . S
C1124 C1123 1.390 . S
C1124 C1125 1.394 . S
C1124 C1130 1.465 1_655 S
C1125 C1120 1.399 . S
C1125 C1124 1.394 . S
C1125 C1126 1.516 1_655 S
C1126 C1125 1.516 1_455 S
C1126 C1127 1.502 . S
C1126 C1128 1.561 . S
C1126 C1129 1.526 . S
C1127 H1111 0.962 . S
C1127 H1112 0.980 . S
C1127 H1113 0.939 1_455 S
C1127 C1126 1.502 . S
C1128 H1114 0.957 1_455 S
C1128 H1115 0.964 . S
C1128 H1116 0.959 . S
C1128 C1126 1.561 . S
C1129 C1126 1.526 . S
C1129 C1130 1.396 . S
C1129 C1134 1.390 . S
C1130 C1124 1.465 1_455 S
C1130 C1129 1.396 . S
C1130 C1131 1.399 . S
C1131 H1117 0.929 . S
C1131 C1130 1.399 . S
C1131 C1132 1.385 . S
C1132 H1118 0.931 . S
C1132 C1131 1.385 . S
C1132 C1133 1.389 . S
C1133 C1132 1.389 . S
C1133 C1134 1.387 . S
C1134 H1119 0.930 . S
C1134 C1129 1.390 . S
C1134 C1133 1.387 . S
H1135 C1147 0.930 . S
H1136 C1149 0.930 . S
H1137 C1150 0.930 . S
H1138 C1154 0.962 . S
H1139 C1154 0.980 . S
H1140 C1154 0.939 1_655 S
H1141 C1155 0.957 1_655 S
H1142 C1155 0.964 . S
H1143 C1155 0.959 . S
H1144 C1158 0.929 . S
H1145 C1159 0.931 . S
H1146 C1161 0.930 . S
C1147 H1135 0.930 . S
C1147 C1148 1.399 . S
C1147 C1152 1.399 . S
C1148 C1147 1.399 . S
C1148 C1149 1.376 . S
C1149 H1136 0.930 . S
C1149 C1148 1.376 . S
C1149 C1150 1.388 . S
C1150 H1137 0.930 . S
C1150 C1149 1.388 . S
C1150 C1151 1.390 . S
C1151 C1150 1.390 . S
C1151 C1152 1.394 . S
C1151 C1157 1.465 1_655 S
C1152 C1147 1.399 . S
C1152 C1151 1.394 . S
C1152 C1153 1.516 1_655 S
C1153 C1152 1.516 1_455 S
C1153 C1154 1.502 . S
C1153 C1155 1.561 . S
C1153 C1156 1.526 . S
C1154 H1138 0.962 . S
C1154 H1139 0.980 . S
C1154 H1140 0.939 1_455 S
C1154 C1153 1.502 . S
C1155 H1141 0.957 1_455 S
C1155 H1142 0.964 . S
C1155 H1143 0.959 . S
C1155 C1153 1.561 . S
C1156 C1153 1.526 . S
C1156 C1157 1.396 . S
C1156 C1161 1.390 . S
C1157 C1151 1.465 1_455 S
C1157 C1156 1.396 . S
C1157 C1158 1.399 . S
C1158 H1144 0.929 . S
C1158 C1157 1.399 . S
C1158 C1159 1.385 . S
C1159 H1145 0.931 . S
C1159 C1158 1.385 . S
C1159 C1160 1.389 . S
C1160 C1159 1.389 . S
C1160 C1161 1.387 . S
C1161 H1146 0.930 . S
C1161 C1156 1.390 . S
C1161 C1160 1.387 . S
H1162 C1174 0.930 . S
H1163 C1176 0.930 . S
H1164 C1177 0.930 . S
H1165 C1181 0.962 . S
H1166 C1181 0.980 . S
H1167 C1181 0.939 1_455 S
H1168 C1182 0.957 1_455 S
H1169 C1182 0.964 . S
H1170 C1182 0.959 . S
H1171 C1185 0.929 . S
H1172 C1186 0.931 . S
H1173 C1188 0.930 . S
C1174 H1162 0.930 . S
C1174 C1175 1.399 . S
C1174 C1179 1.399 . S
C1175 C1174 1.399 . S
C1175 C1176 1.376 . S
C1176 H1163 0.930 . S
C1176 C1175 1.376 . S
C1176 C1177 1.388 . S
C1177 H1164 0.930 . S
C1177 C1176 1.388 . S
C1177 C1178 1.390 . S
C1178 C1177 1.390 . S
C1178 C1179 1.394 . S
C1178 C1184 1.465 1_455 S
C1179 C1174 1.399 . S
C1179 C1178 1.394 . S
C1179 C1180 1.516 1_455 S
C1180 C1179 1.516 1_655 S
C1180 C1181 1.502 . S
C1180 C1182 1.561 . S
C1180 C1183 1.526 . S
C1181 H1165 0.962 . S
C1181 H1166 0.980 . S
C1181 H1167 0.939 1_655 S
C1181 C1180 1.502 . S
C1182 H1168 0.957 1_655 S
C1182 H1169 0.964 . S
C1182 H1170 0.959 . S
C1182 C1180 1.561 . S
C1183 C1180 1.526 . S
C1183 C1184 1.396 . S
C1183 C1188 1.390 . S
C1184 C1178 1.465 1_655 S
C1184 C1183 1.396 . S
C1184 C1185 1.399 . S
C1185 H1171 0.929 . S
C1185 C1184 1.399 . S
C1185 C1186 1.385 . S
C1186 H1172 0.931 . S
C1186 C1185 1.385 . S
C1186 C1187 1.389 . S
C1187 C1186 1.389 . S
C1187 C1188 1.387 . S
C1188 H1173 0.930 . S
C1188 C1183 1.390 . S
C1188 C1187 1.387 . S
H1189 C1201 0.930 . S
H1190 C1203 0.930 . S
H1191 C1204 0.930 . S
H1192 C1208 0.962 . S
H1193 C1208 0.980 . S
H1194 C1208 0.939 1_455 S
H1195 C1209 0.957 1_455 S
H1196 C1209 0.964 . S
H1197 C1209 0.959 . S
H1198 C1212 0.929 . S
H1199 C1213 0.931 . S
H1200 C1215 0.930 . S
C1201 H1189 0.930 . S
C1201 C1202 1.399 . S
C1201 C1206 1.399 . S
C1202 C1201 1.399 . S
C1202 C1203 1.376 . S
C1203 H1190 0.930 . S
C1203 C1202 1.376 . S
C1203 C1204 1.388 . S
C1204 H1191 0.930 . S
C1204 C1203 1.388 . S
C1204 C1205 1.390 . S
C1205 C1204 1.390 . S
C1205 C1206 1.394 . S
C1205 C1211 1.465 1_455 S
C1206 C1201 1.399 . S
C1206 C1205 1.394 . S
C1206 C1207 1.516 1_455 S
C1207 C1206 1.516 1_655 S
C1207 C1208 1.502 . S
C1207 C1209 1.561 . S
C1207 C1210 1.526 . S
C1208 H1192 0.962 . S
C1208 H1193 0.980 . S
C1208 H1194 0.939 1_655 S
C1208 C1207 1.502 . S
C1209 H1195 0.957 1_655 S
C1209 H1196 0.964 . S
C1209 H1197 0.959 . S
C1209 C1207 1.561 . S
C1210 C1207 1.526 . S
C1210 C1211 1.396 . S
C1210 C1215 1.390 . S
C1211 C1205 1.465 1_655 S
C1211 C1210 1.396 . S
C1211 C1212 1.399 . S
C1212 H1198 0.929 . S
C1212 C1211 1.399 . S
C1212 C1213 1.385 . S
C1213 H1199 0.931 . S
C1213 C1212 1.385 . S
C1213 C1214 1.389 . S
C1214 C1213 1.389 . S
C1214 C1215 1.387 . S
C1215 H1200 0.930 . S
C1215 C1210 1.390 . S
C1215 C1214 1.387 . S
H1216 C1228 0.930 . S
H1217 C1230 0.930 . S
H1218 C1231 0.930 . S
H1219 C1235 0.959 . S
H1220 C1235 0.959 . S
H1221 C1235 0.961 1_554 S
H1222 C1236 0.960 . S
H1223 C1236 0.982 . S
H1224 C1236 0.959 . S
H1225 C1239 0.929 . S
H1226 C1240 0.931 . S
H1227 C1242 0.930 . S
C1228 H1216 0.930 . S
C1228 C1229 1.399 . S
C1228 C1233 1.399 . S
C1229 C1228 1.399 . S
C1229 C1230 1.376 . S
C1230 H1217 0.930 . S
C1230 C1229 1.376 . S
C1230 C1231 1.388 . S
C1231 H1218 0.930 . S
C1231 C1230 1.388 . S
C1231 C1232 1.390 . S
C1232 C1231 1.390 . S
C1232 C1233 1.394 . S
C1232 C1238 1.465 1_554 S
C1233 C1228 1.399 . S
C1233 C1232 1.394 . S
C1233 C1234 1.516 . S
C1234 C1233 1.516 . S
C1234 C1235 1.502 1_554 S
C1234 C1236 1.561 . S
C1234 C1237 1.526 1_554 S
C1235 H1219 0.959 . S
C1235 H1220 0.959 . S
C1235 H1221 0.961 1_556 S
C1235 C1234 1.502 1_556 S
C1236 H1222 0.960 . S
C1236 H1223 0.982 . S
C1236 H1224 0.959 . S
C1236 C1234 1.561 . S
C1237 C1234 1.526 1_556 S
C1237 C1238 1.396 . S
C1237 C1242 1.390 . S
C1238 C1232 1.465 1_556 S
C1238 C1237 1.396 . S
C1238 C1239 1.399 . S
C1239 H1225 0.929 . S
C1239 C1238 1.399 . S
C1239 C1240 1.385 . S
C1240 H1226 0.931 . S
C1240 C1239 1.385 . S
C1240 C1241 1.389 . S
C1241 C1240 1.389 . S
C1241 C1242 1.387 . S
C1242 H1227 0.930 . S
C1242 C1237 1.390 . S
C1242 C1241 1.387 . S
H1243 C1255 0.930 . S
H1244 C1257 0.930 . S
H1245 C1258 0.930 . S
H1246 C1262 0.959 . S
H1247 C1262 0.959 . S
H1248 C1262 0.961 . S
H1249 C1263 0.960 . S
H1250 C1263 0.961 . S
H1251 C1263 0.959 . S
H1252 C1266 0.929 . S
H1253 C1267 0.931 . S
H1254 C1269 0.930 . S
C1255 H1243 0.930 . S
C1255 C1256 1.399 . S
C1255 C1260 1.399 . S
C1256 C1255 1.399 . S
C1256 C1257 1.376 . S
C1257 H1244 0.930 . S
C1257 C1256 1.376 . S
C1257 C1258 1.388 . S
C1258 H1245 0.930 . S
C1258 C1257 1.388 . S
C1258 C1259 1.390 . S
C1259 C1258 1.390 . S
C1259 C1260 1.394 . S
C1259 C1265 1.465 . S
C1260 C1255 1.399 . S
C1260 C1259 1.394 . S
C1260 C1261 1.516 . S
C1261 C1260 1.516 . S
C1261 C1262 1.502 . S
C1261 C1263 1.561 . S
C1261 C1264 1.526 . S
C1262 H1246 0.959 . S
C1262 H1247 0.959 . S
C1262 H1248 0.961 . S
C1262 C1261 1.502 . S
C1263 H1249 0.960 . S
C1263 H1250 0.961 . S
C1263 H1251 0.959 . S
C1263 C1261 1.561 . S
C1264 C1261 1.526 . S
C1264 C1265 1.396 . S
C1264 C1269 1.390 . S
C1265 C1259 1.465 . S
C1265 C1264 1.396 . S
C1265 C1266 1.399 . S
C1266 H1252 0.929 . S
C1266 C1265 1.399 . S
C1266 C1267 1.385 . S
C1267 H1253 0.931 . S
C1267 C1266 1.385 . S
C1267 C1268 1.389 . S
C1268 C1267 1.389 . S
C1268 C1269 1.387 . S
C1269 H1254 0.930 . S
C1269 C1264 1.390 . S
C1269 C1268 1.387 . S
H1270 C1282 0.930 . S
H1271 C1284 0.930 . S
H1272 C1285 0.930 . S
H1273 C1289 0.959 . S
H1274 C1289 0.975 . S
H1275 C1289 0.961 . S
H1276 C1290 0.960 1_554 S
H1277 C1290 0.961 . S
H1278 C1290 0.959 . S
H1279 C1293 0.929 . S
H1280 C1294 0.931 . S
H1281 C1296 0.930 . S
C1282 H1270 0.930 . S
C1282 C1283 1.399 . S
C1282 C1287 1.399 . S
C1283 C1282 1.399 . S
C1283 C1284 1.376 . S
C1284 H1271 0.930 . S
C1284 C1283 1.376 . S
C1284 C1285 1.388 . S
C1285 H1272 0.930 . S
C1285 C1284 1.388 . S
C1285 C1286 1.390 . S
C1286 C1285 1.390 . S
C1286 C1287 1.394 . S
C1286 C1292 1.465 1_554 S
C1287 C1282 1.399 . S
C1287 C1286 1.394 . S
C1287 C1288 1.516 . S
C1288 C1287 1.516 . S
C1288 C1289 1.502 . S
C1288 C1290 1.561 1_554 S
C1288 C1291 1.526 1_554 S
C1289 H1273 0.959 . S
C1289 H1274 0.975 . S
C1289 H1275 0.961 . S
C1289 C1288 1.502 . S
C1290 H1276 0.960 1_556 S
C1290 H1277 0.961 . S
C1290 H1278 0.959 . S
C1290 C1288 1.561 1_556 S
C1291 C1288 1.526 1_556 S
C1291 C1292 1.396 . S
C1291 C1296 1.390 . S
C1292 C1286 1.465 1_556 S
C1292 C1291 1.396 . S
C1292 C1293 1.399 . S
C1293 H1279 0.929 . S
C1293 C1292 1.399 . S
C1293 C1294 1.385 . S
C1294 H1280 0.931 . S
C1294 C1293 1.385 . S
C1294 C1295 1.389 . S
C1295 C1294 1.389 . S
C1295 C1296 1.387 . S
C1296 H1281 0.930 . S
C1296 C1291 1.390 . S
C1296 C1295 1.387 . S
H1297 C1309 0.930 . S
H1298 C1311 0.930 . S
H1299 C1312 0.930 . S
H1300 C1316 0.959 . S
H1301 C1316 0.959 . S
H1302 C1316 0.961 . S
H1303 C1317 0.960 . S
H1304 C1317 0.961 . S
H1305 C1317 0.959 . S
H1306 C1320 0.929 . S
H1307 C1321 0.931 . S
H1308 C1323 0.930 . S
C1309 H1297 0.930 . S
C1309 C1310 1.399 . S
C1309 C1314 1.399 . S
C1310 C1309 1.399 . S
C1310 C1311 1.376 . S
C1311 H1298 0.930 . S
C1311 C1310 1.376 . S
C1311 C1312 1.388 . S
C1312 H1299 0.930 . S
C1312 C1311 1.388 . S
C1312 C1313 1.390 . S
C1313 C1312 1.390 . S
C1313 C1314 1.394 . S
C1313 C1319 1.465 . S
C1314 C1309 1.399 . S
C1314 C1313 1.394 . S
C1314 C1315 1.516 . S
C1315 C1314 1.516 . S
C1315 C1316 1.502 . S
C1315 C1317 1.561 . S
C1315 C1318 1.526 . S
C1316 H1300 0.959 . S
C1316 H1301 0.959 . S
C1316 H1302 0.961 . S
C1316 C1315 1.502 . S
C1317 H1303 0.960 . S
C1317 H1304 0.961 . S
C1317 H1305 0.959 . S
C1317 C1315 1.561 . S
C1318 C1315 1.526 . S
C1318 C1319 1.396 . S
C1318 C1323 1.390 . S
C1319 C1313 1.465 . S
C1319 C1318 1.396 . S
C1319 C1320 1.399 . S
C1320 H1306 0.929 . S
C1320 C1319 1.399 . S
C1320 C1321 1.385 . S
C1321 H1307 0.931 . S
C1321 C1320 1.385 . S
C1321 C1322 1.389 . S
C1322 C1321 1.389 . S
C1322 C1323 1.387 . S
C1323 H1308 0.930 . S
C1323 C1318 1.390 . S
C1323 C1322 1.387 . S
H1324 C1336 0.930 . S
H1325 C1338 0.930 . S
H1326 C1339 0.930 . S
H1327 C1343 0.956 1_554 S
H1328 C1343 0.959 . S
H1329 C1343 0.961 1_554 S
H1330 C1344 0.960 . S
H1331 C1344 0.961 . S
H1332 C1344 0.959 . S
H1333 C1347 0.929 . S
H1334 C1348 0.931 . S
H1335 C1350 0.930 . S
C1336 H1324 0.930 . S
C1336 C1337 1.399 . S
C1336 C1341 1.399 . S
C1337 C1336 1.399 . S
C1337 C1338 1.376 . S
C1338 H1325 0.930 . S
C1338 C1337 1.376 . S
C1338 C1339 1.388 . S
C1339 H1326 0.930 . S
C1339 C1338 1.388 . S
C1339 C1340 1.390 . S
C1340 C1339 1.390 . S
C1340 C1341 1.394 . S
C1340 C1346 1.465 1_554 S
C1341 C1336 1.399 . S
C1341 C1340 1.394 . S
C1341 C1342 1.516 1_554 S
C1342 C1341 1.516 1_556 S
C1342 C1343 1.502 . S
C1342 C1344 1.561 . S
C1342 C1345 1.526 . S
C1343 H1327 0.956 1_556 S
C1343 H1328 0.959 . S
C1343 H1329 0.961 1_556 S
C1343 C1342 1.502 . S
C1344 H1330 0.960 . S
C1344 H1331 0.961 . S
C1344 H1332 0.959 . S
C1344 C1342 1.561 . S
C1345 C1342 1.526 . S
C1345 C1346 1.396 . S
C1345 C1350 1.390 . S
C1346 C1340 1.465 1_556 S
C1346 C1345 1.396 . S
C1346 C1347 1.399 . S
C1347 H1333 0.929 . S
C1347 C1346 1.399 . S
C1347 C1348 1.385 . S
C1348 H1334 0.931 . S
C1348 C1347 1.385 . S
C1348 C1349 1.389 . S
C1349 C1348 1.389 . S
C1349 C1350 1.387 . S
C1350 H1335 0.930 . S
C1350 C1345 1.390 . S
C1350 C1349 1.387 . S
H1351 C1363 0.930 . S
H1352 C1365 0.930 . S
H1353 C1366 0.930 . S
H1354 C1370 0.959 . S
H1355 C1370 0.959 . S
H1356 C1370 0.961 . S
H1357 C1371 0.960 . S
H1358 C1371 0.961 . S
H1359 C1371 0.959 . S
H1360 C1374 0.929 . S
H1361 C1375 0.931 . S
H1362 C1377 0.930 . S
C1363 H1351 0.930 . S
C1363 C1364 1.399 . S
C1363 C1368 1.399 . S
C1364 C1363 1.399 . S
C1364 C1365 1.376 . S
C1365 H1352 0.930 . S
C1365 C1364 1.376 . S
C1365 C1366 1.388 . S
C1366 H1353 0.930 . S
C1366 C1365 1.388 . S
C1366 C1367 1.390 . S
C1367 C1366 1.390 . S
C1367 C1368 1.394 . S
C1367 C1373 1.465 . S
C1368 C1363 1.399 . S
C1368 C1367 1.394 . S
C1368 C1369 1.516 . S
C1369 C1368 1.516 . S
C1369 C1370 1.502 . S
C1369 C1371 1.561 . S
C1369 C1372 1.526 . S
C1370 H1354 0.959 . S
C1370 H1355 0.959 . S
C1370 H1356 0.961 . S
C1370 C1369 1.502 . S
C1371 H1357 0.960 . S
C1371 H1358 0.961 . S
C1371 H1359 0.959 . S
C1371 C1369 1.561 . S
C1372 C1369 1.526 . S
C1372 C1373 1.396 . S
C1372 C1377 1.390 . S
C1373 C1367 1.465 . S
C1373 C1372 1.396 . S
C1373 C1374 1.399 . S
C1374 H1360 0.929 . S
C1374 C1373 1.399 . S
C1374 C1375 1.385 . S
C1375 H1361 0.931 . S
C1375 C1374 1.385 . S
C1375 C1376 1.389 . S
C1376 C1375 1.389 . S
C1376 C1377 1.387 . S
C1377 H1362 0.930 . S
C1377 C1372 1.390 . S
C1377 C1376 1.387 . S
H1378 C1390 0.930 . S
H1379 C1392 0.930 . S
H1380 C1393 0.930 . S
H1381 C1397 0.959 . S
H1382 C1397 0.959 . S
H1383 C1397 0.961 . S
H1384 C1398 0.960 . S
H1385 C1398 0.961 . S
H1386 C1398 0.959 . S
H1387 C1401 0.929 . S
H1388 C1402 0.931 . S
H1389 C1404 0.930 . S
C1390 H1378 0.930 . S
C1390 C1391 1.399 . S
C1390 C1395 1.399 . S
C1391 C1390 1.399 . S
C1391 C1392 1.376 . S
C1392 H1379 0.930 . S
C1392 C1391 1.376 . S
C1392 C1393 1.388 . S
C1393 H1380 0.930 . S
C1393 C1392 1.388 . S
C1393 C1394 1.390 . S
C1394 C1393 1.390 . S
C1394 C1395 1.394 . S
C1394 C1400 1.465 1_554 S
C1395 C1390 1.399 . S
C1395 C1394 1.394 . S
C1395 C1396 1.516 1_554 S
C1396 C1395 1.516 1_556 S
C1396 C1397 1.502 . S
C1396 C1398 1.561 . S
C1396 C1399 1.526 . S
C1397 H1381 0.959 . S
C1397 H1382 0.959 . S
C1397 H1383 0.961 . S
C1397 C1396 1.502 . S
C1398 H1384 0.960 . S
C1398 H1385 0.961 . S
C1398 H1386 0.959 . S
C1398 C1396 1.561 . S
C1399 C1396 1.526 . S
C1399 C1400 1.396 . S
C1399 C1404 1.390 . S
C1400 C1394 1.465 1_556 S
C1400 C1399 1.396 . S
C1400 C1401 1.399 . S
C1401 H1387 0.929 . S
C1401 C1400 1.399 . S
C1401 C1402 1.385 . S
C1402 H1388 0.931 . S
C1402 C1401 1.385 . S
C1402 C1403 1.389 . S
C1403 C1402 1.389 . S
C1403 C1404 1.387 . S
C1404 H1389 0.930 . S
C1404 C1399 1.390 . S
C1404 C1403 1.387 . S
H1405 C1417 0.930 . S
H1406 C1419 0.930 . S
H1407 C1420 0.930 . S
H1408 C1424 0.959 . S
H1409 C1424 0.959 . S
H1410 C1424 0.961 . S
H1411 C1425 0.960 . S
H1412 C1425 0.961 . S
H1413 C1425 0.959 . S
H1414 C1428 0.929 . S
H1415 C1429 0.931 . S
H1416 C1431 0.930 . S
C1417 H1405 0.930 . S
C1417 C1418 1.399 . S
C1417 C1422 1.399 . S
C1418 C1417 1.399 . S
C1418 C1419 1.376 . S
C1419 H1406 0.930 . S
C1419 C1418 1.376 . S
C1419 C1420 1.388 . S
C1420 H1407 0.930 . S
C1420 C1419 1.388 . S
C1420 C1421 1.390 . S
C1421 C1420 1.390 . S
C1421 C1422 1.394 . S
C1421 C1427 1.465 . S
C1422 C1417 1.399 . S
C1422 C1421 1.394 . S
C1422 C1423 1.516 . S
C1423 C1422 1.516 . S
C1423 C1424 1.502 . S
C1423 C1425 1.561 . S
C1423 C1426 1.526 . S
C1424 H1408 0.959 . S
C1424 H1409 0.959 . S
C1424 H1410 0.961 . S
C1424 C1423 1.502 . S
C1425 H1411 0.960 . S
C1425 H1412 0.961 . S
C1425 H1413 0.959 . S
C1425 C1423 1.561 . S
C1426 C1423 1.526 . S
C1426 C1427 1.396 . S
C1426 C1431 1.390 . S
C1427 C1421 1.465 . S
C1427 C1426 1.396 . S
C1427 C1428 1.399 . S
C1428 H1414 0.929 . S
C1428 C1427 1.399 . S
C1428 C1429 1.385 . S
C1429 H1415 0.931 . S
C1429 C1428 1.385 . S
C1429 C1430 1.389 . S
C1430 C1429 1.389 . S
C1430 C1431 1.387 . S
C1431 H1416 0.930 . S
C1431 C1426 1.390 . S
C1431 C1430 1.387 . S
H1432 C1444 0.930 . S
H1433 C1446 0.930 . S
H1434 C1447 0.930 . S
H1435 C1451 0.959 . S
H1436 C1451 0.959 . S
H1437 C1451 0.961 . S
H1438 C1452 0.960 . S
H1439 C1452 0.961 . S
H1440 C1452 0.959 . S
H1441 C1455 0.929 . S
H1442 C1456 0.931 . S
H1443 C1458 0.930 . S
C1444 H1432 0.930 . S
C1444 C1445 1.399 . S
C1444 C1449 1.399 . S
C1445 C1444 1.399 . S
C1445 C1446 1.376 . S
C1446 H1433 0.930 . S
C1446 C1445 1.376 . S
C1446 C1447 1.388 . S
C1447 H1434 0.930 . S
C1447 C1446 1.388 . S
C1447 C1448 1.390 . S
C1448 C1447 1.390 . S
C1448 C1449 1.394 . S
C1448 C1454 1.465 . S
C1449 C1444 1.399 . S
C1449 C1448 1.394 . S
C1449 C1450 1.516 . S
C1450 C1449 1.516 . S
C1450 C1451 1.502 . S
C1450 C1452 1.561 . S
C1450 C1453 1.526 . S
C1451 H1435 0.959 . S
C1451 H1436 0.959 . S
C1451 H1437 0.961 . S
C1451 C1450 1.502 . S
C1452 H1438 0.960 . S
C1452 H1439 0.961 . S
C1452 H1440 0.959 . S
C1452 C1450 1.561 . S
C1453 C1450 1.526 . S
C1453 C1454 1.396 . S
C1453 C1458 1.390 . S
C1454 C1448 1.465 . S
C1454 C1453 1.396 . S
C1454 C1455 1.399 . S
C1455 H1441 0.929 . S
C1455 C1454 1.399 . S
C1455 C1456 1.385 . S
C1456 H1442 0.931 . S
C1456 C1455 1.385 . S
C1456 C1457 1.389 . S
C1457 C1456 1.389 . S
C1457 C1458 1.387 . S
C1458 H1443 0.930 . S
C1458 C1453 1.390 . S
C1458 C1457 1.387 . S
H1459 C1471 0.930 . S
H1460 C1473 0.930 . S
H1461 C1474 0.930 . S
H1462 C1478 0.959 . S
H1463 C1478 0.959 . S
H1464 C1478 0.961 . S
H1465 C1479 0.960 . S
H1466 C1479 0.961 . S
H1467 C1479 0.959 . S
H1468 C1482 0.929 . S
H1469 C1483 0.931 . S
H1470 C1485 0.930 . S
C1471 H1459 0.930 . S
C1471 C1472 1.399 . S
C1471 C1476 1.399 . S
C1472 C1471 1.399 . S
C1472 C1473 1.376 . S
C1473 H1460 0.930 . S
C1473 C1472 1.376 . S
C1473 C1474 1.388 . S
C1474 H1461 0.930 . S
C1474 C1473 1.388 . S
C1474 C1475 1.390 . S
C1475 C1474 1.390 . S
C1475 C1476 1.394 . S
C1475 C1481 1.465 . S
C1476 C1471 1.399 . S
C1476 C1475 1.394 . S
C1476 C1477 1.516 . S
C1477 C1476 1.516 . S
C1477 C1478 1.502 . S
C1477 C1479 1.561 . S
C1477 C1480 1.526 . S
C1478 H1462 0.959 . S
C1478 H1463 0.959 . S
C1478 H1464 0.961 . S
C1478 C1477 1.502 . S
C1479 H1465 0.960 . S
C1479 H1466 0.961 . S
C1479 H1467 0.959 . S
C1479 C1477 1.561 . S
C1480 C1477 1.526 . S
C1480 C1481 1.396 . S
C1480 C1485 1.390 . S
C1481 C1475 1.465 . S
C1481 C1480 1.396 . S
C1481 C1482 1.399 . S
C1482 H1468 0.929 . S
C1482 C1481 1.399 . S
C1482 C1483 1.385 . S
C1483 H1469 0.931 . S
C1483 C1482 1.385 . S
C1483 C1484 1.389 . S
C1484 C1483 1.389 . S
C1484 C1485 1.387 . S
C1485 H1470 0.930 . S
C1485 C1480 1.390 . S
C1485 C1484 1.387 . S
H1486 C1498 0.930 . S
H1487 C1500 0.930 . S
H1488 C1501 0.930 . S
H1489 C1505 0.959 . S
H1490 C1505 0.959 . S
H1491 C1505 0.961 . S
H1492 C1506 0.960 . S
H1493 C1506 0.961 . S
H1494 C1506 0.959 . S
H1495 C1509 0.929 . S
H1496 C1510 0.931 . S
H1497 C1512 0.930 . S
C1498 H1486 0.930 . S
C1498 C1499 1.399 . S
C1498 C1503 1.399 . S
C1499 C1498 1.399 . S
C1499 C1500 1.376 . S
C1500 H1487 0.930 . S
C1500 C1499 1.376 . S
C1500 C1501 1.388 . S
C1501 H1488 0.930 . S
C1501 C1500 1.388 . S
C1501 C1502 1.390 . S
C1502 C1501 1.390 . S
C1502 C1503 1.394 . S
C1502 C1508 1.465 . S
C1503 C1498 1.399 . S
C1503 C1502 1.394 . S
C1503 C1504 1.516 . S
C1504 C1503 1.516 . S
C1504 C1505 1.502 . S
C1504 C1506 1.561 . S
C1504 C1507 1.526 . S
C1505 H1489 0.959 . S
C1505 H1490 0.959 . S
C1505 H1491 0.961 . S
C1505 C1504 1.502 . S
C1506 H1492 0.960 . S
C1506 H1493 0.961 . S
C1506 H1494 0.959 . S
C1506 C1504 1.561 . S
C1507 C1504 1.526 . S
C1507 C1508 1.396 . S
C1507 C1512 1.390 . S
C1508 C1502 1.465 . S
C1508 C1507 1.396 . S
C1508 C1509 1.399 . S
C1509 H1495 0.929 . S
C1509 C1508 1.399 . S
C1509 C1510 1.385 . S
C1510 H1496 0.931 . S
C1510 C1509 1.385 . S
C1510 C1511 1.389 . S
C1511 C1510 1.389 . S
C1511 C1512 1.387 . S
C1512 H1497 0.930 . S
C1512 C1507 1.390 . S
C1512 C1511 1.387 . S
H1513 C1525 0.930 . S
H1514 C1527 0.930 . S
H1515 C1528 0.930 . S
H1516 C1532 0.959 . S
H1517 C1532 0.959 . S
H1518 C1532 0.961 . S
H1519 C1533 0.960 . S
H1520 C1533 0.961 . S
H1521 C1533 0.959 . S
H1522 C1536 0.929 . S
H1523 C1537 0.931 . S
H1524 C1539 0.930 . S
C1525 H1513 0.930 . S
C1525 C1526 1.399 . S
C1525 C1530 1.399 . S
C1526 C1525 1.399 . S
C1526 C1527 1.376 . S
C1527 H1514 0.930 . S
C1527 C1526 1.376 . S
C1527 C1528 1.388 . S
C1528 H1515 0.930 . S
C1528 C1527 1.388 . S
C1528 C1529 1.390 . S
C1529 C1528 1.390 . S
C1529 C1530 1.394 . S
C1529 C1535 1.465 . S
C1530 C1525 1.399 . S
C1530 C1529 1.394 . S
C1530 C1531 1.516 . S
C1531 C1530 1.516 . S
C1531 C1532 1.502 . S
C1531 C1533 1.561 . S
C1531 C1534 1.526 . S
C1532 H1516 0.959 . S
C1532 H1517 0.959 . S
C1532 H1518 0.961 . S
C1532 C1531 1.502 . S
C1533 H1519 0.960 . S
C1533 H1520 0.961 . S
C1533 H1521 0.959 . S
C1533 C1531 1.561 . S
C1534 C1531 1.526 . S
C1534 C1535 1.396 . S
C1534 C1539 1.390 . S
C1535 C1529 1.465 . S
C1535 C1534 1.396 . S
C1535 C1536 1.399 . S
C1536 H1522 0.929 . S
C1536 C1535 1.399 . S
C1536 C1537 1.385 . S
C1537 H1523 0.931 . S
C1537 C1536 1.385 . S
C1537 C1538 1.389 . S
C1538 C1537 1.389 . S
C1538 C1539 1.387 . S
C1539 H1524 0.930 . S
C1539 C1534 1.390 . S
C1539 C1538 1.387 . S
H1540 C1552 0.930 . S
H1541 C1554 0.930 . S
H1542 C1555 0.930 . S
H1543 C1559 0.959 . S
H1544 C1559 0.959 . S
H1545 C1559 0.961 . S
H1546 C1560 0.960 . S
H1547 C1560 0.961 . S
H1548 C1560 0.959 . S
H1549 C1563 0.929 . S
H1550 C1564 0.931 . S
H1551 C1566 0.930 . S
C1552 H1540 0.930 . S
C1552 C1553 1.399 . S
C1552 C1557 1.399 . S
C1553 C1552 1.399 . S
C1553 C1554 1.376 . S
C1554 H1541 0.930 . S
C1554 C1553 1.376 . S
C1554 C1555 1.388 . S
C1555 H1542 0.930 . S
C1555 C1554 1.388 . S
C1555 C1556 1.390 . S
C1556 C1555 1.390 . S
C1556 C1557 1.394 . S
C1556 C1562 1.465 . S
C1557 C1552 1.399 . S
C1557 C1556 1.394 . S
C1557 C1558 1.516 . S
C1558 C1557 1.516 . S
C1558 C1559 1.502 . S
C1558 C1560 1.561 . S
C1558 C1561 1.526 . S
C1559 H1543 0.959 . S
C1559 H1544 0.959 . S
C1559 H1545 0.961 . S
C1559 C1558 1.502 . S
C1560 H1546 0.960 . S
C1560 H1547 0.961 . S
C1560 H1548 0.959 . S
C1560 C1558 1.561 . S
C1561 C1558 1.526 . S
C1561 C1562 1.396 . S
C1561 C1566 1.390 . S
C1562 C1556 1.465 . S
C1562 C1561 1.396 . S
C1562 C1563 1.399 . S
C1563 H1549 0.929 . S
C1563 C1562 1.399 . S
C1563 C1564 1.385 . S
C1564 H1550 0.931 . S
C1564 C1563 1.385 . S
C1564 C1565 1.389 . S
C1565 C1564 1.389 . S
C1565 C1566 1.387 . S
C1566 H1551 0.930 . S
C1566 C1561 1.390 . S
C1566 C1565 1.387 . S
H1567 C1579 0.930 . S
H1568 C1581 0.930 . S
H1569 C1582 0.930 . S
H1570 C1586 0.959 . S
H1571 C1586 0.959 . S
H1572 C1586 0.961 . S
H1573 C1587 0.960 . S
H1574 C1587 0.961 . S
H1575 C1587 0.959 . S
H1576 C1590 0.929 . S
H1577 C1591 0.931 . S
H1578 C1593 0.930 . S
C1579 H1567 0.930 . S
C1579 C1580 1.399 . S
C1579 C1584 1.399 . S
C1580 C1579 1.399 . S
C1580 C1581 1.376 . S
C1581 H1568 0.930 . S
C1581 C1580 1.376 . S
C1581 C1582 1.388 . S
C1582 H1569 0.930 . S
C1582 C1581 1.388 . S
C1582 C1583 1.390 . S
C1583 C1582 1.390 . S
C1583 C1584 1.394 . S
C1583 C1589 1.465 . S
C1584 C1579 1.399 . S
C1584 C1583 1.394 . S
C1584 C1585 1.516 . S
C1585 C1584 1.516 . S
C1585 C1586 1.502 . S
C1585 C1587 1.561 . S
C1585 C1588 1.526 . S
C1586 H1570 0.959 . S
C1586 H1571 0.959 . S
C1586 H1572 0.961 . S
C1586 C1585 1.502 . S
C1587 H1573 0.960 . S
C1587 H1574 0.961 . S
C1587 H1575 0.959 . S
C1587 C1585 1.561 . S
C1588 C1585 1.526 . S
C1588 C1589 1.396 . S
C1588 C1593 1.390 . S
C1589 C1583 1.465 . S
C1589 C1588 1.396 . S
C1589 C1590 1.399 . S
C1590 H1576 0.929 . S
C1590 C1589 1.399 . S
C1590 C1591 1.385 . S
C1591 H1577 0.931 . S
C1591 C1590 1.385 . S
C1591 C1592 1.389 . S
C1592 C1591 1.389 . S
C1592 C1593 1.387 . S
C1593 H1578 0.930 . S
C1593 C1588 1.390 . S
C1593 C1592 1.387 . S
H1594 C1606 0.930 . S
H1595 C1608 0.930 . S
H1596 C1609 0.930 . S
H1597 C1613 0.959 . S
H1598 C1613 0.959 . S
H1599 C1613 0.961 . S
H1600 C1614 0.960 . S
H1601 C1614 0.961 . S
H1602 C1614 0.959 . S
H1603 C1617 0.929 . S
H1604 C1618 0.931 . S
H1605 C1620 0.930 . S
C1606 H1594 0.930 . S
C1606 C1607 1.399 . S
C1606 C1611 1.399 . S
C1607 C1606 1.399 . S
C1607 C1608 1.376 . S
C1608 H1595 0.930 . S
C1608 C1607 1.376 . S
C1608 C1609 1.388 . S
C1609 H1596 0.930 . S
C1609 C1608 1.388 . S
C1609 C1610 1.390 . S
C1610 C1609 1.390 . S
C1610 C1611 1.394 . S
C1610 C1616 1.465 . S
C1611 C1606 1.399 . S
C1611 C1610 1.394 . S
C1611 C1612 1.516 . S
C1612 C1611 1.516 . S
C1612 C1613 1.502 . S
C1612 C1614 1.561 . S
C1612 C1615 1.526 . S
C1613 H1597 0.959 . S
C1613 H1598 0.959 . S
C1613 H1599 0.961 . S
C1613 C1612 1.502 . S
C1614 H1600 0.960 . S
C1614 H1601 0.961 . S
C1614 H1602 0.959 . S
C1614 C1612 1.561 . S
C1615 C1612 1.526 . S
C1615 C1616 1.396 . S
C1615 C1620 1.390 . S
C1616 C1610 1.465 . S
C1616 C1615 1.396 . S
C1616 C1617 1.399 . S
C1617 H1603 0.929 . S
C1617 C1616 1.399 . S
C1617 C1618 1.385 . S
C1618 H1604 0.931 . S
C1618 C1617 1.385 . S
C1618 C1619 1.389 . S
C1619 C1618 1.389 . S
C1619 C1620 1.387 . S
C1620 H1605 0.930 . S
C1620 C1615 1.390 . S
C1620 C1619 1.387 . S
H1621 C1633 0.930 . S
H1622 C1635 0.930 . S
H1623 C1636 0.930 . S
H1624 C1640 0.959 . S
H1625 C1640 0.959 . S
H1626 C1640 0.961 . S
H1627 C1641 0.960 . S
H1628 C1641 0.961 . S
H1629 C1641 0.959 . S
H1630 C1644 0.929 . S
H1631 C1645 0.931 . S
H1632 C1647 0.930 . S
C1633 H1621 0.930 . S
C1633 C1634 1.399 . S
C1633 C1638 1.399 . S
C1634 C1633 1.399 . S
C1634 C1635 1.376 . S
C1635 H1622 0.930 . S
C1635 C1634 1.376 . S
C1635 C1636 1.388 . S
C1636 H1623 0.930 . S
C1636 C1635 1.388 . S
C1636 C1637 1.390 . S
C1637 C1636 1.390 . S
C1637 C1638 1.394 . S
C1637 C1643 1.465 . S
C1638 C1633 1.399 . S
C1638 C1637 1.394 . S
C1638 C1639 1.516 . S
C1639 C1638 1.516 . S
C1639 C1640 1.502 . S
C1639 C1641 1.561 . S
C1639 C1642 1.526 . S
C1640 H1624 0.959 . S
C1640 H1625 0.959 . S
C1640 H1626 0.961 . S
C1640 C1639 1.502 . S
C1641 H1627 0.960 . S
C1641 H1628 0.961 . S
C1641 H1629 0.959 . S
C1641 C1639 1.561 . S
C1642 C1639 1.526 . S
C1642 C1643 1.396 . S
C1642 C1647 1.390 . S
C1643 C1637 1.465 . S
C1643 C1642 1.396 . S
C1643 C1644 1.399 . S
C1644 H1630 0.929 . S
C1644 C1643 1.399 . S
C1644 C1645 1.385 . S
C1645 H1631 0.931 . S
C1645 C1644 1.385 . S
C1645 C1646 1.389 . S
C1646 C1645 1.389 . S
C1646 C1647 1.387 . S
C1647 H1632 0.930 . S
C1647 C1642 1.390 . S
C1647 C1646 1.387 . S
C365 C9 1.400 . S
C377 C314 1.583 . S
C392 C31 1.398 . S
C404 C336 1.582 . S
C419 C49 1.504 . S
C431 C271 1.563 . S
C446 C292 1.586 . S
C458 C75 1.431 . S
C473 C229 1.575 . S
C485 C94 1.400 . S
C500 C247 1.564 . S
C512 C117 1.491 . S
C527 C181 1.577 . S
C539 C139 1.403 . S
C554 C203 1.566 . S
C566 C161 1.496 . S
C581 C185 1.398 . S
C593 C138 1.582 . S
C608 C160 1.560 . S
C620 C207 1.447 . S
C635 C95 1.585 . S
C647 C225 1.453 . S
C662 C116 1.586 . S
C674 C251 1.439 . S
C689 C53 1.570 . S
C701 C270 1.502 . S
C716 C293 1.443 . S
C728 C71 1.558 . S
C743 C5 1.563 . S
C755 C315 1.487 . S
C770 C337 1.419 . S
C782 C27 1.560 . S
C797 C4 1.597 . S
C809 C52 1.596 . S
C824 C70 1.597 . S
C836 C26 1.597 . S
C851 C136 1.599 . S
C863 C96 1.593 . S
C878 C158 1.592 . S
C890 C114 1.599 . S
C905 C228 1.597 . S
C917 C180 1.592 . S
C932 C246 1.598 . S
C944 C202 1.595 . S
C959 C312 1.596 . S
C971 C272 1.599 . S
C986 C290 1.593 . S
C998 C334 1.599 . S
C1013 C8 1.528 . S
C1025 C140 1.517 . S
C1040 C30 1.557 . S
C1052 C162 1.556 . S
C1067 C92 1.510 . S
C1079 C48 1.523 . S
C1094 C74 1.539 . S
C1106 C118 1.548 . S
C1121 C184 1.556 . S
C1133 C316 1.551 . S
C1148 C338 1.509 . S
C1160 C206 1.498 . S
C1175 C268 1.514 . S
C1187 C224 1.526 . S
C1202 C250 1.557 . S
C1214 C294 1.555 . S
C1229 C6 0.882 . S
C1241 C273 0.724 . S
C1256 C291 0.813 . S
C1268 C28 0.780 . S
C1283 C313 0.866 . S
C1295 C51 0.733 . S
C1310 C335 0.874 . S
C1322 C72 0.757 . S
C1337 C182 0.722 . S
C1349 C97 0.880 . S
C1364 C204 0.885 . S
C1376 C115 0.736 . S
C1391 C137 0.815 . S
C1403 C227 0.828 . S
C1418 C248 0.736 . S
C1430 C159 0.883 . S
C1445 C7 1.435 . S
C1457 C119 1.444 . S
C1472 C93 1.461 . S
C1484 C29 1.460 . S
C1499 C50 1.437 . S
C1511 C163 1.429 . S
C1526 C141 1.409 . S
C1538 C73 1.412 . S
C1553 C183 1.441 . S
C1565 C295 1.449 . S
C1580 C269 1.409 . S
C1592 C205 1.411 . S
C1607 C339 1.459 . S
C1619 C226 1.461 . S
C1634 C249 1.433 . S
C1646 C317 1.425 . S
