# Generated by pormake.
# Topology smd, (6)-cn, num edge types: 1
# Building blocks:
#     Node 0, Type 0, BuildingBlock: NUHQIS_clean_sbu_0, # of connection points: 6
#     Node 1, Type 0, BuildingBlock: NUHQIS_clean_sbu_0, # of connection points: 6
#     Node 2, Type 0, BuildingBlock: NUHQIS_clean_sbu_0, # of connection points: 6
#     Node 3, Type 0, BuildingBlock: NUHQIS_clean_sbu_0, # of connection points: 6
#     Node 4, Type 0, BuildingBlock: NUHQIS_clean_sbu_0, # of connection points: 6
#     Node 5, Type 0, BuildingBlock: NUHQIS_clean_sbu_0, # of connection points: 6
#     Node 6, Type 0, BuildingBlock: NUHQIS_clean_sbu_0, # of connection points: 6
#     Node 7, Type 0, BuildingBlock: NUHQIS_clean_sbu_0, # of connection points: 6
#     Node 8, Type 0, BuildingBlock: NUHQIS_clean_sbu_0, # of connection points: 6
#     Node 9, Type 0, BuildingBlock: NUHQIS_clean_sbu_0, # of connection points: 6
#     Node 10, Type 0, BuildingBlock: NUHQIS_clean_sbu_0, # of connection points: 6
#     Node 11, Type 0, BuildingBlock: NUHQIS_clean_sbu_0, # of connection points: 6
#     Node 12, Type 0, BuildingBlock: NUHQIS_clean_sbu_0, # of connection points: 6
#     Node 13, Type 0, BuildingBlock: NUHQIS_clean_sbu_0, # of connection points: 6
#     Node 14, Type 0, BuildingBlock: NUHQIS_clean_sbu_0, # of connection points: 6
#     Node 15, Type 0, BuildingBlock: NUHQIS_clean_sbu_0, # of connection points: 6
#     Node 16, Type 0, BuildingBlock: NUHQIS_clean_sbu_0, # of connection points: 6
#     Node 17, Type 0, BuildingBlock: NUHQIS_clean_sbu_0, # of connection points: 6
#     Edge 18, Type (0, 0), None
#     Edge 19, Type (0, 0), None
#     Edge 20, Type (0, 0), None
#     Edge 21, Type (0, 0), None
#     Edge 22, Type (0, 0), None
#     Edge 23, Type (0, 0), None
#     Edge 24, Type (0, 0), None
#     Edge 25, Type (0, 0), None
#     Edge 26, Type (0, 0), None
#     Edge 27, Type (0, 0), None
#     Edge 28, Type (0, 0), None
#     Edge 29, Type (0, 0), None
#     Edge 30, Type (0, 0), None
#     Edge 31, Type (0, 0), None
#     Edge 32, Type (0, 0), None
#     Edge 33, Type (0, 0), None
#     Edge 34, Type (0, 0), None
#     Edge 35, Type (0, 0), None
#     Edge 36, Type (0, 0), None
#     Edge 37, Type (0, 0), None
#     Edge 38, Type (0, 0), None
#     Edge 39, Type (0, 0), None
#     Edge 40, Type (0, 0), None
#     Edge 41, Type (0, 0), None
#     Edge 42, Type (0, 0), None
#     Edge 43, Type (0, 0), None
#     Edge 44, Type (0, 0), None
#     Edge 45, Type (0, 0), None
#     Edge 46, Type (0, 0), None
#     Edge 47, Type (0, 0), None
#     Edge 48, Type (0, 0), None
#     Edge 49, Type (0, 0), None
#     Edge 50, Type (0, 0), None
#     Edge 51, Type (0, 0), None
#     Edge 52, Type (0, 0), None
#     Edge 53, Type (0, 0), None
#     Edge 54, Type (0, 0), None
#     Edge 55, Type (0, 0), None
#     Edge 56, Type (0, 0), None
#     Edge 57, Type (0, 0), None
#     Edge 58, Type (0, 0), None
#     Edge 59, Type (0, 0), None
#     Edge 60, Type (0, 0), None
#     Edge 61, Type (0, 0), None
#     Edge 62, Type (0, 0), None
#     Edge 63, Type (0, 0), None
#     Edge 64, Type (0, 0), None
#     Edge 65, Type (0, 0), None
#     Edge 66, Type (0, 0), None
#     Edge 67, Type (0, 0), None
#     Edge 68, Type (0, 0), None
#     Edge 69, Type (0, 0), None
#     Edge 70, Type (0, 0), None
#     Edge 71, Type (0, 0), None
# Relax obj value: 0.376
# Max RMSD: 0.449
# Mean RMSD: 0.422
data_MOF--net-smd--node1-NUHQIS_clean_sbu_0--edge1-none
_symmetry_space_group_name_H-M    P1
_symmetry_Int_Tables_number       1
_symmetry_cell_setting            triclinic
loop_
_symmetry_equiv_pos_as_xyz
'x, y, z'
_cell_length_a     28.648881
_cell_length_b     29.250958
_cell_length_c     15.404074
_cell_angle_alpha  92.361182
_cell_angle_beta   92.42309
_cell_angle_gamma 119.78219
loop_
_atom_site_label
_atom_site_type_symbol
_atom_site_fract_x
_atom_site_fract_y
_atom_site_fract_z
_atom_type_partial_charge
Tb0 Tb 0.0415 0.25973 0.64077 0.0
Eu1 Eu 0.97869 0.22623 0.50633 0.0
C2 C 0.07962 0.20287 0.53338 0.0
C3 C 0.0585 0.32916 0.46515 0.0
C4 C 0.06639 0.26932 0.86961 0.0
C5 C 0.07817 0.25959 1.02221 0.0
C6 C 0.10008 0.27888 0.94399 0.0
C7 C 0.01206 0.231 0.86996 0.0
C8 C 0.98911 0.21368 0.94803 0.0
C9 C 0.02176 0.23002 1.02656 0.0
C10 C 0.08691 0.29608 0.79014 0.0
O11 O 0.9633 0.25822 0.64014 0.0
O12 O 0.96654 0.25905 0.64454 0.0
O13 O 0.91343 0.16398 0.57405 0.0
O14 O 0.98162 0.17274 0.66282 0.0
C15 C 0.93743 0.2713 0.69719 0.0
O16 O 0.93048 0.22872 0.39879 0.0
O17 O 0.94386 0.16166 0.40589 0.0
O18 O 0.05658 0.21951 0.47635 0.0
O19 O 0.06644 0.20381 0.61178 0.0
O20 O 0.08398 0.31543 0.52641 0.0
O21 O 0.0071 0.30601 0.46894 0.0
C22 C 0.92942 0.14485 0.6349 0.0
O23 O 0.10054 0.27076 0.73597 0.0
O24 O 0.05764 0.31271 0.75056 0.0
C25 C 0.95078 0.19786 0.27242 0.0
C26 C 0.99749 0.21769 0.11181 0.0
C27 C 0.94426 0.17617 0.11815 0.0
C28 C 0.92079 0.16752 0.19736 0.0
C29 C 1.00403 0.23817 0.26747 0.0
C30 C 0.02663 0.24922 0.18784 0.0
C31 C 0.92786 0.18757 0.35679 0.0
H32 H 0.10578 0.26852 1.0787 0.0
H33 H 0.1431 0.29977 0.94157 0.0
H34 H 0.98682 0.216 0.81013 0.0
H35 H 0.94579 0.18924 0.94545 0.0
H36 H 0.91999 0.15001 1.06276 0.0
H37 H 0.87902 0.13774 0.19951 0.0
H38 H 0.02812 0.26141 0.32518 0.0
H39 H 0.06674 0.2829 0.18692 0.0
Tb40 Tb 0.78896 0.76129 0.53985 0.0
Eu41 Eu 0.7678 0.78951 0.65761 0.0
C42 C 0.8923 0.81653 0.63248 0.0
C43 C 0.74763 0.68956 0.71101 0.0
C44 C 0.78841 0.73105 0.3101 0.0
C45 C 0.83471 0.78372 0.19139 0.0
C46 C 0.83601 0.76908 0.27573 0.0
C47 C 0.73934 0.70928 0.25989 0.0
C48 C 0.73769 0.72636 0.17768 0.0
C49 C 0.78545 0.76256 0.14263 0.0
C50 C 0.78962 0.71593 0.39929 0.0
O51 O 0.71335 0.76322 0.51855 0.0
O52 O 0.70844 0.76131 0.523 0.0
O53 O 0.76666 0.8569 0.60093 0.0
O54 O 0.81902 0.84763 0.5089 0.0
C55 C 0.70995 0.77009 0.43573 0.0
O56 O 0.71824 0.78613 0.76178 0.0
O57 O 0.80191 0.85077 0.76309 0.0
O58 O 0.85501 0.79763 0.68908 0.0
O59 O 0.87288 0.81823 0.5571 0.0
O60 O 0.78326 0.70616 0.64956 0.0
O61 O 0.71844 0.71149 0.71155 0.0
C62 C 0.79886 0.87689 0.5401 0.0
O63 O 0.83237 0.74754 0.44862 0.0
O64 O 0.74603 0.70003 0.44051 0.0
C65 C 0.77044 0.8122 0.89388 0.0
C66 C 0.7829 0.78104 1.05754 0.0
C67 C 0.75756 0.81083 1.04756 0.0
C68 C 0.75148 0.82615 0.96618 0.0
C69 C 0.79748 0.78351 0.90412 0.0
C70 C 0.8039 0.76804 0.98621 0.0
C71 C 0.75943 0.82508 0.80772 0.0
H72 H 0.87172 0.81262 0.16525 0.0
H73 H 0.87436 0.78742 0.31369 0.0
H74 H 0.70221 0.67988 0.28487 0.0
H75 H 0.6993 0.71128 0.14113 0.0
H76 H 0.74207 0.82186 0.10273 0.0
H77 H 0.7313 0.84816 0.96032 0.0
H78 H 0.81276 0.77245 0.84883 0.0
H79 H 0.82391 0.74511 0.99373 0.0
Tb80 Tb 0.23639 0.99063 0.63365 0.0
Eu81 Eu 0.24422 0.03239 0.51463 0.0
C82 C 0.13263 0.92896 0.53515 0.0
C83 C 0.26714 0.95007 0.44778 0.0
C84 C 0.23559 0.97491 0.86326 0.0
C85 C 0.20639 0.95856 1.00806 0.0
C86 C 0.20706 0.94035 0.92413 0.0
C87 C 0.25792 0.0288 0.88321 0.0
C88 C 0.26037 0.0481 0.96754 0.0
C89 C 0.23576 0.01314 1.033 0.0
C90 C 0.23523 0.95354 0.77662 0.0
O91 O 0.31485 0.06432 0.63488 0.0
O92 O 0.31708 0.06452 0.63109 0.0
O93 O 0.182 0.05121 0.55838 0.0
O94 O 0.22896 0.06306 0.67633 0.0
C95 C 0.32747 0.08883 0.71276 0.0
O96 O 0.30051 0.08997 0.43262 0.0
O97 O 0.21735 0.07326 0.43022 0.0
O98 O 0.16992 0.94665 0.47886 0.0
O99 O 0.15036 0.9571 0.60795 0.0
O100 O 0.25105 0.93883 0.52928 0.0
O101 O 0.27325 0.99375 0.42381 0.0
C102 C 0.20013 0.07878 0.63114 0.0
O103 O 0.19198 0.94065 0.72771 0.0
O104 O 0.27908 0.97846 0.73605 0.0
C105 C 0.252 0.07142 0.29877 0.0
C106 C 0.24017 0.03319 0.12495 0.0
C107 C 0.266 0.08792 0.14852 0.0
C108 C 0.27263 0.10611 0.2347 0.0
C109 C 0.22328 0.01714 0.27674 0.0
C110 C 0.21938 0.99807 0.19158 0.0
C111 C 0.26121 0.09127 0.389 0.0
H112 H 0.18236 0.92896 1.0511 0.0
H113 H 0.18398 0.89945 0.90429 0.0
H114 H 0.27224 0.05623 0.83426 0.0
H115 H 0.28141 0.09042 0.97824 0.0
H116 H 0.28203 0.11802 0.1029 0.0
H117 H 0.29347 0.14735 0.25207 0.0
H118 H 0.204 0.98919 0.32516 0.0
H119 H 0.19998 0.9558 0.18072 0.0
Tb120 Tb 0.0387 0.78649 0.66609 0.0
Eu121 Eu 0.98146 0.75748 0.53931 0.0
C122 C 0.08089 0.76807 0.4672 0.0
C123 C 0.09313 0.8716 0.54356 0.0
C124 C 0.06446 0.81473 0.89558 0.0
C125 C 0.07322 0.81357 1.05196 0.0
C126 C 0.0957 0.82285 0.97259 0.0
C127 C 0.00937 0.79731 0.90005 0.0
C128 C 0.98671 0.78949 0.98023 0.0
C129 C 0.01847 0.79724 1.05785 0.0
C130 C 0.08821 0.82332 0.81077 0.0
O131 O 0.96348 0.79482 0.68775 0.0
O132 O 0.96689 0.82425 0.56097 0.0
O133 O 0.92948 0.7 0.65029 0.0
O134 O 1.00192 0.71282 0.72893 0.0
C135 C 0.94634 0.81857 0.63461 0.0
O136 O 0.91917 0.7438 0.43909 0.0
O137 O 0.96587 0.70555 0.42356 0.0
O138 O 0.05698 0.74986 0.53867 0.0
O139 O 0.05629 0.74793 0.54222 0.0
O140 O 0.10405 0.85062 0.60785 0.0
O141 O 0.04309 0.84505 0.50824 0.0
C142 C 0.9499 0.68847 0.72099 0.0
O143 O 0.08492 0.78138 0.76995 0.0
O144 O 0.0747 0.85034 0.7595 0.0
C145 C 0.95385 0.74604 0.30363 0.0
C146 C 0.99495 0.78534 0.14386 0.0
C147 C 0.93946 0.75144 0.14958 0.0
C148 C 0.91944 0.73236 0.22868 0.0
C149 C 0.00786 0.78505 0.30059 0.0
C150 C 0.02826 0.8048 0.22193 0.0
C151 C 0.93467 0.72002 0.38453 0.0
H152 H 0.09956 0.81814 0.10793 0.0
H153 H 0.13765 0.83574 0.97413 0.0
H154 H 0.9837 0.79 0.8419 0.0
H155 H 0.94453 0.77774 0.97998 0.0
H156 H 0.91106 0.73662 0.09316 0.0
H157 H 0.87723 0.70584 0.22919 0.0
H158 H 0.03466 0.79993 0.35854 0.0
H159 H 0.07035 0.83469 0.22341 0.0
Tb160 Tb 0.24934 0.22165 0.50413 0.0
Eu161 Eu 0.2288 0.25225 0.61229 0.0
C162 C 0.31347 0.24924 0.7154 0.0
C163 C 0.22075 0.1367 0.6225 0.0
C164 C 0.242 0.19936 0.27218 0.0
C165 C 0.27439 0.26317 0.16343 0.0
C166 C 0.27902 0.24938 0.24673 0.0
C167 C 0.19982 0.1635 0.21315 0.0
C168 C 0.19568 0.17693 0.12862 0.0
C169 C 0.23317 0.22695 0.1025 0.0
C170 C 0.24853 0.18347 0.35859 0.0
O171 O 0.16857 0.22144 0.47667 0.0
O172 O 0.14494 0.18477 0.59447 0.0
O173 O 0.23979 0.31136 0.49586 0.0
O174 O 0.3015 0.29532 0.45172 0.0
C175 C 0.12778 0.19519 0.52465 0.0
O176 O 0.18259 0.26523 0.70646 0.0
O177 O 0.26953 0.31301 0.71927 0.0
O178 O 0.30862 0.25402 0.6323 0.0
O179 O 0.31183 0.25555 0.62743 0.0
O180 O 0.25156 0.15688 0.5602 0.0
O181 O 0.19955 0.16487 0.65253 0.0
C182 C 0.27668 0.32113 0.43821 0.0
O183 O 0.29301 0.21616 0.40548 0.0
O184 O 0.20557 0.16305 0.40354 0.0
C185 C 0.22592 0.27429 0.84483 0.0
C186 C 0.23026 0.24127 1.01216 0.0
C187 C 0.18067 0.22011 0.96258 0.0
C188 C 0.17876 0.23551 0.8786 0.0
C189 C 0.27499 0.29521 0.89419 0.0
C190 C 0.27745 0.27764 0.97524 0.0
C191 C 0.22498 0.29389 0.75885 0.0
H192 H 0.30388 0.3023 0.14775 0.0
H193 H 0.31245 0.27788 0.29022 0.0
H194 H 0.1711 0.12449 0.23165 0.0
H195 H 0.16399 0.14745 0.08354 0.0
H196 H 0.14311 0.19274 0.98884 0.0
H197 H 0.14014 0.21849 0.84169 0.0
H198 H 0.31159 0.32648 0.87091 0.0
H199 H 0.31656 0.2945 1.00962 0.0
Tb200 Tb 0.77758 0.98684 0.64273 0.0
Eu201 Eu 0.79536 0.03109 0.52593 0.0
C202 C 0.70571 0.9498 0.43197 0.0
C203 C 0.82042 0.93516 0.53234 0.0
C204 C 0.7722 0.95207 0.85473 0.0
C205 C 0.74705 0.94782 1.00141 0.0
C206 C 0.73393 0.93037 0.91452 0.0
C207 C 0.82266 0.99698 0.88058 0.0
C208 C 0.83422 0.01791 0.96717 0.0
C209 C 0.79603 0.99284 1.02796 0.0
C210 C 0.75723 0.93026 0.76455 0.0
O211 O 0.84979 0.06808 0.6844 0.0
O212 O 0.8821 0.05968 0.56742 0.0
O213 O 0.77462 0.0836 0.62858 0.0
O214 O 0.75693 0.03019 0.73522 0.0
C215 C 0.89326 0.08665 0.6407 0.0
O216 O 0.84785 0.07826 0.43032 0.0
O217 O 0.76335 0.0547 0.41571 0.0
O218 O 0.71361 0.95685 0.51616 0.0
O219 O 0.71059 0.95497 0.52236 0.0
O220 O 0.83493 0.96263 0.60591 0.0
O221 O 0.79572 0.9523 0.48101 0.0
C222 C 0.75961 0.07272 0.71054 0.0
O223 O 0.71957 0.93611 0.72414 0.0
O224 O 0.79802 0.94123 0.71817 0.0
C225 C 0.80596 0.05126 0.28938 0.0
C226 C 0.80243 0.01571 0.11679 0.0
C227 C 0.84656 0.0268 0.1738 0.0
C228 C 0.84834 0.04444 0.26013 0.0
C229 C 0.7612 0.03802 0.23241 0.0
C230 C 0.76046 0.02211 0.14647 0.0
C231 C 0.80851 0.07296 0.37801 0.0
H232 H 0.71871 0.92724 1.04852 0.0
H233 H 0.69419 0.89952 0.89316 0.0
H234 H 0.85232 0.01664 0.83383 0.0
H235 H 0.87189 0.05378 0.98603 0.0
H236 H 0.87905 0.02139 0.15195 0.0
H237 H 0.88326 0.05371 0.30306 0.0
H238 H 0.72708 0.04076 0.25365 0.0
H239 H 0.72691 0.01433 0.10224 0.0
Tb240 Tb 0.65003 0.56406 0.85699 0.0
Eu241 Eu 0.712 0.59317 0.97476 0.0
C242 C 0.59745 0.48026 0.97006 0.0
C243 C 0.62097 0.60553 1.03913 0.0
C244 C 0.6345 0.54963 0.61928 0.0
C245 C 0.62429 0.54924 0.46316 0.0
C246 C 0.60291 0.54156 0.54321 0.0
C247 C 0.68801 0.56147 0.61394 0.0
C248 C 0.70946 0.56691 0.53281 0.0
C249 C 0.67788 0.56177 0.45604 0.0
C250 C 0.61041 0.54366 0.7028 0.0
O251 O 0.71828 0.64562 0.85273 0.0
O252 O 0.71788 0.64665 0.85462 0.0
O253 O 0.77935 0.60317 0.89835 0.0
O254 O 0.70754 0.52921 0.85007 0.0
C255 C 0.74535 0.65315 0.78238 0.0
O256 O 0.764 0.64859 0.08249 0.0
O257 O 0.74852 0.56712 1.06929 0.0
O258 O 0.65031 0.50141 0.98279 0.0
O259 O 0.58372 0.50803 0.92446 0.0
O260 O 0.60314 0.58385 0.95728 0.0
O261 O 0.67072 0.62201 1.0591 0.0
C262 C 0.76159 0.5584 0.85551 0.0
O263 O 0.61343 0.50918 0.75027 0.0
O264 O 0.62248 0.58743 0.74807 0.0
C265 C 0.74284 0.59856 0.20639 0.0
C266 C 0.70034 0.57093 0.36942 0.0
C267 C 0.75596 0.60242 0.36291 0.0
C268 C 0.77653 0.61665 0.2826 0.0
C269 C 0.68745 0.56461 0.21147 0.0
C270 C 0.66638 0.55071 0.29196 0.0
C271 C 0.76507 0.60986 0.12116 0.0
H272 H 0.59805 0.54559 0.40765 0.0
H273 H 0.56125 0.52874 0.54432 0.0
H274 H 0.71279 0.56543 0.67188 0.0
H275 H 0.75034 0.57445 0.53128 0.0
H276 H 0.78426 0.6188 0.4195 0.0
H277 H 0.8191 0.64075 0.2816 0.0
H278 H 0.6605 0.54774 0.15324 0.0
H279 H 0.6236 0.52348 0.2922 0.0
Tb280 Tb 0.45823 0.0994 0.88047 0.0
Eu281 Eu 0.43899 0.13124 0.99027 0.0
C282 C 0.56244 0.15953 0.95814 0.0
C283 C 0.40943 0.03229 1.05089 0.0
C284 C 0.46117 0.07082 0.65422 0.0
C285 C 0.50884 0.12734 0.53915 0.0
C286 C 0.50896 0.11092 0.62306 0.0
C287 C 0.41307 0.04965 0.60164 0.0
C288 C 0.41243 0.06835 0.52048 0.0
C289 C 0.46043 0.10602 0.48742 0.0
C290 C 0.46008 0.05284 0.74268 0.0
O291 O 0.38347 0.10207 0.85261 0.0
O292 O 0.37885 0.10061 0.85685 0.0
O293 O 0.43454 0.19595 0.93088 0.0
O294 O 0.48869 0.18552 0.84521 0.0
C295 C 0.37973 0.10596 0.76864 0.0
O296 O 0.3917 0.1286 0.09894 0.0
O297 O 0.47694 0.18939 0.10008 0.0
O298 O 0.52631 0.13808 1.01581 0.0
O299 O 0.54018 0.1617 0.8862 0.0
O300 O 0.45109 0.04831 1.00069 0.0
O301 O 0.38052 0.0529 1.03031 0.0
C302 C 0.4676 0.21507 0.87118 0.0
O303 O 0.50225 0.08162 0.79534 0.0
O304 O 0.41577 0.03748 0.78172 0.0
C305 C 0.44402 0.15085 0.23242 0.0
C306 C 0.45831 0.1243 0.40065 0.0
C307 C 0.42027 0.13963 0.38166 0.0
C308 C 0.41165 0.15036 0.2978 0.0
C309 C 0.48377 0.13699 0.25129 0.0
C310 C 0.49056 0.12327 0.33522 0.0
C311 C 0.4346 0.16484 0.1454 0.0
H312 H 0.54613 0.15753 0.51565 0.0
H313 H 0.54651 0.1297 0.66297 0.0
H314 H 0.3758 0.01845 0.62341 0.0
H315 H 0.37443 0.05213 0.48213 0.0
H316 H 0.39692 0.14291 0.43222 0.0
H317 H 0.37922 0.15785 0.28458 0.0
H318 H 0.5087 0.13588 0.20124 0.0
H319 H 0.51996 0.11102 0.34854 0.0
Tb320 Tb 0.92308 0.36875 0.85249 0.0
Eu321 Eu 0.89745 0.31964 0.98207 0.0
C322 C 0.87271 0.41461 0.95734 0.0
C323 C 0.99822 0.4131 1.05037 0.0
C324 C 0.92671 0.38461 0.62195 0.0
C325 C 0.92734 0.39483 0.46794 0.0
C326 C 0.94545 0.41601 0.55254 0.0
C327 C 0.88465 0.33233 0.60721 0.0
C328 C 0.86484 0.31086 0.52248 0.0
C329 C 0.88737 0.34154 0.45151 0.0
C330 C 0.9516 0.4068 0.70896 0.0
O331 O 0.92746 0.29558 0.85485 0.0
O332 O 0.92772 0.29796 0.85148 0.0
O333 O 0.81272 0.29521 0.93841 0.0
O334 O 0.84241 0.29344 0.81134 0.0
C335 C 0.94466 0.27286 0.79765 0.0
O336 O 0.91632 0.27363 1.07107 0.0
O337 O 0.83485 0.26055 1.05084 0.0
O338 O 0.89537 0.39901 1.01681 0.0
O339 O 0.86431 0.39038 0.88176 0.0
O340 O 0.99007 0.42266 0.96629 0.0
O341 O 0.96494 0.3679 1.07451 0.0
C342 C 0.8008 0.27301 0.86038 0.0
O343 O 0.92275 0.41812 0.75867 0.0
O344 O 0.97232 0.38203 0.74908 0.0
C345 C 0.87125 0.27743 0.1919 0.0
C346 C 0.87413 0.31749 0.36133 0.0
C347 C 0.86162 0.26497 0.34457 0.0
C348 C 0.86378 0.24659 0.26102 0.0
C349 C 0.87807 0.32811 0.2066 0.0
C350 C 0.88044 0.3484 0.29068 0.0
C351 C 0.86947 0.25696 0.10344 0.0
H352 H 0.94684 0.42002 0.41609 0.0
H353 H 0.97609 0.45636 0.56377 0.0
H354 H 0.86784 0.30779 0.66054 0.0
H355 H 0.83275 0.27015 0.5131 0.0
H356 H 0.85328 0.2388 0.39635 0.0
H357 H 0.86021 0.20866 0.24969 0.0
H358 H 0.88206 0.35229 0.15334 0.0
H359 H 0.88741 0.38826 0.2999 0.0
Tb360 Tb 0.70878 0.12917 0.97354 0.0
Eu361 Eu 0.65013 0.09978 0.85309 0.0
C362 C 0.74844 0.10723 0.77577 0.0
C363 C 0.76269 0.21445 0.85759 0.0
C364 C 0.72792 0.1524 0.20535 0.0
C365 C 0.73404 0.13826 0.35756 0.0
C366 C 0.75361 0.14336 0.27566 0.0
C367 C 0.67894 0.15143 0.21652 0.0
C368 C 0.65745 0.14322 0.29772 0.0
C369 C 0.68541 0.13737 0.3695 0.0
C370 C 0.75258 0.16338 0.12147 0.0
O371 O 0.63373 0.13599 1.00173 0.0
O372 O 0.63214 0.16428 0.87548 0.0
O373 O 0.60081 0.04186 0.96727 0.0
O374 O 0.67799 0.05394 1.02335 0.0
C375 C 0.61494 0.15957 0.95172 0.0
O376 O 0.589 0.08724 0.7518 0.0
O377 O 0.63459 0.04824 0.73614 0.0
O378 O 0.72517 0.09104 0.84851 0.0
O379 O 0.72491 0.08902 0.85186 0.0
O380 O 0.77538 0.19013 0.91336 0.0
O381 O 0.71099 0.18967 0.82997 0.0
C382 C 0.62686 0.03101 1.03044 0.0
O383 O 0.7544 0.1243 1.0796 0.0
O384 O 0.73795 0.18979 1.07074 0.0
C385 C 0.6226 0.08837 0.61576 0.0
C386 C 0.66283 0.12657 0.45549 0.0
C387 C 0.60736 0.09326 0.4616 0.0
C388 C 0.58761 0.07411 0.54118 0.0
C389 C 0.6769 0.1268 0.61163 0.0
C390 C 0.69712 0.14525 0.53209 0.0
C391 C 0.60367 0.06288 0.69717 0.0
H392 H 0.75664 0.13406 0.41134 0.0
H393 H 0.78865 0.13967 0.26746 0.0
H394 H 0.65729 0.15734 0.16314 0.0
H395 H 0.61972 0.14267 0.3045 0.0
H396 H 0.5796 0.07837 0.40412 0.0
H397 H 0.54545 0.04632 0.54257 0.0
H398 H 0.70404 0.14184 0.66934 0.0
H399 H 0.73978 0.17312 0.53046 0.0
Tb400 Tb 0.89837 0.58438 0.97751 0.0
Eu401 Eu 0.92492 0.55999 0.85294 0.0
C402 C 0.91585 0.65261 0.79229 0.0
C403 C 0.80049 0.53761 0.85981 0.0
C404 C 0.88383 0.60871 0.19256 0.0
C405 C 0.84711 0.55388 0.31401 0.0
C406 C 0.84066 0.56641 0.22981 0.0
C407 C 0.93542 0.63231 0.2358 0.0
C408 C 0.94274 0.61612 0.31602 0.0
C409 C 0.89816 0.57952 0.35771 0.0
C410 C 0.87672 0.62224 0.10361 0.0
O411 O 0.89514 0.50729 1.01203 0.0
O412 O 0.86575 0.4779 0.8773 0.0
O413 O 0.99193 0.56983 0.968 0.0
O414 O 0.96026 0.5979 1.07375 0.0
C415 C 0.87317 0.46629 0.95445 0.0
O416 O 0.92191 0.5116 0.74002 0.0
O417 O 0.98182 0.5948 0.7525 0.0
O418 O 0.93652 0.64247 0.8615 0.0
O419 O 0.93744 0.64207 0.86449 0.0
O420 O 0.81404 0.53181 0.93749 0.0
O421 O 0.84134 0.55454 0.80968 0.0
C422 C 0.99636 0.5871 1.05258 0.0
O423 O 0.92057 0.65078 1.06369 0.0
O424 O 0.84031 0.58262 1.0531 0.0
C425 C 0.93821 0.55698 0.61391 0.0
C426 C 0.90647 0.56695 0.44532 0.0
C427 C 0.9413 0.5473 0.4584 0.0
C428 C 0.95762 0.54353 0.54195 0.0
C429 C 0.89944 0.57262 0.60097 0.0
C430 C 0.88428 0.57864 0.51653 0.0
C431 C 0.95684 0.55181 0.70093 0.0
H432 H 0.81277 0.52359 0.34409 0.0
H433 H 0.80134 0.54402 0.19529 0.0
H434 H 0.97038 0.66293 0.20749 0.0
H435 H 0.98298 0.6342 0.34762 0.0
H436 H 0.95683 0.53601 0.40366 0.0
H437 H 0.98553 0.53024 0.54955 0.0
H438 H 0.8814 0.58052 0.65538 0.0
H439 H 0.85656 0.59339 0.50693 0.0
Tb440 Tb 0.44328 0.32008 0.9719 0.0
Eu441 Eu 0.45804 0.36552 0.85225 0.0
C442 C 0.36737 0.27165 0.76936 0.0
C443 C 0.48956 0.27317 0.8612 0.0
C444 C 0.43063 0.27864 0.17977 0.0
C445 C 0.40623 0.26583 0.32717 0.0
C446 C 0.39561 0.24898 0.23954 0.0
C447 C 0.47544 0.32804 0.20624 0.0
C448 C 0.4847 0.34674 0.293 0.0
C449 C 0.44958 0.31591 0.35464 0.0
C450 C 0.41905 0.25943 0.08895 0.0
O451 O 0.51627 0.40083 1.01285 0.0
O452 O 0.54604 0.39963 0.88711 0.0
O453 O 0.44064 0.41808 0.96054 0.0
O454 O 0.42485 0.36414 1.06645 0.0
C455 C 0.55787 0.42214 0.96443 0.0
O456 O 0.50486 0.41252 0.75014 0.0
O457 O 0.41838 0.38142 0.74254 0.0
O458 O 0.37715 0.29046 0.85022 0.0
O459 O 0.3752 0.29025 0.8553 0.0
O460 O 0.50409 0.30117 0.93405 0.0
O461 O 0.4635 0.28906 0.81019 0.0
C462 C 0.42752 0.40699 1.04348 0.0
O463 O 0.38286 0.26652 1.04692 0.0
O464 O 0.46206 0.27329 1.04701 0.0
C465 C 0.45936 0.37877 0.61421 0.0
C466 C 0.4557 0.33723 0.44533 0.0
C467 C 0.47763 0.39166 0.46334 0.0
C468 C 0.48006 0.4117 0.54707 0.0
C469 C 0.44096 0.32479 0.59844 0.0
C470 C 0.43836 0.30388 0.5144 0.0
C471 C 0.46233 0.40232 0.70112 0.0
H472 H 0.38007 0.23988 0.37252 0.0
H473 H 0.36051 0.21282 0.21659 0.0
H474 H 0.50294 0.35247 0.15992 0.0
H475 H 0.51969 0.38495 0.31119 0.0
H476 H 0.49209 0.41924 0.41307 0.0
H477 H 0.49868 0.45305 0.55916 0.0
H478 H 0.4302 0.29893 0.65045 0.0
H479 H 0.42375 0.26197 0.50439 0.0
Tb480 Tb 0.37192 0.92562 0.29729 0.0
Eu481 Eu 0.31275 0.89311 0.17506 0.0
C482 C 0.41037 0.86686 0.20309 0.0
C483 C 0.39015 0.99475 0.12565 0.0
C484 C 0.40363 0.93949 0.52797 0.0
C485 C 0.41933 0.93727 0.68324 0.0
C486 C 0.43858 0.95638 0.60311 0.0
C487 C 0.35089 0.89789 0.53231 0.0
C488 C 0.33122 0.87916 0.61189 0.0
C489 C 0.36432 0.90129 0.68949 0.0
C490 C 0.42103 0.96416 0.44509 0.0
O491 O 0.2976 0.93069 0.30688 0.0
O492 O 0.29698 0.93308 0.30394 0.0
O493 O 0.24552 0.83141 0.24027 0.0
O494 O 0.31392 0.83956 0.32491 0.0
C495 C 0.27569 0.91488 0.38104 0.0
O496 O 0.26875 0.90005 1.0623 0.0
O497 O 0.27856 0.83079 1.07077 0.0
O498 O 0.39132 0.88721 0.14704 0.0
O499 O 0.39195 0.86483 0.27793 0.0
O500 O 0.41603 0.98013 0.18349 0.0
O501 O 0.33934 0.97256 0.13474 0.0
C502 C 0.26147 0.81211 0.30069 0.0
O503 O 0.43348 0.93834 0.38968 0.0
O504 O 0.38974 0.97871 0.40691 0.0
C505 C 0.29277 0.87008 0.9365 0.0
C506 C 0.34041 0.8897 0.7753 0.0
C507 C 0.28632 0.87623 0.78086 0.0
C508 C 0.26317 0.86663 0.85999 0.0
C509 C 0.34741 0.88496 0.93244 0.0
C510 C 0.37099 0.89435 0.85261 0.0
C511 C 0.26717 0.85944 1.02005 0.0
H512 H 0.44723 0.95362 0.74034 0.0
H513 H 0.48018 0.98584 0.60148 0.0
H514 H 0.32438 0.8801 0.47462 0.0
H515 H 0.28968 0.84792 0.61206 0.0
H516 H 0.26143 0.87418 0.72443 0.0
H517 H 0.22207 0.85716 0.85975 0.0
H518 H 0.37193 0.88909 0.99052 0.0
H519 H 0.41277 0.90448 0.85204 0.0
Tb520 Tb 0.12665 0.43442 0.21588 0.0
Eu521 Eu 0.11037 0.46818 0.32867 0.0
C522 C 0.231 0.49109 0.29497 0.0
C523 C 0.07959 0.36972 0.39437 0.0
C524 C 0.14204 0.42103 0.99187 0.0
C525 C 0.17164 0.42585 0.84623 0.0
C526 C 0.16634 0.40704 0.92894 0.0
C527 C 0.13012 0.46114 0.97632 0.0
C528 C 0.13521 0.48063 0.89424 0.0
C529 C 0.15458 0.46168 0.82785 0.0
C530 C 0.13009 0.39378 1.07299 0.0
O531 O 0.04921 0.43354 0.19701 0.0
O532 O 0.04695 0.43162 0.19981 0.0
O533 O 0.10268 0.5308 0.26807 0.0
O534 O 0.15982 0.5221 0.18797 0.0
C535 C 0.04236 0.44986 0.12147 0.0
O536 O 0.07205 0.47602 0.44173 0.0
O537 O 0.1593 0.52884 0.43071 0.0
O538 O 0.19412 0.46787 0.35053 0.0
O539 O 0.20928 0.49682 0.22519 0.0
O540 O 0.11541 0.3794 0.33342 0.0
O541 O 0.05379 0.3946 0.38282 0.0
C542 C 0.13753 0.55101 0.21122 0.0
O543 O 0.16937 0.41222 0.13332 0.0
O544 O 0.08476 0.38329 0.10414 0.0
C545 C 0.13047 0.49297 0.56735 0.0
C546 C 0.14829 0.47239 0.73758 0.0
C547 C 0.09717 0.46062 0.70592 0.0
C548 C 0.08801 0.46829 0.62083 0.0
C549 C 0.18208 0.50304 0.59733 0.0
C550 C 0.19066 0.49151 0.68204 0.0
C551 C 0.11947 0.5083 0.48235 0.0
H552 H 0.18564 0.41017 0.79528 0.0
H553 H 0.17998 0.38086 0.94594 0.0
H554 H 0.11714 0.47767 1.02652 0.0
H555 H 0.12239 0.50907 0.88169 0.0
H556 H 0.06442 0.44549 0.74782 0.0
H557 H 0.04782 0.45643 0.59792 0.0
H558 H 0.21555 0.52002 0.5562 0.0
H559 H 0.23031 0.49918 0.70505 0.0
Tb560 Tb 0.56831 0.66353 0.29429 0.0
Eu561 Eu 0.5755 0.70575 0.17535 0.0
C562 C 0.46463 0.60303 0.18877 0.0
C563 C 0.59112 0.62067 0.10411 0.0
C564 C 0.56501 0.64978 0.52459 0.0
C565 C 0.54959 0.63755 0.67643 0.0
C566 C 0.54836 0.61773 0.59307 0.0
C567 C 0.57794 0.70253 0.53843 0.0
C568 C 0.57858 0.72323 0.62175 0.0
C569 C 0.56531 0.69094 0.69219 0.0
C570 C 0.56374 0.62593 0.43866 0.0
O571 O 0.6468 0.7355 0.29944 0.0
O572 O 0.64899 0.73576 0.2939 0.0
O573 O 0.5146 0.72659 0.21922 0.0
O574 O 0.5624 0.73668 0.33608 0.0
C575 C 0.658 0.75465 0.38013 0.0
O576 O 0.63693 0.75018 0.08649 0.0
O577 O 0.56643 0.75976 0.09598 0.0
O578 O 0.50146 0.62271 0.13317 0.0
O579 O 0.48219 0.62882 0.26356 0.0
O580 O 0.59927 0.62507 0.19172 0.0
O581 O 0.56753 0.64482 1.07583 0.0
C582 C 0.53317 0.75287 0.29343 0.0
O583 O 0.52161 0.61425 0.38775 0.0
O584 O 0.60779 0.64812 0.39841 0.0
C585 C 0.59004 0.74887 0.95761 0.0
C586 C 0.56956 0.71257 0.78202 0.0
C587 C 0.60901 0.76483 0.80771 0.0
C588 C 0.6192 0.78209 0.89508 0.0
C589 C 0.54648 0.69864 0.9318 0.0
C590 C 0.53667 0.68026 0.84466 0.0
C591 C 0.60596 0.766 1.04949 0.0
H592 H 0.53874 0.61076 0.72794 0.0
H593 H 0.53328 0.57713 0.58119 0.0
H594 H 0.58612 0.7276 0.48583 0.0
H595 H 0.58862 0.76409 0.63019 0.0
H596 H 0.63373 0.79198 0.76159 0.0
H597 H 0.64976 0.82117 0.91485 0.0
H598 H 0.52025 0.67344 0.97856 0.0
H599 H 0.50361 0.64075 0.82696 0.0
Tb600 Tb 0.37965 0.46235 0.31259 0.0
Eu601 Eu 0.31881 0.42855 0.18876 0.0
C602 C 0.41864 0.44174 0.1121 0.0
C603 C 0.42822 0.54521 0.19232 0.0
C604 C 0.40616 0.4912 0.54403 0.0
C605 C 0.41602 0.48707 0.7001 0.0
C606 C 0.43736 0.49562 0.61947 0.0
C607 C 0.35201 0.47712 0.55113 0.0
C608 C 0.3303 0.46867 0.63213 0.0
C609 C 0.36217 0.4732 0.70766 0.0
C610 C 0.42899 0.49968 0.45819 0.0
O611 O 0.30382 0.46859 0.33893 0.0
O612 O 0.29582 0.48933 0.20749 0.0
O613 O 0.27154 0.37154 0.30437 0.0
O614 O 0.34962 0.38731 0.36482 0.0
C615 C 0.28175 0.48802 0.28541 0.0
O616 O 0.25841 0.41373 0.0836 0.0
O617 O 0.30692 0.37695 1.07368 0.0
O618 O 0.39672 0.42529 0.18571 0.0
O619 O 0.39654 0.42335 0.18933 0.0
O620 O 0.44336 0.52373 0.24983 0.0
O621 O 0.37658 0.51847 0.16492 0.0
C622 C 0.2981 0.36217 0.36899 0.0
O623 O 0.42603 0.45802 0.41737 0.0
O624 O 0.4146 0.52594 0.40679 0.0
C625 C 0.29706 0.41666 0.9509 0.0
C626 C 0.33856 0.45841 0.79248 0.0
C627 C 0.28566 0.41704 0.79467 0.0
C628 C 0.26593 0.39598 0.87276 0.0
C629 C 0.34859 0.46125 0.95043 0.0
C630 C 0.36962 0.48156 0.87172 0.0
C631 C 0.27638 0.39089 1.03165 0.0
H632 H 0.44156 0.48938 0.75592 0.0
H633 H 0.47809 0.50454 0.61799 0.0
H634 H 0.32626 0.47249 0.49448 0.0
H635 H 0.28857 0.45846 0.63511 0.0
H636 H 0.26009 0.39844 0.73556 0.0
H637 H 0.2265 0.36192 0.87105 0.0
H638 H 0.37299 0.47987 1.01018 0.0
H639 H 0.4102 0.51486 0.87308 0.0
Tb640 Tb 0.58413 0.89347 0.17067 0.0
Eu641 Eu 0.56581 0.92891 0.2814 0.0
C642 C 0.65161 0.92005 0.37721 0.0
C643 C 0.55509 0.81107 0.28888 0.0
C644 C 0.58051 0.87171 0.93708 0.0
C645 C 0.61248 0.93814 0.83208 0.0
C646 C 0.61611 0.92305 0.91494 0.0
C647 C 0.54024 0.83594 0.87516 0.0
C648 C 0.53667 0.85095 0.79134 0.0
C649 C 0.57317 0.90221 0.76863 0.0
C650 C 0.58494 0.85538 1.02439 0.0
O651 O 0.50077 0.88794 0.1476 0.0
O652 O 0.48201 0.8633 0.27684 0.0
O653 O 0.56998 0.98224 0.1602 0.0
O654 O 0.63194 0.96682 0.11628 0.0
C655 C 0.46262 0.86607 0.20243 0.0
O656 O 0.5259 0.95004 0.37757 0.0
O657 O 0.61273 0.98959 0.38719 0.0
O658 O 0.64537 0.92947 0.29664 0.0
O659 O 0.64779 0.93118 0.29219 0.0
O660 O 0.58882 0.8318 0.23091 0.0
O661 O 0.533 0.83932 0.31559 0.0
C662 C 0.60585 0.99113 0.10124 0.0
O663 O 0.62866 0.88716 1.07342 0.0
O664 O 0.54128 0.83629 1.06743 0.0
C665 C 0.56901 0.95677 0.51539 0.0
C666 C 0.5712 0.91854 0.67937 0.0
C667 C 0.52202 0.89973 0.62984 0.0
C668 C 0.52114 0.91773 0.54753 0.0
C669 C 0.61777 0.97524 0.56474 0.0
C670 C 0.61903 0.95492 0.64398 0.0
C671 C 0.56953 0.97607 0.42851 0.0
H672 H 0.64101 0.97812 0.81843 0.0
H673 H 0.64805 0.95151 0.96054 0.0
H674 H 0.51216 0.79615 0.89124 0.0
H675 H 0.50617 0.82198 0.7441 0.0
H676 H 0.48417 0.87187 0.65485 0.0
H677 H 0.48289 0.90156 0.50981 0.0
H678 H 0.65522 0.00561 0.54199 0.0
H679 H 0.65767 0.96951 0.67877 0.0
Tb680 Tb 0.11247 0.65193 0.32366 0.0
Eu681 Eu 0.12515 0.69938 0.20328 0.0
C682 C 0.03805 0.59292 0.12569 0.0
C683 C 0.16159 0.60969 0.20779 0.0
C684 C 0.10714 0.61388 0.53617 0.0
C685 C 0.0929 0.59982 0.68778 0.0
C686 C 0.08536 0.58014 0.60195 0.0
C687 C 0.14147 0.66788 0.55763 0.0
C688 C 0.15056 0.68802 0.64355 0.0
C689 C 0.12511 0.65444 0.71038 0.0
C690 C 0.09402 0.59384 0.44498 0.0
O691 O 0.18479 0.73467 0.35743 0.0
O692 O 0.21243 0.72814 0.23278 0.0
O693 O 0.10717 0.7493 0.3159 0.0
O694 O 0.08642 0.69086 0.41544 0.0
C695 C 0.22578 0.75411 0.30726 0.0
O696 O 0.16812 0.75474 0.10703 0.0
O697 O 0.08067 0.70847 0.09335 0.0
O698 O 0.04735 0.62094 0.19965 0.0
O699 O 0.04688 0.62188 0.20319 0.0
O700 O 0.17311 0.6336 0.28409 0.0
O701 O 0.13897 0.62879 0.15583 0.0
C702 C 0.09123 0.73517 0.39668 0.0
O703 O 0.0562 0.59921 0.40445 0.0
O704 O 0.13622 0.60903 0.40025 0.0
C705 C 0.12811 0.71559 0.96969 0.0
C706 C 0.13029 0.67607 0.80165 0.0
C707 C 0.1502 0.73036 0.82083 0.0
C708 C 0.14981 0.74935 0.90427 0.0
C709 C 0.11329 0.66261 0.95427 0.0
C710 C 0.11416 0.6428 0.87125 0.0
C711 C 0.12487 0.73677 1.055 0.0
H712 H 0.07157 0.57144 0.73448 0.0
H713 H 0.06079 0.53853 0.5866 0.0
H714 H 0.16158 0.69475 0.50815 0.0
H715 H 0.17793 0.72986 0.65555 0.0
H716 H 0.16493 0.75903 0.77258 0.0
H717 H 0.16634 0.79044 0.91796 0.0
H718 H 0.10191 0.6366 1.00609 0.0
H719 H 0.10252 0.60159 0.86356 0.0
loop_
_geom_bond_atom_site_label_1
_geom_bond_atom_site_label_2
_geom_bond_distance
_geom_bond_site_symmetry_2
_ccdc_geom_bond_type
Tb0 C10 2.825 . S
Tb0 O11 2.347 1_455 S
Tb0 O14 2.366 1_455 S
Tb0 O19 2.418 . S
Tb0 O20 2.384 . S
Tb0 O23 2.479 . S
Tb0 O24 2.471 . S
Eu1 O12 2.418 . S
Eu1 O13 2.384 . S
Eu1 O16 2.479 . S
Eu1 O17 2.471 1_655 S
Eu1 O18 2.347 1_655 S
Eu1 O21 2.366 1_655 S
Eu1 C31 2.825 . S
C2 O18 1.259 . S
C2 O19 1.265 . S
C3 O20 1.255 . S
C3 O21 1.265 . S
C4 C6 1.380 . S
C4 C7 1.374 1_455 S
C4 C10 1.507 . S
C5 C6 1.384 . S
C5 C9 1.387 . S
C5 H32 0.930 . S
C6 C4 1.380 . S
C6 C5 1.384 . S
C6 H33 0.931 . S
C7 C4 1.374 1_655 S
C7 C8 1.390 . S
C7 H34 0.930 . S
C8 C7 1.390 . S
C8 C9 1.391 1_655 S
C8 H35 0.930 . S
C9 C5 1.387 . S
C9 C8 1.391 1_455 S
C10 Tb0 2.825 . S
C10 C4 1.507 . S
C10 O23 1.238 . S
C10 O24 1.247 . S
O11 Tb0 2.347 1_655 S
O11 C15 1.259 . S
O12 Eu1 2.418 . S
O12 C15 1.265 . S
O13 Eu1 2.384 . S
O13 C22 1.255 . S
O14 Tb0 2.366 1_655 S
O14 C22 1.265 . S
C15 O11 1.259 . S
C15 O12 1.265 . S
O16 Eu1 2.479 . S
O16 C31 1.238 . S
O17 Eu1 2.471 1_455 S
O17 C31 1.247 1_455 S
O18 Eu1 2.347 1_455 S
O18 C2 1.259 . S
O19 Tb0 2.418 . S
O19 C2 1.265 . S
O20 Tb0 2.384 . S
O20 C3 1.255 . S
O21 Eu1 2.366 1_455 S
O21 C3 1.265 . S
C22 O13 1.255 . S
C22 O14 1.265 . S
O23 Tb0 2.479 . S
O23 C10 1.238 . S
O24 Tb0 2.471 . S
O24 C10 1.247 . S
C25 C28 1.380 . S
C25 C29 1.374 1_655 S
C25 C31 1.507 . S
C26 C27 1.387 . S
C26 C30 1.391 1_655 S
C27 C26 1.387 . S
C27 C28 1.384 . S
C27 H36 0.930 . S
C28 C25 1.380 . S
C28 C27 1.384 . S
C28 H37 0.931 . S
C29 C25 1.374 1_455 S
C29 C30 1.390 . S
C29 H38 0.930 . S
C30 C26 1.391 1_455 S
C30 C29 1.390 . S
C30 H39 0.930 . S
C31 Eu1 2.825 . S
C31 O16 1.238 . S
C31 O17 1.247 1_655 S
C31 C25 1.507 . S
H32 C5 0.930 . S
H33 C6 0.931 . S
H34 C7 0.930 . S
H35 C8 0.930 . S
H36 C27 0.930 . S
H37 C28 0.931 . S
H38 C29 0.930 . S
H39 C30 0.930 . S
Tb40 C50 2.825 . S
Tb40 O51 2.347 . S
Tb40 O54 2.366 . S
Tb40 O59 2.418 . S
Tb40 O60 2.384 . S
Tb40 O63 2.479 . S
Tb40 O64 2.471 . S
Eu41 O52 2.418 . S
Eu41 O53 2.384 . S
Eu41 O56 2.479 . S
Eu41 O57 2.471 . S
Eu41 O58 2.347 . S
Eu41 O61 2.366 . S
Eu41 C71 2.825 . S
C42 O58 1.259 . S
C42 O59 1.265 . S
C43 O60 1.255 . S
C43 O61 1.265 . S
C44 C46 1.380 . S
C44 C47 1.374 . S
C44 C50 1.507 . S
C45 C46 1.384 . S
C45 C49 1.387 . S
C45 H72 0.930 . S
C46 C44 1.380 . S
C46 C45 1.384 . S
C46 H73 0.931 . S
C47 C44 1.374 . S
C47 C48 1.390 . S
C47 H74 0.930 . S
C48 C47 1.390 . S
C48 C49 1.391 . S
C48 H75 0.930 . S
C49 C45 1.387 . S
C49 C48 1.391 . S
C50 Tb40 2.825 . S
C50 C44 1.507 . S
C50 O63 1.238 . S
C50 O64 1.247 . S
O51 Tb40 2.347 . S
O51 C55 1.259 . S
O52 Eu41 2.418 . S
O52 C55 1.265 . S
O53 Eu41 2.384 . S
O53 C62 1.255 . S
O54 Tb40 2.366 . S
O54 C62 1.265 . S
C55 O51 1.259 . S
C55 O52 1.265 . S
O56 Eu41 2.479 . S
O56 C71 1.238 . S
O57 Eu41 2.471 . S
O57 C71 1.247 . S
O58 Eu41 2.347 . S
O58 C42 1.259 . S
O59 Tb40 2.418 . S
O59 C42 1.265 . S
O60 Tb40 2.384 . S
O60 C43 1.255 . S
O61 Eu41 2.366 . S
O61 C43 1.265 . S
C62 O53 1.255 . S
C62 O54 1.265 . S
O63 Tb40 2.479 . S
O63 C50 1.238 . S
O64 Tb40 2.471 . S
O64 C50 1.247 . S
C65 C68 1.380 . S
C65 C69 1.374 . S
C65 C71 1.507 . S
C66 C67 1.387 . S
C66 C70 1.391 . S
C67 C66 1.387 . S
C67 C68 1.384 . S
C67 H76 0.930 . S
C68 C65 1.380 . S
C68 C67 1.384 . S
C68 H77 0.931 . S
C69 C65 1.374 . S
C69 C70 1.390 . S
C69 H78 0.930 . S
C70 C66 1.391 . S
C70 C69 1.390 . S
C70 H79 0.930 . S
C71 Eu41 2.825 . S
C71 O56 1.238 . S
C71 O57 1.247 . S
C71 C65 1.507 . S
H72 C45 0.930 . S
H73 C46 0.931 . S
H74 C47 0.930 . S
H75 C48 0.930 . S
H76 C67 0.930 . S
H77 C68 0.931 . S
H78 C69 0.930 . S
H79 C70 0.930 . S
Tb80 C90 2.825 . S
Tb80 O91 2.347 1_565 S
Tb80 O94 2.366 1_565 S
Tb80 O99 2.418 . S
Tb80 O100 2.384 . S
Tb80 O103 2.479 . S
Tb80 O104 2.471 1_565 S
Eu81 O92 2.418 . S
Eu81 O93 2.384 . S
Eu81 O96 2.479 . S
Eu81 O97 2.471 . S
Eu81 O98 2.347 1_545 S
Eu81 O101 2.366 1_545 S
Eu81 C111 2.825 . S
C82 O98 1.259 . S
C82 O99 1.265 . S
C83 O100 1.255 . S
C83 O101 1.265 . S
C84 C86 1.380 . S
C84 C87 1.374 1_565 S
C84 C90 1.507 . S
C85 C86 1.384 . S
C85 C89 1.387 1_565 S
C85 H112 0.930 . S
C86 C84 1.380 . S
C86 C85 1.384 . S
C86 H113 0.931 . S
C87 C84 1.374 1_545 S
C87 C88 1.390 . S
C87 H114 0.930 . S
C88 C87 1.390 . S
C88 C89 1.391 . S
C88 H115 0.930 . S
C89 C85 1.387 1_545 S
C89 C88 1.391 . S
C90 Tb80 2.825 . S
C90 C84 1.507 . S
C90 O103 1.238 . S
C90 O104 1.247 1_565 S
O91 Tb80 2.347 1_545 S
O91 C95 1.259 . S
O92 Eu81 2.418 . S
O92 C95 1.265 . S
O93 Eu81 2.384 . S
O93 C102 1.255 . S
O94 Tb80 2.366 1_545 S
O94 C102 1.265 . S
C95 O91 1.259 . S
C95 O92 1.265 . S
O96 Eu81 2.479 . S
O96 C111 1.238 . S
O97 Eu81 2.471 . S
O97 C111 1.247 . S
O98 Eu81 2.347 1_565 S
O98 C82 1.259 . S
O99 Tb80 2.418 . S
O99 C82 1.265 . S
O100 Tb80 2.384 . S
O100 C83 1.255 . S
O101 Eu81 2.366 1_565 S
O101 C83 1.265 . S
C102 O93 1.255 . S
C102 O94 1.265 . S
O103 Tb80 2.479 . S
O103 C90 1.238 . S
O104 Tb80 2.471 1_545 S
O104 C90 1.247 1_545 S
C105 C108 1.380 . S
C105 C109 1.374 1_545 S
C105 C111 1.507 . S
C106 C107 1.387 . S
C106 C110 1.391 1_545 S
C107 C106 1.387 . S
C107 C108 1.384 . S
C107 H116 0.930 . S
C108 C105 1.380 . S
C108 C107 1.384 . S
C108 H117 0.931 . S
C109 C105 1.374 1_565 S
C109 C110 1.390 . S
C109 H118 0.930 . S
C110 C106 1.391 1_565 S
C110 C109 1.390 . S
C110 H119 0.930 . S
C111 Eu81 2.825 . S
C111 O96 1.238 . S
C111 O97 1.247 . S
C111 C105 1.507 . S
H112 C85 0.930 . S
H113 C86 0.931 . S
H114 C87 0.930 . S
H115 C88 0.930 . S
H116 C107 0.930 . S
H117 C108 0.931 . S
H118 C109 0.930 . S
H119 C110 0.930 . S
Tb120 C130 2.825 . S
Tb120 O131 2.347 1_455 S
Tb120 O134 2.366 1_455 S
Tb120 O139 2.418 . S
Tb120 O140 2.384 . S
Tb120 O143 2.479 . S
Tb120 O144 2.471 . S
Eu121 O132 2.418 . S
Eu121 O133 2.384 . S
Eu121 O136 2.479 . S
Eu121 O137 2.472 1_655 S
Eu121 O138 2.347 1_655 S
Eu121 O141 2.366 1_655 S
Eu121 C151 2.825 . S
C122 O138 1.259 . S
C122 O139 1.265 . S
C123 O140 1.255 . S
C123 O141 1.265 . S
C124 C126 1.380 . S
C124 C127 1.374 1_455 S
C124 C130 1.507 . S
C125 C126 1.384 . S
C125 C129 1.387 1_556 S
C125 H152 0.934 . S
C126 C124 1.380 . S
C126 C125 1.384 . S
C126 H153 0.931 . S
C127 C124 1.374 1_655 S
C127 C128 1.390 . S
C127 H154 0.930 . S
C128 C127 1.390 . S
C128 C129 1.391 1_656 S
C128 H155 0.930 . S
C129 C125 1.387 1_554 S
C129 C128 1.391 1_454 S
C130 Tb120 2.825 . S
C130 C124 1.507 . S
C130 O143 1.238 . S
C130 O144 1.247 . S
O131 Tb120 2.347 1_655 S
O131 C135 1.259 . S
O132 Eu121 2.418 . S
O132 C135 1.265 . S
O133 Eu121 2.384 . S
O133 C142 1.255 . S
O134 Tb120 2.366 1_655 S
O134 C142 1.265 . S
C135 O131 1.259 . S
C135 O132 1.265 . S
O136 Eu121 2.479 . S
O136 C151 1.238 . S
O137 Eu121 2.472 1_455 S
O137 C151 1.249 1_455 S
O138 Eu121 2.347 1_455 S
O138 C122 1.259 . S
O139 Tb120 2.418 . S
O139 C122 1.265 . S
O140 Tb120 2.384 . S
O140 C123 1.255 . S
O141 Eu121 2.366 1_455 S
O141 C123 1.265 . S
C142 O133 1.255 . S
C142 O134 1.265 . S
O143 Tb120 2.479 . S
O143 C130 1.238 . S
O144 Tb120 2.471 . S
O144 C130 1.247 . S
C145 C148 1.380 . S
C145 C149 1.374 1_655 S
C145 C151 1.507 . S
C146 C147 1.387 . S
C146 C150 1.391 1_655 S
C147 C146 1.387 . S
C147 C148 1.384 . S
C147 H156 0.930 . S
C148 C145 1.380 . S
C148 C147 1.384 . S
C148 H157 0.931 . S
C149 C145 1.374 1_455 S
C149 C150 1.390 . S
C149 H158 0.930 . S
C150 C146 1.391 1_455 S
C150 C149 1.390 . S
C150 H159 0.930 . S
C151 Eu121 2.825 . S
C151 O136 1.238 . S
C151 O137 1.249 1_655 S
C151 C145 1.507 . S
H152 C125 0.934 . S
H153 C126 0.931 . S
H154 C127 0.930 . S
H155 C128 0.930 . S
H156 C147 0.930 . S
H157 C148 0.931 . S
H158 C149 0.930 . S
H159 C150 0.930 . S
Tb160 C170 2.825 . S
Tb160 O171 2.347 . S
Tb160 O174 2.366 . S
Tb160 O179 2.418 . S
Tb160 O180 2.384 . S
Tb160 O183 2.479 . S
Tb160 O184 2.471 . S
Eu161 O172 2.418 . S
Eu161 O173 2.384 . S
Eu161 O176 2.479 . S
Eu161 O177 2.471 . S
Eu161 O178 2.347 . S
Eu161 O181 2.366 . S
Eu161 C191 2.825 . S
C162 O178 1.259 . S
C162 O179 1.265 . S
C163 O180 1.255 . S
C163 O181 1.265 . S
C164 C166 1.380 . S
C164 C167 1.374 . S
C164 C170 1.507 . S
C165 C166 1.384 . S
C165 C169 1.387 . S
C165 H192 0.930 . S
C166 C164 1.380 . S
C166 C165 1.384 . S
C166 H193 0.931 . S
C167 C164 1.374 . S
C167 C168 1.390 . S
C167 H194 0.930 . S
C168 C167 1.390 . S
C168 C169 1.391 . S
C168 H195 0.930 . S
C169 C165 1.387 . S
C169 C168 1.391 . S
C170 Tb160 2.825 . S
C170 C164 1.507 . S
C170 O183 1.238 . S
C170 O184 1.247 . S
O171 Tb160 2.347 . S
O171 C175 1.259 . S
O172 Eu161 2.418 . S
O172 C175 1.265 . S
O173 Eu161 2.384 . S
O173 C182 1.255 . S
O174 Tb160 2.366 . S
O174 C182 1.265 . S
C175 O171 1.259 . S
C175 O172 1.265 . S
O176 Eu161 2.479 . S
O176 C191 1.238 . S
O177 Eu161 2.471 . S
O177 C191 1.247 . S
O178 Eu161 2.347 . S
O178 C162 1.259 . S
O179 Tb160 2.418 . S
O179 C162 1.265 . S
O180 Tb160 2.384 . S
O180 C163 1.255 . S
O181 Eu161 2.366 . S
O181 C163 1.265 . S
C182 O173 1.255 . S
C182 O174 1.265 . S
O183 Tb160 2.479 . S
O183 C170 1.238 . S
O184 Tb160 2.471 . S
O184 C170 1.247 . S
C185 C188 1.380 . S
C185 C189 1.374 . S
C185 C191 1.507 . S
C186 C187 1.387 1_554 S
C186 C190 1.391 1_554 S
C187 C186 1.387 1_556 S
C187 C188 1.384 . S
C187 H196 0.930 . S
C188 C185 1.380 . S
C188 C187 1.384 . S
C188 H197 0.931 . S
C189 C185 1.374 . S
C189 C190 1.390 . S
C189 H198 0.930 . S
C190 C186 1.391 1_556 S
C190 C189 1.390 . S
C190 H199 0.930 . S
C191 Eu161 2.825 . S
C191 O176 1.238 . S
C191 O177 1.247 . S
C191 C185 1.507 . S
H192 C165 0.930 . S
H193 C166 0.931 . S
H194 C167 0.930 . S
H195 C168 0.930 . S
H196 C187 0.930 . S
H197 C188 0.931 . S
H198 C189 0.930 . S
H199 C190 0.930 . S
Tb200 C210 2.825 . S
Tb200 O211 2.347 1_565 S
Tb200 O214 2.366 1_565 S
Tb200 O219 2.418 . S
Tb200 O220 2.384 . S
Tb200 O223 2.479 . S
Tb200 O224 2.471 1_565 S
Eu201 O212 2.418 . S
Eu201 O213 2.384 . S
Eu201 O216 2.479 . S
Eu201 O217 2.471 . S
Eu201 O218 2.347 1_545 S
Eu201 O221 2.366 1_545 S
Eu201 C231 2.825 . S
C202 O218 1.259 . S
C202 O219 1.265 . S
C203 O220 1.255 . S
C203 O221 1.265 . S
C204 C206 1.380 . S
C204 C207 1.374 1_565 S
C204 C210 1.507 . S
C205 C206 1.384 . S
C205 C209 1.387 1_565 S
C205 H232 0.930 . S
C206 C204 1.380 . S
C206 C205 1.384 . S
C206 H233 0.931 . S
C207 C204 1.374 1_545 S
C207 C208 1.390 . S
C207 H234 0.930 . S
C208 C207 1.390 . S
C208 C209 1.391 . S
C208 H235 0.930 . S
C209 C205 1.387 1_545 S
C209 C208 1.391 . S
C210 Tb200 2.825 . S
C210 C204 1.507 . S
C210 O223 1.238 . S
C210 O224 1.247 1_565 S
O211 Tb200 2.347 1_545 S
O211 C215 1.259 . S
O212 Eu201 2.418 . S
O212 C215 1.265 . S
O213 Eu201 2.384 . S
O213 C222 1.255 . S
O214 Tb200 2.366 1_545 S
O214 C222 1.265 . S
C215 O211 1.259 . S
C215 O212 1.265 . S
O216 Eu201 2.479 . S
O216 C231 1.238 . S
O217 Eu201 2.471 . S
O217 C231 1.247 . S
O218 Eu201 2.347 1_565 S
O218 C202 1.259 . S
O219 Tb200 2.418 . S
O219 C202 1.265 . S
O220 Tb200 2.384 . S
O220 C203 1.255 . S
O221 Eu201 2.366 1_565 S
O221 C203 1.265 . S
C222 O213 1.255 . S
C222 O214 1.265 . S
O223 Tb200 2.479 . S
O223 C210 1.238 . S
O224 Tb200 2.471 1_545 S
O224 C210 1.247 1_545 S
C225 C228 1.380 . S
C225 C229 1.374 1_545 S
C225 C231 1.507 . S
C226 C227 1.387 . S
C226 C230 1.391 1_545 S
C227 C226 1.387 . S
C227 C228 1.384 . S
C227 H236 0.930 . S
C228 C225 1.380 . S
C228 C227 1.384 . S
C228 H237 0.931 . S
C229 C225 1.374 1_565 S
C229 C230 1.390 . S
C229 H238 0.930 . S
C230 C226 1.391 1_565 S
C230 C229 1.390 . S
C230 H239 0.930 . S
C231 Eu201 2.825 . S
C231 O216 1.238 . S
C231 O217 1.247 . S
C231 C225 1.507 . S
H232 C205 0.930 . S
H233 C206 0.931 . S
H234 C207 0.930 . S
H235 C208 0.930 . S
H236 C227 0.930 . S
H237 C228 0.931 . S
H238 C229 0.930 . S
H239 C230 0.930 . S
Tb240 C250 2.825 . S
Tb240 O251 2.347 . S
Tb240 O254 2.366 . S
Tb240 O259 2.418 . S
Tb240 O260 2.384 . S
Tb240 O263 2.479 . S
Tb240 O264 2.471 . S
Eu241 O252 2.418 . S
Eu241 O253 2.384 . S
Eu241 O256 2.479 1_556 S
Eu241 O257 2.471 1_556 S
Eu241 O258 2.347 . S
Eu241 O261 2.366 . S
Eu241 C271 2.825 1_556 S
C242 O258 1.259 . S
C242 O259 1.265 . S
C243 O260 1.255 . S
C243 O261 1.265 . S
C244 C246 1.380 . S
C244 C247 1.374 . S
C244 C250 1.507 . S
C245 C246 1.384 . S
C245 C249 1.387 . S
C245 H272 0.930 . S
C246 C244 1.380 . S
C246 C245 1.384 . S
C246 H273 0.931 . S
C247 C244 1.374 . S
C247 C248 1.390 . S
C247 H274 0.930 . S
C248 C247 1.390 . S
C248 C249 1.391 . S
C248 H275 0.930 . S
C249 C245 1.387 . S
C249 C248 1.391 . S
C250 Tb240 2.825 . S
C250 C244 1.507 . S
C250 O263 1.238 . S
C250 O264 1.247 . S
O251 Tb240 2.347 . S
O251 C255 1.259 . S
O252 Eu241 2.418 . S
O252 C255 1.265 . S
O253 Eu241 2.384 . S
O253 C262 1.255 . S
O254 Tb240 2.366 . S
O254 C262 1.265 . S
C255 O251 1.259 . S
C255 O252 1.265 . S
O256 Eu241 2.479 1_554 S
O256 C271 1.238 . S
O257 Eu241 2.471 1_554 S
O257 C271 1.247 . S
O258 Eu241 2.347 . S
O258 C242 1.259 . S
O259 Tb240 2.418 . S
O259 C242 1.265 . S
O260 Tb240 2.384 . S
O260 C243 1.255 . S
O261 Eu241 2.366 . S
O261 C243 1.265 . S
C262 O253 1.255 . S
C262 O254 1.265 . S
O263 Tb240 2.479 . S
O263 C250 1.238 . S
O264 Tb240 2.471 . S
O264 C250 1.247 . S
C265 C268 1.380 . S
C265 C269 1.374 . S
C265 C271 1.507 . S
C266 C267 1.387 . S
C266 C270 1.391 . S
C267 C266 1.387 . S
C267 C268 1.384 . S
C267 H276 0.930 . S
C268 C265 1.380 . S
C268 C267 1.384 . S
C268 H277 0.931 . S
C269 C265 1.374 . S
C269 C270 1.390 . S
C269 H278 0.930 . S
C270 C266 1.391 . S
C270 C269 1.390 . S
C270 H279 0.930 . S
C271 Eu241 2.825 1_554 S
C271 O256 1.238 . S
C271 O257 1.247 . S
C271 C265 1.507 . S
H272 C245 0.930 . S
H273 C246 0.931 . S
H274 C247 0.930 . S
H275 C248 0.930 . S
H276 C267 0.930 . S
H277 C268 0.931 . S
H278 C269 0.930 . S
H279 C270 0.930 . S
Tb280 C290 2.825 . S
Tb280 O291 2.347 . S
Tb280 O294 2.366 . S
Tb280 O299 2.418 . S
Tb280 O300 2.384 . S
Tb280 O303 2.479 . S
Tb280 O304 2.471 . S
Eu281 O292 2.418 . S
Eu281 O293 2.384 . S
Eu281 O296 2.479 . S
Eu281 O297 2.471 1_556 S
Eu281 O298 2.347 . S
Eu281 O301 2.366 . S
Eu281 C311 2.825 1_556 S
C282 O298 1.259 . S
C282 O299 1.265 . S
C283 O300 1.255 . S
C283 O301 1.265 . S
C284 C286 1.380 . S
C284 C287 1.374 . S
C284 C290 1.507 . S
C285 C286 1.384 . S
C285 C289 1.387 . S
C285 H312 0.930 . S
C286 C284 1.380 . S
C286 C285 1.384 . S
C286 H313 0.931 . S
C287 C284 1.374 . S
C287 C288 1.390 . S
C287 H314 0.930 . S
C288 C287 1.390 . S
C288 C289 1.391 . S
C288 H315 0.930 . S
C289 C285 1.387 . S
C289 C288 1.391 . S
C290 Tb280 2.825 . S
C290 C284 1.507 . S
C290 O303 1.238 . S
C290 O304 1.247 . S
O291 Tb280 2.347 . S
O291 C295 1.259 . S
O292 Eu281 2.418 . S
O292 C295 1.265 . S
O293 Eu281 2.384 . S
O293 C302 1.255 . S
O294 Tb280 2.366 . S
O294 C302 1.265 . S
C295 O291 1.259 . S
C295 O292 1.265 . S
O296 Eu281 2.479 . S
O296 C311 1.238 1_556 S
O297 Eu281 2.471 1_554 S
O297 C311 1.247 . S
O298 Eu281 2.347 . S
O298 C282 1.259 . S
O299 Tb280 2.418 . S
O299 C282 1.265 . S
O300 Tb280 2.384 . S
O300 C283 1.255 . S
O301 Eu281 2.366 . S
O301 C283 1.265 . S
C302 O293 1.255 . S
C302 O294 1.265 . S
O303 Tb280 2.479 . S
O303 C290 1.238 . S
O304 Tb280 2.471 . S
O304 C290 1.247 . S
C305 C308 1.380 . S
C305 C309 1.374 . S
C305 C311 1.507 . S
C306 C307 1.387 . S
C306 C310 1.391 . S
C307 C306 1.387 . S
C307 C308 1.384 . S
C307 H316 0.930 . S
C308 C305 1.380 . S
C308 C307 1.384 . S
C308 H317 0.931 . S
C309 C305 1.374 . S
C309 C310 1.390 . S
C309 H318 0.930 . S
C310 C306 1.391 . S
C310 C309 1.390 . S
C310 H319 0.930 . S
C311 Eu281 2.825 1_554 S
C311 O296 1.238 1_554 S
C311 O297 1.247 . S
C311 C305 1.507 . S
H312 C285 0.930 . S
H313 C286 0.931 . S
H314 C287 0.930 . S
H315 C288 0.930 . S
H316 C307 0.930 . S
H317 C308 0.931 . S
H318 C309 0.930 . S
H319 C310 0.930 . S
Tb320 C330 2.825 . S
Tb320 O331 2.347 . S
Tb320 O334 2.366 . S
Tb320 O339 2.418 . S
Tb320 O340 2.384 . S
Tb320 O343 2.479 . S
Tb320 O344 2.471 . S
Eu321 O332 2.418 . S
Eu321 O333 2.384 . S
Eu321 O336 2.479 1_556 S
Eu321 O337 2.471 1_556 S
Eu321 O338 2.347 . S
Eu321 O341 2.366 . S
Eu321 C351 2.825 1_556 S
C322 O338 1.259 . S
C322 O339 1.265 . S
C323 O340 1.255 1_455 S
C323 O341 1.265 1_455 S
C324 C326 1.380 . S
C324 C327 1.374 . S
C324 C330 1.507 . S
C325 C326 1.384 . S
C325 C329 1.387 . S
C325 H352 0.930 . S
C326 C324 1.380 . S
C326 C325 1.384 . S
C326 H353 0.931 . S
C327 C324 1.374 . S
C327 C328 1.390 . S
C327 H354 0.930 . S
C328 C327 1.390 . S
C328 C329 1.391 . S
C328 H355 0.930 . S
C329 C325 1.387 . S
C329 C328 1.391 . S
C330 Tb320 2.825 . S
C330 C324 1.507 . S
C330 O343 1.238 . S
C330 O344 1.247 . S
O331 Tb320 2.347 . S
O331 C335 1.259 . S
O332 Eu321 2.418 . S
O332 C335 1.265 . S
O333 Eu321 2.384 . S
O333 C342 1.255 . S
O334 Tb320 2.366 . S
O334 C342 1.265 . S
C335 O331 1.259 . S
C335 O332 1.265 . S
O336 Eu321 2.479 1_554 S
O336 C351 1.238 . S
O337 Eu321 2.471 1_554 S
O337 C351 1.247 . S
O338 Eu321 2.347 . S
O338 C322 1.259 . S
O339 Tb320 2.418 . S
O339 C322 1.265 . S
O340 Tb320 2.384 . S
O340 C323 1.255 1_655 S
O341 Eu321 2.366 . S
O341 C323 1.265 1_655 S
C342 O333 1.255 . S
C342 O334 1.265 . S
O343 Tb320 2.479 . S
O343 C330 1.238 . S
O344 Tb320 2.471 . S
O344 C330 1.247 . S
C345 C348 1.380 . S
C345 C349 1.374 . S
C345 C351 1.507 . S
C346 C347 1.387 . S
C346 C350 1.391 . S
C347 C346 1.387 . S
C347 C348 1.384 . S
C347 H356 0.930 . S
C348 C345 1.380 . S
C348 C347 1.384 . S
C348 H357 0.931 . S
C349 C345 1.374 . S
C349 C350 1.390 . S
C349 H358 0.930 . S
C350 C346 1.391 . S
C350 C349 1.390 . S
C350 H359 0.930 . S
C351 Eu321 2.825 1_554 S
C351 O336 1.238 . S
C351 O337 1.247 . S
C351 C345 1.507 . S
H352 C325 0.930 . S
H353 C326 0.931 . S
H354 C327 0.930 . S
H355 C328 0.930 . S
H356 C347 0.930 . S
H357 C348 0.931 . S
H358 C349 0.930 . S
H359 C350 0.930 . S
Tb360 C370 2.825 1_556 S
Tb360 O371 2.347 . S
Tb360 O374 2.366 . S
Tb360 O379 2.418 . S
Tb360 O380 2.384 . S
Tb360 O383 2.479 1_556 S
Tb360 O384 2.471 1_556 S
Eu361 O372 2.418 . S
Eu361 O373 2.384 . S
Eu361 O376 2.479 . S
Eu361 O377 2.471 . S
Eu361 O378 2.347 . S
Eu361 O381 2.366 . S
Eu361 C391 2.825 . S
C362 O378 1.259 . S
C362 O379 1.265 . S
C363 O380 1.255 . S
C363 O381 1.265 . S
C364 C366 1.380 . S
C364 C367 1.374 . S
C364 C370 1.507 . S
C365 C366 1.384 . S
C365 C369 1.387 . S
C365 H392 0.930 . S
C366 C364 1.380 . S
C366 C365 1.384 . S
C366 H393 0.931 . S
C367 C364 1.374 . S
C367 C368 1.390 . S
C367 H394 0.930 . S
C368 C367 1.390 . S
C368 C369 1.391 . S
C368 H395 0.930 . S
C369 C365 1.387 . S
C369 C368 1.391 . S
C370 Tb360 2.825 1_554 S
C370 C364 1.507 . S
C370 O383 1.238 . S
C370 O384 1.247 . S
O371 Tb360 2.347 . S
O371 C375 1.259 . S
O372 Eu361 2.418 . S
O372 C375 1.265 . S
O373 Eu361 2.384 . S
O373 C382 1.255 . S
O374 Tb360 2.366 . S
O374 C382 1.265 . S
C375 O371 1.259 . S
C375 O372 1.265 . S
O376 Eu361 2.479 . S
O376 C391 1.238 . S
O377 Eu361 2.471 . S
O377 C391 1.247 . S
O378 Eu361 2.347 . S
O378 C362 1.259 . S
O379 Tb360 2.418 . S
O379 C362 1.265 . S
O380 Tb360 2.384 . S
O380 C363 1.255 . S
O381 Eu361 2.366 . S
O381 C363 1.265 . S
C382 O373 1.255 . S
C382 O374 1.265 . S
O383 Tb360 2.479 1_554 S
O383 C370 1.238 . S
O384 Tb360 2.471 1_554 S
O384 C370 1.247 . S
C385 C388 1.380 . S
C385 C389 1.374 . S
C385 C391 1.507 . S
C386 C387 1.387 . S
C386 C390 1.391 . S
C387 C386 1.387 . S
C387 C388 1.384 . S
C387 H396 0.930 . S
C388 C385 1.380 . S
C388 C387 1.384 . S
C388 H397 0.931 . S
C389 C385 1.374 . S
C389 C390 1.390 . S
C389 H398 0.930 . S
C390 C386 1.391 . S
C390 C389 1.390 . S
C390 H399 0.930 . S
C391 Eu361 2.825 . S
C391 O376 1.238 . S
C391 O377 1.247 . S
C391 C385 1.507 . S
H392 C365 0.930 . S
H393 C366 0.931 . S
H394 C367 0.930 . S
H395 C368 0.930 . S
H396 C387 0.930 . S
H397 C388 0.931 . S
H398 C389 0.930 . S
H399 C390 0.930 . S
Tb400 C410 2.825 1_556 S
Tb400 O411 2.347 . S
Tb400 O414 2.366 . S
Tb400 O419 2.418 . S
Tb400 O420 2.384 . S
Tb400 O423 2.479 1_556 S
Tb400 O424 2.471 1_556 S
Eu401 O412 2.418 . S
Eu401 O413 2.383 1_655 S
Eu401 O416 2.479 . S
Eu401 O417 2.471 . S
Eu401 O418 2.347 . S
Eu401 O421 2.366 . S
Eu401 C431 2.825 . S
C402 O418 1.259 . S
C402 O419 1.265 . S
C403 O420 1.255 . S
C403 O421 1.265 . S
C404 C406 1.380 . S
C404 C407 1.374 . S
C404 C410 1.507 . S
C405 C406 1.384 . S
C405 C409 1.387 . S
C405 H432 0.930 . S
C406 C404 1.380 . S
C406 C405 1.384 . S
C406 H433 0.931 . S
C407 C404 1.374 . S
C407 C408 1.390 . S
C407 H434 0.930 . S
C408 C407 1.390 . S
C408 C409 1.391 . S
C408 H435 0.930 . S
C409 C405 1.387 . S
C409 C408 1.391 . S
C410 Tb400 2.825 1_554 S
C410 C404 1.507 . S
C410 O423 1.238 . S
C410 O424 1.247 . S
O411 Tb400 2.347 . S
O411 C415 1.259 . S
O412 Eu401 2.418 . S
O412 C415 1.265 . S
O413 Eu401 2.383 1_455 S
O413 C422 1.255 . S
O414 Tb400 2.366 . S
O414 C422 1.265 1_655 S
C415 O411 1.259 . S
C415 O412 1.265 . S
O416 Eu401 2.479 . S
O416 C431 1.238 . S
O417 Eu401 2.471 . S
O417 C431 1.247 . S
O418 Eu401 2.347 . S
O418 C402 1.259 . S
O419 Tb400 2.418 . S
O419 C402 1.265 . S
O420 Tb400 2.384 . S
O420 C403 1.255 . S
O421 Eu401 2.366 . S
O421 C403 1.265 . S
C422 O413 1.255 . S
C422 O414 1.265 1_455 S
O423 Tb400 2.479 1_554 S
O423 C410 1.238 . S
O424 Tb400 2.471 1_554 S
O424 C410 1.247 . S
C425 C428 1.380 . S
C425 C429 1.374 . S
C425 C431 1.507 . S
C426 C427 1.387 . S
C426 C430 1.391 . S
C427 C426 1.387 . S
C427 C428 1.384 . S
C427 H436 0.930 . S
C428 C425 1.380 . S
C428 C427 1.384 . S
C428 H437 0.931 . S
C429 C425 1.374 . S
C429 C430 1.390 . S
C429 H438 0.930 . S
C430 C426 1.391 . S
C430 C429 1.390 . S
C430 H439 0.930 . S
C431 Eu401 2.825 . S
C431 O416 1.238 . S
C431 O417 1.247 . S
C431 C425 1.507 . S
H432 C405 0.930 . S
H433 C406 0.931 . S
H434 C407 0.930 . S
H435 C408 0.930 . S
H436 C427 0.930 . S
H437 C428 0.931 . S
H438 C429 0.930 . S
H439 C430 0.930 . S
Tb440 C450 2.825 1_556 S
Tb440 O451 2.347 . S
Tb440 O454 2.366 . S
Tb440 O459 2.418 . S
Tb440 O460 2.384 . S
Tb440 O463 2.479 1_556 S
Tb440 O464 2.471 1_556 S
Eu441 O452 2.418 . S
Eu441 O453 2.384 . S
Eu441 O456 2.479 . S
Eu441 O457 2.471 . S
Eu441 O458 2.347 . S
Eu441 O461 2.366 . S
Eu441 C471 2.825 . S
C442 O458 1.259 . S
C442 O459 1.265 . S
C443 O460 1.255 . S
C443 O461 1.265 . S
C444 C446 1.380 . S
C444 C447 1.374 . S
C444 C450 1.507 . S
C445 C446 1.384 . S
C445 C449 1.387 . S
C445 H472 0.930 . S
C446 C444 1.380 . S
C446 C445 1.384 . S
C446 H473 0.931 . S
C447 C444 1.374 . S
C447 C448 1.390 . S
C447 H474 0.930 . S
C448 C447 1.390 . S
C448 C449 1.391 . S
C448 H475 0.930 . S
C449 C445 1.387 . S
C449 C448 1.391 . S
C450 Tb440 2.825 1_554 S
C450 C444 1.507 . S
C450 O463 1.238 . S
C450 O464 1.247 . S
O451 Tb440 2.347 . S
O451 C455 1.259 . S
O452 Eu441 2.418 . S
O452 C455 1.265 . S
O453 Eu441 2.384 . S
O453 C462 1.255 . S
O454 Tb440 2.366 . S
O454 C462 1.265 . S
C455 O451 1.259 . S
C455 O452 1.265 . S
O456 Eu441 2.479 . S
O456 C471 1.238 . S
O457 Eu441 2.471 . S
O457 C471 1.247 . S
O458 Eu441 2.347 . S
O458 C442 1.259 . S
O459 Tb440 2.418 . S
O459 C442 1.265 . S
O460 Tb440 2.384 . S
O460 C443 1.255 . S
O461 Eu441 2.366 . S
O461 C443 1.265 . S
C462 O453 1.255 . S
C462 O454 1.265 . S
O463 Tb440 2.479 1_554 S
O463 C450 1.238 . S
O464 Tb440 2.471 1_554 S
O464 C450 1.247 . S
C465 C468 1.380 . S
C465 C469 1.374 . S
C465 C471 1.507 . S
C466 C467 1.387 . S
C466 C470 1.391 . S
C467 C466 1.387 . S
C467 C468 1.384 . S
C467 H476 0.930 . S
C468 C465 1.380 . S
C468 C467 1.384 . S
C468 H477 0.931 . S
C469 C465 1.374 . S
C469 C470 1.390 . S
C469 H478 0.930 . S
C470 C466 1.391 . S
C470 C469 1.390 . S
C470 H479 0.930 . S
C471 Eu441 2.825 . S
C471 O456 1.238 . S
C471 O457 1.247 . S
C471 C465 1.507 . S
H472 C445 0.930 . S
H473 C446 0.931 . S
H474 C447 0.930 . S
H475 C448 0.930 . S
H476 C467 0.930 . S
H477 C468 0.931 . S
H478 C469 0.930 . S
H479 C470 0.930 . S
Tb480 C490 2.825 . S
Tb480 O491 2.347 . S
Tb480 O494 2.366 . S
Tb480 O499 2.418 . S
Tb480 O500 2.384 1_565 S
Tb480 O503 2.479 . S
Tb480 O504 2.471 . S
Eu481 O492 2.418 . S
Eu481 O493 2.384 . S
Eu481 O496 2.479 1_554 S
Eu481 O497 2.471 1_554 S
Eu481 O498 2.347 . S
Eu481 O501 2.366 . S
Eu481 C511 2.825 1_554 S
C482 O498 1.259 . S
C482 O499 1.265 . S
C483 O500 1.255 . S
C483 O501 1.265 1_545 S
C484 C486 1.380 . S
C484 C487 1.374 . S
C484 C490 1.507 . S
C485 C486 1.384 . S
C485 C489 1.387 . S
C485 H512 0.930 . S
C486 C484 1.380 . S
C486 C485 1.384 . S
C486 H513 0.931 . S
C487 C484 1.374 . S
C487 C488 1.390 . S
C487 H514 0.930 . S
C488 C487 1.390 . S
C488 C489 1.391 . S
C488 H515 0.930 . S
C489 C485 1.387 . S
C489 C488 1.391 . S
C490 Tb480 2.825 . S
C490 C484 1.507 . S
C490 O503 1.238 . S
C490 O504 1.247 . S
O491 Tb480 2.347 . S
O491 C495 1.259 . S
O492 Eu481 2.418 . S
O492 C495 1.265 . S
O493 Eu481 2.384 . S
O493 C502 1.255 . S
O494 Tb480 2.366 . S
O494 C502 1.265 . S
C495 O491 1.259 . S
C495 O492 1.265 . S
O496 Eu481 2.479 1_556 S
O496 C511 1.238 . S
O497 Eu481 2.471 1_556 S
O497 C511 1.247 . S
O498 Eu481 2.347 . S
O498 C482 1.259 . S
O499 Tb480 2.418 . S
O499 C482 1.265 . S
O500 Tb480 2.384 1_545 S
O500 C483 1.255 . S
O501 Eu481 2.366 . S
O501 C483 1.265 1_565 S
C502 O493 1.255 . S
C502 O494 1.265 . S
O503 Tb480 2.479 . S
O503 C490 1.238 . S
O504 Tb480 2.471 . S
O504 C490 1.247 . S
C505 C508 1.380 . S
C505 C509 1.374 . S
C505 C511 1.507 . S
C506 C507 1.387 . S
C506 C510 1.391 . S
C507 C506 1.387 . S
C507 C508 1.384 . S
C507 H516 0.930 . S
C508 C505 1.380 . S
C508 C507 1.384 . S
C508 H517 0.931 . S
C509 C505 1.374 . S
C509 C510 1.390 . S
C509 H518 0.930 . S
C510 C506 1.391 . S
C510 C509 1.390 . S
C510 H519 0.930 . S
C511 Eu481 2.825 1_556 S
C511 O496 1.238 . S
C511 O497 1.247 . S
C511 C505 1.507 . S
H512 C485 0.930 . S
H513 C486 0.931 . S
H514 C487 0.930 . S
H515 C488 0.930 . S
H516 C507 0.930 . S
H517 C508 0.931 . S
H518 C509 0.930 . S
H519 C510 0.930 . S
Tb520 C530 2.825 1_554 S
Tb520 O531 2.347 . S
Tb520 O534 2.366 . S
Tb520 O539 2.418 . S
Tb520 O540 2.384 . S
Tb520 O543 2.479 1_554 S
Tb520 O544 2.471 1_554 S
Eu521 O532 2.418 . S
Eu521 O533 2.384 . S
Eu521 O536 2.479 . S
Eu521 O537 2.471 . S
Eu521 O538 2.347 . S
Eu521 O541 2.366 . S
Eu521 C551 2.825 . S
C522 O538 1.259 . S
C522 O539 1.265 . S
C523 O540 1.255 . S
C523 O541 1.265 . S
C524 C526 1.380 . S
C524 C527 1.374 . S
C524 C530 1.507 . S
C525 C526 1.384 . S
C525 C529 1.387 . S
C525 H552 0.930 . S
C526 C524 1.380 . S
C526 C525 1.384 . S
C526 H553 0.931 . S
C527 C524 1.374 . S
C527 C528 1.390 . S
C527 H554 0.930 . S
C528 C527 1.390 . S
C528 C529 1.391 . S
C528 H555 0.930 . S
C529 C525 1.387 . S
C529 C528 1.391 . S
C530 Tb520 2.825 1_556 S
C530 C524 1.507 . S
C530 O543 1.238 . S
C530 O544 1.247 . S
O531 Tb520 2.347 . S
O531 C535 1.259 . S
O532 Eu521 2.418 . S
O532 C535 1.265 . S
O533 Eu521 2.384 . S
O533 C542 1.255 . S
O534 Tb520 2.366 . S
O534 C542 1.265 . S
C535 O531 1.259 . S
C535 O532 1.265 . S
O536 Eu521 2.479 . S
O536 C551 1.238 . S
O537 Eu521 2.471 . S
O537 C551 1.247 . S
O538 Eu521 2.347 . S
O538 C522 1.259 . S
O539 Tb520 2.418 . S
O539 C522 1.265 . S
O540 Tb520 2.384 . S
O540 C523 1.255 . S
O541 Eu521 2.366 . S
O541 C523 1.265 . S
C542 O533 1.255 . S
C542 O534 1.265 . S
O543 Tb520 2.479 1_556 S
O543 C530 1.238 . S
O544 Tb520 2.471 1_556 S
O544 C530 1.247 . S
C545 C548 1.380 . S
C545 C549 1.374 . S
C545 C551 1.507 . S
C546 C547 1.387 . S
C546 C550 1.391 . S
C547 C546 1.387 . S
C547 C548 1.384 . S
C547 H556 0.930 . S
C548 C545 1.380 . S
C548 C547 1.384 . S
C548 H557 0.931 . S
C549 C545 1.374 . S
C549 C550 1.390 . S
C549 H558 0.930 . S
C550 C546 1.391 . S
C550 C549 1.390 . S
C550 H559 0.930 . S
C551 Eu521 2.825 . S
C551 O536 1.238 . S
C551 O537 1.247 . S
C551 C545 1.507 . S
H552 C525 0.930 . S
H553 C526 0.931 . S
H554 C527 0.930 . S
H555 C528 0.930 . S
H556 C547 0.930 . S
H557 C548 0.931 . S
H558 C549 0.930 . S
H559 C550 0.930 . S
Tb560 C570 2.825 . S
Tb560 O571 2.347 . S
Tb560 O574 2.366 . S
Tb560 O579 2.418 . S
Tb560 O580 2.384 . S
Tb560 O583 2.479 . S
Tb560 O584 2.471 . S
Eu561 O572 2.418 . S
Eu561 O573 2.384 . S
Eu561 O576 2.479 1_554 S
Eu561 O577 2.471 1_554 S
Eu561 O578 2.347 . S
Eu561 O581 2.366 . S
Eu561 C591 2.825 1_554 S
C562 O578 1.259 . S
C562 O579 1.265 . S
C563 O580 1.255 . S
C563 O581 1.265 . S
C564 C566 1.380 . S
C564 C567 1.374 . S
C564 C570 1.507 . S
C565 C566 1.384 . S
C565 C569 1.387 . S
C565 H592 0.930 . S
C566 C564 1.380 . S
C566 C565 1.384 . S
C566 H593 0.931 . S
C567 C564 1.374 . S
C567 C568 1.390 . S
C567 H594 0.930 . S
C568 C567 1.390 . S
C568 C569 1.391 . S
C568 H595 0.930 . S
C569 C565 1.387 . S
C569 C568 1.391 . S
C570 Tb560 2.825 . S
C570 C564 1.507 . S
C570 O583 1.238 . S
C570 O584 1.247 . S
O571 Tb560 2.347 . S
O571 C575 1.259 . S
O572 Eu561 2.418 . S
O572 C575 1.265 . S
O573 Eu561 2.384 . S
O573 C582 1.255 . S
O574 Tb560 2.366 . S
O574 C582 1.265 . S
C575 O571 1.259 . S
C575 O572 1.265 . S
O576 Eu561 2.479 1_556 S
O576 C591 1.238 . S
O577 Eu561 2.471 1_556 S
O577 C591 1.247 . S
O578 Eu561 2.347 . S
O578 C562 1.259 . S
O579 Tb560 2.418 . S
O579 C562 1.265 . S
O580 Tb560 2.384 . S
O580 C563 1.255 . S
O581 Eu561 2.366 . S
O581 C563 1.265 . S
C582 O573 1.255 . S
C582 O574 1.265 . S
O583 Tb560 2.479 . S
O583 C570 1.238 . S
O584 Tb560 2.471 . S
O584 C570 1.247 . S
C585 C588 1.380 . S
C585 C589 1.374 . S
C585 C591 1.507 . S
C586 C587 1.387 . S
C586 C590 1.391 . S
C587 C586 1.387 . S
C587 C588 1.384 . S
C587 H596 0.930 . S
C588 C585 1.380 . S
C588 C587 1.384 . S
C588 H597 0.931 . S
C589 C585 1.374 . S
C589 C590 1.390 . S
C589 H598 0.930 . S
C590 C586 1.391 . S
C590 C589 1.390 . S
C590 H599 0.930 . S
C591 Eu561 2.825 1_556 S
C591 O576 1.238 . S
C591 O577 1.247 . S
C591 C585 1.507 . S
H592 C565 0.930 . S
H593 C566 0.931 . S
H594 C567 0.930 . S
H595 C568 0.930 . S
H596 C587 0.930 . S
H597 C588 0.931 . S
H598 C589 0.930 . S
H599 C590 0.930 . S
Tb600 C610 2.825 . S
Tb600 O611 2.347 . S
Tb600 O614 2.366 . S
Tb600 O619 2.418 . S
Tb600 O620 2.384 . S
Tb600 O623 2.479 . S
Tb600 O624 2.471 . S
Eu601 O612 2.418 . S
Eu601 O613 2.384 . S
Eu601 O616 2.479 1_554 S
Eu601 O617 2.471 1_554 S
Eu601 O618 2.347 . S
Eu601 O621 2.366 . S
Eu601 C631 2.825 1_554 S
C602 O618 1.259 . S
C602 O619 1.265 . S
C603 O620 1.255 . S
C603 O621 1.265 . S
C604 C606 1.380 . S
C604 C607 1.374 . S
C604 C610 1.507 . S
C605 C606 1.384 . S
C605 C609 1.387 . S
C605 H632 0.930 . S
C606 C604 1.380 . S
C606 C605 1.384 . S
C606 H633 0.931 . S
C607 C604 1.374 . S
C607 C608 1.390 . S
C607 H634 0.930 . S
C608 C607 1.390 . S
C608 C609 1.391 . S
C608 H635 0.930 . S
C609 C605 1.387 . S
C609 C608 1.391 . S
C610 Tb600 2.825 . S
C610 C604 1.507 . S
C610 O623 1.238 . S
C610 O624 1.247 . S
O611 Tb600 2.347 . S
O611 C615 1.259 . S
O612 Eu601 2.418 . S
O612 C615 1.265 . S
O613 Eu601 2.384 . S
O613 C622 1.255 . S
O614 Tb600 2.366 . S
O614 C622 1.265 . S
C615 O611 1.259 . S
C615 O612 1.265 . S
O616 Eu601 2.479 1_556 S
O616 C631 1.238 . S
O617 Eu601 2.471 1_556 S
O617 C631 1.247 . S
O618 Eu601 2.347 . S
O618 C602 1.259 . S
O619 Tb600 2.418 . S
O619 C602 1.265 . S
O620 Tb600 2.384 . S
O620 C603 1.255 . S
O621 Eu601 2.366 . S
O621 C603 1.265 . S
C622 O613 1.255 . S
C622 O614 1.265 . S
O623 Tb600 2.479 . S
O623 C610 1.238 . S
O624 Tb600 2.471 . S
O624 C610 1.247 . S
C625 C628 1.380 . S
C625 C629 1.374 . S
C625 C631 1.507 . S
C626 C627 1.387 . S
C626 C630 1.391 . S
C627 C626 1.387 . S
C627 C628 1.384 . S
C627 H636 0.930 . S
C628 C625 1.380 . S
C628 C627 1.384 . S
C628 H637 0.931 . S
C629 C625 1.374 . S
C629 C630 1.390 . S
C629 H638 0.930 . S
C630 C626 1.391 . S
C630 C629 1.390 . S
C630 H639 0.930 . S
C631 Eu601 2.825 1_556 S
C631 O616 1.238 . S
C631 O617 1.247 . S
C631 C625 1.507 . S
H632 C605 0.930 . S
H633 C606 0.931 . S
H634 C607 0.930 . S
H635 C608 0.930 . S
H636 C627 0.930 . S
H637 C628 0.931 . S
H638 C629 0.930 . S
H639 C630 0.930 . S
Tb640 C650 2.825 1_554 S
Tb640 O651 2.347 . S
Tb640 O654 2.366 . S
Tb640 O659 2.418 . S
Tb640 O660 2.384 . S
Tb640 O663 2.479 1_554 S
Tb640 O664 2.471 1_554 S
Eu641 O652 2.418 . S
Eu641 O653 2.384 1_565 S
Eu641 O656 2.479 . S
Eu641 O657 2.471 . S
Eu641 O658 2.347 . S
Eu641 O661 2.366 . S
Eu641 C671 2.825 . S
C642 O658 1.259 . S
C642 O659 1.265 . S
C643 O660 1.255 . S
C643 O661 1.265 . S
C644 C646 1.380 . S
C644 C647 1.374 . S
C644 C650 1.507 . S
C645 C646 1.384 . S
C645 C649 1.387 . S
C645 H672 0.930 . S
C646 C644 1.380 . S
C646 C645 1.384 . S
C646 H673 0.931 . S
C647 C644 1.374 . S
C647 C648 1.390 . S
C647 H674 0.930 . S
C648 C647 1.390 . S
C648 C649 1.391 . S
C648 H675 0.930 . S
C649 C645 1.387 . S
C649 C648 1.391 . S
C650 Tb640 2.825 1_556 S
C650 C644 1.507 . S
C650 O663 1.238 . S
C650 O664 1.247 . S
O651 Tb640 2.347 . S
O651 C655 1.259 . S
O652 Eu641 2.418 . S
O652 C655 1.265 . S
O653 Eu641 2.384 1_545 S
O653 C662 1.255 . S
O654 Tb640 2.366 . S
O654 C662 1.265 1_565 S
C655 O651 1.259 . S
C655 O652 1.265 . S
O656 Eu641 2.479 . S
O656 C671 1.238 . S
O657 Eu641 2.471 . S
O657 C671 1.247 . S
O658 Eu641 2.347 . S
O658 C642 1.259 . S
O659 Tb640 2.418 . S
O659 C642 1.265 . S
O660 Tb640 2.384 . S
O660 C643 1.255 . S
O661 Eu641 2.366 . S
O661 C643 1.265 . S
C662 O653 1.255 . S
C662 O654 1.265 1_545 S
O663 Tb640 2.479 1_556 S
O663 C650 1.238 . S
O664 Tb640 2.471 1_556 S
O664 C650 1.247 . S
C665 C668 1.380 . S
C665 C669 1.374 . S
C665 C671 1.507 . S
C666 C667 1.387 . S
C666 C670 1.391 . S
C667 C666 1.387 . S
C667 C668 1.384 . S
C667 H676 0.930 . S
C668 C665 1.380 . S
C668 C667 1.384 . S
C668 H677 0.931 . S
C669 C665 1.374 . S
C669 C670 1.390 . S
C669 H678 0.930 . S
C670 C666 1.391 . S
C670 C669 1.390 . S
C670 H679 0.930 . S
C671 Eu641 2.825 . S
C671 O656 1.238 . S
C671 O657 1.247 . S
C671 C665 1.507 . S
H672 C645 0.930 . S
H673 C646 0.931 . S
H674 C647 0.930 . S
H675 C648 0.930 . S
H676 C667 0.930 . S
H677 C668 0.931 . S
H678 C669 0.930 . S
H679 C670 0.930 . S
Tb680 C690 2.825 . S
Tb680 O691 2.347 . S
Tb680 O694 2.366 . S
Tb680 O699 2.418 . S
Tb680 O700 2.384 . S
Tb680 O703 2.479 . S
Tb680 O704 2.471 . S
Eu681 O692 2.418 . S
Eu681 O693 2.384 . S
Eu681 O696 2.479 1_554 S
Eu681 O697 2.471 1_554 S
Eu681 O698 2.347 . S
Eu681 O701 2.366 . S
Eu681 C711 2.825 1_554 S
C682 O698 1.259 . S
C682 O699 1.265 . S
C683 O700 1.255 . S
C683 O701 1.265 . S
C684 C686 1.380 . S
C684 C687 1.374 . S
C684 C690 1.507 . S
C685 C686 1.384 . S
C685 C689 1.387 . S
C685 H712 0.930 . S
C686 C684 1.380 . S
C686 C685 1.384 . S
C686 H713 0.931 . S
C687 C684 1.374 . S
C687 C688 1.390 . S
C687 H714 0.930 . S
C688 C687 1.390 . S
C688 C689 1.391 . S
C688 H715 0.930 . S
C689 C685 1.387 . S
C689 C688 1.391 . S
C690 Tb680 2.825 . S
C690 C684 1.507 . S
C690 O703 1.238 . S
C690 O704 1.247 . S
O691 Tb680 2.347 . S
O691 C695 1.259 . S
O692 Eu681 2.418 . S
O692 C695 1.265 . S
O693 Eu681 2.384 . S
O693 C702 1.255 . S
O694 Tb680 2.366 . S
O694 C702 1.265 . S
C695 O691 1.259 . S
C695 O692 1.265 . S
O696 Eu681 2.479 1_556 S
O696 C711 1.238 . S
O697 Eu681 2.471 1_556 S
O697 C711 1.247 . S
O698 Eu681 2.347 . S
O698 C682 1.259 . S
O699 Tb680 2.418 . S
O699 C682 1.265 . S
O700 Tb680 2.384 . S
O700 C683 1.255 . S
O701 Eu681 2.366 . S
O701 C683 1.265 . S
C702 O693 1.255 . S
C702 O694 1.265 . S
O703 Tb680 2.479 . S
O703 C690 1.238 . S
O704 Tb680 2.471 . S
O704 C690 1.247 . S
C705 C708 1.380 . S
C705 C709 1.374 . S
C705 C711 1.507 . S
C706 C707 1.387 . S
C706 C710 1.391 . S
C707 C706 1.387 . S
C707 C708 1.384 . S
C707 H716 0.930 . S
C708 C705 1.380 . S
C708 C707 1.384 . S
C708 H717 0.931 . S
C709 C705 1.374 . S
C709 C710 1.390 . S
C709 H718 0.930 . S
C710 C706 1.391 . S
C710 C709 1.390 . S
C710 H719 0.930 . S
C711 Eu681 2.825 1_556 S
C711 O696 1.238 . S
C711 O697 1.247 . S
C711 C705 1.507 . S
H712 C685 0.930 . S
H713 C686 0.931 . S
H714 C687 0.930 . S
H715 C688 0.930 . S
H716 C707 0.930 . S
H717 C708 0.931 . S
H718 C709 0.930 . S
H719 C710 0.930 . S
C523 C3 4.237 . S
C55 C575 4.261 . S
C83 C495 4.236 . S
C95 C295 4.065 . S
C335 C15 4.434 . S
C43 C255 4.364 . S
C142 C402 4.182 . S
C162 C442 3.849 . S
C362 C222 3.788 . S
C642 C202 4.278 . S
C122 C702 4.242 . S
C622 C182 4.250 . S
C323 C535 4.096 1_556 S
C243 C563 4.064 1_556 S
C283 C483 4.452 1_556 S
C382 C662 4.648 1_556 S
C682 C422 4.321 1_554 S
C602 C462 4.685 1_554 S
C2 C175 1.453 . S
C203 C62 2.409 . S
C123 C82 1.847 . S
C163 C102 2.477 . S
C215 C22 2.084 . S
C135 C42 1.652 . S
C403 C262 2.482 . S
C443 C302 2.616 . S
C363 C342 2.590 . S
C415 C322 1.587 . S
C455 C242 1.624 . S
C375 C282 1.474 . S
C655 C482 1.608 . S
C683 C542 2.437 . S
C562 C603 2.049 . S
C582 C643 2.651 . S
C502 C695 2.054 . S
C615 C522 1.611 . S
C26 C9 1.985 1_654 S
C49 C66 2.285 1_554 S
C106 C89 1.613 1_554 S
C129 C146 2.295 1_455 S
C169 C186 1.752 . S
C226 C209 2.277 1_554 S
C266 C249 3.036 . S
C289 C306 1.737 . S
C346 C329 2.792 . S
C369 C386 1.886 . S
C409 C426 2.753 . S
C449 C466 1.549 . S
C489 C506 1.977 . S
C529 C546 2.190 . S
C586 C569 1.784 . S
C626 C609 2.454 . S
C649 C666 1.864 . S
C689 C706 2.014 . S
