# Generated by pormake.
# Topology zfi, (5)-cn, num edge types: 1
# Building blocks:
#     Node 0, Type 0, BuildingBlock: XOMCOT_clean_sbu_0, # of connection points: 5
#     Node 1, Type 0, BuildingBlock: XOMCOT_clean_sbu_0, # of connection points: 5
#     Node 2, Type 0, BuildingBlock: XOMCOT_clean_sbu_0, # of connection points: 5
#     Node 3, Type 0, BuildingBlock: XOMCOT_clean_sbu_0, # of connection points: 5
#     Node 4, Type 0, BuildingBlock: XOMCOT_clean_sbu_0, # of connection points: 5
#     Node 5, Type 0, BuildingBlock: XOMCOT_clean_sbu_0, # of connection points: 5
#     Node 6, Type 0, BuildingBlock: XOMCOT_clean_sbu_0, # of connection points: 5
#     Node 7, Type 0, BuildingBlock: XOMCOT_clean_sbu_0, # of connection points: 5
#     Node 8, Type 0, BuildingBlock: XOMCOT_clean_sbu_0, # of connection points: 5
#     Node 9, Type 0, BuildingBlock: XOMCOT_clean_sbu_0, # of connection points: 5
#     Node 10, Type 0, BuildingBlock: XOMCOT_clean_sbu_0, # of connection points: 5
#     Node 11, Type 0, BuildingBlock: XOMCOT_clean_sbu_0, # of connection points: 5
#     Node 12, Type 0, BuildingBlock: XOMCOT_clean_sbu_0, # of connection points: 5
#     Node 13, Type 0, BuildingBlock: XOMCOT_clean_sbu_0, # of connection points: 5
#     Node 14, Type 0, BuildingBlock: XOMCOT_clean_sbu_0, # of connection points: 5
#     Node 15, Type 0, BuildingBlock: XOMCOT_clean_sbu_0, # of connection points: 5
#     Edge 16, Type (0, 0), BuildingBlock: TEMPAE_clean_linker_10, # of connection points: 2
#     Edge 17, Type (0, 0), BuildingBlock: TEMPAE_clean_linker_10, # of connection points: 2
#     Edge 18, Type (0, 0), BuildingBlock: TEMPAE_clean_linker_10, # of connection points: 2
#     Edge 19, Type (0, 0), BuildingBlock: TEMPAE_clean_linker_10, # of connection points: 2
#     Edge 20, Type (0, 0), BuildingBlock: TEMPAE_clean_linker_10, # of connection points: 2
#     Edge 21, Type (0, 0), BuildingBlock: TEMPAE_clean_linker_10, # of connection points: 2
#     Edge 22, Type (0, 0), BuildingBlock: TEMPAE_clean_linker_10, # of connection points: 2
#     Edge 23, Type (0, 0), BuildingBlock: TEMPAE_clean_linker_10, # of connection points: 2
#     Edge 24, Type (0, 0), BuildingBlock: TEMPAE_clean_linker_10, # of connection points: 2
#     Edge 25, Type (0, 0), BuildingBlock: TEMPAE_clean_linker_10, # of connection points: 2
#     Edge 26, Type (0, 0), BuildingBlock: TEMPAE_clean_linker_10, # of connection points: 2
#     Edge 27, Type (0, 0), BuildingBlock: TEMPAE_clean_linker_10, # of connection points: 2
#     Edge 28, Type (0, 0), BuildingBlock: TEMPAE_clean_linker_10, # of connection points: 2
#     Edge 29, Type (0, 0), BuildingBlock: TEMPAE_clean_linker_10, # of connection points: 2
#     Edge 30, Type (0, 0), BuildingBlock: TEMPAE_clean_linker_10, # of connection points: 2
#     Edge 31, Type (0, 0), BuildingBlock: TEMPAE_clean_linker_10, # of connection points: 2
#     Edge 32, Type (0, 0), BuildingBlock: TEMPAE_clean_linker_10, # of connection points: 2
#     Edge 33, Type (0, 0), BuildingBlock: TEMPAE_clean_linker_10, # of connection points: 2
#     Edge 34, Type (0, 0), BuildingBlock: TEMPAE_clean_linker_10, # of connection points: 2
#     Edge 35, Type (0, 0), BuildingBlock: TEMPAE_clean_linker_10, # of connection points: 2
#     Edge 36, Type (0, 0), BuildingBlock: TEMPAE_clean_linker_10, # of connection points: 2
#     Edge 37, Type (0, 0), BuildingBlock: TEMPAE_clean_linker_10, # of connection points: 2
#     Edge 38, Type (0, 0), BuildingBlock: TEMPAE_clean_linker_10, # of connection points: 2
#     Edge 39, Type (0, 0), BuildingBlock: TEMPAE_clean_linker_10, # of connection points: 2
#     Edge 40, Type (0, 0), BuildingBlock: TEMPAE_clean_linker_10, # of connection points: 2
#     Edge 41, Type (0, 0), BuildingBlock: TEMPAE_clean_linker_10, # of connection points: 2
#     Edge 42, Type (0, 0), BuildingBlock: TEMPAE_clean_linker_10, # of connection points: 2
#     Edge 43, Type (0, 0), BuildingBlock: TEMPAE_clean_linker_10, # of connection points: 2
#     Edge 44, Type (0, 0), BuildingBlock: TEMPAE_clean_linker_10, # of connection points: 2
#     Edge 45, Type (0, 0), BuildingBlock: TEMPAE_clean_linker_10, # of connection points: 2
#     Edge 46, Type (0, 0), BuildingBlock: TEMPAE_clean_linker_10, # of connection points: 2
#     Edge 47, Type (0, 0), BuildingBlock: TEMPAE_clean_linker_10, # of connection points: 2
#     Edge 48, Type (0, 0), BuildingBlock: TEMPAE_clean_linker_10, # of connection points: 2
#     Edge 49, Type (0, 0), BuildingBlock: TEMPAE_clean_linker_10, # of connection points: 2
#     Edge 50, Type (0, 0), BuildingBlock: TEMPAE_clean_linker_10, # of connection points: 2
#     Edge 51, Type (0, 0), BuildingBlock: TEMPAE_clean_linker_10, # of connection points: 2
#     Edge 52, Type (0, 0), BuildingBlock: TEMPAE_clean_linker_10, # of connection points: 2
#     Edge 53, Type (0, 0), BuildingBlock: TEMPAE_clean_linker_10, # of connection points: 2
#     Edge 54, Type (0, 0), BuildingBlock: TEMPAE_clean_linker_10, # of connection points: 2
#     Edge 55, Type (0, 0), BuildingBlock: TEMPAE_clean_linker_10, # of connection points: 2
# Relax obj value: 0.090
# Max RMSD: 0.118
# Mean RMSD: 0.118
data_MOF--net-zfi--node1-XOMCOT_clean_sbu_0--edge1-TEMPAE_clean_linker_10
_symmetry_space_group_name_H-M    P1
_symmetry_Int_Tables_number       1
_symmetry_cell_setting            triclinic
loop_
_symmetry_equiv_pos_as_xyz
'x, y, z'
_cell_length_a     39.343573
_cell_length_b     39.346358
_cell_length_c     48.376029
_cell_angle_alpha  89.998041
_cell_angle_beta   90.017997
_cell_angle_gamma 90.025125
loop_
_atom_site_label
_atom_site_type_symbol
_atom_site_fract_x
_atom_site_fract_y
_atom_site_fract_z
_atom_type_partial_charge
Co0 Co 0.64677 0.0697 0.11898 0.0
C1 C 0.67655 0.13924 0.11484 0.0
C2 C 0.64004 0.13107 0.08278 0.0
C3 C 0.65415 0.16287 0.0794 0.0
N4 N 0.65475 0.11565 0.10463 0.0
N5 N 0.6774 0.16798 0.09949 0.0
H6 H 0.69156 0.13553 0.13328 0.0
H7 H 0.62026 0.1205 0.07001 0.0
C8 C 0.61555 0.05489 0.06188 0.0
O9 O 0.64421 0.06051 0.04873 0.0
N10 N 0.63898 0.02446 0.13367 0.0
C11 C 0.65973 1.00761 0.15109 0.0
C12 C 0.64941 0.97425 0.15255 0.0
C13 C 0.6161 1.00116 0.12502 0.0
N14 N 0.62222 0.97011 0.13586 0.0
C15 C 0.71722 0.06622 0.10566 0.0
C16 C 0.71539 1.00329 0.08047 0.0
C17 C 0.74695 0.01687 0.08829 0.0
C18 C 0.74756 0.0494 0.09999 0.0
C19 C 0.68547 0.02119 0.08634 0.0
N20 N 0.6865 0.05196 0.09952 0.0
H21 H 0.71876 0.08916 0.11756 0.0
H22 H 0.66148 1.00891 0.08218 0.0
H23 H 0.68209 0.01827 0.16079 0.0
H24 H 0.59688 1.00609 0.10959 0.0
O25 O 0.66891 0.08186 0.15325 0.0
O26 O 0.61387 0.08768 0.14482 0.0
O27 O 0.61369 0.05909 0.08803 0.0
C28 C 0.63899 0.09056 0.1622 0.0
H29 H 0.6481 0.18044 0.06293 0.0
H30 H 0.66183 0.95439 0.16426 0.0
H31 H 0.71366 0.97824 0.07131 0.0
H32 H 0.77112 0.06066 0.1071 0.0
Co33 Co 0.4498 0.6471 0.1157 0.0
C34 C 0.37978 0.6765 0.10975 0.0
C35 C 0.39312 0.64601 0.07478 0.0
C36 C 0.36199 0.66072 0.06987 0.0
N37 N 0.40498 0.65657 0.09953 0.0
N38 N 0.35377 0.68031 0.0917 0.0
H39 H 0.38122 0.68964 0.12935 0.0
H40 H 0.40591 0.6291 0.06073 0.0
C41 C 0.47172 0.61998 0.05895 0.0
O42 O 0.47241 0.65023 0.04753 0.0
N43 N 0.49394 0.63687 0.13176 0.0
C44 C 0.51097 0.65529 0.1508 0.0
C45 C 0.54387 0.64325 0.15253 0.0
C46 C 0.51653 0.61363 0.12258 0.0
N47 N 0.54724 0.61742 0.13446 0.0
C48 C 0.45278 0.71792 0.10418 0.0
C49 C 0.51952 0.71989 0.08665 0.0
C50 C 0.50326 0.75022 0.09398 0.0
C51 C 0.46908 0.74908 0.10154 0.0
C52 C 0.50211 0.68897 0.08948 0.0
N53 N 0.46926 0.68806 0.09896 0.0
H54 H 0.42805 0.71817 0.11337 0.0
H55 H 0.51602 0.66574 0.08594 0.0
H56 H 0.501 0.67747 0.16121 0.0
H57 H 0.51158 0.59548 0.10631 0.0
O58 O 0.43612 0.6676 0.15012 0.0
O59 O 0.42966 0.61315 0.13966 0.0
O60 O 0.46145 0.61586 0.08378 0.0
C61 C 0.42654 0.63744 0.15783 0.0
H62 H 0.34682 0.65758 0.05138 0.0
H63 H 0.56437 0.65427 0.16448 0.0
H64 H 0.54615 0.7198 0.08097 0.0
H65 H 0.45574 0.77203 0.10754 0.0
Co66 Co 0.87309 0.46129 0.11462 0.0
C67 C 0.84969 0.38868 0.11338 0.0
C68 C 0.86465 0.4071 0.07353 0.0
C69 C 0.85047 0.37549 0.07032 0.0
N70 N 0.86459 0.41552 0.10056 0.0
N71 N 0.8407 0.3639 0.0953 0.0
H72 H 0.84358 0.38815 0.13516 0.0
H73 H 0.87181 0.4238 0.0568 0.0
C74 C 0.92934 0.45781 0.07547 0.0
O75 O 0.93835 0.43115 0.09008 0.0
N76 N 0.88071 0.50718 0.12793 0.0
C77 C 0.86162 0.52423 0.1465 0.0
C78 C 0.87181 0.55779 0.14687 0.0
C79 C 0.90216 0.53056 0.11733 0.0
N80 N 0.89696 0.56161 0.12824 0.0
C81 C 0.80211 0.46115 0.10712 0.0
C82 C 0.79771 0.51979 0.07591 0.0
C83 C 0.76779 0.50573 0.08708 0.0
C84 C 0.7704 0.47533 0.10203 0.0
C85 C 0.82925 0.50455 0.08148 0.0
N86 N 0.83106 0.47627 0.09776 0.0
H87 H 0.80349 0.43921 0.12044 0.0
H88 H 0.85224 0.5167 0.07426 0.0
H89 H 0.84052 0.51351 0.15786 0.0
H90 H 0.92059 0.52552 0.10137 0.0
O91 O 0.85508 0.44911 0.15047 0.0
O92 O 0.90922 0.44527 0.1387 0.0
O93 O 0.90104 0.47247 0.08074 0.0
C94 C 0.88608 0.44221 0.15776 0.0
H95 H 0.84518 0.3633 0.05072 0.0
H96 H 0.86033 0.57817 0.15864 0.0
H97 H 0.79695 0.54306 0.06398 0.0
H98 H 0.74842 0.46373 0.11164 0.0
Co99 Co 0.06564 0.88011 0.12289 0.0
C100 C 0.13057 0.84482 0.10933 0.0
C101 C 0.13309 0.89811 0.10067 0.0
C102 C 0.16455 0.88395 0.09561 0.0
N103 N 0.11155 0.87345 0.10886 0.0
N104 N 0.16296 0.85035 0.10113 0.0
H105 H 0.12174 0.82072 0.11694 0.0
H106 H 0.12657 0.92475 0.09911 0.0
C107 C 0.06291 0.91407 0.06578 0.0
O108 O 0.08457 0.89261 0.05474 0.0
N109 N 0.01977 0.88692 0.13695 0.0
C110 C 1.00785 0.88327 0.16297 0.0
C111 C 0.97395 0.89226 0.16343 0.0
C112 C 0.99271 0.89738 0.12203 0.0
N113 N 0.96458 0.90107 0.1376 0.0
C114 C 0.05633 0.80878 0.11896 0.0
C115 C 1.01116 0.80782 0.07535 0.0
C116 C 0.01781 0.77756 0.08973 0.0
C117 C 0.04132 0.77831 0.11132 0.0
C118 C 0.02764 0.83801 0.08328 0.0
N119 N 0.0497 0.83836 0.10518 0.0
H120 H 0.07227 0.8084 0.13702 0.0
H121 H 0.02092 0.86112 0.0727 0.0
H122 H 0.02253 0.87496 0.1806 0.0
H123 H 0.99347 0.90281 0.1002 0.0
O124 O 0.07986 0.86115 0.15785 0.0
O125 O 0.0824 0.91568 0.14717 0.0
O126 O 0.05352 0.91073 0.09087 0.0
C127 C 0.08769 0.89184 0.1653 0.0
H128 H 0.1869 0.89755 0.08871 0.0
H129 H 0.95752 0.89229 0.18137 0.0
H130 H 0.9927 0.80835 0.05874 0.0
H131 H 0.04651 0.75583 0.12355 0.0
Co132 Co 0.15528 0.96243 0.40728 0.0
C133 C 0.18373 0.89257 0.41321 0.0
C134 C 0.13917 0.89864 0.43794 0.0
C135 C 0.15159 0.86618 0.44179 0.0
N136 N 0.1602 0.91583 0.42088 0.0
N137 N 0.17974 0.8625 0.42623 0.0
H138 H 0.20292 0.89685 0.39777 0.0
H139 H 0.11586 0.90847 0.44659 0.0
C140 C 0.12616 0.97164 0.46553 0.0
O141 O 0.15113 0.95495 0.47738 0.0
N142 N 0.15004 1.0082 0.39342 0.0
C143 C 0.17347 0.0266 0.37971 0.0
C144 C 0.16274 0.05992 0.37873 0.0
C145 C 0.12513 0.03025 0.4 0.0
N146 N 0.13249 0.0622 0.3918 0.0
C147 C 0.22671 0.96448 0.41585 0.0
C148 C 0.22771 0.02412 0.4459 0.0
C149 C 0.25778 1.0124 0.43366 0.0
C150 C 0.25734 0.98118 0.42003 0.0
C151 C 0.19733 1.006 0.44174 0.0
N152 N 0.19686 0.97719 0.4258 0.0
H153 H 0.22701 0.94386 0.40149 0.0
H154 H 0.17385 0.01745 0.44855 0.0
H155 H 0.1976 0.0169 0.37247 0.0
H156 H 0.10299 0.02343 0.41195 0.0
O157 O 0.17481 0.94923 0.37233 0.0
O158 O 0.1199 0.94732 0.38241 0.0
O159 O 0.12515 0.97539 0.43937 0.0
C160 C 0.14396 0.94282 0.36428 0.0
H161 H 0.14031 0.84659 0.45455 0.0
H162 H 0.17675 0.08096 0.36992 0.0
H163 H 0.22703 0.04849 0.4563 0.0
H164 H 0.28005 0.97142 0.41014 0.0
Co165 Co 0.57431 0.15646 0.40582 0.0
C166 C 0.64162 0.18786 0.41875 0.0
C167 C 0.6398 0.13551 0.43065 0.0
C168 C 0.67157 0.14824 0.43712 0.0
N169 N 0.62063 0.16066 0.41981 0.0
N170 N 0.67255 0.18111 0.42945 0.0
H171 H 0.63516 0.21212 0.41002 0.0
H172 H 0.63137 0.10957 0.43348 0.0
C173 C 0.56922 0.1246 0.46346 0.0
O174 O 0.59066 0.14639 0.47438 0.0
N175 N 0.52848 0.15219 0.39181 0.0
C176 C 0.51103 0.17597 0.37768 0.0
C177 C 0.47715 0.16705 0.37746 0.0
C178 C 0.50521 0.12885 0.39944 0.0
N179 N 0.47352 0.13758 0.39146 0.0
C180 C 0.56944 0.22817 0.41138 0.0
C181 C 0.51799 0.22922 0.45011 0.0
C182 C 0.52704 0.25961 0.43678 0.0
C183 C 0.55384 0.25879 0.41782 0.0
C184 C 0.53482 0.19887 0.44334 0.0
N185 N 0.56013 0.19849 0.42392 0.0
H186 H 0.58685 0.22827 0.39426 0.0
H187 H 0.52529 0.1755 0.45203 0.0
H188 H 0.52179 0.19927 0.36968 0.0
H189 H 0.511 0.10698 0.41203 0.0
O190 O 0.58858 0.17521 0.37079 0.0
O191 O 0.58895 0.12047 0.38113 0.0
O192 O 0.56082 0.12664 0.43804 0.0
C193 C 0.5944 0.14422 0.36292 0.0
H194 H 0.69259 0.13422 0.44597 0.0
H195 H 0.45669 0.18184 0.36859 0.0
H196 H 0.49702 0.22857 0.4646 0.0
H197 H 0.56088 0.28118 0.4061 0.0
Co198 Co 0.37746 0.57203 0.40411 0.0
C199 C 0.34799 0.64191 0.40793 0.0
C200 C 0.38851 0.63551 0.43686 0.0
C201 C 0.37456 0.6673 0.44061 0.0
N202 N 0.37097 0.61884 0.41705 0.0
N203 N 0.3487 0.6711 0.42262 0.0
H204 H 0.33122 0.63785 0.39056 0.0
H205 H 0.41015 0.62575 0.44798 0.0
C206 C 0.40754 0.56149 0.46181 0.0
O207 O 0.37922 0.57077 0.47406 0.0
N208 N 0.38445 0.52582 0.39105 0.0
C209 C 0.36479 0.50827 0.37316 0.0
C210 C 0.37518 0.47473 0.37297 0.0
C211 C 0.40648 0.50275 0.40134 0.0
N212 N 0.40106 0.47147 0.391 0.0
C213 C 0.30697 0.57053 0.41714 0.0
C214 C 0.30704 0.5082 0.44331 0.0
C215 C 0.27622 0.52179 0.43385 0.0
C216 C 0.27633 0.55427 0.42229 0.0
C217 C 0.33744 0.52591 0.4383 0.0
N218 N 0.33731 0.55611 0.42416 0.0
H219 H 0.30587 0.59276 0.40452 0.0
H220 H 0.36114 0.51365 0.44347 0.0
H221 H 0.34317 0.51858 0.3622 0.0
H222 H 0.42517 0.50798 0.41708 0.0
O223 O 0.35533 0.58309 0.36966 0.0
O224 O 0.41059 0.58803 0.37749 0.0
O225 O 0.40991 0.56225 0.4355 0.0
C226 C 0.38529 0.59076 0.36022 0.0
H227 H 0.38231 0.68575 0.45596 0.0
H228 H 0.36332 0.45401 0.36184 0.0
H229 H 0.30798 0.48298 0.45226 0.0
H230 H 0.25302 0.56568 0.41476 0.0
Co231 Co 0.95596 0.38165 0.4025 0.0
C232 C 0.89252 0.35174 0.42716 0.0
C233 C 0.88204 0.39702 0.40423 0.0
C234 C 0.85164 0.38279 0.41224 0.0
N235 N 0.90798 0.37734 0.41319 0.0
N236 N 0.85827 0.35404 0.42629 0.0
H237 H 0.90559 0.331 0.43713 0.0
H238 H 0.88458 0.41931 0.39136 0.0
C239 C 0.95379 0.43715 0.44279 0.0
O240 O 0.92965 0.44931 0.42689 0.0
N241 N 1.00321 0.38568 0.39198 0.0
C242 C 0.02102 0.36329 0.37671 0.0
C243 C 0.05496 0.37163 0.37823 0.0
C244 C 0.02639 0.40754 0.40222 0.0
N245 N 0.05837 0.39927 0.39458 0.0
C246 C 0.9545 0.31012 0.40625 0.0
C247 C 1.00968 0.30365 0.44122 0.0
C248 C 0.99868 0.27533 0.42596 0.0
C249 C 0.96948 0.27848 0.40968 0.0
C250 C 0.99335 0.33508 0.43762 0.0
N251 N 0.96707 0.33821 0.41929 0.0
H252 H 0.93381 0.31242 0.39168 0.0
H253 H 1.00406 0.35737 0.44734 0.0
H254 H 1.01029 0.34138 0.3664 0.0
H255 H 0.02017 0.42811 0.41601 0.0
O256 O 0.94535 0.36473 0.36614 0.0
O257 O 0.94527 0.4191 0.37739 0.0
O258 O 0.96618 0.40782 0.43753 0.0
C259 C 0.94122 0.39594 0.35838 0.0
H260 H 0.82657 0.3915 0.40633 0.0
H261 H 0.0755 0.3578 0.36854 0.0
H262 H 0.03228 0.30223 0.45395 0.0
H263 H 0.95971 0.25707 0.39803 0.0
Co264 Co 0.37683 0.96131 0.90221 0.0
C265 C 0.34487 0.89415 0.91423 0.0
C266 C 0.39867 0.89306 0.92064 0.0
C267 C 0.38586 0.86082 0.92516 0.0
N268 N 0.37281 0.91419 0.91426 0.0
N269 N 0.35202 0.86164 0.92088 0.0
H270 H 0.3197 0.90247 0.90897 0.0
H271 H 0.42514 0.90046 0.9214 0.0
C272 C 0.41047 0.96171 0.95952 0.0
O273 O 0.39186 0.93644 0.96872 0.0
N274 N 0.38077 1.00789 0.89 0.0
C275 C 0.35759 0.0256 0.87544 0.0
C276 C 0.36662 0.05944 0.87579 0.0
C277 C 0.40375 0.031 0.8986 0.0
N278 N 0.39549 0.06284 0.89066 0.0
C279 C 0.30509 0.96588 0.90679 0.0
C280 C 0.30234 1.01129 0.95018 0.0
C281 C 0.27223 1.00297 0.93609 0.0
C282 C 0.274 0.97942 0.91454 0.0
C283 C 0.33327 0.99645 0.94201 0.0
N284 N 0.33439 0.97393 0.92045 0.0
H285 H 0.30546 0.95026 0.88854 0.0
H286 H 0.35632 1.00501 0.95186 0.0
H287 H 0.3348 1.01495 0.86642 0.0
H288 H 0.42518 0.02489 0.91161 0.0
O289 O 0.35861 0.94872 0.8666 0.0
O290 O 0.41324 0.94838 0.87713 0.0
O291 O 0.40612 0.97346 0.93518 0.0
C292 C 0.38963 0.94343 0.85868 0.0
H293 H 0.40044 0.8383 0.93011 0.0
H294 H 0.35241 0.07998 0.86643 0.0
H295 H 0.30221 0.02997 0.96661 0.0
H296 H 0.25182 0.9732 0.90226 0.0
Co297 Co 0.569 0.3802 0.8997 0.0
C298 C 0.63996 0.35432 0.90377 0.0
C299 C 0.63254 0.39573 0.93159 0.0
C300 C 0.66491 0.38308 0.93529 0.0
N301 N 0.61618 0.37671 0.9126 0.0
N302 N 0.66954 0.35658 0.91795 0.0
H303 H 0.63597 0.33708 0.88677 0.0
H304 H 0.62226 0.41763 0.94205 0.0
C305 C 0.55871 0.4126 0.95683 0.0
O306 O 0.57158 0.38615 0.96969 0.0
N307 N 0.52258 0.38328 0.88629 0.0
C308 C 0.50615 0.35958 0.87122 0.0
C309 C 0.47205 0.3675 0.87055 0.0
C310 C 0.49832 0.4054 0.89423 0.0
N311 N 0.46711 0.39619 0.88532 0.0
C312 C 0.57022 0.30991 0.91339 0.0
C313 C 0.50851 0.30914 0.94057 0.0
C314 C 0.52203 0.27861 0.93052 0.0
C315 C 0.55427 0.27906 0.91851 0.0
C316 C 0.5258 0.33973 0.93548 0.0
N317 N 0.55548 0.33999 0.92066 0.0
H318 H 0.59224 0.30922 0.90047 0.0
H319 H 0.51323 0.36327 0.94064 0.0
H320 H 0.51778 0.33698 0.86273 0.0
H321 H 0.50294 0.42651 0.90775 0.0
O322 O 0.58147 0.35805 0.86552 0.0
O323 O 0.58291 0.41364 0.87271 0.0
O324 O 0.55698 0.41309 0.93045 0.0
C325 C 0.58731 0.38829 0.85577 0.0
H326 H 0.68322 0.39262 0.95003 0.0
H327 H 0.45238 0.35258 0.86069 0.0
H328 H 0.48344 0.30978 0.9498 0.0
H329 H 0.56556 0.25594 0.91051 0.0
Co330 Co 0.14857 0.57414 0.90396 0.0
C331 C 0.18049 0.64263 0.91039 0.0
C332 C 0.14225 0.63466 0.94102 0.0
C333 C 0.15758 0.66557 0.94589 0.0
N334 N 0.15748 0.61946 0.91932 0.0
N335 N 0.18202 0.6705 0.92675 0.0
H336 H 0.19556 0.63949 0.89193 0.0
H337 H 0.12118 0.62461 0.95265 0.0
C338 C 0.12012 0.55944 0.96184 0.0
O339 O 0.14899 0.56684 0.97412 0.0
N340 N 0.13947 0.52938 0.88847 0.0
C341 C 0.15636 0.51371 0.86777 0.0
C342 C 0.1456 0.48034 0.86618 0.0
C343 C 0.11875 0.50531 0.89903 0.0
N344 N 0.1223 0.47526 0.88613 0.0
C345 C 0.21953 0.56886 0.91368 0.0
C346 C 0.2184 0.50515 0.9376 0.0
C347 C 0.24909 0.51791 0.92718 0.0
C348 C 0.24968 0.55089 0.9166 0.0
C349 C 0.18854 0.52435 0.93459 0.0
N350 N 0.18911 0.55532 0.92161 0.0
H351 H 0.2207 0.59196 0.90207 0.0
H352 H 0.16473 0.5128 0.94041 0.0
H353 H 0.17649 0.52504 0.85567 0.0
H354 H 0.10269 0.50868 0.91683 0.0
O355 O 0.16926 0.58755 0.86949 0.0
O356 O 0.11465 0.59337 0.87952 0.0
O357 O 0.11713 0.56261 0.93568 0.0
C358 C 0.13908 0.59673 0.86154 0.0
H359 H 0.15139 0.68264 0.96266 0.0
H360 H 0.15567 0.46082 0.85271 0.0
H361 H 0.21697 0.47957 0.9458 0.0
H362 H 0.27294 0.56162 0.90834 0.0
Co363 Co 0.95816 0.15203 0.90841 0.0
C364 C 0.88814 0.18176 0.91078 0.0
C365 C 0.90005 0.15472 0.94786 0.0
C366 C 0.86906 0.17029 0.95116 0.0
N367 N 0.91264 0.1624 0.9227 0.0
N368 N 0.86156 0.18774 0.92794 0.0
H369 H 0.89038 0.19246 0.8903 0.0
H370 H 0.91245 0.13966 0.96343 0.0
C371 C 0.97636 0.12349 0.96597 0.0
O372 O 0.97693 0.15331 0.97815 0.0
N373 N 1.00312 0.14141 0.89427 0.0
C374 C 0.02153 0.16009 0.87629 0.0
C375 C 0.05444 0.14797 0.876 0.0
C376 C 0.02495 0.11798 0.90431 0.0
N377 N 0.05647 0.12187 0.89396 0.0
C378 C 0.96143 0.22278 0.91918 0.0
C379 C 0.02533 0.22412 0.94265 0.0
C380 C 1.01026 0.25498 0.93465 0.0
C381 C 0.97742 0.25384 0.92351 0.0
C382 C 1.00844 0.19333 0.93768 0.0
N383 N 0.97687 0.19281 0.92578 0.0
H384 H 0.93793 0.22308 0.90792 0.0
H385 H 0.02176 0.16994 0.94197 0.0
H386 H 1.01239 0.18247 0.86566 0.0
H387 H 0.01869 0.09947 0.92 0.0
O388 O 0.94681 0.17229 0.87327 0.0
O389 O 0.93909 0.11807 0.88396 0.0
O390 O 0.96746 0.12055 0.94069 0.0
C391 C 0.93719 0.14214 0.86552 0.0
H392 H 0.85413 0.16994 0.96993 0.0
H393 H 0.07573 0.15903 0.86503 0.0
H394 H 0.05061 0.22353 0.95148 0.0
H395 H 0.96494 0.27655 0.91598 0.0
Co396 Co 0.88496 0.07098 0.6208 0.0
C397 C 0.85517 0.14087 0.61733 0.0
C398 C 0.8918 0.13268 0.58539 0.0
C399 C 0.87746 0.16424 0.58168 0.0
N400 N 0.87712 0.11734 0.60731 0.0
N401 N 0.85408 0.16929 0.60161 0.0
H402 H 0.84007 0.13736 0.63576 0.0
H403 H 0.91153 0.12211 0.57259 0.0
C404 C 0.91536 0.0569 0.56319 0.0
O405 O 0.88648 0.06108 0.55 0.0
N406 N 0.89328 0.02518 0.63416 0.0
C407 C 0.87393 1.00714 0.65192 0.0
C408 C 0.88509 0.97385 0.65206 0.0
C409 C 0.91597 1.0027 0.62395 0.0
N410 N 0.91119 0.97126 0.63418 0.0
C411 C 0.81441 0.06892 0.60902 0.0
C412 C 0.81334 1.00804 0.5808 0.0
C413 C 0.78232 0.0225 0.58921 0.0
C414 C 0.78341 0.05384 0.60287 0.0
C415 C 0.84414 0.0241 0.58755 0.0
N416 N 0.84448 0.05422 0.60173 0.0
H417 H 0.81382 0.0908 0.62215 0.0
H418 H 0.8676 1.01115 0.58281 0.0
H419 H 0.85192 0.0169 0.66268 0.0
H420 H 0.93469 1.00845 0.6083 0.0
O421 O 0.86352 0.08215 0.65551 0.0
O422 O 0.91844 0.08811 0.64665 0.0
O423 O 0.91728 0.06157 0.58926 0.0
C424 C 0.89355 0.0907 0.66429 0.0
H425 H 0.88311 0.18157 0.56493 0.0
H426 H 0.87349 0.95278 0.66294 0.0
H427 H 0.81399 0.98381 0.57021 0.0
H428 H 0.76063 0.0656 0.61099 0.0
Co429 Co 0.46289 0.88231 0.61587 0.0
C430 C 0.39141 0.85623 0.6124 0.0
C431 C 0.40723 0.87885 0.57431 0.0
C432 C 0.37586 0.86424 0.57045 0.0
N433 N 0.41755 0.87341 0.60053 0.0
N434 N 0.36596 0.84952 0.5943 0.0
H435 H 0.39191 0.84697 0.63342 0.0
H436 H 0.42172 0.89111 0.55833 0.0
C437 C 0.4845 0.91191 0.55936 0.0
O438 O 0.48684 0.88228 0.54703 0.0
N439 N 0.50768 0.89173 0.63109 0.0
C440 C 0.52469 0.87316 0.65006 0.0
C441 C 0.55771 0.8849 0.65161 0.0
C442 C 0.53045 0.91468 0.62171 0.0
N443 N 0.56119 0.91064 0.63348 0.0
C444 C 0.4633 0.81192 0.60313 0.0
C445 C 0.52993 0.80792 0.58554 0.0
C446 C 0.51262 0.77799 0.59256 0.0
C447 C 0.47841 0.78024 0.6 0.0
C448 C 0.51361 0.8394 0.58869 0.0
N449 N 0.48092 0.84126 0.59837 0.0
H450 H 0.43844 0.81244 0.61222 0.0
H451 H 0.52829 0.86221 0.58534 0.0
H452 H 0.51454 0.85121 0.66067 0.0
H453 H 0.52555 0.93294 0.60553 0.0
O454 O 0.45006 0.86174 0.65056 0.0
O455 O 0.44405 0.91632 0.64031 0.0
O456 O 0.47374 0.91413 0.58421 0.0
C457 C 0.44118 0.89205 0.6585 0.0
H458 H 0.36253 0.86279 0.55093 0.0
H459 H 0.57816 0.87382 0.66357 0.0
H460 H 0.55653 0.80724 0.57982 0.0
H461 H 0.46409 0.75769 0.6055 0.0
Co462 Co 0.65329 0.45649 0.61328 0.0
C463 C 0.67606 0.38431 0.60931 0.0
C464 C 0.66331 0.40531 0.5698 0.0
C465 C 0.67809 0.37404 0.56578 0.0
N466 N 0.66188 0.41189 0.59713 0.0
N467 N 0.68653 0.36093 0.59061 0.0
H468 H 0.68082 0.38234 0.63125 0.0
H469 H 0.65684 0.42314 0.55365 0.0
C470 C 0.59704 0.45573 0.5741 0.0
O471 O 0.58812 0.42788 0.58721 0.0
N472 N 0.64557 0.50115 0.62895 0.0
C473 C 0.66601 0.51735 0.64698 0.0
C474 C 0.65583 0.55074 0.64889 0.0
C475 C 0.62308 0.52478 0.62038 0.0
N476 N 0.62905 0.55555 0.63183 0.0
C477 C 0.72415 0.4573 0.60477 0.0
C478 C 0.72731 0.52015 0.57928 0.0
C479 C 0.75713 0.5056 0.58994 0.0
C480 C 0.7555 0.47298 0.60135 0.0
C481 C 0.6962 0.50328 0.58287 0.0
N482 N 0.69492 0.47311 0.59682 0.0
H483 H 0.72321 0.43368 0.61605 0.0
H484 H 0.67298 0.51584 0.57669 0.0
H485 H 0.68802 0.50621 0.65685 0.0
H486 H 0.60399 0.5201 0.60488 0.0
O487 O 0.67187 0.44191 0.64827 0.0
O488 O 0.61756 0.43837 0.63672 0.0
O489 O 0.62524 0.47003 0.58015 0.0
C490 C 0.64104 0.43396 0.65536 0.0
H491 H 0.68475 0.36322 0.54594 0.0
H492 H 0.66807 0.5701 0.66125 0.0
H493 H 0.72763 0.54538 0.57032 0.0
H494 H 0.77806 0.46072 0.60947 0.0
Co495 Co 0.07491 0.65229 0.61595 0.0
C496 C 0.14527 0.68019 0.61313 0.0
C497 C 0.13829 0.6412 0.58294 0.0
C498 C 0.17026 0.65498 0.57965 0.0
N499 N 0.12195 0.65788 0.60333 0.0
N500 N 0.17459 0.6799 0.59851 0.0
H501 H 0.14108 0.69613 0.63093 0.0
H502 H 0.1282 0.6203 0.57109 0.0
C503 C 0.06375 0.62206 0.55792 0.0
O504 O 0.07437 0.64971 0.54537 0.0
N505 N 0.02858 0.6469 0.62877 0.0
C506 C 1.01102 0.66907 0.64445 0.0
C507 C 0.97736 0.65941 0.64478 0.0
C508 C 1.00548 0.62396 0.62002 0.0
N509 N 0.97388 0.63118 0.62915 0.0
C510 C 0.0746 0.72308 0.60465 0.0
C511 C 0.01553 0.72457 0.57396 0.0
C512 C 0.02896 0.75537 0.58391 0.0
C513 C 0.05958 0.75414 0.59863 0.0
C514 C 0.0315 0.69371 0.58059 0.0
N515 N 0.06047 0.69315 0.59626 0.0
H516 H 0.09563 0.72341 0.6187 0.0
H517 H 0.01893 0.67031 0.57501 0.0
H518 H 0.02157 0.69174 0.65376 0.0
H519 H 1.01117 0.6036 0.60588 0.0
O520 O 0.08636 0.67338 0.65077 0.0
O521 O 0.08967 0.61819 0.64222 0.0
O522 O 0.06408 0.62026 0.58429 0.0
C523 C 0.09306 0.64303 0.65983 0.0
H524 H 0.18842 0.64751 0.56402 0.0
H525 H 0.95698 0.67279 0.6551 0.0
H526 H 0.99194 0.72405 0.56244 0.0
H527 H 0.07056 0.77672 0.60779 0.0
C528 C 0.57279 0.93832 0.1176 0.0
C529 C 0.60602 0.93853 0.12819 0.0
C530 C 0.55691 0.90782 0.10983 0.0
C531 C 0.57457 0.8767 0.11285 0.0
C532 C 0.60824 0.87672 0.12312 0.0
C533 C 0.62358 0.90759 0.13056 0.0
C534 C 0.52094 0.90881 0.09896 0.0
C535 C 0.62783 0.84403 0.12684 0.0
C536 C 0.52134 0.79778 0.12424 0.0
C537 C 0.52255 0.78207 0.09826 0.0
C538 C 0.53836 0.82839 0.12922 0.0
C539 C 0.55686 0.84393 0.10757 0.0
C540 C 0.55841 0.8281 0.08126 0.0
C541 C 0.54144 0.79703 0.07696 0.0
C542 C 0.53646 0.84411 0.15768 0.0
C543 C 0.57758 0.84421 0.05763 0.0
H544 H 0.55889 0.96196 0.11583 0.0
H545 H 0.64948 0.9074 0.13807 0.0
H546 H 0.51964 0.89616 0.0785 0.0
H547 H 0.50387 0.89461 0.1131 0.0
H548 H 0.51118 0.93518 0.09688 0.0
H549 H 0.65437 0.84852 0.1338 0.0
H550 H 0.61489 0.82779 0.14236 0.0
H551 H 0.62846 0.8296 0.10715 0.0
H552 H 0.50708 0.78589 0.14082 0.0
H553 H 0.54228 0.78482 0.05689 0.0
H554 H 0.5248 0.86973 0.15638 0.0
H555 H 0.56242 0.84735 0.16625 0.0
H556 H 0.52133 0.82848 0.17232 0.0
H557 H 0.56657 0.86951 0.0529 0.0
H558 H 0.5768 0.82841 0.03861 0.0
H559 H 0.60452 0.84831 0.06355 0.0
C560 C 0.70392 0.50579 0.08565 0.0
C561 C 0.7346 0.52409 0.08645 0.0
C562 C 0.67273 0.52161 0.0913 0.0
C563 C 0.67196 0.55685 0.09706 0.0
C564 C 0.70236 0.57604 0.09549 0.0
C565 C 0.73336 0.5594 0.09051 0.0
C566 C 0.64095 0.50014 0.09286 0.0
C567 C 0.70237 0.61393 0.10043 0.0
C568 C 0.58536 0.59972 0.09683 0.0
C569 C 0.57845 0.60227 0.1252 0.0
C570 C 0.61603 0.58579 0.08733 0.0
C571 C 0.63985 0.57307 0.10666 0.0
C572 C 0.63279 0.57534 0.13537 0.0
C573 C 0.60236 0.59046 0.14429 0.0
C574 C 0.62283 0.58468 0.05663 0.0
C575 C 0.65715 0.56136 0.15663 0.0
H576 H 0.70442 0.47866 0.08182 0.0
H577 H 0.75677 0.57388 0.09133 0.0
H578 H 0.63184 0.49927 0.11456 0.0
H579 H 0.62037 0.51151 0.08026 0.0
H580 H 0.64533 0.47369 0.08567 0.0
H581 H 0.72715 0.62575 0.09505 0.0
H582 H 0.68207 0.62629 0.08808 0.0
H583 H 0.69698 0.61915 0.12253 0.0
H584 H 0.56698 0.60935 0.08209 0.0
H585 H 0.59681 0.59245 0.16617 0.0
H586 H 0.64894 0.59372 0.05202 0.0
H587 H 0.60445 0.60046 0.04484 0.0
H588 H 0.62087 0.5581 0.04917 0.0
H589 H 0.66174 0.53396 0.15266 0.0
H590 H 0.64747 0.56435 0.17807 0.0
H591 H 0.682 0.57453 0.15502 0.0
C592 C 0.96241 0.74667 0.08608 0.0
C593 C 0.99802 0.74592 0.08525 0.0
C594 C 0.94361 0.71655 0.08945 0.0
C595 C 0.96093 0.68516 0.09217 0.0
C596 C 0.99666 0.68404 0.08893 0.0
C597 C 1.01474 0.71444 0.08541 0.0
C598 C 0.90544 0.71865 0.09201 0.0
C599 C 0.01608 0.65107 0.09133 0.0
C600 C 0.92289 0.61706 0.13848 0.0
C601 C 0.91201 0.59298 0.11916 0.0
C602 C 0.93853 0.64735 0.12991 0.0
C603 C 0.9424 0.6541 0.10128 0.0
C604 C 0.93015 0.6304 0.08166 0.0
C605 C 0.91568 0.59977 0.09085 0.0
C606 C 0.95165 0.67177 0.15151 0.0
C607 C 0.93265 0.63717 0.05102 0.0
H608 H 0.94938 0.77094 0.08611 0.0
H609 H 0.04228 0.7138 0.08446 0.0
H610 H 0.89308 0.6984 0.0796 0.0
H611 H 0.89803 0.71467 0.1139 0.0
H612 H 0.89553 0.74373 0.08521 0.0
H613 H 0.04341 0.65417 0.08615 0.0
H614 H 1.01408 0.6413 0.11279 0.0
H615 H 1.00499 0.63156 0.07744 0.0
H616 H 0.91999 0.61163 0.16032 0.0
H617 H 0.90671 0.58129 0.07593 0.0
H618 H 0.93994 0.69715 0.1486 0.0
H619 H 0.97954 0.6749 0.14918 0.0
H620 H 0.94624 0.66296 0.17288 0.0
H621 H 0.92551 0.66379 0.0462 0.0
H622 H 0.91603 0.61988 0.03889 0.0
H623 H 0.95929 0.63351 0.04416 0.0
C624 C 0.92119 0.90884 0.10122 0.0
C625 C 0.93223 0.91417 0.12848 0.0
C626 C 0.89076 0.9232 0.09152 0.0
C627 C 0.871 0.94358 0.10946 0.0
C628 C 0.88178 0.94868 0.13711 0.0
C629 C 0.91217 0.93379 0.1463 0.0
C630 C 0.87996 0.91687 0.06201 0.0
C631 C 0.86158 0.97051 0.15684 0.0
C632 C 0.81016 1.0108 0.08272 0.0
C633 C 0.77847 0.99589 0.08835 0.0
C634 C 0.84058 0.99342 0.08824 0.0
C635 C 0.8393 0.96019 0.09942 0.0
C636 C 0.80746 0.94408 0.10326 0.0
C637 C 0.77743 0.96216 0.09778 0.0
C638 C 0.87403 1.01142 0.08368 0.0
C639 C 0.80503 0.9085 0.11477 0.0
H640 H 0.93635 0.89332 0.08745 0.0
H641 H 0.92078 0.93838 0.16724 0.0
H642 H 0.85391 0.90608 0.06152 0.0
H643 H 0.87924 0.94124 0.0505 0.0
H644 H 0.89741 0.8992 0.05109 0.0
H645 H 0.87325 0.97164 0.17774 0.0
H646 H 0.85963 0.99675 0.14859 0.0
H647 H 0.83535 0.96047 0.15884 0.0
H648 H 0.81118 0.03666 0.07503 0.0
H649 H 0.75317 0.95048 0.10251 0.0
H650 H 0.89165 0.99514 0.07166 0.0
H651 H 0.88626 0.01654 0.10394 0.0
H652 H 0.87081 0.03595 0.07262 0.0
H653 H 0.8226 0.89121 0.10364 0.0
H654 H 0.77883 0.8981 0.1133 0.0
H655 H 0.81273 0.90862 0.13683 0.0
C656 C 0.03292 0.22756 0.44681 0.0
C657 C 0.01963 0.2441 0.42354 0.0
C658 C 0.05199 0.19746 0.44393 0.0
C659 C 0.05809 0.18405 0.41718 0.0
C660 C 0.04522 0.2011 0.39368 0.0
C661 C 0.02629 0.23086 0.39715 0.0
C662 C 0.06533 0.17985 0.46943 0.0
C663 C 0.05131 0.18785 0.36477 0.0
C664 C 0.13091 0.12393 0.40138 0.0
C665 C 0.114 0.09266 0.39892 0.0
C666 C 0.11327 0.15367 0.40849 0.0
C667 C 0.07782 0.15215 0.41331 0.0
C668 C 0.06073 0.12056 0.41161 0.0
C669 C 0.07898 0.09125 0.40437 0.0
C670 C 0.13243 0.18687 0.41016 0.0
C671 C 0.02293 0.11788 0.41659 0.0
H672 H 0.02787 0.23779 0.4672 0.0
H673 H 0.01676 0.24402 0.37904 0.0
H674 H 0.05461 0.15381 0.47077 0.0
H675 H 0.09336 0.17722 0.46813 0.0
H676 H 0.05887 0.1938 0.48869 0.0
H677 H 0.03957 0.20424 0.34869 0.0
H678 H 0.079 0.18617 0.36068 0.0
H679 H 0.0407 0.16184 0.36274 0.0
H680 H 0.15806 0.12521 0.3979 0.0
H681 H 0.06562 0.06731 0.40245 0.0
H682 H 0.12729 0.19961 0.43018 0.0
H683 H 0.12357 0.2042 0.39356 0.0
H684 H 0.16031 0.18334 0.40795 0.0
H685 H 0.01621 0.12965 0.4367 0.0
H686 H 1.01396 0.0911 0.41661 0.0
H687 H 1.00905 0.13198 0.40025 0.0
C688 C 0.2999 0.04065 0.4033 0.0
C689 C 0.28788 0.03461 0.43013 0.0
C690 C 0.3298 0.05898 0.39868 0.0
C691 C 0.34826 0.0718 0.42151 0.0
C692 C 0.33571 0.0668 0.44871 0.0
C693 C 0.30542 0.0483 0.45273 0.0
C694 C 0.34207 0.06386 0.36935 0.0
C695 C 0.35475 0.0802 0.4735 0.0
C696 C 0.44166 0.08648 0.40604 0.0
C697 C 0.44224 0.1213 0.39976 0.0
C698 C 0.41154 0.07035 0.4144 0.0
C699 C 0.38115 0.08945 0.41649 0.0
C700 C 0.38169 0.12474 0.41086 0.0
C701 C 0.41219 0.14022 0.40256 0.0
C702 C 0.41202 0.03262 0.42013 0.0
C703 C 0.34984 0.14599 0.41291 0.0
H704 H 0.28597 0.03051 0.38578 0.0
H705 H 0.29604 0.04364 0.47345 0.0
H706 H 0.34552 0.0913 0.3649 0.0
H707 H 0.36716 0.05142 0.36665 0.0
H708 H 0.32416 0.0531 0.35389 0.0
H709 H 0.34071 0.07583 0.4931 0.0
H710 H 0.37989 0.06756 0.47497 0.0
H711 H 0.3595 0.10784 0.47115 0.0
H712 H 0.46465 0.07161 0.40387 0.0
H713 H 0.41248 0.16726 0.39845 0.0
H714 H 0.39602 0.0192 0.40471 0.0
H715 H 0.40111 0.02734 0.44083 0.0
H716 H 0.43811 0.02187 0.41929 0.0
H717 H 0.33143 0.13787 0.39683 0.0
H718 H 0.35506 0.17354 0.41015 0.0
H719 H 0.33747 0.14213 0.43327 0.0
C720 C 0.5221 0.32305 0.43825 0.0
C721 C 0.50623 0.29109 0.43898 0.0
C722 C 0.50338 0.35275 0.43328 0.0
C723 C 0.46776 0.35058 0.42951 0.0
C724 C 0.4512 0.31886 0.43275 0.0
C725 C 0.47066 0.28941 0.43725 0.0
C726 C 0.52204 0.38611 0.43021 0.0
C727 C 0.41316 0.31564 0.42972 0.0
C728 C 0.42027 0.43469 0.42904 0.0
C729 C 0.41637 0.4405 0.40061 0.0
C730 C 0.43582 0.40493 0.43885 0.0
C731 C 0.44857 0.38091 0.41972 0.0
C732 C 0.44443 0.38663 0.39095 0.0
C733 C 0.42789 0.41618 0.38177 0.0
C734 C 0.43844 0.39911 0.46962 0.0
C735 C 0.45833 0.36201 0.36985 0.0
H736 H 0.54952 0.32461 0.4401 0.0
H737 H 0.45814 0.26487 0.43762 0.0
H738 H 0.51968 0.39525 0.40859 0.0
H739 H 0.5106 0.40574 0.44378 0.0
H740 H 0.54947 0.38382 0.43534 0.0
H741 H 0.40372 0.29064 0.43716 0.0
H742 H 0.40002 0.3361 0.44133 0.0
H743 H 0.4061 0.31839 0.40763 0.0
H744 H 0.41075 0.45336 0.44358 0.0
H745 H 0.42486 0.42091 0.35983 0.0
H746 H 0.46523 0.39445 0.47564 0.0
H747 H 0.42377 0.37607 0.47533 0.0
H748 H 0.42855 0.42096 0.48173 0.0
H749 H 0.48626 0.35963 0.37243 0.0
H750 H 0.45291 0.37015 0.34831 0.0
H751 H 0.4472 0.33643 0.37311 0.0
C752 C 0.12034 0.3967 0.40334 0.0
C753 C 0.0896 0.41484 0.404 0.0
C754 C 0.15104 0.41187 0.41149 0.0
C755 C 0.15111 0.44601 0.42069 0.0
C756 C 0.12005 0.46401 0.42262 0.0
C757 C 0.08974 0.44828 0.41417 0.0
C758 C 0.18363 0.39181 0.4091 0.0
C759 C 0.11902 0.50042 0.43245 0.0
C760 C 0.23088 0.48357 0.45374 0.0
C761 C 0.24512 0.50076 0.43118 0.0
C762 C 0.2002 0.4654 0.45078 0.0
C763 C 0.18391 0.46423 0.42462 0.0
C764 C 0.19885 0.48083 0.40172 0.0
C765 C 0.22919 0.49878 0.40529 0.0
C766 C 0.18493 0.44796 0.47561 0.0
C767 C 0.18258 0.48003 0.37341 0.0
H768 H 0.12058 0.37061 0.3963 0.0
H769 H 0.06632 0.46267 0.41481 0.0
H770 H 0.19953 0.40266 0.39234 0.0
H771 H 0.19849 0.3936 0.42853 0.0
H772 H 0.17891 0.36457 0.40443 0.0
H773 H 0.09262 0.51006 0.43456 0.0
H774 H 0.132 0.50276 0.45272 0.0
H775 H 0.13282 0.5169 0.4176 0.0
H776 H 0.24326 0.48504 0.47372 0.0
H777 H 0.24056 0.5115 0.38768 0.0
H778 H 0.18098 0.42058 0.47118 0.0
H779 H 0.15962 0.45904 0.4802 0.0
H780 H 0.20121 0.4504 0.49427 0.0
H781 H 0.17943 0.45335 0.36643 0.0
H782 H 0.19779 0.49392 0.3577 0.0
H783 H 0.15689 0.49159 0.37433 0.0
C784 C 0.44631 0.09378 0.9073 0.0
C785 C 0.4121 0.09397 0.899 0.0
C786 C 0.46278 0.12378 0.91546 0.0
C787 C 0.44476 0.15491 0.9151 0.0
C788 C 0.41005 0.15525 0.90744 0.0
C789 C 0.39414 0.12481 0.89955 0.0
C790 C 0.49983 0.12234 0.92357 0.0
C791 C 0.38999 0.18795 0.90671 0.0
C792 C 0.4846 0.23236 0.94987 0.0
C793 C 0.5008 0.24777 0.92735 0.0
C794 C 0.46597 0.20207 0.94631 0.0
C795 C 0.46324 0.18744 0.91959 0.0
C796 C 0.4788 0.20362 0.89676 0.0
C797 C 0.49735 0.23349 0.90094 0.0
C798 C 0.44976 0.18539 0.9711 0.0
C799 C 0.47627 0.18915 0.86788 0.0
H800 H 0.46057 0.07028 0.90686 0.0
H801 H 0.36754 0.12526 0.89386 0.0
H802 H 0.51526 0.13692 0.90847 0.0
H803 H 0.50356 0.13429 0.94411 0.0
H804 H 0.50963 0.09588 0.92438 0.0
H805 H 0.36257 0.18355 0.90255 0.0
H806 H 0.39257 0.20168 0.92662 0.0
H807 H 0.40025 0.20479 0.89031 0.0
H808 H 0.4872 0.24352 0.97025 0.0
H809 H 0.50934 0.2458 0.88341 0.0
H810 H 0.46089 0.15977 0.97427 0.0
H811 H 0.42214 0.18187 0.96749 0.0
H812 H 0.45335 0.20048 0.99029 0.0
H813 H 0.48788 0.16347 0.8673 0.0
H814 H 0.48921 0.20536 0.85229 0.0
H815 H 0.44921 0.18636 0.86185 0.0
C816 C 0.40488 0.39259 0.8928 0.0
C817 C 0.4351 0.41163 0.89298 0.0
C818 C 0.37371 0.40727 0.90039 0.0
C819 C 0.37265 0.44181 0.90849 0.0
C820 C 0.40307 0.46101 0.90928 0.0
C821 C 0.43384 0.44575 0.90146 0.0
C822 C 0.34177 0.38603 0.89912 0.0
C823 C 0.40301 0.49792 0.91786 0.0
C824 C 0.29275 0.49316 0.89619 0.0
C825 C 0.27913 0.49587 0.92288 0.0
C826 C 0.3226 0.47486 0.89122 0.0
C827 C 0.33945 0.45887 0.91354 0.0
C828 C 0.32526 0.46056 0.94047 0.0
C829 C 0.29501 0.47895 0.94482 0.0
C830 C 0.33663 0.47353 0.86217 0.0
C831 C 0.34259 0.44386 0.96475 0.0
H832 H 0.40551 0.36608 0.88688 0.0
H833 H 0.45684 0.46085 0.90153 0.0
H834 H 0.32807 0.38721 0.91913 0.0
H835 H 0.32445 0.39638 0.88309 0.0
H836 H 0.34716 0.359 0.89416 0.0
H837 H 0.42872 0.50949 0.91692 0.0
H838 H 0.38581 0.51275 0.90427 0.0
H839 H 0.39325 0.50028 0.93929 0.0
H840 H 0.28013 0.50584 0.87913 0.0
H841 H 0.2844 0.48105 0.96543 0.0
H842 H 0.34063 0.44676 0.85575 0.0
H843 H 0.36172 0.48641 0.86147 0.0
H844 H 0.31955 0.48597 0.84693 0.0
H845 H 0.34783 0.41674 0.96014 0.0
H846 H 0.3271 0.4454 0.98391 0.0
H847 H 0.36742 0.45637 0.96859 0.0
C848 C 1.0126 0.3188 0.93758 0.0
C849 C 0.02963 0.28765 0.93431 0.0
C850 C 0.02869 0.34977 0.93157 0.0
C851 C 0.06311 0.3498 0.92312 0.0
C852 C 0.08133 0.31882 0.92209 0.0
C853 C 0.06429 0.28809 0.92729 0.0
C854 C 1.00821 0.38223 0.93268 0.0
C855 C 0.11844 0.31793 0.91418 0.0
C856 C 0.09381 0.42098 0.87616 0.0
C857 C 0.10833 0.44343 0.89518 0.0
C858 C 0.07874 0.3905 0.88504 0.0
C859 C 0.07928 0.38191 0.91353 0.0
C860 C 0.09473 0.40424 0.93272 0.0
C861 C 0.10869 0.43495 0.92333 0.0
C862 C 0.06162 0.36786 0.86403 0.0
C863 C 0.09678 0.39559 0.96309 0.0
H864 H 0.98614 0.31897 0.94378 0.0
H865 H 0.07783 0.2644 0.92444 0.0
H866 H 0.02102 0.40132 0.94594 0.0
H867 H 1.00634 0.39328 0.91162 0.0
H868 H 0.9821 0.37803 0.94071 0.0
H869 H 0.13004 0.29264 0.91805 0.0
H870 H 0.12117 0.32397 0.8919 0.0
H871 H 0.13288 0.3374 0.92592 0.0
H872 H 0.09344 0.42783 0.85446 0.0
H873 H 0.12039 0.45227 0.93794 0.0
H874 H 0.03461 0.36392 0.86982 0.0
H875 H 0.07398 0.34253 0.86377 0.0
H876 H 0.06261 0.37867 0.84283 0.0
H877 H 0.07093 0.39192 0.97172 0.0
H878 H 0.10985 0.41567 0.97526 0.0
H879 H 0.11068 0.37129 0.96584 0.0
C880 C 0.23908 0.05697 0.94152 0.0
C881 C 0.23967 0.02134 0.9406 0.0
C882 C 0.20842 0.07487 0.93816 0.0
C883 C 0.17789 0.05666 0.93341 0.0
C884 C 0.17797 0.02075 0.93496 0.0
C885 C 0.2088 1.00357 0.93882 0.0
C886 C 0.20917 0.1132 0.93758 0.0
C887 C 0.1461 1.00024 0.93 0.0
C888 C 0.0914 0.09981 0.93227 0.0
C889 C 0.08693 0.10576 0.90389 0.0
C890 C 0.12122 0.08463 0.94236 0.0
C891 C 0.14688 0.07465 0.92354 0.0
C892 C 0.14239 0.08059 0.89484 0.0
C893 C 0.11262 0.09648 0.88542 0.0
C894 C 0.12539 0.07963 0.97312 0.0
C895 C 0.16878 0.06962 0.87402 0.0
H896 H 0.26279 0.07092 0.94282 0.0
H897 H 0.20904 0.97601 0.93859 0.0
H898 H 0.20648 0.12215 0.91594 0.0
H899 H 0.18761 0.12382 0.94957 0.0
H900 H 0.23332 0.12347 0.94608 0.0
H901 H 0.14895 0.97351 0.93703 0.0
H902 H 0.12397 1.01168 0.94069 0.0
H903 H 0.14037 1.00006 0.90753 0.0
H904 H 0.07177 0.10764 0.94662 0.0
H905 H 0.10902 0.10107 0.86353 0.0
H906 H 0.14634 0.09603 0.98072 0.0
H907 H 0.13249 0.05297 0.9778 0.0
H908 H 0.10189 0.08605 0.98473 0.0
H909 H 0.19343 0.08212 0.87855 0.0
H910 H 0.1613 0.0759 0.85247 0.0
H911 H 0.17286 0.04176 0.87551 0.0
C912 C 0.02679 0.81926 0.58248 0.0
C913 C 1.00948 0.78798 0.58288 0.0
C914 C 1.01 0.84983 0.58846 0.0
C915 C 0.97465 0.84945 0.59379 0.0
C916 C 0.95636 0.81859 0.5914 0.0
C917 C 0.97403 0.78815 0.58641 0.0
C918 C 0.03074 0.88196 0.59127 0.0
C919 C 0.91838 0.81738 0.59569 0.0
C920 C 0.93839 0.91596 0.64263 0.0
C921 C 0.92664 0.94058 0.62413 0.0
C922 C 0.95432 0.88629 0.63299 0.0
C923 C 0.95745 0.8807 0.60413 0.0
C924 C 0.94491 0.90529 0.58536 0.0
C925 C 0.93002 0.93515 0.59562 0.0
C926 C 0.96842 0.86128 0.6537 0.0
C927 C 0.94698 0.89996 0.5545 0.0
H928 H 0.05398 0.81973 0.57893 0.0
H929 H 0.96018 0.76436 0.5869 0.0
H930 H 0.01747 0.904 0.58195 0.0
H931 H 0.03438 0.88764 0.61355 0.0
H932 H 0.05618 0.87947 0.58152 0.0
H933 H 0.90732 0.79273 0.58897 0.0
H934 H 0.91253 0.82102 0.61792 0.0
H935 H 0.90578 0.83821 0.58411 0.0
H936 H 0.93584 0.92043 0.66464 0.0
H937 H 0.92044 0.95411 0.58136 0.0
H938 H 0.99598 0.85742 0.64993 0.0
H939 H 0.95579 0.83626 0.6512 0.0
H940 H 0.96487 0.86993 0.67536 0.0
H941 H 0.97368 0.89539 0.54815 0.0
H942 H 0.93703 0.92205 0.54271 0.0
H943 H 0.93217 0.87702 0.5487 0.0
C944 C 0.74801 0.96851 0.59207 0.0
C945 C 0.74933 1.00375 0.58749 0.0
C946 C 0.71683 0.95182 0.59625 0.0
C947 C 0.68634 0.97092 0.59672 0.0
C948 C 0.68724 1.00599 0.59034 0.0
C949 C 0.71859 0.02176 0.58521 0.0
C950 C 0.71674 0.91404 0.6017 0.0
C951 C 0.65553 0.02761 0.59112 0.0
C952 C 0.59969 0.92805 0.59602 0.0
C953 C 0.59243 0.92583 0.62434 0.0
C954 C 0.63041 0.94207 0.58667 0.0
C955 C 0.65402 0.95494 0.60613 0.0
C956 C 0.64649 0.95317 0.63478 0.0
C957 C 0.61599 0.93805 0.64355 0.0
C958 C 0.63776 0.94278 0.55604 0.0
C959 C 0.6704 0.96771 0.65614 0.0
H960 H 0.77137 0.95414 0.59399 0.0
H961 H 0.71906 0.04876 0.5808 0.0
H962 H 0.71139 0.9093 0.62388 0.0
H963 H 0.69642 0.90141 0.58954 0.0
H964 H 0.74151 0.90211 0.59648 0.0
H965 H 0.65931 0.05249 0.5807 0.0
H966 H 0.63376 1.01444 0.58129 0.0
H967 H 0.64856 0.03246 0.613 0.0
H968 H 0.58154 0.91809 0.58123 0.0
H969 H 0.61012 0.93638 0.66539 0.0
H970 H 0.66081 0.92746 0.55165 0.0
H971 H 0.64311 0.96913 0.54917 0.0
H972 H 0.6163 0.9326 0.5436 0.0
H973 H 0.69521 0.95439 0.65523 0.0
H974 H 0.66018 0.96545 0.67747 0.0
H975 H 0.67525 0.99496 0.65168 0.0
C976 C 0.58108 0.58792 0.6115 0.0
C977 C 0.61301 0.58744 0.62455 0.0
C978 C 0.56551 0.61866 0.60393 0.0
C979 C 0.58201 0.64981 0.60977 0.0
C980 C 0.61434 0.6496 0.62259 0.0
C981 C 0.62948 0.6185 0.62968 0.0
C982 C 0.53108 0.61781 0.59013 0.0
C983 C 0.63264 0.6823 0.62941 0.0
C984 C 0.55204 0.73196 0.5757 0.0
C985 C 0.53078 0.74526 0.59626 0.0
C986 C 0.56864 0.7006 0.57957 0.0
C987 C 0.56425 0.68264 0.60474 0.0
C988 C 0.54316 0.69631 0.62563 0.0
C989 C 0.52668 0.72732 0.6211 0.0
C990 C 0.59072 0.68661 0.55676 0.0
C991 C 0.53812 0.67827 0.65291 0.0
H992 H 0.56784 0.56432 0.60752 0.0
H993 H 0.65438 0.6187 0.63914 0.0
H994 H 0.51216 0.63129 0.60312 0.0
H995 H 0.53224 0.63125 0.56999 0.0
H996 H 0.52195 0.59147 0.58652 0.0
H997 H 0.65834 0.67779 0.63819 0.0
H998 H 0.63524 0.69821 0.6106 0.0
H999 H 0.61757 0.6971 0.6446 0.0
H1000 H 0.55522 0.74581 0.5565 0.0
H1001 H 0.51079 0.73787 0.63728 0.0
H1002 H 0.58139 0.66114 0.55045 0.0
H1003 H 0.61714 0.68334 0.56432 0.0
H1004 H 0.59112 0.70341 0.5383 0.0
H1005 H 0.52738 0.65257 0.64934 0.0
H1006 H 0.52084 0.69237 0.66699 0.0
H1007 H 0.56296 0.6749 0.66342 0.0
C1008 C 0.94329 0.58051 0.61184 0.0
C1009 C 0.94275 0.61431 0.62118 0.0
C1010 C 0.91331 0.56381 0.60395 0.0
C1011 C 0.88189 0.58118 0.60562 0.0
C1012 C 0.88116 0.61547 0.61442 0.0
C1013 C 0.91157 0.63163 0.62202 0.0
C1014 C 0.91516 0.52727 0.59449 0.0
C1015 C 0.84812 0.63481 0.61656 0.0
C1016 C 0.80358 0.54302 0.571 0.0
C1017 C 0.78872 0.52569 0.59323 0.0
C1018 C 0.8341 0.56122 0.57457 0.0
C1019 C 0.84955 0.56243 0.60105 0.0
C1020 C 0.83415 0.54547 0.62358 0.0
C1021 C 0.80404 0.52732 0.61937 0.0
C1022 C 0.85001 0.5788 0.55006 0.0
C1023 C 0.84959 0.54632 0.65219 0.0
H1024 H 0.96709 0.56674 0.61121 0.0
H1025 H 0.91083 0.65792 0.62854 0.0
H1026 H 0.89963 0.51094 0.60829 0.0
H1027 H 0.90448 0.52493 0.57335 0.0
H1028 H 0.9416 0.5174 0.59435 0.0
H1029 H 0.85212 0.66201 0.62181 0.0
H1030 H 0.83393 0.63327 0.59678 0.0
H1031 H 0.8319 0.62316 0.63276 0.0
H1032 H 0.79169 0.54177 0.55081 0.0
H1033 H 0.79221 0.51446 0.63672 0.0
H1034 H 0.87551 0.56787 0.54596 0.0
H1035 H 0.85365 0.6062 0.55458 0.0
H1036 H 0.83433 0.57627 0.53107 0.0
H1037 H 0.87547 0.53516 0.65171 0.0
H1038 H 0.83413 0.53211 0.66755 0.0
H1039 H 0.85216 0.573 0.65933 0.0
C1040 C 0.6934 0.22777 0.0892 0.0
C1041 C 0.7002 0.19679 0.10257 0.0
C1042 C 0.71652 0.25502 0.09024 0.0
C1043 C 0.74718 0.25161 0.10535 0.0
C1044 C 0.75374 0.22097 0.11972 0.0
C1045 C 0.73039 0.19394 0.11802 0.0
C1046 C 0.70858 0.28717 0.07446 0.0
C1047 C 0.78596 0.21633 0.13626 0.0
C1048 C 0.82121 0.30661 0.08163 0.0
C1049 C 0.81974 0.33418 0.10003 0.0
C1050 C 0.79824 0.27937 0.0835 0.0
C1051 C 0.77326 0.27928 0.10456 0.0
C1052 C 0.77254 0.30623 0.12401 0.0
C1053 C 0.79569 0.3334 0.12147 0.0
C1054 C 0.80002 0.25124 0.06229 0.0
C1055 C 0.74656 0.30693 0.14695 0.0
H1056 H 0.67008 0.23076 0.0776 0.0
H1057 H 0.73646 0.17026 0.12823 0.0
H1058 H 0.70985 0.30947 0.08845 0.0
H1059 H 0.72785 0.29107 0.05802 0.0
H1060 H 0.68302 0.28644 0.06471 0.0
H1061 H 0.78593 0.19224 0.14824 0.0
H1062 H 0.80818 0.21618 0.12214 0.0
H1063 H 0.78944 0.23786 0.1508 0.0
H1064 H 0.84005 0.30662 0.06531 0.0
H1065 H 0.79403 0.3546 0.13566 0.0
H1066 H 0.77616 0.25068 0.05005 0.0
H1067 H 0.80244 0.22624 0.0727 0.0
H1068 H 0.82174 0.25442 0.04785 0.0
H1069 H 0.72075 0.30982 0.13802 0.0
H1070 H 0.75106 0.32811 0.16169 0.0
H1071 H 0.74693 0.28258 0.15852 0.0
C1072 C 0.31212 0.71324 0.11932 0.0
C1073 C 0.32558 0.70382 0.09358 0.0
C1074 C 0.28535 0.73688 0.12128 0.0
C1075 C 0.27185 0.75172 0.09692 0.0
C1076 C 0.28532 0.74228 0.0709 0.0
C1077 C 0.31189 0.71849 0.06955 0.0
C1078 C 0.27152 0.74602 0.14941 0.0
C1079 C 0.27196 0.75765 0.04442 0.0
C1080 C 0.18322 0.79081 0.09763 0.0
C1081 C 0.19032 0.8257 0.10007 0.0
C1082 C 0.20941 0.7665 0.09699 0.0
C1083 C 0.24372 0.77719 0.09854 0.0
C1084 C 0.25116 0.8123 0.10089 0.0
C1085 C 0.22445 0.83606 0.10171 0.0
C1086 C 0.20033 0.72934 0.09442 0.0
C1087 C 0.2874 0.82481 0.10244 0.0
H1088 H 0.32233 0.70188 0.13794 0.0
H1089 H 0.32249 0.71198 0.0496 0.0
H1090 H 0.27446 0.77369 0.15308 0.0
H1091 H 0.24394 0.74024 0.15033 0.0
H1092 H 0.28456 0.73205 0.16632 0.0
H1093 H 0.28485 0.74722 0.02587 0.0
H1094 H 0.24427 0.75285 0.04251 0.0
H1095 H 0.27563 0.78561 0.04474 0.0
H1096 H 0.15713 0.78238 0.09586 0.0
H1097 H 0.2304 0.86277 0.10396 0.0
H1098 H 0.21173 0.71477 0.11173 0.0
H1099 H 0.21097 0.71891 0.07495 0.0
H1100 H 0.17242 0.72505 0.09445 0.0
H1101 H 0.30046 0.81316 0.12042 0.0
H1102 H 0.28896 0.8529 0.10438 0.0
H1103 H 0.30147 0.81694 0.08363 0.0
C1104 C 0.29091 0.69276 0.41273 0.0
C1105 C 0.32444 0.6987 0.42149 0.0
C1106 C 0.26644 0.71877 0.41302 0.0
C1107 C 0.27561 0.75165 0.42228 0.0
C1108 C 0.30946 0.75796 0.43088 0.0
C1109 C 0.33342 0.73144 0.43041 0.0
C1110 C 0.23062 0.71091 0.40379 0.0
C1111 C 0.32033 0.79271 0.44075 0.0
C1112 C 0.22135 0.82726 0.40072 0.0
C1113 C 0.20212 0.8334 0.42465 0.0
C1114 C 0.2451 0.80063 0.3996 0.0
C1115 C 0.24978 0.77945 0.42296 0.0
C1116 C 0.23 0.78506 0.44701 0.0
C1117 C 0.2064 0.8119 0.44754 0.0
C1118 C 0.26553 0.79545 0.37351 0.0
C1119 C 0.23423 0.7631 0.47238 0.0
H1120 H 0.28346 0.66748 0.40631 0.0
H1121 H 0.35926 0.73637 0.43699 0.0
H1122 H 0.21266 0.71544 0.42107 0.0
H1123 H 0.22316 0.7281 0.38665 0.0
H1124 H 0.22772 0.6842 0.3967 0.0
H1125 H 0.34765 0.79357 0.44649 0.0
H1126 H 0.31561 0.81185 0.42434 0.0
H1127 H 0.305 0.80026 0.45899 0.0
H1128 H 0.21786 0.8433 0.38277 0.0
H1129 H 0.19199 0.81668 0.46621 0.0
H1130 H 0.2616 0.76932 0.36552 0.0
H1131 H 0.29302 0.79825 0.37808 0.0
H1132 H 0.25856 0.81384 0.35703 0.0
H1133 H 0.23031 0.73598 0.46698 0.0
H1134 H 0.21617 0.77007 0.4891 0.0
H1135 H 0.26051 0.76558 0.48046 0.0
C1136 C 0.84132 0.29367 0.4259 0.0
C1137 C 0.83399 0.32762 0.43245 0.0
C1138 C 0.81617 0.26836 0.42761 0.0
C1139 C 0.78302 0.27707 0.43659 0.0
C1140 C 0.77609 0.31095 0.4448 0.0
C1141 C 0.80153 0.33588 0.44228 0.0
C1142 C 0.82456 0.23275 0.41819 0.0
C1143 C 0.74138 0.32117 0.45517 0.0
C1144 C 0.70789 0.22634 0.40915 0.0
C1145 C 0.70091 0.20424 0.43113 0.0
C1146 C 0.73481 0.24971 0.41056 0.0
C1147 C 0.75487 0.25163 0.43486 0.0
C1148 C 0.74785 0.22941 0.45722 0.0
C1149 C 0.7212 0.20566 0.45493 0.0
C1150 C 0.74177 0.27236 0.386 0.0
C1151 C 0.76811 0.23115 0.48368 0.0
H1152 H 0.86623 0.28725 0.4179 0.0
H1153 H 0.79592 0.36208 0.44746 0.0
H1154 H 0.81675 0.21395 0.43405 0.0
H1155 H 0.81016 0.22689 0.39904 0.0
H1156 H 0.8521 0.22946 0.41392 0.0
H1157 H 0.74118 0.34743 0.4636 0.0
H1158 H 0.72274 0.31973 0.438 0.0
H1159 H 0.73271 0.3034 0.47153 0.0
H1160 H 0.69242 0.225 0.39064 0.0
H1161 H 0.71555 0.18878 0.47203 0.0
H1162 H 0.76845 0.26912 0.37906 0.0
H1163 H 0.73854 0.29939 0.39196 0.0
H1164 H 0.72461 0.26685 0.36832 0.0
H1165 H 0.79535 0.22624 0.47937 0.0
H1166 H 0.75913 0.21249 0.4993 0.0
H1167 H 0.76632 0.25705 0.49263 0.0
C1168 C 0.23633 0.69515 0.90971 0.0
C1169 C 0.20631 0.69827 0.92532 0.0
C1170 C 0.26059 0.72138 0.90882 0.0
C1171 C 0.2552 0.75146 0.92423 0.0
C1172 C 0.22523 0.75483 0.94018 0.0
C1173 C 0.20109 0.72843 0.94035 0.0
C1174 C 0.2921 0.71684 0.89138 0.0
C1175 C 0.21877 0.78627 0.9573 0.0
C1176 C 0.33191 0.80732 0.94085 0.0
C1177 C 0.32836 0.83357 0.92146 0.0
C1178 C 0.30817 0.78058 0.94219 0.0
C1179 C 0.28063 0.77968 0.92328 0.0
C1180 C 0.2773 0.80585 0.90337 0.0
C1181 C 0.30104 0.83251 0.90282 0.0
C1182 C 0.3126 0.75331 0.96383 0.0
C1183 C 0.24865 0.80568 0.88259 0.0
H1184 H 0.24134 0.672 0.8984 0.0
H1185 H 0.17811 0.73161 0.95232 0.0
H1186 H 0.29412 0.73783 0.87615 0.0
H1187 H 0.31505 0.71797 0.90467 0.0
H1188 H 0.29216 0.69228 0.88005 0.0
H1189 H 0.19441 0.78486 0.96885 0.0
H1190 H 0.23978 0.7899 0.97233 0.0
H1191 H 0.21821 0.80904 0.94378 0.0
H1192 H 0.35287 0.80814 0.95537 0.0
H1193 H 0.29848 0.85239 0.88748 0.0
H1194 H 0.32042 0.72925 0.95372 0.0
H1195 H 0.28821 0.74836 0.97461 0.0
H1196 H 0.33214 0.76022 0.97944 0.0
H1197 H 0.24936 0.78186 0.87032 0.0
H1198 H 0.24993 0.82763 0.86818 0.0
H1199 H 0.22384 0.80636 0.89346 0.0
C1200 C 0.72856 0.34039 0.93126 0.0
C1201 C 0.69845 0.33356 0.91656 0.0
C1202 C 0.75556 0.31694 0.93194 0.0
C1203 C 0.75288 0.28595 0.91721 0.0
C1204 C 0.72324 0.27928 0.90158 0.0
C1205 C 0.69642 0.30289 0.9016 0.0
C1206 C 0.78664 0.32494 0.94908 0.0
C1207 C 0.71945 0.24673 0.8853 0.0
C1208 C 0.83431 0.23615 0.90325 0.0
C1209 C 0.83339 0.21112 0.92401 0.0
C1210 C 0.8081 0.26026 0.90049 0.0
C1211 C 0.7804 0.25986 0.91916 0.0
C1212 C 0.779 0.23453 0.93991 0.0
C1213 C 0.80518 0.21035 0.94187 0.0
C1214 C 0.81029 0.2865 0.87778 0.0
C1215 C 0.75004 0.23325 0.96039 0.0
H1216 H 0.73109 0.36387 0.94267 0.0
H1217 H 0.6736 0.29659 0.8903 0.0
H1218 H 0.7894 0.30578 0.96576 0.0
H1219 H 0.80983 0.3235 0.9361 0.0
H1220 H 0.78536 0.35057 0.95864 0.0
H1221 H 0.69598 0.24644 0.87253 0.0
H1222 H 0.74169 0.24308 0.87152 0.0
H1223 H 0.71867 0.22476 0.89965 0.0
H1224 H 0.85582 0.23756 0.8894 0.0
H1225 H 0.80348 0.19097 0.95764 0.0
H1226 H 0.81212 0.31229 0.88693 0.0
H1227 H 0.78688 0.28588 0.86499 0.0
H1228 H 0.83259 0.28243 0.8641 0.0
H1229 H 0.74876 0.25752 0.97204 0.0
H1230 H 0.75275 0.21207 0.97541 0.0
H1231 H 0.72553 0.23024 0.94933 0.0
C1232 C 0.79854 0.19298 0.6164 0.0
C1233 C 0.83029 0.19729 0.60355 0.0
C1234 C 0.77413 0.21909 0.61641 0.0
C1235 C 0.78143 0.25029 0.60309 0.0
C1236 C 0.81364 0.25513 0.59063 0.0
C1237 C 0.83766 0.2287 0.59112 0.0
C1238 C 0.74018 0.21296 0.63006 0.0
C1239 C 0.82245 0.28795 0.5761 0.0
C1240 C 0.70926 0.30524 0.57575 0.0
C1241 C 0.70803 0.33162 0.59527 0.0
C1242 C 0.73254 0.27835 0.57831 0.0
C1243 C 0.75503 0.27746 0.60117 0.0
C1244 C 0.75315 0.3033 0.6215 0.0
C1245 C 0.72981 0.33008 0.61827 0.0
C1246 C 0.73364 0.2513 0.55618 0.0
C1247 C 0.77659 0.30326 0.64621 0.0
H1248 H 0.79222 0.1688 0.62574 0.0
H1249 H 0.86218 0.23261 0.5815 0.0
H1250 H 0.73455 0.23357 0.64502 0.0
H1251 H 0.71977 0.21329 0.61424 0.0
H1252 H 0.73925 0.18821 0.6411 0.0
H1253 H 0.84902 0.28819 0.56834 0.0
H1254 H 0.80503 0.29185 0.55833 0.0
H1255 H 0.81896 0.30977 0.59034 0.0
H1256 H 0.69224 0.30584 0.55816 0.0
H1257 H 0.72956 0.35042 0.63333 0.0
H1258 H 0.72834 0.22605 0.56541 0.0
H1259 H 0.75944 0.25013 0.54697 0.0
H1260 H 0.71496 0.25602 0.53938 0.0
H1261 H 0.77519 0.27846 0.65708 0.0
H1262 H 0.77038 0.32379 0.66114 0.0
H1263 H 0.80324 0.30667 0.63925 0.0
C1264 C 0.33717 0.80186 0.61868 0.0
C1265 C 0.33723 0.82679 0.59784 0.0
C1266 C 0.31078 0.77781 0.62069 0.0
C1267 C 0.2839 0.77827 0.60122 0.0
C1268 C 0.28338 0.80369 0.58051 0.0
C1269 C 0.30975 0.82774 0.57926 0.0
C1270 C 0.31207 0.75142 0.64332 0.0
C1271 C 0.25533 0.80503 0.5592 0.0
C1272 C 0.23374 0.69722 0.58694 0.0
C1273 C 0.20295 0.70344 0.60081 0.0
C1274 C 0.26038 0.72109 0.5872 0.0
C1275 C 0.25659 0.75186 0.60207 0.0
C1276 C 0.22617 0.75792 0.61685 0.0
C1277 C 0.19973 0.7339 0.61587 0.0
C1278 C 0.29231 0.71374 0.57095 0.0
C1279 C 0.2212 0.79022 0.63323 0.0
H1280 H 0.35821 0.80036 0.63303 0.0
H1281 H 0.30896 0.84712 0.56341 0.0
H1282 H 0.28797 0.75156 0.65523 0.0
H1283 H 0.31479 0.72575 0.63409 0.0
H1284 H 0.33353 0.75569 0.65784 0.0
H1285 H 0.25831 0.82669 0.54467 0.0
H1286 H 0.25504 0.7811 0.54705 0.0
H1287 H 0.23027 0.80723 0.56954 0.0
H1288 H 0.2371 0.67382 0.57555 0.0
H1289 H 0.17623 0.73965 0.62644 0.0
H1290 H 0.31487 0.71525 0.58464 0.0
H1291 H 0.29559 0.73319 0.55455 0.0
H1292 H 0.29176 0.68824 0.5611 0.0
H1293 H 0.24269 0.79396 0.64778 0.0
H1294 H 0.19711 0.79007 0.6452 0.0
H1295 H 0.22089 0.81236 0.61903 0.0
C1296 C 0.55292 0.04269 0.0598 0.0
C1297 C 0.58483 0.04272 0.04673 0.0
C1298 C 0.52377 0.03011 0.0464 0.0
C1299 C 0.52646 0.01667 0.01934 0.0
C1300 C 0.55856 0.0166 1.006 0.0
C1301 C 0.58727 0.02982 0.01976 0.0
C1302 C 0.49008 0.03107 0.06131 0.0
C1303 C 0.56267 1.00211 0.97731 0.0
C1304 C 0.4574 0.95544 0.99441 0.0
C1305 C 0.43834 0.97616 0.97665 0.0
C1306 C 0.48611 0.96824 1.00843 0.0
C1307 C 0.49565 1.00278 1.00499 0.0
C1308 C 0.47574 0.02405 0.98777 0.0
C1309 C 0.44756 1.01044 0.9737 0.0
C1310 C 0.50687 0.94451 0.0262 0.0
C1311 C 0.48436 0.06117 0.98397 0.0
H1312 H 0.55063 0.05259 0.08062 0.0
H1313 H 0.61178 0.02942 1.00955 0.0
H1314 H 0.47106 0.04499 0.04871 0.0
H1315 H 0.48038 1.00483 0.06423 0.0
H1316 H 0.49198 0.04348 0.08188 0.0
H1317 H 0.58936 1.00349 0.9699 0.0
H1318 H 0.55439 0.97515 0.97707 0.0
H1319 H 0.54623 0.0161 0.96256 0.0
H1320 H 0.45063 0.92886 0.99656 0.0
H1321 H 0.43262 0.02675 0.96038 0.0
H1322 H 0.51103 0.95573 0.04695 0.0
H1323 H 0.53226 0.94078 0.01669 0.0
H1324 H 0.49457 0.91928 0.02869 0.0
H1325 H 0.48564 0.07403 1.00435 0.0
H1326 H 0.46547 0.07463 0.97086 0.0
H1327 H 0.50975 0.06367 0.97422 0.0
C1328 C 0.46805 0.55853 0.04626 0.0
C1329 C 0.48439 0.59002 0.04359 0.0
C1330 C 0.48054 0.52946 0.03274 0.0
C1331 C 0.51084 0.53164 0.01701 0.0
C1332 C 0.52783 0.56333 0.01476 0.0
C1333 C 0.51411 0.59225 0.02775 0.0
C1334 C 0.46098 0.49655 0.03492 0.0
C1335 C 0.56056 0.56661 0.99871 0.0
C1336 C 0.55625 0.44816 1.00032 0.0
C1337 C 0.5469 0.44298 0.97262 0.0
C1338 C 0.54546 0.47731 0.01488 0.0
C1339 C 0.52379 0.5012 1.00177 0.0
C1340 C 0.51416 0.49595 0.97393 0.0
C1341 C 0.52637 0.46744 0.95964 0.0
C1342 C 0.55741 0.48266 0.04421 0.0
C1343 C 0.49038 0.52011 0.95926 0.0
H1344 H 0.44512 0.55678 0.05861 0.0
H1345 H 0.52718 0.61644 0.02617 0.0
H1346 H 0.45353 0.48775 0.01398 0.0
H1347 H 0.47728 0.47653 0.04412 0.0
H1348 H 0.43768 0.49917 0.04771 0.0
H1349 H 0.57125 0.59271 0.9997 0.0
H1350 H 0.57966 0.54847 1.00691 0.0
H1351 H 0.55623 0.55997 0.97671 0.0
H1352 H 0.57249 0.42976 1.01049 0.0
H1353 H 0.51945 0.46435 0.93822 0.0
H1354 H 0.53549 0.48097 0.05855 0.0
H1355 H 0.56848 0.50846 0.04652 0.0
H1356 H 0.57672 0.4636 0.05056 0.0
H1357 H 0.46508 0.51945 0.96939 0.0
H1358 H 0.48712 0.51356 0.93708 0.0
H1359 H 0.49992 0.54657 0.96067 0.0
C1360 C 0.95136 0.50649 0.04685 0.0
C1361 C 0.95394 0.47252 0.0554 0.0
C1362 C 0.97735 0.52192 0.03125 0.0
C1363 C 1.00628 0.50272 0.02342 0.0
C1364 C 1.00804 0.46788 0.03063 0.0
C1365 C 0.98212 0.45336 0.04677 0.0
C1366 C 0.97439 0.55919 0.02434 0.0
C1367 C 0.03766 0.44605 0.02172 0.0
C1368 C 0.0615 0.53434 0.96413 0.0
C1369 C 0.09048 0.54656 0.97797 0.0
C1370 C 0.03409 0.52 0.97861 0.0
C1371 C 0.03486 0.51889 1.00782 0.0
C1372 C 0.06336 0.5324 0.02204 0.0
C1373 C 0.09101 0.54565 1.00697 0.0
C1374 C 1.00446 0.50557 0.96257 0.0
C1375 C 0.06469 0.53265 0.05322 0.0
H1376 H 0.92965 0.52151 0.05318 0.0
H1377 H 0.9842 0.42697 0.05297 0.0
H1378 H 0.98345 0.56461 1.00309 0.0
H1379 H 0.94778 0.56823 0.02625 0.0
H1380 H 0.99044 0.57399 0.03888 0.0
H1381 H 0.03428 0.41897 0.02761 0.0
H1382 H 0.04098 0.44753 0.99896 0.0
H1383 H 0.06143 0.45561 0.0313 0.0
H1384 H 0.06027 0.53547 0.9418 0.0
H1385 H 0.113 0.55534 0.01792 0.0
H1386 H 0.98061 0.51858 0.9687 0.0
H1387 H 1.00134 0.47819 0.9675 0.0
H1388 H 1.00777 0.50826 0.93987 0.0
H1389 H 0.04204 0.54596 0.06158 0.0
H1390 H 0.08791 0.54536 0.06122 0.0
H1391 H 0.06405 0.50621 0.06116 0.0
C1392 C 0.97603 0.06037 0.97275 0.0
C1393 C 0.98765 0.09256 0.98099 0.0
C1394 C 0.98784 0.03058 0.98562 0.0
C1395 C 1.0125 0.03288 1.00687 0.0
C1396 C 0.02465 0.06531 0.01504 0.0
C1397 C 1.01179 0.09476 1.00223 0.0
C1398 C 0.97379 0.99666 0.97657 0.0
C1399 C 0.05159 0.06884 0.03707 0.0
C1400 C 0.02109 0.96154 0.05953 0.0
C1401 C 0.04922 0.94324 0.04957 0.0
C1402 C 1.00848 0.99011 0.0455 0.0
C1403 C 0.02486 1.00148 0.02115 0.0
C1404 C 0.0532 0.98313 1.01084 0.0
C1405 C 0.06477 0.954 0.02498 0.0
C1406 C 0.97773 1.00831 0.05695 0.0
C1407 C 0.07146 0.99433 0.98497 0.0
H1408 H 0.95746 0.05847 0.95626 0.0
H1409 H 0.02137 0.11949 1.00833 0.0
H1410 H 0.99464 0.98033 0.96874 0.0
H1411 H 0.96223 0.98334 0.99448 0.0
H1412 H 0.95428 0.99923 0.9601 0.0
H1413 H 0.05929 0.0957 0.04035 0.0
H1414 H 0.04206 0.05841 0.05692 0.0
H1415 H 0.07441 0.05389 0.03123 0.0
H1416 H 1.00883 0.9537 0.0785 0.0
H1417 H 0.08655 0.94018 0.01713 0.0
H1418 H 0.9578 1.01049 0.04081 0.0
H1419 H 0.98486 0.03449 0.06319 0.0
H1420 H 0.9667 0.99507 0.07515 0.0
H1421 H 0.0552 0.98922 0.9667 0.0
H1422 H 0.09597 0.98077 0.98214 0.0
H1423 H 0.07643 0.02206 0.98549 0.0
C1424 C 0.97863 0.0515 0.56026 0.0
C1425 C 0.94656 0.04606 0.54827 0.0
C1426 C 1.00851 0.03994 0.54746 0.0
C1427 C 1.00641 0.02189 0.52221 0.0
C1428 C 0.97413 0.01629 0.50996 0.0
C1429 C 0.94461 0.02869 0.52301 0.0
C1430 C 0.04237 0.04711 0.56097 0.0
C1431 C 0.97074 0.99671 0.48327 0.0
C1432 C 0.08421 0.0174 0.47553 0.0
C1433 C 0.09752 0.9853 0.48195 0.0
C1434 C 0.05496 0.02981 0.48874 0.0
C1435 C 0.03808 1.0093 0.50851 0.0
C1436 C 0.05167 0.97694 0.51531 0.0
C1437 C 0.08153 0.96551 0.50219 0.0
C1438 C 0.04192 0.06472 0.48122 0.0
C1439 C 0.03425 0.9541 0.53599 0.0
H1440 H 0.98044 0.06498 0.57975 0.0
H1441 H 0.91994 0.02402 0.51378 0.0
H1442 H 0.05542 0.02288 0.56591 0.0
H1443 H 0.05899 0.06133 0.54648 0.0
H1444 H 0.03972 0.06211 0.5803 0.0
H1445 H 0.94385 0.99412 0.47658 0.0
H1446 H 0.98523 1.00962 0.46664 0.0
H1447 H 0.98175 0.97093 0.48578 0.0
H1448 H 0.09681 0.03293 0.46014 0.0
H1449 H 0.0916 0.94053 0.50694 0.0
H1450 H 0.0379 0.08016 0.50013 0.0
H1451 H 0.017 0.0624 0.47065 0.0
H1452 H 0.05965 0.07859 0.46735 0.0
H1453 H 0.03384 0.96648 0.55659 0.0
H1454 H 0.04705 0.92906 0.53795 0.0
H1455 H 1.00743 0.94983 0.52978 0.0
C1456 C 0.57574 0.07937 0.49972 0.0
C1457 C 0.5556 0.09581 0.47991 0.0
C1458 C 0.5643 0.04953 0.51291 0.0
C1459 C 0.53172 0.03621 0.50647 0.0
C1460 C 0.51085 0.05352 0.48721 0.0
C1461 C 0.52312 0.08292 0.4741 0.0
C1462 C 0.58737 0.03183 0.53326 0.0
C1463 C 0.47576 0.04068 0.47998 0.0
C1464 C 0.51315 0.94233 0.51986 0.0
C1465 C 0.49544 0.94359 0.54501 0.0
C1466 C 0.52525 0.97221 0.50716 0.0
C1467 C 0.51939 1.00419 0.51981 0.0
C1468 C 0.50128 1.00563 0.54505 0.0
C1469 C 0.48964 0.97543 0.55734 0.0
C1470 C 0.54458 0.96955 0.48031 0.0
C1471 C 0.49417 0.03914 0.55913 0.0
H1472 H 0.60094 0.0891 0.50414 0.0
H1473 H 0.50718 0.09588 0.45921 0.0
H1474 H 0.57484 0.03025 0.55376 0.0
H1475 H 0.5923 1.00541 0.52634 0.0
H1476 H 0.6121 0.04512 0.53571 0.0
H1477 H 0.46166 0.0587 0.46653 0.0
H1478 H 0.47784 0.01597 0.46906 0.0
H1479 H 0.46068 0.03628 0.49902 0.0
H1480 H 0.51805 0.91793 0.51026 0.0
H1481 H 0.47604 0.97683 0.57678 0.0
H1482 H 0.57034 0.98064 0.4828 0.0
H1483 H 0.53142 0.98435 0.46399 0.0
H1484 H 0.54722 0.94284 0.47319 0.0
H1485 H 0.51843 0.05225 0.56394 0.0
H1486 H 0.47958 0.03597 0.57862 0.0
H1487 H 0.47957 0.05597 0.54508 0.0
C1488 C 0.46663 0.53773 0.46459 0.0
C1489 C 0.4372 0.54921 0.47818 0.0
C1490 C 0.4941 0.52386 0.4793 0.0
C1491 C 0.4926 0.52188 0.50847 0.0
C1492 C 0.46355 0.53451 0.52245 0.0
C1493 C 0.43611 0.5478 0.50715 0.0
C1494 C 0.52432 0.51033 0.4635 0.0
C1495 C 0.46117 0.53334 0.55357 0.0
C1496 C 0.54429 0.45378 0.54526 0.0
C1497 C 0.57238 0.4722 0.55504 0.0
C1498 C 0.51861 0.46954 0.52969 0.0
C1499 C 0.52054 0.50484 0.52419 0.0
C1500 C 0.54907 0.52355 0.53364 0.0
C1501 C 0.57494 0.50688 0.54851 0.0
C1502 C 0.48912 0.44845 0.51943 0.0
C1503 C 0.55216 0.56124 0.52832 0.0
H1504 H 0.46811 0.53899 0.44226 0.0
H1505 H 0.41368 0.55675 0.51792 0.0
H1506 H 0.54809 0.52215 0.47122 0.0
H1507 H 0.52656 0.48251 0.46684 0.0
H1508 H 0.52227 0.51514 0.44093 0.0
H1509 H 0.43822 0.54661 0.56146 0.0
H1510 H 0.46034 0.50651 0.56059 0.0
H1511 H 0.48405 0.54516 0.56295 0.0
H1512 H 0.54217 0.42694 0.55 0.0
H1513 H 0.59662 0.52134 0.55578 0.0
H1514 H 0.48642 0.45142 0.49674 0.0
H1515 H 0.46516 0.45753 0.52899 0.0
H1516 H 0.49221 0.42102 0.52424 0.0
H1517 H 0.57321 0.57294 0.54034 0.0
H1518 H 0.52812 0.57442 0.53366 0.0
H1519 H 0.55695 0.56565 0.50602 0.0
C1520 C 0.03727 0.56391 0.55554 0.0
C1521 C 0.05022 0.59263 0.54178 0.0
C1522 C 0.0222 0.53688 0.54098 0.0
C1523 C 0.02071 0.53793 0.51176 0.0
C1524 C 0.03481 0.56622 0.49764 0.0
C1525 C 0.04912 0.59331 0.51278 0.0
C1526 C 1.00726 0.50748 0.55695 0.0
C1527 C 0.03418 0.56819 0.46648 0.0
C1528 C 1.00395 0.45594 0.47144 0.0
C1529 C 0.96986 0.46011 0.46353 0.0
C1530 C 0.02093 0.48102 0.48704 0.0
C1531 C 1.003 0.51028 0.49603 0.0
C1532 C 0.96803 0.51351 0.48954 0.0
C1533 C 0.95209 0.48872 0.47308 0.0
C1534 C 0.05828 0.4766 0.49324 0.0
C1535 C 0.94757 0.54362 0.49946 0.0
H1536 H 0.03839 0.56262 0.57788 0.0
H1537 H 0.05917 0.61515 0.50186 0.0
H1538 H 0.98012 0.50402 0.55134 0.0
H1539 H 0.02069 0.48366 0.55143 0.0
H1540 H 1.00906 0.5112 0.57967 0.0
H1541 H 0.04891 0.59019 0.4585 0.0
H1542 H 0.0447 0.54453 0.45742 0.0
H1543 H 1.00752 0.57053 0.45924 0.0
H1544 H 0.01788 0.43382 0.46445 0.0
H1545 H 0.92566 0.49204 0.46732 0.0
H1546 H 0.06195 0.47319 0.5158 0.0
H1547 H 0.07261 0.49969 0.48708 0.0
H1548 H 0.06936 0.45433 0.48237 0.0
H1549 H 0.94962 0.54603 0.52226 0.0
H1550 H 0.92025 0.54151 0.49388 0.0
H1551 H 0.95786 0.56734 0.49032 0.0
C1552 C 0.61031 0.16323 0.3154 0.0
C1553 C 0.60429 0.13658 0.33405 0.0
C1554 C 0.6171 0.15676 0.28741 0.0
C1555 C 0.61783 0.12281 0.27778 0.0
C1556 C 0.61252 0.09574 0.29662 0.0
C1557 C 0.60586 0.10295 0.32457 0.0
C1558 C 0.62283 0.18631 0.26803 0.0
C1559 C 0.61314 0.05919 0.28714 0.0
C1560 C 0.60078 0.10638 0.20153 0.0
C1561 C 0.63366 0.10084 0.19133 0.0
C1562 C 0.59529 0.11373 0.22959 0.0
C1563 C 0.62337 0.11567 0.24787 0.0
C1564 C 0.65667 0.11069 0.23758 0.0
C1565 C 0.66141 0.10331 0.20945 0.0
C1566 C 0.55939 0.11894 0.23977 0.0
C1567 C 0.68727 0.11274 0.25636 0.0
H1568 H 0.60919 0.1893 0.32257 0.0
H1569 H 0.60116 0.08226 0.33885 0.0
H1570 H 0.64752 0.18341 0.25722 0.0
H1571 H 0.60269 0.18668 0.25198 0.0
H1572 H 0.62269 0.21113 0.27898 0.0
H1573 H 0.60959 0.04106 0.30451 0.0
H1574 H 0.59269 0.05488 0.27173 0.0
H1575 H 0.63765 0.0535 0.27681 0.0
H1576 H 0.57922 0.10441 0.18767 0.0
H1577 H 0.68692 0.09904 0.20172 0.0
H1578 H 0.55699 0.14428 0.24963 0.0
H1579 H 0.55321 0.09966 0.25574 0.0
H1580 H 0.54038 0.11704 0.22286 0.0
H1581 H 0.68807 0.13785 0.26677 0.0
H1582 H 0.71152 0.10895 0.24501 0.0
H1583 H 0.68534 0.09314 0.27278 0.0
C1584 C 0.42293 0.60339 0.31967 0.0
C1585 C 0.39021 0.59988 0.33077 0.0
C1586 C 0.42771 0.60973 0.29133 0.0
C1587 C 0.39908 0.61276 0.2737 0.0
C1588 C 0.36599 0.60981 0.28491 0.0
C1589 C 0.36196 0.60335 0.31326 0.0
C1590 C 0.46342 0.61275 0.28017 0.0
C1591 C 0.33482 0.61311 0.26688 0.0
C1592 C 0.41216 0.65821 0.20518 0.0
C1593 C 0.41609 0.63093 0.18677 0.0
C1594 C 0.40598 0.65267 0.2334 0.0
C1595 C 0.40379 0.619 0.24354 0.0
C1596 C 0.40678 0.59133 0.22493 0.0
C1597 C 0.41283 0.59763 0.19674 0.0
C1598 C 0.40265 0.68286 0.25248 0.0
C1599 C 0.40454 0.55506 0.23495 0.0
H1600 H 0.44486 0.60061 0.33304 0.0
H1601 H 0.33656 0.60069 0.32167 0.0
H1602 H 0.46786 0.59288 0.2643 0.0
H1603 H 0.46684 0.63775 0.26994 0.0
H1604 H 0.48295 0.61007 0.29661 0.0
H1605 H 0.31086 0.61081 0.27888 0.0
H1606 H 0.33494 0.63805 0.25617 0.0
H1607 H 0.33506 0.59315 0.25068 0.0
H1608 H 0.4146 0.68404 0.19764 0.0
H1609 H 0.41599 0.57643 0.18267 0.0
H1610 H 0.42355 0.68258 0.26788 0.0
H1611 H 0.37839 0.68142 0.2641 0.0
H1612 H 0.40349 0.70741 0.24115 0.0
H1613 H 0.42545 0.54989 0.24975 0.0
H1614 H 0.40619 0.53644 0.21774 0.0
H1615 H 0.38027 0.55096 0.24613 0.0
C1616 C 0.92853 0.43176 0.19551 0.0
C1617 C 0.89459 0.4343 0.18691 0.0
C1618 C 0.93674 0.4267 0.22351 0.0
C1619 C 0.91037 0.42401 0.24334 0.0
C1620 C 0.87607 0.42631 0.23471 0.0
C1621 C 0.86861 0.43144 0.20663 0.0
C1622 C 0.97362 0.42427 0.2319 0.0
C1623 C 0.84719 0.42331 0.25513 0.0
C1624 C 0.92829 0.37712 0.31034 0.0
C1625 C 0.9329 0.40386 0.3292 0.0
C1626 C 0.92113 0.38339 0.28242 0.0
C1627 C 0.91851 0.41729 0.27295 0.0
C1628 C 0.92309 0.44449 0.29184 0.0
C1629 C 0.93021 0.43745 0.3198 0.0
C1630 C 0.91631 0.35365 0.26305 0.0
C1631 C 0.92048 0.48098 0.28249 0.0
H1632 H 0.94875 0.43419 0.18042 0.0
H1633 H 0.8423 0.43349 0.20018 0.0
H1634 H 0.97954 0.44394 0.24762 0.0
H1635 H 0.97864 0.39917 0.24151 0.0
H1636 H 0.99112 0.42758 0.21408 0.0
H1637 H 0.82193 0.42627 0.24516 0.0
H1638 H 0.84811 0.39815 0.26547 0.0
H1639 H 0.84983 0.44292 0.27147 0.0
H1640 H 0.93032 0.35105 0.31738 0.0
H1641 H 0.93382 0.4582 0.33424 0.0
H1642 H 0.93494 0.3551 0.24588 0.0
H1643 H 0.89057 0.35459 0.25371 0.0
H1644 H 0.91942 0.3288 0.27366 0.0
H1645 H 0.93922 0.48597 0.26584 0.0
H1646 H 0.92504 0.49921 0.29963 0.0
H1647 H 0.89487 0.48583 0.27373 0.0
C1648 C 0.10304 0.92986 0.3261 0.0
C1649 C 0.13664 0.93323 0.33533 0.0
C1650 C 0.09586 0.92302 0.29822 0.0
C1651 C 0.12295 0.91942 0.27916 0.0
C1652 C 0.15694 0.92229 0.28845 0.0
C1653 C 0.16337 0.92917 0.31642 0.0
C1654 C 0.05928 0.92002 0.28907 0.0
C1655 C 0.18649 0.91845 0.26878 0.0
C1656 C 0.10435 0.87232 0.21242 0.0
C1657 C 0.09913 0.89915 0.1938 0.0
C1658 C 0.11262 0.87856 0.24015 0.0
C1659 C 0.1157 0.91248 0.24952 0.0
C1660 C 0.1112 0.9397 0.2307 0.0
C1661 C 0.10299 0.9327 0.20301 0.0
C1662 C 0.11739 0.84885 0.25954 0.0
C1663 C 0.11438 0.97621 0.23995 0.0
H1664 H 0.08228 0.93307 0.34059 0.0
H1665 H 0.18942 0.93177 0.32341 0.0
H1666 H 0.05364 0.93954 0.27317 0.0
H1667 H 0.05486 0.89481 0.27944 0.0
H1668 H 0.04117 0.92321 0.3065 0.0
H1669 H 0.21142 0.921 0.27938 0.0
H1670 H 0.18543 0.89325 0.25854 0.0
H1671 H 0.18489 0.93799 0.2523 0.0
H1672 H 0.10146 0.8463 0.20543 0.0
H1673 H 0.09892 0.95353 0.18872 0.0
H1674 H 0.09801 0.84982 0.27618 0.0
H1675 H 0.14269 0.85032 0.26961 0.0
H1676 H 0.11525 0.82401 0.24877 0.0
H1677 H 0.0949 0.9818 0.25588 0.0
H1678 H 0.11118 0.99441 0.22258 0.0
H1679 H 0.13962 0.98051 0.24957 0.0
C1680 C 0.43079 0.93206 0.82014 0.0
C1681 C 0.39723 0.93375 0.82975 0.0
C1682 C 0.43781 0.92472 0.79226 0.0
C1683 C 0.41061 0.91884 0.77363 0.0
C1684 C 0.37672 0.91995 0.78337 0.0
C1685 C 0.37046 0.92743 0.81126 0.0
C1686 C 0.47429 0.92373 0.78264 0.0
C1687 C 0.34703 0.91364 0.76425 0.0
C1688 C 0.42598 0.9322 0.69673 0.0
C1689 C 0.43115 0.89883 0.68749 0.0
C1690 C 0.41922 0.93907 0.7247 0.0
C1691 C 0.41749 0.9119 0.74387 0.0
C1692 C 0.42208 0.87811 0.73456 0.0
C1693 C 0.42888 0.87199 0.7065 0.0
C1694 C 0.41437 0.97545 0.73381 0.0
C1695 C 0.4202 0.84843 0.7543 0.0
H1696 H 0.45157 0.93698 0.8343 0.0
H1697 H 0.34442 0.92861 0.81852 0.0
H1698 H 0.47996 0.8987 0.77315 0.0
H1699 H 0.47843 0.94333 0.7665 0.0
H1700 H 0.49253 0.92823 0.79979 0.0
H1701 H 0.32224 0.91465 0.77521 0.0
H1702 H 0.34685 0.93292 0.74752 0.0
H1703 H 0.34957 0.88837 0.75429 0.0
H1704 H 0.42784 0.95308 0.68219 0.0
H1705 H 0.43289 0.84611 0.69954 0.0
H1706 H 0.43385 0.98222 0.74947 0.0
H1707 H 0.38914 0.97849 0.74374 0.0
H1708 H 0.41624 0.99365 0.71632 0.0
H1709 H 0.43994 0.85113 0.77054 0.0
H1710 H 0.42388 0.82366 0.7437 0.0
H1711 H 0.39517 0.84814 0.76485 0.0
C1712 C 0.6596 0.41801 0.70296 0.0
C1713 C 0.63316 0.42302 0.68392 0.0
C1714 C 0.65278 0.41087 0.73082 0.0
C1715 C 0.61867 0.40873 0.73993 0.0
C1716 C 0.59184 0.41279 0.72066 0.0
C1717 C 0.59941 0.41985 0.69284 0.0
C1718 C 0.6821 0.40652 0.75067 0.0
C1719 C 0.55513 0.41062 0.72958 0.0
C1720 C 0.60031 0.36558 0.80867 0.0
C1721 C 0.59665 0.39353 0.82643 0.0
C1722 C 0.60751 0.37012 0.78048 0.0
C1723 C 0.61112 0.40341 0.76979 0.0
C1724 C 0.60778 0.43172 0.78768 0.0
C1725 C 0.6006 0.42643 0.8158 0.0
C1726 C 0.61102 0.33931 0.76209 0.0
C1727 C 0.61155 0.46762 0.77708 0.0
H1728 H 0.68577 0.42034 0.69621 0.0
H1729 H 0.57887 0.42377 0.67826 0.0
H1730 H 0.68145 0.42697 0.76645 0.0
H1731 H 0.67983 0.38196 0.76177 0.0
H1732 H 0.70713 0.40733 0.74006 0.0
H1733 H 0.53729 0.41283 0.71187 0.0
H1734 H 0.55035 0.38614 0.74028 0.0
H1735 H 0.54949 0.43124 0.74453 0.0
H1736 H 0.59725 0.34006 0.81673 0.0
H1737 H 0.59773 0.44814 0.82939 0.0
H1738 H 0.63643 0.33918 0.75216 0.0
H1739 H 0.59183 0.34031 0.7453 0.0
H1740 H 0.60771 0.31514 0.77365 0.0
H1741 H 0.63703 0.47104 0.76767 0.0
H1742 H 0.60827 0.48686 0.79368 0.0
H1743 H 0.59246 0.47255 0.76067 0.0
C1744 C 0.10616 0.66493 0.70712 0.0
C1745 C 0.10201 0.6372 0.68918 0.0
C1746 C 0.11258 0.66005 0.73539 0.0
C1747 C 0.11482 0.62662 0.74603 0.0
C1748 C 0.1111 0.59851 0.72796 0.0
C1749 C 0.1048 0.60414 0.69973 0.0
C1750 C 0.11662 0.69067 0.75392 0.0
C1751 C 0.11334 0.56247 0.73853 0.0
C1752 C 0.1601 0.61106 0.81426 0.0
C1753 C 0.13275 0.60736 0.83263 0.0
C1754 C 0.15464 0.6179 0.78613 0.0
C1755 C 0.121 0.62103 0.77608 0.0
C1756 C 0.0933 0.61816 0.79465 0.0
C1757 C 0.09951 0.61142 0.82274 0.0
C1758 C 0.18487 0.62103 0.76706 0.0
C1759 C 0.05706 0.6214 0.78471 0.0
H1760 H 0.10406 0.69058 0.69913 0.0
H1761 H 0.1015 0.58261 0.68601 0.0
H1762 H 0.0967 0.69044 0.77015 0.0
H1763 H 0.14157 0.68975 0.76458 0.0
H1764 H 0.11481 0.71498 0.74233 0.0
H1765 H 0.11021 0.54342 0.72178 0.0
H1766 H 0.13828 0.55827 0.74868 0.0
H1767 H 0.0934 0.55806 0.75435 0.0
H1768 H 0.18588 0.608 0.82175 0.0
H1769 H 0.07827 0.60848 0.8368 0.0
H1770 H 0.18401 0.64564 0.7559 0.0
H1771 H 0.18401 0.6006 0.75127 0.0
H1772 H 0.20942 0.61927 0.77832 0.0
H1773 H 0.05345 0.64607 0.774 0.0
H1774 H 0.03843 0.6196 0.80189 0.0
H1775 H 0.05145 0.60104 0.7695 0.0
C1776 C 0.92336 0.10196 0.82696 0.0
C1777 C 0.92724 0.13538 0.83652 0.0
C1778 C 0.91707 0.09525 0.79889 0.0
C1779 C 0.91437 0.12262 0.77998 0.0
C1780 C 0.91732 0.15644 0.78967 0.0
C1781 C 0.92381 0.1624 0.81779 0.0
C1782 C 0.9141 0.05883 0.78934 0.0
C1783 C 0.91427 0.18631 0.77023 0.0
C1784 C 0.932 0.10451 0.70403 0.0
C1785 C 0.89904 0.10091 0.69341 0.0
C1786 C 0.93735 0.11183 0.73214 0.0
C1787 C 0.90907 0.11584 0.74998 0.0
C1788 C 0.87574 0.11296 0.73921 0.0
C1789 C 0.87114 0.10543 0.71109 0.0
C1790 C 0.97329 0.11467 0.74286 0.0
C1791 C 0.84493 0.11735 0.75747 0.0
H1792 H 0.92611 0.08097 0.8413 0.0
H1793 H 0.9267 0.18831 0.82503 0.0
H1794 H 0.88948 0.05486 0.77863 0.0
H1795 H 0.93454 0.05312 0.77424 0.0
H1796 H 0.91597 0.04049 0.80674 0.0
H1797 H 0.91582 0.21106 0.78122 0.0
H1798 H 0.93485 0.18529 0.75458 0.0
H1799 H 0.88976 0.18514 0.75892 0.0
H1800 H 0.95366 0.10094 0.69051 0.0
H1801 H 0.84557 0.10276 0.70301 0.0
H1802 H 0.97778 0.09506 0.75894 0.0
H1803 H 0.97719 0.13982 0.75272 0.0
H1804 H 0.99249 0.11143 0.72624 0.0
H1805 H 0.84494 0.09769 0.77391 0.0
H1806 H 0.82075 0.11539 0.74572 0.0
H1807 H 0.8458 0.14247 0.76787 0.0
loop_
_geom_bond_atom_site_label_1
_geom_bond_atom_site_label_2
_geom_bond_distance
_geom_bond_site_symmetry_2
_ccdc_geom_bond_type
Co0 N4 2.148 . S
Co0 N10 2.128 1_545 S
Co0 N20 2.194 . S
Co0 O25 2.351 . S
Co0 O26 2.155 . S
Co0 O27 2.096 . S
C1 N4 1.301 . S
C1 N5 1.328 . S
C1 H6 0.930 . S
C2 C3 1.333 . S
C2 N4 1.317 . S
C2 H7 0.930 . S
C3 C2 1.333 . S
C3 N5 1.350 . S
C3 H29 0.931 . S
N4 Co0 2.148 . S
N4 C1 1.301 . S
N4 C2 1.317 . S
N5 C1 1.328 . S
N5 C3 1.350 . S
H6 C1 0.930 . S
H7 C2 0.930 . S
C8 O9 1.224 . S
C8 O27 1.247 . S
O9 C8 1.224 . S
N10 Co0 2.128 1_565 S
N10 C11 1.355 . S
N10 C13 1.311 . S
C11 N10 1.355 . S
C11 C12 1.363 . S
C11 H23 0.929 . S
C12 C11 1.363 . S
C12 N14 1.375 . S
C12 H30 0.931 . S
C13 N10 1.311 . S
C13 N14 1.347 . S
C13 H24 0.929 . S
N14 C12 1.375 . S
N14 C13 1.347 . S
C15 C18 1.365 . S
C15 N20 1.328 . S
C15 H21 0.929 . S
C16 C17 1.362 . S
C16 C19 1.378 1_565 S
C16 H31 0.929 . S
C17 C16 1.362 . S
C17 C18 1.366 1_565 S
C18 C15 1.365 . S
C18 C17 1.366 1_545 S
C18 H32 0.930 . S
C19 C16 1.378 1_545 S
C19 N20 1.315 . S
C19 H22 0.930 . S
N20 Co0 2.194 . S
N20 C15 1.328 . S
N20 C19 1.315 . S
H21 C15 0.929 . S
H22 C19 0.930 . S
H23 C11 0.929 . S
H24 C13 0.929 . S
O25 Co0 2.351 . S
O25 C28 1.244 . S
O26 Co0 2.155 . S
O26 C28 1.240 . S
O27 Co0 2.096 . S
O27 C8 1.247 . S
C28 O25 1.244 . S
C28 O26 1.240 . S
H29 C3 0.931 . S
H30 C12 0.931 . S
H31 C16 0.929 . S
H32 C18 0.930 . S
Co33 N37 2.148 . S
Co33 N43 2.128 . S
Co33 N53 2.194 . S
Co33 O58 2.351 . S
Co33 O59 2.155 . S
Co33 O60 2.096 . S
C34 N37 1.301 . S
C34 N38 1.328 . S
C34 H39 0.930 . S
C35 C36 1.333 . S
C35 N37 1.317 . S
C35 H40 0.930 . S
C36 C35 1.333 . S
C36 N38 1.350 . S
C36 H62 0.931 . S
N37 Co33 2.148 . S
N37 C34 1.301 . S
N37 C35 1.317 . S
N38 C34 1.328 . S
N38 C36 1.350 . S
H39 C34 0.930 . S
H40 C35 0.930 . S
C41 O42 1.224 . S
C41 O60 1.247 . S
O42 C41 1.224 . S
N43 Co33 2.128 . S
N43 C44 1.355 . S
N43 C46 1.311 . S
C44 N43 1.355 . S
C44 C45 1.363 . S
C44 H56 0.929 . S
C45 C44 1.363 . S
C45 N47 1.375 . S
C45 H63 0.931 . S
C46 N43 1.311 . S
C46 N47 1.347 . S
C46 H57 0.929 . S
N47 C45 1.375 . S
N47 C46 1.347 . S
C48 C51 1.365 . S
C48 N53 1.328 . S
C48 H54 0.929 . S
C49 C50 1.362 . S
C49 C52 1.378 . S
C49 H64 0.929 . S
C50 C49 1.362 . S
C50 C51 1.366 . S
C51 C48 1.365 . S
C51 C50 1.366 . S
C51 H65 0.930 . S
C52 C49 1.378 . S
C52 N53 1.315 . S
C52 H55 0.930 . S
N53 Co33 2.194 . S
N53 C48 1.328 . S
N53 C52 1.315 . S
H54 C48 0.929 . S
H55 C52 0.930 . S
H56 C44 0.929 . S
H57 C46 0.929 . S
O58 Co33 2.351 . S
O58 C61 1.244 . S
O59 Co33 2.155 . S
O59 C61 1.240 . S
O60 Co33 2.096 . S
O60 C41 1.247 . S
C61 O58 1.244 . S
C61 O59 1.240 . S
H62 C36 0.931 . S
H63 C45 0.931 . S
H64 C49 0.929 . S
H65 C51 0.930 . S
Co66 N70 2.148 . S
Co66 N76 2.128 . S
Co66 N86 2.194 . S
Co66 O91 2.351 . S
Co66 O92 2.155 . S
Co66 O93 2.096 . S
C67 N70 1.301 . S
C67 N71 1.328 . S
C67 H72 0.930 . S
C68 C69 1.333 . S
C68 N70 1.317 . S
C68 H73 0.930 . S
C69 C68 1.333 . S
C69 N71 1.350 . S
C69 H95 0.931 . S
N70 Co66 2.148 . S
N70 C67 1.301 . S
N70 C68 1.317 . S
N71 C67 1.328 . S
N71 C69 1.350 . S
H72 C67 0.930 . S
H73 C68 0.930 . S
C74 O75 1.224 . S
C74 O93 1.247 . S
O75 C74 1.224 . S
N76 Co66 2.128 . S
N76 C77 1.355 . S
N76 C79 1.311 . S
C77 N76 1.355 . S
C77 C78 1.363 . S
C77 H89 0.929 . S
C78 C77 1.363 . S
C78 N80 1.375 . S
C78 H96 0.931 . S
C79 N76 1.311 . S
C79 N80 1.347 . S
C79 H90 0.929 . S
N80 C78 1.375 . S
N80 C79 1.347 . S
C81 C84 1.365 . S
C81 N86 1.328 . S
C81 H87 0.929 . S
C82 C83 1.362 . S
C82 C85 1.378 . S
C82 H97 0.929 . S
C83 C82 1.362 . S
C83 C84 1.366 . S
C84 C81 1.365 . S
C84 C83 1.366 . S
C84 H98 0.930 . S
C85 C82 1.378 . S
C85 N86 1.315 . S
C85 H88 0.930 . S
N86 Co66 2.194 . S
N86 C81 1.328 . S
N86 C85 1.315 . S
H87 C81 0.929 . S
H88 C85 0.930 . S
H89 C77 0.929 . S
H90 C79 0.929 . S
O91 Co66 2.351 . S
O91 C94 1.244 . S
O92 Co66 2.155 . S
O92 C94 1.240 . S
O93 Co66 2.096 . S
O93 C74 1.247 . S
C94 O91 1.244 . S
C94 O92 1.240 . S
H95 C69 0.931 . S
H96 C78 0.931 . S
H97 C82 0.929 . S
H98 C84 0.930 . S
Co99 N103 2.148 . S
Co99 N109 2.128 1_455 S
Co99 N119 2.194 . S
Co99 O124 2.351 . S
Co99 O125 2.155 . S
Co99 O126 2.096 . S
C100 N103 1.301 . S
C100 N104 1.328 . S
C100 H105 0.930 . S
C101 C102 1.333 . S
C101 N103 1.317 . S
C101 H106 0.930 . S
C102 C101 1.333 . S
C102 N104 1.350 . S
C102 H128 0.931 . S
N103 Co99 2.148 . S
N103 C100 1.301 . S
N103 C101 1.317 . S
N104 C100 1.328 . S
N104 C102 1.350 . S
H105 C100 0.930 . S
H106 C101 0.930 . S
C107 O108 1.224 . S
C107 O126 1.247 . S
O108 C107 1.224 . S
N109 Co99 2.128 1_655 S
N109 C110 1.355 . S
N109 C112 1.311 . S
C110 N109 1.355 . S
C110 C111 1.363 . S
C110 H122 0.929 . S
C111 C110 1.363 . S
C111 N113 1.375 . S
C111 H129 0.931 . S
C112 N109 1.311 . S
C112 N113 1.347 . S
C112 H123 0.929 . S
N113 C111 1.375 . S
N113 C112 1.347 . S
C114 C117 1.365 . S
C114 N119 1.328 . S
C114 H120 0.929 . S
C115 C116 1.362 . S
C115 C118 1.378 1_655 S
C115 H130 0.929 . S
C116 C115 1.362 . S
C116 C117 1.366 1_655 S
C117 C114 1.365 . S
C117 C116 1.366 1_455 S
C117 H131 0.930 . S
C118 C115 1.378 1_455 S
C118 N119 1.315 . S
C118 H121 0.930 . S
N119 Co99 2.194 . S
N119 C114 1.328 . S
N119 C118 1.315 . S
H120 C114 0.929 . S
H121 C118 0.930 . S
H122 C110 0.929 . S
H123 C112 0.929 . S
O124 Co99 2.351 . S
O124 C127 1.244 . S
O125 Co99 2.155 . S
O125 C127 1.240 . S
O126 Co99 2.096 . S
O126 C107 1.247 . S
C127 O124 1.244 . S
C127 O125 1.240 . S
H128 C102 0.931 . S
H129 C111 0.931 . S
H130 C115 0.929 . S
H131 C117 0.930 . S
Co132 N136 2.148 . S
Co132 N142 2.128 1_565 S
Co132 N152 2.194 . S
Co132 O157 2.351 . S
Co132 O158 2.155 . S
Co132 O159 2.096 . S
C133 N136 1.301 . S
C133 N137 1.328 . S
C133 H138 0.930 . S
C134 C135 1.333 . S
C134 N136 1.317 . S
C134 H139 0.930 . S
C135 C134 1.333 . S
C135 N137 1.350 . S
C135 H161 0.931 . S
N136 Co132 2.148 . S
N136 C133 1.301 . S
N136 C134 1.317 . S
N137 C133 1.328 . S
N137 C135 1.350 . S
H138 C133 0.930 . S
H139 C134 0.930 . S
C140 O141 1.224 . S
C140 O159 1.247 . S
O141 C140 1.224 . S
N142 Co132 2.128 1_545 S
N142 C143 1.355 . S
N142 C145 1.311 . S
C143 N142 1.355 . S
C143 C144 1.363 . S
C143 H155 0.929 . S
C144 C143 1.363 . S
C144 N146 1.375 . S
C144 H162 0.931 . S
C145 N142 1.311 . S
C145 N146 1.347 . S
C145 H156 0.929 . S
N146 C144 1.375 . S
N146 C145 1.347 . S
C147 C150 1.365 . S
C147 N152 1.328 . S
C147 H153 0.929 . S
C148 C149 1.362 . S
C148 C151 1.378 1_545 S
C148 H163 0.929 . S
C149 C148 1.362 . S
C149 C150 1.366 1_545 S
C150 C147 1.365 . S
C150 C149 1.366 1_565 S
C150 H164 0.930 . S
C151 C148 1.378 1_565 S
C151 N152 1.315 . S
C151 H154 0.930 . S
N152 Co132 2.194 . S
N152 C147 1.328 . S
N152 C151 1.315 . S
H153 C147 0.929 . S
H154 C151 0.930 . S
H155 C143 0.929 . S
H156 C145 0.929 . S
O157 Co132 2.351 . S
O157 C160 1.244 . S
O158 Co132 2.155 . S
O158 C160 1.240 . S
O159 Co132 2.096 . S
O159 C140 1.247 . S
C160 O157 1.244 . S
C160 O158 1.240 . S
H161 C135 0.931 . S
H162 C144 0.931 . S
H163 C148 0.929 . S
H164 C150 0.930 . S
Co165 N169 2.148 . S
Co165 N175 2.128 . S
Co165 N185 2.194 . S
Co165 O190 2.351 . S
Co165 O191 2.155 . S
Co165 O192 2.096 . S
C166 N169 1.301 . S
C166 N170 1.328 . S
C166 H171 0.930 . S
C167 C168 1.333 . S
C167 N169 1.317 . S
C167 H172 0.930 . S
C168 C167 1.333 . S
C168 N170 1.350 . S
C168 H194 0.931 . S
N169 Co165 2.148 . S
N169 C166 1.301 . S
N169 C167 1.317 . S
N170 C166 1.328 . S
N170 C168 1.350 . S
H171 C166 0.930 . S
H172 C167 0.930 . S
C173 O174 1.224 . S
C173 O192 1.247 . S
O174 C173 1.224 . S
N175 Co165 2.128 . S
N175 C176 1.355 . S
N175 C178 1.311 . S
C176 N175 1.355 . S
C176 C177 1.363 . S
C176 H188 0.929 . S
C177 C176 1.363 . S
C177 N179 1.375 . S
C177 H195 0.931 . S
C178 N175 1.311 . S
C178 N179 1.347 . S
C178 H189 0.929 . S
N179 C177 1.375 . S
N179 C178 1.347 . S
C180 C183 1.365 . S
C180 N185 1.328 . S
C180 H186 0.929 . S
C181 C182 1.362 . S
C181 C184 1.378 . S
C181 H196 0.929 . S
C182 C181 1.362 . S
C182 C183 1.366 . S
C183 C180 1.365 . S
C183 C182 1.366 . S
C183 H197 0.930 . S
C184 C181 1.378 . S
C184 N185 1.315 . S
C184 H187 0.930 . S
N185 Co165 2.194 . S
N185 C180 1.328 . S
N185 C184 1.315 . S
H186 C180 0.929 . S
H187 C184 0.930 . S
H188 C176 0.929 . S
H189 C178 0.929 . S
O190 Co165 2.351 . S
O190 C193 1.244 . S
O191 Co165 2.155 . S
O191 C193 1.240 . S
O192 Co165 2.096 . S
O192 C173 1.247 . S
C193 O190 1.244 . S
C193 O191 1.240 . S
H194 C168 0.931 . S
H195 C177 0.931 . S
H196 C181 0.929 . S
H197 C183 0.930 . S
Co198 N202 2.148 . S
Co198 N208 2.128 . S
Co198 N218 2.194 . S
Co198 O223 2.351 . S
Co198 O224 2.155 . S
Co198 O225 2.096 . S
C199 N202 1.301 . S
C199 N203 1.328 . S
C199 H204 0.930 . S
C200 C201 1.333 . S
C200 N202 1.317 . S
C200 H205 0.930 . S
C201 C200 1.333 . S
C201 N203 1.350 . S
C201 H227 0.931 . S
N202 Co198 2.148 . S
N202 C199 1.301 . S
N202 C200 1.317 . S
N203 C199 1.328 . S
N203 C201 1.350 . S
H204 C199 0.930 . S
H205 C200 0.930 . S
C206 O207 1.224 . S
C206 O225 1.247 . S
O207 C206 1.224 . S
N208 Co198 2.128 . S
N208 C209 1.355 . S
N208 C211 1.311 . S
C209 N208 1.355 . S
C209 C210 1.363 . S
C209 H221 0.929 . S
C210 C209 1.363 . S
C210 N212 1.375 . S
C210 H228 0.931 . S
C211 N208 1.311 . S
C211 N212 1.347 . S
C211 H222 0.929 . S
N212 C210 1.375 . S
N212 C211 1.347 . S
C213 C216 1.365 . S
C213 N218 1.328 . S
C213 H219 0.929 . S
C214 C215 1.362 . S
C214 C217 1.378 . S
C214 H229 0.929 . S
C215 C214 1.362 . S
C215 C216 1.366 . S
C216 C213 1.365 . S
C216 C215 1.366 . S
C216 H230 0.930 . S
C217 C214 1.378 . S
C217 N218 1.315 . S
C217 H220 0.930 . S
N218 Co198 2.194 . S
N218 C213 1.328 . S
N218 C217 1.315 . S
H219 C213 0.929 . S
H220 C217 0.930 . S
H221 C209 0.929 . S
H222 C211 0.929 . S
O223 Co198 2.351 . S
O223 C226 1.244 . S
O224 Co198 2.155 . S
O224 C226 1.240 . S
O225 Co198 2.096 . S
O225 C206 1.247 . S
C226 O223 1.244 . S
C226 O224 1.240 . S
H227 C201 0.931 . S
H228 C210 0.931 . S
H229 C214 0.929 . S
H230 C216 0.930 . S
Co231 N235 2.148 . S
Co231 N241 2.128 1_655 S
Co231 N251 2.194 . S
Co231 O256 2.351 . S
Co231 O257 2.155 . S
Co231 O258 2.096 . S
C232 N235 1.301 . S
C232 N236 1.328 . S
C232 H237 0.930 . S
C233 C234 1.333 . S
C233 N235 1.317 . S
C233 H238 0.930 . S
C234 C233 1.333 . S
C234 N236 1.350 . S
C234 H260 0.931 . S
N235 Co231 2.148 . S
N235 C232 1.301 . S
N235 C233 1.317 . S
N236 C232 1.328 . S
N236 C234 1.350 . S
H237 C232 0.930 . S
H238 C233 0.930 . S
C239 O240 1.224 . S
C239 O258 1.247 . S
O240 C239 1.224 . S
N241 Co231 2.128 1_455 S
N241 C242 1.355 . S
N241 C244 1.311 . S
C242 N241 1.355 . S
C242 C243 1.363 . S
C242 H254 0.929 . S
C243 C242 1.363 . S
C243 N245 1.375 . S
C243 H261 0.931 . S
C244 N241 1.311 . S
C244 N245 1.347 . S
C244 H255 0.929 . S
N245 C243 1.375 . S
N245 C244 1.347 . S
C246 C249 1.365 . S
C246 N251 1.328 . S
C246 H252 0.929 . S
C247 C248 1.362 . S
C247 C250 1.378 1_455 S
C247 H262 0.929 . S
C248 C247 1.362 . S
C248 C249 1.366 1_455 S
C249 C246 1.365 . S
C249 C248 1.366 1_655 S
C249 H263 0.930 . S
C250 C247 1.378 1_655 S
C250 N251 1.315 . S
C250 H253 0.930 . S
N251 Co231 2.194 . S
N251 C246 1.328 . S
N251 C250 1.315 . S
H252 C246 0.929 . S
H253 C250 0.930 . S
H254 C242 0.929 . S
H255 C244 0.929 . S
O256 Co231 2.351 . S
O256 C259 1.244 . S
O257 Co231 2.155 . S
O257 C259 1.240 . S
O258 Co231 2.096 . S
O258 C239 1.247 . S
C259 O256 1.244 . S
C259 O257 1.240 . S
H260 C234 0.931 . S
H261 C243 0.931 . S
H262 C247 0.929 . S
H263 C249 0.930 . S
Co264 N268 2.148 . S
Co264 N274 2.128 1_565 S
Co264 N284 2.194 . S
Co264 O289 2.351 . S
Co264 O290 2.155 . S
Co264 O291 2.096 . S
C265 N268 1.301 . S
C265 N269 1.328 . S
C265 H270 0.930 . S
C266 C267 1.333 . S
C266 N268 1.317 . S
C266 H271 0.930 . S
C267 C266 1.333 . S
C267 N269 1.350 . S
C267 H293 0.931 . S
N268 Co264 2.148 . S
N268 C265 1.301 . S
N268 C266 1.317 . S
N269 C265 1.328 . S
N269 C267 1.350 . S
H270 C265 0.930 . S
H271 C266 0.930 . S
C272 O273 1.224 . S
C272 O291 1.247 . S
O273 C272 1.224 . S
N274 Co264 2.128 1_545 S
N274 C275 1.355 . S
N274 C277 1.311 . S
C275 N274 1.355 . S
C275 C276 1.363 . S
C275 H287 0.929 . S
C276 C275 1.363 . S
C276 N278 1.375 . S
C276 H294 0.931 . S
C277 N274 1.311 . S
C277 N278 1.347 . S
C277 H288 0.929 . S
N278 C276 1.375 . S
N278 C277 1.347 . S
C279 C282 1.365 . S
C279 N284 1.328 . S
C279 H285 0.929 . S
C280 C281 1.362 . S
C280 C283 1.378 1_545 S
C280 H295 0.929 . S
C281 C280 1.362 . S
C281 C282 1.366 1_545 S
C282 C279 1.365 . S
C282 C281 1.366 1_565 S
C282 H296 0.930 . S
C283 C280 1.378 1_565 S
C283 N284 1.315 . S
C283 H286 0.930 . S
N284 Co264 2.194 . S
N284 C279 1.328 . S
N284 C283 1.315 . S
H285 C279 0.929 . S
H286 C283 0.930 . S
H287 C275 0.929 . S
H288 C277 0.929 . S
O289 Co264 2.351 . S
O289 C292 1.244 . S
O290 Co264 2.155 . S
O290 C292 1.240 . S
O291 Co264 2.096 . S
O291 C272 1.247 . S
C292 O289 1.244 . S
C292 O290 1.240 . S
H293 C267 0.931 . S
H294 C276 0.931 . S
H295 C280 0.929 . S
H296 C282 0.930 . S
Co297 N301 2.148 . S
Co297 N307 2.128 . S
Co297 N317 2.194 . S
Co297 O322 2.351 . S
Co297 O323 2.155 . S
Co297 O324 2.096 . S
C298 N301 1.301 . S
C298 N302 1.328 . S
C298 H303 0.930 . S
C299 C300 1.333 . S
C299 N301 1.317 . S
C299 H304 0.930 . S
C300 C299 1.333 . S
C300 N302 1.350 . S
C300 H326 0.931 . S
N301 Co297 2.148 . S
N301 C298 1.301 . S
N301 C299 1.317 . S
N302 C298 1.328 . S
N302 C300 1.350 . S
H303 C298 0.930 . S
H304 C299 0.930 . S
C305 O306 1.224 . S
C305 O324 1.247 . S
O306 C305 1.224 . S
N307 Co297 2.128 . S
N307 C308 1.355 . S
N307 C310 1.311 . S
C308 N307 1.355 . S
C308 C309 1.363 . S
C308 H320 0.929 . S
C309 C308 1.363 . S
C309 N311 1.375 . S
C309 H327 0.931 . S
C310 N307 1.311 . S
C310 N311 1.347 . S
C310 H321 0.929 . S
N311 C309 1.375 . S
N311 C310 1.347 . S
C312 C315 1.365 . S
C312 N317 1.328 . S
C312 H318 0.929 . S
C313 C314 1.362 . S
C313 C316 1.378 . S
C313 H328 0.929 . S
C314 C313 1.362 . S
C314 C315 1.366 . S
C315 C312 1.365 . S
C315 C314 1.366 . S
C315 H329 0.930 . S
C316 C313 1.378 . S
C316 N317 1.315 . S
C316 H319 0.930 . S
N317 Co297 2.194 . S
N317 C312 1.328 . S
N317 C316 1.315 . S
H318 C312 0.929 . S
H319 C316 0.930 . S
H320 C308 0.929 . S
H321 C310 0.929 . S
O322 Co297 2.351 . S
O322 C325 1.244 . S
O323 Co297 2.155 . S
O323 C325 1.240 . S
O324 Co297 2.096 . S
O324 C305 1.247 . S
C325 O322 1.244 . S
C325 O323 1.240 . S
H326 C300 0.931 . S
H327 C309 0.931 . S
H328 C313 0.929 . S
H329 C315 0.930 . S
Co330 N334 2.148 . S
Co330 N340 2.128 . S
Co330 N350 2.194 . S
Co330 O355 2.351 . S
Co330 O356 2.155 . S
Co330 O357 2.096 . S
C331 N334 1.301 . S
C331 N335 1.328 . S
C331 H336 0.930 . S
C332 C333 1.333 . S
C332 N334 1.317 . S
C332 H337 0.930 . S
C333 C332 1.333 . S
C333 N335 1.350 . S
C333 H359 0.931 . S
N334 Co330 2.148 . S
N334 C331 1.301 . S
N334 C332 1.317 . S
N335 C331 1.328 . S
N335 C333 1.350 . S
H336 C331 0.930 . S
H337 C332 0.930 . S
C338 O339 1.224 . S
C338 O357 1.247 . S
O339 C338 1.224 . S
N340 Co330 2.128 . S
N340 C341 1.355 . S
N340 C343 1.311 . S
C341 N340 1.355 . S
C341 C342 1.363 . S
C341 H353 0.929 . S
C342 C341 1.363 . S
C342 N344 1.375 . S
C342 H360 0.931 . S
C343 N340 1.311 . S
C343 N344 1.347 . S
C343 H354 0.929 . S
N344 C342 1.375 . S
N344 C343 1.347 . S
C345 C348 1.365 . S
C345 N350 1.328 . S
C345 H351 0.929 . S
C346 C347 1.362 . S
C346 C349 1.378 . S
C346 H361 0.929 . S
C347 C346 1.362 . S
C347 C348 1.366 . S
C348 C345 1.365 . S
C348 C347 1.366 . S
C348 H362 0.930 . S
C349 C346 1.378 . S
C349 N350 1.315 . S
C349 H352 0.930 . S
N350 Co330 2.194 . S
N350 C345 1.328 . S
N350 C349 1.315 . S
H351 C345 0.929 . S
H352 C349 0.930 . S
H353 C341 0.929 . S
H354 C343 0.929 . S
O355 Co330 2.351 . S
O355 C358 1.244 . S
O356 Co330 2.155 . S
O356 C358 1.240 . S
O357 Co330 2.096 . S
O357 C338 1.247 . S
C358 O355 1.244 . S
C358 O356 1.240 . S
H359 C333 0.931 . S
H360 C342 0.931 . S
H361 C346 0.929 . S
H362 C348 0.930 . S
Co363 N367 2.148 . S
Co363 N373 2.128 1_655 S
Co363 N383 2.194 . S
Co363 O388 2.351 . S
Co363 O389 2.155 . S
Co363 O390 2.096 . S
C364 N367 1.301 . S
C364 N368 1.328 . S
C364 H369 0.930 . S
C365 C366 1.333 . S
C365 N367 1.317 . S
C365 H370 0.930 . S
C366 C365 1.333 . S
C366 N368 1.350 . S
C366 H392 0.931 . S
N367 Co363 2.148 . S
N367 C364 1.301 . S
N367 C365 1.317 . S
N368 C364 1.328 . S
N368 C366 1.350 . S
H369 C364 0.930 . S
H370 C365 0.930 . S
C371 O372 1.224 . S
C371 O390 1.247 . S
O372 C371 1.224 . S
N373 Co363 2.128 1_455 S
N373 C374 1.355 . S
N373 C376 1.311 . S
C374 N373 1.355 . S
C374 C375 1.363 . S
C374 H386 0.929 . S
C375 C374 1.363 . S
C375 N377 1.375 . S
C375 H393 0.931 . S
C376 N373 1.311 . S
C376 N377 1.347 . S
C376 H387 0.929 . S
N377 C375 1.375 . S
N377 C376 1.347 . S
C378 C381 1.365 . S
C378 N383 1.328 . S
C378 H384 0.929 . S
C379 C380 1.362 . S
C379 C382 1.378 1_455 S
C379 H394 0.929 . S
C380 C379 1.362 . S
C380 C381 1.366 1_455 S
C381 C378 1.365 . S
C381 C380 1.366 1_655 S
C381 H395 0.930 . S
C382 C379 1.378 1_655 S
C382 N383 1.315 . S
C382 H385 0.930 . S
N383 Co363 2.194 . S
N383 C378 1.328 . S
N383 C382 1.315 . S
H384 C378 0.929 . S
H385 C382 0.930 . S
H386 C374 0.929 . S
H387 C376 0.929 . S
O388 Co363 2.351 . S
O388 C391 1.244 . S
O389 Co363 2.155 . S
O389 C391 1.240 . S
O390 Co363 2.096 . S
O390 C371 1.247 . S
C391 O388 1.244 . S
C391 O389 1.240 . S
H392 C366 0.931 . S
H393 C375 0.931 . S
H394 C379 0.929 . S
H395 C381 0.930 . S
Co396 N400 2.148 . S
Co396 N406 2.128 1_545 S
Co396 N416 2.194 . S
Co396 O421 2.351 . S
Co396 O422 2.155 . S
Co396 O423 2.096 . S
C397 N400 1.301 . S
C397 N401 1.328 . S
C397 H402 0.930 . S
C398 C399 1.333 . S
C398 N400 1.317 . S
C398 H403 0.930 . S
C399 C398 1.333 . S
C399 N401 1.350 . S
C399 H425 0.931 . S
N400 Co396 2.148 . S
N400 C397 1.301 . S
N400 C398 1.317 . S
N401 C397 1.328 . S
N401 C399 1.350 . S
H402 C397 0.930 . S
H403 C398 0.930 . S
C404 O405 1.224 . S
C404 O423 1.247 . S
O405 C404 1.224 . S
N406 Co396 2.128 1_565 S
N406 C407 1.355 . S
N406 C409 1.311 . S
C407 N406 1.355 . S
C407 C408 1.363 . S
C407 H419 0.929 . S
C408 C407 1.363 . S
C408 N410 1.375 . S
C408 H426 0.931 . S
C409 N406 1.311 . S
C409 N410 1.347 . S
C409 H420 0.929 . S
N410 C408 1.375 . S
N410 C409 1.347 . S
C411 C414 1.365 . S
C411 N416 1.328 . S
C411 H417 0.929 . S
C412 C413 1.362 . S
C412 C415 1.378 1_565 S
C412 H427 0.929 . S
C413 C412 1.362 . S
C413 C414 1.366 1_565 S
C414 C411 1.365 . S
C414 C413 1.366 1_545 S
C414 H428 0.930 . S
C415 C412 1.378 1_545 S
C415 N416 1.315 . S
C415 H418 0.930 . S
N416 Co396 2.194 . S
N416 C411 1.328 . S
N416 C415 1.315 . S
H417 C411 0.929 . S
H418 C415 0.930 . S
H419 C407 0.929 . S
H420 C409 0.929 . S
O421 Co396 2.351 . S
O421 C424 1.244 . S
O422 Co396 2.155 . S
O422 C424 1.240 . S
O423 Co396 2.096 . S
O423 C404 1.247 . S
C424 O421 1.244 . S
C424 O422 1.240 . S
H425 C399 0.931 . S
H426 C408 0.931 . S
H427 C412 0.929 . S
H428 C414 0.930 . S
Co429 N433 2.148 . S
Co429 N439 2.128 . S
Co429 N449 2.194 . S
Co429 O454 2.351 . S
Co429 O455 2.155 . S
Co429 O456 2.096 . S
C430 N433 1.301 . S
C430 N434 1.328 . S
C430 H435 0.930 . S
C431 C432 1.333 . S
C431 N433 1.317 . S
C431 H436 0.930 . S
C432 C431 1.333 . S
C432 N434 1.350 . S
C432 H458 0.931 . S
N433 Co429 2.148 . S
N433 C430 1.301 . S
N433 C431 1.317 . S
N434 C430 1.328 . S
N434 C432 1.350 . S
H435 C430 0.930 . S
H436 C431 0.930 . S
C437 O438 1.224 . S
C437 O456 1.247 . S
O438 C437 1.224 . S
N439 Co429 2.128 . S
N439 C440 1.355 . S
N439 C442 1.311 . S
C440 N439 1.355 . S
C440 C441 1.363 . S
C440 H452 0.929 . S
C441 C440 1.363 . S
C441 N443 1.375 . S
C441 H459 0.931 . S
C442 N439 1.311 . S
C442 N443 1.347 . S
C442 H453 0.929 . S
N443 C441 1.375 . S
N443 C442 1.347 . S
C444 C447 1.365 . S
C444 N449 1.328 . S
C444 H450 0.929 . S
C445 C446 1.362 . S
C445 C448 1.378 . S
C445 H460 0.929 . S
C446 C445 1.362 . S
C446 C447 1.366 . S
C447 C444 1.365 . S
C447 C446 1.366 . S
C447 H461 0.930 . S
C448 C445 1.378 . S
C448 N449 1.315 . S
C448 H451 0.930 . S
N449 Co429 2.194 . S
N449 C444 1.328 . S
N449 C448 1.315 . S
H450 C444 0.929 . S
H451 C448 0.930 . S
H452 C440 0.929 . S
H453 C442 0.929 . S
O454 Co429 2.351 . S
O454 C457 1.244 . S
O455 Co429 2.155 . S
O455 C457 1.240 . S
O456 Co429 2.096 . S
O456 C437 1.247 . S
C457 O454 1.244 . S
C457 O455 1.240 . S
H458 C432 0.931 . S
H459 C441 0.931 . S
H460 C445 0.929 . S
H461 C447 0.930 . S
Co462 N466 2.148 . S
Co462 N472 2.128 . S
Co462 N482 2.194 . S
Co462 O487 2.351 . S
Co462 O488 2.155 . S
Co462 O489 2.096 . S
C463 N466 1.301 . S
C463 N467 1.328 . S
C463 H468 0.930 . S
C464 C465 1.333 . S
C464 N466 1.317 . S
C464 H469 0.930 . S
C465 C464 1.333 . S
C465 N467 1.350 . S
C465 H491 0.931 . S
N466 Co462 2.148 . S
N466 C463 1.301 . S
N466 C464 1.317 . S
N467 C463 1.328 . S
N467 C465 1.350 . S
H468 C463 0.930 . S
H469 C464 0.930 . S
C470 O471 1.224 . S
C470 O489 1.247 . S
O471 C470 1.224 . S
N472 Co462 2.128 . S
N472 C473 1.355 . S
N472 C475 1.311 . S
C473 N472 1.355 . S
C473 C474 1.363 . S
C473 H485 0.929 . S
C474 C473 1.363 . S
C474 N476 1.375 . S
C474 H492 0.931 . S
C475 N472 1.311 . S
C475 N476 1.347 . S
C475 H486 0.929 . S
N476 C474 1.375 . S
N476 C475 1.347 . S
C477 C480 1.365 . S
C477 N482 1.328 . S
C477 H483 0.929 . S
C478 C479 1.362 . S
C478 C481 1.378 . S
C478 H493 0.929 . S
C479 C478 1.362 . S
C479 C480 1.366 . S
C480 C477 1.365 . S
C480 C479 1.366 . S
C480 H494 0.930 . S
C481 C478 1.378 . S
C481 N482 1.315 . S
C481 H484 0.930 . S
N482 Co462 2.194 . S
N482 C477 1.328 . S
N482 C481 1.315 . S
H483 C477 0.929 . S
H484 C481 0.930 . S
H485 C473 0.929 . S
H486 C475 0.929 . S
O487 Co462 2.351 . S
O487 C490 1.244 . S
O488 Co462 2.155 . S
O488 C490 1.240 . S
O489 Co462 2.096 . S
O489 C470 1.247 . S
C490 O487 1.244 . S
C490 O488 1.240 . S
H491 C465 0.931 . S
H492 C474 0.931 . S
H493 C478 0.929 . S
H494 C480 0.930 . S
Co495 N499 2.148 . S
Co495 N505 2.128 1_455 S
Co495 N515 2.194 . S
Co495 O520 2.351 . S
Co495 O521 2.155 . S
Co495 O522 2.096 . S
C496 N499 1.301 . S
C496 N500 1.328 . S
C496 H501 0.930 . S
C497 C498 1.333 . S
C497 N499 1.317 . S
C497 H502 0.930 . S
C498 C497 1.333 . S
C498 N500 1.350 . S
C498 H524 0.931 . S
N499 Co495 2.148 . S
N499 C496 1.301 . S
N499 C497 1.317 . S
N500 C496 1.328 . S
N500 C498 1.350 . S
H501 C496 0.930 . S
H502 C497 0.930 . S
C503 O504 1.224 . S
C503 O522 1.247 . S
O504 C503 1.224 . S
N505 Co495 2.128 1_655 S
N505 C506 1.355 . S
N505 C508 1.311 . S
C506 N505 1.355 . S
C506 C507 1.363 . S
C506 H518 0.929 . S
C507 C506 1.363 . S
C507 N509 1.375 . S
C507 H525 0.931 . S
C508 N505 1.311 . S
C508 N509 1.347 . S
C508 H519 0.929 . S
N509 C507 1.375 . S
N509 C508 1.347 . S
C510 C513 1.365 . S
C510 N515 1.328 . S
C510 H516 0.929 . S
C511 C512 1.362 . S
C511 C514 1.378 1_655 S
C511 H526 0.929 . S
C512 C511 1.362 . S
C512 C513 1.366 1_655 S
C513 C510 1.365 . S
C513 C512 1.366 1_455 S
C513 H527 0.930 . S
C514 C511 1.378 1_455 S
C514 N515 1.315 . S
C514 H517 0.930 . S
N515 Co495 2.194 . S
N515 C510 1.328 . S
N515 C514 1.315 . S
H516 C510 0.929 . S
H517 C514 0.930 . S
H518 C506 0.929 . S
H519 C508 0.929 . S
O520 Co495 2.351 . S
O520 C523 1.244 . S
O521 Co495 2.155 . S
O521 C523 1.240 . S
O522 Co495 2.096 . S
O522 C503 1.247 . S
C523 O520 1.244 . S
C523 O521 1.240 . S
H524 C498 0.931 . S
H525 C507 0.931 . S
H526 C511 0.929 . S
H527 C513 0.930 . S
C528 C529 1.391 . S
C528 C530 1.394 . S
C528 H544 0.931 . S
C529 C528 1.391 . S
C529 C533 1.376 . S
C530 C528 1.394 . S
C530 C531 1.369 . S
C530 C534 1.531 . S
C531 C530 1.369 . S
C531 C532 1.410 . S
C531 C539 1.503 . S
C532 C531 1.410 . S
C532 C533 1.392 . S
C532 C535 1.511 . S
C533 C529 1.376 . S
C533 C532 1.392 . S
C533 H545 0.929 . S
C534 C530 1.531 . S
C534 H546 0.960 . S
C534 H547 0.962 . S
C534 H548 0.960 . S
C535 C532 1.511 . S
C535 H549 0.961 . S
C535 H550 0.961 . S
C535 H551 0.961 . S
C536 C537 1.370 . S
C536 C538 1.363 . S
C536 H552 0.931 . S
C537 C536 1.370 . S
C537 C541 1.408 . S
C538 C536 1.363 . S
C538 C539 1.370 . S
C538 C542 1.524 . S
C539 C531 1.503 . S
C539 C538 1.370 . S
C539 C540 1.403 . S
C540 C539 1.403 . S
C540 C541 1.404 . S
C540 C543 1.539 . S
C541 C537 1.408 . S
C541 C540 1.404 . S
C541 H553 0.930 . S
C542 C538 1.524 . S
C542 H554 0.956 . S
C542 H555 0.961 . S
C542 H556 0.961 . S
C543 C540 1.539 . S
C543 H557 0.958 . S
C543 H558 0.961 . S
C543 H559 0.960 . S
H544 C528 0.931 . S
H545 C533 0.929 . S
H546 C534 0.960 . S
H547 C534 0.962 . S
H548 C534 0.960 . S
H549 C535 0.961 . S
H550 C535 0.961 . S
H551 C535 0.961 . S
H552 C536 0.931 . S
H553 C541 0.930 . S
H554 C542 0.956 . S
H555 C542 0.961 . S
H556 C542 0.961 . S
H557 C543 0.958 . S
H558 C543 0.961 . S
H559 C543 0.960 . S
C560 C561 1.391 . S
C560 C562 1.394 . S
C560 H576 0.931 . S
C561 C560 1.391 . S
C561 C565 1.376 . S
C562 C560 1.394 . S
C562 C563 1.369 . S
C562 C566 1.531 . S
C563 C562 1.369 . S
C563 C564 1.410 . S
C563 C571 1.503 . S
C564 C563 1.410 . S
C564 C565 1.392 . S
C564 C567 1.511 . S
C565 C561 1.376 . S
C565 C564 1.392 . S
C565 H577 0.929 . S
C566 C562 1.531 . S
C566 H578 0.960 . S
C566 H579 0.962 . S
C566 H580 0.960 . S
C567 C564 1.511 . S
C567 H581 0.961 . S
C567 H582 0.961 . S
C567 H583 0.961 . S
C568 C569 1.370 . S
C568 C570 1.363 . S
C568 H584 0.931 . S
C569 C568 1.370 . S
C569 C573 1.408 . S
C570 C568 1.363 . S
C570 C571 1.370 . S
C570 C574 1.524 . S
C571 C563 1.503 . S
C571 C570 1.370 . S
C571 C572 1.403 . S
C572 C571 1.403 . S
C572 C573 1.404 . S
C572 C575 1.539 . S
C573 C569 1.408 . S
C573 C572 1.404 . S
C573 H585 0.930 . S
C574 C570 1.524 . S
C574 H586 0.956 . S
C574 H587 0.961 . S
C574 H588 0.961 . S
C575 C572 1.539 . S
C575 H589 0.958 . S
C575 H590 0.961 . S
C575 H591 0.960 . S
H576 C560 0.931 . S
H577 C565 0.929 . S
H578 C566 0.960 . S
H579 C566 0.962 . S
H580 C566 0.960 . S
H581 C567 0.961 . S
H582 C567 0.961 . S
H583 C567 0.961 . S
H584 C568 0.931 . S
H585 C573 0.930 . S
H586 C574 0.956 . S
H587 C574 0.961 . S
H588 C574 0.961 . S
H589 C575 0.958 . S
H590 C575 0.961 . S
H591 C575 0.960 . S
C592 C593 1.391 . S
C592 C594 1.394 . S
C592 H608 0.931 . S
C593 C592 1.391 . S
C593 C597 1.376 1_655 S
C594 C592 1.394 . S
C594 C595 1.369 . S
C594 C598 1.531 . S
C595 C594 1.369 . S
C595 C596 1.410 . S
C595 C603 1.503 . S
C596 C595 1.410 . S
C596 C597 1.392 1_655 S
C596 C599 1.511 1_655 S
C597 C593 1.376 1_455 S
C597 C596 1.392 1_455 S
C597 H609 0.929 . S
C598 C594 1.531 . S
C598 H610 0.960 . S
C598 H611 0.962 . S
C598 H612 0.960 . S
C599 C596 1.511 1_455 S
C599 H613 0.961 . S
C599 H614 0.962 . S
C599 H615 0.961 . S
C600 C601 1.370 . S
C600 C602 1.363 . S
C600 H616 0.931 . S
C601 C600 1.370 . S
C601 C605 1.408 . S
C602 C600 1.363 . S
C602 C603 1.370 . S
C602 C606 1.524 . S
C603 C595 1.503 . S
C603 C602 1.370 . S
C603 C604 1.403 . S
C604 C603 1.403 . S
C604 C605 1.404 . S
C604 C607 1.539 . S
C605 C601 1.408 . S
C605 C604 1.404 . S
C605 H617 0.930 . S
C606 C602 1.524 . S
C606 H618 0.956 . S
C606 H619 0.961 . S
C606 H620 0.961 . S
C607 C604 1.539 . S
C607 H621 0.958 . S
C607 H622 0.961 . S
C607 H623 0.960 . S
H608 C592 0.931 . S
H609 C597 0.929 . S
H610 C598 0.960 . S
H611 C598 0.962 . S
H612 C598 0.960 . S
H613 C599 0.961 . S
H614 C599 0.962 . S
H615 C599 0.961 . S
H616 C600 0.931 . S
H617 C605 0.930 . S
H618 C606 0.956 . S
H619 C606 0.961 . S
H620 C606 0.961 . S
H621 C607 0.958 . S
H622 C607 0.961 . S
H623 C607 0.960 . S
C624 C625 1.391 . S
C624 C626 1.394 . S
C624 H640 0.931 . S
C625 C624 1.391 . S
C625 C629 1.376 . S
C626 C624 1.394 . S
C626 C627 1.369 . S
C626 C630 1.531 . S
C627 C626 1.369 . S
C627 C628 1.410 . S
C627 C635 1.503 . S
C628 C627 1.410 . S
C628 C629 1.392 . S
C628 C631 1.511 . S
C629 C625 1.376 . S
C629 C628 1.392 . S
C629 H641 0.929 . S
C630 C626 1.531 . S
C630 H642 0.960 . S
C630 H643 0.962 . S
C630 H644 0.960 . S
C631 C628 1.511 . S
C631 H645 0.961 . S
C631 H646 0.961 . S
C631 H647 0.961 . S
C632 C633 1.370 . S
C632 C634 1.363 . S
C632 H648 0.931 1_565 S
C633 C632 1.370 . S
C633 C637 1.408 . S
C634 C632 1.363 . S
C634 C635 1.370 . S
C634 C638 1.524 . S
C635 C627 1.503 . S
C635 C634 1.370 . S
C635 C636 1.403 . S
C636 C635 1.403 . S
C636 C637 1.404 . S
C636 C639 1.539 . S
C637 C633 1.408 . S
C637 C636 1.404 . S
C637 H649 0.930 . S
C638 C634 1.524 . S
C638 H650 0.956 . S
C638 H651 0.961 . S
C638 H652 0.961 1_565 S
C639 C636 1.539 . S
C639 H653 0.958 . S
C639 H654 0.961 . S
C639 H655 0.960 . S
H640 C624 0.931 . S
H641 C629 0.929 . S
H642 C630 0.960 . S
H643 C630 0.962 . S
H644 C630 0.960 . S
H645 C631 0.961 . S
H646 C631 0.961 . S
H647 C631 0.961 . S
H648 C632 0.931 1_545 S
H649 C637 0.930 . S
H650 C638 0.956 . S
H651 C638 0.961 . S
H652 C638 0.961 1_545 S
H653 C639 0.958 . S
H654 C639 0.961 . S
H655 C639 0.960 . S
C656 C657 1.391 . S
C656 C658 1.394 . S
C656 H672 0.931 . S
C657 C656 1.391 . S
C657 C661 1.376 . S
C658 C656 1.394 . S
C658 C659 1.369 . S
C658 C662 1.531 . S
C659 C658 1.369 . S
C659 C660 1.410 . S
C659 C667 1.503 . S
C660 C659 1.410 . S
C660 C661 1.392 . S
C660 C663 1.511 . S
C661 C657 1.376 . S
C661 C660 1.392 . S
C661 H673 0.929 . S
C662 C658 1.531 . S
C662 H674 0.960 . S
C662 H675 0.962 . S
C662 H676 0.960 . S
C663 C660 1.511 . S
C663 H677 0.961 . S
C663 H678 0.961 . S
C663 H679 0.961 . S
C664 C665 1.370 . S
C664 C666 1.363 . S
C664 H680 0.931 . S
C665 C664 1.370 . S
C665 C669 1.408 . S
C666 C664 1.363 . S
C666 C667 1.370 . S
C666 C670 1.524 . S
C667 C659 1.503 . S
C667 C666 1.370 . S
C667 C668 1.403 . S
C668 C667 1.403 . S
C668 C669 1.404 . S
C668 C671 1.559 . S
C669 C665 1.408 . S
C669 C668 1.404 . S
C669 H681 0.930 . S
C670 C666 1.524 . S
C670 H682 0.956 . S
C670 H683 0.961 . S
C670 H684 0.961 . S
C671 C668 1.559 . S
C671 H685 0.953 1_455 S
C671 H686 0.955 1_455 S
C671 H687 0.952 1_455 S
H672 C656 0.931 . S
H673 C661 0.929 . S
H674 C662 0.960 . S
H675 C662 0.962 . S
H676 C662 0.960 . S
H677 C663 0.961 . S
H678 C663 0.961 . S
H679 C663 0.961 . S
H680 C664 0.931 . S
H681 C669 0.930 . S
H682 C670 0.956 . S
H683 C670 0.961 . S
H684 C670 0.961 . S
H685 C671 0.953 1_655 S
H686 C671 0.955 1_655 S
H687 C671 0.952 1_655 S
C688 C689 1.391 . S
C688 C690 1.394 . S
C688 H704 0.931 . S
C689 C688 1.391 . S
C689 C693 1.376 . S
C690 C688 1.394 . S
C690 C691 1.369 . S
C690 C694 1.531 . S
C691 C690 1.369 . S
C691 C692 1.410 . S
C691 C699 1.503 . S
C692 C691 1.410 . S
C692 C693 1.392 . S
C692 C695 1.511 . S
C693 C689 1.376 . S
C693 C692 1.392 . S
C693 H705 0.929 . S
C694 C690 1.531 . S
C694 H706 0.960 . S
C694 H707 0.962 . S
C694 H708 0.960 . S
C695 C692 1.511 . S
C695 H709 0.961 . S
C695 H710 0.961 . S
C695 H711 0.961 . S
C696 C697 1.370 . S
C696 C698 1.363 . S
C696 H712 0.931 . S
C697 C696 1.370 . S
C697 C701 1.408 . S
C698 C696 1.363 . S
C698 C699 1.370 . S
C698 C702 1.524 . S
C699 C691 1.503 . S
C699 C698 1.370 . S
C699 C700 1.403 . S
C700 C699 1.403 . S
C700 C701 1.404 . S
C700 C703 1.539 . S
C701 C697 1.408 . S
C701 C700 1.404 . S
C701 H713 0.930 . S
C702 C698 1.524 . S
C702 H714 0.943 1_545 S
C702 H715 0.961 . S
C702 H716 0.961 1_545 S
C703 C700 1.539 . S
C703 H717 0.958 . S
C703 H718 0.961 . S
C703 H719 0.960 . S
H704 C688 0.931 . S
H705 C693 0.929 . S
H706 C694 0.960 . S
H707 C694 0.962 . S
H708 C694 0.960 . S
H709 C695 0.961 . S
H710 C695 0.961 . S
H711 C695 0.961 . S
H712 C696 0.931 . S
H713 C701 0.930 . S
H714 C702 0.943 1_565 S
H715 C702 0.961 . S
H716 C702 0.961 1_565 S
H717 C703 0.958 . S
H718 C703 0.961 . S
H719 C703 0.960 . S
C720 C721 1.391 . S
C720 C722 1.394 . S
C720 H736 0.931 . S
C721 C720 1.391 . S
C721 C725 1.376 . S
C722 C720 1.394 . S
C722 C723 1.369 . S
C722 C726 1.531 . S
C723 C722 1.369 . S
C723 C724 1.410 . S
C723 C731 1.503 . S
C724 C723 1.410 . S
C724 C725 1.392 . S
C724 C727 1.511 . S
C725 C721 1.376 . S
C725 C724 1.392 . S
C725 H737 0.929 . S
C726 C722 1.531 . S
C726 H738 0.960 . S
C726 H739 0.962 . S
C726 H740 0.960 . S
C727 C724 1.511 . S
C727 H741 0.961 . S
C727 H742 0.961 . S
C727 H743 0.961 . S
C728 C729 1.370 . S
C728 C730 1.363 . S
C728 H744 0.931 . S
C729 C728 1.370 . S
C729 C733 1.408 . S
C730 C728 1.363 . S
C730 C731 1.370 . S
C730 C734 1.524 . S
C731 C723 1.503 . S
C731 C730 1.370 . S
C731 C732 1.403 . S
C732 C731 1.403 . S
C732 C733 1.404 . S
C732 C735 1.539 . S
C733 C729 1.408 . S
C733 C732 1.404 . S
C733 H745 0.930 . S
C734 C730 1.524 . S
C734 H746 0.956 . S
C734 H747 0.961 . S
C734 H748 0.961 . S
C735 C732 1.539 . S
C735 H749 0.958 . S
C735 H750 0.961 . S
C735 H751 0.960 . S
H736 C720 0.931 . S
H737 C725 0.929 . S
H738 C726 0.960 . S
H739 C726 0.962 . S
H740 C726 0.960 . S
H741 C727 0.961 . S
H742 C727 0.961 . S
H743 C727 0.961 . S
H744 C728 0.931 . S
H745 C733 0.930 . S
H746 C734 0.956 . S
H747 C734 0.961 . S
H748 C734 0.961 . S
H749 C735 0.958 . S
H750 C735 0.961 . S
H751 C735 0.960 . S
C752 C753 1.391 . S
C752 C754 1.394 . S
C752 H768 0.931 . S
C753 C752 1.391 . S
C753 C757 1.376 . S
C754 C752 1.394 . S
C754 C755 1.369 . S
C754 C758 1.531 . S
C755 C754 1.369 . S
C755 C756 1.410 . S
C755 C763 1.503 . S
C756 C755 1.410 . S
C756 C757 1.392 . S
C756 C759 1.511 . S
C757 C753 1.376 . S
C757 C756 1.392 . S
C757 H769 0.929 . S
C758 C754 1.531 . S
C758 H770 0.960 . S
C758 H771 0.962 . S
C758 H772 0.960 . S
C759 C756 1.511 . S
C759 H773 0.961 . S
C759 H774 0.961 . S
C759 H775 0.961 . S
C760 C761 1.370 . S
C760 C762 1.363 . S
C760 H776 0.931 . S
C761 C760 1.370 . S
C761 C765 1.408 . S
C762 C760 1.363 . S
C762 C763 1.370 . S
C762 C766 1.524 . S
C763 C755 1.503 . S
C763 C762 1.370 . S
C763 C764 1.403 . S
C764 C763 1.403 . S
C764 C765 1.404 . S
C764 C767 1.539 . S
C765 C761 1.408 . S
C765 C764 1.404 . S
C765 H777 0.930 . S
C766 C762 1.524 . S
C766 H778 0.956 . S
C766 H779 0.961 . S
C766 H780 0.961 . S
C767 C764 1.539 . S
C767 H781 0.958 . S
C767 H782 0.961 . S
C767 H783 0.960 . S
H768 C752 0.931 . S
H769 C757 0.929 . S
H770 C758 0.960 . S
H771 C758 0.962 . S
H772 C758 0.960 . S
H773 C759 0.961 . S
H774 C759 0.961 . S
H775 C759 0.961 . S
H776 C760 0.931 . S
H777 C765 0.930 . S
H778 C766 0.956 . S
H779 C766 0.961 . S
H780 C766 0.961 . S
H781 C767 0.958 . S
H782 C767 0.961 . S
H783 C767 0.960 . S
C784 C785 1.391 . S
C784 C786 1.394 . S
C784 H800 0.931 . S
C785 C784 1.391 . S
C785 C789 1.376 . S
C786 C784 1.394 . S
C786 C787 1.369 . S
C786 C790 1.531 . S
C787 C786 1.369 . S
C787 C788 1.410 . S
C787 C795 1.503 . S
C788 C787 1.410 . S
C788 C789 1.392 . S
C788 C791 1.511 . S
C789 C785 1.376 . S
C789 C788 1.392 . S
C789 H801 0.929 . S
C790 C786 1.531 . S
C790 H802 0.960 . S
C790 H803 0.962 . S
C790 H804 0.960 . S
C791 C788 1.511 . S
C791 H805 0.961 . S
C791 H806 0.961 . S
C791 H807 0.961 . S
C792 C793 1.370 . S
C792 C794 1.363 . S
C792 H808 0.931 . S
C793 C792 1.370 . S
C793 C797 1.408 . S
C794 C792 1.363 . S
C794 C795 1.370 . S
C794 C798 1.524 . S
C795 C787 1.503 . S
C795 C794 1.370 . S
C795 C796 1.403 . S
C796 C795 1.403 . S
C796 C797 1.404 . S
C796 C799 1.539 . S
C797 C793 1.408 . S
C797 C796 1.404 . S
C797 H809 0.930 . S
C798 C794 1.524 . S
C798 H810 0.956 . S
C798 H811 0.961 . S
C798 H812 0.961 . S
C799 C796 1.539 . S
C799 H813 0.958 . S
C799 H814 0.961 . S
C799 H815 0.960 . S
H800 C784 0.931 . S
H801 C789 0.929 . S
H802 C790 0.960 . S
H803 C790 0.962 . S
H804 C790 0.960 . S
H805 C791 0.961 . S
H806 C791 0.961 . S
H807 C791 0.961 . S
H808 C792 0.931 . S
H809 C797 0.930 . S
H810 C798 0.956 . S
H811 C798 0.961 . S
H812 C798 0.961 . S
H813 C799 0.958 . S
H814 C799 0.961 . S
H815 C799 0.960 . S
C816 C817 1.391 . S
C816 C818 1.394 . S
C816 H832 0.931 . S
C817 C816 1.391 . S
C817 C821 1.376 . S
C818 C816 1.394 . S
C818 C819 1.369 . S
C818 C822 1.531 . S
C819 C818 1.369 . S
C819 C820 1.410 . S
C819 C827 1.503 . S
C820 C819 1.410 . S
C820 C821 1.392 . S
C820 C823 1.511 . S
C821 C817 1.376 . S
C821 C820 1.392 . S
C821 H833 0.929 . S
C822 C818 1.531 . S
C822 H834 0.960 . S
C822 H835 0.962 . S
C822 H836 0.960 . S
C823 C820 1.511 . S
C823 H837 0.961 . S
C823 H838 0.961 . S
C823 H839 0.961 . S
C824 C825 1.370 . S
C824 C826 1.363 . S
C824 H840 0.931 . S
C825 C824 1.370 . S
C825 C829 1.408 . S
C826 C824 1.363 . S
C826 C827 1.370 . S
C826 C830 1.524 . S
C827 C819 1.503 . S
C827 C826 1.370 . S
C827 C828 1.403 . S
C828 C827 1.403 . S
C828 C829 1.404 . S
C828 C831 1.539 . S
C829 C825 1.408 . S
C829 C828 1.404 . S
C829 H841 0.930 . S
C830 C826 1.524 . S
C830 H842 0.956 . S
C830 H843 0.961 . S
C830 H844 0.961 . S
C831 C828 1.539 . S
C831 H845 0.958 . S
C831 H846 0.961 . S
C831 H847 0.960 . S
H832 C816 0.931 . S
H833 C821 0.929 . S
H834 C822 0.960 . S
H835 C822 0.962 . S
H836 C822 0.960 . S
H837 C823 0.961 . S
H838 C823 0.961 . S
H839 C823 0.961 . S
H840 C824 0.931 . S
H841 C829 0.930 . S
H842 C830 0.956 . S
H843 C830 0.961 . S
H844 C830 0.961 . S
H845 C831 0.958 . S
H846 C831 0.961 . S
H847 C831 0.960 . S
C848 C849 1.391 1_655 S
C848 C850 1.394 1_655 S
C848 H864 0.931 . S
C849 C848 1.391 1_455 S
C849 C853 1.376 . S
C850 C848 1.394 1_455 S
C850 C851 1.369 . S
C850 C854 1.531 1_455 S
C851 C850 1.369 . S
C851 C852 1.410 . S
C851 C859 1.503 . S
C852 C851 1.410 . S
C852 C853 1.392 . S
C852 C855 1.511 . S
C853 C849 1.376 . S
C853 C852 1.392 . S
C853 H865 0.929 . S
C854 C850 1.531 1_655 S
C854 H866 0.946 1_655 S
C854 H867 0.962 . S
C854 H868 0.960 . S
C855 C852 1.511 . S
C855 H869 0.961 . S
C855 H870 0.961 . S
C855 H871 0.961 . S
C856 C857 1.370 . S
C856 C858 1.363 . S
C856 H872 0.931 . S
C857 C856 1.370 . S
C857 C861 1.408 . S
C858 C856 1.363 . S
C858 C859 1.370 . S
C858 C862 1.524 . S
C859 C851 1.503 . S
C859 C858 1.370 . S
C859 C860 1.403 . S
C860 C859 1.403 . S
C860 C861 1.404 . S
C860 C863 1.539 . S
C861 C857 1.408 . S
C861 C860 1.404 . S
C861 H873 0.930 . S
C862 C858 1.524 . S
C862 H874 0.956 . S
C862 H875 0.961 . S
C862 H876 0.961 . S
C863 C860 1.539 . S
C863 H877 0.958 . S
C863 H878 0.961 . S
C863 H879 0.960 . S
H864 C848 0.931 . S
H865 C853 0.929 . S
H866 C854 0.946 1_455 S
H867 C854 0.962 . S
H868 C854 0.960 . S
H869 C855 0.961 . S
H870 C855 0.961 . S
H871 C855 0.961 . S
H872 C856 0.931 . S
H873 C861 0.930 . S
H874 C862 0.956 . S
H875 C862 0.961 . S
H876 C862 0.961 . S
H877 C863 0.958 . S
H878 C863 0.961 . S
H879 C863 0.960 . S
C880 C881 1.391 . S
C880 C882 1.394 . S
C880 H896 0.931 . S
C881 C880 1.391 . S
C881 C885 1.365 1_545 S
C882 C880 1.394 . S
C882 C883 1.369 . S
C882 C886 1.531 . S
C883 C882 1.369 . S
C883 C884 1.410 . S
C883 C891 1.503 . S
C884 C883 1.410 . S
C884 C885 1.382 1_545 S
C884 C887 1.511 1_545 S
C885 C881 1.365 1_565 S
C885 C884 1.382 1_565 S
C885 H897 0.951 . S
C886 C882 1.531 . S
C886 H898 0.960 . S
C886 H899 0.962 . S
C886 H900 0.960 . S
C887 C884 1.511 1_565 S
C887 H901 0.961 . S
C887 H902 0.961 1_565 S
C887 H903 0.961 . S
C888 C889 1.370 . S
C888 C890 1.363 . S
C888 H904 0.931 . S
C889 C888 1.370 . S
C889 C893 1.408 . S
C890 C888 1.363 . S
C890 C891 1.370 . S
C890 C894 1.524 . S
C891 C883 1.503 . S
C891 C890 1.370 . S
C891 C892 1.403 . S
C892 C891 1.403 . S
C892 C893 1.404 . S
C892 C895 1.539 . S
C893 C889 1.408 . S
C893 C892 1.404 . S
C893 H905 0.930 . S
C894 C890 1.524 . S
C894 H906 0.956 . S
C894 H907 0.961 . S
C894 H908 0.961 . S
C895 C892 1.539 . S
C895 H909 0.958 . S
C895 H910 0.961 . S
C895 H911 0.960 . S
H896 C880 0.931 . S
H897 C885 0.951 . S
H898 C886 0.960 . S
H899 C886 0.962 . S
H900 C886 0.960 . S
H901 C887 0.961 . S
H902 C887 0.961 1_545 S
H903 C887 0.961 . S
H904 C888 0.931 . S
H905 C893 0.930 . S
H906 C894 0.956 . S
H907 C894 0.961 . S
H908 C894 0.961 . S
H909 C895 0.958 . S
H910 C895 0.961 . S
H911 C895 0.960 . S
C912 C913 1.391 1_455 S
C912 C914 1.394 1_455 S
C912 H928 0.931 . S
C913 C912 1.391 1_655 S
C913 C917 1.376 . S
C914 C912 1.394 1_655 S
C914 C915 1.369 . S
C914 C918 1.531 1_655 S
C915 C914 1.369 . S
C915 C916 1.410 . S
C915 C923 1.503 . S
C916 C915 1.410 . S
C916 C917 1.392 . S
C916 C919 1.511 . S
C917 C913 1.376 . S
C917 C916 1.392 . S
C917 H929 0.929 . S
C918 C914 1.531 1_455 S
C918 H930 0.960 1_455 S
C918 H931 0.962 . S
C918 H932 0.960 . S
C919 C916 1.511 . S
C919 H933 0.961 . S
C919 H934 0.961 . S
C919 H935 0.961 . S
C920 C921 1.370 . S
C920 C922 1.363 . S
C920 H936 0.931 . S
C921 C920 1.370 . S
C921 C925 1.408 . S
C922 C920 1.363 . S
C922 C923 1.370 . S
C922 C926 1.524 . S
C923 C915 1.503 . S
C923 C922 1.370 . S
C923 C924 1.403 . S
C924 C923 1.403 . S
C924 C925 1.404 . S
C924 C927 1.539 . S
C925 C921 1.408 . S
C925 C924 1.404 . S
C925 H937 0.930 . S
C926 C922 1.524 . S
C926 H938 0.956 . S
C926 H939 0.961 . S
C926 H940 0.961 . S
C927 C924 1.539 . S
C927 H941 0.958 . S
C927 H942 0.961 . S
C927 H943 0.960 . S
H928 C912 0.931 . S
H929 C917 0.929 . S
H930 C918 0.960 1_655 S
H931 C918 0.962 . S
H932 C918 0.960 . S
H933 C919 0.961 . S
H934 C919 0.961 . S
H935 C919 0.961 . S
H936 C920 0.931 . S
H937 C925 0.930 . S
H938 C926 0.956 . S
H939 C926 0.961 . S
H940 C926 0.961 . S
H941 C927 0.958 . S
H942 C927 0.961 . S
H943 C927 0.960 . S
C944 C945 1.391 . S
C944 C946 1.394 . S
C944 H960 0.931 . S
C945 C944 1.391 . S
C945 C949 1.376 1_565 S
C946 C944 1.394 . S
C946 C947 1.369 . S
C946 C950 1.531 . S
C947 C946 1.369 . S
C947 C948 1.410 . S
C947 C955 1.503 . S
C948 C947 1.410 . S
C948 C949 1.392 1_565 S
C948 C951 1.511 1_565 S
C949 C945 1.376 1_545 S
C949 C948 1.392 1_545 S
C949 H961 0.929 . S
C950 C946 1.531 . S
C950 H962 0.960 . S
C950 H963 0.962 . S
C950 H964 0.960 . S
C951 C948 1.511 1_545 S
C951 H965 0.961 . S
C951 H966 0.961 1_545 S
C951 H967 0.961 . S
C952 C953 1.370 . S
C952 C954 1.363 . S
C952 H968 0.931 . S
C953 C952 1.370 . S
C953 C957 1.408 . S
C954 C952 1.363 . S
C954 C955 1.370 . S
C954 C958 1.524 . S
C955 C947 1.503 . S
C955 C954 1.370 . S
C955 C956 1.403 . S
C956 C955 1.403 . S
C956 C957 1.404 . S
C956 C959 1.539 . S
C957 C953 1.408 . S
C957 C956 1.404 . S
C957 H969 0.930 . S
C958 C954 1.524 . S
C958 H970 0.956 . S
C958 H971 0.961 . S
C958 H972 0.961 . S
C959 C956 1.539 . S
C959 H973 0.958 . S
C959 H974 0.961 . S
C959 H975 0.960 . S
H960 C944 0.931 . S
H961 C949 0.929 . S
H962 C950 0.960 . S
H963 C950 0.962 . S
H964 C950 0.960 . S
H965 C951 0.961 . S
H966 C951 0.961 1_565 S
H967 C951 0.961 . S
H968 C952 0.931 . S
H969 C957 0.930 . S
H970 C958 0.956 . S
H971 C958 0.961 . S
H972 C958 0.961 . S
H973 C959 0.958 . S
H974 C959 0.961 . S
H975 C959 0.960 . S
C976 C977 1.391 . S
C976 C978 1.394 . S
C976 H992 0.931 . S
C977 C976 1.391 . S
C977 C981 1.376 . S
C978 C976 1.394 . S
C978 C979 1.369 . S
C978 C982 1.531 . S
C979 C978 1.369 . S
C979 C980 1.410 . S
C979 C987 1.503 . S
C980 C979 1.410 . S
C980 C981 1.392 . S
C980 C983 1.511 . S
C981 C977 1.376 . S
C981 C980 1.392 . S
C981 H993 0.929 . S
C982 C978 1.531 . S
C982 H994 0.960 . S
C982 H995 0.962 . S
C982 H996 0.960 . S
C983 C980 1.511 . S
C983 H997 0.961 . S
C983 H998 0.961 . S
C983 H999 0.961 . S
C984 C985 1.370 . S
C984 C986 1.363 . S
C984 H1000 0.931 . S
C985 C984 1.370 . S
C985 C989 1.408 . S
C986 C984 1.363 . S
C986 C987 1.370 . S
C986 C990 1.524 . S
C987 C979 1.503 . S
C987 C986 1.370 . S
C987 C988 1.403 . S
C988 C987 1.403 . S
C988 C989 1.404 . S
C988 C991 1.539 . S
C989 C985 1.408 . S
C989 C988 1.404 . S
C989 H1001 0.930 . S
C990 C986 1.524 . S
C990 H1002 0.956 . S
C990 H1003 0.961 . S
C990 H1004 0.961 . S
C991 C988 1.539 . S
C991 H1005 0.958 . S
C991 H1006 0.961 . S
C991 H1007 0.960 . S
H992 C976 0.931 . S
H993 C981 0.929 . S
H994 C982 0.960 . S
H995 C982 0.962 . S
H996 C982 0.960 . S
H997 C983 0.961 . S
H998 C983 0.961 . S
H999 C983 0.961 . S
H1000 C984 0.931 . S
H1001 C989 0.930 . S
H1002 C990 0.956 . S
H1003 C990 0.961 . S
H1004 C990 0.961 . S
H1005 C991 0.958 . S
H1006 C991 0.961 . S
H1007 C991 0.960 . S
C1008 C1009 1.391 . S
C1008 C1010 1.394 . S
C1008 H1024 0.931 . S
C1009 C1008 1.391 . S
C1009 C1013 1.376 . S
C1010 C1008 1.394 . S
C1010 C1011 1.369 . S
C1010 C1014 1.531 . S
C1011 C1010 1.369 . S
C1011 C1012 1.410 . S
C1011 C1019 1.503 . S
C1012 C1011 1.410 . S
C1012 C1013 1.392 . S
C1012 C1015 1.511 . S
C1013 C1009 1.376 . S
C1013 C1012 1.392 . S
C1013 H1025 0.929 . S
C1014 C1010 1.531 . S
C1014 H1026 0.960 . S
C1014 H1027 0.962 . S
C1014 H1028 0.960 . S
C1015 C1012 1.511 . S
C1015 H1029 0.961 . S
C1015 H1030 0.961 . S
C1015 H1031 0.961 . S
C1016 C1017 1.370 . S
C1016 C1018 1.363 . S
C1016 H1032 0.931 . S
C1017 C1016 1.370 . S
C1017 C1021 1.408 . S
C1018 C1016 1.363 . S
C1018 C1019 1.370 . S
C1018 C1022 1.524 . S
C1019 C1011 1.503 . S
C1019 C1018 1.370 . S
C1019 C1020 1.403 . S
C1020 C1019 1.403 . S
C1020 C1021 1.404 . S
C1020 C1023 1.539 . S
C1021 C1017 1.408 . S
C1021 C1020 1.404 . S
C1021 H1033 0.930 . S
C1022 C1018 1.524 . S
C1022 H1034 0.956 . S
C1022 H1035 0.961 . S
C1022 H1036 0.961 . S
C1023 C1020 1.539 . S
C1023 H1037 0.958 . S
C1023 H1038 0.961 . S
C1023 H1039 0.960 . S
H1024 C1008 0.931 . S
H1025 C1013 0.929 . S
H1026 C1014 0.960 . S
H1027 C1014 0.962 . S
H1028 C1014 0.960 . S
H1029 C1015 0.961 . S
H1030 C1015 0.961 . S
H1031 C1015 0.961 . S
H1032 C1016 0.931 . S
H1033 C1021 0.930 . S
H1034 C1022 0.956 . S
H1035 C1022 0.961 . S
H1036 C1022 0.961 . S
H1037 C1023 0.958 . S
H1038 C1023 0.961 . S
H1039 C1023 0.960 . S
C1040 C1041 1.391 . S
C1040 C1042 1.394 . S
C1040 H1056 0.931 . S
C1041 C1040 1.391 . S
C1041 C1045 1.376 . S
C1042 C1040 1.394 . S
C1042 C1043 1.369 . S
C1042 C1046 1.531 . S
C1043 C1042 1.369 . S
C1043 C1044 1.410 . S
C1043 C1051 1.503 . S
C1044 C1043 1.410 . S
C1044 C1045 1.392 . S
C1044 C1047 1.511 . S
C1045 C1041 1.376 . S
C1045 C1044 1.392 . S
C1045 H1057 0.929 . S
C1046 C1042 1.531 . S
C1046 H1058 0.960 . S
C1046 H1059 0.962 . S
C1046 H1060 0.960 . S
C1047 C1044 1.511 . S
C1047 H1061 0.961 . S
C1047 H1062 0.961 . S
C1047 H1063 0.961 . S
C1048 C1049 1.370 . S
C1048 C1050 1.363 . S
C1048 H1064 0.931 . S
C1049 C1048 1.370 . S
C1049 C1053 1.408 . S
C1050 C1048 1.363 . S
C1050 C1051 1.370 . S
C1050 C1054 1.524 . S
C1051 C1043 1.503 . S
C1051 C1050 1.370 . S
C1051 C1052 1.403 . S
C1052 C1051 1.403 . S
C1052 C1053 1.404 . S
C1052 C1055 1.539 . S
C1053 C1049 1.408 . S
C1053 C1052 1.404 . S
C1053 H1065 0.930 . S
C1054 C1050 1.524 . S
C1054 H1066 0.956 . S
C1054 H1067 0.961 . S
C1054 H1068 0.961 . S
C1055 C1052 1.539 . S
C1055 H1069 0.958 . S
C1055 H1070 0.961 . S
C1055 H1071 0.960 . S
H1056 C1040 0.931 . S
H1057 C1045 0.929 . S
H1058 C1046 0.960 . S
H1059 C1046 0.962 . S
H1060 C1046 0.960 . S
H1061 C1047 0.961 . S
H1062 C1047 0.961 . S
H1063 C1047 0.961 . S
H1064 C1048 0.931 . S
H1065 C1053 0.930 . S
H1066 C1054 0.956 . S
H1067 C1054 0.961 . S
H1068 C1054 0.961 . S
H1069 C1055 0.958 . S
H1070 C1055 0.961 . S
H1071 C1055 0.960 . S
C1072 C1073 1.391 . S
C1072 C1074 1.394 . S
C1072 H1088 0.931 . S
C1073 C1072 1.391 . S
C1073 C1077 1.376 . S
C1074 C1072 1.394 . S
C1074 C1075 1.369 . S
C1074 C1078 1.531 . S
C1075 C1074 1.369 . S
C1075 C1076 1.410 . S
C1075 C1083 1.503 . S
C1076 C1075 1.410 . S
C1076 C1077 1.392 . S
C1076 C1079 1.511 . S
C1077 C1073 1.376 . S
C1077 C1076 1.392 . S
C1077 H1089 0.929 . S
C1078 C1074 1.531 . S
C1078 H1090 0.960 . S
C1078 H1091 0.962 . S
C1078 H1092 0.960 . S
C1079 C1076 1.511 . S
C1079 H1093 0.961 . S
C1079 H1094 0.961 . S
C1079 H1095 0.961 . S
C1080 C1081 1.370 . S
C1080 C1082 1.363 . S
C1080 H1096 0.931 . S
C1081 C1080 1.370 . S
C1081 C1085 1.408 . S
C1082 C1080 1.363 . S
C1082 C1083 1.370 . S
C1082 C1086 1.524 . S
C1083 C1075 1.503 . S
C1083 C1082 1.370 . S
C1083 C1084 1.403 . S
C1084 C1083 1.403 . S
C1084 C1085 1.404 . S
C1084 C1087 1.539 . S
C1085 C1081 1.408 . S
C1085 C1084 1.404 . S
C1085 H1097 0.930 . S
C1086 C1082 1.524 . S
C1086 H1098 0.956 . S
C1086 H1099 0.961 . S
C1086 H1100 0.961 . S
C1087 C1084 1.539 . S
C1087 H1101 0.958 . S
C1087 H1102 0.961 . S
C1087 H1103 0.960 . S
H1088 C1072 0.931 . S
H1089 C1077 0.929 . S
H1090 C1078 0.960 . S
H1091 C1078 0.962 . S
H1092 C1078 0.960 . S
H1093 C1079 0.961 . S
H1094 C1079 0.961 . S
H1095 C1079 0.961 . S
H1096 C1080 0.931 . S
H1097 C1085 0.930 . S
H1098 C1086 0.956 . S
H1099 C1086 0.961 . S
H1100 C1086 0.961 . S
H1101 C1087 0.958 . S
H1102 C1087 0.961 . S
H1103 C1087 0.960 . S
C1104 C1105 1.391 . S
C1104 C1106 1.394 . S
C1104 H1120 0.931 . S
C1105 C1104 1.391 . S
C1105 C1109 1.376 . S
C1106 C1104 1.394 . S
C1106 C1107 1.369 . S
C1106 C1110 1.531 . S
C1107 C1106 1.369 . S
C1107 C1108 1.410 . S
C1107 C1115 1.503 . S
C1108 C1107 1.410 . S
C1108 C1109 1.392 . S
C1108 C1111 1.511 . S
C1109 C1105 1.376 . S
C1109 C1108 1.392 . S
C1109 H1121 0.929 . S
C1110 C1106 1.531 . S
C1110 H1122 0.960 . S
C1110 H1123 0.962 . S
C1110 H1124 0.960 . S
C1111 C1108 1.511 . S
C1111 H1125 0.961 . S
C1111 H1126 0.961 . S
C1111 H1127 0.961 . S
C1112 C1113 1.370 . S
C1112 C1114 1.363 . S
C1112 H1128 0.931 . S
C1113 C1112 1.370 . S
C1113 C1117 1.408 . S
C1114 C1112 1.363 . S
C1114 C1115 1.370 . S
C1114 C1118 1.524 . S
C1115 C1107 1.503 . S
C1115 C1114 1.370 . S
C1115 C1116 1.403 . S
C1116 C1115 1.403 . S
C1116 C1117 1.404 . S
C1116 C1119 1.539 . S
C1117 C1113 1.408 . S
C1117 C1116 1.404 . S
C1117 H1129 0.930 . S
C1118 C1114 1.524 . S
C1118 H1130 0.956 . S
C1118 H1131 0.961 . S
C1118 H1132 0.961 . S
C1119 C1116 1.539 . S
C1119 H1133 0.958 . S
C1119 H1134 0.961 . S
C1119 H1135 0.960 . S
H1120 C1104 0.931 . S
H1121 C1109 0.929 . S
H1122 C1110 0.960 . S
H1123 C1110 0.962 . S
H1124 C1110 0.960 . S
H1125 C1111 0.961 . S
H1126 C1111 0.961 . S
H1127 C1111 0.961 . S
H1128 C1112 0.931 . S
H1129 C1117 0.930 . S
H1130 C1118 0.956 . S
H1131 C1118 0.961 . S
H1132 C1118 0.961 . S
H1133 C1119 0.958 . S
H1134 C1119 0.961 . S
H1135 C1119 0.960 . S
C1136 C1137 1.391 . S
C1136 C1138 1.394 . S
C1136 H1152 0.931 . S
C1137 C1136 1.391 . S
C1137 C1141 1.376 . S
C1138 C1136 1.394 . S
C1138 C1139 1.369 . S
C1138 C1142 1.531 . S
C1139 C1138 1.369 . S
C1139 C1140 1.410 . S
C1139 C1147 1.503 . S
C1140 C1139 1.410 . S
C1140 C1141 1.392 . S
C1140 C1143 1.511 . S
C1141 C1137 1.376 . S
C1141 C1140 1.392 . S
C1141 H1153 0.929 . S
C1142 C1138 1.531 . S
C1142 H1154 0.960 . S
C1142 H1155 0.962 . S
C1142 H1156 0.960 . S
C1143 C1140 1.511 . S
C1143 H1157 0.961 . S
C1143 H1158 0.961 . S
C1143 H1159 0.961 . S
C1144 C1145 1.370 . S
C1144 C1146 1.363 . S
C1144 H1160 0.931 . S
C1145 C1144 1.370 . S
C1145 C1149 1.408 . S
C1146 C1144 1.363 . S
C1146 C1147 1.370 . S
C1146 C1150 1.524 . S
C1147 C1139 1.503 . S
C1147 C1146 1.370 . S
C1147 C1148 1.403 . S
C1148 C1147 1.403 . S
C1148 C1149 1.404 . S
C1148 C1151 1.539 . S
C1149 C1145 1.408 . S
C1149 C1148 1.404 . S
C1149 H1161 0.930 . S
C1150 C1146 1.524 . S
C1150 H1162 0.956 . S
C1150 H1163 0.961 . S
C1150 H1164 0.961 . S
C1151 C1148 1.539 . S
C1151 H1165 0.958 . S
C1151 H1166 0.961 . S
C1151 H1167 0.960 . S
H1152 C1136 0.931 . S
H1153 C1141 0.929 . S
H1154 C1142 0.960 . S
H1155 C1142 0.962 . S
H1156 C1142 0.960 . S
H1157 C1143 0.961 . S
H1158 C1143 0.961 . S
H1159 C1143 0.961 . S
H1160 C1144 0.931 . S
H1161 C1149 0.930 . S
H1162 C1150 0.956 . S
H1163 C1150 0.961 . S
H1164 C1150 0.961 . S
H1165 C1151 0.958 . S
H1166 C1151 0.961 . S
H1167 C1151 0.960 . S
C1168 C1169 1.391 . S
C1168 C1170 1.394 . S
C1168 H1184 0.931 . S
C1169 C1168 1.391 . S
C1169 C1173 1.376 . S
C1170 C1168 1.394 . S
C1170 C1171 1.369 . S
C1170 C1174 1.531 . S
C1171 C1170 1.369 . S
C1171 C1172 1.410 . S
C1171 C1179 1.503 . S
C1172 C1171 1.410 . S
C1172 C1173 1.392 . S
C1172 C1175 1.511 . S
C1173 C1169 1.376 . S
C1173 C1172 1.392 . S
C1173 H1185 0.929 . S
C1174 C1170 1.531 . S
C1174 H1186 0.960 . S
C1174 H1187 0.962 . S
C1174 H1188 0.960 . S
C1175 C1172 1.511 . S
C1175 H1189 0.961 . S
C1175 H1190 0.961 . S
C1175 H1191 0.961 . S
C1176 C1177 1.370 . S
C1176 C1178 1.363 . S
C1176 H1192 0.931 . S
C1177 C1176 1.370 . S
C1177 C1181 1.408 . S
C1178 C1176 1.363 . S
C1178 C1179 1.370 . S
C1178 C1182 1.524 . S
C1179 C1171 1.503 . S
C1179 C1178 1.370 . S
C1179 C1180 1.403 . S
C1180 C1179 1.403 . S
C1180 C1181 1.404 . S
C1180 C1183 1.539 . S
C1181 C1177 1.408 . S
C1181 C1180 1.404 . S
C1181 H1193 0.930 . S
C1182 C1178 1.524 . S
C1182 H1194 0.956 . S
C1182 H1195 0.961 . S
C1182 H1196 0.961 . S
C1183 C1180 1.539 . S
C1183 H1197 0.958 . S
C1183 H1198 0.961 . S
C1183 H1199 0.960 . S
H1184 C1168 0.931 . S
H1185 C1173 0.929 . S
H1186 C1174 0.960 . S
H1187 C1174 0.962 . S
H1188 C1174 0.960 . S
H1189 C1175 0.961 . S
H1190 C1175 0.961 . S
H1191 C1175 0.961 . S
H1192 C1176 0.931 . S
H1193 C1181 0.930 . S
H1194 C1182 0.956 . S
H1195 C1182 0.961 . S
H1196 C1182 0.961 . S
H1197 C1183 0.958 . S
H1198 C1183 0.961 . S
H1199 C1183 0.960 . S
C1200 C1201 1.391 . S
C1200 C1202 1.394 . S
C1200 H1216 0.931 . S
C1201 C1200 1.391 . S
C1201 C1205 1.376 . S
C1202 C1200 1.394 . S
C1202 C1203 1.369 . S
C1202 C1206 1.531 . S
C1203 C1202 1.369 . S
C1203 C1204 1.410 . S
C1203 C1211 1.503 . S
C1204 C1203 1.410 . S
C1204 C1205 1.392 . S
C1204 C1207 1.511 . S
C1205 C1201 1.376 . S
C1205 C1204 1.392 . S
C1205 H1217 0.929 . S
C1206 C1202 1.531 . S
C1206 H1218 0.960 . S
C1206 H1219 0.962 . S
C1206 H1220 0.960 . S
C1207 C1204 1.511 . S
C1207 H1221 0.961 . S
C1207 H1222 0.961 . S
C1207 H1223 0.961 . S
C1208 C1209 1.370 . S
C1208 C1210 1.363 . S
C1208 H1224 0.931 . S
C1209 C1208 1.370 . S
C1209 C1213 1.408 . S
C1210 C1208 1.363 . S
C1210 C1211 1.370 . S
C1210 C1214 1.524 . S
C1211 C1203 1.503 . S
C1211 C1210 1.370 . S
C1211 C1212 1.403 . S
C1212 C1211 1.403 . S
C1212 C1213 1.404 . S
C1212 C1215 1.539 . S
C1213 C1209 1.408 . S
C1213 C1212 1.404 . S
C1213 H1225 0.930 . S
C1214 C1210 1.524 . S
C1214 H1226 0.956 . S
C1214 H1227 0.961 . S
C1214 H1228 0.961 . S
C1215 C1212 1.539 . S
C1215 H1229 0.958 . S
C1215 H1230 0.961 . S
C1215 H1231 0.960 . S
H1216 C1200 0.931 . S
H1217 C1205 0.929 . S
H1218 C1206 0.960 . S
H1219 C1206 0.962 . S
H1220 C1206 0.960 . S
H1221 C1207 0.961 . S
H1222 C1207 0.961 . S
H1223 C1207 0.961 . S
H1224 C1208 0.931 . S
H1225 C1213 0.930 . S
H1226 C1214 0.956 . S
H1227 C1214 0.961 . S
H1228 C1214 0.961 . S
H1229 C1215 0.958 . S
H1230 C1215 0.961 . S
H1231 C1215 0.960 . S
C1232 C1233 1.391 . S
C1232 C1234 1.394 . S
C1232 H1248 0.931 . S
C1233 C1232 1.391 . S
C1233 C1237 1.376 . S
C1234 C1232 1.394 . S
C1234 C1235 1.369 . S
C1234 C1238 1.531 . S
C1235 C1234 1.369 . S
C1235 C1236 1.410 . S
C1235 C1243 1.503 . S
C1236 C1235 1.410 . S
C1236 C1237 1.392 . S
C1236 C1239 1.511 . S
C1237 C1233 1.376 . S
C1237 C1236 1.392 . S
C1237 H1249 0.929 . S
C1238 C1234 1.531 . S
C1238 H1250 0.960 . S
C1238 H1251 0.962 . S
C1238 H1252 0.960 . S
C1239 C1236 1.511 . S
C1239 H1253 0.961 . S
C1239 H1254 0.961 . S
C1239 H1255 0.961 . S
C1240 C1241 1.370 . S
C1240 C1242 1.363 . S
C1240 H1256 0.931 . S
C1241 C1240 1.370 . S
C1241 C1245 1.408 . S
C1242 C1240 1.363 . S
C1242 C1243 1.370 . S
C1242 C1246 1.524 . S
C1243 C1235 1.503 . S
C1243 C1242 1.370 . S
C1243 C1244 1.403 . S
C1244 C1243 1.403 . S
C1244 C1245 1.404 . S
C1244 C1247 1.539 . S
C1245 C1241 1.408 . S
C1245 C1244 1.404 . S
C1245 H1257 0.930 . S
C1246 C1242 1.524 . S
C1246 H1258 0.956 . S
C1246 H1259 0.961 . S
C1246 H1260 0.961 . S
C1247 C1244 1.539 . S
C1247 H1261 0.958 . S
C1247 H1262 0.961 . S
C1247 H1263 0.960 . S
H1248 C1232 0.931 . S
H1249 C1237 0.929 . S
H1250 C1238 0.960 . S
H1251 C1238 0.962 . S
H1252 C1238 0.960 . S
H1253 C1239 0.961 . S
H1254 C1239 0.961 . S
H1255 C1239 0.961 . S
H1256 C1240 0.931 . S
H1257 C1245 0.930 . S
H1258 C1246 0.956 . S
H1259 C1246 0.961 . S
H1260 C1246 0.961 . S
H1261 C1247 0.958 . S
H1262 C1247 0.961 . S
H1263 C1247 0.960 . S
C1264 C1265 1.391 . S
C1264 C1266 1.394 . S
C1264 H1280 0.931 . S
C1265 C1264 1.391 . S
C1265 C1269 1.376 . S
C1266 C1264 1.394 . S
C1266 C1267 1.369 . S
C1266 C1270 1.531 . S
C1267 C1266 1.369 . S
C1267 C1268 1.410 . S
C1267 C1275 1.503 . S
C1268 C1267 1.410 . S
C1268 C1269 1.392 . S
C1268 C1271 1.511 . S
C1269 C1265 1.376 . S
C1269 C1268 1.392 . S
C1269 H1281 0.929 . S
C1270 C1266 1.531 . S
C1270 H1282 0.960 . S
C1270 H1283 0.962 . S
C1270 H1284 0.960 . S
C1271 C1268 1.511 . S
C1271 H1285 0.961 . S
C1271 H1286 0.961 . S
C1271 H1287 0.961 . S
C1272 C1273 1.370 . S
C1272 C1274 1.363 . S
C1272 H1288 0.931 . S
C1273 C1272 1.370 . S
C1273 C1277 1.408 . S
C1274 C1272 1.363 . S
C1274 C1275 1.370 . S
C1274 C1278 1.524 . S
C1275 C1267 1.503 . S
C1275 C1274 1.370 . S
C1275 C1276 1.403 . S
C1276 C1275 1.403 . S
C1276 C1277 1.404 . S
C1276 C1279 1.539 . S
C1277 C1273 1.408 . S
C1277 C1276 1.404 . S
C1277 H1289 0.930 . S
C1278 C1274 1.524 . S
C1278 H1290 0.956 . S
C1278 H1291 0.961 . S
C1278 H1292 0.961 . S
C1279 C1276 1.539 . S
C1279 H1293 0.958 . S
C1279 H1294 0.961 . S
C1279 H1295 0.960 . S
H1280 C1264 0.931 . S
H1281 C1269 0.929 . S
H1282 C1270 0.960 . S
H1283 C1270 0.962 . S
H1284 C1270 0.960 . S
H1285 C1271 0.961 . S
H1286 C1271 0.961 . S
H1287 C1271 0.961 . S
H1288 C1272 0.931 . S
H1289 C1277 0.930 . S
H1290 C1278 0.956 . S
H1291 C1278 0.961 . S
H1292 C1278 0.961 . S
H1293 C1279 0.958 . S
H1294 C1279 0.961 . S
H1295 C1279 0.960 . S
C1296 C1297 1.391 . S
C1296 C1298 1.394 . S
C1296 H1312 0.931 . S
C1297 C1296 1.391 . S
C1297 C1301 1.376 . S
C1298 C1296 1.394 . S
C1298 C1299 1.369 . S
C1298 C1302 1.531 . S
C1299 C1298 1.369 . S
C1299 C1300 1.410 1_554 S
C1299 C1307 1.497 1_544 S
C1300 C1299 1.410 1_556 S
C1300 C1301 1.392 1_556 S
C1300 C1303 1.511 1_545 S
C1301 C1297 1.376 . S
C1301 C1300 1.392 1_554 S
C1301 H1313 0.929 . S
C1302 C1298 1.531 . S
C1302 H1314 0.960 . S
C1302 H1315 0.962 . S
C1302 H1316 0.960 . S
C1303 C1300 1.511 1_565 S
C1303 H1317 0.961 . S
C1303 H1318 0.961 . S
C1303 H1319 0.961 1_565 S
C1304 C1305 1.370 . S
C1304 C1306 1.363 . S
C1304 H1320 0.931 . S
C1305 C1304 1.370 . S
C1305 C1309 1.408 1_565 S
C1306 C1304 1.363 . S
C1306 C1307 1.388 . S
C1306 C1310 1.524 1_556 S
C1307 C1299 1.497 1_566 S
C1307 C1306 1.388 . S
C1307 C1308 1.392 1_565 S
C1308 C1307 1.392 1_545 S
C1308 C1309 1.404 . S
C1308 C1311 1.539 . S
C1309 C1305 1.408 1_545 S
C1309 C1308 1.404 . S
C1309 H1321 0.930 . S
C1310 C1306 1.524 1_554 S
C1310 H1322 0.956 . S
C1310 H1323 0.961 . S
C1310 H1324 0.961 . S
C1311 C1308 1.539 . S
C1311 H1325 0.958 . S
C1311 H1326 0.961 . S
C1311 H1327 0.960 . S
H1312 C1296 0.931 . S
H1313 C1301 0.929 . S
H1314 C1302 0.960 . S
H1315 C1302 0.962 . S
H1316 C1302 0.960 . S
H1317 C1303 0.961 . S
H1318 C1303 0.961 . S
H1319 C1303 0.961 1_545 S
H1320 C1304 0.931 . S
H1321 C1309 0.930 . S
H1322 C1310 0.956 . S
H1323 C1310 0.961 . S
H1324 C1310 0.961 . S
H1325 C1311 0.958 . S
H1326 C1311 0.961 . S
H1327 C1311 0.960 . S
C1328 C1329 1.391 . S
C1328 C1330 1.394 . S
C1328 H1344 0.931 . S
C1329 C1328 1.391 . S
C1329 C1333 1.376 . S
C1330 C1328 1.394 . S
C1330 C1331 1.369 . S
C1330 C1334 1.531 1_554 S
C1331 C1330 1.369 . S
C1331 C1332 1.410 . S
C1331 C1339 1.503 1_554 S
C1332 C1331 1.410 . S
C1332 C1333 1.392 . S
C1332 C1335 1.511 . S
C1333 C1329 1.376 . S
C1333 C1332 1.392 . S
C1333 H1345 0.929 . S
C1334 C1330 1.531 1_556 S
C1334 H1346 0.960 . S
C1334 H1347 0.962 1_556 S
C1334 H1348 0.960 . S
C1335 C1332 1.511 . S
C1335 H1349 0.961 . S
C1335 H1350 0.961 . S
C1335 H1351 0.961 1_554 S
C1336 C1337 1.370 . S
C1336 C1338 1.363 1_556 S
C1336 H1352 0.931 1_556 S
C1337 C1336 1.370 . S
C1337 C1341 1.408 . S
C1338 C1336 1.363 1_554 S
C1338 C1339 1.370 1_554 S
C1338 C1342 1.524 . S
C1339 C1331 1.503 1_556 S
C1339 C1338 1.370 1_556 S
C1339 C1340 1.403 . S
C1340 C1339 1.403 . S
C1340 C1341 1.404 . S
C1340 C1343 1.539 . S
C1341 C1337 1.408 . S
C1341 C1340 1.404 . S
C1341 H1353 0.930 . S
C1342 C1338 1.524 . S
C1342 H1354 0.956 . S
C1342 H1355 0.961 . S
C1342 H1356 0.961 . S
C1343 C1340 1.539 . S
C1343 H1357 0.958 . S
C1343 H1358 0.961 . S
C1343 H1359 0.960 . S
H1344 C1328 0.931 . S
H1345 C1333 0.929 . S
H1346 C1334 0.960 . S
H1347 C1334 0.962 1_554 S
H1348 C1334 0.960 . S
H1349 C1335 0.961 . S
H1350 C1335 0.961 . S
H1351 C1335 0.961 1_556 S
H1352 C1336 0.931 1_554 S
H1353 C1341 0.930 . S
H1354 C1342 0.956 . S
H1355 C1342 0.961 . S
H1356 C1342 0.961 . S
H1357 C1343 0.958 . S
H1358 C1343 0.961 . S
H1359 C1343 0.960 . S
C1360 C1361 1.391 . S
C1360 C1362 1.394 . S
C1360 H1376 0.931 . S
C1361 C1360 1.391 . S
C1361 C1365 1.376 . S
C1362 C1360 1.394 . S
C1362 C1363 1.369 . S
C1362 C1366 1.531 . S
C1363 C1362 1.369 . S
C1363 C1364 1.410 . S
C1363 C1371 1.503 1_654 S
C1364 C1363 1.410 . S
C1364 C1365 1.392 . S
C1364 C1367 1.502 1_654 S
C1365 C1361 1.376 . S
C1365 C1364 1.392 . S
C1365 H1377 0.929 . S
C1366 C1362 1.531 . S
C1366 H1378 0.960 1_655 S
C1366 H1379 0.962 . S
C1366 H1380 0.960 . S
C1367 C1364 1.502 1_456 S
C1367 H1381 0.951 1_455 S
C1367 H1382 0.969 . S
C1367 H1383 0.971 1_556 S
C1368 C1369 1.370 . S
C1368 C1370 1.363 . S
C1368 H1384 0.931 . S
C1369 C1368 1.370 . S
C1369 C1373 1.408 . S
C1370 C1368 1.363 . S
C1370 C1371 1.370 . S
C1370 C1374 1.524 1_455 S
C1371 C1363 1.503 1_456 S
C1371 C1370 1.370 . S
C1371 C1372 1.403 1_556 S
C1372 C1371 1.403 1_554 S
C1372 C1373 1.404 1_554 S
C1372 C1375 1.539 . S
C1373 C1369 1.408 . S
C1373 C1372 1.404 1_556 S
C1373 H1385 0.925 1_556 S
C1374 C1370 1.524 1_655 S
C1374 H1386 0.956 . S
C1374 H1387 0.961 . S
C1374 H1388 0.961 . S
C1375 C1372 1.539 . S
C1375 H1389 0.958 . S
C1375 H1390 0.961 . S
C1375 H1391 0.960 . S
H1376 C1360 0.931 . S
H1377 C1365 0.929 . S
H1378 C1366 0.960 1_455 S
H1379 C1366 0.962 . S
H1380 C1366 0.960 . S
H1381 C1367 0.951 1_655 S
H1382 C1367 0.969 . S
H1383 C1367 0.971 1_554 S
H1384 C1368 0.931 . S
H1385 C1373 0.925 1_554 S
H1386 C1374 0.956 . S
H1387 C1374 0.961 . S
H1388 C1374 0.961 . S
H1389 C1375 0.958 . S
H1390 C1375 0.961 . S
H1391 C1375 0.960 . S
C1392 C1393 1.391 . S
C1392 C1394 1.394 . S
C1392 H1408 0.931 . S
C1393 C1392 1.391 . S
C1393 C1397 1.376 1_655 S
C1394 C1392 1.394 . S
C1394 C1395 1.369 . S
C1394 C1398 1.531 1_545 S
C1395 C1394 1.369 . S
C1395 C1396 1.410 1_655 S
C1395 C1403 1.503 1_646 S
C1396 C1395 1.410 1_455 S
C1396 C1397 1.392 . S
C1396 C1399 1.525 . S
C1397 C1393 1.376 1_455 S
C1397 C1396 1.392 . S
C1397 H1409 0.929 . S
C1398 C1394 1.531 1_565 S
C1398 H1410 0.960 . S
C1398 H1411 0.962 . S
C1398 H1412 0.960 . S
C1399 C1396 1.525 . S
C1399 H1413 0.952 1_556 S
C1399 H1414 0.936 1_556 S
C1399 H1415 0.983 . S
C1400 C1401 1.370 . S
C1400 C1402 1.358 1_455 S
C1400 H1416 0.931 . S
C1401 C1400 1.370 . S
C1401 C1405 1.408 . S
C1402 C1400 1.358 1_655 S
C1402 C1403 1.366 1_655 S
C1402 C1406 1.534 1_565 S
C1403 C1395 1.503 1_464 S
C1403 C1402 1.366 1_455 S
C1403 C1404 1.403 1_554 S
C1404 C1403 1.403 1_556 S
C1404 C1405 1.404 1_556 S
C1404 C1407 1.539 . S
C1405 C1401 1.408 . S
C1405 C1404 1.404 1_554 S
C1405 H1417 0.930 1_554 S
C1406 C1402 1.534 1_545 S
C1406 H1418 0.956 . S
C1406 H1419 0.961 . S
C1406 H1420 0.961 . S
C1407 C1404 1.539 . S
C1407 H1421 0.958 . S
C1407 H1422 0.961 . S
C1407 H1423 0.960 . S
H1408 C1392 0.931 . S
H1409 C1397 0.929 . S
H1410 C1398 0.960 . S
H1411 C1398 0.962 . S
H1412 C1398 0.960 . S
H1413 C1399 0.952 1_554 S
H1414 C1399 0.936 1_554 S
H1415 C1399 0.983 . S
H1416 C1400 0.931 . S
H1417 C1405 0.930 1_556 S
H1418 C1406 0.956 . S
H1419 C1406 0.961 . S
H1420 C1406 0.961 . S
H1421 C1407 0.958 . S
H1422 C1407 0.961 . S
H1423 C1407 0.960 . S
C1424 C1425 1.391 . S
C1424 C1426 1.394 . S
C1424 H1440 0.931 . S
C1425 C1424 1.391 . S
C1425 C1429 1.376 . S
C1426 C1424 1.394 . S
C1426 C1427 1.364 1_545 S
C1426 C1430 1.531 1_655 S
C1427 C1426 1.364 1_565 S
C1427 C1428 1.412 . S
C1427 C1435 1.505 1_655 S
C1428 C1427 1.412 . S
C1428 C1429 1.392 1_565 S
C1428 C1431 1.511 . S
C1429 C1425 1.376 . S
C1429 C1428 1.392 1_545 S
C1429 H1441 0.929 1_545 S
C1430 C1426 1.531 1_455 S
C1430 H1442 0.960 . S
C1430 H1443 0.962 . S
C1430 H1444 0.960 . S
C1431 C1428 1.511 . S
C1431 H1445 0.961 . S
C1431 H1446 0.961 . S
C1431 H1447 0.961 . S
C1432 C1433 1.340 1_545 S
C1432 C1434 1.373 . S
C1432 H1448 0.953 . S
C1433 C1432 1.340 1_565 S
C1433 C1437 1.408 . S
C1434 C1432 1.373 . S
C1434 C1435 1.370 1_545 S
C1434 C1438 1.524 . S
C1435 C1427 1.505 1_455 S
C1435 C1434 1.370 1_565 S
C1435 C1436 1.403 . S
C1436 C1435 1.403 . S
C1436 C1437 1.404 . S
C1436 C1439 1.539 . S
C1437 C1433 1.408 . S
C1437 C1436 1.404 . S
C1437 H1449 0.930 . S
C1438 C1434 1.524 . S
C1438 H1450 0.956 . S
C1438 H1451 0.961 1_455 S
C1438 H1452 0.961 . S
C1439 C1436 1.539 . S
C1439 H1453 0.958 . S
C1439 H1454 0.961 . S
C1439 H1455 0.960 1_455 S
H1440 C1424 0.931 . S
H1441 C1429 0.929 1_565 S
H1442 C1430 0.960 . S
H1443 C1430 0.962 . S
H1444 C1430 0.960 . S
H1445 C1431 0.961 . S
H1446 C1431 0.961 . S
H1447 C1431 0.961 . S
H1448 C1432 0.953 . S
H1449 C1437 0.930 . S
H1450 C1438 0.956 . S
H1451 C1438 0.961 1_655 S
H1452 C1438 0.961 . S
H1453 C1439 0.958 . S
H1454 C1439 0.961 . S
H1455 C1439 0.960 1_655 S
C1456 C1457 1.391 . S
C1456 C1458 1.394 . S
C1456 H1472 0.931 . S
C1457 C1456 1.391 . S
C1457 C1461 1.376 . S
C1458 C1456 1.394 . S
C1458 C1459 1.369 . S
C1458 C1462 1.531 . S
C1459 C1458 1.369 . S
C1459 C1460 1.410 . S
C1459 C1467 1.503 1_545 S
C1460 C1459 1.410 . S
C1460 C1461 1.392 . S
C1460 C1463 1.511 . S
C1461 C1457 1.376 . S
C1461 C1460 1.392 . S
C1461 H1473 0.929 . S
C1462 C1458 1.531 . S
C1462 H1474 0.960 . S
C1462 H1475 0.962 . S
C1462 H1476 0.960 . S
C1463 C1460 1.511 . S
C1463 H1477 0.961 . S
C1463 H1478 0.961 1_545 S
C1463 H1479 0.961 . S
C1464 C1465 1.370 . S
C1464 C1466 1.363 . S
C1464 H1480 0.931 . S
C1465 C1464 1.370 . S
C1465 C1469 1.408 . S
C1466 C1464 1.363 . S
C1466 C1467 1.370 . S
C1466 C1470 1.524 . S
C1467 C1459 1.503 1_565 S
C1467 C1466 1.370 . S
C1467 C1468 1.403 . S
C1468 C1467 1.403 . S
C1468 C1469 1.404 . S
C1468 C1471 1.539 1_565 S
C1469 C1465 1.408 . S
C1469 C1468 1.404 . S
C1469 H1481 0.930 . S
C1470 C1466 1.524 . S
C1470 H1482 0.956 . S
C1470 H1483 0.961 . S
C1470 H1484 0.961 . S
C1471 C1468 1.539 1_545 S
C1471 H1485 0.958 . S
C1471 H1486 0.961 . S
C1471 H1487 0.960 . S
H1472 C1456 0.931 . S
H1473 C1461 0.929 . S
H1474 C1462 0.960 . S
H1475 C1462 0.962 . S
H1476 C1462 0.960 . S
H1477 C1463 0.961 . S
H1478 C1463 0.961 1_565 S
H1479 C1463 0.961 . S
H1480 C1464 0.931 . S
H1481 C1469 0.930 . S
H1482 C1470 0.956 . S
H1483 C1470 0.961 . S
H1484 C1470 0.961 . S
H1485 C1471 0.958 . S
H1486 C1471 0.961 . S
H1487 C1471 0.960 . S
C1488 C1489 1.391 . S
C1488 C1490 1.394 . S
C1488 H1504 0.931 . S
C1489 C1488 1.391 . S
C1489 C1493 1.376 . S
C1490 C1488 1.394 . S
C1490 C1491 1.369 . S
C1490 C1494 1.531 . S
C1491 C1490 1.369 . S
C1491 C1492 1.410 . S
C1491 C1499 1.503 . S
C1492 C1491 1.410 . S
C1492 C1493 1.392 . S
C1492 C1495 1.511 . S
C1493 C1489 1.376 . S
C1493 C1492 1.392 . S
C1493 H1505 0.929 . S
C1494 C1490 1.531 . S
C1494 H1506 0.960 . S
C1494 H1507 0.962 . S
C1494 H1508 0.960 . S
C1495 C1492 1.511 . S
C1495 H1509 0.961 . S
C1495 H1510 0.961 . S
C1495 H1511 0.961 . S
C1496 C1497 1.370 . S
C1496 C1498 1.363 . S
C1496 H1512 0.931 . S
C1497 C1496 1.370 . S
C1497 C1501 1.408 . S
C1498 C1496 1.363 . S
C1498 C1499 1.370 . S
C1498 C1502 1.524 . S
C1499 C1491 1.503 . S
C1499 C1498 1.370 . S
C1499 C1500 1.403 . S
C1500 C1499 1.403 . S
C1500 C1501 1.404 . S
C1500 C1503 1.539 . S
C1501 C1497 1.408 . S
C1501 C1500 1.404 . S
C1501 H1513 0.930 . S
C1502 C1498 1.524 . S
C1502 H1514 0.956 . S
C1502 H1515 0.961 . S
C1502 H1516 0.961 . S
C1503 C1500 1.539 . S
C1503 H1517 0.958 . S
C1503 H1518 0.961 . S
C1503 H1519 0.960 . S
H1504 C1488 0.931 . S
H1505 C1493 0.929 . S
H1506 C1494 0.960 . S
H1507 C1494 0.962 . S
H1508 C1494 0.960 . S
H1509 C1495 0.961 . S
H1510 C1495 0.961 . S
H1511 C1495 0.961 . S
H1512 C1496 0.931 . S
H1513 C1501 0.930 . S
H1514 C1502 0.956 . S
H1515 C1502 0.961 . S
H1516 C1502 0.961 . S
H1517 C1503 0.958 . S
H1518 C1503 0.961 . S
H1519 C1503 0.960 . S
C1520 C1521 1.391 . S
C1520 C1522 1.394 . S
C1520 H1536 0.931 . S
C1521 C1520 1.391 . S
C1521 C1525 1.376 . S
C1522 C1520 1.394 . S
C1522 C1523 1.369 1_455 S
C1522 C1526 1.531 . S
C1523 C1522 1.369 1_655 S
C1523 C1524 1.410 . S
C1523 C1531 1.503 . S
C1524 C1523 1.410 . S
C1524 C1525 1.392 1_655 S
C1524 C1527 1.511 . S
C1525 C1521 1.376 . S
C1525 C1524 1.392 1_455 S
C1525 H1537 0.929 . S
C1526 C1522 1.531 . S
C1526 H1538 0.960 1_455 S
C1526 H1539 0.962 . S
C1526 H1540 0.960 . S
C1527 C1524 1.511 . S
C1527 H1541 0.961 . S
C1527 H1542 0.961 . S
C1527 H1543 0.961 . S
C1528 C1529 1.370 1_455 S
C1528 C1530 1.363 . S
C1528 H1544 0.931 . S
C1529 C1528 1.370 1_655 S
C1529 C1533 1.408 . S
C1530 C1528 1.363 . S
C1530 C1531 1.370 1_455 S
C1530 C1534 1.524 . S
C1531 C1523 1.503 . S
C1531 C1530 1.370 1_655 S
C1531 C1532 1.403 . S
C1532 C1531 1.403 . S
C1532 C1533 1.404 . S
C1532 C1535 1.539 . S
C1533 C1529 1.408 . S
C1533 C1532 1.404 . S
C1533 H1545 0.930 . S
C1534 C1530 1.524 . S
C1534 H1546 0.956 . S
C1534 H1547 0.961 . S
C1534 H1548 0.961 . S
C1535 C1532 1.539 . S
C1535 H1549 0.958 . S
C1535 H1550 0.961 . S
C1535 H1551 0.960 . S
H1536 C1520 0.931 . S
H1537 C1525 0.929 . S
H1538 C1526 0.960 1_655 S
H1539 C1526 0.962 . S
H1540 C1526 0.960 . S
H1541 C1527 0.961 . S
H1542 C1527 0.961 . S
H1543 C1527 0.961 . S
H1544 C1528 0.931 . S
H1545 C1533 0.930 . S
H1546 C1534 0.956 . S
H1547 C1534 0.961 . S
H1548 C1534 0.961 . S
H1549 C1535 0.958 . S
H1550 C1535 0.961 . S
H1551 C1535 0.960 . S
C1552 C1553 1.391 . S
C1552 C1554 1.394 . S
C1552 H1568 0.931 . S
C1553 C1552 1.391 . S
C1553 C1557 1.376 . S
C1554 C1552 1.394 . S
C1554 C1555 1.369 . S
C1554 C1558 1.531 . S
C1555 C1554 1.369 . S
C1555 C1556 1.410 . S
C1555 C1563 1.503 . S
C1556 C1555 1.410 . S
C1556 C1557 1.392 . S
C1556 C1559 1.511 . S
C1557 C1553 1.376 . S
C1557 C1556 1.392 . S
C1557 H1569 0.929 . S
C1558 C1554 1.531 . S
C1558 H1570 0.960 . S
C1558 H1571 0.962 . S
C1558 H1572 0.960 . S
C1559 C1556 1.511 . S
C1559 H1573 0.961 . S
C1559 H1574 0.961 . S
C1559 H1575 0.961 . S
C1560 C1561 1.370 . S
C1560 C1562 1.363 . S
C1560 H1576 0.931 . S
C1561 C1560 1.370 . S
C1561 C1565 1.408 . S
C1562 C1560 1.363 . S
C1562 C1563 1.370 . S
C1562 C1566 1.524 . S
C1563 C1555 1.503 . S
C1563 C1562 1.370 . S
C1563 C1564 1.403 . S
C1564 C1563 1.403 . S
C1564 C1565 1.404 . S
C1564 C1567 1.539 . S
C1565 C1561 1.408 . S
C1565 C1564 1.404 . S
C1565 H1577 0.930 . S
C1566 C1562 1.524 . S
C1566 H1578 0.956 . S
C1566 H1579 0.961 . S
C1566 H1580 0.961 . S
C1567 C1564 1.539 . S
C1567 H1581 0.958 . S
C1567 H1582 0.961 . S
C1567 H1583 0.960 . S
H1568 C1552 0.931 . S
H1569 C1557 0.929 . S
H1570 C1558 0.960 . S
H1571 C1558 0.962 . S
H1572 C1558 0.960 . S
H1573 C1559 0.961 . S
H1574 C1559 0.961 . S
H1575 C1559 0.961 . S
H1576 C1560 0.931 . S
H1577 C1565 0.930 . S
H1578 C1566 0.956 . S
H1579 C1566 0.961 . S
H1580 C1566 0.961 . S
H1581 C1567 0.958 . S
H1582 C1567 0.961 . S
H1583 C1567 0.960 . S
C1584 C1585 1.391 . S
C1584 C1586 1.394 . S
C1584 H1600 0.931 . S
C1585 C1584 1.391 . S
C1585 C1589 1.376 . S
C1586 C1584 1.394 . S
C1586 C1587 1.369 . S
C1586 C1590 1.531 . S
C1587 C1586 1.369 . S
C1587 C1588 1.410 . S
C1587 C1595 1.503 . S
C1588 C1587 1.410 . S
C1588 C1589 1.392 . S
C1588 C1591 1.511 . S
C1589 C1585 1.376 . S
C1589 C1588 1.392 . S
C1589 H1601 0.929 . S
C1590 C1586 1.531 . S
C1590 H1602 0.960 . S
C1590 H1603 0.962 . S
C1590 H1604 0.960 . S
C1591 C1588 1.511 . S
C1591 H1605 0.961 . S
C1591 H1606 0.961 . S
C1591 H1607 0.961 . S
C1592 C1593 1.370 . S
C1592 C1594 1.363 . S
C1592 H1608 0.931 . S
C1593 C1592 1.370 . S
C1593 C1597 1.408 . S
C1594 C1592 1.363 . S
C1594 C1595 1.370 . S
C1594 C1598 1.524 . S
C1595 C1587 1.503 . S
C1595 C1594 1.370 . S
C1595 C1596 1.403 . S
C1596 C1595 1.403 . S
C1596 C1597 1.404 . S
C1596 C1599 1.539 . S
C1597 C1593 1.408 . S
C1597 C1596 1.404 . S
C1597 H1609 0.930 . S
C1598 C1594 1.524 . S
C1598 H1610 0.956 . S
C1598 H1611 0.961 . S
C1598 H1612 0.961 . S
C1599 C1596 1.539 . S
C1599 H1613 0.958 . S
C1599 H1614 0.961 . S
C1599 H1615 0.960 . S
H1600 C1584 0.931 . S
H1601 C1589 0.929 . S
H1602 C1590 0.960 . S
H1603 C1590 0.962 . S
H1604 C1590 0.960 . S
H1605 C1591 0.961 . S
H1606 C1591 0.961 . S
H1607 C1591 0.961 . S
H1608 C1592 0.931 . S
H1609 C1597 0.930 . S
H1610 C1598 0.956 . S
H1611 C1598 0.961 . S
H1612 C1598 0.961 . S
H1613 C1599 0.958 . S
H1614 C1599 0.961 . S
H1615 C1599 0.960 . S
C1616 C1617 1.391 . S
C1616 C1618 1.394 . S
C1616 H1632 0.931 . S
C1617 C1616 1.391 . S
C1617 C1621 1.376 . S
C1618 C1616 1.394 . S
C1618 C1619 1.369 . S
C1618 C1622 1.531 . S
C1619 C1618 1.369 . S
C1619 C1620 1.410 . S
C1619 C1627 1.503 . S
C1620 C1619 1.410 . S
C1620 C1621 1.392 . S
C1620 C1623 1.511 . S
C1621 C1617 1.376 . S
C1621 C1620 1.392 . S
C1621 H1633 0.929 . S
C1622 C1618 1.531 . S
C1622 H1634 0.960 . S
C1622 H1635 0.962 . S
C1622 H1636 0.960 . S
C1623 C1620 1.511 . S
C1623 H1637 0.961 . S
C1623 H1638 0.961 . S
C1623 H1639 0.961 . S
C1624 C1625 1.370 . S
C1624 C1626 1.363 . S
C1624 H1640 0.931 . S
C1625 C1624 1.370 . S
C1625 C1629 1.408 . S
C1626 C1624 1.363 . S
C1626 C1627 1.370 . S
C1626 C1630 1.524 . S
C1627 C1619 1.503 . S
C1627 C1626 1.370 . S
C1627 C1628 1.403 . S
C1628 C1627 1.403 . S
C1628 C1629 1.404 . S
C1628 C1631 1.539 . S
C1629 C1625 1.408 . S
C1629 C1628 1.404 . S
C1629 H1641 0.930 . S
C1630 C1626 1.524 . S
C1630 H1642 0.956 . S
C1630 H1643 0.961 . S
C1630 H1644 0.961 . S
C1631 C1628 1.539 . S
C1631 H1645 0.958 . S
C1631 H1646 0.961 . S
C1631 H1647 0.960 . S
H1632 C1616 0.931 . S
H1633 C1621 0.929 . S
H1634 C1622 0.960 . S
H1635 C1622 0.962 . S
H1636 C1622 0.960 . S
H1637 C1623 0.961 . S
H1638 C1623 0.961 . S
H1639 C1623 0.961 . S
H1640 C1624 0.931 . S
H1641 C1629 0.930 . S
H1642 C1630 0.956 . S
H1643 C1630 0.961 . S
H1644 C1630 0.961 . S
H1645 C1631 0.958 . S
H1646 C1631 0.961 . S
H1647 C1631 0.960 . S
C1648 C1649 1.391 . S
C1648 C1650 1.394 . S
C1648 H1664 0.931 . S
C1649 C1648 1.391 . S
C1649 C1653 1.376 . S
C1650 C1648 1.394 . S
C1650 C1651 1.369 . S
C1650 C1654 1.531 . S
C1651 C1650 1.369 . S
C1651 C1652 1.410 . S
C1651 C1659 1.503 . S
C1652 C1651 1.410 . S
C1652 C1653 1.392 . S
C1652 C1655 1.511 . S
C1653 C1649 1.376 . S
C1653 C1652 1.392 . S
C1653 H1665 0.929 . S
C1654 C1650 1.531 . S
C1654 H1666 0.960 . S
C1654 H1667 0.962 . S
C1654 H1668 0.960 . S
C1655 C1652 1.511 . S
C1655 H1669 0.961 . S
C1655 H1670 0.961 . S
C1655 H1671 0.961 . S
C1656 C1657 1.370 . S
C1656 C1658 1.363 . S
C1656 H1672 0.931 . S
C1657 C1656 1.370 . S
C1657 C1661 1.408 . S
C1658 C1656 1.363 . S
C1658 C1659 1.370 . S
C1658 C1662 1.524 . S
C1659 C1651 1.503 . S
C1659 C1658 1.370 . S
C1659 C1660 1.403 . S
C1660 C1659 1.403 . S
C1660 C1661 1.404 . S
C1660 C1663 1.539 . S
C1661 C1657 1.408 . S
C1661 C1660 1.404 . S
C1661 H1673 0.930 . S
C1662 C1658 1.524 . S
C1662 H1674 0.956 . S
C1662 H1675 0.961 . S
C1662 H1676 0.961 . S
C1663 C1660 1.539 . S
C1663 H1677 0.958 . S
C1663 H1678 0.961 . S
C1663 H1679 0.960 . S
H1664 C1648 0.931 . S
H1665 C1653 0.929 . S
H1666 C1654 0.960 . S
H1667 C1654 0.962 . S
H1668 C1654 0.960 . S
H1669 C1655 0.961 . S
H1670 C1655 0.961 . S
H1671 C1655 0.961 . S
H1672 C1656 0.931 . S
H1673 C1661 0.930 . S
H1674 C1662 0.956 . S
H1675 C1662 0.961 . S
H1676 C1662 0.961 . S
H1677 C1663 0.958 . S
H1678 C1663 0.961 . S
H1679 C1663 0.960 . S
C1680 C1681 1.391 . S
C1680 C1682 1.394 . S
C1680 H1696 0.931 . S
C1681 C1680 1.391 . S
C1681 C1685 1.376 . S
C1682 C1680 1.394 . S
C1682 C1683 1.369 . S
C1682 C1686 1.531 . S
C1683 C1682 1.369 . S
C1683 C1684 1.410 . S
C1683 C1691 1.503 . S
C1684 C1683 1.410 . S
C1684 C1685 1.392 . S
C1684 C1687 1.511 . S
C1685 C1681 1.376 . S
C1685 C1684 1.392 . S
C1685 H1697 0.929 . S
C1686 C1682 1.531 . S
C1686 H1698 0.960 . S
C1686 H1699 0.962 . S
C1686 H1700 0.960 . S
C1687 C1684 1.511 . S
C1687 H1701 0.961 . S
C1687 H1702 0.961 . S
C1687 H1703 0.961 . S
C1688 C1689 1.370 . S
C1688 C1690 1.363 . S
C1688 H1704 0.931 . S
C1689 C1688 1.370 . S
C1689 C1693 1.408 . S
C1690 C1688 1.363 . S
C1690 C1691 1.370 . S
C1690 C1694 1.524 . S
C1691 C1683 1.503 . S
C1691 C1690 1.370 . S
C1691 C1692 1.403 . S
C1692 C1691 1.403 . S
C1692 C1693 1.404 . S
C1692 C1695 1.539 . S
C1693 C1689 1.408 . S
C1693 C1692 1.404 . S
C1693 H1705 0.930 . S
C1694 C1690 1.524 . S
C1694 H1706 0.956 . S
C1694 H1707 0.961 . S
C1694 H1708 0.961 . S
C1695 C1692 1.539 . S
C1695 H1709 0.958 . S
C1695 H1710 0.961 . S
C1695 H1711 0.960 . S
H1696 C1680 0.931 . S
H1697 C1685 0.929 . S
H1698 C1686 0.960 . S
H1699 C1686 0.962 . S
H1700 C1686 0.960 . S
H1701 C1687 0.961 . S
H1702 C1687 0.961 . S
H1703 C1687 0.961 . S
H1704 C1688 0.931 . S
H1705 C1693 0.930 . S
H1706 C1694 0.956 . S
H1707 C1694 0.961 . S
H1708 C1694 0.961 . S
H1709 C1695 0.958 . S
H1710 C1695 0.961 . S
H1711 C1695 0.960 . S
C1712 C1713 1.391 . S
C1712 C1714 1.394 . S
C1712 H1728 0.931 . S
C1713 C1712 1.391 . S
C1713 C1717 1.376 . S
C1714 C1712 1.394 . S
C1714 C1715 1.369 . S
C1714 C1718 1.531 . S
C1715 C1714 1.369 . S
C1715 C1716 1.410 . S
C1715 C1723 1.503 . S
C1716 C1715 1.410 . S
C1716 C1717 1.392 . S
C1716 C1719 1.511 . S
C1717 C1713 1.376 . S
C1717 C1716 1.392 . S
C1717 H1729 0.929 . S
C1718 C1714 1.531 . S
C1718 H1730 0.960 . S
C1718 H1731 0.962 . S
C1718 H1732 0.960 . S
C1719 C1716 1.511 . S
C1719 H1733 0.961 . S
C1719 H1734 0.961 . S
C1719 H1735 0.961 . S
C1720 C1721 1.370 . S
C1720 C1722 1.363 . S
C1720 H1736 0.931 . S
C1721 C1720 1.370 . S
C1721 C1725 1.408 . S
C1722 C1720 1.363 . S
C1722 C1723 1.370 . S
C1722 C1726 1.524 . S
C1723 C1715 1.503 . S
C1723 C1722 1.370 . S
C1723 C1724 1.403 . S
C1724 C1723 1.403 . S
C1724 C1725 1.404 . S
C1724 C1727 1.539 . S
C1725 C1721 1.408 . S
C1725 C1724 1.404 . S
C1725 H1737 0.930 . S
C1726 C1722 1.524 . S
C1726 H1738 0.956 . S
C1726 H1739 0.961 . S
C1726 H1740 0.961 . S
C1727 C1724 1.539 . S
C1727 H1741 0.958 . S
C1727 H1742 0.961 . S
C1727 H1743 0.960 . S
H1728 C1712 0.931 . S
H1729 C1717 0.929 . S
H1730 C1718 0.960 . S
H1731 C1718 0.962 . S
H1732 C1718 0.960 . S
H1733 C1719 0.961 . S
H1734 C1719 0.961 . S
H1735 C1719 0.961 . S
H1736 C1720 0.931 . S
H1737 C1725 0.930 . S
H1738 C1726 0.956 . S
H1739 C1726 0.961 . S
H1740 C1726 0.961 . S
H1741 C1727 0.958 . S
H1742 C1727 0.961 . S
H1743 C1727 0.960 . S
C1744 C1745 1.391 . S
C1744 C1746 1.394 . S
C1744 H1760 0.931 . S
C1745 C1744 1.391 . S
C1745 C1749 1.376 . S
C1746 C1744 1.394 . S
C1746 C1747 1.369 . S
C1746 C1750 1.531 . S
C1747 C1746 1.369 . S
C1747 C1748 1.410 . S
C1747 C1755 1.503 . S
C1748 C1747 1.410 . S
C1748 C1749 1.392 . S
C1748 C1751 1.511 . S
C1749 C1745 1.376 . S
C1749 C1748 1.392 . S
C1749 H1761 0.929 . S
C1750 C1746 1.531 . S
C1750 H1762 0.960 . S
C1750 H1763 0.962 . S
C1750 H1764 0.960 . S
C1751 C1748 1.511 . S
C1751 H1765 0.961 . S
C1751 H1766 0.961 . S
C1751 H1767 0.961 . S
C1752 C1753 1.370 . S
C1752 C1754 1.363 . S
C1752 H1768 0.931 . S
C1753 C1752 1.370 . S
C1753 C1757 1.408 . S
C1754 C1752 1.363 . S
C1754 C1755 1.370 . S
C1754 C1758 1.524 . S
C1755 C1747 1.503 . S
C1755 C1754 1.370 . S
C1755 C1756 1.403 . S
C1756 C1755 1.403 . S
C1756 C1757 1.404 . S
C1756 C1759 1.539 . S
C1757 C1753 1.408 . S
C1757 C1756 1.404 . S
C1757 H1769 0.930 . S
C1758 C1754 1.524 . S
C1758 H1770 0.956 . S
C1758 H1771 0.961 . S
C1758 H1772 0.961 . S
C1759 C1756 1.539 . S
C1759 H1773 0.958 . S
C1759 H1774 0.961 . S
C1759 H1775 0.960 . S
H1760 C1744 0.931 . S
H1761 C1749 0.929 . S
H1762 C1750 0.960 . S
H1763 C1750 0.962 . S
H1764 C1750 0.960 . S
H1765 C1751 0.961 . S
H1766 C1751 0.961 . S
H1767 C1751 0.961 . S
H1768 C1752 0.931 . S
H1769 C1757 0.930 . S
H1770 C1758 0.956 . S
H1771 C1758 0.961 . S
H1772 C1758 0.961 . S
H1773 C1759 0.958 . S
H1774 C1759 0.961 . S
H1775 C1759 0.960 . S
C1776 C1777 1.391 . S
C1776 C1778 1.394 . S
C1776 H1792 0.931 . S
C1777 C1776 1.391 . S
C1777 C1781 1.376 . S
C1778 C1776 1.394 . S
C1778 C1779 1.369 . S
C1778 C1782 1.531 . S
C1779 C1778 1.369 . S
C1779 C1780 1.410 . S
C1779 C1787 1.503 . S
C1780 C1779 1.410 . S
C1780 C1781 1.392 . S
C1780 C1783 1.511 . S
C1781 C1777 1.376 . S
C1781 C1780 1.392 . S
C1781 H1793 0.929 . S
C1782 C1778 1.531 . S
C1782 H1794 0.960 . S
C1782 H1795 0.962 . S
C1782 H1796 0.960 . S
C1783 C1780 1.511 . S
C1783 H1797 0.961 . S
C1783 H1798 0.961 . S
C1783 H1799 0.961 . S
C1784 C1785 1.370 . S
C1784 C1786 1.363 . S
C1784 H1800 0.931 . S
C1785 C1784 1.370 . S
C1785 C1789 1.408 . S
C1786 C1784 1.363 . S
C1786 C1787 1.370 . S
C1786 C1790 1.524 . S
C1787 C1779 1.503 . S
C1787 C1786 1.370 . S
C1787 C1788 1.403 . S
C1788 C1787 1.403 . S
C1788 C1789 1.404 . S
C1788 C1791 1.539 . S
C1789 C1785 1.408 . S
C1789 C1788 1.404 . S
C1789 H1801 0.930 . S
C1790 C1786 1.524 . S
C1790 H1802 0.956 . S
C1790 H1803 0.961 . S
C1790 H1804 0.961 . S
C1791 C1788 1.539 . S
C1791 H1805 0.958 . S
C1791 H1806 0.961 . S
C1791 H1807 0.960 . S
H1792 C1776 0.931 . S
H1793 C1781 0.929 . S
H1794 C1782 0.960 . S
H1795 C1782 0.962 . S
H1796 C1782 0.960 . S
H1797 C1783 0.961 . S
H1798 C1783 0.961 . S
H1799 C1783 0.961 . S
H1800 C1784 0.931 . S
H1801 C1789 0.930 . S
H1802 C1790 0.956 . S
H1803 C1790 0.961 . S
H1804 C1790 0.961 . S
H1805 C1791 0.958 . S
H1806 C1791 0.961 . S
H1807 C1791 0.960 . S
C529 N14 0.901 . S
C537 C50 0.898 . S
C561 C83 0.865 . S
C569 N47 0.878 . S
C593 C116 0.912 . S
C601 N80 0.895 . S
C625 N113 0.862 . S
C633 C17 0.880 . S
C657 C248 0.884 . S
C665 N146 0.896 . S
C689 C149 0.889 . S
C697 N179 0.880 . S
C721 C182 0.862 . S
C729 N212 0.879 . S
C753 N245 0.891 . S
C761 C215 0.879 . S
C785 N278 0.863 . S
C793 C314 0.881 . S
C817 N311 0.895 . S
C825 C347 0.898 . S
C849 C380 0.912 . S
C857 N344 0.893 . S
C881 C281 0.863 . S
C889 N377 0.890 . S
C913 C512 0.912 . S
C921 N410 0.891 . S
C945 C413 0.861 . S
C953 N443 0.888 . S
C977 N476 0.892 . S
C985 C446 0.878 . S
C1009 N509 0.862 . S
C1017 C479 0.882 . S
C1041 N5 1.893 . S
C1049 N71 1.899 . S
C1073 N38 1.898 . S
C1081 N104 1.895 . S
C1105 N203 1.877 . S
C1113 N137 1.890 . S
C1137 N236 1.878 . S
C1145 N170 1.889 . S
C1169 N335 1.899 . S
C1177 N269 1.899 . S
C1201 N302 1.878 . S
C1209 N368 1.889 . S
C1233 N401 1.897 . S
C1241 N467 1.899 . S
C1265 N434 1.901 . S
C1273 N500 1.900 . S
C1297 C8 1.809 . S
C1305 C272 1.783 . S
C1329 C41 1.804 . S
C1337 C305 1.787 . S
C1361 C74 1.776 . S
C1369 C338 1.796 . S
C1393 C371 1.767 . S
C1401 C107 1.802 . S
C1425 C404 1.766 . S
C1433 C140 1.801 . S
C1457 C173 1.788 . S
C1465 C437 1.794 . S
C1489 C206 1.809 . S
C1497 C470 1.784 . S
C1521 C503 1.768 . S
C1529 C239 1.800 . S
C1553 C193 1.589 . S
C1561 C28 1.589 . S
C1585 C226 1.575 . S
C1593 C61 1.586 . S
C1617 C94 1.575 . S
C1625 C259 1.586 . S
C1649 C160 1.578 . S
C1657 C127 1.588 . S
C1681 C292 1.590 . S
C1689 C457 1.588 . S
C1713 C490 1.573 . S
C1721 C325 1.584 . S
C1745 C523 1.579 . S
C1753 C358 1.587 . S
C1777 C391 1.588 . S
C1785 C424 1.589 . S
