# Generated by pormake.
# Topology acs-i, (5)-cn, num edge types: 1
# Building blocks:
#     Node 0, Type 0, BuildingBlock: BEQFEK_clean_sbu_0, # of connection points: 5
#     Node 1, Type 0, BuildingBlock: BEQFEK_clean_sbu_0, # of connection points: 5
#     Node 2, Type 0, BuildingBlock: BEQFEK_clean_sbu_0, # of connection points: 5
#     Node 3, Type 0, BuildingBlock: BEQFEK_clean_sbu_0, # of connection points: 5
#     Node 4, Type 0, BuildingBlock: BEQFEK_clean_sbu_0, # of connection points: 5
#     Node 5, Type 0, BuildingBlock: BEQFEK_clean_sbu_0, # of connection points: 5
#     Node 6, Type 0, BuildingBlock: BEQFEK_clean_sbu_0, # of connection points: 5
#     Node 7, Type 0, BuildingBlock: BEQFEK_clean_sbu_0, # of connection points: 5
#     Node 8, Type 0, BuildingBlock: BEQFEK_clean_sbu_0, # of connection points: 5
#     Node 9, Type 0, BuildingBlock: BEQFEK_clean_sbu_0, # of connection points: 5
#     Node 10, Type 0, BuildingBlock: BEQFEK_clean_sbu_0, # of connection points: 5
#     Node 11, Type 0, BuildingBlock: BEQFEK_clean_sbu_0, # of connection points: 5
#     Edge 12, Type (0, 0), BuildingBlock: CIFDUS_clean_linker_0, # of connection points: 2
#     Edge 13, Type (0, 0), BuildingBlock: CIFDUS_clean_linker_0, # of connection points: 2
#     Edge 14, Type (0, 0), BuildingBlock: CIFDUS_clean_linker_0, # of connection points: 2
#     Edge 15, Type (0, 0), BuildingBlock: CIFDUS_clean_linker_0, # of connection points: 2
#     Edge 16, Type (0, 0), BuildingBlock: CIFDUS_clean_linker_0, # of connection points: 2
#     Edge 17, Type (0, 0), BuildingBlock: CIFDUS_clean_linker_0, # of connection points: 2
#     Edge 18, Type (0, 0), BuildingBlock: CIFDUS_clean_linker_0, # of connection points: 2
#     Edge 19, Type (0, 0), BuildingBlock: CIFDUS_clean_linker_0, # of connection points: 2
#     Edge 20, Type (0, 0), BuildingBlock: CIFDUS_clean_linker_0, # of connection points: 2
#     Edge 21, Type (0, 0), BuildingBlock: CIFDUS_clean_linker_0, # of connection points: 2
#     Edge 22, Type (0, 0), BuildingBlock: CIFDUS_clean_linker_0, # of connection points: 2
#     Edge 23, Type (0, 0), BuildingBlock: CIFDUS_clean_linker_0, # of connection points: 2
#     Edge 24, Type (0, 0), BuildingBlock: CIFDUS_clean_linker_0, # of connection points: 2
#     Edge 25, Type (0, 0), BuildingBlock: CIFDUS_clean_linker_0, # of connection points: 2
#     Edge 26, Type (0, 0), BuildingBlock: CIFDUS_clean_linker_0, # of connection points: 2
#     Edge 27, Type (0, 0), BuildingBlock: CIFDUS_clean_linker_0, # of connection points: 2
#     Edge 28, Type (0, 0), BuildingBlock: CIFDUS_clean_linker_0, # of connection points: 2
#     Edge 29, Type (0, 0), BuildingBlock: CIFDUS_clean_linker_0, # of connection points: 2
#     Edge 30, Type (0, 0), BuildingBlock: CIFDUS_clean_linker_0, # of connection points: 2
#     Edge 31, Type (0, 0), BuildingBlock: CIFDUS_clean_linker_0, # of connection points: 2
#     Edge 32, Type (0, 0), BuildingBlock: CIFDUS_clean_linker_0, # of connection points: 2
#     Edge 33, Type (0, 0), BuildingBlock: CIFDUS_clean_linker_0, # of connection points: 2
#     Edge 34, Type (0, 0), BuildingBlock: CIFDUS_clean_linker_0, # of connection points: 2
#     Edge 35, Type (0, 0), BuildingBlock: CIFDUS_clean_linker_0, # of connection points: 2
#     Edge 36, Type (0, 0), BuildingBlock: CIFDUS_clean_linker_0, # of connection points: 2
#     Edge 37, Type (0, 0), BuildingBlock: CIFDUS_clean_linker_0, # of connection points: 2
#     Edge 38, Type (0, 0), BuildingBlock: CIFDUS_clean_linker_0, # of connection points: 2
#     Edge 39, Type (0, 0), BuildingBlock: CIFDUS_clean_linker_0, # of connection points: 2
#     Edge 40, Type (0, 0), BuildingBlock: CIFDUS_clean_linker_0, # of connection points: 2
#     Edge 41, Type (0, 0), BuildingBlock: CIFDUS_clean_linker_0, # of connection points: 2
# Relax obj value: 1.303
# Max RMSD: 0.214
# Mean RMSD: 0.202
data_MOF--net-acs-i--node1-BEQFEK_clean_sbu_0--edge1-CIFDUS_clean_linker_0
_symmetry_space_group_name_H-M    P1
_symmetry_Int_Tables_number       1
_symmetry_cell_setting            triclinic
loop_
_symmetry_equiv_pos_as_xyz
'x, y, z'
_cell_length_a     40.063071
_cell_length_b     34.073828
_cell_length_c     28.175131
_cell_angle_alpha  89.926989
_cell_angle_beta   89.794172
_cell_angle_gamma 114.89349
loop_
_atom_site_label
_atom_site_type_symbol
_atom_site_fract_x
_atom_site_fract_y
_atom_site_fract_z
_atom_type_partial_charge
Co0 Co 0.353 0.38242 0.32515 0.0
Co1 Co 0.28221 0.34581 0.26155 0.0
C2 C 0.35545 0.41304 0.22617 0.0
O3 O 0.37129 0.41673 0.26607 0.0
O4 O 0.32186 0.38699 0.22067 0.0
C5 C 0.42596 0.42882 0.36234 0.0
O6 O 0.43614 0.42589 0.31859 0.0
C7 C 0.22929 0.35551 0.19868 0.0
C8 C 0.18059 0.29286 0.20419 0.0
C9 C 0.19358 0.33332 0.18304 0.0
N10 N 0.23753 0.32938 0.22725 0.0
N11 N 0.20851 0.29166 0.22993 0.0
C12 C 0.25333 0.4027 0.19158 0.0
H13 H 0.2741 0.41529 0.22008 0.0
H14 H 0.23658 0.42166 0.19121 0.0
H15 H 0.26742 0.40732 0.15674 0.0
C16 C 0.30548 0.41094 0.38194 0.0
N17 N 0.30955 0.38649 0.34684 0.0
N18 N 0.27983 0.3719 0.32042 0.0
C19 C 0.25584 0.3867 0.33805 0.0
C20 C 0.27165 0.41282 0.37716 0.0
C21 C 0.33486 0.43503 0.41716 0.0
H22 H 0.34484 0.41243 0.43371 0.0
H23 H 0.35838 0.46084 0.39861 0.0
H24 H 0.32451 0.44964 0.44553 0.0
O25 O 0.34638 0.32328 0.30717 0.0
O26 O 0.29383 0.29534 0.26722 0.0
H27 H 0.20686 0.34833 0.29942 0.0
H28 H 0.20188 0.38734 0.33792 0.0
C29 C 0.22106 0.3815 0.31368 0.0
H30 H 0.22777 0.40511 0.28417 0.0
H31 H 0.20731 0.26571 0.25071 0.0
O32 O 0.39213 0.4091 0.37348 0.0
C33 C 0.32282 0.29294 0.28239 0.0
Co34 Co 0.91308 0.37643 0.53932 0.0
Co35 Co 0.86773 0.38834 0.4568 0.0
C36 C 0.87585 0.43672 0.54655 0.0
O37 O 0.89874 0.42296 0.56228 0.0
O38 O 0.85956 0.42318 0.50734 0.0
C39 C 0.95739 0.39284 0.61827 0.0
O40 O 0.96905 0.43233 0.60121 0.0
C41 C 0.79788 0.37689 0.42037 0.0
C42 C 0.80552 0.38919 0.34332 0.0
C43 C 0.77953 0.37798 0.37945 0.0
N44 N 0.83312 0.38658 0.40948 0.0
N45 N 0.83772 0.3941 0.36328 0.0
C46 C 0.78241 0.36859 0.46983 0.0
H47 H 0.78276 0.39902 0.48428 0.0
H48 H 0.79899 0.35761 0.49322 0.0
H49 H 0.75349 0.34399 0.47026 0.0
C50 C 0.85663 0.28752 0.53657 0.0
N51 N 0.87281 0.32778 0.51874 0.0
N52 N 0.85556 0.33078 0.48032 0.0
C53 C 0.82786 0.29153 0.47187 0.0
C54 C 0.82756 0.26295 0.50738 0.0
C55 C 0.86638 0.2749 0.58372 0.0
H56 H 0.87167 0.3013 0.60967 0.0
H57 H 0.84424 0.24482 0.59792 0.0
H58 H 0.89199 0.27011 0.57985 0.0
O59 O 0.9488 0.39632 0.48838 0.0
O60 O 0.92136 0.42536 0.4412 0.0
H61 H 0.81519 0.30217 0.40017 0.0
H62 H 0.79245 0.24667 0.42066 0.0
C63 C 0.80181 0.2811 0.431 0.0
H64 H 0.77717 0.28597 0.44161 0.0
H65 H 0.86264 0.40247 0.34545 0.0
O66 O 0.93602 0.36159 0.59318 0.0
C67 C 0.95075 0.4248 0.45821 0.0
Co68 Co 0.4971 0.76988 0.96094 0.0
Co69 Co 0.50462 0.68168 0.97052 0.0
C70 C 0.4347 0.68693 0.93716 0.0
O71 O 0.44759 0.72769 0.94259 0.0
O72 O 0.45386 0.66614 0.94663 0.0
C73 C 0.46905 0.83458 0.95971 0.0
O74 O 0.43976 0.80305 0.94202 0.0
C75 C 0.47867 0.59866 0.01601 0.0
C76 C 0.52624 0.58203 0.01403 0.0
C77 C 0.49081 0.56841 0.03173 0.0
N78 N 0.50549 0.62858 0.99002 0.0
N79 N 0.53368 0.61807 0.98802 0.0
C80 C 0.44492 0.60347 0.03238 0.0
H81 H 0.44919 0.63775 0.03048 0.0
H82 H 0.4377 0.59189 0.06946 0.0
H83 H 0.4215 0.58383 0.00928 0.0
C84 C 0.51594 0.77527 0.06239 0.0
N85 N 0.5108 0.75532 0.02004 0.0
N86 N 0.51549 0.71954 0.02445 0.0
C87 C 0.52442 0.71605 0.07009 0.0
C88 C 0.52454 0.75102 0.09569 0.0
C89 C 0.51256 0.81686 0.07066 0.0
H90 H 0.53104 0.84186 0.04578 0.0
H91 H 0.48388 0.81201 0.06345 0.0
H92 H 0.52007 0.82882 0.10742 0.0
O93 O 0.5306 0.76925 0.91074 0.0
O94 O 0.53849 0.70828 0.9158 0.0
H95 H 0.54629 0.66863 0.06453 0.0
H96 H 0.54439 0.68592 0.12427 0.0
C97 C 0.52999 0.67841 0.08978 0.0
H98 H 0.50288 0.65095 0.09564 0.0
H99 H 0.55873 0.63688 0.97154 0.0
O100 O 0.49781 0.82847 0.96652 0.0
C101 C 0.54464 0.74427 0.8958 0.0
Co102 Co 0.67462 0.64233 0.79307 0.0
Co103 Co 0.74047 0.6453 0.72764 0.0
C104 C 0.66151 0.58564 0.70928 0.0
O105 O 0.64895 0.59823 0.74463 0.0
O106 O 0.69562 0.60106 0.69989 0.0
C107 C 0.60263 0.61613 0.83316 0.0
O108 O 0.59299 0.61559 0.78855 0.0
C109 C 0.77876 0.60331 0.67427 0.0
C110 C 0.83501 0.65432 0.66478 0.0
C111 C 0.81279 0.61134 0.65496 0.0
N112 N 0.78039 0.63979 0.69457 0.0
N113 N 0.81414 0.67029 0.68865 0.0
C114 C 0.74593 0.56048 0.67624 0.0
H115 H 0.73165 0.55638 0.71091 0.0
H116 H 0.75398 0.53333 0.67113 0.0
H117 H 0.72654 0.5592 0.64763 0.0
C118 C 0.71467 0.61324 0.86164 0.0
N119 N 0.71368 0.63203 0.81991 0.0
N120 N 0.74156 0.6342 0.79348 0.0
C121 C 0.7613 0.61728 0.81801 0.0
C122 C 0.74448 0.60264 0.86171 0.0
C123 C 0.68464 0.59984 0.89805 0.0
H124 H 0.68007 0.62851 0.90874 0.0
H125 H 0.65887 0.57554 0.88239 0.0
H126 H 0.69165 0.58583 0.93003 0.0
O127 O 0.69167 0.69901 0.75993 0.0
O128 O 0.73772 0.70114 0.71364 0.0
H129 H 0.81085 0.63673 0.777 0.0
H130 H 0.80738 0.60026 0.825 0.0
C131 C 0.79169 0.60814 0.79712 0.0
H132 H 0.7799 0.5802 0.77272 0.0
H133 H 0.82304 0.70184 0.70129 0.0
O134 O 0.63673 0.63273 0.84327 0.0
C135 C 0.71599 0.71747 0.72789 0.0
Co136 Co 0.11661 0.57185 0.09144 0.0
Co137 Co 0.14496 0.57439 0.98735 0.0
C138 C 0.14521 0.50968 0.06206 0.0
O139 O 0.13302 0.52554 0.09506 0.0
O140 O 0.15062 0.52546 0.02024 0.0
C141 C 0.07513 0.5491 0.17689 0.0
O142 O 0.06353 0.50953 0.16037 0.0
C143 C 0.20843 0.58901 0.93139 0.0
C144 C 0.19655 0.60714 0.86032 0.0
C145 C 0.22391 0.60309 0.88716 0.0
N146 N 0.17353 0.58438 0.93088 0.0
N147 N 0.16616 0.59441 0.88801 0.0
C148 C 0.22835 0.58725 0.97577 0.0
H149 H 0.23183 0.55664 0.97627 0.0
H150 H 0.21286 0.58867 0.00786 0.0
H151 H 0.25612 0.61453 0.97675 0.0
C152 C 0.17026 0.66197 0.09009 0.0
N153 N 0.15318 0.6234 0.06891 0.0
N154 N 0.16436 0.62607 0.02461 0.0
C155 C 0.18906 0.66716 0.01611 0.0
C156 C 0.19339 0.69107 0.0573 0.0
C157 C 0.16545 0.66996 0.14138 0.0
H158 H 0.16419 0.64217 0.16307 0.0
H159 H 0.18826 0.69996 0.15434 0.0
H160 H 0.13906 0.67286 0.14602 0.0
O161 O 0.07483 0.55304 0.05001 0.0
O162 O 0.09148 0.55518 0.97452 0.0
H163 H 0.18725 0.66895 0.94008 0.0
H164 H 0.21714 0.7197 0.96713 0.0
C165 C 0.20702 0.68399 0.9692 0.0
H166 H 0.23087 0.67586 0.96463 0.0
H167 H 0.14128 0.59514 0.87856 0.0
O168 O 0.0986 0.58043 0.1534 0.0
C169 C 0.06672 0.54738 0.00635 0.0
Co170 Co 0.48934 0.22547 0.45155 0.0
Co171 Co 0.50841 0.32501 0.45222 0.0
C172 C 0.56594 0.29282 0.43182 0.0
O173 O 0.54267 0.25377 0.43772 0.0
O174 O 0.55669 0.32413 0.4364 0.0
C175 C 0.4922 0.14355 0.43918 0.0
O176 O 0.51523 0.16389 0.40474 0.0
C177 C 0.54535 0.415 0.48045 0.0
C178 C 0.49872 0.4323 0.49206 0.0
C179 C 0.53604 0.44631 0.50034 0.0
N180 N 0.51469 0.38288 0.46391 0.0
N181 N 0.48712 0.39421 0.46908 0.0
C182 C 0.58245 0.41421 0.47936 0.0
H183 H 0.58831 0.40673 0.44283 0.0
H184 H 0.58246 0.38834 0.50331 0.0
H185 H 0.60453 0.44583 0.48986 0.0
C186 C 0.46837 0.23121 0.55005 0.0
N187 N 0.47879 0.2489 0.50671 0.0
N188 N 0.48773 0.29068 0.50862 0.0
C189 C 0.48386 0.30094 0.55413 0.0
C190 C 0.47146 0.26356 0.58186 0.0
C191 C 0.45728 0.18435 0.56099 0.0
H192 H 0.43723 0.16417 0.53417 0.0
H193 H 0.48187 0.17726 0.55907 0.0
H194 H 0.44459 0.17557 0.59676 0.0
O195 O 0.46333 0.23366 0.3967 0.0
O196 O 0.47727 0.30419 0.3946 0.0
H197 H 0.47927 0.36101 0.55839 0.0
H198 H 0.49731 0.34771 0.61144 0.0
C199 C 0.49721 0.34624 0.57216 0.0
H200 H 0.52561 0.36519 0.55932 0.0
H201 H 0.45982 0.37424 0.46083 0.0
O202 O 0.47644 0.16325 0.46189 0.0
C203 C 0.4613 0.26634 0.37738 0.0
Co204 Co 0.53983 0.72696 0.51114 0.0
Co205 Co 0.55892 0.82672 0.50535 0.0
C206 C 0.48866 0.76149 0.55077 0.0
O207 O 0.496 0.72937 0.5417 0.0
O208 O 0.51071 0.79974 0.53882 0.0
C209 C 0.50714 0.63418 0.52643 0.0
O210 O 0.49173 0.64309 0.56363 0.0
C211 C 0.53828 0.89247 0.46895 0.0
C212 C 0.58977 0.95228 0.46845 0.0
C213 C 0.55302 0.93559 0.45544 0.0
N214 N 0.56488 0.8839 0.48896 0.0
N215 N 0.59555 0.91996 0.48932 0.0
C216 C 0.50086 0.85841 0.45708 0.0
H217 H 0.50107 0.826 0.45576 0.0
H218 H 0.4914 0.86536 0.4224 0.0
H219 H 0.48102 0.85809 0.4848 0.0
C220 C 0.54857 0.7384 0.40726 0.0
N221 N 0.54905 0.7543 0.45115 0.0
N222 N 0.55822 0.79614 0.44825 0.0
C223 C 0.56415 0.80811 0.40211 0.0
C224 C 0.55811 0.77196 0.3749 0.0
C225 C 0.53812 0.69172 0.3965 0.0
H226 H 0.51083 0.67171 0.41249 0.0
H227 H 0.53708 0.68571 0.35771 0.0
H228 H 0.55855 0.68177 0.41275 0.0
O229 O 0.58322 0.75561 0.55246 0.0
O230 O 0.59787 0.82657 0.54969 0.0
H231 H 0.59676 0.87647 0.40816 0.0
H232 H 0.58849 0.85684 0.34786 0.0
C233 C 0.57623 0.85331 0.38389 0.0
H234 H 0.55209 0.86112 0.38163 0.0
H235 H 0.62076 0.92206 0.50175 0.0
O236 O 0.52965 0.66512 0.50137 0.0
C237 C 0.60348 0.79445 0.56466 0.0
Co238 Co 0.80867 0.32568 0.93649 0.0
Co239 Co 0.78488 0.32086 0.04224 0.0
C240 C 0.78562 0.24412 0.98827 0.0
O241 O 0.79685 0.26595 0.9504 0.0
O242 O 0.77972 0.26091 0.02595 0.0
C243 C 0.85483 0.33414 0.86185 0.0
O244 O 0.86744 0.31517 0.89313 0.0
C245 C 0.72319 0.28973 0.10483 0.0
C246 C 0.74027 0.33484 0.16521 0.0
C247 C 0.70996 0.3012 0.14555 0.0
N248 N 0.75916 0.31526 0.10046 0.0
N249 N 0.7697 0.34126 0.13755 0.0
C250 C 0.70038 0.262 0.06528 0.0
H251 H 0.71757 0.26258 0.03423 0.0
H252 H 0.6795 0.27351 0.05396 0.0
H253 H 0.68553 0.22819 0.07807 0.0
C254 C 0.75582 0.36257 0.92382 0.0
N255 N 0.76994 0.34045 0.95027 0.0
N256 N 0.76231 0.34283 0.99532 0.0
C257 C 0.74398 0.36806 0.99891 0.0
C258 C 0.73887 0.3809 0.95376 0.0
C259 C 0.76512 0.37342 0.87258 0.0
H260 H 0.7938 0.39859 0.86964 0.0
H261 H 0.7633 0.34426 0.85322 0.0
H262 H 0.74638 0.38589 0.85603 0.0
O263 O 0.8506 0.36349 0.9723 0.0
O264 O 0.83712 0.36323 0.04858 0.0
H265 H 0.76036 0.39381 0.06868 0.0
H266 H 0.72999 0.41324 0.03923 0.0
C267 C 0.73643 0.38492 0.04469 0.0
H268 H 0.71233 0.35894 0.06161 0.0
H269 H 0.79603 0.36598 0.14164 0.0
O270 O 0.82603 0.33945 0.87137 0.0
C271 C 0.85981 0.37714 0.01411 0.0
Co272 Co 0.40035 0.01787 0.20712 0.0
Co273 Co 0.34137 -0.00111 0.288 0.0
C274 C 0.41493 0.00291 0.31037 0.0
O275 O 0.42545 0.01221 0.26746 0.0
O276 O 0.38266 0.99667 0.32295 0.0
C277 C 0.42831 0.96895 0.16315 0.0
O278 O 0.41571 0.95064 0.20442 0.0
C279 C 0.29295 0.95464 0.36631 0.0
C280 C 0.2507 0.98027 0.36466 0.0
C281 C 0.261 0.9515 0.38851 0.0
N282 N 0.30142 0.98416 0.33143 0.0
N283 N 0.27641 -5e-05 0.33103 0.0
C284 C 0.31242 0.926 0.37394 0.0
H285 H 0.32953 0.92666 0.34271 0.0
H286 H 0.2923 0.89211 0.38047 0.0
H287 H 0.33027 0.93727 0.4056 0.0
C288 C 0.33522 0.94947 0.16173 0.0
N289 N 0.35164 0.97362 0.19984 0.0
N290 N 0.32844 0.96165 0.23572 0.0
C291 C 0.29724 0.92794 0.22243 0.0
C292 C 0.30066 0.91903 0.17498 0.0
C293 C 0.34931 0.95993 0.11184 0.0
H294 H 0.37019 0.99388 0.10899 0.0
H295 H 0.36157 0.93789 0.10031 0.0
H296 H 0.32625 0.95504 0.08735 0.0
O297 O 0.39722 0.07474 0.20643 0.0
O298 O 0.3547 0.05776 0.26361 0.0
H299 H 0.25049 0.92507 0.26165 0.0
H300 H 0.24597 0.87306 0.2402 0.0
C301 C 0.26533 0.90451 0.25494 0.0
H302 H 0.27545 0.89821 0.28924 0.0
H303 H 0.27624 0.02308 0.30682 0.0
O304 O 0.42853 0.00582 0.15465 0.0
C305 C 0.37548 0.08419 0.23258 0.0
Co306 Co 0.48041 0.32741 0.99536 0.0
Co307 Co 0.46099 0.22722 0.99645 0.0
C308 C 0.53333 0.29693 0.03242 0.0
O309 O 0.52681 0.32847 0.01847 0.0
O310 O 0.51028 0.25793 0.02593 0.0
C311 C 0.51193 0.41952 0.00788 0.0
O312 O 0.52688 0.41034 0.04525 0.0
C313 C 0.48319 0.16158 0.96299 0.0
C314 C 0.43301 0.10052 0.96823 0.0
C315 C 0.46939 0.11775 0.9531 0.0
N316 N 0.45643 0.16998 0.98309 0.0
N317 N 0.42656 0.13324 0.98676 0.0
C318 C 0.51982 0.19597 0.94837 0.0
H319 H 0.5399 0.20064 0.97725 0.0
H320 H 0.51785 0.22709 0.94224 0.0
H321 H 0.53009 0.18657 0.91564 0.0
C322 C 0.46462 0.30928 0.89363 0.0
N323 N 0.46597 0.29597 0.93835 0.0
N324 N 0.45673 0.25409 0.93849 0.0
C325 C 0.44856 0.23928 0.89362 0.0
C326 C 0.45348 0.27376 0.86366 0.0
C327 C 0.47729 0.35579 0.87971 0.0
H328 H 0.45704 0.36769 0.89269 0.0
H329 H 0.50408 0.37539 0.89679 0.0
H330 H 0.48047 0.36044 0.84073 0.0
O331 O 0.44521 0.3004 0.04808 0.0
O332 O 0.42642 0.22865 0.04688 0.0
H333 H 0.41666 0.17166 0.90685 0.0
H334 H 0.42118 0.18662 0.84488 0.0
C335 C 0.43562 0.1929 0.87949 0.0
H336 H 0.45965 0.18492 0.87615 0.0
H337 H 0.4014 0.13075 0.00012 0.0
O338 O 0.48888 0.38862 0.98358 0.0
C339 C 0.42626 0.26278 0.06536 0.0
Co340 Co 0.13403 0.64738 0.49848 0.0
Co341 Co 0.18496 0.65515 0.58324 0.0
C342 C 0.18494 0.73102 0.52163 0.0
O343 O 0.16555 0.70688 0.48857 0.0
O344 O 0.19147 0.71532 0.56009 0.0
C345 C 0.085 0.64969 0.42574 0.0
O346 O 0.09638 0.69064 0.43723 0.0
C347 C 0.2607 0.68618 0.61117 0.0
C348 C 0.25903 0.65039 0.67713 0.0
C349 C 0.28296 0.67864 0.6441 0.0
N350 N 0.22539 0.66351 0.62394 0.0
N351 N 0.22449 0.64286 0.66401 0.0
C352 C 0.27238 0.70878 0.56429 0.0
H353 H 0.28403 0.74425 0.56998 0.0
H354 H 0.24871 0.69946 0.53981 0.0
H355 H 0.29403 0.70098 0.54775 0.0
C356 C 0.1634 0.58499 0.46649 0.0
N357 N 0.1631 0.61564 0.4964 0.0
N358 N 0.18706 0.6214 0.53052 0.0
C359 C 0.20328 0.59428 0.52346 0.0
C360 C 0.18902 0.57065 0.48254 0.0
C361 C 0.13857 0.56879 0.42457 0.0
H362 H 0.10981 0.55094 0.43726 0.0
H363 H 0.13979 0.59662 0.40297 0.0
H364 H 0.14624 0.54703 0.40224 0.0
O365 O 0.11642 0.64961 0.56254 0.0
O366 O 0.13577 0.61595 0.61172 0.0
H367 H 0.21677 0.58419 0.59459 0.0
H368 H 0.23145 0.55669 0.55015 0.0
C369 C 0.22814 0.58672 0.55824 0.0
H370 H 0.25563 0.61437 0.55695 0.0
H371 H 0.20034 0.62148 0.68068 0.0
O372 O 0.09591 0.62588 0.44977 0.0
C373 C 0.10941 0.61605 0.58685 0.0
Co374 Co 0.56127 0.97335 0.66943 0.0
Co375 Co 0.62305 -0.00192 0.74661 0.0
C376 C 0.55374 0.00729 0.76692 0.0
O377 O 0.54129 0.99262 0.72592 0.0
O378 O 0.5855 0.01154 0.77984 0.0
C379 C 0.49787 0.97065 0.61819 0.0
O380 O 0.48118 0.96129 0.65963 0.0
C381 C 0.67636 0.04027 0.82171 0.0
C382 C 0.7145 0.00888 0.81505 0.0
C383 C 0.70747 0.03881 0.84147 0.0
N384 N 0.66502 0.01186 0.78588 0.0
N385 N 0.68771 0.99289 0.78229 0.0
C386 C 0.65965 0.07093 0.83369 0.0
H387 H 0.63954 0.057 0.86305 0.0
H388 H 0.64516 0.07614 0.80253 0.0
H389 H 0.68104 0.10256 0.84549 0.0
C390 C 0.62417 0.0395 0.61578 0.0
N391 N 0.60997 0.01529 0.65493 0.0
N392 N 0.63555 0.02659 0.68777 0.0
C393 C 0.66671 0.05828 0.67077 0.0
C394 C 0.66051 0.06752 0.62449 0.0
C395 C 0.6034 0.03578 0.57079 0.0
H396 H 0.5881 0.00117 0.5614 0.0
H397 H 0.58333 0.04995 0.57637 0.0
H398 H 0.62205 0.05296 0.541 0.0
O399 O 0.56031 0.91492 0.68159 0.0
O400 O 0.60416 0.93616 0.73605 0.0
H401 H 0.71385 0.05897 0.70656 0.0
H402 H 0.72065 0.11076 0.68168 0.0
C403 C 0.70065 0.08125 0.69973 0.0
H404 H 0.69303 0.09044 0.73445 0.0
H405 H 0.68515 0.96939 0.7571 0.0
O406 O 0.53022 0.97277 0.61453 0.0
C407 C 0.58082 0.90663 0.71069 0.0
H408 H 0.35665 0.21407 0.10125 0.0
H409 H 0.46536 0.30776 0.13865 0.0
H410 H 0.44386 0.3155 0.21732 0.0
H411 H 0.39328 0.30575 0.26941 0.0
H412 H 0.28243 0.21946 0.23076 0.0
H413 H 0.30577 0.19661 0.16052 0.0
C414 C 0.37552 0.2355 0.12709 0.0
C415 C 0.41223 0.26119 0.11403 0.0
C416 C 0.36266 0.24086 0.17228 0.0
C417 C 0.43671 0.28858 0.14771 0.0
C418 C 0.42452 0.29291 0.19275 0.0
C419 C 0.37408 0.28088 0.24664 0.0
C420 C 0.33605 0.26506 0.25502 0.0
C421 C 0.38733 0.2706 0.20467 0.0
C422 C 0.3119 0.23243 0.22511 0.0
C423 C 0.3252 0.2199 0.18442 0.0
H424 H 0.01751 0.43519 0.4915 0.0
H425 H 0.95972 0.50683 0.43465 0.0
H426 H 0.00341 0.5723 0.47307 0.0
H427 H 0.05156 0.60602 0.53229 0.0
H428 H 0.10961 0.53505 0.58983 0.0
H429 H 0.07032 0.47133 0.5441 0.0
C430 C 0.01504 0.46541 0.48629 0.0
C431 C 0.98468 0.46567 0.46111 0.0
C432 C 0.03894 0.50232 0.51076 0.0
C433 C 0.98248 0.50535 0.45399 0.0
C434 C 0.00696 0.54264 0.47695 0.0
C435 C 0.05564 0.57656 0.53495 0.0
C436 C 0.08324 0.57522 0.56489 0.0
C437 C 0.03398 0.5408 0.50732 0.0
C438 C 0.08818 0.53683 0.56782 0.0
C439 C 0.06615 0.50065 0.54102 0.0
H440 H 0.62816 0.88127 0.75439 0.0
H441 H 0.51956 0.83119 0.6932 0.0
H442 H 0.50243 0.76391 0.73808 0.0
H443 H 0.51271 0.73116 0.81125 0.0
H444 H 0.618 0.78792 0.8803 0.0
H445 H 0.64257 0.84031 0.81559 0.0
C446 C 0.60096 0.85522 0.74996 0.0
C447 C 0.57464 0.86175 0.72203 0.0
C448 C 0.59065 0.81817 0.77819 0.0
C449 C 0.54008 0.82723 0.71515 0.0
C450 C 0.5302 0.78893 0.74119 0.0
C451 C 0.54162 0.75349 0.81049 0.0
C452 C 0.56366 0.75613 0.85014 0.0
C453 C 0.55442 0.78552 0.77524 0.0
C454 C 0.60083 0.78529 0.84976 0.0
C455 C 0.61453 0.81578 0.81332 0.0
H456 H 0.67317 0.76019 0.7456 0.0
H457 H 0.74849 0.74954 0.6419 0.0
H458 H 0.72382 0.78122 0.58156 0.0
H459 H 0.67107 0.79537 0.5546 0.0
H460 H 0.5944 0.80245 0.65786 0.0
H461 H 0.62889 0.78766 0.72157 0.0
C462 C 0.68509 0.76606 0.71022 0.0
C463 C 0.71189 0.75121 0.69815 0.0
C464 C 0.66988 0.78285 0.67516 0.0
C465 C 0.72747 0.76 0.65228 0.0
C466 C 0.71308 0.77775 0.61744 0.0
C467 C 0.66308 0.79574 0.59136 0.0
C468 C 0.63067 0.80045 0.60193 0.0
C469 C 0.6828 0.78683 0.62785 0.0
C470 C 0.6198 0.79989 0.64933 0.0
C471 C 0.63933 0.79126 0.68569 0.0
H472 H 0.01 0.53039 0.06681 0.0
H473 H 0.03493 0.5106 0.92178 0.0
H474 H 0.97164 0.45634 0.9117 0.0
H475 H 0.91277 0.40918 0.94702 0.0
H476 H 0.88945 0.42513 0.09393 0.0
H477 H 0.95012 0.48575 0.10097 0.0
C478 C 0.00163 0.51468 0.03265 0.0
C479 C 0.02734 0.52396 0.99524 0.0
C480 C 0.96617 0.48207 0.02807 0.0
C481 C 0.01574 0.50395 0.9511 0.0
C482 C 0.97976 0.47256 0.94559 0.0
C483 C 0.92077 0.42579 0.98076 0.0
C484 C 0.89677 0.41233 0.02021 0.0
C485 C 0.95536 0.4603 0.98442 0.0
C486 C 0.90762 0.43447 0.06335 0.0
C487 C 0.94208 0.46929 0.06719 0.0
H488 H 0.43402 0.15891 0.20719 0.0
H489 H 0.32376 0.11019 0.26396 0.0
H490 H 0.33943 0.17662 0.30852 0.0
H491 H 0.38994 0.23304 0.35227 0.0
H492 H 0.50011 0.2819 0.29632 0.0
H493 H 0.479 0.23189 0.22966 0.0
C494 C 0.41292 0.16374 0.22731 0.0
C495 C 0.37862 0.12886 0.23498 0.0
C496 C 0.42247 0.20157 0.25416 0.0
C497 C 0.35103 0.13607 0.25948 0.0
C498 C 0.36002 0.17387 0.2854 0.0
C499 C 0.40876 0.23453 0.3238 0.0
C500 C 0.44644 0.25994 0.32936 0.0
C501 C 0.39658 0.20469 0.28656 0.0
C502 C 0.47085 0.26219 0.29248 0.0
C503 C 0.45891 0.233 0.25486 0.0
H504 H 0.21043 0.37417 0.09873 0.0
H505 H 0.13069 0.33767 0.21223 0.0
H506 H 0.10626 0.38776 0.18206 0.0
H507 H 0.11404 0.44921 0.13039 0.0
H508 H 0.1942 0.486 0.01699 0.0
H509 H 0.2123 0.42859 0.04014 0.0
C510 C 0.18703 0.37646 0.11591 0.0
C511 C 0.17239 0.35285 0.15762 0.0
C512 C 0.17393 0.40602 0.09908 0.0
C513 C 0.14207 0.35553 0.17983 0.0
C514 C 0.12851 0.38454 0.16297 0.0
C515 C 0.13528 0.44441 0.11056 0.0
C516 C 0.15342 0.47235 0.0728 0.0
C517 C 0.1453 0.41121 0.12384 0.0
C518 C 0.1802 0.46519 0.04657 0.0
C519 C 0.19052 0.43238 0.05975 0.0
H520 H 0.62008 0.36802 0.39783 0.0
H521 H 0.59795 0.2365 0.43609 0.0
H522 H 0.66119 0.25008 0.41704 0.0
H523 H 0.72391 0.30043 0.39497 0.0
H524 H 0.74743 0.43221 0.35858 0.0
H525 H 0.68235 0.41727 0.37014 0.0
C526 C 0.6291 0.34236 0.40202 0.0
C527 C 0.60433 0.30148 0.41901 0.0
C528 C 0.66564 0.35031 0.39082 0.0
C529 C 0.61637 0.26836 0.4234 0.0
C530 C 0.65256 0.27602 0.41241 0.0
C531 C 0.71446 0.32552 0.38868 0.0
C532 C 0.73999 0.36724 0.37605 0.0
C533 C 0.67749 0.31694 0.39669 0.0
C534 C 0.72792 0.39976 0.36798 0.0
C535 C 0.6909 0.39132 0.37513 0.0
H536 H 0.41997 0.51012 0.03356 0.0
H537 H 0.52141 0.5523 0.11143 0.0
H538 H 0.48855 0.507 0.1791 0.0
H539 H 0.42983 0.46071 0.21842 0.0
H540 H 0.32867 0.41957 0.13926 0.0
H541 H 0.36238 0.46001 0.07034 0.0
C542 C 0.43484 0.50902 0.06527 0.0
C543 C 0.47276 0.53488 0.06809 0.0
C544 C 0.41569 0.48392 0.10417 0.0
C545 C 0.49209 0.53258 0.10867 0.0
C546 C 0.47326 0.50711 0.14749 0.0
C547 C 0.41515 0.46069 0.18615 0.0
C548 C 0.37657 0.43786 0.18454 0.0
C549 C 0.43485 0.48365 0.14613 0.0
C550 C 0.35817 0.43747 0.142 0.0
C551 C 0.37747 0.46036 0.10232 0.0
H552 H 0.86731 0.58585 0.67373 0.0
H553 H 0.77921 0.56742 0.57648 0.0
H554 H 0.79093 0.51175 0.53444 0.0
H555 H 0.82491 0.46724 0.52659 0.0
H556 H 0.91192 0.4828 0.62496 0.0
H557 H 0.90177 0.5403 0.66564 0.0
C558 C 0.85109 0.56986 0.64299 0.0
C559 C 0.82256 0.58059 0.62792 0.0
C560 C 0.85747 0.53709 0.61966 0.0
C561 C 0.80129 0.55948 0.58853 0.0
C562 C 0.80791 0.52764 0.56464 0.0
C563 C 0.84167 0.48302 0.557 0.0
C564 C 0.86904 0.47045 0.57274 0.0
C565 C 0.83565 0.51588 0.58018 0.0
C566 C 0.89045 0.4915 0.61224 0.0
C567 C 0.88479 0.52457 0.6354 0.0
H568 H 0.39141 0.72048 0.89508 0.0
H569 H 0.39249 0.59977 0.93984 0.0
H570 H 0.32767 0.56132 0.91926 0.0
H571 H 0.26908 0.56358 0.89836 0.0
H572 H 0.26736 0.68415 0.85578 0.0
H573 H 0.33435 0.7209 0.86376 0.0
C574 C 0.37754 0.68572 0.90004 0.0
C575 C 0.39652 0.66321 0.9202 0.0
C576 C 0.34027 0.66376 0.88799 0.0
C577 C 0.3784 0.61802 0.92523 0.0
C578 C 0.34134 0.59595 0.91331 0.0
C579 C 0.28365 0.59765 0.88956 0.0
C580 C 0.26364 0.62137 0.87696 0.0
C581 C 0.3218 0.61868 0.89595 0.0
C582 C 0.28243 0.66533 0.86527 0.0
C583 C 0.3206 0.68642 0.87055 0.0
H584 H 0.61336 0.59553 0.64932 0.0
H585 H 0.65544 0.5048 0.69666 0.0
H586 H 0.61879 0.45273 0.63672 0.0
H587 H 0.57694 0.43455 0.57022 0.0
H588 H 0.53808 0.52625 0.51677 0.0
H589 H 0.57077 0.57671 0.5806 0.0
C590 C 0.61386 0.56402 0.64667 0.0
C591 C 0.63632 0.55324 0.67725 0.0
C592 C 0.59381 0.53506 0.61101 0.0
C593 C 0.63781 0.51307 0.67348 0.0
C594 C 0.61711 0.4836 0.63921 0.0
C595 C 0.57644 0.46603 0.57138 0.0
C596 C 0.55653 0.4776 0.53748 0.0
C597 C 0.59561 0.49462 0.60736 0.0
C598 C 0.55412 0.51733 0.54178 0.0
C599 C 0.57267 0.54597 0.57829 0.0
H600 H 0.48767 0.01789 0.30125 0.0
H601 H 0.39614 0.96982 0.39951 0.0
H602 H 0.43113 0.9462 0.4535 0.0
H603 H 0.48575 0.93374 0.47035 0.0
H604 H 0.57947 0.98583 0.37653 0.0
H605 H 0.54589 0.01373 0.32364 0.0
C606 C 0.47551 0.00261 0.33464 0.0
C607 C 0.43887 0.99472 0.34553 0.0
C608 C 0.49608 0.98946 0.36622 0.0
C609 C 0.42392 0.97566 0.38954 0.0
C610 C 0.4439 0.96195 0.42056 0.0
C611 C 0.49882 0.95134 0.43837 0.0
C612 C 0.5347 0.95718 0.42684 0.0
C613 C 0.47958 0.96764 0.40869 0.0
C614 C 0.55178 0.98098 0.38604 0.0
C615 C 0.53252 0.99669 0.35572 0.0
H616 H 0.68536 0.36282 0.1374 0.0
H617 H 0.6491 0.22587 0.15897 0.0
H618 H 0.58838 0.21245 0.12752 0.0
H619 H 0.5508 0.2386 0.07972 0.0
H620 H 0.59041 0.37529 0.04993 0.0
H621 H 0.6454 0.3898 0.09676 0.0
C622 C 0.66364 0.33023 0.13683 0.0
C623 C 0.67154 0.29527 0.14975 0.0
C624 C 0.63018 0.32262 0.11489 0.0
C625 C 0.64336 0.25319 0.14923 0.0
C626 C 0.60903 0.2455 0.13023 0.0
C627 C 0.5714 0.2716 0.08349 0.0
C628 C 0.56681 0.30568 0.06049 0.0
C629 C 0.60303 0.27974 0.11029 0.0
C630 C 0.59349 0.34833 0.06656 0.0
C631 C 0.62481 0.35674 0.09372 0.0
H632 H 0.1542 0.77429 0.47176 0.0
H633 H 0.25043 0.79295 0.55362 0.0
H634 H 0.28087 0.86803 0.5256 0.0
H635 H 0.28315 0.9236 0.46774 0.0
H636 H 0.18761 0.90219 0.38305 0.0
H637 H 0.15315 0.83343 0.42364 0.0
C638 C 0.18164 0.79505 0.48407 0.0
C639 C 0.20051 0.77808 0.5137 0.0
C640 C 0.19895 0.83756 0.46727 0.0
C641 C 0.23559 0.80537 0.53044 0.0
C642 C 0.25299 0.84814 0.51425 0.0
C643 C 0.25461 0.90405 0.45878 0.0
C644 C 0.23815 0.91704 0.42162 0.0
C645 C 0.23546 0.8639 0.4811 0.0
C646 C 0.20087 0.89252 0.4113 0.0
C647 C 0.1813 0.85305 0.43414 0.0
H648 H 0.57523 0.05057 0.85057 0.0
H649 H 0.48207 0.99546 0.75669 0.0
H650 H 0.44669 0.02165 0.80823 0.0
H651 H 0.44334 0.06395 0.87782 0.0
H652 H 0.53752 0.12153 0.96922 0.0
H653 H 0.57125 0.09035 0.92115 0.0
C654 C 0.54711 0.04395 0.84145 0.0
C655 C 0.5315 0.02115 0.79957 0.0
C656 C 0.52709 0.05967 0.87086 0.0
C657 C 0.49496 0.01307 0.78848 0.0
C658 C 0.47464 0.02802 0.818 0.0
C659 C 0.47107 0.0691 0.88743 0.0
C660 C 0.4881 0.09517 0.9267 0.0
C661 C 0.49056 0.05183 0.85897 0.0
C662 C 0.52409 0.10194 0.93877 0.0
C663 C 0.54334 0.08413 0.91132 0.0
H664 H 0.43833 0.68714 0.59136 0.0
H665 H 0.45924 0.82003 0.5625 0.0
H666 H 0.39863 0.80715 0.59331 0.0
H667 H 0.33772 0.75677 0.62254 0.0
H668 H 0.31647 0.6242 0.65187 0.0
H669 H 0.37943 0.63857 0.6281 0.0
C670 C 0.42975 0.71338 0.59208 0.0
C671 C 0.45314 0.75428 0.57371 0.0
C672 C 0.3948 0.70585 0.61015 0.0
C673 C 0.44173 0.78806 0.57576 0.0
C674 C 0.40702 0.78078 0.59346 0.0
C675 C 0.34708 0.73121 0.6241 0.0
C676 C 0.32253 0.68941 0.63821 0.0
C677 C 0.38306 0.7396 0.60981 0.0
C678 C 0.33502 0.65668 0.64115 0.0
C679 C 0.37087 0.66479 0.62715 0.0
H680 H 0.68746 0.05893 0.92674 0.0
H681 H 0.78138 0.08454 0.83629 0.0
H682 H 0.81853 0.14737 0.88437 0.0
H683 H 0.81919 0.20335 0.93928 0.0
H684 H 0.72427 0.18039 0.02678 0.0
H685 H 0.6928 0.10755 0.99391 0.0
C686 C 0.71631 0.07782 0.91842 0.0
C687 C 0.73156 0.06833 0.87745 0.0
C688 C 0.73712 0.11442 0.9455 0.0
C689 C 0.76911 0.09184 0.86744 0.0
C690 C 0.79024 0.12785 0.89472 0.0
C691 C 0.79218 0.18166 0.95245 0.0
C692 C 0.77367 0.19716 0.98452 0.0
C693 C 0.77387 0.14074 0.93204 0.0
C694 C 0.73894 0.16898 0.00199 0.0
C695 C 0.72077 0.12761 0.98267 0.0
H696 H 0.25362 0.5793 0.44571 0.0
H697 H 0.1439 0.48475 0.47703 0.0
H698 H 0.16015 0.4265 0.44974 0.0
H699 H 0.20652 0.40282 0.4183 0.0
H700 H 0.31408 0.49919 0.37933 0.0
H701 H 0.29834 0.55629 0.40954 0.0
C702 C 0.23332 0.54589 0.44612 0.0
C703 C 0.19774 0.53594 0.46303 0.0
C704 C 0.24272 0.51298 0.42972 0.0
C705 C 0.17142 0.49281 0.46368 0.0
C706 C 0.18077 0.45965 0.44836 0.0
C707 C 0.22626 0.43638 0.41589 0.0
C708 C 0.26149 0.44671 0.39694 0.0
C709 C 0.21643 0.46935 0.43143 0.0
C710 C 0.28704 0.49028 0.39472 0.0
C711 C 0.27795 0.52303 0.41152 0.0
H712 H 0.72903 0.08154 0.59554 0.0
H713 H 0.64755 0.13261 0.58562 0.0
H714 H 0.69108 0.19587 0.5422 0.0
H715 H 0.75448 0.24022 0.51545 0.0
H716 H 0.83629 0.18968 0.52615 0.0
H717 H 0.79058 0.12237 0.56056 0.0
C718 C 0.72087 0.10641 0.58329 0.0
C719 C 0.68551 0.10295 0.59389 0.0
C720 C 0.74611 0.14269 0.55874 0.0
C721 C 0.67478 0.13486 0.57769 0.0
C722 C 0.69966 0.17101 0.55308 0.0
C723 C 0.76192 0.2139 0.52397 0.0
C724 C 0.79853 0.21963 0.51851 0.0
C725 C 0.73566 0.17574 0.5444 0.0
C726 C 0.80815 0.18572 0.53031 0.0
C727 C 0.78213 0.14746 0.55017 0.0
H728 H 0.57961 0.75567 0.15504 0.0
H729 H 0.47359 0.75982 0.15275 0.0
H730 H 0.47541 0.76893 0.23892 0.0
H731 H 0.50647 0.77365 0.3154 0.0
H732 H 0.60991 0.76346 0.31894 0.0
H733 H 0.60978 0.75797 0.23199 0.0
C734 C 0.55678 0.75805 0.17362 0.0
C735 C 0.52645 0.75694 0.14783 0.0
C736 C 0.55758 0.76203 0.22331 0.0
C737 C 0.49733 0.76093 0.172 0.0
C738 C 0.49828 0.76591 0.2212 0.0
C739 C 0.52891 0.77031 0.29683 0.0
C740 C 0.55823 0.76911 0.32279 0.0
C741 C 0.52815 0.76628 0.24724 0.0
C742 C 0.58718 0.7645 0.2991 0.0
C743 C 0.58706 0.76137 0.24961 0.0
H744 H 0.69408 0.52022 0.86428 0.0
H745 H 0.80045 0.60536 0.91835 0.0
H746 H 0.80658 0.5437 0.9561 0.0
H747 H 0.7834 0.46477 0.96782 0.0
H748 H 0.67826 0.37977 0.91043 0.0
H749 H 0.66926 0.44219 0.88021 0.0
C750 C 0.71822 0.52522 0.88519 0.0
C751 C 0.74674 0.56693 0.88905 0.0
C752 C 0.72163 0.48972 0.90589 0.0
C753 C 0.77823 0.57333 0.91532 0.0
C754 C 0.7817 0.53818 0.93668 0.0
C755 C 0.75828 0.46028 0.94949 0.0
C756 C 0.73125 0.41826 0.94151 0.0
C757 C 0.75385 0.49616 0.93144 0.0
C758 C 0.69906 0.41212 0.91712 0.0
C759 C 0.69409 0.44768 0.89975 0.0
H760 H 0.31924 0.86531 0.12239 0.0
H761 H 0.22635 0.89043 0.16352 0.0
H762 H 0.18447 0.82297 0.12578 0.0
H763 H 0.17446 0.75348 0.08868 0.0
H764 H 0.26755 0.72938 0.0464 0.0
H765 H 0.3097 0.80091 0.07546 0.0
C766 C 0.28993 0.85661 0.12197 0.0
C767 C 0.27569 0.88213 0.14642 0.0
C768 C 0.26627 0.81813 0.10003 0.0
C769 C 0.23769 0.87049 0.14592 0.0
C770 C 0.21385 0.83215 0.1242 0.0
C771 C 0.204 0.76446 0.08513 0.0
C772 C 0.2182 0.73659 0.06608 0.0
C773 C 0.22781 0.80515 0.1024 0.0
C774 C 0.25631 0.75069 0.06103 0.0
C775 C 0.28028 0.79129 0.07792 0.0
H776 H 0.43402 0.29234 0.64311 0.0
H777 H 0.50686 0.22866 0.63813 0.0
H778 H 0.50642 0.22443 0.7247 0.0
H779 H 0.48704 0.24105 0.80208 0.0
H780 H 0.41571 0.30656 0.80808 0.0
H781 H 0.41412 0.30854 0.72111 0.0
C782 C 0.44972 0.27756 0.66118 0.0
C783 C 0.47018 0.26051 0.63443 0.0
C784 C 0.44977 0.27586 0.7111 0.0
C785 C 0.49044 0.24139 0.65802 0.0
C786 C 0.49039 0.23921 0.7075 0.0
C787 C 0.47085 0.2553 0.78423 0.0
C788 C 0.45144 0.27354 0.81116 0.0
C789 C 0.4703 0.25649 0.73441 0.0
C790 C 0.43097 0.29251 0.78784 0.0
C791 C 0.43004 0.29357 0.73822 0.0
H792 H 0.53317 0.60482 0.45139 0.0
H793 H 0.45012 0.56209 0.56142 0.0
H794 H 0.42038 0.49144 0.52355 0.0
H795 H 0.41311 0.44582 0.45349 0.0
H796 H 0.49564 0.4891 0.34284 0.0
H797 H 0.53078 0.55495 0.38731 0.0
C798 C 0.50885 0.57991 0.46749 0.0
C799 C 0.49348 0.58916 0.50865 0.0
C800 C 0.49158 0.53946 0.44523 0.0
C801 C 0.46238 0.55611 0.5295 0.0
C802 C 0.44523 0.51567 0.50777 0.0
C803 C 0.43905 0.46931 0.43937 0.0
C804 C 0.45116 0.46295 0.39426 0.0
C805 C 0.45882 0.50758 0.4647 0.0
C806 C 0.48534 0.4933 0.37715 0.0
C807 C 0.50539 0.53118 0.40244 0.0
H808 H 0.90248 0.3097 0.81605 0.0
H809 H 0.8555 0.40275 0.81239 0.0
H810 H 0.89117 0.43585 0.74125 0.0
H811 H 0.9304 0.43364 0.67623 0.0
H812 H 0.97003 0.33419 0.67228 0.0
H813 H 0.94387 0.30911 0.75142 0.0
C814 C 0.90031 0.33736 0.79971 0.0
C815 C 0.87624 0.35356 0.81888 0.0
C816 C 0.92007 0.35542 0.75807 0.0
C817 C 0.87345 0.38934 0.79762 0.0
C818 C 0.89404 0.4085 0.75728 0.0
C819 C 0.93446 0.40753 0.69358 0.0
C820 C 0.9527 0.38628 0.66949 0.0
C821 C 0.91691 0.39135 0.73683 0.0
C822 C 0.9567 0.35143 0.69109 0.0
C823 C 0.94128 0.33677 0.7358 0.0
H824 H 0.41515 0.82189 0.0211 0.0
H825 H 0.51414 0.92161 0.96324 0.0
H826 H 0.50897 0.97447 0.01897 0.0
H827 H 0.4777 0.9903 0.08861 0.0
H828 H 0.38463 0.88494 0.15193 0.0
H829 H 0.38592 0.83633 0.08995 0.0
C830 C 0.43515 0.85545 0.02003 0.0
C831 C 0.46442 0.86833 0.98768 0.0
C832 C 0.43326 0.88443 0.05379 0.0
C833 C 0.49102 0.91139 0.98761 0.0
C834 C 0.48818 0.94138 0.01962 0.0
C835 C 0.45781 0.95675 0.08848 0.0
C836 C 0.43107 0.94124 0.12462 0.0
C837 C 0.45972 0.92805 0.05361 0.0
C838 C 0.40567 0.89755 0.12468 0.0
C839 C 0.4062 0.86971 0.0891 0.0
H840 H 0.48708 0.45037 0.93291 0.0
H841 H 0.57266 0.48912 0.03861 0.0
H842 H 0.60595 0.55748 0.99704 0.0
H843 H 0.61446 0.60204 0.92576 0.0
H844 H 0.53027 0.56195 0.81827 0.0
H845 H 0.49202 0.49967 0.86666 0.0
C846 C 0.51266 0.4741 0.94737 0.0
C847 C 0.52764 0.46417 0.98835 0.0
C848 C 0.53197 0.51327 0.92296 0.0
C849 C 0.56059 0.4956 0.00691 0.0
C850 C 0.57981 0.5347 0.983 0.0
C851 C 0.58766 0.57993 0.91298 0.0
C852 C 0.5759 0.58605 0.86767 0.0
C853 C 0.56638 0.5432 0.94015 0.0
C854 C 0.54039 0.55786 0.85267 0.0
C855 C 0.51855 0.52193 0.88018 0.0
H856 H 0.07444 0.62349 0.20821 0.0
H857 H 0.05084 0.49292 0.25155 0.0
H858 H 0.04398 0.51105 0.33392 0.0
H859 H 0.05571 0.56712 0.39394 0.0
H860 H 0.08101 0.69823 0.35055 0.0
H861 H 0.07491 0.67636 0.26747 0.0
C862 C 0.06716 0.59884 0.23563 0.0
C863 C 0.06403 0.5573 0.22431 0.0
C864 C 0.0636 0.60959 0.28271 0.0
C865 C 0.05376 0.52527 0.25969 0.0
C866 C 0.04995 0.53565 0.30672 0.0
C867 C 0.05881 0.59068 0.36639 0.0
C868 C 0.0697 0.63443 0.37829 0.0
C869 C 0.05636 0.57817 0.31878 0.0
C870 C 0.07303 0.66444 0.34231 0.0
C871 C 0.06991 0.65205 0.29475 0.0
H872 H 0.52863 -0.00057 0.53154 0.0
H873 H 0.43615 0.98629 0.61962 0.0
H874 H 0.42271 0.03452 0.56667 0.0
H875 H 0.44366 0.08973 0.50362 0.0
H876 H 0.5383 0.1055 0.41842 0.0
H877 H 0.54508 0.04796 0.46289 0.0
C878 C 0.50534 0.00678 0.53905 0.0
C879 C 0.48414 0.99023 0.58031 0.0
C880 C 0.49865 0.03582 0.50953 0.0
C881 C 0.45326 -0.00107 0.58845 0.0
C882 C 0.44569 0.02679 0.55834 0.0
C883 C 0.46524 0.07987 0.49405 0.0
C884 C 0.49084 0.10246 0.45836 0.0
C885 C 0.46917 0.04687 0.52 0.0
C886 C 0.51837 0.08895 0.44597 0.0
C887 C 0.52239 0.05612 0.47154 0.0
loop_
_geom_bond_atom_site_label_1
_geom_bond_atom_site_label_2
_geom_bond_distance
_geom_bond_site_symmetry_2
_ccdc_geom_bond_type
Co0 O3 1.970 . S
Co0 N17 1.989 . S
Co0 O25 1.967 . S
Co0 O32 1.920 . S
Co1 O4 1.966 . S
Co1 N10 2.022 . S
Co1 N18 1.993 . S
Co1 O26 1.941 . S
C2 O3 1.258 . S
C2 O4 1.263 . S
O3 Co0 1.970 . S
O3 C2 1.258 . S
O4 Co1 1.966 . S
O4 C2 1.263 . S
C5 O6 1.235 . S
C5 O32 1.289 . S
O6 C5 1.235 . S
C7 C9 1.400 . S
C7 N10 1.351 . S
C7 C12 1.501 . S
C8 C9 1.387 . S
C8 N11 1.341 . S
C9 C7 1.400 . S
C9 C8 1.387 . S
N10 Co1 2.022 . S
N10 C7 1.351 . S
N10 N11 1.365 . S
N11 C8 1.341 . S
N11 N10 1.365 . S
N11 H31 0.862 . S
C12 C7 1.501 . S
C12 H13 0.961 . S
C12 H14 0.961 . S
C12 H15 0.960 . S
H13 C12 0.961 . S
H14 C12 0.961 . S
H15 C12 0.960 . S
C16 N17 1.342 . S
C16 C20 1.401 . S
C16 C21 1.499 . S
N17 Co0 1.989 . S
N17 C16 1.342 . S
N17 N18 1.388 . S
N18 Co1 1.993 . S
N18 N17 1.388 . S
N18 C19 1.346 . S
C19 N18 1.346 . S
C19 C20 1.396 . S
C19 C29 1.510 . S
C20 C16 1.401 . S
C20 C19 1.396 . S
C21 C16 1.499 . S
C21 H22 0.959 . S
C21 H23 0.960 . S
C21 H24 0.961 . S
H22 C21 0.959 . S
H23 C21 0.960 . S
H24 C21 0.961 . S
O25 Co0 1.967 . S
O25 C33 1.258 . S
O26 Co1 1.941 . S
O26 C33 1.266 . S
H27 C29 0.959 . S
H28 C29 0.961 . S
C29 C19 1.510 . S
C29 H27 0.959 . S
C29 H28 0.961 . S
C29 H30 0.960 . S
H30 C29 0.960 . S
H31 N11 0.862 . S
O32 Co0 1.920 . S
O32 C5 1.289 . S
C33 O25 1.258 . S
C33 O26 1.266 . S
Co34 O37 1.970 . S
Co34 N51 1.989 . S
Co34 O59 1.967 . S
Co34 O66 1.920 . S
Co35 O38 1.966 . S
Co35 N44 2.022 . S
Co35 N52 1.993 . S
Co35 O60 1.941 . S
C36 O37 1.258 . S
C36 O38 1.263 . S
O37 Co34 1.970 . S
O37 C36 1.258 . S
O38 Co35 1.966 . S
O38 C36 1.263 . S
C39 O40 1.235 . S
C39 O66 1.289 . S
O40 C39 1.235 . S
C41 C43 1.400 . S
C41 N44 1.351 . S
C41 C46 1.501 . S
C42 C43 1.387 . S
C42 N45 1.341 . S
C43 C41 1.400 . S
C43 C42 1.387 . S
N44 Co35 2.022 . S
N44 C41 1.351 . S
N44 N45 1.365 . S
N45 C42 1.341 . S
N45 N44 1.365 . S
N45 H65 0.862 . S
C46 C41 1.501 . S
C46 H47 0.961 . S
C46 H48 0.961 . S
C46 H49 0.960 . S
H47 C46 0.961 . S
H48 C46 0.961 . S
H49 C46 0.960 . S
C50 N51 1.342 . S
C50 C54 1.401 . S
C50 C55 1.499 . S
N51 Co34 1.989 . S
N51 C50 1.342 . S
N51 N52 1.388 . S
N52 Co35 1.993 . S
N52 N51 1.388 . S
N52 C53 1.346 . S
C53 N52 1.346 . S
C53 C54 1.396 . S
C53 C63 1.510 . S
C54 C50 1.401 . S
C54 C53 1.396 . S
C55 C50 1.499 . S
C55 H56 0.959 . S
C55 H57 0.960 . S
C55 H58 0.961 . S
H56 C55 0.959 . S
H57 C55 0.960 . S
H58 C55 0.961 . S
O59 Co34 1.967 . S
O59 C67 1.258 . S
O60 Co35 1.941 . S
O60 C67 1.266 . S
H61 C63 0.959 . S
H62 C63 0.961 . S
C63 C53 1.510 . S
C63 H61 0.959 . S
C63 H62 0.961 . S
C63 H64 0.960 . S
H64 C63 0.960 . S
H65 N45 0.862 . S
O66 Co34 1.920 . S
O66 C39 1.289 . S
C67 O59 1.258 . S
C67 O60 1.266 . S
Co68 O71 1.970 1_554 S
Co68 N85 1.989 . S
Co68 O93 1.967 1_554 S
Co68 O100 1.920 . S
Co69 O72 1.966 . S
Co69 N78 2.022 . S
Co69 N86 1.993 1_556 S
Co69 O94 1.941 . S
C70 O71 1.258 . S
C70 O72 1.263 . S
O71 Co68 1.970 1_556 S
O71 C70 1.258 . S
O72 Co69 1.966 . S
O72 C70 1.263 . S
C73 O74 1.235 . S
C73 O100 1.289 . S
O74 C73 1.235 . S
C75 C77 1.400 1_556 S
C75 N78 1.351 . S
C75 C80 1.501 . S
C76 C77 1.387 . S
C76 N79 1.341 1_554 S
C77 C75 1.400 1_554 S
C77 C76 1.387 . S
N78 Co69 2.022 . S
N78 C75 1.351 . S
N78 N79 1.365 . S
N79 C76 1.341 1_556 S
N79 N78 1.365 . S
N79 H99 0.862 . S
C80 C75 1.501 . S
C80 H81 0.961 . S
C80 H82 0.961 1_556 S
C80 H83 0.960 . S
H81 C80 0.961 . S
H82 C80 0.961 1_554 S
H83 C80 0.960 . S
C84 N85 1.342 . S
C84 C88 1.401 . S
C84 C89 1.499 . S
N85 Co68 1.989 . S
N85 C84 1.342 . S
N85 N86 1.388 . S
N86 Co69 1.993 1_554 S
N86 N85 1.388 . S
N86 C87 1.346 . S
C87 N86 1.346 . S
C87 C88 1.396 . S
C87 C97 1.510 . S
C88 C84 1.401 . S
C88 C87 1.396 . S
C89 C84 1.499 . S
C89 H90 0.959 . S
C89 H91 0.960 . S
C89 H92 0.961 . S
H90 C89 0.959 . S
H91 C89 0.960 . S
H92 C89 0.961 . S
O93 Co68 1.967 1_556 S
O93 C101 1.258 . S
O94 Co69 1.941 . S
O94 C101 1.266 . S
H95 C97 0.959 . S
H96 C97 0.961 . S
C97 C87 1.510 . S
C97 H95 0.959 . S
C97 H96 0.961 . S
C97 H98 0.960 . S
H98 C97 0.960 . S
H99 N79 0.862 . S
O100 Co68 1.920 . S
O100 C73 1.289 . S
C101 O93 1.258 . S
C101 O94 1.266 . S
Co102 O105 1.970 . S
Co102 N119 1.989 . S
Co102 O127 1.967 . S
Co102 O134 1.920 . S
Co103 O106 1.966 . S
Co103 N112 2.022 . S
Co103 N120 1.993 . S
Co103 O128 1.941 . S
C104 O105 1.258 . S
C104 O106 1.263 . S
O105 Co102 1.970 . S
O105 C104 1.258 . S
O106 Co103 1.966 . S
O106 C104 1.263 . S
C107 O108 1.235 . S
C107 O134 1.289 . S
O108 C107 1.235 . S
C109 C111 1.400 . S
C109 N112 1.351 . S
C109 C114 1.501 . S
C110 C111 1.387 . S
C110 N113 1.341 . S
C111 C109 1.400 . S
C111 C110 1.387 . S
N112 Co103 2.022 . S
N112 C109 1.351 . S
N112 N113 1.365 . S
N113 C110 1.341 . S
N113 N112 1.365 . S
N113 H133 0.862 . S
C114 C109 1.501 . S
C114 H115 0.961 . S
C114 H116 0.961 . S
C114 H117 0.960 . S
H115 C114 0.961 . S
H116 C114 0.961 . S
H117 C114 0.960 . S
C118 N119 1.342 . S
C118 C122 1.401 . S
C118 C123 1.499 . S
N119 Co102 1.989 . S
N119 C118 1.342 . S
N119 N120 1.388 . S
N120 Co103 1.993 . S
N120 N119 1.388 . S
N120 C121 1.346 . S
C121 N120 1.346 . S
C121 C122 1.396 . S
C121 C131 1.510 . S
C122 C118 1.401 . S
C122 C121 1.396 . S
C123 C118 1.499 . S
C123 H124 0.959 . S
C123 H125 0.960 . S
C123 H126 0.961 . S
H124 C123 0.959 . S
H125 C123 0.960 . S
H126 C123 0.961 . S
O127 Co102 1.967 . S
O127 C135 1.258 . S
O128 Co103 1.941 . S
O128 C135 1.266 . S
H129 C131 0.959 . S
H130 C131 0.961 . S
C131 C121 1.510 . S
C131 H129 0.959 . S
C131 H130 0.961 . S
C131 H132 0.960 . S
H132 C131 0.960 . S
H133 N113 0.862 . S
O134 Co102 1.920 . S
O134 C107 1.289 . S
C135 O127 1.258 . S
C135 O128 1.266 . S
Co136 O139 1.970 . S
Co136 N153 1.989 . S
Co136 O161 1.967 1_554 S
Co136 O168 1.920 . S
Co137 O140 1.966 . S
Co137 N146 2.022 . S
Co137 N154 1.993 . S
Co137 O162 1.941 . S
C138 O139 1.258 . S
C138 O140 1.263 1_554 S
O139 Co136 1.970 . S
O139 C138 1.258 . S
O140 Co137 1.966 . S
O140 C138 1.263 1_556 S
C141 O142 1.235 . S
C141 O168 1.289 . S
O142 C141 1.235 . S
C143 C145 1.400 . S
C143 N146 1.351 . S
C143 C148 1.501 . S
C144 C145 1.387 . S
C144 N147 1.341 . S
C145 C143 1.400 . S
C145 C144 1.387 . S
N146 Co137 2.022 . S
N146 C143 1.351 . S
N146 N147 1.365 . S
N147 C144 1.341 . S
N147 N146 1.365 . S
N147 H167 0.862 . S
C148 C143 1.501 . S
C148 H149 0.961 . S
C148 H150 0.961 . S
C148 H151 0.960 . S
H149 C148 0.961 . S
H150 C148 0.961 . S
H151 C148 0.960 . S
C152 N153 1.342 . S
C152 C156 1.401 . S
C152 C157 1.499 . S
N153 Co136 1.989 . S
N153 C152 1.342 . S
N153 N154 1.388 1_554 S
N154 Co137 1.993 . S
N154 N153 1.388 1_556 S
N154 C155 1.346 . S
C155 N154 1.346 . S
C155 C156 1.396 1_556 S
C155 C165 1.510 . S
C156 C152 1.401 . S
C156 C155 1.396 1_554 S
C157 C152 1.499 . S
C157 H158 0.959 . S
C157 H159 0.960 . S
C157 H160 0.961 . S
H158 C157 0.959 . S
H159 C157 0.960 . S
H160 C157 0.961 . S
O161 Co136 1.967 1_556 S
O161 C169 1.258 . S
O162 Co137 1.941 . S
O162 C169 1.266 . S
H163 C165 0.959 . S
H164 C165 0.961 . S
C165 C155 1.510 . S
C165 H163 0.959 . S
C165 H164 0.961 . S
C165 H166 0.960 . S
H166 C165 0.960 . S
H167 N147 0.862 . S
O168 Co136 1.920 . S
O168 C141 1.289 . S
C169 O161 1.258 . S
C169 O162 1.266 . S
Co170 O173 1.970 . S
Co170 N187 1.989 . S
Co170 O195 1.967 . S
Co170 O202 1.920 . S
Co171 O174 1.966 . S
Co171 N180 2.022 . S
Co171 N188 1.993 . S
Co171 O196 1.941 . S
C172 O173 1.258 . S
C172 O174 1.263 . S
O173 Co170 1.970 . S
O173 C172 1.258 . S
O174 Co171 1.966 . S
O174 C172 1.263 . S
C175 O176 1.235 . S
C175 O202 1.289 . S
O176 C175 1.235 . S
C177 C179 1.400 . S
C177 N180 1.351 . S
C177 C182 1.501 . S
C178 C179 1.387 . S
C178 N181 1.341 . S
C179 C177 1.400 . S
C179 C178 1.387 . S
N180 Co171 2.022 . S
N180 C177 1.351 . S
N180 N181 1.365 . S
N181 C178 1.341 . S
N181 N180 1.365 . S
N181 H201 0.862 . S
C182 C177 1.501 . S
C182 H183 0.961 . S
C182 H184 0.961 . S
C182 H185 0.960 . S
H183 C182 0.961 . S
H184 C182 0.961 . S
H185 C182 0.960 . S
C186 N187 1.342 . S
C186 C190 1.401 . S
C186 C191 1.499 . S
N187 Co170 1.989 . S
N187 C186 1.342 . S
N187 N188 1.388 . S
N188 Co171 1.993 . S
N188 N187 1.388 . S
N188 C189 1.346 . S
C189 N188 1.346 . S
C189 C190 1.396 . S
C189 C199 1.510 . S
C190 C186 1.401 . S
C190 C189 1.396 . S
C191 C186 1.499 . S
C191 H192 0.959 . S
C191 H193 0.960 . S
C191 H194 0.961 . S
H192 C191 0.959 . S
H193 C191 0.960 . S
H194 C191 0.961 . S
O195 Co170 1.967 . S
O195 C203 1.258 . S
O196 Co171 1.941 . S
O196 C203 1.266 . S
H197 C199 0.959 . S
H198 C199 0.961 . S
C199 C189 1.510 . S
C199 H197 0.959 . S
C199 H198 0.961 . S
C199 H200 0.960 . S
H200 C199 0.960 . S
H201 N181 0.862 . S
O202 Co170 1.920 . S
O202 C175 1.289 . S
C203 O195 1.258 . S
C203 O196 1.266 . S
Co204 O207 1.970 . S
Co204 N221 1.989 . S
Co204 O229 1.967 . S
Co204 O236 1.920 . S
Co205 O208 1.966 . S
Co205 N214 2.022 . S
Co205 N222 1.993 . S
Co205 O230 1.941 . S
C206 O207 1.258 . S
C206 O208 1.263 . S
O207 Co204 1.970 . S
O207 C206 1.258 . S
O208 Co205 1.966 . S
O208 C206 1.263 . S
C209 O210 1.235 . S
C209 O236 1.289 . S
O210 C209 1.235 . S
C211 C213 1.400 . S
C211 N214 1.351 . S
C211 C216 1.501 . S
C212 C213 1.387 . S
C212 N215 1.341 . S
C213 C211 1.400 . S
C213 C212 1.387 . S
N214 Co205 2.022 . S
N214 C211 1.351 . S
N214 N215 1.365 . S
N215 C212 1.341 . S
N215 N214 1.365 . S
N215 H235 0.862 . S
C216 C211 1.501 . S
C216 H217 0.961 . S
C216 H218 0.961 . S
C216 H219 0.960 . S
H217 C216 0.961 . S
H218 C216 0.961 . S
H219 C216 0.960 . S
C220 N221 1.342 . S
C220 C224 1.401 . S
C220 C225 1.499 . S
N221 Co204 1.989 . S
N221 C220 1.342 . S
N221 N222 1.388 . S
N222 Co205 1.993 . S
N222 N221 1.388 . S
N222 C223 1.346 . S
C223 N222 1.346 . S
C223 C224 1.396 . S
C223 C233 1.510 . S
C224 C220 1.401 . S
C224 C223 1.396 . S
C225 C220 1.499 . S
C225 H226 0.959 . S
C225 H227 0.960 . S
C225 H228 0.961 . S
H226 C225 0.959 . S
H227 C225 0.960 . S
H228 C225 0.961 . S
O229 Co204 1.967 . S
O229 C237 1.258 . S
O230 Co205 1.941 . S
O230 C237 1.266 . S
H231 C233 0.959 . S
H232 C233 0.961 . S
C233 C223 1.510 . S
C233 H231 0.959 . S
C233 H232 0.961 . S
C233 H234 0.960 . S
H234 C233 0.960 . S
H235 N215 0.862 . S
O236 Co204 1.920 . S
O236 C209 1.289 . S
C237 O229 1.258 . S
C237 O230 1.266 . S
Co238 O241 1.970 . S
Co238 N255 1.989 . S
Co238 O263 1.967 1_556 S
Co238 O270 1.920 . S
Co239 O242 1.966 . S
Co239 N248 2.022 . S
Co239 N256 1.993 . S
Co239 O264 1.941 . S
C240 O241 1.258 . S
C240 O242 1.263 1_556 S
O241 Co238 1.970 . S
O241 C240 1.258 . S
O242 Co239 1.966 . S
O242 C240 1.263 1_554 S
C243 O244 1.235 . S
C243 O270 1.289 . S
O244 C243 1.235 . S
C245 C247 1.400 . S
C245 N248 1.351 . S
C245 C250 1.501 . S
C246 C247 1.387 . S
C246 N249 1.341 . S
C247 C245 1.400 . S
C247 C246 1.387 . S
N248 Co239 2.022 . S
N248 C245 1.351 . S
N248 N249 1.365 . S
N249 C246 1.341 . S
N249 N248 1.365 . S
N249 H269 0.862 . S
C250 C245 1.501 . S
C250 H251 0.961 . S
C250 H252 0.961 . S
C250 H253 0.960 . S
H251 C250 0.961 . S
H252 C250 0.961 . S
H253 C250 0.960 . S
C254 N255 1.342 . S
C254 C258 1.401 . S
C254 C259 1.499 . S
N255 Co238 1.989 . S
N255 C254 1.342 . S
N255 N256 1.388 1_556 S
N256 Co239 1.993 . S
N256 N255 1.388 1_554 S
N256 C257 1.346 . S
C257 N256 1.346 . S
C257 C258 1.396 1_554 S
C257 C267 1.510 . S
C258 C254 1.401 . S
C258 C257 1.396 1_556 S
C259 C254 1.499 . S
C259 H260 0.959 . S
C259 H261 0.960 . S
C259 H262 0.961 . S
H260 C259 0.959 . S
H261 C259 0.960 . S
H262 C259 0.961 . S
O263 Co238 1.967 1_554 S
O263 C271 1.258 . S
O264 Co239 1.941 . S
O264 C271 1.266 . S
H265 C267 0.959 . S
H266 C267 0.961 . S
C267 C257 1.510 . S
C267 H265 0.959 . S
C267 H266 0.961 . S
C267 H268 0.960 . S
H268 C267 0.960 . S
H269 N249 0.862 . S
O270 Co238 1.920 . S
O270 C243 1.289 . S
C271 O263 1.258 . S
C271 O264 1.266 . S
Co272 O275 1.970 . S
Co272 N289 1.989 . S
Co272 O297 1.967 1_565 S
Co272 O304 1.920 1_565 S
Co273 O276 1.966 . S
Co273 N282 2.022 . S
Co273 N290 1.993 . S
Co273 O298 1.941 1_565 S
C274 O275 1.258 . S
C274 O276 1.263 . S
O275 Co272 1.970 . S
O275 C274 1.258 . S
O276 Co273 1.966 . S
O276 C274 1.263 . S
C277 O278 1.235 . S
C277 O304 1.289 1_565 S
O278 C277 1.235 . S
C279 C281 1.400 . S
C279 N282 1.351 . S
C279 C284 1.501 . S
C280 C281 1.387 . S
C280 N283 1.341 . S
C281 C279 1.400 . S
C281 C280 1.387 . S
N282 Co273 2.022 . S
N282 C279 1.351 . S
N282 N283 1.365 . S
N283 C280 1.341 . S
N283 N282 1.365 . S
N283 H303 0.862 . S
C284 C279 1.501 . S
C284 H285 0.961 . S
C284 H286 0.961 . S
C284 H287 0.960 . S
H285 C284 0.961 . S
H286 C284 0.961 . S
H287 C284 0.960 . S
C288 N289 1.342 . S
C288 C292 1.401 . S
C288 C293 1.499 . S
N289 Co272 1.989 . S
N289 C288 1.342 . S
N289 N290 1.388 . S
N290 Co273 1.993 . S
N290 N289 1.388 . S
N290 C291 1.346 . S
C291 N290 1.346 . S
C291 C292 1.396 . S
C291 C301 1.510 . S
C292 C288 1.401 . S
C292 C291 1.396 . S
C293 C288 1.499 . S
C293 H294 0.959 . S
C293 H295 0.960 . S
C293 H296 0.961 . S
H294 C293 0.959 . S
H295 C293 0.960 . S
H296 C293 0.961 . S
O297 Co272 1.967 1_545 S
O297 C305 1.258 . S
O298 Co273 1.941 1_545 S
O298 C305 1.266 . S
H299 C301 0.959 . S
H300 C301 0.961 . S
C301 C291 1.510 . S
C301 H299 0.959 . S
C301 H300 0.961 . S
C301 H302 0.960 . S
H302 C301 0.960 . S
H303 N283 0.862 . S
O304 Co272 1.920 1_545 S
O304 C277 1.289 1_545 S
C305 O297 1.258 . S
C305 O298 1.266 . S
Co306 O309 1.970 1_556 S
Co306 N323 1.989 . S
Co306 O331 1.967 1_556 S
Co306 O338 1.920 . S
Co307 O310 1.966 . S
Co307 N316 2.022 . S
Co307 N324 1.993 1_554 S
Co307 O332 1.941 . S
C308 O309 1.258 . S
C308 O310 1.263 . S
O309 Co306 1.970 1_554 S
O309 C308 1.258 . S
O310 Co307 1.966 . S
O310 C308 1.263 . S
C311 O312 1.235 . S
C311 O338 1.289 . S
O312 C311 1.235 . S
C313 C315 1.400 1_554 S
C313 N316 1.351 . S
C313 C318 1.501 . S
C314 C315 1.387 . S
C314 N317 1.341 1_556 S
C315 C313 1.400 1_556 S
C315 C314 1.387 . S
N316 Co307 2.022 . S
N316 C313 1.351 . S
N316 N317 1.365 . S
N317 C314 1.341 1_554 S
N317 N316 1.365 . S
N317 H337 0.862 . S
C318 C313 1.501 . S
C318 H319 0.961 . S
C318 H320 0.961 1_554 S
C318 H321 0.960 . S
H319 C318 0.961 . S
H320 C318 0.961 1_556 S
H321 C318 0.960 . S
C322 N323 1.342 . S
C322 C326 1.401 . S
C322 C327 1.499 . S
N323 Co306 1.989 . S
N323 C322 1.342 . S
N323 N324 1.388 . S
N324 Co307 1.993 1_556 S
N324 N323 1.388 . S
N324 C325 1.346 . S
C325 N324 1.346 . S
C325 C326 1.396 . S
C325 C335 1.510 . S
C326 C322 1.401 . S
C326 C325 1.396 . S
C327 C322 1.499 . S
C327 H328 0.959 . S
C327 H329 0.960 . S
C327 H330 0.961 . S
H328 C327 0.959 . S
H329 C327 0.960 . S
H330 C327 0.961 . S
O331 Co306 1.967 1_554 S
O331 C339 1.258 . S
O332 Co307 1.941 . S
O332 C339 1.266 . S
H333 C335 0.959 . S
H334 C335 0.961 . S
C335 C325 1.510 . S
C335 H333 0.959 . S
C335 H334 0.961 . S
C335 H336 0.960 . S
H336 C335 0.960 . S
H337 N317 0.862 . S
O338 Co306 1.920 . S
O338 C311 1.289 . S
C339 O331 1.258 . S
C339 O332 1.266 . S
Co340 O343 1.970 . S
Co340 N357 1.989 . S
Co340 O365 1.967 . S
Co340 O372 1.920 . S
Co341 O344 1.966 . S
Co341 N350 2.022 . S
Co341 N358 1.993 . S
Co341 O366 1.941 . S
C342 O343 1.258 . S
C342 O344 1.263 . S
O343 Co340 1.970 . S
O343 C342 1.258 . S
O344 Co341 1.966 . S
O344 C342 1.263 . S
C345 O346 1.235 . S
C345 O372 1.289 . S
O346 C345 1.235 . S
C347 C349 1.400 . S
C347 N350 1.351 . S
C347 C352 1.501 . S
C348 C349 1.387 . S
C348 N351 1.341 . S
C349 C347 1.400 . S
C349 C348 1.387 . S
N350 Co341 2.022 . S
N350 C347 1.351 . S
N350 N351 1.365 . S
N351 C348 1.341 . S
N351 N350 1.365 . S
N351 H371 0.862 . S
C352 C347 1.501 . S
C352 H353 0.961 . S
C352 H354 0.961 . S
C352 H355 0.960 . S
H353 C352 0.961 . S
H354 C352 0.961 . S
H355 C352 0.960 . S
C356 N357 1.342 . S
C356 C360 1.401 . S
C356 C361 1.499 . S
N357 Co340 1.989 . S
N357 C356 1.342 . S
N357 N358 1.388 . S
N358 Co341 1.993 . S
N358 N357 1.388 . S
N358 C359 1.346 . S
C359 N358 1.346 . S
C359 C360 1.396 . S
C359 C369 1.510 . S
C360 C356 1.401 . S
C360 C359 1.396 . S
C361 C356 1.499 . S
C361 H362 0.959 . S
C361 H363 0.960 . S
C361 H364 0.961 . S
H362 C361 0.959 . S
H363 C361 0.960 . S
H364 C361 0.961 . S
O365 Co340 1.967 . S
O365 C373 1.258 . S
O366 Co341 1.941 . S
O366 C373 1.266 . S
H367 C369 0.959 . S
H368 C369 0.961 . S
C369 C359 1.510 . S
C369 H367 0.959 . S
C369 H368 0.961 . S
C369 H370 0.960 . S
H370 C369 0.960 . S
H371 N351 0.862 . S
O372 Co340 1.920 . S
O372 C345 1.289 . S
C373 O365 1.258 . S
C373 O366 1.266 . S
Co374 O377 1.970 . S
Co374 N391 1.989 . S
Co374 O399 1.967 1_545 S
Co374 O406 1.920 1_545 S
Co375 O378 1.966 . S
Co375 N384 2.022 . S
Co375 N392 1.993 . S
Co375 O400 1.941 1_545 S
C376 O377 1.258 . S
C376 O378 1.263 . S
O377 Co374 1.970 . S
O377 C376 1.258 . S
O378 Co375 1.966 . S
O378 C376 1.263 . S
C379 O380 1.235 . S
C379 O406 1.289 1_545 S
O380 C379 1.235 . S
C381 C383 1.400 . S
C381 N384 1.351 . S
C381 C386 1.501 . S
C382 C383 1.387 . S
C382 N385 1.341 . S
C383 C381 1.400 . S
C383 C382 1.387 . S
N384 Co375 2.022 . S
N384 C381 1.351 . S
N384 N385 1.365 . S
N385 C382 1.341 . S
N385 N384 1.365 . S
N385 H405 0.862 . S
C386 C381 1.501 . S
C386 H387 0.961 . S
C386 H388 0.961 . S
C386 H389 0.960 . S
H387 C386 0.961 . S
H388 C386 0.961 . S
H389 C386 0.960 . S
C390 N391 1.342 . S
C390 C394 1.401 . S
C390 C395 1.499 . S
N391 Co374 1.989 . S
N391 C390 1.342 . S
N391 N392 1.388 . S
N392 Co375 1.993 . S
N392 N391 1.388 . S
N392 C393 1.346 . S
C393 N392 1.346 . S
C393 C394 1.396 . S
C393 C403 1.510 . S
C394 C390 1.401 . S
C394 C393 1.396 . S
C395 C390 1.499 . S
C395 H396 0.959 . S
C395 H397 0.960 . S
C395 H398 0.961 . S
H396 C395 0.959 . S
H397 C395 0.960 . S
H398 C395 0.961 . S
O399 Co374 1.967 1_565 S
O399 C407 1.258 . S
O400 Co375 1.941 1_565 S
O400 C407 1.266 . S
H401 C403 0.959 . S
H402 C403 0.961 . S
C403 C393 1.510 . S
C403 H401 0.959 . S
C403 H402 0.961 . S
C403 H404 0.960 . S
H404 C403 0.960 . S
H405 N385 0.862 . S
O406 Co374 1.920 1_565 S
O406 C379 1.289 1_565 S
C407 O399 1.258 . S
C407 O400 1.266 . S
H408 C414 0.930 . S
H409 C417 0.930 . S
H410 C418 0.930 . S
H411 C419 0.930 . S
H412 C422 0.930 . S
H413 C423 0.930 . S
C414 H408 0.930 . S
C414 C415 1.355 . S
C414 C416 1.415 . S
C415 C414 1.355 . S
C415 C417 1.419 . S
C416 C414 1.415 . S
C416 C421 1.425 . S
C416 C423 1.409 . S
C417 H409 0.930 . S
C417 C415 1.419 . S
C417 C418 1.362 . S
C418 H410 0.930 . S
C418 C417 1.362 . S
C418 C421 1.409 . S
C419 H411 0.930 . S
C419 C420 1.355 . S
C419 C421 1.415 . S
C420 C419 1.355 . S
C420 C422 1.419 . S
C421 C416 1.425 . S
C421 C418 1.409 . S
C421 C419 1.415 . S
C422 H412 0.930 . S
C422 C420 1.419 . S
C422 C423 1.362 . S
C423 H413 0.930 . S
C423 C416 1.409 . S
C423 C422 1.362 . S
H424 C430 0.930 . S
H425 C433 0.930 . S
H426 C434 0.930 . S
H427 C435 0.930 . S
H428 C438 0.930 . S
H429 C439 0.930 . S
C430 H424 0.930 . S
C430 C431 1.355 . S
C430 C432 1.415 1_655 S
C431 C430 1.355 . S
C431 C433 1.419 . S
C432 C430 1.415 1_455 S
C432 C437 1.425 1_455 S
C432 C439 1.409 . S
C433 H425 0.930 . S
C433 C431 1.419 . S
C433 C434 1.362 . S
C434 H426 0.930 . S
C434 C433 1.362 . S
C434 C437 1.409 . S
C435 H427 0.930 . S
C435 C436 1.355 . S
C435 C437 1.415 1_455 S
C436 C435 1.355 . S
C436 C438 1.419 . S
C437 C432 1.425 1_655 S
C437 C434 1.409 . S
C437 C435 1.415 1_655 S
C438 H428 0.930 . S
C438 C436 1.419 . S
C438 C439 1.362 . S
C439 H429 0.930 . S
C439 C432 1.409 . S
C439 C438 1.362 . S
H440 C446 0.930 . S
H441 C449 0.930 . S
H442 C450 0.930 . S
H443 C451 0.930 . S
H444 C454 0.930 . S
H445 C455 0.930 . S
C446 H440 0.930 . S
C446 C447 1.355 . S
C446 C448 1.415 . S
C447 C446 1.355 . S
C447 C449 1.419 . S
C448 C446 1.415 . S
C448 C453 1.425 . S
C448 C455 1.409 . S
C449 H441 0.930 . S
C449 C447 1.419 . S
C449 C450 1.362 . S
C450 H442 0.930 . S
C450 C449 1.362 . S
C450 C453 1.409 . S
C451 H443 0.930 . S
C451 C452 1.355 . S
C451 C453 1.415 . S
C452 C451 1.355 . S
C452 C454 1.419 . S
C453 C448 1.425 . S
C453 C450 1.409 . S
C453 C451 1.415 . S
C454 H444 0.930 . S
C454 C452 1.419 . S
C454 C455 1.362 . S
C455 H445 0.930 . S
C455 C448 1.409 . S
C455 C454 1.362 . S
H456 C462 0.930 . S
H457 C465 0.930 . S
H458 C466 0.930 . S
H459 C467 0.930 . S
H460 C470 0.930 . S
H461 C471 0.930 . S
C462 H456 0.930 . S
C462 C463 1.355 . S
C462 C464 1.415 . S
C463 C462 1.355 . S
C463 C465 1.419 . S
C464 C462 1.415 . S
C464 C469 1.425 . S
C464 C471 1.409 . S
C465 H457 0.930 . S
C465 C463 1.419 . S
C465 C466 1.362 . S
C466 H458 0.930 . S
C466 C465 1.362 . S
C466 C469 1.409 . S
C467 H459 0.930 . S
C467 C468 1.355 . S
C467 C469 1.415 . S
C468 C467 1.355 . S
C468 C470 1.419 . S
C469 C464 1.425 . S
C469 C466 1.409 . S
C469 C467 1.415 . S
C470 H460 0.930 . S
C470 C468 1.419 . S
C470 C471 1.362 . S
C471 H461 0.930 . S
C471 C464 1.409 . S
C471 C470 1.362 . S
H472 C478 0.930 . S
H473 C481 0.930 . S
H474 C482 0.930 1_655 S
H475 C483 0.930 . S
H476 C486 0.930 . S
H477 C487 0.930 1_455 S
C478 H472 0.930 . S
C478 C479 1.355 . S
C478 C480 1.415 1_556 S
C479 C478 1.355 . S
C479 C481 1.419 . S
C480 C478 1.415 1_554 S
C480 C485 1.425 1_454 S
C480 C487 1.409 1_455 S
C481 H473 0.930 . S
C481 C479 1.419 . S
C481 C482 1.362 . S
C482 H474 0.930 1_455 S
C482 C481 1.362 . S
C482 C485 1.409 1_455 S
C483 H475 0.930 . S
C483 C484 1.355 . S
C483 C485 1.415 1_554 S
C484 C483 1.355 . S
C484 C486 1.419 . S
C485 C480 1.425 1_656 S
C485 C482 1.409 1_655 S
C485 C483 1.415 1_556 S
C486 H476 0.930 . S
C486 C484 1.419 . S
C486 C487 1.362 . S
C487 H477 0.930 1_655 S
C487 C480 1.409 1_655 S
C487 C486 1.362 . S
H488 C494 0.930 . S
H489 C497 0.930 . S
H490 C498 0.930 . S
H491 C499 0.930 . S
H492 C502 0.930 . S
H493 C503 0.930 . S
C494 H488 0.930 . S
C494 C495 1.355 . S
C494 C496 1.415 . S
C495 C494 1.355 . S
C495 C497 1.419 . S
C496 C494 1.415 . S
C496 C501 1.425 . S
C496 C503 1.409 . S
C497 H489 0.930 . S
C497 C495 1.419 . S
C497 C498 1.362 . S
C498 H490 0.930 . S
C498 C497 1.362 . S
C498 C501 1.409 . S
C499 H491 0.930 . S
C499 C500 1.355 . S
C499 C501 1.415 . S
C500 C499 1.355 . S
C500 C502 1.419 . S
C501 C496 1.425 . S
C501 C498 1.409 . S
C501 C499 1.415 . S
C502 H492 0.930 . S
C502 C500 1.419 . S
C502 C503 1.362 . S
C503 H493 0.930 . S
C503 C496 1.409 . S
C503 C502 1.362 . S
H504 C510 0.930 . S
H505 C513 0.930 . S
H506 C514 0.930 . S
H507 C515 0.930 . S
H508 C518 0.930 1_556 S
H509 C519 0.930 . S
C510 H504 0.930 . S
C510 C511 1.355 . S
C510 C512 1.415 . S
C511 C510 1.355 . S
C511 C513 1.419 . S
C512 C510 1.415 . S
C512 C517 1.425 . S
C512 C519 1.409 . S
C513 H505 0.930 . S
C513 C511 1.419 . S
C513 C514 1.362 . S
C514 H506 0.930 . S
C514 C513 1.362 . S
C514 C517 1.409 . S
C515 H507 0.930 . S
C515 C516 1.355 . S
C515 C517 1.415 . S
C516 C515 1.355 . S
C516 C518 1.419 . S
C517 C512 1.425 . S
C517 C514 1.409 . S
C517 C515 1.415 . S
C518 H508 0.930 1_554 S
C518 C516 1.419 . S
C518 C519 1.362 . S
C519 H509 0.930 . S
C519 C512 1.409 . S
C519 C518 1.362 . S
H520 C526 0.930 . S
H521 C529 0.930 . S
H522 C530 0.930 . S
H523 C531 0.930 . S
H524 C534 0.930 . S
H525 C535 0.930 . S
C526 H520 0.930 . S
C526 C527 1.355 . S
C526 C528 1.415 . S
C527 C526 1.355 . S
C527 C529 1.419 . S
C528 C526 1.415 . S
C528 C533 1.425 . S
C528 C535 1.409 . S
C529 H521 0.930 . S
C529 C527 1.419 . S
C529 C530 1.362 . S
C530 H522 0.930 . S
C530 C529 1.362 . S
C530 C533 1.409 . S
C531 H523 0.930 . S
C531 C532 1.355 . S
C531 C533 1.415 . S
C532 C531 1.355 . S
C532 C534 1.419 . S
C533 C528 1.425 . S
C533 C530 1.409 . S
C533 C531 1.415 . S
C534 H524 0.930 . S
C534 C532 1.419 . S
C534 C535 1.362 . S
C535 H525 0.930 . S
C535 C528 1.409 . S
C535 C534 1.362 . S
H536 C542 0.930 . S
H537 C545 0.930 . S
H538 C546 0.930 . S
H539 C547 0.930 . S
H540 C550 0.930 . S
H541 C551 0.930 . S
C542 H536 0.930 . S
C542 C543 1.355 . S
C542 C544 1.415 . S
C543 C542 1.355 . S
C543 C545 1.419 . S
C544 C542 1.415 . S
C544 C549 1.425 . S
C544 C551 1.409 . S
C545 H537 0.930 . S
C545 C543 1.419 . S
C545 C546 1.362 . S
C546 H538 0.930 . S
C546 C545 1.362 . S
C546 C549 1.409 . S
C547 H539 0.930 . S
C547 C548 1.355 . S
C547 C549 1.415 . S
C548 C547 1.355 . S
C548 C550 1.419 . S
C549 C544 1.425 . S
C549 C546 1.409 . S
C549 C547 1.415 . S
C550 H540 0.930 . S
C550 C548 1.419 . S
C550 C551 1.362 . S
C551 H541 0.930 . S
C551 C544 1.409 . S
C551 C550 1.362 . S
H552 C558 0.930 . S
H553 C561 0.930 . S
H554 C562 0.930 . S
H555 C563 0.930 . S
H556 C566 0.930 . S
H557 C567 0.930 . S
C558 H552 0.930 . S
C558 C559 1.355 . S
C558 C560 1.415 . S
C559 C558 1.355 . S
C559 C561 1.419 . S
C560 C558 1.415 . S
C560 C565 1.425 . S
C560 C567 1.409 . S
C561 H553 0.930 . S
C561 C559 1.419 . S
C561 C562 1.362 . S
C562 H554 0.930 . S
C562 C561 1.362 . S
C562 C565 1.409 . S
C563 H555 0.930 . S
C563 C564 1.355 . S
C563 C565 1.415 . S
C564 C563 1.355 . S
C564 C566 1.419 . S
C565 C560 1.425 . S
C565 C562 1.409 . S
C565 C563 1.415 . S
C566 H556 0.930 . S
C566 C564 1.419 . S
C566 C567 1.362 . S
C567 H557 0.930 . S
C567 C560 1.409 . S
C567 C566 1.362 . S
H568 C574 0.930 . S
H569 C577 0.930 . S
H570 C578 0.930 . S
H571 C579 0.930 . S
H572 C582 0.930 . S
H573 C583 0.930 . S
C574 H568 0.930 . S
C574 C575 1.355 . S
C574 C576 1.415 . S
C575 C574 1.355 . S
C575 C577 1.419 . S
C576 C574 1.415 . S
C576 C581 1.425 . S
C576 C583 1.409 . S
C577 H569 0.930 . S
C577 C575 1.419 . S
C577 C578 1.362 . S
C578 H570 0.930 . S
C578 C577 1.362 . S
C578 C581 1.409 . S
C579 H571 0.930 . S
C579 C580 1.355 . S
C579 C581 1.415 . S
C580 C579 1.355 . S
C580 C582 1.419 . S
C581 C576 1.425 . S
C581 C578 1.409 . S
C581 C579 1.415 . S
C582 H572 0.930 . S
C582 C580 1.419 . S
C582 C583 1.362 . S
C583 H573 0.930 . S
C583 C576 1.409 . S
C583 C582 1.362 . S
H584 C590 0.930 . S
H585 C593 0.930 . S
H586 C594 0.930 . S
H587 C595 0.930 . S
H588 C598 0.930 . S
H589 C599 0.930 . S
C590 H584 0.930 . S
C590 C591 1.355 . S
C590 C592 1.415 . S
C591 C590 1.355 . S
C591 C593 1.419 . S
C592 C590 1.415 . S
C592 C597 1.425 . S
C592 C599 1.409 . S
C593 H585 0.930 . S
C593 C591 1.419 . S
C593 C594 1.362 . S
C594 H586 0.930 . S
C594 C593 1.362 . S
C594 C597 1.409 . S
C595 H587 0.930 . S
C595 C596 1.355 . S
C595 C597 1.415 . S
C596 C595 1.355 . S
C596 C598 1.419 . S
C597 C592 1.425 . S
C597 C594 1.409 . S
C597 C595 1.415 . S
C598 H588 0.930 . S
C598 C596 1.419 . S
C598 C599 1.362 . S
C599 H589 0.930 . S
C599 C592 1.409 . S
C599 C598 1.362 . S
H600 C606 0.930 . S
H601 C609 0.930 . S
H602 C610 0.930 . S
H603 C611 0.930 . S
H604 C614 0.930 . S
H605 C615 0.930 . S
C606 H600 0.930 . S
C606 C607 1.355 . S
C606 C608 1.415 . S
C607 C606 1.355 . S
C607 C609 1.419 . S
C608 C606 1.415 . S
C608 C613 1.425 . S
C608 C615 1.409 . S
C609 H601 0.930 . S
C609 C607 1.419 . S
C609 C610 1.362 . S
C610 H602 0.930 . S
C610 C609 1.362 . S
C610 C613 1.409 . S
C611 H603 0.930 . S
C611 C612 1.355 . S
C611 C613 1.415 . S
C612 C611 1.355 . S
C612 C614 1.419 . S
C613 C608 1.425 . S
C613 C610 1.409 . S
C613 C611 1.415 . S
C614 H604 0.930 . S
C614 C612 1.419 . S
C614 C615 1.362 . S
C615 H605 0.930 . S
C615 C608 1.409 . S
C615 C614 1.362 . S
H616 C622 0.930 . S
H617 C625 0.930 . S
H618 C626 0.930 . S
H619 C627 0.930 . S
H620 C630 0.930 . S
H621 C631 0.930 . S
C622 H616 0.930 . S
C622 C623 1.355 . S
C622 C624 1.415 . S
C623 C622 1.355 . S
C623 C625 1.419 . S
C624 C622 1.415 . S
C624 C629 1.425 . S
C624 C631 1.409 . S
C625 H617 0.930 . S
C625 C623 1.419 . S
C625 C626 1.362 . S
C626 H618 0.930 . S
C626 C625 1.362 . S
C626 C629 1.409 . S
C627 H619 0.930 . S
C627 C628 1.355 . S
C627 C629 1.415 . S
C628 C627 1.355 . S
C628 C630 1.419 . S
C629 C624 1.425 . S
C629 C626 1.409 . S
C629 C627 1.415 . S
C630 H620 0.930 . S
C630 C628 1.419 . S
C630 C631 1.362 . S
C631 H621 0.930 . S
C631 C624 1.409 . S
C631 C630 1.362 . S
H632 C638 0.930 . S
H633 C641 0.930 . S
H634 C642 0.930 . S
H635 C643 0.930 . S
H636 C646 0.930 . S
H637 C647 0.930 . S
C638 H632 0.930 . S
C638 C639 1.355 . S
C638 C640 1.415 . S
C639 C638 1.355 . S
C639 C641 1.419 . S
C640 C638 1.415 . S
C640 C645 1.425 . S
C640 C647 1.409 . S
C641 H633 0.930 . S
C641 C639 1.419 . S
C641 C642 1.362 . S
C642 H634 0.930 . S
C642 C641 1.362 . S
C642 C645 1.409 . S
C643 H635 0.930 . S
C643 C644 1.355 . S
C643 C645 1.415 . S
C644 C643 1.355 . S
C644 C646 1.419 . S
C645 C640 1.425 . S
C645 C642 1.409 . S
C645 C643 1.415 . S
C646 H636 0.930 . S
C646 C644 1.419 . S
C646 C647 1.362 . S
C647 H637 0.930 . S
C647 C640 1.409 . S
C647 C646 1.362 . S
H648 C654 0.930 . S
H649 C657 0.930 . S
H650 C658 0.930 . S
H651 C659 0.930 . S
H652 C662 0.930 1_554 S
H653 C663 0.930 . S
C654 H648 0.930 . S
C654 C655 1.355 . S
C654 C656 1.415 . S
C655 C654 1.355 . S
C655 C657 1.419 . S
C656 C654 1.415 . S
C656 C661 1.425 . S
C656 C663 1.409 . S
C657 H649 0.930 . S
C657 C655 1.419 . S
C657 C658 1.362 . S
C658 H650 0.930 . S
C658 C657 1.362 . S
C658 C661 1.409 . S
C659 H651 0.930 . S
C659 C660 1.355 . S
C659 C661 1.415 . S
C660 C659 1.355 . S
C660 C662 1.419 . S
C661 C656 1.425 . S
C661 C658 1.409 . S
C661 C659 1.415 . S
C662 H652 0.930 1_556 S
C662 C660 1.419 . S
C662 C663 1.362 . S
C663 H653 0.930 . S
C663 C656 1.409 . S
C663 C662 1.362 . S
H664 C670 0.930 . S
H665 C673 0.930 . S
H666 C674 0.930 . S
H667 C675 0.930 . S
H668 C678 0.930 . S
H669 C679 0.930 . S
C670 H664 0.930 . S
C670 C671 1.355 . S
C670 C672 1.415 . S
C671 C670 1.355 . S
C671 C673 1.419 . S
C672 C670 1.415 . S
C672 C677 1.425 . S
C672 C679 1.409 . S
C673 H665 0.930 . S
C673 C671 1.419 . S
C673 C674 1.362 . S
C674 H666 0.930 . S
C674 C673 1.362 . S
C674 C677 1.409 . S
C675 H667 0.930 . S
C675 C676 1.355 . S
C675 C677 1.415 . S
C676 C675 1.355 . S
C676 C678 1.419 . S
C677 C672 1.425 . S
C677 C674 1.409 . S
C677 C675 1.415 . S
C678 H668 0.930 . S
C678 C676 1.419 . S
C678 C679 1.362 . S
C679 H669 0.930 . S
C679 C672 1.409 . S
C679 C678 1.362 . S
H680 C686 0.930 . S
H681 C689 0.930 . S
H682 C690 0.930 . S
H683 C691 0.930 . S
H684 C694 0.930 1_554 S
H685 C695 0.935 . S
C686 H680 0.930 . S
C686 C687 1.355 . S
C686 C688 1.415 . S
C687 C686 1.355 . S
C687 C689 1.419 . S
C688 C686 1.415 . S
C688 C693 1.425 . S
C688 C695 1.409 . S
C689 H681 0.930 . S
C689 C687 1.419 . S
C689 C690 1.362 . S
C690 H682 0.930 . S
C690 C689 1.362 . S
C690 C693 1.409 . S
C691 H683 0.930 . S
C691 C692 1.355 . S
C691 C693 1.415 . S
C692 C691 1.355 . S
C692 C694 1.419 . S
C693 C688 1.425 . S
C693 C690 1.409 . S
C693 C691 1.415 . S
C694 H684 0.930 1_556 S
C694 C692 1.419 . S
C694 C695 1.362 . S
C695 H685 0.935 . S
C695 C688 1.409 . S
C695 C694 1.362 . S
H696 C702 0.930 . S
H697 C705 0.930 . S
H698 C706 0.930 . S
H699 C707 0.930 . S
H700 C710 0.930 . S
H701 C711 0.930 . S
C702 H696 0.930 . S
C702 C703 1.355 . S
C702 C704 1.415 . S
C703 C702 1.355 . S
C703 C705 1.419 . S
C704 C702 1.415 . S
C704 C709 1.425 . S
C704 C711 1.409 . S
C705 H697 0.930 . S
C705 C703 1.419 . S
C705 C706 1.362 . S
C706 H698 0.930 . S
C706 C705 1.362 . S
C706 C709 1.409 . S
C707 H699 0.930 . S
C707 C708 1.355 . S
C707 C709 1.415 . S
C708 C707 1.355 . S
C708 C710 1.419 . S
C709 C704 1.425 . S
C709 C706 1.409 . S
C709 C707 1.415 . S
C710 H700 0.930 . S
C710 C708 1.419 . S
C710 C711 1.362 . S
C711 H701 0.930 . S
C711 C704 1.409 . S
C711 C710 1.362 . S
H712 C718 0.930 . S
H713 C721 0.930 . S
H714 C722 0.930 . S
H715 C723 0.930 . S
H716 C726 0.930 . S
H717 C727 0.930 . S
C718 H712 0.930 . S
C718 C719 1.355 . S
C718 C720 1.415 . S
C719 C718 1.355 . S
C719 C721 1.419 . S
C720 C718 1.415 . S
C720 C725 1.425 . S
C720 C727 1.409 . S
C721 H713 0.930 . S
C721 C719 1.419 . S
C721 C722 1.362 . S
C722 H714 0.930 . S
C722 C721 1.362 . S
C722 C725 1.409 . S
C723 H715 0.930 . S
C723 C724 1.355 . S
C723 C725 1.415 . S
C724 C723 1.355 . S
C724 C726 1.419 . S
C725 C720 1.425 . S
C725 C722 1.409 . S
C725 C723 1.415 . S
C726 H716 0.930 . S
C726 C724 1.419 . S
C726 C727 1.362 . S
C727 H717 0.930 . S
C727 C720 1.409 . S
C727 C726 1.362 . S
H728 C734 0.930 . S
H729 C737 0.930 . S
H730 C738 0.930 . S
H731 C739 0.930 . S
H732 C742 0.930 . S
H733 C743 0.930 . S
C734 H728 0.930 . S
C734 C735 1.355 . S
C734 C736 1.415 . S
C735 C734 1.355 . S
C735 C737 1.419 . S
C736 C734 1.415 . S
C736 C741 1.425 . S
C736 C743 1.409 . S
C737 H729 0.930 . S
C737 C735 1.419 . S
C737 C738 1.362 . S
C738 H730 0.930 . S
C738 C737 1.362 . S
C738 C741 1.409 . S
C739 H731 0.930 . S
C739 C740 1.355 . S
C739 C741 1.415 . S
C740 C739 1.355 . S
C740 C742 1.419 . S
C741 C736 1.425 . S
C741 C738 1.409 . S
C741 C739 1.415 . S
C742 H732 0.930 . S
C742 C740 1.419 . S
C742 C743 1.362 . S
C743 H733 0.930 . S
C743 C736 1.409 . S
C743 C742 1.362 . S
H744 C750 0.930 . S
H745 C753 0.930 . S
H746 C754 0.930 . S
H747 C755 0.930 . S
H748 C758 0.930 . S
H749 C759 0.930 . S
C750 H744 0.930 . S
C750 C751 1.355 . S
C750 C752 1.415 . S
C751 C750 1.355 . S
C751 C753 1.419 . S
C752 C750 1.415 . S
C752 C757 1.425 . S
C752 C759 1.409 . S
C753 H745 0.930 . S
C753 C751 1.419 . S
C753 C754 1.362 . S
C754 H746 0.930 . S
C754 C753 1.362 . S
C754 C757 1.409 . S
C755 H747 0.930 . S
C755 C756 1.355 . S
C755 C757 1.415 . S
C756 C755 1.355 . S
C756 C758 1.419 . S
C757 C752 1.425 . S
C757 C754 1.409 . S
C757 C755 1.415 . S
C758 H748 0.930 . S
C758 C756 1.419 . S
C758 C759 1.362 . S
C759 H749 0.930 . S
C759 C752 1.409 . S
C759 C758 1.362 . S
H760 C766 0.930 . S
H761 C769 0.930 . S
H762 C770 0.930 . S
H763 C771 0.930 . S
H764 C774 0.930 . S
H765 C775 0.930 . S
C766 H760 0.930 . S
C766 C767 1.355 . S
C766 C768 1.415 . S
C767 C766 1.355 . S
C767 C769 1.419 . S
C768 C766 1.415 . S
C768 C773 1.425 . S
C768 C775 1.409 . S
C769 H761 0.930 . S
C769 C767 1.419 . S
C769 C770 1.362 . S
C770 H762 0.930 . S
C770 C769 1.362 . S
C770 C773 1.409 . S
C771 H763 0.930 . S
C771 C772 1.355 . S
C771 C773 1.415 . S
C772 C771 1.355 . S
C772 C774 1.419 . S
C773 C768 1.425 . S
C773 C770 1.409 . S
C773 C771 1.415 . S
C774 H764 0.930 . S
C774 C772 1.419 . S
C774 C775 1.362 . S
C775 H765 0.930 . S
C775 C768 1.409 . S
C775 C774 1.362 . S
H776 C782 0.930 . S
H777 C785 0.930 . S
H778 C786 0.930 . S
H779 C787 0.930 . S
H780 C790 0.930 . S
H781 C791 0.930 . S
C782 H776 0.930 . S
C782 C783 1.355 . S
C782 C784 1.415 . S
C783 C782 1.355 . S
C783 C785 1.419 . S
C784 C782 1.415 . S
C784 C789 1.425 . S
C784 C791 1.409 . S
C785 H777 0.930 . S
C785 C783 1.419 . S
C785 C786 1.362 . S
C786 H778 0.930 . S
C786 C785 1.362 . S
C786 C789 1.409 . S
C787 H779 0.930 . S
C787 C788 1.355 . S
C787 C789 1.415 . S
C788 C787 1.355 . S
C788 C790 1.419 . S
C789 C784 1.425 . S
C789 C786 1.409 . S
C789 C787 1.415 . S
C790 H780 0.930 . S
C790 C788 1.419 . S
C790 C791 1.362 . S
C791 H781 0.930 . S
C791 C784 1.409 . S
C791 C790 1.362 . S
H792 C798 0.930 . S
H793 C801 0.930 . S
H794 C802 0.930 . S
H795 C803 0.930 . S
H796 C806 0.930 . S
H797 C807 0.930 . S
C798 H792 0.930 . S
C798 C799 1.355 . S
C798 C800 1.415 . S
C799 C798 1.355 . S
C799 C801 1.419 . S
C800 C798 1.415 . S
C800 C805 1.425 . S
C800 C807 1.409 . S
C801 H793 0.930 . S
C801 C799 1.419 . S
C801 C802 1.362 . S
C802 H794 0.930 . S
C802 C801 1.362 . S
C802 C805 1.409 . S
C803 H795 0.930 . S
C803 C804 1.355 . S
C803 C805 1.415 . S
C804 C803 1.355 . S
C804 C806 1.419 . S
C805 C800 1.425 . S
C805 C802 1.409 . S
C805 C803 1.415 . S
C806 H796 0.930 . S
C806 C804 1.419 . S
C806 C807 1.362 . S
C807 H797 0.930 . S
C807 C800 1.409 . S
C807 C806 1.362 . S
H808 C814 0.930 . S
H809 C817 0.930 . S
H810 C818 0.930 . S
H811 C819 0.930 . S
H812 C822 0.930 . S
H813 C823 0.930 . S
C814 H808 0.930 . S
C814 C815 1.355 . S
C814 C816 1.415 . S
C815 C814 1.355 . S
C815 C817 1.419 . S
C816 C814 1.415 . S
C816 C821 1.425 . S
C816 C823 1.409 . S
C817 H809 0.930 . S
C817 C815 1.419 . S
C817 C818 1.362 . S
C818 H810 0.930 . S
C818 C817 1.362 . S
C818 C821 1.409 . S
C819 H811 0.930 . S
C819 C820 1.355 . S
C819 C821 1.415 . S
C820 C819 1.355 . S
C820 C822 1.419 . S
C821 C816 1.425 . S
C821 C818 1.409 . S
C821 C819 1.415 . S
C822 H812 0.930 . S
C822 C820 1.419 . S
C822 C823 1.362 . S
C823 H813 0.930 . S
C823 C816 1.409 . S
C823 C822 1.362 . S
H824 C830 0.930 . S
H825 C833 0.930 1_556 S
H826 C834 0.930 . S
H827 C835 0.930 1_545 S
H828 C838 0.930 . S
H829 C839 0.930 . S
C830 H824 0.930 . S
C830 C831 1.355 . S
C830 C832 1.415 . S
C831 C830 1.355 . S
C831 C833 1.419 . S
C832 C830 1.415 . S
C832 C837 1.425 . S
C832 C839 1.409 . S
C833 H825 0.930 1_554 S
C833 C831 1.419 . S
C833 C834 1.362 . S
C834 H826 0.930 . S
C834 C833 1.362 . S
C834 C837 1.409 . S
C835 H827 0.930 1_565 S
C835 C836 1.355 . S
C835 C837 1.415 . S
C836 C835 1.355 . S
C836 C838 1.419 . S
C837 C832 1.425 . S
C837 C834 1.409 . S
C837 C835 1.415 . S
C838 H828 0.930 . S
C838 C836 1.419 . S
C838 C839 1.362 . S
C839 H829 0.930 . S
C839 C832 1.409 . S
C839 C838 1.362 . S
H840 C846 0.930 . S
H841 C849 0.930 1_554 S
H842 C850 0.930 . S
H843 C851 0.930 . S
H844 C854 0.930 . S
H845 C855 0.930 . S
C846 H840 0.930 . S
C846 C847 1.355 . S
C846 C848 1.415 . S
C847 C846 1.355 . S
C847 C849 1.419 . S
C848 C846 1.415 . S
C848 C853 1.425 . S
C848 C855 1.409 . S
C849 H841 0.930 1_556 S
C849 C847 1.419 . S
C849 C850 1.362 . S
C850 H842 0.930 . S
C850 C849 1.362 . S
C850 C853 1.409 . S
C851 H843 0.930 . S
C851 C852 1.355 . S
C851 C853 1.415 . S
C852 C851 1.355 . S
C852 C854 1.419 . S
C853 C848 1.425 . S
C853 C850 1.409 . S
C853 C851 1.415 . S
C854 H844 0.930 . S
C854 C852 1.419 . S
C854 C855 1.362 . S
C855 H845 0.930 . S
C855 C848 1.409 . S
C855 C854 1.362 . S
H856 C862 0.930 . S
H857 C865 0.930 . S
H858 C866 0.930 . S
H859 C867 0.930 . S
H860 C870 0.930 . S
H861 C871 0.930 . S
C862 H856 0.930 . S
C862 C863 1.355 . S
C862 C864 1.415 . S
C863 C862 1.355 . S
C863 C865 1.419 . S
C864 C862 1.415 . S
C864 C869 1.425 . S
C864 C871 1.409 . S
C865 H857 0.930 . S
C865 C863 1.419 . S
C865 C866 1.362 . S
C866 H858 0.930 . S
C866 C865 1.362 . S
C866 C869 1.409 . S
C867 H859 0.930 . S
C867 C868 1.355 . S
C867 C869 1.415 . S
C868 C867 1.355 . S
C868 C870 1.419 . S
C869 C864 1.425 . S
C869 C866 1.409 . S
C869 C867 1.415 . S
C870 H860 0.930 . S
C870 C868 1.419 . S
C870 C871 1.362 . S
C871 H861 0.930 . S
C871 C864 1.409 . S
C871 C870 1.362 . S
H872 C878 0.930 1_565 S
H873 C881 0.930 . S
H874 C882 0.930 . S
H875 C883 0.930 . S
H876 C886 0.930 . S
H877 C887 0.930 . S
C878 H872 0.930 1_545 S
C878 C879 1.355 . S
C878 C880 1.415 . S
C879 C878 1.355 . S
C879 C881 1.419 . S
C880 C878 1.415 . S
C880 C885 1.425 . S
C880 C887 1.409 . S
C881 H873 0.930 . S
C881 C879 1.419 . S
C881 C882 1.362 . S
C882 H874 0.930 . S
C882 C881 1.362 . S
C882 C885 1.409 . S
C883 H875 0.930 . S
C883 C884 1.355 . S
C883 C885 1.415 . S
C884 C883 1.355 . S
C884 C886 1.419 . S
C885 C880 1.425 . S
C885 C882 1.409 . S
C885 C883 1.415 . S
C886 H876 0.930 . S
C886 C884 1.419 . S
C886 C887 1.362 . S
C887 H877 0.930 . S
C887 C880 1.409 . S
C887 C886 1.362 . S
C415 C339 0.579 . S
C420 C33 0.634 . S
C431 C67 1.209 . S
C436 C373 1.206 . S
C447 C407 0.752 . S
C452 C101 0.619 . S
C463 C135 0.584 . S
C468 C237 0.704 . S
C479 C169 1.010 . S
C484 C271 0.991 . S
C495 C305 0.596 . S
C500 C203 0.655 . S
C511 C9 1.498 . S
C516 C138 1.508 . S
C527 C172 2.094 . S
C532 C43 2.005 . S
C543 C77 1.831 . S
C548 C2 1.948 . S
C559 C111 1.557 . S
C564 C36 1.543 . S
C575 C70 1.962 . S
C580 C145 1.812 . S
C591 C104 1.978 . S
C596 C179 1.886 . S
C607 C274 1.976 . S
C612 C213 1.850 . S
C623 C247 1.857 . S
C628 C308 1.948 . S
C639 C342 1.579 . S
C644 C281 1.552 . S
C655 C376 1.943 . S
C660 C315 1.856 . S
C671 C206 2.105 . S
C676 C349 1.933 . S
C687 C383 1.475 . S
C692 C240 1.504 . S
C703 C360 1.513 . S
C708 C20 1.387 . S
C719 C394 1.379 . S
C724 C54 1.523 . S
C735 C88 1.240 . S
C740 C224 1.304 . S
C751 C122 1.422 . S
C756 C258 1.431 . S
C767 C292 1.420 . S
C772 C156 1.449 . S
C783 C190 1.245 . S
C788 C326 1.321 . S
C799 C209 1.274 . S
C804 C5 1.003 . S
C815 C243 0.934 . S
C820 C39 0.966 . S
C831 C73 1.246 . S
C836 C277 1.012 . S
C847 C311 1.183 . S
C852 C107 1.117 . S
C863 C141 0.926 . S
C868 C345 0.931 . S
C879 C379 0.995 . S
C884 C175 1.279 . S
