# Generated by pormake.
# Topology sxb, (6)-cn, num edge types: 1
# Building blocks:
#     Node 0, Type 0, BuildingBlock: BETGAK_clean_sbu_0, # of connection points: 6
#     Node 1, Type 0, BuildingBlock: BETGAK_clean_sbu_0, # of connection points: 6
#     Node 2, Type 0, BuildingBlock: BETGAK_clean_sbu_0, # of connection points: 6
#     Node 3, Type 0, BuildingBlock: BETGAK_clean_sbu_0, # of connection points: 6
#     Edge 4, Type (0, 0), BuildingBlock: CIFDUS_clean_linker_0, # of connection points: 2
#     Edge 5, Type (0, 0), BuildingBlock: CIFDUS_clean_linker_0, # of connection points: 2
#     Edge 6, Type (0, 0), BuildingBlock: CIFDUS_clean_linker_0, # of connection points: 2
#     Edge 7, Type (0, 0), BuildingBlock: CIFDUS_clean_linker_0, # of connection points: 2
#     Edge 8, Type (0, 0), BuildingBlock: CIFDUS_clean_linker_0, # of connection points: 2
#     Edge 9, Type (0, 0), BuildingBlock: CIFDUS_clean_linker_0, # of connection points: 2
#     Edge 10, Type (0, 0), BuildingBlock: CIFDUS_clean_linker_0, # of connection points: 2
#     Edge 11, Type (0, 0), BuildingBlock: CIFDUS_clean_linker_0, # of connection points: 2
#     Edge 12, Type (0, 0), BuildingBlock: CIFDUS_clean_linker_0, # of connection points: 2
#     Edge 13, Type (0, 0), BuildingBlock: CIFDUS_clean_linker_0, # of connection points: 2
#     Edge 14, Type (0, 0), BuildingBlock: CIFDUS_clean_linker_0, # of connection points: 2
#     Edge 15, Type (0, 0), BuildingBlock: CIFDUS_clean_linker_0, # of connection points: 2
# Relax obj value: 0.528
# Max RMSD: 0.131
# Mean RMSD: 0.090
data_MOF--net-sxb--node1-BETGAK_clean_sbu_0--edge1-CIFDUS_clean_linker_0
_symmetry_space_group_name_H-M    P1
_symmetry_Int_Tables_number       1
_symmetry_cell_setting            triclinic
loop_
_symmetry_equiv_pos_as_xyz
'x, y, z'
_cell_length_a     14.145105
_cell_length_b     31.163971
_cell_length_c     25.717898
_cell_angle_alpha  93.595047
_cell_angle_beta   92.082361
_cell_angle_gamma 62.371562
loop_
_atom_site_label
_atom_site_type_symbol
_atom_site_fract_x
_atom_site_fract_y
_atom_site_fract_z
_atom_type_partial_charge
La0 La 0.9857 1.1183 0.99147 0.0
La1 La 0.1855 0.12022 0.98418 0.0
C2 C 0.82507 0.12922 0.03923 0.0
C3 C 0.8276 1.1017 0.08434 0.0
C4 C 0.88697 1.05113 0.0818 0.0
C5 C 0.90431 1.02505 0.12611 0.0
C6 C 0.86022 1.04839 0.17485 0.0
C7 C 0.80495 1.0996 0.17756 0.0
C8 C 0.78864 0.12582 0.13284 0.0
C9 C 1.04122 1.11495 0.89317 0.0
C10 C 0.98792 0.22201 0.98469 0.0
C11 C 0.37909 1.09351 0.97123 0.0
C12 C 0.45888 1.05202 0.99897 0.0
C13 C 0.42231 1.03065 0.03457 0.0
C14 C 0.49311 0.99558 0.06696 0.0
C15 C 0.60207 0.982 0.06544 0.0
C16 C 0.63988 1.00097 0.02737 0.0
C17 C 0.56845 1.03586 0.99423 0.0
C18 C 0.12552 0.12054 0.08171 0.0
C19 C 0.18257 1.0171 0.979 0.0
O20 O 0.87094 0.15693 0.04863 0.0
O21 O 0.85281 1.10513 0.99383 0.0
O22 O 0.98231 1.09629 0.90856 0.0
O23 O 1.05488 0.13937 0.93103 0.0
O24 O 0.93704 0.1975 0.99773 0.0
O25 O 1.089 0.19785 0.96976 0.0
O26 O 0.31966 0.13085 1.00189 0.0
O27 O 0.32141 1.08286 0.9371 0.0
O28 O 0.17046 0.14549 0.06723 0.0
O29 O 0.11945 1.09584 0.04245 0.0
O30 O 0.22698 1.04312 0.96296 0.0
O31 O 1.08698 1.04003 1.00007 0.0
H32 H 0.92218 1.03134 0.04557 0.0
H33 H 0.94971 0.98613 0.12065 0.0
H34 H 0.77193 0.11965 0.21389 0.0
H35 H 0.74663 0.16508 0.13626 0.0
H36 H 0.33804 1.04329 0.03998 0.0
H37 H 0.46179 0.98204 0.09613 0.0
H38 H 0.72357 0.99192 0.02609 0.0
H39 H 0.59812 1.05202 0.96721 0.0
La40 La 0.15284 1.05543 0.48367 0.0
La41 La 1.06288 0.15774 0.49088 0.0
C42 C 0.26397 0.96752 0.5038 0.0
C43 C 0.25042 0.93017 0.52995 0.0
C44 C 0.26986 0.88693 0.5019 0.0
C45 C 0.2414 0.8543 0.52253 0.0
C46 C 0.19401 0.86417 0.57195 0.0
C47 C 0.18539 0.90501 0.60218 0.0
C48 C 0.21241 0.93804 0.58119 0.0
C49 C 0.11196 1.09254 0.39058 0.0
C50 C 0.9004 1.10936 0.48485 0.0
C51 C 0.96703 0.24735 0.47759 0.0
C52 C 1.01071 0.28143 0.47333 0.0
C53 C 0.9685 0.32491 0.50405 0.0
C54 C 1.02423 0.35203 0.51008 0.0
C55 C 0.12335 0.33556 0.4858 0.0
C56 C 0.16148 0.29384 0.45218 0.0
C57 C 0.10589 0.2669 0.44612 0.0
C58 C 0.10565 0.11908 0.58348 0.0
C59 C 0.31534 1.10462 0.48842 0.0
O60 O 0.20995 0.98186 0.46043 0.0
O61 O 0.26125 1.00385 0.53323 0.0
O62 O 0.10181 1.05513 0.40238 0.0
O63 O 0.14983 1.10621 0.42975 0.0
O64 O 0.98578 1.06751 0.49421 0.0
O65 O 0.91563 0.14777 0.47749 0.0
O66 O 0.98191 0.22888 0.52313 0.0
O67 O 0.98907 0.21425 0.43959 0.0
O68 O 0.12379 0.15415 0.57087 0.0
O69 O 1.06454 1.10695 0.54452 0.0
O70 O 0.22938 0.14724 0.4843 0.0
O71 O 0.3011 1.06535 0.49094 0.0
H72 H 0.30098 0.8798 0.46266 0.0
H73 H 0.24851 0.82352 0.49784 0.0
H74 H 0.15119 0.9131 0.64078 0.0
H75 H 0.19863 0.97072 0.60416 0.0
H76 H 0.89603 0.33623 0.52593 0.0
H77 H 0.99318 0.38409 0.53622 0.0
H78 H 0.23675 0.2809 0.43225 0.0
H79 H 0.14079 0.23327 0.42251 0.0
La80 La 0.49757 0.61521 0.99142 0.0
La81 La 0.68642 0.62237 0.96028 0.0
C82 C 0.36868 0.60262 0.04547 0.0
C83 C 0.29209 0.63632 0.08415 0.0
C84 C 0.3072 0.67482 0.10685 0.0
C85 C 0.22353 0.71451 0.13187 0.0
C86 C 0.12138 0.71751 0.13165 0.0
C87 C 0.1109 0.67565 0.11571 0.0
C88 C 0.19575 0.63542 0.09173 0.0
C89 C 0.51485 0.61793 0.88872 0.0
C90 C 0.4665 0.72142 0.98393 0.0
C91 C 0.80816 0.64284 0.90951 0.0
C92 C 0.81486 0.68799 0.90372 0.0
C93 C 0.91402 0.68745 0.90985 0.0
C94 C 0.91914 0.73066 0.92108 0.0
C95 C 0.82479 0.77482 0.92754 0.0
C96 C 0.72692 0.77594 0.9139 0.0
C97 C 0.72207 0.73269 0.90147 0.0
C98 C 0.67423 0.61707 0.06237 0.0
C99 C 0.71744 0.51624 0.97076 0.0
O100 O 0.34855 0.61643 0.9975 0.0
O101 O 0.46929 0.58729 0.05795 0.0
O102 O 0.42491 0.63651 0.91334 0.0
O103 O 0.58839 0.59586 0.92097 0.0
O104 O 0.42842 0.69434 1.00357 0.0
O105 O 0.56314 0.7004 0.96281 0.0
O106 O 0.72345 0.64116 0.88963 0.0
O107 O 0.8304 0.62613 0.95625 0.0
O108 O 0.76222 0.59792 0.03606 0.0
O109 O 0.59765 0.64089 0.03186 0.0
O110 O 0.75754 0.54277 0.9513 0.0
O111 O 0.61926 0.53749 0.99002 0.0
H112 H 0.38002 0.67659 0.10037 0.0
H113 H 0.2348 0.74572 0.14426 0.0
H114 H 1.03372 0.67623 0.115 0.0
H115 H 0.18268 0.6059 0.07467 0.0
H116 H 0.98669 0.65337 0.91101 0.0
H117 H 0.99607 0.72847 0.93167 0.0
H118 H 0.65373 0.80947 0.91831 0.0
H119 H 0.64503 0.73391 0.89463 0.0
La120 La 0.59776 0.59722 0.47109 0.0
La121 La 0.52335 0.67005 0.48183 0.0
C122 C 0.69722 0.50555 0.47522 0.0
C123 C 0.67334 0.47187 0.50211 0.0
C124 C 0.70846 0.42465 0.48063 0.0
C125 C 0.6601 0.39706 0.49497 0.0
C126 C 0.5755 0.41677 0.53063 0.0
C127 C 0.54852 0.46214 0.55606 0.0
C128 C 0.59694 0.48964 0.54174 0.0
C129 C 0.59115 0.62395 0.37351 0.0
C130 C 0.35011 0.63893 0.4671 0.0
C131 C 0.50946 0.75411 0.48075 0.0
C132 C 0.57899 0.77388 0.50381 0.0
C133 C 0.56357 0.79388 0.55529 0.0
C134 C 0.63805 0.80653 0.57917 0.0
C135 C 0.72899 0.7992 0.55196 0.0
C136 C 0.74172 0.7813 0.49986 0.0
C137 C 0.66698 0.76919 0.47588 0.0
C138 C 0.49612 0.64728 0.57657 0.0
C139 C 0.76292 0.64237 0.46051 0.0
O140 O 0.62738 0.52844 0.43974 0.0
O141 O 0.7203 0.5351 0.50416 0.0
O142 O 0.6755 0.59449 0.39765 0.0
O143 O 0.51371 0.64056 0.40482 0.0
O144 O 0.43626 0.60097 0.48286 0.0
O145 O 0.36835 0.6748 0.45551 0.0
O146 O 0.45935 0.74186 0.51324 0.0
O147 O 0.55041 0.721 0.44335 0.0
O148 O 0.42308 0.67949 0.54874 0.0
O149 O 0.58161 0.62664 0.55064 0.0
O150 O 0.70575 0.63117 0.49133 0.0
O151 O 0.70904 0.63033 0.49346 0.0
H152 H 0.76679 0.41068 0.44968 0.0
H153 H 0.68223 0.36228 0.47459 0.0
H154 H 0.4844 0.47785 0.58411 0.0
H155 H 0.56843 0.52627 0.55849 0.0
H156 H 0.4955 0.7986 0.57753 0.0
H157 H 0.62584 0.82103 0.61915 0.0
H158 H 0.80949 0.77681 0.47751 0.0
H159 H 0.67975 0.75492 0.43583 0.0
H160 H 0.51085 0.79168 0.94641 0.0
H161 H 0.27109 0.77652 0.03032 0.0
H162 H 0.16256 0.86474 0.03653 0.0
H163 H 0.13331 0.94782 0.01738 0.0
H164 H 0.37547 0.96136 0.9329 0.0
H165 H 0.48201 0.87375 0.927 0.0
C166 C 0.43499 0.80735 0.96586 0.0
C167 C 0.40058 0.77636 0.98758 0.0
C168 C 0.37179 0.85868 0.96897 0.0
C169 C 0.30097 0.79856 0.01293 0.0
C170 C 0.23819 0.84942 0.01646 0.0
C171 C 0.20928 0.93164 0.99751 0.0
C172 C 0.24491 0.96219 0.9754 0.0
C173 C 0.27228 0.88012 0.99445 0.0
C174 C 0.34452 0.9397 0.95028 0.0
C175 C 0.40647 0.88906 0.94697 0.0
H176 H 0.66078 0.44853 1.00352 0.0
H177 H 0.92232 0.45932 0.93515 0.0
H178 H 1.02887 0.37103 0.93339 0.0
H179 H 1.04951 0.28913 0.95132 0.0
H180 H 0.78522 0.27994 0.01917 0.0
H181 H 0.68057 0.36774 0.02087 0.0
C182 C 0.74103 0.43178 0.98813 0.0
C183 C 0.78234 0.46147 0.96946 0.0
C184 C 0.80261 0.38045 0.98709 0.0
C185 C 0.88717 0.43817 0.9498 0.0
C186 C 0.94871 0.38729 0.94879 0.0
C187 C 0.96911 0.30624 0.96653 0.0
C188 C 0.9265 0.27689 0.98505 0.0
C189 C 0.90761 0.35778 0.96736 0.0
C190 C 0.82145 0.30063 1.00444 0.0
C191 C 0.76082 0.35131 1.00552 0.0
H192 H 0.33319 0.2912 0.51022 0.0
H193 H 1.0656 0.43249 0.49134 0.0
H194 H 0.1816 0.47048 0.50985 0.0
H195 H 0.36077 0.46259 0.52423 0.0
H196 H 0.62958 0.32111 0.54028 0.0
H197 H 0.51086 0.28373 0.52975 0.0
C198 C 0.30045 0.33031 0.50989 0.0
C199 C 0.1916 0.35908 0.49863 0.0
C200 C 0.36751 0.35165 0.52011 0.0
C201 C 0.14931 0.40973 0.49975 0.0
C202 C 0.21554 0.43136 0.51022 0.0
C203 C 0.39306 0.42369 0.52688 0.0
C204 C 0.50358 0.39457 0.53337 0.0
C205 C 0.32491 0.40257 0.51974 0.0
C206 C 0.5447 0.34413 0.53533 0.0
C207 C 0.47702 0.32283 0.52914 0.0
H208 H 0.99924 0.9036 0.61614 0.0
H209 H 0.25189 0.76699 0.55777 0.0
H210 H 0.12973 0.73145 0.55419 0.0
H211 H 0.94384 0.74491 0.5515 0.0
H212 H 0.69167 0.88317 0.6062 0.0
H213 H 0.82208 0.91207 0.62917 0.0
C214 C 1.02935 0.86546 0.60472 0.0
C215 C 0.13411 0.83824 0.58615 0.0
C216 C 0.95809 0.84588 0.60143 0.0
C217 C 0.17095 0.78895 0.57117 0.0
C218 C 0.10104 0.76871 0.56895 0.0
C219 C 0.91807 0.78103 0.56941 0.0
C220 C 0.80863 0.81236 0.57623 0.0
C221 C 0.9931 0.79775 0.58121 0.0
C222 C 0.77563 0.85862 0.60044 0.0
C223 C 0.85004 0.87521 0.61323 0.0
H224 H 0.55414 1.0089 0.16611 0.0
H225 H 0.80437 0.90802 0.06529 0.0
H226 H 0.93759 0.89845 0.13274 0.0
H227 H 0.97969 0.94883 0.19625 0.0
H228 H 0.72732 1.07556 0.26554 0.0
H229 H 0.60144 1.04379 0.24491 0.0
C230 C 0.63717 0.98267 0.1602 0.0
C231 C 0.67056 0.95923 0.11078 0.0
C232 C 0.71352 0.98361 0.19565 0.0
C233 C 0.778 0.92561 0.10331 0.0
C234 C 0.85398 0.92092 0.14177 0.0
C235 C 0.89634 0.96909 0.20705 0.0
C236 C 0.85397 1.01936 0.21838 0.0
C237 C 0.82341 0.95426 0.18481 0.0
C238 C 0.75677 1.04018 0.24562 0.0
C239 C 0.68391 1.02226 0.23327 0.0
H240 H 0.39102 0.17398 0.47742 0.0
H241 H 0.50581 1.02195 0.50066 0.0
H242 H 0.68948 1.00938 0.50179 0.0
H243 H 0.82414 1.04041 0.49627 0.0
H244 H 0.70985 0.19226 0.4723 0.0
H245 H 0.52596 0.20499 0.47148 0.0
C246 C 0.45573 0.13796 0.48279 0.0
C247 C 0.43045 1.09909 0.48898 0.0
C248 C 0.5646 0.1305 0.48327 0.0
C249 C 0.51891 1.05303 0.49571 0.0
C250 C 0.62574 1.04562 0.49639 0.0
C251 C 0.75953 1.07642 0.49078 0.0
C252 C 0.78504 1.11514 0.48428 0.0
C253 C 0.65068 1.0839 0.49019 0.0
C254 C 0.69664 0.16122 0.47734 0.0
C255 C 0.58967 0.16874 0.4769 0.0
H256 H 0.72521 0.80406 0.01933 0.0
H257 H 0.93789 0.82623 0.92174 0.0
H258 H 1.04048 0.83099 0.99802 0.0
H259 H 0.10797 0.79335 0.08021 0.0
H260 H 0.91748 0.75092 0.1706 0.0
H261 H 0.76576 0.79218 0.1123 0.0
C262 C 0.79024 0.81289 0.01519 0.0
C263 C 0.82847 0.81186 0.96511 0.0
C264 C 0.85572 0.80968 0.05848 0.0
C265 C 0.90948 0.82533 0.96001 0.0
C266 C 0.96969 0.82685 1.00365 0.0
C267 C 1.03202 0.79486 0.08881 0.0
C268 C 1.02629 0.76558 0.12691 0.0
C269 C 0.95035 0.81335 0.05163 0.0
C270 C 0.9253 0.77111 0.1397 0.0
C271 C 0.83916 0.79386 0.10563 0.0
H272 H 0.25553 0.58948 0.51771 0.0
H273 H 0.18547 0.69876 0.40674 0.0
H274 H 1.00453 0.70891 0.39592 0.0
H275 H 0.86344 0.68648 0.41522 0.0
H276 H 0.92121 0.58304 0.53102 0.0
H277 H 0.10567 0.57099 0.54211 0.0
C278 C 0.20099 0.61542 0.49098 0.0
C279 C 0.23759 0.64283 0.46251 0.0
C280 C 1.09291 0.62231 0.48568 0.0
C281 C 0.1626 0.67675 0.42905 0.0
C282 C 1.05786 0.68269 0.42276 0.0
C283 C 0.91559 0.66163 0.4435 0.0
C284 C 0.87572 0.63608 0.47229 0.0
C285 C 1.02168 0.65571 0.45055 0.0
C286 C 0.94693 0.60384 0.50839 0.0
C287 C 1.05361 0.59677 0.51459 0.0
H288 H 1.08011 1.04904 0.30097 0.0
H289 H 0.14838 0.16522 0.35659 0.0
H290 H 0.15573 0.18518 0.26658 0.0
H291 H 0.14643 0.16842 0.1712 0.0
H292 H 1.08546 1.04993 0.11658 0.0
H293 H 1.07346 1.03167 0.20649 0.0
C294 C 1.09631 1.07886 0.29348 0.0
C295 C 0.11342 1.10567 0.33576 0.0
C296 C 0.10195 1.08967 0.24147 0.0
C297 C 0.13463 0.14405 0.32502 0.0
C298 C 0.13901 0.15542 0.27342 0.0
C299 C 0.12967 0.13884 0.17902 0.0
C300 C 0.11543 1.11096 0.13693 0.0
C301 C 0.12328 0.12836 0.23121 0.0
C302 C 1.09478 1.07251 0.14796 0.0
C303 C 1.08816 1.06197 0.19949 0.0
H304 H 1.00177 1.07075 0.80493 0.0
H305 H 0.13487 0.16594 0.85635 0.0
H306 H 0.17014 0.17401 0.76616 0.0
H307 H 0.15879 0.15627 0.67202 0.0
H308 H 1.02705 1.06092 0.61946 0.0
H309 H 0.99692 1.05031 0.71001 0.0
C310 C 1.03867 1.09317 0.79635 0.0
C311 C 1.06475 1.11803 0.83765 0.0
C312 C 1.05925 1.09759 0.74392 0.0
C313 C 0.11328 0.14662 0.82562 0.0
C314 C 0.13363 0.15124 0.77388 0.0
C315 C 0.12406 0.13291 0.68033 0.0
C316 C 1.09489 1.10959 0.63872 0.0
C317 C 0.10635 0.12722 0.73263 0.0
C318 C 1.05021 1.07937 0.6505 0.0
C319 C 1.03265 1.07341 0.70241 0.0
H320 H 0.73911 0.56735 0.30121 0.0
H321 H 0.43259 0.69382 0.31538 0.0
H322 H 0.4307 0.70421 0.22117 0.0
H323 H 0.52202 0.67863 0.13444 0.0
H324 H 0.82075 0.54786 0.12147 0.0
H325 H 0.82214 0.53895 0.2151 0.0
C326 C 0.67147 0.59717 0.28379 0.0
C327 C 0.58616 0.62984 0.31575 0.0
C328 C 0.67027 0.60237 0.22947 0.0
C329 C 0.49923 0.66805 0.29202 0.0
C330 C 0.4984 0.67405 0.23802 0.0
C331 C 0.58476 0.64713 0.15173 0.0
C332 C 0.66934 0.61311 0.12008 0.0
C333 C 0.5837 0.64145 0.20617 0.0
C334 C 0.75418 0.57445 0.14431 0.0
C335 C 0.75495 0.56922 0.19808 0.0
H336 H 0.64998 0.59474 0.64968 0.0
H337 H 0.31522 0.69399 0.63358 0.0
H338 H 0.29061 0.69372 0.72692 0.0
H339 H 0.36342 0.6665 0.81465 0.0
H340 H 0.69764 0.56742 0.83188 0.0
H341 H 0.72276 0.56658 0.73803 0.0
C342 C 0.57165 0.61617 0.66659 0.0
C343 C 0.48469 0.64447 0.63406 0.0
C344 C 0.55772 0.61607 0.72113 0.0
C345 C 0.38388 0.67196 0.65716 0.0
C346 C 0.36956 0.67186 0.71086 0.0
C347 C 0.44176 0.64463 0.7979 0.0
C348 C 0.52853 0.61724 0.83084 0.0
C349 C 0.45577 0.64427 0.74344 0.0
C350 C 0.62933 0.58916 0.80795 0.0
C351 C 0.64379 0.58857 0.754 0.0
loop_
_geom_bond_atom_site_label_1
_geom_bond_atom_site_label_2
_geom_bond_distance
_geom_bond_site_symmetry_2
_ccdc_geom_bond_type
La0 C2 2.928 1_565 S
La0 O20 2.521 . S
La0 O21 2.628 1_566 S
La0 O22 2.554 . S
La0 O23 2.757 1_655 S
La0 O24 2.470 1_565 S
La0 O29 2.482 1_566 S
La0 O31 2.503 1_655 S
La1 C11 2.928 1_545 S
La1 O23 2.482 1_544 S
La1 O25 2.503 1_455 S
La1 O26 2.521 . S
La1 O27 2.628 1_544 S
La1 O28 2.554 . S
La1 O29 2.757 1_455 S
La1 O30 2.470 1_545 S
C2 La0 2.928 1_545 S
C2 C3 1.503 . S
C2 O20 1.261 1_545 S
C2 O21 1.243 1_556 S
C3 C2 1.503 . S
C3 C4 1.394 . S
C3 C8 1.373 1_556 S
C4 C3 1.394 . S
C4 C5 1.380 . S
C4 H32 0.930 1_545 S
C5 C4 1.380 . S
C5 C6 1.376 . S
C5 H33 0.930 . S
C6 C5 1.376 . S
C6 C7 1.370 1_556 S
C7 C6 1.370 1_554 S
C7 C8 1.396 . S
C7 H34 0.929 . S
C8 C3 1.373 1_554 S
C8 C7 1.396 . S
C8 H35 0.929 . S
C9 O22 1.240 . S
C9 O23 1.289 1_655 S
C10 O24 1.258 . S
C10 O25 1.256 1_556 S
C11 La1 2.928 1_565 S
C11 C12 1.503 . S
C11 O26 1.261 1_565 S
C11 O27 1.243 1_554 S
C12 C11 1.503 . S
C12 C13 1.394 . S
C12 C17 1.373 1_554 S
C13 C12 1.394 . S
C13 C14 1.380 . S
C13 H36 0.930 1_565 S
C14 C13 1.380 . S
C14 C15 1.376 . S
C14 H37 0.930 . S
C15 C14 1.376 . S
C15 C16 1.370 1_554 S
C16 C15 1.370 1_556 S
C16 C17 1.396 . S
C16 H38 0.929 . S
C17 C12 1.373 1_556 S
C17 C16 1.396 . S
C17 H39 0.929 . S
C18 O28 1.240 . S
C18 O29 1.289 1_455 S
C19 O30 1.258 . S
C19 O31 1.256 1_554 S
O20 La0 2.521 . S
O20 C2 1.261 1_565 S
O21 La0 2.628 1_544 S
O21 C2 1.243 1_554 S
O22 La0 2.554 . S
O22 C9 1.240 . S
O23 La0 2.757 1_455 S
O23 La1 2.482 1_566 S
O23 C9 1.289 1_455 S
O24 La0 2.470 1_545 S
O24 C10 1.258 . S
O25 La1 2.503 1_655 S
O25 C10 1.256 1_554 S
O26 La1 2.521 . S
O26 C11 1.261 1_545 S
O27 La1 2.628 1_566 S
O27 C11 1.243 1_556 S
O28 La1 2.554 . S
O28 C18 1.240 . S
O29 La0 2.482 1_544 S
O29 La1 2.757 1_655 S
O29 C18 1.289 1_655 S
O30 La1 2.470 1_565 S
O30 C19 1.258 . S
O31 La0 2.503 1_455 S
O31 C19 1.256 1_556 S
H32 C4 0.930 1_565 S
H33 C5 0.930 . S
H34 C7 0.929 . S
H35 C8 0.929 . S
H36 C13 0.930 1_545 S
H37 C14 0.930 . S
H38 C16 0.929 . S
H39 C17 0.929 . S
La40 C42 2.928 1_455 S
La40 O60 2.521 1_455 S
La40 O61 2.628 1_455 S
La40 O62 2.554 . S
La40 O63 2.757 1_565 S
La40 O64 2.470 1_455 S
La40 O69 2.482 1_455 S
La40 O71 2.503 . S
La41 C51 2.928 1_655 S
La41 O63 2.482 1_655 S
La41 O65 2.503 . S
La41 O66 2.521 1_655 S
La41 O67 2.628 1_655 S
La41 O68 2.554 . S
La41 O69 2.757 1_545 S
La41 O70 2.470 1_655 S
C42 La40 2.928 1_655 S
C42 C43 1.503 . S
C42 O60 1.261 . S
C42 O61 1.243 . S
C43 C42 1.503 . S
C43 C44 1.394 . S
C43 C48 1.373 . S
C44 C43 1.394 . S
C44 C45 1.380 . S
C44 H72 0.930 . S
C45 C44 1.380 . S
C45 C46 1.376 . S
C45 H73 0.930 . S
C46 C45 1.376 . S
C46 C47 1.370 . S
C47 C46 1.370 . S
C47 C48 1.396 . S
C47 H74 0.929 . S
C48 C43 1.373 . S
C48 C47 1.396 . S
C48 H75 0.929 . S
C49 O62 1.240 . S
C49 O63 1.289 1_565 S
C50 O64 1.258 1_545 S
C50 O65 1.256 . S
C51 La41 2.928 1_455 S
C51 C52 1.503 . S
C51 O66 1.261 . S
C51 O67 1.243 . S
C52 C51 1.503 . S
C52 C53 1.394 . S
C52 C57 1.373 . S
C53 C52 1.394 . S
C53 C54 1.380 . S
C53 H76 0.930 . S
C54 C53 1.380 . S
C54 C55 1.376 . S
C54 H77 0.930 . S
C55 C54 1.376 . S
C55 C56 1.370 . S
C56 C55 1.370 . S
C56 C57 1.396 . S
C56 H78 0.929 . S
C57 C52 1.373 . S
C57 C56 1.396 . S
C57 H79 0.929 . S
C58 O68 1.240 . S
C58 O69 1.289 1_545 S
C59 O70 1.258 1_565 S
C59 O71 1.256 . S
O60 La40 2.521 1_655 S
O60 C42 1.261 . S
O61 La40 2.628 1_655 S
O61 C42 1.243 . S
O62 La40 2.554 . S
O62 C49 1.240 . S
O63 La40 2.757 1_545 S
O63 La41 2.482 1_455 S
O63 C49 1.289 1_545 S
O64 La40 2.470 1_655 S
O64 C50 1.258 1_565 S
O65 La41 2.503 . S
O65 C50 1.256 . S
O66 La41 2.521 1_455 S
O66 C51 1.261 . S
O67 La41 2.628 1_455 S
O67 C51 1.243 . S
O68 La41 2.554 . S
O68 C58 1.240 . S
O69 La40 2.482 1_655 S
O69 La41 2.757 1_565 S
O69 C58 1.289 1_565 S
O70 La41 2.470 1_455 S
O70 C59 1.258 1_545 S
O71 La40 2.503 . S
O71 C59 1.256 . S
H72 C44 0.930 . S
H73 C45 0.930 . S
H74 C47 0.929 . S
H75 C48 0.929 . S
H76 C53 0.930 . S
H77 C54 0.930 . S
H78 C56 0.929 . S
H79 C57 0.929 . S
La80 C82 2.928 . S
La80 O100 2.521 . S
La80 O101 2.628 1_556 S
La80 O102 2.554 . S
La80 O103 2.757 . S
La80 O104 2.470 . S
La80 O109 2.482 1_556 S
La80 O111 2.503 . S
La81 C91 2.928 . S
La81 O103 2.482 1_554 S
La81 O105 2.503 . S
La81 O106 2.521 . S
La81 O107 2.628 1_554 S
La81 O108 2.554 . S
La81 O109 2.757 . S
La81 O110 2.470 . S
C82 La80 2.928 . S
C82 C83 1.503 . S
C82 O100 1.261 . S
C82 O101 1.243 1_556 S
C83 C82 1.503 . S
C83 C84 1.394 . S
C83 C88 1.373 1_556 S
C84 C83 1.394 . S
C84 C85 1.380 . S
C84 H112 0.930 . S
C85 C84 1.380 . S
C85 C86 1.376 . S
C85 H113 0.930 . S
C86 C85 1.376 . S
C86 C87 1.370 1_556 S
C87 C86 1.370 1_554 S
C87 C88 1.396 . S
C87 H114 0.929 . S
C88 C83 1.373 1_554 S
C88 C87 1.396 . S
C88 H115 0.929 . S
C89 O102 1.240 . S
C89 O103 1.289 . S
C90 O104 1.258 . S
C90 O105 1.256 1_556 S
C91 La81 2.928 . S
C91 C92 1.503 . S
C91 O106 1.261 . S
C91 O107 1.243 1_554 S
C92 C91 1.503 . S
C92 C93 1.394 . S
C92 C97 1.373 1_554 S
C93 C92 1.394 . S
C93 C94 1.380 . S
C93 H116 0.930 . S
C94 C93 1.380 . S
C94 C95 1.376 . S
C94 H117 0.930 . S
C95 C94 1.376 . S
C95 C96 1.370 1_554 S
C96 C95 1.370 1_556 S
C96 C97 1.396 . S
C96 H118 0.929 . S
C97 C92 1.373 1_556 S
C97 C96 1.396 . S
C97 H119 0.929 . S
C98 O108 1.240 . S
C98 O109 1.289 . S
C99 O110 1.258 . S
C99 O111 1.256 1_554 S
O100 La80 2.521 . S
O100 C82 1.261 . S
O101 La80 2.628 1_554 S
O101 C82 1.243 1_554 S
O102 La80 2.554 . S
O102 C89 1.240 . S
O103 La80 2.757 . S
O103 La81 2.482 1_556 S
O103 C89 1.289 . S
O104 La80 2.470 . S
O104 C90 1.258 . S
O105 La81 2.503 . S
O105 C90 1.256 1_554 S
O106 La81 2.521 . S
O106 C91 1.261 . S
O107 La81 2.628 1_556 S
O107 C91 1.243 1_556 S
O108 La81 2.554 . S
O108 C98 1.240 . S
O109 La80 2.482 1_554 S
O109 La81 2.757 . S
O109 C98 1.289 . S
O110 La81 2.470 . S
O110 C99 1.258 . S
O111 La80 2.503 . S
O111 C99 1.256 1_556 S
H112 C84 0.930 . S
H113 C85 0.930 . S
H114 C87 0.929 . S
H115 C88 0.929 . S
H116 C93 0.930 . S
H117 C94 0.930 . S
H118 C96 0.929 . S
H119 C97 0.929 . S
La120 C122 2.928 . S
La120 O140 2.521 . S
La120 O141 2.628 . S
La120 O142 2.554 . S
La120 O143 2.757 . S
La120 O144 2.470 . S
La120 O149 2.482 . S
La120 O151 2.503 . S
La121 C131 2.928 . S
La121 O143 2.482 . S
La121 O145 2.503 . S
La121 O146 2.521 . S
La121 O147 2.628 . S
La121 O148 2.554 . S
La121 O149 2.757 . S
La121 O150 2.470 . S
C122 La120 2.928 . S
C122 C123 1.503 . S
C122 O140 1.261 . S
C122 O141 1.243 . S
C123 C122 1.503 . S
C123 C124 1.394 . S
C123 C128 1.373 . S
C124 C123 1.394 . S
C124 C125 1.380 . S
C124 H152 0.930 . S
C125 C124 1.380 . S
C125 C126 1.376 . S
C125 H153 0.930 . S
C126 C125 1.376 . S
C126 C127 1.370 . S
C127 C126 1.370 . S
C127 C128 1.396 . S
C127 H154 0.929 . S
C128 C123 1.373 . S
C128 C127 1.396 . S
C128 H155 0.929 . S
C129 O142 1.240 . S
C129 O143 1.289 . S
C130 O144 1.258 . S
C130 O145 1.256 . S
C131 La121 2.928 . S
C131 C132 1.503 . S
C131 O146 1.261 . S
C131 O147 1.243 . S
C132 C131 1.503 . S
C132 C133 1.394 . S
C132 C137 1.373 . S
C133 C132 1.394 . S
C133 C134 1.380 . S
C133 H156 0.930 . S
C134 C133 1.380 . S
C134 C135 1.376 . S
C134 H157 0.930 . S
C135 C134 1.376 . S
C135 C136 1.370 . S
C136 C135 1.370 . S
C136 C137 1.396 . S
C136 H158 0.929 . S
C137 C132 1.373 . S
C137 C136 1.396 . S
C137 H159 0.929 . S
C138 O148 1.240 . S
C138 O149 1.289 . S
C139 O150 1.258 . S
C139 O151 1.256 . S
O140 La120 2.521 . S
O140 C122 1.261 . S
O141 La120 2.628 . S
O141 C122 1.243 . S
O142 La120 2.554 . S
O142 C129 1.240 . S
O143 La120 2.757 . S
O143 La121 2.482 . S
O143 C129 1.289 . S
O144 La120 2.470 . S
O144 C130 1.258 . S
O145 La121 2.503 . S
O145 C130 1.256 . S
O146 La121 2.521 . S
O146 C131 1.261 . S
O147 La121 2.628 . S
O147 C131 1.243 . S
O148 La121 2.554 . S
O148 C138 1.240 . S
O149 La120 2.482 . S
O149 La121 2.757 . S
O149 C138 1.289 . S
O150 La121 2.470 . S
O150 C139 1.258 . S
O151 La120 2.503 . S
O151 C139 1.256 . S
H152 C124 0.930 . S
H153 C125 0.930 . S
H154 C127 0.929 . S
H155 C128 0.929 . S
H156 C133 0.930 . S
H157 C134 0.930 . S
H158 C136 0.929 . S
H159 C137 0.929 . S
H160 C166 0.930 . S
H161 C169 0.930 . S
H162 C170 0.930 . S
H163 C171 0.930 . S
H164 C174 0.930 . S
H165 C175 0.930 . S
C166 H160 0.930 . S
C166 C167 1.355 1_554 S
C166 C168 1.415 . S
C167 C166 1.355 1_556 S
C167 C169 1.419 . S
C168 C166 1.415 . S
C168 C173 1.425 1_554 S
C168 C175 1.409 . S
C169 H161 0.930 . S
C169 C167 1.419 . S
C169 C170 1.362 . S
C170 H162 0.930 . S
C170 C169 1.362 . S
C170 C173 1.409 . S
C171 H163 0.930 . S
C171 C172 1.355 1_556 S
C171 C173 1.415 . S
C172 C171 1.355 1_554 S
C172 C174 1.419 . S
C173 C168 1.425 1_556 S
C173 C170 1.409 . S
C173 C171 1.415 . S
C174 H164 0.930 . S
C174 C172 1.419 . S
C174 C175 1.362 . S
C175 H165 0.930 . S
C175 C168 1.409 . S
C175 C174 1.362 . S
H176 C182 0.930 . S
H177 C185 0.930 . S
H178 C186 0.930 . S
H179 C187 0.930 . S
H180 C190 0.930 . S
H181 C191 0.930 . S
C182 H176 0.930 . S
C182 C183 1.356 . S
C182 C184 1.415 . S
C183 C182 1.356 . S
C183 C185 1.418 1_554 S
C184 C182 1.415 . S
C184 C189 1.425 1_554 S
C184 C191 1.409 . S
C185 H177 0.930 . S
C185 C183 1.418 1_556 S
C185 C186 1.362 . S
C186 H178 0.930 . S
C186 C185 1.362 . S
C186 C189 1.409 . S
C187 H179 0.930 . S
C187 C188 1.355 . S
C187 C189 1.415 . S
C188 C187 1.355 . S
C188 C190 1.419 1_556 S
C189 C184 1.425 1_556 S
C189 C186 1.409 . S
C189 C187 1.415 . S
C190 H180 0.930 . S
C190 C188 1.419 1_554 S
C190 C191 1.362 . S
C191 H181 0.930 . S
C191 C184 1.409 . S
C191 C190 1.362 . S
H192 C198 0.930 . S
H193 C201 0.930 . S
H194 C202 0.930 . S
H195 C203 0.930 . S
H196 C206 0.930 . S
H197 C207 0.930 . S
C198 H192 0.930 . S
C198 C199 1.355 . S
C198 C200 1.415 . S
C199 C198 1.355 . S
C199 C201 1.419 . S
C200 C198 1.415 . S
C200 C205 1.425 . S
C200 C207 1.409 . S
C201 H193 0.930 . S
C201 C199 1.419 . S
C201 C202 1.362 . S
C202 H194 0.930 . S
C202 C201 1.362 . S
C202 C205 1.409 . S
C203 H195 0.930 . S
C203 C204 1.355 . S
C203 C205 1.415 . S
C204 C203 1.355 . S
C204 C206 1.419 . S
C205 C200 1.425 . S
C205 C202 1.409 . S
C205 C203 1.415 . S
C206 H196 0.930 . S
C206 C204 1.419 . S
C206 C207 1.362 . S
C207 H197 0.930 . S
C207 C200 1.409 . S
C207 C206 1.362 . S
H208 C214 0.930 . S
H209 C217 0.930 . S
H210 C218 0.930 . S
H211 C219 0.930 . S
H212 C222 0.930 . S
H213 C223 0.930 . S
C214 H208 0.930 . S
C214 C215 1.355 . S
C214 C216 1.415 . S
C215 C214 1.355 . S
C215 C217 1.419 . S
C216 C214 1.415 . S
C216 C221 1.425 . S
C216 C223 1.409 . S
C217 H209 0.930 . S
C217 C215 1.419 . S
C217 C218 1.362 . S
C218 H210 0.930 . S
C218 C217 1.362 . S
C218 C221 1.409 . S
C219 H211 0.930 . S
C219 C220 1.355 . S
C219 C221 1.415 . S
C220 C219 1.355 . S
C220 C222 1.419 . S
C221 C216 1.425 . S
C221 C218 1.409 . S
C221 C219 1.415 . S
C222 H212 0.930 . S
C222 C220 1.419 . S
C222 C223 1.362 . S
C223 H213 0.930 . S
C223 C216 1.409 . S
C223 C222 1.362 . S
H224 C230 0.930 . S
H225 C233 0.929 . S
H226 C234 0.930 . S
H227 C235 0.930 . S
H228 C238 0.930 . S
H229 C239 0.930 . S
C230 H224 0.930 . S
C230 C231 1.355 . S
C230 C232 1.415 . S
C231 C230 1.355 . S
C231 C233 1.419 1_554 S
C232 C230 1.415 . S
C232 C237 1.425 1_564 S
C232 C239 1.409 . S
C233 H225 0.929 . S
C233 C231 1.419 1_556 S
C233 C234 1.364 1_565 S
C234 H226 0.930 . S
C234 C233 1.364 1_545 S
C234 C237 1.409 . S
C235 H227 0.930 . S
C235 C236 1.355 . S
C235 C237 1.415 . S
C236 C235 1.355 . S
C236 C238 1.419 1_556 S
C237 C232 1.425 1_546 S
C237 C234 1.409 . S
C237 C235 1.415 . S
C238 H228 0.930 . S
C238 C236 1.419 1_554 S
C238 C239 1.362 1_545 S
C239 H229 0.930 . S
C239 C232 1.409 . S
C239 C238 1.362 1_565 S
H240 C246 0.930 . S
H241 C249 0.930 . S
H242 C250 0.930 . S
H243 C251 0.930 . S
H244 C254 0.930 . S
H245 C255 0.930 . S
C246 H240 0.930 . S
C246 C247 1.355 1_545 S
C246 C248 1.415 . S
C247 C246 1.355 1_565 S
C247 C249 1.419 . S
C248 C246 1.415 . S
C248 C253 1.425 1_545 S
C248 C255 1.409 . S
C249 H241 0.930 . S
C249 C247 1.419 . S
C249 C250 1.362 . S
C250 H242 0.930 . S
C250 C249 1.362 . S
C250 C253 1.409 . S
C251 H243 0.930 . S
C251 C252 1.355 1_565 S
C251 C253 1.415 . S
C252 C251 1.355 1_545 S
C252 C254 1.419 . S
C253 C248 1.425 1_565 S
C253 C250 1.409 . S
C253 C251 1.415 . S
C254 H244 0.930 . S
C254 C252 1.419 . S
C254 C255 1.362 . S
C255 H245 0.930 . S
C255 C248 1.409 . S
C255 C254 1.362 . S
H256 C262 0.930 . S
H257 C265 0.930 . S
H258 C266 0.930 . S
H259 C267 0.930 . S
H260 C270 0.930 . S
H261 C271 0.930 . S
C262 H256 0.930 . S
C262 C263 1.352 1_554 S
C262 C264 1.415 . S
C263 C262 1.352 1_556 S
C263 C265 1.424 1_655 S
C264 C262 1.415 . S
C264 C269 1.425 1_654 S
C264 C271 1.409 . S
C265 H257 0.930 . S
C265 C263 1.424 1_455 S
C265 C266 1.362 . S
C266 H258 0.930 . S
C266 C265 1.362 . S
C266 C269 1.409 . S
C267 H259 0.930 . S
C267 C268 1.351 1_556 S
C267 C269 1.415 . S
C268 C267 1.351 1_554 S
C268 C270 1.426 1_455 S
C269 C264 1.425 1_456 S
C269 C266 1.409 . S
C269 C267 1.415 . S
C270 H260 0.930 . S
C270 C268 1.426 1_655 S
C270 C271 1.362 . S
C271 H261 0.930 . S
C271 C264 1.409 . S
C271 C270 1.362 . S
H272 C278 0.930 . S
H273 C281 0.930 . S
H274 C282 0.930 1_655 S
H275 C283 0.930 . S
H276 C286 0.930 . S
H277 C287 0.930 1_455 S
C278 H272 0.930 . S
C278 C279 1.355 . S
C278 C280 1.415 . S
C279 C278 1.355 . S
C279 C281 1.419 . S
C280 C278 1.415 . S
C280 C285 1.425 1_455 S
C280 C287 1.409 1_455 S
C281 H273 0.930 . S
C281 C279 1.419 . S
C281 C282 1.362 . S
C282 H274 0.930 1_455 S
C282 C281 1.362 . S
C282 C285 1.409 1_455 S
C283 H275 0.930 . S
C283 C284 1.355 . S
C283 C285 1.415 . S
C284 C283 1.355 . S
C284 C286 1.419 . S
C285 C280 1.425 1_655 S
C285 C282 1.409 1_655 S
C285 C283 1.415 . S
C286 H276 0.930 . S
C286 C284 1.419 . S
C286 C287 1.362 . S
C287 H277 0.930 1_655 S
C287 C280 1.409 1_655 S
C287 C286 1.362 . S
H288 C294 0.930 . S
H289 C297 0.930 . S
H290 C298 0.930 . S
H291 C299 0.930 . S
H292 C302 0.930 . S
H293 C303 0.930 . S
C294 H288 0.930 . S
C294 C295 1.355 1_665 S
C294 C296 1.415 . S
C295 C294 1.355 1_445 S
C295 C297 1.419 . S
C296 C294 1.415 . S
C296 C301 1.425 1_665 S
C296 C303 1.409 . S
C297 H289 0.930 . S
C297 C295 1.419 . S
C297 C298 1.362 . S
C298 H290 0.930 . S
C298 C297 1.362 . S
C298 C301 1.409 . S
C299 H291 0.930 . S
C299 C300 1.363 1_455 S
C299 C301 1.415 . S
C300 C299 1.363 1_655 S
C300 C302 1.408 1_545 S
C301 C296 1.425 1_445 S
C301 C298 1.409 . S
C301 C299 1.415 . S
C302 H292 0.930 . S
C302 C300 1.408 1_565 S
C302 C303 1.362 . S
C303 H293 0.930 . S
C303 C296 1.409 . S
C303 C302 1.362 . S
H304 C310 0.930 . S
H305 C313 0.930 . S
H306 C314 0.930 . S
H307 C315 0.930 . S
H308 C318 0.930 . S
H309 C319 0.930 . S
C310 H304 0.930 . S
C310 C311 1.355 1_655 S
C310 C312 1.415 . S
C311 C310 1.355 1_455 S
C311 C313 1.419 1_565 S
C312 C310 1.415 . S
C312 C317 1.425 1_665 S
C312 C319 1.409 . S
C313 H305 0.930 . S
C313 C311 1.419 1_545 S
C313 C314 1.362 . S
C314 H306 0.930 . S
C314 C313 1.362 . S
C314 C317 1.409 . S
C315 H307 0.930 . S
C315 C316 1.353 1_445 S
C315 C317 1.415 . S
C316 C315 1.353 1_665 S
C316 C318 1.422 . S
C317 C312 1.425 1_445 S
C317 C314 1.409 . S
C317 C315 1.415 . S
C318 H308 0.930 . S
C318 C316 1.422 . S
C318 C319 1.362 . S
C319 H309 0.930 . S
C319 C312 1.409 . S
C319 C318 1.362 . S
H320 C326 0.930 . S
H321 C329 0.930 . S
H322 C330 0.930 . S
H323 C331 0.930 . S
H324 C334 0.930 . S
H325 C335 0.930 . S
C326 H320 0.930 . S
C326 C327 1.355 . S
C326 C328 1.415 . S
C327 C326 1.355 . S
C327 C329 1.419 . S
C328 C326 1.415 . S
C328 C333 1.425 . S
C328 C335 1.409 . S
C329 H321 0.930 . S
C329 C327 1.419 . S
C329 C330 1.362 . S
C330 H322 0.930 . S
C330 C329 1.362 . S
C330 C333 1.409 . S
C331 H323 0.930 . S
C331 C332 1.355 . S
C331 C333 1.415 . S
C332 C331 1.355 . S
C332 C334 1.419 . S
C333 C328 1.425 . S
C333 C330 1.409 . S
C333 C331 1.415 . S
C334 H324 0.930 . S
C334 C332 1.419 . S
C334 C335 1.362 . S
C335 H325 0.930 . S
C335 C328 1.409 . S
C335 C334 1.362 . S
H336 C342 0.930 . S
H337 C345 0.930 . S
H338 C346 0.930 . S
H339 C347 0.930 . S
H340 C350 0.930 . S
H341 C351 0.930 . S
C342 H336 0.930 . S
C342 C343 1.355 . S
C342 C344 1.415 . S
C343 C342 1.355 . S
C343 C345 1.419 . S
C344 C342 1.415 . S
C344 C349 1.425 . S
C344 C351 1.409 . S
C345 H337 0.930 . S
C345 C343 1.419 . S
C345 C346 1.362 . S
C346 H338 0.930 . S
C346 C345 1.362 . S
C346 C349 1.409 . S
C347 H339 0.930 . S
C347 C348 1.355 . S
C347 C349 1.415 . S
C348 C347 1.355 . S
C348 C350 1.419 . S
C349 C344 1.425 . S
C349 C346 1.409 . S
C349 C347 1.415 . S
C350 H340 0.930 . S
C350 C348 1.419 . S
C350 C351 1.362 . S
C351 H341 0.930 . S
C351 C344 1.409 . S
C351 C350 1.362 . S
C167 C90 3.636 . S
C172 C19 3.636 . S
C183 C99 3.650 . S
C188 C10 3.650 . S
C199 C55 0.371 . S
C204 C126 0.371 . S
C215 C46 0.383 . S
C220 C135 0.383 . S
C231 C15 0.871 . S
C236 C6 0.871 . S
C247 C59 4.892 . S
C252 C50 4.892 . S
C263 C95 1.056 1_556 S
C268 C86 1.056 1_554 S
C279 C130 4.888 . S
C284 C139 4.888 . S
C295 C49 1.458 1_545 S
C300 C18 1.483 1_655 S
C311 C9 1.475 1_455 S
C316 C58 1.438 1_565 S
C327 C129 1.437 . S
C332 C98 1.412 . S
C343 C138 1.454 . S
C348 C89 1.482 . S
