# Generated by pormake.
# Topology flu-e, (6)-cn, num edge types: 1
# Building blocks:
#     Node 0, Type 0, BuildingBlock: MAKGUD_clean_sbu_1, # of connection points: 6
#     Node 1, Type 0, BuildingBlock: MAKGUD_clean_sbu_1, # of connection points: 6
#     Node 2, Type 0, BuildingBlock: MAKGUD_clean_sbu_1, # of connection points: 6
#     Node 3, Type 0, BuildingBlock: MAKGUD_clean_sbu_1, # of connection points: 6
#     Node 4, Type 0, BuildingBlock: MAKGUD_clean_sbu_1, # of connection points: 6
#     Node 5, Type 0, BuildingBlock: MAKGUD_clean_sbu_1, # of connection points: 6
#     Node 6, Type 0, BuildingBlock: MAKGUD_clean_sbu_1, # of connection points: 6
#     Node 7, Type 0, BuildingBlock: MAKGUD_clean_sbu_1, # of connection points: 6
#     Node 8, Type 0, BuildingBlock: MAKGUD_clean_sbu_1, # of connection points: 6
#     Node 9, Type 0, BuildingBlock: MAKGUD_clean_sbu_1, # of connection points: 6
#     Node 10, Type 0, BuildingBlock: MAKGUD_clean_sbu_1, # of connection points: 6
#     Node 11, Type 0, BuildingBlock: MAKGUD_clean_sbu_1, # of connection points: 6
#     Node 12, Type 0, BuildingBlock: MAKGUD_clean_sbu_1, # of connection points: 6
#     Node 13, Type 0, BuildingBlock: MAKGUD_clean_sbu_1, # of connection points: 6
#     Node 14, Type 0, BuildingBlock: MAKGUD_clean_sbu_1, # of connection points: 6
#     Node 15, Type 0, BuildingBlock: MAKGUD_clean_sbu_1, # of connection points: 6
#     Node 16, Type 0, BuildingBlock: MAKGUD_clean_sbu_1, # of connection points: 6
#     Node 17, Type 0, BuildingBlock: MAKGUD_clean_sbu_1, # of connection points: 6
#     Node 18, Type 0, BuildingBlock: MAKGUD_clean_sbu_1, # of connection points: 6
#     Node 19, Type 0, BuildingBlock: MAKGUD_clean_sbu_1, # of connection points: 6
#     Node 20, Type 0, BuildingBlock: MAKGUD_clean_sbu_1, # of connection points: 6
#     Node 21, Type 0, BuildingBlock: MAKGUD_clean_sbu_1, # of connection points: 6
#     Node 22, Type 0, BuildingBlock: MAKGUD_clean_sbu_1, # of connection points: 6
#     Node 23, Type 0, BuildingBlock: MAKGUD_clean_sbu_1, # of connection points: 6
#     Node 24, Type 0, BuildingBlock: MAKGUD_clean_sbu_1, # of connection points: 6
#     Node 25, Type 0, BuildingBlock: MAKGUD_clean_sbu_1, # of connection points: 6
#     Node 26, Type 0, BuildingBlock: MAKGUD_clean_sbu_1, # of connection points: 6
#     Node 27, Type 0, BuildingBlock: MAKGUD_clean_sbu_1, # of connection points: 6
#     Node 28, Type 0, BuildingBlock: MAKGUD_clean_sbu_1, # of connection points: 6
#     Node 29, Type 0, BuildingBlock: MAKGUD_clean_sbu_1, # of connection points: 6
#     Node 30, Type 0, BuildingBlock: MAKGUD_clean_sbu_1, # of connection points: 6
#     Node 31, Type 0, BuildingBlock: MAKGUD_clean_sbu_1, # of connection points: 6
#     Edge 32, Type (0, 0), BuildingBlock: AJUNOK_clean_linker_0, # of connection points: 2
#     Edge 33, Type (0, 0), BuildingBlock: AJUNOK_clean_linker_0, # of connection points: 2
#     Edge 34, Type (0, 0), BuildingBlock: AJUNOK_clean_linker_0, # of connection points: 2
#     Edge 35, Type (0, 0), BuildingBlock: AJUNOK_clean_linker_0, # of connection points: 2
#     Edge 36, Type (0, 0), BuildingBlock: AJUNOK_clean_linker_0, # of connection points: 2
#     Edge 37, Type (0, 0), BuildingBlock: AJUNOK_clean_linker_0, # of connection points: 2
#     Edge 38, Type (0, 0), BuildingBlock: AJUNOK_clean_linker_0, # of connection points: 2
#     Edge 39, Type (0, 0), BuildingBlock: AJUNOK_clean_linker_0, # of connection points: 2
#     Edge 40, Type (0, 0), BuildingBlock: AJUNOK_clean_linker_0, # of connection points: 2
#     Edge 41, Type (0, 0), BuildingBlock: AJUNOK_clean_linker_0, # of connection points: 2
#     Edge 42, Type (0, 0), BuildingBlock: AJUNOK_clean_linker_0, # of connection points: 2
#     Edge 43, Type (0, 0), BuildingBlock: AJUNOK_clean_linker_0, # of connection points: 2
#     Edge 44, Type (0, 0), BuildingBlock: AJUNOK_clean_linker_0, # of connection points: 2
#     Edge 45, Type (0, 0), BuildingBlock: AJUNOK_clean_linker_0, # of connection points: 2
#     Edge 46, Type (0, 0), BuildingBlock: AJUNOK_clean_linker_0, # of connection points: 2
#     Edge 47, Type (0, 0), BuildingBlock: AJUNOK_clean_linker_0, # of connection points: 2
#     Edge 48, Type (0, 0), BuildingBlock: AJUNOK_clean_linker_0, # of connection points: 2
#     Edge 49, Type (0, 0), BuildingBlock: AJUNOK_clean_linker_0, # of connection points: 2
#     Edge 50, Type (0, 0), BuildingBlock: AJUNOK_clean_linker_0, # of connection points: 2
#     Edge 51, Type (0, 0), BuildingBlock: AJUNOK_clean_linker_0, # of connection points: 2
#     Edge 52, Type (0, 0), BuildingBlock: AJUNOK_clean_linker_0, # of connection points: 2
#     Edge 53, Type (0, 0), BuildingBlock: AJUNOK_clean_linker_0, # of connection points: 2
#     Edge 54, Type (0, 0), BuildingBlock: AJUNOK_clean_linker_0, # of connection points: 2
#     Edge 55, Type (0, 0), BuildingBlock: AJUNOK_clean_linker_0, # of connection points: 2
#     Edge 56, Type (0, 0), BuildingBlock: AJUNOK_clean_linker_0, # of connection points: 2
#     Edge 57, Type (0, 0), BuildingBlock: AJUNOK_clean_linker_0, # of connection points: 2
#     Edge 58, Type (0, 0), BuildingBlock: AJUNOK_clean_linker_0, # of connection points: 2
#     Edge 59, Type (0, 0), BuildingBlock: AJUNOK_clean_linker_0, # of connection points: 2
#     Edge 60, Type (0, 0), BuildingBlock: AJUNOK_clean_linker_0, # of connection points: 2
#     Edge 61, Type (0, 0), BuildingBlock: AJUNOK_clean_linker_0, # of connection points: 2
#     Edge 62, Type (0, 0), BuildingBlock: AJUNOK_clean_linker_0, # of connection points: 2
#     Edge 63, Type (0, 0), BuildingBlock: AJUNOK_clean_linker_0, # of connection points: 2
#     Edge 64, Type (0, 0), BuildingBlock: AJUNOK_clean_linker_0, # of connection points: 2
#     Edge 65, Type (0, 0), BuildingBlock: AJUNOK_clean_linker_0, # of connection points: 2
#     Edge 66, Type (0, 0), BuildingBlock: AJUNOK_clean_linker_0, # of connection points: 2
#     Edge 67, Type (0, 0), BuildingBlock: AJUNOK_clean_linker_0, # of connection points: 2
#     Edge 68, Type (0, 0), BuildingBlock: AJUNOK_clean_linker_0, # of connection points: 2
#     Edge 69, Type (0, 0), BuildingBlock: AJUNOK_clean_linker_0, # of connection points: 2
#     Edge 70, Type (0, 0), BuildingBlock: AJUNOK_clean_linker_0, # of connection points: 2
#     Edge 71, Type (0, 0), BuildingBlock: AJUNOK_clean_linker_0, # of connection points: 2
#     Edge 72, Type (0, 0), BuildingBlock: AJUNOK_clean_linker_0, # of connection points: 2
#     Edge 73, Type (0, 0), BuildingBlock: AJUNOK_clean_linker_0, # of connection points: 2
#     Edge 74, Type (0, 0), BuildingBlock: AJUNOK_clean_linker_0, # of connection points: 2
#     Edge 75, Type (0, 0), BuildingBlock: AJUNOK_clean_linker_0, # of connection points: 2
#     Edge 76, Type (0, 0), BuildingBlock: AJUNOK_clean_linker_0, # of connection points: 2
#     Edge 77, Type (0, 0), BuildingBlock: AJUNOK_clean_linker_0, # of connection points: 2
#     Edge 78, Type (0, 0), BuildingBlock: AJUNOK_clean_linker_0, # of connection points: 2
#     Edge 79, Type (0, 0), BuildingBlock: AJUNOK_clean_linker_0, # of connection points: 2
#     Edge 80, Type (0, 0), BuildingBlock: AJUNOK_clean_linker_0, # of connection points: 2
#     Edge 81, Type (0, 0), BuildingBlock: AJUNOK_clean_linker_0, # of connection points: 2
#     Edge 82, Type (0, 0), BuildingBlock: AJUNOK_clean_linker_0, # of connection points: 2
#     Edge 83, Type (0, 0), BuildingBlock: AJUNOK_clean_linker_0, # of connection points: 2
#     Edge 84, Type (0, 0), BuildingBlock: AJUNOK_clean_linker_0, # of connection points: 2
#     Edge 85, Type (0, 0), BuildingBlock: AJUNOK_clean_linker_0, # of connection points: 2
#     Edge 86, Type (0, 0), BuildingBlock: AJUNOK_clean_linker_0, # of connection points: 2
#     Edge 87, Type (0, 0), BuildingBlock: AJUNOK_clean_linker_0, # of connection points: 2
#     Edge 88, Type (0, 0), BuildingBlock: AJUNOK_clean_linker_0, # of connection points: 2
#     Edge 89, Type (0, 0), BuildingBlock: AJUNOK_clean_linker_0, # of connection points: 2
#     Edge 90, Type (0, 0), BuildingBlock: AJUNOK_clean_linker_0, # of connection points: 2
#     Edge 91, Type (0, 0), BuildingBlock: AJUNOK_clean_linker_0, # of connection points: 2
#     Edge 92, Type (0, 0), BuildingBlock: AJUNOK_clean_linker_0, # of connection points: 2
#     Edge 93, Type (0, 0), BuildingBlock: AJUNOK_clean_linker_0, # of connection points: 2
#     Edge 94, Type (0, 0), BuildingBlock: AJUNOK_clean_linker_0, # of connection points: 2
#     Edge 95, Type (0, 0), BuildingBlock: AJUNOK_clean_linker_0, # of connection points: 2
#     Edge 96, Type (0, 0), BuildingBlock: AJUNOK_clean_linker_0, # of connection points: 2
#     Edge 97, Type (0, 0), BuildingBlock: AJUNOK_clean_linker_0, # of connection points: 2
#     Edge 98, Type (0, 0), BuildingBlock: AJUNOK_clean_linker_0, # of connection points: 2
#     Edge 99, Type (0, 0), BuildingBlock: AJUNOK_clean_linker_0, # of connection points: 2
#     Edge 100, Type (0, 0), BuildingBlock: AJUNOK_clean_linker_0, # of connection points: 2
#     Edge 101, Type (0, 0), BuildingBlock: AJUNOK_clean_linker_0, # of connection points: 2
#     Edge 102, Type (0, 0), BuildingBlock: AJUNOK_clean_linker_0, # of connection points: 2
#     Edge 103, Type (0, 0), BuildingBlock: AJUNOK_clean_linker_0, # of connection points: 2
#     Edge 104, Type (0, 0), BuildingBlock: AJUNOK_clean_linker_0, # of connection points: 2
#     Edge 105, Type (0, 0), BuildingBlock: AJUNOK_clean_linker_0, # of connection points: 2
#     Edge 106, Type (0, 0), BuildingBlock: AJUNOK_clean_linker_0, # of connection points: 2
#     Edge 107, Type (0, 0), BuildingBlock: AJUNOK_clean_linker_0, # of connection points: 2
#     Edge 108, Type (0, 0), BuildingBlock: AJUNOK_clean_linker_0, # of connection points: 2
#     Edge 109, Type (0, 0), BuildingBlock: AJUNOK_clean_linker_0, # of connection points: 2
#     Edge 110, Type (0, 0), BuildingBlock: AJUNOK_clean_linker_0, # of connection points: 2
#     Edge 111, Type (0, 0), BuildingBlock: AJUNOK_clean_linker_0, # of connection points: 2
#     Edge 112, Type (0, 0), BuildingBlock: AJUNOK_clean_linker_0, # of connection points: 2
#     Edge 113, Type (0, 0), BuildingBlock: AJUNOK_clean_linker_0, # of connection points: 2
#     Edge 114, Type (0, 0), BuildingBlock: AJUNOK_clean_linker_0, # of connection points: 2
#     Edge 115, Type (0, 0), BuildingBlock: AJUNOK_clean_linker_0, # of connection points: 2
#     Edge 116, Type (0, 0), BuildingBlock: AJUNOK_clean_linker_0, # of connection points: 2
#     Edge 117, Type (0, 0), BuildingBlock: AJUNOK_clean_linker_0, # of connection points: 2
#     Edge 118, Type (0, 0), BuildingBlock: AJUNOK_clean_linker_0, # of connection points: 2
#     Edge 119, Type (0, 0), BuildingBlock: AJUNOK_clean_linker_0, # of connection points: 2
#     Edge 120, Type (0, 0), BuildingBlock: AJUNOK_clean_linker_0, # of connection points: 2
#     Edge 121, Type (0, 0), BuildingBlock: AJUNOK_clean_linker_0, # of connection points: 2
#     Edge 122, Type (0, 0), BuildingBlock: AJUNOK_clean_linker_0, # of connection points: 2
#     Edge 123, Type (0, 0), BuildingBlock: AJUNOK_clean_linker_0, # of connection points: 2
#     Edge 124, Type (0, 0), BuildingBlock: AJUNOK_clean_linker_0, # of connection points: 2
#     Edge 125, Type (0, 0), BuildingBlock: AJUNOK_clean_linker_0, # of connection points: 2
#     Edge 126, Type (0, 0), BuildingBlock: AJUNOK_clean_linker_0, # of connection points: 2
#     Edge 127, Type (0, 0), BuildingBlock: AJUNOK_clean_linker_0, # of connection points: 2
# Relax obj value: 0.254
# Max RMSD: 0.307
# Mean RMSD: 0.281
data_MOF--net-flu-e--node1-MAKGUD_clean_sbu_1--edge1-AJUNOK_clean_linker_0
_symmetry_space_group_name_H-M    P1
_symmetry_Int_Tables_number       1
_symmetry_cell_setting            triclinic
loop_
_symmetry_equiv_pos_as_xyz
'x, y, z'
_cell_length_a     42.199509
_cell_length_b     39.575736
_cell_length_c     44.505801
_cell_angle_alpha  92.672709
_cell_angle_beta   85.271394
_cell_angle_gamma 91.186476
loop_
_atom_site_label
_atom_site_type_symbol
_atom_site_fract_x
_atom_site_fract_y
_atom_site_fract_z
_atom_type_partial_charge
O0 O 0.23957 0.11445 0.39962 0.0
Tb1 Tb 0.21868 0.16482 0.39884 0.0
C2 C 0.1625 0.21704 0.40187 0.0
O3 O 0.26547 0.21823 0.37554 0.0
Tb4 Tb 0.22921 0.25627 0.38504 0.0
C5 C 0.22207 0.29076 0.33583 0.0
O6 O 0.24391 0.17153 0.35474 0.0
O7 O 0.26403 0.28491 0.41084 0.0
C8 C 0.2856 0.30377 0.39577 0.0
O9 O 0.28366 0.30697 0.36679 0.0
O10 O 0.17289 0.18681 0.39218 0.0
O11 O 0.18216 0.24283 0.40795 0.0
O12 O 0.23798 0.19057 0.43816 0.0
C13 C 0.26434 0.19674 0.35232 0.0
C14 C 0.21355 0.09836 0.40853 0.0
O15 O 0.22822 0.25865 0.33593 0.0
O16 O 0.21904 0.30309 0.36354 0.0
C17 C 0.21912 0.1984 0.46252 0.0
O18 O 0.18836 0.1932 0.46157 0.0
O19 O 0.19044 0.11983 0.4119 0.0
O20 O 0.94249 0.18209 0.48961 0.0
Tb21 Tb 0.95277 0.20345 0.4453 0.0
C22 C 1.02234 0.23078 0.41658 0.0
O23 O 0.93095 0.28265 0.43037 0.0
Tb24 Tb 0.96371 0.2666 0.39265 0.0
C25 C 0.96512 0.31136 0.34916 0.0
O26 O 0.90876 0.23031 0.43607 0.0
O27 O 0.93514 0.2249 0.37566 0.0
C28 C 0.90727 0.23383 0.36773 0.0
O29 O 0.8996 0.26585 0.37149 0.0
O30 O 1.00369 0.20572 0.42715 0.0
O31 O 1.01096 0.25821 0.40608 0.0
O32 O 0.94418 0.14883 0.43568 0.0
C33 C 0.90577 0.26375 0.43743 0.0
C34 C 0.95197 0.20805 0.5056 0.0
O35 O 0.96099 0.31861 0.37806 0.0
O36 O 0.96932 0.279 0.3449 0.0
C37 C 0.96416 0.12898 0.41891 0.0
O38 O 0.98843 0.14275 0.40329 0.0
O39 O 0.9623 0.23156 0.48748 0.0
O40 O 0.96325 0.88831 0.49106 0.0
Tb41 Tb 0.95519 0.90706 0.44642 0.0
C42 C 0.95545 0.97994 0.41551 0.0
O43 O 0.88899 0.90865 0.415 0.0
Tb44 Tb 0.91751 0.92891 0.37706 0.0
C45 C 0.87687 0.95639 0.3428 0.0
O46 O 0.92284 0.86895 0.42651 0.0
O47 O 0.9339 0.8821 0.35385 0.0
C48 C 0.91276 0.86163 0.34204 0.0
O49 O 0.88254 0.86928 0.34667 0.0
O50 O 0.95247 0.96224 0.44018 0.0
O51 O 0.95413 0.9654 0.38851 0.0
O52 O 1.00639 0.89646 0.43526 0.0
C53 C 0.89372 0.87734 0.42136 0.0
C54 C 0.94074 0.90536 0.50624 0.0
O55 O 0.8715 0.95102 0.37134 0.0
O56 O 0.90544 0.94672 0.33367 0.0
C57 C 1.02781 0.90866 0.45331 0.0
O58 O 1.01789 0.9295 0.47579 0.0
O59 O 0.92644 0.92285 0.48762 0.0
O60 O 0.24839 0.9274 0.49731 0.0
Tb61 Tb 0.23276 0.89078 0.46281 0.0
C62 C 0.1643 0.87268 0.43863 0.0
O63 O 0.25241 0.81492 0.42697 0.0
Tb64 Tb 0.22535 0.84646 0.39944 0.0
C65 C 0.22801 0.81473 0.34507 0.0
O66 O 0.27532 0.85925 0.45206 0.0
O67 O 0.25597 0.89092 0.39637 0.0
C68 C 0.28643 0.88709 0.38874 0.0
O69 O 0.29746 0.85635 0.38384 0.0
O70 O 0.18206 0.87658 0.46174 0.0
O71 O 0.17681 0.86328 0.41151 0.0
O72 O 0.23153 0.93691 0.43768 0.0
C73 C 0.2762 0.82742 0.44157 0.0
C74 C 0.23611 0.91142 0.52046 0.0
O75 O 0.21757 0.80153 0.37029 0.0
O76 O 0.23642 0.84603 0.35046 0.0
C77 C 0.20859 0.95853 0.44544 0.0
O78 O 0.18696 0.95051 0.46697 0.0
O79 O 0.22238 0.88364 0.51106 0.0
O80 O 0.15303 0.99329 0.72574 0.0
Tb81 Tb 0.19789 0.9687 0.70962 0.0
C82 C 0.23284 0.95502 0.64729 0.0
O83 O 0.23944 0.90266 0.71795 0.0
Tb84 Tb 0.27206 0.93974 0.69672 0.0
C85 C 0.32062 0.90138 0.67586 0.0
O86 O 0.20714 0.93823 0.74732 0.0
O87 O 0.28632 0.96964 0.7355 0.0
C88 C 0.29182 0.95264 0.75915 0.0
O89 O 0.28594 0.91995 0.75851 0.0
O90 O 0.20944 0.94391 0.66559 0.0
O91 O 0.25836 0.96699 0.65904 0.0
O92 O 0.22364 1.01644 0.70467 0.0
C93 C 0.22125 0.90897 0.74291 0.0
C94 C 0.13588 0.97578 0.70735 0.0
O95 O 0.29111 0.89596 0.67067 0.0
O96 O 0.32293 0.92903 0.69248 0.0
C97 C 0.21649 1.03686 0.68378 0.0
O98 O 0.19443 1.0273 0.66586 0.0
O99 O 0.15357 0.95443 0.69109 0.0
O100 O 0.34762 0.20077 0.7407 0.0
Tb101 Tb 0.32585 0.22275 0.70387 0.0
C102 C 0.25985 0.26027 0.7015 0.0
O103 O 0.28021 0.1896 0.65624 0.0
Tb104 Tb 0.23619 0.21617 0.65201 0.0
C105 C 0.18053 0.18296 0.65743 0.0
O106 O 0.30519 0.1726 0.69584 0.0
O107 O 0.24085 0.23416 0.60604 0.0
C108 C 0.25847 0.21756 0.58452 0.0
O109 O 0.2777 0.1944 0.59226 0.0
O110 O 0.28534 0.24657 0.68746 0.0
O111 O 0.23418 0.25718 0.68677 0.0
O112 O 0.36537 0.23446 0.67125 0.0
C113 C 0.28365 0.16684 0.67633 0.0
C114 C 0.33928 0.22441 0.76088 0.0
O115 O 0.20016 0.18674 0.67844 0.0
O116 O 0.19319 0.19664 0.63331 0.0
C117 C 0.37791 0.26484 0.66697 0.0
O118 O 0.39946 0.26861 0.6443 0.0
O119 O 0.32383 0.24788 0.74869 0.0
O120 O 1.02969 0.19564 0.70772 0.0
Tb121 Tb 0.98583 0.21506 0.69223 0.0
C122 C 0.94848 0.21264 0.63716 0.0
O123 O 0.93042 0.22793 0.7395 0.0
Tb124 Tb 0.9087 0.22024 0.69664 0.0
C125 C 0.89198 0.27872 0.67712 0.0
O126 O 0.97577 0.25629 0.72502 0.0
O127 O 0.86821 0.19713 0.7224 0.0
C128 C 0.84756 0.21764 0.7373 0.0
O129 O 0.85117 0.25039 0.73444 0.0
O130 O 0.97 0.23096 0.65032 0.0
O131 O 0.92736 0.19537 0.65407 0.0
O132 O 0.95766 0.16955 0.70015 0.0
C133 C 0.95109 0.25251 0.74456 0.0
C134 C 1.04639 0.19786 0.68194 0.0
O135 O 0.91786 0.27405 0.69025 0.0
O136 O 0.87524 0.25082 0.6759 0.0
C137 C 0.96223 0.1429 0.68168 0.0
O138 O 0.98376 0.14477 0.6587 0.0
O139 O 1.02932 0.21096 0.66266 0.0
O140 O 0.98929 0.94414 0.67991 0.0
Tb141 Tb 0.94143 0.94102 0.70166 0.0
C142 C 0.91458 1.01264 0.7163 0.0
O143 O 0.94738 0.93716 0.77334 0.0
Tb144 Tb 0.9056 0.96596 0.76824 0.0
C145 C 0.87486 0.97828 0.82234 0.0
O146 O 0.93897 0.90051 0.73396 0.0
O147 O 0.88014 0.92425 0.74706 0.0
C148 C 0.86867 0.9018 0.7661 0.0
O149 O 0.87212 0.90808 0.79489 0.0
O150 O 0.91143 0.98507 0.69899 0.0
O151 O 0.91872 1.01063 0.74489 0.0
O152 O 0.93407 0.91725 0.65731 0.0
C153 C 0.94871 0.90633 0.76124 0.0
C154 C 1.00084 0.96427 0.70033 0.0
O155 O 0.90492 0.97154 0.81716 0.0
O156 O 0.86279 0.98003 0.79645 0.0
C157 C 0.92779 0.93648 0.63519 0.0
O158 O 0.92403 0.96901 0.64103 0.0
O159 O 0.97879 0.97148 0.72165 0.0
O160 O 0.53246 0.18707 0.20741 0.0
Tb161 Tb 0.48854 0.21107 0.19673 0.0
C162 C 0.44848 0.20304 0.14265 0.0
O163 O 0.43399 0.22257 0.24731 0.0
Tb164 Tb 0.41257 0.215 0.20409 0.0
C165 C 0.40278 0.27445 0.18298 0.0
O166 O 0.47868 0.25099 0.23094 0.0
O167 O 0.3695 0.19817 0.2304 0.0
C168 C 0.35604 0.22145 0.24919 0.0
O169 O 0.36821 0.25228 0.24838 0.0
O170 O 0.47076 0.22203 0.15407 0.0
O171 O 0.42727 0.18776 0.16121 0.0
O172 O 0.46219 0.16432 0.20443 0.0
C173 C 0.45534 0.24669 0.2518 0.0
C174 C 0.55022 0.19976 0.18526 0.0
O175 O 0.42834 0.26678 0.19534 0.0
O176 O 0.3824 0.24936 0.1837 0.0
C177 C 0.46688 0.13808 0.18545 0.0
O178 O 0.48855 0.14043 0.16265 0.0
O179 O 0.53333 0.21924 0.17045 0.0
O180 O 0.99409 0.43569 0.17277 0.0
Tb181 Tb 0.94764 0.44179 0.1966 0.0
C182 C 0.92703 0.51785 0.20863 0.0
O183 O 0.94352 0.44189 0.26998 0.0
Tb184 Tb 0.90349 0.46915 0.25726 0.0
C185 C 0.86601 0.47929 0.30793 0.0
O186 O 0.94148 0.4034 0.231 0.0
O187 O 0.88351 0.42856 0.22975 0.0
C188 C 0.87101 0.40301 0.24474 0.0
O189 O 0.86931 0.40562 0.27438 0.0
O190 O 0.9273 0.49127 0.18952 0.0
O191 O 0.92173 0.51462 0.23773 0.0
O192 O 0.9389 0.41431 0.15419 0.0
C193 C 0.9475 0.41084 0.25922 0.0
C194 C 1.00989 0.45266 0.19238 0.0
O195 O 0.89635 0.47379 0.30614 0.0
O196 O 0.85698 0.4803 0.28067 0.0
C197 C 0.92336 0.42772 0.1333 0.0
O198 O 0.90752 0.45561 0.14017 0.0
O199 O 0.99047 0.46401 0.21462 0.0
O200 O 0.64911 0.99672 0.21638 0.0
Tb201 Tb 0.69431 0.97193 0.2019 0.0
C202 C 0.73059 0.95695 0.13993 0.0
O203 O 0.73569 0.90631 0.21158 0.0
Tb204 Tb 0.76952 0.94164 0.18953 0.0
C205 C 0.81607 0.90157 0.16711 0.0
O206 O 0.70461 0.94343 0.24046 0.0
O207 O 0.78467 0.96821 0.22969 0.0
C208 C 0.79137 0.94859 0.25126 0.0
O209 O 0.7878 0.91573 0.24708 0.0
O210 O 0.70629 0.94734 0.15788 0.0
O211 O 0.7557 0.96932 0.15217 0.0
O212 O 0.71926 1.02014 0.19765 0.0
C213 C 0.71846 0.91399 0.23685 0.0
C214 C 0.63201 0.97647 0.20007 0.0
O215 O 0.78592 0.8957 0.16521 0.0
O216 O 0.82011 0.93049 0.18148 0.0
C217 C 0.7158 1.03942 0.17485 0.0
O218 O 0.69832 1.02857 0.15318 0.0
O219 O 0.64993 0.95395 0.1856 0.0
O220 O 0.35394 0.67417 0.23191 0.0
Tb221 Tb 0.30817 0.68569 0.21505 0.0
C222 C 0.256 0.73471 0.23375 0.0
O223 O 0.24642 0.65996 0.17761 0.0
Tb224 Tb 0.2433 0.71372 0.17045 0.0
C225 C 0.18087 0.72262 0.17558 0.0
O226 O 0.2998 0.64929 0.17844 0.0
O227 O 0.25892 0.71342 0.12232 0.0
C228 C 0.23903 0.69824 0.10446 0.0
O229 O 0.21274 0.68472 0.11685 0.0
O230 O 0.2636 0.70327 0.23731 0.0
O231 O 0.25964 0.74662 0.20658 0.0
O232 O 0.32634 0.7369 0.20879 0.0
C233 C 0.27086 0.63983 0.17223 0.0
C234 C 0.34254 0.66316 0.25785 0.0
O235 O 0.19555 0.6986 0.18725 0.0
O236 O 0.20142 0.74193 0.16082 0.0
C237 C 0.3311 0.75256 0.23481 0.0
O238 O 0.32431 0.73568 0.25931 0.0
O239 O 0.31161 0.66305 0.25857 0.0
O240 O 0.47236 0.88361 0.98638 0.0
Tb241 Tb 0.46523 0.90063 0.94093 0.0
C242 C 0.46626 0.97691 0.91491 0.0
O243 O 0.39841 0.90323 0.91032 0.0
Tb244 Tb 0.42706 0.92717 0.87425 0.0
C245 C 0.38598 0.95659 0.84179 0.0
O246 O 0.43354 0.86347 0.91925 0.0
O247 O 0.44366 0.88178 0.84813 0.0
C248 C 0.42171 0.86275 0.83579 0.0
O249 O 0.39195 0.87196 0.84102 0.0
O250 O 0.46626 0.95613 0.9374 0.0
O251 O 0.46045 0.96664 0.88732 0.0
O252 O 0.51573 0.88804 0.92929 0.0
C253 C 0.40406 0.87171 0.91541 0.0
C254 C 0.44756 0.89845 1.0001 0.0
O255 O 0.38089 0.94967 0.87003 0.0
O256 O 0.41429 0.94682 0.83183 0.0
C257 C 0.53817 0.9015 0.94549 0.0
O258 O 0.52949 0.92352 0.9675 0.0
O259 O 0.43282 0.91378 0.98035 0.0
O260 O 0.25384 0.41764 0.98613 0.0
Tb261 Tb 0.24126 0.38855 0.94571 0.0
C262 C 0.17172 0.36335 0.92179 0.0
O263 O 0.26602 0.30864 0.91238 0.0
Tb264 Tb 0.23224 0.33277 0.88554 0.0
C265 C 0.23954 0.30908 0.82755 0.0
O266 O 0.28443 0.3578 0.9352 0.0
O267 O 0.24528 0.38572 0.88347 0.0
C268 C 0.27534 0.39397 0.87786 0.0
O269 O 0.29665 0.37012 0.87556 0.0
O270 O 0.19072 0.38401 0.93663 0.0
O271 O 0.18264 0.33858 0.90299 0.0
O272 O 0.24733 0.4396 0.92812 0.0
C273 C 0.28791 0.32534 0.92696 0.0
C274 C 0.23922 0.39802 1.00558 0.0
O275 O 0.22588 0.29261 0.84999 0.0
O276 O 0.24852 0.33855 0.838 0.0
C277 C 0.22409 0.4615 0.93358 0.0
O278 O 0.19807 0.45192 0.94937 0.0
O279 O 0.22586 0.37281 0.99127 0.0
O280 O 0.74973 0.12774 0.91676 0.0
Tb281 Tb 0.72918 0.17388 0.9011 0.0
C282 C 0.6673 0.22128 0.89981 0.0
O283 O 0.73138 0.21583 0.84277 0.0
Tb284 Tb 0.72946 0.26082 0.87248 0.0
C285 C 0.72769 0.30915 0.83241 0.0
O286 O 0.7651 0.18314 0.86408 0.0
O287 O 0.76851 0.27699 0.9001 0.0
C288 C 0.79867 0.27505 0.88939 0.0
O289 O 0.80566 0.25707 0.86428 0.0
O290 O 0.68043 0.19095 0.89538 0.0
O291 O 0.68415 0.25005 0.89859 0.0
O292 O 0.73582 0.1974 0.9454 0.0
C293 C 0.7571 0.19782 0.84012 0.0
C294 C 0.72846 0.10645 0.90737 0.0
O295 O 0.74694 0.28388 0.83056 0.0
O296 O 0.709 0.30734 0.85717 0.0
C297 C 0.71367 0.19039 0.96685 0.0
O298 O 0.68868 0.17288 0.95889 0.0
O299 O 0.70745 0.12327 0.89461 0.0
O300 O 0.94397 0.67678 0.98861 0.0
Tb301 Tb 0.95736 0.69795 0.94446 0.0
C302 C 1.02762 0.72408 0.91454 0.0
O303 O 0.93549 0.77586 0.92776 0.0
Tb304 Tb 0.96755 0.75803 0.89 0.0
C305 C 0.96747 0.80297 0.84685 0.0
O306 O 0.91328 0.72389 0.93422 0.0
O307 O 0.9398 0.71502 0.87389 0.0
C308 C 0.91117 0.72183 0.86636 0.0
O309 O 0.90119 0.75304 0.87069 0.0
O310 O 1.00922 0.70208 0.93004 0.0
O311 O 1.01601 0.74847 0.89973 0.0
O312 O 0.95382 0.64429 0.92923 0.0
C313 C 0.91046 0.75727 0.93586 0.0
C314 C 0.95253 0.70303 1.00486 0.0
O315 O 0.96825 0.81029 0.87559 0.0
O316 O 0.96747 0.77031 0.8424 0.0
C317 C 0.97196 0.62179 0.94039 0.0
O318 O 0.99209 0.63264 0.95983 0.0
O319 O 0.96434 0.72609 0.98699 0.0
O320 O 0.16408 0.46409 0.21237 0.0
Tb321 Tb 0.20712 0.43538 0.1982 0.0
C322 C 0.23934 0.42111 0.13583 0.0
O323 O 0.25317 0.37439 0.21069 0.0
Tb324 Tb 0.27963 0.41509 0.18711 0.0
C325 C 0.33375 0.38676 0.16622 0.0
O326 O 0.21632 0.40762 0.23706 0.0
O327 O 0.29066 0.44747 0.22569 0.0
C328 C 0.2994 0.43134 0.24875 0.0
O329 O 0.29869 0.39814 0.24728 0.0
O330 O 0.21714 0.40899 0.15474 0.0
O331 O 0.26373 0.4364 0.14709 0.0
O332 O 0.23429 0.4818 0.1912 0.0
C333 C 0.23265 0.37973 0.23431 0.0
C334 C 0.14539 0.44462 0.19703 0.0
O335 O 0.30549 0.37462 0.1624 0.0
O336 O 0.33155 0.41503 0.18217 0.0
C337 C 0.22634 0.50082 0.1697 0.0
O338 O 0.20348 0.48993 0.1532 0.0
O339 O 0.16134 0.41998 0.18343 0.0
O340 O 0.25394 0.62621 0.91972 0.0
Tb341 Tb 0.23237 0.67409 0.9087 0.0
C342 C 0.16903 0.71892 0.90274 0.0
O343 O 0.23947 0.7148 0.84506 0.0
Tb344 Tb 0.23048 0.75986 0.87412 0.0
C345 C 0.22285 0.80752 0.83427 0.0
O346 O 0.27007 0.68559 0.87382 0.0
O347 O 0.27144 0.77749 0.89878 0.0
C348 C 0.30064 0.77819 0.88532 0.0
O349 O 0.3057 0.76326 0.85844 0.0
O350 O 0.18342 0.68926 0.90174 0.0
O351 O 0.18455 0.74821 0.89904 0.0
O352 O 0.23949 0.69425 0.95436 0.0
C353 C 0.26465 0.69669 0.8474 0.0
C354 C 0.23181 0.60584 0.91062 0.0
O355 O 0.23723 0.77902 0.82866 0.0
O356 O 0.21242 0.80929 0.86265 0.0
C357 C 0.22918 0.67527 0.97682 0.0
O358 O 0.21225 0.64799 0.97058 0.0
O359 O 0.21004 0.62403 0.90053 0.0
O360 O 0.44192 0.17538 0.99255 0.0
Tb361 Tb 0.45745 0.19896 0.94978 0.0
C362 C 0.52629 0.22644 0.91686 0.0
O363 O 0.43705 0.27683 0.93376 0.0
Tb364 Tb 0.46639 0.26387 0.89273 0.0
C365 C 0.47029 0.314 0.85424 0.0
O366 O 0.41406 0.22506 0.93778 0.0
O367 O 0.43062 0.23274 0.87212 0.0
C368 C 0.40603 0.25057 0.86624 0.0
O369 O 0.40581 0.28261 0.87535 0.0
O370 O 0.50909 0.20689 0.93591 0.0
O371 O 0.51402 0.24763 0.89914 0.0
O372 O 0.45669 0.14553 0.93294 0.0
C373 C 0.41117 0.25845 0.93918 0.0
C374 C 0.45186 0.19943 1.01054 0.0
O375 O 0.466 0.31787 0.88357 0.0
O376 O 0.47362 0.28203 0.84697 0.0
C377 C 0.47574 0.12378 0.94392 0.0
O378 O 0.49552 0.13564 0.96329 0.0
O379 O 0.46501 0.22321 0.99418 0.0
O380 O 0.9732 0.38602 0.98964 0.0
Tb381 Tb 0.96222 0.3998 0.94415 0.0
C382 C 0.96197 0.47455 0.91545 0.0
O383 O 0.89642 0.40169 0.91259 0.0
Tb384 Tb 0.92518 0.42289 0.87518 0.0
C385 C 0.88418 0.44937 0.84064 0.0
O386 O 0.92999 0.36177 0.92437 0.0
O387 O 0.94342 0.37734 0.85084 0.0
C388 C 0.92225 0.35657 0.83946 0.0
O389 O 0.89204 0.36389 0.84493 0.0
O390 O 0.96153 0.45514 0.93899 0.0
O391 O 0.95849 0.46234 0.88792 0.0
O392 O 1.01177 0.3853 0.92965 0.0
C393 C 0.90105 0.37032 0.9189 0.0
C394 C 0.94735 0.39792 1.00401 0.0
O395 O 0.87804 0.44169 0.86857 0.0
O396 O 0.91363 0.4424 0.83225 0.0
C397 C 1.03582 0.3994 0.94326 0.0
O398 O 1.02924 0.42328 0.96423 0.0
O399 O 0.93003 0.41027 0.98452 0.0
O400 O 0.75735 0.92862 0.99154 0.0
Tb401 Tb 0.74409 0.89438 0.95427 0.0
C402 C 0.67533 0.87015 0.92926 0.0
O403 O 0.76569 0.81468 0.9227 0.0
Tb404 Tb 0.73776 0.84243 0.89315 0.0
C405 C 0.74461 0.811 0.83846 0.0
O406 O 0.78646 0.86177 0.94622 0.0
O407 O 0.76512 0.88917 0.89179 0.0
C408 C 0.79581 0.88738 0.88453 0.0
O409 O 0.80843 0.85752 0.87837 0.0
O410 O 0.69299 0.88544 0.94926 0.0
O411 O 0.68768 0.85158 0.90602 0.0
O412 O 0.748 0.94246 0.93124 0.0
C413 C 0.78835 0.8293 0.93759 0.0
C414 C 0.74254 0.91183 1.01302 0.0
O415 O 0.73922 0.79629 0.86395 0.0
O416 O 0.74565 0.84356 0.84377 0.0
C417 C 0.72395 0.96355 0.93496 0.0
O418 O 0.69821 0.95437 0.95137 0.0
O419 O 0.72925 0.8849 1.00137 0.0
O420 O 1.02556 0.71074 0.20372 0.0
Tb421 Tb 0.98058 0.72971 0.19116 0.0
C422 C 0.943 0.71539 0.13634 0.0
O423 O 0.92218 0.73483 0.24036 0.0
Tb424 Tb 0.90347 0.72519 0.1962 0.0
C425 C 0.88637 0.78288 0.17533 0.0
O426 O 0.96484 0.76733 0.2253 0.0
O427 O 0.86282 0.70271 0.22214 0.0
C428 C 0.84314 0.72387 0.23759 0.0
O429 O 0.84762 0.7565 0.23452 0.0
O430 O 0.96356 0.73664 0.14765 0.0
O431 O 0.92297 0.69839 0.15469 0.0
O432 O 0.96075 0.67936 0.19855 0.0
C433 C 0.94201 0.76008 0.24576 0.0
C434 C 1.04363 0.72939 0.18583 0.0
O435 O 0.91255 0.77863 0.18811 0.0
O436 O 0.86969 0.75488 0.17491 0.0
C437 C 0.96981 0.65387 0.17993 0.0
O438 O 0.99105 0.65963 0.15739 0.0
O439 O 1.02613 0.7481 0.17087 0.0
O440 O 0.48537 0.94188 0.17342 0.0
Tb441 Tb 0.43759 0.93852 0.1952 0.0
C442 C 0.40867 1.00919 0.21126 0.0
O443 O 0.44025 0.93493 0.26706 0.0
Tb444 Tb 0.39639 0.96016 0.26226 0.0
C445 C 0.36583 0.97055 0.31667 0.0
O446 O 0.43476 0.89801 0.2274 0.0
O447 O 0.3737 0.91638 0.24127 0.0
C448 C 0.36547 0.89304 0.26063 0.0
O449 O 0.36921 0.90045 0.2892 0.0
O450 O 0.40755 0.9825 0.19248 0.0
O451 O 0.40904 1.00588 0.24029 0.0
O452 O 0.43175 0.91378 0.15098 0.0
C453 C 0.44324 0.90421 0.25505 0.0
C454 C 0.49695 0.9619 0.19387 0.0
O455 O 0.39598 0.9644 0.31123 0.0
O456 O 0.35336 0.97246 0.29098 0.0
C457 C 0.42523 0.93206 0.12832 0.0
O458 O 0.41928 0.96431 0.1336 0.0
O459 O 0.47498 0.9689 0.21534 0.0
O460 O 0.85491 0.17427 0.24745 0.0
Tb461 Tb 0.82381 0.19904 0.21871 0.0
C462 C 0.76595 0.2454 0.21798 0.0
O463 O 0.79041 0.19073 0.16235 0.0
Tb464 Tb 0.74663 0.21723 0.1578 0.0
C465 C 0.68614 0.20054 0.16599 0.0
O466 O 0.81793 0.15612 0.18762 0.0
O467 O 0.75153 0.22343 0.1092 0.0
C468 C 0.7396 0.19789 0.09349 0.0
O469 O 0.7299 0.17096 0.10803 0.0
O470 O 0.77445 0.21368 0.21758 0.0
O471 O 0.75286 0.25548 0.19408 0.0
O472 O 0.85296 0.24338 0.20797 0.0
C473 C 0.79504 0.1596 0.16989 0.0
C474 C 0.83843 0.18186 0.27283 0.0
O475 O 0.70907 0.18069 0.17215 0.0
O476 O 0.69755 0.22904 0.15606 0.0
C477 C 0.84358 0.26904 0.19339 0.0
O478 O 0.82011 0.26484 0.17591 0.0
O479 O 0.8132 0.19806 0.26723 0.0
O480 O 0.52799 0.69311 0.70735 0.0
Tb481 Tb 0.48512 0.71525 0.69224 0.0
C482 C 0.44523 0.71182 0.63769 0.0
O483 O 0.43024 0.72829 0.7405 0.0
Tb484 Tb 0.40651 0.72122 0.69876 0.0
C485 C 0.38954 0.78118 0.68258 0.0
O486 O 0.47502 0.75669 0.72507 0.0
O487 O 0.36421 0.70013 0.72355 0.0
C488 C 0.36571 0.68498 0.7492 0.0
O489 O 0.39351 0.67539 0.75662 0.0
O490 O 0.46842 0.72881 0.64978 0.0
O491 O 0.42333 0.69632 0.65536 0.0
O492 O 0.45872 0.66808 0.69803 0.0
C493 C 0.45039 0.75351 0.74472 0.0
C494 C 0.54643 0.70025 0.68353 0.0
O495 O 0.417 0.77485 0.69214 0.0
O496 O 0.37173 0.75402 0.68258 0.0
C497 C 0.46545 0.64274 0.67845 0.0
O498 O 0.48727 0.64756 0.65619 0.0
O499 O 0.53054 0.71679 0.66538 0.0
O500 O 0.65669 0.48764 0.71455 0.0
Tb501 Tb 0.70194 0.46194 0.70347 0.0
C502 C 0.73387 0.45075 0.63913 0.0
O503 O 0.74542 0.39874 0.71141 0.0
Tb504 Tb 0.77618 0.43508 0.68699 0.0
C505 C 0.82364 0.39702 0.66337 0.0
O506 O 0.71808 0.43719 0.74182 0.0
O507 O 0.79194 0.46204 0.72672 0.0
C508 C 0.80224 0.44221 0.74657 0.0
O509 O 0.80205 0.4094 0.74069 0.0
O510 O 0.71019 0.44068 0.65763 0.0
O511 O 0.75974 0.46252 0.65048 0.0
O512 O 0.72391 0.51176 0.70016 0.0
C513 C 0.73028 0.40702 0.73762 0.0
C514 C 0.63924 0.46037 0.71148 0.0
O515 O 0.79358 0.38993 0.66213 0.0
O516 O 0.827 0.42622 0.67748 0.0
C517 C 0.71886 0.53114 0.67782 0.0
O518 O 0.70115 0.5197 0.65651 0.0
O519 O 0.65716 0.43458 0.70422 0.0
O520 O 0.47945 0.38754 0.48731 0.0
Tb521 Tb 0.46251 0.40406 0.44503 0.0
C522 C 0.46081 0.47801 0.41553 0.0
O523 O 0.39943 0.41148 0.41458 0.0
Tb524 Tb 0.42796 0.42439 0.37398 0.0
C525 C 0.38624 0.44747 0.33814 0.0
O526 O 0.42681 0.36789 0.42873 0.0
O527 O 0.44725 0.37739 0.35258 0.0
C528 C 0.42736 0.35281 0.34508 0.0
O529 O 0.39687 0.35655 0.35277 0.0
O530 O 0.45896 0.45902 0.43944 0.0
O531 O 0.45936 0.46537 0.38773 0.0
O532 O 0.51219 0.39238 0.42887 0.0
C533 C 0.39947 0.38014 0.42256 0.0
C534 C 0.45587 0.39906 0.5052 0.0
O535 O 0.37948 0.43579 0.36468 0.0
O536 O 0.41685 0.44625 0.33167 0.0
C537 C 0.53519 0.40893 0.44217 0.0
O538 O 0.52695 0.43405 0.46139 0.0
O539 O 0.43609 0.41343 0.48919 0.0
O540 O 0.74706 0.63637 0.41599 0.0
Tb541 Tb 0.72414 0.68211 0.40228 0.0
C542 C 0.65988 0.72648 0.39923 0.0
O543 O 0.72617 0.72333 0.34204 0.0
Tb544 Tb 0.72133 0.76826 0.37177 0.0
C545 C 0.71745 0.81614 0.33153 0.0
O546 O 0.75995 0.69259 0.36551 0.0
O547 O 0.76134 0.78457 0.39841 0.0
C548 C 0.79116 0.78494 0.38631 0.0
O549 O 0.79752 0.77002 0.35958 0.0
O550 O 0.67462 0.69693 0.39725 0.0
O551 O 0.67498 0.75613 0.39581 0.0
O552 O 0.7321 0.70401 0.44689 0.0
C553 C 0.75224 0.70591 0.34081 0.0
C554 C 0.72595 0.61451 0.4073 0.0
O555 O 0.73465 0.78929 0.32798 0.0
O556 O 0.70206 0.81628 0.35818 0.0
C557 C 0.71557 0.69024 0.46965 0.0
O558 O 0.69337 0.66777 0.46357 0.0
O559 O 0.70359 0.63082 0.39602 0.0
O560 O 0.4367 0.67972 0.48949 0.0
Tb561 Tb 0.44926 0.70068 0.44499 0.0
C562 C 0.51831 0.72757 0.41262 0.0
O563 O 0.42348 0.77573 0.42222 0.0
Tb564 Tb 0.45705 0.75708 0.38591 0.0
C565 C 0.45764 0.80162 0.34235 0.0
O566 O 0.40397 0.72367 0.43386 0.0
O567 O 0.43358 0.71203 0.36745 0.0
C568 C 0.40426 0.71483 0.35981 0.0
O569 O 0.38914 0.74302 0.36738 0.0
O570 O 0.5008 0.70627 0.42971 0.0
O571 O 0.50579 0.75004 0.39632 0.0
O572 O 0.44769 0.64698 0.42972 0.0
C573 C 0.39962 0.75664 0.43237 0.0
C574 C 0.4464 0.70554 0.50566 0.0
O575 O 0.45857 0.80915 0.371 0.0
O576 O 0.45688 0.76897 0.33821 0.0
C577 C 0.4664 0.62519 0.44101 0.0
O578 O 0.48594 0.6367 0.46077 0.0
O579 O 0.45773 0.7286 0.48752 0.0
O580 O 0.75447 0.43328 0.48922 0.0
Tb581 Tb 0.74098 0.40075 0.45092 0.0
C582 C 0.67173 0.37609 0.42629 0.0
O583 O 0.7613 0.32057 0.42015 0.0
Tb584 Tb 0.73341 0.34769 0.39002 0.0
C585 C 0.74229 0.31738 0.33479 0.0
O586 O 0.78308 0.36808 0.44216 0.0
O587 O 0.75768 0.39626 0.38777 0.0
C588 C 0.78856 0.39674 0.38134 0.0
O589 O 0.80361 0.36793 0.37776 0.0
O590 O 0.69004 0.3922 0.44526 0.0
O591 O 0.68334 0.35682 0.40314 0.0
O592 O 0.74561 0.44959 0.4292 0.0
C593 C 0.78409 0.33528 0.4348 0.0
C594 C 0.73923 0.41598 0.51012 0.0
O595 O 0.7334 0.30237 0.35957 0.0
O596 O 0.74541 0.34957 0.34109 0.0
C597 C 0.72166 0.47084 0.43252 0.0
O598 O 0.69498 0.46109 0.44715 0.0
O599 O 0.72554 0.3898 0.49764 0.0
O600 O 0.49208 0.42064 0.69201 0.0
Tb601 Tb 0.44278 0.43415 0.70181 0.0
C602 C 0.41708 0.50877 0.70677 0.0
O603 O 0.42618 0.43927 0.77548 0.0
Tb604 Tb 0.38788 0.46123 0.75444 0.0
C605 C 0.34328 0.47401 0.79907 0.0
O606 O 0.43351 0.39877 0.73819 0.0
O607 O 0.37544 0.41753 0.72587 0.0
C608 C 0.36476 0.38999 0.73916 0.0
O609 O 0.35976 0.39106 0.76872 0.0
O610 O 0.42223 0.48142 0.68912 0.0
O611 O 0.40643 0.50669 0.73505 0.0
O612 O 0.43692 0.41213 0.65662 0.0
C613 C 0.43571 0.409 0.76658 0.0
C614 C 0.50383 0.44672 0.70631 0.0
O615 O 0.37353 0.4718 0.80178 0.0
O616 O 0.33814 0.4693 0.77068 0.0
C617 C 0.45607 0.42349 0.63423 0.0
O618 O 0.47739 0.44696 0.64018 0.0
O619 O 0.48117 0.46625 0.71797 0.0
O620 O 0.85839 0.67327 0.74595 0.0
Tb621 Tb 0.81944 0.69181 0.7225 0.0
C622 C 0.76019 0.73575 0.72265 0.0
O623 O 0.7868 0.68554 0.66497 0.0
Tb624 Tb 0.74168 0.70953 0.66112 0.0
C625 C 0.68151 0.69142 0.667 0.0
O626 O 0.81745 0.65193 0.68771 0.0
O627 O 0.74905 0.71746 0.61288 0.0
C628 C 0.74061 0.6914 0.59565 0.0
O629 O 0.72965 0.66422 0.60911 0.0
O630 O 0.7693 0.70412 0.72238 0.0
O631 O 0.74723 0.74611 0.69871 0.0
O632 O 0.8371 0.74333 0.71721 0.0
C633 C 0.79351 0.65449 0.6711 0.0
C634 C 0.84215 0.66952 0.77181 0.0
O635 O 0.70449 0.67209 0.6741 0.0
O636 O 0.69266 0.72011 0.65719 0.0
C637 C 0.83849 0.76053 0.74308 0.0
O638 O 0.83196 0.74423 0.76791 0.0
O639 O 0.81261 0.67759 0.76948 0.0
C640 C 0.2129 0.36538 0.28695 0.0
C641 C 0.22895 0.35533 0.25901 0.0
C642 C 0.21023 0.34402 0.31134 0.0
C643 C 0.223 0.31142 0.30879 0.0
H644 H 0.20284 0.39036 0.29037 0.0
H645 H 0.19829 0.3533 0.33252 0.0
S646 S 0.26702 0.27224 0.24078 0.0
N647 N 0.25779 0.3101 0.23039 0.0
N648 N 0.2521 0.26977 0.27611 0.0
C649 C 0.23856 0.30061 0.28092 0.0
C650 C 0.24174 0.3226 0.25611 0.0
C651 C 0.88389 0.17511 0.3043 0.0
C652 C 0.85207 0.18425 0.30234 0.0
C653 C 0.9012 0.18821 0.32796 0.0
C654 C 0.88717 0.21105 0.34999 0.0
H655 H 0.89635 0.16035 0.28608 0.0
H656 H 0.92639 0.18315 0.32721 0.0
S657 S 0.80273 0.23659 0.35868 0.0
N658 N 0.80567 0.212 0.32763 0.0
N659 N 0.83845 0.23756 0.37129 0.0
C660 C 0.85444 0.21698 0.3502 0.0
C661 C 0.83674 0.20321 0.32655 0.0
C662 C 0.89937 0.80866 0.31232 0.0
C663 C 0.92238 0.8328 0.32082 0.0
C664 C 0.90641 0.78392 0.28921 0.0
C665 C 0.93666 0.78257 0.27337 0.0
H666 H 0.87535 0.80943 0.32298 0.0
H667 H 0.88753 0.76675 0.28286 0.0
S668 S 1.00649 0.83728 0.28921 0.0
N669 N 0.97757 0.85165 0.31339 0.0
N670 N 0.99073 0.80551 0.26985 0.0
C671 C 0.9604 0.80533 0.28278 0.0
C672 C 0.9533 0.83031 0.30654 0.0
C673 C 0.29387 0.94195 0.36381 0.0
C674 C 0.30668 0.91607 0.37942 0.0
C675 C 0.31379 0.96331 0.34611 0.0
C676 C 0.347 0.95969 0.34403 0.0
H677 H 0.26839 0.94351 0.36269 0.0
H678 H 0.30303 0.98043 0.33177 0.0
S679 S 0.39198 0.90168 0.38732 0.0
N680 N 0.35424 0.89218 0.39645 0.0
N681 N 0.39181 0.933 0.36409 0.0
C682 C 0.36002 0.93727 0.36316 0.0
C683 C 0.33975 0.91511 0.38059 0.0
C684 C 0.23113 0.85071 0.75954 0.0
C685 C 0.21884 0.88323 0.76659 0.0
C686 C 0.23177 0.82652 0.78151 0.0
C687 C 0.22017 0.83361 0.81163 0.0
H688 H 0.24082 0.84384 0.73683 0.0
H689 H 0.24186 0.8021 0.77481 0.0
S690 S 0.18532 0.9146 0.84236 0.0
N691 N 0.19452 0.92104 0.80625 0.0
N692 N 0.1957 0.87539 0.84748 0.0
C693 C 0.20735 0.86574 0.81909 0.0
C694 C 0.20667 0.89054 0.79662 0.0
C695 C 0.3744 0.20467 0.79854 0.0
C696 C 0.35069 0.22674 0.7913 0.0
C697 C 0.39065 0.21063 0.82456 0.0
C698 C 0.3835 0.23875 0.84417 0.0
H699 H 0.38198 0.18393 0.78304 0.0
H700 H 0.41032 0.19452 0.8281 0.0
S701 S 0.31933 0.30026 0.83805 0.0
N702 N 0.31802 0.27492 0.80767 0.0
N703 N 0.34779 0.28581 0.85695 0.0
C704 C 0.35759 0.2589 0.83869 0.0
C705 C 0.34135 0.25299 0.8121 0.0
C706 C 0.96044 0.32807 0.80014 0.0
C707 C 0.9315 0.32759 0.81828 0.0
C708 C 0.96719 0.30309 0.77699 0.0
C709 C 0.94547 0.27638 0.77142 0.0
H710 H 0.97738 0.3487 0.80288 0.0
H711 H 0.9892 0.30534 0.76284 0.0
S712 S 0.86784 0.26175 0.81508 0.0
N713 N 0.88199 0.29701 0.83047 0.0
N714 N 0.89493 0.24973 0.78809 0.0
C715 C 0.91726 0.27472 0.79064 0.0
C716 C 0.91022 0.30038 0.81374 0.0
C717 C 0.82221 0.96882 0.84984 0.0
C718 C 0.8555 0.96632 0.84898 0.0
C719 C 0.80226 0.94505 0.86469 0.0
C720 C 0.81521 0.91799 0.87866 0.0
H721 H 0.81163 0.98683 0.83619 0.0
H722 H 0.77693 0.94581 0.86237 0.0
S723 S 0.90009 0.90601 0.89023 0.0
N724 N 0.89996 0.9396 0.86958 0.0
N725 N 0.86246 0.89422 0.89642 0.0
C726 C 0.84803 0.91817 0.88168 0.0
C727 C 0.86825 0.94278 0.86723 0.0
C728 C 0.32364 0.23887 0.2965 0.0
C729 C 0.33086 0.21376 0.27364 0.0
C730 C 0.30241 0.23268 0.32149 0.0
C731 C 0.28635 0.20146 0.3247 0.0
H732 H 0.33511 0.26358 0.2957 0.0
H733 H 0.29869 0.25278 0.33855 0.0
S734 S 0.29445 0.12764 0.27012 0.0
N735 N 0.319 0.15651 0.25513 0.0
N736 N 0.27806 0.14521 0.30192 0.0
C737 C 0.29229 0.17628 0.30153 0.0
C738 C 0.31468 0.18238 0.27609 0.0
C739 C 0.96219 0.37057 0.33275 0.0
C740 C 0.96257 0.33577 0.32513 0.0
C741 C 0.95815 0.39435 0.31107 0.0
C742 C 0.95397 0.38444 0.28073 0.0
H743 H 0.96479 0.37962 0.35579 0.0
H744 H 0.9578 0.42081 0.31847 0.0
S745 S 0.9525 0.29596 0.24922 0.0
N746 N 0.95831 0.29226 0.28516 0.0
N747 N 0.95042 0.33696 0.24437 0.0
C748 C 0.95452 0.34961 0.27272 0.0
C749 C 0.95887 0.32531 0.2949 0.0
C750 C 0.83953 0.97478 0.2713 0.0
C751 C 0.80878 0.961 0.27683 0.0
C752 C 0.86109 0.97555 0.29371 0.0
C753 C 0.85222 0.96327 0.32241 0.0
H754 H 0.84791 0.98201 0.24879 0.0
H755 H 0.88536 0.98391 0.28799 0.0
S756 S 0.77311 0.92814 0.34872 0.0
N757 N 0.7697 0.93717 0.31329 0.0
N758 N 0.80963 0.93987 0.35587 0.0
C759 C 0.82061 0.95227 0.32892 0.0
C760 C 0.799 0.95078 0.30593 0.0
C761 C 0.2276 0.76068 0.31425 0.0
C762 C 0.23298 0.79583 0.31567 0.0
C763 C 0.23458 0.74142 0.28745 0.0
C764 C 0.24683 0.75657 0.26085 0.0
H765 H 0.21863 0.74772 0.33421 0.0
H766 H 0.23056 0.7143 0.28769 0.0
S767 S 0.26438 0.84804 0.25237 0.0
N768 N 0.25089 0.84529 0.2881 0.0
N769 N 0.26331 0.8091 0.2374 0.0
C770 C 0.25148 0.79189 0.26167 0.0
C771 C 0.24477 0.81151 0.28918 0.0
C772 C 0.30541 0.95947 0.81194 0.0
C773 C 0.31305 0.96605 0.78144 0.0
C774 C 0.329 0.95988 0.8323 0.0
C775 C 0.36108 0.96582 0.82249 0.0
H776 H 0.2815 0.95139 0.81955 0.0
H777 H 0.32242 0.95252 0.85515 0.0
S778 S 0.39263 0.98832 0.74568 0.0
N779 N 0.35406 0.98243 0.74311 0.0
N780 N 0.39873 0.98219 0.7812 0.0
C781 C 0.36859 0.97517 0.79265 0.0
C782 C 0.34441 0.97553 0.77211 0.0
C783 C 0.23679 0.26327 0.78623 0.0
C784 C 0.24565 0.29642 0.79546 0.0
C785 C 0.24235 0.25134 0.7559 0.0
C786 C 0.25742 0.2719 0.7338 0.0
H787 H 0.22518 0.24654 0.80244 0.0
H788 H 0.23449 0.22593 0.7496 0.0
S789 S 0.2845 0.36068 0.74574 0.0
N790 N 0.2699 0.34969 0.77951 0.0
N791 N 0.28049 0.32696 0.72298 0.0
C792 C 0.26665 0.30484 0.7427 0.0
C793 C 0.26076 0.31713 0.7734 0.0
C794 C 0.83103 0.18828 0.7849 0.0
C795 C 0.82274 0.20571 0.75995 0.0
C796 C 0.80928 0.18453 0.81036 0.0
C797 C 0.77842 0.19787 0.81161 0.0
H798 H 0.85512 0.17965 0.78567 0.0
H799 H 0.81724 0.17246 0.82967 0.0
S800 S 0.74393 0.24086 0.74958 0.0
N801 N 0.78104 0.23346 0.73664 0.0
N802 N 0.73976 0.22538 0.78351 0.0
C803 C 0.76931 0.21314 0.78568 0.0
C804 C 0.79158 0.21736 0.76014 0.0
C805 C 0.97099 0.86227 0.83034 0.0
C806 C 0.96466 0.82797 0.82348 0.0
C807 C 0.96685 0.88697 0.80955 0.0
C808 C 0.95585 0.87855 0.781 0.0
H809 H 0.97893 0.87025 0.85214 0.0
H810 H 0.9718 0.91306 0.81631 0.0
S811 S 0.93523 0.792 0.75222 0.0
N812 N 0.94682 0.78651 0.78619 0.0
N813 N 0.93867 0.83302 0.7471 0.0
C814 C 0.94978 0.84416 0.77366 0.0
C815 C 0.95424 0.81888 0.79489 0.0
C816 C 0.37709 0.30806 0.14749 0.0
C817 C 0.39585 0.30728 0.17198 0.0
C818 C 0.36046 0.33701 0.14253 0.0
C819 C 0.36176 0.36551 0.16237 0.0
H820 H 0.37296 0.28526 0.13379 0.0
H821 H 0.34366 0.33562 0.12534 0.0
S822 S 0.41312 0.37805 0.22575 0.0
N823 N 0.41967 0.3388 0.21277 0.0
N824 N 0.38773 0.39354 0.20383 0.0
C825 C 0.38399 0.36664 0.18424 0.0
C826 C 0.40123 0.33714 0.18909 0.0
C827 C 0.35897 0.79166 0.88999 0.0
C828 C 0.32674 0.79976 0.89758 0.0
C829 C 0.38405 0.81399 0.89736 0.0
C830 C 0.37795 0.84583 0.91193 0.0
H831 H 0.36488 0.76819 0.87748 0.0
H832 H 0.40826 0.807 0.89014 0.0
S833 S 0.2981 0.87895 0.93785 0.0
N834 N 0.29053 0.84144 0.92192 0.0
N835 N 0.3372 0.88356 0.93488 0.0
C836 C 0.34592 0.85379 0.92039 0.0
C837 C 0.32049 0.83077 0.91351 0.0
C838 C 0.35121 0.25663 0.93277 0.0
C839 C 0.37913 0.27532 0.93864 0.0
C840 C 0.32201 0.2727 0.92922 0.0
C841 C 0.31902 0.30831 0.93164 0.0
H842 H 0.35205 0.22933 0.93006 0.0
H843 H 0.30162 0.25696 0.9243 0.0
S844 S 0.38477 0.36929 0.94673 0.0
N845 N 0.40132 0.3319 0.94684 0.0
N846 N 0.34732 0.36157 0.94024 0.0
C847 C 0.34669 0.3272 0.9379 0.0
C848 C 0.37633 0.31093 0.94137 0.0
C849 C 0.85597 0.28794 0.89943 0.0
C850 C 0.82385 0.29779 0.90173 0.0
C851 C 0.88074 0.31082 0.90652 0.0
C852 C 0.87454 0.34481 0.91556 0.0
H853 H 0.86213 0.26253 0.89123 0.0
H854 H 0.90504 0.30221 0.90344 0.0
S855 S 0.79451 0.38326 0.92625 0.0
N856 N 0.78732 0.3437 0.91501 0.0
N857 N 0.83342 0.38659 0.92769 0.0
C858 C 0.84241 0.35464 0.9188 0.0
C859 C 0.81724 0.33123 0.91212 0.0
C860 C 0.82143 0.77554 0.93132 0.0
C861 C 0.81878 0.81021 0.9405 0.0
C862 C 0.85045 0.75801 0.93134 0.0
C863 C 0.87852 0.77439 0.93998 0.0
H864 H 0.80103 0.76181 0.92343 0.0
H865 H 0.85115 0.73176 0.92333 0.0
S866 S 0.88456 0.86394 0.9684 0.0
N867 N 0.84711 0.85926 0.96064 0.0
N868 N 0.90108 0.82692 0.95987 0.0
C869 C 0.87599 0.80866 0.9501 0.0
C870 C 0.84643 0.82633 0.95056 0.0
C871 C 0.84806 0.81511 0.1496 0.0
C872 C 0.87446 0.8153 0.16681 0.0
C873 C 0.83108 0.84456 0.14706 0.0
C874 C 0.83987 0.87501 0.16186 0.0
H875 H 0.83922 0.79164 0.1396 0.0
H876 H 0.80955 0.84281 0.13535 0.0
S877 S 0.91049 0.88985 0.20537 0.0
N878 N 0.91139 0.84915 0.19534 0.0
N879 N 0.87914 0.90478 0.1908 0.0
C880 C 0.86815 0.87634 0.17651 0.0
C881 C 0.88558 0.84626 0.17898 0.0
C882 C 0.3508 0.79946 0.26696 0.0
C883 C 0.34191 0.78822 0.2384 0.0
C884 C 0.35823 0.83322 0.27339 0.0
C885 C 0.35744 0.85764 0.25155 0.0
H886 H 0.35179 0.7821 0.28497 0.0
H887 H 0.36478 0.83999 0.29596 0.0
S888 S 0.33702 0.84151 0.17262 0.0
N889 N 0.33353 0.80397 0.18751 0.0
N890 N 0.34817 0.86819 0.19961 0.0
C891 C 0.34959 0.84686 0.22246 0.0
C892 C 0.34172 0.81199 0.21586 0.0
C893 C 0.86294 0.30822 0.23334 0.0
C894 C 0.85333 0.30352 0.20387 0.0
C895 C 0.86842 0.34048 0.24603 0.0
C896 C 0.86518 0.36959 0.22971 0.0
H897 H 0.86521 0.28688 0.24734 0.0
H898 H 0.87537 0.34249 0.26896 0.0
S899 S 0.84268 0.37141 0.15103 0.0
N900 N 0.84177 0.33079 0.15824 0.0
N901 N 0.85332 0.39181 0.18196 0.0
C902 C 0.85677 0.36545 0.19982 0.0
C903 C 0.85047 0.33235 0.18699 0.0
C904 C 0.842 0.68835 0.82569 0.0
C905 C 0.85731 0.67086 0.80057 0.0
C906 C 0.85942 0.70192 0.84896 0.0
C907 C 0.89253 0.69783 0.84818 0.0
H908 H 0.81715 0.69478 0.82591 0.0
H909 H 0.84728 0.71808 0.86637 0.0
S910 S 0.9421 0.64679 0.79113 0.0
N911 N 0.90617 0.64489 0.77888 0.0
N912 N 0.93882 0.66975 0.82316 0.0
C913 C 0.90725 0.67645 0.82536 0.0
C914 C 0.88959 0.66308 0.80135 0.0
C915 C 0.27181 0.43462 0.8382 0.0
C916 C 0.28435 0.42645 0.86514 0.0
C917 C 0.28921 0.45527 0.81786 0.0
C918 C 0.31934 0.46813 0.82428 0.0
H919 H 0.2507 0.42159 0.831 0.0
H920 H 0.28086 0.45752 0.79568 0.0
S921 S 0.35657 0.46292 0.89649 0.0
N922 N 0.32421 0.43882 0.90044 0.0
N923 N 0.35655 0.47879 0.8628 0.0
C924 C 0.32905 0.46502 0.85349 0.0
C925 C 0.31164 0.44358 0.87385 0.0
C926 C 0.35818 0.68458 0.33876 0.0
C927 C 0.39106 0.69161 0.33676 0.0
C928 C 0.34308 0.67142 0.3137 0.0
C929 C 0.36018 0.66574 0.28543 0.0
H930 H 0.34369 0.69135 0.3593 0.0
H931 H 0.31742 0.66857 0.31591 0.0
S932 S 0.44733 0.67657 0.26923 0.0
N933 N 0.44079 0.68858 0.30522 0.0
N934 N 0.41231 0.66484 0.25783 0.0
C935 C 0.39344 0.67014 0.28379 0.0
C936 C 0.40891 0.68289 0.30954 0.0
C937 C 0.79207 0.44697 0.34991 0.0
C938 C 0.80522 0.42762 0.37131 0.0
C939 C 0.81157 0.46796 0.33144 0.0
C940 C 0.8445 0.47036 0.33428 0.0
H941 H 0.76749 0.44302 0.34507 0.0
H942 H 0.80136 0.47949 0.31294 0.0
S943 S 0.88798 0.43217 0.39308 0.0
N944 N 0.85122 0.41729 0.39857 0.0
N945 N 0.88777 0.45771 0.36479 0.0
C946 C 0.8567 0.45527 0.35883 0.0
C947 C 0.83701 0.43344 0.37711 0.0
C948 C 0.31707 0.67457 0.82437 0.0
C949 C 0.28857 0.6913 0.82091 0.0
C950 C 0.34108 0.67128 0.80065 0.0
C951 C 0.3378 0.68459 0.77223 0.0
H952 H 0.32137 0.66451 0.84589 0.0
H953 H 0.36279 0.659 0.80502 0.0
S954 S 0.26685 0.72862 0.75039 0.0
N955 N 0.25771 0.7196 0.78592 0.0
N956 N 0.30282 0.71372 0.7416 0.0
C957 C 0.30894 0.70029 0.76805 0.0
C958 C 0.28438 0.70362 0.79224 0.0
C959 C 0.86965 0.46974 0.79154 0.0
C960 C 0.8601 0.45649 0.81972 0.0
C961 C 0.84888 0.46925 0.76847 0.0
C962 C 0.8182 0.45502 0.77287 0.0
H963 H 0.89393 0.47857 0.78667 0.0
H964 H 0.85787 0.47705 0.74631 0.0
S965 S 0.78076 0.41975 0.84306 0.0
N966 N 0.81683 0.43169 0.85151 0.0
N967 N 0.77835 0.42977 0.80772 0.0
C968 C 0.80764 0.44396 0.8015 0.0
C969 C 0.82847 0.445 0.82514 0.0
C970 C 0.33042 0.44378 0.32435 0.0
C971 C 0.36226 0.45336 0.31666 0.0
C972 C 0.30848 0.44066 0.30241 0.0
C973 C 0.31739 0.44789 0.2723 0.0
H974 H 0.32299 0.4359 0.34687 0.0
H975 H 0.28514 0.4299 0.30855 0.0
S976 S 0.39626 0.47909 0.24154 0.0
N977 N 0.40058 0.47388 0.27759 0.0
N978 N 0.3589 0.46867 0.23646 0.0
C979 C 0.34813 0.46083 0.26494 0.0
C980 C 0.37073 0.46343 0.28717 0.0
C981 C 0.76697 0.72447 0.2883 0.0
C982 C 0.77435 0.70552 0.31277 0.0
C983 C 0.78877 0.7285 0.26317 0.0
C984 C 0.81848 0.71283 0.26083 0.0
H985 H 0.74461 0.73749 0.2889 0.0
H986 H 0.7827 0.74497 0.24579 0.0
S987 S 0.84864 0.65769 0.31677 0.0
N988 N 0.81312 0.66895 0.33187 0.0
N989 N 0.85363 0.67588 0.28401 0.0
C990 C 0.82553 0.69202 0.28402 0.0
C991 C 0.80357 0.68848 0.3101 0.0
C992 C 0.35409 0.81596 0.65601 0.0
C993 C 0.37832 0.81443 0.67562 0.0
C994 C 0.33765 0.84582 0.65378 0.0
C995 C 0.34463 0.87491 0.67146 0.0
H996 H 0.3466 0.79343 0.64352 0.0
H997 H 0.3178 0.84532 0.63978 0.0
S998 S 0.40861 0.88479 0.72373 0.0
N999 N 0.41095 0.84508 0.71065 0.0
N1000 N 0.37957 0.90147 0.70689 0.0
C1001 C 0.37067 0.87456 0.68922 0.0
C1002 C 0.38767 0.8441 0.69126 0.0
C1003 C 0.34137 0.37567 0.41476 0.0
C1004 C 0.36948 0.35937 0.42081 0.0
C1005 C 0.31348 0.35742 0.40912 0.0
C1006 C 0.31198 0.32204 0.40992 0.0
H1007 H 0.34108 0.40288 0.41314 0.0
H1008 H 0.29325 0.37108 0.40273 0.0
S1009 S 0.37765 0.26667 0.42625 0.0
N1010 N 0.39326 0.30528 0.42851 0.0
N1011 N 0.34046 0.2711 0.41818 0.0
C1012 C 0.33919 0.30529 0.41732 0.0
C1013 C 0.36795 0.32391 0.4228 0.0
C1014 C 0.33549 0.82453 0.44736 0.0
C1015 C 0.30664 0.80759 0.44177 0.0
C1016 C 0.36486 0.80764 0.44498 0.0
C1017 C 0.36716 0.77263 0.43749 0.0
H1018 H 0.33569 0.8515 0.45274 0.0
H1019 H 0.38617 0.82244 0.44876 0.0
S1020 S 0.29897 0.71567 0.42145 0.0
N1021 N 0.28258 0.75303 0.42871 0.0
N1022 N 0.33737 0.72145 0.42507 0.0
C1023 C 0.33845 0.75505 0.43271 0.0
C1024 C 0.30847 0.77241 0.43459 0.0
C1025 C 0.84901 0.79734 0.39476 0.0
C1026 C 0.81669 0.80631 0.39985 0.0
C1027 C 0.87385 0.81931 0.40351 0.0
C1028 C 0.86751 0.85174 0.41682 0.0
H1029 H 0.85525 0.7734 0.38321 0.0
H1030 H 0.89822 0.81156 0.39826 0.0
S1031 S 0.78718 0.88755 0.43548 0.0
N1032 N 0.78001 0.84966 0.42015 0.0
N1033 N 0.82624 0.89114 0.43547 0.0
C1034 C 0.83529 0.86066 0.4226 0.0
C1035 C 0.81006 0.83798 0.41444 0.0
C1036 C 0.84346 0.33356 0.43906 0.0
C1037 C 0.81408 0.31608 0.43838 0.0
C1038 C 0.87238 0.31643 0.43967 0.0
C1039 C 0.8737 0.28075 0.44003 0.0
H1040 H 0.84436 0.36086 0.43815 0.0
H1041 H 0.89407 0.33157 0.43926 0.0
S1042 S 0.80314 0.22288 0.44237 0.0
N1043 N 0.78796 0.26081 0.44046 0.0
N1044 N 0.84202 0.22879 0.44231 0.0
C1045 C 0.84432 0.26296 0.44085 0.0
C1046 C 0.81474 0.28048 0.43977 0.0
C1047 C 0.85643 0.31087 0.64825 0.0
C1048 C 0.881 0.3111 0.66766 0.0
C1049 C 0.8402 0.34037 0.64401 0.0
C1050 C 0.8479 0.37089 0.65927 0.0
H1051 H 0.84834 0.28735 0.63773 0.0
H1052 H 0.81982 0.33861 0.63067 0.0
S1053 S 0.91387 0.38571 0.70867 0.0
N1054 N 0.91529 0.34493 0.699 0.0
N1055 N 0.88441 0.4007 0.69128 0.0
C1056 C 0.87461 0.37222 0.67621 0.0
C1057 C 0.89128 0.34208 0.68043 0.0
C1058 C 0.35614 0.35457 0.69221 0.0
C1059 C 0.3648 0.35694 0.72207 0.0
C1060 C 0.35846 0.32384 0.67507 0.0
C1061 C 0.36967 0.29454 0.68716 0.0
H1062 H 0.34797 0.37671 0.6819 0.0
H1063 H 0.3524 0.32325 0.65186 0.0
S1064 S 0.4001 0.28887 0.7624 0.0
N1065 N 0.38705 0.32788 0.76222 0.0
N1066 N 0.39275 0.27082 0.72942 0.0
C1067 C 0.37879 0.29669 0.71677 0.0
C1068 C 0.37595 0.32773 0.7344 0.0
C1069 C 0.84052 0.84855 0.77877 0.0
C1070 C 0.85682 0.86789 0.75659 0.0
C1071 C 0.83432 0.81424 0.77355 0.0
C1072 C 0.8436 0.79761 0.7457 0.0
H1073 H 0.83349 0.85965 0.80099 0.0
H1074 H 0.82254 0.80058 0.79196 0.0
S1075 S 0.88414 0.83739 0.67885 0.0
N1076 N 0.88023 0.86864 0.70478 0.0
N1077 N 0.86782 0.80357 0.69469 0.0
C1078 C 0.85811 0.81694 0.7225 0.0
C1079 C 0.86481 0.85226 0.72797 0.0
C1080 C 0.74726 0.33061 0.7823 0.0
C1081 C 0.72742 0.33489 0.80914 0.0
C1082 C 0.74757 0.35373 0.75935 0.0
C1083 C 0.7285 0.38267 0.76239 0.0
H1084 H 0.76277 0.30907 0.77885 0.0
H1085 H 0.76328 0.34894 0.73917 0.0
S1086 S 0.67283 0.40622 0.8288 0.0
N1087 N 0.68832 0.37039 0.8377 0.0
N1088 N 0.68934 0.41445 0.79491 0.0
C1089 C 0.70875 0.38753 0.78935 0.0
C1090 C 0.70813 0.36357 0.81262 0.0
C1091 C 0.46051 0.82885 0.80061 0.0
C1092 C 0.42963 0.83301 0.81473 0.0
C1093 C 0.46731 0.80274 0.77845 0.0
C1094 C 0.44364 0.77937 0.7699 0.0
H1095 H 0.47939 0.84652 0.80597 0.0
H1096 H 0.49124 0.80116 0.76769 0.0
S1097 S 0.35908 0.77831 0.80084 0.0
N1098 N 0.3753 0.81074 0.81893 0.0
N1099 N 0.38809 0.7619 0.77803 0.0
C1100 C 0.41289 0.78271 0.78454 0.0
C1101 C 0.40589 0.80942 0.80673 0.0
C1102 C 0.73071 0.83442 0.2791 0.0
C1103 C 0.71602 0.84158 0.30816 0.0
C1104 C 0.73067 0.85766 0.25629 0.0
C1105 C 0.7161 0.88935 0.26145 0.0
H1106 H 0.7425 0.81055 0.27382 0.0
H1107 H 0.74259 0.85068 0.23446 0.0
S1108 S 0.67474 0.92077 0.33406 0.0
N1109 N 0.68658 0.88263 0.3411 0.0
N1110 N 0.68666 0.92666 0.29836 0.0
C1111 C 0.70116 0.89684 0.2905 0.0
C1112 C 0.7011 0.87293 0.31378 0.0
C1113 C 0.46202 0.32772 0.30128 0.0
C1114 C 0.43779 0.3236 0.32454 0.0
C1115 C 0.46843 0.30214 0.27863 0.0
C1116 C 0.45103 0.27126 0.2784 0.0
H1117 H 0.47504 0.35152 0.29963 0.0
H1118 H 0.48634 0.30727 0.26048 0.0
S1119 S 0.38893 0.24583 0.33752 0.0
N1120 N 0.39882 0.28495 0.34797 0.0
N1121 N 0.41111 0.23678 0.30595 0.0
C1122 C 0.42812 0.2661 0.30271 0.0
C1123 C 0.42145 0.29226 0.32558 0.0
C1124 C 0.46794 0.33162 0.80116 0.0
C1125 C 0.46472 0.33997 0.83237 0.0
C1126 C 0.45905 0.3542 0.78001 0.0
C1127 C 0.44636 0.38598 0.78923 0.0
H1128 H 0.47672 0.30707 0.79298 0.0
H1129 H 0.46164 0.34639 0.7563 0.0
S1130 S 0.43363 0.42017 0.86859 0.0
N1131 N 0.44865 0.38242 0.87146 0.0
N1132 N 0.4317 0.42477 0.83213 0.0
C1133 C 0.44367 0.39488 0.82046 0.0
C1134 C 0.45289 0.37191 0.8419 0.0
C1135 C 0.75119 0.75762 0.80677 0.0
C1136 C 0.74957 0.79308 0.80846 0.0
C1137 C 0.75548 0.73961 0.77894 0.0
C1138 C 0.75819 0.75626 0.75153 0.0
H1139 H 0.74893 0.74351 0.82714 0.0
H1140 H 0.75587 0.71226 0.77898 0.0
S1141 S 0.75781 0.84907 0.74354 0.0
N1142 N 0.75266 0.84447 0.78034 0.0
N1143 N 0.76043 0.81044 0.72789 0.0
C1144 C 0.75713 0.79178 0.75284 0.0
C1145 C 0.75297 0.81022 0.78132 0.0
C1146 C 0.74683 0.26472 0.30171 0.0
C1147 C 0.74924 0.30015 0.30463 0.0
C1148 C 0.75322 0.24745 0.27372 0.0
C1149 C 0.76197 0.26487 0.24733 0.0
H1150 H 0.73979 0.25009 0.3212 0.0
H1151 H 0.75038 0.22016 0.27267 0.0
S1152 S 0.77337 0.35761 0.2428 0.0
N1153 N 0.76252 0.35212 0.27881 0.0
N1154 N 0.77369 0.31948 0.22599 0.0
C1155 C 0.76478 0.30028 0.24985 0.0
C1156 C 0.75869 0.31794 0.27855 0.0
C1157 C 0.45723 0.88551 0.30503 0.0
C1158 C 0.44939 0.87671 0.27543 0.0
C1159 C 0.46027 0.86099 0.32619 0.0
C1160 C 0.45588 0.82649 0.31872 0.0
H1161 H 0.46049 0.91176 0.31231 0.0
H1162 H 0.46577 0.86926 0.34876 0.0
S1163 S 0.43566 0.78939 0.24441 0.0
N1164 N 0.43777 0.83056 0.2397 0.0
N1165 N 0.44373 0.78434 0.2796 0.0
C1166 C 0.44871 0.817 0.28911 0.0
C1167 C 0.44545 0.84212 0.26744 0.0
C1168 C 0.2369 1.00739 0.41975 0.0
C1169 C 0.20867 0.99288 0.43299 0.0
C1170 C 0.23814 1.0413 0.41132 0.0
C1171 C 0.21115 1.06192 0.41554 0.0
H1172 H 0.25851 0.99288 0.41683 0.0
H1173 H 0.26061 1.05162 0.40199 0.0
S1174 S 0.13058 1.03511 0.44625 0.0
N1175 N 0.15245 1.00122 0.44776 0.0
N1176 N 0.15483 1.06451 0.43183 0.0
C1177 C 0.18248 1.04727 0.42749 0.0
C1178 C 0.18123 1.01289 0.43622 0.0
C1179 C 1.07273 0.19594 0.41349 0.0
C1180 C 1.05814 0.22776 0.41481 0.0
C1181 C 0.1062 0.19281 0.40961 0.0
C1182 C 0.12691 0.22135 0.40732 0.0
H1183 H 1.05819 0.17309 0.4147 0.0
H1184 H 0.11587 0.1676 0.40829 0.0
S1185 S 0.10118 0.31076 0.41115 0.0
N1186 N 1.06758 0.28867 0.41466 0.0
N1187 N 0.12981 0.28272 0.4077 0.0
C1188 C 0.11264 0.25335 0.40945 0.0
C1189 C 1.07859 0.25654 0.41306 0.0
C1190 C 0.97419 0.07125 0.39386 0.0
C1191 C 0.9608 0.09109 0.41866 0.0
C1192 C 0.97271 1.03561 0.3933 0.0
C1193 C 0.9585 1.01789 0.41785 0.0
H1194 H 0.98574 0.08337 0.37445 0.0
H1195 H 0.98298 1.0218 0.37339 0.0
S1196 S 0.92055 1.05761 0.48878 0.0
N1197 N 0.93297 0.09006 0.46865 0.0
N1198 N 0.93085 1.02334 0.46793 0.0
C1199 C 0.9454 1.03739 0.44303 0.0
C1200 C 0.94632 0.07379 0.44332 0.0
C1201 C 1.07611 0.88238 0.42313 0.0
C1202 C 1.06232 0.89837 0.44991 0.0
C1203 C 0.1087 0.87367 0.4198 0.0
C1204 C 0.12907 0.88003 0.44325 0.0
H1205 H 1.06178 0.87704 0.40432 0.0
H1206 H 0.118 0.86204 0.39847 0.0
S1207 S 0.10457 0.91991 0.51873 0.0
N1208 N 1.07188 0.91918 0.50078 0.0
N1209 N 0.1321 0.90266 0.49471 0.0
C1210 C 0.1153 0.89534 0.47037 0.0
C1211 C 1.08235 0.9045 0.47364 0.0
C1212 C 0.26511 0.11532 0.70333 0.0
C1213 C 0.26438 0.13501 0.67783 0.0
C1214 C 0.24957 0.0838 0.70494 0.0
C1215 C 0.23239 0.07056 0.68121 0.0
H1216 H 0.27811 0.12409 0.72227 0.0
H1217 H 0.25109 0.06973 0.72507 0.0
S1218 S 0.22304 0.11179 0.6092 0.0
N1219 N 0.24516 0.13878 0.62812 0.0
N1220 N 0.21542 0.07971 0.63127 0.0
C1221 C 0.23099 0.09014 0.65568 0.0
C1222 C 0.24707 0.12229 0.65397 0.0
C1223 C 0.09909 0.18261 0.69878 0.0
C1224 C 1.07966 0.18756 0.67525 0.0
C1225 C 0.13187 0.17761 0.69271 0.0
C1226 C 0.146 0.1772 0.66294 0.0
H1227 H 1.08931 0.18454 0.72206 0.0
H1228 H 0.14645 0.17644 0.71156 0.0
S1229 S 0.1042 0.18212 0.59319 0.0
N1230 N 1.07598 0.18684 0.62096 0.0
N1231 N 0.13736 0.17702 0.60958 0.0
C1232 C 0.12624 0.17881 0.63917 0.0
C1233 C 1.09306 0.18422 0.64532 0.0
C1234 C 0.95298 0.08126 0.66963 0.0
C1235 C 0.94491 0.11063 0.68756 0.0
C1236 C 0.94051 1.04944 0.67738 0.0
C1237 C 0.91957 1.04598 0.70327 0.0
H1238 H 0.97035 0.0825 0.65037 0.0
H1239 H 0.94928 1.02727 0.66437 0.0
S1240 S 0.8866 0.11511 0.75479 0.0
N1241 N 0.91127 0.13439 0.73015 0.0
N1242 N 0.88817 0.07449 0.74466 0.0
C1243 C 0.90934 0.07527 0.71994 0.0
C1244 C 0.92191 0.10766 0.71209 0.0
C1245 C 1.05601 0.95919 0.67787 0.0
C1246 C 1.03483 0.97265 0.70109 0.0
C1247 C 1.08875 0.96173 0.6798 0.0
C1248 C 0.10153 0.97804 0.70489 0.0
H1249 H 1.04731 0.94533 0.65856 0.0
H1250 H 0.10412 0.94989 0.66179 0.0
S1251 S 1.0563 1.02099 0.77011 0.0
N1252 N 1.02872 1.00539 0.74882 0.0
N1253 N 1.09082 1.01044 0.75225 0.0
C1254 C 1.08078 0.99352 0.72743 0.0
C1255 C 1.04721 0.99074 0.72557 0.0
C1256 C 0.46268 0.22705 0.09214 0.0
C1257 C 0.44723 0.20135 0.10913 0.0
C1258 C 0.46362 0.22628 0.06052 0.0
C1259 C 0.4494 0.19964 1.04421 0.0
H1260 H 0.4743 0.24818 0.10336 0.0
H1261 H 0.47593 0.24669 1.04876 0.0
S1262 S 0.4059 0.12588 0.07742 0.0
N1263 N 0.41712 0.14845 0.107 0.0
N1264 N 0.41911 0.14675 1.04747 0.0
C1265 C 0.43363 0.17379 0.06077 0.0
C1266 C 0.43244 0.17474 0.09319 0.0
C1267 C 0.91296 0.41889 1.0492 0.0
C1268 C 0.94005 0.40108 1.03732 0.0
C1269 C 0.90699 0.42587 0.08036 0.0
C1270 C 0.92769 0.4151 0.10111 0.0
H1271 H 0.89668 0.42859 1.03423 0.0
H1272 H 0.88638 0.4407 0.08814 0.0
S1273 S 1.00091 0.36538 0.08181 0.0
N1274 N 0.98694 0.3712 1.04887 0.0
N1275 N 0.97569 0.38396 0.10743 0.0
C1276 C 0.95411 0.39581 0.08965 0.0
C1277 C 0.96032 0.38894 0.05779 0.0
C1278 C 0.75932 0.94858 0.05651 0.0
C1279 C 0.73928 0.92293 1.04533 0.0
C1280 C 0.7563 0.95963 0.08709 0.0
C1281 C 0.73272 0.94586 0.10746 0.0
H1282 H 0.77768 0.96 1.0416 0.0
H1283 H 0.77248 0.97917 0.09477 0.0
S1284 S 0.67359 0.87865 0.08898 0.0
N1285 N 0.69487 0.88436 0.05677 0.0
N1286 N 0.68863 0.90535 0.11384 0.0
C1287 C 0.71221 0.9205 0.09631 0.0
C1288 C 0.71566 0.90895 0.06537 0.0
C1289 C 0.24341 0.72089 1.05235 0.0
C1290 C 0.24547 0.69365 0.07134 0.0
C1291 C 0.23999 0.71518 1.02116 0.0
C1292 C 0.23795 0.68205 1.00829 0.0
H1293 H 0.24234 0.74654 0.06194 0.0
H1294 H 0.23697 0.73666 1.00752 0.0
S1295 S 0.24679 0.60262 1.04788 0.0
N1296 N 0.24885 0.63291 0.07445 0.0
N1297 N 0.24214 0.62201 1.01653 0.0
C1298 C 0.24213 0.6549 1.02685 0.0
C1299 C 0.24591 0.66076 0.05821 0.0
C1300 C 0.41618 0.92551 1.04431 0.0
C1301 C 0.43965 0.90235 1.03321 0.0
C1302 C 0.41069 0.93358 0.07526 0.0
C1303 C 0.42802 0.91842 0.09656 0.0
H1304 H 0.40276 0.93867 1.02888 0.0
H1305 H 0.39327 0.95264 0.0825 0.0
S1306 S 0.49035 0.85396 0.07953 0.0
N1307 N 0.47917 0.86281 1.0461 0.0
N1308 N 0.46839 0.87752 0.10448 0.0
C1309 C 0.45036 0.89379 0.08598 0.0
C1310 C 0.45631 0.8859 1.05426 0.0
C1311 C 0.25996 0.43231 0.08272 0.0
C1312 C 0.23813 0.41541 0.1027 0.0
C1313 C 0.25989 0.42675 1.05135 0.0
C1314 C 0.23829 0.40372 1.03874 0.0
H1315 H 0.2773 0.45003 0.09133 0.0
H1316 H 0.27719 0.44031 1.03689 0.0
S1317 S 0.17548 0.35378 0.08083 0.0
N1318 N 0.19354 0.37535 0.1073 0.0
N1319 N 0.19394 0.36459 1.04844 0.0
C1320 C 0.21617 0.38683 0.05832 0.0
C1321 C 0.21593 0.39279 0.09027 0.0
C1322 C 0.75321 0.21411 1.03957 0.0
C1323 C 0.73176 0.2003 0.06178 0.0
C1324 C 0.74685 0.21207 1.00886 0.0
C1325 C 0.71856 0.19672 0.99949 0.0
H1326 H 0.77561 0.22512 1.04574 0.0
H1327 H 0.76463 0.22166 0.99231 0.0
S1328 S 0.65286 0.16092 1.04996 0.0
N1329 N 0.68015 0.17331 0.07274 0.0
N1330 N 0.6676 0.17063 1.01592 0.0
C1331 C 0.69615 0.18483 1.02199 0.0
C1332 C 0.70292 0.1863 1.05287 0.0
C1333 C 0.93893 0.67875 0.05581 0.0
C1334 C 0.94856 0.70659 1.03834 0.0
C1335 C 0.93586 0.68173 0.08763 0.0
C1336 C 0.94243 0.71263 0.10297 0.0
H1337 H 0.93425 0.65436 1.04485 0.0
H1338 H 0.92936 0.65952 0.10024 0.0
S1339 S 0.96484 0.79395 0.0677 0.0
N1340 N 0.96219 0.76653 1.03889 0.0
N1341 N 0.95634 0.77223 0.09817 0.0
C1342 C 0.95089 0.74085 0.08566 0.0
C1343 C 0.954 0.73781 1.05349 0.0
C1344 C 1.09307 0.46907 0.21604 0.0
C1345 C 0.11143 0.4495 0.19426 0.0
C1346 C 1.06006 0.47109 0.2148 0.0
C1347 C 1.04475 0.45398 0.1915 0.0
H1348 H 0.10405 0.48185 0.23469 0.0
H1349 H 1.0464 0.48535 0.23258 0.0
S1350 S 1.08307 0.40255 0.12718 0.0
N1351 N 0.1125 0.41486 0.14756 0.0
N1352 N 1.05077 0.41908 0.14493 0.0
C1353 C 1.0632 0.43582 0.16876 0.0
C1354 C 0.09654 0.43344 0.17023 0.0
C1355 C 0.11639 0.74839 0.90043 0.0
C1356 C 0.13295 0.71945 0.90722 0.0
C1357 C 1.08283 0.74946 0.90312 0.0
C1358 C 1.06361 0.72181 0.9131 0.0
H1359 H 0.12942 0.77051 0.8924 0.0
H1360 H 1.07189 0.77249 0.8972 0.0
S1361 S 0.09454 0.63995 0.93494 0.0
N1362 N 0.12694 0.66228 0.92514 0.0
N1363 N 1.06428 0.66452 0.93043 0.0
C1364 C 1.07977 0.69283 0.92054 0.0
C1365 C 0.11412 0.69158 0.91751 0.0
C1366 C 0.45771 1.03817 0.90365 0.0
C1367 C 0.47093 1.01427 0.92149 0.0
C1368 C 0.45921 0.07332 0.91091 0.0
C1369 C 0.47445 0.08633 0.93609 0.0
H1370 H 0.44526 1.02965 0.88427 0.0
H1371 H 0.44829 0.09039 0.89665 0.0
S1372 S 0.51399 1.0348 0.98965 0.0
N1373 N 0.50037 1.0066 0.96522 0.0
N1374 N 0.50366 0.07196 0.97862 0.0
C1375 C 0.48832 1.06269 0.95376 0.0
C1376 C 0.48643 1.02697 0.94657 0.0
C1377 C 0.1257 0.39513 0.94869 0.0
C1378 C 0.13646 0.37026 0.92661 0.0
C1379 C 0.09355 0.404 0.95349 0.0
C1380 C 1.0699 0.38858 0.9366 0.0
H1381 H 0.14228 0.40827 0.96264 0.0
H1382 H 1.08732 0.42337 0.97084 0.0
S1383 S 1.08448 0.32156 0.87601 0.0
N1384 N 0.12013 0.33002 0.88758 0.0
N1385 N 1.05966 0.34661 0.89677 0.0
C1386 C 1.08 0.36341 0.91453 0.0
C1387 C 0.1131 0.35429 0.90955 0.0
C1388 C 0.75447 1.01782 0.92455 0.0
C1389 C 0.72611 0.99854 0.92383 0.0
C1390 C 0.75516 1.05264 0.91887 0.0
C1391 C 0.72774 1.06926 0.91158 0.0
H1392 H 0.77589 1.00636 0.93088 0.0
H1393 H 0.77726 1.06673 0.9206 0.0
S1394 S 0.64826 1.02936 0.90416 0.0
N1395 N 0.67038 0.9983 0.91372 0.0
N1396 N 0.67197 1.06305 0.90224 0.0
C1397 C 0.69969 1.04982 0.90939 0.0
C1398 C 0.69882 1.01467 0.91573 0.0
C1399 C 0.09435 0.70606 0.19947 0.0
C1400 C 1.07861 0.72899 0.18299 0.0
C1401 C 0.12751 0.70453 0.19702 0.0
C1402 C 0.14611 0.72599 0.17812 0.0
H1403 H 1.08099 0.68895 0.21426 0.0
H1404 H 0.13861 0.68626 0.21001 0.0
S1405 S 0.11643 0.79081 0.1304 0.0
N1406 N 1.08397 0.77386 0.14724 0.0
N1407 N 0.14655 0.77104 0.14278 0.0
C1408 C 0.13075 0.74929 0.1617 0.0
C1409 C 0.09688 0.75076 0.16409 0.0
C1410 C 0.43923 1.04658 0.1754 0.0
C1411 C 0.41667 1.04305 0.20012 0.0
C1412 C 0.45451 0.07782 0.17009 0.0
C1413 C 0.44773 0.10652 0.18934 0.0
H1414 H 0.44691 1.02463 0.16143 0.0
H1415 H 0.47281 0.07898 0.1516 0.0
S1416 S 0.38661 0.11128 0.25433 0.0
N1417 N 0.38542 0.07142 0.24176 0.0
N1418 N 0.41392 0.13007 0.23189 0.0
C1419 C 0.42334 0.10379 0.21268 0.0
C1420 C 0.40784 0.07206 0.21802 0.0
C1421 C 0.74338 0.08573 0.1455 0.0
C1422 C 0.73224 0.07274 0.17347 0.0
C1423 C 0.76223 0.11547 0.14413 0.0
C1424 C 0.76984 0.13331 0.17065 0.0
H1425 H 0.73893 0.07194 0.12463 0.0
H1426 H 0.77226 0.12348 0.12236 0.0
S1427 S 0.74266 0.1127 0.24914 0.0
N1428 N 0.72758 0.08198 0.22803 0.0
N1429 N 0.76243 0.13786 0.22538 0.0
C1430 C 0.75715 0.12173 0.19856 0.0
C1431 C 0.73843 0.09144 0.19998 0.0
C1432 C 0.25749 0.55051 0.9198 0.0
C1433 C 0.23034 0.56841 0.91363 0.0
C1434 C 0.25593 0.51543 0.92452 0.0
C1435 C 0.22698 0.49714 0.92399 0.0
H1436 H 0.28003 0.56378 0.92138 0.0
H1437 H 0.27721 0.50292 0.9299 0.0
S1438 S 0.14953 0.5315 0.90694 0.0
N1439 N 0.17415 0.56446 0.90546 0.0
N1440 N 0.17101 0.49928 0.91511 0.0
C1441 C 0.19996 0.51459 0.91699 0.0
C1442 C 0.20168 0.54999 0.91163 0.0
C1443 C 0.98191 0.56128 0.95169 0.0
C1444 C 0.96937 0.58452 0.93281 0.0
C1445 C 0.97973 0.52605 0.94581 0.0
C1446 C 0.96547 0.51223 0.9204 0.0
H1447 H 0.99318 0.5703 0.97161 0.0
H1448 H 0.9894 0.50952 0.96137 0.0
S1449 S 0.92915 0.56181 0.8634 0.0
N1450 N 0.94217 0.59087 0.88746 0.0
N1451 N 0.93848 0.52501 0.87603 0.0
C1452 C 0.95317 0.53519 0.90104 0.0
C1453 C 0.95496 0.57112 0.90734 0.0
C1454 C 0.26814 0.54487 0.18018 0.0
C1455 C 0.24041 0.53516 0.16614 0.0
C1456 C 0.27958 0.57847 0.18013 0.0
C1457 C 0.26335 0.60356 0.16645 0.0
H1458 H 0.28055 0.52664 0.1921 0.0
H1459 H 0.30009 0.58516 0.19242 0.0
S1460 S 0.19134 0.59085 0.12441 0.0
N1461 N 0.19864 0.55303 0.13604 0.0
N1462 N 0.21959 0.61597 0.13676 0.0
C1463 C 0.23661 0.59378 0.15107 0.0
C1464 C 0.22527 0.55964 0.1507 0.0
C1465 C 0.9251 0.58058 0.21695 0.0
C1466 C 0.93418 0.55236 0.19796 0.0
C1467 C 0.93593 0.61329 0.21038 0.0
C1468 C 0.95653 0.61925 0.18463 0.0
H1469 H 0.91017 0.57732 0.23764 0.0
H1470 H 0.92877 0.6339 0.2262 0.0
S1471 S 0.98539 0.55436 0.12619 0.0
N1472 N 0.96337 0.53275 0.15127 0.0
N1473 N 0.9838 0.59426 0.13876 0.0
C1474 C 0.96463 0.59147 0.16463 0.0
C1475 C 0.95339 0.55805 0.1713 0.0
C1476 C 0.42984 0.68382 0.58853 0.0
C1477 C 0.44422 0.71102 0.60416 0.0
C1478 C 0.43055 0.68222 0.55671 0.0
C1479 C 0.44528 0.70796 0.53931 0.0
H1480 H 0.41859 0.66325 0.60088 0.0
H1481 H 0.4196 0.66054 0.54567 0.0
S1482 S 0.48449 0.78577 0.56928 0.0
N1483 N 0.47244 0.76505 0.59959 0.0
N1484 N 0.47344 0.76208 0.54034 0.0
C1485 C 0.45903 0.73562 0.55473 0.0
C1486 C 0.45859 0.73713 0.58696 0.0
C1487 C 0.91364 0.93337 0.55229 0.0
C1488 C 0.93489 0.90873 0.53958 0.0
C1489 C 0.91036 0.94074 0.58346 0.0
C1490 C 0.92783 0.92346 0.60336 0.0
H1491 H 0.90031 0.94818 0.53797 0.0
H1492 H 0.89466 0.96095 0.59195 0.0
S1493 S 0.98461 0.85449 0.58186 0.0
N1494 N 0.97227 0.86545 0.54945 0.0
N1495 N 0.96568 0.87897 0.60828 0.0
C1496 C 0.94782 0.89737 0.5912 0.0
C1497 C 0.95149 0.89012 0.55924 0.0
C1498 C 0.75743 0.45689 0.58589 0.0
C1499 C 0.73368 0.44308 0.60608 0.0
C1500 C 0.75883 0.44837 0.55481 0.0
C1501 C 0.7369 0.42528 0.54281 0.0
H1502 H 0.7752 0.47431 0.59415 0.0
H1503 H 0.77759 0.45951 0.54015 0.0
S1504 S 0.66922 0.38302 0.58541 0.0
N1505 N 0.68684 0.40605 0.61128 0.0
N1506 N 0.69003 0.38975 0.55314 0.0
C1507 C 0.7128 0.41165 0.56256 0.0
C1508 C 0.71102 0.42066 0.5941 0.0
C1509 C 0.22116 0.22848 0.54497 0.0
C1510 C 0.25143 0.21884 0.55224 0.0
C1511 C 0.21157 0.2233 0.51555 0.0
C1512 C 0.23194 0.20872 0.49196 0.0
H1513 H 0.20398 0.2383 0.56247 0.0
H1514 H 0.18749 0.22973 0.51154 0.0
S1515 S 0.31517 0.18298 0.49821 0.0
N1516 N 0.30279 0.19673 0.5327 0.0
N1517 N 0.28497 0.18756 0.47748 0.0
C1518 C 0.26305 0.20114 0.49845 0.0
C1519 C 0.27269 0.20601 0.52853 0.0
C1520 C 0.48268 0.40547 0.58434 0.0
C1521 C 0.45426 0.41132 0.6025 0.0
C1522 C 0.48269 0.39955 0.55303 0.0
C1523 C 0.45435 0.40032 0.53859 0.0
H1524 H 0.50526 0.40643 0.59435 0.0
H1525 H 0.50527 0.3961 0.53991 0.0
S1526 S 0.37335 0.41273 0.57611 0.0
N1527 N 0.39683 0.41542 0.60409 0.0
N1528 N 0.39686 0.4056 0.54497 0.0
C1529 C 0.42561 0.405 0.55658 0.0
C1530 C 0.42554 0.41014 0.58864 0.0
C1531 C 0.21614 0.90715 0.57435 0.0
C1532 C 0.23592 0.92355 0.55241 0.0
C1533 C 0.21487 0.91806 0.60479 0.0
C1534 C 0.23372 0.94551 0.61464 0.0
H1535 H 0.20134 0.88574 0.56797 0.0
H1536 H 0.19936 0.90437 0.62079 0.0
S1537 S 0.28885 0.99777 0.56605 0.0
N1538 N 0.27414 0.96931 0.5424 0.0
N1539 N 0.27222 0.98944 0.59987 0.0
C1540 C 0.25352 0.9623 0.59293 0.0
C1541 C 0.25448 0.95144 0.56176 0.0
C1542 C 0.72867 0.72258 0.51748 0.0
C1543 C 0.72689 0.69195 0.50028 0.0
C1544 C 0.73505 0.72282 0.54817 0.0
C1545 C 0.73995 0.69242 0.56235 0.0
H1546 H 0.72359 0.74619 0.50764 0.0
H1547 H 0.73452 0.74664 0.56118 0.0
S1548 S 0.74312 0.60637 0.52519 0.0
N1549 N 0.73418 0.63122 0.49847 0.0
N1550 N 0.74655 0.63152 0.55544 0.0
C1551 C 0.74041 0.66205 0.54454 0.0
C1552 C 0.73375 0.66185 0.51369 0.0
C1553 C 0.93558 0.18458 0.5876 0.0
C1554 C 0.94827 0.21236 0.60374 0.0
C1555 C 0.93692 0.18342 0.55586 0.0
C1556 C 0.95065 0.21016 0.53909 0.0
H1557 H 0.92515 0.16327 0.5995 0.0
H1558 H 0.92721 0.16129 0.54438 0.0
S1559 S 0.98517 0.28975 0.57061 0.0
N1560 N 0.97372 0.26801 0.60048 0.0
N1561 N 0.97592 0.2658 0.54114 0.0
C1562 C 0.96272 0.23839 0.55498 0.0
C1563 C 0.96161 0.23949 0.58721 0.0
C1564 C 0.47763 0.56509 0.45238 0.0
C1565 C 0.46501 0.58793 0.43322 0.0
C1566 C 0.47649 0.52987 0.44634 0.0
C1567 C 0.46327 0.5157 0.4205 0.0
H1568 H 0.48812 0.5744 0.47264 0.0
H1569 H 0.48614 0.5136 0.46213 0.0
S1570 S 0.42727 0.56415 0.36265 0.0
N1571 N 0.43887 0.59356 0.38713 0.0
N1572 N 0.43721 0.52764 0.37542 0.0
C1573 C 0.45095 0.53825 0.40085 0.0
C1574 C 0.45165 0.57418 0.4073 0.0
C1575 C 0.69785 0.55827 0.41107 0.0
C1576 C 0.72632 0.57733 0.41123 0.0
C1577 C 0.69693 0.52365 0.41696 0.0
C1578 C 0.72458 0.50634 0.42257 0.0
H1579 H 0.67582 0.57041 0.40733 0.0
H1580 H 0.67416 0.51043 0.41757 0.0
S1581 S 0.80575 0.54406 0.42312 0.0
N1582 N 0.78322 0.576 0.41618 0.0
N1583 N 0.78165 0.51076 0.42629 0.0
C1584 C 0.7535 0.52476 0.42145 0.0
C1585 C 0.75431 0.56027 0.41609 0.0
C1586 C 0.42822 0.60394 0.70739 0.0
C1587 C 0.45022 0.60891 0.68248 0.0
C1588 C 0.41609 0.57169 0.71387 0.0
C1589 C 0.42544 0.54291 0.69571 0.0
H1590 H 0.42105 0.62492 0.72273 0.0
H1591 H 0.40012 0.56926 0.73402 0.0
S1592 S 0.47969 0.54259 0.62568 0.0
N1593 N 0.4787 0.58264 0.63783 0.0
N1594 N 0.456 0.52197 0.65017 0.0
C1595 C 0.44592 0.54773 0.66964 0.0
C1596 C 0.45832 0.58071 0.66302 0.0
C1597 C 0.7433 0.57883 0.64813 0.0
C1598 C 0.73406 0.56506 0.67624 0.0
C1599 C 0.76108 0.60924 0.64636 0.0
C1600 C 0.76943 0.62705 0.67264 0.0
H1601 H 0.73824 0.56516 0.62737 0.0
H1602 H 0.76977 0.61784 0.62439 0.0
S1603 S 0.74758 0.60401 0.75161 0.0
N1604 N 0.73225 0.57317 0.73082 0.0
N1605 N 0.76511 0.63028 0.72747 0.0
C1606 C 0.75875 0.6145 0.7008 0.0
C1607 C 0.74112 0.58353 0.7026 0.0
C1608 C 0.57894 0.19566 0.91864 0.0
C1609 C 0.56229 0.2255 0.91473 0.0
C1610 C 0.61263 0.19446 0.91398 0.0
C1611 C 0.63141 0.22317 0.90567 0.0
H1612 H 0.56584 0.17276 0.92452 0.0
H1613 H 0.62401 0.17067 0.91683 0.0
S1614 S 0.59967 0.30832 0.89455 0.0
N1615 N 0.56772 0.28498 0.90338 0.0
N1616 N 0.63002 0.28279 0.89492 0.0
C1617 C 0.61496 0.25336 0.9026 0.0
C1618 C 0.58083 0.25448 0.90702 0.0
C1619 C 0.62717 0.89824 0.9564 0.0
C1620 C 0.63986 0.87591 0.93303 0.0
C1621 C 0.59467 0.90607 0.95992 0.0
C1622 C 0.57271 0.89198 0.94038 0.0
H1623 H 0.64252 0.91034 0.97219 0.0
H1624 H 0.5868 0.92357 0.97832 0.0
S1625 S 0.59272 0.83135 0.87569 0.0
N1626 N 0.62713 0.83931 0.89001 0.0
N1627 N 0.56615 0.85389 0.89683 0.0
C1628 C 0.58478 0.86927 0.91705 0.0
C1629 C 0.61816 0.8613 0.91334 0.0
C1630 C 0.60301 0.17933 0.19871 0.0
C1631 C 0.58454 0.19444 0.1782 0.0
C1632 C 0.63638 0.1786 0.19371 0.0
C1633 C 0.65185 0.19313 0.16818 0.0
H1634 H 0.59179 0.16952 0.21936 0.0
H1635 H 0.65011 0.1687 0.21074 0.0
S1636 S 0.61404 0.2307 0.10551 0.0
N1637 N 0.58408 0.2201 0.1296 0.0
N1638 N 0.64636 0.21946 0.12071 0.0
C1639 C 0.63346 0.20604 0.14662 0.0
C1640 C 0.59982 0.20653 0.15151 0.0
C1641 C 0.58492 0.95826 0.17405 0.0
C1642 C 0.59758 0.97745 0.19771 0.0
C1643 C 0.55222 0.95497 0.17231 0.0
C1644 C 0.53092 0.97046 0.19436 0.0
H1645 H 0.60038 0.94489 0.15703 0.0
H1646 H 0.54365 0.93904 0.15413 0.0
S1647 S 0.55199 1.02628 0.25921 0.0
N1648 N 0.5866 1.01451 0.24229 0.0
N1649 N 0.52452 1.00792 0.23929 0.0
C1650 C 0.54314 0.99114 0.21737 0.0
C1651 C 0.5767 0.99477 0.21897 0.0
C1652 C 0.5576 0.42366 0.70383 0.0
C1653 C 0.53783 0.45163 0.7096 0.0
C1654 C 0.59026 0.42689 0.70554 0.0
C1655 C 0.60445 0.45831 0.71271 0.0
H1656 H 0.54782 0.39896 0.6978 0.0
H1657 H 0.60452 0.40456 0.70055 0.0
S1658 S 0.5629 0.53933 0.73036 0.0
N1659 N 0.53421 0.51166 0.72356 0.0
N1660 N 0.59635 0.51797 0.72628 0.0
C1661 C 0.58497 0.48653 0.71906 0.0
C1662 C 0.55139 0.48312 0.71763 0.0
C1663 C 0.57275 0.75424 0.39953 0.0
C1664 C 0.55441 0.72664 0.41098 0.0
C1665 C 0.60637 0.75417 0.39649 0.0
C1666 C 0.62382 0.7263 0.40431 0.0
H1667 H 0.56106 0.7764 0.3927 0.0
H1668 H 0.61874 0.77611 0.38729 0.0
S1669 S 0.58798 0.64764 0.43625 0.0
N1670 N 0.55693 0.67074 0.43098 0.0
N1671 N 0.61965 0.67035 0.42497 0.0
C1672 C 0.60588 0.69857 0.41611 0.0
C1673 C 0.57151 0.69883 0.41956 0.0
C1674 C 0.61559 0.37337 0.40842 0.0
C1675 C 0.63631 0.38165 0.43122 0.0
C1676 C 0.58283 0.38136 0.41207 0.0
C1677 C 0.5694 0.39828 0.43854 0.0
H1678 H 0.62486 0.36134 0.38725 0.0
H1679 H 0.56816 0.37507 0.39369 0.0
S1680 S 0.61194 0.42188 0.50666 0.0
N1681 N 0.63956 0.40504 0.48248 0.0
N1682 N 0.57906 0.42021 0.48899 0.0
C1683 C 0.58959 0.4055 0.46186 0.0
C1684 C 0.62263 0.39718 0.45831 0.0
C1685 C 0.59767 0.68068 0.70119 0.0
C1686 C 0.58031 0.69158 0.67781 0.0
C1687 C 0.63085 0.67692 0.6969 0.0
C1688 C 0.64728 0.68383 0.66908 0.0
H1689 H 0.58587 0.67686 0.72335 0.0
H1690 H 0.64386 0.67114 0.71596 0.0
S1691 S 0.61232 0.70722 0.59943 0.0
N1692 N 0.58168 0.70475 0.62485 0.0
N1693 N 0.64374 0.69789 0.61701 0.0
C1694 C 0.62987 0.69198 0.64499 0.0
C1695 C 0.59638 0.69582 0.64929 0.0
loop_
_geom_bond_atom_site_label_1
_geom_bond_atom_site_label_2
_geom_bond_distance
_geom_bond_site_symmetry_2
_ccdc_geom_bond_type
O0 Tb1 2.506 . S
O0 C14 1.265 . S
Tb1 O0 2.506 . S
Tb1 O6 2.312 . S
Tb1 O10 2.271 . S
Tb1 O12 2.338 . S
Tb1 O19 2.441 . S
C2 O10 1.252 . S
C2 O11 1.253 . S
O3 Tb4 2.271 . S
O3 C13 1.252 . S
Tb4 O3 2.271 . S
Tb4 O7 2.338 . S
Tb4 O11 2.312 . S
Tb4 O15 2.441 . S
Tb4 O16 2.506 . S
C5 O15 1.244 . S
C5 O16 1.265 . S
O6 Tb1 2.312 . S
O6 C13 1.253 . S
O7 Tb4 2.338 . S
O7 C8 1.258 . S
C8 O7 1.258 . S
C8 O9 1.251 . S
O9 C8 1.251 . S
O10 Tb1 2.271 . S
O10 C2 1.252 . S
O11 C2 1.253 . S
O11 Tb4 2.312 . S
O12 Tb1 2.338 . S
O12 C17 1.258 . S
C13 O3 1.252 . S
C13 O6 1.253 . S
C14 O0 1.265 . S
C14 O19 1.244 . S
O15 Tb4 2.441 . S
O15 C5 1.244 . S
O16 Tb4 2.506 . S
O16 C5 1.265 . S
C17 O12 1.258 . S
C17 O18 1.251 . S
O18 C17 1.251 . S
O19 Tb1 2.441 . S
O19 C14 1.244 . S
O20 Tb21 2.506 . S
O20 C34 1.265 . S
Tb21 O20 2.506 . S
Tb21 O26 2.312 . S
Tb21 O30 2.271 . S
Tb21 O32 2.338 . S
Tb21 O39 2.441 . S
C22 O30 1.252 . S
C22 O31 1.253 . S
O23 Tb24 2.271 . S
O23 C33 1.252 . S
Tb24 O23 2.271 . S
Tb24 O27 2.338 . S
Tb24 O31 2.312 . S
Tb24 O35 2.441 . S
Tb24 O36 2.506 . S
C25 O35 1.244 . S
C25 O36 1.265 . S
O26 Tb21 2.312 . S
O26 C33 1.253 . S
O27 Tb24 2.338 . S
O27 C28 1.258 . S
C28 O27 1.258 . S
C28 O29 1.251 . S
O29 C28 1.251 . S
O30 Tb21 2.271 . S
O30 C22 1.252 . S
O31 C22 1.253 . S
O31 Tb24 2.312 . S
O32 Tb21 2.338 . S
O32 C37 1.258 . S
C33 O23 1.252 . S
C33 O26 1.253 . S
C34 O20 1.265 . S
C34 O39 1.244 . S
O35 Tb24 2.441 . S
O35 C25 1.244 . S
O36 Tb24 2.506 . S
O36 C25 1.265 . S
C37 O32 1.258 . S
C37 O38 1.251 . S
O38 C37 1.251 . S
O39 Tb21 2.441 . S
O39 C34 1.244 . S
O40 Tb41 2.506 . S
O40 C54 1.265 . S
Tb41 O40 2.506 . S
Tb41 O46 2.312 . S
Tb41 O50 2.271 . S
Tb41 O52 2.338 . S
Tb41 O59 2.441 . S
C42 O50 1.252 . S
C42 O51 1.253 . S
O43 Tb44 2.271 . S
O43 C53 1.252 . S
Tb44 O43 2.271 . S
Tb44 O47 2.338 . S
Tb44 O51 2.312 . S
Tb44 O55 2.441 . S
Tb44 O56 2.506 . S
C45 O55 1.244 . S
C45 O56 1.265 . S
O46 Tb41 2.312 . S
O46 C53 1.253 . S
O47 Tb44 2.338 . S
O47 C48 1.258 . S
C48 O47 1.258 . S
C48 O49 1.251 . S
O49 C48 1.251 . S
O50 Tb41 2.271 . S
O50 C42 1.252 . S
O51 C42 1.253 . S
O51 Tb44 2.312 . S
O52 Tb41 2.338 . S
O52 C57 1.258 . S
C53 O43 1.252 . S
C53 O46 1.253 . S
C54 O40 1.265 . S
C54 O59 1.244 . S
O55 Tb44 2.441 . S
O55 C45 1.244 . S
O56 Tb44 2.506 . S
O56 C45 1.265 . S
C57 O52 1.258 . S
C57 O58 1.251 . S
O58 C57 1.251 . S
O59 Tb41 2.441 . S
O59 C54 1.244 . S
O60 Tb61 2.506 . S
O60 C74 1.265 . S
Tb61 O60 2.506 . S
Tb61 O66 2.312 . S
Tb61 O70 2.271 . S
Tb61 O72 2.338 . S
Tb61 O79 2.441 . S
C62 O70 1.252 . S
C62 O71 1.253 . S
O63 Tb64 2.271 . S
O63 C73 1.252 . S
Tb64 O63 2.271 . S
Tb64 O67 2.338 . S
Tb64 O71 2.312 . S
Tb64 O75 2.441 . S
Tb64 O76 2.506 . S
C65 O75 1.244 . S
C65 O76 1.265 . S
O66 Tb61 2.312 . S
O66 C73 1.253 . S
O67 Tb64 2.338 . S
O67 C68 1.258 . S
C68 O67 1.258 . S
C68 O69 1.251 . S
O69 C68 1.251 . S
O70 Tb61 2.271 . S
O70 C62 1.252 . S
O71 C62 1.253 . S
O71 Tb64 2.312 . S
O72 Tb61 2.338 . S
O72 C77 1.258 . S
C73 O63 1.252 . S
C73 O66 1.253 . S
C74 O60 1.265 . S
C74 O79 1.244 . S
O75 Tb64 2.441 . S
O75 C65 1.244 . S
O76 Tb64 2.506 . S
O76 C65 1.265 . S
C77 O72 1.258 . S
C77 O78 1.251 . S
O78 C77 1.251 . S
O79 Tb61 2.441 . S
O79 C74 1.244 . S
O80 Tb81 2.506 . S
O80 C94 1.265 . S
Tb81 O80 2.506 . S
Tb81 O86 2.312 . S
Tb81 O90 2.271 . S
Tb81 O92 2.338 . S
Tb81 O99 2.441 . S
C82 O90 1.252 . S
C82 O91 1.253 . S
O83 Tb84 2.271 . S
O83 C93 1.252 . S
Tb84 O83 2.271 . S
Tb84 O87 2.338 . S
Tb84 O91 2.312 . S
Tb84 O95 2.441 . S
Tb84 O96 2.506 . S
C85 O95 1.244 . S
C85 O96 1.265 . S
O86 Tb81 2.312 . S
O86 C93 1.253 . S
O87 Tb84 2.338 . S
O87 C88 1.258 . S
C88 O87 1.258 . S
C88 O89 1.251 . S
O89 C88 1.251 . S
O90 Tb81 2.271 . S
O90 C82 1.252 . S
O91 C82 1.253 . S
O91 Tb84 2.312 . S
O92 Tb81 2.338 . S
O92 C97 1.258 . S
C93 O83 1.252 . S
C93 O86 1.253 . S
C94 O80 1.265 . S
C94 O99 1.244 . S
O95 Tb84 2.441 . S
O95 C85 1.244 . S
O96 Tb84 2.506 . S
O96 C85 1.265 . S
C97 O92 1.258 . S
C97 O98 1.251 . S
O98 C97 1.251 . S
O99 Tb81 2.441 . S
O99 C94 1.244 . S
O100 Tb101 2.506 . S
O100 C114 1.265 . S
Tb101 O100 2.506 . S
Tb101 O106 2.312 . S
Tb101 O110 2.271 . S
Tb101 O112 2.338 . S
Tb101 O119 2.441 . S
C102 O110 1.252 . S
C102 O111 1.253 . S
O103 Tb104 2.271 . S
O103 C113 1.252 . S
Tb104 O103 2.271 . S
Tb104 O107 2.338 . S
Tb104 O111 2.312 . S
Tb104 O115 2.441 . S
Tb104 O116 2.506 . S
C105 O115 1.244 . S
C105 O116 1.265 . S
O106 Tb101 2.312 . S
O106 C113 1.253 . S
O107 Tb104 2.338 . S
O107 C108 1.258 . S
C108 O107 1.258 . S
C108 O109 1.251 . S
O109 C108 1.251 . S
O110 Tb101 2.271 . S
O110 C102 1.252 . S
O111 C102 1.253 . S
O111 Tb104 2.312 . S
O112 Tb101 2.338 . S
O112 C117 1.258 . S
C113 O103 1.252 . S
C113 O106 1.253 . S
C114 O100 1.265 . S
C114 O119 1.244 . S
O115 Tb104 2.441 . S
O115 C105 1.244 . S
O116 Tb104 2.506 . S
O116 C105 1.265 . S
C117 O112 1.258 . S
C117 O118 1.251 . S
O118 C117 1.251 . S
O119 Tb101 2.441 . S
O119 C114 1.244 . S
O120 Tb121 2.506 . S
O120 C134 1.265 . S
Tb121 O120 2.506 . S
Tb121 O126 2.312 . S
Tb121 O130 2.271 . S
Tb121 O132 2.338 . S
Tb121 O139 2.441 . S
C122 O130 1.252 . S
C122 O131 1.253 . S
O123 Tb124 2.271 . S
O123 C133 1.252 . S
Tb124 O123 2.271 . S
Tb124 O127 2.338 . S
Tb124 O131 2.312 . S
Tb124 O135 2.441 . S
Tb124 O136 2.506 . S
C125 O135 1.244 . S
C125 O136 1.265 . S
O126 Tb121 2.312 . S
O126 C133 1.253 . S
O127 Tb124 2.338 . S
O127 C128 1.258 . S
C128 O127 1.258 . S
C128 O129 1.251 . S
O129 C128 1.251 . S
O130 Tb121 2.271 . S
O130 C122 1.252 . S
O131 C122 1.253 . S
O131 Tb124 2.312 . S
O132 Tb121 2.338 . S
O132 C137 1.258 . S
C133 O123 1.252 . S
C133 O126 1.253 . S
C134 O120 1.265 . S
C134 O139 1.244 . S
O135 Tb124 2.441 . S
O135 C125 1.244 . S
O136 Tb124 2.506 . S
O136 C125 1.265 . S
C137 O132 1.258 . S
C137 O138 1.251 . S
O138 C137 1.251 . S
O139 Tb121 2.441 . S
O139 C134 1.244 . S
O140 Tb141 2.506 . S
O140 C154 1.265 . S
Tb141 O140 2.506 . S
Tb141 O146 2.312 . S
Tb141 O150 2.271 . S
Tb141 O152 2.338 . S
Tb141 O159 2.441 . S
C142 O150 1.252 . S
C142 O151 1.253 . S
O143 Tb144 2.271 . S
O143 C153 1.252 . S
Tb144 O143 2.271 . S
Tb144 O147 2.338 . S
Tb144 O151 2.312 . S
Tb144 O155 2.441 . S
Tb144 O156 2.506 . S
C145 O155 1.244 . S
C145 O156 1.265 . S
O146 Tb141 2.312 . S
O146 C153 1.253 . S
O147 Tb144 2.338 . S
O147 C148 1.258 . S
C148 O147 1.258 . S
C148 O149 1.251 . S
O149 C148 1.251 . S
O150 Tb141 2.271 . S
O150 C142 1.252 . S
O151 C142 1.253 . S
O151 Tb144 2.312 . S
O152 Tb141 2.338 . S
O152 C157 1.258 . S
C153 O143 1.252 . S
C153 O146 1.253 . S
C154 O140 1.265 . S
C154 O159 1.244 . S
O155 Tb144 2.441 . S
O155 C145 1.244 . S
O156 Tb144 2.506 . S
O156 C145 1.265 . S
C157 O152 1.258 . S
C157 O158 1.251 . S
O158 C157 1.251 . S
O159 Tb141 2.441 . S
O159 C154 1.244 . S
O160 Tb161 2.506 . S
O160 C174 1.265 . S
Tb161 O160 2.506 . S
Tb161 O166 2.312 . S
Tb161 O170 2.271 . S
Tb161 O172 2.338 . S
Tb161 O179 2.441 . S
C162 O170 1.252 . S
C162 O171 1.253 . S
O163 Tb164 2.271 . S
O163 C173 1.252 . S
Tb164 O163 2.271 . S
Tb164 O167 2.338 . S
Tb164 O171 2.312 . S
Tb164 O175 2.441 . S
Tb164 O176 2.506 . S
C165 O175 1.244 . S
C165 O176 1.265 . S
O166 Tb161 2.312 . S
O166 C173 1.253 . S
O167 Tb164 2.338 . S
O167 C168 1.258 . S
C168 O167 1.258 . S
C168 O169 1.251 . S
O169 C168 1.251 . S
O170 Tb161 2.271 . S
O170 C162 1.252 . S
O171 C162 1.253 . S
O171 Tb164 2.312 . S
O172 Tb161 2.338 . S
O172 C177 1.258 . S
C173 O163 1.252 . S
C173 O166 1.253 . S
C174 O160 1.265 . S
C174 O179 1.244 . S
O175 Tb164 2.441 . S
O175 C165 1.244 . S
O176 Tb164 2.506 . S
O176 C165 1.265 . S
C177 O172 1.258 . S
C177 O178 1.251 . S
O178 C177 1.251 . S
O179 Tb161 2.441 . S
O179 C174 1.244 . S
O180 Tb181 2.506 . S
O180 C194 1.265 . S
Tb181 O180 2.506 . S
Tb181 O186 2.312 . S
Tb181 O190 2.271 . S
Tb181 O192 2.338 . S
Tb181 O199 2.441 . S
C182 O190 1.252 . S
C182 O191 1.253 . S
O183 Tb184 2.271 . S
O183 C193 1.252 . S
Tb184 O183 2.271 . S
Tb184 O187 2.338 . S
Tb184 O191 2.312 . S
Tb184 O195 2.441 . S
Tb184 O196 2.506 . S
C185 O195 1.244 . S
C185 O196 1.265 . S
O186 Tb181 2.312 . S
O186 C193 1.253 . S
O187 Tb184 2.338 . S
O187 C188 1.258 . S
C188 O187 1.258 . S
C188 O189 1.251 . S
O189 C188 1.251 . S
O190 Tb181 2.271 . S
O190 C182 1.252 . S
O191 C182 1.253 . S
O191 Tb184 2.312 . S
O192 Tb181 2.338 . S
O192 C197 1.258 . S
C193 O183 1.252 . S
C193 O186 1.253 . S
C194 O180 1.265 . S
C194 O199 1.244 . S
O195 Tb184 2.441 . S
O195 C185 1.244 . S
O196 Tb184 2.506 . S
O196 C185 1.265 . S
C197 O192 1.258 . S
C197 O198 1.251 . S
O198 C197 1.251 . S
O199 Tb181 2.441 . S
O199 C194 1.244 . S
O200 Tb201 2.506 . S
O200 C214 1.265 . S
Tb201 O200 2.506 . S
Tb201 O206 2.312 . S
Tb201 O210 2.271 . S
Tb201 O212 2.338 . S
Tb201 O219 2.441 . S
C202 O210 1.252 . S
C202 O211 1.253 . S
O203 Tb204 2.271 . S
O203 C213 1.252 . S
Tb204 O203 2.271 . S
Tb204 O207 2.338 . S
Tb204 O211 2.312 . S
Tb204 O215 2.441 . S
Tb204 O216 2.506 . S
C205 O215 1.244 . S
C205 O216 1.265 . S
O206 Tb201 2.312 . S
O206 C213 1.253 . S
O207 Tb204 2.338 . S
O207 C208 1.258 . S
C208 O207 1.258 . S
C208 O209 1.251 . S
O209 C208 1.251 . S
O210 Tb201 2.271 . S
O210 C202 1.252 . S
O211 C202 1.253 . S
O211 Tb204 2.312 . S
O212 Tb201 2.338 . S
O212 C217 1.258 . S
C213 O203 1.252 . S
C213 O206 1.253 . S
C214 O200 1.265 . S
C214 O219 1.244 . S
O215 Tb204 2.441 . S
O215 C205 1.244 . S
O216 Tb204 2.506 . S
O216 C205 1.265 . S
C217 O212 1.258 . S
C217 O218 1.251 . S
O218 C217 1.251 . S
O219 Tb201 2.441 . S
O219 C214 1.244 . S
O220 Tb221 2.506 . S
O220 C234 1.265 . S
Tb221 O220 2.506 . S
Tb221 O226 2.312 . S
Tb221 O230 2.271 . S
Tb221 O232 2.338 . S
Tb221 O239 2.441 . S
C222 O230 1.252 . S
C222 O231 1.253 . S
O223 Tb224 2.271 . S
O223 C233 1.252 . S
Tb224 O223 2.271 . S
Tb224 O227 2.338 . S
Tb224 O231 2.312 . S
Tb224 O235 2.441 . S
Tb224 O236 2.506 . S
C225 O235 1.244 . S
C225 O236 1.265 . S
O226 Tb221 2.312 . S
O226 C233 1.253 . S
O227 Tb224 2.338 . S
O227 C228 1.258 . S
C228 O227 1.258 . S
C228 O229 1.251 . S
O229 C228 1.251 . S
O230 Tb221 2.271 . S
O230 C222 1.252 . S
O231 C222 1.253 . S
O231 Tb224 2.312 . S
O232 Tb221 2.338 . S
O232 C237 1.258 . S
C233 O223 1.252 . S
C233 O226 1.253 . S
C234 O220 1.265 . S
C234 O239 1.244 . S
O235 Tb224 2.441 . S
O235 C225 1.244 . S
O236 Tb224 2.506 . S
O236 C225 1.265 . S
C237 O232 1.258 . S
C237 O238 1.251 . S
O238 C237 1.251 . S
O239 Tb221 2.441 . S
O239 C234 1.244 . S
O240 Tb241 2.506 . S
O240 C254 1.265 . S
Tb241 O240 2.506 . S
Tb241 O246 2.312 . S
Tb241 O250 2.271 . S
Tb241 O252 2.338 . S
Tb241 O259 2.441 . S
C242 O250 1.252 . S
C242 O251 1.253 . S
O243 Tb244 2.271 . S
O243 C253 1.252 . S
Tb244 O243 2.271 . S
Tb244 O247 2.338 . S
Tb244 O251 2.312 . S
Tb244 O255 2.441 . S
Tb244 O256 2.506 . S
C245 O255 1.244 . S
C245 O256 1.265 . S
O246 Tb241 2.312 . S
O246 C253 1.253 . S
O247 Tb244 2.338 . S
O247 C248 1.258 . S
C248 O247 1.258 . S
C248 O249 1.251 . S
O249 C248 1.251 . S
O250 Tb241 2.271 . S
O250 C242 1.252 . S
O251 C242 1.253 . S
O251 Tb244 2.312 . S
O252 Tb241 2.338 . S
O252 C257 1.258 . S
C253 O243 1.252 . S
C253 O246 1.253 . S
C254 O240 1.265 . S
C254 O259 1.244 . S
O255 Tb244 2.441 . S
O255 C245 1.244 . S
O256 Tb244 2.506 . S
O256 C245 1.265 . S
C257 O252 1.258 . S
C257 O258 1.251 . S
O258 C257 1.251 . S
O259 Tb241 2.441 . S
O259 C254 1.244 . S
O260 Tb261 2.506 . S
O260 C274 1.265 . S
Tb261 O260 2.506 . S
Tb261 O266 2.312 . S
Tb261 O270 2.271 . S
Tb261 O272 2.338 . S
Tb261 O279 2.441 . S
C262 O270 1.252 . S
C262 O271 1.253 . S
O263 Tb264 2.271 . S
O263 C273 1.252 . S
Tb264 O263 2.271 . S
Tb264 O267 2.338 . S
Tb264 O271 2.312 . S
Tb264 O275 2.441 . S
Tb264 O276 2.506 . S
C265 O275 1.244 . S
C265 O276 1.265 . S
O266 Tb261 2.312 . S
O266 C273 1.253 . S
O267 Tb264 2.338 . S
O267 C268 1.258 . S
C268 O267 1.258 . S
C268 O269 1.251 . S
O269 C268 1.251 . S
O270 Tb261 2.271 . S
O270 C262 1.252 . S
O271 C262 1.253 . S
O271 Tb264 2.312 . S
O272 Tb261 2.338 . S
O272 C277 1.258 . S
C273 O263 1.252 . S
C273 O266 1.253 . S
C274 O260 1.265 . S
C274 O279 1.244 . S
O275 Tb264 2.441 . S
O275 C265 1.244 . S
O276 Tb264 2.506 . S
O276 C265 1.265 . S
C277 O272 1.258 . S
C277 O278 1.251 . S
O278 C277 1.251 . S
O279 Tb261 2.441 . S
O279 C274 1.244 . S
O280 Tb281 2.506 . S
O280 C294 1.265 . S
Tb281 O280 2.506 . S
Tb281 O286 2.312 . S
Tb281 O290 2.271 . S
Tb281 O292 2.338 . S
Tb281 O299 2.441 . S
C282 O290 1.252 . S
C282 O291 1.253 . S
O283 Tb284 2.271 . S
O283 C293 1.252 . S
Tb284 O283 2.271 . S
Tb284 O287 2.338 . S
Tb284 O291 2.312 . S
Tb284 O295 2.441 . S
Tb284 O296 2.506 . S
C285 O295 1.244 . S
C285 O296 1.265 . S
O286 Tb281 2.312 . S
O286 C293 1.253 . S
O287 Tb284 2.338 . S
O287 C288 1.258 . S
C288 O287 1.258 . S
C288 O289 1.251 . S
O289 C288 1.251 . S
O290 Tb281 2.271 . S
O290 C282 1.252 . S
O291 C282 1.253 . S
O291 Tb284 2.312 . S
O292 Tb281 2.338 . S
O292 C297 1.258 . S
C293 O283 1.252 . S
C293 O286 1.253 . S
C294 O280 1.265 . S
C294 O299 1.244 . S
O295 Tb284 2.441 . S
O295 C285 1.244 . S
O296 Tb284 2.506 . S
O296 C285 1.265 . S
C297 O292 1.258 . S
C297 O298 1.251 . S
O298 C297 1.251 . S
O299 Tb281 2.441 . S
O299 C294 1.244 . S
O300 Tb301 2.506 . S
O300 C314 1.265 . S
Tb301 O300 2.506 . S
Tb301 O306 2.312 . S
Tb301 O310 2.271 . S
Tb301 O312 2.338 . S
Tb301 O319 2.441 . S
C302 O310 1.252 . S
C302 O311 1.253 . S
O303 Tb304 2.271 . S
O303 C313 1.252 . S
Tb304 O303 2.271 . S
Tb304 O307 2.338 . S
Tb304 O311 2.312 . S
Tb304 O315 2.441 . S
Tb304 O316 2.506 . S
C305 O315 1.244 . S
C305 O316 1.265 . S
O306 Tb301 2.312 . S
O306 C313 1.253 . S
O307 Tb304 2.338 . S
O307 C308 1.258 . S
C308 O307 1.258 . S
C308 O309 1.251 . S
O309 C308 1.251 . S
O310 Tb301 2.271 . S
O310 C302 1.252 . S
O311 C302 1.253 . S
O311 Tb304 2.312 . S
O312 Tb301 2.338 . S
O312 C317 1.258 . S
C313 O303 1.252 . S
C313 O306 1.253 . S
C314 O300 1.265 . S
C314 O319 1.244 . S
O315 Tb304 2.441 . S
O315 C305 1.244 . S
O316 Tb304 2.506 . S
O316 C305 1.265 . S
C317 O312 1.258 . S
C317 O318 1.251 . S
O318 C317 1.251 . S
O319 Tb301 2.441 . S
O319 C314 1.244 . S
O320 Tb321 2.506 . S
O320 C334 1.265 . S
Tb321 O320 2.506 . S
Tb321 O326 2.312 . S
Tb321 O330 2.271 . S
Tb321 O332 2.338 . S
Tb321 O339 2.441 . S
C322 O330 1.252 . S
C322 O331 1.253 . S
O323 Tb324 2.271 . S
O323 C333 1.252 . S
Tb324 O323 2.271 . S
Tb324 O327 2.338 . S
Tb324 O331 2.312 . S
Tb324 O335 2.441 . S
Tb324 O336 2.506 . S
C325 O335 1.244 . S
C325 O336 1.265 . S
O326 Tb321 2.312 . S
O326 C333 1.253 . S
O327 Tb324 2.338 . S
O327 C328 1.258 . S
C328 O327 1.258 . S
C328 O329 1.251 . S
O329 C328 1.251 . S
O330 Tb321 2.271 . S
O330 C322 1.252 . S
O331 C322 1.253 . S
O331 Tb324 2.312 . S
O332 Tb321 2.338 . S
O332 C337 1.258 . S
C333 O323 1.252 . S
C333 O326 1.253 . S
C334 O320 1.265 . S
C334 O339 1.244 . S
O335 Tb324 2.441 . S
O335 C325 1.244 . S
O336 Tb324 2.506 . S
O336 C325 1.265 . S
C337 O332 1.258 . S
C337 O338 1.251 . S
O338 C337 1.251 . S
O339 Tb321 2.441 . S
O339 C334 1.244 . S
O340 Tb341 2.506 . S
O340 C354 1.265 . S
Tb341 O340 2.506 . S
Tb341 O346 2.312 . S
Tb341 O350 2.271 . S
Tb341 O352 2.338 . S
Tb341 O359 2.441 . S
C342 O350 1.252 . S
C342 O351 1.253 . S
O343 Tb344 2.271 . S
O343 C353 1.252 . S
Tb344 O343 2.271 . S
Tb344 O347 2.338 . S
Tb344 O351 2.312 . S
Tb344 O355 2.441 . S
Tb344 O356 2.506 . S
C345 O355 1.244 . S
C345 O356 1.265 . S
O346 Tb341 2.312 . S
O346 C353 1.253 . S
O347 Tb344 2.338 . S
O347 C348 1.258 . S
C348 O347 1.258 . S
C348 O349 1.251 . S
O349 C348 1.251 . S
O350 Tb341 2.271 . S
O350 C342 1.252 . S
O351 C342 1.253 . S
O351 Tb344 2.312 . S
O352 Tb341 2.338 . S
O352 C357 1.258 . S
C353 O343 1.252 . S
C353 O346 1.253 . S
C354 O340 1.265 . S
C354 O359 1.244 . S
O355 Tb344 2.441 . S
O355 C345 1.244 . S
O356 Tb344 2.506 . S
O356 C345 1.265 . S
C357 O352 1.258 . S
C357 O358 1.251 . S
O358 C357 1.251 . S
O359 Tb341 2.441 . S
O359 C354 1.244 . S
O360 Tb361 2.506 . S
O360 C374 1.265 . S
Tb361 O360 2.506 . S
Tb361 O366 2.312 . S
Tb361 O370 2.271 . S
Tb361 O372 2.338 . S
Tb361 O379 2.441 . S
C362 O370 1.252 . S
C362 O371 1.253 . S
O363 Tb364 2.271 . S
O363 C373 1.252 . S
Tb364 O363 2.271 . S
Tb364 O367 2.338 . S
Tb364 O371 2.312 . S
Tb364 O375 2.441 . S
Tb364 O376 2.506 . S
C365 O375 1.244 . S
C365 O376 1.265 . S
O366 Tb361 2.312 . S
O366 C373 1.253 . S
O367 Tb364 2.338 . S
O367 C368 1.258 . S
C368 O367 1.258 . S
C368 O369 1.251 . S
O369 C368 1.251 . S
O370 Tb361 2.271 . S
O370 C362 1.252 . S
O371 C362 1.253 . S
O371 Tb364 2.312 . S
O372 Tb361 2.338 . S
O372 C377 1.258 . S
C373 O363 1.252 . S
C373 O366 1.253 . S
C374 O360 1.265 . S
C374 O379 1.244 . S
O375 Tb364 2.441 . S
O375 C365 1.244 . S
O376 Tb364 2.506 . S
O376 C365 1.265 . S
C377 O372 1.258 . S
C377 O378 1.251 . S
O378 C377 1.251 . S
O379 Tb361 2.441 . S
O379 C374 1.244 . S
O380 Tb381 2.506 . S
O380 C394 1.265 . S
Tb381 O380 2.506 . S
Tb381 O386 2.312 . S
Tb381 O390 2.271 . S
Tb381 O392 2.338 . S
Tb381 O399 2.441 . S
C382 O390 1.252 . S
C382 O391 1.253 . S
O383 Tb384 2.271 . S
O383 C393 1.252 . S
Tb384 O383 2.271 . S
Tb384 O387 2.338 . S
Tb384 O391 2.312 . S
Tb384 O395 2.441 . S
Tb384 O396 2.506 . S
C385 O395 1.244 . S
C385 O396 1.265 . S
O386 Tb381 2.312 . S
O386 C393 1.253 . S
O387 Tb384 2.338 . S
O387 C388 1.258 . S
C388 O387 1.258 . S
C388 O389 1.251 . S
O389 C388 1.251 . S
O390 Tb381 2.271 . S
O390 C382 1.252 . S
O391 C382 1.253 . S
O391 Tb384 2.312 . S
O392 Tb381 2.338 . S
O392 C397 1.258 . S
C393 O383 1.252 . S
C393 O386 1.253 . S
C394 O380 1.265 . S
C394 O399 1.244 . S
O395 Tb384 2.441 . S
O395 C385 1.244 . S
O396 Tb384 2.506 . S
O396 C385 1.265 . S
C397 O392 1.258 . S
C397 O398 1.251 . S
O398 C397 1.251 . S
O399 Tb381 2.441 . S
O399 C394 1.244 . S
O400 Tb401 2.506 . S
O400 C414 1.265 . S
Tb401 O400 2.506 . S
Tb401 O406 2.312 . S
Tb401 O410 2.271 . S
Tb401 O412 2.338 . S
Tb401 O419 2.441 . S
C402 O410 1.252 . S
C402 O411 1.253 . S
O403 Tb404 2.271 . S
O403 C413 1.252 . S
Tb404 O403 2.271 . S
Tb404 O407 2.338 . S
Tb404 O411 2.312 . S
Tb404 O415 2.441 . S
Tb404 O416 2.506 . S
C405 O415 1.244 . S
C405 O416 1.265 . S
O406 Tb401 2.312 . S
O406 C413 1.253 . S
O407 Tb404 2.338 . S
O407 C408 1.258 . S
C408 O407 1.258 . S
C408 O409 1.251 . S
O409 C408 1.251 . S
O410 Tb401 2.271 . S
O410 C402 1.252 . S
O411 C402 1.253 . S
O411 Tb404 2.312 . S
O412 Tb401 2.338 . S
O412 C417 1.258 . S
C413 O403 1.252 . S
C413 O406 1.253 . S
C414 O400 1.265 . S
C414 O419 1.244 . S
O415 Tb404 2.441 . S
O415 C405 1.244 . S
O416 Tb404 2.506 . S
O416 C405 1.265 . S
C417 O412 1.258 . S
C417 O418 1.251 . S
O418 C417 1.251 . S
O419 Tb401 2.441 . S
O419 C414 1.244 . S
O420 Tb421 2.506 . S
O420 C434 1.265 . S
Tb421 O420 2.506 . S
Tb421 O426 2.312 . S
Tb421 O430 2.271 . S
Tb421 O432 2.338 . S
Tb421 O439 2.441 . S
C422 O430 1.252 . S
C422 O431 1.253 . S
O423 Tb424 2.271 . S
O423 C433 1.252 . S
Tb424 O423 2.271 . S
Tb424 O427 2.338 . S
Tb424 O431 2.312 . S
Tb424 O435 2.441 . S
Tb424 O436 2.506 . S
C425 O435 1.244 . S
C425 O436 1.265 . S
O426 Tb421 2.312 . S
O426 C433 1.253 . S
O427 Tb424 2.338 . S
O427 C428 1.258 . S
C428 O427 1.258 . S
C428 O429 1.251 . S
O429 C428 1.251 . S
O430 Tb421 2.271 . S
O430 C422 1.252 . S
O431 C422 1.253 . S
O431 Tb424 2.312 . S
O432 Tb421 2.338 . S
O432 C437 1.258 . S
C433 O423 1.252 . S
C433 O426 1.253 . S
C434 O420 1.265 . S
C434 O439 1.244 . S
O435 Tb424 2.441 . S
O435 C425 1.244 . S
O436 Tb424 2.506 . S
O436 C425 1.265 . S
C437 O432 1.258 . S
C437 O438 1.251 . S
O438 C437 1.251 . S
O439 Tb421 2.441 . S
O439 C434 1.244 . S
O440 Tb441 2.506 . S
O440 C454 1.265 . S
Tb441 O440 2.506 . S
Tb441 O446 2.312 . S
Tb441 O450 2.271 . S
Tb441 O452 2.338 . S
Tb441 O459 2.441 . S
C442 O450 1.252 . S
C442 O451 1.253 . S
O443 Tb444 2.271 . S
O443 C453 1.252 . S
Tb444 O443 2.271 . S
Tb444 O447 2.338 . S
Tb444 O451 2.312 . S
Tb444 O455 2.441 . S
Tb444 O456 2.506 . S
C445 O455 1.244 . S
C445 O456 1.265 . S
O446 Tb441 2.312 . S
O446 C453 1.253 . S
O447 Tb444 2.338 . S
O447 C448 1.258 . S
C448 O447 1.258 . S
C448 O449 1.251 . S
O449 C448 1.251 . S
O450 Tb441 2.271 . S
O450 C442 1.252 . S
O451 C442 1.253 . S
O451 Tb444 2.312 . S
O452 Tb441 2.338 . S
O452 C457 1.258 . S
C453 O443 1.252 . S
C453 O446 1.253 . S
C454 O440 1.265 . S
C454 O459 1.244 . S
O455 Tb444 2.441 . S
O455 C445 1.244 . S
O456 Tb444 2.506 . S
O456 C445 1.265 . S
C457 O452 1.258 . S
C457 O458 1.251 . S
O458 C457 1.251 . S
O459 Tb441 2.441 . S
O459 C454 1.244 . S
O460 Tb461 2.506 . S
O460 C474 1.265 . S
Tb461 O460 2.506 . S
Tb461 O466 2.312 . S
Tb461 O470 2.271 . S
Tb461 O472 2.338 . S
Tb461 O479 2.441 . S
C462 O470 1.252 . S
C462 O471 1.253 . S
O463 Tb464 2.271 . S
O463 C473 1.252 . S
Tb464 O463 2.271 . S
Tb464 O467 2.338 . S
Tb464 O471 2.312 . S
Tb464 O475 2.441 . S
Tb464 O476 2.506 . S
C465 O475 1.244 . S
C465 O476 1.265 . S
O466 Tb461 2.312 . S
O466 C473 1.253 . S
O467 Tb464 2.338 . S
O467 C468 1.258 . S
C468 O467 1.258 . S
C468 O469 1.251 . S
O469 C468 1.251 . S
O470 Tb461 2.271 . S
O470 C462 1.252 . S
O471 C462 1.253 . S
O471 Tb464 2.312 . S
O472 Tb461 2.338 . S
O472 C477 1.258 . S
C473 O463 1.252 . S
C473 O466 1.253 . S
C474 O460 1.265 . S
C474 O479 1.244 . S
O475 Tb464 2.441 . S
O475 C465 1.244 . S
O476 Tb464 2.506 . S
O476 C465 1.265 . S
C477 O472 1.258 . S
C477 O478 1.251 . S
O478 C477 1.251 . S
O479 Tb461 2.441 . S
O479 C474 1.244 . S
O480 Tb481 2.506 . S
O480 C494 1.265 . S
Tb481 O480 2.506 . S
Tb481 O486 2.312 . S
Tb481 O490 2.271 . S
Tb481 O492 2.338 . S
Tb481 O499 2.441 . S
C482 O490 1.252 . S
C482 O491 1.253 . S
O483 Tb484 2.271 . S
O483 C493 1.252 . S
Tb484 O483 2.271 . S
Tb484 O487 2.338 . S
Tb484 O491 2.312 . S
Tb484 O495 2.441 . S
Tb484 O496 2.506 . S
C485 O495 1.244 . S
C485 O496 1.265 . S
O486 Tb481 2.312 . S
O486 C493 1.253 . S
O487 Tb484 2.338 . S
O487 C488 1.258 . S
C488 O487 1.258 . S
C488 O489 1.251 . S
O489 C488 1.251 . S
O490 Tb481 2.271 . S
O490 C482 1.252 . S
O491 C482 1.253 . S
O491 Tb484 2.312 . S
O492 Tb481 2.338 . S
O492 C497 1.258 . S
C493 O483 1.252 . S
C493 O486 1.253 . S
C494 O480 1.265 . S
C494 O499 1.244 . S
O495 Tb484 2.441 . S
O495 C485 1.244 . S
O496 Tb484 2.506 . S
O496 C485 1.265 . S
C497 O492 1.258 . S
C497 O498 1.251 . S
O498 C497 1.251 . S
O499 Tb481 2.441 . S
O499 C494 1.244 . S
O500 Tb501 2.506 . S
O500 C514 1.265 . S
Tb501 O500 2.506 . S
Tb501 O506 2.312 . S
Tb501 O510 2.271 . S
Tb501 O512 2.338 . S
Tb501 O519 2.441 . S
C502 O510 1.252 . S
C502 O511 1.253 . S
O503 Tb504 2.271 . S
O503 C513 1.252 . S
Tb504 O503 2.271 . S
Tb504 O507 2.338 . S
Tb504 O511 2.312 . S
Tb504 O515 2.441 . S
Tb504 O516 2.506 . S
C505 O515 1.244 . S
C505 O516 1.265 . S
O506 Tb501 2.312 . S
O506 C513 1.253 . S
O507 Tb504 2.338 . S
O507 C508 1.258 . S
C508 O507 1.258 . S
C508 O509 1.251 . S
O509 C508 1.251 . S
O510 Tb501 2.271 . S
O510 C502 1.252 . S
O511 C502 1.253 . S
O511 Tb504 2.312 . S
O512 Tb501 2.338 . S
O512 C517 1.258 . S
C513 O503 1.252 . S
C513 O506 1.253 . S
C514 O500 1.265 . S
C514 O519 1.244 . S
O515 Tb504 2.441 . S
O515 C505 1.244 . S
O516 Tb504 2.506 . S
O516 C505 1.265 . S
C517 O512 1.258 . S
C517 O518 1.251 . S
O518 C517 1.251 . S
O519 Tb501 2.441 . S
O519 C514 1.244 . S
O520 Tb521 2.506 . S
O520 C534 1.265 . S
Tb521 O520 2.506 . S
Tb521 O526 2.312 . S
Tb521 O530 2.271 . S
Tb521 O532 2.338 . S
Tb521 O539 2.441 . S
C522 O530 1.252 . S
C522 O531 1.253 . S
O523 Tb524 2.271 . S
O523 C533 1.252 . S
Tb524 O523 2.271 . S
Tb524 O527 2.338 . S
Tb524 O531 2.312 . S
Tb524 O535 2.441 . S
Tb524 O536 2.506 . S
C525 O535 1.244 . S
C525 O536 1.265 . S
O526 Tb521 2.312 . S
O526 C533 1.253 . S
O527 Tb524 2.338 . S
O527 C528 1.258 . S
C528 O527 1.258 . S
C528 O529 1.251 . S
O529 C528 1.251 . S
O530 Tb521 2.271 . S
O530 C522 1.252 . S
O531 C522 1.253 . S
O531 Tb524 2.312 . S
O532 Tb521 2.338 . S
O532 C537 1.258 . S
C533 O523 1.252 . S
C533 O526 1.253 . S
C534 O520 1.265 . S
C534 O539 1.244 . S
O535 Tb524 2.441 . S
O535 C525 1.244 . S
O536 Tb524 2.506 . S
O536 C525 1.265 . S
C537 O532 1.258 . S
C537 O538 1.251 . S
O538 C537 1.251 . S
O539 Tb521 2.441 . S
O539 C534 1.244 . S
O540 Tb541 2.506 . S
O540 C554 1.265 . S
Tb541 O540 2.506 . S
Tb541 O546 2.312 . S
Tb541 O550 2.271 . S
Tb541 O552 2.338 . S
Tb541 O559 2.441 . S
C542 O550 1.252 . S
C542 O551 1.253 . S
O543 Tb544 2.271 . S
O543 C553 1.252 . S
Tb544 O543 2.271 . S
Tb544 O547 2.338 . S
Tb544 O551 2.312 . S
Tb544 O555 2.441 . S
Tb544 O556 2.506 . S
C545 O555 1.244 . S
C545 O556 1.265 . S
O546 Tb541 2.312 . S
O546 C553 1.253 . S
O547 Tb544 2.338 . S
O547 C548 1.258 . S
C548 O547 1.258 . S
C548 O549 1.251 . S
O549 C548 1.251 . S
O550 Tb541 2.271 . S
O550 C542 1.252 . S
O551 C542 1.253 . S
O551 Tb544 2.312 . S
O552 Tb541 2.338 . S
O552 C557 1.258 . S
C553 O543 1.252 . S
C553 O546 1.253 . S
C554 O540 1.265 . S
C554 O559 1.244 . S
O555 Tb544 2.441 . S
O555 C545 1.244 . S
O556 Tb544 2.506 . S
O556 C545 1.265 . S
C557 O552 1.258 . S
C557 O558 1.251 . S
O558 C557 1.251 . S
O559 Tb541 2.441 . S
O559 C554 1.244 . S
O560 Tb561 2.506 . S
O560 C574 1.265 . S
Tb561 O560 2.506 . S
Tb561 O566 2.312 . S
Tb561 O570 2.271 . S
Tb561 O572 2.338 . S
Tb561 O579 2.441 . S
C562 O570 1.252 . S
C562 O571 1.253 . S
O563 Tb564 2.271 . S
O563 C573 1.252 . S
Tb564 O563 2.271 . S
Tb564 O567 2.338 . S
Tb564 O571 2.312 . S
Tb564 O575 2.441 . S
Tb564 O576 2.506 . S
C565 O575 1.244 . S
C565 O576 1.265 . S
O566 Tb561 2.312 . S
O566 C573 1.253 . S
O567 Tb564 2.338 . S
O567 C568 1.258 . S
C568 O567 1.258 . S
C568 O569 1.251 . S
O569 C568 1.251 . S
O570 Tb561 2.271 . S
O570 C562 1.252 . S
O571 C562 1.253 . S
O571 Tb564 2.312 . S
O572 Tb561 2.338 . S
O572 C577 1.258 . S
C573 O563 1.252 . S
C573 O566 1.253 . S
C574 O560 1.265 . S
C574 O579 1.244 . S
O575 Tb564 2.441 . S
O575 C565 1.244 . S
O576 Tb564 2.506 . S
O576 C565 1.265 . S
C577 O572 1.258 . S
C577 O578 1.251 . S
O578 C577 1.251 . S
O579 Tb561 2.441 . S
O579 C574 1.244 . S
O580 Tb581 2.506 . S
O580 C594 1.265 . S
Tb581 O580 2.506 . S
Tb581 O586 2.312 . S
Tb581 O590 2.271 . S
Tb581 O592 2.338 . S
Tb581 O599 2.441 . S
C582 O590 1.252 . S
C582 O591 1.253 . S
O583 Tb584 2.271 . S
O583 C593 1.252 . S
Tb584 O583 2.271 . S
Tb584 O587 2.338 . S
Tb584 O591 2.312 . S
Tb584 O595 2.441 . S
Tb584 O596 2.506 . S
C585 O595 1.244 . S
C585 O596 1.265 . S
O586 Tb581 2.312 . S
O586 C593 1.253 . S
O587 Tb584 2.338 . S
O587 C588 1.258 . S
C588 O587 1.258 . S
C588 O589 1.251 . S
O589 C588 1.251 . S
O590 Tb581 2.271 . S
O590 C582 1.252 . S
O591 C582 1.253 . S
O591 Tb584 2.312 . S
O592 Tb581 2.338 . S
O592 C597 1.258 . S
C593 O583 1.252 . S
C593 O586 1.253 . S
C594 O580 1.265 . S
C594 O599 1.244 . S
O595 Tb584 2.441 . S
O595 C585 1.244 . S
O596 Tb584 2.506 . S
O596 C585 1.265 . S
C597 O592 1.258 . S
C597 O598 1.251 . S
O598 C597 1.251 . S
O599 Tb581 2.441 . S
O599 C594 1.244 . S
O600 Tb601 2.506 . S
O600 C614 1.265 . S
Tb601 O600 2.506 . S
Tb601 O606 2.312 . S
Tb601 O610 2.271 . S
Tb601 O612 2.338 . S
Tb601 O619 2.441 . S
C602 O610 1.252 . S
C602 O611 1.253 . S
O603 Tb604 2.271 . S
O603 C613 1.252 . S
Tb604 O603 2.271 . S
Tb604 O607 2.338 . S
Tb604 O611 2.312 . S
Tb604 O615 2.441 . S
Tb604 O616 2.506 . S
C605 O615 1.244 . S
C605 O616 1.265 . S
O606 Tb601 2.312 . S
O606 C613 1.253 . S
O607 Tb604 2.338 . S
O607 C608 1.258 . S
C608 O607 1.258 . S
C608 O609 1.251 . S
O609 C608 1.251 . S
O610 Tb601 2.271 . S
O610 C602 1.252 . S
O611 C602 1.253 . S
O611 Tb604 2.312 . S
O612 Tb601 2.338 . S
O612 C617 1.258 . S
C613 O603 1.252 . S
C613 O606 1.253 . S
C614 O600 1.265 . S
C614 O619 1.244 . S
O615 Tb604 2.441 . S
O615 C605 1.244 . S
O616 Tb604 2.506 . S
O616 C605 1.265 . S
C617 O612 1.258 . S
C617 O618 1.251 . S
O618 C617 1.251 . S
O619 Tb601 2.441 . S
O619 C614 1.244 . S
O620 Tb621 2.506 . S
O620 C634 1.265 . S
Tb621 O620 2.506 . S
Tb621 O626 2.312 . S
Tb621 O630 2.271 . S
Tb621 O632 2.338 . S
Tb621 O639 2.441 . S
C622 O630 1.252 . S
C622 O631 1.253 . S
O623 Tb624 2.271 . S
O623 C633 1.252 . S
Tb624 O623 2.271 . S
Tb624 O627 2.338 . S
Tb624 O631 2.312 . S
Tb624 O635 2.441 . S
Tb624 O636 2.506 . S
C625 O635 1.244 . S
C625 O636 1.265 . S
O626 Tb621 2.312 . S
O626 C633 1.253 . S
O627 Tb624 2.338 . S
O627 C628 1.258 . S
C628 O627 1.258 . S
C628 O629 1.251 . S
O629 C628 1.251 . S
O630 Tb621 2.271 . S
O630 C622 1.252 . S
O631 C622 1.253 . S
O631 Tb624 2.312 . S
O632 Tb621 2.338 . S
O632 C637 1.258 . S
C633 O623 1.252 . S
C633 O626 1.253 . S
C634 O620 1.265 . S
C634 O639 1.244 . S
O635 Tb624 2.441 . S
O635 C625 1.244 . S
O636 Tb624 2.506 . S
O636 C625 1.265 . S
C637 O632 1.258 . S
C637 O638 1.251 . S
O638 C637 1.251 . S
O639 Tb621 2.441 . S
O639 C634 1.244 . S
C640 C641 1.369 . S
C640 C642 1.419 . S
C640 H644 0.930 . S
C641 C640 1.369 . S
C641 C650 1.429 . S
C642 C640 1.419 . S
C642 C643 1.363 . S
C642 H645 0.929 . S
C643 C642 1.363 . S
C643 C649 1.428 . S
H644 C640 0.930 . S
H645 C642 0.929 . S
S646 N647 1.613 . S
S646 N648 1.610 . S
N647 S646 1.613 . S
N647 C650 1.350 . S
N648 S646 1.610 . S
N648 C649 1.351 . S
C649 C643 1.428 . S
C649 N648 1.351 . S
C649 C650 1.434 . S
C650 C641 1.429 . S
C650 N647 1.350 . S
C650 C649 1.434 . S
C651 C652 1.369 . S
C651 C653 1.419 . S
C651 H655 0.930 . S
C652 C651 1.369 . S
C652 C661 1.429 . S
C653 C651 1.419 . S
C653 C654 1.363 . S
C653 H656 0.929 . S
C654 C653 1.363 . S
C654 C660 1.428 . S
H655 C651 0.930 . S
H656 C653 0.929 . S
S657 N658 1.613 . S
S657 N659 1.610 . S
N658 S657 1.613 . S
N658 C661 1.350 . S
N659 S657 1.610 . S
N659 C660 1.351 . S
C660 C654 1.428 . S
C660 N659 1.351 . S
C660 C661 1.434 . S
C661 C652 1.429 . S
C661 N658 1.350 . S
C661 C660 1.434 . S
C662 C663 1.369 . S
C662 C664 1.419 . S
C662 H666 0.930 . S
C663 C662 1.369 . S
C663 C672 1.429 . S
C664 C662 1.419 . S
C664 C665 1.363 . S
C664 H667 0.929 . S
C665 C664 1.363 . S
C665 C671 1.428 . S
H666 C662 0.930 . S
H667 C664 0.929 . S
S668 N669 1.613 . S
S668 N670 1.610 . S
N669 S668 1.613 . S
N669 C672 1.350 . S
N670 S668 1.610 . S
N670 C671 1.351 . S
C671 C665 1.428 . S
C671 N670 1.351 . S
C671 C672 1.434 . S
C672 C663 1.429 . S
C672 N669 1.350 . S
C672 C671 1.434 . S
C673 C674 1.369 . S
C673 C675 1.419 . S
C673 H677 0.930 . S
C674 C673 1.369 . S
C674 C683 1.429 . S
C675 C673 1.419 . S
C675 C676 1.363 . S
C675 H678 0.929 . S
C676 C675 1.363 . S
C676 C682 1.428 . S
H677 C673 0.930 . S
H678 C675 0.929 . S
S679 N680 1.613 . S
S679 N681 1.610 . S
N680 S679 1.613 . S
N680 C683 1.350 . S
N681 S679 1.610 . S
N681 C682 1.351 . S
C682 C676 1.428 . S
C682 N681 1.351 . S
C682 C683 1.434 . S
C683 C674 1.429 . S
C683 N680 1.350 . S
C683 C682 1.434 . S
C684 C685 1.369 . S
C684 C686 1.419 . S
C684 H688 0.930 . S
C685 C684 1.369 . S
C685 C694 1.429 . S
C686 C684 1.419 . S
C686 C687 1.363 . S
C686 H689 0.929 . S
C687 C686 1.363 . S
C687 C693 1.428 . S
H688 C684 0.930 . S
H689 C686 0.929 . S
S690 N691 1.613 . S
S690 N692 1.610 . S
N691 S690 1.613 . S
N691 C694 1.350 . S
N692 S690 1.610 . S
N692 C693 1.351 . S
C693 C687 1.428 . S
C693 N692 1.351 . S
C693 C694 1.434 . S
C694 C685 1.429 . S
C694 N691 1.350 . S
C694 C693 1.434 . S
C695 C696 1.369 . S
C695 C697 1.419 . S
C695 H699 0.930 . S
C696 C695 1.369 . S
C696 C705 1.429 . S
C697 C695 1.419 . S
C697 C698 1.363 . S
C697 H700 0.929 . S
C698 C697 1.363 . S
C698 C704 1.428 . S
H699 C695 0.930 . S
H700 C697 0.929 . S
S701 N702 1.613 . S
S701 N703 1.610 . S
N702 S701 1.613 . S
N702 C705 1.350 . S
N703 S701 1.610 . S
N703 C704 1.351 . S
C704 C698 1.428 . S
C704 N703 1.351 . S
C704 C705 1.434 . S
C705 C696 1.429 . S
C705 N702 1.350 . S
C705 C704 1.434 . S
C706 C707 1.369 . S
C706 C708 1.419 . S
C706 H710 0.930 . S
C707 C706 1.369 . S
C707 C716 1.429 . S
C708 C706 1.419 . S
C708 C709 1.363 . S
C708 H711 0.929 . S
C709 C708 1.363 . S
C709 C715 1.428 . S
H710 C706 0.930 . S
H711 C708 0.929 . S
S712 N713 1.613 . S
S712 N714 1.610 . S
N713 S712 1.613 . S
N713 C716 1.350 . S
N714 S712 1.610 . S
N714 C715 1.351 . S
C715 C709 1.428 . S
C715 N714 1.351 . S
C715 C716 1.434 . S
C716 C707 1.429 . S
C716 N713 1.350 . S
C716 C715 1.434 . S
C717 C718 1.369 . S
C717 C719 1.419 . S
C717 H721 0.930 . S
C718 C717 1.369 . S
C718 C727 1.429 . S
C719 C717 1.419 . S
C719 C720 1.363 . S
C719 H722 0.929 . S
C720 C719 1.363 . S
C720 C726 1.428 . S
H721 C717 0.930 . S
H722 C719 0.929 . S
S723 N724 1.613 . S
S723 N725 1.610 . S
N724 S723 1.613 . S
N724 C727 1.350 . S
N725 S723 1.610 . S
N725 C726 1.351 . S
C726 C720 1.428 . S
C726 N725 1.351 . S
C726 C727 1.434 . S
C727 C718 1.429 . S
C727 N724 1.350 . S
C727 C726 1.434 . S
C728 C729 1.369 . S
C728 C730 1.419 . S
C728 H732 0.930 . S
C729 C728 1.369 . S
C729 C738 1.429 . S
C730 C728 1.419 . S
C730 C731 1.363 . S
C730 H733 0.929 . S
C731 C730 1.363 . S
C731 C737 1.428 . S
H732 C728 0.930 . S
H733 C730 0.929 . S
S734 N735 1.613 . S
S734 N736 1.610 . S
N735 S734 1.613 . S
N735 C738 1.350 . S
N736 S734 1.610 . S
N736 C737 1.351 . S
C737 C731 1.428 . S
C737 N736 1.351 . S
C737 C738 1.434 . S
C738 C729 1.429 . S
C738 N735 1.350 . S
C738 C737 1.434 . S
C739 C740 1.369 . S
C739 C741 1.419 . S
C739 H743 0.930 . S
C740 C739 1.369 . S
C740 C749 1.429 . S
C741 C739 1.419 . S
C741 C742 1.363 . S
C741 H744 0.929 . S
C742 C741 1.363 . S
C742 C748 1.428 . S
H743 C739 0.930 . S
H744 C741 0.929 . S
S745 N746 1.613 . S
S745 N747 1.610 . S
N746 S745 1.613 . S
N746 C749 1.350 . S
N747 S745 1.610 . S
N747 C748 1.351 . S
C748 C742 1.428 . S
C748 N747 1.351 . S
C748 C749 1.434 . S
C749 C740 1.429 . S
C749 N746 1.350 . S
C749 C748 1.434 . S
C750 C751 1.369 . S
C750 C752 1.419 . S
C750 H754 0.930 . S
C751 C750 1.369 . S
C751 C760 1.429 . S
C752 C750 1.419 . S
C752 C753 1.363 . S
C752 H755 0.929 . S
C753 C752 1.363 . S
C753 C759 1.428 . S
H754 C750 0.930 . S
H755 C752 0.929 . S
S756 N757 1.613 . S
S756 N758 1.610 . S
N757 S756 1.613 . S
N757 C760 1.350 . S
N758 S756 1.610 . S
N758 C759 1.351 . S
C759 C753 1.428 . S
C759 N758 1.351 . S
C759 C760 1.434 . S
C760 C751 1.429 . S
C760 N757 1.350 . S
C760 C759 1.434 . S
C761 C762 1.369 . S
C761 C763 1.419 . S
C761 H765 0.930 . S
C762 C761 1.369 . S
C762 C771 1.429 . S
C763 C761 1.419 . S
C763 C764 1.363 . S
C763 H766 0.929 . S
C764 C763 1.363 . S
C764 C770 1.428 . S
H765 C761 0.930 . S
H766 C763 0.929 . S
S767 N768 1.613 . S
S767 N769 1.610 . S
N768 S767 1.613 . S
N768 C771 1.350 . S
N769 S767 1.610 . S
N769 C770 1.351 . S
C770 C764 1.428 . S
C770 N769 1.351 . S
C770 C771 1.434 . S
C771 C762 1.429 . S
C771 N768 1.350 . S
C771 C770 1.434 . S
C772 C773 1.369 . S
C772 C774 1.419 . S
C772 H776 0.930 . S
C773 C772 1.369 . S
C773 C782 1.429 . S
C774 C772 1.419 . S
C774 C775 1.363 . S
C774 H777 0.929 . S
C775 C774 1.363 . S
C775 C781 1.428 . S
H776 C772 0.930 . S
H777 C774 0.929 . S
S778 N779 1.613 . S
S778 N780 1.610 . S
N779 S778 1.613 . S
N779 C782 1.350 . S
N780 S778 1.610 . S
N780 C781 1.351 . S
C781 C775 1.428 . S
C781 N780 1.351 . S
C781 C782 1.434 . S
C782 C773 1.429 . S
C782 N779 1.350 . S
C782 C781 1.434 . S
C783 C784 1.369 . S
C783 C785 1.419 . S
C783 H787 0.930 . S
C784 C783 1.369 . S
C784 C793 1.429 . S
C785 C783 1.419 . S
C785 C786 1.363 . S
C785 H788 0.929 . S
C786 C785 1.363 . S
C786 C792 1.428 . S
H787 C783 0.930 . S
H788 C785 0.929 . S
S789 N790 1.613 . S
S789 N791 1.610 . S
N790 S789 1.613 . S
N790 C793 1.350 . S
N791 S789 1.610 . S
N791 C792 1.351 . S
C792 C786 1.428 . S
C792 N791 1.351 . S
C792 C793 1.434 . S
C793 C784 1.429 . S
C793 N790 1.350 . S
C793 C792 1.434 . S
C794 C795 1.369 . S
C794 C796 1.419 . S
C794 H798 0.930 . S
C795 C794 1.369 . S
C795 C804 1.429 . S
C796 C794 1.419 . S
C796 C797 1.363 . S
C796 H799 0.929 . S
C797 C796 1.363 . S
C797 C803 1.428 . S
H798 C794 0.930 . S
H799 C796 0.929 . S
S800 N801 1.613 . S
S800 N802 1.610 . S
N801 S800 1.613 . S
N801 C804 1.350 . S
N802 S800 1.610 . S
N802 C803 1.351 . S
C803 C797 1.428 . S
C803 N802 1.351 . S
C803 C804 1.434 . S
C804 C795 1.429 . S
C804 N801 1.350 . S
C804 C803 1.434 . S
C805 C806 1.369 . S
C805 C807 1.419 . S
C805 H809 0.930 . S
C806 C805 1.369 . S
C806 C815 1.429 . S
C807 C805 1.419 . S
C807 C808 1.363 . S
C807 H810 0.929 . S
C808 C807 1.363 . S
C808 C814 1.428 . S
H809 C805 0.930 . S
H810 C807 0.929 . S
S811 N812 1.613 . S
S811 N813 1.610 . S
N812 S811 1.613 . S
N812 C815 1.350 . S
N813 S811 1.610 . S
N813 C814 1.351 . S
C814 C808 1.428 . S
C814 N813 1.351 . S
C814 C815 1.434 . S
C815 C806 1.429 . S
C815 N812 1.350 . S
C815 C814 1.434 . S
C816 C817 1.369 . S
C816 C818 1.419 . S
C816 H820 0.930 . S
C817 C816 1.369 . S
C817 C826 1.429 . S
C818 C816 1.419 . S
C818 C819 1.363 . S
C818 H821 0.929 . S
C819 C818 1.363 . S
C819 C825 1.428 . S
H820 C816 0.930 . S
H821 C818 0.929 . S
S822 N823 1.613 . S
S822 N824 1.610 . S
N823 S822 1.613 . S
N823 C826 1.350 . S
N824 S822 1.610 . S
N824 C825 1.351 . S
C825 C819 1.428 . S
C825 N824 1.351 . S
C825 C826 1.434 . S
C826 C817 1.429 . S
C826 N823 1.350 . S
C826 C825 1.434 . S
C827 C828 1.369 . S
C827 C829 1.419 . S
C827 H831 0.930 . S
C828 C827 1.369 . S
C828 C837 1.429 . S
C829 C827 1.419 . S
C829 C830 1.363 . S
C829 H832 0.929 . S
C830 C829 1.363 . S
C830 C836 1.428 . S
H831 C827 0.930 . S
H832 C829 0.929 . S
S833 N834 1.613 . S
S833 N835 1.610 . S
N834 S833 1.613 . S
N834 C837 1.350 . S
N835 S833 1.610 . S
N835 C836 1.351 . S
C836 C830 1.428 . S
C836 N835 1.351 . S
C836 C837 1.434 . S
C837 C828 1.429 . S
C837 N834 1.350 . S
C837 C836 1.434 . S
C838 C839 1.369 . S
C838 C840 1.419 . S
C838 H842 0.930 . S
C839 C838 1.369 . S
C839 C848 1.429 . S
C840 C838 1.419 . S
C840 C841 1.363 . S
C840 H843 0.929 . S
C841 C840 1.363 . S
C841 C847 1.428 . S
H842 C838 0.930 . S
H843 C840 0.929 . S
S844 N845 1.613 . S
S844 N846 1.610 . S
N845 S844 1.613 . S
N845 C848 1.350 . S
N846 S844 1.610 . S
N846 C847 1.351 . S
C847 C841 1.428 . S
C847 N846 1.351 . S
C847 C848 1.434 . S
C848 C839 1.429 . S
C848 N845 1.350 . S
C848 C847 1.434 . S
C849 C850 1.369 . S
C849 C851 1.419 . S
C849 H853 0.930 . S
C850 C849 1.369 . S
C850 C859 1.429 . S
C851 C849 1.419 . S
C851 C852 1.363 . S
C851 H854 0.929 . S
C852 C851 1.363 . S
C852 C858 1.428 . S
H853 C849 0.930 . S
H854 C851 0.929 . S
S855 N856 1.613 . S
S855 N857 1.610 . S
N856 S855 1.613 . S
N856 C859 1.350 . S
N857 S855 1.610 . S
N857 C858 1.351 . S
C858 C852 1.428 . S
C858 N857 1.351 . S
C858 C859 1.434 . S
C859 C850 1.429 . S
C859 N856 1.350 . S
C859 C858 1.434 . S
C860 C861 1.369 . S
C860 C862 1.419 . S
C860 H864 0.930 . S
C861 C860 1.369 . S
C861 C870 1.429 . S
C862 C860 1.419 . S
C862 C863 1.363 . S
C862 H865 0.929 . S
C863 C862 1.363 . S
C863 C869 1.428 . S
H864 C860 0.930 . S
H865 C862 0.929 . S
S866 N867 1.613 . S
S866 N868 1.610 . S
N867 S866 1.613 . S
N867 C870 1.350 . S
N868 S866 1.610 . S
N868 C869 1.351 . S
C869 C863 1.428 . S
C869 N868 1.351 . S
C869 C870 1.434 . S
C870 C861 1.429 . S
C870 N867 1.350 . S
C870 C869 1.434 . S
C871 C872 1.369 . S
C871 C873 1.419 . S
C871 H875 0.930 . S
C872 C871 1.369 . S
C872 C881 1.429 . S
C873 C871 1.419 . S
C873 C874 1.363 . S
C873 H876 0.929 . S
C874 C873 1.363 . S
C874 C880 1.428 . S
H875 C871 0.930 . S
H876 C873 0.929 . S
S877 N878 1.613 . S
S877 N879 1.610 . S
N878 S877 1.613 . S
N878 C881 1.350 . S
N879 S877 1.610 . S
N879 C880 1.351 . S
C880 C874 1.428 . S
C880 N879 1.351 . S
C880 C881 1.434 . S
C881 C872 1.429 . S
C881 N878 1.350 . S
C881 C880 1.434 . S
C882 C883 1.369 . S
C882 C884 1.419 . S
C882 H886 0.930 . S
C883 C882 1.369 . S
C883 C892 1.429 . S
C884 C882 1.419 . S
C884 C885 1.363 . S
C884 H887 0.929 . S
C885 C884 1.363 . S
C885 C891 1.428 . S
H886 C882 0.930 . S
H887 C884 0.929 . S
S888 N889 1.613 . S
S888 N890 1.610 . S
N889 S888 1.613 . S
N889 C892 1.350 . S
N890 S888 1.610 . S
N890 C891 1.351 . S
C891 C885 1.428 . S
C891 N890 1.351 . S
C891 C892 1.434 . S
C892 C883 1.429 . S
C892 N889 1.350 . S
C892 C891 1.434 . S
C893 C894 1.369 . S
C893 C895 1.419 . S
C893 H897 0.930 . S
C894 C893 1.369 . S
C894 C903 1.429 . S
C895 C893 1.419 . S
C895 C896 1.363 . S
C895 H898 0.929 . S
C896 C895 1.363 . S
C896 C902 1.428 . S
H897 C893 0.930 . S
H898 C895 0.929 . S
S899 N900 1.613 . S
S899 N901 1.610 . S
N900 S899 1.613 . S
N900 C903 1.350 . S
N901 S899 1.610 . S
N901 C902 1.351 . S
C902 C896 1.428 . S
C902 N901 1.351 . S
C902 C903 1.434 . S
C903 C894 1.429 . S
C903 N900 1.350 . S
C903 C902 1.434 . S
C904 C905 1.369 . S
C904 C906 1.419 . S
C904 H908 0.930 . S
C905 C904 1.369 . S
C905 C914 1.429 . S
C906 C904 1.419 . S
C906 C907 1.363 . S
C906 H909 0.929 . S
C907 C906 1.363 . S
C907 C913 1.428 . S
H908 C904 0.930 . S
H909 C906 0.929 . S
S910 N911 1.613 . S
S910 N912 1.610 . S
N911 S910 1.613 . S
N911 C914 1.350 . S
N912 S910 1.610 . S
N912 C913 1.351 . S
C913 C907 1.428 . S
C913 N912 1.351 . S
C913 C914 1.434 . S
C914 C905 1.429 . S
C914 N911 1.350 . S
C914 C913 1.434 . S
C915 C916 1.369 . S
C915 C917 1.419 . S
C915 H919 0.930 . S
C916 C915 1.369 . S
C916 C925 1.429 . S
C917 C915 1.419 . S
C917 C918 1.363 . S
C917 H920 0.929 . S
C918 C917 1.363 . S
C918 C924 1.428 . S
H919 C915 0.930 . S
H920 C917 0.929 . S
S921 N922 1.613 . S
S921 N923 1.610 . S
N922 S921 1.613 . S
N922 C925 1.350 . S
N923 S921 1.610 . S
N923 C924 1.351 . S
C924 C918 1.428 . S
C924 N923 1.351 . S
C924 C925 1.434 . S
C925 C916 1.429 . S
C925 N922 1.350 . S
C925 C924 1.434 . S
C926 C927 1.369 . S
C926 C928 1.419 . S
C926 H930 0.930 . S
C927 C926 1.369 . S
C927 C936 1.429 . S
C928 C926 1.419 . S
C928 C929 1.363 . S
C928 H931 0.929 . S
C929 C928 1.363 . S
C929 C935 1.428 . S
H930 C926 0.930 . S
H931 C928 0.929 . S
S932 N933 1.613 . S
S932 N934 1.610 . S
N933 S932 1.613 . S
N933 C936 1.350 . S
N934 S932 1.610 . S
N934 C935 1.351 . S
C935 C929 1.428 . S
C935 N934 1.351 . S
C935 C936 1.434 . S
C936 C927 1.429 . S
C936 N933 1.350 . S
C936 C935 1.434 . S
C937 C938 1.369 . S
C937 C939 1.419 . S
C937 H941 0.930 . S
C938 C937 1.369 . S
C938 C947 1.429 . S
C939 C937 1.419 . S
C939 C940 1.363 . S
C939 H942 0.929 . S
C940 C939 1.363 . S
C940 C946 1.428 . S
H941 C937 0.930 . S
H942 C939 0.929 . S
S943 N944 1.613 . S
S943 N945 1.610 . S
N944 S943 1.613 . S
N944 C947 1.350 . S
N945 S943 1.610 . S
N945 C946 1.351 . S
C946 C940 1.428 . S
C946 N945 1.351 . S
C946 C947 1.434 . S
C947 C938 1.429 . S
C947 N944 1.350 . S
C947 C946 1.434 . S
C948 C949 1.369 . S
C948 C950 1.419 . S
C948 H952 0.930 . S
C949 C948 1.369 . S
C949 C958 1.429 . S
C950 C948 1.419 . S
C950 C951 1.363 . S
C950 H953 0.929 . S
C951 C950 1.363 . S
C951 C957 1.428 . S
H952 C948 0.930 . S
H953 C950 0.929 . S
S954 N955 1.613 . S
S954 N956 1.610 . S
N955 S954 1.613 . S
N955 C958 1.350 . S
N956 S954 1.610 . S
N956 C957 1.351 . S
C957 C951 1.428 . S
C957 N956 1.351 . S
C957 C958 1.434 . S
C958 C949 1.429 . S
C958 N955 1.350 . S
C958 C957 1.434 . S
C959 C960 1.369 . S
C959 C961 1.419 . S
C959 H963 0.930 . S
C960 C959 1.369 . S
C960 C969 1.429 . S
C961 C959 1.419 . S
C961 C962 1.363 . S
C961 H964 0.929 . S
C962 C961 1.363 . S
C962 C968 1.428 . S
H963 C959 0.930 . S
H964 C961 0.929 . S
S965 N966 1.613 . S
S965 N967 1.610 . S
N966 S965 1.613 . S
N966 C969 1.350 . S
N967 S965 1.610 . S
N967 C968 1.351 . S
C968 C962 1.428 . S
C968 N967 1.351 . S
C968 C969 1.434 . S
C969 C960 1.429 . S
C969 N966 1.350 . S
C969 C968 1.434 . S
C970 C971 1.369 . S
C970 C972 1.419 . S
C970 H974 0.930 . S
C971 C970 1.369 . S
C971 C980 1.429 . S
C972 C970 1.419 . S
C972 C973 1.363 . S
C972 H975 0.929 . S
C973 C972 1.363 . S
C973 C979 1.428 . S
H974 C970 0.930 . S
H975 C972 0.929 . S
S976 N977 1.613 . S
S976 N978 1.610 . S
N977 S976 1.613 . S
N977 C980 1.350 . S
N978 S976 1.610 . S
N978 C979 1.351 . S
C979 C973 1.428 . S
C979 N978 1.351 . S
C979 C980 1.434 . S
C980 C971 1.429 . S
C980 N977 1.350 . S
C980 C979 1.434 . S
C981 C982 1.369 . S
C981 C983 1.419 . S
C981 H985 0.930 . S
C982 C981 1.369 . S
C982 C991 1.429 . S
C983 C981 1.419 . S
C983 C984 1.363 . S
C983 H986 0.929 . S
C984 C983 1.363 . S
C984 C990 1.428 . S
H985 C981 0.930 . S
H986 C983 0.929 . S
S987 N988 1.613 . S
S987 N989 1.610 . S
N988 S987 1.613 . S
N988 C991 1.350 . S
N989 S987 1.610 . S
N989 C990 1.351 . S
C990 C984 1.428 . S
C990 N989 1.351 . S
C990 C991 1.434 . S
C991 C982 1.429 . S
C991 N988 1.350 . S
C991 C990 1.434 . S
C992 C993 1.369 . S
C992 C994 1.419 . S
C992 H996 0.930 . S
C993 C992 1.369 . S
C993 C1002 1.429 . S
C994 C992 1.419 . S
C994 C995 1.363 . S
C994 H997 0.929 . S
C995 C994 1.363 . S
C995 C1001 1.428 . S
H996 C992 0.930 . S
H997 C994 0.929 . S
S998 N999 1.613 . S
S998 N1000 1.610 . S
N999 S998 1.613 . S
N999 C1002 1.350 . S
N1000 S998 1.610 . S
N1000 C1001 1.351 . S
C1001 C995 1.428 . S
C1001 N1000 1.351 . S
C1001 C1002 1.434 . S
C1002 C993 1.429 . S
C1002 N999 1.350 . S
C1002 C1001 1.434 . S
C1003 C1004 1.369 . S
C1003 C1005 1.419 . S
C1003 H1007 0.930 . S
C1004 C1003 1.369 . S
C1004 C1013 1.429 . S
C1005 C1003 1.419 . S
C1005 C1006 1.363 . S
C1005 H1008 0.929 . S
C1006 C1005 1.363 . S
C1006 C1012 1.428 . S
H1007 C1003 0.930 . S
H1008 C1005 0.929 . S
S1009 N1010 1.613 . S
S1009 N1011 1.610 . S
N1010 S1009 1.613 . S
N1010 C1013 1.350 . S
N1011 S1009 1.610 . S
N1011 C1012 1.351 . S
C1012 C1006 1.428 . S
C1012 N1011 1.351 . S
C1012 C1013 1.434 . S
C1013 C1004 1.429 . S
C1013 N1010 1.350 . S
C1013 C1012 1.434 . S
C1014 C1015 1.369 . S
C1014 C1016 1.419 . S
C1014 H1018 0.930 . S
C1015 C1014 1.369 . S
C1015 C1024 1.429 . S
C1016 C1014 1.419 . S
C1016 C1017 1.363 . S
C1016 H1019 0.929 . S
C1017 C1016 1.363 . S
C1017 C1023 1.428 . S
H1018 C1014 0.930 . S
H1019 C1016 0.929 . S
S1020 N1021 1.613 . S
S1020 N1022 1.610 . S
N1021 S1020 1.613 . S
N1021 C1024 1.350 . S
N1022 S1020 1.610 . S
N1022 C1023 1.351 . S
C1023 C1017 1.428 . S
C1023 N1022 1.351 . S
C1023 C1024 1.434 . S
C1024 C1015 1.429 . S
C1024 N1021 1.350 . S
C1024 C1023 1.434 . S
C1025 C1026 1.369 . S
C1025 C1027 1.419 . S
C1025 H1029 0.930 . S
C1026 C1025 1.369 . S
C1026 C1035 1.429 . S
C1027 C1025 1.419 . S
C1027 C1028 1.363 . S
C1027 H1030 0.929 . S
C1028 C1027 1.363 . S
C1028 C1034 1.428 . S
H1029 C1025 0.930 . S
H1030 C1027 0.929 . S
S1031 N1032 1.613 . S
S1031 N1033 1.610 . S
N1032 S1031 1.613 . S
N1032 C1035 1.350 . S
N1033 S1031 1.610 . S
N1033 C1034 1.351 . S
C1034 C1028 1.428 . S
C1034 N1033 1.351 . S
C1034 C1035 1.434 . S
C1035 C1026 1.429 . S
C1035 N1032 1.350 . S
C1035 C1034 1.434 . S
C1036 C1037 1.369 . S
C1036 C1038 1.419 . S
C1036 H1040 0.930 . S
C1037 C1036 1.369 . S
C1037 C1046 1.429 . S
C1038 C1036 1.419 . S
C1038 C1039 1.363 . S
C1038 H1041 0.929 . S
C1039 C1038 1.363 . S
C1039 C1045 1.428 . S
H1040 C1036 0.930 . S
H1041 C1038 0.929 . S
S1042 N1043 1.613 . S
S1042 N1044 1.610 . S
N1043 S1042 1.613 . S
N1043 C1046 1.350 . S
N1044 S1042 1.610 . S
N1044 C1045 1.351 . S
C1045 C1039 1.428 . S
C1045 N1044 1.351 . S
C1045 C1046 1.434 . S
C1046 C1037 1.429 . S
C1046 N1043 1.350 . S
C1046 C1045 1.434 . S
C1047 C1048 1.369 . S
C1047 C1049 1.419 . S
C1047 H1051 0.930 . S
C1048 C1047 1.369 . S
C1048 C1057 1.429 . S
C1049 C1047 1.419 . S
C1049 C1050 1.363 . S
C1049 H1052 0.929 . S
C1050 C1049 1.363 . S
C1050 C1056 1.428 . S
H1051 C1047 0.930 . S
H1052 C1049 0.929 . S
S1053 N1054 1.613 . S
S1053 N1055 1.610 . S
N1054 S1053 1.613 . S
N1054 C1057 1.350 . S
N1055 S1053 1.610 . S
N1055 C1056 1.351 . S
C1056 C1050 1.428 . S
C1056 N1055 1.351 . S
C1056 C1057 1.434 . S
C1057 C1048 1.429 . S
C1057 N1054 1.350 . S
C1057 C1056 1.434 . S
C1058 C1059 1.369 . S
C1058 C1060 1.419 . S
C1058 H1062 0.930 . S
C1059 C1058 1.369 . S
C1059 C1068 1.429 . S
C1060 C1058 1.419 . S
C1060 C1061 1.363 . S
C1060 H1063 0.929 . S
C1061 C1060 1.363 . S
C1061 C1067 1.428 . S
H1062 C1058 0.930 . S
H1063 C1060 0.929 . S
S1064 N1065 1.613 . S
S1064 N1066 1.610 . S
N1065 S1064 1.613 . S
N1065 C1068 1.350 . S
N1066 S1064 1.610 . S
N1066 C1067 1.351 . S
C1067 C1061 1.428 . S
C1067 N1066 1.351 . S
C1067 C1068 1.434 . S
C1068 C1059 1.429 . S
C1068 N1065 1.350 . S
C1068 C1067 1.434 . S
C1069 C1070 1.369 . S
C1069 C1071 1.419 . S
C1069 H1073 0.930 . S
C1070 C1069 1.369 . S
C1070 C1079 1.429 . S
C1071 C1069 1.419 . S
C1071 C1072 1.363 . S
C1071 H1074 0.929 . S
C1072 C1071 1.363 . S
C1072 C1078 1.428 . S
H1073 C1069 0.930 . S
H1074 C1071 0.929 . S
S1075 N1076 1.613 . S
S1075 N1077 1.610 . S
N1076 S1075 1.613 . S
N1076 C1079 1.350 . S
N1077 S1075 1.610 . S
N1077 C1078 1.351 . S
C1078 C1072 1.428 . S
C1078 N1077 1.351 . S
C1078 C1079 1.434 . S
C1079 C1070 1.429 . S
C1079 N1076 1.350 . S
C1079 C1078 1.434 . S
C1080 C1081 1.369 . S
C1080 C1082 1.419 . S
C1080 H1084 0.930 . S
C1081 C1080 1.369 . S
C1081 C1090 1.429 . S
C1082 C1080 1.419 . S
C1082 C1083 1.363 . S
C1082 H1085 0.929 . S
C1083 C1082 1.363 . S
C1083 C1089 1.428 . S
H1084 C1080 0.930 . S
H1085 C1082 0.929 . S
S1086 N1087 1.613 . S
S1086 N1088 1.610 . S
N1087 S1086 1.613 . S
N1087 C1090 1.350 . S
N1088 S1086 1.610 . S
N1088 C1089 1.351 . S
C1089 C1083 1.428 . S
C1089 N1088 1.351 . S
C1089 C1090 1.434 . S
C1090 C1081 1.429 . S
C1090 N1087 1.350 . S
C1090 C1089 1.434 . S
C1091 C1092 1.369 . S
C1091 C1093 1.419 . S
C1091 H1095 0.930 . S
C1092 C1091 1.369 . S
C1092 C1101 1.429 . S
C1093 C1091 1.419 . S
C1093 C1094 1.363 . S
C1093 H1096 0.929 . S
C1094 C1093 1.363 . S
C1094 C1100 1.428 . S
H1095 C1091 0.930 . S
H1096 C1093 0.929 . S
S1097 N1098 1.613 . S
S1097 N1099 1.610 . S
N1098 S1097 1.613 . S
N1098 C1101 1.350 . S
N1099 S1097 1.610 . S
N1099 C1100 1.351 . S
C1100 C1094 1.428 . S
C1100 N1099 1.351 . S
C1100 C1101 1.434 . S
C1101 C1092 1.429 . S
C1101 N1098 1.350 . S
C1101 C1100 1.434 . S
C1102 C1103 1.369 . S
C1102 C1104 1.419 . S
C1102 H1106 0.930 . S
C1103 C1102 1.369 . S
C1103 C1112 1.429 . S
C1104 C1102 1.419 . S
C1104 C1105 1.363 . S
C1104 H1107 0.929 . S
C1105 C1104 1.363 . S
C1105 C1111 1.428 . S
H1106 C1102 0.930 . S
H1107 C1104 0.929 . S
S1108 N1109 1.613 . S
S1108 N1110 1.610 . S
N1109 S1108 1.613 . S
N1109 C1112 1.350 . S
N1110 S1108 1.610 . S
N1110 C1111 1.351 . S
C1111 C1105 1.428 . S
C1111 N1110 1.351 . S
C1111 C1112 1.434 . S
C1112 C1103 1.429 . S
C1112 N1109 1.350 . S
C1112 C1111 1.434 . S
C1113 C1114 1.369 . S
C1113 C1115 1.419 . S
C1113 H1117 0.930 . S
C1114 C1113 1.369 . S
C1114 C1123 1.429 . S
C1115 C1113 1.419 . S
C1115 C1116 1.363 . S
C1115 H1118 0.929 . S
C1116 C1115 1.363 . S
C1116 C1122 1.428 . S
H1117 C1113 0.930 . S
H1118 C1115 0.929 . S
S1119 N1120 1.613 . S
S1119 N1121 1.610 . S
N1120 S1119 1.613 . S
N1120 C1123 1.350 . S
N1121 S1119 1.610 . S
N1121 C1122 1.351 . S
C1122 C1116 1.428 . S
C1122 N1121 1.351 . S
C1122 C1123 1.434 . S
C1123 C1114 1.429 . S
C1123 N1120 1.350 . S
C1123 C1122 1.434 . S
C1124 C1125 1.369 . S
C1124 C1126 1.419 . S
C1124 H1128 0.930 . S
C1125 C1124 1.369 . S
C1125 C1134 1.429 . S
C1126 C1124 1.419 . S
C1126 C1127 1.363 . S
C1126 H1129 0.929 . S
C1127 C1126 1.363 . S
C1127 C1133 1.428 . S
H1128 C1124 0.930 . S
H1129 C1126 0.929 . S
S1130 N1131 1.613 . S
S1130 N1132 1.610 . S
N1131 S1130 1.613 . S
N1131 C1134 1.350 . S
N1132 S1130 1.610 . S
N1132 C1133 1.351 . S
C1133 C1127 1.428 . S
C1133 N1132 1.351 . S
C1133 C1134 1.434 . S
C1134 C1125 1.429 . S
C1134 N1131 1.350 . S
C1134 C1133 1.434 . S
C1135 C1136 1.369 . S
C1135 C1137 1.419 . S
C1135 H1139 0.930 . S
C1136 C1135 1.369 . S
C1136 C1145 1.429 . S
C1137 C1135 1.419 . S
C1137 C1138 1.363 . S
C1137 H1140 0.929 . S
C1138 C1137 1.363 . S
C1138 C1144 1.428 . S
H1139 C1135 0.930 . S
H1140 C1137 0.929 . S
S1141 N1142 1.613 . S
S1141 N1143 1.610 . S
N1142 S1141 1.613 . S
N1142 C1145 1.350 . S
N1143 S1141 1.610 . S
N1143 C1144 1.351 . S
C1144 C1138 1.428 . S
C1144 N1143 1.351 . S
C1144 C1145 1.434 . S
C1145 C1136 1.429 . S
C1145 N1142 1.350 . S
C1145 C1144 1.434 . S
C1146 C1147 1.369 . S
C1146 C1148 1.419 . S
C1146 H1150 0.930 . S
C1147 C1146 1.369 . S
C1147 C1156 1.429 . S
C1148 C1146 1.419 . S
C1148 C1149 1.363 . S
C1148 H1151 0.929 . S
C1149 C1148 1.363 . S
C1149 C1155 1.428 . S
H1150 C1146 0.930 . S
H1151 C1148 0.929 . S
S1152 N1153 1.613 . S
S1152 N1154 1.610 . S
N1153 S1152 1.613 . S
N1153 C1156 1.350 . S
N1154 S1152 1.610 . S
N1154 C1155 1.351 . S
C1155 C1149 1.428 . S
C1155 N1154 1.351 . S
C1155 C1156 1.434 . S
C1156 C1147 1.429 . S
C1156 N1153 1.350 . S
C1156 C1155 1.434 . S
C1157 C1158 1.369 . S
C1157 C1159 1.419 . S
C1157 H1161 0.930 . S
C1158 C1157 1.369 . S
C1158 C1167 1.429 . S
C1159 C1157 1.419 . S
C1159 C1160 1.363 . S
C1159 H1162 0.929 . S
C1160 C1159 1.363 . S
C1160 C1166 1.428 . S
H1161 C1157 0.930 . S
H1162 C1159 0.929 . S
S1163 N1164 1.613 . S
S1163 N1165 1.610 . S
N1164 S1163 1.613 . S
N1164 C1167 1.350 . S
N1165 S1163 1.610 . S
N1165 C1166 1.351 . S
C1166 C1160 1.428 . S
C1166 N1165 1.351 . S
C1166 C1167 1.434 . S
C1167 C1158 1.429 . S
C1167 N1164 1.350 . S
C1167 C1166 1.434 . S
C1168 C1169 1.369 . S
C1168 C1170 1.419 1_565 S
C1168 H1172 0.930 . S
C1169 C1168 1.369 . S
C1169 C1178 1.429 . S
C1170 C1168 1.419 1_545 S
C1170 C1171 1.363 . S
C1170 H1173 0.929 . S
C1171 C1170 1.363 . S
C1171 C1177 1.428 1_545 S
H1172 C1168 0.930 . S
H1173 C1170 0.929 . S
S1174 N1175 1.613 . S
S1174 N1176 1.610 . S
N1175 S1174 1.613 . S
N1175 C1178 1.350 . S
N1176 S1174 1.610 . S
N1176 C1177 1.351 . S
C1177 C1171 1.428 1_565 S
C1177 N1176 1.351 . S
C1177 C1178 1.434 . S
C1178 C1169 1.429 . S
C1178 N1175 1.350 . S
C1178 C1177 1.434 . S
C1179 C1180 1.369 . S
C1179 C1181 1.419 1_655 S
C1179 H1183 0.930 . S
C1180 C1179 1.369 . S
C1180 C1189 1.429 . S
C1181 C1179 1.419 1_455 S
C1181 C1182 1.363 . S
C1181 H1184 0.929 . S
C1182 C1181 1.363 . S
C1182 C1188 1.428 . S
H1183 C1179 0.930 . S
H1184 C1181 0.929 . S
S1185 N1186 1.613 . S
S1185 N1187 1.610 1_655 S
N1186 S1185 1.613 . S
N1186 C1189 1.350 . S
N1187 S1185 1.610 1_455 S
N1187 C1188 1.351 . S
C1188 C1182 1.428 . S
C1188 N1187 1.351 . S
C1188 C1189 1.434 1_455 S
C1189 C1180 1.429 . S
C1189 N1186 1.350 . S
C1189 C1188 1.434 1_655 S
C1190 C1191 1.369 . S
C1190 C1192 1.419 1_545 S
C1190 H1194 0.930 . S
C1191 C1190 1.369 . S
C1191 C1200 1.429 1_545 S
C1192 C1190 1.419 1_565 S
C1192 C1193 1.363 . S
C1192 H1195 0.929 . S
C1193 C1192 1.363 . S
C1193 C1199 1.428 . S
H1194 C1190 0.930 . S
H1195 C1192 0.929 . S
S1196 N1197 1.613 . S
S1196 N1198 1.610 . S
N1197 S1196 1.613 . S
N1197 C1200 1.350 . S
N1198 S1196 1.610 . S
N1198 C1199 1.351 . S
C1199 C1193 1.428 . S
C1199 N1198 1.351 . S
C1199 C1200 1.434 . S
C1200 C1191 1.429 1_565 S
C1200 N1197 1.350 . S
C1200 C1199 1.434 . S
C1201 C1202 1.369 1_455 S
C1201 C1203 1.419 . S
C1201 H1205 0.930 1_455 S
C1202 C1201 1.369 1_655 S
C1202 C1211 1.429 1_655 S
C1203 C1201 1.419 . S
C1203 C1204 1.363 . S
C1203 H1206 0.929 . S
C1204 C1203 1.363 . S
C1204 C1210 1.428 . S
H1205 C1201 0.930 1_655 S
H1206 C1203 0.929 . S
S1207 N1208 1.613 . S
S1207 N1209 1.610 . S
N1208 S1207 1.613 . S
N1208 C1211 1.350 . S
N1209 S1207 1.610 . S
N1209 C1210 1.351 . S
C1210 C1204 1.428 . S
C1210 N1209 1.351 . S
C1210 C1211 1.434 . S
C1211 C1202 1.429 1_455 S
C1211 N1208 1.350 . S
C1211 C1210 1.434 . S
C1212 C1213 1.369 . S
C1212 C1214 1.419 . S
C1212 H1216 0.930 . S
C1213 C1212 1.369 . S
C1213 C1222 1.429 . S
C1214 C1212 1.419 . S
C1214 C1215 1.363 1_545 S
C1214 H1217 0.929 1_545 S
C1215 C1214 1.363 1_565 S
C1215 C1221 1.425 1_565 S
H1216 C1212 0.930 . S
H1217 C1214 0.929 1_565 S
S1218 N1219 1.613 . S
S1218 N1220 1.610 1_545 S
N1219 S1218 1.613 . S
N1219 C1222 1.350 . S
N1220 S1218 1.610 1_565 S
N1220 C1221 1.346 1_565 S
C1221 C1215 1.425 1_545 S
C1221 N1220 1.346 1_545 S
C1221 C1222 1.444 . S
C1222 C1213 1.429 . S
C1222 N1219 1.350 . S
C1222 C1221 1.444 . S
C1223 C1224 1.369 . S
C1223 C1225 1.419 . S
C1223 H1227 0.930 . S
C1224 C1223 1.369 . S
C1224 C1233 1.429 . S
C1225 C1223 1.419 . S
C1225 C1226 1.363 1_655 S
C1225 H1228 0.929 1_655 S
C1226 C1225 1.363 1_455 S
C1226 C1232 1.428 . S
H1227 C1223 0.930 . S
H1228 C1225 0.929 1_455 S
S1229 N1230 1.613 1_455 S
S1229 N1231 1.610 . S
N1230 S1229 1.613 1_655 S
N1230 C1233 1.350 . S
N1231 S1229 1.610 . S
N1231 C1232 1.351 . S
C1232 C1226 1.428 . S
C1232 N1231 1.351 . S
C1232 C1233 1.434 1_455 S
C1233 C1224 1.429 . S
C1233 N1230 1.350 . S
C1233 C1232 1.434 1_655 S
C1234 C1235 1.369 1_565 S
C1234 C1236 1.419 . S
C1234 H1238 0.927 1_565 S
C1235 C1234 1.369 1_545 S
C1235 C1244 1.429 1_545 S
C1236 C1234 1.419 . S
C1236 C1237 1.363 . S
C1236 H1239 0.929 . S
C1237 C1236 1.363 . S
C1237 C1243 1.428 . S
H1238 C1234 0.927 1_545 S
H1239 C1236 0.929 . S
S1240 N1241 1.613 1_565 S
S1240 N1242 1.610 . S
N1241 S1240 1.613 1_545 S
N1241 C1244 1.350 1_545 S
N1242 S1240 1.610 . S
N1242 C1243 1.351 . S
C1243 C1237 1.428 . S
C1243 N1242 1.351 . S
C1243 C1244 1.434 . S
C1244 C1235 1.429 1_565 S
C1244 N1241 1.350 1_565 S
C1244 C1243 1.434 . S
C1245 C1246 1.369 . S
C1245 C1247 1.419 1_655 S
C1245 H1249 0.930 . S
C1246 C1245 1.369 . S
C1246 C1255 1.429 . S
C1247 C1245 1.419 1_455 S
C1247 C1248 1.363 . S
C1247 H1250 0.929 . S
C1248 C1247 1.363 . S
C1248 C1254 1.428 . S
H1249 C1245 0.930 . S
H1250 C1247 0.929 . S
S1251 N1252 1.613 1_455 S
S1251 N1253 1.610 . S
N1252 S1251 1.613 1_655 S
N1252 C1255 1.350 . S
N1253 S1251 1.610 . S
N1253 C1254 1.351 . S
C1254 C1248 1.428 . S
C1254 N1253 1.351 . S
C1254 C1255 1.434 1_455 S
C1255 C1246 1.429 . S
C1255 N1252 1.350 . S
C1255 C1254 1.434 1_655 S
C1256 C1257 1.369 . S
C1256 C1258 1.419 . S
C1256 H1260 0.930 . S
C1257 C1256 1.369 . S
C1257 C1266 1.429 . S
C1258 C1256 1.419 . S
C1258 C1259 1.363 . S
C1258 H1261 0.929 . S
C1259 C1258 1.363 . S
C1259 C1265 1.428 . S
H1260 C1256 0.930 . S
H1261 C1258 0.929 . S
S1262 N1263 1.613 . S
S1262 N1264 1.610 1_554 S
N1263 S1262 1.613 . S
N1263 C1266 1.350 . S
N1264 S1262 1.610 1_556 S
N1264 C1265 1.351 1_556 S
C1265 C1259 1.428 . S
C1265 N1264 1.351 1_554 S
C1265 C1266 1.434 . S
C1266 C1257 1.429 . S
C1266 N1263 1.350 . S
C1266 C1265 1.434 . S
C1267 C1268 1.369 . S
C1267 C1269 1.419 1_556 S
C1267 H1271 0.930 . S
C1268 C1267 1.369 . S
C1268 C1277 1.429 . S
C1269 C1267 1.419 1_554 S
C1269 C1270 1.363 . S
C1269 H1272 0.929 . S
C1270 C1269 1.363 . S
C1270 C1276 1.428 . S
H1271 C1267 0.930 . S
H1272 C1269 0.929 . S
S1273 N1274 1.613 1_554 S
S1273 N1275 1.610 . S
N1274 S1273 1.613 1_556 S
N1274 C1277 1.350 . S
N1275 S1273 1.610 . S
N1275 C1276 1.351 . S
C1276 C1270 1.428 . S
C1276 N1275 1.351 . S
C1276 C1277 1.434 1_554 S
C1277 C1268 1.429 . S
C1277 N1274 1.350 . S
C1277 C1276 1.434 1_556 S
C1278 C1279 1.369 . S
C1278 C1280 1.419 . S
C1278 H1282 0.916 1_554 S
C1279 C1278 1.369 . S
C1279 C1288 1.429 . S
C1280 C1278 1.419 . S
C1280 C1281 1.363 . S
C1280 H1283 0.929 . S
C1281 C1280 1.363 . S
C1281 C1287 1.428 . S
H1282 C1278 0.916 1_556 S
H1283 C1280 0.929 . S
S1284 N1285 1.613 . S
S1284 N1286 1.610 . S
N1285 S1284 1.613 . S
N1285 C1288 1.350 . S
N1286 S1284 1.610 . S
N1286 C1287 1.351 . S
C1287 C1281 1.428 . S
C1287 N1286 1.351 . S
C1287 C1288 1.434 . S
C1288 C1279 1.429 . S
C1288 N1285 1.350 . S
C1288 C1287 1.434 . S
C1289 C1290 1.369 . S
C1289 C1291 1.419 1_554 S
C1289 H1293 0.930 . S
C1290 C1289 1.369 . S
C1290 C1299 1.429 . S
C1291 C1289 1.419 1_556 S
C1291 C1292 1.363 . S
C1291 H1294 0.929 . S
C1292 C1291 1.363 . S
C1292 C1298 1.428 . S
H1293 C1289 0.930 . S
H1294 C1291 0.929 . S
S1295 N1296 1.613 1_556 S
S1295 N1297 1.610 . S
N1296 S1295 1.613 1_554 S
N1296 C1299 1.350 . S
N1297 S1295 1.610 . S
N1297 C1298 1.351 . S
C1298 C1292 1.428 . S
C1298 N1297 1.351 . S
C1298 C1299 1.434 1_556 S
C1299 C1290 1.429 . S
C1299 N1296 1.350 . S
C1299 C1298 1.434 1_554 S
C1300 C1301 1.369 . S
C1300 C1302 1.419 1_556 S
C1300 H1304 0.930 . S
C1301 C1300 1.369 . S
C1301 C1310 1.429 . S
C1302 C1300 1.419 1_554 S
C1302 C1303 1.363 . S
C1302 H1305 0.929 . S
C1303 C1302 1.363 . S
C1303 C1309 1.428 . S
H1304 C1300 0.930 . S
H1305 C1302 0.929 . S
S1306 N1307 1.613 1_554 S
S1306 N1308 1.610 . S
N1307 S1306 1.613 1_556 S
N1307 C1310 1.350 . S
N1308 S1306 1.610 . S
N1308 C1309 1.351 . S
C1309 C1303 1.428 . S
C1309 N1308 1.351 . S
C1309 C1310 1.434 1_554 S
C1310 C1301 1.429 . S
C1310 N1307 1.350 . S
C1310 C1309 1.434 1_556 S
C1311 C1312 1.369 . S
C1311 C1313 1.419 . S
C1311 H1315 0.930 . S
C1312 C1311 1.369 . S
C1312 C1321 1.429 . S
C1313 C1311 1.419 . S
C1313 C1314 1.363 . S
C1313 H1316 0.929 . S
C1314 C1313 1.363 . S
C1314 C1320 1.428 . S
H1315 C1311 0.930 . S
H1316 C1313 0.929 . S
S1317 N1318 1.613 . S
S1317 N1319 1.610 . S
N1318 S1317 1.613 . S
N1318 C1321 1.350 . S
N1319 S1317 1.610 . S
N1319 C1320 1.351 . S
C1320 C1314 1.428 . S
C1320 N1319 1.351 . S
C1320 C1321 1.434 . S
C1321 C1312 1.429 . S
C1321 N1318 1.350 . S
C1321 C1320 1.434 . S
C1322 C1323 1.369 . S
C1322 C1324 1.419 1_554 S
C1322 H1326 0.930 . S
C1323 C1322 1.369 . S
C1323 C1332 1.429 . S
C1324 C1322 1.419 1_556 S
C1324 C1325 1.363 . S
C1324 H1327 0.929 . S
C1325 C1324 1.363 . S
C1325 C1331 1.428 . S
H1326 C1322 0.930 . S
H1327 C1324 0.929 . S
S1328 N1329 1.613 1_556 S
S1328 N1330 1.610 . S
N1329 S1328 1.613 1_554 S
N1329 C1332 1.350 . S
N1330 S1328 1.610 . S
N1330 C1331 1.351 . S
C1331 C1325 1.428 . S
C1331 N1330 1.351 . S
C1331 C1332 1.434 1_556 S
C1332 C1323 1.429 . S
C1332 N1329 1.350 . S
C1332 C1331 1.434 1_554 S
C1333 C1334 1.369 . S
C1333 C1335 1.419 . S
C1333 H1337 0.930 . S
C1334 C1333 1.369 . S
C1334 C1343 1.429 . S
C1335 C1333 1.419 . S
C1335 C1336 1.363 . S
C1335 H1338 0.929 . S
C1336 C1335 1.363 . S
C1336 C1342 1.428 . S
H1337 C1333 0.930 . S
H1338 C1335 0.929 . S
S1339 N1340 1.613 1_554 S
S1339 N1341 1.610 . S
N1340 S1339 1.613 1_556 S
N1340 C1343 1.350 1_556 S
N1341 S1339 1.610 . S
N1341 C1342 1.351 . S
C1342 C1336 1.428 . S
C1342 N1341 1.351 . S
C1342 C1343 1.434 . S
C1343 C1334 1.429 . S
C1343 N1340 1.350 1_554 S
C1343 C1342 1.434 . S
C1344 C1345 1.369 . S
C1344 C1346 1.419 1_455 S
C1344 H1348 0.930 . S
C1345 C1344 1.369 . S
C1345 C1354 1.429 . S
C1346 C1344 1.419 1_655 S
C1346 C1347 1.363 . S
C1346 H1349 0.929 . S
C1347 C1346 1.363 . S
C1347 C1353 1.428 . S
H1348 C1344 0.930 . S
H1349 C1346 0.929 . S
S1350 N1351 1.613 . S
S1350 N1352 1.610 1_455 S
N1351 S1350 1.613 . S
N1351 C1354 1.350 . S
N1352 S1350 1.610 1_655 S
N1352 C1353 1.351 . S
C1353 C1347 1.428 . S
C1353 N1352 1.351 . S
C1353 C1354 1.434 1_655 S
C1354 C1345 1.429 . S
C1354 N1351 1.350 . S
C1354 C1353 1.434 1_455 S
C1355 C1356 1.369 . S
C1355 C1357 1.419 1_455 S
C1355 H1359 0.930 . S
C1356 C1355 1.369 . S
C1356 C1365 1.429 . S
C1357 C1355 1.419 1_655 S
C1357 C1358 1.363 . S
C1357 H1360 0.929 . S
C1358 C1357 1.363 . S
C1358 C1364 1.428 . S
H1359 C1355 0.930 . S
H1360 C1357 0.929 . S
S1361 N1362 1.613 . S
S1361 N1363 1.610 1_455 S
N1362 S1361 1.613 . S
N1362 C1365 1.350 . S
N1363 S1361 1.610 1_655 S
N1363 C1364 1.351 . S
C1364 C1358 1.428 . S
C1364 N1363 1.351 . S
C1364 C1365 1.434 1_655 S
C1365 C1356 1.429 . S
C1365 N1362 1.350 . S
C1365 C1364 1.434 1_455 S
C1366 C1367 1.369 . S
C1366 C1368 1.419 1_565 S
C1366 H1370 0.930 . S
C1367 C1366 1.369 . S
C1367 C1376 1.429 . S
C1368 C1366 1.419 1_545 S
C1368 C1369 1.363 . S
C1368 H1371 0.929 . S
C1369 C1368 1.363 . S
C1369 C1375 1.428 1_545 S
H1370 C1366 0.930 . S
H1371 C1368 0.929 . S
S1372 N1373 1.613 . S
S1372 N1374 1.638 . S
N1373 S1372 1.613 . S
N1373 C1376 1.350 . S
N1374 S1372 1.638 . S
N1374 C1375 1.352 . S
C1375 C1369 1.428 1_565 S
C1375 N1374 1.352 . S
C1375 C1376 1.434 . S
C1376 C1367 1.429 . S
C1376 N1373 1.350 . S
C1376 C1375 1.434 . S
C1377 C1378 1.369 . S
C1377 C1379 1.419 . S
C1377 H1381 0.930 . S
C1378 C1377 1.369 . S
C1378 C1387 1.429 . S
C1379 C1377 1.419 . S
C1379 C1380 1.363 1_455 S
C1379 H1382 0.929 . S
C1380 C1379 1.363 1_655 S
C1380 C1386 1.428 1_655 S
H1381 C1377 0.930 . S
H1382 C1379 0.929 . S
S1383 N1384 1.613 . S
S1383 N1385 1.610 1_455 S
N1384 S1383 1.613 . S
N1384 C1387 1.350 . S
N1385 S1383 1.610 1_655 S
N1385 C1386 1.351 1_655 S
C1386 C1380 1.428 1_455 S
C1386 N1385 1.351 1_455 S
C1386 C1387 1.434 . S
C1387 C1378 1.429 . S
C1387 N1384 1.350 . S
C1387 C1386 1.434 . S
C1388 C1389 1.369 . S
C1388 C1390 1.419 1_565 S
C1388 H1392 0.930 . S
C1389 C1388 1.369 . S
C1389 C1398 1.429 . S
C1390 C1388 1.419 1_545 S
C1390 C1391 1.363 . S
C1390 H1393 0.929 . S
C1391 C1390 1.363 . S
C1391 C1397 1.428 1_545 S
H1392 C1388 0.930 . S
H1393 C1390 0.929 . S
S1394 N1395 1.613 . S
S1394 N1396 1.610 . S
N1395 S1394 1.613 . S
N1395 C1398 1.350 . S
N1396 S1394 1.610 . S
N1396 C1397 1.351 . S
C1397 C1391 1.428 1_565 S
C1397 N1396 1.351 . S
C1397 C1398 1.434 . S
C1398 C1389 1.429 . S
C1398 N1395 1.350 . S
C1398 C1397 1.434 . S
C1399 C1400 1.369 . S
C1399 C1401 1.431 . S
C1399 H1403 0.930 . S
C1400 C1399 1.369 . S
C1400 C1409 1.429 . S
C1401 C1399 1.431 . S
C1401 C1402 1.356 1_655 S
C1401 H1404 0.924 1_655 S
C1402 C1401 1.356 1_455 S
C1402 C1408 1.428 . S
H1403 C1399 0.930 . S
H1404 C1401 0.924 1_455 S
S1405 N1406 1.613 . S
S1405 N1407 1.610 1_655 S
N1406 S1405 1.613 . S
N1406 C1409 1.350 . S
N1407 S1405 1.610 1_455 S
N1407 C1408 1.351 . S
C1408 C1402 1.428 . S
C1408 N1407 1.351 . S
C1408 C1409 1.434 1_455 S
C1409 C1400 1.429 . S
C1409 N1406 1.350 . S
C1409 C1408 1.434 1_655 S
C1410 C1411 1.369 . S
C1410 C1412 1.419 . S
C1410 H1414 0.930 . S
C1411 C1410 1.369 . S
C1411 C1420 1.429 . S
C1412 C1410 1.419 . S
C1412 C1413 1.363 1_565 S
C1412 H1415 0.929 . S
C1413 C1412 1.363 1_545 S
C1413 C1419 1.428 1_545 S
H1414 C1410 0.930 . S
H1415 C1412 0.929 . S
S1416 N1417 1.613 . S
S1416 N1418 1.610 1_565 S
N1417 S1416 1.613 . S
N1417 C1420 1.350 . S
N1418 S1416 1.610 1_545 S
N1418 C1419 1.351 1_545 S
C1419 C1413 1.428 1_565 S
C1419 N1418 1.351 1_565 S
C1419 C1420 1.434 . S
C1420 C1411 1.429 . S
C1420 N1417 1.350 . S
C1420 C1419 1.434 . S
C1421 C1422 1.360 1_545 S
C1421 C1423 1.442 . S
C1421 H1425 0.916 1_545 S
C1422 C1421 1.360 1_565 S
C1422 C1431 1.429 1_565 S
C1423 C1421 1.442 . S
C1423 C1424 1.363 . S
C1423 H1426 0.929 . S
C1424 C1423 1.363 . S
C1424 C1430 1.428 . S
H1425 C1421 0.916 1_565 S
H1426 C1423 0.929 . S
S1427 N1428 1.613 1_545 S
S1427 N1429 1.610 . S
N1428 S1427 1.613 1_565 S
N1428 C1431 1.350 1_565 S
N1429 S1427 1.610 . S
N1429 C1430 1.351 . S
C1430 C1424 1.428 . S
C1430 N1429 1.351 . S
C1430 C1431 1.434 . S
C1431 C1422 1.429 1_545 S
C1431 N1428 1.350 1_545 S
C1431 C1430 1.434 . S
C1432 C1433 1.369 . S
C1432 C1434 1.419 . S
C1432 H1436 0.930 . S
C1433 C1432 1.369 . S
C1433 C1442 1.429 . S
C1434 C1432 1.419 . S
C1434 C1435 1.363 . S
C1434 H1437 0.929 . S
C1435 C1434 1.363 . S
C1435 C1441 1.428 . S
H1436 C1432 0.930 . S
H1437 C1434 0.929 . S
S1438 N1439 1.613 . S
S1438 N1440 1.610 . S
N1439 S1438 1.613 . S
N1439 C1442 1.350 . S
N1440 S1438 1.610 . S
N1440 C1441 1.351 . S
C1441 C1435 1.428 . S
C1441 N1440 1.351 . S
C1441 C1442 1.434 . S
C1442 C1433 1.429 . S
C1442 N1439 1.350 . S
C1442 C1441 1.434 . S
C1443 C1444 1.369 . S
C1443 C1445 1.419 . S
C1443 H1447 0.930 . S
C1444 C1443 1.369 . S
C1444 C1453 1.429 . S
C1445 C1443 1.419 . S
C1445 C1446 1.363 . S
C1445 H1448 0.929 . S
C1446 C1445 1.363 . S
C1446 C1452 1.428 . S
H1447 C1443 0.930 . S
H1448 C1445 0.929 . S
S1449 N1450 1.613 . S
S1449 N1451 1.610 . S
N1450 S1449 1.613 . S
N1450 C1453 1.350 . S
N1451 S1449 1.610 . S
N1451 C1452 1.351 . S
C1452 C1446 1.428 . S
C1452 N1451 1.351 . S
C1452 C1453 1.434 . S
C1453 C1444 1.429 . S
C1453 N1450 1.350 . S
C1453 C1452 1.434 . S
C1454 C1455 1.369 . S
C1454 C1456 1.419 . S
C1454 H1458 0.930 . S
C1455 C1454 1.369 . S
C1455 C1464 1.429 . S
C1456 C1454 1.419 . S
C1456 C1457 1.363 . S
C1456 H1459 0.929 . S
C1457 C1456 1.363 . S
C1457 C1463 1.428 . S
H1458 C1454 0.930 . S
H1459 C1456 0.929 . S
S1460 N1461 1.613 . S
S1460 N1462 1.610 . S
N1461 S1460 1.613 . S
N1461 C1464 1.350 . S
N1462 S1460 1.610 . S
N1462 C1463 1.351 . S
C1463 C1457 1.428 . S
C1463 N1462 1.351 . S
C1463 C1464 1.434 . S
C1464 C1455 1.429 . S
C1464 N1461 1.350 . S
C1464 C1463 1.434 . S
C1465 C1466 1.369 . S
C1465 C1467 1.419 . S
C1465 H1469 0.930 . S
C1466 C1465 1.369 . S
C1466 C1475 1.429 . S
C1467 C1465 1.419 . S
C1467 C1468 1.363 . S
C1467 H1470 0.929 . S
C1468 C1467 1.363 . S
C1468 C1474 1.428 . S
H1469 C1465 0.930 . S
H1470 C1467 0.929 . S
S1471 N1472 1.613 . S
S1471 N1473 1.610 . S
N1472 S1471 1.613 . S
N1472 C1475 1.350 . S
N1473 S1471 1.610 . S
N1473 C1474 1.351 . S
C1474 C1468 1.428 . S
C1474 N1473 1.351 . S
C1474 C1475 1.434 . S
C1475 C1466 1.429 . S
C1475 N1472 1.350 . S
C1475 C1474 1.434 . S
C1476 C1477 1.369 . S
C1476 C1478 1.419 . S
C1476 H1480 0.930 . S
C1477 C1476 1.369 . S
C1477 C1486 1.429 . S
C1478 C1476 1.419 . S
C1478 C1479 1.363 . S
C1478 H1481 0.929 . S
C1479 C1478 1.363 . S
C1479 C1485 1.428 . S
H1480 C1476 0.930 . S
H1481 C1478 0.929 . S
S1482 N1483 1.613 . S
S1482 N1484 1.610 . S
N1483 S1482 1.613 . S
N1483 C1486 1.350 . S
N1484 S1482 1.610 . S
N1484 C1485 1.351 . S
C1485 C1479 1.428 . S
C1485 N1484 1.351 . S
C1485 C1486 1.434 . S
C1486 C1477 1.429 . S
C1486 N1483 1.350 . S
C1486 C1485 1.434 . S
C1487 C1488 1.369 . S
C1487 C1489 1.419 . S
C1487 H1491 0.930 . S
C1488 C1487 1.369 . S
C1488 C1497 1.429 . S
C1489 C1487 1.419 . S
C1489 C1490 1.363 . S
C1489 H1492 0.929 . S
C1490 C1489 1.363 . S
C1490 C1496 1.428 . S
H1491 C1487 0.930 . S
H1492 C1489 0.929 . S
S1493 N1494 1.613 . S
S1493 N1495 1.610 . S
N1494 S1493 1.613 . S
N1494 C1497 1.350 . S
N1495 S1493 1.610 . S
N1495 C1496 1.351 . S
C1496 C1490 1.428 . S
C1496 N1495 1.351 . S
C1496 C1497 1.434 . S
C1497 C1488 1.429 . S
C1497 N1494 1.350 . S
C1497 C1496 1.434 . S
C1498 C1499 1.369 . S
C1498 C1500 1.419 . S
C1498 H1502 0.930 . S
C1499 C1498 1.369 . S
C1499 C1508 1.429 . S
C1500 C1498 1.419 . S
C1500 C1501 1.363 . S
C1500 H1503 0.929 . S
C1501 C1500 1.363 . S
C1501 C1507 1.428 . S
H1502 C1498 0.930 . S
H1503 C1500 0.929 . S
S1504 N1505 1.613 . S
S1504 N1506 1.610 . S
N1505 S1504 1.613 . S
N1505 C1508 1.350 . S
N1506 S1504 1.610 . S
N1506 C1507 1.351 . S
C1507 C1501 1.428 . S
C1507 N1506 1.351 . S
C1507 C1508 1.434 . S
C1508 C1499 1.429 . S
C1508 N1505 1.350 . S
C1508 C1507 1.434 . S
C1509 C1510 1.369 . S
C1509 C1511 1.419 . S
C1509 H1513 0.930 . S
C1510 C1509 1.369 . S
C1510 C1519 1.429 . S
C1511 C1509 1.419 . S
C1511 C1512 1.363 . S
C1511 H1514 0.929 . S
C1512 C1511 1.363 . S
C1512 C1518 1.428 . S
H1513 C1509 0.930 . S
H1514 C1511 0.929 . S
S1515 N1516 1.613 . S
S1515 N1517 1.610 . S
N1516 S1515 1.613 . S
N1516 C1519 1.350 . S
N1517 S1515 1.610 . S
N1517 C1518 1.351 . S
C1518 C1512 1.428 . S
C1518 N1517 1.351 . S
C1518 C1519 1.434 . S
C1519 C1510 1.429 . S
C1519 N1516 1.350 . S
C1519 C1518 1.434 . S
C1520 C1521 1.369 . S
C1520 C1522 1.419 . S
C1520 H1524 0.930 . S
C1521 C1520 1.369 . S
C1521 C1530 1.429 . S
C1522 C1520 1.419 . S
C1522 C1523 1.363 . S
C1522 H1525 0.929 . S
C1523 C1522 1.363 . S
C1523 C1529 1.428 . S
H1524 C1520 0.930 . S
H1525 C1522 0.929 . S
S1526 N1527 1.613 . S
S1526 N1528 1.610 . S
N1527 S1526 1.613 . S
N1527 C1530 1.350 . S
N1528 S1526 1.610 . S
N1528 C1529 1.351 . S
C1529 C1523 1.428 . S
C1529 N1528 1.351 . S
C1529 C1530 1.434 . S
C1530 C1521 1.429 . S
C1530 N1527 1.350 . S
C1530 C1529 1.434 . S
C1531 C1532 1.369 . S
C1531 C1533 1.419 . S
C1531 H1535 0.930 . S
C1532 C1531 1.369 . S
C1532 C1541 1.429 . S
C1533 C1531 1.419 . S
C1533 C1534 1.363 . S
C1533 H1536 0.929 . S
C1534 C1533 1.363 . S
C1534 C1540 1.428 . S
H1535 C1531 0.930 . S
H1536 C1533 0.929 . S
S1537 N1538 1.613 . S
S1537 N1539 1.610 . S
N1538 S1537 1.613 . S
N1538 C1541 1.350 . S
N1539 S1537 1.610 . S
N1539 C1540 1.351 . S
C1540 C1534 1.428 . S
C1540 N1539 1.351 . S
C1540 C1541 1.434 . S
C1541 C1532 1.429 . S
C1541 N1538 1.350 . S
C1541 C1540 1.434 . S
C1542 C1543 1.369 . S
C1542 C1544 1.419 . S
C1542 H1546 0.930 . S
C1543 C1542 1.369 . S
C1543 C1552 1.429 . S
C1544 C1542 1.419 . S
C1544 C1545 1.363 . S
C1544 H1547 0.929 . S
C1545 C1544 1.363 . S
C1545 C1551 1.428 . S
H1546 C1542 0.930 . S
H1547 C1544 0.929 . S
S1548 N1549 1.613 . S
S1548 N1550 1.610 . S
N1549 S1548 1.613 . S
N1549 C1552 1.350 . S
N1550 S1548 1.610 . S
N1550 C1551 1.351 . S
C1551 C1545 1.428 . S
C1551 N1550 1.351 . S
C1551 C1552 1.434 . S
C1552 C1543 1.429 . S
C1552 N1549 1.350 . S
C1552 C1551 1.434 . S
C1553 C1554 1.369 . S
C1553 C1555 1.419 . S
C1553 H1557 0.930 . S
C1554 C1553 1.369 . S
C1554 C1563 1.429 . S
C1555 C1553 1.419 . S
C1555 C1556 1.363 . S
C1555 H1558 0.929 . S
C1556 C1555 1.363 . S
C1556 C1562 1.428 . S
H1557 C1553 0.930 . S
H1558 C1555 0.929 . S
S1559 N1560 1.613 . S
S1559 N1561 1.610 . S
N1560 S1559 1.613 . S
N1560 C1563 1.350 . S
N1561 S1559 1.610 . S
N1561 C1562 1.351 . S
C1562 C1556 1.428 . S
C1562 N1561 1.351 . S
C1562 C1563 1.434 . S
C1563 C1554 1.429 . S
C1563 N1560 1.350 . S
C1563 C1562 1.434 . S
C1564 C1565 1.369 . S
C1564 C1566 1.419 . S
C1564 H1568 0.930 . S
C1565 C1564 1.369 . S
C1565 C1574 1.429 . S
C1566 C1564 1.419 . S
C1566 C1567 1.363 . S
C1566 H1569 0.929 . S
C1567 C1566 1.363 . S
C1567 C1573 1.428 . S
H1568 C1564 0.930 . S
H1569 C1566 0.929 . S
S1570 N1571 1.613 . S
S1570 N1572 1.610 . S
N1571 S1570 1.613 . S
N1571 C1574 1.350 . S
N1572 S1570 1.610 . S
N1572 C1573 1.351 . S
C1573 C1567 1.428 . S
C1573 N1572 1.351 . S
C1573 C1574 1.434 . S
C1574 C1565 1.429 . S
C1574 N1571 1.350 . S
C1574 C1573 1.434 . S
C1575 C1576 1.369 . S
C1575 C1577 1.419 . S
C1575 H1579 0.930 . S
C1576 C1575 1.369 . S
C1576 C1585 1.429 . S
C1577 C1575 1.419 . S
C1577 C1578 1.363 . S
C1577 H1580 0.929 . S
C1578 C1577 1.363 . S
C1578 C1584 1.428 . S
H1579 C1575 0.930 . S
H1580 C1577 0.929 . S
S1581 N1582 1.613 . S
S1581 N1583 1.610 . S
N1582 S1581 1.613 . S
N1582 C1585 1.350 . S
N1583 S1581 1.610 . S
N1583 C1584 1.351 . S
C1584 C1578 1.428 . S
C1584 N1583 1.351 . S
C1584 C1585 1.434 . S
C1585 C1576 1.429 . S
C1585 N1582 1.350 . S
C1585 C1584 1.434 . S
C1586 C1587 1.369 . S
C1586 C1588 1.419 . S
C1586 H1590 0.930 . S
C1587 C1586 1.369 . S
C1587 C1596 1.429 . S
C1588 C1586 1.419 . S
C1588 C1589 1.363 . S
C1588 H1591 0.929 . S
C1589 C1588 1.363 . S
C1589 C1595 1.428 . S
H1590 C1586 0.930 . S
H1591 C1588 0.929 . S
S1592 N1593 1.613 . S
S1592 N1594 1.610 . S
N1593 S1592 1.613 . S
N1593 C1596 1.350 . S
N1594 S1592 1.610 . S
N1594 C1595 1.351 . S
C1595 C1589 1.428 . S
C1595 N1594 1.351 . S
C1595 C1596 1.434 . S
C1596 C1587 1.429 . S
C1596 N1593 1.350 . S
C1596 C1595 1.434 . S
C1597 C1598 1.369 . S
C1597 C1599 1.419 . S
C1597 H1601 0.930 . S
C1598 C1597 1.369 . S
C1598 C1607 1.429 . S
C1599 C1597 1.419 . S
C1599 C1600 1.363 . S
C1599 H1602 0.929 . S
C1600 C1599 1.363 . S
C1600 C1606 1.428 . S
H1601 C1597 0.930 . S
H1602 C1599 0.929 . S
S1603 N1604 1.613 . S
S1603 N1605 1.610 . S
N1604 S1603 1.613 . S
N1604 C1607 1.350 . S
N1605 S1603 1.610 . S
N1605 C1606 1.351 . S
C1606 C1600 1.428 . S
C1606 N1605 1.351 . S
C1606 C1607 1.434 . S
C1607 C1598 1.429 . S
C1607 N1604 1.350 . S
C1607 C1606 1.434 . S
C1608 C1609 1.369 . S
C1608 C1610 1.419 . S
C1608 H1612 0.930 . S
C1609 C1608 1.369 . S
C1609 C1618 1.429 . S
C1610 C1608 1.419 . S
C1610 C1611 1.363 . S
C1610 H1613 0.929 . S
C1611 C1610 1.363 . S
C1611 C1617 1.428 . S
H1612 C1608 0.930 . S
H1613 C1610 0.929 . S
S1614 N1615 1.613 . S
S1614 N1616 1.610 . S
N1615 S1614 1.613 . S
N1615 C1618 1.350 . S
N1616 S1614 1.610 . S
N1616 C1617 1.351 . S
C1617 C1611 1.428 . S
C1617 N1616 1.351 . S
C1617 C1618 1.434 . S
C1618 C1609 1.429 . S
C1618 N1615 1.350 . S
C1618 C1617 1.434 . S
C1619 C1620 1.369 . S
C1619 C1621 1.419 . S
C1619 H1623 0.930 . S
C1620 C1619 1.369 . S
C1620 C1629 1.429 . S
C1621 C1619 1.419 . S
C1621 C1622 1.363 . S
C1621 H1624 0.929 . S
C1622 C1621 1.363 . S
C1622 C1628 1.428 . S
H1623 C1619 0.930 . S
H1624 C1621 0.929 . S
S1625 N1626 1.613 . S
S1625 N1627 1.610 . S
N1626 S1625 1.613 . S
N1626 C1629 1.350 . S
N1627 S1625 1.610 . S
N1627 C1628 1.351 . S
C1628 C1622 1.428 . S
C1628 N1627 1.351 . S
C1628 C1629 1.434 . S
C1629 C1620 1.429 . S
C1629 N1626 1.350 . S
C1629 C1628 1.434 . S
C1630 C1631 1.369 . S
C1630 C1632 1.419 . S
C1630 H1634 0.930 . S
C1631 C1630 1.369 . S
C1631 C1640 1.429 . S
C1632 C1630 1.419 . S
C1632 C1633 1.363 . S
C1632 H1635 0.929 . S
C1633 C1632 1.363 . S
C1633 C1639 1.428 . S
H1634 C1630 0.930 . S
H1635 C1632 0.929 . S
S1636 N1637 1.613 . S
S1636 N1638 1.610 . S
N1637 S1636 1.613 . S
N1637 C1640 1.350 . S
N1638 S1636 1.610 . S
N1638 C1639 1.351 . S
C1639 C1633 1.428 . S
C1639 N1638 1.351 . S
C1639 C1640 1.434 . S
C1640 C1631 1.429 . S
C1640 N1637 1.350 . S
C1640 C1639 1.434 . S
C1641 C1642 1.369 . S
C1641 C1643 1.419 . S
C1641 H1645 0.930 . S
C1642 C1641 1.369 . S
C1642 C1651 1.429 . S
C1643 C1641 1.419 . S
C1643 C1644 1.363 . S
C1643 H1646 0.929 . S
C1644 C1643 1.363 . S
C1644 C1650 1.428 . S
H1645 C1641 0.930 . S
H1646 C1643 0.929 . S
S1647 N1648 1.613 . S
S1647 N1649 1.610 . S
N1648 S1647 1.613 . S
N1648 C1651 1.350 . S
N1649 S1647 1.610 . S
N1649 C1650 1.351 . S
C1650 C1644 1.428 . S
C1650 N1649 1.351 . S
C1650 C1651 1.434 . S
C1651 C1642 1.429 . S
C1651 N1648 1.350 . S
C1651 C1650 1.434 . S
C1652 C1653 1.369 . S
C1652 C1654 1.419 . S
C1652 H1656 0.930 . S
C1653 C1652 1.369 . S
C1653 C1662 1.429 . S
C1654 C1652 1.419 . S
C1654 C1655 1.363 . S
C1654 H1657 0.929 . S
C1655 C1654 1.363 . S
C1655 C1661 1.428 . S
H1656 C1652 0.930 . S
H1657 C1654 0.929 . S
S1658 N1659 1.613 . S
S1658 N1660 1.610 . S
N1659 S1658 1.613 . S
N1659 C1662 1.350 . S
N1660 S1658 1.610 . S
N1660 C1661 1.351 . S
C1661 C1655 1.428 . S
C1661 N1660 1.351 . S
C1661 C1662 1.434 . S
C1662 C1653 1.429 . S
C1662 N1659 1.350 . S
C1662 C1661 1.434 . S
C1663 C1664 1.369 . S
C1663 C1665 1.419 . S
C1663 H1667 0.930 . S
C1664 C1663 1.369 . S
C1664 C1673 1.429 . S
C1665 C1663 1.419 . S
C1665 C1666 1.363 . S
C1665 H1668 0.929 . S
C1666 C1665 1.363 . S
C1666 C1672 1.428 . S
H1667 C1663 0.930 . S
H1668 C1665 0.929 . S
S1669 N1670 1.613 . S
S1669 N1671 1.610 . S
N1670 S1669 1.613 . S
N1670 C1673 1.350 . S
N1671 S1669 1.610 . S
N1671 C1672 1.351 . S
C1672 C1666 1.428 . S
C1672 N1671 1.351 . S
C1672 C1673 1.434 . S
C1673 C1664 1.429 . S
C1673 N1670 1.350 . S
C1673 C1672 1.434 . S
C1674 C1675 1.369 . S
C1674 C1676 1.419 . S
C1674 H1678 0.930 . S
C1675 C1674 1.369 . S
C1675 C1684 1.429 . S
C1676 C1674 1.419 . S
C1676 C1677 1.363 . S
C1676 H1679 0.929 . S
C1677 C1676 1.363 . S
C1677 C1683 1.428 . S
H1678 C1674 0.930 . S
H1679 C1676 0.929 . S
S1680 N1681 1.613 . S
S1680 N1682 1.610 . S
N1681 S1680 1.613 . S
N1681 C1684 1.350 . S
N1682 S1680 1.610 . S
N1682 C1683 1.351 . S
C1683 C1677 1.428 . S
C1683 N1682 1.351 . S
C1683 C1684 1.434 . S
C1684 C1675 1.429 . S
C1684 N1681 1.350 . S
C1684 C1683 1.434 . S
C1685 C1686 1.369 . S
C1685 C1687 1.419 . S
C1685 H1689 0.930 . S
C1686 C1685 1.369 . S
C1686 C1695 1.429 . S
C1687 C1685 1.419 . S
C1687 C1688 1.363 . S
C1687 H1690 0.929 . S
C1688 C1687 1.363 . S
C1688 C1694 1.428 . S
H1689 C1685 0.930 . S
H1690 C1687 0.929 . S
S1691 N1692 1.613 . S
S1691 N1693 1.610 . S
N1692 S1691 1.613 . S
N1692 C1695 1.350 . S
N1693 S1691 1.610 . S
N1693 C1694 1.351 . S
C1694 C1688 1.428 . S
C1694 N1693 1.351 . S
C1694 C1695 1.434 . S
C1695 C1686 1.429 . S
C1695 N1692 1.350 . S
C1695 C1694 1.434 . S
C641 C333 1.894 . S
C643 C5 1.943 . S
C652 C474 1.738 . S
C654 C28 1.605 . S
C663 C48 2.169 . S
C665 C433 2.139 . S
C674 C68 1.196 . S
C676 C445 1.351 . S
C685 C93 1.900 . S
C687 C345 1.941 . S
C696 C114 1.734 . S
C698 C368 1.607 . S
C707 C388 2.170 . S
C709 C133 2.145 . S
C718 C145 1.347 . S
C720 C408 1.200 . S
C729 C168 2.449 . S
C731 C13 2.450 . S
C740 C25 1.717 . S
C742 C193 1.670 . S
C751 C208 1.526 . S
C753 C45 1.572 . S
C762 C65 1.709 . S
C764 C222 1.703 . S
C773 C88 1.523 . S
C775 C245 1.571 . S
C784 C265 1.710 . S
C786 C102 1.703 . S
C795 C128 2.452 . S
C797 C293 2.451 . S
C806 C305 1.718 . S
C808 C153 1.670 . S
C817 C165 0.724 . S
C819 C325 0.712 . S
C828 C348 2.733 . S
C830 C253 2.703 . S
C839 C373 3.358 . S
C841 C273 3.375 . S
C850 C288 2.732 . S
C852 C393 2.703 . S
C861 C413 3.376 . S
C863 C313 3.358 . S
C872 C425 0.724 . S
C874 C205 0.713 . S
C883 C237 1.387 . S
C885 C448 1.377 . S
C894 C477 1.387 . S
C896 C188 1.377 . S
C905 C634 1.736 . S
C907 C308 1.599 . S
C916 C268 1.184 . S
C918 C605 1.351 . S
C927 C568 1.597 . S
C929 C234 1.737 . S
C938 C588 1.188 . S
C940 C185 1.352 . S
C949 C353 2.453 . S
C951 C488 2.452 . S
C960 C385 1.574 . S
C962 C508 1.531 . S
C971 C525 1.571 . S
C973 C328 1.525 . S
C982 C553 2.454 . S
C984 C428 2.448 . S
C993 C485 0.724 . S
C995 C85 0.711 . S
C1004 C533 2.710 . S
C1006 C8 2.730 . S
C1015 C73 3.374 . S
C1017 C573 3.360 . S
C1026 C548 2.731 . S
C1028 C53 2.703 . S
C1037 C593 3.374 . S
C1039 C33 3.361 . S
C1048 C125 0.724 . S
C1050 C505 0.712 . S
C1059 C608 1.384 . S
C1061 C117 1.395 . S
C1070 C148 1.378 . S
C1072 C637 1.390 . S
C1081 C285 1.942 . S
C1083 C513 1.899 . S
C1092 C248 2.172 . S
C1094 C493 2.144 . S
C1103 C545 1.941 . S
C1105 C213 1.899 . S
C1114 C528 2.169 . S
C1116 C173 2.145 . S
C1125 C365 1.722 . S
C1127 C613 1.666 . S
C1136 C405 1.709 . S
C1138 C622 1.703 . S
C1147 C585 1.710 . S
C1149 C462 1.703 . S
C1158 C453 1.670 . S
C1160 C565 1.717 . S
C1169 C77 2.236 . S
C1171 C14 2.303 . S
C1180 C22 3.078 . S
C1182 C2 3.054 . S
C1191 C37 2.522 . S
C1193 C42 2.674 . S
C1202 C57 2.447 . S
C1204 C62 2.753 . S
C1213 C113 1.545 . S
C1215 C97 1.282 . S
C1224 C134 1.401 . S
C1226 C105 1.376 . S
C1235 C137 2.050 . S
C1237 C142 2.272 . S
C1246 C154 1.099 . S
C1248 C94 1.055 . S
C1257 C162 2.201 . S
C1259 C374 2.109 1_554 S
C1268 C394 2.034 . S
C1270 C197 1.918 . S
C1279 C414 1.636 1_554 S
C1281 C202 1.664 . S
C1290 C228 2.303 . S
C1292 C357 2.376 . S
C1301 C254 2.034 . S
C1303 C457 1.918 . S
C1312 C322 1.665 . S
C1314 C274 1.631 1_554 S
C1323 C468 2.303 . S
C1325 C297 2.376 . S
C1334 C314 2.109 1_554 S
C1336 C422 2.199 . S
C1345 C334 1.052 . S
C1347 C194 1.098 . S
C1356 C342 3.051 . S
C1358 C302 3.082 . S
C1367 C242 2.675 . S
C1369 C377 2.525 . S
C1378 C262 2.750 . S
C1380 C397 2.441 . S
C1389 C417 2.236 . S
C1391 C294 2.303 . S
C1400 C434 1.405 . S
C1402 C225 1.380 . S
C1411 C442 2.271 . S
C1413 C177 2.051 . S
C1422 C217 1.285 . S
C1424 C473 1.539 . S
C1433 C354 2.307 . S
C1435 C277 2.241 . S
C1444 C317 2.517 . S
C1446 C382 2.675 . S
C1455 C337 1.290 . S
C1457 C233 1.543 . S
C1466 C182 2.270 . S
C1468 C437 2.056 . S
C1477 C482 2.198 . S
C1479 C574 2.110 . S
C1488 C54 2.034 . S
C1490 C157 1.918 . S
C1499 C502 1.663 . S
C1501 C594 1.633 . S
C1510 C108 2.301 . S
C1512 C17 2.374 . S
C1521 C617 1.917 . S
C1523 C534 2.034 . S
C1532 C74 1.636 . S
C1534 C82 1.673 . S
C1543 C557 2.377 . S
C1545 C628 2.303 . S
C1554 C122 2.200 . S
C1556 C34 2.109 . S
C1565 C577 2.517 . S
C1567 C522 2.675 . S
C1576 C554 2.302 . S
C1578 C597 2.241 . S
C1587 C497 2.059 . S
C1589 C602 2.272 . S
C1598 C517 1.277 . S
C1600 C633 1.537 . S
C1609 C362 3.079 . S
C1611 C282 3.051 . S
C1620 C402 2.751 . S
C1622 C257 2.441 . S
C1631 C174 1.400 . S
C1633 C465 1.375 . S
C1642 C214 1.064 . S
C1644 C454 1.105 . S
C1653 C614 1.106 . S
C1655 C514 1.062 . S
C1664 C562 3.081 . S
C1666 C542 3.054 . S
C1675 C582 2.750 . S
C1677 C537 2.445 . S
C1686 C494 1.399 . S
C1688 C625 1.375 . S
