# Generated by pormake.
# Topology ukj, (4)-cn, num edge types: 1
# Building blocks:
#     Node 0, Type 0, BuildingBlock: NAWXER_clean_sbu_0, # of connection points: 4
#     Node 1, Type 0, BuildingBlock: NAWXER_clean_sbu_0, # of connection points: 4
#     Node 2, Type 0, BuildingBlock: NAWXER_clean_sbu_0, # of connection points: 4
#     Node 3, Type 0, BuildingBlock: NAWXER_clean_sbu_0, # of connection points: 4
#     Node 4, Type 0, BuildingBlock: NAWXER_clean_sbu_0, # of connection points: 4
#     Node 5, Type 0, BuildingBlock: NAWXER_clean_sbu_0, # of connection points: 4
#     Node 6, Type 0, BuildingBlock: NAWXER_clean_sbu_0, # of connection points: 4
#     Node 7, Type 0, BuildingBlock: NAWXER_clean_sbu_0, # of connection points: 4
#     Node 8, Type 0, BuildingBlock: NAWXER_clean_sbu_0, # of connection points: 4
#     Node 9, Type 0, BuildingBlock: NAWXER_clean_sbu_0, # of connection points: 4
#     Node 10, Type 0, BuildingBlock: NAWXER_clean_sbu_0, # of connection points: 4
#     Node 11, Type 0, BuildingBlock: NAWXER_clean_sbu_0, # of connection points: 4
#     Node 12, Type 0, BuildingBlock: NAWXER_clean_sbu_0, # of connection points: 4
#     Node 13, Type 0, BuildingBlock: NAWXER_clean_sbu_0, # of connection points: 4
#     Node 14, Type 0, BuildingBlock: NAWXER_clean_sbu_0, # of connection points: 4
#     Node 15, Type 0, BuildingBlock: NAWXER_clean_sbu_0, # of connection points: 4
#     Node 16, Type 0, BuildingBlock: NAWXER_clean_sbu_0, # of connection points: 4
#     Node 17, Type 0, BuildingBlock: NAWXER_clean_sbu_0, # of connection points: 4
#     Node 18, Type 0, BuildingBlock: NAWXER_clean_sbu_0, # of connection points: 4
#     Node 19, Type 0, BuildingBlock: NAWXER_clean_sbu_0, # of connection points: 4
#     Node 20, Type 0, BuildingBlock: NAWXER_clean_sbu_0, # of connection points: 4
#     Node 21, Type 0, BuildingBlock: NAWXER_clean_sbu_0, # of connection points: 4
#     Node 22, Type 0, BuildingBlock: NAWXER_clean_sbu_0, # of connection points: 4
#     Node 23, Type 0, BuildingBlock: NAWXER_clean_sbu_0, # of connection points: 4
#     Node 24, Type 0, BuildingBlock: NAWXER_clean_sbu_0, # of connection points: 4
#     Node 25, Type 0, BuildingBlock: NAWXER_clean_sbu_0, # of connection points: 4
#     Node 26, Type 0, BuildingBlock: NAWXER_clean_sbu_0, # of connection points: 4
#     Node 27, Type 0, BuildingBlock: NAWXER_clean_sbu_0, # of connection points: 4
#     Node 28, Type 0, BuildingBlock: NAWXER_clean_sbu_0, # of connection points: 4
#     Node 29, Type 0, BuildingBlock: NAWXER_clean_sbu_0, # of connection points: 4
#     Node 30, Type 0, BuildingBlock: NAWXER_clean_sbu_0, # of connection points: 4
#     Node 31, Type 0, BuildingBlock: NAWXER_clean_sbu_0, # of connection points: 4
#     Edge 32, Type (0, 0), BuildingBlock: EZIPEK_clean_linker_0, # of connection points: 2
#     Edge 33, Type (0, 0), BuildingBlock: EZIPEK_clean_linker_0, # of connection points: 2
#     Edge 34, Type (0, 0), BuildingBlock: EZIPEK_clean_linker_0, # of connection points: 2
#     Edge 35, Type (0, 0), BuildingBlock: EZIPEK_clean_linker_0, # of connection points: 2
#     Edge 36, Type (0, 0), BuildingBlock: EZIPEK_clean_linker_0, # of connection points: 2
#     Edge 37, Type (0, 0), BuildingBlock: EZIPEK_clean_linker_0, # of connection points: 2
#     Edge 38, Type (0, 0), BuildingBlock: EZIPEK_clean_linker_0, # of connection points: 2
#     Edge 39, Type (0, 0), BuildingBlock: EZIPEK_clean_linker_0, # of connection points: 2
#     Edge 40, Type (0, 0), BuildingBlock: EZIPEK_clean_linker_0, # of connection points: 2
#     Edge 41, Type (0, 0), BuildingBlock: EZIPEK_clean_linker_0, # of connection points: 2
#     Edge 42, Type (0, 0), BuildingBlock: EZIPEK_clean_linker_0, # of connection points: 2
#     Edge 43, Type (0, 0), BuildingBlock: EZIPEK_clean_linker_0, # of connection points: 2
#     Edge 44, Type (0, 0), BuildingBlock: EZIPEK_clean_linker_0, # of connection points: 2
#     Edge 45, Type (0, 0), BuildingBlock: EZIPEK_clean_linker_0, # of connection points: 2
#     Edge 46, Type (0, 0), BuildingBlock: EZIPEK_clean_linker_0, # of connection points: 2
#     Edge 47, Type (0, 0), BuildingBlock: EZIPEK_clean_linker_0, # of connection points: 2
#     Edge 48, Type (0, 0), BuildingBlock: EZIPEK_clean_linker_0, # of connection points: 2
#     Edge 49, Type (0, 0), BuildingBlock: EZIPEK_clean_linker_0, # of connection points: 2
#     Edge 50, Type (0, 0), BuildingBlock: EZIPEK_clean_linker_0, # of connection points: 2
#     Edge 51, Type (0, 0), BuildingBlock: EZIPEK_clean_linker_0, # of connection points: 2
#     Edge 52, Type (0, 0), BuildingBlock: EZIPEK_clean_linker_0, # of connection points: 2
#     Edge 53, Type (0, 0), BuildingBlock: EZIPEK_clean_linker_0, # of connection points: 2
#     Edge 54, Type (0, 0), BuildingBlock: EZIPEK_clean_linker_0, # of connection points: 2
#     Edge 55, Type (0, 0), BuildingBlock: EZIPEK_clean_linker_0, # of connection points: 2
#     Edge 56, Type (0, 0), BuildingBlock: EZIPEK_clean_linker_0, # of connection points: 2
#     Edge 57, Type (0, 0), BuildingBlock: EZIPEK_clean_linker_0, # of connection points: 2
#     Edge 58, Type (0, 0), BuildingBlock: EZIPEK_clean_linker_0, # of connection points: 2
#     Edge 59, Type (0, 0), BuildingBlock: EZIPEK_clean_linker_0, # of connection points: 2
#     Edge 60, Type (0, 0), BuildingBlock: EZIPEK_clean_linker_0, # of connection points: 2
#     Edge 61, Type (0, 0), BuildingBlock: EZIPEK_clean_linker_0, # of connection points: 2
#     Edge 62, Type (0, 0), BuildingBlock: EZIPEK_clean_linker_0, # of connection points: 2
#     Edge 63, Type (0, 0), BuildingBlock: EZIPEK_clean_linker_0, # of connection points: 2
#     Edge 64, Type (0, 0), BuildingBlock: EZIPEK_clean_linker_0, # of connection points: 2
#     Edge 65, Type (0, 0), BuildingBlock: EZIPEK_clean_linker_0, # of connection points: 2
#     Edge 66, Type (0, 0), BuildingBlock: EZIPEK_clean_linker_0, # of connection points: 2
#     Edge 67, Type (0, 0), BuildingBlock: EZIPEK_clean_linker_0, # of connection points: 2
#     Edge 68, Type (0, 0), BuildingBlock: EZIPEK_clean_linker_0, # of connection points: 2
#     Edge 69, Type (0, 0), BuildingBlock: EZIPEK_clean_linker_0, # of connection points: 2
#     Edge 70, Type (0, 0), BuildingBlock: EZIPEK_clean_linker_0, # of connection points: 2
#     Edge 71, Type (0, 0), BuildingBlock: EZIPEK_clean_linker_0, # of connection points: 2
#     Edge 72, Type (0, 0), BuildingBlock: EZIPEK_clean_linker_0, # of connection points: 2
#     Edge 73, Type (0, 0), BuildingBlock: EZIPEK_clean_linker_0, # of connection points: 2
#     Edge 74, Type (0, 0), BuildingBlock: EZIPEK_clean_linker_0, # of connection points: 2
#     Edge 75, Type (0, 0), BuildingBlock: EZIPEK_clean_linker_0, # of connection points: 2
#     Edge 76, Type (0, 0), BuildingBlock: EZIPEK_clean_linker_0, # of connection points: 2
#     Edge 77, Type (0, 0), BuildingBlock: EZIPEK_clean_linker_0, # of connection points: 2
#     Edge 78, Type (0, 0), BuildingBlock: EZIPEK_clean_linker_0, # of connection points: 2
#     Edge 79, Type (0, 0), BuildingBlock: EZIPEK_clean_linker_0, # of connection points: 2
#     Edge 80, Type (0, 0), BuildingBlock: EZIPEK_clean_linker_0, # of connection points: 2
#     Edge 81, Type (0, 0), BuildingBlock: EZIPEK_clean_linker_0, # of connection points: 2
#     Edge 82, Type (0, 0), BuildingBlock: EZIPEK_clean_linker_0, # of connection points: 2
#     Edge 83, Type (0, 0), BuildingBlock: EZIPEK_clean_linker_0, # of connection points: 2
#     Edge 84, Type (0, 0), BuildingBlock: EZIPEK_clean_linker_0, # of connection points: 2
#     Edge 85, Type (0, 0), BuildingBlock: EZIPEK_clean_linker_0, # of connection points: 2
#     Edge 86, Type (0, 0), BuildingBlock: EZIPEK_clean_linker_0, # of connection points: 2
#     Edge 87, Type (0, 0), BuildingBlock: EZIPEK_clean_linker_0, # of connection points: 2
#     Edge 88, Type (0, 0), BuildingBlock: EZIPEK_clean_linker_0, # of connection points: 2
#     Edge 89, Type (0, 0), BuildingBlock: EZIPEK_clean_linker_0, # of connection points: 2
#     Edge 90, Type (0, 0), BuildingBlock: EZIPEK_clean_linker_0, # of connection points: 2
#     Edge 91, Type (0, 0), BuildingBlock: EZIPEK_clean_linker_0, # of connection points: 2
#     Edge 92, Type (0, 0), BuildingBlock: EZIPEK_clean_linker_0, # of connection points: 2
#     Edge 93, Type (0, 0), BuildingBlock: EZIPEK_clean_linker_0, # of connection points: 2
#     Edge 94, Type (0, 0), BuildingBlock: EZIPEK_clean_linker_0, # of connection points: 2
#     Edge 95, Type (0, 0), BuildingBlock: EZIPEK_clean_linker_0, # of connection points: 2
# Relax obj value: 0.006
# Max RMSD: 0.183
# Mean RMSD: 0.183
data_MOF--net-ukj--node1-NAWXER_clean_sbu_0--edge1-EZIPEK_clean_linker_0
_symmetry_space_group_name_H-M    P1
_symmetry_Int_Tables_number       1
_symmetry_cell_setting            triclinic
loop_
_symmetry_equiv_pos_as_xyz
'x, y, z'
_cell_length_a     25.064396
_cell_length_b     39.596986
_cell_length_c     42.451518
_cell_angle_alpha  89.944466
_cell_angle_beta   90.102563
_cell_angle_gamma 89.979182
loop_
_atom_site_label
_atom_site_type_symbol
_atom_site_fract_x
_atom_site_fract_y
_atom_site_fract_z
_atom_type_partial_charge
C0 C 0.1538 0.36725 0.30989 0.0
C1 C 0.1467 0.37388 0.19504 0.0
O2 O 0.17165 0.34067 0.29639 0.0
Zn3 Zn 0.18923 0.32422 0.24949 0.0
O4 O 0.13815 0.3919 0.293 0.0
Zn5 Zn 0.15081 0.37184 0.25225 0.0
O6 O 0.09823 0.32856 0.25195 0.0
O7 O 0.14862 0.28286 0.24746 0.0
O8 O 0.12934 0.39558 0.21455 0.0
O9 O 0.16982 0.347 0.20495 0.0
O10 O 0.26683 0.32269 0.24997 0.0
O11 O 0.23576 0.37475 0.2503 0.0
C12 C 0.10275 0.29636 0.24985 0.0
C13 C 0.27533 0.35434 0.25045 0.0
C14 C 0.11858 0.87527 0.30445 0.0
C15 C 0.12591 0.87432 0.19007 0.0
O16 O 0.09882 0.90235 0.29264 0.0
Zn17 Zn 0.08606 0.92299 0.24603 0.0
O18 O 0.13671 0.8523 0.28658 0.0
Zn19 Zn 0.12142 0.8748 0.24744 0.0
O20 O 0.1769 0.91667 0.24895 0.0
O21 O 0.12878 0.96338 0.2468 0.0
O22 O 0.14085 0.85155 0.20919 0.0
O23 O 0.10457 0.90155 0.20052 0.0
O24 O 1.00969 0.92862 0.24519 0.0
O25 O 0.03473 0.87511 0.24694 0.0
C26 C 0.17399 0.94902 0.24856 0.0
C27 C 0.9977 0.89752 0.24632 0.0
C28 C 0.16308 0.89399 0.94135 0.0
C29 C 0.15396 0.88117 0.05575 0.0
O30 O 0.18003 0.92019 0.95594 0.0
Zn31 Zn 0.19619 0.93435 1.00397 0.0
O32 O 0.14879 0.86837 0.9573 0.0
Zn33 Zn 0.16016 0.88645 0.99891 0.0
O34 O 0.10558 0.92883 1.00137 0.0
O35 O 0.15437 0.97504 0.00724 0.0
O36 O 0.13846 0.8602 0.03501 0.0
O37 O 0.17601 0.909 0.04741 0.0
O38 O 0.27358 0.93738 0.00588 0.0
O39 O 0.24525 0.88479 1.00251 0.0
C40 C 0.10897 0.96097 1.00467 0.0
C41 C 0.28361 0.90597 1.00477 0.0
C42 C 0.16654 0.29527 0.00597 0.0
C43 C 0.99215 0.3505 0.0068 0.0
O44 O 0.17022 0.32757 1.00438 0.0
Zn45 Zn 0.11596 0.37015 1.00327 0.0
O46 O 0.12092 0.28136 0.00771 0.0
Zn47 Zn 0.07939 0.32217 0.0061 0.0
O48 O 0.09518 0.33879 0.95908 0.0
O49 O 0.12844 0.39012 0.96243 0.0
O50 O 1.00238 0.31908 0.00681 0.0
O51 O 0.03059 0.37179 0.00633 0.0
O52 O 0.13705 0.39456 0.04056 0.0
O53 O 0.09885 0.34533 0.05064 0.0
C54 C 0.11291 0.36545 0.94562 0.0
C55 C 0.12094 0.37266 0.06029 0.0
C56 C 0.88099 0.63988 0.80991 0.0
C57 C 0.86927 0.63701 0.69534 0.0
O58 O 0.89759 0.61715 0.7913 0.0
Zn59 Zn 0.8743 0.63839 0.75265 0.0
O60 O 0.85694 0.66598 0.79894 0.0
Zn61 Zn 0.83438 0.68497 0.75298 0.0
O62 O 0.75813 0.68799 0.75515 0.0
O63 O 0.78761 0.63538 0.75496 0.0
O64 O 0.84723 0.66354 0.70677 0.0
O65 O 0.89025 0.61539 0.71368 0.0
O66 O 0.92563 0.68247 0.75009 0.0
O67 O 0.87226 0.72687 0.75065 0.0
C68 C 0.74871 0.65653 0.75548 0.0
C69 C 0.919 0.71462 0.74955 0.0
C70 C 0.85949 0.04588 0.75736 0.0
C71 C 0.01825 0.11828 0.75711 0.0
O72 O 0.90806 0.03663 0.75716 0.0
Zn73 Zn 0.93921 0.08153 0.7575 0.0
O74 O 0.84802 0.07744 0.75771 0.0
Zn75 Zn 0.89012 0.12491 0.75767 0.0
O76 O 0.86417 0.14449 0.71909 0.0
O77 O 0.91835 0.10125 0.71166 0.0
O78 O 0.97488 0.13545 0.75579 0.0
O79 O 0.01575 0.08624 0.75846 0.0
O80 O 0.91753 0.09907 0.80333 0.0
O81 O 0.86867 0.145 0.79723 0.0
C82 C 0.88914 0.12505 0.70041 0.0
C83 C 0.8908 0.12348 0.81521 0.0
C84 C 0.86797 0.11505 0.06486 0.0
C85 C 0.87211 0.11931 0.9506 0.0
O86 O 0.88629 0.13835 0.04739 0.0
Zn87 Zn 0.87051 0.11752 0.0074 0.0
O88 O 0.84795 0.08849 0.05242 0.0
Zn89 Zn 0.83056 0.07055 0.00617 0.0
O90 O 0.86979 0.0286 1.00488 0.0
O91 O 0.92185 0.07366 0.00663 0.0
O92 O 0.84872 0.09267 0.96089 0.0
O93 O 0.89132 0.14077 0.96974 0.0
O94 O 0.78492 0.12126 1.00461 0.0
O95 O 0.75341 0.06948 0.00703 0.0
C96 C 0.91622 0.04147 0.00566 0.0
C97 C 0.74499 0.10111 0.00557 0.0
C98 C 0.91184 0.64392 0.94496 0.0
C99 C 0.9183 0.644 0.06018 0.0
O100 O 0.89748 0.62052 0.96362 0.0
Zn101 Zn 0.91612 0.64311 1.00227 0.0
O102 O 0.93217 0.67118 0.95615 0.0
Zn103 Zn 0.95113 0.69153 1.00216 0.0
O104 O 0.0283 0.69535 1.00263 0.0
O105 O 1.00118 0.64253 1.0003 0.0
O106 O 0.93469 0.67183 0.04827 0.0
O107 O 0.90411 0.62026 0.04185 0.0
O108 O 0.86072 0.68532 1.00331 0.0
O109 O 0.90925 0.7321 1.00277 0.0
C110 C 0.03919 0.66405 1.0015 0.0
C111 C 0.86396 0.71769 1.00341 0.0
C112 C 0.10189 0.80461 0.74827 0.0
C113 C 0.27655 0.86093 0.74791 0.0
O114 O 0.09838 0.83685 0.74639 0.0
Zn115 Zn 0.15177 0.87964 0.74749 0.0
O116 O 0.14773 0.79097 0.75037 0.0
Zn117 Zn 0.18978 0.83191 0.74821 0.0
O118 O 0.17579 0.85335 0.79392 0.0
O119 O 0.13315 0.90161 0.78681 0.0
O120 O 0.26694 0.82942 0.7467 0.0
O121 O 0.23753 0.88181 0.74903 0.0
O122 O 0.13586 0.9015 0.70764 0.0
O123 O 0.17076 0.85067 0.702 0.0
C124 C 0.1536 0.87982 0.80525 0.0
C125 C 0.15083 0.8775 0.68982 0.0
C126 C 0.12858 0.37294 0.69521 0.0
C127 C 0.1234 0.3778 0.8097 0.0
O128 O 0.10998 0.40109 0.70536 0.0
Zn129 Zn 0.09384 0.4242 0.75053 0.0
O130 O 0.14286 0.35003 0.71445 0.0
Zn131 Zn 0.1266 0.37505 0.75207 0.0
O132 O 0.04031 0.37707 0.75082 0.0
O133 O 0.01741 0.43098 0.74933 0.0
O134 O 0.1411 0.35418 0.79242 0.0
O135 O 0.10477 0.40472 0.79711 0.0
O136 O 0.14059 0.46311 0.75059 0.0
O137 O 0.18482 0.41512 0.74924 0.0
C138 C 1.00417 0.4 0.74995 0.0
C139 C 0.18486 0.44749 0.74942 0.0
C140 C 0.1477 0.37675 0.56037 0.0
C141 C 0.14945 0.38128 0.44598 0.0
O142 O 0.16557 0.40508 0.55007 0.0
Zn143 Zn 0.18037 0.42823 0.50456 0.0
O144 O 0.1336 0.35389 0.54111 0.0
Zn145 Zn 0.14803 0.37925 0.50351 0.0
O146 O 0.23454 0.3816 0.50422 0.0
O147 O 0.25642 0.43563 0.50572 0.0
O148 O 0.13212 0.35799 0.46376 0.0
O149 O 0.16865 0.40832 0.45803 0.0
O150 O 0.13415 0.46718 0.50464 0.0
O151 O 0.08953 0.41934 0.50671 0.0
C152 C 0.27032 0.40478 0.50527 0.0
C153 C 0.08984 0.45173 0.50624 0.0
C154 C 0.10882 0.86401 0.44034 0.0
C155 C 0.12083 0.87326 0.55485 0.0
O156 O 0.08919 0.83829 0.45452 0.0
Zn157 Zn 0.07354 0.82314 0.50224 0.0
O158 O 0.12669 0.88855 0.45649 0.0
Zn159 Zn 0.11385 0.86989 0.49787 0.0
O160 O 0.16444 0.82566 0.49871 0.0
O161 O 0.11214 0.78107 0.50468 0.0
O162 O 0.13858 0.89408 0.53461 0.0
O163 O 0.09631 0.84653 0.54593 0.0
O164 O 0.9964 0.82263 0.50458 0.0
O165 O 0.02896 0.87433 0.50231 0.0
C166 C 0.15853 0.79363 0.5016 0.0
C167 C 0.98893 0.85436 0.50429 0.0
C168 C 0.86573 0.13656 0.19963 0.0
C169 C 0.86912 0.14169 0.31398 0.0
O170 O 0.88431 0.11468 0.2186 0.0
Zn171 Zn 0.86768 0.13839 0.25714 0.0
O172 O 0.84478 0.1637 0.21028 0.0
Zn173 Zn 0.82639 0.18504 0.255 0.0
O174 O 0.86494 0.22727 0.25329 0.0
O175 O 0.91779 0.18252 0.25475 0.0
O176 O 0.84493 0.16706 0.30171 0.0
O177 O 0.88928 0.11895 0.29656 0.0
O178 O 0.7823 0.13399 0.25978 0.0
O179 O 0.74914 0.18505 0.25369 0.0
C180 C 0.91158 0.21463 0.25346 0.0
C181 C 0.74176 0.1535 0.25721 0.0
C182 C 0.91196 0.61974 0.19516 0.0
C183 C 0.90764 0.61756 0.31001 0.0
O184 O 0.89379 0.642 0.21379 0.0
Zn185 Zn 0.9095 0.61904 0.25295 0.0
O186 O 0.93163 0.59234 0.20625 0.0
Zn187 Zn 0.94378 0.57027 0.25191 0.0
O188 O 0.89826 0.53074 0.2506 0.0
O189 O 0.85269 0.5782 0.25406 0.0
O190 O 0.92695 0.5903 0.29834 0.0
O191 O 0.89289 0.64147 0.292 0.0
O192 O 0.99561 0.61804 0.25382 0.0
O193 O 0.02052 0.56449 0.25259 0.0
C194 C 0.85368 0.54587 0.25281 0.0
C195 C 0.03257 0.59564 0.25341 0.0
C196 C 0.90561 0.54023 0.50648 0.0
C197 C 0.74031 0.60482 0.50014 0.0
O198 O 0.85799 0.52927 0.50595 0.0
Zn199 Zn 0.82377 0.57245 0.50288 0.0
O200 O 0.91457 0.57216 0.50535 0.0
Zn201 Zn 0.86668 0.61802 0.5026 0.0
O202 O 0.88611 0.64067 0.54119 0.0
O203 O 0.83991 0.59381 0.54879 0.0
O204 O 0.78104 0.62434 0.5017 0.0
O205 O 0.74714 0.57306 0.49992 0.0
O206 O 0.84883 0.58883 0.45691 0.0
O207 O 0.88825 0.63809 0.46298 0.0
C208 C 0.86435 0.61971 0.55985 0.0
C209 C 0.87232 0.61456 0.44495 0.0
C210 C 0.01845 0.15107 0.5086 0.0
C211 C 0.8546 0.21924 0.50848 0.0
O212 O 0.01411 0.18302 0.50698 0.0
Zn213 Zn 0.93696 0.18594 0.50784 0.0
O214 O 0.9761 0.13293 0.50964 0.0
Zn215 Zn 0.89096 0.14117 0.50725 0.0
O216 O 0.87147 0.121 0.46733 0.0
O217 O 0.91595 0.16866 0.46179 0.0
O218 O 0.84547 0.18738 0.50783 0.0
O219 O 0.90246 0.22989 0.50864 0.0
O220 O 0.91704 0.16521 0.55348 0.0
O221 O 0.86624 0.12043 0.54551 0.0
C222 C 0.89146 0.1435 0.44957 0.0
C223 C 0.88953 0.14049 0.56443 0.0
C224 C 0.66356 0.36171 0.82081 0.0
C225 C 0.65338 0.37065 0.70624 0.0
O226 O 0.68409 0.33617 0.80684 0.0
Zn227 Zn 0.70044 0.32088 0.75939 0.0
O228 O 0.64565 0.38622 0.80457 0.0
Zn229 Zn 0.66012 0.36782 0.76326 0.0
O230 O 0.60931 0.32385 0.76217 0.0
O231 O 0.66085 0.27879 0.75722 0.0
O232 O 0.63572 0.39171 0.72626 0.0
O233 O 0.67787 0.34397 0.71544 0.0
O234 O 0.77801 0.32081 0.75751 0.0
O235 O 0.74521 0.37242 0.7592 0.0
C236 C 0.61457 0.29175 0.75974 0.0
C237 C 0.78548 0.35257 0.75762 0.0
C238 C 0.6242 0.88359 0.70177 0.0
C239 C 0.61906 0.88737 0.81678 0.0
O240 O 0.60327 0.91088 0.71238 0.0
Zn241 Zn 0.58568 0.93292 0.75766 0.0
O242 O 0.64057 0.86102 0.72082 0.0
Zn243 Zn 0.62159 0.88458 0.75894 0.0
O244 O 0.53604 0.88368 0.756 0.0
O245 O 0.50854 0.93647 0.75762 0.0
O246 O 0.63454 0.86321 0.79936 0.0
O247 O 0.60151 0.9145 0.80403 0.0
O248 O 0.62814 0.97347 0.75695 0.0
O249 O 0.67669 0.92679 0.75847 0.0
C250 C 0.49779 0.90513 0.75646 0.0
C251 C 0.67353 0.95914 0.75762 0.0
C252 C 0.6434 0.88313 0.56664 0.0
C253 C 0.654 0.88655 0.45197 0.0
O254 O 0.66673 0.90995 0.55675 0.0
Zn255 Zn 0.68679 0.93198 0.51167 0.0
O256 O 0.62554 0.86162 0.54713 0.0
Zn257 Zn 0.64686 0.88542 0.50955 0.0
O258 O 0.73399 0.88293 0.51137 0.0
O259 O 0.76273 0.93576 0.51424 0.0
O260 O 0.62937 0.86561 0.46933 0.0
O261 O 0.6776 0.91169 0.46491 0.0
O262 O 0.64635 0.97343 0.51032 0.0
O263 O 0.59465 0.92847 0.50992 0.0
C264 C 0.77248 0.90432 0.5131 0.0
C265 C 0.59996 0.96064 0.50977 0.0
C266 C 0.61899 0.37501 0.57151 0.0
C267 C 0.61518 0.37885 0.45638 0.0
O268 O 0.59796 0.3486 0.55929 0.0
Zn269 Zn 0.57759 0.33066 0.51327 0.0
O270 O 0.63408 0.39903 0.55376 0.0
Zn271 Zn 0.6164 0.37829 0.51364 0.0
O272 O 0.53068 0.38111 0.51189 0.0
O273 O 0.50013 0.32901 0.51442 0.0
O274 O 0.63516 0.40085 0.47476 0.0
O275 O 0.59293 0.35234 0.46769 0.0
O276 O 0.61872 0.28927 0.51098 0.0
O277 O 0.66897 0.33515 0.51229 0.0
C278 C 0.49119 0.36057 0.51272 0.0
C279 C 0.66467 0.3029 0.51122 0.0
C280 C 0.37647 0.63208 0.30765 0.0
C281 C 0.37488 0.63477 0.19319 0.0
O282 O 0.39653 0.61076 0.28874 0.0
Zn283 Zn 0.37545 0.6335 0.25057 0.0
O284 O 0.35155 0.65798 0.29695 0.0
Zn285 Zn 0.33214 0.6791 0.25146 0.0
O286 O 0.2553 0.6794 0.25207 0.0
O287 O 0.28923 0.62787 0.25092 0.0
O288 O 0.34925 0.65982 0.20497 0.0
O289 O 0.39705 0.61357 0.21146 0.0
O290 O 0.42373 0.67848 0.25165 0.0
O291 O 0.36907 0.72214 0.25257 0.0
C292 C 0.24858 0.64762 0.25161 0.0
C293 C 0.4163 0.71051 0.25231 0.0
C294 C 0.36201 0.03362 0.25434 0.0
C295 C 0.52444 0.10165 0.25947 0.0
O296 O 0.40999 0.02327 0.25495 0.0
Zn297 Zn 0.44297 0.06729 0.2574 0.0
O298 O 0.35208 0.0654 0.2552 0.0
Zn299 Zn 0.3972 0.11192 0.25716 0.0
O300 O 0.37635 0.13338 0.21827 0.0
O301 O 0.42694 0.08834 0.21125 0.0
O302 O 0.48252 0.12016 0.25768 0.0
O303 O 0.51952 0.06973 0.26037 0.0
O304 O 0.41795 0.08407 0.30318 0.0
O305 O 0.37392 0.13176 0.29646 0.0
C306 C 0.40087 0.11346 0.19982 0.0
C307 C 0.39229 0.10915 0.31475 0.0
C308 C 0.3598 0.12496 0.56378 0.0
C309 C 0.35765 0.11585 0.44948 0.0
O310 O 0.37794 0.14585 0.54377 0.0
Zn311 Zn 0.35868 0.12086 0.50639 0.0
O312 O 0.33841 0.09735 0.55448 0.0
Zn313 Zn 0.3232 0.07267 0.51044 0.0
O314 O 0.36768 0.03286 0.51397 0.0
O315 O 0.41432 0.07933 0.5067 0.0
O316 O 0.33836 0.08949 0.46285 0.0
O317 O 0.37361 0.14063 0.46598 0.0
O318 O 0.27249 0.12099 0.50786 0.0
O319 O 0.24651 0.06775 0.51102 0.0
C320 C 0.41261 0.04722 0.5103 0.0
C321 C 0.23505 0.09899 0.5096 0.0
C322 C 0.39922 0.63542 0.55742 0.0
C323 C 0.3931 0.63405 0.44289 0.0
O324 O 0.38152 0.61225 0.53957 0.0
Zn325 Zn 0.39544 0.63437 0.49985 0.0
O326 O 0.41784 0.66256 0.54533 0.0
Zn327 Zn 0.43414 0.68177 0.49937 0.0
O328 O 0.39396 0.72324 0.49923 0.0
O329 O 0.34293 0.67768 0.50031 0.0
O330 O 0.4161 0.6606 0.45367 0.0
O331 O 0.37457 0.61198 0.46167 0.0
O332 O 0.48108 0.63167 0.49715 0.0
O333 O 0.51128 0.68374 0.50034 0.0
C334 C 0.34786 0.70993 0.49998 0.0
C335 C 0.52047 0.65222 0.4986 0.0
C336 C 0.659 0.86799 0.31579 0.0
C337 C 0.65165 0.87114 0.20149 0.0
O338 O 0.68157 0.84196 0.30365 0.0
Zn339 Zn 0.69378 0.82195 0.25678 0.0
O340 O 0.63726 0.88965 0.29784 0.0
Zn341 Zn 0.65457 0.8688 0.25837 0.0
O342 O 0.60207 0.82563 0.25736 0.0
O343 O 0.65333 0.78034 0.25636 0.0
O344 O 0.63398 0.89275 0.22093 0.0
O345 O 0.67463 0.84421 0.21151 0.0
O346 O 0.77022 0.8184 0.25467 0.0
O347 O 0.74127 0.87116 0.25628 0.0
C348 C 0.60709 0.7934 0.25668 0.0
C349 C 0.77989 0.84988 0.25481 0.0
C350 C 0.61316 0.38961 0.32054 0.0
C351 C 0.62166 0.38474 0.20631 0.0
O352 O 0.59152 0.41561 0.30779 0.0
Zn353 Zn 0.57783 0.43401 0.2607 0.0
O354 O 0.63254 0.36646 0.30336 0.0
Zn355 Zn 0.61668 0.38691 0.26319 0.0
O356 O 0.66911 0.43042 0.26248 0.0
O357 O 0.61739 0.47555 0.25994 0.0
O358 O 0.63862 0.36299 0.22591 0.0
O359 O 0.59892 0.4118 0.21601 0.0
O360 O 0.50142 0.43714 0.25809 0.0
O361 O 0.53041 0.38444 0.25979 0.0
C362 C 0.66371 0.46261 0.26108 0.0
C363 C 0.49181 0.40568 0.25798 0.0
C364 C 0.64622 0.38141 0.07093 0.0
C365 C 0.64953 0.37376 0.95618 0.0
O366 O 0.66516 0.40795 0.0578 0.0
Zn367 Zn 0.68501 0.42453 0.01132 0.0
O368 O 0.63195 0.35663 0.05388 0.0
Zn369 Zn 0.64758 0.37662 0.01329 0.0
O370 O 0.73323 0.37478 0.0125 0.0
O371 O 0.76203 0.42738 0.01293 0.0
O372 O 0.62985 0.35235 0.97522 0.0
O373 O 0.67109 0.4009 0.96653 0.0
O374 O 0.64367 0.46533 0.00746 0.0
O375 O 0.5939 0.41929 0.0105 0.0
C376 C 0.77192 0.39589 0.013 0.0
C377 C 0.59793 0.4515 0.00822 0.0
C378 C 0.62909 0.87511 0.06673 0.0
C379 C 0.62285 0.87349 0.95258 0.0
O380 O 0.60595 0.84844 0.05633 0.0
Zn381 Zn 0.58645 0.82718 0.01093 0.0
O382 O 0.64623 0.89724 0.04765 0.0
Zn383 Zn 0.62514 0.87439 0.00962 0.0
O384 O 0.5386 0.87659 0.01052 0.0
O385 O 0.50989 0.82381 0.01188 0.0
O386 O 0.64218 0.8961 0.97043 0.0
O387 O 0.60098 0.84711 0.9644 0.0
O388 O 0.62643 0.78564 0.01052 0.0
O389 O 0.67756 0.83108 0.00885 0.0
C390 C 0.50008 0.85524 0.01129 0.0
C391 C 0.6725 0.79886 0.0092 0.0
C392 C 0.23604 0.16818 0.75692 0.0
C393 C 0.41621 0.21664 0.75849 0.0
O394 O 0.249 0.19922 0.75717 0.0
Zn395 Zn 0.32614 0.19343 0.75815 0.0
O396 O 0.27266 0.14566 0.75752 0.0
Zn397 Zn 0.35785 0.144 0.7562 0.0
O398 O 0.37517 0.11933 0.79397 0.0
O399 O 0.34193 0.17017 0.80317 0.0
O400 O 0.41644 0.18427 0.75691 0.0
O401 O 0.37217 0.23253 0.76003 0.0
O402 O 0.34235 0.1755 0.71148 0.0
O403 O 0.36906 0.12278 0.71599 0.0
C404 C 0.36066 0.14203 0.81328 0.0
C405 C 0.35699 0.1478 0.6986 0.0
C406 C 0.4054 0.6126 0.80662 0.0
C407 C 0.40868 0.61254 0.69215 0.0
O408 O 0.38383 0.63384 0.78811 0.0
Zn409 Zn 0.40716 0.61316 0.74964 0.0
O410 O 0.4315 0.58741 0.79555 0.0
Zn411 Zn 0.45219 0.56804 0.74975 0.0
O412 O 0.5294 0.57028 0.74959 0.0
O413 O 0.492 0.62058 0.75223 0.0
O414 O 0.43173 0.58654 0.70388 0.0
O415 O 0.38907 0.63475 0.71033 0.0
O416 O 0.36077 0.56709 0.7486 0.0
O417 O 0.41791 0.52452 0.74961 0.0
C418 C 0.53401 0.60217 0.75141 0.0
C419 C 0.37009 0.53521 0.74869 0.0
C420 C 0.38078 0.61899 0.05713 0.0
C421 C 0.38384 0.61534 0.94213 0.0
O422 O 0.40683 0.63813 0.03865 0.0
Zn423 Zn 0.38284 0.61785 0.99983 0.0
O424 O 0.35231 0.59499 0.04567 0.0
Zn425 Zn 0.3337 0.5744 0.9999 0.0
O426 O 0.36462 0.52963 1.00153 0.0
O427 O 0.42479 0.57038 1.0014 0.0
O428 O 0.35703 0.59106 0.95418 0.0
O429 O 0.40529 0.63721 0.96001 0.0
O430 O 0.29817 0.62823 1.00067 0.0
O431 O 0.25741 0.57898 0.99784 0.0
C432 C 0.41317 0.53885 1.00209 0.0
C433 C 0.25493 0.61101 0.99902 0.0
C434 C 0.40325 0.13447 0.06379 0.0
C435 C 0.39459 0.13794 0.94814 0.0
O436 O 0.37813 0.11458 0.04551 0.0
Zn437 Zn 0.3988 0.13497 0.00585 0.0
O438 O 0.42929 0.15916 0.05178 0.0
Zn439 Zn 0.4415 0.18102 0.00594 0.0
O440 O 0.4033 0.22359 0.00899 0.0
O441 O 0.34978 0.1794 0.00657 0.0
O442 O 0.41783 0.1637 0.96017 0.0
O443 O 0.37822 0.11438 0.96608 0.0
O444 O 0.48474 0.12942 0.00555 0.0
O445 O 0.51824 0.18086 1.00266 0.0
C446 C 0.35636 0.21142 0.00822 0.0
C447 C 0.52531 0.14906 1.00361 0.0
C448 C 0.18531 0.38145 0.14124 0.0
C449 C 0.13957 0.37868 0.16071 0.0
C450 C 0.0819 0.37978 0.11401 0.0
C451 C 0.12778 0.378 0.09457 0.0
N452 N 0.22338 0.3732 0.08938 0.0
N453 N 0.04445 0.37106 0.16596 0.0
C454 C 0.17966 0.37814 0.10805 0.0
C455 C 0.08776 0.37707 0.14724 0.0
N456 N 0.23404 0.38773 0.15454 0.0
N457 N 0.03278 0.38463 0.10067 0.0
H458 H 0.04692 0.3689 0.1904 0.0
H459 H 1.00665 0.36557 0.15714 0.0
H460 H 0.02717 0.38702 0.07641 0.0
H461 H 0.9984 0.38941 0.11367 0.0
H462 H 0.26806 0.39333 0.1415 0.0
H463 H 0.2395 0.3904 0.17879 0.0
H464 H 0.26158 0.36903 0.09824 0.0
H465 H 0.22104 0.37061 0.06497 0.0
C466 C 0.0946 0.87344 0.10285 0.0
C467 C 0.14662 0.87407 0.08973 0.0
C468 C 0.18593 0.87117 0.14265 0.0
C469 C 0.13381 0.87012 0.15568 0.0
N470 N 0.04004 0.86005 0.14827 0.0
N471 N 0.24122 0.86563 0.09602 0.0
C472 C 0.08855 0.86812 0.13575 0.0
C473 C 0.19218 0.87046 0.10934 0.0
N474 N 0.05112 0.8796 0.08422 0.0
N475 N 0.22929 0.87421 0.16202 0.0
H476 H 0.2469 0.86454 0.07169 0.0
H477 H 0.27537 0.85966 0.10886 0.0
H478 H 0.22658 0.87378 0.18652 0.0
H479 H 0.26763 0.87933 0.15391 0.0
H480 H 0.01291 0.88339 0.09316 0.0
H481 H 0.05374 0.88359 0.05999 0.0
H482 H 1.00627 0.85522 0.13467 0.0
H483 H 0.03516 0.85459 0.17214 0.0
C484 C 0.85127 0.62449 0.86432 0.0
C485 C 0.89135 0.63733 0.84418 0.0
C486 C 0.94874 0.64764 0.88995 0.0
C487 C 0.9053 0.64009 0.91029 0.0
N488 N 0.81137 0.62728 0.91601 0.0
N489 N 0.97667 0.66451 0.83759 0.0
C490 C 0.85551 0.62988 0.89731 0.0
C491 C 0.93972 0.64988 0.85692 0.0
N492 N 0.80967 0.60659 0.85199 0.0
N493 N 0.99905 0.65116 0.90198 0.0
H494 H 0.9722 0.66567 0.81317 0.0
H495 H 1.00982 0.67758 0.84601 0.0
H496 H 1.00781 0.64782 0.92581 0.0
H497 H 0.0329 0.65367 0.88797 0.0
H498 H 0.78163 0.59409 0.86584 0.0
H499 H 0.80671 0.60125 0.82798 0.0
H500 H 0.77319 0.6232 0.90704 0.0
H501 H 0.81167 0.63277 0.94002 0.0
C502 C 0.83061 0.12752 0.89758 0.0
C503 C 0.8773 0.1243 0.91626 0.0
C504 C 0.9327 0.1265 0.86885 0.0
C505 C 0.8858 0.12585 0.84995 0.0
N506 N 0.78995 0.12043 0.84625 0.0
N507 N 0.97265 0.11689 0.92007 0.0
C508 C 0.8346 0.12524 0.86426 0.0
C509 C 0.92839 0.12308 0.90205 0.0
N510 N 0.78253 0.13343 0.91174 0.0
N511 N 0.98145 0.13106 0.85512 0.0
H512 H 0.97154 0.11466 0.94453 0.0
H513 H 1.00998 0.11132 0.91069 0.0
H514 H 0.98665 0.13252 0.83087 0.0
H515 H 0.01622 0.13601 0.86775 0.0
H516 H 0.74794 0.13949 0.89934 0.0
H517 H 0.7782 0.13541 0.93611 0.0
H518 H 0.75236 0.11576 0.8557 0.0
H519 H 0.7909 0.11798 0.82182 0.0
C520 C 0.09296 0.886 0.64174 0.0
C521 C 0.14415 0.87955 0.655 0.0
C522 C 0.18039 0.86965 0.602 0.0
C523 C 0.13032 0.87845 0.58886 0.0
N524 N 0.04138 0.90034 0.59513 0.0
N525 N 0.23866 0.87037 0.64743 0.0
C526 C 0.08742 0.88843 0.60844 0.0
C527 C 0.18848 0.87289 0.63501 0.0
N528 N 0.04897 0.88742 0.66071 0.0
N529 N 0.21954 0.85666 0.58313 0.0
H530 H 0.24643 0.87152 0.67146 0.0
H531 H 0.27315 0.86975 0.6338 0.0
H532 H 0.21569 0.85461 0.55873 0.0
H533 H 0.25428 0.84559 0.5918 0.0
H534 H 1.01006 0.88831 0.65211 0.0
H535 H 0.05061 0.88438 0.68508 0.0
H536 H 1.01065 0.91131 0.60805 0.0
H537 H 0.03583 0.90196 0.5708 0.0
C538 C 0.19042 0.37578 0.61368 0.0
C539 C 0.14422 0.37102 0.59481 0.0
C540 C 0.09242 0.35798 0.64221 0.0
C541 C 0.13607 0.3684 0.66101 0.0
N542 N 0.22596 0.38965 0.66518 0.0
N543 N 0.04907 0.3615 0.59135 0.0
C544 C 0.18506 0.37783 0.64692 0.0
C545 C 0.09463 0.36275 0.60906 0.0
N546 N 0.2396 0.37711 0.59988 0.0
N547 N 0.04913 0.34325 0.65606 0.0
H548 H 0.04845 0.36577 0.56712 0.0
H549 H 0.01114 0.35923 0.6011 0.0
H550 H 0.04694 0.33907 0.68031 0.0
H551 H 0.01806 0.33229 0.64335 0.0
H552 H 0.27516 0.37753 0.6126 0.0
H553 H 0.2451 0.37418 0.57568 0.0
H554 H 0.26017 0.40077 0.6559 0.0
H555 H 0.22421 0.39035 0.68972 0.0
C556 C 0.92581 0.14681 0.36216 0.0
C557 C 0.87537 0.14004 0.34851 0.0
C558 C 0.83457 0.13793 0.40088 0.0
C559 C 0.88595 0.14146 0.41477 0.0
N560 N 0.9818 0.14441 0.40846 0.0
N561 N 0.78314 0.1241 0.35419 0.0
C562 C 0.93196 0.14455 0.39535 0.0
C563 C 0.83015 0.13403 0.36769 0.0
N564 N 0.96736 0.15693 0.34354 0.0
N565 N 0.78977 0.14044 0.41908 0.0
H566 H 0.77834 0.12134 0.3299 0.0
H567 H 0.75038 0.11582 0.36713 0.0
H568 H 0.79089 0.14461 0.44331 0.0
H569 H 0.75136 0.14182 0.40979 0.0
H570 H 1.00313 0.16632 0.35246 0.0
H571 H 0.96467 0.15869 0.31907 0.0
H572 H 0.0167 0.14224 0.39533 0.0
H573 H 0.98853 0.14377 0.43262 0.0
C574 C 0.84841 0.60692 0.35625 0.0
C575 C 0.89736 0.61928 0.34426 0.0
C576 C 0.9317 0.62568 0.39797 0.0
C577 C 0.88086 0.61648 0.41021 0.0
N578 N 0.78756 0.60433 0.40015 0.0
N579 N 0.98192 0.64641 0.35312 0.0
C580 C 0.8383 0.60868 0.38912 0.0
C581 C 0.9378 0.63066 0.36497 0.0
N582 N 0.81184 0.59274 0.3363 0.0
N583 N 0.97508 0.62745 0.41747 0.0
H584 H 0.98745 0.65036 0.32903 0.0
H585 H 1.01037 0.65824 0.36721 0.0
H586 H 0.97344 0.62183 0.44144 0.0
H587 H 0.01389 0.63077 0.4093 0.0
H588 H 0.77877 0.57919 0.34408 0.0
H589 H 0.81647 0.59235 0.3119 0.0
H590 H 0.75424 0.60279 0.38553 0.0
H591 H 0.77761 0.60523 0.42388 0.0
C592 C 0.67898 0.38195 0.61884 0.0
C593 C 0.62706 0.37648 0.60624 0.0
C594 C 0.59245 0.36702 0.65969 0.0
C595 C 0.64321 0.37529 0.67221 0.0
N596 N 0.7328 0.3956 0.6647 0.0
N597 N 0.53259 0.36856 0.61501 0.0
C598 C 0.68582 0.3844 0.65205 0.0
C599 C 0.58328 0.37038 0.62679 0.0
N600 N 0.72231 0.38246 0.5993 0.0
N601 N 0.55367 0.35439 0.67905 0.0
H602 H 0.524 0.36989 0.59108 0.0
H603 H 0.4986 0.36835 0.62909 0.0
H604 H 0.55837 0.35212 0.70338 0.0
H605 H 0.51835 0.34371 0.67079 0.0
H606 H 0.76154 0.38258 0.60742 0.0
H607 H 0.7196 0.37937 0.57498 0.0
H608 H 0.76348 0.40597 0.65131 0.0
H609 H 0.73933 0.39722 0.68894 0.0
C610 C 0.67826 0.87265 0.65277 0.0
C611 C 0.62808 0.8787 0.6672 0.0
C612 C 0.58664 0.88553 0.61517 0.0
C613 C 0.63631 0.87808 0.60089 0.0
N614 N 0.72487 0.85518 0.60553 0.0
N615 N 0.53228 0.88186 0.66219 0.0
C616 C 0.68073 0.86863 0.61955 0.0
C617 C 0.5815 0.88241 0.64838 0.0
N618 N 0.72397 0.87275 0.67038 0.0
N619 N 0.5449 0.89668 0.59718 0.0
H620 H 0.52698 0.87826 0.68633 0.0
H621 H 0.49672 0.88143 0.64946 0.0
H622 H 0.54679 0.89853 0.57269 0.0
H623 H 0.50978 0.9063 0.6067 0.0
H624 H 0.76196 0.87215 0.66047 0.0
H625 H 0.72435 0.87655 0.69467 0.0
H626 H 0.75669 0.84494 0.61815 0.0
H627 H 0.72705 0.85114 0.58127 0.0
C628 C 0.33445 0.62543 0.36057 0.0
C629 C 0.38147 0.62754 0.34215 0.0
C630 C 0.43587 0.62644 0.3902 0.0
C631 C 0.38872 0.62937 0.40844 0.0
N632 N 0.29302 0.63563 0.41115 0.0
N633 N 0.47734 0.63274 0.33903 0.0
C634 C 0.33786 0.62964 0.39373 0.0
C635 C 0.43242 0.6284 0.35681 0.0
N636 N 0.28671 0.61848 0.34637 0.0
N637 N 0.4838 0.62104 0.40483 0.0
H638 H 0.47682 0.63395 0.31451 0.0
H639 H 0.51479 0.63771 0.34862 0.0
H640 H 0.48773 0.61926 0.42924 0.0
H641 H 0.5188 0.61526 0.39281 0.0
H642 H 0.25181 0.61347 0.3588 0.0
H643 H 0.28318 0.61433 0.32218 0.0
H644 H 0.25565 0.64001 0.40118 0.0
H645 H 0.29374 0.63903 0.43551 0.0
C646 C 0.41845 0.10887 0.40343 0.0
C647 C 0.36656 0.11553 0.41509 0.0
C648 C 0.33068 0.11431 0.36133 0.0
C649 C 0.38342 0.11114 0.34935 0.0
N650 N 0.47854 0.10903 0.35901 0.0
N651 N 0.27409 0.12862 0.40574 0.0
C652 C 0.42759 0.10932 0.37041 0.0
C653 C 0.32288 0.11947 0.39419 0.0
N654 N 0.45871 0.10072 0.4239 0.0
N655 N 0.28792 0.11034 0.34162 0.0
H656 H 0.26687 0.13203 0.42973 0.0
H657 H 0.24199 0.13545 0.39148 0.0
H658 H 0.29177 0.10515 0.31766 0.0
H659 H 0.24867 0.1088 0.34947 0.0
H660 H 0.49554 0.09132 0.41674 0.0
H661 H 0.45409 0.10072 0.44831 0.0
H662 H 0.51218 0.11244 0.37308 0.0
H663 H 0.48749 0.10769 0.33516 0.0
C664 C 0.59473 0.87903 0.15323 0.0
C665 C 0.6461 0.87677 0.16718 0.0
C666 C 0.68743 0.8763 0.11489 0.0
C667 C 0.63612 0.87948 0.10107 0.0
N668 N 0.5436 0.89426 0.10687 0.0
N669 N 0.74136 0.88271 0.16195 0.0
C670 C 0.59052 0.88405 0.12021 0.0
C671 C 0.69256 0.87826 0.14818 0.0
N672 N 0.54997 0.87472 0.17114 0.0
N673 N 0.73094 0.87018 0.09639 0.0
H674 H 0.74613 0.88545 0.18624 0.0
H675 H 0.77618 0.88712 0.14924 0.0
H676 H 0.72903 0.86931 0.07186 0.0
H677 H 0.76818 0.8636 0.10544 0.0
H678 H 0.5119 0.87232 0.16152 0.0
H679 H 0.55115 0.87066 0.1954 0.0
H680 H 0.51013 0.90101 0.11995 0.0
H681 H 0.54019 0.89949 0.08285 0.0
C682 C 0.59441 0.3672 0.12028 0.0
C683 C 0.6415 0.38007 0.10592 0.0
C684 C 0.67574 0.39601 0.15812 0.0
C685 C 0.63102 0.38039 0.17225 0.0
N686 N 0.55451 0.34404 0.16755 0.0
N687 N 0.73259 0.39967 0.11248 0.0
C688 C 0.59264 0.36355 0.15356 0.0
C689 C 0.68382 0.39251 0.12519 0.0
N690 N 0.54991 0.3608 0.10261 0.0
N691 N 0.71015 0.41473 0.17603 0.0
H692 H 0.74135 0.39693 0.0887 0.0
H693 H 0.76616 0.40516 0.12604 0.0
H694 H 0.70712 0.41661 0.20047 0.0
H695 H 0.73941 0.4303 0.1664 0.0
H696 H 0.5132 0.35453 0.11249 0.0
H697 H 0.54763 0.36557 0.07851 0.0
H698 H 0.52848 0.32864 0.15488 0.0
H699 H 0.55236 0.34081 0.19192 0.0
C700 C 0.42102 0.14594 0.85991 0.0
C701 C 0.37025 0.13777 0.84739 0.0
C702 C 0.33448 0.13091 0.90073 0.0
C703 C 0.38637 0.13652 0.91338 0.0
N704 N 0.48094 0.14442 0.90447 0.0
N705 N 0.28077 0.11733 0.85477 0.0
C706 C 0.43017 0.14264 0.8928 0.0
C707 C 0.32767 0.12852 0.8675 0.0
N708 N 0.46007 0.15812 0.84048 0.0
N709 N 0.2911 0.13028 0.92023 0.0
H710 H 0.27424 0.11597 0.83052 0.0
H711 H 0.25015 0.10677 0.86809 0.0
H712 H 0.29368 0.13356 0.94453 0.0
H713 H 0.25189 0.12989 0.91209 0.0
H714 H 0.49535 0.1689 0.84867 0.0
H715 H 0.45572 0.15983 0.81609 0.0
H716 H 0.51487 0.14432 0.89035 0.0
H717 H 0.48978 0.14343 0.92836 0.0
C718 C 0.44533 0.62107 0.8601 0.0
C719 C 0.39946 0.61604 0.84108 0.0
C720 C 0.34301 0.61585 0.88805 0.0
C721 C 0.38943 0.61725 0.90736 0.0
N722 N 0.48554 0.61463 0.91164 0.0
N723 N 0.30576 0.60292 0.8368 0.0
C724 C 0.4409 0.61832 0.89339 0.0
C725 C 0.34852 0.61206 0.85497 0.0
N726 N 0.49298 0.6291 0.84636 0.0
N727 N 0.29351 0.61893 0.90117 0.0
H728 H 0.308 0.59972 0.81246 0.0
H729 H 0.26913 0.59562 0.84614 0.0
H730 H 0.28733 0.62104 0.9253 0.0
H731 H 0.25881 0.62225 0.88799 0.0
H732 H 0.52655 0.63646 0.85911 0.0
H733 H 0.49764 0.63144 0.82204 0.0
H734 H 0.52363 0.61139 0.90234 0.0
H735 H 0.48428 0.61146 0.936 0.0
C736 C 0.98911 0.23887 0.22382 0.0
C737 C 0.95932 0.23662 0.25218 0.0
C738 C 0.02602 0.27131 0.27954 0.0
C739 C 0.05408 0.27518 0.25073 0.0
N740 N 0.05903 0.26738 0.19453 0.0
N741 N 0.94542 0.25289 0.30624 0.0
C742 C 0.03484 0.26015 0.2226 0.0
C743 C 0.97653 0.25362 0.2798 0.0
N744 N 0.97393 0.22035 0.19813 0.0
N745 N 0.04783 0.28348 0.30684 0.0
H746 H 0.91025 0.23891 0.30778 0.0
H747 H 0.9524 0.26769 0.32606 0.0
H748 H 0.08388 0.29661 0.30751 0.0
H749 H 0.0326 0.27855 0.32915 0.0
H750 H 0.99735 0.21751 0.17808 0.0
H751 H 0.939 0.20606 0.19748 0.0
H752 H 0.04357 0.26042 0.17271 0.0
H753 H 0.09282 0.28265 0.19277 0.0
C754 C 0.26046 0.9689 0.22514 0.0
C755 C 0.22345 0.96953 0.25047 0.0
C756 C 0.28185 0.00802 0.28004 0.0
C757 C 0.3169 0.00934 0.25383 0.0
N758 N 0.3409 0.99185 0.20138 0.0
N759 N 0.1969 0.98978 0.30166 0.0
C760 C 0.30696 0.98962 0.2265 0.0
C761 C 0.23359 0.98917 0.27783 0.0
N762 N 0.25066 0.9487 0.19965 0.0
N763 N 0.29612 0.02367 0.30755 0.0
H764 H 0.1632 0.97435 0.30208 0.0
H765 H 0.19821 0.00655 0.32049 0.0
H766 H 0.3317 0.03703 0.31018 0.0
H767 H 0.27529 0.02142 0.3286 0.0
H768 H 0.27821 0.94371 0.18197 0.0
H769 H 0.21486 0.93575 0.19647 0.0
H770 H 0.33344 0.98149 0.17932 0.0
H771 H 0.37651 0.00541 0.20207 0.0
C772 C 0.02806 0.98282 0.03264 0.0
C773 C 0.05961 0.98151 0.00494 0.0
C774 C 0.99685 0.01916 0.97764 0.0
C775 C 0.9643 0.01963 0.00501 0.0
N776 N 0.94491 0.99978 0.05746 0.0
N777 N 0.07167 0.99401 0.94987 0.0
C778 C 0.97865 1.00068 0.03217 0.0
C779 C 0.04346 0.99859 0.97711 0.0
N780 N 0.0464 0.96786 0.05966 0.0
N781 N 0.98315 0.03853 0.95218 0.0
H782 H 0.10641 0.97954 0.94873 0.0
H783 H 0.05916 1.00256 0.92789 0.0
H784 H 0.94721 0.05172 0.95067 0.0
H785 H 1.00814 0.04287 0.93306 0.0
H786 H 0.02844 0.97046 0.08159 0.0
H787 H 0.08204 0.95428 0.06069 0.0
H788 H 0.94972 0.9837 0.07665 0.0
H789 H 0.90987 0.01392 0.05864 0.0
C790 C 0.27182 0.23239 0.03332 0.0
C791 C 0.30882 0.23388 0.008 0.0
C792 C 0.25157 0.27514 0.9806 0.0
C793 C 0.21568 0.27433 0.00653 0.0
N794 N 0.19693 0.25819 0.06014 0.0
N795 N 0.3317 0.25281 0.95577 0.0
C796 C 0.2271 0.25446 0.03352 0.0
C797 C 0.29849 0.25463 0.9813 0.0
N798 N 0.27848 0.20912 0.05684 0.0
N799 N 0.24055 0.29554 0.95535 0.0
H800 H 0.36563 0.2376 0.95514 0.0
H801 H 0.32485 0.26476 0.93434 0.0
H802 H 0.20463 0.30851 0.95272 0.0
H803 H 0.26709 0.30067 0.93719 0.0
H804 H 0.24956 0.2038 0.0737 0.0
H805 H 0.31115 0.19299 0.05822 0.0
H806 H 0.2069 0.24761 0.08182 0.0
H807 H 0.16436 0.27452 0.06156 0.0
C808 C 1.00218 0.73637 0.72314 0.0
C809 C 0.96575 0.73757 0.74866 0.0
C810 C 0.01157 0.78733 0.76955 0.0
C811 C 0.05286 0.78322 0.74687 0.0
N812 N 0.08759 0.75343 0.70163 0.0
N813 N 0.94267 0.75959 0.7998 0.0
C814 C 0.04839 0.75739 0.72368 0.0
C815 C 0.97235 0.76177 0.77287 0.0
N816 N 0.99108 0.71657 0.69758 0.0
N817 N 1.00833 0.8159 0.78743 0.0
H818 H 0.91451 0.74064 0.80365 0.0
H819 H 0.95009 0.77434 0.81965 0.0
H820 H 0.03403 0.83629 0.7851 0.0
H821 H 0.97601 0.82115 0.80205 0.0
H822 H 0.01304 0.71705 0.6768 0.0
H823 H 0.9568 0.70176 0.69597 0.0
H824 H 0.09034 0.73242 0.68699 0.0
H825 H 0.11866 0.77062 0.69861 0.0
C826 C 0.75669 0.98052 0.73132 0.0
C827 C 0.723 0.9797 0.75817 0.0
C828 C 0.78124 0.02016 0.78536 0.0
C829 C 0.81543 0.02074 0.75865 0.0
N830 N 0.84127 0.9975 0.70841 0.0
N831 N 0.70761 0.99316 0.81271 0.0
C832 C 0.80502 0.99951 0.73237 0.0
C833 C 0.73646 0.99803 0.78574 0.0
N834 N 0.74116 0.96436 0.70434 0.0
N835 N 0.79163 0.04089 0.81039 0.0
H836 H 0.67465 0.97712 0.81387 0.0
H837 H 0.71843 0.0028 0.8346 0.0
H838 H 0.82667 0.0549 0.81247 0.0
H839 H 0.7648 0.0453 0.82861 0.0
H840 H 0.76049 0.96693 0.6828 0.0
H841 H 0.70635 0.95003 0.70277 0.0
H842 H 0.83908 0.97991 0.69026 0.0
H843 H 0.87604 0.01188 0.70768 0.0
C844 C 0.75344 0.77406 0.03507 0.0
C845 C 0.72065 0.77725 0.00792 0.0
C846 C 0.78318 0.74254 0.97739 0.0
C847 C 0.81466 0.73817 1.00491 0.0
N848 N 0.82713 0.7452 0.06081 0.0
N849 N 0.70034 0.76263 0.9541 0.0
C850 C 0.79917 0.75278 0.034 0.0
C851 C 0.7343 0.76081 0.97933 0.0
N852 N 0.74095 0.79162 0.0618 0.0
N853 N 0.80108 0.73016 0.94923 0.0
H854 H 0.66561 0.77714 0.95414 0.0
H855 H 0.70467 0.7484 0.93368 0.0
H856 H 0.83623 0.71623 0.94709 0.0
H857 H 0.7833 0.73532 0.9276 0.0
H858 H 0.76634 0.79386 0.0811 0.0
H859 H 0.70595 0.80564 0.06417 0.0
H860 H 0.81484 0.75187 0.08336 0.0
H861 H 0.86112 0.72998 0.06086 0.0
C862 C 0.31818 0.48706 0.77191 0.0
C863 C 0.32485 0.51106 0.74748 0.0
C864 C 0.24167 0.49157 0.72268 0.0
C865 C 0.23593 0.46677 0.74675 0.0
N866 N 0.27924 0.43411 0.78788 0.0
N867 N 0.2999 0.53138 0.69597 0.0
C868 C 0.27745 0.46227 0.76932 0.0
C869 C 0.28844 0.51206 0.72183 0.0
N870 N 0.34897 0.48889 0.79849 0.0
N871 N 0.20289 0.49512 0.70023 0.0
H872 H 0.33443 0.54593 0.69415 0.0
H873 H 0.27793 0.5308 0.67515 0.0
H874 H 0.17168 0.47796 0.69744 0.0
H875 H 0.20072 0.5156 0.68488 0.0
H876 H 0.34155 0.47457 0.81861 0.0
H877 H 0.37857 0.50707 0.80175 0.0
H878 H 0.31148 0.42837 0.80245 0.0
H879 H 0.2522 0.41436 0.78614 0.0
C880 C 0.98699 0.51684 0.53349 0.0
C881 C 0.95093 0.51615 0.5077 0.0
C882 C 0.99821 0.46739 0.4857 0.0
C883 C 0.03913 0.47134 0.50869 0.0
N884 N 0.07212 0.49937 0.55535 0.0
N885 N 0.92703 0.49448 0.4565 0.0
C886 C 0.03346 0.49607 0.53279 0.0
C887 C 0.95763 0.49231 0.48315 0.0
N888 N 0.97546 0.53617 0.55929 0.0
N889 N 0.9971 0.4397 0.46654 0.0
H890 H 0.89751 0.51274 0.45331 0.0
H891 H 0.93446 0.48036 0.43629 0.0
H892 H 0.02476 0.42022 0.46777 0.0
H893 H 0.96516 0.43412 0.4517 0.0
H894 H 0.99715 0.53542 0.5802 0.0
H895 H 0.94112 0.55095 0.56089 0.0
H896 H 0.07428 0.51974 0.57079 0.0
H897 H 0.10332 0.48218 0.55807 0.0
C898 C 0.26836 0.73349 0.52833 0.0
C899 C 0.29948 0.73145 0.50045 0.0
C900 C 0.23527 0.7677 0.47262 0.0
C901 C 0.20619 0.77153 0.50107 0.0
N902 N 0.19864 0.76276 0.55706 0.0
N903 N 0.31614 0.74848 0.44679 0.0
C904 C 0.22352 0.75554 0.52921 0.0
C905 C 0.28406 0.74924 0.47282 0.0
N906 N 0.2816 0.71424 0.55395 0.0
N907 N 0.21504 0.78065 0.44518 0.0
H908 H 0.3504 0.73361 0.44532 0.0
H909 H 0.31075 0.76397 0.42723 0.0
H910 H 0.17944 0.79426 0.44414 0.0
H911 H 0.23104 0.77588 0.42303 0.0
H912 H 0.25703 0.71131 0.57351 0.0
H913 H 0.31595 0.69941 0.55502 0.0
H914 H 0.21294 0.75512 0.57897 0.0
H915 H 0.16567 0.77876 0.55864 0.0
C916 C 0.76206 0.5293 0.23326 0.0
C917 C 0.80327 0.52623 0.25615 0.0
C918 C 0.74864 0.48485 0.28497 0.0
C919 C 0.71157 0.48458 0.25966 0.0
N920 N 0.68833 0.5018 0.20687 0.0
N921 N 0.8362 0.50093 0.30423 0.0
C922 C 0.71967 0.50555 0.23305 0.0
C923 C 0.79681 0.50374 0.28205 0.0
N924 N 0.7623 0.55533 0.21215 0.0
N925 N 0.73646 0.46846 0.31241 0.0
H926 H 0.86935 0.51681 0.30497 0.0
H927 H 0.83714 0.48197 0.32123 0.0
H928 H 0.70088 0.45527 0.31563 0.0
H929 H 0.75905 0.47035 0.33293 0.0
H930 H 0.73055 0.56043 0.19699 0.0
H931 H 0.79103 0.57422 0.21218 0.0
H932 H 0.69639 0.51372 0.18551 0.0
H933 H 0.65747 0.4842 0.20541 0.0
C934 C 0.72715 0.26425 0.48229 0.0
C935 C 0.71375 0.28192 0.51024 0.0
C936 C 0.79786 0.26355 0.53482 0.0
C937 C 0.80862 0.24306 0.5081 0.0
N938 N 0.78329 0.22265 0.45664 0.0
N939 N 0.73252 0.29587 0.56438 0.0
C940 C 0.77307 0.24302 0.48193 0.0
C941 C 0.7483 0.28111 0.53678 0.0
N942 N 0.69731 0.26904 0.45563 0.0
N943 N 0.83496 0.2663 0.55834 0.0
H944 H 0.69648 0.30878 0.56678 0.0
H945 H 0.7528 0.29314 0.58564 0.0
H946 H 0.87073 0.25291 0.5585 0.0
H947 H 0.8323 0.28367 0.57665 0.0
H948 H 0.7081 0.26003 0.43352 0.0
H949 H 0.6635 0.2844 0.45499 0.0
H950 H 0.75572 0.21779 0.43884 0.0
H951 H 0.81889 0.20933 0.45396 0.0
C952 C 0.48724 0.24844 0.7878 0.0
C953 C 0.46761 0.23527 0.75891 0.0
C954 C 0.54671 0.25666 0.73106 0.0
C955 C 0.56603 0.27026 0.75985 0.0
N956 N 0.55448 0.28165 0.81517 0.0
N957 N 0.48075 0.2222 0.70403 0.0
C958 C 0.53627 0.26673 0.78814 0.0
C959 C 0.49806 0.238 0.73082 0.0
N960 N 0.46011 0.24196 0.81511 0.0
N961 N 0.57335 0.2634 0.70364 0.0
H962 H 0.4441 0.20985 0.70246 0.0
H963 H 0.50367 0.21954 0.68378 0.0
H964 H 0.60935 0.27658 0.70291 0.0
H965 H 0.55854 0.25795 0.68132 0.0
H966 H 0.47447 0.24748 0.83751 0.0
H967 H 0.42397 0.22891 0.81569 0.0
H968 H 0.5323 0.28389 0.83574 0.0
H969 H 0.5917 0.2933 0.8168 0.0
C970 C 0.4661 0.99988 0.48624 0.0
C971 C 0.46249 0.02669 0.50846 0.0
C972 C 0.54652 0.00815 0.53272 0.0
C973 C 0.55205 0.9828 0.50942 0.0
N974 N 0.52173 0.95797 0.46065 0.0
N975 N 0.50813 0.06187 0.54672 0.0
C976 C 0.51293 0.97944 0.48533 0.0
C977 C 0.50542 0.03263 0.52974 0.0
N978 N 0.42523 0.99434 0.4655 0.0
N979 N 0.57883 0.0079 0.55872 0.0
H980 H 0.4804 0.08124 0.54488 0.0
H981 H 0.5414 0.06863 0.56004 0.0
H982 H 0.60816 0.98965 0.56254 0.0
H983 H 0.57262 0.02348 0.57814 0.0
H984 H 0.42168 0.9725 0.45202 0.0
H985 H 0.3936 0.01112 0.46238 0.0
H986 H 0.49813 0.95727 0.44047 0.0
H987 H 0.55518 0.9425 0.45901 0.0
C988 C 0.52404 0.77393 0.22904 0.0
C989 C 0.5587 0.77173 0.25549 0.0
C990 C 0.49875 0.73044 0.28036 0.0
C991 C 0.4633 0.73339 0.25428 0.0
N992 N 0.43808 0.76075 0.20565 0.0
N993 N 0.57897 0.74978 0.3071 0.0
C994 C 0.4746 0.75614 0.22925 0.0
C995 C 0.54621 0.75027 0.28128 0.0
N996 N 0.53996 0.79157 0.20295 0.0
N997 N 0.48656 0.70873 0.3044 0.0
H998 H 0.61536 0.76242 0.30795 0.0
H999 H 0.56983 0.73801 0.32831 0.0
H1000 H 0.44964 0.69681 0.30638 0.0
H1001 H 0.5129 0.70184 0.32222 0.0
H1002 H 0.51961 0.79149 0.18157 0.0
H1003 H 0.57634 0.80426 0.20163 0.0
H1004 H 0.44071 0.77977 0.1888 0.0
H1005 H 0.40285 0.74694 0.20389 0.0
C1006 C 0.51409 0.47456 0.03229 0.0
C1007 C 0.54899 0.47239 0.00606 0.0
C1008 C 0.49283 0.51213 0.97649 0.0
C1009 C 0.45709 0.51367 1.00242 0.0
N1010 N 0.42798 0.49191 0.05269 0.0
N1011 N 0.56658 0.48314 0.95119 0.0
C1012 C 0.46579 0.49332 0.02954 0.0
C1013 C 0.53703 0.48958 0.97759 0.0
N1014 N 0.52842 0.46003 0.06032 0.0
N1015 N 0.48454 0.53232 0.95077 0.0
H1016 H 0.59894 0.46656 0.95104 0.0
H1017 H 0.5566 0.49192 0.92882 0.0
H1018 H 0.45017 0.54681 0.94768 0.0
H1019 H 0.51267 0.53592 0.93308 0.0
H1020 H 0.508 0.46386 0.08134 0.0
H1021 H 0.56341 0.44611 0.06328 0.0
H1022 H 0.42916 0.47481 0.07131 0.0
H1023 H 0.39298 0.50609 0.05216 0.0
C1024 C 0.11275 0.39445 0.3923 0.0
C1025 C 0.14981 0.37678 0.41138 0.0
C1026 C 0.19302 0.35471 0.36404 0.0
C1027 C 0.15175 0.36913 0.34501 0.0
N1028 N 0.06297 0.39328 0.34365 0.0
N1029 N 0.21912 0.33473 0.41576 0.0
C1030 C 0.10884 0.38634 0.35986 0.0
C1031 C 0.18768 0.35497 0.39737 0.0
N1032 N 0.08163 0.41927 0.40488 0.0
N1033 N 0.239 0.34265 0.35088 0.0
H1034 H 0.2182 0.33517 0.44031 0.0
H1035 H 0.24303 0.3156 0.40657 0.0
H1036 H 0.24699 0.34276 0.3269 0.0
H1037 H 0.2722 0.33571 0.3642 0.0
H1038 H 0.05724 0.43483 0.39122 0.0
H1039 H 0.08469 0.42667 0.42832 0.0
H1040 H 0.02914 0.40334 0.35438 0.0
H1041 H 0.05611 0.38495 0.32072 0.0
C1042 C 0.07194 0.8557 0.35302 0.0
C1043 C 0.11757 0.87028 0.3389 0.0
C1044 C 0.16066 0.87448 0.39053 0.0
C1045 C 0.11217 0.86456 0.40526 0.0
N1046 N 0.01892 0.84899 0.39999 0.0
N1047 N 0.20315 0.89743 0.34393 0.0
C1048 C 0.06713 0.85575 0.38638 0.0
C1049 C 0.1613 0.88086 0.35758 0.0
N1050 N 0.03344 0.84132 0.33452 0.0
N1051 N 0.20687 0.87589 0.40764 0.0
H1052 H 0.20565 0.90171 0.31972 0.0
H1053 H 0.23322 0.90916 0.35688 0.0
H1054 H 0.20898 0.86921 0.43138 0.0
H1055 H 0.24418 0.87988 0.39752 0.0
H1056 H 1.00223 0.82685 0.34345 0.0
H1057 H 0.03503 0.84142 0.30996 0.0
H1058 H 0.98349 0.8471 0.38726 0.0
H1059 H 0.01294 0.84773 0.42415 0.0
C1060 C 0.19246 0.90766 0.85318 0.0
C1061 C 0.15451 0.88538 0.83978 0.0
C1062 C 0.11578 0.87609 0.89184 0.0
C1063 C 0.15891 0.89364 0.90616 0.0
N1064 N 0.24413 0.92216 0.89921 0.0
N1065 N 0.08868 0.84181 0.84774 0.0
C1066 C 0.1987 0.90872 0.88655 0.0
C1067 C 0.11877 0.86758 0.8595 0.0
N1068 N 0.22328 0.92745 0.83408 0.0
N1069 N 0.07069 0.86889 0.90859 0.0
H1070 H 0.09243 0.8335 0.82462 0.0
H1071 H 0.06515 0.82629 0.86189 0.0
H1072 H 0.06457 0.8774 0.93154 0.0
H1073 H 0.03671 0.85844 0.89828 0.0
H1074 H 0.24713 0.94699 0.84257 0.0
H1075 H 0.2219 0.92614 0.80956 0.0
H1076 H 0.27678 0.92944 0.88565 0.0
H1077 H 0.2521 0.92339 0.92317 0.0
C1078 C 0.16128 0.38828 0.8635 0.0
C1079 C 0.12119 0.37378 0.8443 0.0
C1080 C 0.07263 0.3559 0.89147 0.0
C1081 C 0.11603 0.36712 0.91061 0.0
N1082 N 0.20827 0.38496 0.91307 0.0
N1083 N 0.04204 0.33963 0.8394 0.0
C1084 C 0.16231 0.38076 0.89614 0.0
C1085 C 0.07807 0.35609 0.85812 0.0
N1086 N 0.19762 0.41001 0.85081 0.0
N1087 N 0.0251 0.34687 0.90479 0.0
H1088 H 0.04322 0.34052 0.81485 0.0
H1089 H 0.01342 0.32305 0.84818 0.0
H1090 H 0.01821 0.34664 0.92891 0.0
H1091 H 0.99054 0.34254 0.89174 0.0
H1092 H 0.2248 0.42366 0.86436 0.0
H1093 H 0.19637 0.41717 0.82724 0.0
H1094 H 0.24431 0.392 0.90277 0.0
H1095 H 0.21217 0.37749 0.93652 0.0
C1096 C 0.91733 0.63091 0.6436 0.0
C1097 C 0.86878 0.63146 0.66078 0.0
C1098 C 0.81798 0.62848 0.61144 0.0
C1099 C 0.86635 0.62501 0.59443 0.0
N1100 N 0.96192 0.61748 0.59453 0.0
N1101 N 0.77343 0.62354 0.66181 0.0
C1102 C 0.91608 0.62482 0.61054 0.0
C1103 C 0.8192 0.62824 0.6449 0.0
N1104 N 0.96453 0.63731 0.65864 0.0
N1105 N 0.77101 0.6333 0.59563 0.0
H1106 H 0.773 0.62219 0.68635 0.0
H1107 H 0.73684 0.61763 0.65155 0.0
H1108 H 0.76867 0.63452 0.57112 0.0
H1109 H 0.73528 0.63938 0.60676 0.0
H1110 H 1.00036 0.64133 0.64684 0.0
H1111 H 0.96732 0.64118 0.68288 0.0
H1112 H 0.99839 0.61302 0.60556 0.0
H1113 H 0.96284 0.61309 0.57032 0.0
C1114 C 0.88052 0.10029 0.64609 0.0
C1115 C 0.88467 0.12928 0.66565 0.0
C1116 C 0.87791 0.16483 0.61866 0.0
C1117 C 0.88482 0.13605 0.59914 0.0
N1118 N 0.90445 0.07619 0.59592 0.0
N1119 N 0.89928 0.18971 0.66892 0.0
C1120 C 0.88924 0.10361 0.61323 0.0
C1121 C 0.88653 0.16181 0.65156 0.0
N1122 N 0.86632 0.06978 0.65856 0.0
N1123 N 0.8612 0.1948 0.6061 0.0
H1124 H 0.90981 0.18867 0.69265 0.0
H1125 H 0.9055 0.21335 0.65873 0.0
H1126 H 0.85029 0.19733 0.5825 0.0
H1127 H 0.85171 0.21571 0.61991 0.0
H1128 H 0.85881 0.04859 0.64469 0.0
H1129 H 0.85542 0.06683 0.68209 0.0
H1130 H 0.91259 0.05279 0.60613 0.0
H1131 H 0.91497 0.07759 0.57223 0.0
C1132 C 0.81779 0.12849 0.14832 0.0
C1133 C 0.86671 0.13062 0.16519 0.0
C1134 C 0.91683 0.12159 0.11618 0.0
C1135 C 0.86779 0.119 0.09955 0.0
N1136 N 0.77184 0.11215 0.10072 0.0
N1137 N 0.96264 0.13481 0.16518 0.0
C1138 C 0.81839 0.12015 0.11587 0.0
C1139 C 0.91631 0.12837 0.14916 0.0
N1140 N 0.77055 0.13588 0.16289 0.0
N1141 N 0.96371 0.11563 0.10065 0.0
H1142 H 0.96375 0.14023 0.1892 0.0
H1143 H 0.99974 0.13738 0.15453 0.0
H1144 H 0.96543 0.10999 0.07668 0.0
H1145 H 1.00065 0.11357 0.11168 0.0
H1146 H 0.73474 0.13949 0.15088 0.0
H1147 H 0.76722 0.14147 0.1867 0.0
H1148 H 0.7359 0.10788 0.11232 0.0
H1149 H 0.76928 0.10672 0.07683 0.0
C1150 C 0.87321 0.62107 0.10865 0.0
C1151 C 0.91608 0.63952 0.09513 0.0
C1152 C 0.95268 0.64854 0.14837 0.0
C1153 C 0.91388 0.62623 0.16079 0.0
N1154 N 0.84626 0.58423 0.15104 0.0
N1155 N 1.00316 0.66552 0.10271 0.0
C1156 C 0.87696 0.61027 0.14041 0.0
C1157 C 0.95754 0.65209 0.11512 0.0
N1158 N 0.82756 0.61531 0.09185 0.0
N1159 N 0.98556 0.66602 0.16826 0.0
H1160 H 1.01027 0.66825 0.07876 0.0
H1161 H 0.03676 0.67106 0.11622 0.0
H1162 H 0.9857 0.66254 0.19262 0.0
H1163 H 1.01003 0.68571 0.16076 0.0
H1164 H 0.79368 0.60439 0.10177 0.0
H1165 H 0.82097 0.62529 0.06945 0.0
H1166 H 0.82177 0.56996 0.1363 0.0
H1167 H 0.8504 0.57437 0.17363 0.0
C1168 C 0.60589 0.37396 0.903 0.0
C1169 C 0.65104 0.36695 0.92201 0.0
C1170 C 0.70484 0.35603 0.87496 0.0
C1171 C 0.65906 0.36191 0.85577 0.0
N1172 N 0.56323 0.3672 0.85217 0.0
N1173 N 0.74023 0.34504 0.92724 0.0
C1174 C 0.60871 0.36826 0.86998 0.0
C1175 C 0.69951 0.35601 0.9083 0.0
N1176 N 0.56081 0.38705 0.91636 0.0
N1177 N 0.75394 0.35195 0.86153 0.0
H1178 H 0.73785 0.34497 0.95177 0.0
H1179 H 0.77448 0.33327 0.91879 0.0
H1180 H 0.75999 0.35037 0.83737 0.0
H1181 H 0.7895 0.35237 0.87424 0.0
H1182 H 0.52894 0.39648 0.90326 0.0
H1183 H 0.55685 0.39074 0.94058 0.0
H1184 H 0.52504 0.36828 0.86176 0.0
H1185 H 0.56329 0.36163 0.82817 0.0
C1186 C 0.66644 0.866 0.9 0.0
C1187 C 0.6231 0.87814 0.91811 0.0
C1188 C 0.57537 0.89405 0.87002 0.0
C1189 C 0.62066 0.88449 0.85177 0.0
N1190 N 0.71408 0.86927 0.85058 0.0
N1191 N 0.54089 0.90943 0.92134 0.0
C1192 C 0.66755 0.87252 0.86706 0.0
C1193 C 0.57902 0.89397 0.9034 0.0
N1194 N 0.70627 0.84792 0.9142 0.0
N1195 N 0.52791 0.90161 0.85574 0.0
H1196 H 0.54161 0.90933 0.94592 0.0
H1197 H 0.51103 0.92474 0.91194 0.0
H1198 H 0.52253 0.90214 0.83147 0.0
H1199 H 0.49225 0.90445 0.86802 0.0
H1200 H 0.73569 0.83512 0.90167 0.0
H1201 H 0.70754 0.84353 0.93844 0.0
H1202 H 0.75058 0.86381 0.86119 0.0
H1203 H 0.71762 0.87564 0.82684 0.0
C1204 C 0.65732 0.91033 0.39635 0.0
C1205 C 0.65611 0.88193 0.41702 0.0
C1206 C 0.64868 0.84502 0.37097 0.0
C1207 C 0.65838 0.87277 0.35061 0.0
N1208 N 0.68802 0.93072 0.34595 0.0
N1209 N 0.66865 0.82134 0.42189 0.0
C1210 C 0.66755 0.90514 0.36384 0.0
C1211 C 0.65708 0.84893 0.40379 0.0
N1212 N 0.64625 0.94212 0.40696 0.0
N1213 N 0.62908 0.81535 0.35944 0.0
H1214 H 0.68072 0.82305 0.44534 0.0
H1215 H 0.67333 0.79727 0.41234 0.0
H1216 H 0.61761 0.81251 0.33601 0.0
H1217 H 0.61777 0.79536 0.37399 0.0
H1218 H 0.64244 0.96275 0.39183 0.0
H1219 H 0.63426 0.9474 0.42987 0.0
H1220 H 0.69946 0.95385 0.35555 0.0
H1221 H 0.69975 0.9275 0.32259 0.0
C1222 C 0.56637 0.38659 0.40553 0.0
C1223 C 0.61565 0.3837 0.42181 0.0
C1224 C 0.66393 0.38681 0.37166 0.0
C1225 C 0.61443 0.38656 0.35532 0.0
N1226 N 0.51893 0.37941 0.35624 0.0
N1227 N 0.71102 0.37571 0.42056 0.0
C1228 C 0.56569 0.38466 0.37213 0.0
C1229 C 0.66446 0.38248 0.40496 0.0
N1230 N 0.52032 0.39214 0.42197 0.0
N1231 N 0.71031 0.39216 0.35551 0.0
H1232 H 0.71307 0.3725 0.44493 0.0
H1233 H 0.7469 0.37062 0.40918 0.0
H1234 H 0.71173 0.39479 0.33108 0.0
H1235 H 0.74684 0.39658 0.36648 0.0
H1236 H 0.48398 0.39783 0.41128 0.0
H1237 H 0.51936 0.39425 0.44645 0.0
H1238 H 0.48278 0.3744 0.36736 0.0
H1239 H 0.51716 0.37669 0.33182 0.0
C1240 C 0.37395 0.59842 0.14432 0.0
C1241 C 0.37873 0.63081 0.15838 0.0
C1242 C 0.38062 0.65627 0.10573 0.0
C1243 C 0.38314 0.62362 0.09193 0.0
N1244 N 0.39995 0.56407 0.10007 0.0
N1245 N 0.40339 0.68948 0.15147 0.0
C1246 C 0.38521 0.59477 0.11181 0.0
C1247 C 0.38709 0.65949 0.13883 0.0
N1248 N 0.35615 0.57137 0.1613 0.0
N1249 N 0.36945 0.68409 0.08785 0.0
H1250 H 0.41285 0.69228 0.17524 0.0
H1251 H 0.41398 0.71021 0.13767 0.0
H1252 H 0.3607 0.68291 0.06388 0.0
H1253 H 0.36273 0.70783 0.09768 0.0
H1254 H 0.3481 0.54802 0.15098 0.0
H1255 H 0.34314 0.57322 0.18453 0.0
H1256 H 0.40578 0.54294 0.11435 0.0
H1257 H 0.41306 0.56089 0.07697 0.0
C1258 C 0.41147 0.15168 0.15264 0.0
C1259 C 0.40032 0.11926 0.16516 0.0
C1260 C 0.40083 0.09617 0.11168 0.0
C1261 C 0.40282 0.12936 0.0988 0.0
N1262 N 0.39688 0.18975 0.10929 0.0
N1263 N 0.37019 0.06233 0.15537 0.0
C1264 C 0.40441 0.15749 0.11986 0.0
C1265 C 0.39072 0.09197 0.14432 0.0
N1266 N 0.43102 0.1767 0.17157 0.0
N1267 N 0.41165 0.0686 0.09347 0.0
H1268 H 0.35872 0.05915 0.17877 0.0
H1269 H 0.35857 0.04266 0.14054 0.0
H1270 H 0.42493 0.07035 0.07028 0.0
H1271 H 0.41448 0.04427 0.10276 0.0
H1272 H 0.4447 0.19969 0.16272 0.0
H1273 H 0.43938 0.1732 0.19541 0.0
H1274 H 0.39271 0.21024 0.1245 0.0
H1275 H 0.38853 0.19593 0.08602 0.0
C1276 C 0.32019 0.15978 0.64369 0.0
C1277 C 0.35984 0.14491 0.66359 0.0
C1278 C 0.39673 0.11526 0.61803 0.0
C1279 C 0.36113 0.13276 0.59785 0.0
N1280 N 0.29554 0.17674 0.59077 0.0
N1281 N 0.44636 0.11797 0.66667 0.0
C1282 C 0.32536 0.15691 0.61044 0.0
C1283 C 0.40131 0.12545 0.64988 0.0
N1284 N 0.27568 0.17466 0.65606 0.0
N1285 N 0.42544 0.08842 0.60715 0.0
H1286 H 0.45353 0.12743 0.6892 0.0
H1287 H 0.47942 0.10615 0.65667 0.0
H1288 H 0.42142 0.07928 0.58431 0.0
H1289 H 0.4485 0.07311 0.62181 0.0
H1290 H 0.24312 0.18195 0.64236 0.0
H1291 H 0.26807 0.17685 0.68 0.0
H1292 H 0.27342 0.19735 0.59866 0.0
H1293 H 0.29604 0.17432 0.56632 0.0
C1294 C 0.45339 0.61939 0.63967 0.0
C1295 C 0.40563 0.61681 0.65746 0.0
C1296 C 0.35283 0.62499 0.60909 0.0
C1297 C 0.40081 0.6306 0.59208 0.0
N1298 N 0.49619 0.64093 0.59308 0.0
N1299 N 0.30946 0.61768 0.65982 0.0
C1300 C 0.45083 0.63021 0.6079 0.0
C1301 C 0.35514 0.61986 0.64235 0.0
N1302 N 0.50152 0.61073 0.65261 0.0
N1303 N 0.30507 0.62475 0.59343 0.0
H1304 H 0.30924 0.61079 0.68354 0.0
H1305 H 0.2717 0.62373 0.65131 0.0
H1306 H 0.30125 0.63142 0.56976 0.0
H1307 H 0.2693 0.61684 0.60338 0.0
H1308 H 0.53624 0.608 0.63939 0.0
H1309 H 0.50657 0.60294 0.67579 0.0
H1310 H 0.53199 0.64534 0.6049 0.0
H1311 H 0.4977 0.64857 0.56969 0.0
C1312 C 0.34644 0.38823 0.27822 0.0
C1313 C 0.3306 0.36802 0.25204 0.0
C1314 C 0.41872 0.3766 0.22798 0.0
C1315 C 0.43605 0.39343 0.25565 0.0
N1316 N 0.41906 0.4123 0.30862 0.0
N1317 N 0.35208 0.34164 0.20238 0.0
C1318 C 0.40056 0.39857 0.28112 0.0
C1319 C 0.36705 0.36161 0.22713 0.0
N1320 N 0.30977 0.39814 0.30018 0.0
N1321 N 0.4506 0.37667 0.20188 0.0
H1322 H 0.3133 0.33272 0.19928 0.0
H1323 H 0.3787 0.33249 0.18564 0.0
H1324 H 0.48785 0.3884 0.20145 0.0
H1325 H 0.4385 0.36798 0.17987 0.0
H1326 H 0.3175 0.41623 0.31737 0.0
H1327 H 0.27014 0.39046 0.30005 0.0
H1328 H 0.39734 0.41249 0.32951 0.0
H1329 H 0.45788 0.42129 0.31137 0.0
C1330 C 0.86101 0.87562 0.28 0.0
C1331 C 0.83565 0.86216 0.25283 0.0
C1332 C 0.91366 0.87686 0.22083 0.0
C1333 C 0.94108 0.887 0.24843 0.0
N1334 N 0.94366 0.89354 0.30485 0.0
N1335 N 0.84027 0.84519 0.19829 0.0
C1336 C 0.91547 0.88578 0.27821 0.0
C1337 C 0.86277 0.86128 0.2235 0.0
N1338 N 0.83292 0.87888 0.30742 0.0
N1339 N 0.93535 0.88344 0.19196 0.0
H1340 H 0.80256 0.8341 0.19906 0.0
H1341 H 0.86055 0.84059 0.17734 0.0
H1342 H 0.97166 0.89598 0.18931 0.0
H1343 H 0.91515 0.87965 0.1708 0.0
H1344 H 0.84699 0.89195 0.32701 0.0
H1345 H 0.79386 0.87025 0.31006 0.0
H1346 H 0.92954 0.88936 0.32756 0.0
H1347 H 0.98295 0.90222 0.30432 0.0
C1348 C 0.36703 0.89343 0.03555 0.0
C1349 C 0.3393 0.89333 0.00635 0.0
C1350 C 0.41789 0.86917 0.98024 0.0
C1351 C 0.44421 0.86731 0.00977 0.0
N1352 N 0.43983 0.86993 0.06631 0.0
N1353 N 0.33407 0.87473 0.95227 0.0
C1354 C 0.4177 0.87733 0.03769 0.0
C1355 C 0.36347 0.87929 0.97907 0.0
N1356 N 0.34492 0.90873 0.06126 0.0
N1357 N 0.44515 0.86175 0.95324 0.0
H1358 H 0.29412 0.88164 0.95049 0.0
H1359 H 0.34776 0.86144 0.93273 0.0
H1360 H 0.4844 0.85297 0.95325 0.0
H1361 H 0.43029 0.86658 0.93075 0.0
H1362 H 0.36559 0.91279 0.08221 0.0
H1363 H 0.30694 0.9195 0.06102 0.0
H1364 H 0.4203 0.87361 0.08766 0.0
H1365 H 0.47582 0.8569 0.06854 0.0
C1366 C 0.915 0.38413 0.98464 0.0
C1367 C 0.936 0.36258 0.00851 0.0
C1368 C 0.84875 0.36172 0.03492 0.0
C1369 C 0.82793 0.38357 0.01126 0.0
N1370 N 0.83676 0.40849 0.95971 0.0
N1371 N 0.92685 0.33722 0.05986 0.0
C1372 C 0.86 0.39312 0.98519 0.0
C1373 C 0.9038 0.35284 0.03446 0.0
N1374 N 0.9478 0.39675 0.96176 0.0
N1375 N 0.81568 0.34855 0.05737 0.0
H1376 H 0.9673 0.33115 0.06098 0.0
H1377 H 0.90745 0.33319 0.08118 0.0
H1378 H 0.77551 0.35471 0.05922 0.0
H1379 H 0.82673 0.32923 0.07269 0.0
H1380 H 0.93682 0.41601 0.94637 0.0
H1381 H 0.98766 0.38997 0.95939 0.0
H1382 H 0.85602 0.4124 0.93832 0.0
H1383 H 0.79626 0.41441 0.95858 0.0
C1384 C 0.67281 0.62595 0.78146 0.0
C1385 C 0.69279 0.64425 0.75532 0.0
C1386 C 0.6052 0.64078 0.7297 0.0
C1387 C 0.58769 0.6181 0.75357 0.0
N1388 N 0.60493 0.58859 0.80239 0.0
N1389 N 0.68035 0.66602 0.70271 0.0
C1390 C 0.62172 0.61036 0.77944 0.0
C1391 C 0.65955 0.65098 0.72899 0.0
N1392 N 0.70142 0.62522 0.80888 0.0
N1393 N 0.56996 0.65325 0.708 0.0
H1394 H 0.71971 0.67437 0.70129 0.0
H1395 H 0.65999 0.6676 0.68135 0.0
H1396 H 0.52973 0.64694 0.70753 0.0
H1397 H 0.5794 0.67255 0.69228 0.0
H1398 H 0.68714 0.6151 0.82987 0.0
H1399 H 0.73752 0.63801 0.81147 0.0
H1400 H 0.63016 0.57866 0.81958 0.0
H1401 H 0.56615 0.57916 0.80355 0.0
C1402 C 0.08774 0.16005 0.7767 0.0
C1403 C 0.0714 0.13512 0.75459 0.0
C1404 C 0.16134 0.13509 0.7314 0.0
C1405 C 0.17892 0.15768 0.75543 0.0
N1406 N 0.16119 0.1866 0.80432 0.0
N1407 N 0.08733 0.10669 0.70546 0.0
C1408 C 0.1426 0.16917 0.77874 0.0
C1409 C 0.10692 0.12464 0.73051 0.0
N1410 N 0.05089 0.17594 0.79518 0.0
N1411 N 0.19691 0.12294 0.70979 0.0
H1412 H 0.04716 0.10022 0.70322 0.0
H1413 H 0.10906 0.10097 0.68532 0.0
H1414 H 0.23588 0.13162 0.70775 0.0
H1415 H 0.18904 0.10291 0.69464 0.0
H1416 H 0.05969 0.19685 0.8091 0.0
H1417 H 1.01025 0.17097 0.79415 0.0
H1418 H 0.13807 0.19188 0.82407 0.0
H1419 H 0.20122 0.19289 0.8075 0.0
C1420 C 0.61626 0.1471 0.028 0.0
C1421 C 0.58054 0.13501 1.0047 0.0
C1422 C 0.65276 0.10066 0.98176 0.0
C1423 C 0.68923 0.11448 1.00406 0.0
N1424 N 0.70717 0.15644 0.04444 0.0
N1425 N 0.56354 0.09992 0.95933 0.0
C1426 C 0.67154 0.13943 0.02588 0.0
C1427 C 0.59831 0.11136 0.98175 0.0
N1428 N 0.59672 0.16421 0.05351 0.0
N1429 N 0.67059 0.07771 0.9601 0.0
H1430 H 0.52271 0.10425 0.96022 0.0
H1431 H 0.57466 0.08658 0.93931 0.0
H1432 H 0.71095 0.07314 0.95598 0.0
H1433 H 0.64586 0.06279 0.9462 0.0
H1434 H 0.61959 0.17015 0.07325 0.0
H1435 H 0.55621 0.16914 0.05672 0.0
H1436 H 0.69702 0.17777 0.05745 0.0
H1437 H 0.74784 0.15156 0.04511 0.0
C1438 C 0.18595 0.65305 0.97945 0.0
C1439 C 0.20197 0.62787 1.00146 0.0
C1440 C 0.11262 0.62851 0.0252 0.0
C1441 C 0.09554 0.65213 1.00192 0.0
N1442 N 0.11299 0.68225 0.95358 0.0
N1443 N 0.1863 0.59963 0.05081 0.0
C1444 C 0.13159 0.66353 0.97841 0.0
C1445 C 0.16674 0.61767 0.02578 0.0
N1446 N 0.22276 0.66781 0.96012 0.0
N1447 N 0.07691 0.61565 0.04639 0.0
H1448 H 0.2263 0.59267 0.05289 0.0
H1449 H 0.16476 0.59454 0.0712 0.0
H1450 H 0.03787 0.62415 0.04857 0.0
H1451 H 0.08471 0.59489 0.06073 0.0
H1452 H 0.21482 0.68897 0.94633 0.0
H1453 H 0.26291 0.66132 0.95999 0.0
H1454 H 0.13537 0.68757 0.93355 0.0
H1455 H 0.07337 0.68989 0.95134 0.0
C1456 C 0.42072 0.86938 0.77601 0.0
C1457 C 0.44131 0.89343 0.7542 0.0
C1458 C 0.35298 0.89775 0.72903 0.0
C1459 C 0.33261 0.87335 0.75054 0.0
N1460 N 0.34287 0.84332 0.79959 0.0
N1461 N 0.43054 0.92415 0.70551 0.0
C1462 C 0.36549 0.86092 0.77525 0.0
C1463 C 0.40823 0.90615 0.72969 0.0
N1464 N 0.45397 0.85382 0.79709 0.0
N1465 N 0.31942 0.91387 0.7085 0.0
H1466 H 0.47103 0.92997 0.70432 0.0
H1467 H 0.41035 0.93037 0.68485 0.0
H1468 H 0.27907 0.9084 0.70642 0.0
H1469 H 0.33037 0.93494 0.69534 0.0
H1470 H 0.44305 0.83281 0.81034 0.0
H1471 H 0.494 0.8599 0.79987 0.0
H1472 H 0.36291 0.83712 0.82029 0.0
H1473 H 0.3022 0.83796 0.80086 0.0
C1474 C 0.87052 0.36116 0.72694 0.0
C1475 C 0.84036 0.36681 0.75481 0.0
C1476 C 0.91785 0.39439 0.77932 0.0
C1477 C 0.9471 0.39008 0.75108 0.0
N1478 N 0.94861 0.37601 0.696 0.0
N1479 N 0.83129 0.39658 0.80426 0.0
C1480 C 0.9227 0.37525 0.7243 0.0
C1481 C 0.86272 0.38589 0.77997 0.0
N1482 N 0.84911 0.34266 0.70286 0.0
N1483 N 0.94322 0.40537 0.80596 0.0
H1484 H 0.79067 0.39151 0.80561 0.0
H1485 H 0.84427 0.41339 0.8215 0.0
H1486 H 0.98342 0.41217 0.80642 0.0
H1487 H 0.92567 0.40503 0.82818 0.0
H1488 H 0.87115 0.33409 0.6837 0.0
H1489 H 0.80958 0.33446 0.70261 0.0
H1490 H 0.93134 0.36862 0.67479 0.0
H1491 H 0.98615 0.38699 0.69325 0.0
C1492 C 0.35946 0.40439 0.53261 0.0
C1493 C 0.32771 0.3953 0.50627 0.0
C1494 C 0.40306 0.36354 0.48399 0.0
C1495 C 0.43551 0.37367 0.50987 0.0
N1496 N 0.44787 0.41079 0.5546 0.0
N1497 N 0.32206 0.37288 0.45367 0.0
C1498 C 0.4148 0.39634 0.53282 0.0
C1499 C 0.35023 0.37658 0.48109 0.0
N1500 N 0.33635 0.4194 0.55819 0.0
N1501 N 0.42296 0.34191 0.46183 0.0
H1502 H 0.28413 0.38315 0.45038 0.0
H1503 H 0.33783 0.36252 0.43318 0.0
H1504 H 0.46289 0.33459 0.46101 0.0
H1505 H 0.39944 0.33006 0.4449 0.0
H1506 H 0.35584 0.42258 0.57967 0.0
H1507 H 0.29615 0.42607 0.55905 0.0
H1508 H 0.43607 0.43031 0.56946 0.0
H1509 H 0.48848 0.40579 0.55598 0.0
C1510 C 0.90564 0.86482 0.53578 0.0
C1511 C 0.93429 0.86851 0.50712 0.0
C1512 C 0.856 0.89462 0.48234 0.0
C1513 C 0.82836 0.89249 0.51135 0.0
N1514 N 0.83007 0.88288 0.5673 0.0
N1515 N 0.94131 0.89488 0.4559 0.0
C1516 C 0.85403 0.87956 0.53858 0.0
C1517 C 0.91091 0.88587 0.48122 0.0
N1518 N 0.92797 0.84761 0.56044 0.0
N1519 N 0.82944 0.90421 0.45561 0.0
H1520 H 0.98194 0.88983 0.45442 0.0
H1521 H 0.92761 0.91044 0.43782 0.0
H1522 H 0.78941 0.91143 0.45553 0.0
H1523 H 0.84579 0.90238 0.43313 0.0
H1524 H 0.90685 0.84065 0.58052 0.0
H1525 H 0.96712 0.83868 0.56023 0.0
H1526 H 0.8486 0.87693 0.58855 0.0
H1527 H 0.79316 0.89468 0.57008 0.0
C1528 C 0.61533 0.10481 0.23549 0.0
C1529 C 0.57871 0.11704 0.25815 0.0
C1530 C 0.6488 0.15392 0.28 0.0
C1531 C 0.68648 0.13943 0.25887 0.0
N1532 N 0.70695 0.09505 0.22121 0.0
N1533 N 0.56014 0.15275 0.30287 0.0
C1534 C 0.67029 0.11302 0.23814 0.0
C1535 C 0.59515 0.14177 0.28045 0.0
N1536 N 0.59705 0.08685 0.21015 0.0
N1537 N 0.66461 0.17895 0.30016 0.0
H1538 H 0.51974 0.14692 0.30257 0.0
H1539 H 0.57107 0.16674 0.32257 0.0
H1540 H 0.70449 0.1851 0.30412 0.0
H1541 H 0.63833 0.19425 0.31264 0.0
H1542 H 0.62084 0.08062 0.1909 0.0
H1543 H 0.55673 0.08162 0.20645 0.0
H1544 H 0.69741 0.07307 0.20897 0.0
H1545 H 0.74769 0.09968 0.22144 0.0
C1546 C 0.1185 0.60652 0.22479 0.0
C1547 C 0.08916 0.60658 0.25335 0.0
C1548 C 0.16321 0.63509 0.28033 0.0
C1549 C 0.19386 0.63325 0.25225 0.0
N1550 N 0.20405 0.6135 0.19884 0.0
N1551 N 0.08604 0.61511 0.30943 0.0
C1552 C 0.17258 0.61765 0.22484 0.0
C1553 C 0.11223 0.61926 0.28146 0.0
N1554 N 0.09388 0.59725 0.19734 0.0
N1555 N 0.18258 0.65228 0.30583 0.0
H1556 H 0.04897 0.60325 0.31105 0.0
H1557 H 0.10273 0.62064 0.33129 0.0
H1558 H 0.22056 0.66299 0.30647 0.0
H1559 H 0.1599 0.65787 0.32567 0.0
H1560 H 0.1108 0.60044 0.17516 0.0
H1561 H 0.05464 0.58851 0.19645 0.0
H1562 H 0.19312 0.59887 0.17951 0.0
H1563 H 0.24278 0.62296 0.19726 0.0
C1564 C 0.66786 0.64181 0.47663 0.0
C1565 C 0.68518 0.61893 0.5004 0.0
C1566 C 0.59367 0.61471 0.52053 0.0
C1567 C 0.5765 0.6393 0.49811 0.0
N1568 N 0.59691 0.67631 0.45452 0.0
N1569 N 0.66772 0.59081 0.54965 0.0
C1570 C 0.61368 0.653 0.47621 0.0
C1571 C 0.64891 0.60735 0.52357 0.0
N1572 N 0.70259 0.6518 0.45364 0.0
N1573 N 0.55761 0.59772 0.53876 0.0
H1574 H 0.70809 0.58573 0.55334 0.0
H1575 H 0.64431 0.58547 0.56928 0.0
H1576 H 0.51685 0.60232 0.53875 0.0
H1577 H 0.56766 0.57667 0.55226 0.0
H1578 H 0.6913 0.66441 0.43318 0.0
H1579 H 0.74314 0.64634 0.4542 0.0
H1580 H 0.62257 0.69116 0.44116 0.0
H1581 H 0.5568 0.68152 0.45017 0.0
C1582 C 0.08898 0.11145 0.48711 0.0
C1583 C 0.0723 0.13498 0.51049 0.0
C1584 C 0.16008 0.12984 0.53623 0.0
C1585 C 0.17858 0.11032 0.51044 0.0
N1586 N 0.16333 0.08662 0.45896 0.0
N1587 N 0.09192 0.16662 0.55775 0.0
C1588 C 0.1437 0.10205 0.48532 0.0
C1589 C 0.108 0.1443 0.53511 0.0
N1590 N 0.05279 0.09751 0.46684 0.0
N1591 N 0.19147 0.1332 0.56243 0.0
H1592 H 0.05259 0.17484 0.56002 0.0
H1593 H 0.11793 0.17803 0.57365 0.0
H1594 H 0.22922 0.12228 0.56432 0.0
H1595 H 0.17865 0.14416 0.58337 0.0
H1596 H 0.06198 0.07769 0.45168 0.0
H1597 H 0.0123 0.10308 0.46716 0.0
H1598 H 0.14138 0.08374 0.43828 0.0
H1599 H 0.20316 0.0794 0.45663 0.0
loop_
_geom_bond_atom_site_label_1
_geom_bond_atom_site_label_2
_geom_bond_distance
_geom_bond_site_symmetry_2
_ccdc_geom_bond_type
C0 O2 1.247 . S
C0 O4 1.258 . S
C1 O8 1.247 . S
C1 O9 1.258 . S
O2 C0 1.247 . S
O2 Zn3 2.028 . S
Zn3 O2 2.028 . S
Zn3 O7 2.035 . S
Zn3 O9 2.035 . S
Zn3 O10 2.028 . S
O4 C0 1.258 . S
O4 Zn5 2.035 . S
Zn5 O4 2.035 . S
Zn5 O6 2.028 . S
Zn5 O8 2.028 . S
Zn5 O11 2.035 . S
O6 Zn5 2.028 . S
O6 C12 1.247 . S
O7 Zn3 2.035 . S
O7 C12 1.258 . S
O8 C1 1.247 . S
O8 Zn5 2.028 . S
O9 C1 1.258 . S
O9 Zn3 2.035 . S
O10 Zn3 2.028 . S
O10 C13 1.247 . S
O11 Zn5 2.035 . S
O11 C13 1.258 . S
C12 O6 1.247 . S
C12 O7 1.258 . S
C13 O10 1.247 . S
C13 O11 1.258 . S
C14 O16 1.247 . S
C14 O18 1.258 . S
C15 O22 1.247 . S
C15 O23 1.258 . S
O16 C14 1.247 . S
O16 Zn17 2.028 . S
Zn17 O16 2.028 . S
Zn17 O21 2.035 . S
Zn17 O23 2.035 . S
Zn17 O24 2.028 1_455 S
O18 C14 1.258 . S
O18 Zn19 2.035 . S
Zn19 O18 2.035 . S
Zn19 O20 2.028 . S
Zn19 O22 2.028 . S
Zn19 O25 2.035 . S
O20 Zn19 2.028 . S
O20 C26 1.247 . S
O21 Zn17 2.035 . S
O21 C26 1.258 . S
O22 C15 1.247 . S
O22 Zn19 2.028 . S
O23 C15 1.258 . S
O23 Zn17 2.035 . S
O24 Zn17 2.028 1_655 S
O24 C27 1.247 . S
O25 Zn19 2.035 . S
O25 C27 1.258 1_455 S
C26 O20 1.247 . S
C26 O21 1.258 . S
C27 O24 1.247 . S
C27 O25 1.258 1_655 S
C28 O30 1.247 . S
C28 O32 1.258 . S
C29 O36 1.247 . S
C29 O37 1.258 . S
O30 C28 1.247 . S
O30 Zn31 2.028 . S
Zn31 O30 2.028 . S
Zn31 O35 2.035 . S
Zn31 O37 2.035 1_556 S
Zn31 O38 2.025 1_556 S
O32 C28 1.258 . S
O32 Zn33 2.035 1_556 S
Zn33 O32 2.035 1_554 S
Zn33 O34 2.028 1_554 S
Zn33 O36 2.028 . S
Zn33 O39 2.035 . S
O34 Zn33 2.028 1_556 S
O34 C40 1.247 . S
O35 Zn31 2.035 . S
O35 C40 1.258 . S
O36 C29 1.247 . S
O36 Zn33 2.028 . S
O37 C29 1.258 . S
O37 Zn31 2.035 1_554 S
O38 Zn31 2.025 1_554 S
O38 C41 1.248 . S
O39 Zn33 2.035 . S
O39 C41 1.258 . S
C40 O34 1.247 . S
C40 O35 1.258 . S
C41 O38 1.248 . S
C41 O39 1.258 . S
C42 O44 1.247 . S
C42 O46 1.258 . S
C43 O50 1.248 . S
C43 O51 1.258 1_655 S
O44 C42 1.247 . S
O44 Zn45 2.028 1_556 S
Zn45 O44 2.028 1_554 S
Zn45 O49 2.035 1_554 S
Zn45 O51 2.035 . S
Zn45 O52 2.028 . S
O46 C42 1.258 . S
O46 Zn47 2.035 . S
Zn47 O46 2.035 . S
Zn47 O48 2.028 . S
Zn47 O50 2.025 1_456 S
Zn47 O53 2.035 1_556 S
O48 Zn47 2.028 . S
O48 C54 1.247 . S
O49 Zn45 2.035 1_556 S
O49 C54 1.258 . S
O50 C43 1.248 . S
O50 Zn47 2.025 1_654 S
O51 C43 1.258 1_455 S
O51 Zn45 2.035 . S
O52 Zn45 2.028 . S
O52 C55 1.247 . S
O53 Zn47 2.035 1_554 S
O53 C55 1.258 . S
C54 O48 1.247 . S
C54 O49 1.258 . S
C55 O52 1.247 . S
C55 O53 1.258 . S
C56 O58 1.247 . S
C56 O60 1.258 . S
C57 O64 1.247 . S
C57 O65 1.258 . S
O58 C56 1.247 . S
O58 Zn59 2.028 . S
Zn59 O58 2.028 . S
Zn59 O63 2.035 . S
Zn59 O65 2.035 . S
Zn59 O66 2.028 . S
O60 C56 1.258 . S
O60 Zn61 2.035 . S
Zn61 O60 2.035 . S
Zn61 O62 2.028 . S
Zn61 O64 2.028 . S
Zn61 O67 2.035 . S
O62 Zn61 2.028 . S
O62 C68 1.247 . S
O63 Zn59 2.035 . S
O63 C68 1.258 . S
O64 C57 1.247 . S
O64 Zn61 2.028 . S
O65 C57 1.258 . S
O65 Zn59 2.035 . S
O66 Zn59 2.028 . S
O66 C69 1.247 . S
O67 Zn61 2.035 . S
O67 C69 1.258 . S
C68 O62 1.247 . S
C68 O63 1.258 . S
C69 O66 1.247 . S
C69 O67 1.258 . S
C70 O72 1.247 . S
C70 O74 1.258 . S
C71 O78 1.247 1_455 S
C71 O79 1.258 . S
O72 C70 1.247 . S
O72 Zn73 2.028 . S
Zn73 O72 2.028 . S
Zn73 O77 2.035 . S
Zn73 O79 2.035 1_655 S
Zn73 O80 2.028 . S
O74 C70 1.258 . S
O74 Zn75 2.035 . S
Zn75 O74 2.035 . S
Zn75 O76 2.028 . S
Zn75 O78 2.028 . S
Zn75 O81 2.035 . S
O76 Zn75 2.028 . S
O76 C82 1.247 . S
O77 Zn73 2.035 . S
O77 C82 1.258 . S
O78 C71 1.247 1_655 S
O78 Zn75 2.028 . S
O79 C71 1.258 . S
O79 Zn73 2.035 1_455 S
O80 Zn73 2.028 . S
O80 C83 1.247 . S
O81 Zn75 2.035 . S
O81 C83 1.258 . S
C82 O76 1.247 . S
C82 O77 1.258 . S
C83 O80 1.247 . S
C83 O81 1.258 . S
C84 O86 1.247 . S
C84 O88 1.258 . S
C85 O92 1.247 . S
C85 O93 1.258 . S
O86 C84 1.247 . S
O86 Zn87 2.028 1_554 S
Zn87 O86 2.028 1_556 S
Zn87 O91 2.035 1_556 S
Zn87 O93 2.035 . S
Zn87 O94 2.028 . S
O88 C84 1.258 . S
O88 Zn89 2.035 . S
Zn89 O88 2.035 . S
Zn89 O90 2.028 . S
Zn89 O92 2.028 1_554 S
Zn89 O95 2.034 1_554 S
O90 Zn89 2.028 . S
O90 C96 1.247 . S
O91 Zn87 2.035 1_554 S
O91 C96 1.258 . S
O92 C85 1.247 . S
O92 Zn89 2.028 1_556 S
O93 C85 1.258 . S
O93 Zn87 2.035 . S
O94 Zn87 2.028 . S
O94 C97 1.247 . S
O95 Zn89 2.034 1_556 S
O95 C97 1.259 . S
C96 O90 1.247 . S
C96 O91 1.258 . S
C97 O94 1.247 . S
C97 O95 1.259 . S
C98 O100 1.247 . S
C98 O102 1.258 . S
C99 O106 1.247 . S
C99 O107 1.258 . S
O100 C98 1.247 . S
O100 Zn101 2.028 . S
Zn101 O100 2.028 . S
Zn101 O105 2.035 . S
Zn101 O107 2.035 1_556 S
Zn101 O108 2.028 1_556 S
O102 C98 1.258 . S
O102 Zn103 2.035 1_556 S
Zn103 O102 2.035 1_554 S
Zn103 O104 2.025 1_654 S
Zn103 O106 2.028 . S
Zn103 O109 2.035 . S
O104 Zn103 2.025 1_456 S
O104 C110 1.248 . S
O105 Zn101 2.035 . S
O105 C110 1.258 1_655 S
O106 C99 1.247 . S
O106 Zn103 2.028 . S
O107 C99 1.258 . S
O107 Zn101 2.035 1_554 S
O108 Zn101 2.028 1_554 S
O108 C111 1.247 . S
O109 Zn103 2.035 . S
O109 C111 1.258 . S
C110 O104 1.248 . S
C110 O105 1.258 1_455 S
C111 O108 1.247 . S
C111 O109 1.258 . S
C112 O114 1.247 . S
C112 O116 1.258 . S
C113 O120 1.247 . S
C113 O121 1.258 . S
O114 C112 1.247 . S
O114 Zn115 2.028 . S
Zn115 O114 2.028 . S
Zn115 O119 2.035 . S
Zn115 O121 2.035 . S
Zn115 O122 2.028 . S
O116 C112 1.258 . S
O116 Zn117 2.035 . S
Zn117 O116 2.035 . S
Zn117 O118 2.028 . S
Zn117 O120 2.028 . S
Zn117 O123 2.035 . S
O118 Zn117 2.028 . S
O118 C124 1.247 . S
O119 Zn115 2.035 . S
O119 C124 1.258 . S
O120 C113 1.247 . S
O120 Zn117 2.028 . S
O121 C113 1.258 . S
O121 Zn115 2.035 . S
O122 Zn115 2.028 . S
O122 C125 1.247 . S
O123 Zn117 2.035 . S
O123 C125 1.258 . S
C124 O118 1.247 . S
C124 O119 1.258 . S
C125 O122 1.247 . S
C125 O123 1.258 . S
C126 O128 1.247 . S
C126 O130 1.258 . S
C127 O134 1.247 . S
C127 O135 1.258 . S
O128 C126 1.247 . S
O128 Zn129 2.028 . S
Zn129 O128 2.028 . S
Zn129 O133 2.035 1_455 S
Zn129 O135 2.035 . S
Zn129 O136 2.028 . S
O130 C126 1.258 . S
O130 Zn131 2.035 . S
Zn131 O130 2.035 . S
Zn131 O132 2.028 . S
Zn131 O134 2.028 . S
Zn131 O137 2.035 . S
O132 Zn131 2.028 . S
O132 C138 1.247 1_455 S
O133 Zn129 2.035 1_655 S
O133 C138 1.258 . S
O134 C127 1.247 . S
O134 Zn131 2.028 . S
O135 C127 1.258 . S
O135 Zn129 2.035 . S
O136 Zn129 2.028 . S
O136 C139 1.247 . S
O137 Zn131 2.035 . S
O137 C139 1.258 . S
C138 O132 1.247 1_655 S
C138 O133 1.258 . S
C139 O136 1.247 . S
C139 O137 1.258 . S
C140 O142 1.247 . S
C140 O144 1.258 . S
C141 O148 1.247 . S
C141 O149 1.258 . S
O142 C140 1.247 . S
O142 Zn143 2.028 . S
Zn143 O142 2.028 . S
Zn143 O147 2.035 . S
Zn143 O149 2.035 . S
Zn143 O150 2.028 . S
O144 C140 1.258 . S
O144 Zn145 2.035 . S
Zn145 O144 2.035 . S
Zn145 O146 2.028 . S
Zn145 O148 2.028 . S
Zn145 O151 2.035 . S
O146 Zn145 2.028 . S
O146 C152 1.247 . S
O147 Zn143 2.035 . S
O147 C152 1.258 . S
O148 C141 1.247 . S
O148 Zn145 2.028 . S
O149 C141 1.258 . S
O149 Zn143 2.035 . S
O150 Zn143 2.028 . S
O150 C153 1.247 . S
O151 Zn145 2.035 . S
O151 C153 1.258 . S
C152 O146 1.247 . S
C152 O147 1.258 . S
C153 O150 1.247 . S
C153 O151 1.258 . S
C154 O156 1.247 . S
C154 O158 1.258 . S
C155 O162 1.247 . S
C155 O163 1.258 . S
O156 C154 1.247 . S
O156 Zn157 2.028 . S
Zn157 O156 2.028 . S
Zn157 O161 2.035 . S
Zn157 O163 2.035 . S
Zn157 O164 2.028 1_455 S
O158 C154 1.258 . S
O158 Zn159 2.035 . S
Zn159 O158 2.035 . S
Zn159 O160 2.028 . S
Zn159 O162 2.028 . S
Zn159 O165 2.035 . S
O160 Zn159 2.028 . S
O160 C166 1.247 . S
O161 Zn157 2.035 . S
O161 C166 1.258 . S
O162 C155 1.247 . S
O162 Zn159 2.028 . S
O163 C155 1.258 . S
O163 Zn157 2.035 . S
O164 Zn157 2.028 1_655 S
O164 C167 1.247 . S
O165 Zn159 2.035 . S
O165 C167 1.258 1_455 S
C166 O160 1.247 . S
C166 O161 1.258 . S
C167 O164 1.247 . S
C167 O165 1.258 1_655 S
C168 O170 1.247 . S
C168 O172 1.258 . S
C169 O176 1.247 . S
C169 O177 1.258 . S
O170 C168 1.247 . S
O170 Zn171 2.028 . S
Zn171 O170 2.028 . S
Zn171 O175 2.035 . S
Zn171 O177 2.035 . S
Zn171 O178 2.028 . S
O172 C168 1.258 . S
O172 Zn173 2.035 . S
Zn173 O172 2.035 . S
Zn173 O174 2.028 . S
Zn173 O176 2.028 . S
Zn173 O179 2.035 . S
O174 Zn173 2.028 . S
O174 C180 1.247 . S
O175 Zn171 2.035 . S
O175 C180 1.258 . S
O176 C169 1.247 . S
O176 Zn173 2.028 . S
O177 C169 1.258 . S
O177 Zn171 2.035 . S
O178 Zn171 2.028 . S
O178 C181 1.247 . S
O179 Zn173 2.035 . S
O179 C181 1.258 . S
C180 O174 1.247 . S
C180 O175 1.258 . S
C181 O178 1.247 . S
C181 O179 1.258 . S
C182 O184 1.247 . S
C182 O186 1.258 . S
C183 O190 1.247 . S
C183 O191 1.258 . S
O184 C182 1.247 . S
O184 Zn185 2.028 . S
Zn185 O184 2.028 . S
Zn185 O189 2.035 . S
Zn185 O191 2.035 . S
Zn185 O192 2.028 . S
O186 C182 1.258 . S
O186 Zn187 2.035 . S
Zn187 O186 2.035 . S
Zn187 O188 2.028 . S
Zn187 O190 2.028 . S
Zn187 O193 2.035 1_655 S
O188 Zn187 2.028 . S
O188 C194 1.247 . S
O189 Zn185 2.035 . S
O189 C194 1.258 . S
O190 C183 1.247 . S
O190 Zn187 2.028 . S
O191 C183 1.258 . S
O191 Zn185 2.035 . S
O192 Zn185 2.028 . S
O192 C195 1.247 1_655 S
O193 Zn187 2.035 1_455 S
O193 C195 1.258 . S
C194 O188 1.247 . S
C194 O189 1.258 . S
C195 O192 1.247 1_455 S
C195 O193 1.258 . S
C196 O198 1.247 . S
C196 O200 1.258 . S
C197 O204 1.247 . S
C197 O205 1.258 . S
O198 C196 1.247 . S
O198 Zn199 2.028 . S
Zn199 O198 2.028 . S
Zn199 O203 2.035 . S
Zn199 O205 2.035 . S
Zn199 O206 2.028 . S
O200 C196 1.258 . S
O200 Zn201 2.035 . S
Zn201 O200 2.035 . S
Zn201 O202 2.028 . S
Zn201 O204 2.028 . S
Zn201 O207 2.035 . S
O202 Zn201 2.028 . S
O202 C208 1.247 . S
O203 Zn199 2.035 . S
O203 C208 1.258 . S
O204 C197 1.247 . S
O204 Zn201 2.028 . S
O205 C197 1.258 . S
O205 Zn199 2.035 . S
O206 Zn199 2.028 . S
O206 C209 1.247 . S
O207 Zn201 2.035 . S
O207 C209 1.258 . S
C208 O202 1.247 . S
C208 O203 1.258 . S
C209 O206 1.247 . S
C209 O207 1.258 . S
C210 O212 1.247 . S
C210 O214 1.258 1_455 S
C211 O218 1.247 . S
C211 O219 1.258 . S
O212 C210 1.247 . S
O212 Zn213 2.028 1_455 S
Zn213 O212 2.028 1_655 S
Zn213 O217 2.035 . S
Zn213 O219 2.035 . S
Zn213 O220 2.028 . S
O214 C210 1.258 1_655 S
O214 Zn215 2.035 . S
Zn215 O214 2.035 . S
Zn215 O216 2.028 . S
Zn215 O218 2.028 . S
Zn215 O221 2.035 . S
O216 Zn215 2.028 . S
O216 C222 1.247 . S
O217 Zn213 2.035 . S
O217 C222 1.258 . S
O218 C211 1.247 . S
O218 Zn215 2.028 . S
O219 C211 1.258 . S
O219 Zn213 2.035 . S
O220 Zn213 2.028 . S
O220 C223 1.247 . S
O221 Zn215 2.035 . S
O221 C223 1.258 . S
C222 O216 1.247 . S
C222 O217 1.258 . S
C223 O220 1.247 . S
C223 O221 1.258 . S
C224 O226 1.247 . S
C224 O228 1.258 . S
C225 O232 1.247 . S
C225 O233 1.258 . S
O226 C224 1.247 . S
O226 Zn227 2.028 . S
Zn227 O226 2.028 . S
Zn227 O231 2.035 . S
Zn227 O233 2.035 . S
Zn227 O234 2.028 . S
O228 C224 1.258 . S
O228 Zn229 2.035 . S
Zn229 O228 2.035 . S
Zn229 O230 2.028 . S
Zn229 O232 2.028 . S
Zn229 O235 2.035 . S
O230 Zn229 2.028 . S
O230 C236 1.247 . S
O231 Zn227 2.035 . S
O231 C236 1.258 . S
O232 C225 1.247 . S
O232 Zn229 2.028 . S
O233 C225 1.258 . S
O233 Zn227 2.035 . S
O234 Zn227 2.028 . S
O234 C237 1.247 . S
O235 Zn229 2.035 . S
O235 C237 1.258 . S
C236 O230 1.247 . S
C236 O231 1.258 . S
C237 O234 1.247 . S
C237 O235 1.258 . S
C238 O240 1.247 . S
C238 O242 1.258 . S
C239 O246 1.247 . S
C239 O247 1.258 . S
O240 C238 1.247 . S
O240 Zn241 2.028 . S
Zn241 O240 2.028 . S
Zn241 O245 2.035 . S
Zn241 O247 2.035 . S
Zn241 O248 2.028 . S
O242 C238 1.258 . S
O242 Zn243 2.035 . S
Zn243 O242 2.035 . S
Zn243 O244 2.028 . S
Zn243 O246 2.028 . S
Zn243 O249 2.035 . S
O244 Zn243 2.028 . S
O244 C250 1.247 . S
O245 Zn241 2.035 . S
O245 C250 1.258 . S
O246 C239 1.247 . S
O246 Zn243 2.028 . S
O247 C239 1.258 . S
O247 Zn241 2.035 . S
O248 Zn241 2.028 . S
O248 C251 1.247 . S
O249 Zn243 2.035 . S
O249 C251 1.258 . S
C250 O244 1.247 . S
C250 O245 1.258 . S
C251 O248 1.247 . S
C251 O249 1.258 . S
C252 O254 1.247 . S
C252 O256 1.258 . S
C253 O260 1.247 . S
C253 O261 1.258 . S
O254 C252 1.247 . S
O254 Zn255 2.028 . S
Zn255 O254 2.028 . S
Zn255 O259 2.035 . S
Zn255 O261 2.035 . S
Zn255 O262 2.028 . S
O256 C252 1.258 . S
O256 Zn257 2.035 . S
Zn257 O256 2.035 . S
Zn257 O258 2.028 . S
Zn257 O260 2.028 . S
Zn257 O263 2.035 . S
O258 Zn257 2.028 . S
O258 C264 1.247 . S
O259 Zn255 2.035 . S
O259 C264 1.258 . S
O260 C253 1.247 . S
O260 Zn257 2.028 . S
O261 C253 1.258 . S
O261 Zn255 2.035 . S
O262 Zn255 2.028 . S
O262 C265 1.247 . S
O263 Zn257 2.035 . S
O263 C265 1.258 . S
C264 O258 1.247 . S
C264 O259 1.258 . S
C265 O262 1.247 . S
C265 O263 1.258 . S
C266 O268 1.247 . S
C266 O270 1.258 . S
C267 O274 1.247 . S
C267 O275 1.258 . S
O268 C266 1.247 . S
O268 Zn269 2.028 . S
Zn269 O268 2.028 . S
Zn269 O273 2.035 . S
Zn269 O275 2.035 . S
Zn269 O276 2.028 . S
O270 C266 1.258 . S
O270 Zn271 2.035 . S
Zn271 O270 2.035 . S
Zn271 O272 2.028 . S
Zn271 O274 2.028 . S
Zn271 O277 2.035 . S
O272 Zn271 2.028 . S
O272 C278 1.247 . S
O273 Zn269 2.035 . S
O273 C278 1.258 . S
O274 C267 1.247 . S
O274 Zn271 2.028 . S
O275 C267 1.258 . S
O275 Zn269 2.035 . S
O276 Zn269 2.028 . S
O276 C279 1.247 . S
O277 Zn271 2.035 . S
O277 C279 1.258 . S
C278 O272 1.247 . S
C278 O273 1.258 . S
C279 O276 1.247 . S
C279 O277 1.258 . S
C280 O282 1.247 . S
C280 O284 1.258 . S
C281 O288 1.247 . S
C281 O289 1.258 . S
O282 C280 1.247 . S
O282 Zn283 2.028 . S
Zn283 O282 2.028 . S
Zn283 O287 2.035 . S
Zn283 O289 2.035 . S
Zn283 O290 2.028 . S
O284 C280 1.258 . S
O284 Zn285 2.035 . S
Zn285 O284 2.035 . S
Zn285 O286 2.028 . S
Zn285 O288 2.028 . S
Zn285 O291 2.035 . S
O286 Zn285 2.028 . S
O286 C292 1.247 . S
O287 Zn283 2.035 . S
O287 C292 1.258 . S
O288 C281 1.247 . S
O288 Zn285 2.028 . S
O289 C281 1.258 . S
O289 Zn283 2.035 . S
O290 Zn283 2.028 . S
O290 C293 1.247 . S
O291 Zn285 2.035 . S
O291 C293 1.258 . S
C292 O286 1.247 . S
C292 O287 1.258 . S
C293 O290 1.247 . S
C293 O291 1.258 . S
C294 O296 1.247 . S
C294 O298 1.258 . S
C295 O302 1.247 . S
C295 O303 1.258 . S
O296 C294 1.247 . S
O296 Zn297 2.028 . S
Zn297 O296 2.028 . S
Zn297 O301 2.035 . S
Zn297 O303 2.035 . S
Zn297 O304 2.028 . S
O298 C294 1.258 . S
O298 Zn299 2.035 . S
Zn299 O298 2.035 . S
Zn299 O300 2.028 . S
Zn299 O302 2.028 . S
Zn299 O305 2.035 . S
O300 Zn299 2.028 . S
O300 C306 1.247 . S
O301 Zn297 2.035 . S
O301 C306 1.258 . S
O302 C295 1.247 . S
O302 Zn299 2.028 . S
O303 C295 1.258 . S
O303 Zn297 2.035 . S
O304 Zn297 2.028 . S
O304 C307 1.247 . S
O305 Zn299 2.035 . S
O305 C307 1.258 . S
C306 O300 1.247 . S
C306 O301 1.258 . S
C307 O304 1.247 . S
C307 O305 1.258 . S
C308 O310 1.247 . S
C308 O312 1.258 . S
C309 O316 1.247 . S
C309 O317 1.258 . S
O310 C308 1.247 . S
O310 Zn311 2.028 . S
Zn311 O310 2.028 . S
Zn311 O315 2.035 . S
Zn311 O317 2.035 . S
Zn311 O318 2.028 . S
O312 C308 1.258 . S
O312 Zn313 2.035 . S
Zn313 O312 2.035 . S
Zn313 O314 2.028 . S
Zn313 O316 2.028 . S
Zn313 O319 2.035 . S
O314 Zn313 2.028 . S
O314 C320 1.247 . S
O315 Zn311 2.035 . S
O315 C320 1.258 . S
O316 C309 1.247 . S
O316 Zn313 2.028 . S
O317 C309 1.258 . S
O317 Zn311 2.035 . S
O318 Zn311 2.028 . S
O318 C321 1.247 . S
O319 Zn313 2.035 . S
O319 C321 1.258 . S
C320 O314 1.247 . S
C320 O315 1.258 . S
C321 O318 1.247 . S
C321 O319 1.258 . S
C322 O324 1.247 . S
C322 O326 1.258 . S
C323 O330 1.247 . S
C323 O331 1.258 . S
O324 C322 1.247 . S
O324 Zn325 2.028 . S
Zn325 O324 2.028 . S
Zn325 O329 2.035 . S
Zn325 O331 2.035 . S
Zn325 O332 2.028 . S
O326 C322 1.258 . S
O326 Zn327 2.035 . S
Zn327 O326 2.035 . S
Zn327 O328 2.028 . S
Zn327 O330 2.028 . S
Zn327 O333 2.035 . S
O328 Zn327 2.028 . S
O328 C334 1.247 . S
O329 Zn325 2.035 . S
O329 C334 1.258 . S
O330 C323 1.247 . S
O330 Zn327 2.028 . S
O331 C323 1.258 . S
O331 Zn325 2.035 . S
O332 Zn325 2.028 . S
O332 C335 1.247 . S
O333 Zn327 2.035 . S
O333 C335 1.258 . S
C334 O328 1.247 . S
C334 O329 1.258 . S
C335 O332 1.247 . S
C335 O333 1.258 . S
C336 O338 1.247 . S
C336 O340 1.258 . S
C337 O344 1.247 . S
C337 O345 1.258 . S
O338 C336 1.247 . S
O338 Zn339 2.028 . S
Zn339 O338 2.028 . S
Zn339 O343 2.035 . S
Zn339 O345 2.035 . S
Zn339 O346 2.028 . S
O340 C336 1.258 . S
O340 Zn341 2.035 . S
Zn341 O340 2.035 . S
Zn341 O342 2.028 . S
Zn341 O344 2.028 . S
Zn341 O347 2.035 . S
O342 Zn341 2.028 . S
O342 C348 1.247 . S
O343 Zn339 2.035 . S
O343 C348 1.258 . S
O344 C337 1.247 . S
O344 Zn341 2.028 . S
O345 C337 1.258 . S
O345 Zn339 2.035 . S
O346 Zn339 2.028 . S
O346 C349 1.247 . S
O347 Zn341 2.035 . S
O347 C349 1.258 . S
C348 O342 1.247 . S
C348 O343 1.258 . S
C349 O346 1.247 . S
C349 O347 1.258 . S
C350 O352 1.247 . S
C350 O354 1.258 . S
C351 O358 1.247 . S
C351 O359 1.258 . S
O352 C350 1.247 . S
O352 Zn353 2.028 . S
Zn353 O352 2.028 . S
Zn353 O357 2.035 . S
Zn353 O359 2.035 . S
Zn353 O360 2.028 . S
O354 C350 1.258 . S
O354 Zn355 2.035 . S
Zn355 O354 2.035 . S
Zn355 O356 2.028 . S
Zn355 O358 2.028 . S
Zn355 O361 2.035 . S
O356 Zn355 2.028 . S
O356 C362 1.247 . S
O357 Zn353 2.035 . S
O357 C362 1.258 . S
O358 C351 1.247 . S
O358 Zn355 2.028 . S
O359 C351 1.258 . S
O359 Zn353 2.035 . S
O360 Zn353 2.028 . S
O360 C363 1.247 . S
O361 Zn355 2.035 . S
O361 C363 1.258 . S
C362 O356 1.247 . S
C362 O357 1.258 . S
C363 O360 1.247 . S
C363 O361 1.258 . S
C364 O366 1.247 . S
C364 O368 1.258 . S
C365 O372 1.247 . S
C365 O373 1.258 . S
O366 C364 1.247 . S
O366 Zn367 2.028 1_554 S
Zn367 O366 2.028 1_556 S
Zn367 O371 2.034 1_556 S
Zn367 O373 2.035 . S
Zn367 O374 2.028 . S
O368 C364 1.258 . S
O368 Zn369 2.035 . S
Zn369 O368 2.035 . S
Zn369 O370 2.028 . S
Zn369 O372 2.028 1_554 S
Zn369 O375 2.035 1_554 S
O370 Zn369 2.028 . S
O370 C376 1.247 . S
O371 Zn367 2.034 1_554 S
O371 C376 1.259 . S
O372 C365 1.247 . S
O372 Zn369 2.028 1_556 S
O373 C365 1.258 . S
O373 Zn367 2.035 . S
O374 Zn367 2.028 . S
O374 C377 1.247 . S
O375 Zn369 2.035 1_556 S
O375 C377 1.258 . S
C376 O370 1.247 . S
C376 O371 1.259 . S
C377 O374 1.247 . S
C377 O375 1.258 . S
C378 O380 1.247 . S
C378 O382 1.258 . S
C379 O386 1.247 . S
C379 O387 1.258 . S
O380 C378 1.247 . S
O380 Zn381 2.028 1_554 S
Zn381 O380 2.028 1_556 S
Zn381 O385 2.034 1_556 S
Zn381 O387 2.035 . S
Zn381 O388 2.028 . S
O382 C378 1.258 . S
O382 Zn383 2.035 . S
Zn383 O382 2.035 . S
Zn383 O384 2.028 . S
Zn383 O386 2.028 1_554 S
Zn383 O389 2.035 1_554 S
O384 Zn383 2.028 . S
O384 C390 1.247 . S
O385 Zn381 2.034 1_554 S
O385 C390 1.259 . S
O386 C379 1.247 . S
O386 Zn383 2.028 1_556 S
O387 C379 1.258 . S
O387 Zn381 2.035 . S
O388 Zn381 2.028 . S
O388 C391 1.247 . S
O389 Zn383 2.035 1_556 S
O389 C391 1.258 . S
C390 O384 1.247 . S
C390 O385 1.259 . S
C391 O388 1.247 . S
C391 O389 1.258 . S
C392 O394 1.247 . S
C392 O396 1.258 . S
C393 O400 1.247 . S
C393 O401 1.258 . S
O394 C392 1.247 . S
O394 Zn395 2.028 . S
Zn395 O394 2.028 . S
Zn395 O399 2.035 . S
Zn395 O401 2.035 . S
Zn395 O402 2.028 . S
O396 C392 1.258 . S
O396 Zn397 2.035 . S
Zn397 O396 2.035 . S
Zn397 O398 2.028 . S
Zn397 O400 2.028 . S
Zn397 O403 2.035 . S
O398 Zn397 2.028 . S
O398 C404 1.247 . S
O399 Zn395 2.035 . S
O399 C404 1.258 . S
O400 C393 1.247 . S
O400 Zn397 2.028 . S
O401 C393 1.258 . S
O401 Zn395 2.035 . S
O402 Zn395 2.028 . S
O402 C405 1.247 . S
O403 Zn397 2.035 . S
O403 C405 1.258 . S
C404 O398 1.247 . S
C404 O399 1.258 . S
C405 O402 1.247 . S
C405 O403 1.258 . S
C406 O408 1.247 . S
C406 O410 1.258 . S
C407 O414 1.247 . S
C407 O415 1.258 . S
O408 C406 1.247 . S
O408 Zn409 2.028 . S
Zn409 O408 2.028 . S
Zn409 O413 2.035 . S
Zn409 O415 2.035 . S
Zn409 O416 2.028 . S
O410 C406 1.258 . S
O410 Zn411 2.035 . S
Zn411 O410 2.035 . S
Zn411 O412 2.028 . S
Zn411 O414 2.028 . S
Zn411 O417 2.035 . S
O412 Zn411 2.028 . S
O412 C418 1.247 . S
O413 Zn409 2.035 . S
O413 C418 1.258 . S
O414 C407 1.247 . S
O414 Zn411 2.028 . S
O415 C407 1.258 . S
O415 Zn409 2.035 . S
O416 Zn409 2.028 . S
O416 C419 1.247 . S
O417 Zn411 2.035 . S
O417 C419 1.258 . S
C418 O412 1.247 . S
C418 O413 1.258 . S
C419 O416 1.247 . S
C419 O417 1.258 . S
C420 O422 1.247 . S
C420 O424 1.258 . S
C421 O428 1.247 . S
C421 O429 1.258 . S
O422 C420 1.247 . S
O422 Zn423 2.028 1_554 S
Zn423 O422 2.028 1_556 S
Zn423 O427 2.035 1_556 S
Zn423 O429 2.035 . S
Zn423 O430 2.028 . S
O424 C420 1.258 . S
O424 Zn425 2.035 . S
Zn425 O424 2.035 . S
Zn425 O426 2.028 . S
Zn425 O428 2.028 1_554 S
Zn425 O431 2.034 1_554 S
O426 Zn425 2.028 . S
O426 C432 1.247 . S
O427 Zn423 2.035 1_554 S
O427 C432 1.258 . S
O428 C421 1.247 . S
O428 Zn425 2.028 1_556 S
O429 C421 1.258 . S
O429 Zn423 2.035 . S
O430 Zn423 2.028 . S
O430 C433 1.247 . S
O431 Zn425 2.034 1_556 S
O431 C433 1.259 . S
C432 O426 1.247 . S
C432 O427 1.258 . S
C433 O430 1.247 . S
C433 O431 1.259 . S
C434 O436 1.247 . S
C434 O438 1.258 . S
C435 O442 1.247 . S
C435 O443 1.258 . S
O436 C434 1.247 . S
O436 Zn437 2.028 1_554 S
Zn437 O436 2.028 1_556 S
Zn437 O441 2.035 1_556 S
Zn437 O443 2.035 . S
Zn437 O444 2.028 . S
O438 C434 1.258 . S
O438 Zn439 2.035 . S
Zn439 O438 2.035 . S
Zn439 O440 2.028 . S
Zn439 O442 2.028 1_554 S
Zn439 O445 2.034 1_554 S
O440 Zn439 2.028 . S
O440 C446 1.247 . S
O441 Zn437 2.035 1_554 S
O441 C446 1.258 . S
O442 C435 1.247 . S
O442 Zn439 2.028 1_556 S
O443 C435 1.258 . S
O443 Zn437 2.035 . S
O444 Zn437 2.028 . S
O444 C447 1.247 . S
O445 Zn439 2.034 1_556 S
O445 C447 1.259 . S
C446 O440 1.247 . S
C446 O441 1.258 . S
C447 O444 1.247 . S
C447 O445 1.259 . S
C448 C449 1.363 . S
C448 C454 1.379 . S
C448 N456 1.356 . S
C449 C448 1.363 . S
C449 C455 1.363 . S
C450 C451 1.363 . S
C450 C455 1.379 . S
C450 N457 1.356 . S
C451 C450 1.363 . S
C451 C454 1.363 . S
N452 C454 1.356 . S
N452 H464 0.984 . S
N452 H465 0.985 . S
N453 C455 1.356 . S
N453 H458 0.984 . S
N453 H459 0.985 . S
C454 C448 1.379 . S
C454 C451 1.363 . S
C454 N452 1.356 . S
C455 C449 1.363 . S
C455 C450 1.379 . S
C455 N453 1.356 . S
N456 C448 1.356 . S
N456 H462 0.984 . S
N456 H463 0.984 . S
N457 C450 1.356 . S
N457 H460 0.984 . S
N457 H461 0.985 . S
H458 N453 0.984 . S
H459 N453 0.985 . S
H460 N457 0.984 . S
H461 N457 0.985 . S
H462 N456 0.984 . S
H463 N456 0.984 . S
H464 N452 0.984 . S
H465 N452 0.985 . S
C466 C467 1.363 . S
C466 C472 1.379 . S
C466 N474 1.356 . S
C467 C466 1.363 . S
C467 C473 1.363 . S
C468 C469 1.363 . S
C468 C473 1.379 . S
C468 N475 1.356 . S
C469 C468 1.363 . S
C469 C472 1.363 . S
N470 C472 1.356 . S
N470 H482 0.984 . S
N470 H483 0.985 . S
N471 C473 1.356 . S
N471 H476 0.984 . S
N471 H477 0.985 . S
C472 C466 1.379 . S
C472 C469 1.363 . S
C472 N470 1.356 . S
C473 C467 1.363 . S
C473 C468 1.379 . S
C473 N471 1.356 . S
N474 C466 1.356 . S
N474 H480 0.984 . S
N474 H481 0.984 . S
N475 C468 1.356 . S
N475 H478 0.984 . S
N475 H479 0.985 . S
H476 N471 0.984 . S
H477 N471 0.985 . S
H478 N475 0.984 . S
H479 N475 0.985 . S
H480 N474 0.984 . S
H481 N474 0.984 . S
H482 N470 0.984 . S
H483 N470 0.985 . S
C484 C485 1.363 . S
C484 C490 1.379 . S
C484 N492 1.356 . S
C485 C484 1.363 . S
C485 C491 1.363 . S
C486 C487 1.363 . S
C486 C491 1.379 . S
C486 N493 1.356 . S
C487 C486 1.363 . S
C487 C490 1.363 . S
N488 C490 1.356 . S
N488 H500 0.984 . S
N488 H501 0.985 . S
N489 C491 1.356 . S
N489 H494 0.984 . S
N489 H495 0.985 . S
C490 C484 1.379 . S
C490 C487 1.363 . S
C490 N488 1.356 . S
C491 C485 1.363 . S
C491 C486 1.379 . S
C491 N489 1.356 . S
N492 C484 1.356 . S
N492 H498 0.984 . S
N492 H499 0.984 . S
N493 C486 1.356 . S
N493 H496 0.984 . S
N493 H497 0.985 . S
H494 N489 0.984 . S
H495 N489 0.985 . S
H496 N493 0.984 . S
H497 N493 0.985 . S
H498 N492 0.984 . S
H499 N492 0.984 . S
H500 N488 0.984 . S
H501 N488 0.985 . S
C502 C503 1.363 . S
C502 C508 1.379 . S
C502 N510 1.356 . S
C503 C502 1.363 . S
C503 C509 1.363 . S
C504 C505 1.363 . S
C504 C509 1.379 . S
C504 N511 1.356 . S
C505 C504 1.363 . S
C505 C508 1.363 . S
N506 C508 1.356 . S
N506 H518 0.984 . S
N506 H519 0.985 . S
N507 C509 1.356 . S
N507 H512 0.984 . S
N507 H513 0.985 . S
C508 C502 1.379 . S
C508 C505 1.363 . S
C508 N506 1.356 . S
C509 C503 1.363 . S
C509 C504 1.379 . S
C509 N507 1.356 . S
N510 C502 1.356 . S
N510 H516 0.984 . S
N510 H517 0.984 . S
N511 C504 1.356 . S
N511 H514 0.984 . S
N511 H515 0.985 . S
H512 N507 0.984 . S
H513 N507 0.985 . S
H514 N511 0.984 . S
H515 N511 0.985 . S
H516 N510 0.984 . S
H517 N510 0.984 . S
H518 N506 0.984 . S
H519 N506 0.985 . S
C520 C521 1.363 . S
C520 C526 1.379 . S
C520 N528 1.356 . S
C521 C520 1.363 . S
C521 C527 1.363 . S
C522 C523 1.363 . S
C522 C527 1.379 . S
C522 N529 1.356 . S
C523 C522 1.363 . S
C523 C526 1.363 . S
N524 C526 1.356 . S
N524 H536 0.984 . S
N524 H537 0.985 . S
N525 C527 1.356 . S
N525 H530 0.984 . S
N525 H531 0.985 . S
C526 C520 1.379 . S
C526 C523 1.363 . S
C526 N524 1.356 . S
C527 C521 1.363 . S
C527 C522 1.379 . S
C527 N525 1.356 . S
N528 C520 1.356 . S
N528 H534 0.984 . S
N528 H535 0.984 . S
N529 C522 1.356 . S
N529 H532 0.984 . S
N529 H533 0.985 . S
H530 N525 0.984 . S
H531 N525 0.985 . S
H532 N529 0.984 . S
H533 N529 0.985 . S
H534 N528 0.984 . S
H535 N528 0.984 . S
H536 N524 0.984 . S
H537 N524 0.985 . S
C538 C539 1.363 . S
C538 C544 1.379 . S
C538 N546 1.356 . S
C539 C538 1.363 . S
C539 C545 1.363 . S
C540 C541 1.363 . S
C540 C545 1.379 . S
C540 N547 1.356 . S
C541 C540 1.363 . S
C541 C544 1.363 . S
N542 C544 1.356 . S
N542 H554 0.984 . S
N542 H555 0.985 . S
N543 C545 1.356 . S
N543 H548 0.984 . S
N543 H549 0.985 . S
C544 C538 1.379 . S
C544 C541 1.363 . S
C544 N542 1.356 . S
C545 C539 1.363 . S
C545 C540 1.379 . S
C545 N543 1.356 . S
N546 C538 1.356 . S
N546 H552 0.984 . S
N546 H553 0.984 . S
N547 C540 1.356 . S
N547 H550 0.984 . S
N547 H551 0.985 . S
H548 N543 0.984 . S
H549 N543 0.985 . S
H550 N547 0.984 . S
H551 N547 0.985 . S
H552 N546 0.984 . S
H553 N546 0.984 . S
H554 N542 0.984 . S
H555 N542 0.985 . S
C556 C557 1.363 . S
C556 C562 1.379 . S
C556 N564 1.356 . S
C557 C556 1.363 . S
C557 C563 1.363 . S
C558 C559 1.363 . S
C558 C563 1.379 . S
C558 N565 1.356 . S
C559 C558 1.363 . S
C559 C562 1.363 . S
N560 C562 1.356 . S
N560 H572 0.984 . S
N560 H573 0.985 . S
N561 C563 1.356 . S
N561 H566 0.984 . S
N561 H567 0.985 . S
C562 C556 1.379 . S
C562 C559 1.363 . S
C562 N560 1.356 . S
C563 C557 1.363 . S
C563 C558 1.379 . S
C563 N561 1.356 . S
N564 C556 1.356 . S
N564 H570 0.984 . S
N564 H571 0.984 . S
N565 C558 1.356 . S
N565 H568 0.984 . S
N565 H569 0.985 . S
H566 N561 0.984 . S
H567 N561 0.985 . S
H568 N565 0.984 . S
H569 N565 0.985 . S
H570 N564 0.984 . S
H571 N564 0.984 . S
H572 N560 0.984 . S
H573 N560 0.985 . S
C574 C575 1.363 . S
C574 C580 1.379 . S
C574 N582 1.356 . S
C575 C574 1.363 . S
C575 C581 1.363 . S
C576 C577 1.363 . S
C576 C581 1.379 . S
C576 N583 1.356 . S
C577 C576 1.363 . S
C577 C580 1.363 . S
N578 C580 1.356 . S
N578 H590 0.984 . S
N578 H591 0.985 . S
N579 C581 1.356 . S
N579 H584 0.984 . S
N579 H585 0.985 . S
C580 C574 1.379 . S
C580 C577 1.363 . S
C580 N578 1.356 . S
C581 C575 1.363 . S
C581 C576 1.379 . S
C581 N579 1.356 . S
N582 C574 1.356 . S
N582 H588 0.984 . S
N582 H589 0.984 . S
N583 C576 1.356 . S
N583 H586 0.984 . S
N583 H587 0.985 . S
H584 N579 0.984 . S
H585 N579 0.985 . S
H586 N583 0.984 . S
H587 N583 0.985 . S
H588 N582 0.984 . S
H589 N582 0.984 . S
H590 N578 0.984 . S
H591 N578 0.985 . S
C592 C593 1.363 . S
C592 C598 1.379 . S
C592 N600 1.356 . S
C593 C592 1.363 . S
C593 C599 1.363 . S
C594 C595 1.363 . S
C594 C599 1.379 . S
C594 N601 1.356 . S
C595 C594 1.363 . S
C595 C598 1.363 . S
N596 C598 1.356 . S
N596 H608 0.984 . S
N596 H609 0.985 . S
N597 C599 1.356 . S
N597 H602 0.984 . S
N597 H603 0.985 . S
C598 C592 1.379 . S
C598 C595 1.363 . S
C598 N596 1.356 . S
C599 C593 1.363 . S
C599 C594 1.379 . S
C599 N597 1.356 . S
N600 C592 1.356 . S
N600 H606 0.984 . S
N600 H607 0.984 . S
N601 C594 1.356 . S
N601 H604 0.984 . S
N601 H605 0.985 . S
H602 N597 0.984 . S
H603 N597 0.985 . S
H604 N601 0.984 . S
H605 N601 0.985 . S
H606 N600 0.984 . S
H607 N600 0.984 . S
H608 N596 0.984 . S
H609 N596 0.985 . S
C610 C611 1.363 . S
C610 C616 1.379 . S
C610 N618 1.356 . S
C611 C610 1.363 . S
C611 C617 1.363 . S
C612 C613 1.363 . S
C612 C617 1.379 . S
C612 N619 1.356 . S
C613 C612 1.363 . S
C613 C616 1.363 . S
N614 C616 1.356 . S
N614 H626 0.984 . S
N614 H627 0.985 . S
N615 C617 1.356 . S
N615 H620 0.984 . S
N615 H621 0.985 . S
C616 C610 1.379 . S
C616 C613 1.363 . S
C616 N614 1.356 . S
C617 C611 1.363 . S
C617 C612 1.379 . S
C617 N615 1.356 . S
N618 C610 1.356 . S
N618 H624 0.984 . S
N618 H625 0.984 . S
N619 C612 1.356 . S
N619 H622 0.984 . S
N619 H623 0.985 . S
H620 N615 0.984 . S
H621 N615 0.985 . S
H622 N619 0.984 . S
H623 N619 0.985 . S
H624 N618 0.984 . S
H625 N618 0.984 . S
H626 N614 0.984 . S
H627 N614 0.985 . S
C628 C629 1.363 . S
C628 C634 1.379 . S
C628 N636 1.356 . S
C629 C628 1.363 . S
C629 C635 1.363 . S
C630 C631 1.363 . S
C630 C635 1.379 . S
C630 N637 1.356 . S
C631 C630 1.363 . S
C631 C634 1.363 . S
N632 C634 1.356 . S
N632 H644 0.984 . S
N632 H645 0.985 . S
N633 C635 1.356 . S
N633 H638 0.984 . S
N633 H639 0.985 . S
C634 C628 1.379 . S
C634 C631 1.363 . S
C634 N632 1.356 . S
C635 C629 1.363 . S
C635 C630 1.379 . S
C635 N633 1.356 . S
N636 C628 1.356 . S
N636 H642 0.984 . S
N636 H643 0.984 . S
N637 C630 1.356 . S
N637 H640 0.984 . S
N637 H641 0.985 . S
H638 N633 0.984 . S
H639 N633 0.985 . S
H640 N637 0.984 . S
H641 N637 0.985 . S
H642 N636 0.984 . S
H643 N636 0.984 . S
H644 N632 0.984 . S
H645 N632 0.985 . S
C646 C647 1.363 . S
C646 C652 1.379 . S
C646 N654 1.356 . S
C647 C646 1.363 . S
C647 C653 1.363 . S
C648 C649 1.363 . S
C648 C653 1.379 . S
C648 N655 1.356 . S
C649 C648 1.363 . S
C649 C652 1.363 . S
N650 C652 1.356 . S
N650 H662 0.984 . S
N650 H663 0.985 . S
N651 C653 1.356 . S
N651 H656 0.984 . S
N651 H657 0.985 . S
C652 C646 1.379 . S
C652 C649 1.363 . S
C652 N650 1.356 . S
C653 C647 1.363 . S
C653 C648 1.379 . S
C653 N651 1.356 . S
N654 C646 1.356 . S
N654 H660 0.984 . S
N654 H661 0.984 . S
N655 C648 1.356 . S
N655 H658 0.984 . S
N655 H659 0.985 . S
H656 N651 0.984 . S
H657 N651 0.985 . S
H658 N655 0.984 . S
H659 N655 0.985 . S
H660 N654 0.984 . S
H661 N654 0.984 . S
H662 N650 0.984 . S
H663 N650 0.985 . S
C664 C665 1.363 . S
C664 C670 1.379 . S
C664 N672 1.356 . S
C665 C664 1.363 . S
C665 C671 1.363 . S
C666 C667 1.363 . S
C666 C671 1.379 . S
C666 N673 1.356 . S
C667 C666 1.363 . S
C667 C670 1.363 . S
N668 C670 1.356 . S
N668 H680 0.984 . S
N668 H681 0.985 . S
N669 C671 1.356 . S
N669 H674 0.984 . S
N669 H675 0.985 . S
C670 C664 1.379 . S
C670 C667 1.363 . S
C670 N668 1.356 . S
C671 C665 1.363 . S
C671 C666 1.379 . S
C671 N669 1.356 . S
N672 C664 1.356 . S
N672 H678 0.984 . S
N672 H679 0.984 . S
N673 C666 1.356 . S
N673 H676 0.984 . S
N673 H677 0.985 . S
H674 N669 0.984 . S
H675 N669 0.985 . S
H676 N673 0.984 . S
H677 N673 0.985 . S
H678 N672 0.984 . S
H679 N672 0.984 . S
H680 N668 0.984 . S
H681 N668 0.985 . S
C682 C683 1.363 . S
C682 C688 1.379 . S
C682 N690 1.356 . S
C683 C682 1.363 . S
C683 C689 1.363 . S
C684 C685 1.363 . S
C684 C689 1.379 . S
C684 N691 1.356 . S
C685 C684 1.363 . S
C685 C688 1.363 . S
N686 C688 1.356 . S
N686 H698 0.984 . S
N686 H699 0.985 . S
N687 C689 1.356 . S
N687 H692 0.984 . S
N687 H693 0.985 . S
C688 C682 1.379 . S
C688 C685 1.363 . S
C688 N686 1.356 . S
C689 C683 1.363 . S
C689 C684 1.379 . S
C689 N687 1.356 . S
N690 C682 1.356 . S
N690 H696 0.984 . S
N690 H697 0.984 . S
N691 C684 1.356 . S
N691 H694 0.984 . S
N691 H695 0.985 . S
H692 N687 0.984 . S
H693 N687 0.985 . S
H694 N691 0.984 . S
H695 N691 0.985 . S
H696 N690 0.984 . S
H697 N690 0.984 . S
H698 N686 0.984 . S
H699 N686 0.985 . S
C700 C701 1.363 . S
C700 C706 1.379 . S
C700 N708 1.356 . S
C701 C700 1.363 . S
C701 C707 1.363 . S
C702 C703 1.363 . S
C702 C707 1.379 . S
C702 N709 1.356 . S
C703 C702 1.363 . S
C703 C706 1.363 . S
N704 C706 1.356 . S
N704 H716 0.984 . S
N704 H717 0.985 . S
N705 C707 1.356 . S
N705 H710 0.984 . S
N705 H711 0.985 . S
C706 C700 1.379 . S
C706 C703 1.363 . S
C706 N704 1.356 . S
C707 C701 1.363 . S
C707 C702 1.379 . S
C707 N705 1.356 . S
N708 C700 1.356 . S
N708 H714 0.984 . S
N708 H715 0.984 . S
N709 C702 1.356 . S
N709 H712 0.984 . S
N709 H713 0.985 . S
H710 N705 0.984 . S
H711 N705 0.985 . S
H712 N709 0.984 . S
H713 N709 0.985 . S
H714 N708 0.984 . S
H715 N708 0.984 . S
H716 N704 0.984 . S
H717 N704 0.985 . S
C718 C719 1.363 . S
C718 C724 1.379 . S
C718 N726 1.356 . S
C719 C718 1.363 . S
C719 C725 1.363 . S
C720 C721 1.363 . S
C720 C725 1.379 . S
C720 N727 1.356 . S
C721 C720 1.363 . S
C721 C724 1.363 . S
N722 C724 1.356 . S
N722 H734 0.984 . S
N722 H735 0.985 . S
N723 C725 1.356 . S
N723 H728 0.984 . S
N723 H729 0.985 . S
C724 C718 1.379 . S
C724 C721 1.363 . S
C724 N722 1.356 . S
C725 C719 1.363 . S
C725 C720 1.379 . S
C725 N723 1.356 . S
N726 C718 1.356 . S
N726 H732 0.984 . S
N726 H733 0.984 . S
N727 C720 1.356 . S
N727 H730 0.984 . S
N727 H731 0.985 . S
H728 N723 0.984 . S
H729 N723 0.985 . S
H730 N727 0.984 . S
H731 N727 0.985 . S
H732 N726 0.984 . S
H733 N726 0.984 . S
H734 N722 0.984 . S
H735 N722 0.985 . S
C736 C737 1.363 1_455 S
C736 C742 1.379 . S
C736 N744 1.359 . S
C737 C736 1.363 1_655 S
C737 C743 1.363 . S
C738 C739 1.363 1_655 S
C738 C743 1.379 . S
C738 N745 1.359 . S
C739 C738 1.363 1_455 S
C739 C742 1.363 . S
N740 C742 1.356 . S
N740 H752 0.984 . S
N740 H753 0.985 . S
N741 C743 1.356 . S
N741 H746 0.984 . S
N741 H747 0.985 . S
C742 C736 1.379 . S
C742 C739 1.363 . S
C742 N740 1.356 . S
C743 C737 1.363 . S
C743 C738 1.379 . S
C743 N741 1.356 . S
N744 C736 1.359 . S
N744 H750 0.998 . S
N744 H751 0.969 1_455 S
N745 C738 1.359 . S
N745 H748 0.969 1_655 S
N745 H749 0.998 . S
H746 N741 0.984 . S
H747 N741 0.985 . S
H748 N745 0.969 1_455 S
H749 N745 0.998 . S
H750 N744 0.998 . S
H751 N744 0.969 1_655 S
H752 N740 0.984 . S
H753 N740 0.985 . S
C754 C755 1.363 . S
C754 C760 1.379 1_565 S
C754 N762 1.356 . S
C755 C754 1.363 . S
C755 C761 1.363 . S
C756 C757 1.363 . S
C756 C761 1.379 1_545 S
C756 N763 1.356 . S
C757 C756 1.363 . S
C757 C760 1.363 . S
N758 C760 1.356 . S
N758 H770 0.984 . S
N758 H771 0.985 . S
N759 C761 1.356 . S
N759 H764 0.984 . S
N759 H765 0.985 . S
C760 C754 1.379 1_545 S
C760 C757 1.363 . S
C760 N758 1.356 . S
C761 C755 1.363 . S
C761 C756 1.379 1_565 S
C761 N759 1.356 . S
N762 C754 1.356 . S
N762 H768 0.984 . S
N762 H769 0.984 . S
N763 C756 1.356 . S
N763 H766 0.984 . S
N763 H767 0.985 . S
H764 N759 0.984 . S
H765 N759 0.985 . S
H766 N763 0.984 . S
H767 N763 0.985 . S
H768 N762 0.984 . S
H769 N762 0.984 . S
H770 N758 0.984 . S
H771 N758 0.985 . S
C772 C773 1.349 1_654 S
C772 C778 1.379 1_565 S
C772 N780 1.357 . S
C773 C772 1.349 1_456 S
C773 C779 1.376 . S
C774 C775 1.347 1_456 S
C774 C779 1.379 1_545 S
C774 N781 1.357 . S
C775 C774 1.347 1_654 S
C775 C778 1.379 . S
N776 C778 1.356 . S
N776 H788 0.984 . S
N776 H789 0.985 . S
N777 C779 1.356 . S
N777 H782 0.984 . S
N777 H783 0.985 . S
C778 C772 1.379 1_545 S
C778 C775 1.379 . S
C778 N776 1.356 . S
C779 C773 1.376 . S
C779 C774 1.379 1_565 S
C779 N777 1.356 . S
N780 C772 1.357 . S
N780 H786 0.991 . S
N780 H787 0.977 1_655 S
N781 C774 1.357 . S
N781 H784 0.977 1_455 S
N781 H785 0.991 . S
H782 N777 0.984 . S
H783 N777 0.985 . S
H784 N781 0.977 1_655 S
H785 N781 0.991 . S
H786 N780 0.991 . S
H787 N780 0.977 1_455 S
H788 N776 0.984 . S
H789 N776 0.985 . S
C790 C791 1.379 . S
C790 C796 1.379 . S
C790 N798 1.356 . S
C791 C790 1.379 . S
C791 C797 1.346 1_554 S
C792 C793 1.377 . S
C792 C797 1.379 . S
C792 N799 1.356 . S
C793 C792 1.377 . S
C793 C796 1.349 1_556 S
N794 C796 1.356 . S
N794 H806 0.984 . S
N794 H807 0.985 . S
N795 C797 1.356 . S
N795 H800 0.984 . S
N795 H801 0.985 . S
C796 C790 1.379 . S
C796 C793 1.349 1_554 S
C796 N794 1.356 . S
C797 C791 1.346 1_556 S
C797 C792 1.379 . S
C797 N795 1.356 . S
N798 C790 1.356 . S
N798 H804 0.984 . S
N798 H805 0.984 . S
N799 C792 1.356 . S
N799 H802 0.984 . S
N799 H803 0.985 . S
H800 N795 0.984 . S
H801 N795 0.985 . S
H802 N799 0.984 . S
H803 N799 0.985 . S
H804 N798 0.984 . S
H805 N798 0.984 . S
H806 N794 0.984 . S
H807 N794 0.985 . S
C808 C809 1.363 1_455 S
C808 C814 1.379 . S
C808 N816 1.357 . S
C809 C808 1.363 1_655 S
C809 C815 1.363 . S
C810 C811 1.363 1_655 S
C810 C815 1.379 . S
C810 N817 1.357 . S
C811 C810 1.363 1_455 S
C811 C814 1.363 . S
N812 C814 1.356 . S
N812 H824 0.984 . S
N812 H825 0.985 . S
N813 C815 1.356 . S
N813 H818 0.984 . S
N813 H819 0.985 . S
C814 C808 1.379 . S
C814 C811 1.363 . S
C814 N812 1.356 . S
C815 C809 1.363 . S
C815 C810 1.379 . S
C815 N813 1.356 . S
N816 C808 1.357 . S
N816 H822 0.990 . S
N816 H823 0.978 1_455 S
N817 C810 1.357 . S
N817 H820 0.978 1_655 S
N817 H821 0.990 . S
H818 N813 0.984 . S
H819 N813 0.985 . S
H820 N817 0.978 1_455 S
H821 N817 0.990 . S
H822 N816 0.990 . S
H823 N816 0.978 1_655 S
H824 N812 0.984 . S
H825 N812 0.985 . S
C826 C827 1.363 . S
C826 C832 1.379 1_565 S
C826 N834 1.356 . S
C827 C826 1.363 . S
C827 C833 1.363 . S
C828 C829 1.363 . S
C828 C833 1.379 1_545 S
C828 N835 1.356 . S
C829 C828 1.363 . S
C829 C832 1.363 . S
N830 C832 1.356 . S
N830 H842 0.984 . S
N830 H843 0.985 . S
N831 C833 1.356 . S
N831 H836 0.984 . S
N831 H837 0.985 . S
C832 C826 1.379 1_545 S
C832 C829 1.363 . S
C832 N830 1.356 . S
C833 C827 1.363 . S
C833 C828 1.379 1_565 S
C833 N831 1.356 . S
N834 C826 1.356 . S
N834 H840 0.984 . S
N834 H841 0.984 . S
N835 C828 1.356 . S
N835 H838 0.984 . S
N835 H839 0.985 . S
H836 N831 0.984 . S
H837 N831 0.985 . S
H838 N835 0.984 . S
H839 N835 0.985 . S
H840 N834 0.984 . S
H841 N834 0.984 . S
H842 N830 0.984 . S
H843 N830 0.985 . S
C844 C845 1.349 1_554 S
C844 C850 1.379 . S
C844 N852 1.356 . S
C845 C844 1.349 1_556 S
C845 C851 1.377 . S
C846 C847 1.347 1_556 S
C846 C851 1.379 . S
C846 N853 1.356 . S
C847 C846 1.347 1_554 S
C847 C850 1.379 . S
N848 C850 1.356 . S
N848 H860 0.984 . S
N848 H861 0.985 . S
N849 C851 1.356 . S
N849 H854 0.984 . S
N849 H855 0.985 . S
C850 C844 1.379 . S
C850 C847 1.379 . S
C850 N848 1.356 . S
C851 C845 1.377 . S
C851 C846 1.379 . S
C851 N849 1.356 . S
N852 C844 1.356 . S
N852 H858 0.984 . S
N852 H859 0.984 . S
N853 C846 1.356 . S
N853 H856 0.984 . S
N853 H857 0.985 . S
H854 N849 0.984 . S
H855 N849 0.985 . S
H856 N853 0.984 . S
H857 N853 0.985 . S
H858 N852 0.984 . S
H859 N852 0.984 . S
H860 N848 0.984 . S
H861 N848 0.985 . S
C862 C863 1.363 . S
C862 C868 1.379 . S
C862 N870 1.356 . S
C863 C862 1.363 . S
C863 C869 1.363 . S
C864 C865 1.363 . S
C864 C869 1.379 . S
C864 N871 1.356 . S
C865 C864 1.363 . S
C865 C868 1.363 . S
N866 C868 1.356 . S
N866 H878 0.984 . S
N866 H879 0.985 . S
N867 C869 1.356 . S
N867 H872 0.984 . S
N867 H873 0.985 . S
C868 C862 1.379 . S
C868 C865 1.363 . S
C868 N866 1.356 . S
C869 C863 1.363 . S
C869 C864 1.379 . S
C869 N867 1.356 . S
N870 C862 1.356 . S
N870 H876 0.984 . S
N870 H877 0.984 . S
N871 C864 1.356 . S
N871 H874 0.984 . S
N871 H875 0.985 . S
H872 N867 0.984 . S
H873 N867 0.985 . S
H874 N871 0.984 . S
H875 N871 0.985 . S
H876 N870 0.984 . S
H877 N870 0.984 . S
H878 N866 0.984 . S
H879 N866 0.985 . S
C880 C881 1.363 1_455 S
C880 C886 1.379 . S
C880 N888 1.356 1_455 S
C881 C880 1.363 1_655 S
C881 C887 1.363 . S
C882 C883 1.363 1_655 S
C882 C887 1.379 . S
C882 N889 1.356 1_655 S
C883 C882 1.363 1_455 S
C883 C886 1.363 . S
N884 C886 1.356 . S
N884 H896 0.984 . S
N884 H897 0.985 . S
N885 C887 1.356 . S
N885 H890 0.984 . S
N885 H891 0.985 . S
C886 C880 1.379 . S
C886 C883 1.363 . S
C886 N884 1.356 . S
C887 C881 1.363 . S
C887 C882 1.379 . S
C887 N885 1.356 . S
N888 C880 1.356 1_655 S
N888 H894 0.984 1_655 S
N888 H895 0.984 . S
N889 C882 1.356 1_455 S
N889 H892 0.984 . S
N889 H893 0.985 1_455 S
H890 N885 0.984 . S
H891 N885 0.985 . S
H892 N889 0.984 . S
H893 N889 0.985 1_655 S
H894 N888 0.984 1_455 S
H895 N888 0.984 . S
H896 N884 0.984 . S
H897 N884 0.985 . S
C898 C899 1.363 . S
C898 C904 1.379 . S
C898 N906 1.356 . S
C899 C898 1.363 . S
C899 C905 1.363 . S
C900 C901 1.363 . S
C900 C905 1.379 . S
C900 N907 1.356 . S
C901 C900 1.363 . S
C901 C904 1.363 . S
N902 C904 1.356 . S
N902 H914 0.984 . S
N902 H915 0.985 . S
N903 C905 1.356 . S
N903 H908 0.984 . S
N903 H909 0.985 . S
C904 C898 1.379 . S
C904 C901 1.363 . S
C904 N902 1.356 . S
C905 C899 1.363 . S
C905 C900 1.379 . S
C905 N903 1.356 . S
N906 C898 1.356 . S
N906 H912 0.984 . S
N906 H913 0.984 . S
N907 C900 1.356 . S
N907 H910 0.984 . S
N907 H911 0.985 . S
H908 N903 0.984 . S
H909 N903 0.985 . S
H910 N907 0.984 . S
H911 N907 0.985 . S
H912 N906 0.984 . S
H913 N906 0.984 . S
H914 N902 0.984 . S
H915 N902 0.985 . S
C916 C917 1.363 . S
C916 C922 1.379 . S
C916 N924 1.356 . S
C917 C916 1.363 . S
C917 C923 1.363 . S
C918 C919 1.363 . S
C918 C923 1.379 . S
C918 N925 1.356 . S
C919 C918 1.363 . S
C919 C922 1.363 . S
N920 C922 1.356 . S
N920 H932 0.984 . S
N920 H933 0.985 . S
N921 C923 1.356 . S
N921 H926 0.984 . S
N921 H927 0.985 . S
C922 C916 1.379 . S
C922 C919 1.363 . S
C922 N920 1.356 . S
C923 C917 1.363 . S
C923 C918 1.379 . S
C923 N921 1.356 . S
N924 C916 1.356 . S
N924 H930 0.984 . S
N924 H931 0.984 . S
N925 C918 1.356 . S
N925 H928 0.984 . S
N925 H929 0.985 . S
H926 N921 0.984 . S
H927 N921 0.985 . S
H928 N925 0.984 . S
H929 N925 0.985 . S
H930 N924 0.984 . S
H931 N924 0.984 . S
H932 N920 0.984 . S
H933 N920 0.985 . S
C934 C935 1.363 . S
C934 C940 1.379 . S
C934 N942 1.356 . S
C935 C934 1.363 . S
C935 C941 1.363 . S
C936 C937 1.363 . S
C936 C941 1.379 . S
C936 N943 1.356 . S
C937 C936 1.363 . S
C937 C940 1.363 . S
N938 C940 1.356 . S
N938 H950 0.984 . S
N938 H951 0.985 . S
N939 C941 1.356 . S
N939 H944 0.984 . S
N939 H945 0.985 . S
C940 C934 1.379 . S
C940 C937 1.363 . S
C940 N938 1.356 . S
C941 C935 1.363 . S
C941 C936 1.379 . S
C941 N939 1.356 . S
N942 C934 1.356 . S
N942 H948 0.984 . S
N942 H949 0.984 . S
N943 C936 1.356 . S
N943 H946 0.984 . S
N943 H947 0.985 . S
H944 N939 0.984 . S
H945 N939 0.985 . S
H946 N943 0.984 . S
H947 N943 0.985 . S
H948 N942 0.984 . S
H949 N942 0.984 . S
H950 N938 0.984 . S
H951 N938 0.985 . S
C952 C953 1.363 . S
C952 C958 1.379 . S
C952 N960 1.356 . S
C953 C952 1.363 . S
C953 C959 1.363 . S
C954 C955 1.363 . S
C954 C959 1.379 . S
C954 N961 1.356 . S
C955 C954 1.363 . S
C955 C958 1.363 . S
N956 C958 1.356 . S
N956 H968 0.984 . S
N956 H969 0.985 . S
N957 C959 1.356 . S
N957 H962 0.984 . S
N957 H963 0.985 . S
C958 C952 1.379 . S
C958 C955 1.363 . S
C958 N956 1.356 . S
C959 C953 1.363 . S
C959 C954 1.379 . S
C959 N957 1.356 . S
N960 C952 1.356 . S
N960 H966 0.984 . S
N960 H967 0.984 . S
N961 C954 1.356 . S
N961 H964 0.984 . S
N961 H965 0.985 . S
H962 N957 0.984 . S
H963 N957 0.985 . S
H964 N961 0.984 . S
H965 N961 0.985 . S
H966 N960 0.984 . S
H967 N960 0.984 . S
H968 N956 0.984 . S
H969 N956 0.985 . S
C970 C971 1.363 . S
C970 C976 1.379 1_545 S
C970 N978 1.356 . S
C971 C970 1.363 . S
C971 C977 1.363 . S
C972 C973 1.363 . S
C972 C977 1.379 1_565 S
C972 N979 1.356 . S
C973 C972 1.363 . S
C973 C976 1.363 . S
N974 C976 1.356 . S
N974 H986 0.984 . S
N974 H987 0.985 . S
N975 C977 1.356 . S
N975 H980 0.984 . S
N975 H981 0.985 . S
C976 C970 1.379 1_565 S
C976 C973 1.363 . S
C976 N974 1.356 . S
C977 C971 1.363 . S
C977 C972 1.379 1_545 S
C977 N975 1.356 . S
N978 C970 1.356 . S
N978 H984 0.984 . S
N978 H985 0.984 . S
N979 C972 1.356 . S
N979 H982 0.984 . S
N979 H983 0.985 . S
H980 N975 0.984 . S
H981 N975 0.985 . S
H982 N979 0.984 . S
H983 N979 0.985 . S
H984 N978 0.984 . S
H985 N978 0.984 . S
H986 N974 0.984 . S
H987 N974 0.985 . S
C988 C989 1.363 . S
C988 C994 1.379 . S
C988 N996 1.356 . S
C989 C988 1.363 . S
C989 C995 1.363 . S
C990 C991 1.363 . S
C990 C995 1.379 . S
C990 N997 1.356 . S
C991 C990 1.363 . S
C991 C994 1.363 . S
N992 C994 1.356 . S
N992 H1004 0.984 . S
N992 H1005 0.985 . S
N993 C995 1.356 . S
N993 H998 0.984 . S
N993 H999 0.985 . S
C994 C988 1.379 . S
C994 C991 1.363 . S
C994 N992 1.356 . S
C995 C989 1.363 . S
C995 C990 1.379 . S
C995 N993 1.356 . S
N996 C988 1.356 . S
N996 H1002 0.984 . S
N996 H1003 0.984 . S
N997 C990 1.356 . S
N997 H1000 0.984 . S
N997 H1001 0.985 . S
H998 N993 0.984 . S
H999 N993 0.985 . S
H1000 N997 0.984 . S
H1001 N997 0.985 . S
H1002 N996 0.984 . S
H1003 N996 0.984 . S
H1004 N992 0.984 . S
H1005 N992 0.985 . S
C1006 C1007 1.348 1_554 S
C1006 C1012 1.379 . S
C1006 N1014 1.356 . S
C1007 C1006 1.348 1_556 S
C1007 C1013 1.378 . S
C1008 C1009 1.345 1_556 S
C1008 C1013 1.379 . S
C1008 N1015 1.356 . S
C1009 C1008 1.345 1_554 S
C1009 C1012 1.381 . S
N1010 C1012 1.356 . S
N1010 H1022 0.984 . S
N1010 H1023 0.985 . S
N1011 C1013 1.356 . S
N1011 H1016 0.984 . S
N1011 H1017 0.985 . S
C1012 C1006 1.379 . S
C1012 C1009 1.381 . S
C1012 N1010 1.356 . S
C1013 C1007 1.378 . S
C1013 C1008 1.379 . S
C1013 N1011 1.356 . S
N1014 C1006 1.356 . S
N1014 H1020 0.984 . S
N1014 H1021 0.984 . S
N1015 C1008 1.356 . S
N1015 H1018 0.984 . S
N1015 H1019 0.985 . S
H1016 N1011 0.984 . S
H1017 N1011 0.985 . S
H1018 N1015 0.984 . S
H1019 N1015 0.985 . S
H1020 N1014 0.984 . S
H1021 N1014 0.984 . S
H1022 N1010 0.984 . S
H1023 N1010 0.985 . S
C1024 C1025 1.363 . S
C1024 C1030 1.379 . S
C1024 N1032 1.356 . S
C1025 C1024 1.363 . S
C1025 C1031 1.363 . S
C1026 C1027 1.363 . S
C1026 C1031 1.379 . S
C1026 N1033 1.356 . S
C1027 C1026 1.363 . S
C1027 C1030 1.363 . S
N1028 C1030 1.356 . S
N1028 H1040 0.984 . S
N1028 H1041 0.985 . S
N1029 C1031 1.356 . S
N1029 H1034 0.984 . S
N1029 H1035 0.985 . S
C1030 C1024 1.379 . S
C1030 C1027 1.363 . S
C1030 N1028 1.356 . S
C1031 C1025 1.363 . S
C1031 C1026 1.379 . S
C1031 N1029 1.356 . S
N1032 C1024 1.356 . S
N1032 H1038 0.984 . S
N1032 H1039 0.984 . S
N1033 C1026 1.356 . S
N1033 H1036 0.984 . S
N1033 H1037 0.985 . S
H1034 N1029 0.984 . S
H1035 N1029 0.985 . S
H1036 N1033 0.984 . S
H1037 N1033 0.985 . S
H1038 N1032 0.984 . S
H1039 N1032 0.984 . S
H1040 N1028 0.984 . S
H1041 N1028 0.985 . S
C1042 C1043 1.363 . S
C1042 C1048 1.379 . S
C1042 N1050 1.356 1_455 S
C1043 C1042 1.363 . S
C1043 C1049 1.363 . S
C1044 C1045 1.363 . S
C1044 C1049 1.379 . S
C1044 N1051 1.356 . S
C1045 C1044 1.363 . S
C1045 C1048 1.363 . S
N1046 C1048 1.356 1_655 S
N1046 H1058 0.984 . S
N1046 H1059 0.985 1_655 S
N1047 C1049 1.356 . S
N1047 H1052 0.984 . S
N1047 H1053 0.985 . S
C1048 C1042 1.379 . S
C1048 C1045 1.363 . S
C1048 N1046 1.356 1_455 S
C1049 C1043 1.363 . S
C1049 C1044 1.379 . S
C1049 N1047 1.356 . S
N1050 C1042 1.356 1_655 S
N1050 H1056 0.984 . S
N1050 H1057 0.984 1_655 S
N1051 C1044 1.356 . S
N1051 H1054 0.984 . S
N1051 H1055 0.985 . S
H1052 N1047 0.984 . S
H1053 N1047 0.985 . S
H1054 N1051 0.984 . S
H1055 N1051 0.985 . S
H1056 N1050 0.984 . S
H1057 N1050 0.984 1_455 S
H1058 N1046 0.984 . S
H1059 N1046 0.985 1_455 S
C1060 C1061 1.363 . S
C1060 C1066 1.379 . S
C1060 N1068 1.356 . S
C1061 C1060 1.363 . S
C1061 C1067 1.363 . S
C1062 C1063 1.363 . S
C1062 C1067 1.379 . S
C1062 N1069 1.356 . S
C1063 C1062 1.363 . S
C1063 C1066 1.363 . S
N1064 C1066 1.356 . S
N1064 H1076 0.984 . S
N1064 H1077 0.985 . S
N1065 C1067 1.356 . S
N1065 H1070 0.984 . S
N1065 H1071 0.985 . S
C1066 C1060 1.379 . S
C1066 C1063 1.363 . S
C1066 N1064 1.356 . S
C1067 C1061 1.363 . S
C1067 C1062 1.379 . S
C1067 N1065 1.356 . S
N1068 C1060 1.356 . S
N1068 H1074 0.984 . S
N1068 H1075 0.984 . S
N1069 C1062 1.356 . S
N1069 H1072 0.984 . S
N1069 H1073 0.985 . S
H1070 N1065 0.984 . S
H1071 N1065 0.985 . S
H1072 N1069 0.984 . S
H1073 N1069 0.985 . S
H1074 N1068 0.984 . S
H1075 N1068 0.984 . S
H1076 N1064 0.984 . S
H1077 N1064 0.985 . S
C1078 C1079 1.363 . S
C1078 C1084 1.379 . S
C1078 N1086 1.356 . S
C1079 C1078 1.363 . S
C1079 C1085 1.363 . S
C1080 C1081 1.363 . S
C1080 C1085 1.379 . S
C1080 N1087 1.356 . S
C1081 C1080 1.363 . S
C1081 C1084 1.363 . S
N1082 C1084 1.356 . S
N1082 H1094 0.984 . S
N1082 H1095 0.985 . S
N1083 C1085 1.356 . S
N1083 H1088 0.984 . S
N1083 H1089 0.985 . S
C1084 C1078 1.379 . S
C1084 C1081 1.363 . S
C1084 N1082 1.356 . S
C1085 C1079 1.363 . S
C1085 C1080 1.379 . S
C1085 N1083 1.356 . S
N1086 C1078 1.356 . S
N1086 H1092 0.984 . S
N1086 H1093 0.984 . S
N1087 C1080 1.356 . S
N1087 H1090 0.984 . S
N1087 H1091 0.985 . S
H1088 N1083 0.984 . S
H1089 N1083 0.985 . S
H1090 N1087 0.984 . S
H1091 N1087 0.985 . S
H1092 N1086 0.984 . S
H1093 N1086 0.984 . S
H1094 N1082 0.984 . S
H1095 N1082 0.985 . S
C1096 C1097 1.363 . S
C1096 C1102 1.379 . S
C1096 N1104 1.356 . S
C1097 C1096 1.363 . S
C1097 C1103 1.363 . S
C1098 C1099 1.363 . S
C1098 C1103 1.379 . S
C1098 N1105 1.356 . S
C1099 C1098 1.363 . S
C1099 C1102 1.363 . S
N1100 C1102 1.356 . S
N1100 H1112 0.984 . S
N1100 H1113 0.985 . S
N1101 C1103 1.356 . S
N1101 H1106 0.984 . S
N1101 H1107 0.985 . S
C1102 C1096 1.379 . S
C1102 C1099 1.363 . S
C1102 N1100 1.356 . S
C1103 C1097 1.363 . S
C1103 C1098 1.379 . S
C1103 N1101 1.356 . S
N1104 C1096 1.356 . S
N1104 H1110 0.984 . S
N1104 H1111 0.984 . S
N1105 C1098 1.356 . S
N1105 H1108 0.984 . S
N1105 H1109 0.985 . S
H1106 N1101 0.984 . S
H1107 N1101 0.985 . S
H1108 N1105 0.984 . S
H1109 N1105 0.985 . S
H1110 N1104 0.984 . S
H1111 N1104 0.984 . S
H1112 N1100 0.984 . S
H1113 N1100 0.985 . S
C1114 C1115 1.363 . S
C1114 C1120 1.379 . S
C1114 N1122 1.356 . S
C1115 C1114 1.363 . S
C1115 C1121 1.363 . S
C1116 C1117 1.363 . S
C1116 C1121 1.379 . S
C1116 N1123 1.356 . S
C1117 C1116 1.363 . S
C1117 C1120 1.363 . S
N1118 C1120 1.356 . S
N1118 H1130 0.984 . S
N1118 H1131 0.985 . S
N1119 C1121 1.356 . S
N1119 H1124 0.984 . S
N1119 H1125 0.985 . S
C1120 C1114 1.379 . S
C1120 C1117 1.363 . S
C1120 N1118 1.356 . S
C1121 C1115 1.363 . S
C1121 C1116 1.379 . S
C1121 N1119 1.356 . S
N1122 C1114 1.356 . S
N1122 H1128 0.984 . S
N1122 H1129 0.984 . S
N1123 C1116 1.356 . S
N1123 H1126 0.984 . S
N1123 H1127 0.985 . S
H1124 N1119 0.984 . S
H1125 N1119 0.985 . S
H1126 N1123 0.984 . S
H1127 N1123 0.985 . S
H1128 N1122 0.984 . S
H1129 N1122 0.984 . S
H1130 N1118 0.984 . S
H1131 N1118 0.985 . S
C1132 C1133 1.363 . S
C1132 C1138 1.379 . S
C1132 N1140 1.356 . S
C1133 C1132 1.363 . S
C1133 C1139 1.363 . S
C1134 C1135 1.363 . S
C1134 C1139 1.379 . S
C1134 N1141 1.356 . S
C1135 C1134 1.363 . S
C1135 C1138 1.363 . S
N1136 C1138 1.356 . S
N1136 H1148 0.984 . S
N1136 H1149 0.985 . S
N1137 C1139 1.356 . S
N1137 H1142 0.984 . S
N1137 H1143 0.985 . S
C1138 C1132 1.379 . S
C1138 C1135 1.363 . S
C1138 N1136 1.356 . S
C1139 C1133 1.363 . S
C1139 C1134 1.379 . S
C1139 N1137 1.356 . S
N1140 C1132 1.356 . S
N1140 H1146 0.984 . S
N1140 H1147 0.984 . S
N1141 C1134 1.356 . S
N1141 H1144 0.984 . S
N1141 H1145 0.985 . S
H1142 N1137 0.984 . S
H1143 N1137 0.985 . S
H1144 N1141 0.984 . S
H1145 N1141 0.985 . S
H1146 N1140 0.984 . S
H1147 N1140 0.984 . S
H1148 N1136 0.984 . S
H1149 N1136 0.985 . S
C1150 C1151 1.363 . S
C1150 C1156 1.379 . S
C1150 N1158 1.356 . S
C1151 C1150 1.363 . S
C1151 C1157 1.363 . S
C1152 C1153 1.363 . S
C1152 C1157 1.379 . S
C1152 N1159 1.356 . S
C1153 C1152 1.363 . S
C1153 C1156 1.363 . S
N1154 C1156 1.356 . S
N1154 H1166 0.984 . S
N1154 H1167 0.985 . S
N1155 C1157 1.356 . S
N1155 H1160 0.984 . S
N1155 H1161 0.985 1_655 S
C1156 C1150 1.379 . S
C1156 C1153 1.363 . S
C1156 N1154 1.356 . S
C1157 C1151 1.363 . S
C1157 C1152 1.379 . S
C1157 N1155 1.356 . S
N1158 C1150 1.356 . S
N1158 H1164 0.984 . S
N1158 H1165 0.984 . S
N1159 C1152 1.356 . S
N1159 H1162 0.984 . S
N1159 H1163 0.985 1_655 S
H1160 N1155 0.984 . S
H1161 N1155 0.985 1_455 S
H1162 N1159 0.984 . S
H1163 N1159 0.985 1_455 S
H1164 N1158 0.984 . S
H1165 N1158 0.984 . S
H1166 N1154 0.984 . S
H1167 N1154 0.985 . S
C1168 C1169 1.363 . S
C1168 C1174 1.379 . S
C1168 N1176 1.356 . S
C1169 C1168 1.363 . S
C1169 C1175 1.363 . S
C1170 C1171 1.363 . S
C1170 C1175 1.379 . S
C1170 N1177 1.356 . S
C1171 C1170 1.363 . S
C1171 C1174 1.363 . S
N1172 C1174 1.356 . S
N1172 H1184 0.984 . S
N1172 H1185 0.985 . S
N1173 C1175 1.356 . S
N1173 H1178 0.984 . S
N1173 H1179 0.985 . S
C1174 C1168 1.379 . S
C1174 C1171 1.363 . S
C1174 N1172 1.356 . S
C1175 C1169 1.363 . S
C1175 C1170 1.379 . S
C1175 N1173 1.356 . S
N1176 C1168 1.356 . S
N1176 H1182 0.984 . S
N1176 H1183 0.984 . S
N1177 C1170 1.356 . S
N1177 H1180 0.984 . S
N1177 H1181 0.985 . S
H1178 N1173 0.984 . S
H1179 N1173 0.985 . S
H1180 N1177 0.984 . S
H1181 N1177 0.985 . S
H1182 N1176 0.984 . S
H1183 N1176 0.984 . S
H1184 N1172 0.984 . S
H1185 N1172 0.985 . S
C1186 C1187 1.363 . S
C1186 C1192 1.379 . S
C1186 N1194 1.356 . S
C1187 C1186 1.363 . S
C1187 C1193 1.363 . S
C1188 C1189 1.363 . S
C1188 C1193 1.379 . S
C1188 N1195 1.356 . S
C1189 C1188 1.363 . S
C1189 C1192 1.363 . S
N1190 C1192 1.356 . S
N1190 H1202 0.984 . S
N1190 H1203 0.985 . S
N1191 C1193 1.356 . S
N1191 H1196 0.984 . S
N1191 H1197 0.985 . S
C1192 C1186 1.379 . S
C1192 C1189 1.363 . S
C1192 N1190 1.356 . S
C1193 C1187 1.363 . S
C1193 C1188 1.379 . S
C1193 N1191 1.356 . S
N1194 C1186 1.356 . S
N1194 H1200 0.984 . S
N1194 H1201 0.984 . S
N1195 C1188 1.356 . S
N1195 H1198 0.984 . S
N1195 H1199 0.985 . S
H1196 N1191 0.984 . S
H1197 N1191 0.985 . S
H1198 N1195 0.984 . S
H1199 N1195 0.985 . S
H1200 N1194 0.984 . S
H1201 N1194 0.984 . S
H1202 N1190 0.984 . S
H1203 N1190 0.985 . S
C1204 C1205 1.363 . S
C1204 C1210 1.379 . S
C1204 N1212 1.356 . S
C1205 C1204 1.363 . S
C1205 C1211 1.363 . S
C1206 C1207 1.363 . S
C1206 C1211 1.379 . S
C1206 N1213 1.356 . S
C1207 C1206 1.363 . S
C1207 C1210 1.363 . S
N1208 C1210 1.356 . S
N1208 H1220 0.984 . S
N1208 H1221 0.985 . S
N1209 C1211 1.356 . S
N1209 H1214 0.984 . S
N1209 H1215 0.985 . S
C1210 C1204 1.379 . S
C1210 C1207 1.363 . S
C1210 N1208 1.356 . S
C1211 C1205 1.363 . S
C1211 C1206 1.379 . S
C1211 N1209 1.356 . S
N1212 C1204 1.356 . S
N1212 H1218 0.984 . S
N1212 H1219 0.984 . S
N1213 C1206 1.356 . S
N1213 H1216 0.984 . S
N1213 H1217 0.985 . S
H1214 N1209 0.984 . S
H1215 N1209 0.985 . S
H1216 N1213 0.984 . S
H1217 N1213 0.985 . S
H1218 N1212 0.984 . S
H1219 N1212 0.984 . S
H1220 N1208 0.984 . S
H1221 N1208 0.985 . S
C1222 C1223 1.363 . S
C1222 C1228 1.379 . S
C1222 N1230 1.356 . S
C1223 C1222 1.363 . S
C1223 C1229 1.363 . S
C1224 C1225 1.363 . S
C1224 C1229 1.379 . S
C1224 N1231 1.356 . S
C1225 C1224 1.363 . S
C1225 C1228 1.363 . S
N1226 C1228 1.356 . S
N1226 H1238 0.984 . S
N1226 H1239 0.985 . S
N1227 C1229 1.356 . S
N1227 H1232 0.984 . S
N1227 H1233 0.985 . S
C1228 C1222 1.379 . S
C1228 C1225 1.363 . S
C1228 N1226 1.356 . S
C1229 C1223 1.363 . S
C1229 C1224 1.379 . S
C1229 N1227 1.356 . S
N1230 C1222 1.356 . S
N1230 H1236 0.984 . S
N1230 H1237 0.984 . S
N1231 C1224 1.356 . S
N1231 H1234 0.984 . S
N1231 H1235 0.985 . S
H1232 N1227 0.984 . S
H1233 N1227 0.985 . S
H1234 N1231 0.984 . S
H1235 N1231 0.985 . S
H1236 N1230 0.984 . S
H1237 N1230 0.984 . S
H1238 N1226 0.984 . S
H1239 N1226 0.985 . S
C1240 C1241 1.363 . S
C1240 C1246 1.379 . S
C1240 N1248 1.356 . S
C1241 C1240 1.363 . S
C1241 C1247 1.363 . S
C1242 C1243 1.363 . S
C1242 C1247 1.379 . S
C1242 N1249 1.356 . S
C1243 C1242 1.363 . S
C1243 C1246 1.363 . S
N1244 C1246 1.356 . S
N1244 H1256 0.984 . S
N1244 H1257 0.985 . S
N1245 C1247 1.356 . S
N1245 H1250 0.984 . S
N1245 H1251 0.985 . S
C1246 C1240 1.379 . S
C1246 C1243 1.363 . S
C1246 N1244 1.356 . S
C1247 C1241 1.363 . S
C1247 C1242 1.379 . S
C1247 N1245 1.356 . S
N1248 C1240 1.356 . S
N1248 H1254 0.984 . S
N1248 H1255 0.984 . S
N1249 C1242 1.356 . S
N1249 H1252 0.984 . S
N1249 H1253 0.985 . S
H1250 N1245 0.984 . S
H1251 N1245 0.985 . S
H1252 N1249 0.984 . S
H1253 N1249 0.985 . S
H1254 N1248 0.984 . S
H1255 N1248 0.984 . S
H1256 N1244 0.984 . S
H1257 N1244 0.985 . S
C1258 C1259 1.363 . S
C1258 C1264 1.379 . S
C1258 N1266 1.356 . S
C1259 C1258 1.363 . S
C1259 C1265 1.363 . S
C1260 C1261 1.363 . S
C1260 C1265 1.379 . S
C1260 N1267 1.356 . S
C1261 C1260 1.363 . S
C1261 C1264 1.363 . S
N1262 C1264 1.356 . S
N1262 H1274 0.984 . S
N1262 H1275 0.985 . S
N1263 C1265 1.356 . S
N1263 H1268 0.984 . S
N1263 H1269 0.985 . S
C1264 C1258 1.379 . S
C1264 C1261 1.363 . S
C1264 N1262 1.356 . S
C1265 C1259 1.363 . S
C1265 C1260 1.379 . S
C1265 N1263 1.356 . S
N1266 C1258 1.356 . S
N1266 H1272 0.984 . S
N1266 H1273 0.984 . S
N1267 C1260 1.356 . S
N1267 H1270 0.984 . S
N1267 H1271 0.985 . S
H1268 N1263 0.984 . S
H1269 N1263 0.985 . S
H1270 N1267 0.984 . S
H1271 N1267 0.985 . S
H1272 N1266 0.984 . S
H1273 N1266 0.984 . S
H1274 N1262 0.984 . S
H1275 N1262 0.985 . S
C1276 C1277 1.363 . S
C1276 C1282 1.379 . S
C1276 N1284 1.356 . S
C1277 C1276 1.363 . S
C1277 C1283 1.363 . S
C1278 C1279 1.363 . S
C1278 C1283 1.379 . S
C1278 N1285 1.356 . S
C1279 C1278 1.363 . S
C1279 C1282 1.363 . S
N1280 C1282 1.356 . S
N1280 H1292 0.984 . S
N1280 H1293 0.985 . S
N1281 C1283 1.356 . S
N1281 H1286 0.984 . S
N1281 H1287 0.985 . S
C1282 C1276 1.379 . S
C1282 C1279 1.363 . S
C1282 N1280 1.356 . S
C1283 C1277 1.363 . S
C1283 C1278 1.379 . S
C1283 N1281 1.356 . S
N1284 C1276 1.356 . S
N1284 H1290 0.984 . S
N1284 H1291 0.984 . S
N1285 C1278 1.356 . S
N1285 H1288 0.984 . S
N1285 H1289 0.985 . S
H1286 N1281 0.984 . S
H1287 N1281 0.985 . S
H1288 N1285 0.984 . S
H1289 N1285 0.985 . S
H1290 N1284 0.984 . S
H1291 N1284 0.984 . S
H1292 N1280 0.984 . S
H1293 N1280 0.985 . S
C1294 C1295 1.363 . S
C1294 C1300 1.379 . S
C1294 N1302 1.356 . S
C1295 C1294 1.363 . S
C1295 C1301 1.363 . S
C1296 C1297 1.363 . S
C1296 C1301 1.379 . S
C1296 N1303 1.356 . S
C1297 C1296 1.363 . S
C1297 C1300 1.363 . S
N1298 C1300 1.356 . S
N1298 H1310 0.984 . S
N1298 H1311 0.985 . S
N1299 C1301 1.356 . S
N1299 H1304 0.984 . S
N1299 H1305 0.985 . S
C1300 C1294 1.379 . S
C1300 C1297 1.363 . S
C1300 N1298 1.356 . S
C1301 C1295 1.363 . S
C1301 C1296 1.379 . S
C1301 N1299 1.356 . S
N1302 C1294 1.356 . S
N1302 H1308 0.984 . S
N1302 H1309 0.984 . S
N1303 C1296 1.356 . S
N1303 H1306 0.984 . S
N1303 H1307 0.985 . S
H1304 N1299 0.984 . S
H1305 N1299 0.985 . S
H1306 N1303 0.984 . S
H1307 N1303 0.985 . S
H1308 N1302 0.984 . S
H1309 N1302 0.984 . S
H1310 N1298 0.984 . S
H1311 N1298 0.985 . S
C1312 C1313 1.363 . S
C1312 C1318 1.379 . S
C1312 N1320 1.356 . S
C1313 C1312 1.363 . S
C1313 C1319 1.363 . S
C1314 C1315 1.363 . S
C1314 C1319 1.379 . S
C1314 N1321 1.356 . S
C1315 C1314 1.363 . S
C1315 C1318 1.363 . S
N1316 C1318 1.356 . S
N1316 H1328 0.984 . S
N1316 H1329 0.985 . S
N1317 C1319 1.356 . S
N1317 H1322 0.984 . S
N1317 H1323 0.985 . S
C1318 C1312 1.379 . S
C1318 C1315 1.363 . S
C1318 N1316 1.356 . S
C1319 C1313 1.363 . S
C1319 C1314 1.379 . S
C1319 N1317 1.356 . S
N1320 C1312 1.356 . S
N1320 H1326 0.984 . S
N1320 H1327 0.984 . S
N1321 C1314 1.356 . S
N1321 H1324 0.984 . S
N1321 H1325 0.985 . S
H1322 N1317 0.984 . S
H1323 N1317 0.985 . S
H1324 N1321 0.984 . S
H1325 N1321 0.985 . S
H1326 N1320 0.984 . S
H1327 N1320 0.984 . S
H1328 N1316 0.984 . S
H1329 N1316 0.985 . S
C1330 C1331 1.363 . S
C1330 C1336 1.379 . S
C1330 N1338 1.356 . S
C1331 C1330 1.363 . S
C1331 C1337 1.363 . S
C1332 C1333 1.363 . S
C1332 C1337 1.379 . S
C1332 N1339 1.356 . S
C1333 C1332 1.363 . S
C1333 C1336 1.363 . S
N1334 C1336 1.356 . S
N1334 H1346 0.984 . S
N1334 H1347 0.985 . S
N1335 C1337 1.356 . S
N1335 H1340 0.984 . S
N1335 H1341 0.985 . S
C1336 C1330 1.379 . S
C1336 C1333 1.363 . S
C1336 N1334 1.356 . S
C1337 C1331 1.363 . S
C1337 C1332 1.379 . S
C1337 N1335 1.356 . S
N1338 C1330 1.356 . S
N1338 H1344 0.984 . S
N1338 H1345 0.984 . S
N1339 C1332 1.356 . S
N1339 H1342 0.984 . S
N1339 H1343 0.985 . S
H1340 N1335 0.984 . S
H1341 N1335 0.985 . S
H1342 N1339 0.984 . S
H1343 N1339 0.985 . S
H1344 N1338 0.984 . S
H1345 N1338 0.984 . S
H1346 N1334 0.984 . S
H1347 N1334 0.985 . S
C1348 C1349 1.376 . S
C1348 C1354 1.379 . S
C1348 N1356 1.356 . S
C1349 C1348 1.376 . S
C1349 C1355 1.350 1_554 S
C1350 C1351 1.350 1_556 S
C1350 C1355 1.379 . S
C1350 N1357 1.356 . S
C1351 C1350 1.350 1_554 S
C1351 C1354 1.376 . S
N1352 C1354 1.356 . S
N1352 H1364 0.984 . S
N1352 H1365 0.985 . S
N1353 C1355 1.356 . S
N1353 H1358 0.984 . S
N1353 H1359 0.985 . S
C1354 C1348 1.379 . S
C1354 C1351 1.376 . S
C1354 N1352 1.356 . S
C1355 C1349 1.350 1_556 S
C1355 C1350 1.379 . S
C1355 N1353 1.356 . S
N1356 C1348 1.356 . S
N1356 H1362 0.984 . S
N1356 H1363 0.984 . S
N1357 C1350 1.356 . S
N1357 H1360 0.984 . S
N1357 H1361 0.985 . S
H1358 N1353 0.984 . S
H1359 N1353 0.985 . S
H1360 N1357 0.984 . S
H1361 N1357 0.985 . S
H1362 N1356 0.984 . S
H1363 N1356 0.984 . S
H1364 N1352 0.984 . S
H1365 N1352 0.985 . S
C1366 C1367 1.350 1_556 S
C1366 C1372 1.379 . S
C1366 N1374 1.356 . S
C1367 C1366 1.350 1_554 S
C1367 C1373 1.376 . S
C1368 C1369 1.376 . S
C1368 C1373 1.379 . S
C1368 N1375 1.356 . S
C1369 C1368 1.376 . S
C1369 C1372 1.350 1_554 S
N1370 C1372 1.356 . S
N1370 H1382 0.984 . S
N1370 H1383 0.985 . S
N1371 C1373 1.356 . S
N1371 H1376 0.984 . S
N1371 H1377 0.985 . S
C1372 C1366 1.379 . S
C1372 C1369 1.350 1_556 S
C1372 N1370 1.356 . S
C1373 C1367 1.376 . S
C1373 C1368 1.379 . S
C1373 N1371 1.356 . S
N1374 C1366 1.356 . S
N1374 H1380 0.984 . S
N1374 H1381 0.984 . S
N1375 C1368 1.356 . S
N1375 H1378 0.984 . S
N1375 H1379 0.985 . S
H1376 N1371 0.984 . S
H1377 N1371 0.985 . S
H1378 N1375 0.984 . S
H1379 N1375 0.985 . S
H1380 N1374 0.984 . S
H1381 N1374 0.984 . S
H1382 N1370 0.984 . S
H1383 N1370 0.985 . S
C1384 C1385 1.363 . S
C1384 C1390 1.379 . S
C1384 N1392 1.356 . S
C1385 C1384 1.363 . S
C1385 C1391 1.363 . S
C1386 C1387 1.363 . S
C1386 C1391 1.379 . S
C1386 N1393 1.356 . S
C1387 C1386 1.363 . S
C1387 C1390 1.363 . S
N1388 C1390 1.356 . S
N1388 H1400 0.984 . S
N1388 H1401 0.985 . S
N1389 C1391 1.356 . S
N1389 H1394 0.984 . S
N1389 H1395 0.985 . S
C1390 C1384 1.379 . S
C1390 C1387 1.363 . S
C1390 N1388 1.356 . S
C1391 C1385 1.363 . S
C1391 C1386 1.379 . S
C1391 N1389 1.356 . S
N1392 C1384 1.356 . S
N1392 H1398 0.984 . S
N1392 H1399 0.984 . S
N1393 C1386 1.356 . S
N1393 H1396 0.984 . S
N1393 H1397 0.985 . S
H1394 N1389 0.984 . S
H1395 N1389 0.985 . S
H1396 N1393 0.984 . S
H1397 N1393 0.985 . S
H1398 N1392 0.984 . S
H1399 N1392 0.984 . S
H1400 N1388 0.984 . S
H1401 N1388 0.985 . S
C1402 C1403 1.363 . S
C1402 C1408 1.379 . S
C1402 N1410 1.356 . S
C1403 C1402 1.363 . S
C1403 C1409 1.363 . S
C1404 C1405 1.363 . S
C1404 C1409 1.379 . S
C1404 N1411 1.356 . S
C1405 C1404 1.363 . S
C1405 C1408 1.363 . S
N1406 C1408 1.356 . S
N1406 H1418 0.984 . S
N1406 H1419 0.985 . S
N1407 C1409 1.356 . S
N1407 H1412 0.984 . S
N1407 H1413 0.985 . S
C1408 C1402 1.379 . S
C1408 C1405 1.363 . S
C1408 N1406 1.356 . S
C1409 C1403 1.363 . S
C1409 C1404 1.379 . S
C1409 N1407 1.356 . S
N1410 C1402 1.356 . S
N1410 H1416 0.984 . S
N1410 H1417 0.984 . S
N1411 C1404 1.356 . S
N1411 H1414 0.984 . S
N1411 H1415 0.985 . S
H1412 N1407 0.984 . S
H1413 N1407 0.985 . S
H1414 N1411 0.984 . S
H1415 N1411 0.985 . S
H1416 N1410 0.984 . S
H1417 N1410 0.984 . S
H1418 N1406 0.984 . S
H1419 N1406 0.985 . S
C1420 C1421 1.353 1_554 S
C1420 C1426 1.379 . S
C1420 N1428 1.356 . S
C1421 C1420 1.353 1_556 S
C1421 C1427 1.373 . S
C1422 C1423 1.373 . S
C1422 C1427 1.379 . S
C1422 N1429 1.356 . S
C1423 C1422 1.373 . S
C1423 C1426 1.353 1_556 S
N1424 C1426 1.356 . S
N1424 H1436 0.984 . S
N1424 H1437 0.985 . S
N1425 C1427 1.356 . S
N1425 H1430 0.984 . S
N1425 H1431 0.985 . S
C1426 C1420 1.379 . S
C1426 C1423 1.353 1_554 S
C1426 N1424 1.356 . S
C1427 C1421 1.373 . S
C1427 C1422 1.379 . S
C1427 N1425 1.356 . S
N1428 C1420 1.356 . S
N1428 H1434 0.984 . S
N1428 H1435 0.984 . S
N1429 C1422 1.356 . S
N1429 H1432 0.984 . S
N1429 H1433 0.985 . S
H1430 N1425 0.984 . S
H1431 N1425 0.985 . S
H1432 N1429 0.984 . S
H1433 N1429 0.985 . S
H1434 N1428 0.984 . S
H1435 N1428 0.984 . S
H1436 N1424 0.984 . S
H1437 N1424 0.985 . S
C1438 C1439 1.373 . S
C1438 C1444 1.379 . S
C1438 N1446 1.356 . S
C1439 C1438 1.373 . S
C1439 C1445 1.353 1_556 S
C1440 C1441 1.353 1_554 S
C1440 C1445 1.379 . S
C1440 N1447 1.356 . S
C1441 C1440 1.353 1_556 S
C1441 C1444 1.373 . S
N1442 C1444 1.356 . S
N1442 H1454 0.984 . S
N1442 H1455 0.985 . S
N1443 C1445 1.356 . S
N1443 H1448 0.984 . S
N1443 H1449 0.985 . S
C1444 C1438 1.379 . S
C1444 C1441 1.373 . S
C1444 N1442 1.356 . S
C1445 C1439 1.353 1_554 S
C1445 C1440 1.379 . S
C1445 N1443 1.356 . S
N1446 C1438 1.356 . S
N1446 H1452 0.984 . S
N1446 H1453 0.984 . S
N1447 C1440 1.356 . S
N1447 H1450 0.984 . S
N1447 H1451 0.985 . S
H1448 N1443 0.984 . S
H1449 N1443 0.985 . S
H1450 N1447 0.984 . S
H1451 N1447 0.985 . S
H1452 N1446 0.984 . S
H1453 N1446 0.984 . S
H1454 N1442 0.984 . S
H1455 N1442 0.985 . S
C1456 C1457 1.363 . S
C1456 C1462 1.379 . S
C1456 N1464 1.356 . S
C1457 C1456 1.363 . S
C1457 C1463 1.363 . S
C1458 C1459 1.363 . S
C1458 C1463 1.379 . S
C1458 N1465 1.356 . S
C1459 C1458 1.363 . S
C1459 C1462 1.363 . S
N1460 C1462 1.356 . S
N1460 H1472 0.984 . S
N1460 H1473 0.985 . S
N1461 C1463 1.356 . S
N1461 H1466 0.984 . S
N1461 H1467 0.985 . S
C1462 C1456 1.379 . S
C1462 C1459 1.363 . S
C1462 N1460 1.356 . S
C1463 C1457 1.363 . S
C1463 C1458 1.379 . S
C1463 N1461 1.356 . S
N1464 C1456 1.356 . S
N1464 H1470 0.984 . S
N1464 H1471 0.984 . S
N1465 C1458 1.356 . S
N1465 H1468 0.984 . S
N1465 H1469 0.985 . S
H1466 N1461 0.984 . S
H1467 N1461 0.985 . S
H1468 N1465 0.984 . S
H1469 N1465 0.985 . S
H1470 N1464 0.984 . S
H1471 N1464 0.984 . S
H1472 N1460 0.984 . S
H1473 N1460 0.985 . S
C1474 C1475 1.363 . S
C1474 C1480 1.379 . S
C1474 N1482 1.356 . S
C1475 C1474 1.363 . S
C1475 C1481 1.363 . S
C1476 C1477 1.363 . S
C1476 C1481 1.379 . S
C1476 N1483 1.356 . S
C1477 C1476 1.363 . S
C1477 C1480 1.363 . S
N1478 C1480 1.356 . S
N1478 H1490 0.984 . S
N1478 H1491 0.985 . S
N1479 C1481 1.356 . S
N1479 H1484 0.984 . S
N1479 H1485 0.985 . S
C1480 C1474 1.379 . S
C1480 C1477 1.363 . S
C1480 N1478 1.356 . S
C1481 C1475 1.363 . S
C1481 C1476 1.379 . S
C1481 N1479 1.356 . S
N1482 C1474 1.356 . S
N1482 H1488 0.984 . S
N1482 H1489 0.984 . S
N1483 C1476 1.356 . S
N1483 H1486 0.984 . S
N1483 H1487 0.985 . S
H1484 N1479 0.984 . S
H1485 N1479 0.985 . S
H1486 N1483 0.984 . S
H1487 N1483 0.985 . S
H1488 N1482 0.984 . S
H1489 N1482 0.984 . S
H1490 N1478 0.984 . S
H1491 N1478 0.985 . S
C1492 C1493 1.363 . S
C1492 C1498 1.379 . S
C1492 N1500 1.356 . S
C1493 C1492 1.363 . S
C1493 C1499 1.363 . S
C1494 C1495 1.363 . S
C1494 C1499 1.379 . S
C1494 N1501 1.356 . S
C1495 C1494 1.363 . S
C1495 C1498 1.363 . S
N1496 C1498 1.356 . S
N1496 H1508 0.984 . S
N1496 H1509 0.985 . S
N1497 C1499 1.356 . S
N1497 H1502 0.984 . S
N1497 H1503 0.985 . S
C1498 C1492 1.379 . S
C1498 C1495 1.363 . S
C1498 N1496 1.356 . S
C1499 C1493 1.363 . S
C1499 C1494 1.379 . S
C1499 N1497 1.356 . S
N1500 C1492 1.356 . S
N1500 H1506 0.984 . S
N1500 H1507 0.984 . S
N1501 C1494 1.356 . S
N1501 H1504 0.984 . S
N1501 H1505 0.985 . S
H1502 N1497 0.984 . S
H1503 N1497 0.985 . S
H1504 N1501 0.984 . S
H1505 N1501 0.985 . S
H1506 N1500 0.984 . S
H1507 N1500 0.984 . S
H1508 N1496 0.984 . S
H1509 N1496 0.985 . S
C1510 C1511 1.363 . S
C1510 C1516 1.379 . S
C1510 N1518 1.356 . S
C1511 C1510 1.363 . S
C1511 C1517 1.363 . S
C1512 C1513 1.363 . S
C1512 C1517 1.379 . S
C1512 N1519 1.356 . S
C1513 C1512 1.363 . S
C1513 C1516 1.363 . S
N1514 C1516 1.356 . S
N1514 H1526 0.984 . S
N1514 H1527 0.985 . S
N1515 C1517 1.356 . S
N1515 H1520 0.984 . S
N1515 H1521 0.985 . S
C1516 C1510 1.379 . S
C1516 C1513 1.363 . S
C1516 N1514 1.356 . S
C1517 C1511 1.363 . S
C1517 C1512 1.379 . S
C1517 N1515 1.356 . S
N1518 C1510 1.356 . S
N1518 H1524 0.984 . S
N1518 H1525 0.984 . S
N1519 C1512 1.356 . S
N1519 H1522 0.984 . S
N1519 H1523 0.985 . S
H1520 N1515 0.984 . S
H1521 N1515 0.985 . S
H1522 N1519 0.984 . S
H1523 N1519 0.985 . S
H1524 N1518 0.984 . S
H1525 N1518 0.984 . S
H1526 N1514 0.984 . S
H1527 N1514 0.985 . S
C1528 C1529 1.363 . S
C1528 C1534 1.379 . S
C1528 N1536 1.356 . S
C1529 C1528 1.363 . S
C1529 C1535 1.363 . S
C1530 C1531 1.363 . S
C1530 C1535 1.379 . S
C1530 N1537 1.356 . S
C1531 C1530 1.363 . S
C1531 C1534 1.363 . S
N1532 C1534 1.356 . S
N1532 H1544 0.984 . S
N1532 H1545 0.985 . S
N1533 C1535 1.356 . S
N1533 H1538 0.984 . S
N1533 H1539 0.985 . S
C1534 C1528 1.379 . S
C1534 C1531 1.363 . S
C1534 N1532 1.356 . S
C1535 C1529 1.363 . S
C1535 C1530 1.379 . S
C1535 N1533 1.356 . S
N1536 C1528 1.356 . S
N1536 H1542 0.984 . S
N1536 H1543 0.984 . S
N1537 C1530 1.356 . S
N1537 H1540 0.984 . S
N1537 H1541 0.985 . S
H1538 N1533 0.984 . S
H1539 N1533 0.985 . S
H1540 N1537 0.984 . S
H1541 N1537 0.985 . S
H1542 N1536 0.984 . S
H1543 N1536 0.984 . S
H1544 N1532 0.984 . S
H1545 N1532 0.985 . S
C1546 C1547 1.363 . S
C1546 C1552 1.379 . S
C1546 N1554 1.356 . S
C1547 C1546 1.363 . S
C1547 C1553 1.363 . S
C1548 C1549 1.363 . S
C1548 C1553 1.379 . S
C1548 N1555 1.356 . S
C1549 C1548 1.363 . S
C1549 C1552 1.363 . S
N1550 C1552 1.356 . S
N1550 H1562 0.984 . S
N1550 H1563 0.985 . S
N1551 C1553 1.356 . S
N1551 H1556 0.984 . S
N1551 H1557 0.985 . S
C1552 C1546 1.379 . S
C1552 C1549 1.363 . S
C1552 N1550 1.356 . S
C1553 C1547 1.363 . S
C1553 C1548 1.379 . S
C1553 N1551 1.356 . S
N1554 C1546 1.356 . S
N1554 H1560 0.984 . S
N1554 H1561 0.984 . S
N1555 C1548 1.356 . S
N1555 H1558 0.984 . S
N1555 H1559 0.985 . S
H1556 N1551 0.984 . S
H1557 N1551 0.985 . S
H1558 N1555 0.984 . S
H1559 N1555 0.985 . S
H1560 N1554 0.984 . S
H1561 N1554 0.984 . S
H1562 N1550 0.984 . S
H1563 N1550 0.985 . S
C1564 C1565 1.363 . S
C1564 C1570 1.379 . S
C1564 N1572 1.356 . S
C1565 C1564 1.363 . S
C1565 C1571 1.363 . S
C1566 C1567 1.363 . S
C1566 C1571 1.379 . S
C1566 N1573 1.356 . S
C1567 C1566 1.363 . S
C1567 C1570 1.363 . S
N1568 C1570 1.356 . S
N1568 H1580 0.984 . S
N1568 H1581 0.985 . S
N1569 C1571 1.356 . S
N1569 H1574 0.984 . S
N1569 H1575 0.985 . S
C1570 C1564 1.379 . S
C1570 C1567 1.363 . S
C1570 N1568 1.356 . S
C1571 C1565 1.363 . S
C1571 C1566 1.379 . S
C1571 N1569 1.356 . S
N1572 C1564 1.356 . S
N1572 H1578 0.984 . S
N1572 H1579 0.984 . S
N1573 C1566 1.356 . S
N1573 H1576 0.984 . S
N1573 H1577 0.985 . S
H1574 N1569 0.984 . S
H1575 N1569 0.985 . S
H1576 N1573 0.984 . S
H1577 N1573 0.985 . S
H1578 N1572 0.984 . S
H1579 N1572 0.984 . S
H1580 N1568 0.984 . S
H1581 N1568 0.985 . S
C1582 C1583 1.363 . S
C1582 C1588 1.379 . S
C1582 N1590 1.356 . S
C1583 C1582 1.363 . S
C1583 C1589 1.363 . S
C1584 C1585 1.363 . S
C1584 C1589 1.379 . S
C1584 N1591 1.356 . S
C1585 C1584 1.363 . S
C1585 C1588 1.363 . S
N1586 C1588 1.356 . S
N1586 H1598 0.984 . S
N1586 H1599 0.985 . S
N1587 C1589 1.356 . S
N1587 H1592 0.984 . S
N1587 H1593 0.985 . S
C1588 C1582 1.379 . S
C1588 C1585 1.363 . S
C1588 N1586 1.356 . S
C1589 C1583 1.363 . S
C1589 C1584 1.379 . S
C1589 N1587 1.356 . S
N1590 C1582 1.356 . S
N1590 H1596 0.984 . S
N1590 H1597 0.984 . S
N1591 C1584 1.356 . S
N1591 H1594 0.984 . S
N1591 H1595 0.985 . S
H1592 N1587 0.984 . S
H1593 N1587 0.985 . S
H1594 N1591 0.984 . S
H1595 N1591 0.985 . S
H1596 N1590 0.984 . S
H1597 N1590 0.984 . S
H1598 N1586 0.984 . S
H1599 N1586 0.985 . S
C449 C1 1.570 . S
C451 C55 1.570 . S
C467 C29 1.570 . S
C469 C15 1.570 . S
C485 C56 1.570 . S
C487 C98 1.570 . S
C503 C85 1.572 . S
C505 C83 1.572 . S
C521 C125 1.570 . S
C523 C155 1.570 . S
C539 C140 1.572 . S
C541 C126 1.572 . S
C557 C169 1.572 . S
C559 C222 1.570 . S
C575 C183 1.572 . S
C577 C209 1.572 . S
C593 C266 1.572 . S
C595 C225 1.570 . S
C611 C238 1.572 . S
C613 C252 1.572 . S
C629 C280 1.570 . S
C631 C323 1.572 . S
C647 C309 1.572 . S
C649 C307 1.572 . S
C665 C337 1.570 . S
C667 C378 1.572 . S
C683 C364 1.572 . S
C685 C351 1.570 . S
C701 C404 1.570 . S
C703 C435 1.572 . S
C719 C406 1.570 . S
C721 C421 1.572 . S
C737 C180 1.617 . S
C739 C12 1.619 . S
C755 C26 1.619 . S
C757 C294 1.617 . S
C773 C40 1.620 . S
C775 C96 1.618 . S
C791 C446 1.618 . S
C793 C42 1.620 . S
C809 C69 1.619 . S
C811 C112 1.619 . S
C827 C251 1.617 . S
C829 C70 1.617 . S
C845 C391 1.618 . S
C847 C111 1.620 . S
C863 C419 1.619 . S
C865 C139 1.617 . S
C881 C196 1.616 . S
C883 C153 1.616 . S
C899 C334 1.616 . S
C901 C166 1.619 . S
C917 C194 1.617 . S
C919 C362 1.619 . S
C935 C279 1.616 . S
C937 C211 1.619 . S
C953 C393 1.619 . S
C955 C236 1.619 . S
C971 C320 1.616 . S
C973 C265 1.616 . S
C989 C348 1.619 . S
C991 C293 1.619 . S
C1007 C377 1.618 . S
C1009 C432 1.618 . S
C1025 C141 1.671 . S
C1027 C0 1.673 . S
C1043 C14 1.673 . S
C1045 C154 1.673 . S
C1061 C124 1.673 . S
C1063 C28 1.673 . S
C1079 C127 1.671 . S
C1081 C54 1.673 . S
C1097 C57 1.673 . S
C1099 C208 1.671 . S
C1115 C82 1.671 . S
C1117 C223 1.673 . S
C1133 C168 1.671 . S
C1135 C84 1.671 . S
C1151 C99 1.673 . S
C1153 C182 1.671 . S
C1169 C365 1.671 . S
C1171 C224 1.673 . S
C1187 C379 1.671 . S
C1189 C239 1.671 . S
C1205 C253 1.671 . S
C1207 C336 1.673 . S
C1223 C267 1.671 . S
C1225 C350 1.673 . S
C1241 C281 1.673 . S
C1243 C420 1.671 . S
C1259 C306 1.671 . S
C1261 C434 1.671 . S
C1277 C405 1.673 . S
C1279 C308 1.671 . S
C1295 C407 1.673 . S
C1297 C322 1.671 . S
C1313 C13 1.687 . S
C1315 C363 1.687 . S
C1331 C349 1.687 . S
C1333 C27 1.687 . S
C1349 C41 1.687 . S
C1351 C390 1.690 . S
C1367 C43 1.687 . S
C1369 C376 1.690 . S
C1385 C68 1.687 . S
C1387 C418 1.687 . S
C1403 C71 1.689 . S
C1405 C392 1.687 . S
C1421 C447 1.690 . S
C1423 C97 1.690 . S
C1439 C433 1.690 . S
C1441 C110 1.687 . S
C1457 C250 1.689 . S
C1459 C113 1.687 . S
C1475 C237 1.687 . S
C1477 C138 1.689 . S
C1493 C152 1.689 . S
C1495 C278 1.689 . S
C1511 C167 1.687 . S
C1513 C264 1.689 . S
C1529 C295 1.689 . S
C1531 C181 1.689 . S
C1547 C195 1.689 . S
C1549 C292 1.687 . S
C1565 C197 1.689 . S
C1567 C335 1.689 . S
C1583 C210 1.687 . S
C1585 C321 1.689 . S
