# Generated by pormake.
# Topology wkf, (6)-cn, num edge types: 1
# Building blocks:
#     Node 0, Type 0, BuildingBlock: IZENUY_clean_sbu_0, # of connection points: 6
#     Node 1, Type 0, BuildingBlock: IZENUY_clean_sbu_0, # of connection points: 6
#     Node 2, Type 0, BuildingBlock: IZENUY_clean_sbu_0, # of connection points: 6
#     Node 3, Type 0, BuildingBlock: IZENUY_clean_sbu_0, # of connection points: 6
#     Node 4, Type 0, BuildingBlock: IZENUY_clean_sbu_0, # of connection points: 6
#     Node 5, Type 0, BuildingBlock: IZENUY_clean_sbu_0, # of connection points: 6
#     Node 6, Type 0, BuildingBlock: IZENUY_clean_sbu_0, # of connection points: 6
#     Node 7, Type 0, BuildingBlock: IZENUY_clean_sbu_0, # of connection points: 6
#     Node 8, Type 0, BuildingBlock: IZENUY_clean_sbu_0, # of connection points: 6
#     Node 9, Type 0, BuildingBlock: IZENUY_clean_sbu_0, # of connection points: 6
#     Node 10, Type 0, BuildingBlock: IZENUY_clean_sbu_0, # of connection points: 6
#     Node 11, Type 0, BuildingBlock: IZENUY_clean_sbu_0, # of connection points: 6
#     Edge 12, Type (0, 0), BuildingBlock: KIFKEQ_clean_linker_1, # of connection points: 2
#     Edge 13, Type (0, 0), BuildingBlock: KIFKEQ_clean_linker_1, # of connection points: 2
#     Edge 14, Type (0, 0), BuildingBlock: KIFKEQ_clean_linker_1, # of connection points: 2
#     Edge 15, Type (0, 0), BuildingBlock: KIFKEQ_clean_linker_1, # of connection points: 2
#     Edge 16, Type (0, 0), BuildingBlock: KIFKEQ_clean_linker_1, # of connection points: 2
#     Edge 17, Type (0, 0), BuildingBlock: KIFKEQ_clean_linker_1, # of connection points: 2
#     Edge 18, Type (0, 0), BuildingBlock: KIFKEQ_clean_linker_1, # of connection points: 2
#     Edge 19, Type (0, 0), BuildingBlock: KIFKEQ_clean_linker_1, # of connection points: 2
#     Edge 20, Type (0, 0), BuildingBlock: KIFKEQ_clean_linker_1, # of connection points: 2
#     Edge 21, Type (0, 0), BuildingBlock: KIFKEQ_clean_linker_1, # of connection points: 2
#     Edge 22, Type (0, 0), BuildingBlock: KIFKEQ_clean_linker_1, # of connection points: 2
#     Edge 23, Type (0, 0), BuildingBlock: KIFKEQ_clean_linker_1, # of connection points: 2
#     Edge 24, Type (0, 0), BuildingBlock: KIFKEQ_clean_linker_1, # of connection points: 2
#     Edge 25, Type (0, 0), BuildingBlock: KIFKEQ_clean_linker_1, # of connection points: 2
#     Edge 26, Type (0, 0), BuildingBlock: KIFKEQ_clean_linker_1, # of connection points: 2
#     Edge 27, Type (0, 0), BuildingBlock: KIFKEQ_clean_linker_1, # of connection points: 2
#     Edge 28, Type (0, 0), BuildingBlock: KIFKEQ_clean_linker_1, # of connection points: 2
#     Edge 29, Type (0, 0), BuildingBlock: KIFKEQ_clean_linker_1, # of connection points: 2
#     Edge 30, Type (0, 0), BuildingBlock: KIFKEQ_clean_linker_1, # of connection points: 2
#     Edge 31, Type (0, 0), BuildingBlock: KIFKEQ_clean_linker_1, # of connection points: 2
#     Edge 32, Type (0, 0), BuildingBlock: KIFKEQ_clean_linker_1, # of connection points: 2
#     Edge 33, Type (0, 0), BuildingBlock: KIFKEQ_clean_linker_1, # of connection points: 2
#     Edge 34, Type (0, 0), BuildingBlock: KIFKEQ_clean_linker_1, # of connection points: 2
#     Edge 35, Type (0, 0), BuildingBlock: KIFKEQ_clean_linker_1, # of connection points: 2
#     Edge 36, Type (0, 0), BuildingBlock: KIFKEQ_clean_linker_1, # of connection points: 2
#     Edge 37, Type (0, 0), BuildingBlock: KIFKEQ_clean_linker_1, # of connection points: 2
#     Edge 38, Type (0, 0), BuildingBlock: KIFKEQ_clean_linker_1, # of connection points: 2
#     Edge 39, Type (0, 0), BuildingBlock: KIFKEQ_clean_linker_1, # of connection points: 2
#     Edge 40, Type (0, 0), BuildingBlock: KIFKEQ_clean_linker_1, # of connection points: 2
#     Edge 41, Type (0, 0), BuildingBlock: KIFKEQ_clean_linker_1, # of connection points: 2
#     Edge 42, Type (0, 0), BuildingBlock: KIFKEQ_clean_linker_1, # of connection points: 2
#     Edge 43, Type (0, 0), BuildingBlock: KIFKEQ_clean_linker_1, # of connection points: 2
#     Edge 44, Type (0, 0), BuildingBlock: KIFKEQ_clean_linker_1, # of connection points: 2
#     Edge 45, Type (0, 0), BuildingBlock: KIFKEQ_clean_linker_1, # of connection points: 2
#     Edge 46, Type (0, 0), BuildingBlock: KIFKEQ_clean_linker_1, # of connection points: 2
#     Edge 47, Type (0, 0), BuildingBlock: KIFKEQ_clean_linker_1, # of connection points: 2
# Relax obj value: 0.283
# Max RMSD: 0.255
# Mean RMSD: 0.255
data_MOF--net-wkf--node1-IZENUY_clean_sbu_0--edge1-KIFKEQ_clean_linker_1
_symmetry_space_group_name_H-M    P1
_symmetry_Int_Tables_number       1
_symmetry_cell_setting            triclinic
loop_
_symmetry_equiv_pos_as_xyz
'x, y, z'
_cell_length_a     27.663704
_cell_length_b     27.71351
_cell_length_c     75.39954
_cell_angle_alpha  89.911064
_cell_angle_beta   90.109689
_cell_angle_gamma 119.91161
loop_
_atom_site_label
_atom_site_type_symbol
_atom_site_fract_x
_atom_site_fract_y
_atom_site_fract_z
_atom_type_partial_charge
Fe0 Fe 0.4347 0.12248 0.35462 0.0
Fe1 Fe 0.32124 0.10822 0.36559 0.0
O2 O 0.38246 0.10614 0.37085 0.0
Fe3 Fe 0.39253 0.08804 0.39252 0.0
O4 O 0.46843 0.13016 0.39197 0.0
O5 O 0.48575 0.18062 0.36791 0.0
O6 O 0.42216 0.17209 0.34234 0.0
C7 C 0.39867 0.1991 0.34695 0.0
C8 C 0.42905 0.03113 0.37267 0.0
O9 O 0.36098 0.18029 0.35856 0.0
C10 C 0.27651 0.01872 0.3877 0.0
O11 O 0.38661 0.06566 0.34057 0.0
O12 O 0.31632 0.08177 0.34289 0.0
O13 O 0.39382 0.02714 0.38406 0.0
O14 O 0.45667 0.07513 0.3637 0.0
C15 C 0.35184 0.15776 0.39993 0.0
O16 O 0.27602 0.03624 0.37233 0.0
O17 O 0.31896 0.04339 0.39746 0.0
C18 C 0.33942 0.05722 0.33553 0.0
O19 O 0.31649 0.13501 0.38749 0.0
O20 O 0.39136 0.14767 0.40198 0.0
C21 C 0.49871 0.17451 0.3835 0.0
Fe22 Fe 0.28426 0.39727 0.55606 0.0
Fe23 Fe 0.28552 0.43925 0.5186 0.0
O24 O 0.25469 0.38548 0.53461 0.0
Fe25 Fe 0.19483 0.32122 0.52919 0.0
O26 O 0.16285 0.31116 0.55126 0.0
O27 O 0.22019 0.38709 0.56611 0.0
O28 O 0.30864 0.47157 0.55606 0.0
C29 C 0.29 0.49863 0.54787 0.0
C30 C 0.25144 0.28465 0.54997 0.0
O31 O 0.27129 0.48523 0.53223 0.0
C32 C 0.26571 0.3478 0.49913 0.0
O33 O 0.35034 0.40819 0.54718 0.0
O34 O 0.35605 0.46903 0.52747 0.0
O35 O 0.22824 0.28115 0.53524 0.0
O36 O 0.26498 0.32545 0.56014 0.0
C37 C 0.17136 0.39324 0.5113 0.0
O38 O 0.30114 0.39599 0.50444 0.0
O39 O 0.21774 0.321 0.50624 0.0
C40 C 0.37847 0.4464 0.53617 0.0
O41 O 0.22148 0.4198 0.50639 0.0
O42 O 0.15591 0.35564 0.52289 0.0
C43 C 0.17252 0.34475 0.56398 0.0
Fe44 Fe 0.88825 0.29121 0.72102 0.0
Fe45 Fe 0.83775 0.28774 0.68453 0.0
O46 O 0.86219 0.25789 0.7004 0.0
Fe47 Fe 0.86092 0.19446 0.69573 0.0
O48 O 0.81382 0.15985 0.71406 0.0
O49 O 0.86343 0.22566 0.73343 0.0
O50 O 0.82299 0.28586 0.72659 0.0
C51 C 0.79716 0.30367 0.71748 0.0
C52 C 0.96225 0.25671 0.71509 0.0
O53 O 0.80805 0.3151 0.70112 0.0
C54 C 0.90045 0.25103 0.66452 0.0
O55 O 0.91656 0.36304 0.7126 0.0
O56 O 0.90317 0.35138 0.68391 0.0
O57 O 0.92255 0.21062 0.70955 0.0
O58 O 0.95545 0.29812 0.71671 0.0
C59 C 0.76127 0.17894 0.67939 0.0
O60 O 0.86388 0.266 0.66535 0.0
O61 O 0.90791 0.22583 0.67726 0.0
C62 C 0.9262 0.38245 0.69697 0.0
O63 O 0.77016 0.22633 0.68378 0.0
O64 O 0.79912 0.16612 0.68103 0.0
C65 C 0.82435 0.17682 0.72989 0.0
Fe66 Fe 0.54291 0.85235 0.85307 0.0
Fe67 Fe 0.66014 0.8774 0.8642 0.0
O68 O 0.59662 0.87551 0.86921 0.0
Fe69 Fe 0.58512 0.89587 0.89029 0.0
O70 O 0.51054 0.84621 0.89036 0.0
O71 O 0.49655 0.79333 0.86706 0.0
O72 O 0.56153 0.80667 0.84127 0.0
C73 C 0.58718 0.78243 0.84645 0.0
C74 C 0.53652 0.93971 0.86943 0.0
O75 O 0.62414 0.80393 0.85826 0.0
C76 C 0.69903 0.97264 0.88421 0.0
O77 O 0.58721 0.91014 0.83864 0.0
O78 O 0.66137 0.89989 0.84107 0.0
O79 O 0.57492 0.95051 0.88049 0.0
O80 O 0.51334 0.89382 0.86133 0.0
C81 C 0.6352 0.83455 0.8994 0.0
O82 O 0.70234 0.95085 0.86991 0.0
O83 O 0.65718 0.94813 0.89418 0.0
C84 C 0.63521 0.92117 0.8335 0.0
O85 O 0.6686 0.85541 0.88645 0.0
O86 O 0.59469 0.84305 0.90139 0.0
C87 C 0.48442 0.79942 0.88279 0.0
Fe88 Fe 0.70101 0.5517 0.01698 0.0
Fe89 Fe 0.79239 0.66797 0.02879 0.0
O90 O 0.72998 0.60477 0.03319 0.0
Fe91 Fe 0.69674 0.5955 0.0539 0.0
O92 O 0.70473 0.53688 0.05897 0.0
O93 O 0.67578 0.4938 0.03332 0.0
O94 O 0.76362 0.54767 0.01569 0.0
C95 C 0.81058 0.58728 0.01147 0.0
C96 C 0.60503 0.54142 0.03007 0.0
O97 O 0.82211 0.63728 0.01355 0.0
C98 C 0.7278 0.70315 0.04851 0.0
O99 O 0.72113 0.601 0.99809 0.0
O100 O 0.75923 0.68354 0.01086 0.0
O101 O 0.62496 0.55052 0.04562 0.0
O102 O 0.63601 0.55125 0.01686 0.0
C103 C 0.8117 0.64863 0.06266 0.0
O104 O 0.77465 0.71107 0.04309 0.0
O105 O 0.68725 0.65443 0.05 0.0
C106 C 0.73383 0.65195 0.99797 0.0
O107 O 0.8283 0.65528 0.04678 0.0
O108 O 0.76232 0.63748 0.06622 0.0
C109 C 0.68797 0.49395 0.04963 0.0
Fe110 Fe 0.10867 0.7826 0.19886 0.0
Fe111 Fe 0.07685 0.6834 0.2234 0.0
O112 O 0.10477 0.71785 0.20308 0.0
Fe113 Fe 0.12852 0.68808 0.18706 0.0
O114 O 0.19725 0.74824 0.18698 0.0
O115 O 0.17017 0.8098 0.18424 0.0
O116 O 0.15601 0.81447 0.21737 0.0
C117 C 0.14375 0.79693 0.23312 0.0
C118 C 0.06905 0.72925 0.16727 0.0
O119 O 0.10319 0.74847 0.23628 0.0
C120 C 0.03717 0.59402 0.1986 0.0
O121 O 0.04759 0.76803 0.21258 0.0
O122 O 0.01111 0.67949 0.21883 0.0
O123 O 0.10481 0.71314 0.16799 0.0
O124 O 0.06168 0.75347 0.18029 0.0
C125 C 0.16547 0.66693 0.21998 0.0
O126 O 0.04657 0.61205 0.21439 0.0
O127 O 0.06197 0.62577 0.18581 0.0
C128 C 0.00645 0.72224 0.21761 0.0
O129 O 0.14061 0.68555 0.22917 0.0
O130 O 0.15548 0.6575 0.2035 0.0
C131 C 0.20735 0.79614 0.18269 0.0
Fe132 Fe 0.8396 0.55025 0.48318 0.0
Fe133 Fe 0.85586 0.66289 0.47116 0.0
O134 O 0.86133 0.60295 0.46695 0.0
Fe135 Fe 0.88896 0.5966 0.44655 0.0
O136 O 0.82632 0.53396 0.44117 0.0
O137 O 0.81329 0.49223 0.46703 0.0
O138 O 0.77006 0.53981 0.48332 0.0
C139 C 0.75875 0.57683 0.48751 0.0
C140 C 0.93322 0.5515 0.47149 0.0
O141 O 0.79531 0.62781 0.48615 0.0
C142 C 0.95706 0.70623 0.45177 0.0
O143 O 0.86286 0.59951 0.50207 0.0
O144 O 0.90418 0.68218 0.48937 0.0
O145 O 0.92179 0.55771 0.45565 0.0
O146 O 0.90731 0.55688 0.48426 0.0
C147 C 0.819 0.6408 0.43714 0.0
O148 O 0.91548 0.7098 0.45705 0.0
O149 O 0.95391 0.65953 0.4506 0.0
C150 C 0.89831 0.65134 0.50246 0.0
O151 O 0.80739 0.64613 0.45295 0.0
O152 O 0.85974 0.63314 0.43373 0.0
C153 C 0.80306 0.49087 0.45055 0.0
Fe154 Fe 0.27365 0.84743 0.64993 0.0
Fe155 Fe 0.1812 0.87199 0.63881 0.0
O156 O 0.24449 0.8728 0.63416 0.0
Fe157 Fe 0.27797 0.89968 0.61364 0.0
O158 O 0.27271 0.83515 0.60767 0.0
O159 O 0.29875 0.81608 0.63317 0.0
O160 O 0.21133 0.78078 0.65082 0.0
C161 C 0.16458 0.77298 0.6555 0.0
C162 C 0.36958 0.93552 0.63753 0.0
O163 O 0.15255 0.81123 0.65385 0.0
C164 C 0.24354 0.97304 0.61971 0.0
O165 O 0.25338 0.87535 0.66908 0.0
O166 O 0.21351 0.91948 0.65694 0.0
O167 O 0.34998 0.92749 0.62194 0.0
O168 O 0.33863 0.91157 0.65052 0.0
C169 C 0.16301 0.83552 0.60483 0.0
O170 O 0.19708 0.93293 0.62477 0.0
O171 O 0.28517 0.9665 0.61848 0.0
C172 C 0.23923 0.91263 0.66965 0.0
O173 O 0.1465 0.82433 0.62069 0.0
O174 O 0.21184 0.8751 0.60132 0.0
C175 C 0.28862 0.80751 0.61665 0.0
Fe176 Fe 0.43354 0.29718 0.81551 0.0
Fe177 Fe 0.31949 0.2024 0.80392 0.0
O178 O 0.37991 0.26716 0.79952 0.0
Fe179 Fe 0.38589 0.30141 0.7792 0.0
O180 O 0.44801 0.30046 0.77347 0.0
O181 O 0.49101 0.32879 0.79911 0.0
O182 O 0.44311 0.23763 0.81526 0.0
C183 C 0.4058 0.18961 0.81959 0.0
C184 C 0.43252 0.38998 0.80427 0.0
O185 O 0.35482 0.17607 0.81862 0.0
C186 C 0.2763 0.26143 0.78485 0.0
O187 O 0.38515 0.27127 0.83464 0.0
O188 O 0.30176 0.23183 0.82233 0.0
O189 O 0.42587 0.37285 0.78837 0.0
O190 O 0.42761 0.35842 0.81691 0.0
C191 C 0.33999 0.18732 0.76982 0.0
O192 O 0.27221 0.21598 0.79007 0.0
O193 O 0.32347 0.30437 0.78362 0.0
C194 C 0.33341 0.25559 0.83537 0.0
O195 O 0.33487 0.17041 0.78562 0.0
O196 O 0.3481 0.23584 0.7664 0.0
C197 C 0.49162 0.31963 0.78263 0.0
Fe198 Fe 0.11325 0.30949 0.97339 0.0
Fe199 Fe 0.09053 0.38252 0.94829 0.0
O200 O 0.11431 0.37291 0.96905 0.0
Fe201 Fe 0.13895 0.42604 0.98523 0.0
O202 O 0.20511 0.42915 0.98669 0.0
O203 O 0.17359 0.33946 0.98866 0.0
O204 O 0.16176 0.32234 0.95545 0.0
C205 C 0.15188 0.32923 0.93959 0.0
C206 C 0.07196 0.32553 0.00434 0.0
O207 O 0.11332 0.3399 0.936 0.0
C208 C 0.05402 0.43771 0.97201 0.0
O209 O 0.05228 0.26698 0.95898 0.0
O210 O 0.02189 0.32417 0.95222 0.0
O211 O 0.1092 0.37682 0.00404 0.0
O212 O 0.06505 0.29397 0.99137 0.0
C213 C 0.18548 0.48225 0.9528 0.0
O214 O 0.06467 0.4284 0.95647 0.0
O215 O 0.07498 0.42763 0.98524 0.0
C216 C 0.01359 0.27531 0.95349 0.0
O217 O 0.15754 0.44017 0.94328 0.0
O218 O 0.17253 0.48365 0.96889 0.0
C219 C 0.21207 0.38929 0.99091 0.0
Fe220 Fe 0.77823 0.10755 0.13851 0.0
Fe221 Fe 0.68313 0.08031 0.11248 0.0
O222 O 0.71493 0.10613 0.13333 0.0
Fe223 Fe 0.68406 0.13001 0.14895 0.0
O224 O 0.74564 0.19728 0.15029 0.0
O225 O 0.80507 0.16768 0.15371 0.0
O226 O 0.81397 0.15615 0.12068 0.0
C227 C 0.79867 0.1459 0.10468 0.0
C228 C 0.71848 0.0651 0.16896 0.0
O229 O 0.75017 0.10657 0.1007 0.0
C230 C 0.59017 0.04148 0.13577 0.0
O231 O 0.76416 0.04742 0.1244 0.0
O232 O 0.67675 0.01346 0.1169 0.0
O233 O 0.70398 0.1021 0.16828 0.0
O234 O 0.74505 0.05906 0.15639 0.0
C235 C 0.66957 0.17091 0.11566 0.0
O236 O 0.61054 0.05077 0.12029 0.0
O237 O 0.61997 0.06518 0.14902 0.0
C238 C 0.71853 0.00734 0.11877 0.0
O239 O 0.68751 0.14492 0.10675 0.0
O240 O 0.65862 0.16104 0.1321 0.0
C241 C 0.79249 0.20559 0.15519 0.0
Fe242 Fe 0.58097 0.67756 0.27887 0.0
Fe243 Fe 0.53377 0.67767 0.31552 0.0
O244 O 0.5862 0.71076 0.29932 0.0
Fe245 Fe 0.64483 0.77701 0.30365 0.0
O246 O 0.62689 0.8077 0.28546 0.0
O247 O 0.61578 0.74347 0.26613 0.0
O248 O 0.51693 0.67522 0.27357 0.0
C249 C 0.47369 0.65323 0.28293 0.0
C250 C 0.69132 0.72172 0.28446 0.0
O251 O 0.47582 0.64377 0.29933 0.0
C252 C 0.63482 0.72309 0.33491 0.0
O253 O 0.54447 0.60574 0.28784 0.0
O254 O 0.54436 0.61908 0.31647 0.0
O255 O 0.69367 0.76639 0.28963 0.0
O256 O 0.64504 0.67787 0.283 0.0
C257 C 0.55556 0.78335 0.32002 0.0
O258 O 0.58268 0.70533 0.33445 0.0
O259 O 0.66551 0.74921 0.32193 0.0
C260 C 0.54106 0.58878 0.30367 0.0
O261 O 0.51991 0.73443 0.31585 0.0
O262 O 0.60726 0.80028 0.31847 0.0
C263 C 0.62212 0.79123 0.26963 0.0
H264 H 0.24392 0.89402 0.2324 0.0
H265 H 0.11009 0.78633 0.26767 0.0
H266 H 0.29199 0.95726 0.2571 0.0
H267 H 0.15806 0.84978 0.29225 0.0
H268 H 0.23067 0.01205 0.32522 0.0
H269 H 0.18403 0.94922 0.3004 0.0
H270 H 0.33796 0.95474 0.28645 0.0
H271 H 0.38482 0.0174 0.31136 0.0
C272 C 0.22472 0.8839 0.24539 0.0
C273 C 0.17311 0.83522 0.24806 0.0
C274 C 0.2524 0.91994 0.25953 0.0
C275 C 0.22867 0.90846 0.27656 0.0
C276 C 0.17707 0.85989 0.27922 0.0
C277 C 0.14978 0.82345 0.26516 0.0
C278 C 0.25469 7e-05 0.31684 0.0
C279 C 0.31153 0.01989 0.32025 0.0
C280 C 0.22785 0.96382 0.3027 0.0
C281 C 0.25739 0.94712 0.29152 0.0
C282 C 0.31431 0.9673 0.29479 0.0
C283 C 0.34102 0.00296 0.30909 0.0
H284 H 0.19592 0.25221 0.48113 0.0
H285 H 0.36661 0.38725 0.48253 0.0
H286 H 0.21889 0.21003 0.45666 0.0
H287 H 0.38934 0.34511 0.45785 0.0
H288 H 0.26466 0.17771 0.40199 0.0
H289 H 0.24551 0.22675 0.42521 0.0
H290 H 0.39759 0.2615 0.45203 0.0
H291 H 0.41731 0.21288 0.42866 0.0
C292 C 0.23827 0.27314 0.47616 0.0
C293 C 0.27935 0.32323 0.4838 0.0
C294 C 0.25136 0.24907 0.46205 0.0
C295 C 0.30592 0.27428 0.45527 0.0
C296 C 0.34703 0.32444 0.46286 0.0
C297 C 0.33387 0.34875 0.47693 0.0
C298 C 0.29431 0.19606 0.41275 0.0
C299 C 0.34236 0.19091 0.4135 0.0
C300 C 0.2831 0.22393 0.42613 0.0
C301 C 0.31976 0.24762 0.44054 0.0
C302 C 0.36868 0.24399 0.44104 0.0
C303 C 0.37981 0.21585 0.42769 0.0
H304 H 0.92571 0.33199 0.63956 0.0
H305 H 0.95327 0.19602 0.65304 0.0
H306 H -0.01119 0.35504 0.61418 0.0
H307 H 0.01544 0.21863 0.62763 0.0
H308 H 0.07979 0.24395 0.57032 0.0
H309 H 0.00994 0.22039 0.59349 0.0
H310 H 0.09557 0.39107 0.61131 0.0
H311 H 0.16607 0.41481 0.58823 0.0
C312 C 0.94455 0.30657 0.63696 0.0
C313 C 0.9345 0.26217 0.64829 0.0
C314 C 0.98091 0.32002 0.62253 0.0
C315 C 0.00698 0.28862 0.61897 0.0
C316 C -0.0044 0.24327 0.62999 0.0
C317 C 0.96017 0.23049 0.64457 0.0
C318 C 0.08361 0.2766 0.57909 0.0
C319 C 0.12871 0.33122 0.5775 0.0
C320 C 0.0437 0.263 0.59239 0.0
C321 C 0.04741 0.30388 0.60419 0.0
C322 C 0.09152 0.35884 0.6023 0.0
C323 C 0.13203 0.37229 0.58918 0.0
H324 H 0.80939 0.20341 0.7634 0.0
H325 H 0.77068 0.0629 0.7296 0.0
H326 H 0.76037 0.13994 0.78796 0.0
H327 H 0.72251 -0.00047 0.75434 0.0
H328 H 0.71361 0.92297 0.81114 0.0
H329 H 0.75649 0.98346 0.78547 0.0
H330 H 0.65688 0.06107 0.79463 0.0
H331 H 0.61305 -0.00012 0.82017 0.0
C332 C 0.79056 0.15899 0.76124 0.0
C333 C 0.7941 0.13811 0.74461 0.0
C334 C 0.76223 0.12275 0.77525 0.0
C335 C 0.73778 0.06496 0.77301 0.0
C336 C 0.74127 0.04398 0.7564 0.0
C337 C 0.76863 0.08019 0.74227 0.0
C338 C 0.70065 0.95274 0.80763 0.0
C339 C 0.65996 0.95669 0.81767 0.0
C340 C 0.72498 0.98709 0.7929 0.0
C341 C 0.70994 0.02683 0.78811 0.0
C342 C 0.66929 0.03085 0.79811 0.0
C343 C 0.6441 -0.00429 0.81265 0.0
H344 H 0.59063 0.80612 0.93272 0.0
H345 H 0.70438 0.79054 0.89712 0.0
H346 H 0.61252 0.75816 0.95581 0.0
H347 H 0.72576 0.74204 0.92029 0.0
H348 H 0.7033 0.60995 0.96407 0.0
H349 H 0.6768 0.6504 0.93945 0.0
H350 H 0.70301 0.78723 0.97309 0.0
H351 H 0.72985 0.74784 0.99741 0.0
C352 C 0.61999 0.79216 0.92976 0.0
C353 C 0.64622 0.80277 0.91312 0.0
C354 C 0.63257 0.76479 0.943 0.0
C355 C 0.67101 0.74662 0.93985 0.0
C356 C 0.69578 0.75537 0.92304 0.0
C357 C 0.68382 0.78351 0.90984 0.0
C358 C 0.70355 0.64874 0.96614 0.0
C359 C 0.71895 0.67575 0.98268 0.0
C360 C 0.68852 0.67188 0.95207 0.0
C361 C 0.68751 0.72173 0.95444 0.0
C362 C 0.7028 0.74848 0.97095 0.0
C363 C 0.71863 0.72602 0.98484 0.0
H364 H 0.06774 0.67428 0.13678 0.0
H365 H -0.00467 0.76535 0.16067 0.0
H366 H 0.00746 0.65512 0.11086 0.0
H367 H 0.9362 0.74691 0.13483 0.0
H368 H 0.92253 0.67879 0.06065 0.0
H369 H -0.01204 0.70022 0.08526 0.0
H370 H 0.85578 0.66444 0.1225 0.0
H371 H 0.7909 0.64385 0.09812 0.0
C372 C 0.03952 0.69073 0.13644 0.0
C373 C 0.03618 0.72105 0.15087 0.0
C374 C 0.00514 0.67989 0.12157 0.0
C375 C 0.96665 0.69899 0.12089 0.0
C376 C 0.96463 0.73069 0.13509 0.0
C377 C -0.00114 0.74153 0.14988 0.0
C378 C 0.90749 0.67552 0.0741 0.0
C379 C 0.85155 0.6601 0.07739 0.0
C380 C 0.94491 0.68752 0.08818 0.0
C381 C 0.92716 0.68456 0.10581 0.0
C382 C 0.87105 0.66819 0.10906 0.0
C383 C 0.83375 0.65609 0.09505 0.0
H384 H 0.18119 0.85373 0.56921 0.0
H385 H 0.05443 0.75116 0.6073 0.0
H386 H 0.11526 0.80741 0.54517 0.0
H387 H -0.01185 0.70542 0.58316 0.0
H388 H 0.9063 0.5993 0.53248 0.0
H389 H 0.96952 0.64232 0.55763 0.0
H390 H 0.03129 0.80421 0.53365 0.0
H391 H 0.96925 0.76165 0.50858 0.0
C392 C 0.13924 0.82142 0.57248 0.0
C393 C 0.12305 0.80651 0.59021 0.0
C394 C 0.10134 0.79504 0.55869 0.0
C395 C 0.04632 0.75305 0.56227 0.0
C396 C 0.03032 0.73737 0.57997 0.0
C397 C 0.06825 0.76386 0.59379 0.0
C398 C 0.93303 0.6441 0.53268 0.0
C399 C 0.9328 0.67693 0.51848 0.0
C400 C 0.96917 0.66874 0.54709 0.0
C401 C 0.00582 0.72662 0.54753 0.0
C402 C 0.0044 0.75942 0.53355 0.0
C403 C 0.96845 0.73494 0.51922 0.0
H404 H 0.30574 0.9228 0.69821 0.0
H405 H 0.20335 0.98606 0.6765 0.0
H406 H 0.33349 -0.01009 0.72254 0.0
H407 H 0.23035 0.05192 0.70074 0.0
H408 H 0.33664 0.20391 0.73414 0.0
H409 H 0.31394 0.13628 0.71041 0.0
H410 H 0.29544 0.0124 0.74882 0.0
H411 H 0.31911 0.08015 0.77254 0.0
C412 C 0.28864 0.95043 0.69873 0.0
C413 C 0.25248 0.94911 0.68537 0.0
C414 C 0.30454 0.98886 0.71264 0.0
C415 C 0.28466 0.0267 0.71342 0.0
C416 C 0.2474 0.02424 0.70032 0.0
C417 C 0.23156 0.98603 0.68648 0.0
C418 C 0.32805 0.16238 0.73753 0.0
C419 C 0.32918 0.14737 0.75526 0.0
C420 C 0.31475 0.12352 0.72394 0.0
C421 C 0.30235 0.06881 0.72777 0.0
C422 C 0.30509 0.05426 0.74543 0.0
C423 C 0.31832 0.09308 0.75903 0.0
H424 H 0.13553 0.33352 0.90411 0.0
H425 H 0.23503 0.30263 0.94181 0.0
H426 H 0.1817 0.31522 0.87984 0.0
H427 H 0.28093 0.28352 0.9173 0.0
H428 H 0.22332 0.21562 0.84225 0.0
H429 H 0.18192 0.23292 0.86803 0.0
H430 H 0.34514 0.33078 0.89152 0.0
H431 H 0.38713 0.31285 0.8656 0.0
C432 C 0.16715 0.32266 0.90725 0.0
C433 C 0.18115 0.319 0.92493 0.0
C434 C 0.19346 0.31193 0.89331 0.0
C435 C 0.23451 0.29734 0.89668 0.0
C436 C 0.24956 0.29485 0.91432 0.0
C437 C 0.22303 0.30547 0.92833 0.0
C438 C 0.25061 0.24059 0.85291 0.0
C439 C 0.30868 0.26314 0.85179 0.0
C440 C 0.22679 0.25073 0.86766 0.0
C441 C 0.26033 0.2838 0.88169 0.0
C442 C 0.31825 0.30496 0.88092 0.0
C443 C 0.34226 0.2948 0.86607 0.0
H444 H 0.78241 0.13072 0.06894 0.0
H445 H 0.90785 0.22852 0.10807 0.0
H446 H 0.8504 0.17668 0.04545 0.0
H447 H 0.97623 0.27396 0.08444 0.0
H448 H 0.0646 0.37937 0.03398 0.0
H449 H -0.00077 0.33829 0.05872 0.0
H450 H 0.93338 0.1756 0.03505 0.0
H451 H -0.00254 0.21614 0.01042 0.0
C452 C 0.82449 0.16196 0.07255 0.0
C453 C 0.83976 0.17548 0.09041 0.0
C454 C 0.86356 0.18814 0.05908 0.0
C455 C 0.91885 0.22852 0.06311 0.0
C456 C 0.93389 0.24319 0.08092 0.0
C457 C 0.89475 0.21688 0.09445 0.0
C458 C 0.03644 0.3348 0.03415 0.0
C459 C 0.03609 0.30117 0.02015 0.0
C460 C -0.0009 0.31129 0.04833 0.0
C461 C 0.96068 0.25381 0.0487 0.0
C462 C 0.9616 0.22017 0.03496 0.0
C463 C -0.00129 0.2435 0.02087 0.0
H464 H 0.64244 0.89842 0.27228 0.0
H465 H 0.62288 0.77417 0.2339 0.0
H466 H 0.66443 0.96576 0.24844 0.0
H467 H 0.64386 0.84124 0.2101 0.0
H468 H 0.75295 -0.00967 0.17561 0.0
H469 H 0.72665 0.92486 0.19996 0.0
H470 H 0.62601 0.98876 0.22224 0.0
H471 H 0.65311 0.05556 0.19777 0.0
C472 C 0.64237 0.88527 0.25876 0.0
C473 C 0.63153 0.83097 0.25504 0.0
C474 C 0.65466 0.92386 0.24508 0.0
C475 C 0.65647 0.90908 0.22739 0.0
C476 C 0.64387 0.85429 0.22363 0.0
C477 C 0.63155 0.81571 0.23728 0.0
C478 C 0.72541 -0.00913 0.1857 0.0
C479 C 0.70508 0.02831 0.18468 0.0
C480 C 0.70994 0.95285 0.19961 0.0
C481 C 0.67362 0.951 0.21292 0.0
C482 C 0.65423 0.98927 0.21221 0.0
C483 C 0.66974 0.02752 0.1982 0.0
H484 H 0.8378 0.64112 0.40153 0.0
H485 H 0.73282 0.66259 0.43939 0.0
H486 H 0.79161 0.66085 0.3774 0.0
H487 H 0.6873 0.68327 0.41519 0.0
H488 H 0.74544 0.76206 0.34107 0.0
H489 H 0.78783 0.74127 0.366 0.0
H490 H 0.62531 0.64021 0.38952 0.0
H491 H 0.58259 0.66171 0.36459 0.0
C492 C 0.80491 0.65006 0.40473 0.0
C493 C 0.78934 0.65064 0.42242 0.0
C494 C 0.77865 0.66171 0.39089 0.0
C495 C 0.73612 0.67414 0.39439 0.0
C496 C 0.71967 0.67353 0.41205 0.0
C497 C 0.74601 0.66196 0.42591 0.0
C498 C 0.71861 0.73571 0.3516 0.0
C499 C 0.66053 0.71356 0.35081 0.0
C500 C 0.74296 0.72344 0.36583 0.0
C501 C 0.70991 0.68863 0.37965 0.0
C502 C 0.65195 0.66746 0.37912 0.0
C503 C 0.62748 0.67974 0.36483 0.0
H504 H 0.45547 0.74728 0.33622 0.0
H505 H 0.61213 0.89611 0.32514 0.0
H506 H 0.42378 0.80187 0.35242 0.0
H507 H 0.57934 0.95154 0.34063 0.0
H508 H 0.52804 0.03786 0.37911 0.0
H509 H 0.55843 0.9742 0.36844 0.0
H510 H 0.39244 0.86524 0.34799 0.0
H511 H 0.36198 0.92779 0.35969 0.0
C512 C 0.48297 0.7919 0.33707 0.0
C513 C 0.53631 0.81753 0.32933 0.0
C514 C 0.46467 0.82325 0.34636 0.0
C515 C 0.49886 0.88119 0.3479 0.0
C516 C 0.55224 0.90685 0.34007 0.0
C517 C 0.57094 0.87526 0.33102 0.0
C518 C 0.49784 -0.00084 0.37289 0.0
C519 C 0.44268 0.98691 0.37038 0.0
C520 C 0.51533 0.96318 0.36649 0.0
C521 C 0.47827 0.91504 0.35701 0.0
C522 C 0.4221 0.90153 0.35537 0.0
C523 C 0.4044 0.93711 0.36211 0.0
H524 H 0.4393 0.39424 0.54228 0.0
H525 H 0.45344 0.54889 0.5243 0.0
H526 H 0.53614 0.42793 0.53325 0.0
H527 H 0.54829 0.58152 0.51494 0.0
H528 H 0.72958 0.64142 0.50711 0.0
H529 H 0.64256 0.61121 0.52312 0.0
H530 H 0.58047 0.44317 0.5043 0.0
H531 H 0.66773 0.47292 0.48875 0.0
C532 C 0.46337 0.43567 0.53673 0.0
C533 C 0.43875 0.46863 0.53378 0.0
C534 C 0.51849 0.45478 0.53142 0.0
C535 C 0.54967 0.50719 0.5232 0.0
C536 C 0.52582 0.54124 0.52134 0.0
C537 C 0.47111 0.52222 0.52657 0.0
C538 C 0.69729 0.59809 0.50638 0.0
C539 C 0.70536 0.55967 0.49657 0.0
C540 C 0.64755 0.58071 0.5156 0.0
C541 C 0.60471 0.5247 0.51506 0.0
C542 C 0.61303 0.48633 0.50532 0.0
C543 C 0.66281 0.50358 0.49621 0.0
H544 H 0.19352 0.70571 0.67307 0.0
H545 H 0.05083 0.7221 0.65904 0.0
H546 H 0.13235 0.61541 0.68635 0.0
H547 H -0.01088 0.63068 0.67238 0.0
H548 H 0.91703 0.43698 0.6685 0.0
H549 H 0.9705 0.53553 0.66177 0.0
H550 H 0.06079 0.56469 0.71103 0.0
H551 H 0.00629 0.46478 0.71799 0.0
C552 C 0.14899 0.69016 0.67296 0.0
C553 C 0.12678 0.72054 0.66477 0.0
C554 C 0.11408 0.63874 0.68078 0.0
C555 C 0.05613 0.61616 0.6804 0.0
C556 C 0.03381 0.6473 0.6728 0.0
C557 C 0.06896 0.69942 0.66518 0.0
C558 C 0.94805 0.46425 0.67801 0.0
C559 C 0.95808 0.44302 0.69369 0.0
C560 C 0.97813 0.52088 0.67423 0.0
C561 C 0.01949 0.5577 0.68591 0.0
C562 C 0.02896 0.53696 0.70181 0.0
C563 C -0.00201 0.48001 0.70577 0.0
H564 H 0.34102 0.09503 0.83887 0.0
H565 H 0.50988 0.2022 0.82071 0.0
H566 H 0.37142 0.03792 0.85471 0.0
H567 H 0.53982 0.14452 0.83613 0.0
H568 H 0.58861 0.05286 0.87491 0.0
H569 H 0.55493 0.11553 0.86521 0.0
H570 H 0.40202 0.97389 0.84668 0.0
H571 H 0.4346 0.91214 0.85666 0.0
C572 C 0.38446 0.10613 0.83814 0.0
C573 C 0.42293 0.15292 0.82846 0.0
C574 C 0.40195 0.07357 0.84727 0.0
C575 C 0.45815 0.08691 0.84678 0.0
C576 C 0.49652 0.13378 0.83711 0.0
C577 C 0.47915 0.16643 0.82808 0.0
C578 C 0.54736 0.03535 0.86913 0.0
C579 C 0.51455 0.9778 0.86636 0.0
C580 C 0.52825 0.07109 0.86344 0.0
C581 C 0.47596 0.04965 0.85503 0.0
C582 C 0.44217 -0.00815 0.85324 0.0
C583 C 0.46119 0.95643 0.85883 0.0
H584 H 0.26483 0.32771 0.99195 0.0
H585 H 0.27694 0.48059 0.01072 0.0
H586 H 0.35714 0.35651 0.00464 0.0
H587 H 0.36813 0.50889 0.02334 0.0
H588 H 0.52239 0.53243 0.0524 0.0
H589 H 0.4219 0.48571 0.04609 0.0
H590 H 0.45092 0.43646 0.9947 0.0
H591 H 0.55013 0.4828 1.00081 0.0
C592 C 0.28672 0.36683 0.99903 0.0
C593 C 0.26426 0.4023 1.00011 0.0
C594 C 0.33937 0.38332 0.00627 0.0
C595 C 0.36967 0.43497 0.01494 0.0
C596 C 0.34555 0.46869 0.0169 0.0
C597 C 0.2936 0.45271 0.00947 0.0
C598 C 0.50706 0.51124 0.03984 0.0
C599 C 0.54418 0.512 0.02703 0.0
C600 C 0.44974 0.48447 0.03625 0.0
C601 C 0.42876 0.45721 0.01995 0.0
C602 C 0.46577 0.45637 0.00746 0.0
C603 C 0.52277 0.48367 0.01091 0.0
H604 H 0.95192 0.51251 0.21839 0.0
H605 H 0.04669 0.53969 0.17023 0.0
H606 H 0.89438 0.41347 0.21062 0.0
H607 H -0.00974 0.44192 0.16272 0.0
H608 H 0.90548 0.25439 0.16017 0.0
H609 H 0.96727 0.34529 0.17372 0.0
H610 H 0.82532 0.36561 0.18467 0.0
H611 H 0.76391 0.27566 0.17114 0.0
C612 C 0.96072 0.49729 0.20629 0.0
C613 C 0.00322 0.53389 0.19482 0.0
C614 C 0.92799 0.44085 0.20186 0.0
C615 C 0.93825 0.42018 0.18612 0.0
C616 C 0.98193 0.45654 0.17503 0.0
C617 C 0.01376 0.51272 0.17926 0.0
C618 C 0.88756 0.27807 0.16566 0.0
C619 C 0.83006 0.25831 0.16438 0.0
C620 C 0.92279 0.32991 0.1734 0.0
C621 C 0.9009 0.36226 0.18025 0.0
C622 C 0.84318 0.34128 0.17968 0.0
C623 C 0.80818 0.29005 0.17173 0.0
H624 H 0.97905 0.50797 0.44851 0.0
H625 H 0.97262 0.54514 0.50386 0.0
H626 H 0.03269 0.46241 0.45656 0.0
H627 H 0.0253 0.49991 0.51172 0.0
H628 H 0.06756 0.36683 0.52321 0.0
H629 H 0.00834 0.40223 0.51181 0.0
H630 H 0.12676 0.48832 0.46986 0.0
H631 H 0.1856 0.45276 0.48107 0.0
C632 C -0.01051 0.50696 0.4623 0.0
C633 C 0.97116 0.52976 0.47554 0.0
C634 C 0.01986 0.48068 0.46691 0.0
C635 C 0.03195 0.47657 0.48481 0.0
C636 C 0.01521 0.50103 0.49789 0.0
C637 C 0.98541 0.52743 0.49332 0.0
C638 C 0.08038 0.39242 0.51137 0.0
C639 C 0.13149 0.40753 0.50318 0.0
C640 C 0.04673 0.41295 0.50491 0.0
C641 C 0.0634 0.44854 0.49008 0.0
C642 C 0.11282 0.46087 0.48127 0.0
C643 C 0.14663 0.44075 0.48779 0.0
H644 H 0.42544 0.92357 0.66512 0.0
H645 H 0.45081 0.02057 0.61755 0.0
H646 H 0.52374 0.97924 0.6723 0.0
H647 H 0.55042 0.07721 0.62495 0.0
H648 H 0.6901 0.20674 0.66361 0.0
H649 H 0.59954 0.14517 0.65045 0.0
H650 H 0.62026 0.00371 0.66165 0.0
H651 H 0.71184 0.06575 0.67488 0.0
C652 C 0.45217 0.95674 0.65612 0.0
C653 C 0.43027 0.96822 0.64086 0.0
C654 C 0.50868 0.98817 0.66016 0.0
C655 C 0.54472 0.03238 0.64918 0.0
C656 C 0.52335 0.04328 0.63365 0.0
C657 C 0.46656 0.01101 0.62942 0.0
C658 C 0.67568 0.16254 0.66319 0.0
C659 C 0.70783 0.14095 0.67052 0.0
C660 C 0.62404 0.1274 0.65543 0.0
C661 C 0.60295 0.06976 0.65499 0.0
C662 C 0.63562 0.04811 0.66186 0.0
C663 C 0.68789 0.08349 0.66943 0.0
H664 H 0.53019 0.73946 0.81567 0.0
H665 H 0.61219 0.70405 0.85844 0.0
H666 H 0.49588 0.64626 0.80386 0.0
H667 H 0.57805 0.6106 0.84643 0.0
H668 H 0.43569 0.43321 0.83673 0.0
H669 H 0.48028 0.53022 0.84523 0.0
H670 H 0.5232 0.57927 0.79055 0.0
H671 H 0.47828 0.48084 0.78184 0.0
C672 C 0.54156 0.71201 0.82243 0.0
C673 C 0.57328 0.72879 0.83815 0.0
C674 C 0.52221 0.6588 0.81554 0.0
C675 C 0.53381 0.62112 0.82432 0.0
C676 C 0.56792 0.63876 0.83954 0.0
C677 C 0.58769 0.69224 0.84636 0.0
C678 C 0.4545 0.46445 0.82642 0.0
C679 C 0.45387 0.44924 0.80858 0.0
C680 C 0.48051 0.52012 0.83137 0.0
C681 C 0.50631 0.56221 0.81863 0.0
C682 C 0.50389 0.54744 0.80066 0.0
C683 C 0.47797 0.49126 0.79566 0.0
H684 H 0.9248 0.64984 0.00974 0.0
H685 H 0.78431 0.49394 0.99272 0.0
H686 H -0.01156 0.62133 0.99707 0.0
H687 H 0.84738 0.46596 0.98012 0.0
H688 H 0.97728 0.44351 0.95013 0.0
H689 H 0.92222 0.48872 0.95669 0.0
H690 H 0.00601 0.54383 0.00717 0.0
H691 H 0.06015 0.49894 1.0008 0.0
C692 C 0.9076 0.61003 0.00307 0.0
C693 C 0.84974 0.57381 0.00245 0.0
C694 C 0.94387 0.59371 0.99585 0.0
C695 C 0.92272 0.54141 0.98762 0.0
C696 C 0.86485 0.50667 0.9862 0.0
C697 C 0.82879 0.52252 0.99362 0.0
C698 C 0.98413 0.46574 0.96252 0.0
C699 C 0.02239 0.46699 0.97503 0.0
C700 C 0.95278 0.49159 0.96627 0.0
C701 C 0.96013 0.51997 0.98241 0.0
C702 C -2e-05 0.52297 0.99454 0.0
C703 C 0.03047 0.49655 0.99095 0.0
H704 H 0.51355 0.94446 0.11941 0.0
H705 H 0.53097 0.06453 0.15902 0.0
H706 H 0.41526 0.88504 0.12802 0.0
H707 H 0.43408 0.00615 0.16748 0.0
H708 H 0.24762 0.90443 0.17238 0.0
H709 H 0.33545 0.96496 0.15712 0.0
H710 H 0.37376 0.83179 0.1567 0.0
H711 H 0.28644 0.77134 0.17181 0.0
C712 C 0.49605 0.95849 0.12966 0.0
C713 C 0.52968 0.00847 0.13872 0.0
C714 C 0.44016 0.92462 0.13464 0.0
C715 C 0.41725 0.94106 0.14845 0.0
C716 C 0.45035 -0.00737 0.1567 0.0
C717 C 0.50597 0.02577 0.15196 0.0
C718 C 0.27469 0.88804 0.16897 0.0
C719 C 0.2603 0.8333 0.17349 0.0
C720 C 0.32477 0.92258 0.16018 0.0
C721 C 0.36113 0.90285 0.15564 0.0
C722 C 0.3461 0.84777 0.15977 0.0
C723 C 0.29638 0.81344 0.16866 0.0
H724 H 0.54879 0.54852 0.3356 0.0
H725 H 0.49853 0.49775 0.28132 0.0
H726 H 0.51163 0.4522 0.34424 0.0
H727 H 0.46153 0.40004 0.29017 0.0
H728 H 0.46212 0.24231 0.31711 0.0
H729 H 0.49732 0.33547 0.30465 0.0
H730 H 0.40946 0.37137 0.34505 0.0
H731 H 0.37405 0.27851 0.35752 0.0
C732 C 0.53011 0.51678 0.32545 0.0
C733 C 0.52571 0.53072 0.3078 0.0
C734 C 0.50865 0.46159 0.33046 0.0
C735 C 0.48267 0.41886 0.31795 0.0
C736 C 0.48109 0.43251 0.30006 0.0
C737 C 0.50236 0.48823 0.29501 0.0
C738 C 0.44984 0.2699 0.32323 0.0
C739 C 0.4157 0.25327 0.33842 0.0
C740 C 0.46974 0.32297 0.31601 0.0
C741 C 0.4564 0.36046 0.324 0.0
C742 C 0.42072 0.34321 0.33877 0.0
C743 C 0.40033 0.29005 0.34586 0.0
H744 H 0.03456 0.70484 0.42982 0.0
H745 H 0.98421 0.81556 0.45307 0.0
H746 H 0.10638 0.78202 0.41286 0.0
H747 H 0.057 0.89309 0.4361 0.0
H748 H 0.24535 0.01557 0.42169 0.0
H749 H 0.16473 0.94137 0.43671 0.0
H750 H 0.11058 0.84942 0.3876 0.0
H751 H 0.1918 0.92481 0.37232 0.0
C752 C 0.03906 0.74571 0.43144 0.0
C753 C 0.00382 0.7542 0.44287 0.0
C754 C 0.07969 0.78964 0.42153 0.0
C755 C 0.08649 0.84305 0.42303 0.0
C756 C 0.05219 0.85202 0.43469 0.0
C757 C 0.01087 0.80783 0.44444 0.0
C758 C 0.21602 0.9797 0.41404 0.0
C759 C 0.22489 0.97534 0.3959 0.0
C760 C 0.16972 0.93757 0.42262 0.0
C761 C 0.1318 0.88987 0.4133 0.0
C762 C 0.13966 0.88593 0.39503 0.0
C763 C 0.18572 0.92885 0.38631 0.0
H764 H 0.32814 0.29123 0.57333 0.0
H765 H 0.18405 0.17289 0.54349 0.0
H766 H 0.32623 0.21605 0.59035 0.0
H767 H 0.18288 0.09654 0.5604 0.0
H768 H 0.1567 0.98912 0.6104 0.0
H769 H 0.16113 0.06299 0.59153 0.0
H770 H 0.34026 0.13754 0.58845 0.0
H771 H 0.33619 0.06523 0.60762 0.0
C772 C 0.29673 0.24882 0.57016 0.0
C773 C 0.25605 0.23778 0.55718 0.0
C774 C 0.29572 0.20572 0.57989 0.0
C775 C 0.25406 0.15043 0.57684 0.0
C776 C 0.21493 0.13894 0.56321 0.0
C777 C 0.21606 0.18239 0.55336 0.0
C778 C 0.19707 0.02184 0.60594 0.0
C779 C 0.24609 0.02136 0.61054 0.0
C780 C 0.19949 0.06357 0.5949 0.0
C781 C 0.25096 0.10561 0.58833 0.0
C782 C 0.29999 0.10587 0.59335 0.0
C783 C 0.29762 0.0644 0.60437 0.0
H784 H 0.27659 0.34796 0.76755 0.0
H785 H 0.16821 0.17553 0.78185 0.0
H786 H 0.20311 0.34622 0.74968 0.0
H787 H 0.09311 0.17456 0.76445 0.0
H788 H -0.00983 0.17456 0.71697 0.0
H789 H 0.06539 0.17571 0.73433 0.0
H790 H 0.11767 0.34372 0.75124 0.0
H791 H 0.04483 0.3435 0.73341 0.0
C792 C 0.23665 0.30984 0.76717 0.0
C793 C 0.22843 0.26179 0.77614 0.0
C794 C 0.19427 0.30892 0.75691 0.0
C795 C 0.14208 0.26019 0.75552 0.0
C796 C 0.13314 0.21252 0.76494 0.0
C797 C 0.17593 0.21326 0.7751 0.0
C798 C 0.01836 0.212 0.72417 0.0
C799 C 0.01142 0.2589 0.72375 0.0
C800 C 0.06103 0.21243 0.73432 0.0
C801 C 0.09743 0.25965 0.74433 0.0
C802 C 0.09106 0.30685 0.74354 0.0
C803 C 0.04898 0.30664 0.7333 0.0
H804 H 0.69451 0.04739 0.90595 0.0
H805 H 0.81082 0.0124 0.87871 0.0
H806 H 0.77052 0.12108 0.9226 0.0
H807 H 0.88796 0.08775 0.89526 0.0
H808 H -0.00683 0.17024 0.94559 0.0
H809 H 0.91914 0.10144 0.9267 0.0
H810 H 0.85227 0.21188 0.92028 0.0
H811 H 0.92505 0.27988 0.93943 0.0
C812 C 0.73668 0.05638 0.90326 0.0
C813 C 0.74682 0.02404 0.89112 0.0
C814 C 0.78027 0.09874 0.91277 0.0
C815 C 0.83517 0.10985 0.91039 0.0
C816 C 0.84586 0.07944 0.89756 0.0
C817 C 0.80196 0.03696 0.88792 0.0
C818 C 0.9622 0.17949 0.94036 0.0
C819 C 0.96499 0.23054 0.94406 0.0
C820 C 0.92033 0.14044 0.92931 0.0
C821 C 0.88033 0.15156 0.92182 0.0
C822 C 0.88236 0.20198 0.9259 0.0
C823 C 0.92408 0.24093 0.93691 0.0
H824 H 0.80322 0.98323 0.11661 0.0
H825 H 0.63194 0.92248 0.101 0.0
H826 H 0.80445 0.90982 0.09913 0.0
H827 H 0.63393 0.85101 0.08309 0.0
H828 H 0.63892 0.6963 0.06639 0.0
H829 H 0.63657 0.76736 0.08443 0.0
H830 H 0.8052 0.88531 0.06853 0.0
H831 H 0.80841 0.81317 0.05091 0.0
C832 C 0.76575 0.95404 0.10957 0.0
C833 C 0.71757 0.95888 0.11019 0.0
C834 C 0.76667 0.9124 0.09937 0.0
C835 C 0.71951 0.8749 0.08952 0.0
C836 C 0.67086 0.87877 0.09061 0.0
C837 C 0.66979 0.91999 0.10089 0.0
C838 C 0.67543 0.7375 0.06656 0.0
C839 C 0.72401 0.74891 0.05725 0.0
C840 C 0.67399 0.77838 0.07691 0.0
C841 C 0.72086 0.83198 0.07807 0.0
C842 C 0.76878 0.84408 0.06824 0.0
C843 C 0.77039 0.80295 0.05796 0.0
H844 H 0.79795 0.81028 0.28066 0.0
H845 H 0.69485 0.63466 0.26936 0.0
H846 H 0.8748 0.81125 0.26431 0.0
H847 H 0.76954 0.63633 0.25248 0.0
H848 H 0.92772 0.63987 0.23813 0.0
H849 H 0.85597 0.6423 0.25563 0.0
H850 H 0.9032 0.80512 0.23455 0.0
H851 H 0.97778 0.8039 0.21754 0.0
C852 C 0.79177 0.77194 0.27481 0.0
C853 C 0.74029 0.72245 0.27635 0.0
C854 C 0.8355 0.77263 0.26526 0.0
C855 C 0.82832 0.72391 0.25702 0.0
C856 C 0.77707 0.67444 0.25888 0.0
C857 C 0.73394 0.67359 0.26853 0.0
C858 C 0.92268 0.67611 0.23703 0.0
C859 C 0.95842 0.72165 0.22636 0.0
C860 C 0.8813 0.67744 0.24709 0.0
C861 C 0.87361 0.72385 0.2465 0.0
C862 C 0.90858 0.76909 0.23554 0.0
C863 C 0.9508 0.76811 0.22562 0.0
H864 H 0.80737 0.46651 0.41611 0.0
H865 H 0.71306 0.39766 0.46424 0.0
H866 H 0.73833 0.387 0.39942 0.0
H867 H 0.64275 0.31788 0.44734 0.0
H868 H 0.54695 0.16358 0.41353 0.0
H869 H 0.62497 0.23617 0.42991 0.0
H870 H 0.64317 0.35624 0.39002 0.0
H871 H 0.56532 0.28313 0.37337 0.0
C872 C 0.77192 0.43402 0.42315 0.0
C873 C 0.76512 0.4384 0.44145 0.0
C874 C 0.73227 0.38868 0.41355 0.0
C875 C 0.68471 0.34676 0.42199 0.0
C876 C 0.67921 0.34956 0.44049 0.0
C877 C 0.71932 0.39505 0.45018 0.0
C878 C 0.56789 0.20538 0.40813 0.0
C879 C 0.54987 0.21777 0.39216 0.0
C880 C 0.61238 0.24696 0.41761 0.0
C881 C 0.63986 0.30188 0.41135 0.0
C882 C 0.62309 0.31405 0.39509 0.0
C883 C 0.57852 0.27231 0.38555 0.0
H884 H 0.29089 0.71623 0.62997 0.0
H885 H 0.30274 0.80407 0.58126 0.0
H886 H 0.29245 0.64212 0.61271 0.0
H887 H 0.30488 0.73112 0.56427 0.0
H888 H 0.23744 0.5576 0.53938 0.0
H889 H 0.23964 0.63375 0.5565 0.0
H890 H 0.35496 0.62623 0.5936 0.0
H891 H 0.35239 0.55055 0.57684 0.0
C892 C 0.2947 0.72011 0.61568 0.0
C893 C 0.29629 0.76564 0.60699 0.0
C894 C 0.29545 0.67779 0.60579 0.0
C895 C 0.298 0.68064 0.58712 0.0
C896 C 0.30155 0.72715 0.57857 0.0
C897 C 0.30073 0.76912 0.58838 0.0
C898 C 0.26364 0.57275 0.55107 0.0
C899 C 0.29448 0.54799 0.55677 0.0
C900 C 0.26488 0.61616 0.56089 0.0
C901 C 0.29711 0.63543 0.57649 0.0
C902 C 0.3289 0.6115 0.58187 0.0
C903 C 0.32763 0.56835 0.57214 0.0
H904 H 0.50778 0.32172 0.74706 0.0
H905 H 0.59283 0.34458 0.79717 0.0
H906 H 0.5868 0.32752 0.73154 0.0
H907 H 0.67364 0.35236 0.78137 0.0
H908 H 0.75476 0.26816 0.75038 0.0
H909 H 0.68869 0.2845 0.76637 0.0
H910 H 0.68223 0.38133 0.72237 0.0
H911 H 0.7482 0.36368 0.70596 0.0
C912 C 0.54386 0.329 0.75479 0.0
C913 C 0.54361 0.3317 0.77343 0.0
C914 C 0.58956 0.33297 0.7458 0.0
C915 C 0.63639 0.33995 0.75519 0.0
C916 C 0.63767 0.34605 0.77378 0.0
C917 C 0.59163 0.34194 0.78283 0.0
C918 C 0.73967 0.2933 0.74407 0.0
C919 C 0.75664 0.31451 0.72682 0.0
C920 C 0.70214 0.30319 0.75338 0.0
C921 C 0.68057 0.3347 0.74576 0.0
C922 C 0.69792 0.35658 0.72857 0.0
C923 C 0.73554 0.34642 0.71915 0.0
H924 H 0.46443 0.797 0.91799 0.0
H925 H 0.40212 0.6979 0.87035 0.0
H926 H 0.39309 0.72192 0.93533 0.0
H927 H 0.32869 0.62263 0.88782 0.0
H928 H 0.24954 0.47909 0.92657 0.0
H929 H 0.32023 0.55611 0.90951 0.0
H930 H 0.29562 0.67147 0.94152 0.0
H931 H 0.22549 0.59354 0.95912 0.0
C932 C 0.43485 0.75936 0.91113 0.0
C933 C 0.43878 0.75343 0.89273 0.0
C934 C 0.39367 0.71636 0.92113 0.0
C935 C 0.35505 0.66635 0.913 0.0
C936 C 0.35838 0.6605 0.89453 0.0
C937 C 0.40015 0.70358 0.88449 0.0
C938 C 0.25947 0.52101 0.93004 0.0
C939 C 0.23197 0.53055 0.9441 0.0
C940 C 0.29958 0.56508 0.92013 0.0
C941 C 0.31288 0.61985 0.92391 0.0
C942 C 0.28644 0.62966 0.93832 0.0
C943 C 0.24647 0.58528 0.94843 0.0
H944 H 0.64476 0.24805 0.12947 0.0
H945 H 0.67405 0.18785 0.08005 0.0
H946 H 0.63952 0.32186 0.11321 0.0
H947 H 0.67042 0.26168 0.06411 0.0
H948 H 0.63137 0.38531 0.03775 0.0
H949 H 0.61535 0.30211 0.05413 0.0
H950 H 0.70897 0.40526 0.09849 0.0
H951 H 0.72399 0.48717 0.08251 0.0
C952 C 0.64952 0.25017 0.11519 0.0
C953 C 0.66054 0.21251 0.10614 0.0
C954 C 0.64679 0.29252 0.10587 0.0
C955 C 0.655 0.29787 0.08736 0.0
C956 C 0.66331 0.25852 0.07829 0.0
C957 C 0.66599 0.21643 0.08754 0.0
C958 C 0.64838 0.38998 0.05099 0.0
C959 C 0.67884 0.44282 0.05879 0.0
C960 C 0.63914 0.34244 0.0604 0.0
C961 C 0.66036 0.34705 0.07772 0.0
C962 C 0.69077 0.39995 0.0854 0.0
C963 C 0.69986 0.44709 0.07609 0.0
H964 H 0.3717 0.62144 0.2981 0.0
H965 H 0.45519 0.65086 0.2475 0.0
H966 H 0.28832 0.60994 0.28291 0.0
H967 H 0.37369 0.64155 0.23261 0.0
H968 H 0.20456 0.69558 0.25357 0.0
H969 H 0.27001 0.67705 0.26908 0.0
H970 H 0.2787 0.58712 0.22353 0.0
H971 H 0.21356 0.60725 0.2076 0.0
C972 C 0.37202 0.62467 0.28378 0.0
C973 C 0.42034 0.63811 0.27407 0.0
C974 C 0.32448 0.61838 0.27508 0.0
C975 C 0.32464 0.62557 0.25656 0.0
C976 C 0.37177 0.63523 0.24682 0.0
C977 C 0.41892 0.64129 0.25546 0.0
C978 C 0.21993 0.67141 0.24683 0.0
C979 C 0.2042 0.65328 0.22925 0.0
C980 C 0.25706 0.66017 0.25586 0.0
C981 C 0.27937 0.63028 0.24762 0.0
C982 C 0.26253 0.61069 0.23019 0.0
C983 C 0.2254 0.62228 0.22105 0.0
loop_
_geom_bond_atom_site_label_1
_geom_bond_atom_site_label_2
_geom_bond_distance
_geom_bond_site_symmetry_2
_ccdc_geom_bond_type
Fe0 O2 1.918 . S
Fe0 O5 1.997 . S
Fe0 O6 2.002 . S
Fe0 O11 1.976 . S
Fe0 O14 1.996 . S
Fe1 O2 1.918 . S
Fe1 O9 1.997 . S
Fe1 O12 1.996 . S
Fe1 O16 1.976 . S
Fe1 O19 2.002 . S
O2 Fe0 1.918 . S
O2 Fe1 1.918 . S
O2 Fe3 1.918 . S
Fe3 O2 1.918 . S
Fe3 O4 2.002 . S
Fe3 O13 1.976 . S
Fe3 O17 1.996 . S
Fe3 O20 1.997 . S
O4 Fe3 2.002 . S
O4 C21 1.295 . S
O5 Fe0 1.997 . S
O5 C21 1.235 . S
O6 Fe0 2.002 . S
O6 C7 1.295 . S
C7 O6 1.295 . S
C7 O9 1.235 . S
C8 O13 1.287 . S
C8 O14 1.255 . S
O9 Fe1 1.997 . S
O9 C7 1.235 . S
C10 O16 1.287 . S
C10 O17 1.255 . S
O11 Fe0 1.976 . S
O11 C18 1.287 . S
O12 Fe1 1.996 . S
O12 C18 1.255 . S
O13 Fe3 1.976 . S
O13 C8 1.287 . S
O14 Fe0 1.996 . S
O14 C8 1.255 . S
C15 O19 1.295 . S
C15 O20 1.235 . S
O16 Fe1 1.976 . S
O16 C10 1.287 . S
O17 Fe3 1.996 . S
O17 C10 1.255 . S
C18 O11 1.287 . S
C18 O12 1.255 . S
O19 Fe1 2.002 . S
O19 C15 1.295 . S
O20 Fe3 1.997 . S
O20 C15 1.235 . S
C21 O4 1.295 . S
C21 O5 1.235 . S
Fe22 O24 1.918 . S
Fe22 O27 1.997 . S
Fe22 O28 2.002 . S
Fe22 O33 1.976 . S
Fe22 O36 1.996 . S
Fe23 O24 1.918 . S
Fe23 O31 1.997 . S
Fe23 O34 1.996 . S
Fe23 O38 1.976 . S
Fe23 O41 2.002 . S
O24 Fe22 1.918 . S
O24 Fe23 1.918 . S
O24 Fe25 1.918 . S
Fe25 O24 1.918 . S
Fe25 O26 2.002 . S
Fe25 O35 1.976 . S
Fe25 O39 1.996 . S
Fe25 O42 1.997 . S
O26 Fe25 2.002 . S
O26 C43 1.295 . S
O27 Fe22 1.997 . S
O27 C43 1.235 . S
O28 Fe22 2.002 . S
O28 C29 1.295 . S
C29 O28 1.295 . S
C29 O31 1.235 . S
C30 O35 1.287 . S
C30 O36 1.255 . S
O31 Fe23 1.997 . S
O31 C29 1.235 . S
C32 O38 1.287 . S
C32 O39 1.255 . S
O33 Fe22 1.976 . S
O33 C40 1.287 . S
O34 Fe23 1.996 . S
O34 C40 1.255 . S
O35 Fe25 1.976 . S
O35 C30 1.287 . S
O36 Fe22 1.996 . S
O36 C30 1.255 . S
C37 O41 1.295 . S
C37 O42 1.235 . S
O38 Fe23 1.976 . S
O38 C32 1.287 . S
O39 Fe25 1.996 . S
O39 C32 1.255 . S
C40 O33 1.287 . S
C40 O34 1.255 . S
O41 Fe23 2.002 . S
O41 C37 1.295 . S
O42 Fe25 1.997 . S
O42 C37 1.235 . S
C43 O26 1.295 . S
C43 O27 1.235 . S
Fe44 O46 1.918 . S
Fe44 O49 1.997 . S
Fe44 O50 2.002 . S
Fe44 O55 1.976 . S
Fe44 O58 1.996 . S
Fe45 O46 1.918 . S
Fe45 O53 1.997 . S
Fe45 O56 1.996 . S
Fe45 O60 1.976 . S
Fe45 O63 2.002 . S
O46 Fe44 1.918 . S
O46 Fe45 1.918 . S
O46 Fe47 1.918 . S
Fe47 O46 1.918 . S
Fe47 O48 2.002 . S
Fe47 O57 1.976 . S
Fe47 O61 1.996 . S
Fe47 O64 1.997 . S
O48 Fe47 2.002 . S
O48 C65 1.295 . S
O49 Fe44 1.997 . S
O49 C65 1.235 . S
O50 Fe44 2.002 . S
O50 C51 1.295 . S
C51 O50 1.295 . S
C51 O53 1.235 . S
C52 O57 1.287 . S
C52 O58 1.255 . S
O53 Fe45 1.997 . S
O53 C51 1.235 . S
C54 O60 1.287 . S
C54 O61 1.255 . S
O55 Fe44 1.976 . S
O55 C62 1.287 . S
O56 Fe45 1.996 . S
O56 C62 1.255 . S
O57 Fe47 1.976 . S
O57 C52 1.287 . S
O58 Fe44 1.996 . S
O58 C52 1.255 . S
C59 O63 1.295 . S
C59 O64 1.235 . S
O60 Fe45 1.976 . S
O60 C54 1.287 . S
O61 Fe47 1.996 . S
O61 C54 1.255 . S
C62 O55 1.287 . S
C62 O56 1.255 . S
O63 Fe45 2.002 . S
O63 C59 1.295 . S
O64 Fe47 1.997 . S
O64 C59 1.235 . S
C65 O48 1.295 . S
C65 O49 1.235 . S
Fe66 O68 1.918 . S
Fe66 O71 1.997 . S
Fe66 O72 2.002 . S
Fe66 O77 1.976 . S
Fe66 O80 1.996 . S
Fe67 O68 1.918 . S
Fe67 O75 1.997 . S
Fe67 O78 1.996 . S
Fe67 O82 1.976 . S
Fe67 O85 2.002 . S
O68 Fe66 1.918 . S
O68 Fe67 1.918 . S
O68 Fe69 1.918 . S
Fe69 O68 1.918 . S
Fe69 O70 2.002 . S
Fe69 O79 1.976 . S
Fe69 O83 1.996 . S
Fe69 O86 1.997 . S
O70 Fe69 2.002 . S
O70 C87 1.295 . S
O71 Fe66 1.997 . S
O71 C87 1.235 . S
O72 Fe66 2.002 . S
O72 C73 1.295 . S
C73 O72 1.295 . S
C73 O75 1.235 . S
C74 O79 1.287 . S
C74 O80 1.255 . S
O75 Fe67 1.997 . S
O75 C73 1.235 . S
C76 O82 1.287 . S
C76 O83 1.255 . S
O77 Fe66 1.976 . S
O77 C84 1.287 . S
O78 Fe67 1.996 . S
O78 C84 1.255 . S
O79 Fe69 1.976 . S
O79 C74 1.287 . S
O80 Fe66 1.996 . S
O80 C74 1.255 . S
C81 O85 1.295 . S
C81 O86 1.235 . S
O82 Fe67 1.976 . S
O82 C76 1.287 . S
O83 Fe69 1.996 . S
O83 C76 1.255 . S
C84 O77 1.287 . S
C84 O78 1.255 . S
O85 Fe67 2.002 . S
O85 C81 1.295 . S
O86 Fe69 1.997 . S
O86 C81 1.235 . S
C87 O70 1.295 . S
C87 O71 1.235 . S
Fe88 O90 1.918 . S
Fe88 O93 1.997 . S
Fe88 O94 2.002 . S
Fe88 O99 1.971 . S
Fe88 O102 1.996 . S
Fe89 O90 1.918 . S
Fe89 O97 1.997 . S
Fe89 O100 1.996 . S
Fe89 O104 1.976 . S
Fe89 O107 2.002 . S
O90 Fe88 1.918 . S
O90 Fe89 1.918 . S
O90 Fe91 1.918 . S
Fe91 O90 1.918 . S
Fe91 O92 2.002 . S
Fe91 O101 1.976 . S
Fe91 O105 1.996 . S
Fe91 O108 1.997 . S
O92 Fe91 2.002 . S
O92 C109 1.295 . S
O93 Fe88 1.997 . S
O93 C109 1.235 . S
O94 Fe88 2.002 . S
O94 C95 1.295 . S
C95 O94 1.295 . S
C95 O97 1.235 . S
C96 O101 1.287 . S
C96 O102 1.255 . S
O97 Fe89 1.997 . S
O97 C95 1.235 . S
C98 O104 1.287 . S
C98 O105 1.255 . S
O99 Fe88 1.971 . S
O99 C106 1.288 1_554 S
O100 Fe89 1.996 . S
O100 C106 1.255 1_554 S
O101 Fe91 1.976 . S
O101 C96 1.287 . S
O102 Fe88 1.996 . S
O102 C96 1.255 . S
C103 O107 1.295 . S
C103 O108 1.235 . S
O104 Fe89 1.976 . S
O104 C98 1.287 . S
O105 Fe91 1.996 . S
O105 C98 1.255 . S
C106 O99 1.288 1_556 S
C106 O100 1.255 1_556 S
O107 Fe89 2.002 . S
O107 C103 1.295 . S
O108 Fe91 1.997 . S
O108 C103 1.235 . S
C109 O92 1.295 . S
C109 O93 1.235 . S
Fe110 O112 1.918 . S
Fe110 O115 1.997 . S
Fe110 O116 2.002 . S
Fe110 O121 1.976 . S
Fe110 O124 1.996 . S
Fe111 O112 1.918 . S
Fe111 O119 1.997 . S
Fe111 O122 1.996 . S
Fe111 O126 1.976 . S
Fe111 O129 2.002 . S
O112 Fe110 1.918 . S
O112 Fe111 1.918 . S
O112 Fe113 1.918 . S
Fe113 O112 1.918 . S
Fe113 O114 2.002 . S
Fe113 O123 1.976 . S
Fe113 O127 1.996 . S
Fe113 O130 1.997 . S
O114 Fe113 2.002 . S
O114 C131 1.295 . S
O115 Fe110 1.997 . S
O115 C131 1.235 . S
O116 Fe110 2.002 . S
O116 C117 1.295 . S
C117 O116 1.295 . S
C117 O119 1.235 . S
C118 O123 1.287 . S
C118 O124 1.255 . S
O119 Fe111 1.997 . S
O119 C117 1.235 . S
C120 O126 1.287 . S
C120 O127 1.255 . S
O121 Fe110 1.976 . S
O121 C128 1.287 . S
O122 Fe111 1.996 . S
O122 C128 1.255 . S
O123 Fe113 1.976 . S
O123 C118 1.287 . S
O124 Fe110 1.996 . S
O124 C118 1.255 . S
C125 O129 1.295 . S
C125 O130 1.235 . S
O126 Fe111 1.976 . S
O126 C120 1.287 . S
O127 Fe113 1.996 . S
O127 C120 1.255 . S
C128 O121 1.287 . S
C128 O122 1.255 . S
O129 Fe111 2.002 . S
O129 C125 1.295 . S
O130 Fe113 1.997 . S
O130 C125 1.235 . S
C131 O114 1.295 . S
C131 O115 1.235 . S
Fe132 O134 1.918 . S
Fe132 O137 1.997 . S
Fe132 O138 2.002 . S
Fe132 O143 1.976 . S
Fe132 O146 1.996 . S
Fe133 O134 1.918 . S
Fe133 O141 1.997 . S
Fe133 O144 1.996 . S
Fe133 O148 1.976 . S
Fe133 O151 2.002 . S
O134 Fe132 1.918 . S
O134 Fe133 1.918 . S
O134 Fe135 1.918 . S
Fe135 O134 1.918 . S
Fe135 O136 2.002 . S
Fe135 O145 1.976 . S
Fe135 O149 1.996 . S
Fe135 O152 1.997 . S
O136 Fe135 2.002 . S
O136 C153 1.295 . S
O137 Fe132 1.997 . S
O137 C153 1.235 . S
O138 Fe132 2.002 . S
O138 C139 1.295 . S
C139 O138 1.295 . S
C139 O141 1.235 . S
C140 O145 1.287 . S
C140 O146 1.255 . S
O141 Fe133 1.997 . S
O141 C139 1.235 . S
C142 O148 1.287 . S
C142 O149 1.255 . S
O143 Fe132 1.976 . S
O143 C150 1.287 . S
O144 Fe133 1.996 . S
O144 C150 1.255 . S
O145 Fe135 1.976 . S
O145 C140 1.287 . S
O146 Fe132 1.996 . S
O146 C140 1.255 . S
C147 O151 1.295 . S
C147 O152 1.235 . S
O148 Fe133 1.976 . S
O148 C142 1.287 . S
O149 Fe135 1.996 . S
O149 C142 1.255 . S
C150 O143 1.287 . S
C150 O144 1.255 . S
O151 Fe133 2.002 . S
O151 C147 1.295 . S
O152 Fe135 1.997 . S
O152 C147 1.235 . S
C153 O136 1.295 . S
C153 O137 1.235 . S
Fe154 O156 1.918 . S
Fe154 O159 1.997 . S
Fe154 O160 2.002 . S
Fe154 O165 1.976 . S
Fe154 O168 1.996 . S
Fe155 O156 1.918 . S
Fe155 O163 1.997 . S
Fe155 O166 1.996 . S
Fe155 O170 1.976 . S
Fe155 O173 2.002 . S
O156 Fe154 1.918 . S
O156 Fe155 1.918 . S
O156 Fe157 1.918 . S
Fe157 O156 1.918 . S
Fe157 O158 2.002 . S
Fe157 O167 1.976 . S
Fe157 O171 1.996 . S
Fe157 O174 1.997 . S
O158 Fe157 2.002 . S
O158 C175 1.295 . S
O159 Fe154 1.997 . S
O159 C175 1.235 . S
O160 Fe154 2.002 . S
O160 C161 1.295 . S
C161 O160 1.295 . S
C161 O163 1.235 . S
C162 O167 1.287 . S
C162 O168 1.255 . S
O163 Fe155 1.997 . S
O163 C161 1.235 . S
C164 O170 1.287 . S
C164 O171 1.255 . S
O165 Fe154 1.976 . S
O165 C172 1.287 . S
O166 Fe155 1.996 . S
O166 C172 1.255 . S
O167 Fe157 1.976 . S
O167 C162 1.287 . S
O168 Fe154 1.996 . S
O168 C162 1.255 . S
C169 O173 1.295 . S
C169 O174 1.235 . S
O170 Fe155 1.976 . S
O170 C164 1.287 . S
O171 Fe157 1.996 . S
O171 C164 1.255 . S
C172 O165 1.287 . S
C172 O166 1.255 . S
O173 Fe155 2.002 . S
O173 C169 1.295 . S
O174 Fe157 1.997 . S
O174 C169 1.235 . S
C175 O158 1.295 . S
C175 O159 1.235 . S
Fe176 O178 1.918 . S
Fe176 O181 1.997 . S
Fe176 O182 2.002 . S
Fe176 O187 1.976 . S
Fe176 O190 1.996 . S
Fe177 O178 1.918 . S
Fe177 O185 1.997 . S
Fe177 O188 1.996 . S
Fe177 O192 1.976 . S
Fe177 O195 2.002 . S
O178 Fe176 1.918 . S
O178 Fe177 1.918 . S
O178 Fe179 1.918 . S
Fe179 O178 1.918 . S
Fe179 O180 2.002 . S
Fe179 O189 1.976 . S
Fe179 O193 1.996 . S
Fe179 O196 1.997 . S
O180 Fe179 2.002 . S
O180 C197 1.295 . S
O181 Fe176 1.997 . S
O181 C197 1.235 . S
O182 Fe176 2.002 . S
O182 C183 1.295 . S
C183 O182 1.295 . S
C183 O185 1.235 . S
C184 O189 1.287 . S
C184 O190 1.255 . S
O185 Fe177 1.997 . S
O185 C183 1.235 . S
C186 O192 1.287 . S
C186 O193 1.255 . S
O187 Fe176 1.976 . S
O187 C194 1.287 . S
O188 Fe177 1.996 . S
O188 C194 1.255 . S
O189 Fe179 1.976 . S
O189 C184 1.287 . S
O190 Fe176 1.996 . S
O190 C184 1.255 . S
C191 O195 1.295 . S
C191 O196 1.235 . S
O192 Fe177 1.976 . S
O192 C186 1.287 . S
O193 Fe179 1.996 . S
O193 C186 1.255 . S
C194 O187 1.287 . S
C194 O188 1.255 . S
O195 Fe177 2.002 . S
O195 C191 1.295 . S
O196 Fe179 1.997 . S
O196 C191 1.235 . S
C197 O180 1.295 . S
C197 O181 1.235 . S
Fe198 O200 1.918 . S
Fe198 O203 1.997 . S
Fe198 O204 2.002 . S
Fe198 O209 1.976 . S
Fe198 O212 1.996 . S
Fe199 O200 1.918 . S
Fe199 O207 1.997 . S
Fe199 O210 1.996 . S
Fe199 O214 1.976 . S
Fe199 O217 2.002 . S
O200 Fe198 1.918 . S
O200 Fe199 1.918 . S
O200 Fe201 1.918 . S
Fe201 O200 1.918 . S
Fe201 O202 2.002 . S
Fe201 O211 1.971 . S
Fe201 O215 1.996 . S
Fe201 O218 1.997 . S
O202 Fe201 2.002 . S
O202 C219 1.295 . S
O203 Fe198 1.997 . S
O203 C219 1.235 . S
O204 Fe198 2.002 . S
O204 C205 1.295 . S
C205 O204 1.295 . S
C205 O207 1.235 . S
C206 O211 1.288 1_554 S
C206 O212 1.255 1_554 S
O207 Fe199 1.997 . S
O207 C205 1.235 . S
C208 O214 1.287 . S
C208 O215 1.255 . S
O209 Fe198 1.976 . S
O209 C216 1.287 . S
O210 Fe199 1.996 . S
O210 C216 1.255 . S
O211 Fe201 1.971 . S
O211 C206 1.288 1_556 S
O212 Fe198 1.996 . S
O212 C206 1.255 1_556 S
C213 O217 1.295 . S
C213 O218 1.235 . S
O214 Fe199 1.976 . S
O214 C208 1.287 . S
O215 Fe201 1.996 . S
O215 C208 1.255 . S
C216 O209 1.287 . S
C216 O210 1.255 . S
O217 Fe199 2.002 . S
O217 C213 1.295 . S
O218 Fe201 1.997 . S
O218 C213 1.235 . S
C219 O202 1.295 . S
C219 O203 1.235 . S
Fe220 O222 1.918 . S
Fe220 O225 1.997 . S
Fe220 O226 2.002 . S
Fe220 O231 1.976 . S
Fe220 O234 1.996 . S
Fe221 O222 1.918 . S
Fe221 O229 1.997 . S
Fe221 O232 1.996 . S
Fe221 O236 1.976 . S
Fe221 O239 2.002 . S
O222 Fe220 1.918 . S
O222 Fe221 1.918 . S
O222 Fe223 1.918 . S
Fe223 O222 1.918 . S
Fe223 O224 2.002 . S
Fe223 O233 1.976 . S
Fe223 O237 1.996 . S
Fe223 O240 1.997 . S
O224 Fe223 2.002 . S
O224 C241 1.295 . S
O225 Fe220 1.997 . S
O225 C241 1.235 . S
O226 Fe220 2.002 . S
O226 C227 1.295 . S
C227 O226 1.295 . S
C227 O229 1.235 . S
C228 O233 1.287 . S
C228 O234 1.255 . S
O229 Fe221 1.997 . S
O229 C227 1.235 . S
C230 O236 1.287 . S
C230 O237 1.255 . S
O231 Fe220 1.976 . S
O231 C238 1.287 . S
O232 Fe221 1.996 . S
O232 C238 1.255 . S
O233 Fe223 1.976 . S
O233 C228 1.287 . S
O234 Fe220 1.996 . S
O234 C228 1.255 . S
C235 O239 1.295 . S
C235 O240 1.235 . S
O236 Fe221 1.976 . S
O236 C230 1.287 . S
O237 Fe223 1.996 . S
O237 C230 1.255 . S
C238 O231 1.287 . S
C238 O232 1.255 . S
O239 Fe221 2.002 . S
O239 C235 1.295 . S
O240 Fe223 1.997 . S
O240 C235 1.235 . S
C241 O224 1.295 . S
C241 O225 1.235 . S
Fe242 O244 1.918 . S
Fe242 O247 1.997 . S
Fe242 O248 2.002 . S
Fe242 O253 1.976 . S
Fe242 O256 1.996 . S
Fe243 O244 1.918 . S
Fe243 O251 1.997 . S
Fe243 O254 1.996 . S
Fe243 O258 1.976 . S
Fe243 O261 2.002 . S
O244 Fe242 1.918 . S
O244 Fe243 1.918 . S
O244 Fe245 1.918 . S
Fe245 O244 1.918 . S
Fe245 O246 2.002 . S
Fe245 O255 1.976 . S
Fe245 O259 1.996 . S
Fe245 O262 1.997 . S
O246 Fe245 2.002 . S
O246 C263 1.295 . S
O247 Fe242 1.997 . S
O247 C263 1.235 . S
O248 Fe242 2.002 . S
O248 C249 1.295 . S
C249 O248 1.295 . S
C249 O251 1.235 . S
C250 O255 1.287 . S
C250 O256 1.255 . S
O251 Fe243 1.997 . S
O251 C249 1.235 . S
C252 O258 1.287 . S
C252 O259 1.255 . S
O253 Fe242 1.976 . S
O253 C260 1.287 . S
O254 Fe243 1.996 . S
O254 C260 1.255 . S
O255 Fe245 1.976 . S
O255 C250 1.287 . S
O256 Fe242 1.996 . S
O256 C250 1.255 . S
C257 O261 1.295 . S
C257 O262 1.235 . S
O258 Fe243 1.976 . S
O258 C252 1.287 . S
O259 Fe245 1.996 . S
O259 C252 1.255 . S
C260 O253 1.287 . S
C260 O254 1.255 . S
O261 Fe243 2.002 . S
O261 C257 1.295 . S
O262 Fe245 1.997 . S
O262 C257 1.235 . S
C263 O246 1.295 . S
C263 O247 1.235 . S
H264 C272 0.950 . S
H265 C277 0.950 . S
H266 C274 0.950 1_545 S
H267 C276 0.950 . S
H268 C278 0.950 . S
H269 C280 0.950 . S
H270 C282 0.950 . S
H271 C283 0.950 . S
C272 H264 0.950 . S
C272 C273 1.386 . S
C272 C274 1.391 . S
C273 C272 1.386 . S
C273 C277 1.393 . S
C274 H266 0.950 1_565 S
C274 C272 1.391 . S
C274 C275 1.400 . S
C275 C274 1.400 . S
C275 C276 1.398 . S
C275 C281 1.491 1_565 S
C276 H267 0.950 . S
C276 C275 1.398 . S
C276 C277 1.391 . S
C277 H265 0.950 . S
C277 C273 1.393 . S
C277 C276 1.391 . S
C278 H268 0.950 . S
C278 C279 1.386 . S
C278 C280 1.391 1_545 S
C279 C278 1.386 . S
C279 C283 1.393 . S
C280 H269 0.950 . S
C280 C278 1.391 1_565 S
C280 C281 1.400 1_565 S
C281 C275 1.491 1_545 S
C281 C280 1.400 1_545 S
C281 C282 1.398 . S
C282 H270 0.950 . S
C282 C281 1.398 . S
C282 C283 1.391 . S
C283 H271 0.950 . S
C283 C279 1.393 . S
C283 C282 1.391 . S
H284 C292 0.950 . S
H285 C297 0.950 . S
H286 C294 0.950 . S
H287 C296 0.950 . S
H288 C298 0.950 . S
H289 C300 0.950 . S
H290 C302 0.950 . S
H291 C303 0.950 . S
C292 H284 0.950 . S
C292 C293 1.386 . S
C292 C294 1.391 . S
C293 C292 1.386 . S
C293 C297 1.393 . S
C294 H286 0.950 . S
C294 C292 1.391 . S
C294 C295 1.400 . S
C295 C294 1.400 . S
C295 C296 1.398 . S
C295 C301 1.491 . S
C296 H287 0.950 . S
C296 C295 1.398 . S
C296 C297 1.391 . S
C297 H285 0.950 . S
C297 C293 1.393 . S
C297 C296 1.391 . S
C298 H288 0.950 . S
C298 C299 1.386 . S
C298 C300 1.391 . S
C299 C298 1.386 . S
C299 C303 1.393 . S
C300 H289 0.950 . S
C300 C298 1.391 . S
C300 C301 1.400 . S
C301 C295 1.491 . S
C301 C300 1.400 . S
C301 C302 1.398 . S
C302 H290 0.950 . S
C302 C301 1.398 . S
C302 C303 1.391 . S
C303 H291 0.950 . S
C303 C299 1.393 . S
C303 C302 1.391 . S
H304 C312 0.950 . S
H305 C317 0.950 . S
H306 C314 0.950 . S
H307 C316 0.950 . S
H308 C318 0.950 . S
H309 C320 0.950 . S
H310 C322 0.950 . S
H311 C323 0.950 . S
C312 H304 0.950 . S
C312 C313 1.386 . S
C312 C314 1.391 . S
C313 C312 1.386 . S
C313 C317 1.393 . S
C314 H306 0.950 . S
C314 C312 1.391 . S
C314 C315 1.400 . S
C315 C314 1.400 . S
C315 C316 1.398 . S
C315 C321 1.491 1_655 S
C316 H307 0.950 . S
C316 C315 1.398 . S
C316 C317 1.391 . S
C317 H305 0.950 . S
C317 C313 1.393 . S
C317 C316 1.391 . S
C318 H308 0.950 . S
C318 C319 1.386 . S
C318 C320 1.391 . S
C319 C318 1.386 . S
C319 C323 1.393 . S
C320 H309 0.950 . S
C320 C318 1.391 . S
C320 C321 1.400 . S
C321 C315 1.491 1_455 S
C321 C320 1.400 . S
C321 C322 1.398 . S
C322 H310 0.950 . S
C322 C321 1.398 . S
C322 C323 1.391 . S
C323 H311 0.950 . S
C323 C319 1.393 . S
C323 C322 1.391 . S
H324 C332 0.950 . S
H325 C337 0.950 . S
H326 C334 0.950 . S
H327 C336 0.950 1_565 S
H328 C338 0.950 . S
H329 C340 0.950 . S
H330 C342 0.950 . S
H331 C343 0.950 . S
C332 H324 0.950 . S
C332 C333 1.386 . S
C332 C334 1.391 . S
C333 C332 1.386 . S
C333 C337 1.393 . S
C334 H326 0.950 . S
C334 C332 1.391 . S
C334 C335 1.400 . S
C335 C334 1.400 . S
C335 C336 1.398 . S
C335 C341 1.491 1_545 S
C336 H327 0.950 1_545 S
C336 C335 1.398 . S
C336 C337 1.391 . S
C337 H325 0.950 . S
C337 C333 1.393 . S
C337 C336 1.391 . S
C338 H328 0.950 . S
C338 C339 1.386 . S
C338 C340 1.391 . S
C339 C338 1.386 . S
C339 C343 1.393 . S
C340 H329 0.950 . S
C340 C338 1.391 . S
C340 C341 1.400 . S
C341 C335 1.491 1_565 S
C341 C340 1.400 . S
C341 C342 1.398 1_565 S
C342 H330 0.950 . S
C342 C341 1.398 1_545 S
C342 C343 1.391 1_545 S
C343 H331 0.950 . S
C343 C339 1.393 . S
C343 C342 1.391 1_565 S
H344 C352 0.950 . S
H345 C357 0.950 . S
H346 C354 0.950 . S
H347 C356 0.950 . S
H348 C358 0.950 . S
H349 C360 0.950 . S
H350 C362 0.950 . S
H351 C363 0.926 1_554 S
C352 H344 0.950 . S
C352 C353 1.386 . S
C352 C354 1.391 . S
C353 C352 1.386 . S
C353 C357 1.393 . S
C354 H346 0.950 . S
C354 C352 1.391 . S
C354 C355 1.400 . S
C355 C354 1.400 . S
C355 C356 1.398 . S
C355 C361 1.491 . S
C356 H347 0.950 . S
C356 C355 1.398 . S
C356 C357 1.391 . S
C357 H345 0.950 . S
C357 C353 1.393 . S
C357 C356 1.391 . S
C358 H348 0.950 . S
C358 C359 1.386 . S
C358 C360 1.391 . S
C359 C358 1.386 . S
C359 C363 1.393 . S
C360 H349 0.950 . S
C360 C358 1.391 . S
C360 C361 1.400 . S
C361 C355 1.491 . S
C361 C360 1.400 . S
C361 C362 1.398 . S
C362 H350 0.950 . S
C362 C361 1.398 . S
C362 C363 1.391 . S
C363 H351 0.926 1_556 S
C363 C359 1.393 . S
C363 C362 1.391 . S
H364 C372 0.950 . S
H365 C377 0.950 . S
H366 C374 0.950 . S
H367 C376 0.950 . S
H368 C378 0.950 . S
H369 C380 0.950 . S
H370 C382 0.950 . S
H371 C383 0.950 . S
C372 H364 0.950 . S
C372 C373 1.386 . S
C372 C374 1.391 . S
C373 C372 1.386 . S
C373 C377 1.393 . S
C374 H366 0.950 . S
C374 C372 1.391 . S
C374 C375 1.400 . S
C375 C374 1.400 . S
C375 C376 1.398 . S
C375 C381 1.491 1_455 S
C376 H367 0.950 . S
C376 C375 1.398 . S
C376 C377 1.391 . S
C377 H365 0.950 . S
C377 C373 1.393 . S
C377 C376 1.391 . S
C378 H368 0.950 . S
C378 C379 1.386 . S
C378 C380 1.391 . S
C379 C378 1.386 . S
C379 C383 1.393 . S
C380 H369 0.950 . S
C380 C378 1.391 . S
C380 C381 1.400 . S
C381 C375 1.491 1_655 S
C381 C380 1.400 . S
C381 C382 1.398 . S
C382 H370 0.950 . S
C382 C381 1.398 . S
C382 C383 1.391 . S
C383 H371 0.950 . S
C383 C379 1.393 . S
C383 C382 1.391 . S
H384 C392 0.950 . S
H385 C397 0.950 . S
H386 C394 0.950 . S
H387 C396 0.950 1_655 S
H388 C398 0.950 . S
H389 C400 0.950 . S
H390 C402 0.950 . S
H391 C403 0.950 . S
C392 H384 0.950 . S
C392 C393 1.386 . S
C392 C394 1.391 . S
C393 C392 1.386 . S
C393 C397 1.393 . S
C394 H386 0.950 . S
C394 C392 1.391 . S
C394 C395 1.400 . S
C395 C394 1.400 . S
C395 C396 1.398 . S
C395 C401 1.491 1_455 S
C396 H387 0.950 1_455 S
C396 C395 1.398 . S
C396 C397 1.391 . S
C397 H385 0.950 . S
C397 C393 1.393 . S
C397 C396 1.391 . S
C398 H388 0.950 . S
C398 C399 1.386 . S
C398 C400 1.391 . S
C399 C398 1.386 . S
C399 C403 1.393 . S
C400 H389 0.950 . S
C400 C398 1.391 . S
C400 C401 1.400 . S
C401 C395 1.491 1_655 S
C401 C400 1.400 . S
C401 C402 1.398 1_655 S
C402 H390 0.950 . S
C402 C401 1.398 1_455 S
C402 C403 1.391 1_455 S
C403 H391 0.950 . S
C403 C399 1.393 . S
C403 C402 1.391 1_655 S
H404 C412 0.950 . S
H405 C417 0.950 . S
H406 C414 0.950 . S
H407 C416 0.950 . S
H408 C418 0.950 . S
H409 C420 0.950 . S
H410 C422 0.950 1_565 S
H411 C423 0.950 . S
C412 H404 0.950 . S
C412 C413 1.386 . S
C412 C414 1.391 . S
C413 C412 1.386 . S
C413 C417 1.393 . S
C414 H406 0.950 . S
C414 C412 1.391 . S
C414 C415 1.400 . S
C415 C414 1.400 . S
C415 C416 1.398 1_565 S
C415 C421 1.491 1_565 S
C416 H407 0.950 . S
C416 C415 1.398 1_545 S
C416 C417 1.391 1_545 S
C417 H405 0.950 . S
C417 C413 1.393 . S
C417 C416 1.391 1_565 S
C418 H408 0.950 . S
C418 C419 1.386 . S
C418 C420 1.391 . S
C419 C418 1.386 . S
C419 C423 1.393 . S
C420 H409 0.950 . S
C420 C418 1.391 . S
C420 C421 1.400 . S
C421 C415 1.491 1_545 S
C421 C420 1.400 . S
C421 C422 1.398 . S
C422 H410 0.950 1_545 S
C422 C421 1.398 . S
C422 C423 1.391 . S
C423 H411 0.950 . S
C423 C419 1.393 . S
C423 C422 1.391 . S
H424 C432 0.950 . S
H425 C437 0.950 . S
H426 C434 0.950 . S
H427 C436 0.950 . S
H428 C438 0.950 . S
H429 C440 0.950 . S
H430 C442 0.950 . S
H431 C443 0.950 . S
C432 H424 0.950 . S
C432 C433 1.386 . S
C432 C434 1.391 . S
C433 C432 1.386 . S
C433 C437 1.393 . S
C434 H426 0.950 . S
C434 C432 1.391 . S
C434 C435 1.400 . S
C435 C434 1.400 . S
C435 C436 1.398 . S
C435 C441 1.491 . S
C436 H427 0.950 . S
C436 C435 1.398 . S
C436 C437 1.391 . S
C437 H425 0.950 . S
C437 C433 1.393 . S
C437 C436 1.391 . S
C438 H428 0.950 . S
C438 C439 1.386 . S
C438 C440 1.391 . S
C439 C438 1.386 . S
C439 C443 1.393 . S
C440 H429 0.950 . S
C440 C438 1.391 . S
C440 C441 1.400 . S
C441 C435 1.491 . S
C441 C440 1.400 . S
C441 C442 1.398 . S
C442 H430 0.950 . S
C442 C441 1.398 . S
C442 C443 1.391 . S
C443 H431 0.950 . S
C443 C439 1.393 . S
C443 C442 1.391 . S
H444 C452 0.950 . S
H445 C457 0.950 . S
H446 C454 0.950 . S
H447 C456 0.950 1_455 S
H448 C458 0.950 . S
H449 C460 0.950 . S
H450 C462 0.950 . S
H451 C463 0.924 1_556 S
C452 H444 0.950 . S
C452 C453 1.386 . S
C452 C454 1.391 . S
C453 C452 1.386 . S
C453 C457 1.393 . S
C454 H446 0.950 . S
C454 C452 1.391 . S
C454 C455 1.400 . S
C455 C454 1.400 . S
C455 C456 1.398 . S
C455 C461 1.491 1_655 S
C456 H447 0.950 1_655 S
C456 C455 1.398 . S
C456 C457 1.391 . S
C457 H445 0.950 . S
C457 C453 1.393 . S
C457 C456 1.391 . S
C458 H448 0.950 . S
C458 C459 1.386 . S
C458 C460 1.391 . S
C459 C458 1.386 . S
C459 C463 1.393 . S
C460 H449 0.950 . S
C460 C458 1.391 . S
C460 C461 1.400 . S
C461 C455 1.491 1_455 S
C461 C460 1.400 . S
C461 C462 1.398 1_455 S
C462 H450 0.950 . S
C462 C461 1.398 1_655 S
C462 C463 1.391 1_655 S
C463 H451 0.924 1_554 S
C463 C459 1.393 . S
C463 C462 1.391 1_455 S
H464 C472 0.950 . S
H465 C477 0.950 . S
H466 C474 0.950 1_545 S
H467 C476 0.950 . S
H468 C478 0.950 . S
H469 C480 0.950 . S
H470 C482 0.950 . S
H471 C483 0.950 . S
C472 H464 0.950 . S
C472 C473 1.386 . S
C472 C474 1.391 . S
C473 C472 1.386 . S
C473 C477 1.393 . S
C474 H466 0.950 1_565 S
C474 C472 1.391 . S
C474 C475 1.400 . S
C475 C474 1.400 . S
C475 C476 1.398 . S
C475 C481 1.491 1_565 S
C476 H467 0.950 . S
C476 C475 1.398 . S
C476 C477 1.391 . S
C477 H465 0.950 . S
C477 C473 1.393 . S
C477 C476 1.391 . S
C478 H468 0.950 . S
C478 C479 1.386 . S
C478 C480 1.391 1_545 S
C479 C478 1.386 . S
C479 C483 1.393 . S
C480 H469 0.950 . S
C480 C478 1.391 1_565 S
C480 C481 1.400 1_565 S
C481 C475 1.491 1_545 S
C481 C480 1.400 1_545 S
C481 C482 1.398 . S
C482 H470 0.950 . S
C482 C481 1.398 . S
C482 C483 1.391 . S
C483 H471 0.950 . S
C483 C479 1.393 . S
C483 C482 1.391 . S
H484 C492 0.950 . S
H485 C497 0.950 . S
H486 C494 0.950 . S
H487 C496 0.950 . S
H488 C498 0.950 . S
H489 C500 0.950 . S
H490 C502 0.950 . S
H491 C503 0.950 . S
C492 H484 0.950 . S
C492 C493 1.386 . S
C492 C494 1.391 . S
C493 C492 1.386 . S
C493 C497 1.393 . S
C494 H486 0.950 . S
C494 C492 1.391 . S
C494 C495 1.400 . S
C495 C494 1.400 . S
C495 C496 1.398 . S
C495 C501 1.491 . S
C496 H487 0.950 . S
C496 C495 1.398 . S
C496 C497 1.391 . S
C497 H485 0.950 . S
C497 C493 1.393 . S
C497 C496 1.391 . S
C498 H488 0.950 . S
C498 C499 1.386 . S
C498 C500 1.391 . S
C499 C498 1.386 . S
C499 C503 1.393 . S
C500 H489 0.950 . S
C500 C498 1.391 . S
C500 C501 1.400 . S
C501 C495 1.491 . S
C501 C500 1.400 . S
C501 C502 1.398 . S
C502 H490 0.950 . S
C502 C501 1.398 . S
C502 C503 1.391 . S
C503 H491 0.950 . S
C503 C499 1.393 . S
C503 C502 1.391 . S
H504 C512 0.950 . S
H505 C517 0.950 . S
H506 C514 0.950 . S
H507 C516 0.950 1_545 S
H508 C518 0.950 . S
H509 C520 0.950 . S
H510 C522 0.950 . S
H511 C523 0.950 . S
C512 H504 0.950 . S
C512 C513 1.386 . S
C512 C514 1.391 . S
C513 C512 1.386 . S
C513 C517 1.393 . S
C514 H506 0.950 . S
C514 C512 1.391 . S
C514 C515 1.400 . S
C515 C514 1.400 . S
C515 C516 1.398 . S
C515 C521 1.491 . S
C516 H507 0.950 1_565 S
C516 C515 1.398 . S
C516 C517 1.391 . S
C517 H505 0.950 . S
C517 C513 1.393 . S
C517 C516 1.391 . S
C518 H508 0.950 . S
C518 C519 1.386 . S
C518 C520 1.391 . S
C519 C518 1.386 . S
C519 C523 1.393 1_545 S
C520 H509 0.950 . S
C520 C518 1.391 . S
C520 C521 1.400 1_545 S
C521 C515 1.491 . S
C521 C520 1.400 1_565 S
C521 C522 1.398 . S
C522 H510 0.950 . S
C522 C521 1.398 . S
C522 C523 1.391 . S
C523 H511 0.950 . S
C523 C519 1.393 1_565 S
C523 C522 1.391 . S
H524 C532 0.950 . S
H525 C537 0.950 . S
H526 C534 0.950 . S
H527 C536 0.950 . S
H528 C538 0.950 . S
H529 C540 0.950 . S
H530 C542 0.950 . S
H531 C543 0.950 . S
C532 H524 0.950 . S
C532 C533 1.386 . S
C532 C534 1.391 . S
C533 C532 1.386 . S
C533 C537 1.393 . S
C534 H526 0.950 . S
C534 C532 1.391 . S
C534 C535 1.400 . S
C535 C534 1.400 . S
C535 C536 1.398 . S
C535 C541 1.491 . S
C536 H527 0.950 . S
C536 C535 1.398 . S
C536 C537 1.391 . S
C537 H525 0.950 . S
C537 C533 1.393 . S
C537 C536 1.391 . S
C538 H528 0.950 . S
C538 C539 1.386 . S
C538 C540 1.391 . S
C539 C538 1.386 . S
C539 C543 1.393 . S
C540 H529 0.950 . S
C540 C538 1.391 . S
C540 C541 1.400 . S
C541 C535 1.491 . S
C541 C540 1.400 . S
C541 C542 1.398 . S
C542 H530 0.950 . S
C542 C541 1.398 . S
C542 C543 1.391 . S
C543 H531 0.950 . S
C543 C539 1.393 . S
C543 C542 1.391 . S
H544 C552 0.950 . S
H545 C557 0.950 . S
H546 C554 0.950 . S
H547 C556 0.950 1_655 S
H548 C558 0.950 . S
H549 C560 0.950 . S
H550 C562 0.950 . S
H551 C563 0.950 1_455 S
C552 H544 0.950 . S
C552 C553 1.386 . S
C552 C554 1.391 . S
C553 C552 1.386 . S
C553 C557 1.393 . S
C554 H546 0.950 . S
C554 C552 1.391 . S
C554 C555 1.400 . S
C555 C554 1.400 . S
C555 C556 1.398 . S
C555 C561 1.491 . S
C556 H547 0.950 1_455 S
C556 C555 1.398 . S
C556 C557 1.391 . S
C557 H545 0.950 . S
C557 C553 1.393 . S
C557 C556 1.391 . S
C558 H548 0.950 . S
C558 C559 1.386 . S
C558 C560 1.391 . S
C559 C558 1.386 . S
C559 C563 1.393 . S
C560 H549 0.950 . S
C560 C558 1.391 . S
C560 C561 1.400 1_655 S
C561 C555 1.491 . S
C561 C560 1.400 1_455 S
C561 C562 1.398 . S
C562 H550 0.950 . S
C562 C561 1.398 . S
C562 C563 1.391 1_455 S
C563 H551 0.950 1_655 S
C563 C559 1.393 . S
C563 C562 1.391 1_655 S
H564 C572 0.950 . S
H565 C577 0.950 . S
H566 C574 0.950 1_565 S
H567 C576 0.950 . S
H568 C578 0.950 . S
H569 C580 0.950 . S
H570 C582 0.950 . S
H571 C583 0.950 . S
C572 H564 0.950 . S
C572 C573 1.386 . S
C572 C574 1.391 . S
C573 C572 1.386 . S
C573 C577 1.393 . S
C574 H566 0.950 1_545 S
C574 C572 1.391 . S
C574 C575 1.400 . S
C575 C574 1.400 . S
C575 C576 1.398 . S
C575 C581 1.491 . S
C576 H567 0.950 . S
C576 C575 1.398 . S
C576 C577 1.391 . S
C577 H565 0.950 . S
C577 C573 1.393 . S
C577 C576 1.391 . S
C578 H568 0.950 . S
C578 C579 1.386 1_545 S
C578 C580 1.391 . S
C579 C578 1.386 1_565 S
C579 C583 1.393 . S
C580 H569 0.950 . S
C580 C578 1.391 . S
C580 C581 1.400 . S
C581 C575 1.491 . S
C581 C580 1.400 . S
C581 C582 1.398 1_545 S
C582 H570 0.950 . S
C582 C581 1.398 1_565 S
C582 C583 1.391 . S
C583 H571 0.950 . S
C583 C579 1.393 . S
C583 C582 1.391 . S
H584 C592 0.950 . S
H585 C597 0.950 . S
H586 C594 0.950 . S
H587 C596 0.950 . S
H588 C598 0.950 . S
H589 C600 0.950 . S
H590 C602 0.950 . S
H591 C603 0.950 . S
C592 H584 0.950 . S
C592 C593 1.386 1_554 S
C592 C594 1.391 . S
C593 C592 1.386 1_556 S
C593 C597 1.393 . S
C594 H586 0.950 . S
C594 C592 1.391 . S
C594 C595 1.400 . S
C595 C594 1.400 . S
C595 C596 1.398 1_554 S
C595 C601 1.491 . S
C596 H587 0.950 . S
C596 C595 1.398 1_556 S
C596 C597 1.391 . S
C597 H585 0.950 . S
C597 C593 1.393 . S
C597 C596 1.391 . S
C598 H588 0.950 . S
C598 C599 1.386 . S
C598 C600 1.391 . S
C599 C598 1.386 . S
C599 C603 1.393 . S
C600 H589 0.950 . S
C600 C598 1.391 . S
C600 C601 1.400 . S
C601 C595 1.491 . S
C601 C600 1.400 . S
C601 C602 1.398 . S
C602 H590 0.950 . S
C602 C601 1.398 . S
C602 C603 1.391 . S
C603 H591 0.950 . S
C603 C599 1.393 . S
C603 C602 1.391 . S
H604 C612 0.945 1_655 S
H605 C617 0.950 . S
H606 C614 0.950 . S
H607 C616 0.950 . S
H608 C618 0.950 . S
H609 C620 0.950 1_455 S
H610 C622 0.950 . S
H611 C623 0.950 . S
C612 H604 0.945 1_455 S
C612 C613 1.390 . S
C612 C614 1.391 1_455 S
C613 C612 1.390 . S
C613 C617 1.393 . S
C614 H606 0.950 . S
C614 C612 1.391 1_655 S
C614 C615 1.400 . S
C615 C614 1.400 . S
C615 C616 1.398 1_655 S
C615 C621 1.491 . S
C616 H607 0.950 . S
C616 C615 1.398 1_455 S
C616 C617 1.391 . S
C617 H605 0.950 . S
C617 C613 1.393 . S
C617 C616 1.391 . S
C618 H608 0.950 . S
C618 C619 1.386 . S
C618 C620 1.391 . S
C619 C618 1.386 . S
C619 C623 1.393 . S
C620 H609 0.950 1_655 S
C620 C618 1.391 . S
C620 C621 1.400 . S
C621 C615 1.491 . S
C621 C620 1.400 . S
C621 C622 1.398 . S
C622 H610 0.950 . S
C622 C621 1.398 . S
C622 C623 1.391 . S
C623 H611 0.950 . S
C623 C619 1.393 . S
C623 C622 1.391 . S
H624 C632 0.950 . S
H625 C637 0.950 . S
H626 C634 0.950 . S
H627 C636 0.950 . S
H628 C638 0.950 . S
H629 C640 0.950 1_655 S
H630 C642 0.950 . S
H631 C643 0.950 . S
C632 H624 0.950 . S
C632 C633 1.386 1_455 S
C632 C634 1.391 . S
C633 C632 1.386 1_655 S
C633 C637 1.393 . S
C634 H626 0.950 . S
C634 C632 1.391 . S
C634 C635 1.400 . S
C635 C634 1.400 . S
C635 C636 1.398 1_455 S
C635 C641 1.491 . S
C636 H627 0.950 . S
C636 C635 1.398 1_655 S
C636 C637 1.391 . S
C637 H625 0.950 . S
C637 C633 1.393 . S
C637 C636 1.391 . S
C638 H628 0.950 . S
C638 C639 1.386 . S
C638 C640 1.391 . S
C639 C638 1.386 . S
C639 C643 1.393 . S
C640 H629 0.950 1_455 S
C640 C638 1.391 . S
C640 C641 1.400 . S
C641 C635 1.491 . S
C641 C640 1.400 . S
C641 C642 1.398 . S
C642 H630 0.950 . S
C642 C641 1.398 . S
C642 C643 1.391 . S
C643 H631 0.950 . S
C643 C639 1.393 . S
C643 C642 1.391 . S
H644 C652 0.950 . S
H645 C657 0.950 . S
H646 C654 0.950 . S
H647 C656 0.950 . S
H648 C658 0.950 . S
H649 C660 0.950 . S
H650 C662 0.950 . S
H651 C663 0.950 . S
C652 H644 0.950 . S
C652 C653 1.386 . S
C652 C654 1.391 1_565 S
C653 C652 1.386 . S
C653 C657 1.393 . S
C654 H646 0.950 . S
C654 C652 1.391 1_545 S
C654 C655 1.400 . S
C655 C654 1.400 . S
C655 C656 1.398 1_545 S
C655 C661 1.491 . S
C656 H647 0.950 . S
C656 C655 1.398 1_565 S
C656 C657 1.391 . S
C657 H645 0.950 . S
C657 C653 1.393 . S
C657 C656 1.391 . S
C658 H648 0.950 . S
C658 C659 1.386 . S
C658 C660 1.391 . S
C659 C658 1.386 . S
C659 C663 1.393 . S
C660 H649 0.950 . S
C660 C658 1.391 . S
C660 C661 1.400 . S
C661 C655 1.491 . S
C661 C660 1.400 . S
C661 C662 1.398 . S
C662 H650 0.950 . S
C662 C661 1.398 . S
C662 C663 1.391 . S
C663 H651 0.950 . S
C663 C659 1.393 . S
C663 C662 1.391 . S
H664 C672 0.950 . S
H665 C677 0.950 . S
H666 C674 0.950 . S
H667 C676 0.950 . S
H668 C678 0.950 . S
H669 C680 0.950 . S
H670 C682 0.950 . S
H671 C683 0.950 . S
C672 H664 0.950 . S
C672 C673 1.386 . S
C672 C674 1.391 . S
C673 C672 1.386 . S
C673 C677 1.393 . S
C674 H666 0.950 . S
C674 C672 1.391 . S
C674 C675 1.400 . S
C675 C674 1.400 . S
C675 C676 1.398 . S
C675 C681 1.491 . S
C676 H667 0.950 . S
C676 C675 1.398 . S
C676 C677 1.391 . S
C677 H665 0.950 . S
C677 C673 1.393 . S
C677 C676 1.391 . S
C678 H668 0.950 . S
C678 C679 1.386 . S
C678 C680 1.391 . S
C679 C678 1.386 . S
C679 C683 1.393 . S
C680 H669 0.950 . S
C680 C678 1.391 . S
C680 C681 1.400 . S
C681 C675 1.491 . S
C681 C680 1.400 . S
C681 C682 1.398 . S
C682 H670 0.950 . S
C682 C681 1.398 . S
C682 C683 1.391 . S
C683 H671 0.950 . S
C683 C679 1.393 . S
C683 C682 1.391 . S
H684 C692 0.950 . S
H685 C697 0.950 . S
H686 C694 0.944 1_455 S
H687 C696 0.950 . S
H688 C698 0.950 1_655 S
H689 C700 0.950 . S
H690 C702 0.950 . S
H691 C703 0.950 . S
C692 H684 0.950 . S
C692 C693 1.386 1_556 S
C692 C694 1.391 . S
C693 C692 1.386 1_554 S
C693 C697 1.393 . S
C694 H686 0.944 1_655 S
C694 C692 1.391 . S
C694 C695 1.400 . S
C695 C694 1.400 . S
C695 C696 1.398 1_556 S
C695 C701 1.491 . S
C696 H687 0.950 . S
C696 C695 1.398 1_554 S
C696 C697 1.391 . S
C697 H685 0.950 . S
C697 C693 1.393 . S
C697 C696 1.391 . S
C698 H688 0.950 1_455 S
C698 C699 1.386 . S
C698 C700 1.391 1_455 S
C699 C698 1.386 . S
C699 C703 1.393 . S
C700 H689 0.950 . S
C700 C698 1.391 1_655 S
C700 C701 1.400 . S
C701 C695 1.491 . S
C701 C700 1.400 . S
C701 C702 1.398 1_655 S
C702 H690 0.950 . S
C702 C701 1.398 1_455 S
C702 C703 1.391 . S
C703 H691 0.950 . S
C703 C699 1.393 . S
C703 C702 1.391 . S
H704 C712 0.950 1_565 S
H705 C717 0.950 . S
H706 C714 0.950 . S
H707 C716 0.950 . S
H708 C718 0.950 . S
H709 C720 0.950 . S
H710 C722 0.950 . S
H711 C723 0.950 . S
C712 H704 0.950 1_545 S
C712 C713 1.386 . S
C712 C714 1.391 1_545 S
C713 C712 1.386 . S
C713 C717 1.393 . S
C714 H706 0.950 . S
C714 C712 1.391 1_565 S
C714 C715 1.400 . S
C715 C714 1.400 . S
C715 C716 1.398 1_565 S
C715 C721 1.491 . S
C716 H707 0.950 . S
C716 C715 1.398 1_545 S
C716 C717 1.391 . S
C717 H705 0.950 . S
C717 C713 1.393 . S
C717 C716 1.391 . S
C718 H708 0.950 . S
C718 C719 1.386 . S
C718 C720 1.391 . S
C719 C718 1.386 . S
C719 C723 1.393 . S
C720 H709 0.950 . S
C720 C718 1.391 . S
C720 C721 1.400 . S
C721 C715 1.491 . S
C721 C720 1.400 . S
C721 C722 1.398 . S
C722 H710 0.950 . S
C722 C721 1.398 . S
C722 C723 1.391 . S
C723 H711 0.950 . S
C723 C719 1.393 . S
C723 C722 1.391 . S
H724 C732 0.950 . S
H725 C737 0.950 . S
H726 C734 0.950 . S
H727 C736 0.950 . S
H728 C738 0.950 . S
H729 C740 0.950 . S
H730 C742 0.950 . S
H731 C743 0.950 . S
C732 H724 0.950 . S
C732 C733 1.386 . S
C732 C734 1.391 . S
C733 C732 1.386 . S
C733 C737 1.393 . S
C734 H726 0.950 . S
C734 C732 1.391 . S
C734 C735 1.400 . S
C735 C734 1.400 . S
C735 C736 1.398 . S
C735 C741 1.491 . S
C736 H727 0.950 . S
C736 C735 1.398 . S
C736 C737 1.391 . S
C737 H725 0.950 . S
C737 C733 1.393 . S
C737 C736 1.391 . S
C738 H728 0.950 . S
C738 C739 1.386 . S
C738 C740 1.391 . S
C739 C738 1.386 . S
C739 C743 1.393 . S
C740 H729 0.950 . S
C740 C738 1.391 . S
C740 C741 1.400 . S
C741 C735 1.491 . S
C741 C740 1.400 . S
C741 C742 1.398 . S
C742 H730 0.950 . S
C742 C741 1.398 . S
C742 C743 1.391 . S
C743 H731 0.950 . S
C743 C739 1.393 . S
C743 C742 1.391 . S
H744 C752 0.950 . S
H745 C757 0.950 . S
H746 C754 0.950 . S
H747 C756 0.950 . S
H748 C758 0.950 . S
H749 C760 0.950 . S
H750 C762 0.950 . S
H751 C763 0.950 . S
C752 H744 0.950 . S
C752 C753 1.386 . S
C752 C754 1.391 . S
C753 C752 1.386 . S
C753 C757 1.393 . S
C754 H746 0.950 . S
C754 C752 1.391 . S
C754 C755 1.400 . S
C755 C754 1.400 . S
C755 C756 1.398 . S
C755 C761 1.491 . S
C756 H747 0.950 . S
C756 C755 1.398 . S
C756 C757 1.391 . S
C757 H745 0.950 . S
C757 C753 1.393 . S
C757 C756 1.391 . S
C758 H748 0.950 . S
C758 C759 1.386 1_545 S
C758 C760 1.391 1_545 S
C759 C758 1.386 1_565 S
C759 C763 1.393 . S
C760 H749 0.950 . S
C760 C758 1.391 1_565 S
C760 C761 1.400 . S
C761 C755 1.491 . S
C761 C760 1.400 . S
C761 C762 1.398 . S
C762 H750 0.950 . S
C762 C761 1.398 . S
C762 C763 1.391 . S
C763 H751 0.950 . S
C763 C759 1.393 . S
C763 C762 1.391 . S
H764 C772 0.950 . S
H765 C777 0.950 . S
H766 C774 0.950 . S
H767 C776 0.950 . S
H768 C778 0.950 . S
H769 C780 0.950 . S
H770 C782 0.950 . S
H771 C783 0.950 . S
C772 H764 0.950 . S
C772 C773 1.386 . S
C772 C774 1.391 . S
C773 C772 1.386 . S
C773 C777 1.393 . S
C774 H766 0.950 . S
C774 C772 1.391 . S
C774 C775 1.400 . S
C775 C774 1.400 . S
C775 C776 1.398 . S
C775 C781 1.491 . S
C776 H767 0.950 . S
C776 C775 1.398 . S
C776 C777 1.391 . S
C777 H765 0.950 . S
C777 C773 1.393 . S
C777 C776 1.391 . S
C778 H768 0.950 . S
C778 C779 1.386 1_565 S
C778 C780 1.391 1_565 S
C779 C778 1.386 1_545 S
C779 C783 1.393 . S
C780 H769 0.950 . S
C780 C778 1.391 1_545 S
C780 C781 1.400 . S
C781 C775 1.491 . S
C781 C780 1.400 . S
C781 C782 1.398 . S
C782 H770 0.950 . S
C782 C781 1.398 . S
C782 C783 1.391 . S
C783 H771 0.950 . S
C783 C779 1.393 . S
C783 C782 1.391 . S
H784 C792 0.950 . S
H785 C797 0.950 . S
H786 C794 0.950 . S
H787 C796 0.950 . S
H788 C798 0.950 . S
H789 C800 0.950 . S
H790 C802 0.950 . S
H791 C803 0.950 . S
C792 H784 0.950 . S
C792 C793 1.386 . S
C792 C794 1.391 . S
C793 C792 1.386 . S
C793 C797 1.393 . S
C794 H786 0.950 . S
C794 C792 1.391 . S
C794 C795 1.400 . S
C795 C794 1.400 . S
C795 C796 1.398 . S
C795 C801 1.491 . S
C796 H787 0.950 . S
C796 C795 1.398 . S
C796 C797 1.391 . S
C797 H785 0.950 . S
C797 C793 1.393 . S
C797 C796 1.391 . S
C798 H788 0.950 . S
C798 C799 1.386 . S
C798 C800 1.391 . S
C799 C798 1.386 . S
C799 C803 1.393 . S
C800 H789 0.950 . S
C800 C798 1.391 . S
C800 C801 1.400 . S
C801 C795 1.491 . S
C801 C800 1.400 . S
C801 C802 1.398 . S
C802 H790 0.950 . S
C802 C801 1.398 . S
C802 C803 1.391 . S
C803 H791 0.950 . S
C803 C799 1.393 . S
C803 C802 1.391 . S
H804 C812 0.950 . S
H805 C817 0.950 1_565 S
H806 C814 0.950 . S
H807 C816 0.950 . S
H808 C818 0.950 . S
H809 C820 0.950 . S
H810 C822 0.950 . S
H811 C823 0.950 . S
C812 H804 0.950 . S
C812 C813 1.386 . S
C812 C814 1.391 . S
C813 C812 1.386 . S
C813 C817 1.393 . S
C814 H806 0.950 . S
C814 C812 1.391 . S
C814 C815 1.400 . S
C815 C814 1.400 . S
C815 C816 1.398 . S
C815 C821 1.491 . S
C816 H807 0.950 . S
C816 C815 1.398 . S
C816 C817 1.391 . S
C817 H805 0.950 1_545 S
C817 C813 1.393 . S
C817 C816 1.391 . S
C818 H808 0.950 . S
C818 C819 1.386 1_455 S
C818 C820 1.391 1_455 S
C819 C818 1.386 1_655 S
C819 C823 1.393 . S
C820 H809 0.950 . S
C820 C818 1.391 1_655 S
C820 C821 1.400 . S
C821 C815 1.491 . S
C821 C820 1.400 . S
C821 C822 1.398 . S
C822 H810 0.950 . S
C822 C821 1.398 . S
C822 C823 1.391 . S
C823 H811 0.950 . S
C823 C819 1.393 . S
C823 C822 1.391 . S
H824 C832 0.950 1_545 S
H825 C837 0.950 . S
H826 C834 0.950 . S
H827 C836 0.950 . S
H828 C838 0.950 . S
H829 C840 0.950 . S
H830 C842 0.950 . S
H831 C843 0.950 . S
C832 H824 0.950 1_565 S
C832 C833 1.386 . S
C832 C834 1.391 . S
C833 C832 1.386 . S
C833 C837 1.393 . S
C834 H826 0.950 . S
C834 C832 1.391 . S
C834 C835 1.400 . S
C835 C834 1.400 . S
C835 C836 1.398 . S
C835 C841 1.491 . S
C836 H827 0.950 . S
C836 C835 1.398 . S
C836 C837 1.391 . S
C837 H825 0.950 . S
C837 C833 1.393 . S
C837 C836 1.391 . S
C838 H828 0.950 . S
C838 C839 1.386 . S
C838 C840 1.391 . S
C839 C838 1.386 . S
C839 C843 1.393 . S
C840 H829 0.950 . S
C840 C838 1.391 . S
C840 C841 1.400 . S
C841 C835 1.491 . S
C841 C840 1.400 . S
C841 C842 1.398 . S
C842 H830 0.950 . S
C842 C841 1.398 . S
C842 C843 1.391 . S
C843 H831 0.950 . S
C843 C839 1.393 . S
C843 C842 1.391 . S
H844 C852 0.950 . S
H845 C857 0.950 . S
H846 C854 0.950 . S
H847 C856 0.950 . S
H848 C858 0.950 . S
H849 C860 0.950 . S
H850 C862 0.950 . S
H851 C863 0.950 . S
C852 H844 0.950 . S
C852 C853 1.386 . S
C852 C854 1.391 . S
C853 C852 1.386 . S
C853 C857 1.393 . S
C854 H846 0.950 . S
C854 C852 1.391 . S
C854 C855 1.400 . S
C855 C854 1.400 . S
C855 C856 1.398 . S
C855 C861 1.491 . S
C856 H847 0.950 . S
C856 C855 1.398 . S
C856 C857 1.391 . S
C857 H845 0.950 . S
C857 C853 1.393 . S
C857 C856 1.391 . S
C858 H848 0.950 . S
C858 C859 1.386 . S
C858 C860 1.391 . S
C859 C858 1.386 . S
C859 C863 1.393 . S
C860 H849 0.950 . S
C860 C858 1.391 . S
C860 C861 1.400 . S
C861 C855 1.491 . S
C861 C860 1.400 . S
C861 C862 1.398 . S
C862 H850 0.950 . S
C862 C861 1.398 . S
C862 C863 1.391 . S
C863 H851 0.950 . S
C863 C859 1.393 . S
C863 C862 1.391 . S
H864 C872 0.950 . S
H865 C877 0.950 . S
H866 C874 0.950 . S
H867 C876 0.950 . S
H868 C878 0.950 . S
H869 C880 0.950 . S
H870 C882 0.950 . S
H871 C883 0.950 . S
C872 H864 0.950 . S
C872 C873 1.386 . S
C872 C874 1.391 . S
C873 C872 1.386 . S
C873 C877 1.393 . S
C874 H866 0.950 . S
C874 C872 1.391 . S
C874 C875 1.400 . S
C875 C874 1.400 . S
C875 C876 1.398 . S
C875 C881 1.491 . S
C876 H867 0.950 . S
C876 C875 1.398 . S
C876 C877 1.391 . S
C877 H865 0.950 . S
C877 C873 1.393 . S
C877 C876 1.391 . S
C878 H868 0.950 . S
C878 C879 1.386 . S
C878 C880 1.391 . S
C879 C878 1.386 . S
C879 C883 1.393 . S
C880 H869 0.950 . S
C880 C878 1.391 . S
C880 C881 1.400 . S
C881 C875 1.491 . S
C881 C880 1.400 . S
C881 C882 1.398 . S
C882 H870 0.950 . S
C882 C881 1.398 . S
C882 C883 1.391 . S
C883 H871 0.950 . S
C883 C879 1.393 . S
C883 C882 1.391 . S
H884 C892 0.950 . S
H885 C897 0.950 . S
H886 C894 0.950 . S
H887 C896 0.950 . S
H888 C898 0.950 . S
H889 C900 0.950 . S
H890 C902 0.950 . S
H891 C903 0.950 . S
C892 H884 0.950 . S
C892 C893 1.386 . S
C892 C894 1.391 . S
C893 C892 1.386 . S
C893 C897 1.393 . S
C894 H886 0.950 . S
C894 C892 1.391 . S
C894 C895 1.400 . S
C895 C894 1.400 . S
C895 C896 1.398 . S
C895 C901 1.491 . S
C896 H887 0.950 . S
C896 C895 1.398 . S
C896 C897 1.391 . S
C897 H885 0.950 . S
C897 C893 1.393 . S
C897 C896 1.391 . S
C898 H888 0.950 . S
C898 C899 1.386 . S
C898 C900 1.391 . S
C899 C898 1.386 . S
C899 C903 1.393 . S
C900 H889 0.950 . S
C900 C898 1.391 . S
C900 C901 1.400 . S
C901 C895 1.491 . S
C901 C900 1.400 . S
C901 C902 1.398 . S
C902 H890 0.950 . S
C902 C901 1.398 . S
C902 C903 1.391 . S
C903 H891 0.950 . S
C903 C899 1.393 . S
C903 C902 1.391 . S
H904 C912 0.950 . S
H905 C917 0.950 . S
H906 C914 0.950 . S
H907 C916 0.950 . S
H908 C918 0.950 . S
H909 C920 0.950 . S
H910 C922 0.950 . S
H911 C923 0.950 . S
C912 H904 0.950 . S
C912 C913 1.386 . S
C912 C914 1.391 . S
C913 C912 1.386 . S
C913 C917 1.393 . S
C914 H906 0.950 . S
C914 C912 1.391 . S
C914 C915 1.400 . S
C915 C914 1.400 . S
C915 C916 1.398 . S
C915 C921 1.491 . S
C916 H907 0.950 . S
C916 C915 1.398 . S
C916 C917 1.391 . S
C917 H905 0.950 . S
C917 C913 1.393 . S
C917 C916 1.391 . S
C918 H908 0.950 . S
C918 C919 1.386 . S
C918 C920 1.391 . S
C919 C918 1.386 . S
C919 C923 1.393 . S
C920 H909 0.950 . S
C920 C918 1.391 . S
C920 C921 1.400 . S
C921 C915 1.491 . S
C921 C920 1.400 . S
C921 C922 1.398 . S
C922 H910 0.950 . S
C922 C921 1.398 . S
C922 C923 1.391 . S
C923 H911 0.950 . S
C923 C919 1.393 . S
C923 C922 1.391 . S
H924 C932 0.950 . S
H925 C937 0.950 . S
H926 C934 0.950 . S
H927 C936 0.950 . S
H928 C938 0.950 . S
H929 C940 0.950 . S
H930 C942 0.950 . S
H931 C943 0.950 . S
C932 H924 0.950 . S
C932 C933 1.386 . S
C932 C934 1.391 . S
C933 C932 1.386 . S
C933 C937 1.393 . S
C934 H926 0.950 . S
C934 C932 1.391 . S
C934 C935 1.400 . S
C935 C934 1.400 . S
C935 C936 1.398 . S
C935 C941 1.491 . S
C936 H927 0.950 . S
C936 C935 1.398 . S
C936 C937 1.391 . S
C937 H925 0.950 . S
C937 C933 1.393 . S
C937 C936 1.391 . S
C938 H928 0.950 . S
C938 C939 1.386 . S
C938 C940 1.391 . S
C939 C938 1.386 . S
C939 C943 1.393 . S
C940 H929 0.950 . S
C940 C938 1.391 . S
C940 C941 1.400 . S
C941 C935 1.491 . S
C941 C940 1.400 . S
C941 C942 1.398 . S
C942 H930 0.950 . S
C942 C941 1.398 . S
C942 C943 1.391 . S
C943 H931 0.950 . S
C943 C939 1.393 . S
C943 C942 1.391 . S
H944 C952 0.950 . S
H945 C957 0.950 . S
H946 C954 0.950 . S
H947 C956 0.950 . S
H948 C958 0.950 . S
H949 C960 0.950 . S
H950 C962 0.950 . S
H951 C963 0.950 . S
C952 H944 0.950 . S
C952 C953 1.386 . S
C952 C954 1.391 . S
C953 C952 1.386 . S
C953 C957 1.393 . S
C954 H946 0.950 . S
C954 C952 1.391 . S
C954 C955 1.400 . S
C955 C954 1.400 . S
C955 C956 1.398 . S
C955 C961 1.491 . S
C956 H947 0.950 . S
C956 C955 1.398 . S
C956 C957 1.391 . S
C957 H945 0.950 . S
C957 C953 1.393 . S
C957 C956 1.391 . S
C958 H948 0.950 . S
C958 C959 1.386 . S
C958 C960 1.391 . S
C959 C958 1.386 . S
C959 C963 1.393 . S
C960 H949 0.950 . S
C960 C958 1.391 . S
C960 C961 1.400 . S
C961 C955 1.491 . S
C961 C960 1.400 . S
C961 C962 1.398 . S
C962 H950 0.950 . S
C962 C961 1.398 . S
C962 C963 1.391 . S
C963 H951 0.950 . S
C963 C959 1.393 . S
C963 C962 1.391 . S
H964 C972 0.950 . S
H965 C977 0.950 . S
H966 C974 0.950 . S
H967 C976 0.950 . S
H968 C978 0.950 . S
H969 C980 0.950 . S
H970 C982 0.950 . S
H971 C983 0.950 . S
C972 H964 0.950 . S
C972 C973 1.386 . S
C972 C974 1.391 . S
C973 C972 1.386 . S
C973 C977 1.393 . S
C974 H966 0.950 . S
C974 C972 1.391 . S
C974 C975 1.400 . S
C975 C974 1.400 . S
C975 C976 1.398 . S
C975 C981 1.491 . S
C976 H967 0.950 . S
C976 C975 1.398 . S
C976 C977 1.391 . S
C977 H965 0.950 . S
C977 C973 1.393 . S
C977 C976 1.391 . S
C978 H968 0.950 . S
C978 C979 1.386 . S
C978 C980 1.391 . S
C979 C978 1.386 . S
C979 C983 1.393 . S
C980 H969 0.950 . S
C980 C978 1.391 . S
C980 C981 1.400 . S
C981 C975 1.491 . S
C981 C980 1.400 . S
C981 C982 1.398 . S
C982 H970 0.950 . S
C982 C981 1.398 . S
C982 C983 1.391 . S
C983 H971 0.950 . S
C983 C979 1.393 . S
C983 C982 1.391 . S
C273 C117 1.037 . S
C279 C18 1.035 . S
C293 C32 1.050 . S
C299 C15 1.049 . S
C313 C54 1.032 . S
C319 C43 1.045 . S
C333 C65 1.050 . S
C339 C84 1.038 . S
C353 C81 1.052 . S
C359 C106 1.045 . S
C373 C118 1.033 . S
C379 C103 1.047 . S
C393 C169 1.052 . S
C399 C150 1.044 . S
C413 C172 1.035 . S
C419 C191 1.037 . S
C433 C205 1.048 . S
C439 C194 1.034 . S
C453 C227 1.052 . S
C459 C206 1.045 . S
C473 C263 1.037 . S
C479 C228 1.034 . S
C493 C147 1.049 . S
C499 C252 1.036 . S
C513 C257 1.342 . S
C519 C8 1.331 . S
C533 C40 1.328 . S
C539 C139 1.335 . S
C553 C161 1.348 . S
C559 C62 1.338 . S
C573 C183 1.341 . S
C579 C74 1.345 . S
C593 C219 1.347 . S
C599 C96 1.347 . S
C613 C120 1.328 . S
C619 C241 1.332 . S
C633 C140 1.328 . S
C639 C37 1.336 . S
C653 C162 1.332 . S
C659 C59 1.331 . S
C673 C73 1.349 . S
C679 C184 1.347 . S
C693 C95 1.348 . S
C699 C208 1.347 . S
C713 C230 1.329 . S
C719 C131 1.332 . S
C733 C260 1.347 . S
C739 C7 1.347 . S
C753 C142 1.064 1_455 S
C759 C10 1.069 1_565 S
C773 C30 1.063 . S
C779 C164 1.064 1_545 S
C793 C186 1.067 . S
C799 C52 1.064 1_455 S
C813 C76 1.063 1_545 S
C819 C216 1.064 1_655 S
C833 C238 1.082 1_565 S
C839 C98 1.078 . S
C853 C250 1.079 . S
C859 C128 1.082 1_655 S
C873 C153 0.917 . S
C879 C21 0.913 . S
C893 C175 0.903 . S
C899 C29 0.908 . S
C913 C197 0.903 . S
C919 C51 0.899 . S
C933 C87 0.906 . S
C939 C213 0.901 . S
C953 C235 0.915 . S
C959 C109 0.918 . S
C973 C249 0.916 . S
C979 C125 0.918 . S
