# Generated by pormake.
# Topology wkj, (6)-cn, num edge types: 1
# Building blocks:
#     Node 0, Type 0, BuildingBlock: MIFKUJ_clean_sbu_0, # of connection points: 6
#     Node 1, Type 0, BuildingBlock: MIFKUJ_clean_sbu_0, # of connection points: 6
#     Node 2, Type 0, BuildingBlock: MIFKUJ_clean_sbu_0, # of connection points: 6
#     Node 3, Type 0, BuildingBlock: MIFKUJ_clean_sbu_0, # of connection points: 6
#     Node 4, Type 0, BuildingBlock: MIFKUJ_clean_sbu_0, # of connection points: 6
#     Node 5, Type 0, BuildingBlock: MIFKUJ_clean_sbu_0, # of connection points: 6
#     Node 6, Type 0, BuildingBlock: MIFKUJ_clean_sbu_0, # of connection points: 6
#     Node 7, Type 0, BuildingBlock: MIFKUJ_clean_sbu_0, # of connection points: 6
#     Node 8, Type 0, BuildingBlock: MIFKUJ_clean_sbu_0, # of connection points: 6
#     Node 9, Type 0, BuildingBlock: MIFKUJ_clean_sbu_0, # of connection points: 6
#     Node 10, Type 0, BuildingBlock: MIFKUJ_clean_sbu_0, # of connection points: 6
#     Node 11, Type 0, BuildingBlock: MIFKUJ_clean_sbu_0, # of connection points: 6
#     Edge 12, Type (0, 0), BuildingBlock: UVAHIK_clean_linker_0, # of connection points: 2
#     Edge 13, Type (0, 0), BuildingBlock: UVAHIK_clean_linker_0, # of connection points: 2
#     Edge 14, Type (0, 0), BuildingBlock: UVAHIK_clean_linker_0, # of connection points: 2
#     Edge 15, Type (0, 0), BuildingBlock: UVAHIK_clean_linker_0, # of connection points: 2
#     Edge 16, Type (0, 0), BuildingBlock: UVAHIK_clean_linker_0, # of connection points: 2
#     Edge 17, Type (0, 0), BuildingBlock: UVAHIK_clean_linker_0, # of connection points: 2
#     Edge 18, Type (0, 0), BuildingBlock: UVAHIK_clean_linker_0, # of connection points: 2
#     Edge 19, Type (0, 0), BuildingBlock: UVAHIK_clean_linker_0, # of connection points: 2
#     Edge 20, Type (0, 0), BuildingBlock: UVAHIK_clean_linker_0, # of connection points: 2
#     Edge 21, Type (0, 0), BuildingBlock: UVAHIK_clean_linker_0, # of connection points: 2
#     Edge 22, Type (0, 0), BuildingBlock: UVAHIK_clean_linker_0, # of connection points: 2
#     Edge 23, Type (0, 0), BuildingBlock: UVAHIK_clean_linker_0, # of connection points: 2
#     Edge 24, Type (0, 0), BuildingBlock: UVAHIK_clean_linker_0, # of connection points: 2
#     Edge 25, Type (0, 0), BuildingBlock: UVAHIK_clean_linker_0, # of connection points: 2
#     Edge 26, Type (0, 0), BuildingBlock: UVAHIK_clean_linker_0, # of connection points: 2
#     Edge 27, Type (0, 0), BuildingBlock: UVAHIK_clean_linker_0, # of connection points: 2
#     Edge 28, Type (0, 0), BuildingBlock: UVAHIK_clean_linker_0, # of connection points: 2
#     Edge 29, Type (0, 0), BuildingBlock: UVAHIK_clean_linker_0, # of connection points: 2
#     Edge 30, Type (0, 0), BuildingBlock: UVAHIK_clean_linker_0, # of connection points: 2
#     Edge 31, Type (0, 0), BuildingBlock: UVAHIK_clean_linker_0, # of connection points: 2
#     Edge 32, Type (0, 0), BuildingBlock: UVAHIK_clean_linker_0, # of connection points: 2
#     Edge 33, Type (0, 0), BuildingBlock: UVAHIK_clean_linker_0, # of connection points: 2
#     Edge 34, Type (0, 0), BuildingBlock: UVAHIK_clean_linker_0, # of connection points: 2
#     Edge 35, Type (0, 0), BuildingBlock: UVAHIK_clean_linker_0, # of connection points: 2
#     Edge 36, Type (0, 0), BuildingBlock: UVAHIK_clean_linker_0, # of connection points: 2
#     Edge 37, Type (0, 0), BuildingBlock: UVAHIK_clean_linker_0, # of connection points: 2
#     Edge 38, Type (0, 0), BuildingBlock: UVAHIK_clean_linker_0, # of connection points: 2
#     Edge 39, Type (0, 0), BuildingBlock: UVAHIK_clean_linker_0, # of connection points: 2
#     Edge 40, Type (0, 0), BuildingBlock: UVAHIK_clean_linker_0, # of connection points: 2
#     Edge 41, Type (0, 0), BuildingBlock: UVAHIK_clean_linker_0, # of connection points: 2
#     Edge 42, Type (0, 0), BuildingBlock: UVAHIK_clean_linker_0, # of connection points: 2
#     Edge 43, Type (0, 0), BuildingBlock: UVAHIK_clean_linker_0, # of connection points: 2
#     Edge 44, Type (0, 0), BuildingBlock: UVAHIK_clean_linker_0, # of connection points: 2
#     Edge 45, Type (0, 0), BuildingBlock: UVAHIK_clean_linker_0, # of connection points: 2
#     Edge 46, Type (0, 0), BuildingBlock: UVAHIK_clean_linker_0, # of connection points: 2
#     Edge 47, Type (0, 0), BuildingBlock: UVAHIK_clean_linker_0, # of connection points: 2
# Relax obj value: 0.315
# Max RMSD: 0.207
# Mean RMSD: 0.207
data_MOF--net-wkj--node1-MIFKUJ_clean_sbu_0--edge1-UVAHIK_clean_linker_0
_symmetry_space_group_name_H-M    P1
_symmetry_Int_Tables_number       1
_symmetry_cell_setting            triclinic
loop_
_symmetry_equiv_pos_as_xyz
'x, y, z'
_cell_length_a     60.763661
_cell_length_b     60.609834
_cell_length_c     37.940319
_cell_angle_alpha  90.225001
_cell_angle_beta   89.981682
_cell_angle_gamma 120.05441
loop_
_atom_site_label
_atom_site_type_symbol
_atom_site_fract_x
_atom_site_fract_y
_atom_site_fract_z
_atom_type_partial_charge
Zn0 Zn 0.45697 0.09302 0.20609 0.0
Zn1 Zn 0.42754 0.08093 0.30809 0.0
C2 C 0.41902 0.04869 0.16604 0.0
O3 O 0.42281 0.03518 0.1897 0.0
C4 C 0.47359 0.11557 0.34911 0.0
O5 O 0.47172 0.13449 0.33562 0.0
O6 O 0.48837 0.11877 0.1793 0.0
O7 O 0.44151 0.10877 0.23869 0.0
O8 O 0.42494 0.11025 0.29009 0.0
C9 C 0.48564 0.12972 0.15242 0.0
O10 O 0.46308 0.12677 0.14588 0.0
O11 O 0.43103 0.07282 0.16861 0.0
C12 C 0.39331 0.06681 0.36341 0.0
O13 O 0.40872 0.09123 0.36937 0.0
O14 O 0.39645 0.05695 0.33561 0.0
O15 O 0.43321 0.06644 0.2647 0.0
O16 O 0.46549 0.0702 0.23542 0.0
O17 O 0.45752 0.09278 0.34051 0.0
C18 C 0.4319 0.11858 0.25889 0.0
C19 C 0.45166 0.06244 0.26275 0.0
Zn20 Zn 0.36637 0.46502 0.5306 0.0
Zn21 Zn 0.34909 0.4448 0.63715 0.0
C22 C 0.36461 0.41916 0.49861 0.0
O23 O 0.38012 0.4205 0.52372 0.0
C24 C 0.35528 0.48475 0.68581 0.0
O25 O 0.33098 0.47577 0.6796 0.0
O26 O 0.37062 0.49396 0.49944 0.0
O27 O 0.33949 0.45474 0.56776 0.0
O28 O 0.31717 0.44217 0.61605 0.0
C29 C 0.35648 0.48848 0.47228 0.0
O30 O 0.33804 0.46485 0.46778 0.0
O31 O 0.35708 0.43526 0.49804 0.0
C32 C 0.3223 0.40518 0.68737 0.0
O33 O 0.30817 0.41589 0.68998 0.0
O34 O 0.34038 0.41383 0.66523 0.0
O35 O 0.37117 0.44763 0.59581 0.0
O36 O 0.39846 0.47568 0.55937 0.0
O37 O 0.36682 0.47509 0.66969 0.0
C38 C 0.3187 0.44761 0.58345 0.0
C39 C 0.39333 0.46599 0.59009 0.0
Zn40 Zn 0.87536 0.35375 0.87048 0.0
Zn41 Zn 0.88083 0.3393 0.9778 0.0
C42 C 0.9198 0.3561 0.83696 0.0
O43 O 0.93206 0.37073 0.86401 0.0
C44 C 0.85199 0.3491 0.03041 0.0
O45 O 0.83557 0.32472 0.02629 0.0
O46 O 0.85103 0.36024 0.84225 0.0
O47 O 0.85711 0.324 0.90523 0.0
O48 O 0.85036 0.30789 0.95918 0.0
C49 C 0.83963 0.3467 0.81539 0.0
O50 O 0.84152 0.32644 0.80861 0.0
O51 O 0.89583 0.34638 0.83513 0.0
C52 C 0.89507 0.31232 0.02494 0.0
O53 O 0.871 0.30196 0.03375 0.0
O54 O 0.90387 0.32911 0.00093 0.0
O55 O 0.89627 0.35849 0.93455 0.0
O56 O 0.89777 0.38637 0.89797 0.0
O57 O 0.8721 0.35931 0.0119 0.0
C58 C 0.84559 0.30525 0.92621 0.0
C59 C 0.90233 0.38123 0.92846 0.0
Zn60 Zn 0.5221 0.90886 0.19248 0.0
Zn61 Zn 0.54137 0.90121 0.29724 0.0
C62 C 0.54973 0.91594 0.12771 0.0
O63 O 0.53232 0.89191 0.12333 0.0
C64 C 0.50133 0.87154 0.34572 0.0
O65 O 0.50793 0.85445 0.3383 0.0
O66 O 0.48888 0.89011 0.1658 0.0
O67 O 0.52628 0.88404 0.22337 0.0
O68 O 0.53416 0.86945 0.27197 0.0
C69 C 0.47895 0.86701 0.15571 0.0
O70 O 0.48964 0.85366 0.16471 0.0
O71 O 0.55019 0.92707 0.15646 0.0
C72 C 0.59176 0.93515 0.32855 0.0
O73 O 0.5942 0.95238 0.30555 0.0
O74 O 0.57217 0.91312 0.32742 0.0
O75 O 0.54427 0.92487 0.25865 0.0
O76 O 0.52074 0.93424 0.22597 0.0
O77 O 0.51256 0.89299 0.33029 0.0
C78 C 0.52832 0.86683 0.23944 0.0
C79 C 0.53087 0.93536 0.2557 0.0
Zn80 Zn 0.62051 0.51285 0.54524 0.0
Zn81 Zn 0.64452 0.5413 0.64463 0.0
C82 C 0.62173 0.55437 0.50722 0.0
O83 O 0.60142 0.54753 0.52656 0.0
C84 C 0.62236 0.49268 0.68304 0.0
O85 O 0.63851 0.4882 0.66589 0.0
O86 O 0.60807 0.48125 0.51493 0.0
O87 O 0.64376 0.51479 0.58509 0.0
O88 O 0.67284 0.53756 0.62366 0.0
C89 C 0.62067 0.48269 0.48736 0.0
O90 O 0.64176 0.50405 0.48072 0.0
O91 O 0.63464 0.54334 0.51195 0.0
C92 C 0.66292 0.5954 0.66136 0.0
O93 O 0.65615 0.59784 0.62938 0.0
O94 O 0.65961 0.574 0.67145 0.0
O95 O 0.624 0.54082 0.60289 0.0
O96 O 0.59147 0.51139 0.574 0.0
O97 O 0.62214 0.51321 0.67748 0.0
C98 C 0.66704 0.5298 0.59206 0.0
C99 C 0.60021 0.52584 0.60097 0.0
Zn100 Zn 0.09313 0.62519 0.86697 0.0
Zn101 Zn 0.08669 0.64252 0.96887 0.0
C102 C 0.05002 0.62694 0.83607 0.0
O103 O 0.03668 0.60781 0.8574 0.0
C104 C 0.11882 0.63522 0.0165 0.0
O105 O 0.1295 0.66009 0.01973 0.0
O106 O 0.11425 0.6169 0.83306 0.0
O107 O 0.11226 0.64807 0.90876 0.0
O108 O 0.11433 0.67496 0.94866 0.0
C109 C 0.11937 0.62748 0.80285 0.0
O110 O 0.113 0.6448 0.79623 0.0
O111 O 0.07417 0.63831 0.83746 0.0
C112 C 0.0543 0.63423 0.02645 0.0
O113 O 0.05759 0.61451 0.02975 0.0
O114 O 0.06515 0.64978 0.00142 0.0
O115 O 0.06727 0.62282 0.92586 0.0
O116 O 0.06706 0.59317 0.893 0.0
O117 O 0.1008 0.62363 0.99457 0.0
C118 C 0.11811 0.67069 0.91707 0.0
C119 C 0.06028 0.59955 0.92126 0.0
Zn120 Zn 0.88354 0.5206 0.47182 0.0
Zn121 Zn 0.88619 0.54094 0.36911 0.0
C122 C 0.92621 0.56266 0.51055 0.0
O123 O 0.94044 0.56427 0.48351 0.0
C124 C 0.85518 0.50172 0.32132 0.0
O125 O 0.84569 0.51692 0.31834 0.0
O126 O 0.86017 0.48827 0.49831 0.0
O127 O 0.8628 0.53321 0.44336 0.0
O128 O 0.8576 0.54344 0.38873 0.0
C129 C 0.84651 0.49021 0.52217 0.0
O130 O 0.84639 0.51176 0.5251 0.0
O131 O 0.9026 0.54637 0.51 0.0
C132 C 0.91317 0.56417 0.30685 0.0
O133 O 0.9086 0.54082 0.30176 0.0
O134 O 0.90631 0.56981 0.33551 0.0
O135 O 0.90506 0.54313 0.41174 0.0
O136 O 0.90857 0.51519 0.44222 0.0
O137 O 0.87257 0.50712 0.34401 0.0
C138 C 0.8519 0.54057 0.42131 0.0
C139 C 0.91415 0.52864 0.4147 0.0
Zn140 Zn 0.34939 0.90354 0.79591 0.0
Zn141 Zn 0.33693 0.8889 0.68644 0.0
C142 C 0.34269 0.94234 0.82995 0.0
O143 O 0.36308 0.95773 0.81183 0.0
C144 C 0.35869 0.86202 0.64988 0.0
O145 O 0.33936 0.84135 0.66295 0.0
O146 O 0.36019 0.88791 0.83362 0.0
O147 O 0.32838 0.87693 0.75977 0.0
O148 O 0.31178 0.85639 0.71072 0.0
C149 C 0.36493 0.86972 0.83311 0.0
O150 O 0.36416 0.85837 0.8032 0.0
O151 O 0.33154 0.91857 0.82337 0.0
C152 C 0.31008 0.91375 0.65878 0.0
O153 O 0.31132 0.92194 0.69124 0.0
O154 O 0.31892 0.89918 0.65185 0.0
O155 O 0.35322 0.91538 0.72489 0.0
O156 O 0.38 0.92948 0.7686 0.0
O157 O 0.36183 0.88371 0.65834 0.0
C158 C 0.31197 0.85691 0.74424 0.0
C159 C 0.37606 0.92689 0.7355 0.0
Zn160 Zn 0.45544 0.36057 0.12537 0.0
Zn161 Zn 0.43304 0.33913 0.02445 0.0
C162 C 0.42417 0.35925 0.17896 0.0
O163 O 0.44089 0.38358 0.17558 0.0
C164 C 0.47891 0.35519 0.98526 0.0
O165 O 0.47287 0.33133 0.98978 0.0
O166 O 0.48748 0.3745 0.15462 0.0
O167 O 0.45543 0.33962 0.08395 0.0
O168 O 0.43477 0.30973 0.04548 0.0
C169 C 0.48767 0.36054 0.17945 0.0
O170 O 0.46775 0.33779 0.18378 0.0
O171 O 0.42547 0.34321 0.15866 0.0
C172 C 0.38232 0.3192 0.99159 0.0
O173 O 0.37287 0.31874 0.0229 0.0
O174 O 0.4058 0.32668 0.98833 0.0
O175 O 0.42704 0.35636 0.06614 0.0
O176 O 0.45307 0.38856 0.09909 0.0
O177 O 0.46534 0.36321 -0.00034 0.0
C178 C 0.44365 0.3161 0.07644 0.0
C179 C 0.43993 0.38024 0.0709 0.0
Zn180 Zn 0.07281 0.44812 0.4557 0.0
Zn181 Zn 0.08316 0.4411 0.34672 0.0
C182 C 0.05183 0.4257 0.52132 0.0
O183 O 0.05748 0.44937 0.52655 0.0
C184 C 0.1128 0.47661 0.2952 0.0
O185 O 0.12072 0.4601 0.29221 0.0
O186 O 0.09354 0.48095 0.48312 0.0
O187 O 0.09745 0.44395 0.4227 0.0
O188 O 0.11177 0.44026 0.37054 0.0
C189 C 0.11242 0.48524 0.50242 0.0
O190 O 0.12052 0.46881 0.50222 0.0
O191 O 0.05575 0.41908 0.49116 0.0
C192 C 0.0491 0.4132 0.29416 0.0
O193 O 0.04583 0.43295 0.29766 0.0
O194 O 0.06455 0.41127 0.31457 0.0
O195 O 0.06241 0.44023 0.38659 0.0
O196 O 0.04617 0.45222 0.42736 0.0
O197 O 0.09646 0.47305 0.31864 0.0
C198 C 0.11344 0.44133 0.40405 0.0
C199 C 0.04824 0.44896 0.3948 0.0
Zn200 Zn 0.62458 0.10801 0.79078 0.0
Zn201 Zn 0.63451 0.09209 0.68926 0.0
C202 C 0.62612 0.07766 0.84243 0.0
O203 O 0.60404 0.07638 0.84629 0.0
C204 C 0.61726 0.12235 0.65053 0.0
O205 O 0.63846 0.14213 0.66169 0.0
O206 O 0.61636 0.1295 0.82437 0.0
O207 O 0.6426 0.12453 0.74453 0.0
O208 O 0.66687 0.12383 0.70277 0.0
C209 C 0.62897 0.13789 0.85294 0.0
O210 O 0.64879 0.13508 0.85803 0.0
O211 O 0.64109 0.09162 0.81832 0.0
C212 C 0.62487 0.05262 0.641 0.0
O213 O 0.60306 0.05212 0.63937 0.0
O214 O 0.64239 0.06876 0.6609 0.0
O215 O 0.61955 0.07717 0.73684 0.0
O216 O 0.59179 0.07784 0.77236 0.0
O217 O 0.61162 0.10016 0.66058 0.0
C218 C 0.66474 0.13054 0.73381 0.0
C219 C 0.59655 0.06833 0.74545 0.0
Zn220 Zn 0.52784 0.61494 0.12575 0.0
Zn221 Zn 0.54098 0.63767 0.01951 0.0
C222 C 0.54882 0.59785 0.17725 0.0
O223 O 0.52693 0.57728 0.17045 0.0
C224 C 0.50269 0.63637 0.97308 0.0
O225 O 0.52071 0.65985 0.96661 0.0
O226 O 0.49794 0.60944 0.15559 0.0
O227 O 0.54008 0.64667 0.09546 0.0
O228 O 0.54997 0.66938 0.04685 0.0
C229 C 0.50168 0.62043 0.1854 0.0
O230 O 0.52512 0.63634 0.19547 0.0
O231 O 0.55508 0.61776 0.15923 0.0
C232 C 0.56036 0.62913 0.95739 0.0
O233 O 0.5372 0.60939 0.95695 0.0
O234 O 0.56719 0.64469 0.98301 0.0
O235 O 0.54008 0.61408 0.05619 0.0
O236 O 0.51562 0.58445 0.09256 0.0
O237 O 0.50663 0.62356 0.99615 0.0
C238 C 0.54793 0.66798 0.08032 0.0
C239 C 0.52322 0.5912 0.06121 0.0
C240 C 0.43937 0.15231 0.21584 0.0
C241 C 0.42575 0.1372 0.24463 0.0
C242 C 0.43289 0.16941 0.20159 0.0
C243 C 0.39836 0.18922 0.16866 0.0
H244 H 0.42555 0.25259 0.22148 0.0
C245 C 0.40843 0.27795 0.10425 0.0
C246 C 0.43412 0.29701 0.10404 0.0
C247 C 0.39983 0.25809 0.1283 0.0
C248 C 0.41733 0.23481 0.20687 0.0
H249 H 0.39429 0.12726 0.28048 0.0
H250 H 0.38333 0.15778 0.25563 0.0
H251 H 0.4238 0.21519 0.24882 0.0
H252 H 0.47087 0.31127 0.12866 0.0
H253 H 0.45598 0.27629 0.17079 0.0
H254 H 0.39332 0.20906 0.12593 0.0
C255 C 0.39893 0.15626 0.24442 0.0
C256 C 0.41628 0.21356 0.22244 0.0
C257 C 0.40537 0.13913 0.25869 0.0
C258 C 0.45091 0.29681 0.12899 0.0
C259 C 0.44234 0.27696 0.15307 0.0
C260 C 0.39907 0.21034 0.15324 0.0
C261 C 0.41274 0.17146 0.21596 0.0
C262 C 0.40781 0.19112 0.20282 0.0
C263 C 0.41691 0.25708 0.15216 0.0
C264 C 0.40967 0.23359 0.1717 0.0
H265 H 0.45519 0.15116 0.20471 0.0
H266 H 0.44395 0.18145 0.17989 0.0
H267 H 0.3919 0.17195 0.15329 0.0
H268 H 0.3952 0.27808 0.08521 0.0
H269 H 0.38015 0.24294 0.12726 0.0
C270 C 0.29903 0.45655 0.53281 0.0
C271 C 0.2963 0.44216 0.56298 0.0
C272 C 0.27803 0.45072 0.51194 0.0
C273 C 0.21249 0.42823 0.52309 0.0
H274 H 0.20939 0.42727 0.42096 0.0
C275 C 0.1282 0.42436 0.45161 0.0
C276 C 0.13356 0.43901 0.42109 0.0
C277 C 0.14691 0.42071 0.4668 0.0
C278 C 0.21012 0.4277 0.44949 0.0
H279 H 0.27018 0.40993 0.59473 0.0
H280 H 0.23299 0.40003 0.55847 0.0
H281 H 0.24475 0.42644 0.4505 0.0
H282 H 0.16228 0.46207 0.38271 0.0
H283 H 0.19575 0.45719 0.41068 0.0
H284 H 0.17919 0.43134 0.52264 0.0
C285 C 0.25142 0.41572 0.55101 0.0
C286 C 0.23013 0.42695 0.46624 0.0
C287 C 0.27247 0.42157 0.57189 0.0
C288 C 0.15789 0.4505 0.4062 0.0
C289 C 0.17686 0.44746 0.42196 0.0
C290 C 0.19282 0.42942 0.50645 0.0
C291 C 0.25406 0.43053 0.52127 0.0
C292 C 0.2315 0.42751 0.50314 0.0
C293 C 0.17146 0.43233 0.45225 0.0
C294 C 0.19157 0.42946 0.46951 0.0
H295 H 0.3173 0.47269 0.52593 0.0
H296 H 0.28033 0.4627 0.4895 0.0
H297 H 0.21356 0.42923 0.55161 0.0
H298 H 0.10936 0.41515 0.46313 0.0
H299 H 0.14205 0.4086 0.48976 0.0
C300 C 0.84175 0.27193 0.88537 0.0
C301 C 0.83085 0.27964 0.91168 0.0
C302 C 0.82872 0.24715 0.87228 0.0
C303 C 0.76838 0.18447 0.88308 0.0
H304 H 0.77159 0.18552 0.78103 0.0
C305 C 0.6853 0.1482 0.79145 0.0
C306 C 0.68533 0.13707 0.75912 0.0
C307 C 0.7052 0.15523 0.81517 0.0
C308 C 0.77089 0.18445 0.80955 0.0
H309 H 0.79854 0.268 0.94603 0.0
H310 H 0.77438 0.22528 0.92082 0.0
H311 H 0.8049 0.22007 0.81405 0.0
H312 H 0.70556 0.12353 0.72642 0.0
H313 H 0.74109 0.13704 0.7674 0.0
H314 H 0.73239 0.15014 0.87754 0.0
C315 C 0.79349 0.23772 0.91135 0.0
C316 C 0.79009 0.20437 0.8287 0.0
C317 C 0.807 0.2623 0.92535 0.0
C318 C 0.70521 0.13234 0.75115 0.0
C319 C 0.7253 0.13966 0.77469 0.0
C320 C 0.74883 0.16479 0.86377 0.0
C321 C 0.80409 0.22993 0.88431 0.0
C322 C 0.7882 0.20545 0.86556 0.0
C323 C 0.72567 0.15164 0.80652 0.0
C324 C 0.74931 0.16559 0.82685 0.0
H325 H 0.86057 0.285 0.87532 0.0
H326 H 0.83779 0.24172 0.85221 0.0
H327 H 0.76689 0.18421 0.91153 0.0
H328 H 0.67044 0.15247 0.79767 0.0
H329 H 0.70546 0.16515 0.83913 0.0
C330 C 0.54117 0.68711 0.13402 0.0
C331 C 0.55265 0.69034 0.10094 0.0
C332 C 0.54186 0.70774 0.15114 0.0
C333 C 0.54083 0.76388 0.12586 0.0
H334 H 0.54637 0.77848 0.22605 0.0
C335 C 0.53626 0.8481 0.18663 0.0
C336 C 0.52573 0.84484 0.22033 0.0
C337 C 0.53817 0.82839 0.17092 0.0
C338 C 0.54436 0.77427 0.19808 0.0
H339 H 0.57608 0.71778 0.06127 0.0
H340 H 0.57733 0.7541 0.09142 0.0
H341 H 0.5579 0.74795 0.20327 0.0
H342 H 0.50685 0.81839 0.26304 0.0
H343 H 0.50939 0.78337 0.23497 0.0
H344 H 0.52672 0.78964 0.12063 0.0
C345 C 0.56744 0.7355 0.10369 0.0
C346 C 0.55127 0.75712 0.1851 0.0
C347 C 0.56667 0.71481 0.08651 0.0
C348 C 0.51535 0.8212 0.23713 0.0
C349 C 0.51692 0.80135 0.22122 0.0
C350 C 0.53375 0.78087 0.13884 0.0
C351 C 0.55408 0.73182 0.1353 0.0
C352 C 0.54952 0.75182 0.14891 0.0
C353 C 0.52935 0.80519 0.18871 0.0
C354 C 0.53541 0.78616 0.17505 0.0
H355 H 0.53014 0.66839 0.1455 0.0
H356 H 0.53124 0.70444 0.17538 0.0
H357 H 0.53875 0.75956 0.09791 0.0
H358 H 0.54454 0.86637 0.17352 0.0
H359 H 0.54799 0.83192 0.14595 0.0
C360 C 0.68587 0.53286 0.5333 0.0
C361 C 0.68469 0.54484 0.56415 0.0
C362 C 0.70482 0.54648 0.50861 0.0
C363 C 0.76899 0.58783 0.5177 0.0
H364 H 0.76921 0.57669 0.41715 0.0
C365 C 0.84447 0.56933 0.45915 0.0
C366 C 0.83527 0.54969 0.43409 0.0
C367 C 0.8301 0.58056 0.4683 0.0
C368 C 0.76952 0.57994 0.44526 0.0
H369 H 0.70057 0.58074 0.59261 0.0
H370 H 0.73467 0.60432 0.55015 0.0
H371 H 0.7327 0.57662 0.44409 0.0
H372 H 0.8044 0.52623 0.39859 0.0
H373 H 0.77795 0.54383 0.41701 0.0
H374 H 0.80373 0.58764 0.52036 0.0
C375 C 0.72065 0.58463 0.54462 0.0
C376 C 0.74883 0.58038 0.46046 0.0
C377 C 0.70149 0.57105 0.56907 0.0
C378 C 0.81156 0.54122 0.41834 0.0
C379 C 0.79676 0.55179 0.42836 0.0
C380 C 0.78927 0.58669 0.50275 0.0
C381 C 0.72312 0.57213 0.51503 0.0
C382 C 0.74775 0.58259 0.4971 0.0
C383 C 0.80587 0.57171 0.4534 0.0
C384 C 0.78889 0.5809 0.46675 0.0
H385 H 0.67341 0.51256 0.52966 0.0
H386 H 0.70669 0.53625 0.4864 0.0
H387 H 0.76856 0.58949 0.54611 0.0
H388 H 0.86315 0.57655 0.47077 0.0
H389 H 0.83802 0.59613 0.48711 0.0
C390 C 0.28584 0.84164 0.79809 0.0
C391 C 0.2914 0.8365 0.7642 0.0
C392 C 0.26255 0.82515 0.81342 0.0
C393 C 0.19804 0.77677 0.78515 0.0
H394 H 0.18725 0.76344 0.88523 0.0
C395 C 0.13339 0.68795 0.85751 0.0
C396 C 0.1242 0.69017 0.89032 0.0
C397 C 0.14442 0.70873 0.83499 0.0
C398 C 0.18987 0.76773 0.85731 0.0
H399 H 0.27925 0.80861 0.72198 0.0
H400 H 0.23903 0.77889 0.74978 0.0
H401 H 0.22983 0.79162 0.86381 0.0
H402 H 0.11585 0.7143 0.92365 0.0
H403 H 0.13689 0.7513 0.88521 0.0
H404 H 0.15818 0.75045 0.77878 0.0
C405 C 0.25186 0.79644 0.76344 0.0
C406 C 0.21431 0.78366 0.84501 0.0
C407 C 0.27494 0.81321 0.74776 0.0
C408 C 0.12341 0.71237 0.8987 0.0
C409 C 0.1349 0.73334 0.87649 0.0
C410 C 0.17361 0.76029 0.79745 0.0
C411 C 0.24486 0.80304 0.79537 0.0
C412 C 0.21874 0.78769 0.80872 0.0
C413 C 0.14713 0.73211 0.84588 0.0
C414 C 0.1696 0.75513 0.8335 0.0
H415 H 0.29848 0.85938 0.81152 0.0
H416 H 0.25786 0.83065 0.83825 0.0
H417 H 0.20081 0.78024 0.75708 0.0
H418 H 0.13443 0.67114 0.8509 0.0
H419 H 0.154 0.70751 0.81159 0.0
C420 C 0.63048 0.15025 0.91623 0.0
C421 C 0.61907 0.14634 0.88279 0.0
C422 C 0.61924 0.15423 0.94586 0.0
C423 C 0.5727 0.17162 0.97801 0.0
H424 H 0.56297 0.12474 0.05363 0.0
C425 C 0.50085 0.14835 0.09232 0.0
C426 C 0.5058 0.14083 0.12503 0.0
C427 C 0.51764 0.1541 0.06402 0.0
C428 C 0.56596 0.13842 0.03326 0.0
H429 H 0.58777 0.14536 0.85401 0.0
H430 H 0.56828 0.15274 0.90601 0.0
H431 H 0.58661 0.12575 0.00149 0.0
H432 H 0.53354 0.13582 0.15451 0.0
H433 H 0.56312 0.1465 0.10558 0.0
H434 H 0.55195 0.18428 0.00991 0.0
C435 C 0.58586 0.15248 0.90913 0.0
C436 C 0.57944 0.13888 0.00319 0.0
C437 C 0.59698 0.14817 0.87939 0.0
C438 C 0.52893 0.14119 0.12957 0.0
C439 C 0.5458 0.14709 0.10134 0.0
C440 C 0.55937 0.17136 0.00839 0.0
C441 C 0.59646 0.15472 0.94283 0.0
C442 C 0.58286 0.15535 0.97513 0.0
C443 C 0.53992 0.15264 0.06779 0.0
C444 C 0.55567 0.1546 0.03637 0.0
H445 H 0.64757 0.14914 0.91993 0.0
H446 H 0.62806 0.15626 0.97139 0.0
H447 H 0.57518 0.18463 0.95687 0.0
H448 H 0.48331 0.14848 0.0879 0.0
H449 H 0.51236 0.15825 0.0387 0.0
C450 C 0.45554 0.59388 0.20141 0.0
C451 C 0.48038 0.61285 0.21044 0.0
C452 C 0.43634 0.58401 0.22689 0.0
C453 C 0.42087 0.59257 0.31976 0.0
H454 H 0.3847 0.51869 0.31975 0.0
C455 C 0.38548 0.53109 0.44505 0.0
C456 C 0.36338 0.50701 0.44313 0.0
C457 C 0.39441 0.54664 0.41523 0.0
C458 C 0.39416 0.53932 0.3199 0.0
H459 H 0.50401 0.63774 0.25257 0.0
H460 H 0.47084 0.62027 0.29696 0.0
H461 H 0.40998 0.54152 0.26892 0.0
H462 H 0.33216 0.48132 0.40914 0.0
H463 H 0.34776 0.50845 0.35725 0.0
H464 H 0.40594 0.59014 0.37174 0.0
C465 C 0.466 0.61306 0.27025 0.0
C466 C 0.40868 0.55247 0.29062 0.0
C467 C 0.48515 0.62297 0.24479 0.0
C468 C 0.34943 0.49963 0.41146 0.0
C469 C 0.35839 0.51513 0.38165 0.0
C470 C 0.40642 0.57938 0.34919 0.0
C471 C 0.44157 0.59285 0.26194 0.0
C472 C 0.42281 0.57926 0.29054 0.0
C473 C 0.38144 0.53842 0.38288 0.0
C474 C 0.39345 0.5526 0.34994 0.0
H475 H 0.45114 0.5859 0.17504 0.0
H476 H 0.4176 0.56882 0.21939 0.0
H477 H 0.43114 0.61321 0.32032 0.0
H478 H 0.39663 0.53741 0.46906 0.0
H479 H 0.41231 0.5644 0.41704 0.0
C480 C 0.82164 0.34478 0.75527 0.0
C481 C 0.82904 0.35657 0.78852 0.0
C482 C 0.8164 0.35667 0.72762 0.0
C483 C 0.83354 0.42181 0.70034 0.0
H484 H 0.78974 0.38677 0.62055 0.0
C485 C 0.82718 0.47676 0.58198 0.0
C486 C 0.83508 0.47076 0.5503 0.0
C487 C 0.82065 0.46062 0.61105 0.0
C488 C 0.80197 0.39673 0.64275 0.0
H489 H 0.83434 0.38895 0.81971 0.0
H490 H 0.82449 0.40929 0.77191 0.0
H491 H 0.78776 0.36262 0.67331 0.0
H492 H 0.84029 0.44205 0.52345 0.0
H493 H 0.82827 0.41349 0.5743 0.0
H494 H 0.84765 0.45586 0.66982 0.0
C495 C 0.82361 0.39128 0.76673 0.0
C496 C 0.80096 0.38295 0.67291 0.0
C497 C 0.82905 0.3795 0.79429 0.0
C498 C 0.83444 0.44729 0.54754 0.0
C499 C 0.82748 0.4309 0.57655 0.0
C500 C 0.83424 0.43556 0.67053 0.0
C501 C 0.81823 0.38055 0.73263 0.0
C502 C 0.81704 0.39527 0.70192 0.0
C503 C 0.8214 0.43789 0.60891 0.0
C504 C 0.81875 0.42314 0.64128 0.0
H505 H 0.82126 0.32702 0.74995 0.0
H506 H 0.81241 0.34778 0.70183 0.0
H507 H 0.8467 0.43196 0.72159 0.0
H508 H 0.82732 0.49461 0.58503 0.0
H509 H 0.81585 0.46633 0.63565 0.0
C510 C 0.36617 0.87025 0.8986 0.0
C511 C 0.37131 0.86189 0.86669 0.0
C512 C 0.374 0.86525 0.93053 0.0
C513 C 0.39631 0.82737 0.97749 0.0
H514 H 0.43223 0.88914 0.03345 0.0
C515 C 0.45827 0.84038 0.10216 0.0
C516 C 0.45924 0.85754 0.12802 0.0
C517 C 0.44373 0.83598 0.07156 0.0
C518 C 0.42186 0.87157 0.01857 0.0
H519 H 0.38735 0.84033 0.84342 0.0
H520 H 0.40155 0.83186 0.8999 0.0
H521 H 0.41475 0.89059 0.97676 0.0
H522 H 0.44362 0.88117 0.14427 0.0
H523 H 0.41753 0.87278 0.09172 0.0
H524 H 0.40373 0.80846 0.01978 0.0
C525 C 0.3913 0.84222 0.89985 0.0
C526 C 0.41197 0.87245 0.98593 0.0
C527 C 0.3833 0.84717 0.8676 0.0
C528 C 0.44356 0.86823 0.12444 0.0
C529 C 0.42876 0.86352 0.09424 0.0
C530 C 0.40624 0.82646 0.01053 0.0
C531 C 0.38734 0.85191 0.93148 0.0
C532 C 0.39877 0.85037 0.96523 0.0
C533 C 0.42974 0.84847 0.06663 0.0
C534 C 0.4188 0.84855 0.03163 0.0
H535 H 0.35649 0.88117 0.89896 0.0
H536 H 0.3702 0.87247 0.95456 0.0
H537 H 0.38624 0.81008 0.96195 0.0
H538 H 0.47017 0.83183 0.1043 0.0
H539 H 0.44485 0.82424 0.05086 0.0
C540 C 0.50956 0.35449 0.23121 0.0
C541 C 0.50804 0.37085 0.20635 0.0
C542 C 0.52585 0.36443 0.26024 0.0
C543 C 0.5478 0.41796 0.31796 0.0
H544 H 0.59476 0.39895 0.3578 0.0
C545 C 0.58348 0.44544 0.45876 0.0
C546 C 0.60977 0.46266 0.45989 0.0
C547 C 0.57247 0.43032 0.42887 0.0
C548 C 0.58157 0.40423 0.34691 0.0
H549 H 0.52373 0.41035 0.19103 0.0
H550 H 0.5518 0.42769 0.2422 0.0
H551 H 0.57485 0.38162 0.30001 0.0
H552 H 0.64545 0.47564 0.43235 0.0
H553 H 0.6261 0.44878 0.38033 0.0
H554 H 0.55391 0.44005 0.36477 0.0
C555 C 0.54039 0.4072 0.23908 0.0
C556 C 0.57029 0.39443 0.31401 0.0
C557 C 0.52437 0.39727 0.20981 0.0
C558 C 0.62509 0.46272 0.43203 0.0
C559 C 0.61409 0.44728 0.40236 0.0
C560 C 0.55857 0.42724 0.35096 0.0
C561 C 0.54064 0.39089 0.26509 0.0
C562 C 0.55349 0.40145 0.29919 0.0
C563 C 0.58759 0.43183 0.39995 0.0
C564 C 0.57554 0.42052 0.36573 0.0
H565 H 0.49736 0.33402 0.22906 0.0
H566 H 0.52568 0.35149 0.28001 0.0
H567 H 0.53465 0.42338 0.30731 0.0
H568 H 0.5712 0.44489 0.47984 0.0
H569 H 0.55197 0.4184 0.42757 0.0
C570 C 0.13413 0.59824 0.77851 0.0
C571 C 0.12831 0.61776 0.77345 0.0
C572 C 0.13851 0.58656 0.74945 0.0
C573 C 0.11272 0.56378 0.66717 0.0
H574 H 0.17397 0.56798 0.62915 0.0
C575 C 0.11047 0.52107 0.53235 0.0
C576 C 0.1214 0.50545 0.52982 0.0
C577 C 0.11539 0.53701 0.56149 0.0
C578 C 0.1567 0.56646 0.63969 0.0
H579 H 0.12431 0.64143 0.73398 0.0
H580 H 0.13127 0.62059 0.68375 0.0
H581 H 0.17626 0.59154 0.6834 0.0
H582 H 0.14764 0.49584 0.5547 0.0
H583 H 0.15616 0.52372 0.60579 0.0
H584 H 0.09292 0.53872 0.62429 0.0
C585 C 0.13264 0.61455 0.71012 0.0
C586 C 0.15805 0.57989 0.67062 0.0
C587 C 0.12858 0.62638 0.73897 0.0
C588 C 0.13877 0.5075 0.55595 0.0
C589 C 0.14371 0.52353 0.58521 0.0
C590 C 0.11133 0.55034 0.63658 0.0
C591 C 0.13698 0.59416 0.71506 0.0
C592 C 0.13605 0.5788 0.68424 0.0
C593 C 0.13134 0.53776 0.58888 0.0
C594 C 0.13332 0.5518 0.62209 0.0
H595 H 0.13421 0.59127 0.80472 0.0
H596 H 0.14169 0.57071 0.75371 0.0
H597 H 0.09551 0.56259 0.67746 0.0
H598 H 0.09724 0.52024 0.51255 0.0
H599 H 0.10606 0.54823 0.56308 0.0
C600 C 0.34852 0.97749 0.87069 0.0
C601 C 0.33791 0.95128 0.86396 0.0
C602 C 0.34958 0.98639 0.90511 0.0
C603 C 0.35821 0.96901 0.99255 0.0
H604 H 0.34928 0.0248 0.02474 0.0
C605 C 0.38911 0.00949 0.13196 0.0
C606 C 0.40266 0.03617 0.13496 0.0
C607 C 0.37562 -0.00228 0.10119 0.0
C608 C 0.352 0.00929 0.01609 0.0
H609 H 0.31831 0.91371 0.88775 0.0
H610 H 0.32056 0.92932 0.94771 0.0
H611 H 0.33467 0.00675 0.96574 0.0
H612 H 0.41163 0.07143 0.1086 0.0
H613 H 0.38869 0.05096 0.05465 0.0
H614 H 0.37674 0.97222 0.04159 0.0
C615 C 0.32802 0.94296 0.92637 0.0
C616 C 0.34352 -0.0011 0.98241 0.0
C617 C 0.32659 0.93404 0.89194 0.0
C618 C 0.40149 0.0508 0.1071 0.0
C619 C 0.38814 0.03903 0.0762 0.0
C620 C 0.36693 0.97952 0.02591 0.0
C621 C 0.34038 0.96925 0.93344 0.0
C622 C 0.34675 0.97879 0.97023 0.0
C623 C 0.37553 0.01235 0.07252 0.0
C624 C 0.36419 -3e-05 0.03806 0.0
H625 H 0.35732 -0.00878 0.84967 0.0
H626 H 0.35926 0.00677 0.90981 0.0
H627 H 0.36147 0.95388 0.9836 0.0
H628 H 0.38937 -0.00235 0.15309 0.0
H629 H 0.36566 0.97711 0.09963 0.0
C630 C 0.41067 0.34294 0.23971 0.0
C631 C 0.40572 0.35132 0.20788 0.0
C632 C 0.39711 0.34176 0.27018 0.0
C633 C 0.36492 0.37438 0.3066 0.0
H634 H 0.35436 0.33105 0.38717 0.0
C635 C 0.34243 0.40074 0.44122 0.0
C636 C 0.35873 0.40161 0.46822 0.0
C637 C 0.34008 0.38758 0.40984 0.0
C638 C 0.35712 0.34325 0.36485 0.0
H639 H 0.38214 0.36371 0.18198 0.0
H640 H 0.3576 0.36062 0.23469 0.0
H641 H 0.36461 0.31995 0.32981 0.0
H642 H 0.38363 0.38753 0.48455 0.0
H643 H 0.37983 0.3649 0.42965 0.0
H644 H 0.35842 0.39818 0.34161 0.0
C645 C 0.37223 0.35545 0.23657 0.0
C646 C 0.36303 0.33693 0.33199 0.0
C647 C 0.38603 0.35695 0.20629 0.0
C648 C 0.37108 0.38742 0.46419 0.0
C649 C 0.36875 0.37427 0.43274 0.0
C650 C 0.35895 0.38063 0.3393 0.0
C651 C 0.37834 0.34892 0.26926 0.0
C652 C 0.36778 0.35286 0.30268 0.0
C653 C 0.35398 0.375 0.4047 0.0
C654 C 0.35576 0.3656 0.36909 0.0
H655 H 0.4262 0.33905 0.24158 0.0
H656 H 0.40262 0.33698 0.29485 0.0
H657 H 0.36881 0.38739 0.28492 0.0
H658 H 0.33228 0.41113 0.44367 0.0
H659 H 0.32814 0.3881 0.38904 0.0
C660 C 0.05412 0.41627 0.58383 0.0
C661 C 0.04189 0.40797 0.55117 0.0
C662 C 0.04193 0.4037 0.61464 0.0
C663 C -0.01349 0.34932 0.65607 0.0
H664 H -0.00996 0.40298 0.71616 0.0
C665 C 0.92113 0.33877 0.7771 0.0
C666 C 0.93401 0.35403 0.80657 0.0
C667 C 0.93446 0.33997 0.74633 0.0
C668 C -0.01091 0.38777 0.69994 0.0
H669 H 0.00845 0.37879 0.52432 0.0
H670 H -0.01346 0.35689 0.57887 0.0
H671 H 0.01344 0.41398 0.6612 0.0
H672 H 0.97119 0.38097 0.82768 0.0
H673 H -0.00576 0.38323 0.77407 0.0
H674 H 0.96147 0.32311 0.69529 0.0
C675 C 0.00573 0.37294 0.58049 0.0
C676 C 0.00253 0.39405 0.66846 0.0
C677 C 0.01821 0.38543 0.54935 0.0
C678 C 0.96062 0.36915 0.80544 0.0
C679 C 0.97385 0.37047 0.77471 0.0
C680 C 0.97284 0.34296 0.68791 0.0
C681 C 0.01699 0.38291 0.61349 0.0
C682 C 0.00182 0.37503 0.64643 0.0
C683 C 0.96083 0.35659 0.74449 0.0
C684 C 0.97442 0.36226 0.71034 0.0
H685 H 0.0725 0.43352 0.58576 0.0
H686 H 0.05129 0.41144 0.63966 0.0
H687 H -0.01452 0.33428 0.63939 0.0
H688 H 0.90063 0.32673 0.77725 0.0
H689 H 0.92398 0.3291 0.72338 0.0
C690 C 0.56264 0.91895 0.06441 0.0
C691 C 0.56598 0.93065 0.0976 0.0
C692 C 0.57538 0.93337 0.03481 0.0
C693 C 0.62748 -0.00312 0.00545 0.0
H694 H 0.58369 0.98327 0.9243 0.0
C695 C 0.64066 0.07092 0.90014 0.0
C696 C 0.63234 0.06236 0.86572 0.0
C697 C 0.63898 0.05379 0.92604 0.0
C698 C 0.59644 0.98703 0.94634 0.0
H699 H 0.58642 0.96648 0.12599 0.0
H700 H 0.60852 -0.00831 0.07433 0.0
H701 H 0.5681 0.95497 0.97466 0.0
H702 H 0.61707 0.02992 0.83045 0.0
H703 H 0.61437 -0.00013 0.87554 0.0
H704 H 0.65542 0.02971 0.97738 0.0
C705 C 0.59616 0.97132 0.07119 0.0
C706 C 0.58746 0.97077 0.97533 0.0
C707 C 0.58337 0.95688 0.10082 0.0
C708 C 0.62398 0.03692 0.8568 0.0
C709 C 0.62218 0.01974 0.88268 0.0
C710 C 0.63646 0.01325 0.97639 0.0
C711 C 0.59183 0.95985 0.03766 0.0
C712 C 0.60267 0.97572 0.00553 0.0
C713 C 0.62855 0.02775 0.91793 0.0
C714 C 0.62085 0.00873 0.94675 0.0
H715 H 0.54949 0.89875 0.06096 0.0
H716 H 0.5719 0.92385 0.00951 0.0
H717 H 0.63981 0.00104 0.0281 0.0
H718 H 0.64667 0.09042 0.90759 0.0
H719 H 0.64386 0.06056 0.95294 0.0
C720 C 0.61353 0.58503 0.47446 0.0
C721 C 0.62593 0.57076 0.47619 0.0
C722 C 0.61181 0.59551 0.44263 0.0
C723 C 0.63204 0.60797 0.34894 0.0
H724 H 0.56034 0.58337 0.33309 0.0
C725 C 0.58482 0.62141 0.22053 0.0
C726 C 0.56383 0.5985 0.20847 0.0
C727 C 0.59672 0.62213 0.25259 0.0
C728 C 0.58045 0.59051 0.33717 0.0
H729 H 0.64847 0.55845 0.4467 0.0
H730 H 0.64522 0.57663 0.39072 0.0
H731 H 0.57485 0.57973 0.39128 0.0
H732 H 0.53984 0.55822 0.21972 0.0
H733 H 0.56036 0.55962 0.27534 0.0
H734 H 0.63721 0.61818 0.29401 0.0
C735 C 0.6369 0.57975 0.4141 0.0
C736 C 0.58884 0.58866 0.37059 0.0
C737 C 0.63872 0.56929 0.44616 0.0
C738 C 0.55578 0.57623 0.22828 0.0
C739 C 0.56748 0.57701 0.26022 0.0
C740 C 0.62361 0.61014 0.31533 0.0
C741 C 0.62232 0.59185 0.41171 0.0
C742 C 0.61463 0.59691 0.37682 0.0
C743 C 0.58764 0.60003 0.27312 0.0
C744 C 0.59761 0.60079 0.30904 0.0
H745 H 0.60381 0.58684 0.49727 0.0
H746 H 0.60092 0.6052 0.44178 0.0
H747 H 0.65204 0.61457 0.35302 0.0
H748 H 0.59147 0.63892 0.20588 0.0
H749 H 0.61222 0.64012 0.26204 0.0
C750 C 0.05043 0.64265 0.77494 0.0
C751 C 0.0371 0.63124 0.80609 0.0
C752 C 0.03727 0.6415 0.7441 0.0
C753 C 0.97435 0.59939 0.70502 0.0
H754 H 0.00063 0.64708 0.62732 0.0
C755 C 0.92244 0.57474 0.57246 0.0
C756 C 0.93779 0.57751 0.54315 0.0
C757 C 0.9334 0.58616 0.60467 0.0
C758 C -0.00692 0.63362 0.64885 0.0
H759 H -0.00017 0.6121 0.83035 0.0
H760 H 0.97697 0.61091 0.77706 0.0
H761 H 0.02183 0.65932 0.68479 0.0
H762 H 0.97665 0.59576 0.52418 0.0
H763 H -0.0042 0.61556 0.58063 0.0
H764 H 0.94598 0.57353 0.66916 0.0
C765 C -0.00251 0.61988 0.77596 0.0
C766 C 0.00521 0.64059 0.68173 0.0
C767 C 0.0106 0.62073 0.80661 0.0
C768 C 0.96429 0.59315 0.54628 0.0
C769 C 0.97527 0.60464 0.57856 0.0
C770 C 0.96217 0.59253 0.67237 0.0
C771 C 0.01053 0.62917 0.74393 0.0
C772 C -0.00377 0.62337 0.71008 0.0
C773 C 0.95995 0.60065 0.60834 0.0
C774 C 0.97161 0.60937 0.64374 0.0
H775 H 0.07088 0.65092 0.77369 0.0
H776 H 0.04798 0.64878 0.71997 0.0
H777 H 0.96717 0.58535 0.72585 0.0
H778 H 0.90193 0.56304 0.5709 0.0
H779 H 0.92109 0.58306 0.62701 0.0
C780 C 0.44002 0.0373 0.3182 0.0
C781 C 0.45867 0.05243 0.29341 0.0
C782 C 0.44545 0.02495 0.34482 0.0
C783 C 0.45518 0.9816 0.35472 0.0
H784 H 0.52242 -7e-05 0.38763 0.0
C785 C 0.53719 0.96354 0.30657 0.0
C786 C 0.52123 0.9417 0.28708 0.0
C787 C 0.52711 0.97186 0.33308 0.0
C788 C 0.50357 -0.00566 0.37806 0.0
H789 H 0.49826 0.06858 0.27899 0.0
H790 H 0.50759 0.04626 0.32455 0.0
H791 H 0.50923 0.03174 0.38767 0.0
H792 H 0.48337 0.90921 0.28248 0.0
H793 H 0.46606 0.92198 0.33076 0.0
H794 H 0.45 0.9457 0.34075 0.0
C795 C 0.48887 0.0443 0.32403 0.0
C796 C 0.49586 0.01254 0.37896 0.0
C797 C 0.48343 0.05668 0.29741 0.0
C798 C 0.49573 0.92668 0.29667 0.0
C799 C 0.48583 0.93433 0.32422 0.0
C800 C 0.46314 0.96375 0.35277 0.0
C801 C 0.46954 0.02718 0.34674 0.0
C802 C 0.47258 0.00696 0.36376 0.0
C803 C 0.50085 0.95808 0.34119 0.0
C804 C 0.48862 0.97094 0.36026 0.0
H805 H 0.42075 0.03367 0.31567 0.0
H806 H 0.43022 0.01191 0.36194 0.0
H807 H 0.43672 0.97639 0.34379 0.0
H808 H 0.55709 0.97512 0.29968 0.0
H809 H 0.53986 0.99014 0.34491 0.0
C810 C 0.42262 0.50505 0.62422 0.0
C811 C 0.41072 0.47861 0.61959 0.0
C812 C 0.44143 0.5171 0.64995 0.0
C813 C 0.48255 0.50259 0.71029 0.0
H814 H 0.5345 0.55858 0.65645 0.0
C815 C 0.56049 0.50187 0.63624 0.0
C816 C 0.5836 0.52429 0.63022 0.0
C817 C 0.54294 0.50191 0.65992 0.0
C818 C 0.52042 0.54344 0.67276 0.0
H819 H 0.40662 0.44356 0.64009 0.0
H820 H 0.44084 0.46421 0.68217 0.0
H821 H 0.49142 0.54933 0.65242 0.0
H822 H 0.6075 0.56371 0.64614 0.0
H823 H 0.57621 0.56412 0.68617 0.0
H824 H 0.51188 0.49479 0.72612 0.0
C825 C 0.4356 0.47615 0.66752 0.0
C826 C 0.49531 0.53797 0.6705 0.0
C827 C 0.41612 0.46411 0.64283 0.0
C828 C 0.58978 0.54617 0.65033 0.0
C829 C 0.57199 0.5464 0.67341 0.0
C830 C 0.50763 0.50756 0.71156 0.0
C831 C 0.44967 0.50302 0.67004 0.0
C832 C 0.47564 0.51578 0.68622 0.0
C833 C 0.54799 0.52455 0.67723 0.0
C834 C 0.52623 0.52667 0.69028 0.0
H835 H 0.41782 0.51642 0.60737 0.0
H836 H 0.45059 0.53761 0.6523 0.0
H837 H 0.46827 0.48649 0.72496 0.0
H838 H 0.55546 0.48467 0.62138 0.0
H839 H 0.52444 0.48487 0.662 0.0
C840 C 0.89771 0.41308 0.96428 0.0
C841 C 0.91075 0.40005 0.95691 0.0
C842 C 0.90823 0.43386 0.98739 0.0
C843 C 0.97105 0.47814 0.03288 0.0
H844 H 0.96134 0.52704 0.97983 0.0
C845 C 0.04626 0.55893 0.95393 0.0
C846 C 0.04478 0.58095 0.9482 0.0
C847 C 0.02939 0.54034 0.97722 0.0
C848 C 0.96417 0.51389 0.99581 0.0
H849 H 0.9432 0.39615 0.97007 0.0
H850 H 0.96296 0.43361 0.0073 0.0
H851 H 0.92755 0.48387 0.98263 0.0
H852 H 0.02562 0.60163 0.96312 0.0
H853 H -0.00414 0.56894 0.00321 0.0
H854 H 0.0093 0.50844 0.0418 0.0
C855 C 0.94425 0.4278 0.997 0.0
C856 C 0.94452 0.48874 0.9976 0.0
C857 C 0.93315 0.4064 0.97511 0.0
C858 C 0.02715 0.58477 0.96728 0.0
C859 C 0.01023 0.56618 0.99033 0.0
C860 C -0.00896 0.50328 0.03019 0.0
C861 C 0.93271 0.44285 0.00172 0.0
C862 C 0.94847 0.46998 0.01341 0.0
C863 C 0.01057 0.54339 0.99454 0.0
C864 C -0.01176 0.52079 0.00938 0.0
H865 H 0.87983 0.40773 0.95129 0.0
H866 H 0.8979 0.44385 0.99191 0.0
H867 H 0.97434 0.46468 0.04728 0.0
H868 H 0.05984 0.55573 0.9396 0.0
H869 H 0.0298 0.52274 0.97952 0.0
C870 C 0.05801 0.48543 0.35588 0.0
C871 C 0.04048 0.46113 0.36838 0.0
C872 C 0.05006 0.49823 0.33329 0.0
C873 C -0.0086 0.49131 0.28942 0.0
H874 H 0.0094 0.55171 0.34512 0.0
C875 C 0.92552 0.50195 0.37717 0.0
C876 C 0.92804 0.52565 0.38517 0.0
C877 C 0.94066 0.50005 0.35105 0.0
C878 C 0.00448 0.53546 0.32814 0.0
H879 H 0.00172 0.43007 0.36569 0.0
H880 H -0.01265 0.45241 0.32739 0.0
H881 H 0.03882 0.53611 0.34109 0.0
H882 H 0.94719 0.56571 0.37152 0.0
H883 H 0.97464 0.56256 0.32693 0.0
H884 H 0.95542 0.48892 0.28089 0.0
C885 C 0.00737 0.4617 0.33396 0.0
C886 C 0.02148 0.52642 0.32575 0.0
C887 C 0.01537 0.44897 0.35646 0.0
C888 C 0.94499 0.5472 0.36566 0.0
C889 C 0.96052 0.54542 0.34003 0.0
C890 C 0.9742 0.50013 0.29233 0.0
C891 C 0.02436 0.48693 0.32329 0.0
C892 C 0.01384 0.50269 0.30967 0.0
C893 C 0.95896 0.52193 0.33319 0.0
C894 C 0.97973 0.52077 0.31471 0.0
H895 H 0.07759 0.49494 0.36482 0.0
H896 H 0.06365 0.51751 0.32543 0.0
H897 H -0.01446 0.47361 0.27541 0.0
H898 H 0.91241 0.48508 0.39172 0.0
H899 H 0.93941 0.48176 0.34682 0.0
C900 C 0.41598 0.9264 0.72503 0.0
C901 C 0.3966 0.93016 0.71196 0.0
C902 C 0.43678 0.93164 0.70413 0.0
C903 C 0.47277 0.9792 0.63893 0.0
H904 H 0.52109 0.96238 0.67896 0.0
C905 C 0.5545 0.05155 0.71616 0.0
C906 C 0.57631 0.04994 0.72239 0.0
C907 C 0.53536 0.03373 0.69429 0.0
C908 C 0.50821 0.96738 0.66637 0.0
H909 H 0.3822 0.93992 0.66599 0.0
H910 H 0.41897 0.94949 0.62907 0.0
H911 H 0.47728 0.92925 0.67114 0.0
H912 H 0.59544 0.02862 0.71161 0.0
H913 H 0.56183 -0.00279 0.67361 0.0
H914 H 0.50363 0.01739 0.63453 0.0
C915 C 0.41828 0.94274 0.65565 0.0
C916 C 0.4829 0.9483 0.66214 0.0
C917 C 0.39732 0.93742 0.67674 0.0
C918 C 0.57875 0.03028 0.70673 0.0
C919 C 0.55956 0.01235 0.68496 0.0
C920 C 0.49822 -0.00191 0.64198 0.0
C921 C 0.43887 0.9411 0.66967 0.0
C922 C 0.46447 0.95489 0.65318 0.0
C923 C 0.53758 0.01382 0.67847 0.0
C924 C 0.51539 -0.00706 0.65982 0.0
H925 H 0.41553 0.92023 0.75193 0.0
H926 H 0.45214 0.93029 0.71641 0.0
H927 H 0.45942 0.98494 0.6303 0.0
H928 H 0.55221 0.06649 0.72825 0.0
H929 H 0.51835 0.03503 0.69108 0.0
C930 C 0.48409 0.5657 0.02549 0.0
C931 C 0.50984 0.57426 0.03158 0.0
C932 C 0.47048 0.54627 0.00096 0.0
C933 C 0.47766 0.49665 0.94848 0.0
H934 H 0.41829 0.4529 0.00424 0.0
C935 C 0.46681 0.41977 0.03659 0.0
C936 C 0.44342 0.39747 0.0416 0.0
C937 C 0.46926 0.4372 0.01085 0.0
C938 C 0.43434 0.46468 0.98739 0.0
H939 H 0.54242 0.57156 0.01521 0.0
H940 H 0.5188 0.53642 0.97512 0.0
H941 H 0.43313 0.4977 0.00226 0.0
H942 H 0.40473 0.37487 0.02248 0.0
H943 H 0.40858 0.40644 0.97891 0.0
H944 H 0.48066 0.46338 0.9386 0.0
C945 C 0.50869 0.5448 0.98754 0.0
C946 C 0.44307 0.49074 0.98616 0.0
C947 C 0.52239 0.56482 0.01107 0.0
C948 C 0.42293 0.3921 0.01913 0.0
C949 C 0.42515 0.40993 0.99403 0.0
C950 C 0.46941 0.47064 0.95078 0.0
C951 C 0.48212 0.53408 0.98374 0.0
C952 C 0.46649 0.50744 0.96993 0.0
C953 C 0.44817 0.43293 0.99039 0.0
C954 C 0.44903 0.45503 0.97292 0.0
H955 H 0.47431 0.5734 0.04058 0.0
H956 H 0.45044 0.53964 0.99757 0.0
H957 H 0.49469 0.50859 0.93347 0.0
H958 H 0.48297 0.42409 0.05324 0.0
H959 H 0.4871 0.45502 0.00898 0.0
C960 C 0.30614 0.94962 0.63356 0.0
C961 C 0.30414 0.92567 0.62919 0.0
C962 C 0.30751 0.96402 0.60412 0.0
C963 C 0.3019 0.96478 0.50706 0.0
H964 H 0.36614 0.02812 0.51473 0.0
C965 C 0.36114 0.02403 0.38728 0.0
C966 C 0.37538 0.05068 0.39111 0.0
C967 C 0.34701 0.00871 0.41556 0.0
C968 C 0.34787 0.01083 0.51224 0.0
H969 H 0.29856 0.89656 0.59101 0.0
H970 H 0.30078 0.92168 0.53967 0.0
H971 H 0.34878 0.001 0.56598 0.0
H972 H 0.38463 0.0822 0.42686 0.0
H973 H 0.35984 0.0556 0.47577 0.0
H974 H 0.3014 0.97452 0.45286 0.0
C975 C 0.30164 0.92947 0.56571 0.0
C976 C 0.33791 -0.00472 0.54169 0.0
C977 C 0.30053 0.91516 0.59512 0.0
C978 C 0.37405 0.06173 0.42307 0.0
C979 C 0.35995 0.04646 0.45123 0.0
C980 C 0.31181 0.98052 0.47749 0.0
C981 C 0.30657 0.95456 0.56993 0.0
C982 C 0.31497 0.97202 0.53938 0.0
C983 C 0.34686 0.01975 0.44817 0.0
C984 C 0.33505 0.00363 0.47972 0.0
H985 H 0.30873 0.95813 0.65949 0.0
H986 H 0.31095 0.98321 0.60803 0.0
H987 H 0.28422 0.94686 0.5046 0.0
H988 H 0.36172 0.01493 0.36295 0.0
H989 H 0.33725 0.98819 0.41236 0.0
C990 C 0.34521 0.31719 0.95963 0.0
C991 C 0.36738 0.31538 0.95923 0.0
C992 C 0.33475 0.31954 0.92796 0.0
C993 C 0.35923 0.34817 0.8433 0.0
H994 H 0.28905 0.32006 0.81384 0.0
C995 C 0.33696 0.37672 0.71212 0.0
C996 C 0.32021 0.38633 0.71367 0.0
C997 C 0.33842 0.36264 0.73997 0.0
C998 C 0.30869 0.32805 0.82192 0.0
H999 H 0.39412 0.31143 0.92553 0.0
H1000 H 0.37589 0.31549 0.87069 0.0
H1001 H 0.29893 0.30392 0.86746 0.0
H1002 H 0.29028 0.38684 0.74428 0.0
H1003 H 0.29299 0.36218 0.79327 0.0
H1004 H 0.36918 0.37267 0.79878 0.0
C1005 C 0.36692 0.31567 0.8953 0.0
C1006 C 0.31431 0.31884 0.85244 0.0
C1007 C 0.37733 0.31334 0.92673 0.0
C1008 C 0.30353 0.37986 0.74246 0.0
C1009 C 0.30498 0.36566 0.77043 0.0
C1010 C 0.35366 0.35732 0.81308 0.0
C1011 C 0.34635 0.32006 0.89568 0.0
C1012 C 0.33968 0.32876 0.86317 0.0
C1013 C 0.32316 0.35781 0.76996 0.0
C1014 C 0.3284 0.34728 0.8019 0.0
H1015 H 0.33705 0.31862 0.98432 0.0
H1016 H 0.3188 0.32283 0.92888 0.0
H1017 H 0.37891 0.3567 0.85154 0.0
H1018 H 0.34985 0.38108 0.69013 0.0
H1019 H 0.35229 0.3564 0.73869 0.0
C1020 C 0.93688 0.31464 0.03342 0.0
C1021 C 0.91266 0.30783 0.04636 0.0
C1022 C 0.95553 0.31581 0.05607 0.0
C1023 C -0.00729 0.34493 0.11336 0.0
H1024 H 0.98118 0.31192 0.20429 0.0
C1025 C 0.02195 0.39933 0.24053 0.0
C1026 C 0.03681 0.39507 0.26483 0.0
C1027 C 0.01156 0.38345 0.21138 0.0
C1028 C -0.01501 0.321 0.17872 0.0
H1029 H 0.888 0.29417 0.09203 0.0
H1030 H 0.92071 0.29729 0.13186 0.0
H1031 H 0.95292 0.28895 0.15473 0.0
H1032 H 0.05201 0.37046 0.27809 0.0
H1033 H 0.03301 0.34206 0.22693 0.0
H1034 H 0.02355 0.37754 0.138 0.0
C1035 C 0.92537 0.30126 0.1042 0.0
C1036 C 0.96877 0.30798 0.15046 0.0
C1037 C 0.9066 0.2997 0.0814 0.0
C1038 C 0.0406 0.37417 0.25977 0.0
C1039 C 0.02985 0.358 0.23061 0.0
C1040 C 0.00877 0.35786 0.14151 0.0
C1041 C 0.95042 0.31071 0.09219 0.0
C1042 C 0.97159 0.3204 0.11808 0.0
C1043 C 0.0156 0.36284 0.20601 0.0
C1044 C 0.00412 0.34652 0.17482 0.0
H1045 H 0.94185 0.32045 0.00625 0.0
H1046 H 0.97448 0.32255 0.04583 0.0
H1047 H -0.00452 0.35524 0.089 0.0
H1048 H 0.01858 0.41517 0.24368 0.0
H1049 H 0.00021 0.38723 0.19298 0.0
C1050 C 0.61063 0.01 0.61503 0.0
C1051 C 0.62919 0.03578 0.61781 0.0
C1052 C 0.61256 -0.00534 0.58917 0.0
C1053 C 0.65382 -0.00494 0.51447 0.0
H1054 H 0.58791 0.94941 0.47313 0.0
C1055 C 0.62533 0.96836 0.3677 0.0
C1056 C 0.60755 0.94263 0.36084 0.0
C1057 C 0.63468 0.97625 0.40188 0.0
C1058 C 0.60645 0.96172 0.48472 0.0
H1059 H 0.66485 0.06577 0.59724 0.0
H1060 H 0.66747 0.03967 0.55029 0.0
H1061 H 0.59014 0.96947 0.52911 0.0
H1062 H 0.58841 0.90456 0.38327 0.0
H1063 H 0.60416 0.91859 0.44285 0.0
H1064 H 0.66974 0.98873 0.46745 0.0
C1065 C 0.6519 0.03071 0.56878 0.0
C1066 C 0.60782 0.97318 0.5171 0.0
C1067 C 0.65038 0.04581 0.59554 0.0
C1068 C 0.60172 0.92461 0.38776 0.0
C1069 C 0.6108 0.93255 0.42189 0.0
C1070 C 0.65239 0.98402 0.48143 0.0
C1071 C 0.63254 0.0051 0.56449 0.0
C1072 C 0.63151 0.99039 0.53228 0.0
C1073 C 0.62626 0.95854 0.42951 0.0
C1074 C 0.62865 0.96753 0.46621 0.0
H1075 H 0.59429 0.00186 0.63233 0.0
H1076 H 0.59777 0.97484 0.58775 0.0
H1077 H 0.67241 0.00776 0.52552 0.0
H1078 H 0.63042 0.98266 0.34746 0.0
H1079 H 0.64655 -0.00356 0.4073 0.0
C1080 C 0.5717 0.61371 0.90334 0.0
C1081 C 0.57809 0.63303 0.92848 0.0
C1082 C 0.58855 0.61694 0.87634 0.0
C1083 C 0.63912 0.6626 0.82167 0.0
H1084 H 0.65173 0.60657 0.80662 0.0
C1085 C 0.68286 0.61584 0.71824 0.0
C1086 C 0.66869 0.61494 0.6885 0.0
C1087 C 0.68165 0.62773 0.74909 0.0
C1088 C 0.64903 0.62275 0.81078 0.0
H1089 H 0.60679 0.67121 0.94456 0.0
H1090 H 0.63626 0.67691 0.89664 0.0
H1091 H 0.62871 0.60696 0.85863 0.0
H1092 H 0.64481 0.62837 0.66597 0.0
H1093 H 0.6421 0.64862 0.72019 0.0
H1094 H 0.65836 0.67766 0.77259 0.0
C1095 C 0.61825 0.65926 0.89826 0.0
C1096 C 0.63557 0.62277 0.8404 0.0
C1097 C 0.60147 0.65592 0.92565 0.0
C1098 C 0.65588 0.6288 0.68861 0.0
C1099 C 0.6544 0.64046 0.71969 0.0
C1100 C 0.65246 0.66247 0.79165 0.0
C1101 C 0.61201 0.63962 0.87374 0.0
C1102 C 0.6298 0.64221 0.8455 0.0
C1103 C 0.66589 0.6385 0.75081 0.0
C1104 C 0.65691 0.64214 0.78546 0.0
H1105 H 0.55379 0.59593 0.90471 0.0
H1106 H 0.58321 0.60167 0.85737 0.0
H1107 H 0.63485 0.6778 0.82521 0.0
H1108 H 0.6932 0.60557 0.71855 0.0
H1109 H 0.69116 0.62645 0.77248 0.0
C1110 C 0.01902 0.61693 0.06958 0.0
C1111 C 0.03816 0.63802 0.0517 0.0
C1112 C 0.00448 0.62028 0.09504 0.0
C1113 C 0.96897 0.6378 0.13001 0.0
H1114 H 0.00023 0.64801 0.22224 0.0
C1115 C 0.93995 0.60902 0.28533 0.0
C1116 C 0.92463 0.58283 0.27836 0.0
C1117 C 0.95232 0.62602 0.25762 0.0
C1118 C -0.00866 0.6461 0.1968 0.0
H1119 H 0.05702 0.67909 0.0458 0.0
H1120 H 0.03183 0.68499 0.09191 0.0
H1121 H 0.02675 0.66037 0.16947 0.0
H1122 H 0.90878 0.55397 0.23738 0.0
H1123 H 0.92994 0.58335 0.1894 0.0
H1124 H 0.93334 0.62137 0.15701 0.0
C1125 C 0.02796 0.66595 0.08542 0.0
C1126 C 0.00652 0.65316 0.16665 0.0
C1127 C 0.04225 0.66254 0.05923 0.0
C1128 C 0.92072 0.57405 0.24345 0.0
C1129 C 0.93255 0.59096 0.21593 0.0
C1130 C 0.95381 0.63095 0.1601 0.0
C1131 C 0.00909 0.64478 0.10345 0.0
C1132 C -0.0048 0.64751 0.13317 0.0
C1133 C 0.94888 0.61702 0.22271 0.0
C1134 C 0.96473 0.63331 0.19355 0.0
H1135 H 0.0154 0.59783 0.0641 0.0
H1136 H -0.00991 0.60376 0.10902 0.0
H1137 H 0.95995 0.63321 0.10431 0.0
H1138 H 0.94318 0.61615 0.31216 0.0
H1139 H 0.96502 0.646 0.26347 0.0
C1140 C 0.49424 0.09955 0.39055 0.0
C1141 C 0.49288 0.12021 0.37634 0.0
C1142 C 0.51079 0.10323 0.41825 0.0
C1143 C 0.54456 0.14702 0.49185 0.0
H1144 H 0.57501 0.1043 0.50037 0.0
C1145 C 0.60906 0.14938 0.60851 0.0
C1146 C 0.6023 0.1252 0.62197 0.0
C1147 C 0.59708 0.15162 0.57831 0.0
C1148 C 0.56658 0.11633 0.49834 0.0
H1149 H 0.50861 0.16115 0.37921 0.0
H1150 H 0.53792 0.16765 0.4276 0.0
H1151 H 0.55389 0.10397 0.44566 0.0
H1152 H 0.57666 0.0845 0.61543 0.0
H1153 H 0.55611 0.08849 0.56275 0.0
H1154 H 0.55749 0.15933 0.54483 0.0
C1155 C 0.52579 0.14853 0.41756 0.0
C1156 C 0.55445 0.11612 0.46705 0.0
C1157 C 0.50913 0.14482 0.38971 0.0
C1158 C 0.58251 0.10342 0.60564 0.0
C1159 C 0.57082 0.10566 0.57535 0.0
C1160 C 0.557 0.14743 0.52313 0.0
C1161 C 0.52656 0.12769 0.43244 0.0
C1162 C 0.54261 0.13087 0.46377 0.0
C1163 C 0.5784 0.12971 0.56092 0.0
C1164 C 0.56746 0.13151 0.52693 0.0
H1165 H 0.48203 0.08033 0.38089 0.0
H1166 H 0.51053 0.08666 0.42933 0.0
H1167 H 0.53551 0.15849 0.49032 0.0
H1168 H 0.62415 0.16653 0.62059 0.0
H1169 H 0.60317 0.17038 0.56771 0.0
C1170 C 0.39325 0.51044 0.7242 0.0
C1171 C 0.36837 0.50371 0.71427 0.0
C1172 C 0.40473 0.52609 0.75344 0.0
C1173 C 0.40338 0.57298 0.81367 0.0
H1174 H 0.4366 0.54885 0.8774 0.0
C1175 C 0.47921 0.63516 0.91807 0.0
C1176 C 0.4804 0.62335 0.94929 0.0
C1177 C 0.461 0.62115 0.89224 0.0
C1178 C 0.42711 0.55571 0.86022 0.0
H1179 H 0.33651 0.50919 0.72633 0.0
H1180 H 0.35677 0.53675 0.77752 0.0
H1181 H 0.41481 0.52384 0.82542 0.0
H1182 H 0.46162 0.58844 0.97954 0.0
H1183 H 0.42998 0.564 0.9345 0.0
H1184 H 0.4162 0.60518 0.84846 0.0
C1185 C 0.36727 0.52978 0.7626 0.0
C1186 C 0.41491 0.54153 0.83015 0.0
C1187 C 0.35567 0.51394 0.73337 0.0
C1188 C 0.46162 0.59791 0.95544 0.0
C1189 C 0.44348 0.58391 0.92962 0.0
C1190 C 0.41586 0.58737 0.84373 0.0
C1191 C 0.39169 0.53549 0.77341 0.0
C1192 C 0.40327 0.55017 0.80625 0.0
C1193 C 0.44365 0.59509 0.89714 0.0
C1194 C 0.42809 0.57899 0.86713 0.0
H1195 H 0.40363 0.50301 0.71004 0.0
H1196 H 0.42376 0.53055 0.76077 0.0
H1197 H 0.39452 0.58006 0.79571 0.0
H1198 H 0.49326 0.6548 0.91262 0.0
H1199 H 0.46164 0.63033 0.86752 0.0
C1200 C 0.86588 0.39017 0.06271 0.0
C1201 C 0.84831 0.36405 0.05839 0.0
C1202 C 0.86349 0.40391 0.09064 0.0
C1203 C 0.83856 0.39539 0.18009 0.0
H1204 H 0.84851 0.46331 0.1683 0.0
C1205 C 0.86162 0.4674 0.29465 0.0
C1206 C 0.84938 0.48188 0.29423 0.0
C1207 C 0.85862 0.45113 0.26651 0.0
C1208 C 0.84548 0.44428 0.17196 0.0
H1209 H 0.81406 0.33206 0.07959 0.0
H1210 H 0.81008 0.35606 0.12864 0.0
H1211 H 0.8484 0.43906 0.1166 0.0
H1212 H 0.82356 0.4898 0.26462 0.0
H1213 H 0.81847 0.4615 0.21559 0.0
H1214 H 0.83612 0.40081 0.23554 0.0
C1215 C 0.82573 0.36582 0.11038 0.0
C1216 C 0.84562 0.4305 0.14242 0.0
C1217 C 0.82796 0.35212 0.0822 0.0
C1218 C 0.83333 0.47899 0.26575 0.0
C1219 C 0.83051 0.46291 0.23754 0.0
C1220 C 0.83874 0.40929 0.20969 0.0
C1221 C 0.84363 0.39178 0.11509 0.0
C1222 C 0.84227 0.40595 0.1462 0.0
C1223 C 0.84349 0.44917 0.23731 0.0
C1224 C 0.84228 0.43391 0.20593 0.0
H1225 H 0.88184 0.39991 0.04497 0.0
H1226 H 0.87769 0.42385 0.09377 0.0
H1227 H 0.83618 0.3766 0.18381 0.0
H1228 H 0.87419 0.46925 0.31613 0.0
H1229 H 0.86897 0.44088 0.26694 0.0
C1230 C 0.48009 0.8869 0.38745 0.0
C1231 C 0.48273 0.86676 0.37395 0.0
C1232 C 0.46378 0.88294 0.41557 0.0
C1233 C 0.43502 0.84184 0.49207 0.0
H1234 H 0.39596 0.87644 0.49629 0.0
C1235 C 0.37094 0.83654 0.61045 0.0
C1236 C 0.37388 0.86019 0.62079 0.0
C1237 C 0.38291 0.83462 0.58 0.0
C1238 C 0.40684 0.86672 0.4955 0.0
H1239 H 0.47009 0.8265 0.37914 0.0
H1240 H 0.44155 0.81959 0.42862 0.0
H1241 H 0.41768 0.87726 0.44186 0.0
H1242 H 0.39242 0.90044 0.60797 0.0
H1243 H 0.41327 0.89707 0.55538 0.0
H1244 H 0.42436 0.83167 0.54607 0.0
C1245 C 0.45219 0.83847 0.41734 0.0
C1246 C 0.41924 0.86718 0.46437 0.0
C1247 C 0.46846 0.84242 0.38897 0.0
C1248 C 0.38979 0.88196 0.60091 0.0
C1249 C 0.40153 0.88 0.5705 0.0
C1250 C 0.42249 0.84131 0.52327 0.0
C1251 C 0.44984 0.85875 0.43108 0.0
C1252 C 0.43402 0.85532 0.46259 0.0
C1253 C 0.39776 0.85626 0.5593 0.0
C1254 C 0.40886 0.85434 0.5255 0.0
H1255 H 0.49128 0.90598 0.37711 0.0
H1256 H 0.46279 0.89909 0.42598 0.0
H1257 H 0.44641 0.83268 0.49156 0.0
H1258 H 0.35883 0.81943 0.62528 0.0
H1259 H 0.37979 0.8161 0.57195 0.0
C1260 C 0.58821 0.48008 0.72805 0.0
C1261 C 0.60624 0.47552 0.71137 0.0
C1262 C 0.5751 0.46611 0.75763 0.0
C1263 C 0.55579 0.40779 0.80784 0.0
H1264 H 0.55677 0.44889 0.88714 0.0
C1265 C 0.51305 0.36234 0.94215 0.0
C1266 C 0.49816 0.37108 0.95878 0.0
C1267 C 0.52852 0.37556 0.91356 0.0
C1268 C 0.55608 0.43708 0.8652 0.0
H1269 H 0.62344 0.45164 0.71131 0.0
H1270 H 0.60029 0.42704 0.76317 0.0
H1271 H 0.57723 0.46949 0.83212 0.0
H1272 H 0.48874 0.40122 0.95954 0.0
H1273 H 0.51514 0.42387 0.90942 0.0
H1274 H 0.53401 0.37529 0.84051 0.0
C1275 C 0.59652 0.44158 0.75332 0.0
C1276 C 0.56782 0.4489 0.83369 0.0
C1277 C 0.60978 0.45567 0.7237 0.0
C1278 C 0.49999 0.39396 0.94735 0.0
C1279 C 0.51526 0.40704 0.91862 0.0
C1280 C 0.54378 0.3959 0.8393 0.0
C1281 C 0.5796 0.44719 0.77109 0.0
C1282 C 0.56758 0.43437 0.80461 0.0
C1283 C 0.5293 0.39772 0.90088 0.0
C1284 C 0.54359 0.4104 0.86828 0.0
H1285 H 0.58469 0.49494 0.71885 0.0
H1286 H 0.56174 0.47043 0.7704 0.0
H1287 H 0.55525 0.39616 0.78574 0.0
H1288 H 0.51221 0.34487 0.95056 0.0
H1289 H 0.53952 0.36816 0.90102 0.0
C1290 C 0.13579 0.49886 0.24031 0.0
C1291 C 0.1204 0.49711 0.26901 0.0
C1292 C 0.14058 0.51628 0.21333 0.0
C1293 C 0.13701 0.57354 0.18911 0.0
H1294 H 0.12711 0.54537 0.09465 0.0
C1295 C 0.14437 0.63289 0.06661 0.0
C1296 C 0.12466 0.62045 0.04188 0.0
C1297 C 0.14781 0.61907 0.09332 0.0
C1298 C 0.12994 0.55353 0.12084 0.0
H1299 H 0.0991 0.51319 0.29293 0.0
H1300 H 0.10724 0.54343 0.24567 0.0
H1301 H 0.12587 0.51983 0.14477 0.0
H1302 H 0.09365 0.58366 0.02499 0.0
H1303 H 0.09941 0.55972 0.07168 0.0
H1304 H 0.13997 0.60684 0.16525 0.0
C1305 C 0.11572 0.53143 0.24407 0.0
C1306 C 0.12953 0.53901 0.14955 0.0
C1307 C 0.11091 0.51398 0.27105 0.0
C1308 C 0.10911 0.59382 0.04353 0.0
C1309 C 0.11247 0.58006 0.07026 0.0
C1310 C 0.13743 0.58809 0.16037 0.0
C1311 C 0.13012 0.53235 0.21453 0.0
C1312 C 0.13272 0.54872 0.18403 0.0
C1313 C 0.13158 0.59257 0.09582 0.0
C1314 C 0.13352 0.57809 0.12596 0.0
H1315 H 0.14354 0.48625 0.23808 0.0
H1316 H 0.15209 0.51683 0.19117 0.0
H1317 H 0.13973 0.58161 0.21536 0.0
H1318 H 0.15675 0.65338 0.0659 0.0
H1319 H 0.16294 0.62919 0.1123 0.0
loop_
_geom_bond_atom_site_label_1
_geom_bond_atom_site_label_2
_geom_bond_distance
_geom_bond_site_symmetry_2
_ccdc_geom_bond_type
Zn0 O6 1.969 . S
Zn0 O7 1.965 . S
Zn0 O11 2.024 . S
Zn0 O16 1.969 . S
Zn1 O8 1.969 . S
Zn1 O14 1.969 . S
Zn1 O15 1.965 . S
Zn1 O17 2.024 . S
C2 O3 1.229 . S
C2 O11 1.058 . S
O3 C2 1.229 . S
C4 O5 1.229 . S
C4 O17 1.058 . S
O5 C4 1.229 . S
O6 Zn0 1.969 . S
O6 C9 1.267 . S
O7 Zn0 1.965 . S
O7 C18 1.260 . S
O8 Zn1 1.969 . S
O8 C18 1.258 . S
C9 O6 1.267 . S
C9 O10 1.228 . S
O10 C9 1.228 . S
O11 Zn0 2.024 . S
O11 C2 1.058 . S
C12 O13 1.228 . S
C12 O14 1.267 . S
O13 C12 1.228 . S
O14 Zn1 1.969 . S
O14 C12 1.267 . S
O15 Zn1 1.965 . S
O15 C19 1.260 . S
O16 Zn0 1.969 . S
O16 C19 1.258 . S
O17 Zn1 2.024 . S
O17 C4 1.058 . S
C18 O7 1.260 . S
C18 O8 1.258 . S
C19 O15 1.260 . S
C19 O16 1.258 . S
Zn20 O26 1.969 . S
Zn20 O27 1.965 . S
Zn20 O31 2.024 . S
Zn20 O36 1.969 . S
Zn21 O28 1.969 . S
Zn21 O34 1.969 . S
Zn21 O35 1.965 . S
Zn21 O37 2.024 . S
C22 O23 1.229 . S
C22 O31 1.058 . S
O23 C22 1.229 . S
C24 O25 1.229 . S
C24 O37 1.058 . S
O25 C24 1.229 . S
O26 Zn20 1.969 . S
O26 C29 1.267 . S
O27 Zn20 1.965 . S
O27 C38 1.260 . S
O28 Zn21 1.969 . S
O28 C38 1.258 . S
C29 O26 1.267 . S
C29 O30 1.228 . S
O30 C29 1.228 . S
O31 Zn20 2.024 . S
O31 C22 1.058 . S
C32 O33 1.228 . S
C32 O34 1.267 . S
O33 C32 1.228 . S
O34 Zn21 1.969 . S
O34 C32 1.267 . S
O35 Zn21 1.965 . S
O35 C39 1.260 . S
O36 Zn20 1.969 . S
O36 C39 1.258 . S
O37 Zn21 2.024 . S
O37 C24 1.058 . S
C38 O27 1.260 . S
C38 O28 1.258 . S
C39 O35 1.260 . S
C39 O36 1.258 . S
Zn40 O46 1.969 . S
Zn40 O47 1.965 . S
Zn40 O51 2.024 . S
Zn40 O56 1.969 . S
Zn41 O48 1.969 . S
Zn41 O54 1.969 . S
Zn41 O55 1.965 . S
Zn41 O57 2.024 . S
C42 O43 1.229 . S
C42 O51 1.058 . S
O43 C42 1.229 . S
C44 O45 1.229 . S
C44 O57 1.058 1_554 S
O45 C44 1.229 . S
O46 Zn40 1.969 . S
O46 C49 1.267 . S
O47 Zn40 1.965 . S
O47 C58 1.260 . S
O48 Zn41 1.969 . S
O48 C58 1.258 . S
C49 O46 1.267 . S
C49 O50 1.228 . S
O50 C49 1.228 . S
O51 Zn40 2.024 . S
O51 C42 1.058 . S
C52 O53 1.228 . S
C52 O54 1.267 1_554 S
O53 C52 1.228 . S
O54 Zn41 1.969 . S
O54 C52 1.267 1_556 S
O55 Zn41 1.965 . S
O55 C59 1.260 . S
O56 Zn40 1.969 . S
O56 C59 1.258 . S
O57 Zn41 2.024 . S
O57 C44 1.058 1_556 S
C58 O47 1.260 . S
C58 O48 1.258 . S
C59 O55 1.260 . S
C59 O56 1.258 . S
Zn60 O66 1.969 . S
Zn60 O67 1.965 . S
Zn60 O71 2.024 . S
Zn60 O76 1.969 . S
Zn61 O68 1.969 . S
Zn61 O74 1.969 . S
Zn61 O75 1.965 . S
Zn61 O77 2.024 . S
C62 O63 1.229 . S
C62 O71 1.058 . S
O63 C62 1.229 . S
C64 O65 1.229 . S
C64 O77 1.058 . S
O65 C64 1.229 . S
O66 Zn60 1.969 . S
O66 C69 1.267 . S
O67 Zn60 1.965 . S
O67 C78 1.260 . S
O68 Zn61 1.969 . S
O68 C78 1.258 . S
C69 O66 1.267 . S
C69 O70 1.228 . S
O70 C69 1.228 . S
O71 Zn60 2.024 . S
O71 C62 1.058 . S
C72 O73 1.228 . S
C72 O74 1.267 . S
O73 C72 1.228 . S
O74 Zn61 1.969 . S
O74 C72 1.267 . S
O75 Zn61 1.965 . S
O75 C79 1.260 . S
O76 Zn60 1.969 . S
O76 C79 1.258 . S
O77 Zn61 2.024 . S
O77 C64 1.058 . S
C78 O67 1.260 . S
C78 O68 1.258 . S
C79 O75 1.260 . S
C79 O76 1.258 . S
Zn80 O86 1.969 . S
Zn80 O87 1.965 . S
Zn80 O91 2.024 . S
Zn80 O96 1.969 . S
Zn81 O88 1.969 . S
Zn81 O94 1.969 . S
Zn81 O95 1.965 . S
Zn81 O97 2.024 . S
C82 O83 1.229 . S
C82 O91 1.058 . S
O83 C82 1.229 . S
C84 O85 1.229 . S
C84 O97 1.058 . S
O85 C84 1.229 . S
O86 Zn80 1.969 . S
O86 C89 1.267 . S
O87 Zn80 1.965 . S
O87 C98 1.260 . S
O88 Zn81 1.969 . S
O88 C98 1.258 . S
C89 O86 1.267 . S
C89 O90 1.228 . S
O90 C89 1.228 . S
O91 Zn80 2.024 . S
O91 C82 1.058 . S
C92 O93 1.228 . S
C92 O94 1.267 . S
O93 C92 1.228 . S
O94 Zn81 1.969 . S
O94 C92 1.267 . S
O95 Zn81 1.965 . S
O95 C99 1.260 . S
O96 Zn80 1.969 . S
O96 C99 1.258 . S
O97 Zn81 2.024 . S
O97 C84 1.058 . S
C98 O87 1.260 . S
C98 O88 1.258 . S
C99 O95 1.260 . S
C99 O96 1.258 . S
Zn100 O106 1.969 . S
Zn100 O107 1.965 . S
Zn100 O111 2.024 . S
Zn100 O116 1.969 . S
Zn101 O108 1.969 . S
Zn101 O114 1.969 . S
Zn101 O115 1.965 . S
Zn101 O117 2.024 . S
C102 O103 1.229 . S
C102 O111 1.058 . S
O103 C102 1.229 . S
C104 O105 1.229 . S
C104 O117 1.058 1_554 S
O105 C104 1.229 . S
O106 Zn100 1.969 . S
O106 C109 1.267 . S
O107 Zn100 1.965 . S
O107 C118 1.260 . S
O108 Zn101 1.969 . S
O108 C118 1.258 . S
C109 O106 1.267 . S
C109 O110 1.228 . S
O110 C109 1.228 . S
O111 Zn100 2.024 . S
O111 C102 1.058 . S
C112 O113 1.228 . S
C112 O114 1.267 1_554 S
O113 C112 1.228 . S
O114 Zn101 1.969 . S
O114 C112 1.267 1_556 S
O115 Zn101 1.965 . S
O115 C119 1.260 . S
O116 Zn100 1.969 . S
O116 C119 1.258 . S
O117 Zn101 2.024 . S
O117 C104 1.058 1_556 S
C118 O107 1.260 . S
C118 O108 1.258 . S
C119 O115 1.260 . S
C119 O116 1.258 . S
Zn120 O126 1.969 . S
Zn120 O127 1.965 . S
Zn120 O131 2.024 . S
Zn120 O136 1.969 . S
Zn121 O128 1.969 . S
Zn121 O134 1.969 . S
Zn121 O135 1.965 . S
Zn121 O137 2.024 . S
C122 O123 1.229 . S
C122 O131 1.058 . S
O123 C122 1.229 . S
C124 O125 1.229 . S
C124 O137 1.058 . S
O125 C124 1.229 . S
O126 Zn120 1.969 . S
O126 C129 1.267 . S
O127 Zn120 1.965 . S
O127 C138 1.260 . S
O128 Zn121 1.969 . S
O128 C138 1.258 . S
C129 O126 1.267 . S
C129 O130 1.228 . S
O130 C129 1.228 . S
O131 Zn120 2.024 . S
O131 C122 1.058 . S
C132 O133 1.228 . S
C132 O134 1.267 . S
O133 C132 1.228 . S
O134 Zn121 1.969 . S
O134 C132 1.267 . S
O135 Zn121 1.965 . S
O135 C139 1.260 . S
O136 Zn120 1.969 . S
O136 C139 1.258 . S
O137 Zn121 2.024 . S
O137 C124 1.058 . S
C138 O127 1.260 . S
C138 O128 1.258 . S
C139 O135 1.260 . S
C139 O136 1.258 . S
Zn140 O146 1.969 . S
Zn140 O147 1.965 . S
Zn140 O151 2.024 . S
Zn140 O156 1.969 . S
Zn141 O148 1.969 . S
Zn141 O154 1.969 . S
Zn141 O155 1.965 . S
Zn141 O157 2.024 . S
C142 O143 1.229 . S
C142 O151 1.058 . S
O143 C142 1.229 . S
C144 O145 1.229 . S
C144 O157 1.058 . S
O145 C144 1.229 . S
O146 Zn140 1.969 . S
O146 C149 1.267 . S
O147 Zn140 1.965 . S
O147 C158 1.260 . S
O148 Zn141 1.969 . S
O148 C158 1.258 . S
C149 O146 1.267 . S
C149 O150 1.228 . S
O150 C149 1.228 . S
O151 Zn140 2.024 . S
O151 C142 1.058 . S
C152 O153 1.228 . S
C152 O154 1.267 . S
O153 C152 1.228 . S
O154 Zn141 1.969 . S
O154 C152 1.267 . S
O155 Zn141 1.965 . S
O155 C159 1.260 . S
O156 Zn140 1.969 . S
O156 C159 1.258 . S
O157 Zn141 2.024 . S
O157 C144 1.058 . S
C158 O147 1.260 . S
C158 O148 1.258 . S
C159 O155 1.260 . S
C159 O156 1.258 . S
Zn160 O166 1.969 . S
Zn160 O167 1.965 . S
Zn160 O171 2.024 . S
Zn160 O176 1.969 . S
Zn161 O168 1.969 . S
Zn161 O174 1.969 . S
Zn161 O175 1.965 . S
Zn161 O177 2.024 . S
C162 O163 1.229 . S
C162 O171 1.058 . S
O163 C162 1.229 . S
C164 O165 1.229 . S
C164 O177 1.058 1_556 S
O165 C164 1.229 . S
O166 Zn160 1.969 . S
O166 C169 1.267 . S
O167 Zn160 1.965 . S
O167 C178 1.260 . S
O168 Zn161 1.969 . S
O168 C178 1.258 . S
C169 O166 1.267 . S
C169 O170 1.228 . S
O170 C169 1.228 . S
O171 Zn160 2.024 . S
O171 C162 1.058 . S
C172 O173 1.228 . S
C172 O174 1.267 1_556 S
O173 C172 1.228 . S
O174 Zn161 1.969 . S
O174 C172 1.267 1_554 S
O175 Zn161 1.965 . S
O175 C179 1.260 . S
O176 Zn160 1.969 . S
O176 C179 1.258 . S
O177 Zn161 2.024 . S
O177 C164 1.058 1_554 S
C178 O167 1.260 . S
C178 O168 1.258 . S
C179 O175 1.260 . S
C179 O176 1.258 . S
Zn180 O186 1.969 . S
Zn180 O187 1.965 . S
Zn180 O191 2.024 . S
Zn180 O196 1.969 . S
Zn181 O188 1.969 . S
Zn181 O194 1.969 . S
Zn181 O195 1.965 . S
Zn181 O197 2.024 . S
C182 O183 1.229 . S
C182 O191 1.058 . S
O183 C182 1.229 . S
C184 O185 1.229 . S
C184 O197 1.058 . S
O185 C184 1.229 . S
O186 Zn180 1.969 . S
O186 C189 1.267 . S
O187 Zn180 1.965 . S
O187 C198 1.260 . S
O188 Zn181 1.969 . S
O188 C198 1.258 . S
C189 O186 1.267 . S
C189 O190 1.228 . S
O190 C189 1.228 . S
O191 Zn180 2.024 . S
O191 C182 1.058 . S
C192 O193 1.228 . S
C192 O194 1.267 . S
O193 C192 1.228 . S
O194 Zn181 1.969 . S
O194 C192 1.267 . S
O195 Zn181 1.965 . S
O195 C199 1.260 . S
O196 Zn180 1.969 . S
O196 C199 1.258 . S
O197 Zn181 2.024 . S
O197 C184 1.058 . S
C198 O187 1.260 . S
C198 O188 1.258 . S
C199 O195 1.260 . S
C199 O196 1.258 . S
Zn200 O206 1.969 . S
Zn200 O207 1.965 . S
Zn200 O211 2.024 . S
Zn200 O216 1.969 . S
Zn201 O208 1.969 . S
Zn201 O214 1.969 . S
Zn201 O215 1.965 . S
Zn201 O217 2.024 . S
C202 O203 1.229 . S
C202 O211 1.058 . S
O203 C202 1.229 . S
C204 O205 1.229 . S
C204 O217 1.058 . S
O205 C204 1.229 . S
O206 Zn200 1.969 . S
O206 C209 1.267 . S
O207 Zn200 1.965 . S
O207 C218 1.260 . S
O208 Zn201 1.969 . S
O208 C218 1.258 . S
C209 O206 1.267 . S
C209 O210 1.228 . S
O210 C209 1.228 . S
O211 Zn200 2.024 . S
O211 C202 1.058 . S
C212 O213 1.228 . S
C212 O214 1.267 . S
O213 C212 1.228 . S
O214 Zn201 1.969 . S
O214 C212 1.267 . S
O215 Zn201 1.965 . S
O215 C219 1.260 . S
O216 Zn200 1.969 . S
O216 C219 1.258 . S
O217 Zn201 2.024 . S
O217 C204 1.058 . S
C218 O207 1.260 . S
C218 O208 1.258 . S
C219 O215 1.260 . S
C219 O216 1.258 . S
Zn220 O226 1.969 . S
Zn220 O227 1.965 . S
Zn220 O231 2.024 . S
Zn220 O236 1.969 . S
Zn221 O228 1.969 . S
Zn221 O234 1.969 . S
Zn221 O235 1.965 . S
Zn221 O237 2.024 . S
C222 O223 1.229 . S
C222 O231 1.058 . S
O223 C222 1.229 . S
C224 O225 1.229 . S
C224 O237 1.058 1_556 S
O225 C224 1.229 . S
O226 Zn220 1.969 . S
O226 C229 1.267 . S
O227 Zn220 1.965 . S
O227 C238 1.260 . S
O228 Zn221 1.969 . S
O228 C238 1.258 . S
C229 O226 1.267 . S
C229 O230 1.228 . S
O230 C229 1.228 . S
O231 Zn220 2.024 . S
O231 C222 1.058 . S
C232 O233 1.228 . S
C232 O234 1.267 1_556 S
O233 C232 1.228 . S
O234 Zn221 1.969 . S
O234 C232 1.267 1_554 S
O235 Zn221 1.965 . S
O235 C239 1.260 . S
O236 Zn220 1.969 . S
O236 C239 1.258 . S
O237 Zn221 2.024 . S
O237 C224 1.058 1_554 S
C238 O227 1.260 . S
C238 O228 1.258 . S
C239 O235 1.260 . S
C239 O236 1.258 . S
C240 C241 1.349 . S
C240 C242 1.327 . S
C240 H265 0.950 . S
C241 C240 1.349 . S
C241 C257 1.349 . S
C242 C240 1.327 . S
C242 C261 1.429 . S
C242 H266 0.950 . S
C243 C260 1.574 . S
C243 C262 1.368 . S
C243 H267 0.949 . S
H244 C248 0.949 . S
C245 C246 1.349 . S
C245 C247 1.327 . S
C245 H268 0.950 . S
C246 C245 1.349 . S
C246 C258 1.349 . S
C247 C245 1.327 . S
C247 C263 1.429 . S
C247 H269 0.950 . S
C248 H244 0.949 . S
C248 C256 1.574 . S
C248 C264 1.368 . S
H249 C257 0.950 . S
H250 C255 0.950 . S
H251 C256 0.949 . S
H252 C258 0.950 . S
H253 C259 0.950 . S
H254 C260 0.949 . S
C255 H250 0.950 . S
C255 C257 1.327 . S
C255 C261 1.429 . S
C256 C248 1.574 . S
C256 H251 0.949 . S
C256 C262 1.368 . S
C257 C241 1.349 . S
C257 H249 0.950 . S
C257 C255 1.327 . S
C258 C246 1.349 . S
C258 H252 0.950 . S
C258 C259 1.327 . S
C259 H253 0.950 . S
C259 C258 1.327 . S
C259 C263 1.429 . S
C260 C243 1.574 . S
C260 H254 0.949 . S
C260 C264 1.368 . S
C261 C242 1.429 . S
C261 C255 1.429 . S
C261 C262 1.523 . S
C262 C243 1.368 . S
C262 C256 1.368 . S
C262 C261 1.523 . S
C263 C247 1.429 . S
C263 C259 1.429 . S
C263 C264 1.523 . S
C264 C248 1.368 . S
C264 C260 1.368 . S
C264 C263 1.523 . S
H265 C240 0.950 . S
H266 C242 0.950 . S
H267 C243 0.949 . S
H268 C245 0.950 . S
H269 C247 0.950 . S
C270 C271 1.349 . S
C270 C272 1.327 . S
C270 H295 0.950 . S
C271 C270 1.349 . S
C271 C287 1.349 . S
C272 C270 1.327 . S
C272 C291 1.429 . S
C272 H296 0.950 . S
C273 C290 1.574 . S
C273 C292 1.368 . S
C273 H297 0.949 . S
H274 C278 0.949 . S
C275 C276 1.349 . S
C275 C277 1.327 . S
C275 H298 0.950 . S
C276 C275 1.349 . S
C276 C288 1.349 . S
C277 C275 1.327 . S
C277 C293 1.429 . S
C277 H299 0.950 . S
C278 H274 0.949 . S
C278 C286 1.574 . S
C278 C294 1.368 . S
H279 C287 0.950 . S
H280 C285 0.950 . S
H281 C286 0.949 . S
H282 C288 0.950 . S
H283 C289 0.950 . S
H284 C290 0.949 . S
C285 H280 0.950 . S
C285 C287 1.327 . S
C285 C291 1.429 . S
C286 C278 1.574 . S
C286 H281 0.949 . S
C286 C292 1.368 . S
C287 C271 1.349 . S
C287 H279 0.950 . S
C287 C285 1.327 . S
C288 C276 1.349 . S
C288 H282 0.950 . S
C288 C289 1.327 . S
C289 H283 0.950 . S
C289 C288 1.327 . S
C289 C293 1.429 . S
C290 C273 1.574 . S
C290 H284 0.949 . S
C290 C294 1.368 . S
C291 C272 1.429 . S
C291 C285 1.429 . S
C291 C292 1.523 . S
C292 C273 1.368 . S
C292 C286 1.368 . S
C292 C291 1.523 . S
C293 C277 1.429 . S
C293 C289 1.429 . S
C293 C294 1.523 . S
C294 C278 1.368 . S
C294 C290 1.368 . S
C294 C293 1.523 . S
H295 C270 0.950 . S
H296 C272 0.950 . S
H297 C273 0.949 . S
H298 C275 0.950 . S
H299 C277 0.950 . S
C300 C301 1.349 . S
C300 C302 1.327 . S
C300 H325 0.950 . S
C301 C300 1.349 . S
C301 C317 1.349 . S
C302 C300 1.327 . S
C302 C321 1.429 . S
C302 H326 0.950 . S
C303 C320 1.574 . S
C303 C322 1.368 . S
C303 H327 0.949 . S
H304 C308 0.949 . S
C305 C306 1.349 . S
C305 C307 1.327 . S
C305 H328 0.950 . S
C306 C305 1.349 . S
C306 C318 1.349 . S
C307 C305 1.327 . S
C307 C323 1.429 . S
C307 H329 0.950 . S
C308 H304 0.949 . S
C308 C316 1.574 . S
C308 C324 1.368 . S
H309 C317 0.950 . S
H310 C315 0.950 . S
H311 C316 0.949 . S
H312 C318 0.950 . S
H313 C319 0.950 . S
H314 C320 0.949 . S
C315 H310 0.950 . S
C315 C317 1.327 . S
C315 C321 1.429 . S
C316 C308 1.574 . S
C316 H311 0.949 . S
C316 C322 1.368 . S
C317 C301 1.349 . S
C317 H309 0.950 . S
C317 C315 1.327 . S
C318 C306 1.349 . S
C318 H312 0.950 . S
C318 C319 1.327 . S
C319 H313 0.950 . S
C319 C318 1.327 . S
C319 C323 1.429 . S
C320 C303 1.574 . S
C320 H314 0.949 . S
C320 C324 1.368 . S
C321 C302 1.429 . S
C321 C315 1.429 . S
C321 C322 1.523 . S
C322 C303 1.368 . S
C322 C316 1.368 . S
C322 C321 1.523 . S
C323 C307 1.429 . S
C323 C319 1.429 . S
C323 C324 1.523 . S
C324 C308 1.368 . S
C324 C320 1.368 . S
C324 C323 1.523 . S
H325 C300 0.950 . S
H326 C302 0.950 . S
H327 C303 0.949 . S
H328 C305 0.950 . S
H329 C307 0.950 . S
C330 C331 1.349 . S
C330 C332 1.327 . S
C330 H355 0.950 . S
C331 C330 1.349 . S
C331 C347 1.349 . S
C332 C330 1.327 . S
C332 C351 1.429 . S
C332 H356 0.950 . S
C333 C350 1.574 . S
C333 C352 1.368 . S
C333 H357 0.949 . S
H334 C338 0.949 . S
C335 C336 1.349 . S
C335 C337 1.327 . S
C335 H358 0.950 . S
C336 C335 1.349 . S
C336 C348 1.349 . S
C337 C335 1.327 . S
C337 C353 1.429 . S
C337 H359 0.950 . S
C338 H334 0.949 . S
C338 C346 1.574 . S
C338 C354 1.368 . S
H339 C347 0.950 . S
H340 C345 0.950 . S
H341 C346 0.949 . S
H342 C348 0.950 . S
H343 C349 0.950 . S
H344 C350 0.949 . S
C345 H340 0.950 . S
C345 C347 1.327 . S
C345 C351 1.429 . S
C346 C338 1.574 . S
C346 H341 0.949 . S
C346 C352 1.368 . S
C347 C331 1.349 . S
C347 H339 0.950 . S
C347 C345 1.327 . S
C348 C336 1.349 . S
C348 H342 0.950 . S
C348 C349 1.327 . S
C349 H343 0.950 . S
C349 C348 1.327 . S
C349 C353 1.429 . S
C350 C333 1.574 . S
C350 H344 0.949 . S
C350 C354 1.368 . S
C351 C332 1.429 . S
C351 C345 1.429 . S
C351 C352 1.523 . S
C352 C333 1.368 . S
C352 C346 1.368 . S
C352 C351 1.523 . S
C353 C337 1.429 . S
C353 C349 1.429 . S
C353 C354 1.523 . S
C354 C338 1.368 . S
C354 C350 1.368 . S
C354 C353 1.523 . S
H355 C330 0.950 . S
H356 C332 0.950 . S
H357 C333 0.949 . S
H358 C335 0.950 . S
H359 C337 0.950 . S
C360 C361 1.349 . S
C360 C362 1.327 . S
C360 H385 0.950 . S
C361 C360 1.349 . S
C361 C377 1.349 . S
C362 C360 1.327 . S
C362 C381 1.429 . S
C362 H386 0.950 . S
C363 C380 1.574 . S
C363 C382 1.368 . S
C363 H387 0.949 . S
H364 C368 0.949 . S
C365 C366 1.349 . S
C365 C367 1.327 . S
C365 H388 0.950 . S
C366 C365 1.349 . S
C366 C378 1.349 . S
C367 C365 1.327 . S
C367 C383 1.429 . S
C367 H389 0.950 . S
C368 H364 0.949 . S
C368 C376 1.574 . S
C368 C384 1.368 . S
H369 C377 0.950 . S
H370 C375 0.950 . S
H371 C376 0.949 . S
H372 C378 0.950 . S
H373 C379 0.950 . S
H374 C380 0.949 . S
C375 H370 0.950 . S
C375 C377 1.327 . S
C375 C381 1.429 . S
C376 C368 1.574 . S
C376 H371 0.949 . S
C376 C382 1.368 . S
C377 C361 1.349 . S
C377 H369 0.950 . S
C377 C375 1.327 . S
C378 C366 1.349 . S
C378 H372 0.950 . S
C378 C379 1.327 . S
C379 H373 0.950 . S
C379 C378 1.327 . S
C379 C383 1.429 . S
C380 C363 1.574 . S
C380 H374 0.949 . S
C380 C384 1.368 . S
C381 C362 1.429 . S
C381 C375 1.429 . S
C381 C382 1.523 . S
C382 C363 1.368 . S
C382 C376 1.368 . S
C382 C381 1.523 . S
C383 C367 1.429 . S
C383 C379 1.429 . S
C383 C384 1.523 . S
C384 C368 1.368 . S
C384 C380 1.368 . S
C384 C383 1.523 . S
H385 C360 0.950 . S
H386 C362 0.950 . S
H387 C363 0.949 . S
H388 C365 0.950 . S
H389 C367 0.950 . S
C390 C391 1.349 . S
C390 C392 1.327 . S
C390 H415 0.950 . S
C391 C390 1.349 . S
C391 C407 1.349 . S
C392 C390 1.327 . S
C392 C411 1.429 . S
C392 H416 0.950 . S
C393 C410 1.574 . S
C393 C412 1.368 . S
C393 H417 0.949 . S
H394 C398 0.949 . S
C395 C396 1.349 . S
C395 C397 1.327 . S
C395 H418 0.950 . S
C396 C395 1.349 . S
C396 C408 1.349 . S
C397 C395 1.327 . S
C397 C413 1.429 . S
C397 H419 0.950 . S
C398 H394 0.949 . S
C398 C406 1.574 . S
C398 C414 1.368 . S
H399 C407 0.950 . S
H400 C405 0.950 . S
H401 C406 0.949 . S
H402 C408 0.950 . S
H403 C409 0.950 . S
H404 C410 0.949 . S
C405 H400 0.950 . S
C405 C407 1.327 . S
C405 C411 1.429 . S
C406 C398 1.574 . S
C406 H401 0.949 . S
C406 C412 1.368 . S
C407 C391 1.349 . S
C407 H399 0.950 . S
C407 C405 1.327 . S
C408 C396 1.349 . S
C408 H402 0.950 . S
C408 C409 1.327 . S
C409 H403 0.950 . S
C409 C408 1.327 . S
C409 C413 1.429 . S
C410 C393 1.574 . S
C410 H404 0.949 . S
C410 C414 1.368 . S
C411 C392 1.429 . S
C411 C405 1.429 . S
C411 C412 1.523 . S
C412 C393 1.368 . S
C412 C406 1.368 . S
C412 C411 1.523 . S
C413 C397 1.429 . S
C413 C409 1.429 . S
C413 C414 1.523 . S
C414 C398 1.368 . S
C414 C410 1.368 . S
C414 C413 1.523 . S
H415 C390 0.950 . S
H416 C392 0.950 . S
H417 C393 0.949 . S
H418 C395 0.950 . S
H419 C397 0.950 . S
C420 C421 1.349 . S
C420 C422 1.327 . S
C420 H445 0.950 . S
C421 C420 1.349 . S
C421 C437 1.349 . S
C422 C420 1.327 . S
C422 C441 1.429 . S
C422 H446 0.950 . S
C423 C440 1.574 1_556 S
C423 C442 1.368 . S
C423 H447 0.949 . S
H424 C428 0.949 . S
C425 C426 1.349 . S
C425 C427 1.327 . S
C425 H448 0.950 . S
C426 C425 1.349 . S
C426 C438 1.349 . S
C427 C425 1.327 . S
C427 C443 1.429 . S
C427 H449 0.950 . S
C428 H424 0.949 . S
C428 C436 1.574 1_554 S
C428 C444 1.368 . S
H429 C437 0.950 . S
H430 C435 0.950 . S
H431 C436 0.949 . S
H432 C438 0.950 . S
H433 C439 0.950 . S
H434 C440 0.949 . S
C435 H430 0.950 . S
C435 C437 1.327 . S
C435 C441 1.429 . S
C436 C428 1.574 1_556 S
C436 H431 0.949 . S
C436 C442 1.368 . S
C437 C421 1.349 . S
C437 H429 0.950 . S
C437 C435 1.327 . S
C438 C426 1.349 . S
C438 H432 0.950 . S
C438 C439 1.327 . S
C439 H433 0.950 . S
C439 C438 1.327 . S
C439 C443 1.429 . S
C440 C423 1.574 1_554 S
C440 H434 0.949 . S
C440 C444 1.368 . S
C441 C422 1.429 . S
C441 C435 1.429 . S
C441 C442 1.523 . S
C442 C423 1.368 . S
C442 C436 1.368 . S
C442 C441 1.523 . S
C443 C427 1.429 . S
C443 C439 1.429 . S
C443 C444 1.523 . S
C444 C428 1.368 . S
C444 C440 1.368 . S
C444 C443 1.523 . S
H445 C420 0.950 . S
H446 C422 0.950 . S
H447 C423 0.949 . S
H448 C425 0.950 . S
H449 C427 0.950 . S
C450 C451 1.349 . S
C450 C452 1.327 . S
C450 H475 0.950 . S
C451 C450 1.349 . S
C451 C467 1.349 . S
C452 C450 1.327 . S
C452 C471 1.429 . S
C452 H476 0.950 . S
C453 C470 1.574 . S
C453 C472 1.368 . S
C453 H477 0.949 . S
H454 C458 0.949 . S
C455 C456 1.349 . S
C455 C457 1.327 . S
C455 H478 0.950 . S
C456 C455 1.349 . S
C456 C468 1.349 . S
C457 C455 1.327 . S
C457 C473 1.429 . S
C457 H479 0.950 . S
C458 H454 0.949 . S
C458 C466 1.574 . S
C458 C474 1.368 . S
H459 C467 0.950 . S
H460 C465 0.950 . S
H461 C466 0.949 . S
H462 C468 0.950 . S
H463 C469 0.950 . S
H464 C470 0.949 . S
C465 H460 0.950 . S
C465 C467 1.327 . S
C465 C471 1.429 . S
C466 C458 1.574 . S
C466 H461 0.949 . S
C466 C472 1.368 . S
C467 C451 1.349 . S
C467 H459 0.950 . S
C467 C465 1.327 . S
C468 C456 1.349 . S
C468 H462 0.950 . S
C468 C469 1.327 . S
C469 H463 0.950 . S
C469 C468 1.327 . S
C469 C473 1.429 . S
C470 C453 1.574 . S
C470 H464 0.949 . S
C470 C474 1.368 . S
C471 C452 1.429 . S
C471 C465 1.429 . S
C471 C472 1.523 . S
C472 C453 1.368 . S
C472 C466 1.368 . S
C472 C471 1.523 . S
C473 C457 1.429 . S
C473 C469 1.429 . S
C473 C474 1.523 . S
C474 C458 1.368 . S
C474 C470 1.368 . S
C474 C473 1.523 . S
H475 C450 0.950 . S
H476 C452 0.950 . S
H477 C453 0.949 . S
H478 C455 0.950 . S
H479 C457 0.950 . S
C480 C481 1.349 . S
C480 C482 1.327 . S
C480 H505 0.950 . S
C481 C480 1.349 . S
C481 C497 1.349 . S
C482 C480 1.327 . S
C482 C501 1.429 . S
C482 H506 0.950 . S
C483 C500 1.574 . S
C483 C502 1.368 . S
C483 H507 0.949 . S
H484 C488 0.949 . S
C485 C486 1.349 . S
C485 C487 1.327 . S
C485 H508 0.950 . S
C486 C485 1.349 . S
C486 C498 1.349 . S
C487 C485 1.327 . S
C487 C503 1.429 . S
C487 H509 0.950 . S
C488 H484 0.949 . S
C488 C496 1.574 . S
C488 C504 1.368 . S
H489 C497 0.950 . S
H490 C495 0.950 . S
H491 C496 0.949 . S
H492 C498 0.950 . S
H493 C499 0.950 . S
H494 C500 0.949 . S
C495 H490 0.950 . S
C495 C497 1.327 . S
C495 C501 1.429 . S
C496 C488 1.574 . S
C496 H491 0.949 . S
C496 C502 1.368 . S
C497 C481 1.349 . S
C497 H489 0.950 . S
C497 C495 1.327 . S
C498 C486 1.349 . S
C498 H492 0.950 . S
C498 C499 1.327 . S
C499 H493 0.950 . S
C499 C498 1.327 . S
C499 C503 1.429 . S
C500 C483 1.574 . S
C500 H494 0.949 . S
C500 C504 1.368 . S
C501 C482 1.429 . S
C501 C495 1.429 . S
C501 C502 1.523 . S
C502 C483 1.368 . S
C502 C496 1.368 . S
C502 C501 1.523 . S
C503 C487 1.429 . S
C503 C499 1.429 . S
C503 C504 1.523 . S
C504 C488 1.368 . S
C504 C500 1.368 . S
C504 C503 1.523 . S
H505 C480 0.950 . S
H506 C482 0.950 . S
H507 C483 0.949 . S
H508 C485 0.950 . S
H509 C487 0.950 . S
C510 C511 1.349 . S
C510 C512 1.327 . S
C510 H535 0.950 . S
C511 C510 1.349 . S
C511 C527 1.349 . S
C512 C510 1.327 . S
C512 C531 1.429 . S
C512 H536 0.950 . S
C513 C530 1.574 1_556 S
C513 C532 1.368 . S
C513 H537 0.949 . S
H514 C518 0.949 . S
C515 C516 1.349 . S
C515 C517 1.327 . S
C515 H538 0.950 . S
C516 C515 1.349 . S
C516 C528 1.349 . S
C517 C515 1.327 . S
C517 C533 1.429 . S
C517 H539 0.950 . S
C518 H514 0.949 . S
C518 C526 1.574 1_554 S
C518 C534 1.368 . S
H519 C527 0.950 . S
H520 C525 0.950 . S
H521 C526 0.949 . S
H522 C528 0.950 . S
H523 C529 0.950 . S
H524 C530 0.949 . S
C525 H520 0.950 . S
C525 C527 1.327 . S
C525 C531 1.429 . S
C526 C518 1.574 1_556 S
C526 H521 0.949 . S
C526 C532 1.368 . S
C527 C511 1.349 . S
C527 H519 0.950 . S
C527 C525 1.327 . S
C528 C516 1.349 . S
C528 H522 0.950 . S
C528 C529 1.327 . S
C529 H523 0.950 . S
C529 C528 1.327 . S
C529 C533 1.429 . S
C530 C513 1.574 1_554 S
C530 H524 0.949 . S
C530 C534 1.368 . S
C531 C512 1.429 . S
C531 C525 1.429 . S
C531 C532 1.523 . S
C532 C513 1.368 . S
C532 C526 1.368 . S
C532 C531 1.523 . S
C533 C517 1.429 . S
C533 C529 1.429 . S
C533 C534 1.523 . S
C534 C518 1.368 . S
C534 C530 1.368 . S
C534 C533 1.523 . S
H535 C510 0.950 . S
H536 C512 0.950 . S
H537 C513 0.949 . S
H538 C515 0.950 . S
H539 C517 0.950 . S
C540 C541 1.349 . S
C540 C542 1.327 . S
C540 H565 0.950 . S
C541 C540 1.349 . S
C541 C557 1.349 . S
C542 C540 1.327 . S
C542 C561 1.429 . S
C542 H566 0.950 . S
C543 C560 1.574 . S
C543 C562 1.368 . S
C543 H567 0.949 . S
H544 C548 0.949 . S
C545 C546 1.349 . S
C545 C547 1.327 . S
C545 H568 0.950 . S
C546 C545 1.349 . S
C546 C558 1.349 . S
C547 C545 1.327 . S
C547 C563 1.429 . S
C547 H569 0.950 . S
C548 H544 0.949 . S
C548 C556 1.574 . S
C548 C564 1.368 . S
H549 C557 0.950 . S
H550 C555 0.950 . S
H551 C556 0.949 . S
H552 C558 0.950 . S
H553 C559 0.950 . S
H554 C560 0.949 . S
C555 H550 0.950 . S
C555 C557 1.327 . S
C555 C561 1.429 . S
C556 C548 1.574 . S
C556 H551 0.949 . S
C556 C562 1.368 . S
C557 C541 1.349 . S
C557 H549 0.950 . S
C557 C555 1.327 . S
C558 C546 1.349 . S
C558 H552 0.950 . S
C558 C559 1.327 . S
C559 H553 0.950 . S
C559 C558 1.327 . S
C559 C563 1.429 . S
C560 C543 1.574 . S
C560 H554 0.949 . S
C560 C564 1.368 . S
C561 C542 1.429 . S
C561 C555 1.429 . S
C561 C562 1.523 . S
C562 C543 1.368 . S
C562 C556 1.368 . S
C562 C561 1.523 . S
C563 C547 1.429 . S
C563 C559 1.429 . S
C563 C564 1.523 . S
C564 C548 1.368 . S
C564 C560 1.368 . S
C564 C563 1.523 . S
H565 C540 0.950 . S
H566 C542 0.950 . S
H567 C543 0.949 . S
H568 C545 0.950 . S
H569 C547 0.950 . S
C570 C571 1.349 . S
C570 C572 1.327 . S
C570 H595 0.950 . S
C571 C570 1.349 . S
C571 C587 1.349 . S
C572 C570 1.327 . S
C572 C591 1.429 . S
C572 H596 0.950 . S
C573 C590 1.574 . S
C573 C592 1.368 . S
C573 H597 0.949 . S
H574 C578 0.949 . S
C575 C576 1.349 . S
C575 C577 1.327 . S
C575 H598 0.950 . S
C576 C575 1.349 . S
C576 C588 1.349 . S
C577 C575 1.327 . S
C577 C593 1.429 . S
C577 H599 0.950 . S
C578 H574 0.949 . S
C578 C586 1.574 . S
C578 C594 1.368 . S
H579 C587 0.950 . S
H580 C585 0.950 . S
H581 C586 0.949 . S
H582 C588 0.950 . S
H583 C589 0.950 . S
H584 C590 0.949 . S
C585 H580 0.950 . S
C585 C587 1.327 . S
C585 C591 1.429 . S
C586 C578 1.574 . S
C586 H581 0.949 . S
C586 C592 1.368 . S
C587 C571 1.349 . S
C587 H579 0.950 . S
C587 C585 1.327 . S
C588 C576 1.349 . S
C588 H582 0.950 . S
C588 C589 1.327 . S
C589 H583 0.950 . S
C589 C588 1.327 . S
C589 C593 1.429 . S
C590 C573 1.574 . S
C590 H584 0.949 . S
C590 C594 1.368 . S
C591 C572 1.429 . S
C591 C585 1.429 . S
C591 C592 1.523 . S
C592 C573 1.368 . S
C592 C586 1.368 . S
C592 C591 1.523 . S
C593 C577 1.429 . S
C593 C589 1.429 . S
C593 C594 1.523 . S
C594 C578 1.368 . S
C594 C590 1.368 . S
C594 C593 1.523 . S
H595 C570 0.950 . S
H596 C572 0.950 . S
H597 C573 0.949 . S
H598 C575 0.950 . S
H599 C577 0.950 . S
C600 C601 1.349 . S
C600 C602 1.327 . S
C600 H625 0.950 . S
C601 C600 1.349 . S
C601 C617 1.349 . S
C602 C600 1.327 . S
C602 C621 1.429 . S
C602 H626 0.950 . S
C603 C620 1.574 1_556 S
C603 C622 1.368 . S
C603 H627 0.949 . S
H604 C608 0.949 . S
C605 C606 1.349 . S
C605 C607 1.327 . S
C605 H628 0.950 . S
C606 C605 1.349 . S
C606 C618 1.349 . S
C607 C605 1.327 . S
C607 C623 1.429 . S
C607 H629 0.950 . S
C608 H604 0.949 . S
C608 C616 1.574 1_554 S
C608 C624 1.368 . S
H609 C617 0.950 . S
H610 C615 0.950 . S
H611 C616 0.949 . S
H612 C618 0.950 . S
H613 C619 0.950 . S
H614 C620 0.949 . S
C615 H610 0.950 . S
C615 C617 1.327 . S
C615 C621 1.429 . S
C616 C608 1.574 1_556 S
C616 H611 0.949 . S
C616 C622 1.368 1_545 S
C617 C601 1.349 . S
C617 H609 0.950 . S
C617 C615 1.327 . S
C618 C606 1.349 . S
C618 H612 0.950 . S
C618 C619 1.327 . S
C619 H613 0.950 . S
C619 C618 1.327 . S
C619 C623 1.429 . S
C620 C603 1.574 1_554 S
C620 H614 0.949 . S
C620 C624 1.368 1_565 S
C621 C602 1.429 . S
C621 C615 1.429 . S
C621 C622 1.523 . S
C622 C603 1.368 . S
C622 C616 1.368 1_565 S
C622 C621 1.523 . S
C623 C607 1.429 . S
C623 C619 1.429 . S
C623 C624 1.523 . S
C624 C608 1.368 . S
C624 C620 1.368 1_545 S
C624 C623 1.523 . S
H625 C600 0.950 . S
H626 C602 0.950 . S
H627 C603 0.949 . S
H628 C605 0.950 . S
H629 C607 0.950 . S
C630 C631 1.349 . S
C630 C632 1.327 . S
C630 H655 0.950 . S
C631 C630 1.349 . S
C631 C647 1.349 . S
C632 C630 1.327 . S
C632 C651 1.429 . S
C632 H656 0.950 . S
C633 C650 1.574 . S
C633 C652 1.368 . S
C633 H657 0.949 . S
H634 C638 0.949 . S
C635 C636 1.349 . S
C635 C637 1.327 . S
C635 H658 0.950 . S
C636 C635 1.349 . S
C636 C648 1.349 . S
C637 C635 1.327 . S
C637 C653 1.429 . S
C637 H659 0.950 . S
C638 H634 0.949 . S
C638 C646 1.574 . S
C638 C654 1.368 . S
H639 C647 0.950 . S
H640 C645 0.950 . S
H641 C646 0.949 . S
H642 C648 0.950 . S
H643 C649 0.950 . S
H644 C650 0.949 . S
C645 H640 0.950 . S
C645 C647 1.327 . S
C645 C651 1.429 . S
C646 C638 1.574 . S
C646 H641 0.949 . S
C646 C652 1.368 . S
C647 C631 1.349 . S
C647 H639 0.950 . S
C647 C645 1.327 . S
C648 C636 1.349 . S
C648 H642 0.950 . S
C648 C649 1.327 . S
C649 H643 0.950 . S
C649 C648 1.327 . S
C649 C653 1.429 . S
C650 C633 1.574 . S
C650 H644 0.949 . S
C650 C654 1.368 . S
C651 C632 1.429 . S
C651 C645 1.429 . S
C651 C652 1.523 . S
C652 C633 1.368 . S
C652 C646 1.368 . S
C652 C651 1.523 . S
C653 C637 1.429 . S
C653 C649 1.429 . S
C653 C654 1.523 . S
C654 C638 1.368 . S
C654 C650 1.368 . S
C654 C653 1.523 . S
H655 C630 0.950 . S
H656 C632 0.950 . S
H657 C633 0.949 . S
H658 C635 0.950 . S
H659 C637 0.950 . S
C660 C661 1.349 . S
C660 C662 1.327 . S
C660 H685 0.950 . S
C661 C660 1.349 . S
C661 C677 1.349 . S
C662 C660 1.327 . S
C662 C681 1.429 . S
C662 H686 0.950 . S
C663 C680 1.574 . S
C663 C682 1.368 1_655 S
C663 H687 0.948 1_655 S
H664 C668 0.948 1_655 S
C665 C666 1.349 . S
C665 C667 1.327 . S
C665 H688 0.950 . S
C666 C665 1.349 . S
C666 C678 1.349 . S
C667 C665 1.327 . S
C667 C683 1.429 . S
C667 H689 0.950 . S
C668 H664 0.948 1_455 S
C668 C676 1.573 . S
C668 C684 1.368 1_455 S
H669 C677 0.950 . S
H670 C675 0.950 . S
H671 C676 0.949 . S
H672 C678 0.950 . S
H673 C679 0.950 . S
H674 C680 0.949 . S
C675 H670 0.950 . S
C675 C677 1.327 . S
C675 C681 1.429 . S
C676 C668 1.573 . S
C676 H671 0.949 . S
C676 C682 1.368 . S
C677 C661 1.349 . S
C677 H669 0.950 . S
C677 C675 1.327 . S
C678 C666 1.349 . S
C678 H672 0.950 . S
C678 C679 1.327 . S
C679 H673 0.950 . S
C679 C678 1.327 . S
C679 C683 1.429 . S
C680 C663 1.574 . S
C680 H674 0.949 . S
C680 C684 1.368 . S
C681 C662 1.429 . S
C681 C675 1.429 . S
C681 C682 1.523 . S
C682 C663 1.368 1_455 S
C682 C676 1.368 . S
C682 C681 1.523 . S
C683 C667 1.429 . S
C683 C679 1.429 . S
C683 C684 1.523 . S
C684 C668 1.368 1_655 S
C684 C680 1.368 . S
C684 C683 1.523 . S
H685 C660 0.950 . S
H686 C662 0.950 . S
H687 C663 0.948 1_455 S
H688 C665 0.950 . S
H689 C667 0.950 . S
C690 C691 1.349 . S
C690 C692 1.327 . S
C690 H715 0.950 . S
C691 C690 1.349 . S
C691 C707 1.349 . S
C692 C690 1.327 . S
C692 C711 1.429 . S
C692 H716 0.950 . S
C693 C710 1.574 1_554 S
C693 C712 1.368 1_545 S
C693 H717 0.949 . S
H694 C698 0.949 . S
C695 C696 1.349 . S
C695 C697 1.327 . S
C695 H718 0.950 . S
C696 C695 1.349 . S
C696 C708 1.349 . S
C697 C695 1.327 . S
C697 C713 1.429 . S
C697 H719 0.950 . S
C698 H694 0.949 . S
C698 C706 1.574 1_556 S
C698 C714 1.368 1_565 S
H699 C707 0.950 . S
H700 C705 0.950 . S
H701 C706 0.949 . S
H702 C708 0.950 . S
H703 C709 0.950 . S
H704 C710 0.949 . S
C705 H700 0.950 . S
C705 C707 1.327 . S
C705 C711 1.429 . S
C706 C698 1.574 1_554 S
C706 H701 0.949 . S
C706 C712 1.368 . S
C707 C691 1.349 . S
C707 H699 0.950 . S
C707 C705 1.327 . S
C708 C696 1.349 . S
C708 H702 0.950 . S
C708 C709 1.327 . S
C709 H703 0.950 . S
C709 C708 1.327 . S
C709 C713 1.429 . S
C710 C693 1.574 1_556 S
C710 H704 0.949 . S
C710 C714 1.368 . S
C711 C692 1.429 . S
C711 C705 1.429 . S
C711 C712 1.523 . S
C712 C693 1.368 1_565 S
C712 C706 1.368 . S
C712 C711 1.523 . S
C713 C697 1.429 . S
C713 C709 1.429 . S
C713 C714 1.523 . S
C714 C698 1.368 1_545 S
C714 C710 1.368 . S
C714 C713 1.523 . S
H715 C690 0.950 . S
H716 C692 0.950 . S
H717 C693 0.949 . S
H718 C695 0.950 . S
H719 C697 0.950 . S
C720 C721 1.349 . S
C720 C722 1.327 . S
C720 H745 0.950 . S
C721 C720 1.349 . S
C721 C737 1.349 . S
C722 C720 1.327 . S
C722 C741 1.429 . S
C722 H746 0.950 . S
C723 C740 1.574 . S
C723 C742 1.368 . S
C723 H747 0.949 . S
H724 C728 0.949 . S
C725 C726 1.349 . S
C725 C727 1.327 . S
C725 H748 0.950 . S
C726 C725 1.349 . S
C726 C738 1.349 . S
C727 C725 1.327 . S
C727 C743 1.429 . S
C727 H749 0.950 . S
C728 H724 0.949 . S
C728 C736 1.574 . S
C728 C744 1.368 . S
H729 C737 0.950 . S
H730 C735 0.950 . S
H731 C736 0.949 . S
H732 C738 0.950 . S
H733 C739 0.950 . S
H734 C740 0.949 . S
C735 H730 0.950 . S
C735 C737 1.327 . S
C735 C741 1.429 . S
C736 C728 1.574 . S
C736 H731 0.949 . S
C736 C742 1.368 . S
C737 C721 1.349 . S
C737 H729 0.950 . S
C737 C735 1.327 . S
C738 C726 1.349 . S
C738 H732 0.950 . S
C738 C739 1.327 . S
C739 H733 0.950 . S
C739 C738 1.327 . S
C739 C743 1.429 . S
C740 C723 1.574 . S
C740 H734 0.949 . S
C740 C744 1.368 . S
C741 C722 1.429 . S
C741 C735 1.429 . S
C741 C742 1.523 . S
C742 C723 1.368 . S
C742 C736 1.368 . S
C742 C741 1.523 . S
C743 C727 1.429 . S
C743 C739 1.429 . S
C743 C744 1.523 . S
C744 C728 1.368 . S
C744 C740 1.368 . S
C744 C743 1.523 . S
H745 C720 0.950 . S
H746 C722 0.950 . S
H747 C723 0.949 . S
H748 C725 0.950 . S
H749 C727 0.950 . S
C750 C751 1.349 . S
C750 C752 1.327 . S
C750 H775 0.950 . S
C751 C750 1.349 . S
C751 C767 1.349 . S
C752 C750 1.327 . S
C752 C771 1.429 . S
C752 H776 0.950 . S
C753 C770 1.574 . S
C753 C772 1.368 1_655 S
C753 H777 0.949 . S
H754 C758 0.949 . S
C755 C756 1.349 . S
C755 C757 1.327 . S
C755 H778 0.950 . S
C756 C755 1.349 . S
C756 C768 1.349 . S
C757 C755 1.327 . S
C757 C773 1.429 . S
C757 H779 0.950 . S
C758 H754 0.949 . S
C758 C766 1.574 . S
C758 C774 1.368 1_455 S
H759 C767 0.950 . S
H760 C765 0.976 . S
H761 C766 0.949 . S
H762 C768 0.950 . S
H763 C769 0.975 . S
H764 C770 0.949 . S
C765 H760 0.976 . S
C765 C767 1.327 . S
C765 C771 1.429 . S
C766 C758 1.574 . S
C766 H761 0.949 . S
C766 C772 1.368 . S
C767 C751 1.349 . S
C767 H759 0.950 . S
C767 C765 1.327 . S
C768 C756 1.349 . S
C768 H762 0.950 . S
C768 C769 1.327 . S
C769 H763 0.975 . S
C769 C768 1.327 . S
C769 C773 1.429 . S
C770 C753 1.574 . S
C770 H764 0.949 . S
C770 C774 1.368 . S
C771 C752 1.429 . S
C771 C765 1.429 . S
C771 C772 1.523 . S
C772 C753 1.368 1_455 S
C772 C766 1.368 . S
C772 C771 1.523 . S
C773 C757 1.429 . S
C773 C769 1.429 . S
C773 C774 1.523 . S
C774 C758 1.368 1_655 S
C774 C770 1.368 . S
C774 C773 1.523 . S
H775 C750 0.950 . S
H776 C752 0.950 . S
H777 C753 0.949 . S
H778 C755 0.950 . S
H779 C757 0.950 . S
C780 C781 1.349 . S
C780 C782 1.327 . S
C780 H805 0.950 . S
C781 C780 1.349 . S
C781 C797 1.349 . S
C782 C780 1.327 . S
C782 C801 1.429 . S
C782 H806 0.950 . S
C783 C800 1.574 1_545 S
C783 C802 1.368 . S
C783 H807 0.949 . S
H784 C788 0.949 . S
C785 C786 1.349 . S
C785 C787 1.327 . S
C785 H808 0.950 . S
C786 C785 1.349 . S
C786 C798 1.349 . S
C787 C785 1.327 . S
C787 C803 1.429 . S
C787 H809 0.950 . S
C788 H784 0.949 . S
C788 C796 1.574 1_565 S
C788 C804 1.368 . S
H789 C797 0.950 . S
H790 C795 0.950 . S
H791 C796 0.949 . S
H792 C798 0.950 . S
H793 C799 0.950 . S
H794 C800 0.949 . S
C795 H790 0.950 . S
C795 C797 1.327 . S
C795 C801 1.429 . S
C796 C788 1.574 1_545 S
C796 H791 0.949 . S
C796 C802 1.368 . S
C797 C781 1.349 . S
C797 H789 0.950 . S
C797 C795 1.327 . S
C798 C786 1.349 . S
C798 H792 0.950 . S
C798 C799 1.327 . S
C799 H793 0.950 . S
C799 C798 1.327 . S
C799 C803 1.429 . S
C800 C783 1.574 1_565 S
C800 H794 0.949 . S
C800 C804 1.368 . S
C801 C782 1.429 . S
C801 C795 1.429 . S
C801 C802 1.523 . S
C802 C783 1.368 . S
C802 C796 1.368 . S
C802 C801 1.523 . S
C803 C787 1.429 . S
C803 C799 1.429 . S
C803 C804 1.523 . S
C804 C788 1.368 . S
C804 C800 1.368 . S
C804 C803 1.523 . S
H805 C780 0.950 . S
H806 C782 0.950 . S
H807 C783 0.949 . S
H808 C785 0.950 . S
H809 C787 0.950 . S
C810 C811 1.349 . S
C810 C812 1.327 . S
C810 H835 0.950 . S
C811 C810 1.349 . S
C811 C827 1.349 . S
C812 C810 1.327 . S
C812 C831 1.429 . S
C812 H836 0.950 . S
C813 C830 1.574 . S
C813 C832 1.368 . S
C813 H837 0.949 . S
H814 C818 0.949 . S
C815 C816 1.349 . S
C815 C817 1.327 . S
C815 H838 0.950 . S
C816 C815 1.349 . S
C816 C828 1.349 . S
C817 C815 1.327 . S
C817 C833 1.429 . S
C817 H839 0.950 . S
C818 H814 0.949 . S
C818 C826 1.574 . S
C818 C834 1.368 . S
H819 C827 0.950 . S
H820 C825 0.950 . S
H821 C826 0.949 . S
H822 C828 0.950 . S
H823 C829 0.950 . S
H824 C830 0.949 . S
C825 H820 0.950 . S
C825 C827 1.327 . S
C825 C831 1.429 . S
C826 C818 1.574 . S
C826 H821 0.949 . S
C826 C832 1.368 . S
C827 C811 1.349 . S
C827 H819 0.950 . S
C827 C825 1.327 . S
C828 C816 1.349 . S
C828 H822 0.950 . S
C828 C829 1.327 . S
C829 H823 0.950 . S
C829 C828 1.327 . S
C829 C833 1.429 . S
C830 C813 1.574 . S
C830 H824 0.949 . S
C830 C834 1.368 . S
C831 C812 1.429 . S
C831 C825 1.429 . S
C831 C832 1.523 . S
C832 C813 1.368 . S
C832 C826 1.368 . S
C832 C831 1.523 . S
C833 C817 1.429 . S
C833 C829 1.429 . S
C833 C834 1.523 . S
C834 C818 1.368 . S
C834 C830 1.368 . S
C834 C833 1.523 . S
H835 C810 0.950 . S
H836 C812 0.950 . S
H837 C813 0.949 . S
H838 C815 0.950 . S
H839 C817 0.950 . S
C840 C841 1.349 . S
C840 C842 1.327 . S
C840 H865 0.950 . S
C841 C840 1.349 . S
C841 C857 1.349 . S
C842 C840 1.327 . S
C842 C861 1.429 . S
C842 H866 0.950 . S
C843 C860 1.574 1_655 S
C843 C862 1.368 . S
C843 H867 0.949 . S
H844 C848 0.949 . S
C845 C846 1.349 . S
C845 C847 1.327 . S
C845 H868 0.950 . S
C846 C845 1.349 . S
C846 C858 1.349 . S
C847 C845 1.327 . S
C847 C863 1.429 . S
C847 H869 0.950 . S
C848 H844 0.949 . S
C848 C856 1.574 1_455 S
C848 C864 1.368 . S
H849 C857 0.950 . S
H850 C855 0.950 . S
H851 C856 0.949 . S
H852 C858 0.950 . S
H853 C859 0.950 . S
H854 C860 0.949 . S
C855 H850 0.950 . S
C855 C857 1.327 . S
C855 C861 1.429 . S
C856 C848 1.574 1_655 S
C856 H851 0.949 . S
C856 C862 1.368 . S
C857 C841 1.349 . S
C857 H849 0.950 . S
C857 C855 1.327 . S
C858 C846 1.349 . S
C858 H852 0.950 . S
C858 C859 1.327 . S
C859 H853 0.950 . S
C859 C858 1.327 . S
C859 C863 1.429 . S
C860 C843 1.574 1_455 S
C860 H854 0.949 . S
C860 C864 1.368 . S
C861 C842 1.429 . S
C861 C855 1.429 . S
C861 C862 1.523 . S
C862 C843 1.368 . S
C862 C856 1.368 . S
C862 C861 1.523 . S
C863 C847 1.429 . S
C863 C859 1.429 . S
C863 C864 1.523 . S
C864 C848 1.368 . S
C864 C860 1.368 . S
C864 C863 1.523 . S
H865 C840 0.950 . S
H866 C842 0.950 . S
H867 C843 0.949 . S
H868 C845 0.950 . S
H869 C847 0.950 . S
C870 C871 1.349 . S
C870 C872 1.327 . S
C870 H895 0.950 . S
C871 C870 1.349 . S
C871 C887 1.349 . S
C872 C870 1.327 . S
C872 C891 1.429 . S
C872 H896 0.950 . S
C873 C890 1.574 1_455 S
C873 C892 1.368 . S
C873 H897 0.949 . S
H874 C878 0.949 . S
C875 C876 1.349 . S
C875 C877 1.327 . S
C875 H898 0.950 . S
C876 C875 1.349 . S
C876 C888 1.349 . S
C877 C875 1.327 . S
C877 C893 1.429 . S
C877 H899 0.950 . S
C878 H874 0.949 . S
C878 C886 1.574 1_655 S
C878 C894 1.368 . S
H879 C887 0.950 . S
H880 C885 0.950 . S
H881 C886 0.949 . S
H882 C888 0.950 . S
H883 C889 0.950 . S
H884 C890 0.949 . S
C885 H880 0.950 . S
C885 C887 1.327 . S
C885 C891 1.429 . S
C886 C878 1.574 1_455 S
C886 H881 0.949 . S
C886 C892 1.368 . S
C887 C871 1.349 . S
C887 H879 0.950 . S
C887 C885 1.327 . S
C888 C876 1.349 . S
C888 H882 0.950 . S
C888 C889 1.327 . S
C889 H883 0.950 . S
C889 C888 1.327 . S
C889 C893 1.429 . S
C890 C873 1.574 1_655 S
C890 H884 0.949 . S
C890 C894 1.368 . S
C891 C872 1.429 . S
C891 C885 1.429 . S
C891 C892 1.523 . S
C892 C873 1.368 . S
C892 C886 1.368 . S
C892 C891 1.523 . S
C893 C877 1.429 . S
C893 C889 1.429 . S
C893 C894 1.523 . S
C894 C878 1.368 . S
C894 C890 1.368 . S
C894 C893 1.523 . S
H895 C870 0.950 . S
H896 C872 0.950 . S
H897 C873 0.949 . S
H898 C875 0.950 . S
H899 C877 0.950 . S
C900 C901 1.349 . S
C900 C902 1.327 . S
C900 H925 0.950 . S
C901 C900 1.349 . S
C901 C917 1.349 . S
C902 C900 1.327 . S
C902 C921 1.429 . S
C902 H926 0.950 . S
C903 C920 1.574 1_565 S
C903 C922 1.368 . S
C903 H927 0.949 . S
H904 C908 0.949 . S
C905 C906 1.349 . S
C905 C907 1.327 . S
C905 H928 0.950 . S
C906 C905 1.349 . S
C906 C918 1.349 . S
C907 C905 1.327 . S
C907 C923 1.429 . S
C907 H929 0.950 . S
C908 H904 0.949 . S
C908 C916 1.574 1_545 S
C908 C924 1.368 . S
H909 C917 0.950 . S
H910 C915 0.950 . S
H911 C916 0.949 . S
H912 C918 0.950 . S
H913 C919 0.950 . S
H914 C920 0.949 . S
C915 H910 0.950 . S
C915 C917 1.327 . S
C915 C921 1.429 . S
C916 C908 1.574 1_565 S
C916 H911 0.949 . S
C916 C922 1.368 . S
C917 C901 1.349 . S
C917 H909 0.950 . S
C917 C915 1.327 . S
C918 C906 1.349 . S
C918 H912 0.950 . S
C918 C919 1.327 . S
C919 H913 0.950 . S
C919 C918 1.327 . S
C919 C923 1.429 . S
C920 C903 1.574 1_545 S
C920 H914 0.949 . S
C920 C924 1.368 . S
C921 C902 1.429 . S
C921 C915 1.429 . S
C921 C922 1.523 . S
C922 C903 1.368 . S
C922 C916 1.368 . S
C922 C921 1.523 . S
C923 C907 1.429 . S
C923 C919 1.429 . S
C923 C924 1.523 . S
C924 C908 1.368 . S
C924 C920 1.368 . S
C924 C923 1.523 . S
H925 C900 0.950 . S
H926 C902 0.950 . S
H927 C903 0.949 . S
H928 C905 0.950 . S
H929 C907 0.950 . S
C930 C931 1.349 . S
C930 C932 1.327 . S
C930 H955 0.950 . S
C931 C930 1.349 . S
C931 C947 1.349 . S
C932 C930 1.327 . S
C932 C951 1.429 . S
C932 H956 0.950 . S
C933 C950 1.574 . S
C933 C952 1.368 . S
C933 H957 0.949 . S
H934 C938 0.949 . S
C935 C936 1.349 . S
C935 C937 1.327 . S
C935 H958 0.950 . S
C936 C935 1.349 . S
C936 C948 1.349 . S
C937 C935 1.327 . S
C937 C953 1.429 . S
C937 H959 0.950 . S
C938 H934 0.949 . S
C938 C946 1.574 . S
C938 C954 1.368 . S
H939 C947 0.950 . S
H940 C945 0.950 . S
H941 C946 0.949 . S
H942 C948 0.950 . S
H943 C949 0.950 . S
H944 C950 0.949 . S
C945 H940 0.950 . S
C945 C947 1.327 . S
C945 C951 1.429 . S
C946 C938 1.574 . S
C946 H941 0.949 . S
C946 C952 1.368 . S
C947 C931 1.349 . S
C947 H939 0.950 . S
C947 C945 1.327 . S
C948 C936 1.349 . S
C948 H942 0.950 . S
C948 C949 1.327 . S
C949 H943 0.950 . S
C949 C948 1.327 . S
C949 C953 1.429 . S
C950 C933 1.574 . S
C950 H944 0.949 . S
C950 C954 1.368 . S
C951 C932 1.429 . S
C951 C945 1.429 . S
C951 C952 1.523 . S
C952 C933 1.368 . S
C952 C946 1.368 . S
C952 C951 1.523 . S
C953 C937 1.429 . S
C953 C949 1.429 . S
C953 C954 1.523 . S
C954 C938 1.368 . S
C954 C950 1.368 . S
C954 C953 1.523 . S
H955 C930 0.950 . S
H956 C932 0.950 . S
H957 C933 0.949 . S
H958 C935 0.950 . S
H959 C937 0.950 . S
C960 C961 1.349 . S
C960 C962 1.327 . S
C960 H985 0.950 . S
C961 C960 1.349 . S
C961 C977 1.349 . S
C962 C960 1.327 . S
C962 C981 1.429 . S
C962 H986 0.950 . S
C963 C980 1.574 . S
C963 C982 1.368 . S
C963 H987 0.949 . S
H964 C968 0.949 . S
C965 C966 1.349 . S
C965 C967 1.327 . S
C965 H988 0.950 . S
C966 C965 1.349 . S
C966 C978 1.349 . S
C967 C965 1.327 . S
C967 C983 1.429 . S
C967 H989 0.950 . S
C968 H964 0.949 . S
C968 C976 1.574 . S
C968 C984 1.368 . S
H969 C977 0.950 . S
H970 C975 0.950 . S
H971 C976 0.949 . S
H972 C978 0.950 . S
H973 C979 0.950 . S
H974 C980 0.949 . S
C975 H970 0.950 . S
C975 C977 1.327 . S
C975 C981 1.429 . S
C976 C968 1.574 . S
C976 H971 0.949 . S
C976 C982 1.368 1_545 S
C977 C961 1.349 . S
C977 H969 0.950 . S
C977 C975 1.327 . S
C978 C966 1.349 . S
C978 H972 0.950 . S
C978 C979 1.327 . S
C979 H973 0.950 . S
C979 C978 1.327 . S
C979 C983 1.429 . S
C980 C963 1.574 . S
C980 H974 0.949 . S
C980 C984 1.368 1_565 S
C981 C962 1.429 . S
C981 C975 1.429 . S
C981 C982 1.523 . S
C982 C963 1.368 . S
C982 C976 1.368 1_565 S
C982 C981 1.523 . S
C983 C967 1.429 . S
C983 C979 1.429 . S
C983 C984 1.523 . S
C984 C968 1.368 . S
C984 C980 1.368 1_545 S
C984 C983 1.523 . S
H985 C960 0.950 . S
H986 C962 0.950 . S
H987 C963 0.949 . S
H988 C965 0.950 . S
H989 C967 0.950 . S
C990 C991 1.349 . S
C990 C992 1.327 . S
C990 H1015 0.950 . S
C991 C990 1.349 . S
C991 C1007 1.349 . S
C992 C990 1.327 . S
C992 C1011 1.429 . S
C992 H1016 0.950 . S
C993 C1010 1.574 . S
C993 C1012 1.368 . S
C993 H1017 0.949 . S
H994 C998 0.949 . S
C995 C996 1.349 . S
C995 C997 1.327 . S
C995 H1018 0.950 . S
C996 C995 1.349 . S
C996 C1008 1.349 . S
C997 C995 1.327 . S
C997 C1013 1.429 . S
C997 H1019 0.950 . S
C998 H994 0.949 . S
C998 C1006 1.574 . S
C998 C1014 1.368 . S
H999 C1007 0.950 . S
H1000 C1005 0.950 . S
H1001 C1006 0.949 . S
H1002 C1008 0.950 . S
H1003 C1009 0.950 . S
H1004 C1010 0.949 . S
C1005 H1000 0.950 . S
C1005 C1007 1.327 . S
C1005 C1011 1.429 . S
C1006 C998 1.574 . S
C1006 H1001 0.949 . S
C1006 C1012 1.368 . S
C1007 C991 1.349 . S
C1007 H999 0.950 . S
C1007 C1005 1.327 . S
C1008 C996 1.349 . S
C1008 H1002 0.950 . S
C1008 C1009 1.327 . S
C1009 H1003 0.950 . S
C1009 C1008 1.327 . S
C1009 C1013 1.429 . S
C1010 C993 1.574 . S
C1010 H1004 0.949 . S
C1010 C1014 1.368 . S
C1011 C992 1.429 . S
C1011 C1005 1.429 . S
C1011 C1012 1.523 . S
C1012 C993 1.368 . S
C1012 C1006 1.368 . S
C1012 C1011 1.523 . S
C1013 C997 1.429 . S
C1013 C1009 1.429 . S
C1013 C1014 1.523 . S
C1014 C998 1.368 . S
C1014 C1010 1.368 . S
C1014 C1013 1.523 . S
H1015 C990 0.950 . S
H1016 C992 0.950 . S
H1017 C993 0.949 . S
H1018 C995 0.950 . S
H1019 C997 0.950 . S
C1020 C1021 1.349 . S
C1020 C1022 1.327 . S
C1020 H1045 0.950 . S
C1021 C1020 1.349 . S
C1021 C1037 1.349 . S
C1022 C1020 1.327 . S
C1022 C1041 1.429 . S
C1022 H1046 0.950 . S
C1023 C1040 1.574 1_655 S
C1023 C1042 1.368 . S
C1023 H1047 0.949 . S
H1024 C1028 0.949 . S
C1025 C1026 1.349 . S
C1025 C1027 1.327 . S
C1025 H1048 0.950 . S
C1026 C1025 1.349 . S
C1026 C1038 1.349 . S
C1027 C1025 1.327 . S
C1027 C1043 1.429 . S
C1027 H1049 0.950 . S
C1028 H1024 0.949 . S
C1028 C1036 1.574 1_455 S
C1028 C1044 1.368 . S
H1029 C1037 0.950 . S
H1030 C1035 0.950 . S
H1031 C1036 0.949 . S
H1032 C1038 0.950 . S
H1033 C1039 0.950 . S
H1034 C1040 0.949 . S
C1035 H1030 0.950 . S
C1035 C1037 1.327 . S
C1035 C1041 1.429 . S
C1036 C1028 1.574 1_655 S
C1036 H1031 0.949 . S
C1036 C1042 1.368 . S
C1037 C1021 1.349 . S
C1037 H1029 0.950 . S
C1037 C1035 1.327 . S
C1038 C1026 1.349 . S
C1038 H1032 0.950 . S
C1038 C1039 1.327 . S
C1039 H1033 0.950 . S
C1039 C1038 1.327 . S
C1039 C1043 1.429 . S
C1040 C1023 1.574 1_455 S
C1040 H1034 0.949 . S
C1040 C1044 1.368 . S
C1041 C1022 1.429 . S
C1041 C1035 1.429 . S
C1041 C1042 1.523 . S
C1042 C1023 1.368 . S
C1042 C1036 1.368 . S
C1042 C1041 1.523 . S
C1043 C1027 1.429 . S
C1043 C1039 1.429 . S
C1043 C1044 1.523 . S
C1044 C1028 1.368 . S
C1044 C1040 1.368 . S
C1044 C1043 1.523 . S
H1045 C1020 0.950 . S
H1046 C1022 0.950 . S
H1047 C1023 0.949 . S
H1048 C1025 0.950 . S
H1049 C1027 0.950 . S
C1050 C1051 1.349 . S
C1050 C1052 1.327 . S
C1050 H1075 0.950 . S
C1051 C1050 1.349 . S
C1051 C1067 1.349 . S
C1052 C1050 1.327 . S
C1052 C1071 1.429 . S
C1052 H1076 0.950 . S
C1053 C1070 1.574 . S
C1053 C1072 1.368 . S
C1053 H1077 0.949 . S
H1054 C1058 0.949 . S
C1055 C1056 1.349 . S
C1055 C1057 1.327 . S
C1055 H1078 0.950 . S
C1056 C1055 1.349 . S
C1056 C1068 1.349 . S
C1057 C1055 1.327 . S
C1057 C1073 1.429 . S
C1057 H1079 0.950 . S
C1058 H1054 0.949 . S
C1058 C1066 1.574 . S
C1058 C1074 1.368 . S
H1059 C1067 0.950 . S
H1060 C1065 0.950 . S
H1061 C1066 0.949 . S
H1062 C1068 0.950 . S
H1063 C1069 0.950 . S
H1064 C1070 0.949 . S
C1065 H1060 0.950 . S
C1065 C1067 1.327 . S
C1065 C1071 1.429 . S
C1066 C1058 1.574 . S
C1066 H1061 0.949 . S
C1066 C1072 1.368 1_565 S
C1067 C1051 1.349 . S
C1067 H1059 0.950 . S
C1067 C1065 1.327 . S
C1068 C1056 1.349 . S
C1068 H1062 0.950 . S
C1068 C1069 1.327 . S
C1069 H1063 0.950 . S
C1069 C1068 1.327 . S
C1069 C1073 1.429 . S
C1070 C1053 1.574 . S
C1070 H1064 0.949 . S
C1070 C1074 1.368 1_545 S
C1071 C1052 1.429 . S
C1071 C1065 1.429 . S
C1071 C1072 1.523 . S
C1072 C1053 1.368 . S
C1072 C1066 1.368 1_545 S
C1072 C1071 1.523 . S
C1073 C1057 1.429 . S
C1073 C1069 1.429 . S
C1073 C1074 1.523 . S
C1074 C1058 1.368 . S
C1074 C1070 1.368 1_565 S
C1074 C1073 1.523 . S
H1075 C1050 0.950 . S
H1076 C1052 0.950 . S
H1077 C1053 0.949 . S
H1078 C1055 0.950 . S
H1079 C1057 0.950 . S
C1080 C1081 1.349 . S
C1080 C1082 1.327 . S
C1080 H1105 0.950 . S
C1081 C1080 1.349 . S
C1081 C1097 1.349 . S
C1082 C1080 1.327 . S
C1082 C1101 1.429 . S
C1082 H1106 0.950 . S
C1083 C1100 1.574 . S
C1083 C1102 1.368 . S
C1083 H1107 0.949 . S
H1084 C1088 0.949 . S
C1085 C1086 1.349 . S
C1085 C1087 1.327 . S
C1085 H1108 0.950 . S
C1086 C1085 1.349 . S
C1086 C1098 1.349 . S
C1087 C1085 1.327 . S
C1087 C1103 1.429 . S
C1087 H1109 0.950 . S
C1088 H1084 0.949 . S
C1088 C1096 1.574 . S
C1088 C1104 1.368 . S
H1089 C1097 0.950 . S
H1090 C1095 0.950 . S
H1091 C1096 0.949 . S
H1092 C1098 0.950 . S
H1093 C1099 0.950 . S
H1094 C1100 0.949 . S
C1095 H1090 0.950 . S
C1095 C1097 1.327 . S
C1095 C1101 1.429 . S
C1096 C1088 1.574 . S
C1096 H1091 0.949 . S
C1096 C1102 1.368 . S
C1097 C1081 1.349 . S
C1097 H1089 0.950 . S
C1097 C1095 1.327 . S
C1098 C1086 1.349 . S
C1098 H1092 0.950 . S
C1098 C1099 1.327 . S
C1099 H1093 0.950 . S
C1099 C1098 1.327 . S
C1099 C1103 1.429 . S
C1100 C1083 1.574 . S
C1100 H1094 0.949 . S
C1100 C1104 1.368 . S
C1101 C1082 1.429 . S
C1101 C1095 1.429 . S
C1101 C1102 1.523 . S
C1102 C1083 1.368 . S
C1102 C1096 1.368 . S
C1102 C1101 1.523 . S
C1103 C1087 1.429 . S
C1103 C1099 1.429 . S
C1103 C1104 1.523 . S
C1104 C1088 1.368 . S
C1104 C1100 1.368 . S
C1104 C1103 1.523 . S
H1105 C1080 0.950 . S
H1106 C1082 0.950 . S
H1107 C1083 0.949 . S
H1108 C1085 0.950 . S
H1109 C1087 0.950 . S
C1110 C1111 1.349 . S
C1110 C1112 1.327 . S
C1110 H1135 0.950 . S
C1111 C1110 1.349 . S
C1111 C1127 1.349 . S
C1112 C1110 1.327 . S
C1112 C1131 1.429 . S
C1112 H1136 0.950 . S
C1113 C1130 1.574 1_455 S
C1113 C1132 1.368 . S
C1113 H1137 0.949 . S
H1114 C1118 0.949 . S
C1115 C1116 1.349 . S
C1115 C1117 1.327 . S
C1115 H1138 0.950 . S
C1116 C1115 1.349 . S
C1116 C1128 1.349 . S
C1117 C1115 1.327 . S
C1117 C1133 1.429 . S
C1117 H1139 0.950 . S
C1118 H1114 0.949 . S
C1118 C1126 1.574 1_655 S
C1118 C1134 1.368 . S
H1119 C1127 0.950 . S
H1120 C1125 0.950 . S
H1121 C1126 0.949 . S
H1122 C1128 0.950 . S
H1123 C1129 0.950 . S
H1124 C1130 0.949 . S
C1125 H1120 0.950 . S
C1125 C1127 1.327 . S
C1125 C1131 1.429 . S
C1126 C1118 1.574 1_455 S
C1126 H1121 0.949 . S
C1126 C1132 1.368 . S
C1127 C1111 1.349 . S
C1127 H1119 0.950 . S
C1127 C1125 1.327 . S
C1128 C1116 1.349 . S
C1128 H1122 0.950 . S
C1128 C1129 1.327 . S
C1129 H1123 0.950 . S
C1129 C1128 1.327 . S
C1129 C1133 1.429 . S
C1130 C1113 1.574 1_655 S
C1130 H1124 0.949 . S
C1130 C1134 1.368 . S
C1131 C1112 1.429 . S
C1131 C1125 1.429 . S
C1131 C1132 1.523 . S
C1132 C1113 1.368 . S
C1132 C1126 1.368 . S
C1132 C1131 1.523 . S
C1133 C1117 1.429 . S
C1133 C1129 1.429 . S
C1133 C1134 1.523 . S
C1134 C1118 1.368 . S
C1134 C1130 1.368 . S
C1134 C1133 1.523 . S
H1135 C1110 0.950 . S
H1136 C1112 0.950 . S
H1137 C1113 0.949 . S
H1138 C1115 0.950 . S
H1139 C1117 0.950 . S
C1140 C1141 1.349 . S
C1140 C1142 1.327 . S
C1140 H1165 0.950 . S
C1141 C1140 1.349 . S
C1141 C1157 1.349 . S
C1142 C1140 1.327 . S
C1142 C1161 1.429 . S
C1142 H1166 0.950 . S
C1143 C1160 1.574 . S
C1143 C1162 1.368 . S
C1143 H1167 0.949 . S
H1144 C1148 0.949 . S
C1145 C1146 1.349 . S
C1145 C1147 1.327 . S
C1145 H1168 0.950 . S
C1146 C1145 1.349 . S
C1146 C1158 1.349 . S
C1147 C1145 1.327 . S
C1147 C1163 1.429 . S
C1147 H1169 0.950 . S
C1148 H1144 0.949 . S
C1148 C1156 1.574 . S
C1148 C1164 1.368 . S
H1149 C1157 0.950 . S
H1150 C1155 0.950 . S
H1151 C1156 0.949 . S
H1152 C1158 0.950 . S
H1153 C1159 0.950 . S
H1154 C1160 0.949 . S
C1155 H1150 0.950 . S
C1155 C1157 1.327 . S
C1155 C1161 1.429 . S
C1156 C1148 1.574 . S
C1156 H1151 0.949 . S
C1156 C1162 1.368 . S
C1157 C1141 1.349 . S
C1157 H1149 0.950 . S
C1157 C1155 1.327 . S
C1158 C1146 1.349 . S
C1158 H1152 0.950 . S
C1158 C1159 1.327 . S
C1159 H1153 0.950 . S
C1159 C1158 1.327 . S
C1159 C1163 1.429 . S
C1160 C1143 1.574 . S
C1160 H1154 0.949 . S
C1160 C1164 1.368 . S
C1161 C1142 1.429 . S
C1161 C1155 1.429 . S
C1161 C1162 1.523 . S
C1162 C1143 1.368 . S
C1162 C1156 1.368 . S
C1162 C1161 1.523 . S
C1163 C1147 1.429 . S
C1163 C1159 1.429 . S
C1163 C1164 1.523 . S
C1164 C1148 1.368 . S
C1164 C1160 1.368 . S
C1164 C1163 1.523 . S
H1165 C1140 0.950 . S
H1166 C1142 0.950 . S
H1167 C1143 0.949 . S
H1168 C1145 0.950 . S
H1169 C1147 0.950 . S
C1170 C1171 1.349 . S
C1170 C1172 1.327 . S
C1170 H1195 0.950 . S
C1171 C1170 1.349 . S
C1171 C1187 1.349 . S
C1172 C1170 1.327 . S
C1172 C1191 1.429 . S
C1172 H1196 0.950 . S
C1173 C1190 1.574 . S
C1173 C1192 1.368 . S
C1173 H1197 0.949 . S
H1174 C1178 0.949 . S
C1175 C1176 1.349 . S
C1175 C1177 1.327 . S
C1175 H1198 0.950 . S
C1176 C1175 1.349 . S
C1176 C1188 1.349 . S
C1177 C1175 1.327 . S
C1177 C1193 1.429 . S
C1177 H1199 0.950 . S
C1178 H1174 0.949 . S
C1178 C1186 1.574 . S
C1178 C1194 1.368 . S
H1179 C1187 0.950 . S
H1180 C1185 0.950 . S
H1181 C1186 0.949 . S
H1182 C1188 0.950 . S
H1183 C1189 0.950 . S
H1184 C1190 0.949 . S
C1185 H1180 0.950 . S
C1185 C1187 1.327 . S
C1185 C1191 1.429 . S
C1186 C1178 1.574 . S
C1186 H1181 0.949 . S
C1186 C1192 1.368 . S
C1187 C1171 1.349 . S
C1187 H1179 0.950 . S
C1187 C1185 1.327 . S
C1188 C1176 1.349 . S
C1188 H1182 0.950 . S
C1188 C1189 1.327 . S
C1189 H1183 0.950 . S
C1189 C1188 1.327 . S
C1189 C1193 1.429 . S
C1190 C1173 1.574 . S
C1190 H1184 0.949 . S
C1190 C1194 1.368 . S
C1191 C1172 1.429 . S
C1191 C1185 1.429 . S
C1191 C1192 1.523 . S
C1192 C1173 1.368 . S
C1192 C1186 1.368 . S
C1192 C1191 1.523 . S
C1193 C1177 1.429 . S
C1193 C1189 1.429 . S
C1193 C1194 1.523 . S
C1194 C1178 1.368 . S
C1194 C1190 1.368 . S
C1194 C1193 1.523 . S
H1195 C1170 0.950 . S
H1196 C1172 0.950 . S
H1197 C1173 0.949 . S
H1198 C1175 0.950 . S
H1199 C1177 0.950 . S
C1200 C1201 1.349 . S
C1200 C1202 1.327 . S
C1200 H1225 0.950 . S
C1201 C1200 1.349 . S
C1201 C1217 1.349 . S
C1202 C1200 1.327 . S
C1202 C1221 1.429 . S
C1202 H1226 0.950 . S
C1203 C1220 1.574 . S
C1203 C1222 1.368 . S
C1203 H1227 0.949 . S
H1204 C1208 0.949 . S
C1205 C1206 1.349 . S
C1205 C1207 1.327 . S
C1205 H1228 0.950 . S
C1206 C1205 1.349 . S
C1206 C1218 1.349 . S
C1207 C1205 1.327 . S
C1207 C1223 1.429 . S
C1207 H1229 0.950 . S
C1208 H1204 0.949 . S
C1208 C1216 1.574 . S
C1208 C1224 1.368 . S
H1209 C1217 0.950 . S
H1210 C1215 0.950 . S
H1211 C1216 0.949 . S
H1212 C1218 0.950 . S
H1213 C1219 0.950 . S
H1214 C1220 0.949 . S
C1215 H1210 0.950 . S
C1215 C1217 1.327 . S
C1215 C1221 1.429 . S
C1216 C1208 1.574 . S
C1216 H1211 0.949 . S
C1216 C1222 1.368 . S
C1217 C1201 1.349 . S
C1217 H1209 0.950 . S
C1217 C1215 1.327 . S
C1218 C1206 1.349 . S
C1218 H1212 0.950 . S
C1218 C1219 1.327 . S
C1219 H1213 0.950 . S
C1219 C1218 1.327 . S
C1219 C1223 1.429 . S
C1220 C1203 1.574 . S
C1220 H1214 0.949 . S
C1220 C1224 1.368 . S
C1221 C1202 1.429 . S
C1221 C1215 1.429 . S
C1221 C1222 1.523 . S
C1222 C1203 1.368 . S
C1222 C1216 1.368 . S
C1222 C1221 1.523 . S
C1223 C1207 1.429 . S
C1223 C1219 1.429 . S
C1223 C1224 1.523 . S
C1224 C1208 1.368 . S
C1224 C1220 1.368 . S
C1224 C1223 1.523 . S
H1225 C1200 0.950 . S
H1226 C1202 0.950 . S
H1227 C1203 0.949 . S
H1228 C1205 0.950 . S
H1229 C1207 0.950 . S
C1230 C1231 1.349 . S
C1230 C1232 1.327 . S
C1230 H1255 0.950 . S
C1231 C1230 1.349 . S
C1231 C1247 1.349 . S
C1232 C1230 1.327 . S
C1232 C1251 1.429 . S
C1232 H1256 0.950 . S
C1233 C1250 1.574 . S
C1233 C1252 1.368 . S
C1233 H1257 0.949 . S
H1234 C1238 0.949 . S
C1235 C1236 1.349 . S
C1235 C1237 1.327 . S
C1235 H1258 0.950 . S
C1236 C1235 1.349 . S
C1236 C1248 1.349 . S
C1237 C1235 1.327 . S
C1237 C1253 1.429 . S
C1237 H1259 0.950 . S
C1238 H1234 0.949 . S
C1238 C1246 1.574 . S
C1238 C1254 1.368 . S
H1239 C1247 0.950 . S
H1240 C1245 0.950 . S
H1241 C1246 0.949 . S
H1242 C1248 0.950 . S
H1243 C1249 0.950 . S
H1244 C1250 0.949 . S
C1245 H1240 0.950 . S
C1245 C1247 1.327 . S
C1245 C1251 1.429 . S
C1246 C1238 1.574 . S
C1246 H1241 0.949 . S
C1246 C1252 1.368 . S
C1247 C1231 1.349 . S
C1247 H1239 0.950 . S
C1247 C1245 1.327 . S
C1248 C1236 1.349 . S
C1248 H1242 0.950 . S
C1248 C1249 1.327 . S
C1249 H1243 0.950 . S
C1249 C1248 1.327 . S
C1249 C1253 1.429 . S
C1250 C1233 1.574 . S
C1250 H1244 0.949 . S
C1250 C1254 1.368 . S
C1251 C1232 1.429 . S
C1251 C1245 1.429 . S
C1251 C1252 1.523 . S
C1252 C1233 1.368 . S
C1252 C1246 1.368 . S
C1252 C1251 1.523 . S
C1253 C1237 1.429 . S
C1253 C1249 1.429 . S
C1253 C1254 1.523 . S
C1254 C1238 1.368 . S
C1254 C1250 1.368 . S
C1254 C1253 1.523 . S
H1255 C1230 0.950 . S
H1256 C1232 0.950 . S
H1257 C1233 0.949 . S
H1258 C1235 0.950 . S
H1259 C1237 0.950 . S
C1260 C1261 1.349 . S
C1260 C1262 1.327 . S
C1260 H1285 0.950 . S
C1261 C1260 1.349 . S
C1261 C1277 1.349 . S
C1262 C1260 1.327 . S
C1262 C1281 1.429 . S
C1262 H1286 0.950 . S
C1263 C1280 1.574 . S
C1263 C1282 1.368 . S
C1263 H1287 0.949 . S
H1264 C1268 0.949 . S
C1265 C1266 1.349 . S
C1265 C1267 1.327 . S
C1265 H1288 0.950 . S
C1266 C1265 1.349 . S
C1266 C1278 1.349 . S
C1267 C1265 1.327 . S
C1267 C1283 1.429 . S
C1267 H1289 0.950 . S
C1268 H1264 0.949 . S
C1268 C1276 1.574 . S
C1268 C1284 1.368 . S
H1269 C1277 0.950 . S
H1270 C1275 0.950 . S
H1271 C1276 0.949 . S
H1272 C1278 0.950 . S
H1273 C1279 0.950 . S
H1274 C1280 0.949 . S
C1275 H1270 0.950 . S
C1275 C1277 1.327 . S
C1275 C1281 1.429 . S
C1276 C1268 1.574 . S
C1276 H1271 0.949 . S
C1276 C1282 1.368 . S
C1277 C1261 1.349 . S
C1277 H1269 0.950 . S
C1277 C1275 1.327 . S
C1278 C1266 1.349 . S
C1278 H1272 0.950 . S
C1278 C1279 1.327 . S
C1279 H1273 0.950 . S
C1279 C1278 1.327 . S
C1279 C1283 1.429 . S
C1280 C1263 1.574 . S
C1280 H1274 0.949 . S
C1280 C1284 1.368 . S
C1281 C1262 1.429 . S
C1281 C1275 1.429 . S
C1281 C1282 1.523 . S
C1282 C1263 1.368 . S
C1282 C1276 1.368 . S
C1282 C1281 1.523 . S
C1283 C1267 1.429 . S
C1283 C1279 1.429 . S
C1283 C1284 1.523 . S
C1284 C1268 1.368 . S
C1284 C1280 1.368 . S
C1284 C1283 1.523 . S
H1285 C1260 0.950 . S
H1286 C1262 0.950 . S
H1287 C1263 0.949 . S
H1288 C1265 0.950 . S
H1289 C1267 0.950 . S
C1290 C1291 1.349 . S
C1290 C1292 1.327 . S
C1290 H1315 0.950 . S
C1291 C1290 1.349 . S
C1291 C1307 1.349 . S
C1292 C1290 1.327 . S
C1292 C1311 1.429 . S
C1292 H1316 0.950 . S
C1293 C1310 1.574 . S
C1293 C1312 1.368 . S
C1293 H1317 0.949 . S
H1294 C1298 0.949 . S
C1295 C1296 1.349 . S
C1295 C1297 1.327 . S
C1295 H1318 0.950 . S
C1296 C1295 1.349 . S
C1296 C1308 1.349 . S
C1297 C1295 1.327 . S
C1297 C1313 1.429 . S
C1297 H1319 0.950 . S
C1298 H1294 0.949 . S
C1298 C1306 1.574 . S
C1298 C1314 1.368 . S
H1299 C1307 0.950 . S
H1300 C1305 0.950 . S
H1301 C1306 0.949 . S
H1302 C1308 0.950 . S
H1303 C1309 0.950 . S
H1304 C1310 0.949 . S
C1305 H1300 0.950 . S
C1305 C1307 1.327 . S
C1305 C1311 1.429 . S
C1306 C1298 1.574 . S
C1306 H1301 0.949 . S
C1306 C1312 1.368 . S
C1307 C1291 1.349 . S
C1307 H1299 0.950 . S
C1307 C1305 1.327 . S
C1308 C1296 1.349 . S
C1308 H1302 0.950 . S
C1308 C1309 1.327 . S
C1309 H1303 0.950 . S
C1309 C1308 1.327 . S
C1309 C1313 1.429 . S
C1310 C1293 1.574 . S
C1310 H1304 0.949 . S
C1310 C1314 1.368 . S
C1311 C1292 1.429 . S
C1311 C1305 1.429 . S
C1311 C1312 1.523 . S
C1312 C1293 1.368 . S
C1312 C1306 1.368 . S
C1312 C1311 1.523 . S
C1313 C1297 1.429 . S
C1313 C1309 1.429 . S
C1313 C1314 1.523 . S
C1314 C1298 1.368 . S
C1314 C1310 1.368 . S
C1314 C1313 1.523 . S
H1315 C1290 0.950 . S
H1316 C1292 0.950 . S
H1317 C1293 0.949 . S
H1318 C1295 0.950 . S
H1319 C1297 0.950 . S
C241 C18 0.923 . S
C246 C178 0.923 . S
C271 C38 0.923 . S
C276 C198 0.923 . S
C301 C58 0.923 . S
C306 C218 0.923 . S
C331 C238 0.923 . S
C336 C78 0.923 . S
C361 C98 0.923 . S
C366 C138 0.923 . S
C391 C158 0.923 . S
C396 C118 0.923 . S
C421 C209 0.806 . S
C426 C9 0.806 . S
C451 C229 0.806 . S
C456 C29 0.806 . S
C481 C49 0.806 . S
C486 C129 0.806 . S
C511 C149 0.806 . S
C516 C69 0.806 . S
C541 C169 0.806 . S
C546 C89 0.806 . S
C571 C109 0.806 . S
C576 C189 0.806 . S
C601 C142 1.419 . S
C606 C2 1.419 . S
C631 C162 1.419 . S
C636 C22 1.419 . S
C661 C182 1.419 . S
C666 C42 1.419 . S
C691 C62 1.419 . S
C696 C202 1.419 . S
C721 C82 1.419 . S
C726 C222 1.419 . S
C751 C102 1.419 . S
C756 C122 1.419 . S
C781 C19 0.592 . S
C786 C79 0.592 . S
C811 C39 0.592 . S
C816 C99 0.592 . S
C841 C59 0.592 . S
C846 C119 0.592 . S
C871 C199 0.592 . S
C876 C139 0.592 . S
C901 C159 0.592 . S
C906 C219 0.592 . S
C931 C239 0.592 . S
C936 C179 0.592 . S
C961 C152 1.319 . S
C966 C12 1.319 . S
C991 C172 1.319 . S
C996 C32 1.319 . S
C1021 C52 1.319 . S
C1026 C192 1.319 . S
C1051 C212 1.319 . S
C1056 C72 1.319 . S
C1081 C232 1.319 . S
C1086 C92 1.319 . S
C1111 C112 1.319 . S
C1116 C132 1.319 . S
C1141 C4 1.504 . S
C1146 C204 1.504 . S
C1171 C24 1.504 . S
C1176 C224 1.504 . S
C1201 C44 1.504 . S
C1206 C124 1.504 . S
C1231 C64 1.504 . S
C1236 C144 1.504 . S
C1261 C84 1.504 . S
C1266 C164 1.504 . S
C1291 C184 1.504 . S
C1296 C104 1.504 . S
