# Generated by pormake.
# Topology umo, (4)-cn, num edge types: 1
# Building blocks:
#     Node 0, Type 0, BuildingBlock: ESEHIV_clean_sbu_0, # of connection points: 4
#     Node 1, Type 0, BuildingBlock: ESEHIV_clean_sbu_0, # of connection points: 4
#     Node 2, Type 0, BuildingBlock: ESEHIV_clean_sbu_0, # of connection points: 4
#     Node 3, Type 0, BuildingBlock: ESEHIV_clean_sbu_0, # of connection points: 4
#     Node 4, Type 0, BuildingBlock: ESEHIV_clean_sbu_0, # of connection points: 4
#     Node 5, Type 0, BuildingBlock: ESEHIV_clean_sbu_0, # of connection points: 4
#     Node 6, Type 0, BuildingBlock: ESEHIV_clean_sbu_0, # of connection points: 4
#     Node 7, Type 0, BuildingBlock: ESEHIV_clean_sbu_0, # of connection points: 4
#     Node 8, Type 0, BuildingBlock: ESEHIV_clean_sbu_0, # of connection points: 4
#     Node 9, Type 0, BuildingBlock: ESEHIV_clean_sbu_0, # of connection points: 4
#     Node 10, Type 0, BuildingBlock: ESEHIV_clean_sbu_0, # of connection points: 4
#     Node 11, Type 0, BuildingBlock: ESEHIV_clean_sbu_0, # of connection points: 4
#     Edge 12, Type (0, 0), None
#     Edge 13, Type (0, 0), None
#     Edge 14, Type (0, 0), None
#     Edge 15, Type (0, 0), None
#     Edge 16, Type (0, 0), None
#     Edge 17, Type (0, 0), None
#     Edge 18, Type (0, 0), None
#     Edge 19, Type (0, 0), None
#     Edge 20, Type (0, 0), None
#     Edge 21, Type (0, 0), None
#     Edge 22, Type (0, 0), None
#     Edge 23, Type (0, 0), None
#     Edge 24, Type (0, 0), None
#     Edge 25, Type (0, 0), None
#     Edge 26, Type (0, 0), None
#     Edge 27, Type (0, 0), None
#     Edge 28, Type (0, 0), None
#     Edge 29, Type (0, 0), None
#     Edge 30, Type (0, 0), None
#     Edge 31, Type (0, 0), None
#     Edge 32, Type (0, 0), None
#     Edge 33, Type (0, 0), None
#     Edge 34, Type (0, 0), None
#     Edge 35, Type (0, 0), None
# Relax obj value: 0.175
# Max RMSD: 0.169
# Mean RMSD: 0.169
data_MOF--net-umo--node1-ESEHIV_clean_sbu_0--edge1-none
_symmetry_space_group_name_H-M    P1
_symmetry_Int_Tables_number       1
_symmetry_cell_setting            triclinic
loop_
_symmetry_equiv_pos_as_xyz
'x, y, z'
_cell_length_a     28.274032
_cell_length_b     28.275409
_cell_length_c     13.108753
_cell_angle_alpha  89.996276
_cell_angle_beta   90.011276
_cell_angle_gamma 120.00769
loop_
_atom_site_label
_atom_site_type_symbol
_atom_site_fract_x
_atom_site_fract_y
_atom_site_fract_z
_atom_type_partial_charge
Cu0 Cu 0.21731 0.56147 0.38266 0.0
N1 N 0.28139 0.58013 0.4567 0.0
N2 N 0.36053 0.64832 0.5171 0.0
C3 C 0.32694 0.62819 0.43607 0.0
C4 C 0.33513 0.61229 0.59302 0.0
C5 C 0.28656 0.56994 0.55541 0.0
O6 O 0.23051 0.55407 0.23773 0.0
C7 C 0.20135 0.62458 0.51671 0.0
O8 O 0.18122 0.57821 0.56647 0.0
H9 H 0.33096 0.65205 0.36885 0.0
H10 H 0.25417 0.53881 0.60115 0.0
N11 N 0.15215 0.49714 0.42187 0.0
N12 N 1.0627 0.43688 0.43908 0.0
C13 C 0.10081 0.48213 0.3902 0.0
C14 C 0.14569 0.4595 0.49208 0.0
C15 C 0.09055 0.42274 0.50383 0.0
C16 C 0.26552 0.54057 0.20969 0.0
O17 O 0.29551 0.53428 0.27832 0.0
H18 H 0.09149 0.50528 0.3362 0.0
H19 H 0.17858 0.4595 0.53404 0.0
O20 O 0.21136 0.62497 0.42157 0.0
H21 H 0.34771 0.61917 0.67219 0.0
H22 H 0.0723 0.38885 0.55675 0.0
Cu23 Cu 0.69928 0.19568 0.54909 0.0
N24 N 0.74472 0.25977 0.62307 0.0
N25 N 0.75568 0.33889 0.68352 0.0
C26 C 0.74215 0.30529 0.60251 0.0
C27 C 0.76642 0.31352 0.75936 0.0
C28 C 0.7602 0.26497 0.72171 0.0
O29 O 0.71983 0.20889 0.40414 0.0
C30 C 0.62027 0.17974 0.68326 0.0
O31 O 0.6466 0.15971 0.73302 0.0
H32 H 0.72222 0.30927 0.5354 0.0
H33 H 0.75903 0.23261 0.76741 0.0
N34 N 0.69847 0.13054 0.58828 0.0
N35 N 0.66933 1.04111 0.60555 0.0
C36 C 0.66211 0.07918 0.55673 0.0
C37 C 0.72976 0.12412 0.65835 0.0
C38 C 0.7114 0.06899 0.67014 0.0
C39 C 0.76834 0.2439 0.37606 0.0
O40 O 0.80465 0.27386 0.44469 0.0
H41 H 0.62957 0.06983 0.50286 0.0
H42 H 0.7627 0.15703 0.70016 0.0
O43 O 0.62982 0.1897 0.58808 0.0
H44 H 0.77221 0.32612 0.83852 0.0
H45 H 0.72711 0.05077 0.72296 0.0
Cu46 Cu 0.5468 0.67742 0.71609 0.0
N47 N 0.52818 0.72285 0.79011 0.0
N48 N 0.46 0.7338 0.85051 0.0
C49 C 0.48013 0.72037 0.76947 0.0
C50 C 0.49603 0.74439 0.92644 0.0
C51 C 0.53837 0.73818 0.88884 0.0
O52 O 0.55419 0.69802 0.57115 0.0
C53 C 0.48368 0.59834 0.85016 0.0
O54 O 0.53007 0.62457 0.89992 0.0
H55 H 0.45627 0.70055 0.70223 0.0
H56 H 0.56949 0.7369 0.93458 0.0
N57 N 0.61112 0.67658 0.75529 0.0
N58 N 0.6714 0.64743 0.77249 0.0
C59 C 0.62613 0.64025 0.72364 0.0
C60 C 0.6488 0.7078 0.82546 0.0
C61 C 0.68556 0.68943 0.8372 0.0
C62 C 0.56769 0.74653 0.54307 0.0
O63 O 0.57398 0.78282 0.61168 0.0
H64 H 0.60296 0.60777 0.66967 0.0
H65 H 0.64882 0.74069 0.86738 0.0
O66 O 0.48328 0.60797 0.75502 0.0
H67 H 0.48914 0.75006 1.00562 0.0
H68 H 0.71948 0.7051 0.89008 0.0
Cu69 Cu 0.91267 0.52528 0.88246 0.0
N70 N 0.84859 0.50663 0.95642 0.0
N71 N 0.76945 0.43847 1.01685 0.0
C72 C 0.80306 0.45854 0.93586 0.0
C73 C 0.79482 0.47458 0.09268 0.0
C74 C 0.84339 0.51692 1.05505 0.0
O75 O 0.89943 0.53261 0.7375 0.0
C76 C 0.9286 0.46221 1.01668 0.0
O77 O 0.94864 0.50858 0.06643 0.0
H78 H 0.79907 0.43462 0.86875 0.0
H79 H 0.87575 0.54811 0.10075 0.0
N80 N 0.97783 0.58963 0.92162 0.0
N81 N 0.06727 0.64994 0.93882 0.0
C82 C 1.02918 0.60463 0.89006 0.0
C83 C 0.98426 0.62735 0.99162 0.0
C84 C 1.0394 0.66414 1.00338 0.0
C85 C 0.86443 0.54611 0.70944 0.0
O86 O 0.83449 0.55248 0.77808 0.0
H87 H 1.03852 0.58143 0.83623 0.0
H88 H 0.95136 0.62739 1.03343 0.0
O89 O 0.91864 0.4618 0.9215 0.0
H90 H 0.78222 0.46777 0.17184 0.0
H91 H 1.05763 0.6981 1.05615 0.0
Cu92 Cu 0.431 0.89098 1.04911 0.0
N93 N 0.38557 0.82691 0.12312 0.0
N94 N 0.37456 0.74778 0.18362 0.0
C95 C 0.3881 0.78137 0.1026 0.0
C96 C 0.36386 0.77318 0.25944 0.0
C97 C 0.37012 0.82174 0.22177 0.0
O98 O 0.41042 0.87776 0.90416 0.0
C99 C 0.51004 0.90695 0.1833 0.0
O100 O 0.48376 0.92706 0.23299 0.0
H101 H 0.408 0.77735 1.03548 0.0
H102 H 0.37132 0.85412 0.26744 0.0
N103 N 0.43181 0.95612 0.08825 0.0
N104 N 0.46094 0.04556 0.10544 0.0
C105 C 0.46816 1.00748 1.05667 0.0
C106 C 0.40053 0.96255 0.15828 0.0
C107 C 0.41888 1.01768 0.17002 0.0
C108 C 0.36189 0.84279 0.87611 0.0
O109 O 0.32559 0.81286 0.94476 0.0
H110 H 0.50069 1.01682 1.00282 0.0
H111 H 0.3676 0.92965 0.2001 0.0
O112 O 0.50046 0.89696 0.08813 0.0
H113 H 0.35808 0.76059 0.33861 0.0
H114 H 0.40316 1.03591 0.22282 0.0
Cu115 Cu 0.58299 0.40894 0.21586 0.0
N116 N 0.60165 0.36351 0.28981 0.0
N117 N 0.66984 0.35258 0.35021 0.0
C118 C 0.64974 0.36609 0.26922 0.0
C119 C 0.63376 0.34184 0.42607 0.0
C120 C 0.5914 0.34805 0.38846 0.0
O121 O 0.57564 0.3884 0.07089 0.0
C122 C 0.64607 0.48796 0.35008 0.0
O123 O 0.5997 0.46162 0.39983 0.0
H124 H 0.67364 0.38601 0.20209 0.0
H125 H 0.56023 0.34922 0.43417 0.0
N126 N 0.51865 0.40973 0.25506 0.0
N127 N 0.45837 0.43889 0.27235 0.0
C128 C 0.50365 0.44609 0.22351 0.0
C129 C 0.48096 0.37847 0.32515 0.0
C130 C 0.4442 0.39684 0.33695 0.0
C131 C 0.56219 0.33992 1.04277 0.0
O132 O 0.55589 0.30361 0.11136 0.0
H133 H 0.52683 0.47861 0.16963 0.0
H134 H 0.48094 0.34555 0.36699 0.0
O135 O 0.64647 0.47841 0.25491 0.0
H136 H 0.6406 0.33608 0.50523 0.0
H137 H 0.41028 0.38114 0.3898 0.0
Cu138 Cu 0.54132 0.83993 0.44972 0.0
N139 N 0.4746 0.78526 0.50578 0.0
N140 N 0.39978 0.70392 0.53042 0.0
C141 C 0.44993 0.73079 0.48855 0.0
C142 C 0.39116 0.74226 0.57276 0.0
C143 C 0.43769 0.7925 0.55829 0.0
O144 O 0.58009 0.80373 0.39699 0.0
C145 C 0.53487 0.88147 0.24487 0.0
O146 O 0.56348 0.86172 0.20278 0.0
H147 H 0.46732 0.7113 0.44345 0.0
H148 H 0.44324 0.83184 0.58022 0.0
N149 N 0.58307 0.8983 0.5414 0.0
N150 N 0.63565 0.98357 0.60078 0.0
C151 C 0.6122 0.95222 0.51746 0.0
C152 C 0.58761 0.89641 0.64363 0.0
C153 C 0.62073 0.94879 0.68016 0.0
C154 C 0.5838 0.76431 0.43675 0.0
O155 O 0.60472 0.74032 0.38216 0.0
H156 H 0.6162 0.96805 0.44085 0.0
H157 H 0.56709 0.85981 0.68939 0.0
O158 O 0.52268 0.87403 0.3395 0.0
H159 H 0.35321 0.73466 0.60708 0.0
H160 H 0.63173 0.96055 0.75898 0.0
Cu161 Cu 0.74456 0.5195 0.61633 0.0
N162 N 0.73265 0.45284 0.67241 0.0
N163 N 0.73929 0.37809 0.69698 0.0
C164 C 0.7625 0.42824 0.65511 0.0
C165 C 0.69232 0.3694 0.73941 0.0
C166 C 0.68854 0.41589 0.72497 0.0
O167 O 0.8195 0.55834 0.56339 0.0
C168 C 0.69641 0.51288 0.41158 0.0
O169 O 0.74476 0.5415 0.3694 0.0
H170 H 0.79936 0.44567 0.60992 0.0
H171 H 0.65472 0.42137 0.74696 0.0
N172 N 0.72796 0.56122 0.70809 0.0
N173 N 0.69526 0.61375 0.76762 0.0
C174 C 0.70317 0.59036 0.68424 0.0
C175 C 0.73437 0.56569 0.81033 0.0
C176 C 0.71512 0.59879 0.84694 0.0
C177 C 0.86268 0.56214 0.60309 0.0
O178 O 0.90757 0.58307 0.54841 0.0
H179 H 0.69135 0.59441 0.60764 0.0
H180 H 0.75044 0.54513 0.85602 0.0
O181 O 0.69172 0.50076 0.50624 0.0
H182 H 0.66201 0.33143 0.77374 0.0
H183 H 0.71434 0.60972 0.92579 0.0
Cu184 Cu 0.26841 0.72299 0.783 0.0
N185 N 0.32308 0.71096 0.83914 0.0
N186 N 0.40441 0.71745 0.8638 0.0
C187 C 0.37754 0.74073 0.82186 0.0
C188 C 0.36606 0.67052 0.90626 0.0
C189 C 0.31583 0.66683 0.89176 0.0
O190 O 0.30465 0.79795 0.73009 0.0
C191 C 0.22685 0.67492 0.57821 0.0
O192 O 0.24665 0.72328 0.53604 0.0
H193 H 0.39704 0.77759 0.77668 0.0
H194 H 0.27648 0.63306 0.91376 0.0
N195 N 0.21007 0.70645 0.87465 0.0
N196 N 0.12481 0.67381 0.93404 0.0
C197 C 0.15614 0.68164 0.85074 0.0
C198 C 0.21198 0.71297 0.97686 0.0
C199 C 0.15961 0.69375 1.01338 0.0
C200 C 0.34411 0.84108 0.76977 0.0
O201 O 0.36813 0.88597 0.71509 0.0
H202 H 0.14028 0.66973 0.77415 0.0
H203 H 0.24859 0.72909 1.02262 0.0
O204 O 0.23427 0.67019 0.67287 0.0
H205 H 0.37365 0.64018 0.94065 0.0
H206 H 0.14787 0.69305 0.09219 0.0
Cu207 Cu 0.58883 0.24672 0.94952 0.0
N208 N 0.65549 0.30148 1.00564 0.0
N209 N 0.73024 0.38288 1.03031 0.0
C210 C 0.68009 0.35594 0.98842 0.0
C211 C 0.73894 0.34459 0.07266 0.0
C212 C 0.69245 0.29431 1.05817 0.0
O213 O 0.54996 0.28282 0.89666 0.0
C214 C 0.59538 0.20518 0.74475 0.0
O215 O 0.56671 0.22486 0.70258 0.0
H216 H 0.66265 0.37537 0.94327 0.0
H217 H 0.68698 0.25499 0.08009 0.0
N218 N 0.54712 0.18836 1.04122 0.0
N219 N 0.49461 0.1031 0.10065 0.0
C220 C 0.51799 0.13444 1.0173 0.0
C221 C 0.54266 0.19025 0.14346 0.0
C222 C 0.50958 0.13788 0.18002 0.0
C223 C 0.54615 0.32217 0.93641 0.0
O224 O 0.5252 0.34612 0.88178 0.0
H225 H 0.51394 0.11859 0.94068 0.0
H226 H 0.56322 0.22687 0.1892 0.0
O227 O 0.60756 0.21265 0.83939 0.0
H228 H 0.77692 0.35224 0.10697 0.0
H229 H 0.49865 0.12613 0.25886 0.0
Cu230 Cu 0.38533 0.56697 0.1165 0.0
N231 N 0.39736 0.63368 0.17257 0.0
N232 N 0.39088 0.70852 0.1971 0.0
C233 C 0.36757 0.65835 0.1553 0.0
C234 C 0.43785 0.71715 0.23946 0.0
C235 C 0.44154 0.67061 0.22505 0.0
O236 O 0.31035 0.5282 0.06365 0.0
C237 C 0.43335 0.57351 0.91168 0.0
O238 O 0.38498 0.54499 0.8695 0.0
H239 H 0.33068 0.64094 0.11018 0.0
H240 H 0.47534 0.66508 0.24699 0.0
N241 N 0.40189 0.52519 0.20819 0.0
N242 N 0.43453 0.47257 0.26758 0.0
C243 C 0.42666 0.49605 0.18426 0.0
C244 C 0.39544 0.52063 0.31041 0.0
C245 C 0.41466 0.48749 0.34694 0.0
C246 C 0.2672 0.52448 0.10336 0.0
O247 O 0.2223 0.50356 1.04871 0.0
H248 H 0.4385 0.49205 0.10766 0.0
H249 H 0.37937 0.54116 0.35617 0.0
O250 O 0.4381 0.58562 1.00635 0.0
H251 H 0.46822 0.75512 0.27372 0.0
H252 H 0.41541 0.47648 0.42576 0.0
Cu253 Cu 0.8616 0.36375 0.2829 0.0
N254 N 0.80684 0.37565 0.33898 0.0
N255 N 0.72545 0.36899 0.36362 0.0
C256 C 0.75238 0.34579 0.3217 0.0
C257 C 0.76374 0.41595 0.40606 0.0
C258 C 0.81402 0.41975 0.39158 0.0
O259 O 0.82547 0.28879 0.22999 0.0
C260 C 0.90316 0.41187 0.07818 0.0
O261 O 0.88346 0.36353 1.036 0.0
H262 H 0.73294 0.30893 0.27651 0.0
H263 H 0.85333 0.45358 0.41358 0.0
N264 N 0.91992 0.38035 0.37467 0.0
N265 N 1.00516 0.41303 0.43421 0.0
C266 C 0.97385 0.40509 0.35082 0.0
C267 C 0.918 0.374 0.47692 0.0
C268 C 0.97036 0.39324 0.51354 0.0
C269 C 0.78609 0.24562 0.26971 0.0
O270 O 0.76212 0.20072 0.21506 0.0
H271 H 0.98971 0.41688 0.27421 0.0
H272 H 0.88138 0.35797 0.52261 0.0
O273 O 0.8957 0.41657 0.17282 0.0
H274 H 0.75608 0.44626 0.44042 0.0
H275 H 0.98209 0.39406 0.5924 0.0
loop_
_geom_bond_atom_site_label_1
_geom_bond_atom_site_label_2
_geom_bond_distance
_geom_bond_site_symmetry_2
_ccdc_geom_bond_type
Cu0 N1 1.999 . S
Cu0 O6 1.974 . S
Cu0 N11 1.985 . S
Cu0 O20 1.959 . S
N1 Cu0 1.999 . S
N1 C3 1.263 . S
N1 C5 1.389 . S
N2 C3 1.358 . S
N2 C4 1.400 . S
C3 N1 1.263 . S
C3 N2 1.358 . S
C3 H9 0.930 . S
C4 N2 1.400 . S
C4 C5 1.351 . S
C4 H21 0.930 . S
C5 N1 1.389 . S
C5 C4 1.351 . S
C5 H10 0.930 . S
O6 Cu0 1.974 . S
O6 C16 1.282 . S
C7 O8 1.261 . S
C7 O20 1.251 . S
O8 C7 1.261 . S
H9 C3 0.930 . S
H10 C5 0.930 . S
N11 Cu0 1.985 . S
N11 C13 1.335 . S
N11 C14 1.390 . S
N12 C13 1.345 . S
N12 C15 1.336 . S
C13 N11 1.335 . S
C13 N12 1.345 . S
C13 H18 0.930 . S
C14 N11 1.390 . S
C14 C15 1.346 . S
C14 H19 0.930 . S
C15 N12 1.336 . S
C15 C14 1.346 . S
C15 H22 0.929 . S
C16 O6 1.282 . S
C16 O17 1.216 . S
O17 C16 1.216 . S
H18 C13 0.930 . S
H19 C14 0.930 . S
O20 Cu0 1.959 . S
O20 C7 1.251 . S
H21 C4 0.930 . S
H22 C15 0.929 . S
Cu23 N24 1.999 . S
Cu23 O29 1.974 . S
Cu23 N34 1.985 . S
Cu23 O43 1.959 . S
N24 Cu23 1.999 . S
N24 C26 1.263 . S
N24 C28 1.389 . S
N25 C26 1.358 . S
N25 C27 1.400 . S
C26 N24 1.263 . S
C26 N25 1.358 . S
C26 H32 0.930 . S
C27 N25 1.400 . S
C27 C28 1.351 . S
C27 H44 0.930 . S
C28 N24 1.389 . S
C28 C27 1.351 . S
C28 H33 0.930 . S
O29 Cu23 1.974 . S
O29 C39 1.282 . S
C30 O31 1.261 . S
C30 O43 1.251 . S
O31 C30 1.261 . S
H32 C26 0.930 . S
H33 C28 0.930 . S
N34 Cu23 1.985 . S
N34 C36 1.335 . S
N34 C37 1.390 . S
N35 C36 1.345 . S
N35 C38 1.336 . S
C36 N34 1.335 . S
C36 N35 1.345 . S
C36 H41 0.930 . S
C37 N34 1.390 . S
C37 C38 1.346 . S
C37 H42 0.930 . S
C38 N35 1.336 . S
C38 C37 1.346 . S
C38 H45 0.929 . S
C39 O29 1.282 . S
C39 O40 1.216 . S
O40 C39 1.216 . S
H41 C36 0.930 . S
H42 C37 0.930 . S
O43 Cu23 1.959 . S
O43 C30 1.251 . S
H44 C27 0.930 . S
H45 C38 0.929 . S
Cu46 N47 1.999 . S
Cu46 O52 1.974 . S
Cu46 N57 1.985 . S
Cu46 O66 1.959 . S
N47 Cu46 1.999 . S
N47 C49 1.263 . S
N47 C51 1.389 . S
N48 C49 1.358 . S
N48 C50 1.400 . S
C49 N47 1.263 . S
C49 N48 1.358 . S
C49 H55 0.930 . S
C50 N48 1.400 . S
C50 C51 1.351 . S
C50 H67 0.930 . S
C51 N47 1.389 . S
C51 C50 1.351 . S
C51 H56 0.930 . S
O52 Cu46 1.974 . S
O52 C62 1.282 . S
C53 O54 1.261 . S
C53 O66 1.251 . S
O54 C53 1.261 . S
H55 C49 0.930 . S
H56 C51 0.930 . S
N57 Cu46 1.985 . S
N57 C59 1.335 . S
N57 C60 1.390 . S
N58 C59 1.345 . S
N58 C61 1.336 . S
C59 N57 1.335 . S
C59 N58 1.345 . S
C59 H64 0.930 . S
C60 N57 1.390 . S
C60 C61 1.346 . S
C60 H65 0.930 . S
C61 N58 1.336 . S
C61 C60 1.346 . S
C61 H68 0.929 . S
C62 O52 1.282 . S
C62 O63 1.216 . S
O63 C62 1.216 . S
H64 C59 0.930 . S
H65 C60 0.930 . S
O66 Cu46 1.959 . S
O66 C53 1.251 . S
H67 C50 0.930 . S
H68 C61 0.929 . S
Cu69 N70 1.999 . S
Cu69 O75 1.974 . S
Cu69 N80 1.985 . S
Cu69 O89 1.959 . S
N70 Cu69 1.999 . S
N70 C72 1.263 . S
N70 C74 1.389 . S
N71 C72 1.358 . S
N71 C73 1.400 . S
C72 N70 1.263 . S
C72 N71 1.358 . S
C72 H78 0.930 . S
C73 N71 1.400 . S
C73 C74 1.351 . S
C73 H90 0.930 . S
C74 N70 1.389 . S
C74 C73 1.351 . S
C74 H79 0.930 . S
O75 Cu69 1.974 . S
O75 C85 1.282 . S
C76 O77 1.261 . S
C76 O89 1.251 1_554 S
O77 C76 1.261 . S
H78 C72 0.930 . S
H79 C74 0.930 . S
N80 Cu69 1.985 . S
N80 C82 1.335 . S
N80 C83 1.390 . S
N81 C82 1.345 . S
N81 C84 1.336 . S
C82 N80 1.335 . S
C82 N81 1.345 . S
C82 H87 0.930 . S
C83 N80 1.390 . S
C83 C84 1.346 . S
C83 H88 0.930 . S
C84 N81 1.336 . S
C84 C83 1.346 . S
C84 H91 0.929 . S
C85 O75 1.282 . S
C85 O86 1.216 . S
O86 C85 1.216 . S
H87 C82 0.930 . S
H88 C83 0.930 . S
O89 Cu69 1.959 . S
O89 C76 1.251 1_556 S
H90 C73 0.930 . S
H91 C84 0.929 . S
Cu92 N93 1.999 . S
Cu92 O98 1.974 1_554 S
Cu92 N103 1.985 . S
Cu92 O112 1.959 . S
N93 Cu92 1.999 . S
N93 C95 1.263 . S
N93 C97 1.389 . S
N94 C95 1.358 . S
N94 C96 1.400 . S
C95 N93 1.263 . S
C95 N94 1.358 . S
C95 H101 0.930 . S
C96 N94 1.400 . S
C96 C97 1.351 . S
C96 H113 0.930 . S
C97 N93 1.389 . S
C97 C96 1.351 . S
C97 H102 0.930 . S
O98 Cu92 1.974 1_556 S
O98 C108 1.282 . S
C99 O100 1.261 . S
C99 O112 1.251 . S
O100 C99 1.261 . S
H101 C95 0.930 . S
H102 C97 0.930 . S
N103 Cu92 1.985 . S
N103 C105 1.335 . S
N103 C106 1.390 . S
N104 C105 1.345 . S
N104 C107 1.336 . S
C105 N103 1.335 . S
C105 N104 1.345 . S
C105 H110 0.930 . S
C106 N103 1.390 . S
C106 C107 1.346 . S
C106 H111 0.930 1_554 S
C107 N104 1.336 . S
C107 C106 1.346 . S
C107 H114 0.929 1_554 S
C108 O98 1.282 . S
C108 O109 1.216 1_556 S
O109 C108 1.216 1_554 S
H110 C105 0.930 . S
H111 C106 0.930 1_556 S
O112 Cu92 1.959 . S
O112 C99 1.251 . S
H113 C96 0.930 . S
H114 C107 0.929 1_556 S
Cu115 N116 1.999 . S
Cu115 O121 1.974 . S
Cu115 N126 1.985 . S
Cu115 O135 1.959 . S
N116 Cu115 1.999 . S
N116 C118 1.263 . S
N116 C120 1.389 . S
N117 C118 1.358 . S
N117 C119 1.400 . S
C118 N116 1.263 . S
C118 N117 1.358 . S
C118 H124 0.930 . S
C119 N117 1.400 . S
C119 C120 1.351 . S
C119 H136 0.930 . S
C120 N116 1.389 . S
C120 C119 1.351 . S
C120 H125 0.930 . S
O121 Cu115 1.974 . S
O121 C131 1.282 . S
C122 O123 1.261 . S
C122 O135 1.251 . S
O123 C122 1.261 . S
H124 C118 0.930 . S
H125 C120 0.930 . S
N126 Cu115 1.985 . S
N126 C128 1.335 . S
N126 C129 1.390 . S
N127 C128 1.345 . S
N127 C130 1.336 . S
C128 N126 1.335 . S
C128 N127 1.345 . S
C128 H133 0.930 . S
C129 N126 1.390 . S
C129 C130 1.346 . S
C129 H134 0.930 . S
C130 N127 1.336 . S
C130 C129 1.346 . S
C130 H137 0.929 . S
C131 O121 1.282 . S
C131 O132 1.216 . S
O132 C131 1.216 . S
H133 C128 0.930 . S
H134 C129 0.930 . S
O135 Cu115 1.959 . S
O135 C122 1.251 . S
H136 C119 0.930 . S
H137 C130 0.929 . S
Cu138 N139 1.999 . S
Cu138 O144 1.974 . S
Cu138 N149 1.985 . S
Cu138 O158 1.959 . S
N139 Cu138 1.999 . S
N139 C141 1.263 . S
N139 C143 1.389 . S
N140 C141 1.358 . S
N140 C142 1.400 . S
C141 N139 1.263 . S
C141 N140 1.358 . S
C141 H147 0.930 . S
C142 N140 1.400 . S
C142 C143 1.351 . S
C142 H159 0.930 . S
C143 N139 1.389 . S
C143 C142 1.351 . S
C143 H148 0.930 . S
O144 Cu138 1.974 . S
O144 C154 1.282 . S
C145 O146 1.261 . S
C145 O158 1.251 . S
O146 C145 1.261 . S
H147 C141 0.930 . S
H148 C143 0.930 . S
N149 Cu138 1.985 . S
N149 C151 1.335 . S
N149 C152 1.390 . S
N150 C151 1.345 . S
N150 C153 1.336 . S
C151 N149 1.335 . S
C151 N150 1.345 . S
C151 H156 0.930 . S
C152 N149 1.390 . S
C152 C153 1.346 . S
C152 H157 0.930 . S
C153 N150 1.336 . S
C153 C152 1.346 . S
C153 H160 0.929 . S
C154 O144 1.282 . S
C154 O155 1.216 . S
O155 C154 1.216 . S
H156 C151 0.930 . S
H157 C152 0.930 . S
O158 Cu138 1.959 . S
O158 C145 1.251 . S
H159 C142 0.930 . S
H160 C153 0.929 . S
Cu161 N162 1.999 . S
Cu161 O167 1.974 . S
Cu161 N172 1.985 . S
Cu161 O181 1.959 . S
N162 Cu161 1.999 . S
N162 C164 1.263 . S
N162 C166 1.389 . S
N163 C164 1.358 . S
N163 C165 1.400 . S
C164 N162 1.263 . S
C164 N163 1.358 . S
C164 H170 0.930 . S
C165 N163 1.400 . S
C165 C166 1.351 . S
C165 H182 0.930 . S
C166 N162 1.389 . S
C166 C165 1.351 . S
C166 H171 0.930 . S
O167 Cu161 1.974 . S
O167 C177 1.282 . S
C168 O169 1.261 . S
C168 O181 1.251 . S
O169 C168 1.261 . S
H170 C164 0.930 . S
H171 C166 0.930 . S
N172 Cu161 1.985 . S
N172 C174 1.335 . S
N172 C175 1.390 . S
N173 C174 1.345 . S
N173 C176 1.336 . S
C174 N172 1.335 . S
C174 N173 1.345 . S
C174 H179 0.930 . S
C175 N172 1.390 . S
C175 C176 1.346 . S
C175 H180 0.930 . S
C176 N173 1.336 . S
C176 C175 1.346 . S
C176 H183 0.929 . S
C177 O167 1.282 . S
C177 O178 1.216 . S
O178 C177 1.216 . S
H179 C174 0.930 . S
H180 C175 0.930 . S
O181 Cu161 1.959 . S
O181 C168 1.251 . S
H182 C165 0.930 . S
H183 C176 0.929 . S
Cu184 N185 1.999 . S
Cu184 O190 1.974 . S
Cu184 N195 1.985 . S
Cu184 O204 1.959 . S
N185 Cu184 1.999 . S
N185 C187 1.263 . S
N185 C189 1.389 . S
N186 C187 1.358 . S
N186 C188 1.400 . S
C187 N185 1.263 . S
C187 N186 1.358 . S
C187 H193 0.930 . S
C188 N186 1.400 . S
C188 C189 1.351 . S
C188 H205 0.930 . S
C189 N185 1.389 . S
C189 C188 1.351 . S
C189 H194 0.930 . S
O190 Cu184 1.974 . S
O190 C200 1.282 . S
C191 O192 1.261 . S
C191 O204 1.251 . S
O192 C191 1.261 . S
H193 C187 0.930 . S
H194 C189 0.930 . S
N195 Cu184 1.985 . S
N195 C197 1.335 . S
N195 C198 1.390 . S
N196 C197 1.345 . S
N196 C199 1.336 . S
C197 N195 1.335 . S
C197 N196 1.345 . S
C197 H202 0.930 . S
C198 N195 1.390 . S
C198 C199 1.346 . S
C198 H203 0.930 . S
C199 N196 1.336 . S
C199 C198 1.346 . S
C199 H206 0.929 . S
C200 O190 1.282 . S
C200 O201 1.216 . S
O201 C200 1.216 . S
H202 C197 0.930 . S
H203 C198 0.930 . S
O204 Cu184 1.959 . S
O204 C191 1.251 . S
H205 C188 0.930 . S
H206 C199 0.929 . S
Cu207 N208 1.999 . S
Cu207 O213 1.974 1_556 S
Cu207 N218 1.985 . S
Cu207 O227 1.959 . S
N208 Cu207 1.999 . S
N208 C210 1.263 . S
N208 C212 1.389 . S
N209 C210 1.358 . S
N209 C211 1.400 . S
C210 N208 1.263 . S
C210 N209 1.358 . S
C210 H216 0.930 . S
C211 N209 1.400 . S
C211 C212 1.351 . S
C211 H228 0.930 . S
C212 N208 1.389 . S
C212 C211 1.351 . S
C212 H217 0.930 . S
O213 Cu207 1.974 1_554 S
O213 C223 1.282 . S
C214 O215 1.261 . S
C214 O227 1.251 . S
O215 C214 1.261 . S
H216 C210 0.930 . S
H217 C212 0.930 . S
N218 Cu207 1.985 . S
N218 C220 1.335 . S
N218 C221 1.390 . S
N219 C220 1.345 . S
N219 C222 1.336 . S
C220 N218 1.335 . S
C220 N219 1.345 . S
C220 H225 0.930 . S
C221 N218 1.390 . S
C221 C222 1.346 . S
C221 H226 0.930 1_556 S
C222 N219 1.336 . S
C222 C221 1.346 . S
C222 H229 0.929 1_556 S
C223 O213 1.282 . S
C223 O224 1.216 1_554 S
O224 C223 1.216 1_556 S
H225 C220 0.930 . S
H226 C221 0.930 1_554 S
O227 Cu207 1.959 . S
O227 C214 1.251 . S
H228 C211 0.930 . S
H229 C222 0.929 1_554 S
Cu230 N231 1.999 . S
Cu230 O236 1.974 . S
Cu230 N241 1.985 . S
Cu230 O250 1.959 . S
N231 Cu230 1.999 . S
N231 C233 1.263 . S
N231 C235 1.389 . S
N232 C233 1.358 . S
N232 C234 1.400 . S
C233 N231 1.263 . S
C233 N232 1.358 . S
C233 H239 0.930 . S
C234 N232 1.400 . S
C234 C235 1.351 . S
C234 H251 0.930 . S
C235 N231 1.389 . S
C235 C234 1.351 . S
C235 H240 0.930 . S
O236 Cu230 1.974 . S
O236 C246 1.282 . S
C237 O238 1.261 . S
C237 O250 1.251 1_556 S
O238 C237 1.261 . S
H239 C233 0.930 . S
H240 C235 0.930 . S
N241 Cu230 1.985 . S
N241 C243 1.335 . S
N241 C244 1.390 . S
N242 C243 1.345 . S
N242 C245 1.336 . S
C243 N241 1.335 . S
C243 N242 1.345 . S
C243 H248 0.930 . S
C244 N241 1.390 . S
C244 C245 1.346 . S
C244 H249 0.930 . S
C245 N242 1.336 . S
C245 C244 1.346 . S
C245 H252 0.929 . S
C246 O236 1.282 . S
C246 O247 1.216 . S
O247 C246 1.216 . S
H248 C243 0.930 . S
H249 C244 0.930 . S
O250 Cu230 1.959 . S
O250 C237 1.251 1_554 S
H251 C234 0.930 . S
H252 C245 0.929 . S
Cu253 N254 1.999 . S
Cu253 O259 1.974 . S
Cu253 N264 1.985 . S
Cu253 O273 1.959 . S
N254 Cu253 1.999 . S
N254 C256 1.263 . S
N254 C258 1.389 . S
N255 C256 1.358 . S
N255 C257 1.400 . S
C256 N254 1.263 . S
C256 N255 1.358 . S
C256 H262 0.930 . S
C257 N255 1.400 . S
C257 C258 1.351 . S
C257 H274 0.930 . S
C258 N254 1.389 . S
C258 C257 1.351 . S
C258 H263 0.930 . S
O259 Cu253 1.974 . S
O259 C269 1.282 . S
C260 O261 1.261 . S
C260 O273 1.251 . S
O261 C260 1.261 . S
H262 C256 0.930 . S
H263 C258 0.930 . S
N264 Cu253 1.985 . S
N264 C266 1.335 . S
N264 C267 1.390 . S
N265 C266 1.345 . S
N265 C268 1.336 . S
C266 N264 1.335 . S
C266 N265 1.345 . S
C266 H271 0.930 . S
C267 N264 1.390 . S
C267 C268 1.346 . S
C267 H272 0.930 . S
C268 N265 1.336 . S
C268 C267 1.346 . S
C268 H275 0.929 . S
C269 O259 1.282 . S
C269 O270 1.216 . S
O270 C269 1.216 . S
H271 C266 0.930 . S
H272 C267 0.930 . S
O273 Cu253 1.959 . S
O273 C260 1.251 . S
H274 C257 0.930 . S
H275 C268 0.929 . S
N2 N140 1.139 . S
N25 N163 1.139 . S
N186 N48 1.139 . S
N71 N209 1.139 . S
N94 N232 1.139 . S
N255 N117 1.139 . S
C191 C7 2.322 . S
C30 C214 2.322 . S
C237 C53 2.322 . S
C260 C76 2.322 . S
C99 C145 2.322 . S
C122 C168 2.322 . S
N265 N12 2.169 1_655 S
N150 N35 2.169 1_565 S
N58 N173 2.169 . S
N196 N81 2.169 1_455 S
N219 N104 2.169 1_546 S
N242 N127 2.169 . S
C16 C246 1.968 . S
C269 C39 1.968 . S
C62 C154 1.968 . S
C85 C177 1.968 . S
C108 C200 1.968 . S
C131 C223 1.968 . S
