# Generated by pormake.
# Topology atn, (4)-cn, num edge types: 1
# Building blocks:
#     Node 0, Type 0, BuildingBlock: CEKHIL_clean_sbu_0, # of connection points: 4
#     Node 1, Type 0, BuildingBlock: CEKHIL_clean_sbu_0, # of connection points: 4
#     Node 2, Type 0, BuildingBlock: CEKHIL_clean_sbu_0, # of connection points: 4
#     Node 3, Type 0, BuildingBlock: CEKHIL_clean_sbu_0, # of connection points: 4
#     Node 4, Type 0, BuildingBlock: CEKHIL_clean_sbu_0, # of connection points: 4
#     Node 5, Type 0, BuildingBlock: CEKHIL_clean_sbu_0, # of connection points: 4
#     Node 6, Type 0, BuildingBlock: CEKHIL_clean_sbu_0, # of connection points: 4
#     Node 7, Type 0, BuildingBlock: CEKHIL_clean_sbu_0, # of connection points: 4
#     Node 8, Type 0, BuildingBlock: CEKHIL_clean_sbu_0, # of connection points: 4
#     Node 9, Type 0, BuildingBlock: CEKHIL_clean_sbu_0, # of connection points: 4
#     Node 10, Type 0, BuildingBlock: CEKHIL_clean_sbu_0, # of connection points: 4
#     Node 11, Type 0, BuildingBlock: CEKHIL_clean_sbu_0, # of connection points: 4
#     Node 12, Type 0, BuildingBlock: CEKHIL_clean_sbu_0, # of connection points: 4
#     Node 13, Type 0, BuildingBlock: CEKHIL_clean_sbu_0, # of connection points: 4
#     Node 14, Type 0, BuildingBlock: CEKHIL_clean_sbu_0, # of connection points: 4
#     Node 15, Type 0, BuildingBlock: CEKHIL_clean_sbu_0, # of connection points: 4
#     Edge 16, Type (0, 0), BuildingBlock: TEMPAE_clean_linker_10, # of connection points: 2
#     Edge 17, Type (0, 0), BuildingBlock: TEMPAE_clean_linker_10, # of connection points: 2
#     Edge 18, Type (0, 0), BuildingBlock: TEMPAE_clean_linker_10, # of connection points: 2
#     Edge 19, Type (0, 0), BuildingBlock: TEMPAE_clean_linker_10, # of connection points: 2
#     Edge 20, Type (0, 0), BuildingBlock: TEMPAE_clean_linker_10, # of connection points: 2
#     Edge 21, Type (0, 0), BuildingBlock: TEMPAE_clean_linker_10, # of connection points: 2
#     Edge 22, Type (0, 0), BuildingBlock: TEMPAE_clean_linker_10, # of connection points: 2
#     Edge 23, Type (0, 0), BuildingBlock: TEMPAE_clean_linker_10, # of connection points: 2
#     Edge 24, Type (0, 0), BuildingBlock: TEMPAE_clean_linker_10, # of connection points: 2
#     Edge 25, Type (0, 0), BuildingBlock: TEMPAE_clean_linker_10, # of connection points: 2
#     Edge 26, Type (0, 0), BuildingBlock: TEMPAE_clean_linker_10, # of connection points: 2
#     Edge 27, Type (0, 0), BuildingBlock: TEMPAE_clean_linker_10, # of connection points: 2
#     Edge 28, Type (0, 0), BuildingBlock: TEMPAE_clean_linker_10, # of connection points: 2
#     Edge 29, Type (0, 0), BuildingBlock: TEMPAE_clean_linker_10, # of connection points: 2
#     Edge 30, Type (0, 0), BuildingBlock: TEMPAE_clean_linker_10, # of connection points: 2
#     Edge 31, Type (0, 0), BuildingBlock: TEMPAE_clean_linker_10, # of connection points: 2
#     Edge 32, Type (0, 0), BuildingBlock: TEMPAE_clean_linker_10, # of connection points: 2
#     Edge 33, Type (0, 0), BuildingBlock: TEMPAE_clean_linker_10, # of connection points: 2
#     Edge 34, Type (0, 0), BuildingBlock: TEMPAE_clean_linker_10, # of connection points: 2
#     Edge 35, Type (0, 0), BuildingBlock: TEMPAE_clean_linker_10, # of connection points: 2
#     Edge 36, Type (0, 0), BuildingBlock: TEMPAE_clean_linker_10, # of connection points: 2
#     Edge 37, Type (0, 0), BuildingBlock: TEMPAE_clean_linker_10, # of connection points: 2
#     Edge 38, Type (0, 0), BuildingBlock: TEMPAE_clean_linker_10, # of connection points: 2
#     Edge 39, Type (0, 0), BuildingBlock: TEMPAE_clean_linker_10, # of connection points: 2
#     Edge 40, Type (0, 0), BuildingBlock: TEMPAE_clean_linker_10, # of connection points: 2
#     Edge 41, Type (0, 0), BuildingBlock: TEMPAE_clean_linker_10, # of connection points: 2
#     Edge 42, Type (0, 0), BuildingBlock: TEMPAE_clean_linker_10, # of connection points: 2
#     Edge 43, Type (0, 0), BuildingBlock: TEMPAE_clean_linker_10, # of connection points: 2
#     Edge 44, Type (0, 0), BuildingBlock: TEMPAE_clean_linker_10, # of connection points: 2
#     Edge 45, Type (0, 0), BuildingBlock: TEMPAE_clean_linker_10, # of connection points: 2
#     Edge 46, Type (0, 0), BuildingBlock: TEMPAE_clean_linker_10, # of connection points: 2
#     Edge 47, Type (0, 0), BuildingBlock: TEMPAE_clean_linker_10, # of connection points: 2
# Relax obj value: 0.034
# Max RMSD: 0.063
# Mean RMSD: 0.063
data_MOF--net-atn--node1-CEKHIL_clean_sbu_0--edge1-TEMPAE_clean_linker_10
_symmetry_space_group_name_H-M    P1
_symmetry_Int_Tables_number       1
_symmetry_cell_setting            triclinic
loop_
_symmetry_equiv_pos_as_xyz
'x, y, z'
_cell_length_a     60.048542
_cell_length_b     60.032995
_cell_length_c     27.476466
_cell_angle_alpha  89.995391
_cell_angle_beta   90.012679
_cell_angle_gamma 90.016783
loop_
_atom_site_label
_atom_site_type_symbol
_atom_site_fract_x
_atom_site_fract_y
_atom_site_fract_z
_atom_type_partial_charge
Co0 Co 0.19692 0.38284 0.97923 0.0
O1 O 0.18309 0.41184 0.98131 0.0
O2 O 0.21735 0.40458 0.00653 0.0
C3 C 0.18677 0.37555 0.90198 0.0
O4 O 0.21736 0.35552 0.9808 0.0
Co5 Co 0.16985 0.33959 0.95992 0.0
O6 O 0.19956 0.32639 0.94732 0.0
C7 C 0.16936 0.36035 0.05808 0.0
C8 C 0.20178 0.41918 -0.00139 0.0
C9 C 0.21719 0.33549 0.96378 0.0
O10 O 0.18405 0.37496 0.04529 0.0
O11 O 0.16084 0.34622 0.02853 0.0
O12 O 0.2045 0.38728 0.91064 0.0
O13 O 0.17522 0.36981 0.93942 0.0
Co14 Co 0.62475 0.19793 0.98355 0.0
O15 O 0.59629 0.18347 0.97764 0.0
O16 O 0.60109 0.21741 0.00693 0.0
C17 C 0.63638 0.18878 0.90796 0.0
O18 O 0.65157 0.21861 0.99229 0.0
Co19 Co 0.66846 0.17036 0.97593 0.0
O20 O 0.68198 0.20024 0.96618 0.0
C21 C 0.64206 0.16899 0.06654 0.0
C22 C 0.58741 0.2016 0.99427 0.0
C23 C 0.67227 0.21808 0.97979 0.0
O24 O 0.62944 0.18485 0.05086 0.0
O25 O 0.65706 0.15963 0.04049 0.0
O26 O 0.62367 0.20603 0.91453 0.0
O27 O 0.64012 0.17689 0.94616 0.0
Co28 Co 0.80708 0.62378 0.98915 0.0
O29 O 0.82066 0.59468 0.98926 0.0
O30 O 0.78619 0.60176 0.01341 0.0
C31 C 0.81769 0.63294 0.91313 0.0
O32 O 0.787 0.65122 0.99242 0.0
Co33 Co 0.83547 0.66662 0.97777 0.0
O34 O 0.80616 0.68106 0.96629 0.0
C35 C 0.8353 0.64255 0.0716 0.0
C36 C 0.80179 0.5872 0.00528 0.0
C37 C 0.78798 0.67178 0.97906 0.0
O38 O 0.81922 0.63 0.05672 0.0
O39 O 0.84527 0.65661 0.04413 0.0
O40 O 0.79997 0.62098 0.92 0.0
O41 O 0.82928 0.63746 0.9514 0.0
Co42 Co 0.38142 0.80956 0.98792 0.0
O43 O 0.40953 0.82462 0.98135 0.0
O44 O 0.40571 0.7903 0.00915 0.0
C45 C 0.36879 0.81923 0.91346 0.0
O46 O 0.35505 0.78831 0.99676 0.0
Co47 Co 0.33736 0.83669 0.98432 0.0
O48 O 0.32404 0.80671 0.97447 0.0
C49 C 0.36481 0.83748 0.0732 0.0
C50 C 0.41894 0.80652 0.99663 0.0
C51 C 0.33414 0.78877 0.98595 0.0
O52 O 0.37722 0.82177 0.05616 0.0
O53 O 0.34952 0.84711 0.04847 0.0
O54 O 0.38187 0.80216 0.91854 0.0
O55 O 0.36532 0.83075 0.95234 0.0
Co56 Co 0.19734 0.62297 0.00492 0.0
O57 O 0.18265 0.59441 0.00196 0.0
O58 O 0.21765 0.60045 0.98042 0.0
C59 C 0.18588 0.63115 0.08079 0.0
O60 O 0.21855 0.64976 0.00478 0.0
Co61 Co 0.17096 0.66707 0.02025 0.0
O62 O 0.20071 0.6793 0.03649 0.0
C63 C 0.17201 0.64561 0.92286 0.0
C64 C 0.20146 0.58635 0.98693 0.0
C65 C 0.21846 0.66978 0.0219 0.0
O66 O 0.18606 0.63075 0.93747 0.0
O67 O 0.16329 0.66021 0.951 0.0
O68 O 0.20333 0.61874 0.07429 0.0
O69 O 0.17526 0.63689 0.04205 0.0
Co70 Co 0.38189 0.19827 0.00934 0.0
O71 O 0.41036 0.184 0.01635 0.0
O72 O 0.4056 0.21772 0.98589 0.0
C73 C 0.36996 0.18959 0.08492 0.0
O74 O 0.35499 0.21872 -0.0006 0.0
Co75 Co 0.3385 0.17028 0.01639 0.0
O76 O 0.32447 0.20006 0.02388 0.0
C77 C 0.36546 0.16852 0.92684 0.0
C78 C 0.41927 0.20202 -0.00071 0.0
C79 C 0.33413 0.21799 0.0106 0.0
O80 O 0.37764 0.18476 0.94231 0.0
O81 O 0.3505 0.15902 0.95276 0.0
O82 O 0.38254 0.2069 0.07804 0.0
O83 O 0.36652 0.17733 0.04712 0.0
Co84 Co 0.80823 0.38376 0.01046 0.0
O85 O 0.82163 0.41294 0.00964 0.0
O86 O 0.7869 0.40569 0.98758 0.0
C87 C 0.8199 0.37459 0.08582 0.0
O88 O 0.78841 0.3561 0.00813 0.0
Co89 Co 0.8374 0.34127 0.01979 0.0
O90 O 0.80837 0.32628 0.03155 0.0
C91 C 0.83595 0.36578 0.92675 0.0
C92 C 0.80253 0.42033 0.99476 0.0
C93 C 0.78989 0.33541 0.02029 0.0
O94 O 0.81955 0.37771 0.94227 0.0
O95 O 0.84667 0.35205 0.95364 0.0
O96 O 0.80203 0.38646 0.08005 0.0
O97 O 0.83097 0.37024 0.04674 0.0
Co98 Co 0.62452 0.81139 0.00868 0.0
O99 O 0.59648 0.82691 0.01094 0.0
O100 O 0.6006 0.79228 0.98523 0.0
C101 C 0.63502 0.82183 0.08408 0.0
O102 O 0.6506 0.78944 0.00393 0.0
Co103 Co 0.66977 0.83638 0.01984 0.0
O104 O 0.68101 0.80612 0.03485 0.0
C105 C 0.64652 0.8359 0.92443 0.0
C106 C 0.58725 0.80871 0.99555 0.0
C107 C 0.67081 0.78881 0.01988 0.0
O108 O 0.63093 0.82313 0.94089 0.0
O109 O 0.66241 0.84356 0.95062 0.0
O110 O 0.62192 0.8048 0.07828 0.0
O111 O 0.64012 0.83257 0.04509 0.0
Co112 Co 0.69698 0.8844 0.48688 0.0
O113 O 0.68211 0.91282 0.48779 0.0
O114 O 0.71658 0.90723 0.51314 0.0
C115 C 0.68693 0.87601 0.41023 0.0
O116 O 0.71831 0.85776 0.48933 0.0
Co117 Co 0.67113 0.84015 0.46993 0.0
O118 O 0.70122 0.82819 0.45584 0.0
C119 C 0.67041 0.86175 0.56716 0.0
C120 C 0.70048 0.9212 0.50453 0.0
C121 C 0.71865 0.8378 0.47197 0.0
O122 O 0.68453 0.87673 0.55342 0.0
O123 O 0.66226 0.84703 0.53849 0.0
O124 O 0.70427 0.88843 0.41804 0.0
O125 O 0.67564 0.87028 0.44804 0.0
Co126 Co 0.12391 0.6954 0.48279 0.0
O127 O 0.09589 0.67982 0.48204 0.0
O128 O 0.10023 0.71444 0.50759 0.0
C129 C 0.1334 0.68502 0.40686 0.0
O130 O 0.15 0.71742 0.48615 0.0
Co131 Co 0.169 0.67058 0.46893 0.0
O132 O 0.18011 0.70087 0.45375 0.0
C133 C 0.14682 0.67066 0.56551 0.0
C134 C 0.0868 0.69799 0.49793 0.0
C135 C 0.17004 0.71815 0.46924 0.0
O136 O 0.13112 0.68356 0.55011 0.0
O137 O 0.16237 0.66304 0.53831 0.0
O138 O 0.12049 0.70211 0.41345 0.0
O139 O 0.13902 0.67422 0.44542 0.0
Co140 Co 0.30953 0.12535 0.48903 0.0
O141 O 0.32343 0.09677 0.48035 0.0
O142 O 0.28951 0.10163 0.50971 0.0
C143 C 0.31893 0.13875 0.41505 0.0
O144 O 0.28934 0.15227 0.50013 0.0
Co145 Co 0.3386 0.16817 0.48804 0.0
O146 O 0.3094 0.18366 0.49 0.0
C147 C 0.339 0.13932 0.57428 0.0
C148 C 0.30511 0.08792 0.49606 0.0
C149 C 0.29099 0.17366 0.49765 0.0
O150 O 0.32236 0.1282 0.55714 0.0
O151 O 0.34943 0.15418 0.54991 0.0
O152 O 0.30153 0.1261 0.42005 0.0
O153 O 0.33101 0.14118 0.45352 0.0
Co154 Co 0.88304 0.31068 0.48877 0.0
O155 O 0.91202 0.32448 0.48972 0.0
O156 O 0.90531 0.28958 0.51127 0.0
C157 C 0.87364 0.32241 0.41352 0.0
O158 O 0.85554 0.29056 0.4908 0.0
Co159 Co 0.84028 0.33962 0.47991 0.0
O160 O 0.82579 0.31047 0.46656 0.0
C161 C 0.86479 0.33794 0.57296 0.0
C162 C 0.91972 0.30545 0.50423 0.0
C163 C 0.83494 0.29201 0.47784 0.0
O164 O 0.87686 0.32171 0.55714 0.0
O165 O 0.85097 0.34867 0.54629 0.0
O166 O 0.88581 0.30472 0.41908 0.0
O167 O 0.86922 0.33333 0.45278 0.0
Co168 Co 0.699 0.12563 0.50454 0.0
O169 O 0.68592 0.09651 0.51084 0.0
O170 O 0.71983 0.10292 0.48248 0.0
C171 C 0.68877 0.13724 0.57928 0.0
O172 O 0.71846 0.15332 0.49597 0.0
Co173 Co 0.66941 0.16797 0.50953 0.0
O174 O 0.69851 0.18304 0.5201 0.0
C175 C 0.6701 0.14108 0.41979 0.0
C176 C 0.70458 0.08858 0.49487 0.0
C177 C 0.71692 0.17405 0.50781 0.0
O178 O 0.68637 0.12933 0.43656 0.0
O179 O 0.65974 0.15576 0.44485 0.0
O180 O 0.70668 0.1254 0.57372 0.0
O181 O 0.67688 0.14016 0.54071 0.0
Co182 Co 0.88108 0.69795 0.51128 0.0
O183 O 0.90909 0.68258 0.51643 0.0
O184 O 0.90537 0.71713 0.48986 0.0
C185 C 0.86881 0.68785 0.58592 0.0
O186 O 0.85489 0.71951 0.50392 0.0
Co187 Co 0.83671 0.67119 0.51531 0.0
O188 O 0.82367 0.70125 0.52547 0.0
C189 C 0.8635 0.67092 0.4255 0.0
C190 C 0.91853 0.70073 0.50144 0.0
C191 C 0.83396 0.71915 0.51446 0.0
O192 O 0.87625 0.68632 0.44276 0.0
O193 O 0.84826 0.66125 0.45026 0.0
O194 O 0.88217 0.70472 0.58096 0.0
O195 O 0.86491 0.67674 0.54666 0.0
Co196 Co 0.30742 0.8825 0.50927 0.0
O197 O 0.32202 0.91088 0.51512 0.0
O198 O 0.28801 0.90626 0.48603 0.0
C199 C 0.31661 0.87083 0.58471 0.0
O200 O 0.28658 0.85581 0.50071 0.0
Co201 Co 0.33482 0.83877 0.51634 0.0
O202 O 0.30493 0.82517 0.52541 0.0
C203 C 0.33633 0.86534 0.42611 0.0
C204 C 0.30392 0.91985 0.49856 0.0
C205 C 0.28706 0.83502 0.51253 0.0
O206 O 0.32039 0.87784 0.44184 0.0
O207 O 0.34573 0.85033 0.45207 0.0
O208 O 0.29936 0.88352 0.57827 0.0
O209 O 0.32851 0.86708 0.54652 0.0
Co210 Co 0.12364 0.30978 0.50136 0.0
O211 O 0.09496 0.32437 0.50027 0.0
O212 O 0.10077 0.28909 0.48042 0.0
C213 C 0.1337 0.32213 0.57567 0.0
O214 O 0.15024 0.28849 0.4999 0.0
Co215 Co 0.16807 0.33653 0.50963 0.0
O216 O 0.18192 0.30686 0.51802 0.0
C217 C 0.14476 0.33335 0.41475 0.0
C218 C 0.08676 0.30531 0.48709 0.0
C219 C 0.17127 0.28898 0.50909 0.0
O220 O 0.12996 0.31997 0.4323 0.0
O221 O 0.16012 0.34245 0.44021 0.0
O222 O 0.12093 0.30479 0.57139 0.0
O223 O 0.13853 0.33232 0.53574 0.0
C224 C 0.22353 0.55193 0.00347 0.0
C225 C 0.20463 0.56199 0.98319 0.0
C226 C 0.22506 0.52859 0.00756 0.0
C227 C 0.20763 0.51503 0.98929 0.0
C228 C 0.18903 0.5252 0.96653 0.0
C229 C 0.18754 0.54855 0.96475 0.0
C230 C 0.2448 0.51852 0.03348 0.0
C231 C 0.17045 0.51143 0.94492 0.0
C232 C 0.2178 0.45355 0.96308 0.0
C233 C 0.20601 0.44333 0.00093 0.0
C234 C 0.21891 0.47689 0.95936 0.0
C235 C 0.20838 0.49027 0.99506 0.0
C236 C 0.19733 0.47988 0.03469 0.0
C237 C 0.1959 0.45649 0.03662 0.0
C238 C 0.23027 0.48717 0.91579 0.0
C239 C 0.18641 0.49348 0.07425 0.0
H240 H 0.23656 0.56234 0.01861 0.0
H241 H 0.17289 0.55636 0.94921 0.0
H242 H 0.23904 0.50972 0.06671 0.0
H243 H 0.25305 0.50598 0.00998 0.0
H244 H 0.25728 0.53126 0.04423 0.0
H245 H 0.15825 0.52178 0.92462 0.0
H246 H 0.17737 0.4987 0.91983 0.0
H247 H 0.16149 0.50245 0.97426 0.0
H248 H 0.22521 0.44326 0.93498 0.0
H249 H 0.18657 0.44849 0.06553 0.0
H250 H 0.24281 0.4996 0.92762 0.0
H251 H 0.21778 0.49611 0.89332 0.0
H252 H 0.23866 0.47452 0.89267 0.0
H253 H 0.19816 0.50624 0.08821 0.0
H254 H 0.18075 0.48297 0.10515 0.0
H255 H 0.17178 0.5024 0.05919 0.0
C256 C 0.45688 0.19107 0.02909 0.0
C257 C 0.44386 0.20463 -0.00126 0.0
C258 C 0.48018 0.19276 0.02972 0.0
C259 C 0.49093 0.20808 -0.0016 0.0
C260 C 0.4779 0.22207 0.96802 0.0
C261 C 0.45446 0.22036 0.96895 0.0
C262 C 0.49331 0.17777 0.0633 0.0
C263 C 0.48873 0.2383 0.93343 0.0
C264 C 0.55232 0.22011 0.02448 0.0
C265 C 0.56283 0.20425 0.9949 0.0
C266 C 0.5289 0.22196 0.02536 0.0
C267 C 0.51579 0.208 0.99508 0.0
C268 C 0.52645 0.19254 0.96396 0.0
C269 C 0.54974 0.19069 0.96468 0.0
C270 C 0.51817 0.23833 0.05978 0.0
C271 C 0.51324 0.17758 0.93046 0.0
H272 H 0.44882 0.17908 0.05277 0.0
H273 H 0.44448 0.2309 0.9455 0.0
H274 H 0.50328 0.16583 0.04154 0.0
H275 H 0.50513 0.18776 0.08538 0.0
H276 H 0.4824 0.16815 0.08831 0.0
H277 H 0.47633 0.24886 0.91423 0.0
H278 H 0.50048 0.24926 0.95335 0.0
H279 H 0.49856 0.22902 0.90589 0.0
H280 H 0.56236 0.23066 0.04782 0.0
H281 H 0.55774 0.17861 0.94114 0.0
H282 H 0.50824 0.22917 0.08735 0.0
H283 H 0.50652 0.24934 0.03972 0.0
H284 H 0.53064 0.24883 0.07894 0.0
H285 H 0.50316 0.16574 0.95229 0.0
H286 H 0.52409 0.16785 0.90556 0.0
H287 H 0.5015 0.18761 0.90827 0.0
C288 C 0.81327 0.45798 0.96497 0.0
C289 C 0.79853 0.4445 0.99119 0.0
C290 C 0.81149 0.48131 0.96641 0.0
C291 C 0.79527 0.49139 0.99676 0.0
C292 C 0.78016 0.47775 0.02293 0.0
C293 C 0.78172 0.45442 0.01908 0.0
C294 C 0.82738 0.49516 0.93645 0.0
C295 C 0.7632 0.48774 0.05708 0.0
C296 C 0.81137 0.54974 0.03803 0.0
C297 C 0.79782 0.56303 0.00853 0.0
C298 C 0.80976 0.52638 0.03653 0.0
C299 C 0.79502 0.51612 0.00298 0.0
C300 C 0.7811 0.5296 0.9735 0.0
C301 C 0.78241 0.55294 0.97728 0.0
C302 C 0.82433 0.5127 0.06989 0.0
C303 C 0.76579 0.51944 0.936 0.0
H304 H 0.82634 0.45023 0.94365 0.0
H305 H 0.77063 0.44392 0.04014 0.0
H306 H 0.8181 0.50798 0.91555 0.0
H307 H 0.83915 0.50402 0.9608 0.0
H308 H 0.83718 0.48486 0.91058 0.0
H309 H 0.75199 0.47494 0.07298 0.0
H310 H 0.77192 0.49646 0.08718 0.0
H311 H 0.75293 0.50031 0.03788 0.0
H312 H 0.8234 0.55764 0.06189 0.0
H313 H 0.77228 0.56332 0.95376 0.0
H314 H 0.83723 0.50395 0.04827 0.0
H315 H 0.81426 0.49981 0.08869 0.0
H316 H 0.8328 0.52312 0.09772 0.0
H317 H 0.77586 0.51075 0.90794 0.0
H318 H 0.75524 0.53213 0.91771 0.0
H319 H 0.75481 0.5068 0.95303 0.0
C320 C 0.54964 0.8207 0.02358 0.0
C321 C 0.56262 0.80648 0.99463 0.0
C322 C 0.52636 0.81879 0.02507 0.0
C323 C 0.51558 0.80262 0.9959 0.0
C324 C 0.52857 0.78816 0.96652 0.0
C325 C 0.55199 0.79007 0.96674 0.0
C326 C 0.51328 0.83428 0.05763 0.0
C327 C 0.5177 0.77107 0.93399 0.0
C328 C 0.45483 0.78941 0.02629 0.0
C329 C 0.44356 0.80441 0.99592 0.0
C330 C 0.4783 0.78828 0.02619 0.0
C331 C 0.49069 0.80203 0.99402 0.0
C332 C 0.47925 0.81656 0.96208 0.0
C333 C 0.45593 0.81777 0.9639 0.0
C334 C 0.48987 0.77295 0.0616 0.0
C335 C 0.49166 0.83118 0.92647 0.0
H336 H 0.55774 0.83323 0.04583 0.0
H337 H 0.56194 0.77901 0.9444 0.0
H338 H 0.50275 0.84544 0.03516 0.0
H339 H 0.50199 0.82456 0.08152 0.0
H340 H 0.52424 0.84474 0.08085 0.0
H341 H 0.53011 0.76063 0.91452 0.0
H342 H 0.5067 0.76004 0.95568 0.0
H343 H 0.50708 0.77959 0.90668 0.0
H344 H 0.44534 0.77904 0.05106 0.0
H345 H 0.44732 0.82918 0.93977 0.0
H346 H 0.49991 0.78294 0.08756 0.0
H347 H 0.50153 0.76178 0.04201 0.0
H348 H 0.47792 0.76259 0.0826 0.0
H349 H 0.5016 0.84375 0.94658 0.0
H350 H 0.48026 0.84007 0.90122 0.0
H351 H 0.50345 0.82104 0.90468 0.0
C352 C 0.70805 0.05363 0.54199 0.0
C353 C 0.70872 0.0644 0.49681 0.0
C354 C 0.7092 0.03032 0.54533 0.0
C355 C 0.71037 0.01742 0.50227 0.0
C356 C 0.71166 0.02833 0.45648 0.0
C357 C 0.71105 0.05178 0.45433 0.0
C358 C 0.70818 0.0195 0.59489 0.0
C359 C 0.71255 0.01521 0.40969 0.0
C360 C 0.72446 0.95545 0.51085 0.0
C361 C 0.70324 0.94571 0.50862 0.0
C362 C 0.72712 0.97877 0.50889 0.0
C363 C 0.7081 0.99265 0.50503 0.0
C364 C 0.68663 0.98286 0.5042 0.0
C365 C 0.68449 0.95959 0.50581 0.0
C366 C 0.75027 0.98854 0.50998 0.0
C367 C 0.66587 0.99698 0.50076 0.0
H368 H 0.7062 0.0635 0.5748 0.0
H369 H 0.7113 0.06019 0.41941 0.0
H370 H 0.69209 0.0106 0.59904 0.0
H371 H 0.72164 0.00697 0.59876 0.0
H372 H 0.70972 0.03184 0.62483 0.0
H373 H 0.71519 0.02607 0.37746 0.0
H374 H 0.72612 1.0027 0.41122 0.0
H375 H 0.69669 0.00598 0.40475 0.0
H376 H 0.73904 0.94484 0.5126 0.0
H377 H 0.66803 0.95221 0.50416 0.0
H378 H 0.75172 1.00071 0.54021 0.0
H379 H 0.75352 0.99771 0.47565 0.0
H380 H 0.76331 0.97558 0.51454 0.0
H381 H 0.66518 0.00881 0.53175 0.0
H382 H 0.65041 0.98681 0.5009 0.0
H383 H 0.66626 0.00702 0.46686 0.0
C384 C 0.95553 0.68998 0.5348 0.0
C385 C 0.94315 0.70275 0.5017 0.0
C386 C 0.97886 0.69114 0.53621 0.0
C387 C 0.99027 0.70493 0.50267 0.0
C388 C 0.97785 0.71807 0.46938 0.0
C389 C 0.95438 0.71709 0.4698 0.0
C390 C 0.99131 0.67723 0.57308 0.0
C391 C 0.98938 0.73255 0.43222 0.0
C392 C 0.05181 0.71713 0.52677 0.0
C393 C 0.06218 0.70016 0.50003 0.0
C394 C 0.02841 0.7191 0.52771 0.0
C395 C 0.01514 0.7041 0.50028 0.0
C396 C 0.02563 0.68728 0.47241 0.0
C397 C 0.04891 0.68536 0.47311 0.0
C398 C 0.01786 0.73692 0.55881 0.0
C399 C 0.01224 0.67116 0.44195 0.0
H400 H 0.94692 0.67911 0.56009 0.0
H401 H 0.94485 0.72699 0.44419 0.0
H402 H 1.00104 0.66414 0.55414 0.0
H403 H 1.0033 0.68775 0.5935 0.0
H404 H 0.97996 0.66903 0.59949 0.0
H405 H 0.97741 0.74255 0.41045 0.0
H406 H 1.00121 0.74403 0.45043 0.0
H407 H 0.99921 0.72194 0.40709 0.0
H408 H 0.06197 0.72864 0.54753 0.0
H409 H 0.05678 0.67237 0.45176 0.0
H410 H 0.00722 0.72907 0.58704 0.0
H411 H 0.00691 0.74764 0.53628 0.0
H412 H 0.03045 0.74759 0.5771 0.0
H413 H 1.00173 0.66063 0.46589 0.0
H414 H 0.02297 0.66007 0.41965 0.0
H415 H 1.0009 0.68041 0.41729 0.0
C416 C 0.2862 0.05278 0.52462 0.0
C417 C 0.30213 0.06338 0.49538 0.0
C418 C 0.28422 0.02937 0.52484 0.0
C419 C 0.29815 0.01637 0.49427 0.0
C420 C 0.31361 0.02715 0.46334 0.0
C421 C 0.31558 0.05042 0.4647 0.0
C422 C 0.26783 0.01851 0.55903 0.0
C423 C 0.32853 0.01405 0.42956 0.0
C424 C 0.31508 0.95744 0.52804 0.0
C425 C 0.30145 0.94444 0.49781 0.0
C426 C 0.31344 0.98074 0.52865 0.0
C427 C 0.29811 0.99151 0.49737 0.0
C428 C 0.2841 0.9785 0.46701 0.0
C429 C 0.28574 0.95506 0.46802 0.0
C430 C 0.32845 0.99386 0.56224 0.0
C431 C 0.26787 0.98935 0.43244 0.0
H432 H 0.27575 0.06272 0.54832 0.0
H433 H 0.32771 0.05852 0.44144 0.0
H434 H 0.25694 0.00679 0.53884 0.0
H435 H 0.27699 0.00864 0.5867 0.0
H436 H 0.25722 0.0309 0.57808 0.0
H437 H 0.33816 0.025 0.40466 0.0
H438 H 0.34046 0.00399 0.45118 0.0
H439 H 0.3185 1.00231 0.40738 0.0
H440 H 0.32705 0.94936 0.55173 0.0
H441 H 0.27515 0.94508 0.44465 0.0
H442 H 0.31846 0.0056 0.58449 0.0
H443 H 0.34033 0.00392 0.54048 0.0
H444 H 0.33813 0.98293 0.58709 0.0
H445 H 0.25689 1.00105 0.45241 0.0
H446 H 0.25735 0.97696 0.41313 0.0
H447 H 0.27715 0.99925 0.405 0.0
C448 C 0.0489 0.31471 0.45584 0.0
C449 C 0.06247 0.30178 0.48606 0.0
C450 C 0.02556 0.3131 0.45845 0.0
C451 C 0.01561 0.29904 0.49384 0.0
C452 C 0.02937 0.28587 0.52429 0.0
C453 C 0.05266 0.2871 0.51937 0.0
C454 C 0.01155 0.32682 0.42405 0.0
C455 C 0.01957 0.27138 0.56376 0.0
C456 C 0.95743 0.31732 0.53165 0.0
C457 C 0.94399 0.30181 0.50749 0.0
C458 C 0.98077 0.31587 0.52959 0.0
C459 C 0.9909 0.29914 0.50065 0.0
C460 C 0.97731 0.28325 0.47662 0.0
C461 C 0.95399 0.28454 0.48111 0.0
C462 C 0.99457 0.33261 0.5574 0.0
C463 C 0.98732 0.26568 0.44401 0.0
H464 H 0.05658 0.32615 0.4303 0.0
H465 H 0.06326 0.27743 0.54336 0.0
H466 H 0.99871 0.31621 0.40651 0.0
H467 H 1.00272 0.34003 0.4446 0.0
H468 H 0.02174 0.33485 0.39521 0.0
H469 H 0.03248 0.26156 0.5832 0.0
H470 H 0.01073 0.28199 0.59061 0.0
H471 H 0.00713 0.25973 0.54822 0.0
H472 H 0.94963 0.33075 0.55182 0.0
H473 H 0.94353 0.27282 0.46161 0.0
H474 H 1.00312 0.34393 0.53156 0.0
H475 H 0.00763 0.32398 0.5789 0.0
H476 H 0.98428 0.34285 0.58248 0.0
H477 H 0.99582 0.27384 0.41287 0.0
H478 H 0.97458 0.25401 0.42954 0.0
H479 H 1.00008 0.25596 0.46397 0.0
C480 C 0.23935 0.30212 0.93861 0.0
C481 C 0.23769 0.32164 0.96651 0.0
C482 C 0.25726 0.28736 0.94451 0.0
C483 C 0.27393 0.29203 0.97952 0.0
C484 C 0.27295 0.31222 0.00619 0.0
C485 C 0.2549 0.32685 -0.0008 0.0
C486 C 0.25775 0.26618 0.91483 0.0
C487 C 0.29033 0.3178 0.04395 0.0
C488 C 0.30025 0.23994 0.03247 0.0
C489 C 0.32021 0.23835 0.00616 0.0
C490 C 0.28563 0.2579 0.02578 0.0
C491 C 0.29089 0.27467 0.99141 0.0
C492 C 0.31141 0.27366 0.96601 0.0
C493 C 0.32593 0.25557 0.97393 0.0
C494 C 0.26411 0.25843 0.05421 0.0
C495 C 0.31757 0.29112 0.92889 0.0
H496 H 0.22632 0.29807 0.91277 0.0
H497 H 0.25378 0.34188 0.02093 0.0
H498 H 0.27431 0.26399 0.89758 0.0
H499 H 0.25494 0.25165 0.93904 0.0
H500 H 0.24481 0.26604 0.88592 0.0
H501 H 0.28872 0.33519 0.05736 0.0
H502 H 0.2886 0.30633 0.07538 0.0
H503 H 0.30731 0.31547 0.0289 0.0
H504 H 0.29583 0.22687 0.05796 0.0
H505 H 0.3413 0.25446 0.95341 0.0
H506 H 0.24983 0.25621 0.02903 0.0
H507 H 0.26204 0.27483 0.0723 0.0
H508 H 0.26335 0.24517 0.08236 0.0
H509 H 0.30626 0.28981 0.89708 0.0
H510 H 0.335 0.28926 0.91596 0.0
H511 H 0.31547 0.30806 0.94436 0.0
C512 C 0.7696 0.3004 0.04233 0.0
C513 C 0.7697 0.32109 0.01856 0.0
C514 C 0.75163 0.28561 0.03748 0.0
C515 C 0.73332 0.29148 0.00765 0.0
C516 C 0.73286 0.3127 0.98507 0.0
C517 C 0.751 0.32731 0.99101 0.0
C518 C 0.7527 0.2633 0.06278 0.0
C519 C 0.71373 0.31953 0.95273 0.0
C520 C 0.7045 0.24118 0.95275 0.0
C521 C 0.68602 0.23853 0.98342 0.0
C522 C 0.71929 0.25906 0.95865 0.0
C523 C 0.71582 0.27452 0.99683 0.0
C524 C 0.69671 0.27245 0.02679 0.0
C525 C 0.68189 0.25457 0.01942 0.0
C526 C 0.73917 0.26085 0.92521 0.0
C527 C 0.69253 0.28844 0.06817 0.0
H528 H 0.78382 0.29553 0.06421 0.0
H529 H 0.75091 0.34325 0.97246 0.0
H530 H 0.73715 0.26026 0.08355 0.0
H531 H 0.7542 0.24985 0.03529 0.0
H532 H 0.76706 0.2621 0.08814 0.0
H533 H 0.71471 0.33735 0.94205 0.0
H534 H 0.71383 0.30922 0.91921 0.0
H535 H 0.6976 0.31657 0.97129 0.0
H536 H 0.70762 0.22898 0.92445 0.0
H537 H 0.66768 0.25255 0.04335 0.0
H538 H 0.75466 0.25762 0.94609 0.0
H539 H 0.74042 0.27793 0.91004 0.0
H540 H 0.73833 0.2488 0.89457 0.0
H541 H 0.70536 0.28596 0.09674 0.0
H542 H 0.67584 0.28601 0.0848 0.0
H543 H 0.69394 0.30591 0.05541 0.0
C544 C 0.767 0.70639 0.95715 0.0
C545 C 0.76755 0.68574 0.98112 0.0
C546 C 0.74881 0.72086 0.96228 0.0
C547 C 0.73071 0.7147 0.99245 0.0
C548 C 0.73066 0.69348 0.01503 0.0
C549 C 0.74905 0.67921 0.00892 0.0
C550 C 0.74944 0.7432 0.93702 0.0
C551 C 0.71172 0.6863 0.04753 0.0
C552 C 0.70211 0.76481 0.0483 0.0
C553 C 0.68378 0.7678 0.01733 0.0
C554 C 0.71673 0.74681 0.0423 0.0
C555 C 0.71313 0.73147 0.00396 0.0
C556 C 0.69398 0.73369 0.97415 0.0
C557 C 0.67942 0.75179 0.98139 0.0
C558 C 0.7367 0.74493 0.07547 0.0
C559 C 0.68957 0.71772 0.93285 0.0
H560 H 0.78103 0.71147 0.93501 0.0
H561 H 0.74928 0.66327 0.02754 0.0
H562 H 0.73378 0.74602 0.91651 0.0
H563 H 0.75085 0.75666 0.96455 0.0
H564 H 0.76369 0.74464 0.91144 0.0
H565 H 0.71285 0.66841 0.05755 0.0
H566 H 0.71195 0.69635 0.08142 0.0
H567 H 0.69548 0.68932 0.02945 0.0
H568 H 0.70542 0.77697 0.07659 0.0
H569 H 0.66532 0.75402 0.95724 0.0
H570 H 0.75212 0.7483 0.05445 0.0
H571 H 0.73804 0.72779 0.0903 0.0
H572 H 0.73592 0.75684 0.10636 0.0
H573 H 0.70195 0.72056 0.90351 0.0
H574 H 0.67262 0.71987 0.91733 0.0
H575 H 0.69149 0.70024 0.94523 0.0
C576 C 0.2564 0.67868 0.98812 0.0
C577 C 0.23922 0.68327 0.02126 0.0
C578 C 0.27449 0.69342 0.98257 0.0
C579 C 0.2755 0.71305 0.01118 0.0
C580 C 0.25895 0.71693 0.04687 0.0
C581 C 0.241 0.7021 0.05128 0.0
C582 C 0.29176 0.68867 0.94407 0.0
C583 C 0.25948 0.73745 0.07866 0.0
C584 C 0.32692 0.75028 0.01898 0.0
C585 C 0.3207 0.76803 0.98863 0.0
C586 C 0.31281 0.73174 0.02538 0.0
C587 C 0.29217 0.73085 0.00038 0.0
C588 C 0.28643 0.74818 0.96777 0.0
C589 C 0.30065 0.76655 0.96254 0.0
C590 C 0.31949 0.71366 0.06061 0.0
C591 C 0.26476 0.74781 0.93981 0.0
H592 H 0.25517 0.66418 0.96476 0.0
H593 H 0.22798 0.70561 0.07749 0.0
H594 H 0.28962 0.70051 0.91341 0.0
H595 H 0.30878 0.69114 0.9588 0.0
H596 H 0.29038 0.67144 0.92963 0.0
H597 H 0.24678 0.73683 0.10802 0.0
H598 H 0.27615 0.73947 0.09551 0.0
H599 H 0.25632 0.75244 0.05606 0.0
H600 H 0.34236 0.75129 0.03929 0.0
H601 H 0.29585 0.78003 0.93845 0.0
H602 H 0.31735 0.697 0.04378 0.0
H603 H 0.30851 0.71429 0.09306 0.0
H604 H 0.33704 0.71545 0.07283 0.0
H605 H 0.26285 0.73174 0.92032 0.0
H606 H 0.26365 0.76158 0.91289 0.0
H607 H 0.25059 0.74933 0.9655 0.0
C608 C 0.82736 0.75791 0.48225 0.0
C609 C 0.82064 0.73998 0.51158 0.0
C610 C 0.81337 0.77647 0.47518 0.0
C611 C 0.79229 0.77718 0.49839 0.0
C612 C 0.78602 0.75967 0.53007 0.0
C613 C 0.80017 0.74131 0.53606 0.0
C614 C 0.82065 0.79476 0.44106 0.0
C615 C 0.76385 0.75982 0.55607 0.0
C616 C 0.75601 0.82902 0.50879 0.0
C617 C 0.73947 0.82448 0.47407 0.0
C618 C 0.7741 0.8144 0.51551 0.0
C619 C 0.77577 0.79495 0.48649 0.0
C620 C 0.75992 0.79114 0.44925 0.0
C621 C 0.74195 0.80586 0.44369 0.0
C622 C 0.79063 0.81907 0.5556 0.0
C623 C 0.76119 0.77082 0.41697 0.0
H624 H 0.84314 0.75702 0.46316 0.0
H625 H 0.79495 0.72769 0.55936 0.0
H626 H 0.81041 0.79416 0.40747 0.0
H627 H 0.818 0.81134 0.45795 0.0
H628 H 0.83846 0.79317 0.43067 0.0
H629 H 0.76228 0.74592 0.58254 0.0
H630 H 0.76151 0.77579 0.57574 0.0
H631 H 0.75017 0.75838 0.52908 0.0
H632 H 0.75424 0.84337 0.53241 0.0
H633 H 0.72944 0.8024 0.41625 0.0
H634 H 0.80792 0.81677 0.54232 0.0
H635 H 0.788 0.80707 0.58579 0.0
H636 H 0.78889 0.83622 0.57029 0.0
H637 H 0.77817 0.76901 0.40159 0.0
H638 H 0.74904 0.77153 0.3865 0.0
H639 H 0.7577 0.75567 0.43885 0.0
C640 C 0.26511 0.80109 0.53432 0.0
C641 C 0.26643 0.82141 0.5092 0.0
C642 C 0.24686 0.78677 0.52833 0.0
C643 C 0.22948 0.79272 0.49603 0.0
C644 C 0.23018 0.81364 0.47217 0.0
C645 C 0.24861 0.82781 0.47922 0.0
C646 C 0.24672 0.76476 0.55501 0.0
C647 C 0.212 0.82059 0.43742 0.0
C648 C 0.20173 0.74186 0.44137 0.0
C649 C 0.18295 0.73924 0.47125 0.0
C650 C 0.2162 0.76001 0.44711 0.0
C651 C 0.21197 0.77594 0.48393 0.0
C652 C 0.19235 0.77415 0.51235 0.0
C653 C 0.17799 0.75584 0.50553 0.0
C654 C 0.23675 0.76137 0.41553 0.0
C655 C 0.18721 0.79079 0.55193 0.0
H656 H 0.27861 0.79613 0.55816 0.0
H657 H 0.24947 0.84348 0.45971 0.0
H658 H 0.23065 0.76241 0.57426 0.0
H659 H 0.24845 0.75093 0.52849 0.0
H660 H 0.26046 0.76348 0.58194 0.0
H661 H 0.21352 0.83836 0.42657 0.0
H662 H 0.21284 0.81016 0.40413 0.0
H663 H 0.19537 0.81791 0.45399 0.0
H664 H 0.20552 0.72929 0.41428 0.0
H665 H 0.16352 0.75396 0.52875 0.0
H666 H 0.25176 0.75819 0.43804 0.0
H667 H 0.23846 0.7783 0.39978 0.0
H668 H 0.23642 0.74906 0.38534 0.0
H669 H 0.19893 0.78833 0.5827 0.0
H670 H 0.16994 0.78897 0.56588 0.0
H671 H 0.18953 0.80805 0.53847 0.0
C672 C 0.24996 0.18032 0.48711 0.0
C673 C 0.27082 0.18759 0.50374 0.0
C674 C 0.23132 0.19456 0.48843 0.0
C675 C 0.23357 0.21633 0.50779 0.0
C676 C 0.25436 0.22326 0.52684 0.0
C677 C 0.27274 0.20892 0.52406 0.0
C678 C 0.20954 0.18669 0.4671 0.0
C679 C 0.25743 0.24614 0.54874 0.0
C680 C 0.19876 0.26543 0.46617 0.0
C681 C 0.18435 0.26835 0.50562 0.0
C682 C 0.21387 0.24762 0.465 0.0
C683 C 0.2149 0.23268 0.50487 0.0
C684 C 0.19969 0.2351 0.54401 0.0
C685 C 0.18446 0.25293 0.5438 0.0
C686 C 0.22953 0.24554 0.42226 0.0
C687 C 0.20042 0.21972 0.58742 0.0
H688 H 0.24843 0.16387 0.47117 0.0
H689 H 0.28878 0.21451 0.53751 0.0
H690 H 0.19572 0.18961 0.49309 0.0
H691 H 0.20578 0.1964 0.43373 0.0
H692 H 0.20994 0.16872 0.45748 0.0
H693 H 0.27407 0.24821 0.5658 0.0
H694 H 0.2555 0.25899 0.52003 0.0
H695 H 0.24448 0.24931 0.57668 0.0
H696 H 0.19863 0.27752 0.43682 0.0
H697 H 0.17341 0.25544 0.57452 0.0
H698 H 0.22972 0.22815 0.40855 0.0
H699 H 0.24672 0.24969 0.434 0.0
H700 H 0.22488 0.25682 0.39186 0.0
H701 H 0.20091 0.20208 0.57551 0.0
H702 H 0.18587 0.22212 0.61185 0.0
H703 H 0.21584 0.22293 0.60855 0.0
C704 C 0.82543 0.2539 0.50966 0.0
C705 C 0.82067 0.2718 0.47851 0.0
C706 C 0.81048 0.23595 0.51455 0.0
C707 C 0.79051 0.23576 0.48703 0.0
C708 C 0.78626 0.25322 0.45365 0.0
C709 C 0.80127 0.27107 0.4501 0.0
C710 C 0.81552 0.2178 0.55091 0.0
C711 C 0.76538 0.25353 0.42299 0.0
C712 C 0.75461 0.18367 0.47381 0.0
C713 C 0.73695 0.18851 0.50552 0.0
C714 C 0.77258 0.19855 0.46837 0.0
C715 C 0.77306 0.21851 0.49591 0.0
C716 C 0.75579 0.22289 0.52967 0.0
C717 C 0.7379 0.20797 0.53374 0.0
C718 C 0.79053 0.19338 0.43164 0.0
C719 C 0.75581 0.24374 0.56043 0.0
H720 H 0.84035 0.25437 0.53186 0.0
H721 H 0.79759 0.28471 0.4255 0.0
H722 H 0.8035 0.21878 0.5815 0.0
H723 H 0.81354 0.20116 0.53392 0.0
H724 H 0.83265 0.21918 0.5659 0.0
H725 H 0.76556 0.26714 0.39559 0.0
H726 H 0.76332 0.2374 0.40377 0.0
H727 H 0.75063 0.2558 0.44678 0.0
H728 H 0.75396 0.16869 0.45183 0.0
H729 H 0.72447 0.21168 0.55883 0.0
H730 H 0.80724 0.19496 0.44851 0.0
H731 H 0.78971 0.20561 0.40139 0.0
H732 H 0.78881 0.17636 0.41621 0.0
H733 H 0.77197 0.24554 0.57962 0.0
H734 H 0.74222 0.24374 0.58786 0.0
H735 H 0.75375 0.25857 0.53672 0.0
C736 C 0.16646 0.336 0.33865 0.0
C737 C 0.14577 0.33742 0.36194 0.0
C738 C 0.16871 0.34089 0.28912 0.0
C739 C 0.14987 0.34802 0.26239 0.0
C740 C 0.12888 0.34968 0.28582 0.0
C741 C 0.12699 0.344 0.3354 0.0
C742 C 0.19123 0.33814 0.26533 0.0
C743 C 0.10856 0.35768 0.25866 0.0
C744 C 0.16538 0.37598 0.14279 0.0
C745 C 0.16276 0.35832 0.10992 0.0
C746 C 0.15991 0.37333 0.19229 0.0
C747 C 0.15222 0.35239 0.20932 0.0
C748 C 0.14912 0.33471 0.17606 0.0
C749 C 0.15421 0.33795 0.12686 0.0
C750 C 0.16296 0.39272 0.22661 0.0
C751 C 0.14159 0.31193 0.19277 0.0
H752 H 0.18096 0.3308 0.3593 0.0
H753 H 0.11106 0.34534 0.35373 0.0
H754 H 0.19004 0.32608 0.23483 0.0
H755 H 0.19685 0.35424 0.24981 0.0
H756 H 0.20411 0.33214 0.29124 0.0
H757 H 0.0937 0.35893 0.28259 0.0
H758 H 0.11189 0.37427 0.2424 0.0
H759 H 0.1047 0.34614 0.22829 0.0
H760 H 0.17178 0.39181 0.12991 0.0
H761 H 0.15225 0.32411 0.10189 0.0
H762 H 0.17716 0.38935 0.25138 0.0
H763 H 0.14791 0.39488 0.24956 0.0
H764 H 0.1663 0.40853 0.2069 0.0
H765 H 0.15445 0.30455 0.21688 0.0
H766 H 0.13866 0.30036 0.16187 0.0
H767 H 0.12602 0.31324 0.21426 0.0
C768 C 0.6812 0.14316 0.33282 0.0
C769 C 0.66452 0.13979 0.36759 0.0
C770 C 0.67579 0.14656 0.28363 0.0
C771 C 0.65319 0.14577 0.26871 0.0
C772 C 0.63641 0.14096 0.30339 0.0
C773 C 0.64224 0.13854 0.35267 0.0
C774 C 0.69414 0.15224 0.24817 0.0
C775 C 0.61226 0.13906 0.28873 0.0
C776 C 0.63862 0.17865 0.15463 0.0
C777 C 0.64103 0.16242 0.11839 0.0
C778 C 0.64195 0.17333 0.20394 0.0
C779 C 0.64716 0.15111 0.21734 0.0
C780 C 0.6481 0.1344 0.18107 0.0
C781 C 0.64541 0.14032 0.13197 0.0
C782 C 0.64124 0.19176 0.2413 0.0
C783 C 0.65281 0.1104 0.19392 0.0
H784 H 0.69839 0.14454 0.34461 0.0
H785 H 0.62934 0.13604 0.37973 0.0
H786 H 0.69409 0.14035 0.2173 0.0
H787 H 0.69125 0.16911 0.23287 0.0
H788 H 0.71087 0.15194 0.26545 0.0
H789 H 0.60171 0.13257 0.31877 0.0
H790 H 0.60585 0.15566 0.27791 0.0
H791 H 0.61052 0.12789 0.25677 0.0
H792 H 0.63551 0.19579 0.14418 0.0
H793 H 0.6472 0.12771 0.10398 0.0
H794 H 0.65797 0.19378 0.25792 0.0
H795 H 0.62952 0.18746 0.27101 0.0
H796 H 0.63611 0.20795 0.22527 0.0
H797 H 0.67033 0.1087 0.20616 0.0
H798 H 0.65014 0.09906 0.1625 0.0
H799 H 0.642 0.10495 0.22443 0.0
C800 C 0.85911 0.68233 0.33929 0.0
C801 C 0.86434 0.66573 0.37314 0.0
C802 C 0.85547 0.67701 0.29013 0.0
C803 C 0.85788 0.65466 0.27429 0.0
C804 C 0.86437 0.63805 0.30807 0.0
C805 C 0.86702 0.64371 0.3574 0.0
C806 C 0.848 0.69513 0.25567 0.0
C807 C 0.86794 0.61423 0.29238 0.0
C808 C 0.82582 0.63853 0.15997 0.0
C809 C 0.84177 0.6423 0.12366 0.0
C810 C 0.831 0.64191 0.20936 0.0
C811 C 0.85279 0.64868 0.22276 0.0
C812 C 0.86929 0.65116 0.1864 0.0
C813 C 0.86351 0.64823 0.13729 0.0
C814 C 0.81282 0.63943 0.24691 0.0
C815 C 0.89286 0.6577 0.19917 0.0
H816 H 0.85659 0.69928 0.35183 0.0
H817 H 0.87088 0.63088 0.38386 0.0
H818 H 0.85964 0.69637 0.22449 0.0
H819 H 0.83134 0.69094 0.24071 0.0
H820 H 0.84699 0.71167 0.2737 0.0
H821 H 0.87519 0.60388 0.32192 0.0
H822 H 0.85184 0.60676 0.28122 0.0
H823 H 0.87919 0.61359 0.26036 0.0
H824 H 0.80896 0.63414 0.14961 0.0
H825 H 0.87596 0.65099 0.10937 0.0
H826 H 0.80949 0.65582 0.26411 0.0
H827 H 0.81817 0.6279 0.27618 0.0
H828 H 0.79706 0.63308 0.2309 0.0
H829 H 0.89315 0.67512 0.21259 0.0
H830 H 0.90426 0.65643 0.16744 0.0
H831 H 0.89932 0.64696 0.22886 0.0
C832 C 0.36513 0.8627 0.36085 0.0
C833 C 0.34291 0.86648 0.3743 0.0
C834 C 0.37116 0.86012 0.31178 0.0
C835 C 0.35445 0.86051 0.27544 0.0
C836 C 0.33209 0.8651 0.28873 0.0
C837 C 0.32665 0.86838 0.33799 0.0
C838 C 0.39529 0.85611 0.29906 0.0
C839 C 0.31367 0.8652 0.25131 0.0
C840 C 0.36674 0.86552 0.14002 0.0
C841 C 0.36611 0.84318 0.12532 0.0
C842 C 0.36425 0.87137 0.18926 0.0
C843 C 0.35999 0.85453 0.22414 0.0
C844 C 0.35984 0.83188 0.20945 0.0
C845 C 0.36331 0.82646 0.16028 0.0
C846 C 0.36546 0.8956 0.20365 0.0
C847 C 0.35476 0.81343 0.24514 0.0
H848 H 0.37775 0.8613 0.38892 0.0
H849 H 0.30943 0.87102 0.34836 0.0
H850 H 0.39754 0.83861 0.28711 0.0
H851 H 0.40041 0.867 0.26839 0.0
H852 H 0.40652 0.85924 0.33046 0.0
H853 H 0.29732 0.86984 0.26726 0.0
H854 H 0.31762 0.87703 0.22155 0.0
H855 H 0.31218 0.84839 0.23477 0.0
H856 H 0.3688 0.87843 0.11279 0.0
H857 H 0.3624 0.80922 0.14866 0.0
H858 H 0.37653 0.89773 0.23568 0.0
H859 H 0.34868 0.90158 0.21424 0.0
H860 H 0.37172 0.90625 0.17354 0.0
H861 H 0.36666 0.81392 0.27598 0.0
H862 H 0.35557 0.79668 0.22804 0.0
H863 H 0.33782 0.81584 0.26045 0.0
C864 C 0.12963 0.66107 0.64627 0.0
C865 C 0.1485 0.66539 0.61787 0.0
C866 C 0.1318 0.6555 0.69585 0.0
C867 C 0.15325 0.65505 0.71747 0.0
C868 C 0.17228 0.65955 0.68877 0.0
C869 C 0.16967 0.66436 0.63929 0.0
C870 C 0.11121 0.65027 0.72515 0.0
C871 C 0.19538 0.66003 0.71061 0.0
C872 C 0.16014 0.668 0.85131 0.0
C873 C 0.16627 0.64723 0.87058 0.0
C874 C 0.15522 0.67057 0.80187 0.0
C875 C 0.15596 0.65181 0.77082 0.0
C876 C 0.16141 0.6306 0.7902 0.0
C877 C 0.16684 0.6286 0.83987 0.0
C878 C 0.15017 0.6936 0.78254 0.0
C879 C 0.1619 0.61015 0.7583 0.0
H880 H 0.11328 0.66167 0.62958 0.0
H881 H 0.18429 0.66791 0.61745 0.0
H882 H 0.1133 0.63416 0.74443 0.0
H883 H 0.10865 0.66327 0.75327 0.0
H884 H 0.09604 0.64937 0.70207 0.0
H885 H 0.20845 0.66351 0.68303 0.0
H886 H 0.19626 0.67307 0.7392 0.0
H887 H 0.19918 0.64387 0.72827 0.0
H888 H 0.15985 0.68253 0.87472 0.0
H889 H 0.17136 0.61249 0.8547 0.0
H890 H 0.13406 0.69363 0.76285 0.0
H891 H 0.16323 0.69863 0.75615 0.0
H892 H 0.14943 0.70631 0.81189 0.0
H893 H 0.1463 0.60896 0.7368 0.0
H894 H 0.16397 0.59461 0.77979 0.0
H895 H 0.17588 0.6114 0.73208 0.0
C896 C 0.36712 0.13839 0.64113 0.0
C897 C 0.34479 0.13734 0.62636 0.0
C898 C 0.37278 0.14084 0.69047 0.0
C899 C 0.35568 0.14323 0.72555 0.0
C900 C 0.3331 0.14134 0.71093 0.0
C901 C 0.32795 0.13804 0.66155 0.0
C902 C 0.39704 0.14184 0.70471 0.0
C903 C 0.31432 0.14431 0.74689 0.0
C904 C 0.36494 0.13928 0.86223 0.0
C905 C 0.36679 0.1618 0.87519 0.0
C906 C 0.36263 0.13286 0.81329 0.0
C907 C 0.36121 0.14943 0.77674 0.0
C908 C 0.36371 0.17218 0.78962 0.0
C909 C 0.36687 0.17805 0.83865 0.0
C910 C 0.36096 0.10842 0.80095 0.0
C911 C 0.36176 0.19042 0.752 0.0
H912 H 0.38016 0.13786 0.61386 0.0
H913 H 0.31068 0.13759 0.65005 0.0
H914 H 0.40151 0.15915 0.71486 0.0
H915 H 0.40021 0.13116 0.73693 0.0
H916 H 0.40814 0.13645 0.6746 0.0
H917 H 0.29773 0.14151 0.73007 0.0
H918 H 0.31628 0.13265 0.77787 0.0
H919 H 0.3148 0.16147 0.76193 0.0
H920 H 0.36489 0.1267 0.89055 0.0
H921 H 0.36797 0.19548 0.84875 0.0
H922 H 0.37213 0.10431 0.77006 0.0
H923 H 0.34371 0.10441 0.78947 0.0
H924 H 0.36534 0.09765 0.8324 0.0
H925 H 0.374 0.18775 0.72236 0.0
H926 H 0.36453 0.20723 0.76779 0.0
H927 H 0.34493 0.18998 0.73535 0.0
C928 C 0.82506 0.36581 0.83913 0.0
C929 C 0.84181 0.36622 0.87456 0.0
C930 C 0.8303 0.36228 0.78987 0.0
C931 C 0.85287 0.35982 0.77568 0.0
C932 C 0.86991 0.36158 0.81108 0.0
C933 C 0.86415 0.36434 0.86023 0.0
C934 C 0.8116 0.36003 0.75344 0.0
C935 C 0.89418 0.35988 0.79726 0.0
C936 C 0.86426 0.32667 0.6603 0.0
C937 C 0.86515 0.34358 0.62526 0.0
C938 C 0.8606 0.33175 0.70959 0.0
C939 C 0.8585 0.35431 0.72423 0.0
C940 C 0.86075 0.37147 0.68925 0.0
C941 C 0.86362 0.36588 0.64002 0.0
C942 C 0.85781 0.31293 0.74554 0.0
C943 C 0.85947 0.39572 0.70357 0.0
H944 H 0.80778 0.36696 0.85029 0.0
H945 H 0.87712 0.36472 0.88768 0.0
H946 H 0.81384 0.37211 0.72331 0.0
H947 H 0.81191 0.34309 0.73722 0.0
H948 H 0.79499 0.36281 0.77016 0.0
H949 H 0.90538 0.36406 0.82813 0.0
H950 H 0.89798 0.34269 0.78506 0.0
H951 H 0.89794 0.37121 0.76643 0.0
H952 H 0.86513 0.30942 0.64877 0.0
H953 H 0.86435 0.37896 0.61285 0.0
H954 H 0.84082 0.31351 0.76142 0.0
H955 H 0.86979 0.31478 0.77597 0.0
H956 H 0.86033 0.29634 0.7285 0.0
H957 H 0.84231 0.3998 0.71551 0.0
H958 H 0.864 0.40697 0.67303 0.0
H959 H 0.87074 0.39911 0.73471 0.0
C960 C 0.66855 0.84097 0.84915 0.0
C961 C 0.64766 0.84091 0.87192 0.0
C962 C 0.67072 0.84581 0.79959 0.0
C963 C 0.65156 0.85136 0.7722 0.0
C964 C 0.6304 0.85176 0.79515 0.0
C965 C 0.62863 0.84614 0.84478 0.0
C966 C 0.69348 0.84439 0.77633 0.0
C967 C 0.6097 0.8581 0.76726 0.0
C968 C 0.66549 0.87837 0.65067 0.0
C969 C 0.66406 0.86007 0.61916 0.0
C970 C 0.66012 0.87616 0.70032 0.0
C971 C 0.65379 0.85504 0.71888 0.0
C972 C 0.65195 0.83666 0.68698 0.0
C973 C 0.65687 0.83945 0.63759 0.0
C974 C 0.66179 0.89624 0.73314 0.0
C975 C 0.64593 0.8137 0.70539 0.0
H976 H 0.68327 0.83672 0.87007 0.0
H977 H 0.61252 0.84629 0.86255 0.0
H978 H 0.69333 0.8317 0.74695 0.0
H979 H 0.69792 0.86056 0.75941 0.0
H980 H 0.70669 0.83989 0.8029 0.0
H981 H 0.59482 0.85921 0.79114 0.0
H982 H 0.61219 0.8744 0.74899 0.0
H983 H 0.60639 0.84563 0.73839 0.0
H984 H 0.67083 0.89437 0.63658 0.0
H985 H 0.65587 0.82514 0.61363 0.0
H986 H 0.67609 0.89421 0.75831 0.0
H987 H 0.64655 0.89777 0.75575 0.0
H988 H 0.66414 0.91191 0.71226 0.0
H989 H 0.65912 0.80765 0.73042 0.0
H990 H 0.64402 0.80143 0.6754 0.0
H991 H 0.63017 0.81427 0.72635 0.0
C992 C 0.84685 0.66156 0.63737 0.0
C993 C 0.85918 0.68131 0.63335 0.0
C994 C 0.83889 0.65421 0.68262 0.0
C995 C 0.84317 0.66706 0.7248 0.0
C996 C 0.85493 0.68743 0.7207 0.0
C997 C 0.86292 0.69426 0.67501 0.0
C998 C 0.82661 0.63229 0.68552 0.0
C999 C 0.85952 0.70176 0.76474 0.0
C1000 C 0.80875 0.65397 0.83753 0.0
C1001 C 0.82392 0.64157 0.86504 0.0
C1002 C 0.81494 0.66291 0.79223 0.0
C1003 C 0.83648 0.65851 0.7735 0.0
C1004 C 0.85168 0.6456 0.80108 0.0
C1005 C 0.84535 0.63768 0.84707 0.0
C1006 C 0.79856 0.67723 0.76468 0.0
C1007 C 0.87454 0.63993 0.78179 0.0
H1008 H 0.84388 0.65149 0.60528 0.0
H1009 H 0.87233 0.70961 0.67205 0.0
H1010 H 0.83624 0.6204 0.70819 0.0
H1011 H 0.81021 0.63463 0.7033 0.0
H1012 H 0.82391 0.62473 0.64909 0.0
H1013 H 0.86726 0.71794 0.75485 0.0
H1014 H 0.84383 0.70503 0.78482 0.0
H1015 H 0.87088 0.69285 0.78993 0.0
H1016 H 0.79226 0.65714 0.85205 0.0
H1017 H 0.85698 0.628 0.86861 0.0
H1018 H 0.79453 0.6694 0.7292 0.0
H1019 H 0.80609 0.69372 0.75682 0.0
H1020 H 0.78283 0.67981 0.7852 0.0
H1021 H 0.87302 0.63119 0.74634 0.0
H1022 H 0.88409 0.62916 0.8072 0.0
H1023 H 0.88418 0.6554 0.7753 0.0
C1024 C 0.3453 0.8584 0.64383 0.0
C1025 C 0.3228 0.86174 0.63264 0.0
C1026 C 0.3518 0.8508 0.68993 0.0
C1027 C 0.33533 0.84565 0.72505 0.0
C1028 C 0.3125 0.84828 0.71328 0.0
C1029 C 0.30651 0.85672 0.66739 0.0
C1030 C 0.37633 0.8489 0.70147 0.0
C1031 C 0.29446 0.84225 0.74919 0.0
C1032 C 0.35578 0.80961 0.82964 0.0
C1033 C 0.35893 0.82552 0.86627 0.0
C1034 C 0.34709 0.81575 0.78408 0.0
C1035 C 0.34218 0.83842 0.77463 0.0
C1036 C 0.34515 0.85448 0.8118 0.0
C1037 C 0.35316 0.84776 0.85744 0.0
C1038 C 0.34349 0.79805 0.74586 0.0
C1039 C 0.3407 0.87891 0.80282 0.0
H1040 H 0.3579 0.86243 0.61696 0.0
H1041 H 0.28908 0.85911 0.65844 0.0
H1042 H 0.38048 0.85969 0.73299 0.0
H1043 H 0.38047 0.83154 0.71186 0.0
H1044 H 0.387 0.8538 0.67024 0.0
H1045 H 0.27754 0.84365 0.73311 0.0
H1046 H 0.2969 0.82494 0.76237 0.0
H1047 H 0.2954 0.85336 0.78136 0.0
H1048 H 0.36002 0.79235 0.83667 0.0
H1049 H 0.35568 0.8601 0.88574 0.0
H1050 H 0.35524 0.80063 0.71523 0.0
H1051 H 0.32638 0.79926 0.73083 0.0
H1052 H 0.34602 0.78098 0.7605 0.0
H1053 H 0.35178 0.88507 0.77343 0.0
H1054 H 0.34349 0.88921 0.83585 0.0
H1055 H 0.3233 0.88137 0.79042 0.0
C1056 C 0.15029 0.35141 0.62832 0.0
C1057 C 0.14306 0.32937 0.62262 0.0
C1058 C 0.15856 0.35898 0.67306 0.0
C1059 C 0.16016 0.34395 0.71259 0.0
C1060 C 0.15359 0.32146 0.70651 0.0
C1061 C 0.14479 0.31449 0.66168 0.0
C1062 C 0.16484 0.38322 0.67846 0.0
C1063 C 0.15558 0.30484 0.74754 0.0
C1064 C 0.19653 0.36146 0.81926 0.0
C1065 C 0.18042 0.36814 0.853 0.0
C1066 C 0.1902 0.35306 0.77356 0.0
C1067 C 0.16731 0.35217 0.7611 0.0
C1068 C 0.15107 0.35943 0.79488 0.0
C1069 C 0.15783 0.36693 0.8408 0.0
C1070 C 0.20791 0.34481 0.73901 0.0
C1071 C 0.12656 0.35942 0.78244 0.0
H1072 H 0.1489 0.36294 0.59811 0.0
H1073 H 0.13944 0.29737 0.65707 0.0
H1074 H 0.15407 0.39116 0.70631 0.0
H1075 H 0.18229 0.38474 0.69127 0.0
H1076 H 0.1631 0.39259 0.64381 0.0
H1077 H 0.15165 0.2876 0.7356 0.0
H1078 H 0.1727 0.30512 0.76274 0.0
H1079 H 0.14403 0.30943 0.77739 0.0
H1080 H 0.214 0.36215 0.82919 0.0
H1081 H 0.14542 0.37221 0.86706 0.0
H1082 H 0.20744 0.35455 0.70474 0.0
H1083 H 0.20461 0.32716 0.72933 0.0
H1084 H 0.22489 0.34605 0.75481 0.0
H1085 H 0.12365 0.3693 0.7489 0.0
H1086 H 0.11618 0.36646 0.81217 0.0
H1087 H 0.12087 0.34218 0.77501 0.0
C1088 C 0.64654 0.19837 0.82213 0.0
C1089 C 0.64573 0.18279 0.86004 0.0
C1090 C 0.65482 0.19243 0.77609 0.0
C1091 C 0.66189 0.17025 0.76764 0.0
C1092 C 0.66127 0.15453 0.80603 0.0
C1093 C 0.65346 0.16108 0.85192 0.0
C1094 C 0.65577 0.20978 0.73637 0.0
C1095 C 0.66819 0.1306 0.79826 0.0
C1096 C 0.65949 0.14769 0.63876 0.0
C1097 C 0.68209 0.14656 0.6266 0.0
C1098 C 0.65269 0.15545 0.68453 0.0
C1099 C 0.66888 0.16306 0.71814 0.0
C1100 C 0.69172 0.16273 0.70521 0.0
C1101 C 0.69811 0.15404 0.65982 0.0
C1102 C 0.62825 0.15485 0.69746 0.0
C1103 C 0.70939 0.17141 0.7394 0.0
H1104 H 0.64074 0.21522 0.82847 0.0
H1105 H 0.65279 0.14896 0.88114 0.0
H1106 H 0.67271 0.21036 0.7203 0.0
H1107 H 0.64405 0.20528 0.70674 0.0
H1108 H 0.65139 0.22665 0.74991 0.0
H1109 H 0.66689 0.12052 0.83204 0.0
H1110 H 0.65753 0.12289 0.76989 0.0
H1111 H 0.68562 0.12985 0.78503 0.0
H1112 H 0.64714 0.14177 0.61302 0.0
H1113 H 0.71558 0.15337 0.65002 0.0
H1114 H 0.62236 0.17177 0.70721 0.0
H1115 H 0.62567 0.14406 0.72978 0.0
H1116 H 0.61781 0.14843 0.66716 0.0
H1117 H 0.70511 0.18851 0.75153 0.0
H1118 H 0.72614 0.17173 0.72225 0.0
H1119 H 0.71017 0.16078 0.77236 0.0
C1120 C 0.85916 0.35163 0.35763 0.0
C1121 C 0.86474 0.32929 0.36583 0.0
C1122 C 0.85138 0.35871 0.31206 0.0
C1123 C 0.84847 0.34293 0.2743 0.0
C1124 C 0.85348 0.3202 0.28288 0.0
C1125 C 0.8619 0.3137 0.32841 0.0
C1126 C 0.84679 0.38317 0.30398 0.0
C1127 C 0.84999 0.3028 0.24396 0.0
C1128 C 0.81124 0.3608 0.1694 0.0
C1129 C 0.82699 0.36611 0.13367 0.0
C1130 C 0.81795 0.35255 0.21494 0.0
C1131 C 0.84096 0.35039 0.22536 0.0
C1132 C 0.8569 0.35593 0.18936 0.0
C1133 C 0.84968 0.36335 0.1436 0.0
C1134 C 0.80047 0.34611 0.25183 0.0
C1135 C 0.88158 0.3545 0.19951 0.0
H1136 H 0.86145 0.36371 0.38654 0.0
H1137 H 0.86599 0.29637 0.33495 0.0
H1138 H 0.85742 0.38953 0.27399 0.0
H1139 H 0.82921 0.38564 0.29286 0.0
H1140 H 0.85002 0.39331 0.33707 0.0
H1141 H 0.85325 0.28567 0.25751 0.0
H1142 H 0.83264 0.3036 0.23012 0.0
H1143 H 0.8612 0.30611 0.21272 0.0
H1144 H 0.79366 0.36273 0.1614 0.0
H1145 H 0.86185 0.36758 0.11593 0.0
H1146 H 0.8018 0.35696 0.28437 0.0
H1147 H 0.80322 0.32872 0.26412 0.0
H1148 H 0.78332 0.34751 0.23698 0.0
H1149 H 0.88587 0.36519 0.23111 0.0
H1150 H 0.89179 0.35981 0.16783 0.0
H1151 H 0.88621 0.33717 0.20918 0.0
C1152 C 0.65255 0.85012 0.13753 0.0
C1153 C 0.64418 0.82849 0.13161 0.0
C1154 C 0.66067 0.85736 0.18256 0.0
C1155 C 0.66091 0.84243 0.22235 0.0
C1156 C 0.65317 0.8203 0.21622 0.0
C1157 C 0.64459 0.81365 0.17091 0.0
C1158 C 0.66825 0.88124 0.18795 0.0
C1159 C 0.65368 0.80379 0.25763 0.0
C1160 C 0.69687 0.85967 0.32975 0.0
C1161 C 0.68074 0.86782 0.36184 0.0
C1162 C 0.69061 0.85058 0.28466 0.0
C1163 C 0.66784 0.85053 0.27107 0.0
C1164 C 0.6516 0.85914 0.30331 0.0
C1165 C 0.65824 0.86727 0.34877 0.0
C1166 C 0.70826 0.84088 0.25181 0.0
C1167 C 0.62726 0.86009 0.28951 0.0
H1168 H 0.65219 0.86165 0.10716 0.0
H1169 H 0.63834 0.79685 0.16618 0.0
H1170 H 0.65765 0.88989 0.21509 0.0
H1171 H 0.68561 0.88183 0.20163 0.0
H1172 H 0.66743 0.89058 0.15308 0.0
H1173 H 0.64898 0.78674 0.24573 0.0
H1174 H 0.67058 0.8032 0.27397 0.0
H1175 H 0.642 0.80913 0.28662 0.0
H1176 H 0.71424 0.85981 0.34052 0.0
H1177 H 0.64585 0.87364 0.37389 0.0
H1178 H 0.70908 0.85047 0.21737 0.0
H1179 H 0.7039 0.82346 0.24216 0.0
H1180 H 0.72501 0.84101 0.26901 0.0
H1181 H 0.62518 0.86995 0.25564 0.0
H1182 H 0.61685 0.8677 0.31849 0.0
H1183 H 0.62092 0.84308 0.28206 0.0
C1184 C 0.14611 0.6557 0.35011 0.0
C1185 C 0.14175 0.67825 0.35885 0.0
C1186 C 0.15393 0.64851 0.3048 0.0
C1187 C 0.15819 0.66439 0.26794 0.0
C1188 C 0.15435 0.68732 0.277 0.0
C1189 C 0.14576 0.69396 0.32229 0.0
C1190 C 0.15714 0.62386 0.29607 0.0
C1191 C 0.15933 0.70475 0.23894 0.0
C1192 C 0.195 0.64403 0.16481 0.0
C1193 C 0.17916 0.63965 0.1287 0.0
C1194 C 0.18851 0.65293 0.20989 0.0
C1195 C 0.16563 0.65676 0.21925 0.0
C1196 C 0.14961 0.65216 0.18284 0.0
C1197 C 0.15664 0.644 0.13767 0.0
C1198 C 0.20609 0.65825 0.24743 0.0
C1199 C 0.125 0.65533 0.19196 0.0
H1200 H 0.14289 0.64356 0.37849 0.0
H1201 H 0.14262 0.71144 0.32944 0.0
H1202 H 0.14654 0.61838 0.26522 0.0
H1203 H 0.17467 0.62041 0.28594 0.0
H1204 H 0.15288 0.6137 0.32855 0.0
H1205 H 0.15689 0.72194 0.25292 0.0
H1206 H 0.17676 0.70301 0.22609 0.0
H1207 H 0.14834 0.70232 0.20693 0.0
H1208 H 0.21247 0.64093 0.15744 0.0
H1209 H 0.14442 0.64054 0.1096 0.0
H1210 H 0.20388 0.64742 0.27977 0.0
H1211 H 0.20429 0.67575 0.25987 0.0
H1212 H 0.22323 0.65586 0.23313 0.0
H1213 H 0.11967 0.64486 0.22314 0.0
H1214 H 0.11472 0.65088 0.15976 0.0
H1215 H 0.12153 0.67291 0.20178 0.0
C1216 C 0.34759 0.1535 0.35812 0.0
C1217 C 0.32521 0.14874 0.36796 0.0
C1218 C 0.3542 0.16133 0.31223 0.0
C1219 C 0.33791 0.16514 0.27589 0.0
C1220 C 0.31514 0.1613 0.28644 0.0
C1221 C 0.30909 0.15277 0.33218 0.0
C1222 C 0.3787 0.16464 0.30206 0.0
C1223 C 0.29724 0.16583 0.24915 0.0
C1224 C 0.35677 0.20016 0.16807 0.0
C1225 C 0.36078 0.18372 0.13299 0.0
C1226 C 0.34849 0.19447 0.21428 0.0
C1227 C 0.34493 0.17176 0.226 0.0
C1228 C 0.34896 0.15513 0.19051 0.0
C1229 C 0.35648 0.16137 0.14416 0.0
C1230 C 0.34369 0.2127 0.25062 0.0
C1231 C 0.34597 0.1307 0.20191 0.0
H1232 H 0.36008 0.15028 0.38573 0.0
H1233 H 0.29174 0.14928 0.33999 0.0
H1234 H 0.38402 0.1533 0.27235 0.0
H1235 H 0.38185 0.18191 0.28957 0.0
H1236 H 0.3892 0.16133 0.33457 0.0
H1237 H 0.28024 0.16415 0.26468 0.0
H1238 H 0.29915 0.18288 0.23411 0.0
H1239 H 0.29889 0.154 0.21838 0.0
H1240 H 0.3599 0.21748 0.1592 0.0
H1241 H 0.3597 0.14863 0.11708 0.0
H1242 H 0.35512 0.2112 0.28216 0.0
H1243 H 0.32646 0.211 0.26473 0.0
H1244 H 0.34567 0.22957 0.23457 0.0
H1245 H 0.35691 0.12594 0.23277 0.0
H1246 H 0.34996 0.11987 0.17031 0.0
H1247 H 0.32856 0.12738 0.21325 0.0
loop_
_geom_bond_atom_site_label_1
_geom_bond_atom_site_label_2
_geom_bond_distance
_geom_bond_site_symmetry_2
_ccdc_geom_bond_type
Co0 O1 2.216 . S
Co0 O2 2.089 1_556 S
Co0 O4 2.004 . S
Co0 O10 2.021 1_556 S
Co0 O12 2.137 . S
Co0 O13 2.244 . S
O1 Co0 2.216 . S
O1 C8 1.246 1_556 S
O2 Co0 2.089 1_554 S
O2 C8 1.261 . S
C3 O12 1.247 . S
C3 O13 1.272 . S
O4 Co0 2.004 . S
O4 C9 1.259 . S
Co5 O6 2.061 1_556 S
Co5 O11 2.040 1_556 S
Co5 O13 2.143 . S
O6 Co5 2.061 1_554 S
O6 C9 1.235 1_554 S
C7 O10 1.238 . S
C7 O11 1.241 . S
C8 O1 1.246 1_554 S
C8 O2 1.261 . S
C9 O4 1.259 . S
C9 O6 1.235 1_556 S
O10 Co0 2.021 1_554 S
O10 C7 1.238 . S
O11 Co5 2.040 1_554 S
O11 C7 1.241 . S
O12 Co0 2.137 . S
O12 C3 1.247 . S
O13 Co0 2.244 . S
O13 C3 1.272 . S
O13 Co5 2.143 . S
Co14 O15 2.216 . S
Co14 O16 2.089 1_556 S
Co14 O18 2.004 . S
Co14 O24 2.021 1_556 S
Co14 O26 2.137 . S
Co14 O27 2.244 . S
O15 Co14 2.216 . S
O15 C22 1.246 1_556 S
O16 Co14 2.089 1_554 S
O16 C22 1.261 . S
C17 O26 1.247 . S
C17 O27 1.272 . S
O18 Co14 2.004 . S
O18 C23 1.259 . S
Co19 O20 2.061 1_556 S
Co19 O25 2.040 1_556 S
Co19 O27 2.143 . S
O20 Co19 2.061 1_554 S
O20 C23 1.235 1_554 S
C21 O24 1.238 . S
C21 O25 1.241 . S
C22 O15 1.246 1_554 S
C22 O16 1.261 . S
C23 O18 1.259 . S
C23 O20 1.235 1_556 S
O24 Co14 2.021 1_554 S
O24 C21 1.238 . S
O25 Co19 2.040 1_554 S
O25 C21 1.241 . S
O26 Co14 2.137 . S
O26 C17 1.247 . S
O27 Co14 2.244 . S
O27 C17 1.272 . S
O27 Co19 2.143 . S
Co28 O29 2.216 . S
Co28 O30 2.089 1_556 S
Co28 O32 2.004 . S
Co28 O38 2.021 1_556 S
Co28 O40 2.137 . S
Co28 O41 2.244 . S
O29 Co28 2.216 . S
O29 C36 1.246 1_556 S
O30 Co28 2.089 1_554 S
O30 C36 1.261 . S
C31 O40 1.247 . S
C31 O41 1.272 . S
O32 Co28 2.004 . S
O32 C37 1.259 . S
Co33 O34 2.061 1_556 S
Co33 O39 2.040 1_556 S
Co33 O41 2.143 . S
O34 Co33 2.061 1_554 S
O34 C37 1.235 1_554 S
C35 O38 1.238 . S
C35 O39 1.241 . S
C36 O29 1.246 1_554 S
C36 O30 1.261 . S
C37 O32 1.259 . S
C37 O34 1.235 1_556 S
O38 Co28 2.021 1_554 S
O38 C35 1.238 . S
O39 Co33 2.040 1_554 S
O39 C35 1.241 . S
O40 Co28 2.137 . S
O40 C31 1.247 . S
O41 Co28 2.244 . S
O41 C31 1.272 . S
O41 Co33 2.143 . S
Co42 O43 2.216 . S
Co42 O44 2.089 1_556 S
Co42 O46 2.004 . S
Co42 O52 2.021 1_556 S
Co42 O54 2.137 . S
Co42 O55 2.244 . S
O43 Co42 2.216 . S
O43 C50 1.246 1_556 S
O44 Co42 2.089 1_554 S
O44 C50 1.261 . S
C45 O54 1.247 . S
C45 O55 1.272 . S
O46 Co42 2.004 . S
O46 C51 1.259 . S
Co47 O48 2.061 1_556 S
Co47 O53 2.040 1_556 S
Co47 O55 2.143 . S
O48 Co47 2.061 1_554 S
O48 C51 1.235 1_554 S
C49 O52 1.238 . S
C49 O53 1.241 . S
C50 O43 1.246 1_554 S
C50 O44 1.261 . S
C51 O46 1.259 . S
C51 O48 1.235 1_556 S
O52 Co42 2.021 1_554 S
O52 C49 1.238 . S
O53 Co47 2.040 1_554 S
O53 C49 1.241 . S
O54 Co42 2.137 . S
O54 C45 1.247 . S
O55 Co42 2.244 . S
O55 C45 1.272 . S
O55 Co47 2.143 . S
Co56 O57 2.216 . S
Co56 O58 2.091 1_554 S
Co56 O60 2.004 . S
Co56 O66 2.021 1_554 S
Co56 O68 2.137 . S
Co56 O69 2.244 . S
O57 Co56 2.216 . S
O57 C64 1.248 . S
O58 Co56 2.091 1_556 S
O58 C64 1.261 1_556 S
C59 O68 1.247 . S
C59 O69 1.272 . S
O60 Co56 2.004 . S
O60 C65 1.259 . S
Co61 O62 2.061 1_554 S
Co61 O67 2.052 1_554 S
Co61 O69 2.135 . S
O62 Co61 2.061 1_556 S
O62 C65 1.235 1_556 S
C63 O66 1.238 . S
C63 O67 1.241 . S
C64 O57 1.248 . S
C64 O58 1.261 1_554 S
C65 O60 1.259 . S
C65 O62 1.235 1_554 S
O66 Co56 2.021 1_556 S
O66 C63 1.238 . S
O67 Co61 2.052 1_556 S
O67 C63 1.241 . S
O68 Co56 2.137 . S
O68 C59 1.247 . S
O69 Co56 2.244 . S
O69 C59 1.272 . S
O69 Co61 2.135 . S
Co70 O71 2.216 . S
Co70 O72 2.091 1_554 S
Co70 O74 2.004 . S
Co70 O80 2.021 1_554 S
Co70 O82 2.137 . S
Co70 O83 2.244 . S
O71 Co70 2.216 . S
O71 C78 1.248 . S
O72 Co70 2.091 1_556 S
O72 C78 1.261 1_556 S
C73 O82 1.247 . S
C73 O83 1.272 . S
O74 Co70 2.004 . S
O74 C79 1.259 . S
Co75 O76 2.061 1_554 S
Co75 O81 2.052 1_554 S
Co75 O83 2.135 . S
O76 Co75 2.061 1_556 S
O76 C79 1.235 1_556 S
C77 O80 1.238 . S
C77 O81 1.241 . S
C78 O71 1.248 . S
C78 O72 1.261 1_554 S
C79 O74 1.259 . S
C79 O76 1.235 1_554 S
O80 Co70 2.021 1_556 S
O80 C77 1.238 . S
O81 Co75 2.052 1_556 S
O81 C77 1.241 . S
O82 Co70 2.137 . S
O82 C73 1.247 . S
O83 Co70 2.244 . S
O83 C73 1.272 . S
O83 Co75 2.135 . S
Co84 O85 2.216 . S
Co84 O86 2.091 1_554 S
Co84 O88 2.004 . S
Co84 O94 2.021 1_554 S
Co84 O96 2.137 . S
Co84 O97 2.244 . S
O85 Co84 2.216 . S
O85 C92 1.248 . S
O86 Co84 2.091 1_556 S
O86 C92 1.261 1_556 S
C87 O96 1.247 . S
C87 O97 1.272 . S
O88 Co84 2.004 . S
O88 C93 1.259 . S
Co89 O90 2.061 1_554 S
Co89 O95 2.052 1_554 S
Co89 O97 2.135 . S
O90 Co89 2.061 1_556 S
O90 C93 1.235 1_556 S
C91 O94 1.238 . S
C91 O95 1.241 . S
C92 O85 1.248 . S
C92 O86 1.261 1_554 S
C93 O88 1.259 . S
C93 O90 1.235 1_554 S
O94 Co84 2.021 1_556 S
O94 C91 1.238 . S
O95 Co89 2.052 1_556 S
O95 C91 1.241 . S
O96 Co84 2.137 . S
O96 C87 1.247 . S
O97 Co84 2.244 . S
O97 C87 1.272 . S
O97 Co89 2.135 . S
Co98 O99 2.216 . S
Co98 O100 2.091 1_554 S
Co98 O102 2.004 . S
Co98 O108 2.021 1_554 S
Co98 O110 2.137 . S
Co98 O111 2.244 . S
O99 Co98 2.216 . S
O99 C106 1.248 . S
O100 Co98 2.091 1_556 S
O100 C106 1.261 1_556 S
C101 O110 1.247 . S
C101 O111 1.272 . S
O102 Co98 2.004 . S
O102 C107 1.259 . S
Co103 O104 2.061 1_554 S
Co103 O109 2.052 1_554 S
Co103 O111 2.135 . S
O104 Co103 2.061 1_556 S
O104 C107 1.235 1_556 S
C105 O108 1.238 . S
C105 O109 1.241 . S
C106 O99 1.248 . S
C106 O100 1.261 1_554 S
C107 O102 1.259 . S
C107 O104 1.235 1_554 S
O108 Co98 2.021 1_556 S
O108 C105 1.238 . S
O109 Co103 2.052 1_556 S
O109 C105 1.241 . S
O110 Co98 2.137 . S
O110 C101 1.247 . S
O111 Co98 2.244 . S
O111 C101 1.272 . S
O111 Co103 2.135 . S
Co112 O113 2.216 . S
Co112 O114 2.091 . S
Co112 O116 2.004 . S
Co112 O122 2.021 . S
Co112 O124 2.137 . S
Co112 O125 2.244 . S
O113 Co112 2.216 . S
O113 C120 1.247 . S
O114 Co112 2.091 . S
O114 C120 1.261 . S
C115 O124 1.247 . S
C115 O125 1.272 . S
O116 Co112 2.004 . S
O116 C121 1.259 . S
Co117 O118 2.061 . S
Co117 O123 2.052 . S
Co117 O125 2.135 . S
O118 Co117 2.061 . S
O118 C121 1.235 . S
C119 O122 1.238 . S
C119 O123 1.241 . S
C120 O113 1.247 . S
C120 O114 1.261 . S
C121 O116 1.259 . S
C121 O118 1.235 . S
O122 Co112 2.021 . S
O122 C119 1.238 . S
O123 Co117 2.052 . S
O123 C119 1.241 . S
O124 Co112 2.137 . S
O124 C115 1.247 . S
O125 Co112 2.244 . S
O125 C115 1.272 . S
O125 Co117 2.135 . S
Co126 O127 2.216 . S
Co126 O128 2.091 . S
Co126 O130 2.004 . S
Co126 O136 2.021 . S
Co126 O138 2.137 . S
Co126 O139 2.244 . S
O127 Co126 2.216 . S
O127 C134 1.247 . S
O128 Co126 2.091 . S
O128 C134 1.261 . S
C129 O138 1.247 . S
C129 O139 1.272 . S
O130 Co126 2.004 . S
O130 C135 1.259 . S
Co131 O132 2.061 . S
Co131 O137 2.052 . S
Co131 O139 2.135 . S
O132 Co131 2.061 . S
O132 C135 1.235 . S
C133 O136 1.238 . S
C133 O137 1.241 . S
C134 O127 1.247 . S
C134 O128 1.261 . S
C135 O130 1.259 . S
C135 O132 1.235 . S
O136 Co126 2.021 . S
O136 C133 1.238 . S
O137 Co131 2.052 . S
O137 C133 1.241 . S
O138 Co126 2.137 . S
O138 C129 1.247 . S
O139 Co126 2.244 . S
O139 C129 1.272 . S
O139 Co131 2.135 . S
Co140 O141 2.216 . S
Co140 O142 2.091 . S
Co140 O144 2.004 . S
Co140 O150 2.021 . S
Co140 O152 2.137 . S
Co140 O153 2.244 . S
O141 Co140 2.216 . S
O141 C148 1.247 . S
O142 Co140 2.091 . S
O142 C148 1.261 . S
C143 O152 1.247 . S
C143 O153 1.272 . S
O144 Co140 2.004 . S
O144 C149 1.259 . S
Co145 O146 2.061 . S
Co145 O151 2.052 . S
Co145 O153 2.135 . S
O146 Co145 2.061 . S
O146 C149 1.235 . S
C147 O150 1.238 . S
C147 O151 1.241 . S
C148 O141 1.247 . S
C148 O142 1.261 . S
C149 O144 1.259 . S
C149 O146 1.235 . S
O150 Co140 2.021 . S
O150 C147 1.238 . S
O151 Co145 2.052 . S
O151 C147 1.241 . S
O152 Co140 2.137 . S
O152 C143 1.247 . S
O153 Co140 2.244 . S
O153 C143 1.272 . S
O153 Co145 2.135 . S
Co154 O155 2.216 . S
Co154 O156 2.091 . S
Co154 O158 2.004 . S
Co154 O164 2.021 . S
Co154 O166 2.137 . S
Co154 O167 2.244 . S
O155 Co154 2.216 . S
O155 C162 1.247 . S
O156 Co154 2.091 . S
O156 C162 1.261 . S
C157 O166 1.247 . S
C157 O167 1.272 . S
O158 Co154 2.004 . S
O158 C163 1.259 . S
Co159 O160 2.061 . S
Co159 O165 2.052 . S
Co159 O167 2.135 . S
O160 Co159 2.061 . S
O160 C163 1.235 . S
C161 O164 1.238 . S
C161 O165 1.241 . S
C162 O155 1.247 . S
C162 O156 1.261 . S
C163 O158 1.259 . S
C163 O160 1.235 . S
O164 Co154 2.021 . S
O164 C161 1.238 . S
O165 Co159 2.052 . S
O165 C161 1.241 . S
O166 Co154 2.137 . S
O166 C157 1.247 . S
O167 Co154 2.244 . S
O167 C157 1.272 . S
O167 Co159 2.135 . S
Co168 O169 2.216 . S
Co168 O170 2.091 . S
Co168 O172 2.004 . S
Co168 O178 2.021 . S
Co168 O180 2.137 . S
Co168 O181 2.244 . S
O169 Co168 2.216 . S
O169 C176 1.247 . S
O170 Co168 2.091 . S
O170 C176 1.261 . S
C171 O180 1.247 . S
C171 O181 1.272 . S
O172 Co168 2.004 . S
O172 C177 1.259 . S
Co173 O174 2.061 . S
Co173 O179 2.052 . S
Co173 O181 2.135 . S
O174 Co173 2.061 . S
O174 C177 1.235 . S
C175 O178 1.238 . S
C175 O179 1.241 . S
C176 O169 1.247 . S
C176 O170 1.261 . S
C177 O172 1.259 . S
C177 O174 1.235 . S
O178 Co168 2.021 . S
O178 C175 1.238 . S
O179 Co173 2.052 . S
O179 C175 1.241 . S
O180 Co168 2.137 . S
O180 C171 1.247 . S
O181 Co168 2.244 . S
O181 C171 1.272 . S
O181 Co173 2.135 . S
Co182 O183 2.216 . S
Co182 O184 2.091 . S
Co182 O186 2.004 . S
Co182 O192 2.021 . S
Co182 O194 2.137 . S
Co182 O195 2.244 . S
O183 Co182 2.216 . S
O183 C190 1.247 . S
O184 Co182 2.091 . S
O184 C190 1.261 . S
C185 O194 1.247 . S
C185 O195 1.272 . S
O186 Co182 2.004 . S
O186 C191 1.259 . S
Co187 O188 2.061 . S
Co187 O193 2.052 . S
Co187 O195 2.135 . S
O188 Co187 2.061 . S
O188 C191 1.235 . S
C189 O192 1.238 . S
C189 O193 1.241 . S
C190 O183 1.247 . S
C190 O184 1.261 . S
C191 O186 1.259 . S
C191 O188 1.235 . S
O192 Co182 2.021 . S
O192 C189 1.238 . S
O193 Co187 2.052 . S
O193 C189 1.241 . S
O194 Co182 2.137 . S
O194 C185 1.247 . S
O195 Co182 2.244 . S
O195 C185 1.272 . S
O195 Co187 2.135 . S
Co196 O197 2.216 . S
Co196 O198 2.091 . S
Co196 O200 2.004 . S
Co196 O206 2.021 . S
Co196 O208 2.137 . S
Co196 O209 2.244 . S
O197 Co196 2.216 . S
O197 C204 1.247 . S
O198 Co196 2.091 . S
O198 C204 1.261 . S
C199 O208 1.247 . S
C199 O209 1.272 . S
O200 Co196 2.004 . S
O200 C205 1.259 . S
Co201 O202 2.061 . S
Co201 O207 2.052 . S
Co201 O209 2.135 . S
O202 Co201 2.061 . S
O202 C205 1.235 . S
C203 O206 1.238 . S
C203 O207 1.241 . S
C204 O197 1.247 . S
C204 O198 1.261 . S
C205 O200 1.259 . S
C205 O202 1.235 . S
O206 Co196 2.021 . S
O206 C203 1.238 . S
O207 Co201 2.052 . S
O207 C203 1.241 . S
O208 Co196 2.137 . S
O208 C199 1.247 . S
O209 Co196 2.244 . S
O209 C199 1.272 . S
O209 Co201 2.135 . S
Co210 O211 2.216 . S
Co210 O212 2.091 . S
Co210 O214 2.004 . S
Co210 O220 2.021 . S
Co210 O222 2.137 . S
Co210 O223 2.244 . S
O211 Co210 2.216 . S
O211 C218 1.247 . S
O212 Co210 2.091 . S
O212 C218 1.261 . S
C213 O222 1.247 . S
C213 O223 1.272 . S
O214 Co210 2.004 . S
O214 C219 1.259 . S
Co215 O216 2.061 . S
Co215 O221 2.052 . S
Co215 O223 2.135 . S
O216 Co215 2.061 . S
O216 C219 1.235 . S
C217 O220 1.238 . S
C217 O221 1.241 . S
C218 O211 1.247 . S
C218 O212 1.261 . S
C219 O214 1.259 . S
C219 O216 1.235 . S
O220 Co210 2.021 . S
O220 C217 1.238 . S
O221 Co215 2.052 . S
O221 C217 1.241 . S
O222 Co210 2.137 . S
O222 C213 1.247 . S
O223 Co210 2.244 . S
O223 C213 1.272 . S
O223 Co215 2.135 . S
C224 C225 1.391 . S
C224 C226 1.394 . S
C224 H240 0.931 . S
C225 C224 1.391 . S
C225 C229 1.376 1_554 S
C226 C224 1.394 . S
C226 C227 1.369 . S
C226 C230 1.531 . S
C227 C226 1.369 . S
C227 C228 1.410 1_554 S
C227 C235 1.503 . S
C228 C227 1.410 1_556 S
C228 C229 1.392 . S
C228 C231 1.511 . S
C229 C225 1.376 1_556 S
C229 C228 1.392 . S
C229 H241 0.929 . S
C230 C226 1.531 . S
C230 H242 0.960 . S
C230 H243 0.962 . S
C230 H244 0.960 . S
C231 C228 1.511 . S
C231 H245 0.961 . S
C231 H246 0.961 . S
C231 H247 0.961 . S
C232 C233 1.370 1_556 S
C232 C234 1.363 . S
C232 H248 0.931 . S
C233 C232 1.370 1_554 S
C233 C237 1.408 . S
C234 C232 1.363 . S
C234 C235 1.370 1_556 S
C234 C238 1.524 . S
C235 C227 1.503 . S
C235 C234 1.370 1_554 S
C235 C236 1.403 . S
C236 C235 1.403 . S
C236 C237 1.404 . S
C236 C239 1.539 . S
C237 C233 1.408 . S
C237 C236 1.404 . S
C237 H249 0.930 . S
C238 C234 1.524 . S
C238 H250 0.956 . S
C238 H251 0.961 . S
C238 H252 0.961 . S
C239 C236 1.539 . S
C239 H253 0.958 . S
C239 H254 0.961 . S
C239 H255 0.960 . S
H240 C224 0.931 . S
H241 C229 0.929 . S
H242 C230 0.960 . S
H243 C230 0.962 . S
H244 C230 0.960 . S
H245 C231 0.961 . S
H246 C231 0.961 . S
H247 C231 0.961 . S
H248 C232 0.931 . S
H249 C237 0.930 . S
H250 C238 0.956 . S
H251 C238 0.961 . S
H252 C238 0.961 . S
H253 C239 0.958 . S
H254 C239 0.961 . S
H255 C239 0.960 . S
C256 C257 1.391 1_554 S
C256 C258 1.394 . S
C256 H272 0.931 . S
C257 C256 1.391 1_556 S
C257 C261 1.376 . S
C258 C256 1.394 . S
C258 C259 1.369 1_554 S
C258 C262 1.531 . S
C259 C258 1.369 1_556 S
C259 C260 1.410 . S
C259 C267 1.503 . S
C260 C259 1.410 . S
C260 C261 1.392 . S
C260 C263 1.511 . S
C261 C257 1.376 . S
C261 C260 1.392 . S
C261 H273 0.929 . S
C262 C258 1.531 . S
C262 H274 0.960 . S
C262 H275 0.962 . S
C262 H276 0.960 . S
C263 C260 1.511 . S
C263 H277 0.961 . S
C263 H278 0.961 . S
C263 H279 0.961 . S
C264 C265 1.375 . S
C264 C266 1.363 . S
C264 H280 0.931 . S
C265 C264 1.375 . S
C265 C269 1.403 1_554 S
C266 C264 1.363 . S
C266 C267 1.370 1_554 S
C266 C270 1.524 . S
C267 C259 1.503 . S
C267 C266 1.370 1_556 S
C267 C268 1.403 . S
C268 C267 1.403 . S
C268 C269 1.404 . S
C268 C271 1.539 . S
C269 C265 1.403 1_556 S
C269 C268 1.404 . S
C269 H281 0.930 . S
C270 C266 1.524 . S
C270 H282 0.956 . S
C270 H283 0.961 . S
C270 H284 0.961 . S
C271 C268 1.539 . S
C271 H285 0.958 . S
C271 H286 0.961 . S
C271 H287 0.960 . S
H272 C256 0.931 . S
H273 C261 0.929 . S
H274 C262 0.960 . S
H275 C262 0.962 . S
H276 C262 0.960 . S
H277 C263 0.961 . S
H278 C263 0.961 . S
H279 C263 0.961 . S
H280 C264 0.931 . S
H281 C269 0.930 . S
H282 C270 0.956 . S
H283 C270 0.961 . S
H284 C270 0.961 . S
H285 C271 0.958 . S
H286 C271 0.961 . S
H287 C271 0.960 . S
C288 C289 1.391 . S
C288 C290 1.394 . S
C288 H304 0.931 . S
C289 C288 1.391 . S
C289 C293 1.376 1_556 S
C290 C288 1.394 . S
C290 C291 1.369 . S
C290 C294 1.531 . S
C291 C290 1.369 . S
C291 C292 1.410 1_556 S
C291 C299 1.503 . S
C292 C291 1.410 1_554 S
C292 C293 1.392 . S
C292 C295 1.511 . S
C293 C289 1.376 1_554 S
C293 C292 1.392 . S
C293 H305 0.929 . S
C294 C290 1.531 . S
C294 H306 0.960 . S
C294 H307 0.962 . S
C294 H308 0.960 . S
C295 C292 1.511 . S
C295 H309 0.961 . S
C295 H310 0.961 . S
C295 H311 0.961 . S
C296 C297 1.384 . S
C296 C298 1.363 . S
C296 H312 0.931 . S
C297 C296 1.384 . S
C297 C301 1.393 1_554 S
C298 C296 1.363 . S
C298 C299 1.370 1_554 S
C298 C302 1.524 . S
C299 C291 1.503 . S
C299 C298 1.370 1_556 S
C299 C300 1.403 . S
C300 C299 1.403 . S
C300 C301 1.404 . S
C300 C303 1.539 . S
C301 C297 1.393 1_556 S
C301 C300 1.404 . S
C301 H313 0.930 . S
C302 C298 1.524 . S
C302 H314 0.956 . S
C302 H315 0.961 . S
C302 H316 0.961 . S
C303 C300 1.539 . S
C303 H317 0.958 . S
C303 H318 0.961 . S
C303 H319 0.960 . S
H304 C288 0.931 . S
H305 C293 0.929 . S
H306 C294 0.960 . S
H307 C294 0.962 . S
H308 C294 0.960 . S
H309 C295 0.961 . S
H310 C295 0.961 . S
H311 C295 0.961 . S
H312 C296 0.931 . S
H313 C301 0.930 . S
H314 C302 0.956 . S
H315 C302 0.961 . S
H316 C302 0.961 . S
H317 C303 0.958 . S
H318 C303 0.961 . S
H319 C303 0.960 . S
C320 C321 1.391 1_554 S
C320 C322 1.394 . S
C320 H336 0.931 . S
C321 C320 1.391 1_556 S
C321 C325 1.376 . S
C322 C320 1.394 . S
C322 C323 1.369 1_554 S
C322 C326 1.531 . S
C323 C322 1.369 1_556 S
C323 C324 1.410 . S
C323 C331 1.503 . S
C324 C323 1.410 . S
C324 C325 1.392 . S
C324 C327 1.511 . S
C325 C321 1.376 . S
C325 C324 1.392 . S
C325 H337 0.929 . S
C326 C322 1.531 . S
C326 H338 0.960 . S
C326 H339 0.962 . S
C326 H340 0.960 . S
C327 C324 1.511 . S
C327 H341 0.961 . S
C327 H342 0.961 . S
C327 H343 0.961 . S
C328 C329 1.377 . S
C328 C330 1.363 . S
C328 H344 0.931 . S
C329 C328 1.377 . S
C329 C333 1.401 1_554 S
C330 C328 1.363 . S
C330 C331 1.370 1_554 S
C330 C334 1.524 . S
C331 C323 1.503 . S
C331 C330 1.370 1_556 S
C331 C332 1.403 . S
C332 C331 1.403 . S
C332 C333 1.404 . S
C332 C335 1.539 . S
C333 C329 1.401 1_556 S
C333 C332 1.404 . S
C333 H345 0.930 . S
C334 C330 1.524 . S
C334 H346 0.956 . S
C334 H347 0.961 . S
C334 H348 0.961 . S
C335 C332 1.539 . S
C335 H349 0.958 . S
C335 H350 0.961 . S
C335 H351 0.960 . S
H336 C320 0.931 . S
H337 C325 0.929 . S
H338 C326 0.960 . S
H339 C326 0.962 . S
H340 C326 0.960 . S
H341 C327 0.961 . S
H342 C327 0.961 . S
H343 C327 0.961 . S
H344 C328 0.931 . S
H345 C333 0.930 . S
H346 C334 0.956 . S
H347 C334 0.961 . S
H348 C334 0.961 . S
H349 C335 0.958 . S
H350 C335 0.961 . S
H351 C335 0.960 . S
C352 C353 1.391 . S
C352 C354 1.394 . S
C352 H368 0.931 . S
C353 C352 1.391 . S
C353 C357 1.376 . S
C354 C352 1.394 . S
C354 C355 1.369 . S
C354 C358 1.531 . S
C355 C354 1.369 . S
C355 C356 1.410 . S
C355 C363 1.503 1_545 S
C356 C355 1.410 . S
C356 C357 1.392 . S
C356 C359 1.511 . S
C357 C353 1.376 . S
C357 C356 1.392 . S
C357 H369 0.929 . S
C358 C354 1.531 . S
C358 H370 0.960 1_545 S
C358 H371 0.962 . S
C358 H372 0.960 . S
C359 C356 1.511 . S
C359 H373 0.961 . S
C359 H374 0.961 1_545 S
C359 H375 0.961 . S
C360 C361 1.370 . S
C360 C362 1.363 . S
C360 H376 0.931 . S
C361 C360 1.370 . S
C361 C365 1.408 . S
C362 C360 1.363 . S
C362 C363 1.370 . S
C362 C366 1.524 . S
C363 C355 1.503 1_565 S
C363 C362 1.370 . S
C363 C364 1.403 . S
C364 C363 1.403 . S
C364 C365 1.404 . S
C364 C367 1.539 . S
C365 C361 1.408 . S
C365 C364 1.404 . S
C365 H377 0.930 . S
C366 C362 1.524 . S
C366 H378 0.956 . S
C366 H379 0.932 1_565 S
C366 H380 0.961 . S
C367 C364 1.539 . S
C367 H381 0.958 . S
C367 H382 0.961 . S
C367 H383 0.956 . S
H368 C352 0.931 . S
H369 C357 0.929 . S
H370 C358 0.960 1_565 S
H371 C358 0.962 . S
H372 C358 0.960 . S
H373 C359 0.961 . S
H374 C359 0.961 1_565 S
H375 C359 0.961 . S
H376 C360 0.931 . S
H377 C365 0.930 . S
H378 C366 0.956 . S
H379 C366 0.932 1_545 S
H380 C366 0.961 . S
H381 C367 0.958 . S
H382 C367 0.961 . S
H383 C367 0.956 . S
C384 C385 1.391 . S
C384 C386 1.394 . S
C384 H400 0.931 . S
C385 C384 1.391 . S
C385 C389 1.376 . S
C386 C384 1.394 . S
C386 C387 1.369 . S
C386 C390 1.531 . S
C387 C386 1.369 . S
C387 C388 1.410 . S
C387 C395 1.503 1_655 S
C388 C387 1.410 . S
C388 C389 1.392 . S
C388 C391 1.511 . S
C389 C385 1.376 . S
C389 C388 1.392 . S
C389 H401 0.929 . S
C390 C386 1.531 . S
C390 H402 0.960 1_655 S
C390 H403 0.962 . S
C390 H404 0.960 . S
C391 C388 1.511 . S
C391 H405 0.961 . S
C391 H406 0.961 1_655 S
C391 H407 0.961 . S
C392 C393 1.370 . S
C392 C394 1.363 . S
C392 H408 0.931 . S
C393 C392 1.370 . S
C393 C397 1.408 . S
C394 C392 1.363 . S
C394 C395 1.370 . S
C394 C398 1.524 . S
C395 C387 1.503 1_455 S
C395 C394 1.370 . S
C395 C396 1.403 . S
C396 C395 1.403 . S
C396 C397 1.404 . S
C396 C399 1.539 . S
C397 C393 1.408 . S
C397 C396 1.404 . S
C397 H409 0.930 . S
C398 C394 1.524 . S
C398 H410 0.981 . S
C398 H411 0.961 1_455 S
C398 H412 0.961 . S
C399 C396 1.539 . S
C399 H413 0.958 . S
C399 H414 0.961 . S
C399 H415 0.972 . S
H400 C384 0.931 . S
H401 C389 0.929 . S
H402 C390 0.960 1_455 S
H403 C390 0.962 . S
H404 C390 0.960 . S
H405 C391 0.961 . S
H406 C391 0.961 1_455 S
H407 C391 0.961 . S
H408 C392 0.931 . S
H409 C397 0.930 . S
H410 C398 0.981 . S
H411 C398 0.961 1_655 S
H412 C398 0.961 . S
H413 C399 0.958 . S
H414 C399 0.961 . S
H415 C399 0.972 . S
C416 C417 1.391 . S
C416 C418 1.394 . S
C416 H432 0.931 . S
C417 C416 1.391 . S
C417 C421 1.376 . S
C418 C416 1.394 . S
C418 C419 1.369 . S
C418 C422 1.531 . S
C419 C418 1.369 . S
C419 C420 1.410 . S
C419 C427 1.503 1_545 S
C420 C419 1.410 . S
C420 C421 1.392 . S
C420 C423 1.511 . S
C421 C417 1.376 . S
C421 C420 1.392 . S
C421 H433 0.929 . S
C422 C418 1.531 . S
C422 H434 0.960 1_545 S
C422 H435 0.962 . S
C422 H436 0.960 . S
C423 C420 1.511 . S
C423 H437 0.961 . S
C423 H438 0.961 1_545 S
C423 H439 0.961 . S
C424 C425 1.370 . S
C424 C426 1.363 . S
C424 H440 0.931 . S
C425 C424 1.370 . S
C425 C429 1.408 . S
C426 C424 1.363 . S
C426 C427 1.370 . S
C426 C430 1.524 . S
C427 C419 1.503 1_565 S
C427 C426 1.370 . S
C427 C428 1.403 . S
C428 C427 1.403 . S
C428 C429 1.404 . S
C428 C431 1.539 . S
C429 C425 1.408 . S
C429 C428 1.404 . S
C429 H441 0.930 . S
C430 C426 1.524 . S
C430 H442 0.956 . S
C430 H443 0.928 1_565 S
C430 H444 0.961 . S
C431 C428 1.539 . S
C431 H445 0.958 . S
C431 H446 0.961 . S
C431 H447 0.951 1_565 S
H432 C416 0.931 . S
H433 C421 0.929 . S
H434 C422 0.960 1_565 S
H435 C422 0.962 . S
H436 C422 0.960 . S
H437 C423 0.961 . S
H438 C423 0.961 1_565 S
H439 C423 0.961 . S
H440 C424 0.931 . S
H441 C429 0.930 . S
H442 C430 0.956 . S
H443 C430 0.928 1_545 S
H444 C430 0.961 . S
H445 C431 0.958 . S
H446 C431 0.961 . S
H447 C431 0.951 1_545 S
C448 C449 1.391 . S
C448 C450 1.394 . S
C448 H464 0.931 . S
C449 C448 1.391 . S
C449 C453 1.376 . S
C450 C448 1.394 . S
C450 C451 1.369 . S
C450 C454 1.531 . S
C451 C450 1.369 . S
C451 C452 1.410 . S
C451 C459 1.503 1_455 S
C452 C451 1.410 . S
C452 C453 1.392 . S
C452 C455 1.511 . S
C453 C449 1.376 . S
C453 C452 1.392 . S
C453 H465 0.929 . S
C454 C450 1.531 . S
C454 H466 0.960 1_455 S
C454 H467 0.962 . S
C454 H468 0.960 . S
C455 C452 1.511 . S
C455 H469 0.961 . S
C455 H470 0.961 1_455 S
C455 H471 0.961 . S
C456 C457 1.370 . S
C456 C458 1.363 . S
C456 H472 0.931 . S
C457 C456 1.370 . S
C457 C461 1.408 . S
C458 C456 1.363 . S
C458 C459 1.370 . S
C458 C462 1.524 . S
C459 C451 1.503 1_655 S
C459 C458 1.370 . S
C459 C460 1.403 . S
C460 C459 1.403 . S
C460 C461 1.404 . S
C460 C463 1.539 . S
C461 C457 1.408 . S
C461 C460 1.404 . S
C461 H473 0.930 . S
C462 C458 1.524 . S
C462 H474 0.977 . S
C462 H475 0.961 1_655 S
C462 H476 0.961 . S
C463 C460 1.539 . S
C463 H477 0.958 . S
C463 H478 0.961 . S
C463 H479 0.986 . S
H464 C448 0.931 . S
H465 C453 0.929 . S
H466 C454 0.960 1_655 S
H467 C454 0.962 . S
H468 C454 0.960 . S
H469 C455 0.961 . S
H470 C455 0.961 1_655 S
H471 C455 0.961 . S
H472 C456 0.931 . S
H473 C461 0.930 . S
H474 C462 0.977 . S
H475 C462 0.961 1_455 S
H476 C462 0.961 . S
H477 C463 0.958 . S
H478 C463 0.961 . S
H479 C463 0.986 . S
C480 C481 1.391 . S
C480 C482 1.394 . S
C480 H496 0.931 . S
C481 C480 1.391 . S
C481 C485 1.376 . S
C482 C480 1.394 . S
C482 C483 1.369 . S
C482 C486 1.531 . S
C483 C482 1.369 . S
C483 C484 1.410 . S
C483 C491 1.503 . S
C484 C483 1.410 . S
C484 C485 1.392 . S
C484 C487 1.511 . S
C485 C481 1.376 . S
C485 C484 1.392 . S
C485 H497 0.929 . S
C486 C482 1.531 . S
C486 H498 0.960 . S
C486 H499 0.962 1_556 S
C486 H500 0.960 . S
C487 C484 1.511 . S
C487 H501 0.961 1_556 S
C487 H502 0.961 1_556 S
C487 H503 0.961 . S
C488 C489 1.367 1_554 S
C488 C490 1.363 . S
C488 H504 0.931 . S
C489 C488 1.367 1_556 S
C489 C493 1.412 . S
C490 C488 1.363 . S
C490 C491 1.370 1_554 S
C490 C494 1.524 . S
C491 C483 1.503 . S
C491 C490 1.370 1_556 S
C491 C492 1.403 . S
C492 C491 1.403 . S
C492 C493 1.404 . S
C492 C495 1.539 . S
C493 C489 1.412 . S
C493 C492 1.404 . S
C493 H505 0.930 . S
C494 C490 1.524 . S
C494 H506 0.956 . S
C494 H507 0.961 . S
C494 H508 0.961 . S
C495 C492 1.539 . S
C495 H509 0.958 . S
C495 H510 0.961 . S
C495 H511 0.960 . S
H496 C480 0.931 . S
H497 C485 0.929 . S
H498 C486 0.960 . S
H499 C486 0.962 1_554 S
H500 C486 0.960 . S
H501 C487 0.961 1_554 S
H502 C487 0.961 1_554 S
H503 C487 0.961 . S
H504 C488 0.931 . S
H505 C493 0.930 . S
H506 C494 0.956 . S
H507 C494 0.961 . S
H508 C494 0.961 . S
H509 C495 0.958 . S
H510 C495 0.961 . S
H511 C495 0.960 . S
C512 C513 1.391 1_556 S
C512 C514 1.394 . S
C512 H528 0.931 . S
C513 C512 1.391 1_554 S
C513 C517 1.376 . S
C514 C512 1.394 . S
C514 C515 1.369 1_556 S
C514 C518 1.531 . S
C515 C514 1.369 1_554 S
C515 C516 1.410 . S
C515 C523 1.503 . S
C516 C515 1.410 . S
C516 C517 1.392 . S
C516 C519 1.511 . S
C517 C513 1.376 . S
C517 C516 1.392 . S
C517 H529 0.929 . S
C518 C514 1.531 . S
C518 H530 0.960 1_556 S
C518 H531 0.962 . S
C518 H532 0.960 . S
C519 C516 1.511 . S
C519 H533 0.961 . S
C519 H534 0.961 . S
C519 H535 0.961 . S
C520 C521 1.370 1_556 S
C520 C522 1.363 . S
C520 H536 0.931 . S
C521 C520 1.370 1_554 S
C521 C525 1.408 . S
C522 C520 1.363 . S
C522 C523 1.370 1_556 S
C522 C526 1.524 . S
C523 C515 1.503 . S
C523 C522 1.370 1_554 S
C523 C524 1.403 . S
C524 C523 1.403 . S
C524 C525 1.404 . S
C524 C527 1.539 . S
C525 C521 1.408 . S
C525 C524 1.404 . S
C525 H537 0.930 . S
C526 C522 1.524 . S
C526 H538 0.956 . S
C526 H539 0.961 . S
C526 H540 0.961 . S
C527 C524 1.539 . S
C527 H541 0.958 . S
C527 H542 0.961 . S
C527 H543 0.960 . S
H528 C512 0.931 . S
H529 C517 0.929 . S
H530 C518 0.960 1_554 S
H531 C518 0.962 . S
H532 C518 0.960 . S
H533 C519 0.961 . S
H534 C519 0.961 . S
H535 C519 0.961 . S
H536 C520 0.931 . S
H537 C525 0.930 . S
H538 C526 0.956 . S
H539 C526 0.961 . S
H540 C526 0.961 . S
H541 C527 0.958 . S
H542 C527 0.961 . S
H543 C527 0.960 . S
C544 C545 1.391 . S
C544 C546 1.394 . S
C544 H560 0.931 . S
C545 C544 1.391 . S
C545 C549 1.376 . S
C546 C544 1.394 . S
C546 C547 1.369 . S
C546 C550 1.531 . S
C547 C546 1.369 . S
C547 C548 1.410 . S
C547 C555 1.503 . S
C548 C547 1.410 . S
C548 C549 1.392 . S
C548 C551 1.511 . S
C549 C545 1.376 . S
C549 C548 1.392 . S
C549 H561 0.929 . S
C550 C546 1.531 . S
C550 H562 0.960 . S
C550 H563 0.962 1_556 S
C550 H564 0.960 . S
C551 C548 1.511 . S
C551 H565 0.961 . S
C551 H566 0.961 . S
C551 H567 0.961 . S
C552 C553 1.366 1_554 S
C552 C554 1.363 . S
C552 H568 0.931 . S
C553 C552 1.366 1_556 S
C553 C557 1.412 . S
C554 C552 1.363 . S
C554 C555 1.370 1_554 S
C554 C558 1.524 . S
C555 C547 1.503 . S
C555 C554 1.370 1_556 S
C555 C556 1.403 . S
C556 C555 1.403 . S
C556 C557 1.404 . S
C556 C559 1.539 . S
C557 C553 1.412 . S
C557 C556 1.404 . S
C557 H569 0.930 . S
C558 C554 1.524 . S
C558 H570 0.956 . S
C558 H571 0.961 . S
C558 H572 0.961 . S
C559 C556 1.539 . S
C559 H573 0.958 . S
C559 H574 0.961 . S
C559 H575 0.960 . S
H560 C544 0.931 . S
H561 C549 0.929 . S
H562 C550 0.960 . S
H563 C550 0.962 1_554 S
H564 C550 0.960 . S
H565 C551 0.961 . S
H566 C551 0.961 . S
H567 C551 0.961 . S
H568 C552 0.931 . S
H569 C557 0.930 . S
H570 C558 0.956 . S
H571 C558 0.961 . S
H572 C558 0.961 . S
H573 C559 0.958 . S
H574 C559 0.961 . S
H575 C559 0.960 . S
C576 C577 1.391 . S
C576 C578 1.394 . S
C576 H592 0.931 . S
C577 C576 1.391 . S
C577 C581 1.376 1_556 S
C578 C576 1.394 . S
C578 C579 1.369 . S
C578 C582 1.531 . S
C579 C578 1.369 . S
C579 C580 1.410 1_556 S
C579 C587 1.503 . S
C580 C579 1.410 1_554 S
C580 C581 1.392 . S
C580 C583 1.511 . S
C581 C577 1.376 1_554 S
C581 C580 1.392 . S
C581 H593 0.929 . S
C582 C578 1.531 . S
C582 H594 0.960 . S
C582 H595 0.962 . S
C582 H596 0.960 . S
C583 C580 1.511 . S
C583 H597 0.961 . S
C583 H598 0.961 . S
C583 H599 0.961 . S
C584 C585 1.370 1_554 S
C584 C586 1.363 . S
C584 H600 0.931 . S
C585 C584 1.370 1_556 S
C585 C589 1.408 . S
C586 C584 1.363 . S
C586 C587 1.370 1_554 S
C586 C590 1.524 . S
C587 C579 1.503 . S
C587 C586 1.370 1_556 S
C587 C588 1.403 . S
C588 C587 1.403 . S
C588 C589 1.404 . S
C588 C591 1.539 . S
C589 C585 1.408 . S
C589 C588 1.404 . S
C589 H601 0.930 . S
C590 C586 1.524 . S
C590 H602 0.956 . S
C590 H603 0.961 . S
C590 H604 0.961 . S
C591 C588 1.539 . S
C591 H605 0.958 . S
C591 H606 0.961 . S
C591 H607 0.960 . S
H592 C576 0.931 . S
H593 C581 0.929 . S
H594 C582 0.960 . S
H595 C582 0.962 . S
H596 C582 0.960 . S
H597 C583 0.961 . S
H598 C583 0.961 . S
H599 C583 0.961 . S
H600 C584 0.931 . S
H601 C589 0.930 . S
H602 C590 0.956 . S
H603 C590 0.961 . S
H604 C590 0.961 . S
H605 C591 0.958 . S
H606 C591 0.961 . S
H607 C591 0.960 . S
C608 C609 1.391 . S
C608 C610 1.394 . S
C608 H624 0.931 . S
C609 C608 1.391 . S
C609 C613 1.376 . S
C610 C608 1.394 . S
C610 C611 1.369 . S
C610 C614 1.531 . S
C611 C610 1.369 . S
C611 C612 1.410 . S
C611 C619 1.503 . S
C612 C611 1.410 . S
C612 C613 1.392 . S
C612 C615 1.511 . S
C613 C609 1.376 . S
C613 C612 1.392 . S
C613 H625 0.929 . S
C614 C610 1.531 . S
C614 H626 0.960 . S
C614 H627 0.962 . S
C614 H628 0.960 . S
C615 C612 1.511 . S
C615 H629 0.961 . S
C615 H630 0.961 . S
C615 H631 0.961 . S
C616 C617 1.370 . S
C616 C618 1.363 . S
C616 H632 0.931 . S
C617 C616 1.370 . S
C617 C621 1.408 . S
C618 C616 1.363 . S
C618 C619 1.370 . S
C618 C622 1.524 . S
C619 C611 1.503 . S
C619 C618 1.370 . S
C619 C620 1.403 . S
C620 C619 1.403 . S
C620 C621 1.404 . S
C620 C623 1.539 . S
C621 C617 1.408 . S
C621 C620 1.404 . S
C621 H633 0.930 . S
C622 C618 1.524 . S
C622 H634 0.956 . S
C622 H635 0.961 . S
C622 H636 0.961 . S
C623 C620 1.539 . S
C623 H637 0.958 . S
C623 H638 0.961 . S
C623 H639 0.960 . S
H624 C608 0.931 . S
H625 C613 0.929 . S
H626 C614 0.960 . S
H627 C614 0.962 . S
H628 C614 0.960 . S
H629 C615 0.961 . S
H630 C615 0.961 . S
H631 C615 0.961 . S
H632 C616 0.931 . S
H633 C621 0.930 . S
H634 C622 0.956 . S
H635 C622 0.961 . S
H636 C622 0.961 . S
H637 C623 0.958 . S
H638 C623 0.961 . S
H639 C623 0.960 . S
C640 C641 1.391 . S
C640 C642 1.394 . S
C640 H656 0.931 . S
C641 C640 1.391 . S
C641 C645 1.376 . S
C642 C640 1.394 . S
C642 C643 1.369 . S
C642 C646 1.531 . S
C643 C642 1.369 . S
C643 C644 1.410 . S
C643 C651 1.503 . S
C644 C643 1.410 . S
C644 C645 1.392 . S
C644 C647 1.511 . S
C645 C641 1.376 . S
C645 C644 1.392 . S
C645 H657 0.929 . S
C646 C642 1.531 . S
C646 H658 0.960 . S
C646 H659 0.962 . S
C646 H660 0.960 . S
C647 C644 1.511 . S
C647 H661 0.961 . S
C647 H662 0.961 . S
C647 H663 0.961 . S
C648 C649 1.370 . S
C648 C650 1.363 . S
C648 H664 0.931 . S
C649 C648 1.370 . S
C649 C653 1.408 . S
C650 C648 1.363 . S
C650 C651 1.370 . S
C650 C654 1.524 . S
C651 C643 1.503 . S
C651 C650 1.370 . S
C651 C652 1.403 . S
C652 C651 1.403 . S
C652 C653 1.404 . S
C652 C655 1.539 . S
C653 C649 1.408 . S
C653 C652 1.404 . S
C653 H665 0.930 . S
C654 C650 1.524 . S
C654 H666 0.956 . S
C654 H667 0.961 . S
C654 H668 0.961 . S
C655 C652 1.539 . S
C655 H669 0.958 . S
C655 H670 0.961 . S
C655 H671 0.960 . S
H656 C640 0.931 . S
H657 C645 0.929 . S
H658 C646 0.960 . S
H659 C646 0.962 . S
H660 C646 0.960 . S
H661 C647 0.961 . S
H662 C647 0.961 . S
H663 C647 0.961 . S
H664 C648 0.931 . S
H665 C653 0.930 . S
H666 C654 0.956 . S
H667 C654 0.961 . S
H668 C654 0.961 . S
H669 C655 0.958 . S
H670 C655 0.961 . S
H671 C655 0.960 . S
C672 C673 1.391 . S
C672 C674 1.394 . S
C672 H688 0.931 . S
C673 C672 1.391 . S
C673 C677 1.376 . S
C674 C672 1.394 . S
C674 C675 1.369 . S
C674 C678 1.531 . S
C675 C674 1.369 . S
C675 C676 1.410 . S
C675 C683 1.503 . S
C676 C675 1.410 . S
C676 C677 1.392 . S
C676 C679 1.511 . S
C677 C673 1.376 . S
C677 C676 1.392 . S
C677 H689 0.929 . S
C678 C674 1.531 . S
C678 H690 0.960 . S
C678 H691 0.962 . S
C678 H692 0.960 . S
C679 C676 1.511 . S
C679 H693 0.961 . S
C679 H694 0.961 . S
C679 H695 0.961 . S
C680 C681 1.370 . S
C680 C682 1.363 . S
C680 H696 0.931 . S
C681 C680 1.370 . S
C681 C685 1.408 . S
C682 C680 1.363 . S
C682 C683 1.370 . S
C682 C686 1.524 . S
C683 C675 1.503 . S
C683 C682 1.370 . S
C683 C684 1.403 . S
C684 C683 1.403 . S
C684 C685 1.404 . S
C684 C687 1.539 . S
C685 C681 1.408 . S
C685 C684 1.404 . S
C685 H697 0.930 . S
C686 C682 1.524 . S
C686 H698 0.956 . S
C686 H699 0.961 . S
C686 H700 0.961 . S
C687 C684 1.539 . S
C687 H701 0.958 . S
C687 H702 0.961 . S
C687 H703 0.960 . S
H688 C672 0.931 . S
H689 C677 0.929 . S
H690 C678 0.960 . S
H691 C678 0.962 . S
H692 C678 0.960 . S
H693 C679 0.961 . S
H694 C679 0.961 . S
H695 C679 0.961 . S
H696 C680 0.931 . S
H697 C685 0.930 . S
H698 C686 0.956 . S
H699 C686 0.961 . S
H700 C686 0.961 . S
H701 C687 0.958 . S
H702 C687 0.961 . S
H703 C687 0.960 . S
C704 C705 1.391 . S
C704 C706 1.394 . S
C704 H720 0.931 . S
C705 C704 1.391 . S
C705 C709 1.376 . S
C706 C704 1.394 . S
C706 C707 1.369 . S
C706 C710 1.531 . S
C707 C706 1.369 . S
C707 C708 1.410 . S
C707 C715 1.503 . S
C708 C707 1.410 . S
C708 C709 1.392 . S
C708 C711 1.511 . S
C709 C705 1.376 . S
C709 C708 1.392 . S
C709 H721 0.929 . S
C710 C706 1.531 . S
C710 H722 0.960 . S
C710 H723 0.962 . S
C710 H724 0.960 . S
C711 C708 1.511 . S
C711 H725 0.961 . S
C711 H726 0.961 . S
C711 H727 0.961 . S
C712 C713 1.370 . S
C712 C714 1.363 . S
C712 H728 0.931 . S
C713 C712 1.370 . S
C713 C717 1.408 . S
C714 C712 1.363 . S
C714 C715 1.370 . S
C714 C718 1.524 . S
C715 C707 1.503 . S
C715 C714 1.370 . S
C715 C716 1.403 . S
C716 C715 1.403 . S
C716 C717 1.404 . S
C716 C719 1.539 . S
C717 C713 1.408 . S
C717 C716 1.404 . S
C717 H729 0.930 . S
C718 C714 1.524 . S
C718 H730 0.956 . S
C718 H731 0.961 . S
C718 H732 0.961 . S
C719 C716 1.539 . S
C719 H733 0.958 . S
C719 H734 0.961 . S
C719 H735 0.960 . S
H720 C704 0.931 . S
H721 C709 0.929 . S
H722 C710 0.960 . S
H723 C710 0.962 . S
H724 C710 0.960 . S
H725 C711 0.961 . S
H726 C711 0.961 . S
H727 C711 0.961 . S
H728 C712 0.931 . S
H729 C717 0.930 . S
H730 C718 0.956 . S
H731 C718 0.961 . S
H732 C718 0.961 . S
H733 C719 0.958 . S
H734 C719 0.961 . S
H735 C719 0.960 . S
C736 C737 1.391 . S
C736 C738 1.394 . S
C736 H752 0.931 . S
C737 C736 1.391 . S
C737 C741 1.376 . S
C738 C736 1.394 . S
C738 C739 1.369 . S
C738 C742 1.531 . S
C739 C738 1.369 . S
C739 C740 1.410 . S
C739 C747 1.503 . S
C740 C739 1.410 . S
C740 C741 1.392 . S
C740 C743 1.511 . S
C741 C737 1.376 . S
C741 C740 1.392 . S
C741 H753 0.929 . S
C742 C738 1.531 . S
C742 H754 0.960 . S
C742 H755 0.962 . S
C742 H756 0.960 . S
C743 C740 1.511 . S
C743 H757 0.961 . S
C743 H758 0.961 . S
C743 H759 0.961 . S
C744 C745 1.370 . S
C744 C746 1.363 . S
C744 H760 0.931 . S
C745 C744 1.370 . S
C745 C749 1.408 . S
C746 C744 1.363 . S
C746 C747 1.370 . S
C746 C750 1.524 . S
C747 C739 1.503 . S
C747 C746 1.370 . S
C747 C748 1.403 . S
C748 C747 1.403 . S
C748 C749 1.404 . S
C748 C751 1.539 . S
C749 C745 1.408 . S
C749 C748 1.404 . S
C749 H761 0.930 . S
C750 C746 1.524 . S
C750 H762 0.956 . S
C750 H763 0.961 . S
C750 H764 0.961 . S
C751 C748 1.539 . S
C751 H765 0.958 . S
C751 H766 0.961 . S
C751 H767 0.960 . S
H752 C736 0.931 . S
H753 C741 0.929 . S
H754 C742 0.960 . S
H755 C742 0.962 . S
H756 C742 0.960 . S
H757 C743 0.961 . S
H758 C743 0.961 . S
H759 C743 0.961 . S
H760 C744 0.931 . S
H761 C749 0.930 . S
H762 C750 0.956 . S
H763 C750 0.961 . S
H764 C750 0.961 . S
H765 C751 0.958 . S
H766 C751 0.961 . S
H767 C751 0.960 . S
C768 C769 1.391 . S
C768 C770 1.394 . S
C768 H784 0.931 . S
C769 C768 1.391 . S
C769 C773 1.376 . S
C770 C768 1.394 . S
C770 C771 1.369 . S
C770 C774 1.531 . S
C771 C770 1.369 . S
C771 C772 1.410 . S
C771 C779 1.503 . S
C772 C771 1.410 . S
C772 C773 1.392 . S
C772 C775 1.511 . S
C773 C769 1.376 . S
C773 C772 1.392 . S
C773 H785 0.929 . S
C774 C770 1.531 . S
C774 H786 0.960 . S
C774 H787 0.962 . S
C774 H788 0.960 . S
C775 C772 1.511 . S
C775 H789 0.961 . S
C775 H790 0.961 . S
C775 H791 0.961 . S
C776 C777 1.370 . S
C776 C778 1.363 . S
C776 H792 0.931 . S
C777 C776 1.370 . S
C777 C781 1.408 . S
C778 C776 1.363 . S
C778 C779 1.370 . S
C778 C782 1.524 . S
C779 C771 1.503 . S
C779 C778 1.370 . S
C779 C780 1.403 . S
C780 C779 1.403 . S
C780 C781 1.404 . S
C780 C783 1.539 . S
C781 C777 1.408 . S
C781 C780 1.404 . S
C781 H793 0.930 . S
C782 C778 1.524 . S
C782 H794 0.956 . S
C782 H795 0.961 . S
C782 H796 0.961 . S
C783 C780 1.539 . S
C783 H797 0.958 . S
C783 H798 0.961 . S
C783 H799 0.960 . S
H784 C768 0.931 . S
H785 C773 0.929 . S
H786 C774 0.960 . S
H787 C774 0.962 . S
H788 C774 0.960 . S
H789 C775 0.961 . S
H790 C775 0.961 . S
H791 C775 0.961 . S
H792 C776 0.931 . S
H793 C781 0.930 . S
H794 C782 0.956 . S
H795 C782 0.961 . S
H796 C782 0.961 . S
H797 C783 0.958 . S
H798 C783 0.961 . S
H799 C783 0.960 . S
C800 C801 1.391 . S
C800 C802 1.394 . S
C800 H816 0.931 . S
C801 C800 1.391 . S
C801 C805 1.376 . S
C802 C800 1.394 . S
C802 C803 1.369 . S
C802 C806 1.531 . S
C803 C802 1.369 . S
C803 C804 1.410 . S
C803 C811 1.503 . S
C804 C803 1.410 . S
C804 C805 1.392 . S
C804 C807 1.511 . S
C805 C801 1.376 . S
C805 C804 1.392 . S
C805 H817 0.929 . S
C806 C802 1.531 . S
C806 H818 0.960 . S
C806 H819 0.962 . S
C806 H820 0.960 . S
C807 C804 1.511 . S
C807 H821 0.961 . S
C807 H822 0.961 . S
C807 H823 0.961 . S
C808 C809 1.370 . S
C808 C810 1.363 . S
C808 H824 0.931 . S
C809 C808 1.370 . S
C809 C813 1.408 . S
C810 C808 1.363 . S
C810 C811 1.370 . S
C810 C814 1.524 . S
C811 C803 1.503 . S
C811 C810 1.370 . S
C811 C812 1.403 . S
C812 C811 1.403 . S
C812 C813 1.404 . S
C812 C815 1.539 . S
C813 C809 1.408 . S
C813 C812 1.404 . S
C813 H825 0.930 . S
C814 C810 1.524 . S
C814 H826 0.956 . S
C814 H827 0.961 . S
C814 H828 0.961 . S
C815 C812 1.539 . S
C815 H829 0.958 . S
C815 H830 0.961 . S
C815 H831 0.960 . S
H816 C800 0.931 . S
H817 C805 0.929 . S
H818 C806 0.960 . S
H819 C806 0.962 . S
H820 C806 0.960 . S
H821 C807 0.961 . S
H822 C807 0.961 . S
H823 C807 0.961 . S
H824 C808 0.931 . S
H825 C813 0.930 . S
H826 C814 0.956 . S
H827 C814 0.961 . S
H828 C814 0.961 . S
H829 C815 0.958 . S
H830 C815 0.961 . S
H831 C815 0.960 . S
C832 C833 1.391 . S
C832 C834 1.394 . S
C832 H848 0.931 . S
C833 C832 1.391 . S
C833 C837 1.376 . S
C834 C832 1.394 . S
C834 C835 1.369 . S
C834 C838 1.531 . S
C835 C834 1.369 . S
C835 C836 1.410 . S
C835 C843 1.503 . S
C836 C835 1.410 . S
C836 C837 1.392 . S
C836 C839 1.511 . S
C837 C833 1.376 . S
C837 C836 1.392 . S
C837 H849 0.929 . S
C838 C834 1.531 . S
C838 H850 0.960 . S
C838 H851 0.962 . S
C838 H852 0.960 . S
C839 C836 1.511 . S
C839 H853 0.961 . S
C839 H854 0.961 . S
C839 H855 0.961 . S
C840 C841 1.370 . S
C840 C842 1.363 . S
C840 H856 0.931 . S
C841 C840 1.370 . S
C841 C845 1.408 . S
C842 C840 1.363 . S
C842 C843 1.370 . S
C842 C846 1.524 . S
C843 C835 1.503 . S
C843 C842 1.370 . S
C843 C844 1.403 . S
C844 C843 1.403 . S
C844 C845 1.404 . S
C844 C847 1.539 . S
C845 C841 1.408 . S
C845 C844 1.404 . S
C845 H857 0.930 . S
C846 C842 1.524 . S
C846 H858 0.956 . S
C846 H859 0.961 . S
C846 H860 0.961 . S
C847 C844 1.539 . S
C847 H861 0.958 . S
C847 H862 0.961 . S
C847 H863 0.960 . S
H848 C832 0.931 . S
H849 C837 0.929 . S
H850 C838 0.960 . S
H851 C838 0.962 . S
H852 C838 0.960 . S
H853 C839 0.961 . S
H854 C839 0.961 . S
H855 C839 0.961 . S
H856 C840 0.931 . S
H857 C845 0.930 . S
H858 C846 0.956 . S
H859 C846 0.961 . S
H860 C846 0.961 . S
H861 C847 0.958 . S
H862 C847 0.961 . S
H863 C847 0.960 . S
C864 C865 1.391 . S
C864 C866 1.394 . S
C864 H880 0.931 . S
C865 C864 1.391 . S
C865 C869 1.376 . S
C866 C864 1.394 . S
C866 C867 1.369 . S
C866 C870 1.531 . S
C867 C866 1.369 . S
C867 C868 1.410 . S
C867 C875 1.503 . S
C868 C867 1.410 . S
C868 C869 1.392 . S
C868 C871 1.511 . S
C869 C865 1.376 . S
C869 C868 1.392 . S
C869 H881 0.929 . S
C870 C866 1.531 . S
C870 H882 0.960 . S
C870 H883 0.962 . S
C870 H884 0.960 . S
C871 C868 1.511 . S
C871 H885 0.961 . S
C871 H886 0.961 . S
C871 H887 0.961 . S
C872 C873 1.370 . S
C872 C874 1.363 . S
C872 H888 0.931 . S
C873 C872 1.370 . S
C873 C877 1.408 . S
C874 C872 1.363 . S
C874 C875 1.370 . S
C874 C878 1.524 . S
C875 C867 1.503 . S
C875 C874 1.370 . S
C875 C876 1.403 . S
C876 C875 1.403 . S
C876 C877 1.404 . S
C876 C879 1.539 . S
C877 C873 1.408 . S
C877 C876 1.404 . S
C877 H889 0.930 . S
C878 C874 1.524 . S
C878 H890 0.956 . S
C878 H891 0.961 . S
C878 H892 0.961 . S
C879 C876 1.539 . S
C879 H893 0.958 . S
C879 H894 0.961 . S
C879 H895 0.960 . S
H880 C864 0.931 . S
H881 C869 0.929 . S
H882 C870 0.960 . S
H883 C870 0.962 . S
H884 C870 0.960 . S
H885 C871 0.961 . S
H886 C871 0.961 . S
H887 C871 0.961 . S
H888 C872 0.931 . S
H889 C877 0.930 . S
H890 C878 0.956 . S
H891 C878 0.961 . S
H892 C878 0.961 . S
H893 C879 0.958 . S
H894 C879 0.961 . S
H895 C879 0.960 . S
C896 C897 1.391 . S
C896 C898 1.394 . S
C896 H912 0.931 . S
C897 C896 1.391 . S
C897 C901 1.376 . S
C898 C896 1.394 . S
C898 C899 1.369 . S
C898 C902 1.531 . S
C899 C898 1.369 . S
C899 C900 1.410 . S
C899 C907 1.503 . S
C900 C899 1.410 . S
C900 C901 1.392 . S
C900 C903 1.511 . S
C901 C897 1.376 . S
C901 C900 1.392 . S
C901 H913 0.929 . S
C902 C898 1.531 . S
C902 H914 0.960 . S
C902 H915 0.962 . S
C902 H916 0.960 . S
C903 C900 1.511 . S
C903 H917 0.961 . S
C903 H918 0.961 . S
C903 H919 0.961 . S
C904 C905 1.370 . S
C904 C906 1.363 . S
C904 H920 0.931 . S
C905 C904 1.370 . S
C905 C909 1.408 . S
C906 C904 1.363 . S
C906 C907 1.370 . S
C906 C910 1.524 . S
C907 C899 1.503 . S
C907 C906 1.370 . S
C907 C908 1.403 . S
C908 C907 1.403 . S
C908 C909 1.404 . S
C908 C911 1.539 . S
C909 C905 1.408 . S
C909 C908 1.404 . S
C909 H921 0.930 . S
C910 C906 1.524 . S
C910 H922 0.956 . S
C910 H923 0.961 . S
C910 H924 0.961 . S
C911 C908 1.539 . S
C911 H925 0.958 . S
C911 H926 0.961 . S
C911 H927 0.960 . S
H912 C896 0.931 . S
H913 C901 0.929 . S
H914 C902 0.960 . S
H915 C902 0.962 . S
H916 C902 0.960 . S
H917 C903 0.961 . S
H918 C903 0.961 . S
H919 C903 0.961 . S
H920 C904 0.931 . S
H921 C909 0.930 . S
H922 C910 0.956 . S
H923 C910 0.961 . S
H924 C910 0.961 . S
H925 C911 0.958 . S
H926 C911 0.961 . S
H927 C911 0.960 . S
C928 C929 1.391 . S
C928 C930 1.394 . S
C928 H944 0.931 . S
C929 C928 1.391 . S
C929 C933 1.376 . S
C930 C928 1.394 . S
C930 C931 1.369 . S
C930 C934 1.531 . S
C931 C930 1.369 . S
C931 C932 1.410 . S
C931 C939 1.503 . S
C932 C931 1.410 . S
C932 C933 1.392 . S
C932 C935 1.511 . S
C933 C929 1.376 . S
C933 C932 1.392 . S
C933 H945 0.929 . S
C934 C930 1.531 . S
C934 H946 0.960 . S
C934 H947 0.962 . S
C934 H948 0.960 . S
C935 C932 1.511 . S
C935 H949 0.961 . S
C935 H950 0.961 . S
C935 H951 0.961 . S
C936 C937 1.370 . S
C936 C938 1.363 . S
C936 H952 0.931 . S
C937 C936 1.370 . S
C937 C941 1.408 . S
C938 C936 1.363 . S
C938 C939 1.370 . S
C938 C942 1.524 . S
C939 C931 1.503 . S
C939 C938 1.370 . S
C939 C940 1.403 . S
C940 C939 1.403 . S
C940 C941 1.404 . S
C940 C943 1.539 . S
C941 C937 1.408 . S
C941 C940 1.404 . S
C941 H953 0.930 . S
C942 C938 1.524 . S
C942 H954 0.956 . S
C942 H955 0.961 . S
C942 H956 0.961 . S
C943 C940 1.539 . S
C943 H957 0.958 . S
C943 H958 0.961 . S
C943 H959 0.960 . S
H944 C928 0.931 . S
H945 C933 0.929 . S
H946 C934 0.960 . S
H947 C934 0.962 . S
H948 C934 0.960 . S
H949 C935 0.961 . S
H950 C935 0.961 . S
H951 C935 0.961 . S
H952 C936 0.931 . S
H953 C941 0.930 . S
H954 C942 0.956 . S
H955 C942 0.961 . S
H956 C942 0.961 . S
H957 C943 0.958 . S
H958 C943 0.961 . S
H959 C943 0.960 . S
C960 C961 1.391 . S
C960 C962 1.394 . S
C960 H976 0.931 . S
C961 C960 1.391 . S
C961 C965 1.376 . S
C962 C960 1.394 . S
C962 C963 1.369 . S
C962 C966 1.531 . S
C963 C962 1.369 . S
C963 C964 1.410 . S
C963 C971 1.503 . S
C964 C963 1.410 . S
C964 C965 1.392 . S
C964 C967 1.511 . S
C965 C961 1.376 . S
C965 C964 1.392 . S
C965 H977 0.929 . S
C966 C962 1.531 . S
C966 H978 0.960 . S
C966 H979 0.962 . S
C966 H980 0.960 . S
C967 C964 1.511 . S
C967 H981 0.961 . S
C967 H982 0.961 . S
C967 H983 0.961 . S
C968 C969 1.370 . S
C968 C970 1.363 . S
C968 H984 0.931 . S
C969 C968 1.370 . S
C969 C973 1.408 . S
C970 C968 1.363 . S
C970 C971 1.370 . S
C970 C974 1.524 . S
C971 C963 1.503 . S
C971 C970 1.370 . S
C971 C972 1.403 . S
C972 C971 1.403 . S
C972 C973 1.404 . S
C972 C975 1.539 . S
C973 C969 1.408 . S
C973 C972 1.404 . S
C973 H985 0.930 . S
C974 C970 1.524 . S
C974 H986 0.956 . S
C974 H987 0.961 . S
C974 H988 0.961 . S
C975 C972 1.539 . S
C975 H989 0.958 . S
C975 H990 0.961 . S
C975 H991 0.960 . S
H976 C960 0.931 . S
H977 C965 0.929 . S
H978 C966 0.960 . S
H979 C966 0.962 . S
H980 C966 0.960 . S
H981 C967 0.961 . S
H982 C967 0.961 . S
H983 C967 0.961 . S
H984 C968 0.931 . S
H985 C973 0.930 . S
H986 C974 0.956 . S
H987 C974 0.961 . S
H988 C974 0.961 . S
H989 C975 0.958 . S
H990 C975 0.961 . S
H991 C975 0.960 . S
C992 C993 1.391 . S
C992 C994 1.394 . S
C992 H1008 0.931 . S
C993 C992 1.391 . S
C993 C997 1.376 . S
C994 C992 1.394 . S
C994 C995 1.369 . S
C994 C998 1.531 . S
C995 C994 1.369 . S
C995 C996 1.410 . S
C995 C1003 1.503 . S
C996 C995 1.410 . S
C996 C997 1.392 . S
C996 C999 1.511 . S
C997 C993 1.376 . S
C997 C996 1.392 . S
C997 H1009 0.929 . S
C998 C994 1.531 . S
C998 H1010 0.960 . S
C998 H1011 0.962 . S
C998 H1012 0.960 . S
C999 C996 1.511 . S
C999 H1013 0.961 . S
C999 H1014 0.961 . S
C999 H1015 0.961 . S
C1000 C1001 1.370 . S
C1000 C1002 1.363 . S
C1000 H1016 0.931 . S
C1001 C1000 1.370 . S
C1001 C1005 1.408 . S
C1002 C1000 1.363 . S
C1002 C1003 1.370 . S
C1002 C1006 1.524 . S
C1003 C995 1.503 . S
C1003 C1002 1.370 . S
C1003 C1004 1.403 . S
C1004 C1003 1.403 . S
C1004 C1005 1.404 . S
C1004 C1007 1.539 . S
C1005 C1001 1.408 . S
C1005 C1004 1.404 . S
C1005 H1017 0.930 . S
C1006 C1002 1.524 . S
C1006 H1018 0.956 . S
C1006 H1019 0.961 . S
C1006 H1020 0.961 . S
C1007 C1004 1.539 . S
C1007 H1021 0.958 . S
C1007 H1022 0.961 . S
C1007 H1023 0.960 . S
H1008 C992 0.931 . S
H1009 C997 0.929 . S
H1010 C998 0.960 . S
H1011 C998 0.962 . S
H1012 C998 0.960 . S
H1013 C999 0.961 . S
H1014 C999 0.961 . S
H1015 C999 0.961 . S
H1016 C1000 0.931 . S
H1017 C1005 0.930 . S
H1018 C1006 0.956 . S
H1019 C1006 0.961 . S
H1020 C1006 0.961 . S
H1021 C1007 0.958 . S
H1022 C1007 0.961 . S
H1023 C1007 0.960 . S
C1024 C1025 1.391 . S
C1024 C1026 1.394 . S
C1024 H1040 0.931 . S
C1025 C1024 1.391 . S
C1025 C1029 1.376 . S
C1026 C1024 1.394 . S
C1026 C1027 1.369 . S
C1026 C1030 1.531 . S
C1027 C1026 1.369 . S
C1027 C1028 1.410 . S
C1027 C1035 1.503 . S
C1028 C1027 1.410 . S
C1028 C1029 1.392 . S
C1028 C1031 1.511 . S
C1029 C1025 1.376 . S
C1029 C1028 1.392 . S
C1029 H1041 0.929 . S
C1030 C1026 1.531 . S
C1030 H1042 0.960 . S
C1030 H1043 0.962 . S
C1030 H1044 0.960 . S
C1031 C1028 1.511 . S
C1031 H1045 0.961 . S
C1031 H1046 0.961 . S
C1031 H1047 0.961 . S
C1032 C1033 1.370 . S
C1032 C1034 1.363 . S
C1032 H1048 0.931 . S
C1033 C1032 1.370 . S
C1033 C1037 1.408 . S
C1034 C1032 1.363 . S
C1034 C1035 1.370 . S
C1034 C1038 1.524 . S
C1035 C1027 1.503 . S
C1035 C1034 1.370 . S
C1035 C1036 1.403 . S
C1036 C1035 1.403 . S
C1036 C1037 1.404 . S
C1036 C1039 1.539 . S
C1037 C1033 1.408 . S
C1037 C1036 1.404 . S
C1037 H1049 0.930 . S
C1038 C1034 1.524 . S
C1038 H1050 0.956 . S
C1038 H1051 0.961 . S
C1038 H1052 0.961 . S
C1039 C1036 1.539 . S
C1039 H1053 0.958 . S
C1039 H1054 0.961 . S
C1039 H1055 0.960 . S
H1040 C1024 0.931 . S
H1041 C1029 0.929 . S
H1042 C1030 0.960 . S
H1043 C1030 0.962 . S
H1044 C1030 0.960 . S
H1045 C1031 0.961 . S
H1046 C1031 0.961 . S
H1047 C1031 0.961 . S
H1048 C1032 0.931 . S
H1049 C1037 0.930 . S
H1050 C1038 0.956 . S
H1051 C1038 0.961 . S
H1052 C1038 0.961 . S
H1053 C1039 0.958 . S
H1054 C1039 0.961 . S
H1055 C1039 0.960 . S
C1056 C1057 1.391 . S
C1056 C1058 1.394 . S
C1056 H1072 0.931 . S
C1057 C1056 1.391 . S
C1057 C1061 1.376 . S
C1058 C1056 1.394 . S
C1058 C1059 1.369 . S
C1058 C1062 1.531 . S
C1059 C1058 1.369 . S
C1059 C1060 1.410 . S
C1059 C1067 1.503 . S
C1060 C1059 1.410 . S
C1060 C1061 1.392 . S
C1060 C1063 1.511 . S
C1061 C1057 1.376 . S
C1061 C1060 1.392 . S
C1061 H1073 0.929 . S
C1062 C1058 1.531 . S
C1062 H1074 0.960 . S
C1062 H1075 0.962 . S
C1062 H1076 0.960 . S
C1063 C1060 1.511 . S
C1063 H1077 0.961 . S
C1063 H1078 0.961 . S
C1063 H1079 0.961 . S
C1064 C1065 1.370 . S
C1064 C1066 1.363 . S
C1064 H1080 0.931 . S
C1065 C1064 1.370 . S
C1065 C1069 1.408 . S
C1066 C1064 1.363 . S
C1066 C1067 1.370 . S
C1066 C1070 1.524 . S
C1067 C1059 1.503 . S
C1067 C1066 1.370 . S
C1067 C1068 1.403 . S
C1068 C1067 1.403 . S
C1068 C1069 1.404 . S
C1068 C1071 1.539 . S
C1069 C1065 1.408 . S
C1069 C1068 1.404 . S
C1069 H1081 0.930 . S
C1070 C1066 1.524 . S
C1070 H1082 0.956 . S
C1070 H1083 0.961 . S
C1070 H1084 0.961 . S
C1071 C1068 1.539 . S
C1071 H1085 0.958 . S
C1071 H1086 0.961 . S
C1071 H1087 0.960 . S
H1072 C1056 0.931 . S
H1073 C1061 0.929 . S
H1074 C1062 0.960 . S
H1075 C1062 0.962 . S
H1076 C1062 0.960 . S
H1077 C1063 0.961 . S
H1078 C1063 0.961 . S
H1079 C1063 0.961 . S
H1080 C1064 0.931 . S
H1081 C1069 0.930 . S
H1082 C1070 0.956 . S
H1083 C1070 0.961 . S
H1084 C1070 0.961 . S
H1085 C1071 0.958 . S
H1086 C1071 0.961 . S
H1087 C1071 0.960 . S
C1088 C1089 1.391 . S
C1088 C1090 1.394 . S
C1088 H1104 0.931 . S
C1089 C1088 1.391 . S
C1089 C1093 1.376 . S
C1090 C1088 1.394 . S
C1090 C1091 1.369 . S
C1090 C1094 1.531 . S
C1091 C1090 1.369 . S
C1091 C1092 1.410 . S
C1091 C1099 1.503 . S
C1092 C1091 1.410 . S
C1092 C1093 1.392 . S
C1092 C1095 1.511 . S
C1093 C1089 1.376 . S
C1093 C1092 1.392 . S
C1093 H1105 0.929 . S
C1094 C1090 1.531 . S
C1094 H1106 0.960 . S
C1094 H1107 0.962 . S
C1094 H1108 0.960 . S
C1095 C1092 1.511 . S
C1095 H1109 0.961 . S
C1095 H1110 0.961 . S
C1095 H1111 0.961 . S
C1096 C1097 1.370 . S
C1096 C1098 1.363 . S
C1096 H1112 0.931 . S
C1097 C1096 1.370 . S
C1097 C1101 1.408 . S
C1098 C1096 1.363 . S
C1098 C1099 1.370 . S
C1098 C1102 1.524 . S
C1099 C1091 1.503 . S
C1099 C1098 1.370 . S
C1099 C1100 1.403 . S
C1100 C1099 1.403 . S
C1100 C1101 1.404 . S
C1100 C1103 1.539 . S
C1101 C1097 1.408 . S
C1101 C1100 1.404 . S
C1101 H1113 0.930 . S
C1102 C1098 1.524 . S
C1102 H1114 0.956 . S
C1102 H1115 0.961 . S
C1102 H1116 0.961 . S
C1103 C1100 1.539 . S
C1103 H1117 0.958 . S
C1103 H1118 0.961 . S
C1103 H1119 0.960 . S
H1104 C1088 0.931 . S
H1105 C1093 0.929 . S
H1106 C1094 0.960 . S
H1107 C1094 0.962 . S
H1108 C1094 0.960 . S
H1109 C1095 0.961 . S
H1110 C1095 0.961 . S
H1111 C1095 0.961 . S
H1112 C1096 0.931 . S
H1113 C1101 0.930 . S
H1114 C1102 0.956 . S
H1115 C1102 0.961 . S
H1116 C1102 0.961 . S
H1117 C1103 0.958 . S
H1118 C1103 0.961 . S
H1119 C1103 0.960 . S
C1120 C1121 1.391 . S
C1120 C1122 1.394 . S
C1120 H1136 0.931 . S
C1121 C1120 1.391 . S
C1121 C1125 1.376 . S
C1122 C1120 1.394 . S
C1122 C1123 1.369 . S
C1122 C1126 1.531 . S
C1123 C1122 1.369 . S
C1123 C1124 1.410 . S
C1123 C1131 1.503 . S
C1124 C1123 1.410 . S
C1124 C1125 1.392 . S
C1124 C1127 1.511 . S
C1125 C1121 1.376 . S
C1125 C1124 1.392 . S
C1125 H1137 0.929 . S
C1126 C1122 1.531 . S
C1126 H1138 0.960 . S
C1126 H1139 0.962 . S
C1126 H1140 0.960 . S
C1127 C1124 1.511 . S
C1127 H1141 0.961 . S
C1127 H1142 0.961 . S
C1127 H1143 0.961 . S
C1128 C1129 1.370 . S
C1128 C1130 1.363 . S
C1128 H1144 0.931 . S
C1129 C1128 1.370 . S
C1129 C1133 1.408 . S
C1130 C1128 1.363 . S
C1130 C1131 1.370 . S
C1130 C1134 1.524 . S
C1131 C1123 1.503 . S
C1131 C1130 1.370 . S
C1131 C1132 1.403 . S
C1132 C1131 1.403 . S
C1132 C1133 1.404 . S
C1132 C1135 1.539 . S
C1133 C1129 1.408 . S
C1133 C1132 1.404 . S
C1133 H1145 0.930 . S
C1134 C1130 1.524 . S
C1134 H1146 0.956 . S
C1134 H1147 0.961 . S
C1134 H1148 0.961 . S
C1135 C1132 1.539 . S
C1135 H1149 0.958 . S
C1135 H1150 0.961 . S
C1135 H1151 0.960 . S
H1136 C1120 0.931 . S
H1137 C1125 0.929 . S
H1138 C1126 0.960 . S
H1139 C1126 0.962 . S
H1140 C1126 0.960 . S
H1141 C1127 0.961 . S
H1142 C1127 0.961 . S
H1143 C1127 0.961 . S
H1144 C1128 0.931 . S
H1145 C1133 0.930 . S
H1146 C1134 0.956 . S
H1147 C1134 0.961 . S
H1148 C1134 0.961 . S
H1149 C1135 0.958 . S
H1150 C1135 0.961 . S
H1151 C1135 0.960 . S
C1152 C1153 1.391 . S
C1152 C1154 1.394 . S
C1152 H1168 0.931 . S
C1153 C1152 1.391 . S
C1153 C1157 1.376 . S
C1154 C1152 1.394 . S
C1154 C1155 1.369 . S
C1154 C1158 1.531 . S
C1155 C1154 1.369 . S
C1155 C1156 1.410 . S
C1155 C1163 1.503 . S
C1156 C1155 1.410 . S
C1156 C1157 1.392 . S
C1156 C1159 1.511 . S
C1157 C1153 1.376 . S
C1157 C1156 1.392 . S
C1157 H1169 0.929 . S
C1158 C1154 1.531 . S
C1158 H1170 0.960 . S
C1158 H1171 0.962 . S
C1158 H1172 0.960 . S
C1159 C1156 1.511 . S
C1159 H1173 0.961 . S
C1159 H1174 0.961 . S
C1159 H1175 0.961 . S
C1160 C1161 1.370 . S
C1160 C1162 1.363 . S
C1160 H1176 0.931 . S
C1161 C1160 1.370 . S
C1161 C1165 1.408 . S
C1162 C1160 1.363 . S
C1162 C1163 1.370 . S
C1162 C1166 1.524 . S
C1163 C1155 1.503 . S
C1163 C1162 1.370 . S
C1163 C1164 1.403 . S
C1164 C1163 1.403 . S
C1164 C1165 1.404 . S
C1164 C1167 1.539 . S
C1165 C1161 1.408 . S
C1165 C1164 1.404 . S
C1165 H1177 0.930 . S
C1166 C1162 1.524 . S
C1166 H1178 0.956 . S
C1166 H1179 0.961 . S
C1166 H1180 0.961 . S
C1167 C1164 1.539 . S
C1167 H1181 0.958 . S
C1167 H1182 0.961 . S
C1167 H1183 0.960 . S
H1168 C1152 0.931 . S
H1169 C1157 0.929 . S
H1170 C1158 0.960 . S
H1171 C1158 0.962 . S
H1172 C1158 0.960 . S
H1173 C1159 0.961 . S
H1174 C1159 0.961 . S
H1175 C1159 0.961 . S
H1176 C1160 0.931 . S
H1177 C1165 0.930 . S
H1178 C1166 0.956 . S
H1179 C1166 0.961 . S
H1180 C1166 0.961 . S
H1181 C1167 0.958 . S
H1182 C1167 0.961 . S
H1183 C1167 0.960 . S
C1184 C1185 1.391 . S
C1184 C1186 1.394 . S
C1184 H1200 0.931 . S
C1185 C1184 1.391 . S
C1185 C1189 1.376 . S
C1186 C1184 1.394 . S
C1186 C1187 1.369 . S
C1186 C1190 1.531 . S
C1187 C1186 1.369 . S
C1187 C1188 1.410 . S
C1187 C1195 1.503 . S
C1188 C1187 1.410 . S
C1188 C1189 1.392 . S
C1188 C1191 1.511 . S
C1189 C1185 1.376 . S
C1189 C1188 1.392 . S
C1189 H1201 0.929 . S
C1190 C1186 1.531 . S
C1190 H1202 0.960 . S
C1190 H1203 0.962 . S
C1190 H1204 0.960 . S
C1191 C1188 1.511 . S
C1191 H1205 0.961 . S
C1191 H1206 0.961 . S
C1191 H1207 0.961 . S
C1192 C1193 1.370 . S
C1192 C1194 1.363 . S
C1192 H1208 0.931 . S
C1193 C1192 1.370 . S
C1193 C1197 1.408 . S
C1194 C1192 1.363 . S
C1194 C1195 1.370 . S
C1194 C1198 1.524 . S
C1195 C1187 1.503 . S
C1195 C1194 1.370 . S
C1195 C1196 1.403 . S
C1196 C1195 1.403 . S
C1196 C1197 1.404 . S
C1196 C1199 1.539 . S
C1197 C1193 1.408 . S
C1197 C1196 1.404 . S
C1197 H1209 0.930 . S
C1198 C1194 1.524 . S
C1198 H1210 0.956 . S
C1198 H1211 0.961 . S
C1198 H1212 0.961 . S
C1199 C1196 1.539 . S
C1199 H1213 0.958 . S
C1199 H1214 0.961 . S
C1199 H1215 0.960 . S
H1200 C1184 0.931 . S
H1201 C1189 0.929 . S
H1202 C1190 0.960 . S
H1203 C1190 0.962 . S
H1204 C1190 0.960 . S
H1205 C1191 0.961 . S
H1206 C1191 0.961 . S
H1207 C1191 0.961 . S
H1208 C1192 0.931 . S
H1209 C1197 0.930 . S
H1210 C1198 0.956 . S
H1211 C1198 0.961 . S
H1212 C1198 0.961 . S
H1213 C1199 0.958 . S
H1214 C1199 0.961 . S
H1215 C1199 0.960 . S
C1216 C1217 1.391 . S
C1216 C1218 1.394 . S
C1216 H1232 0.931 . S
C1217 C1216 1.391 . S
C1217 C1221 1.376 . S
C1218 C1216 1.394 . S
C1218 C1219 1.369 . S
C1218 C1222 1.531 . S
C1219 C1218 1.369 . S
C1219 C1220 1.410 . S
C1219 C1227 1.503 . S
C1220 C1219 1.410 . S
C1220 C1221 1.392 . S
C1220 C1223 1.511 . S
C1221 C1217 1.376 . S
C1221 C1220 1.392 . S
C1221 H1233 0.929 . S
C1222 C1218 1.531 . S
C1222 H1234 0.960 . S
C1222 H1235 0.962 . S
C1222 H1236 0.960 . S
C1223 C1220 1.511 . S
C1223 H1237 0.961 . S
C1223 H1238 0.961 . S
C1223 H1239 0.961 . S
C1224 C1225 1.370 . S
C1224 C1226 1.363 . S
C1224 H1240 0.931 . S
C1225 C1224 1.370 . S
C1225 C1229 1.408 . S
C1226 C1224 1.363 . S
C1226 C1227 1.370 . S
C1226 C1230 1.524 . S
C1227 C1219 1.503 . S
C1227 C1226 1.370 . S
C1227 C1228 1.403 . S
C1228 C1227 1.403 . S
C1228 C1229 1.404 . S
C1228 C1231 1.539 . S
C1229 C1225 1.408 . S
C1229 C1228 1.404 . S
C1229 H1241 0.930 . S
C1230 C1226 1.524 . S
C1230 H1242 0.956 . S
C1230 H1243 0.961 . S
C1230 H1244 0.961 . S
C1231 C1228 1.539 . S
C1231 H1245 0.958 . S
C1231 H1246 0.961 . S
C1231 H1247 0.960 . S
H1232 C1216 0.931 . S
H1233 C1221 0.929 . S
H1234 C1222 0.960 . S
H1235 C1222 0.962 . S
H1236 C1222 0.960 . S
H1237 C1223 0.961 . S
H1238 C1223 0.961 . S
H1239 C1223 0.961 . S
H1240 C1224 0.931 . S
H1241 C1229 0.930 . S
H1242 C1230 0.956 . S
H1243 C1230 0.961 . S
H1244 C1230 0.961 . S
H1245 C1231 0.958 . S
H1246 C1231 0.961 . S
H1247 C1231 0.960 . S
C225 C64 1.412 . S
C233 C8 1.420 . S
C257 C78 1.419 1_556 S
C265 C22 1.415 . S
C289 C92 1.413 1_556 S
C297 C36 1.414 . S
C321 C106 1.419 1_556 S
C329 C50 1.416 . S
C353 C176 1.414 . S
C361 C120 1.420 . S
C385 C190 1.418 . S
C393 C134 1.419 . S
C417 C148 1.406 . S
C425 C204 1.418 . S
C449 C218 1.413 . S
C457 C162 1.414 . S
C481 C9 1.462 . S
C489 C79 1.469 1_556 S
C513 C93 1.455 . S
C521 C23 1.466 1_554 S
C545 C37 1.460 . S
C553 C107 1.468 1_556 S
C577 C65 1.453 1_556 S
C585 C51 1.460 . S
C609 C191 1.463 . S
C617 C121 1.464 . S
C641 C205 1.477 . S
C649 C135 1.474 . S
C673 C149 1.476 . S
C681 C219 1.469 . S
C705 C163 1.453 . S
C713 C177 1.460 . S
C737 C217 1.383 . S
C745 C7 1.371 . S
C769 C175 1.395 . S
C777 C21 1.376 . S
C801 C189 1.391 . S
C809 C35 1.374 . S
C833 C203 1.350 . S
C841 C49 1.370 . S
C865 C133 1.368 . S
C873 C63 1.387 . S
C897 C147 1.348 . S
C905 C77 1.373 . S
C929 C91 1.402 . S
C937 C161 1.386 . S
C961 C105 1.385 . S
C969 C119 1.372 . S
C993 C185 1.384 . S
C1001 C31 1.376 . S
C1025 C199 1.359 . S
C1033 C45 1.380 . S
C1057 C213 1.380 . S
C1065 C3 1.378 . S
C1089 C17 1.360 . S
C1097 C171 1.371 . S
C1121 C157 1.380 . S
C1129 C87 1.378 . S
C1153 C101 1.380 . S
C1161 C115 1.378 . S
C1185 C129 1.365 . S
C1193 C59 1.381 . S
C1217 C143 1.372 . S
C1225 C73 1.380 . S
