# Generated by pormake.
# Topology uoz, (4)-cn, num edge types: 1
# Building blocks:
#     Node 0, Type 0, BuildingBlock: CEKHIL_clean_sbu_0, # of connection points: 4
#     Node 1, Type 0, BuildingBlock: CEKHIL_clean_sbu_0, # of connection points: 4
#     Node 2, Type 0, BuildingBlock: CEKHIL_clean_sbu_0, # of connection points: 4
#     Node 3, Type 0, BuildingBlock: CEKHIL_clean_sbu_0, # of connection points: 4
#     Node 4, Type 0, BuildingBlock: CEKHIL_clean_sbu_0, # of connection points: 4
#     Node 5, Type 0, BuildingBlock: CEKHIL_clean_sbu_0, # of connection points: 4
#     Node 6, Type 0, BuildingBlock: CEKHIL_clean_sbu_0, # of connection points: 4
#     Node 7, Type 0, BuildingBlock: CEKHIL_clean_sbu_0, # of connection points: 4
#     Node 8, Type 0, BuildingBlock: CEKHIL_clean_sbu_0, # of connection points: 4
#     Node 9, Type 0, BuildingBlock: CEKHIL_clean_sbu_0, # of connection points: 4
#     Node 10, Type 0, BuildingBlock: CEKHIL_clean_sbu_0, # of connection points: 4
#     Node 11, Type 0, BuildingBlock: CEKHIL_clean_sbu_0, # of connection points: 4
#     Node 12, Type 0, BuildingBlock: CEKHIL_clean_sbu_0, # of connection points: 4
#     Node 13, Type 0, BuildingBlock: CEKHIL_clean_sbu_0, # of connection points: 4
#     Node 14, Type 0, BuildingBlock: CEKHIL_clean_sbu_0, # of connection points: 4
#     Node 15, Type 0, BuildingBlock: CEKHIL_clean_sbu_0, # of connection points: 4
#     Edge 16, Type (0, 0), BuildingBlock: ZUJKAS_clean_linker_0, # of connection points: 2
#     Edge 17, Type (0, 0), BuildingBlock: ZUJKAS_clean_linker_0, # of connection points: 2
#     Edge 18, Type (0, 0), BuildingBlock: ZUJKAS_clean_linker_0, # of connection points: 2
#     Edge 19, Type (0, 0), BuildingBlock: ZUJKAS_clean_linker_0, # of connection points: 2
#     Edge 20, Type (0, 0), BuildingBlock: ZUJKAS_clean_linker_0, # of connection points: 2
#     Edge 21, Type (0, 0), BuildingBlock: ZUJKAS_clean_linker_0, # of connection points: 2
#     Edge 22, Type (0, 0), BuildingBlock: ZUJKAS_clean_linker_0, # of connection points: 2
#     Edge 23, Type (0, 0), BuildingBlock: ZUJKAS_clean_linker_0, # of connection points: 2
#     Edge 24, Type (0, 0), BuildingBlock: ZUJKAS_clean_linker_0, # of connection points: 2
#     Edge 25, Type (0, 0), BuildingBlock: ZUJKAS_clean_linker_0, # of connection points: 2
#     Edge 26, Type (0, 0), BuildingBlock: ZUJKAS_clean_linker_0, # of connection points: 2
#     Edge 27, Type (0, 0), BuildingBlock: ZUJKAS_clean_linker_0, # of connection points: 2
#     Edge 28, Type (0, 0), BuildingBlock: ZUJKAS_clean_linker_0, # of connection points: 2
#     Edge 29, Type (0, 0), BuildingBlock: ZUJKAS_clean_linker_0, # of connection points: 2
#     Edge 30, Type (0, 0), BuildingBlock: ZUJKAS_clean_linker_0, # of connection points: 2
#     Edge 31, Type (0, 0), BuildingBlock: ZUJKAS_clean_linker_0, # of connection points: 2
#     Edge 32, Type (0, 0), BuildingBlock: ZUJKAS_clean_linker_0, # of connection points: 2
#     Edge 33, Type (0, 0), BuildingBlock: ZUJKAS_clean_linker_0, # of connection points: 2
#     Edge 34, Type (0, 0), BuildingBlock: ZUJKAS_clean_linker_0, # of connection points: 2
#     Edge 35, Type (0, 0), BuildingBlock: ZUJKAS_clean_linker_0, # of connection points: 2
#     Edge 36, Type (0, 0), BuildingBlock: ZUJKAS_clean_linker_0, # of connection points: 2
#     Edge 37, Type (0, 0), BuildingBlock: ZUJKAS_clean_linker_0, # of connection points: 2
#     Edge 38, Type (0, 0), BuildingBlock: ZUJKAS_clean_linker_0, # of connection points: 2
#     Edge 39, Type (0, 0), BuildingBlock: ZUJKAS_clean_linker_0, # of connection points: 2
#     Edge 40, Type (0, 0), BuildingBlock: ZUJKAS_clean_linker_0, # of connection points: 2
#     Edge 41, Type (0, 0), BuildingBlock: ZUJKAS_clean_linker_0, # of connection points: 2
#     Edge 42, Type (0, 0), BuildingBlock: ZUJKAS_clean_linker_0, # of connection points: 2
#     Edge 43, Type (0, 0), BuildingBlock: ZUJKAS_clean_linker_0, # of connection points: 2
#     Edge 44, Type (0, 0), BuildingBlock: ZUJKAS_clean_linker_0, # of connection points: 2
#     Edge 45, Type (0, 0), BuildingBlock: ZUJKAS_clean_linker_0, # of connection points: 2
#     Edge 46, Type (0, 0), BuildingBlock: ZUJKAS_clean_linker_0, # of connection points: 2
#     Edge 47, Type (0, 0), BuildingBlock: ZUJKAS_clean_linker_0, # of connection points: 2
# Relax obj value: 0.191
# Max RMSD: 0.171
# Mean RMSD: 0.171
data_MOF--net-uoz--node1-CEKHIL_clean_sbu_0--edge1-ZUJKAS_clean_linker_0
_symmetry_space_group_name_H-M    P1
_symmetry_Int_Tables_number       1
_symmetry_cell_setting            triclinic
loop_
_symmetry_equiv_pos_as_xyz
'x, y, z'
_cell_length_a     78.023371
_cell_length_b     78.012678
_cell_length_c     27.062448
_cell_angle_alpha  89.963286
_cell_angle_beta   90.087117
_cell_angle_gamma 89.98491
loop_
_atom_site_label
_atom_site_type_symbol
_atom_site_fract_x
_atom_site_fract_y
_atom_site_fract_z
_atom_type_partial_charge
Co0 Co 0.02493 0.58643 0.30948 0.0
O1 O 0.01326 0.56773 0.34244 0.0
O2 O 0.03716 0.57957 0.36931 0.0
C3 C 1.00131 0.60264 0.29353 0.0
O4 O 0.04045 0.60617 0.28604 0.0
Co5 Co 0.01652 0.59583 0.19937 0.0
O6 O 0.02967 0.61676 0.21507 0.0
C7 C 0.03957 0.56668 0.22231 0.0
C8 C 0.0254 0.5679 0.37525 0.0
C9 C 0.04021 0.61746 0.25102 0.0
O10 O 0.03864 0.56946 0.26915 0.0
O11 O 0.03121 0.57518 0.1898 0.0
O12 O 0.00859 0.60333 0.33682 0.0
O13 O 0.00749 0.59129 0.26416 0.0
Co14 Co 0.69507 0.74785 0.56333 0.0
O15 O 0.71299 0.73595 0.59912 0.0
O16 O 0.70164 0.76045 0.62292 0.0
C17 C 0.67831 0.7246 0.54739 0.0
O18 O 0.67617 0.7637 0.53582 0.0
Co19 Co 0.68772 0.73806 0.45247 0.0
O20 O 0.66837 0.75411 0.46037 0.0
C21 C 0.71658 0.76106 0.47765 0.0
C22 C 0.71292 0.74843 0.63076 0.0
C23 C 0.66677 0.76449 0.49642 0.0
O24 O 0.71291 0.7608 0.52401 0.0
O25 O 0.70875 0.75227 0.44477 0.0
O26 O 0.67729 0.73227 0.59 0.0
O27 O 0.69034 0.73007 0.5192 0.0
Co28 Co 0.53745 0.41853 0.81473 0.0
O29 O 0.5492 0.43494 0.85609 0.0
O30 O 0.52299 0.42552 0.87 0.0
C31 C 0.5596 0.40001 0.80467 0.0
O32 O 0.52159 0.40122 0.7805 0.0
Co33 Co 0.5508 0.41207 0.70721 0.0
O34 O 0.53442 0.39261 0.71012 0.0
C35 C 0.5322 0.4438 0.731 0.0
C36 C 0.53551 0.43561 0.88309 0.0
C37 C 0.52248 0.39139 0.74214 0.0
O38 O 0.52768 0.43773 0.77324 0.0
O39 O 0.54286 0.43639 0.70217 0.0
O40 O 0.55024 0.39917 0.8444 0.0
O41 O 0.55641 0.41285 0.7764 0.0
Co42 Co 0.86332 0.26103 0.06492 0.0
O43 O 0.84705 0.2725 0.10726 0.0
O44 O 0.8565 0.24619 0.11968 0.0
C45 C 0.88175 0.28327 0.05542 0.0
O46 O 0.88052 0.24545 0.02925 0.0
Co47 Co 0.86903 0.27525 0.95792 0.0
O48 O 0.88798 0.25827 0.95775 0.0
C49 C 0.83748 0.25658 0.98234 0.0
C50 C 0.84641 0.25861 0.13352 0.0
C51 C 0.88968 0.24629 0.98953 0.0
O52 O 0.84395 0.25154 0.02359 0.0
O53 O 0.84459 0.26764 0.95409 0.0
O54 O 0.8828 0.27362 0.09459 0.0
O55 O 0.86879 0.28028 0.02747 0.0
Co56 Co 0.02319 0.41608 0.81608 0.0
O57 O 0.01183 0.43461 0.78146 0.0
O58 O 0.03656 0.42349 0.75885 0.0
C59 C 0.99966 0.39931 0.82655 0.0
O60 O 0.03855 0.39661 0.8423 0.0
Co61 Co 0.01211 0.40628 0.92389 0.0
O62 O 0.02652 0.38592 0.91137 0.0
C63 C 0.03559 0.43554 0.9067 0.0
C64 C 0.02463 0.43486 0.75097 0.0
C65 C 0.03788 0.38543 0.87759 0.0
O66 O 0.03563 0.43313 0.8596 0.0
O67 O 0.0266 0.42681 0.93716 0.0
O68 O 0.00804 0.39886 0.78501 0.0
O69 O 0.00475 0.41075 0.85734 0.0
Co70 Co 0.86538 0.74752 0.06996 0.0
O71 O 0.84689 0.73594 0.0358 0.0
O72 O 0.85835 0.76028 0.01105 0.0
C73 C 0.88185 0.72389 0.08397 0.0
O74 O 0.88484 0.76305 0.09565 0.0
Co75 Co 0.87425 0.73753 0.17967 0.0
O76 O 0.89424 0.75253 0.16843 0.0
C77 C 0.84532 0.76098 0.15804 0.0
C78 C 0.84684 0.74842 1.00411 0.0
C79 C 0.89523 0.76325 0.133 0.0
O80 O 0.84822 0.76066 0.11121 0.0
O81 O 0.8536 0.7521 0.18984 0.0
O82 O 0.88257 0.73166 0.04143 0.0
O83 O 0.87033 0.72959 0.11348 0.0
Co84 Co 0.5353 0.58792 0.31797 0.0
O85 O 0.54732 0.57056 0.2806 0.0
O86 O 0.52219 0.58133 0.25955 0.0
C87 C 0.55822 0.60518 0.33287 0.0
O88 O 0.51934 0.60627 0.34689 0.0
Co89 Co 0.54551 0.59501 0.42824 0.0
O90 O 0.53054 0.61533 0.41918 0.0
C91 C 0.52617 0.5639 0.40163 0.0
C92 C 0.53445 0.57047 0.2502 0.0
C93 C 0.51959 0.61656 0.38429 0.0
O94 O 0.52334 0.56956 0.35771 0.0
O95 O 0.53602 0.57125 0.43293 0.0
O96 O 0.55016 0.60622 0.29077 0.0
O97 O 0.55325 0.59291 0.36106 0.0
Co98 Co 0.69319 0.26018 0.56385 0.0
O99 O 0.70959 0.27173 0.52209 0.0
O100 O 0.70018 0.24545 0.50907 0.0
C101 C 0.67475 0.28245 0.57307 0.0
O102 O 0.6759 0.24451 0.59886 0.0
Co103 Co 0.68689 0.27417 0.67083 0.0
O104 O 0.66755 0.25763 0.66907 0.0
C105 C 0.71859 0.2555 0.64741 0.0
C106 C 0.71029 0.25791 0.4956 0.0
C107 C 0.66623 0.24555 0.6375 0.0
O108 O 0.71241 0.25061 0.60564 0.0
O109 O 0.71126 0.26639 0.6757 0.0
O110 O 0.67382 0.27286 0.53378 0.0
O111 O 0.68759 0.27935 0.6014 0.0
Co112 Co 0.36318 0.24927 0.57175 0.0
O113 O 0.34414 0.23757 0.54043 0.0
O114 O 0.35657 0.26074 0.51055 0.0
C115 C 0.37883 0.22551 0.5905 0.0
O116 O 0.38327 0.26468 0.59299 0.0
Co117 Co 0.37267 0.2425 0.68263 0.0
O118 O 0.39413 0.2544 0.66428 0.0
C119 C 0.34379 0.26553 0.65698 0.0
C120 C 0.3446 0.24921 0.50615 0.0
C121 C 0.39484 0.26446 0.62723 0.0
O122 O 0.34663 0.26404 0.61034 0.0
O123 O 0.35208 0.25745 0.69051 0.0
O124 O 0.3796 0.2321 0.54634 0.0
O125 O 0.36772 0.23244 0.61927 0.0
Co126 Co 0.19693 0.75889 0.07554 0.0
O127 O 0.21319 0.77077 0.03408 0.0
O128 O 0.20269 0.74512 0.0177 0.0
C129 C 0.17927 0.78143 0.09095 0.0
O130 O 0.17959 0.74307 0.10979 0.0
Co131 Co 0.1931 0.77082 0.1856 0.0
O132 O 0.1742 0.75381 0.18561 0.0
C133 C 0.22369 0.75201 0.15408 0.0
C134 C 0.21308 0.75748 1.00533 0.0
C135 C 0.17147 0.74287 0.15143 0.0
O136 O 0.21636 0.7478 0.11328 0.0
O137 O 0.21743 0.76282 0.18463 0.0
O138 O 0.17768 0.77289 0.04985 0.0
O139 O 0.19239 0.77732 0.11709 0.0
Co140 Co 0.197 0.24556 0.05539 0.0
O141 O 0.21368 0.23368 0.09566 0.0
O142 O 0.20288 0.25901 0.11397 0.0
C143 C 0.17957 0.22287 0.03969 0.0
O144 O 0.17922 0.26132 0.02242 0.0
Co145 Co 0.19269 0.2341 0.94498 0.0
O146 O 0.17324 0.25045 0.94709 0.0
C147 C 0.22322 0.2532 0.97597 0.0
C148 C 0.21352 0.24672 0.12531 0.0
C149 C 0.17063 0.26133 0.98149 0.0
O150 O 0.2161 0.25706 0.01737 0.0
O151 O 0.21688 0.24253 0.94509 0.0
O152 O 0.17809 0.23119 0.08118 0.0
O153 O 0.19249 0.22727 0.01325 0.0
Co154 Co 0.36466 0.75948 0.56963 0.0
O155 O 0.3478 0.77137 0.60903 0.0
O156 O 0.35784 0.7456 0.62632 0.0
C157 C 0.38254 0.78205 0.55746 0.0
O158 O 0.38244 0.74359 0.53782 0.0
Co159 Co 0.3713 0.77152 0.46077 0.0
O160 O 0.39106 0.75557 0.46616 0.0
C161 C 0.33987 0.75259 0.48593 0.0
C162 C 0.34737 0.75801 0.63757 0.0
C163 C 0.39235 0.7441 0.49963 0.0
O164 O 0.34588 0.74868 0.52876 0.0
O165 O 0.34715 0.76305 0.45617 0.0
O166 O 0.38354 0.77325 0.59829 0.0
O167 O 0.36996 0.77801 0.52917 0.0
Co168 Co 0.52257 0.08875 0.81459 0.0
O169 O 0.51116 0.06953 0.84604 0.0
O170 O 0.53513 0.08118 0.87308 0.0
C171 C 0.49866 0.10488 0.80149 0.0
O172 O 0.538 0.10878 0.79287 0.0
Co173 Co 0.51373 0.1003 0.70657 0.0
O174 O 0.52648 0.1212 0.72545 0.0
C175 C 0.53686 0.07067 0.7243 0.0
C176 C 0.52348 0.06938 0.87835 0.0
C177 C 0.53742 0.12094 0.76042 0.0
O178 O 0.53608 0.07243 0.77158 0.0
O179 O 0.52846 0.07989 0.69353 0.0
O180 O 0.50623 0.10516 0.84442 0.0
O181 O 0.5049 0.09412 0.77047 0.0
Co182 Co 0.03668 0.91921 0.31476 0.0
O183 O 0.04797 0.93602 0.356 0.0
O184 O 0.02232 0.92542 0.37114 0.0
C185 C 0.05961 0.90169 0.30278 0.0
O186 O 0.02138 0.90137 0.28038 0.0
Co187 Co 0.05001 0.91424 0.20622 0.0
O188 O 0.03291 0.89543 0.20586 0.0
C189 C 0.03009 0.94475 0.23259 0.0
C190 C 0.03447 0.93601 0.38385 0.0
C191 C 0.02159 0.89299 0.23914 0.0
O192 O 0.02574 0.93806 0.27418 0.0
O193 O 0.04131 0.9383 0.2037 0.0
O194 O 0.05065 0.90036 0.34317 0.0
O195 O 0.0556 0.91449 0.27533 0.0
Co196 Co 0.52067 0.91739 0.31786 0.0
O197 O 0.5094 0.93514 0.27993 0.0
O198 O 0.53513 0.92513 0.26311 0.0
C199 C 0.49777 0.89961 0.32412 0.0
O200 O 0.53608 0.89876 0.34871 0.0
Co201 Co 0.50696 0.9082 0.42361 0.0
O202 O 0.5229 0.88866 0.41685 0.0
C203 C 0.5298 0.93812 0.40952 0.0
C204 C 0.5229 0.93587 0.25219 0.0
C205 C 0.53506 0.88817 0.38543 0.0
O206 O 0.5312 0.93523 0.36283 0.0
O207 O 0.52023 0.92941 0.43854 0.0
O208 O 0.50726 0.89926 0.28464 0.0
O209 O 0.50139 0.91152 0.35512 0.0
Co210 Co 0.03316 0.08803 0.82161 0.0
O211 O 0.04446 0.06954 0.78685 0.0
O212 O 0.01982 0.0809 0.76397 0.0
C213 C 0.0569 0.10451 0.83334 0.0
O214 O 0.01796 0.10761 0.84789 0.0
Co215 Co 0.04416 0.09709 0.93021 0.0
O216 O 0.02958 0.11741 0.91872 0.0
C217 C 0.02075 0.06791 0.91114 0.0
C218 C 0.03171 0.0695 0.75607 0.0
C219 C 0.01845 0.11835 0.88429 0.0
O220 O 0.02039 0.07096 0.86434 0.0
O221 O 0.03016 0.07614 0.94179 0.0
O222 O 0.04872 0.10514 0.79141 0.0
O223 O 0.05149 0.09305 0.86357 0.0
H224 H 0.15773 0.71883 0.08747 0.0
H225 H 0.13583 0.69712 0.1064 0.0
H226 H 0.13474 0.71408 0.25791 0.0
H227 H 0.15614 0.73575 0.23958 0.0
H228 H 0.13533 0.66996 0.17608 0.0
H229 H 0.08461 0.71767 0.2165 0.0
H230 H 0.10429 0.72328 0.18553 0.0
H231 H 0.10384 0.72098 0.25167 0.0
C232 C 0.1528 0.71794 0.12477 0.0
C233 C 0.15858 0.72925 0.16172 0.0
C234 C 0.14032 0.70551 0.13556 0.0
C235 C 0.13341 0.7042 0.18339 0.0
C236 C 0.13956 0.71511 0.2205 0.0
H237 H 0.07086 0.61967 0.30202 0.0
H238 H 0.09396 0.64058 0.28854 0.0
C239 C 0.15188 0.72751 0.20981 0.0
C240 C 0.11963 0.69167 0.19499 0.0
H241 H 0.07877 0.68888 0.23945 0.0
C242 C 0.12293 0.67407 0.18974 0.0
C243 C 0.10341 0.69705 0.2125 0.0
C244 C 0.09872 0.71578 0.21646 0.0
C245 C 0.11049 0.66171 0.20207 0.0
C246 C 0.09445 0.6671 0.22097 0.0
C247 C 0.09115 0.68472 0.22574 0.0
C248 C 0.08035 0.65485 0.23214 0.0
C249 C 0.11448 0.64302 0.19356 0.0
C250 C 0.06476 0.65637 0.2067 0.0
C251 C 0.05155 0.64468 0.21478 0.0
C252 C 0.05352 0.63108 0.2486 0.0
C253 C 0.06889 0.62996 0.27573 0.0
C254 C 0.08219 0.64177 0.26758 0.0
H255 H 0.12565 0.64129 0.16863 0.0
H256 H 0.11758 0.63686 0.22945 0.0
H257 H 0.10328 0.63627 0.17736 0.0
H258 H 0.06295 0.66642 0.17951 0.0
H259 H 0.03988 0.64609 0.19342 0.0
H260 H 0.56308 0.87987 0.32715 0.0
H261 H 0.58607 0.85933 0.34678 0.0
H262 H 0.56186 0.84814 0.4862 0.0
H263 H 0.53891 0.86791 0.46673 0.0
H264 H 0.60922 0.85853 0.42331 0.0
H265 H 0.56833 0.80068 0.4327 0.0
H266 H 0.5608 0.82063 0.40688 0.0
H267 H 0.56075 0.81731 0.47276 0.0
C268 C 0.56258 0.87288 0.36169 0.0
C269 C 0.54896 0.87546 0.39492 0.0
C270 C 0.57575 0.86119 0.37296 0.0
C271 C 0.57552 0.8519 0.41759 0.0
C272 C 0.56211 0.85471 0.45094 0.0
H273 H 0.64899 0.78318 0.56681 0.0
H274 H 0.6273 0.80563 0.55115 0.0
C275 C 0.54896 0.86617 0.43964 0.0
C276 C 0.58937 0.83951 0.43045 0.0
H277 H 0.59637 0.79813 0.46738 0.0
C278 C 0.6064 0.84532 0.4327 0.0
C279 C 0.58574 0.82221 0.44272 0.0
C280 C 0.56794 0.81479 0.43817 0.0
C281 C 0.6198 0.83436 0.44754 0.0
C282 C 0.61606 0.81725 0.46075 0.0
C283 C 0.5991 0.8114 0.45833 0.0
C284 C 0.62978 0.80465 0.47157 0.0
C285 C 0.63793 0.84101 0.44882 0.0
C286 C 0.63824 0.79679 0.43213 0.0
C287 C 0.6503 0.78395 0.44085 0.0
C288 C 0.65431 0.7787 0.48934 0.0
C289 C 0.64616 0.78693 0.52913 0.0
C290 C 0.63382 0.79972 0.52023 0.0
H291 H 0.63853 0.85511 0.44314 0.0
H292 H 0.64404 0.8378 0.48474 0.0
H293 H 0.6455 0.83468 0.41931 0.0
H294 H 0.63527 0.80039 0.39439 0.0
H295 H 0.65648 0.7781 0.40926 0.0
H296 H 0.48984 0.3899 0.78081 0.0
H297 H 0.46703 0.36961 0.7589 0.0
H298 H 0.50165 0.34335 0.66059 0.0
H299 H 0.52424 0.36366 0.68122 0.0
H300 H 0.47122 0.34901 0.61666 0.0
H301 H 0.46092 0.32047 0.80229 0.0
H302 H 0.45837 0.34333 0.80003 0.0
H303 H 0.47906 0.33399 0.78856 0.0
C304 C 0.49263 0.37968 0.75496 0.0
C305 C 0.50888 0.37844 0.7328 0.0
C306 C 0.47958 0.36806 0.74251 0.0
C307 C 0.48263 0.35483 0.70831 0.0
C308 C 0.49893 0.35346 0.68687 0.0
H309 H 0.42668 0.26121 0.66681 0.0
H310 H 0.44758 0.28385 0.68213 0.0
C311 C 0.51187 0.3651 0.69888 0.0
C312 C 0.46894 0.34251 0.69374 0.0
H313 H 0.44236 0.31141 0.73852 0.0
C314 C 0.46487 0.3408 0.64332 0.0
C315 C 0.46074 0.33171 0.72844 0.0
C316 C 0.46507 0.3323 0.7828 0.0
C317 C 0.45308 0.32845 0.6266 0.0
C318 C 0.44481 0.31772 0.66135 0.0
C319 C 0.44866 0.31965 0.71184 0.0
C320 C 0.43279 0.30381 0.64644 0.0
C321 C 0.45008 0.32661 0.57177 0.0
C322 C 0.41767 0.30731 0.61986 0.0
C323 C 0.40576 0.29423 0.61021 0.0
C324 C 0.40865 0.27751 0.62785 0.0
C325 C 0.42407 0.27396 0.6528 0.0
C326 C 0.436 0.28692 0.66183 0.0
H327 H 0.46056 0.33254 0.5499 0.0
H328 H 0.44896 0.31292 0.5611 0.0
H329 H 0.43794 0.33317 0.56171 0.0
H330 H 0.41471 0.32027 0.60836 0.0
H331 H 0.39388 0.29742 0.5916 0.0
H332 H 0.89697 0.21684 0.04255 0.0
H333 H 0.91827 0.1947 0.02242 0.0
H334 H 0.93239 0.22263 0.89121 0.0
H335 H 0.91158 0.24474 0.91099 0.0
H336 H 0.92178 0.1738 0.93642 0.0
H337 H 0.97817 0.21606 0.96262 0.0
H338 H 0.9571 0.22163 0.9848 0.0
H339 H 0.96249 0.22465 0.92079 0.0
C340 C 0.90467 0.21831 0.00956 0.0
C341 C 0.90257 0.2327 0.9787 0.0
C342 C 0.91678 0.20561 0.99799 0.0
C343 C 0.92708 0.20712 0.95561 0.0
C344 C 0.92483 0.22132 0.92453 0.0
H345 H 0.99128 0.12616 0.82185 0.0
H346 H 0.96861 0.14752 0.83577 0.0
C347 C 0.91281 0.23396 0.93596 0.0
C348 C 0.94032 0.19405 0.94364 0.0
H349 H 0.98328 0.18924 0.92414 0.0
C350 C 0.93525 0.17711 0.93392 0.0
C351 C 0.9579 0.19839 0.94065 0.0
C352 C 0.96431 0.21612 0.95321 0.0
C353 C 0.94728 0.16442 0.92098 0.0
C354 C 0.96482 0.16888 0.91677 0.0
C355 C 0.96983 0.18583 0.92668 0.0
C356 C 0.97847 0.15599 0.90654 0.0
C357 C 0.94115 0.14628 0.91326 0.0
C358 C 0.99186 0.15401 0.94063 0.0
C359 C 0.00489 0.14215 0.93239 0.0
C360 C 0.00495 0.13176 0.88979 0.0
C361 C 0.99165 0.13388 0.85507 0.0
C362 C 0.97858 0.14597 0.86326 0.0
H363 H 0.92819 0.1442 0.92912 0.0
H364 H 0.94046 0.14359 0.87305 0.0
H365 H 0.95015 0.13694 0.93024 0.0
H366 H 0.99214 0.16157 0.97422 0.0
H367 H 0.01481 0.14099 0.96022 0.0
H368 H 0.03907 0.35936 0.94466 0.0
H369 H 0.06228 0.33947 0.96079 0.0
H370 H 0.09094 0.36075 0.83923 0.0
H371 H 0.06773 0.38136 0.82353 0.0
H372 H 0.07582 0.31475 0.90689 0.0
H373 H 0.12608 0.36292 0.94945 0.0
H374 H 0.10373 0.36853 0.94347 0.0
H375 H 0.11661 0.3652 0.88928 0.0
C376 C 0.05025 0.35992 0.92105 0.0
C377 C 0.0515 0.37216 0.88289 0.0
C378 C 0.06357 0.34845 0.93046 0.0
C379 C 0.07855 0.34877 0.90197 0.0
C380 C 0.0797 0.36053 0.8626 0.0
H381 H 0.15158 0.26567 0.89775 0.0
H382 H 0.12992 0.28715 0.88043 0.0
C383 C 0.06632 0.37217 0.85325 0.0
C384 C 0.09264 0.33651 0.91371 0.0
H385 H 0.13482 0.33376 0.94784 0.0
C386 C 0.08871 0.31895 0.9158 0.0
C387 C 0.10942 0.34196 0.92635 0.0
C388 C 0.11423 0.36068 0.92755 0.0
C389 C 0.10102 0.30673 0.92969 0.0
C390 C 0.11793 0.3121 0.94068 0.0
C391 C 0.12188 0.32966 0.93919 0.0
C392 C 0.13175 0.29951 0.95169 0.0
C393 C 0.09569 0.28817 0.93329 0.0
C394 C 0.14045 0.29956 0.99725 0.0
C395 C 0.15309 0.2872 0.00748 0.0
C396 C 0.15729 0.27464 0.97214 0.0
C397 C 0.14868 0.27494 0.92629 0.0
C398 C 0.13618 0.28724 0.91619 0.0
H399 H 0.08162 0.28686 0.93816 0.0
H400 H 0.09926 0.28146 0.89866 0.0
H401 H 0.10221 0.28166 0.96461 0.0
H402 H 0.1373 0.309 0.02512 0.0
H403 H 0.1595 0.28745 0.04299 0.0
H404 H 0.99788 0.87824 0.30223 0.0
H405 H 0.97593 0.85682 0.28113 0.0
H406 H 0.99195 0.85833 0.12881 0.0
H407 H 0.01393 0.87916 0.14938 0.0
H408 H 0.94849 0.85768 0.21622 0.0
H409 H 0.99459 0.80768 0.15731 0.0
H410 H 1.00117 0.8266 0.1906 0.0
H411 H 0.99745 0.82754 0.12499 0.0
C412 C 0.99676 0.87395 0.26432 0.0
C413 C 0.0079 0.88028 0.22777 0.0
C414 C 0.98419 0.86172 0.25227 0.0
C415 C 0.98253 0.85566 0.20352 0.0
C416 C 0.99328 0.86239 0.1669 0.0
H417 H 0.90568 0.78762 0.06457 0.0
H418 H 0.9264 0.81105 0.07799 0.0
C419 C 0.00586 0.8744 0.17886 0.0
C420 C 0.96961 0.84236 0.19037 0.0
H421 H 0.96528 0.80266 0.13803 0.0
C422 C 0.95218 0.84566 0.19916 0.0
C423 C 0.9744 0.8266 0.16816 0.0
C424 C 0.99293 0.82179 0.16014 0.0
C425 C 0.93945 0.83372 0.18597 0.0
C426 C 0.94427 0.81814 0.16329 0.0
C427 C 0.96164 0.8148 0.15447 0.0
C428 C 0.93166 0.8043 0.15405 0.0
C429 C 0.92092 0.83759 0.19699 0.0
C430 C 0.928 0.79275 0.19208 0.0
C431 C 0.91645 0.77938 0.1845 0.0
C432 C 0.90813 0.77722 0.13858 0.0
C433 C 0.91184 0.78886 0.10026 0.0
C434 C 0.92362 0.80226 0.1079 0.0
H435 H 0.91906 0.85091 0.2105 0.0
H436 H 0.91301 0.83565 0.1633 0.0
H437 H 0.91619 0.82856 0.2256 0.0
H438 H 0.9341 0.7941 0.22788 0.0
H439 H 0.91389 0.77087 0.21524 0.0
H440 H 0.42089 0.74565 0.44195 0.0
H441 H 0.44087 0.72266 0.4222 0.0
H442 H 0.41312 0.68832 0.51798 0.0
H443 H 0.39319 0.71155 0.53912 0.0
H444 H 0.44692 0.68403 0.52831 0.0
H445 H 0.43169 0.68374 0.32896 0.0
H446 H 0.43839 0.70459 0.34892 0.0
H447 H 0.41899 0.69539 0.37333 0.0
C448 C 0.41902 0.73323 0.45901 0.0
C449 C 0.40531 0.73041 0.49178 0.0
C450 C 0.43039 0.72003 0.44728 0.0
C451 C 0.42821 0.70358 0.46727 0.0
C452 C 0.41494 0.70085 0.50155 0.0
H453 H 0.48667 0.61624 0.34771 0.0
H454 H 0.46347 0.63636 0.36781 0.0
C455 C 0.4036 0.71416 0.51378 0.0
C456 C 0.44002 0.68943 0.45284 0.0
H457 H 0.45789 0.66969 0.35256 0.0
C458 C 0.44917 0.68077 0.4899 0.0
C459 C 0.44271 0.68482 0.40277 0.0
C460 C 0.43227 0.6925 0.36129 0.0
C461 C 0.46147 0.66825 0.47822 0.0
C462 C 0.46512 0.66462 0.42797 0.0
C463 C 0.45539 0.67268 0.39101 0.0
C464 C 0.47929 0.65288 0.4132 0.0
C465 C 0.47033 0.65896 0.52002 0.0
C466 C 0.49602 0.65582 0.43024 0.0
C467 C 0.50919 0.64432 0.4192 0.0
C468 C 0.50604 0.62977 0.3899 0.0
C469 C 0.48951 0.62734 0.37029 0.0
C470 C 0.47623 0.63879 0.38197 0.0
H471 H 0.46229 0.65884 0.55387 0.0
H472 H 0.4734 0.64552 0.50985 0.0
H473 H 0.48245 0.6657 0.52915 0.0
H474 H 0.49889 0.66692 0.4528 0.0
H475 H 0.52183 0.64671 0.4343 0.0
H476 H 0.63945 0.24705 0.70198 0.0
H477 H 0.61953 0.22439 0.72456 0.0
H478 H 0.6438 0.19025 0.6208 0.0
H479 H 0.6638 0.21315 0.59708 0.0
H480 H 0.60916 0.18782 0.61688 0.0
H481 H 0.62976 0.18369 0.81193 0.0
H482 H 0.62374 0.20514 0.79548 0.0
H483 H 0.64188 0.19522 0.7659 0.0
C484 C 0.64064 0.23474 0.68383 0.0
C485 C 0.6534 0.2319 0.64798 0.0
C486 C 0.62928 0.22172 0.69716 0.0
C487 C 0.63046 0.20543 0.67556 0.0
C488 C 0.64278 0.20266 0.6385 0.0
H489 H 0.57086 0.11823 0.79164 0.0
H490 H 0.59446 0.13793 0.77201 0.0
C491 C 0.65417 0.21577 0.62482 0.0
C492 C 0.61845 0.19159 0.69101 0.0
H493 H 0.60233 0.17122 0.79284 0.0
C494 C 0.60781 0.18406 0.65528 0.0
C495 C 0.61689 0.18635 0.74098 0.0
C496 C 0.62881 0.19289 0.78067 0.0
C497 C 0.59513 0.1721 0.66842 0.0
C498 C 0.59271 0.16785 0.7189 0.0
C499 C 0.60392 0.17472 0.75432 0.0
C500 C 0.57835 0.15666 0.73545 0.0
C501 C 0.58449 0.1641 0.62794 0.0
C502 C 0.56137 0.16103 0.72378 0.0
C503 C 0.54795 0.14983 0.73478 0.0
C504 C 0.55113 0.1341 0.75853 0.0
C505 C 0.56798 0.13028 0.77356 0.0
C506 C 0.58149 0.14147 0.76202 0.0
H507 H 0.59132 0.16433 0.59195 0.0
H508 H 0.58114 0.15061 0.63686 0.0
H509 H 0.57244 0.1715 0.62347 0.0
H510 H 0.55854 0.17293 0.70483 0.0
H511 H 0.5351 0.15324 0.72317 0.0
H512 H 0.97523 0.40271 0.89615 0.0
H513 H 0.95769 0.38038 0.93353 0.0
H514 H 0.97948 0.34303 0.83437 0.0
H515 H 0.99691 0.36568 0.79557 0.0
H516 H 0.94548 0.33779 0.84698 0.0
H517 H 0.97532 0.34547 0.03049 0.0
H518 H 0.96695 0.36552 0.00892 0.0
H519 H 0.9841 0.35524 0.97562 0.0
C520 C 0.97618 0.38977 0.88186 0.0
C521 C 0.98748 0.38593 0.84305 0.0
C522 C 0.96628 0.37696 0.9037 0.0
C523 C 0.96768 0.35989 0.88803 0.0
C524 C 0.97836 0.35608 0.8476 0.0
H525 H 0.9165 0.28158 0.07409 0.0
H526 H 0.93908 0.29838 0.0328 0.0
C527 C 0.98821 0.36903 0.8252 0.0
C528 C 0.95773 0.34628 0.91396 0.0
H529 H 0.94756 0.33168 0.02948 0.0
C530 C 0.94612 0.33628 0.88679 0.0
C531 C 0.95885 0.34387 0.96582 0.0
C532 C 0.97213 0.35296 0.99678 0.0
C533 C 0.93488 0.32481 0.91036 0.0
C534 C 0.93487 0.32367 0.96269 0.0
C535 C 0.94725 0.33281 0.98953 0.0
C536 C 0.92145 0.31393 0.99007 0.0
C537 C 0.92306 0.3141 0.87878 0.0
C538 C 0.90408 0.31756 0.98155 0.0
C539 C 0.89131 0.30799 1.00472 0.0
C540 C 0.89553 0.29481 0.03797 0.0
C541 C 0.91288 0.29177 0.04893 0.0
C542 C 0.92576 0.30126 0.02506 0.0
H543 H 0.92868 0.31178 0.84167 0.0
H544 H 0.92027 0.30154 0.89631 0.0
H545 H 0.9108 0.32107 0.87335 0.0
H546 H 0.90037 0.32767 0.95626 0.0
H547 H 0.87804 0.31072 0.99583 0.0
H548 H 0.47952 0.1031 0.71842 0.0
H549 H 0.45977 0.12424 0.68494 0.0
H550 H 0.46822 0.15654 0.8119 0.0
H551 H 0.48846 0.13525 0.84578 0.0
H552 H 0.42978 0.13674 0.72352 0.0
H553 H 0.47701 0.18909 0.69423 0.0
H554 H 0.48338 0.16725 0.70665 0.0
H555 H 0.47591 0.18067 0.75602 0.0
C556 C 0.47721 0.11467 0.7395 0.0
C557 C 0.48563 0.11751 0.78479 0.0
C558 C 0.46587 0.12677 0.72019 0.0
C559 C 0.46266 0.14211 0.74541 0.0
C560 C 0.47074 0.14492 0.7913 0.0
H561 H 0.37781 0.20993 0.67998 0.0
H562 H 0.39838 0.19008 0.71608 0.0
C563 C 0.48215 0.13269 0.8109 0.0
C564 C 0.45062 0.15481 0.72322 0.0
H565 H 0.44808 0.19518 0.67416 0.0
C566 C 0.43378 0.14954 0.71292 0.0
C567 C 0.45593 0.17139 0.70844 0.0
C568 C 0.47407 0.17747 0.71642 0.0
C569 C 0.42209 0.16038 0.68871 0.0
C570 C 0.42725 0.17711 0.67496 0.0
C571 C 0.44413 0.18237 0.68478 0.0
C572 C 0.415 0.18947 0.65227 0.0
C573 C 0.40437 0.1537 0.67729 0.0
C574 C 0.41761 0.19606 0.60443 0.0
C575 C 0.40577 0.20755 0.58342 0.0
C576 C 0.39123 0.21275 0.61019 0.0
C577 C 0.3888 0.20617 0.65812 0.0
C578 C 0.40055 0.19474 0.6789 0.0
H579 H 0.40396 0.13947 0.67767 0.0
H580 H 0.39529 0.15842 0.70572 0.0
H581 H 0.39988 0.15828 0.64063 0.0
H582 H 0.42874 0.19221 0.58327 0.0
H583 H 0.40808 0.21249 0.54662 0.0
H584 H 0.56803 0.63603 0.29078 0.0
H585 H 0.58805 0.65727 0.32594 0.0
H586 H 0.59568 0.62479 0.45303 0.0
H587 H 0.57623 0.60367 0.4183 0.0
H588 H 0.5869 0.6749 0.4196 0.0
H589 H 0.64451 0.63369 0.40445 0.0
H590 H 0.6249 0.62918 0.37146 0.0
H591 H 0.62699 0.62342 0.43557 0.0
C592 C 0.57412 0.63341 0.32597 0.0
C593 C 0.57061 0.6181 0.35151 0.0
C594 C 0.58546 0.64557 0.34616 0.0
C595 C 0.59353 0.64251 0.39188 0.0
C596 C 0.58987 0.62732 0.41738 0.0
H597 H 0.64786 0.71384 0.58987 0.0
H598 H 0.62652 0.69428 0.55338 0.0
C599 C 0.57865 0.61526 0.3974 0.0
C600 C 0.60586 0.65496 0.4136 0.0
H601 H 0.64699 0.65828 0.45587 0.0
C602 C 0.60009 0.67135 0.42721 0.0
C603 C 0.62308 0.65034 0.42338 0.0
C604 C 0.63031 0.63326 0.40755 0.0
C605 C 0.61102 0.68313 0.45104 0.0
C606 C 0.62808 0.67827 0.46227 0.0
C607 C 0.63386 0.66196 0.44797 0.0
C608 C 0.64064 0.69021 0.4855 0.0
C609 C 0.60431 0.70077 0.46313 0.0
C610 C 0.65585 0.69404 0.46034 0.0
C611 C 0.66804 0.70491 0.48128 0.0
C612 C 0.6654 0.71232 0.52805 0.0
C613 C 0.65026 0.70835 0.55379 0.0
C614 C 0.63799 0.69733 0.53271 0.0
H615 H 0.59248 0.70382 0.44197 0.0
H616 H 0.60119 0.70139 0.50307 0.0
H617 H 0.61409 0.71072 0.45514 0.0
H618 H 0.65828 0.68868 0.42409 0.0
H619 H 0.67956 0.70757 0.46037 0.0
H620 H 0.14819 0.79102 0.05003 0.0
H621 H 0.12689 0.81076 0.08593 0.0
H622 H 0.15941 0.81785 0.21325 0.0
H623 H 0.18066 0.79881 0.17755 0.0
H624 H 0.10892 0.80972 0.17682 0.0
H625 H 0.15107 0.86673 0.16781 0.0
H626 H 0.15578 0.84719 0.13492 0.0
H627 H 0.16087 0.84908 0.19959 0.0
C628 C 0.1508 0.79692 0.08546 0.0
C629 C 0.16619 0.79344 0.11066 0.0
C630 C 0.13861 0.8081 0.10607 0.0
C631 C 0.14168 0.81599 0.152 0.0
C632 C 0.15688 0.81222 0.17737 0.0
H633 H 0.06839 0.87042 0.34447 0.0
H634 H 0.08794 0.84876 0.30962 0.0
C635 C 0.16902 0.80122 0.15686 0.0
C636 C 0.12926 0.82833 0.1738 0.0
H637 H 0.12622 0.86919 0.21809 0.0
C638 C 0.11262 0.82277 0.18554 0.0
C639 C 0.13406 0.8454 0.18493 0.0
C640 C 0.15135 0.85253 0.17073 0.0
C641 C 0.10076 0.83377 0.20872 0.0
C642 C 0.1058 0.85066 0.22136 0.0
C643 C 0.12239 0.8562 0.20911 0.0
C644 C 0.0938 0.86336 0.24362 0.0
C645 C 0.08285 0.82732 0.21841 0.0
C646 C 0.09098 0.87894 0.21911 0.0
C647 C 0.08019 0.89133 0.23925 0.0
C648 C 0.07177 0.88849 0.28447 0.0
C649 C 0.07466 0.87297 0.30955 0.0
C650 C 0.08567 0.86052 0.28937 0.0
H651 H 0.07984 0.81578 0.196 0.0
H652 H 0.08167 0.8238 0.25798 0.0
H653 H 0.0732 0.83739 0.21015 0.0
H654 H 0.0971 0.88153 0.18397 0.0
H655 H 0.07839 0.90315 0.2189 0.0
H656 H 0.99032 0.63279 0.3371 0.0
H657 H 0.97036 0.65403 0.30161 0.0
H658 H 0.96461 0.62258 0.17172 0.0
H659 H 0.98408 0.60146 0.20671 0.0
H660 H 0.97263 0.67234 0.20845 0.0
H661 H 0.91506 0.63078 0.2169 0.0
H662 H 0.93431 0.62625 0.25163 0.0
H663 H 0.93307 0.62091 0.18708 0.0
C664 C 0.98463 0.63037 0.30125 0.0
C665 C 0.9887 0.61537 0.27494 0.0
C666 C 0.97334 0.64254 0.28087 0.0
C667 C 0.96585 0.6398 0.23419 0.0
C668 C 0.96999 0.62487 0.20805 0.0
H669 H 0.91198 0.71304 0.03966 0.0
H670 H 0.93318 0.69285 0.07416 0.0
C671 C 0.9812 0.61281 0.22818 0.0
C672 C 0.95367 0.65235 0.21216 0.0
H673 H 0.91277 0.65602 0.16826 0.0
C674 C 0.9595 0.66885 0.19992 0.0
C675 C 0.93654 0.64778 0.2011 0.0
C676 C 0.92929 0.63053 0.21523 0.0
C677 C 0.94869 0.68083 0.17639 0.0
C678 C 0.93168 0.67607 0.1642 0.0
C679 C 0.92586 0.65962 0.17694 0.0
C680 C 0.91917 0.68831 0.14199 0.0
C681 C 0.95543 0.69856 0.16574 0.0
C682 C 0.90409 0.69209 0.16781 0.0
C683 C 0.892 0.70334 0.14806 0.0
C684 C 0.89461 0.71117 0.10181 0.0
C685 C 0.9096 0.70722 0.07534 0.0
C686 C 0.92179 0.69584 0.09527 0.0
H687 H 0.96734 0.70134 0.18686 0.0
H688 H 0.95841 0.69964 0.12578 0.0
H689 H 0.9457 0.70844 0.17488 0.0
H690 H 0.90171 0.68642 0.20372 0.0
H691 H 0.8806 0.70599 0.1695 0.0
H692 H 0.06743 0.13439 0.78704 0.0
H693 H 0.08811 0.1556 0.81904 0.0
H694 H 0.09539 0.12479 0.9497 0.0
H695 H 0.07532 0.10368 0.91807 0.0
H696 H 0.08757 0.17461 0.90984 0.0
H697 H 0.14425 0.132 0.90015 0.0
H698 H 0.1245 0.12733 0.86804 0.0
H699 H 0.12663 0.12253 0.93282 0.0
C700 C 0.07361 0.13211 0.8223 0.0
C701 C 0.0698 0.11729 0.84979 0.0
C702 C 0.08532 0.14426 0.84068 0.0
C703 C 0.09346 0.14166 0.88653 0.0
C704 C 0.08954 0.12694 0.9139 0.0
H705 H 0.14828 0.21368 0.07972 0.0
H706 H 0.12668 0.19455 0.04276 0.0
C707 C 0.07796 0.11489 0.89571 0.0
C708 C 0.10607 0.15417 0.90662 0.0
H709 H 0.14713 0.15708 0.94966 0.0
C710 C 0.10065 0.17087 0.91814 0.0
C711 C 0.12316 0.1493 0.91725 0.0
C712 C 0.13005 0.13187 0.9035 0.0
C713 C 0.11178 0.1827 0.94096 0.0
C714 C 0.12868 0.17758 0.95334 0.0
C715 C 0.13413 0.16097 0.94088 0.0
C716 C 0.14135 0.18942 0.97647 0.0
C717 C 0.10545 0.20064 0.95086 0.0
C718 C 0.15693 0.19252 0.95237 0.0
C719 C 0.16928 0.20313 0.97364 0.0
C720 C 0.16641 0.21101 0.01966 0.0
C721 C 0.15086 0.20782 0.04423 0.0
C722 C 0.13845 0.19705 0.02287 0.0
H723 H 0.09393 0.20376 0.9284 0.0
H724 H 0.10193 0.20178 0.99043 0.0
H725 H 0.11558 0.21024 0.94284 0.0
H726 H 0.15955 0.18675 0.91676 0.0
H727 H 0.18111 0.20521 0.95364 0.0
H728 H 0.67821 0.30907 0.63569 0.0
H729 H 0.65574 0.32593 0.67477 0.0
H730 H 0.61743 0.29848 0.59136 0.0
H731 H 0.64019 0.28167 0.55081 0.0
H732 H 0.61003 0.33251 0.59734 0.0
H733 H 0.62533 0.30871 0.78423 0.0
H734 H 0.64399 0.31768 0.75563 0.0
H735 H 0.634 0.29897 0.72917 0.0
C736 C 0.66501 0.30671 0.6252 0.0
C737 C 0.66095 0.29401 0.5903 0.0
C738 C 0.65215 0.31623 0.64805 0.0
C739 C 0.63484 0.3131 0.63737 0.0
C740 C 0.6307 0.30096 0.60074 0.0
H741 H 0.55936 0.36569 0.83007 0.0
H742 H 0.57568 0.34255 0.78969 0.0
C743 C 0.64368 0.29146 0.57732 0.0
C744 C 0.62133 0.3228 0.66437 0.0
H745 H 0.60969 0.3355 0.78056 0.0
C746 C 0.60978 0.33294 0.63739 0.0
C747 C 0.62059 0.32307 0.71674 0.0
C748 C 0.63152 0.31136 0.74807 0.0
C749 C 0.59839 0.34419 0.66125 0.0
C750 C 0.59886 0.34568 0.71347 0.0
C751 C 0.60954 0.33466 0.74055 0.0
C752 C 0.58939 0.35946 0.74002 0.0
C753 C 0.58608 0.35451 0.63011 0.0
C754 C 0.59218 0.37664 0.72709 0.0
C755 C 0.58294 0.38973 0.74989 0.0
C756 C 0.57086 0.38603 0.78689 0.0
C757 C 0.56866 0.36892 0.80188 0.0
C758 C 0.57788 0.35571 0.77858 0.0
H759 H 0.583 0.34777 0.59504 0.0
H760 H 0.57395 0.3571 0.65017 0.0
H761 H 0.5921 0.36694 0.62038 0.0
H762 H 0.6014 0.37996 0.69878 0.0
H763 H 0.58504 0.4028 0.73779 0.0
H764 H 0.41611 0.7856 0.58907 0.0
H765 H 0.43858 0.80317 0.54999 0.0
H766 H 0.40157 0.82237 0.44512 0.0
H767 H 0.37942 0.80486 0.48306 0.0
H768 H 0.43094 0.81137 0.39991 0.0
H769 H 0.44605 0.85498 0.55659 0.0
H770 H 0.44784 0.83241 0.56911 0.0
H771 H 0.42721 0.84157 0.55594 0.0
C772 C 0.41279 0.79379 0.55819 0.0
C773 C 0.396 0.79387 0.53923 0.0
C774 C 0.42562 0.8038 0.53583 0.0
C775 C 0.42177 0.81413 0.49457 0.0
C776 C 0.40491 0.81445 0.47661 0.0
H777 H 0.46815 0.90324 0.37376 0.0
H778 H 0.4509 0.88085 0.41229 0.0
C779 C 0.39222 0.80447 0.49858 0.0
C780 C 0.43505 0.82453 0.46882 0.0
H781 H 0.46096 0.85947 0.48241 0.0
C782 C 0.43764 0.82181 0.41799 0.0
C783 C 0.44372 0.83818 0.49239 0.0
C784 C 0.44104 0.84212 0.54641 0.0
C785 C 0.44808 0.83276 0.38971 0.0
C786 C 0.45651 0.84662 0.41311 0.0
C787 C 0.45447 0.84888 0.46437 0.0
C788 C 0.46633 0.85982 0.38499 0.0
C789 C 0.44926 0.82985 0.3347 0.0
C790 C 0.48052 0.85553 0.35536 0.0
C791 C 0.49017 0.8684 0.33202 0.0
C792 C 0.48595 0.88575 0.33888 0.0
C793 C 0.47157 0.88995 0.36752 0.0
C794 C 0.4618 0.87715 0.38993 0.0
H795 H 0.43884 0.82137 0.32103 0.0
H796 H 0.44865 0.84217 0.31422 0.0
H797 H 0.46167 0.82359 0.32609 0.0
H798 H 0.48454 0.84231 0.35177 0.0
H799 H 0.50147 0.86487 0.31118 0.0
H800 H 0.04105 0.53377 0.25622 0.0
H801 H 0.05077 0.50904 0.20764 0.0
H802 H 0.0706 0.54324 0.09618 0.0
H803 H 0.06093 0.56777 0.14429 0.0
H804 H 0.03427 0.50747 0.11681 0.0
H805 H 0.10448 0.50308 0.08949 0.0
H806 H 0.09495 0.51383 0.14189 0.0
H807 H 0.09628 0.52448 0.08307 0.0
C808 C 0.04825 0.53594 0.22258 0.0
C809 C 0.05012 0.55255 0.2035 0.0
C810 C 0.05377 0.52186 0.19485 0.0
C811 C 0.06143 0.52434 0.14836 0.0
C812 C 0.065 0.54102 0.13223 0.0
H813 H 0.03636 0.46958 0.88354 0.0
H814 H 0.04679 0.49232 0.93883 0.0
C815 C 0.05934 0.55503 0.15956 0.0
C816 C 0.06168 0.51029 0.11181 0.0
H817 H 0.0868 0.4898 0.02704 0.0
C818 C 0.04581 0.50341 0.09777 0.0
C819 C 0.07671 0.50523 0.08659 0.0
C820 C 0.0941 0.51192 0.10129 0.0
C821 C 0.04446 0.49194 0.05834 0.0
C822 C 0.05937 0.48735 0.0319 0.0
C823 C 0.07537 0.49374 0.04677 0.0
C824 C 0.0583 0.47481 0.99135 0.0
C825 C 0.02704 0.48484 0.04504 0.0
C826 C 0.06225 0.45767 1.00145 0.0
C827 C 0.0562 0.44479 0.97038 0.0
C828 C 0.04634 0.44893 0.9286 0.0
C829 C 0.04408 0.46616 0.91538 0.0
C830 C 0.04999 0.4791 0.9469 0.0
H831 H 0.01727 0.48769 0.07373 0.0
H832 H 0.02269 0.4906 0.00967 0.0
H833 H 0.0277 0.47073 0.03987 0.0
H834 H 0.06856 0.45415 0.03569 0.0
H835 H 0.05807 0.43153 0.9811 0.0
H836 H 0.84839 0.78317 0.23331 0.0
H837 H 0.82507 0.79319 0.2858 0.0
H838 H 0.78825 0.77272 0.1825 0.0
H839 H 0.81175 0.76258 0.12956 0.0
H840 H 0.79169 0.81129 0.28223 0.0
H841 H 0.78902 0.74041 0.30714 0.0
H842 H 0.80634 0.7508 0.27488 0.0
H843 H 0.78589 0.7482 0.24527 0.0
C844 C 0.8353 0.7815 0.22076 0.0
C845 C 0.83174 0.77193 0.17803 0.0
C846 C 0.82201 0.78729 0.25063 0.0
C847 C 0.80502 0.78341 0.23834 0.0
C848 C 0.80135 0.77573 0.19252 0.0
H849 H 0.71408 0.78531 0.40761 0.0
H850 H 0.73757 0.79561 0.35617 0.0
C851 C 0.81472 0.77 0.1623 0.0
C852 C 0.7921 0.78373 0.27803 0.0
H853 H 0.77092 0.75699 0.35657 0.0
C854 C 0.78699 0.79947 0.29838 0.0
C855 C 0.78651 0.76823 0.29984 0.0
C856 C 0.79228 0.75092 0.28108 0.0
C857 C 0.77607 0.80007 0.33963 0.0
C858 C 0.7703 0.78454 0.36075 0.0
C859 C 0.77558 0.76887 0.34061 0.0
C860 C 0.75743 0.78386 0.40059 0.0
C861 C 0.7709 0.81719 0.36064 0.0
C862 C 0.7609 0.77456 0.44404 0.0
C863 C 0.74744 0.7687 0.47366 0.0
C864 C 0.73048 0.77197 0.45953 0.0
C865 C 0.72715 0.78276 0.41913 0.0
C866 C 0.74055 0.78873 0.3899 0.0
H867 H 0.7798 0.82754 0.34894 0.0
H868 H 0.75787 0.82049 0.34723 0.0
H869 H 0.77053 0.81672 0.40164 0.0
H870 H 0.77387 0.77054 0.45251 0.0
H871 H 0.75022 0.76021 0.50435 0.0
H872 H 0.49222 0.56116 0.42151 0.0
H873 H 0.47942 0.53994 0.47781 0.0
H874 H 0.52731 0.5123 0.48105 0.0
H875 H 0.54006 0.53351 0.42576 0.0
H876 H 0.49482 0.49136 0.48637 0.0
H877 H 0.50074 0.54506 0.62159 0.0
H878 H 0.48875 0.54798 0.56526 0.0
H879 H 0.51163 0.54601 0.56291 0.0
C880 C 0.49967 0.55007 0.43252 0.0
C881 C 0.51702 0.54876 0.41941 0.0
C882 C 0.49242 0.53807 0.46482 0.0
C883 C 0.5025 0.5247 0.48376 0.0
C884 C 0.51932 0.52251 0.46657 0.0
H885 H 0.54717 0.47037 0.6842 0.0
H886 H 0.53286 0.49167 0.63247 0.0
C887 C 0.52659 0.53456 0.43496 0.0
C888 C 0.49719 0.51479 0.5276 0.0
H889 H 0.50166 0.51708 0.65285 0.0
C890 C 0.49549 0.49698 0.52296 0.0
C891 C 0.49816 0.52225 0.5752 0.0
C892 C 0.49993 0.54137 0.58202 0.0
C893 C 0.49654 0.48629 0.56455 0.0
C894 C 0.49948 0.49369 0.61147 0.0
C895 C 0.49933 0.51154 0.61671 0.0
C896 C 0.50723 0.48338 0.6513 0.0
C897 C 0.49645 0.46711 0.55755 0.0
C898 C 0.49744 0.47227 0.68067 0.0
C899 C 0.50565 0.46024 0.71107 0.0
C900 C 0.52364 0.45912 0.7114 0.0
C901 C 0.5333 0.47106 0.68455 0.0
C902 C 0.52514 0.48319 0.65505 0.0
H903 H 0.49283 0.4634 0.51931 0.0
H904 H 0.50939 0.4619 0.5657 0.0
H905 H 0.48731 0.46111 0.58375 0.0
H906 H 0.48359 0.47226 0.67796 0.0
H907 H 0.49798 0.45098 0.73106 0.0
H908 H 0.83126 0.22229 0.97665 0.0
H909 H 0.81019 0.20859 0.92148 0.0
H910 H 0.78888 0.25822 0.88721 0.0
H911 H 0.81 0.27187 0.94097 0.0
H912 H 0.7646 0.22578 0.89903 0.0
H913 H 0.81915 0.22252 0.76638 0.0
H914 H 0.8213 0.21502 0.82921 0.0
H915 H 0.81999 0.23757 0.8169 0.0
C916 C 0.82159 0.23013 0.95881 0.0
C917 C 0.82215 0.24809 0.96272 0.0
C918 C 0.80969 0.22232 0.92724 0.0
C919 C 0.79814 0.23246 0.90028 0.0
C920 C 0.7977 0.25022 0.90793 0.0
H921 H 0.74622 0.27095 0.68717 0.0
H922 H 0.76729 0.25763 0.74187 0.0
C923 C 0.80972 0.258 0.93859 0.0
C924 C 0.78826 0.2255 0.85843 0.0
H925 H 0.79131 0.22479 0.73278 0.0
C926 C 0.7704 0.22468 0.86276 0.0
C927 C 0.79596 0.22416 0.81132 0.0
C928 C 0.81516 0.22481 0.80522 0.0
C929 C 0.75994 0.22442 0.82058 0.0
C930 C 0.76765 0.2252 0.77337 0.0
C931 C 0.7855 0.22412 0.76913 0.0
C932 C 0.75784 0.23184 0.73093 0.0
C933 C 0.74075 0.22536 0.82662 0.0
C934 C 0.74619 0.22155 0.70487 0.0
C935 C 0.73432 0.22915 0.67275 0.0
C936 C 0.7339 0.24707 0.66738 0.0
C937 C 0.74642 0.25711 0.69063 0.0
C938 C 0.75841 0.24952 0.72183 0.0
H939 H 0.73674 0.22351 0.86564 0.0
H940 H 0.73607 0.23806 0.81384 0.0
H941 H 0.73449 0.21542 0.80348 0.0
H942 H 0.74557 0.20788 0.71178 0.0
H943 H 0.72457 0.22123 0.65563 0.0
H944 H 0.25194 0.23952 0.93752 0.0
H945 H 0.27398 0.25468 0.89089 0.0
H946 H 0.2502 0.30302 0.92677 0.0
H947 H 0.22818 0.28775 0.97479 0.0
H948 H 0.25368 0.29501 0.82184 0.0
H949 H 0.31484 0.28712 0.92241 0.0
H950 H 0.30241 0.26775 0.92211 0.0
H951 H 0.29423 0.28649 0.95292 0.0
C952 C 0.25183 0.25341 0.93706 0.0
C953 C 0.23854 0.26252 0.95983 0.0
C954 C 0.2644 0.26206 0.91051 0.0
C955 C 0.26375 0.27996 0.90571 0.0
C956 C 0.25098 0.28922 0.93058 0.0
H957 H 0.34764 0.2952 0.70662 0.0
H958 H 0.32641 0.30763 0.76259 0.0
C959 C 0.23853 0.28052 0.95815 0.0
C960 C 0.27496 0.28821 0.86883 0.0
H961 H 0.31663 0.28734 0.8327 0.0
C962 C 0.26751 0.29396 0.82456 0.0
C963 C 0.29294 0.28711 0.87275 0.0
C964 C 0.30159 0.28194 0.92035 0.0
C965 C 0.27755 0.29675 0.7823 0.0
C966 C 0.29536 0.29348 0.78458 0.0
C967 C 0.30294 0.28969 0.83049 0.0
C968 C 0.30588 0.29075 0.73967 0.0
C969 C 0.26885 0.30224 0.73512 0.0
C970 C 0.30109 0.27791 0.70585 0.0
C971 C 0.31314 0.27105 0.67322 0.0
C972 C 0.33012 0.27682 0.67453 0.0
C973 C 0.33449 0.29077 0.70469 0.0
C974 C 0.3224 0.2978 0.73678 0.0
H975 H 0.2579 0.31091 0.74314 0.0
H976 H 0.27786 0.30888 0.70979 0.0
H977 H 0.26362 0.29078 0.71609 0.0
H978 H 0.2886 0.27191 0.70808 0.0
H979 H 0.30966 0.26004 0.65097 0.0
H980 H 0.3349 0.71811 0.48066 0.0
H981 H 0.31441 0.70364 0.42531 0.0
H982 H 0.29129 0.75245 0.39094 0.0
H983 H 0.31184 0.76686 0.44489 0.0
H984 H 0.26805 0.72005 0.40082 0.0
H985 H 0.3236 0.71689 0.27163 0.0
H986 H 0.32529 0.70913 0.33428 0.0
H987 H 0.32406 0.73173 0.32272 0.0
C988 C 0.32494 0.72558 0.4628 0.0
C989 C 0.32481 0.74354 0.46675 0.0
C990 C 0.31337 0.71734 0.43111 0.0
C991 C 0.30149 0.72704 0.40401 0.0
C992 C 0.30036 0.74477 0.41177 0.0
H993 H 0.25318 0.76572 0.18752 0.0
H994 H 0.27404 0.75132 0.24047 0.0
C995 C 0.31205 0.75299 0.44255 0.0
C996 C 0.29201 0.71977 0.36178 0.0
H997 H 0.29604 0.71881 0.23639 0.0
C998 C 0.27412 0.71889 0.36494 0.0
C999 C 0.30007 0.71833 0.3152 0.0
C1000 C 0.31932 0.71902 0.31029 0.0
C1001 C 0.26399 0.71861 0.32211 0.0
C1002 C 0.27207 0.71935 0.27537 0.0
C1003 C 0.28995 0.71819 0.27235 0.0
C1004 C 0.26265 0.72618 0.23236 0.0
C1005 C 0.24475 0.71965 0.32707 0.0
C1006 C 0.25002 0.71656 0.20799 0.0
C1007 C 0.23824 0.72479 0.17688 0.0
C1008 C 0.23893 0.74266 0.17075 0.0
C1009 C 0.25252 0.75192 0.19158 0.0
C1010 C 0.26439 0.7437 0.2218 0.0
H1011 H 0.2405 0.71856 0.36611 0.0
H1012 H 0.2401 0.73205 0.31195 0.0
H1013 H 0.23866 0.70922 0.30541 0.0
H1014 H 0.24851 0.70303 0.21588 0.0
H1015 H 0.22768 0.71748 0.16163 0.0
H1016 H 0.53574 0.97061 0.3749 0.0
H1017 H 0.54726 0.99467 0.42348 0.0
H1018 H 0.55765 0.96024 0.54472 0.0
H1019 H 0.54621 0.93644 0.49685 0.0
H1020 H 0.5299 1.00209 0.51047 0.0
H1021 H 0.59881 0.99263 0.55089 0.0
H1022 H 0.58819 0.98266 0.49888 0.0
H1023 H 0.58643 0.97348 0.55968 0.0
C1024 C 0.54105 0.96818 0.41124 0.0
C1025 C 0.53992 0.95183 0.43259 0.0
C1026 C 0.54764 0.98186 0.43887 0.0
C1027 C 0.55346 0.97917 0.4875 0.0
C1028 C 0.55358 0.96255 0.50701 0.0
H1029 H 0.53646 0.03676 0.74828 0.0
H1030 H 0.54512 0.01353 0.69237 0.0
C1031 C 0.54683 0.94901 0.47984 0.0
C1032 C 0.55594 0.99375 0.52153 0.0
H1033 H 0.58293 0.00989 0.60958 0.0
C1034 C 0.54162 0.00403 0.53138 0.0
C1035 C 0.57117 0.99606 0.5492 0.0
C1036 C 0.58708 0.98572 0.53883 0.0
C1037 C 0.54185 0.01609 0.56954 0.0
C1038 C 0.5568 0.01789 0.59858 0.0
C1039 C 0.57141 0.00817 0.58766 0.0
C1040 C 0.55717 0.03039 0.63927 0.0
C1041 C 0.52594 0.02656 0.57952 0.0
C1042 C 0.562 0.04728 0.62893 0.0
C1043 C 0.55693 0.06047 0.66035 0.0
C1044 C 0.54715 0.05686 0.70265 0.0
C1045 C 0.54414 0.03977 0.7161 0.0
C1046 C 0.54906 0.02654 0.68423 0.0
H1047 H 0.51584 0.02449 0.55116 0.0
H1048 H 0.52064 0.02303 0.61618 0.0
H1049 H 0.52916 0.04042 0.58056 0.0
H1050 H 0.56814 0.05044 0.59422 0.0
H1051 H 0.55935 0.07361 0.64938 0.0
H1052 H 0.01044 0.03746 0.86884 0.0
H1053 H 0.99805 0.01288 0.91314 0.0
H1054 H 0.99519 0.04348 0.04587 0.0
H1055 H 0.00673 0.06775 1.00192 0.0
H1056 H 0.01531 0.99839 0.9801 0.0
H1057 H 0.95527 0.01452 0.07179 0.0
H1058 H 0.96296 0.02695 0.01998 0.0
H1059 H 0.96906 0.03243 0.08253 0.0
C1060 C 0.00647 0.03902 0.90692 0.0
C1061 C 0.00988 0.05433 0.93234 0.0
C1062 C 0.99938 0.02502 0.9322 0.0
C1063 C 0.99552 0.02628 0.98294 0.0
C1064 C 0.99753 0.04213 0.00664 0.0
H1065 H 0.04217 0.97569 0.20518 0.0
H1066 H 0.02886 0.99437 0.14353 0.0
C1067 C 0.00451 0.05599 0.98159 0.0
C1068 C 0.99357 0.01076 0.01419 0.0
H1069 H 0.97719 0.99955 0.12667 0.0
C1070 C 0.00649 0.99829 0.01104 0.0
C1071 C 0.9819 0.01014 0.05426 0.0
C1072 C 0.96643 0.02168 0.05678 0.0
C1073 C 0.00948 0.98686 0.04993 0.0
C1074 C 0.99958 0.98826 0.09348 0.0
C1075 C 0.98523 0.99905 0.09404 0.0
C1076 C 0.00526 0.97984 0.13956 0.0
C1077 C 0.02396 0.97414 0.04528 0.0
C1078 C 0.99572 0.96651 0.16076 0.0
C1079 C 1.00317 0.95613 0.19717 0.0
C1080 C 0.02018 0.95901 0.21212 0.0
C1081 C 0.02898 0.9734 0.19447 0.0
C1082 C 0.02146 0.9839 0.1589 0.0
H1083 H 0.02633 0.97076 0.00599 0.0
H1084 H 0.03589 0.97993 0.06018 0.0
H1085 H 0.02124 0.96221 0.06626 0.0
H1086 H 0.98316 0.96329 0.14646 0.0
H1087 H 0.99631 0.94487 0.20978 0.0
H1088 H 1.00167 0.46034 0.73055 0.0
H1089 H 0.0033 0.48254 0.66707 0.0
H1090 H 0.05155 0.46197 0.61733 0.0
H1091 H 0.04993 0.4395 0.68088 0.0
H1092 H 0.02768 0.50785 0.65317 0.0
H1093 H 0.02415 0.46557 0.48853 0.0
H1094 H 0.01891 0.45815 0.54987 0.0
H1095 H 0.04092 0.46036 0.53156 0.0
C1096 C 0.01261 0.46041 0.70597 0.0
C1097 C 0.02563 0.44801 0.71083 0.0
C1098 C 0.01355 0.47321 0.66967 0.0
C1099 C 0.02746 0.47393 0.63685 0.0
C1100 C 0.04052 0.46157 0.64152 0.0
H1101 H 0.04972 0.56392 0.44851 0.0
H1102 H 0.05105 0.54153 0.51224 0.0
C1103 C 0.03962 0.44874 0.67806 0.0
C1104 C 0.02825 0.48782 0.59856 0.0
H1105 H 0.02863 0.49509 0.47374 0.0
C1106 C 0.02796 0.50504 0.61394 0.0
C1107 C 0.02841 0.48425 0.54723 0.0
C1108 C 0.02796 0.4661 0.52807 0.0
C1109 C 0.02783 0.51869 0.57969 0.0
C1110 C 0.02821 0.51513 0.52836 0.0
C1111 C 0.02849 0.4979 0.51298 0.0
C1112 C 0.02752 0.529 0.49 0.0
C1113 C 0.02676 0.53682 0.59883 0.0
C1114 C 0.01403 0.52939 0.45556 0.0
C1115 C 0.01327 0.54215 0.41906 0.0
C1116 C 0.02605 0.55485 0.4157 0.0
C1117 C 0.03958 0.55446 0.45016 0.0
C1118 C 0.04032 0.54167 0.48681 0.0
H1119 H 0.02244 0.53724 0.63791 0.0
H1120 H 0.03964 0.54282 0.59688 0.0
H1121 H 0.01782 0.54461 0.57606 0.0
H1122 H 0.00399 0.51981 0.45699 0.0
H1123 H 1.00267 0.54196 0.39316 0.0
H1124 H 0.84224 0.77333 0.93264 0.0
H1125 H 0.81935 0.77501 0.8702 0.0
H1126 H 0.79861 0.72716 0.9227 0.0
H1127 H 0.82122 0.72546 0.985 0.0
H1128 H 0.81025 0.75271 0.79338 0.0
H1129 H 0.75669 0.75849 0.92645 0.0
H1130 H 0.7788 0.76145 0.94428 0.0
H1131 H 0.77014 0.74021 0.93763 0.0
C1132 C 0.83282 0.76315 0.93081 0.0
C1133 C 0.83359 0.7493 0.96415 0.0
C1134 C 0.81971 0.76413 0.89508 0.0
C1135 C 0.80697 0.75138 0.89217 0.0
C1136 C 0.80797 0.73739 0.92474 0.0
H1137 H 0.73828 0.7253 0.65116 0.0
H1138 H 0.76072 0.727 0.71396 0.0
C1139 C 0.82105 0.73638 0.96024 0.0
C1140 C 0.79278 0.75247 0.85481 0.0
H1141 H 0.74904 0.75252 0.84278 0.0
C1142 C 0.79688 0.75279 0.80427 0.0
C1143 C 0.77525 0.7528 0.86869 0.0
C1144 C 0.76991 0.75339 0.9222 0.0
C1145 C 0.78403 0.75286 0.7675 0.0
C1146 C 0.76651 0.75242 0.78137 0.0
C1147 C 0.76241 0.75268 0.83191 0.0
C1148 C 0.75235 0.75128 0.74397 0.0
C1149 C 0.78937 0.75351 0.71397 0.0
C1150 C 0.73965 0.76406 0.74062 0.0
C1151 C 0.72664 0.7631 0.70457 0.0
C1152 C 0.72594 0.74922 0.67137 0.0
C1153 C 0.7384 0.73623 0.67581 0.0
C1154 C 0.75138 0.73724 0.71161 0.0
H1155 H 0.80258 0.7586 0.70972 0.0
H1156 H 0.78913 0.74035 0.69846 0.0
H1157 H 0.78046 0.7616 0.69198 0.0
H1158 H 0.73998 0.77497 0.76534 0.0
H1159 H 0.71728 0.77332 0.70233 0.0
H1160 H 0.56035 0.55069 0.21372 0.0
H1161 H 0.55873 0.52816 0.15128 0.0
H1162 H 0.50462 0.53777 0.13377 0.0
H1163 H 0.50635 0.56083 0.19513 0.0
H1164 H 0.54219 0.499 0.15254 0.0
H1165 H 0.51813 0.53603 0.99195 0.0
H1166 H 0.52573 0.54628 0.04753 0.0
H1167 H 0.5044 0.53753 0.04484 0.0
C1168 C 0.54814 0.5482 0.19607 0.0
C1169 C 0.5335 0.55769 0.20928 0.0
C1170 C 0.54721 0.53523 0.16038 0.0
C1171 C 0.5316 0.53125 0.137 0.0
C1172 C 0.51694 0.54078 0.15001 0.0
H1173 H 0.50655 0.44647 0.93236 0.0
H1174 H 0.50457 0.4691 0.99549 0.0
C1175 C 0.51791 0.55395 0.18538 0.0
C1176 C 0.53071 0.51666 0.10094 0.0
H1177 H 0.51913 0.50577 0.98278 0.0
C1178 C 0.53715 0.50056 0.11544 0.0
C1179 C 0.52412 0.51852 0.05229 0.0
C1180 C 0.51786 0.53555 0.03298 0.0
C1181 C 0.53727 0.48646 0.08298 0.0
C1182 C 0.53074 0.48835 0.03452 0.0
C1183 C 0.52401 0.50429 0.0201 0.0
C1184 C 0.53181 0.47421 0.99747 0.0
C1185 C 0.54442 0.46956 0.10061 0.0
C1186 C 0.54774 0.46952 0.97767 0.0
C1187 C 0.54889 0.45673 0.9415 0.0
C1188 C 0.53413 0.44819 0.92441 0.0
C1189 C 0.51818 0.45268 0.94493 0.0
C1190 C 0.51702 0.46567 0.98083 0.0
H1191 H 0.54595 0.46921 0.14143 0.0
H1192 H 0.53597 0.45883 0.08908 0.0
H1193 H 0.55719 0.46748 0.0836 0.0
H1194 H 0.55931 0.47599 0.98962 0.0
H1195 H 0.56138 0.45367 0.9265 0.0
H1196 H 0.82801 0.28411 0.17727 0.0
H1197 H 0.8052 0.28157 0.23838 0.0
H1198 H 0.81221 0.22675 0.24171 0.0
H1199 H 0.83551 0.2293 0.18124 0.0
H1200 H 0.77522 0.26598 0.22993 0.0
H1201 H 0.81012 0.23646 0.38715 0.0
H1202 H 0.82106 0.24539 0.33441 0.0
H1203 H 0.81156 0.22442 0.33085 0.0
C1204 C 0.82492 0.2715 0.1915 0.0
C1205 C 0.83371 0.25691 0.17442 0.0
C1206 C 0.81177 0.27007 0.22645 0.0
C1207 C 0.80695 0.25399 0.24533 0.0
C1208 C 0.81586 0.23937 0.22881 0.0
H1209 H 0.72116 0.22877 0.44699 0.0
H1210 H 0.74394 0.22658 0.3844 0.0
C1211 C 0.82918 0.24082 0.19402 0.0
C1212 C 0.79206 0.25271 0.28021 0.0
H1213 H 0.78 0.23919 0.3956 0.0
C1214 C 0.77633 0.26009 0.26611 0.0
C1215 C 0.79333 0.24498 0.32756 0.0
C1216 C 0.80995 0.2375 0.3462 0.0
C1217 C 0.76204 0.26012 0.29785 0.0
C1218 C 0.76339 0.25263 0.34531 0.0
C1219 C 0.77893 0.24486 0.35913 0.0
C1220 C 0.74917 0.2538 0.38213 0.0
C1221 C 0.74556 0.26824 0.2804 0.0
C1222 C 0.74451 0.26978 0.40171 0.0
C1223 C 0.73162 0.27105 0.4375 0.0
C1224 C 0.72295 0.25637 0.45456 0.0
C1225 C 0.72744 0.24035 0.4344 0.0
C1226 C 0.74053 0.23907 0.39882 0.0
H1227 H 0.74525 0.26973 0.23957 0.0
H1228 H 0.73433 0.26049 0.29205 0.0
H1229 H 0.74431 0.28116 0.29715 0.0
H1230 H 0.75108 0.28131 0.38992 0.0
H1231 H 0.72858 0.28359 0.45226 0.0
H1232 H 0.31759 0.22739 0.49217 0.0
H1233 H 0.29549 0.22842 0.42808 0.0
H1234 H 0.31938 0.27315 0.36497 0.0
H1235 H 0.34169 0.27213 0.429 0.0
H1236 H 0.27196 0.25425 0.4063 0.0
H1237 H 0.31401 0.24152 0.24509 0.0
H1238 H 0.32091 0.2379 0.30793 0.0
H1239 H 0.3205 0.25926 0.28306 0.0
C1240 C 0.31826 0.23741 0.46451 0.0
C1241 C 0.33154 0.24963 0.46572 0.0
C1242 C 0.30553 0.23801 0.42789 0.0
C1243 C 0.30577 0.25076 0.39121 0.0
C1244 C 0.31901 0.263 0.39226 0.0
H1245 H 0.2186 0.27325 0.19143 0.0
H1246 H 0.24051 0.27516 0.25663 0.0
C1247 C 0.33176 0.26244 0.42905 0.0
C1248 C 0.29202 0.25124 0.3525 0.0
H1249 H 0.28498 0.24787 0.22799 0.0
C1250 C 0.27482 0.25292 0.36729 0.0
C1251 C 0.29566 0.24934 0.30153 0.0
C1252 C 0.31374 0.24675 0.28327 0.0
C1253 C 0.26126 0.25275 0.33274 0.0
C1254 C 0.26492 0.25101 0.28173 0.0
C1255 C 0.28212 0.24935 0.26696 0.0
C1256 C 0.25112 0.24994 0.24326 0.0
C1257 C 0.24308 0.25389 0.3513 0.0
C1258 C 0.24978 0.23524 0.21359 0.0
C1259 C 0.23731 0.23414 0.17642 0.0
C1260 C 0.22585 0.24776 0.16752 0.0
C1261 C 0.22709 0.26246 0.19747 0.0
C1262 C 0.23961 0.26355 0.23489 0.0
H1263 H 0.24223 0.25127 0.39158 0.0
H1264 H 0.2381 0.26701 0.34455 0.0
H1265 H 0.23467 0.2447 0.33143 0.0
H1266 H 0.25845 0.22456 0.21912 0.0
H1267 H 0.23683 0.22262 0.15412 0.0
H1268 H 0.33646 0.72929 0.6879 0.0
H1269 H 0.31295 0.72738 0.74804 0.0
H1270 H 0.30607 0.78215 0.73988 0.0
H1271 H 0.329 0.78403 0.67891 0.0
H1272 H 0.30709 0.74027 0.83818 0.0
H1273 H 0.25822 0.76694 0.71162 0.0
H1274 H 0.27927 0.76083 0.69064 0.0
H1275 H 0.27587 0.78138 0.71941 0.0
C1276 C 0.32998 0.74092 0.69917 0.0
C1277 C 0.33453 0.75679 0.67818 0.0
C1278 C 0.31649 0.73982 0.73349 0.0
C1279 C 0.3073 0.75456 0.74763 0.0
C1280 C 0.31245 0.77049 0.72845 0.0
H1281 H 0.23176 0.78326 0.96377 0.0
H1282 H 0.25389 0.78115 0.90013 0.0
C1283 C 0.32574 0.77157 0.69384 0.0
C1284 C 0.2924 0.75341 0.78241 0.0
H1285 H 0.25057 0.76579 0.7973 0.0
C1286 C 0.29469 0.74565 0.8289 0.0
C1287 C 0.27605 0.76031 0.7705 0.0
C1288 C 0.27214 0.76766 0.72013 0.0
C1289 C 0.2814 0.74524 0.8642 0.0
C1290 C 0.26534 0.75273 0.85285 0.0
C1291 C 0.2629 0.76013 0.80611 0.0
C1292 C 0.25125 0.7538 0.88996 0.0
C1293 C 0.28474 0.73731 0.91412 0.0
C1294 C 0.24205 0.73917 0.90477 0.0
C1295 C 0.22917 0.74037 0.94092 0.0
C1296 C 0.22534 0.75621 0.96325 0.0
C1297 C 0.23436 0.77085 0.94747 0.0
C1298 C 0.24705 0.76968 0.91107 0.0
H1299 H 0.29844 0.73384 0.91932 0.0
H1300 H 0.28088 0.74629 0.94392 0.0
H1301 H 0.2769 0.72552 0.91806 0.0
H1302 H 0.24496 0.7268 0.88867 0.0
H1303 H 0.22255 0.72883 0.95234 0.0
H1304 H 0.54954 0.94162 0.18679 0.0
H1305 H 0.55157 0.96423 0.12351 0.0
H1306 H 0.50128 0.98231 0.16347 0.0
H1307 H 0.49919 0.96 0.22635 0.0
H1308 H 0.53022 0.97167 0.04084 0.0
H1309 H 0.53054 0.02589 0.17294 0.0
H1310 H 0.53446 0.00404 0.19185 0.0
H1311 H 0.51291 0.01141 0.18156 0.0
C1312 C 0.53891 0.9504 0.18201 0.0
C1313 C 0.52424 0.94898 0.21198 0.0
C1314 C 0.54009 0.96334 0.14581 0.0
C1315 C 0.5267 0.97524 0.13916 0.0
C1316 C 0.51195 0.97359 0.16841 0.0
H1317 H 0.50174 0.0423 0.89293 0.0
H1318 H 0.50358 0.01966 0.95522 0.0
C1319 C 0.51074 0.96068 0.20429 0.0
C1320 C 0.52792 0.98931 0.10155 0.0
H1321 H 0.52587 0.03295 0.0882 0.0
C1322 C 0.5294 0.98506 0.05127 0.0
C1323 C 0.52706 0.00687 0.1149 0.0
C1324 C 0.52632 0.01239 0.16827 0.0
C1325 C 0.52945 0.99779 0.01415 0.0
C1326 C 0.52781 0.0153 0.02739 0.0
C1327 C 0.52694 0.01957 0.07777 0.0
C1328 C 0.52669 0.02932 0.98956 0.0
C1329 C 0.53135 0.99234 0.96097 0.0
C1330 C 0.53877 0.04271 0.98862 0.0
C1331 C 0.53772 0.0558 0.95292 0.0
C1332 C 0.52444 0.05591 0.91761 0.0
C1333 C 0.51219 0.04266 0.9193 0.0
C1334 C 0.51329 0.02957 0.95479 0.0
H1335 H 0.53719 0.97939 0.95792 0.0
H1336 H 0.5185 0.99187 0.94339 0.0
H1337 H 0.53937 1.00159 0.94004 0.0
H1338 H 0.54917 0.04293 0.01518 0.0
H1339 H 0.54736 0.06578 0.95284 0.0
H1340 H 0.05752 0.04932 0.72097 0.0
H1341 H 0.05607 0.02693 0.65814 0.0
H1342 H 1.0021 0.03686 0.6387 0.0
H1343 H 0.00368 0.05985 0.7004 0.0
H1344 H 0.03985 0.99788 0.65674 0.0
H1345 H 0.01594 0.0357 0.49753 0.0
H1346 H 0.02324 0.04568 0.55383 0.0
H1347 H 1.002 0.03676 0.55004 0.0
C1348 C 0.04536 0.04692 0.70291 0.0
C1349 C 0.03074 0.05652 0.7156 0.0
C1350 C 0.04453 0.03401 0.66695 0.0
C1351 C 0.02903 0.03019 0.64276 0.0
C1352 C 0.01435 0.03976 0.65549 0.0
H1353 H 0.00548 0.94556 0.43534 0.0
H1354 H 1.00311 0.96781 0.49953 0.0
C1355 C 0.01524 0.05288 0.6911 0.0
C1356 C 0.02831 0.01578 0.60591 0.0
H1357 H 0.01718 0.00551 0.48686 0.0
C1358 C 0.03488 0.99964 0.61964 0.0
C1359 C 0.02186 0.01787 0.55716 0.0
C1360 C 0.01552 0.03497 0.53852 0.0
C1361 C 0.03525 0.98575 0.58637 0.0
C1362 C 0.02882 0.98787 0.53789 0.0
C1363 C 0.02197 0.00384 0.5242 0.0
C1364 C 0.03014 0.97397 0.50009 0.0
C1365 C 0.04263 0.96884 0.60309 0.0
C1366 C 0.04608 0.96997 0.47913 0.0
C1367 C 0.04745 0.95741 0.44234 0.0
C1368 C 0.0329 0.94837 0.42576 0.0
C1369 C 0.01695 0.95216 0.44745 0.0
C1370 C 0.01557 0.96493 0.48397 0.0
H1371 H 0.04442 0.96833 0.6438 0.0
H1372 H 0.03415 0.95812 0.59164 0.0
H1373 H 0.05528 0.96688 0.58527 0.0
H1374 H 0.05749 0.9768 0.49072 0.0
H1375 H 0.05993 0.95489 0.4265 0.0
loop_
_geom_bond_atom_site_label_1
_geom_bond_atom_site_label_2
_geom_bond_distance
_geom_bond_site_symmetry_2
_ccdc_geom_bond_type
Co0 O1 2.216 . S
Co0 O2 2.091 . S
Co0 O4 2.004 . S
Co0 O10 2.021 . S
Co0 O12 2.137 . S
Co0 O13 2.244 . S
O1 Co0 2.216 . S
O1 C8 1.247 . S
O2 Co0 2.091 . S
O2 C8 1.261 . S
C3 O12 1.276 . S
C3 O13 1.290 . S
O4 Co0 2.004 . S
O4 C9 1.259 . S
Co5 O6 2.061 . S
Co5 O11 2.052 . S
Co5 O13 2.135 . S
O6 Co5 2.061 . S
O6 C9 1.235 . S
C7 O10 1.238 . S
C7 O11 1.241 . S
C8 O1 1.247 . S
C8 O2 1.261 . S
C9 O4 1.259 . S
C9 O6 1.235 . S
O10 Co0 2.021 . S
O10 C7 1.238 . S
O11 Co5 2.052 . S
O11 C7 1.241 . S
O12 Co0 2.137 . S
O12 C3 1.276 . S
O13 Co0 2.244 . S
O13 C3 1.290 . S
O13 Co5 2.135 . S
Co14 O15 2.216 . S
Co14 O16 2.091 . S
Co14 O18 2.004 . S
Co14 O24 2.021 . S
Co14 O26 2.137 . S
Co14 O27 2.244 . S
O15 Co14 2.216 . S
O15 C22 1.247 . S
O16 Co14 2.091 . S
O16 C22 1.261 . S
C17 O26 1.247 . S
C17 O27 1.272 . S
O18 Co14 2.004 . S
O18 C23 1.259 . S
Co19 O20 2.061 . S
Co19 O25 2.052 . S
Co19 O27 2.135 . S
O20 Co19 2.061 . S
O20 C23 1.235 . S
C21 O24 1.238 . S
C21 O25 1.241 . S
C22 O15 1.247 . S
C22 O16 1.261 . S
C23 O18 1.259 . S
C23 O20 1.235 . S
O24 Co14 2.021 . S
O24 C21 1.238 . S
O25 Co19 2.052 . S
O25 C21 1.241 . S
O26 Co14 2.137 . S
O26 C17 1.247 . S
O27 Co14 2.244 . S
O27 C17 1.272 . S
O27 Co19 2.135 . S
Co28 O29 2.216 . S
Co28 O30 2.091 . S
Co28 O32 2.004 . S
Co28 O38 2.021 . S
Co28 O40 2.137 . S
Co28 O41 2.244 . S
O29 Co28 2.216 . S
O29 C36 1.247 . S
O30 Co28 2.091 . S
O30 C36 1.261 . S
C31 O40 1.247 . S
C31 O41 1.272 . S
O32 Co28 2.004 . S
O32 C37 1.259 . S
Co33 O34 2.061 . S
Co33 O39 2.052 . S
Co33 O41 2.135 . S
O34 Co33 2.061 . S
O34 C37 1.235 . S
C35 O38 1.238 . S
C35 O39 1.241 . S
C36 O29 1.247 . S
C36 O30 1.261 . S
C37 O32 1.259 . S
C37 O34 1.235 . S
O38 Co28 2.021 . S
O38 C35 1.238 . S
O39 Co33 2.052 . S
O39 C35 1.241 . S
O40 Co28 2.137 . S
O40 C31 1.247 . S
O41 Co28 2.244 . S
O41 C31 1.272 . S
O41 Co33 2.135 . S
Co42 O43 2.216 . S
Co42 O44 2.091 . S
Co42 O46 2.004 . S
Co42 O52 2.021 1_554 S
Co42 O54 2.137 . S
Co42 O55 2.244 1_554 S
O43 Co42 2.216 . S
O43 C50 1.247 . S
O44 Co42 2.091 . S
O44 C50 1.261 . S
C45 O54 1.247 . S
C45 O55 1.272 1_554 S
O46 Co42 2.004 . S
O46 C51 1.259 1_554 S
Co47 O48 2.061 . S
Co47 O53 2.052 . S
Co47 O55 2.135 . S
O48 Co47 2.061 . S
O48 C51 1.235 . S
C49 O52 1.238 . S
C49 O53 1.241 . S
C50 O43 1.247 . S
C50 O44 1.261 . S
C51 O46 1.259 1_556 S
C51 O48 1.235 . S
O52 Co42 2.021 1_556 S
O52 C49 1.238 . S
O53 Co47 2.052 . S
O53 C49 1.241 . S
O54 Co42 2.137 . S
O54 C45 1.247 . S
O55 Co42 2.244 1_556 S
O55 C45 1.272 1_556 S
O55 Co47 2.135 . S
Co56 O57 2.216 . S
Co56 O58 2.091 . S
Co56 O60 2.004 . S
Co56 O66 2.021 . S
Co56 O68 2.137 . S
Co56 O69 2.244 . S
O57 Co56 2.216 . S
O57 C64 1.247 . S
O58 Co56 2.091 . S
O58 C64 1.261 . S
C59 O68 1.275 . S
C59 O69 1.289 . S
O60 Co56 2.004 . S
O60 C65 1.259 . S
Co61 O62 2.061 . S
Co61 O67 2.052 . S
Co61 O69 2.135 . S
O62 Co61 2.061 . S
O62 C65 1.235 . S
C63 O66 1.238 . S
C63 O67 1.241 . S
C64 O57 1.247 . S
C64 O58 1.261 . S
C65 O60 1.259 . S
C65 O62 1.235 . S
O66 Co56 2.021 . S
O66 C63 1.238 . S
O67 Co61 2.052 . S
O67 C63 1.241 . S
O68 Co56 2.137 . S
O68 C59 1.275 . S
O69 Co56 2.244 . S
O69 C59 1.289 . S
O69 Co61 2.135 . S
Co70 O71 2.216 . S
Co70 O72 2.091 . S
Co70 O74 2.004 . S
Co70 O80 2.021 . S
Co70 O82 2.137 . S
Co70 O83 2.244 . S
O71 Co70 2.216 . S
O71 C78 1.247 . S
O72 Co70 2.091 . S
O72 C78 1.261 . S
C73 O82 1.247 . S
C73 O83 1.272 . S
O74 Co70 2.004 . S
O74 C79 1.259 . S
Co75 O76 2.061 . S
Co75 O81 2.052 . S
Co75 O83 2.135 . S
O76 Co75 2.061 . S
O76 C79 1.235 . S
C77 O80 1.238 . S
C77 O81 1.241 . S
C78 O71 1.247 . S
C78 O72 1.261 . S
C79 O74 1.259 . S
C79 O76 1.235 . S
O80 Co70 2.021 . S
O80 C77 1.238 . S
O81 Co75 2.052 . S
O81 C77 1.241 . S
O82 Co70 2.137 . S
O82 C73 1.247 . S
O83 Co70 2.244 . S
O83 C73 1.272 . S
O83 Co75 2.135 . S
Co84 O85 2.216 . S
Co84 O86 2.091 . S
Co84 O88 2.004 . S
Co84 O94 2.021 . S
Co84 O96 2.137 . S
Co84 O97 2.244 . S
O85 Co84 2.216 . S
O85 C92 1.247 . S
O86 Co84 2.091 . S
O86 C92 1.261 . S
C87 O96 1.247 . S
C87 O97 1.272 . S
O88 Co84 2.004 . S
O88 C93 1.259 . S
Co89 O90 2.061 . S
Co89 O95 2.052 . S
Co89 O97 2.135 . S
O90 Co89 2.061 . S
O90 C93 1.235 . S
C91 O94 1.238 . S
C91 O95 1.241 . S
C92 O85 1.247 . S
C92 O86 1.261 . S
C93 O88 1.259 . S
C93 O90 1.235 . S
O94 Co84 2.021 . S
O94 C91 1.238 . S
O95 Co89 2.052 . S
O95 C91 1.241 . S
O96 Co84 2.137 . S
O96 C87 1.247 . S
O97 Co84 2.244 . S
O97 C87 1.272 . S
O97 Co89 2.135 . S
Co98 O99 2.216 . S
Co98 O100 2.091 . S
Co98 O102 2.004 . S
Co98 O108 2.021 . S
Co98 O110 2.137 . S
Co98 O111 2.244 . S
O99 Co98 2.216 . S
O99 C106 1.247 . S
O100 Co98 2.091 . S
O100 C106 1.261 . S
C101 O110 1.247 . S
C101 O111 1.272 . S
O102 Co98 2.004 . S
O102 C107 1.259 . S
Co103 O104 2.061 . S
Co103 O109 2.052 . S
Co103 O111 2.135 . S
O104 Co103 2.061 . S
O104 C107 1.235 . S
C105 O108 1.238 . S
C105 O109 1.241 . S
C106 O99 1.247 . S
C106 O100 1.261 . S
C107 O102 1.259 . S
C107 O104 1.235 . S
O108 Co98 2.021 . S
O108 C105 1.238 . S
O109 Co103 2.052 . S
O109 C105 1.241 . S
O110 Co98 2.137 . S
O110 C101 1.247 . S
O111 Co98 2.244 . S
O111 C101 1.272 . S
O111 Co103 2.135 . S
Co112 O113 2.216 . S
Co112 O114 2.091 . S
Co112 O116 2.004 . S
Co112 O122 2.021 . S
Co112 O124 2.137 . S
Co112 O125 2.244 . S
O113 Co112 2.216 . S
O113 C120 1.247 . S
O114 Co112 2.091 . S
O114 C120 1.261 . S
C115 O124 1.247 . S
C115 O125 1.272 . S
O116 Co112 2.004 . S
O116 C121 1.259 . S
Co117 O118 2.061 . S
Co117 O123 2.052 . S
Co117 O125 2.135 . S
O118 Co117 2.061 . S
O118 C121 1.235 . S
C119 O122 1.238 . S
C119 O123 1.241 . S
C120 O113 1.247 . S
C120 O114 1.261 . S
C121 O116 1.259 . S
C121 O118 1.235 . S
O122 Co112 2.021 . S
O122 C119 1.238 . S
O123 Co117 2.052 . S
O123 C119 1.241 . S
O124 Co112 2.137 . S
O124 C115 1.247 . S
O125 Co112 2.244 . S
O125 C115 1.272 . S
O125 Co117 2.135 . S
Co126 O127 2.216 . S
Co126 O128 2.091 . S
Co126 O130 2.004 . S
Co126 O136 2.021 . S
Co126 O138 2.137 . S
Co126 O139 2.244 . S
O127 Co126 2.216 . S
O127 C134 1.247 . S
O128 Co126 2.091 . S
O128 C134 1.261 . S
C129 O138 1.247 . S
C129 O139 1.272 . S
O130 Co126 2.004 . S
O130 C135 1.259 . S
Co131 O132 2.061 . S
Co131 O137 2.052 . S
Co131 O139 2.135 . S
O132 Co131 2.061 . S
O132 C135 1.235 . S
C133 O136 1.238 . S
C133 O137 1.241 . S
C134 O127 1.247 . S
C134 O128 1.261 . S
C135 O130 1.259 . S
C135 O132 1.235 . S
O136 Co126 2.021 . S
O136 C133 1.238 . S
O137 Co131 2.052 . S
O137 C133 1.241 . S
O138 Co126 2.137 . S
O138 C129 1.247 . S
O139 Co126 2.244 . S
O139 C129 1.272 . S
O139 Co131 2.135 . S
Co140 O141 2.216 . S
Co140 O142 2.091 . S
Co140 O144 2.004 . S
Co140 O150 2.021 1_554 S
Co140 O152 2.137 . S
Co140 O153 2.244 1_554 S
O141 Co140 2.216 . S
O141 C148 1.247 . S
O142 Co140 2.091 . S
O142 C148 1.261 . S
C143 O152 1.247 . S
C143 O153 1.272 1_554 S
O144 Co140 2.004 . S
O144 C149 1.259 1_554 S
Co145 O146 2.061 . S
Co145 O151 2.052 . S
Co145 O153 2.135 . S
O146 Co145 2.061 . S
O146 C149 1.235 . S
C147 O150 1.238 . S
C147 O151 1.241 . S
C148 O141 1.247 . S
C148 O142 1.261 . S
C149 O144 1.259 1_556 S
C149 O146 1.235 . S
O150 Co140 2.021 1_556 S
O150 C147 1.238 . S
O151 Co145 2.052 . S
O151 C147 1.241 . S
O152 Co140 2.137 . S
O152 C143 1.247 . S
O153 Co140 2.244 1_556 S
O153 C143 1.272 1_556 S
O153 Co145 2.135 . S
Co154 O155 2.216 . S
Co154 O156 2.091 . S
Co154 O158 2.004 . S
Co154 O164 2.021 . S
Co154 O166 2.137 . S
Co154 O167 2.244 . S
O155 Co154 2.216 . S
O155 C162 1.247 . S
O156 Co154 2.091 . S
O156 C162 1.261 . S
C157 O166 1.247 . S
C157 O167 1.272 . S
O158 Co154 2.004 . S
O158 C163 1.259 . S
Co159 O160 2.061 . S
Co159 O165 2.052 . S
Co159 O167 2.135 . S
O160 Co159 2.061 . S
O160 C163 1.235 . S
C161 O164 1.238 . S
C161 O165 1.241 . S
C162 O155 1.247 . S
C162 O156 1.261 . S
C163 O158 1.259 . S
C163 O160 1.235 . S
O164 Co154 2.021 . S
O164 C161 1.238 . S
O165 Co159 2.052 . S
O165 C161 1.241 . S
O166 Co154 2.137 . S
O166 C157 1.247 . S
O167 Co154 2.244 . S
O167 C157 1.272 . S
O167 Co159 2.135 . S
Co168 O169 2.216 . S
Co168 O170 2.091 . S
Co168 O172 2.004 . S
Co168 O178 2.021 . S
Co168 O180 2.137 . S
Co168 O181 2.244 . S
O169 Co168 2.216 . S
O169 C176 1.247 . S
O170 Co168 2.091 . S
O170 C176 1.261 . S
C171 O180 1.247 . S
C171 O181 1.272 . S
O172 Co168 2.004 . S
O172 C177 1.259 . S
Co173 O174 2.061 . S
Co173 O179 2.052 . S
Co173 O181 2.135 . S
O174 Co173 2.061 . S
O174 C177 1.235 . S
C175 O178 1.238 . S
C175 O179 1.241 . S
C176 O169 1.247 . S
C176 O170 1.261 . S
C177 O172 1.259 . S
C177 O174 1.235 . S
O178 Co168 2.021 . S
O178 C175 1.238 . S
O179 Co173 2.052 . S
O179 C175 1.241 . S
O180 Co168 2.137 . S
O180 C171 1.247 . S
O181 Co168 2.244 . S
O181 C171 1.272 . S
O181 Co173 2.135 . S
Co182 O183 2.216 . S
Co182 O184 2.091 . S
Co182 O186 2.004 . S
Co182 O192 2.021 . S
Co182 O194 2.137 . S
Co182 O195 2.244 . S
O183 Co182 2.216 . S
O183 C190 1.247 . S
O184 Co182 2.091 . S
O184 C190 1.261 . S
C185 O194 1.247 . S
C185 O195 1.272 . S
O186 Co182 2.004 . S
O186 C191 1.259 . S
Co187 O188 2.061 . S
Co187 O193 2.052 . S
Co187 O195 2.135 . S
O188 Co187 2.061 . S
O188 C191 1.235 . S
C189 O192 1.238 . S
C189 O193 1.241 . S
C190 O183 1.247 . S
C190 O184 1.261 . S
C191 O186 1.259 . S
C191 O188 1.235 . S
O192 Co182 2.021 . S
O192 C189 1.238 . S
O193 Co187 2.052 . S
O193 C189 1.241 . S
O194 Co182 2.137 . S
O194 C185 1.247 . S
O195 Co182 2.244 . S
O195 C185 1.272 . S
O195 Co187 2.135 . S
Co196 O197 2.216 . S
Co196 O198 2.091 . S
Co196 O200 2.004 . S
Co196 O206 2.021 . S
Co196 O208 2.137 . S
Co196 O209 2.244 . S
O197 Co196 2.216 . S
O197 C204 1.247 . S
O198 Co196 2.091 . S
O198 C204 1.261 . S
C199 O208 1.247 . S
C199 O209 1.272 . S
O200 Co196 2.004 . S
O200 C205 1.259 . S
Co201 O202 2.061 . S
Co201 O207 2.052 . S
Co201 O209 2.135 . S
O202 Co201 2.061 . S
O202 C205 1.235 . S
C203 O206 1.238 . S
C203 O207 1.241 . S
C204 O197 1.247 . S
C204 O198 1.261 . S
C205 O200 1.259 . S
C205 O202 1.235 . S
O206 Co196 2.021 . S
O206 C203 1.238 . S
O207 Co201 2.052 . S
O207 C203 1.241 . S
O208 Co196 2.137 . S
O208 C199 1.247 . S
O209 Co196 2.244 . S
O209 C199 1.272 . S
O209 Co201 2.135 . S
Co210 O211 2.216 . S
Co210 O212 2.091 . S
Co210 O214 2.004 . S
Co210 O220 2.021 . S
Co210 O222 2.137 . S
Co210 O223 2.244 . S
O211 Co210 2.216 . S
O211 C218 1.247 . S
O212 Co210 2.091 . S
O212 C218 1.261 . S
C213 O222 1.247 . S
C213 O223 1.272 . S
O214 Co210 2.004 . S
O214 C219 1.259 . S
Co215 O216 2.061 . S
Co215 O221 2.052 . S
Co215 O223 2.135 . S
O216 Co215 2.061 . S
O216 C219 1.235 . S
C217 O220 1.238 . S
C217 O221 1.241 . S
C218 O211 1.247 . S
C218 O212 1.261 . S
C219 O214 1.259 . S
C219 O216 1.235 . S
O220 Co210 2.021 . S
O220 C217 1.238 . S
O221 Co215 2.052 . S
O221 C217 1.241 . S
O222 Co210 2.137 . S
O222 C213 1.247 . S
O223 Co210 2.244 . S
O223 C213 1.272 . S
O223 Co215 2.135 . S
H224 C232 0.929 . S
H225 C234 0.930 . S
H226 C236 0.930 . S
H227 C239 0.929 . S
H228 C242 0.930 . S
H229 C244 0.960 . S
H230 C244 0.960 . S
H231 C244 0.960 . S
C232 H224 0.929 . S
C232 C233 1.377 . S
C232 C234 1.384 . S
C233 C232 1.377 . S
C233 C239 1.390 . S
C234 H225 0.930 . S
C234 C232 1.384 . S
C234 C235 1.372 . S
C235 C234 1.372 . S
C235 C236 1.400 . S
C235 C240 1.490 . S
C236 H226 0.930 . S
C236 C235 1.400 . S
C236 C239 1.386 . S
H237 C253 0.930 . S
H238 C254 0.931 . S
C239 H227 0.929 . S
C239 C233 1.390 . S
C239 C236 1.386 . S
C240 C235 1.490 . S
C240 C242 1.395 . S
C240 C243 1.403 . S
H241 C247 0.930 . S
C242 H228 0.930 . S
C242 C240 1.395 . S
C242 C245 1.403 . S
C243 C240 1.403 . S
C243 C244 1.524 . S
C243 C247 1.400 . S
C244 H229 0.960 . S
C244 H230 0.960 . S
C244 H231 0.960 . S
C244 C243 1.524 . S
C245 C242 1.403 . S
C245 C246 1.392 . S
C245 C249 1.495 . S
C246 C245 1.392 . S
C246 C247 1.385 . S
C246 C248 1.478 . S
C247 H241 0.930 . S
C247 C243 1.400 . S
C247 C246 1.385 . S
C248 C246 1.478 . S
C248 C250 1.381 . S
C248 C254 1.383 . S
C249 C245 1.495 . S
C249 H255 0.959 . S
C249 H256 0.961 . S
C249 H257 0.960 . S
C250 C248 1.381 . S
C250 C251 1.394 . S
C250 H258 0.930 . S
C251 C250 1.394 . S
C251 C252 1.383 . S
C251 H259 0.929 . S
C252 C251 1.383 . S
C252 C253 1.377 . S
C253 H237 0.930 . S
C253 C252 1.377 . S
C253 C254 1.379 . S
C254 H238 0.931 . S
C254 C248 1.383 . S
C254 C253 1.379 . S
H255 C249 0.959 . S
H256 C249 0.961 . S
H257 C249 0.960 . S
H258 C250 0.930 . S
H259 C251 0.929 . S
H260 C268 0.929 . S
H261 C270 0.930 . S
H262 C272 0.930 . S
H263 C275 0.929 . S
H264 C278 0.930 . S
H265 C280 0.960 . S
H266 C280 0.960 . S
H267 C280 0.960 . S
C268 H260 0.929 . S
C268 C269 1.377 . S
C268 C270 1.384 . S
C269 C268 1.377 . S
C269 C275 1.390 . S
C270 H261 0.930 . S
C270 C268 1.384 . S
C270 C271 1.372 . S
C271 C270 1.372 . S
C271 C272 1.400 . S
C271 C276 1.490 . S
C272 H262 0.930 . S
C272 C271 1.400 . S
C272 C275 1.386 . S
H273 C289 0.930 . S
H274 C290 0.931 . S
C275 H263 0.929 . S
C275 C269 1.390 . S
C275 C272 1.386 . S
C276 C271 1.490 . S
C276 C278 1.395 . S
C276 C279 1.403 . S
H277 C283 0.930 . S
C278 H264 0.930 . S
C278 C276 1.395 . S
C278 C281 1.403 . S
C279 C276 1.403 . S
C279 C280 1.524 . S
C279 C283 1.400 . S
C280 H265 0.960 . S
C280 H266 0.960 . S
C280 H267 0.960 . S
C280 C279 1.524 . S
C281 C278 1.403 . S
C281 C282 1.392 . S
C281 C285 1.495 . S
C282 C281 1.392 . S
C282 C283 1.385 . S
C282 C284 1.478 . S
C283 H277 0.930 . S
C283 C279 1.400 . S
C283 C282 1.385 . S
C284 C282 1.478 . S
C284 C286 1.381 . S
C284 C290 1.383 . S
C285 C281 1.495 . S
C285 H291 0.959 . S
C285 H292 0.961 . S
C285 H293 0.960 . S
C286 C284 1.381 . S
C286 C287 1.394 . S
C286 H294 0.930 . S
C287 C286 1.394 . S
C287 C288 1.383 . S
C287 H295 0.929 . S
C288 C287 1.383 . S
C288 C289 1.377 . S
C289 H273 0.930 . S
C289 C288 1.377 . S
C289 C290 1.379 . S
C290 H274 0.931 . S
C290 C284 1.383 . S
C290 C289 1.379 . S
H291 C285 0.959 . S
H292 C285 0.961 . S
H293 C285 0.960 . S
H294 C286 0.930 . S
H295 C287 0.929 . S
H296 C304 0.929 . S
H297 C306 0.930 . S
H298 C308 0.930 . S
H299 C311 0.929 . S
H300 C314 0.930 . S
H301 C316 0.960 . S
H302 C316 0.960 . S
H303 C316 0.960 . S
C304 H296 0.929 . S
C304 C305 1.377 . S
C304 C306 1.384 . S
C305 C304 1.377 . S
C305 C311 1.390 . S
C306 H297 0.930 . S
C306 C304 1.384 . S
C306 C307 1.372 . S
C307 C306 1.372 . S
C307 C308 1.400 . S
C307 C312 1.490 . S
C308 H298 0.930 . S
C308 C307 1.400 . S
C308 C311 1.386 . S
H309 C325 0.930 . S
H310 C326 0.931 . S
C311 H299 0.929 . S
C311 C305 1.390 . S
C311 C308 1.386 . S
C312 C307 1.490 . S
C312 C314 1.395 . S
C312 C315 1.403 . S
H313 C319 0.930 . S
C314 H300 0.930 . S
C314 C312 1.395 . S
C314 C317 1.403 . S
C315 C312 1.403 . S
C315 C316 1.524 . S
C315 C319 1.400 . S
C316 H301 0.960 . S
C316 H302 0.960 . S
C316 H303 0.960 . S
C316 C315 1.524 . S
C317 C314 1.403 . S
C317 C318 1.392 . S
C317 C321 1.495 . S
C318 C317 1.392 . S
C318 C319 1.385 . S
C318 C320 1.478 . S
C319 H313 0.930 . S
C319 C315 1.400 . S
C319 C318 1.385 . S
C320 C318 1.478 . S
C320 C322 1.381 . S
C320 C326 1.383 . S
C321 C317 1.495 . S
C321 H327 0.959 . S
C321 H328 0.961 . S
C321 H329 0.960 . S
C322 C320 1.381 . S
C322 C323 1.394 . S
C322 H330 0.930 . S
C323 C322 1.394 . S
C323 C324 1.383 . S
C323 H331 0.929 . S
C324 C323 1.383 . S
C324 C325 1.377 . S
C325 H309 0.930 . S
C325 C324 1.377 . S
C325 C326 1.379 . S
C326 H310 0.931 . S
C326 C320 1.383 . S
C326 C325 1.379 . S
H327 C321 0.959 . S
H328 C321 0.961 . S
H329 C321 0.960 . S
H330 C322 0.930 . S
H331 C323 0.929 . S
H332 C340 0.929 1_554 S
H333 C342 0.930 1_554 S
H334 C344 0.930 . S
H335 C347 0.929 . S
H336 C350 0.930 . S
H337 C352 0.960 . S
H338 C352 0.960 1_554 S
H339 C352 0.960 . S
C340 H332 0.929 1_556 S
C340 C341 1.377 . S
C340 C342 1.384 . S
C341 C340 1.377 . S
C341 C347 1.390 . S
C342 H333 0.930 1_556 S
C342 C340 1.384 . S
C342 C343 1.372 . S
C343 C342 1.372 . S
C343 C344 1.400 . S
C343 C348 1.490 . S
C344 H334 0.930 . S
C344 C343 1.400 . S
C344 C347 1.386 . S
H345 C361 0.930 . S
H346 C362 0.931 . S
C347 H335 0.929 . S
C347 C341 1.390 . S
C347 C344 1.386 . S
C348 C343 1.490 . S
C348 C350 1.395 . S
C348 C351 1.403 . S
H349 C355 0.930 . S
C350 H336 0.930 . S
C350 C348 1.395 . S
C350 C353 1.403 . S
C351 C348 1.403 . S
C351 C352 1.524 . S
C351 C355 1.400 . S
C352 H337 0.960 . S
C352 H338 0.960 1_556 S
C352 H339 0.960 . S
C352 C351 1.524 . S
C353 C350 1.403 . S
C353 C354 1.392 . S
C353 C357 1.495 . S
C354 C353 1.392 . S
C354 C355 1.385 . S
C354 C356 1.478 . S
C355 H349 0.930 . S
C355 C351 1.400 . S
C355 C354 1.385 . S
C356 C354 1.478 . S
C356 C358 1.381 . S
C356 C362 1.383 . S
C357 C353 1.495 . S
C357 H363 0.959 . S
C357 H364 0.961 . S
C357 H365 0.960 . S
C358 C356 1.381 . S
C358 C359 1.394 . S
C358 H366 0.930 . S
C359 C358 1.394 . S
C359 C360 1.383 . S
C359 H367 0.929 . S
C360 C359 1.383 . S
C360 C361 1.377 . S
C361 H345 0.930 . S
C361 C360 1.377 . S
C361 C362 1.379 . S
C362 H346 0.931 . S
C362 C356 1.383 . S
C362 C361 1.379 . S
H363 C357 0.959 . S
H364 C357 0.961 . S
H365 C357 0.960 . S
H366 C358 0.930 . S
H367 C359 0.929 . S
H368 C376 0.929 . S
H369 C378 0.930 . S
H370 C380 0.930 . S
H371 C383 0.929 . S
H372 C386 0.930 . S
H373 C388 0.960 . S
H374 C388 0.960 . S
H375 C388 0.960 . S
C376 H368 0.929 . S
C376 C377 1.377 . S
C376 C378 1.384 . S
C377 C376 1.377 . S
C377 C383 1.390 . S
C378 H369 0.930 . S
C378 C376 1.384 . S
C378 C379 1.372 . S
C379 C378 1.372 . S
C379 C380 1.400 . S
C379 C384 1.490 . S
C380 H370 0.930 . S
C380 C379 1.400 . S
C380 C383 1.386 . S
H381 C397 0.930 . S
H382 C398 0.931 . S
C383 H371 0.929 . S
C383 C377 1.390 . S
C383 C380 1.386 . S
C384 C379 1.490 . S
C384 C386 1.395 . S
C384 C387 1.403 . S
H385 C391 0.930 . S
C386 H372 0.930 . S
C386 C384 1.395 . S
C386 C389 1.403 . S
C387 C384 1.403 . S
C387 C388 1.524 . S
C387 C391 1.400 . S
C388 H373 0.960 . S
C388 H374 0.960 . S
C388 H375 0.960 . S
C388 C387 1.524 . S
C389 C386 1.403 . S
C389 C390 1.392 . S
C389 C393 1.495 . S
C390 C389 1.392 . S
C390 C391 1.385 . S
C390 C392 1.478 . S
C391 H385 0.930 . S
C391 C387 1.400 . S
C391 C390 1.385 . S
C392 C390 1.478 . S
C392 C394 1.381 1_556 S
C392 C398 1.383 . S
C393 C389 1.495 . S
C393 H399 0.959 . S
C393 H400 0.961 . S
C393 H401 0.960 . S
C394 C392 1.381 1_554 S
C394 C395 1.394 . S
C394 H402 0.930 . S
C395 C394 1.394 . S
C395 C396 1.383 1_554 S
C395 H403 0.929 . S
C396 C395 1.383 1_556 S
C396 C397 1.377 . S
C397 H381 0.930 . S
C397 C396 1.377 . S
C397 C398 1.379 . S
C398 H382 0.931 . S
C398 C392 1.383 . S
C398 C397 1.379 . S
H399 C393 0.959 . S
H400 C393 0.961 . S
H401 C393 0.960 . S
H402 C394 0.930 . S
H403 C395 0.929 . S
H404 C412 0.929 . S
H405 C414 0.930 . S
H406 C416 0.930 . S
H407 C419 0.929 . S
H408 C422 0.930 . S
H409 C424 0.960 . S
H410 C424 0.960 . S
H411 C424 0.960 . S
C412 H404 0.929 . S
C412 C413 1.377 . S
C412 C414 1.384 . S
C413 C412 1.377 . S
C413 C419 1.390 . S
C414 H405 0.930 . S
C414 C412 1.384 . S
C414 C415 1.372 . S
C415 C414 1.372 . S
C415 C416 1.400 . S
C415 C420 1.490 . S
C416 H406 0.930 . S
C416 C415 1.400 . S
C416 C419 1.386 . S
H417 C433 0.930 . S
H418 C434 0.931 . S
C419 H407 0.929 . S
C419 C413 1.390 . S
C419 C416 1.386 . S
C420 C415 1.490 . S
C420 C422 1.395 . S
C420 C423 1.403 . S
H421 C427 0.930 . S
C422 H408 0.930 . S
C422 C420 1.395 . S
C422 C425 1.403 . S
C423 C420 1.403 . S
C423 C424 1.524 . S
C423 C427 1.400 . S
C424 H409 0.960 . S
C424 H410 0.960 . S
C424 H411 0.960 . S
C424 C423 1.524 . S
C425 C422 1.403 . S
C425 C426 1.392 . S
C425 C429 1.495 . S
C426 C425 1.392 . S
C426 C427 1.385 . S
C426 C428 1.478 . S
C427 H421 0.930 . S
C427 C423 1.400 . S
C427 C426 1.385 . S
C428 C426 1.478 . S
C428 C430 1.381 . S
C428 C434 1.383 . S
C429 C425 1.495 . S
C429 H435 0.959 . S
C429 H436 0.961 . S
C429 H437 0.960 . S
C430 C428 1.381 . S
C430 C431 1.394 . S
C430 H438 0.930 . S
C431 C430 1.394 . S
C431 C432 1.383 . S
C431 H439 0.929 . S
C432 C431 1.383 . S
C432 C433 1.377 . S
C433 H417 0.930 . S
C433 C432 1.377 . S
C433 C434 1.379 . S
C434 H418 0.931 . S
C434 C428 1.383 . S
C434 C433 1.379 . S
H435 C429 0.959 . S
H436 C429 0.961 . S
H437 C429 0.960 . S
H438 C430 0.930 . S
H439 C431 0.929 . S
H440 C448 0.929 . S
H441 C450 0.930 . S
H442 C452 0.930 . S
H443 C455 0.929 . S
H444 C458 0.930 . S
H445 C460 0.960 . S
H446 C460 0.960 . S
H447 C460 0.960 . S
C448 H440 0.929 . S
C448 C449 1.377 . S
C448 C450 1.384 . S
C449 C448 1.377 . S
C449 C455 1.390 . S
C450 H441 0.930 . S
C450 C448 1.384 . S
C450 C451 1.372 . S
C451 C450 1.372 . S
C451 C452 1.400 . S
C451 C456 1.490 . S
C452 H442 0.930 . S
C452 C451 1.400 . S
C452 C455 1.386 . S
H453 C469 0.930 . S
H454 C470 0.931 . S
C455 H443 0.929 . S
C455 C449 1.390 . S
C455 C452 1.386 . S
C456 C451 1.490 . S
C456 C458 1.395 . S
C456 C459 1.403 . S
H457 C463 0.930 . S
C458 H444 0.930 . S
C458 C456 1.395 . S
C458 C461 1.403 . S
C459 C456 1.403 . S
C459 C460 1.524 . S
C459 C463 1.400 . S
C460 H445 0.960 . S
C460 H446 0.960 . S
C460 H447 0.960 . S
C460 C459 1.524 . S
C461 C458 1.403 . S
C461 C462 1.392 . S
C461 C465 1.495 . S
C462 C461 1.392 . S
C462 C463 1.385 . S
C462 C464 1.478 . S
C463 H457 0.930 . S
C463 C459 1.400 . S
C463 C462 1.385 . S
C464 C462 1.478 . S
C464 C466 1.381 . S
C464 C470 1.383 . S
C465 C461 1.495 . S
C465 H471 0.959 . S
C465 H472 0.961 . S
C465 H473 0.960 . S
C466 C464 1.381 . S
C466 C467 1.394 . S
C466 H474 0.930 . S
C467 C466 1.394 . S
C467 C468 1.383 . S
C467 H475 0.929 . S
C468 C467 1.383 . S
C468 C469 1.377 . S
C469 H453 0.930 . S
C469 C468 1.377 . S
C469 C470 1.379 . S
C470 H454 0.931 . S
C470 C464 1.383 . S
C470 C469 1.379 . S
H471 C465 0.959 . S
H472 C465 0.961 . S
H473 C465 0.960 . S
H474 C466 0.930 . S
H475 C467 0.929 . S
H476 C484 0.929 . S
H477 C486 0.930 . S
H478 C488 0.930 . S
H479 C491 0.929 . S
H480 C494 0.930 . S
H481 C496 0.960 . S
H482 C496 0.960 . S
H483 C496 0.960 . S
C484 H476 0.929 . S
C484 C485 1.377 . S
C484 C486 1.384 . S
C485 C484 1.377 . S
C485 C491 1.390 . S
C486 H477 0.930 . S
C486 C484 1.384 . S
C486 C487 1.372 . S
C487 C486 1.372 . S
C487 C488 1.400 . S
C487 C492 1.490 . S
C488 H478 0.930 . S
C488 C487 1.400 . S
C488 C491 1.386 . S
H489 C505 0.930 . S
H490 C506 0.931 . S
C491 H479 0.929 . S
C491 C485 1.390 . S
C491 C488 1.386 . S
C492 C487 1.490 . S
C492 C494 1.395 . S
C492 C495 1.403 . S
H493 C499 0.930 . S
C494 H480 0.930 . S
C494 C492 1.395 . S
C494 C497 1.403 . S
C495 C492 1.403 . S
C495 C496 1.524 . S
C495 C499 1.400 . S
C496 H481 0.960 . S
C496 H482 0.960 . S
C496 H483 0.960 . S
C496 C495 1.524 . S
C497 C494 1.403 . S
C497 C498 1.392 . S
C497 C501 1.495 . S
C498 C497 1.392 . S
C498 C499 1.385 . S
C498 C500 1.478 . S
C499 H493 0.930 . S
C499 C495 1.400 . S
C499 C498 1.385 . S
C500 C498 1.478 . S
C500 C502 1.381 . S
C500 C506 1.383 . S
C501 C497 1.495 . S
C501 H507 0.959 . S
C501 H508 0.961 . S
C501 H509 0.960 . S
C502 C500 1.381 . S
C502 C503 1.394 . S
C502 H510 0.930 . S
C503 C502 1.394 . S
C503 C504 1.383 . S
C503 H511 0.929 . S
C504 C503 1.383 . S
C504 C505 1.377 . S
C505 H489 0.930 . S
C505 C504 1.377 . S
C505 C506 1.379 . S
C506 H490 0.931 . S
C506 C500 1.383 . S
C506 C505 1.379 . S
H507 C501 0.959 . S
H508 C501 0.961 . S
H509 C501 0.960 . S
H510 C502 0.930 . S
H511 C503 0.929 . S
H512 C520 0.929 . S
H513 C522 0.930 . S
H514 C524 0.930 . S
H515 C527 0.929 1_455 S
H516 C530 0.930 . S
H517 C532 0.960 1_554 S
H518 C532 0.960 1_554 S
H519 C532 0.960 . S
C520 H512 0.929 . S
C520 C521 1.377 . S
C520 C522 1.384 . S
C521 C520 1.377 . S
C521 C527 1.390 . S
C522 H513 0.930 . S
C522 C520 1.384 . S
C522 C523 1.372 . S
C523 C522 1.372 . S
C523 C524 1.400 . S
C523 C528 1.490 . S
C524 H514 0.930 . S
C524 C523 1.400 . S
C524 C527 1.386 . S
H525 C541 0.930 . S
H526 C542 0.931 . S
C527 H515 0.929 1_655 S
C527 C521 1.390 . S
C527 C524 1.386 . S
C528 C523 1.490 . S
C528 C530 1.395 . S
C528 C531 1.403 . S
H529 C535 0.916 1_554 S
C530 H516 0.930 . S
C530 C528 1.395 . S
C530 C533 1.403 . S
C531 C528 1.403 . S
C531 C532 1.524 . S
C531 C535 1.400 . S
C532 H517 0.960 1_556 S
C532 H518 0.960 1_556 S
C532 H519 0.960 . S
C532 C531 1.524 . S
C533 C530 1.403 . S
C533 C534 1.392 . S
C533 C537 1.495 . S
C534 C533 1.392 . S
C534 C535 1.385 . S
C534 C536 1.478 . S
C535 H529 0.916 1_556 S
C535 C531 1.400 . S
C535 C534 1.385 . S
C536 C534 1.478 . S
C536 C538 1.381 . S
C536 C542 1.383 . S
C537 C533 1.495 . S
C537 H543 0.959 . S
C537 H544 0.961 . S
C537 H545 0.960 . S
C538 C536 1.381 . S
C538 C539 1.394 1_556 S
C538 H546 0.930 . S
C539 C538 1.394 1_554 S
C539 C540 1.383 . S
C539 H547 0.929 . S
C540 C539 1.383 . S
C540 C541 1.377 1_554 S
C541 H525 0.930 . S
C541 C540 1.377 1_556 S
C541 C542 1.379 . S
C542 H526 0.931 . S
C542 C536 1.383 . S
C542 C541 1.379 . S
H543 C537 0.959 . S
H544 C537 0.961 . S
H545 C537 0.960 . S
H546 C538 0.930 . S
H547 C539 0.929 . S
H548 C556 0.929 . S
H549 C558 0.930 . S
H550 C560 0.930 . S
H551 C563 0.929 . S
H552 C566 0.930 . S
H553 C568 0.960 . S
H554 C568 0.960 . S
H555 C568 0.960 . S
C556 H548 0.929 . S
C556 C557 1.377 . S
C556 C558 1.384 . S
C557 C556 1.377 . S
C557 C563 1.390 . S
C558 H549 0.930 . S
C558 C556 1.384 . S
C558 C559 1.372 . S
C559 C558 1.372 . S
C559 C560 1.400 . S
C559 C564 1.490 . S
C560 H550 0.930 . S
C560 C559 1.400 . S
C560 C563 1.386 . S
H561 C577 0.930 . S
H562 C578 0.931 . S
C563 H551 0.929 . S
C563 C557 1.390 . S
C563 C560 1.386 . S
C564 C559 1.490 . S
C564 C566 1.395 . S
C564 C567 1.403 . S
H565 C571 0.930 . S
C566 H552 0.930 . S
C566 C564 1.395 . S
C566 C569 1.403 . S
C567 C564 1.403 . S
C567 C568 1.524 . S
C567 C571 1.400 . S
C568 H553 0.960 . S
C568 H554 0.960 . S
C568 H555 0.960 . S
C568 C567 1.524 . S
C569 C566 1.403 . S
C569 C570 1.392 . S
C569 C573 1.495 . S
C570 C569 1.392 . S
C570 C571 1.385 . S
C570 C572 1.478 . S
C571 H565 0.930 . S
C571 C567 1.400 . S
C571 C570 1.385 . S
C572 C570 1.478 . S
C572 C574 1.381 . S
C572 C578 1.383 . S
C573 C569 1.495 . S
C573 H579 0.959 . S
C573 H580 0.961 . S
C573 H581 0.960 . S
C574 C572 1.381 . S
C574 C575 1.394 . S
C574 H582 0.930 . S
C575 C574 1.394 . S
C575 C576 1.383 . S
C575 H583 0.929 . S
C576 C575 1.383 . S
C576 C577 1.377 . S
C577 H561 0.930 . S
C577 C576 1.377 . S
C577 C578 1.379 . S
C578 H562 0.931 . S
C578 C572 1.383 . S
C578 C577 1.379 . S
H579 C573 0.959 . S
H580 C573 0.961 . S
H581 C573 0.960 . S
H582 C574 0.930 . S
H583 C575 0.929 . S
H584 C592 0.929 . S
H585 C594 0.930 . S
H586 C596 0.930 . S
H587 C599 0.929 . S
H588 C602 0.930 . S
H589 C604 0.960 . S
H590 C604 0.960 . S
H591 C604 0.960 . S
C592 H584 0.929 . S
C592 C593 1.377 . S
C592 C594 1.384 . S
C593 C592 1.377 . S
C593 C599 1.390 . S
C594 H585 0.930 . S
C594 C592 1.384 . S
C594 C595 1.372 . S
C595 C594 1.372 . S
C595 C596 1.400 . S
C595 C600 1.490 . S
C596 H586 0.930 . S
C596 C595 1.400 . S
C596 C599 1.386 . S
H597 C613 0.930 . S
H598 C614 0.931 . S
C599 H587 0.929 . S
C599 C593 1.390 . S
C599 C596 1.386 . S
C600 C595 1.490 . S
C600 C602 1.395 . S
C600 C603 1.403 . S
H601 C607 0.930 . S
C602 H588 0.930 . S
C602 C600 1.395 . S
C602 C605 1.403 . S
C603 C600 1.403 . S
C603 C604 1.524 . S
C603 C607 1.400 . S
C604 H589 0.960 . S
C604 H590 0.960 . S
C604 H591 0.960 . S
C604 C603 1.524 . S
C605 C602 1.403 . S
C605 C606 1.392 . S
C605 C609 1.495 . S
C606 C605 1.392 . S
C606 C607 1.385 . S
C606 C608 1.478 . S
C607 H601 0.930 . S
C607 C603 1.400 . S
C607 C606 1.385 . S
C608 C606 1.478 . S
C608 C610 1.381 . S
C608 C614 1.383 . S
C609 C605 1.495 . S
C609 H615 0.959 . S
C609 H616 0.961 . S
C609 H617 0.960 . S
C610 C608 1.381 . S
C610 C611 1.394 . S
C610 H618 0.930 . S
C611 C610 1.394 . S
C611 C612 1.383 . S
C611 H619 0.929 . S
C612 C611 1.383 . S
C612 C613 1.377 . S
C613 H597 0.930 . S
C613 C612 1.377 . S
C613 C614 1.379 . S
C614 H598 0.931 . S
C614 C608 1.383 . S
C614 C613 1.379 . S
H615 C609 0.959 . S
H616 C609 0.961 . S
H617 C609 0.960 . S
H618 C610 0.930 . S
H619 C611 0.929 . S
H620 C628 0.929 . S
H621 C630 0.930 . S
H622 C632 0.930 . S
H623 C635 0.929 . S
H624 C638 0.930 . S
H625 C640 0.960 . S
H626 C640 0.960 . S
H627 C640 0.960 . S
C628 H620 0.929 . S
C628 C629 1.377 . S
C628 C630 1.384 . S
C629 C628 1.377 . S
C629 C635 1.390 . S
C630 H621 0.930 . S
C630 C628 1.384 . S
C630 C631 1.372 . S
C631 C630 1.372 . S
C631 C632 1.400 . S
C631 C636 1.490 . S
C632 H622 0.930 . S
C632 C631 1.400 . S
C632 C635 1.386 . S
H633 C649 0.930 . S
H634 C650 0.931 . S
C635 H623 0.929 . S
C635 C629 1.390 . S
C635 C632 1.386 . S
C636 C631 1.490 . S
C636 C638 1.395 . S
C636 C639 1.403 . S
H637 C643 0.930 . S
C638 H624 0.930 . S
C638 C636 1.395 . S
C638 C641 1.403 . S
C639 C636 1.403 . S
C639 C640 1.524 . S
C639 C643 1.400 . S
C640 H625 0.960 . S
C640 H626 0.960 . S
C640 H627 0.960 . S
C640 C639 1.524 . S
C641 C638 1.403 . S
C641 C642 1.392 . S
C641 C645 1.495 . S
C642 C641 1.392 . S
C642 C643 1.385 . S
C642 C644 1.478 . S
C643 H637 0.930 . S
C643 C639 1.400 . S
C643 C642 1.385 . S
C644 C642 1.478 . S
C644 C646 1.381 . S
C644 C650 1.383 . S
C645 C641 1.495 . S
C645 H651 0.959 . S
C645 H652 0.961 . S
C645 H653 0.960 . S
C646 C644 1.381 . S
C646 C647 1.394 . S
C646 H654 0.930 . S
C647 C646 1.394 . S
C647 C648 1.383 . S
C647 H655 0.929 . S
C648 C647 1.383 . S
C648 C649 1.377 . S
C649 H633 0.930 . S
C649 C648 1.377 . S
C649 C650 1.379 . S
C650 H634 0.931 . S
C650 C644 1.383 . S
C650 C649 1.379 . S
H651 C645 0.959 . S
H652 C645 0.961 . S
H653 C645 0.960 . S
H654 C646 0.930 . S
H655 C647 0.929 . S
H656 C664 0.929 . S
H657 C666 0.930 . S
H658 C668 0.930 . S
H659 C671 0.929 . S
H660 C674 0.930 . S
H661 C676 0.960 . S
H662 C676 0.960 . S
H663 C676 0.960 . S
C664 H656 0.929 . S
C664 C665 1.377 . S
C664 C666 1.384 . S
C665 C664 1.377 . S
C665 C671 1.390 . S
C666 H657 0.930 . S
C666 C664 1.384 . S
C666 C667 1.372 . S
C667 C666 1.372 . S
C667 C668 1.400 . S
C667 C672 1.490 . S
C668 H658 0.930 . S
C668 C667 1.400 . S
C668 C671 1.386 . S
H669 C685 0.930 . S
H670 C686 0.931 . S
C671 H659 0.929 . S
C671 C665 1.390 . S
C671 C668 1.386 . S
C672 C667 1.490 . S
C672 C674 1.395 . S
C672 C675 1.403 . S
H673 C679 0.930 . S
C674 H660 0.930 . S
C674 C672 1.395 . S
C674 C677 1.403 . S
C675 C672 1.403 . S
C675 C676 1.524 . S
C675 C679 1.400 . S
C676 H661 0.960 . S
C676 H662 0.960 . S
C676 H663 0.960 . S
C676 C675 1.524 . S
C677 C674 1.403 . S
C677 C678 1.392 . S
C677 C681 1.495 . S
C678 C677 1.392 . S
C678 C679 1.385 . S
C678 C680 1.478 . S
C679 H673 0.930 . S
C679 C675 1.400 . S
C679 C678 1.385 . S
C680 C678 1.478 . S
C680 C682 1.381 . S
C680 C686 1.383 . S
C681 C677 1.495 . S
C681 H687 0.959 . S
C681 H688 0.961 . S
C681 H689 0.960 . S
C682 C680 1.381 . S
C682 C683 1.394 . S
C682 H690 0.930 . S
C683 C682 1.394 . S
C683 C684 1.383 . S
C683 H691 0.929 . S
C684 C683 1.383 . S
C684 C685 1.377 . S
C685 H669 0.930 . S
C685 C684 1.377 . S
C685 C686 1.379 . S
C686 H670 0.931 . S
C686 C680 1.383 . S
C686 C685 1.379 . S
H687 C681 0.959 . S
H688 C681 0.961 . S
H689 C681 0.960 . S
H690 C682 0.930 . S
H691 C683 0.929 . S
H692 C700 0.929 . S
H693 C702 0.930 . S
H694 C704 0.930 . S
H695 C707 0.929 . S
H696 C710 0.930 . S
H697 C712 0.960 . S
H698 C712 0.960 . S
H699 C712 0.960 . S
C700 H692 0.929 . S
C700 C701 1.377 . S
C700 C702 1.384 . S
C701 C700 1.377 . S
C701 C707 1.390 . S
C702 H693 0.930 . S
C702 C700 1.384 . S
C702 C703 1.372 . S
C703 C702 1.372 . S
C703 C704 1.400 . S
C703 C708 1.490 . S
C704 H694 0.930 . S
C704 C703 1.400 . S
C704 C707 1.386 . S
H705 C721 0.930 . S
H706 C722 0.931 . S
C707 H695 0.929 . S
C707 C701 1.390 . S
C707 C704 1.386 . S
C708 C703 1.490 . S
C708 C710 1.395 . S
C708 C711 1.403 . S
H709 C715 0.930 . S
C710 H696 0.930 . S
C710 C708 1.395 . S
C710 C713 1.403 . S
C711 C708 1.403 . S
C711 C712 1.524 . S
C711 C715 1.400 . S
C712 H697 0.960 . S
C712 H698 0.960 . S
C712 H699 0.960 . S
C712 C711 1.524 . S
C713 C710 1.403 . S
C713 C714 1.392 . S
C713 C717 1.495 . S
C714 C713 1.392 . S
C714 C715 1.385 . S
C714 C716 1.478 . S
C715 H709 0.930 . S
C715 C711 1.400 . S
C715 C714 1.385 . S
C716 C714 1.478 . S
C716 C718 1.381 . S
C716 C722 1.383 1_556 S
C717 C713 1.495 . S
C717 H723 0.959 . S
C717 H724 0.961 . S
C717 H725 0.960 . S
C718 C716 1.381 . S
C718 C719 1.394 . S
C718 H726 0.930 . S
C719 C718 1.394 . S
C719 C720 1.383 1_556 S
C719 H727 0.929 . S
C720 C719 1.383 1_554 S
C720 C721 1.377 . S
C721 H705 0.930 . S
C721 C720 1.377 . S
C721 C722 1.379 . S
C722 H706 0.931 . S
C722 C716 1.383 1_554 S
C722 C721 1.379 . S
H723 C717 0.959 . S
H724 C717 0.961 . S
H725 C717 0.960 . S
H726 C718 0.930 . S
H727 C719 0.929 . S
H728 C736 0.929 . S
H729 C738 0.930 . S
H730 C740 0.930 . S
H731 C743 0.929 . S
H732 C746 0.930 . S
H733 C748 0.960 . S
H734 C748 0.960 . S
H735 C748 0.960 . S
C736 H728 0.929 . S
C736 C737 1.377 . S
C736 C738 1.384 . S
C737 C736 1.377 . S
C737 C743 1.390 . S
C738 H729 0.930 . S
C738 C736 1.384 . S
C738 C739 1.372 . S
C739 C738 1.372 . S
C739 C740 1.400 . S
C739 C744 1.490 . S
C740 H730 0.930 . S
C740 C739 1.400 . S
C740 C743 1.386 . S
H741 C757 0.930 . S
H742 C758 0.931 . S
C743 H731 0.929 . S
C743 C737 1.390 . S
C743 C740 1.386 . S
C744 C739 1.490 . S
C744 C746 1.395 . S
C744 C747 1.403 . S
H745 C751 0.930 . S
C746 H732 0.930 . S
C746 C744 1.395 . S
C746 C749 1.403 . S
C747 C744 1.403 . S
C747 C748 1.524 . S
C747 C751 1.400 . S
C748 H733 0.960 . S
C748 H734 0.960 . S
C748 H735 0.960 . S
C748 C747 1.524 . S
C749 C746 1.403 . S
C749 C750 1.392 . S
C749 C753 1.495 . S
C750 C749 1.392 . S
C750 C751 1.385 . S
C750 C752 1.478 . S
C751 H745 0.930 . S
C751 C747 1.400 . S
C751 C750 1.385 . S
C752 C750 1.478 . S
C752 C754 1.381 . S
C752 C758 1.383 . S
C753 C749 1.495 . S
C753 H759 0.959 . S
C753 H760 0.961 . S
C753 H761 0.960 . S
C754 C752 1.381 . S
C754 C755 1.394 . S
C754 H762 0.930 . S
C755 C754 1.394 . S
C755 C756 1.383 . S
C755 H763 0.929 . S
C756 C755 1.383 . S
C756 C757 1.377 . S
C757 H741 0.930 . S
C757 C756 1.377 . S
C757 C758 1.379 . S
C758 H742 0.931 . S
C758 C752 1.383 . S
C758 C757 1.379 . S
H759 C753 0.959 . S
H760 C753 0.961 . S
H761 C753 0.960 . S
H762 C754 0.930 . S
H763 C755 0.929 . S
H764 C772 0.929 . S
H765 C774 0.930 . S
H766 C776 0.930 . S
H767 C779 0.929 . S
H768 C782 0.930 . S
H769 C784 0.960 . S
H770 C784 0.960 . S
H771 C784 0.960 . S
C772 H764 0.929 . S
C772 C773 1.377 . S
C772 C774 1.384 . S
C773 C772 1.377 . S
C773 C779 1.390 . S
C774 H765 0.930 . S
C774 C772 1.384 . S
C774 C775 1.372 . S
C775 C774 1.372 . S
C775 C776 1.400 . S
C775 C780 1.490 . S
C776 H766 0.930 . S
C776 C775 1.400 . S
C776 C779 1.386 . S
H777 C793 0.930 . S
H778 C794 0.931 . S
C779 H767 0.929 . S
C779 C773 1.390 . S
C779 C776 1.386 . S
C780 C775 1.490 . S
C780 C782 1.395 . S
C780 C783 1.403 . S
H781 C787 0.930 . S
C782 H768 0.930 . S
C782 C780 1.395 . S
C782 C785 1.403 . S
C783 C780 1.403 . S
C783 C784 1.524 . S
C783 C787 1.400 . S
C784 H769 0.960 . S
C784 H770 0.960 . S
C784 H771 0.960 . S
C784 C783 1.524 . S
C785 C782 1.403 . S
C785 C786 1.392 . S
C785 C789 1.495 . S
C786 C785 1.392 . S
C786 C787 1.385 . S
C786 C788 1.478 . S
C787 H781 0.930 . S
C787 C783 1.400 . S
C787 C786 1.385 . S
C788 C786 1.478 . S
C788 C790 1.381 . S
C788 C794 1.383 . S
C789 C785 1.495 . S
C789 H795 0.959 . S
C789 H796 0.961 . S
C789 H797 0.960 . S
C790 C788 1.381 . S
C790 C791 1.394 . S
C790 H798 0.930 . S
C791 C790 1.394 . S
C791 C792 1.383 . S
C791 H799 0.929 . S
C792 C791 1.383 . S
C792 C793 1.377 . S
C793 H777 0.930 . S
C793 C792 1.377 . S
C793 C794 1.379 . S
C794 H778 0.931 . S
C794 C788 1.383 . S
C794 C793 1.379 . S
H795 C789 0.959 . S
H796 C789 0.961 . S
H797 C789 0.960 . S
H798 C790 0.930 . S
H799 C791 0.929 . S
H800 C808 0.929 . S
H801 C810 0.930 . S
H802 C812 0.930 . S
H803 C815 0.929 . S
H804 C818 0.930 . S
H805 C820 0.960 . S
H806 C820 0.960 . S
H807 C820 0.960 . S
C808 H800 0.929 . S
C808 C809 1.377 . S
C808 C810 1.384 . S
C809 C808 1.377 . S
C809 C815 1.390 . S
C810 H801 0.930 . S
C810 C808 1.384 . S
C810 C811 1.372 . S
C811 C810 1.372 . S
C811 C812 1.400 . S
C811 C816 1.490 . S
C812 H802 0.930 . S
C812 C811 1.400 . S
C812 C815 1.386 . S
H813 C829 0.930 . S
H814 C830 0.931 . S
C815 H803 0.929 . S
C815 C809 1.390 . S
C815 C812 1.386 . S
C816 C811 1.490 . S
C816 C818 1.395 . S
C816 C819 1.403 . S
H817 C823 0.930 . S
C818 H804 0.930 . S
C818 C816 1.395 . S
C818 C821 1.403 . S
C819 C816 1.403 . S
C819 C820 1.524 . S
C819 C823 1.400 . S
C820 H805 0.960 . S
C820 H806 0.960 . S
C820 H807 0.960 . S
C820 C819 1.524 . S
C821 C818 1.403 . S
C821 C822 1.392 . S
C821 C825 1.495 1_455 S
C822 C821 1.392 . S
C822 C823 1.385 . S
C822 C824 1.478 1_554 S
C823 H817 0.930 . S
C823 C819 1.400 . S
C823 C822 1.385 . S
C824 C822 1.478 1_556 S
C824 C826 1.381 1_556 S
C824 C830 1.383 . S
C825 C821 1.495 1_655 S
C825 H831 0.959 . S
C825 H832 0.961 . S
C825 H833 0.960 . S
C826 C824 1.381 1_554 S
C826 C827 1.394 1_554 S
C826 H834 0.930 . S
C827 C826 1.394 1_556 S
C827 C828 1.383 . S
C827 H835 0.929 . S
C828 C827 1.383 . S
C828 C829 1.377 . S
C829 H813 0.930 . S
C829 C828 1.377 . S
C829 C830 1.379 . S
C830 H814 0.931 . S
C830 C824 1.383 . S
C830 C829 1.379 . S
H831 C825 0.959 . S
H832 C825 0.961 . S
H833 C825 0.960 . S
H834 C826 0.930 . S
H835 C827 0.929 . S
H836 C844 0.929 . S
H837 C846 0.930 . S
H838 C848 0.930 . S
H839 C851 0.929 . S
H840 C854 0.930 . S
H841 C856 0.960 . S
H842 C856 0.960 . S
H843 C856 0.960 . S
C844 H836 0.929 . S
C844 C845 1.377 . S
C844 C846 1.384 . S
C845 C844 1.377 . S
C845 C851 1.390 . S
C846 H837 0.930 . S
C846 C844 1.384 . S
C846 C847 1.372 . S
C847 C846 1.372 . S
C847 C848 1.400 . S
C847 C852 1.490 . S
C848 H838 0.930 . S
C848 C847 1.400 . S
C848 C851 1.386 . S
H849 C865 0.930 . S
H850 C866 0.931 . S
C851 H839 0.929 . S
C851 C845 1.390 . S
C851 C848 1.386 . S
C852 C847 1.490 . S
C852 C854 1.395 . S
C852 C855 1.403 . S
H853 C859 0.930 . S
C854 H840 0.930 . S
C854 C852 1.395 . S
C854 C857 1.403 . S
C855 C852 1.403 . S
C855 C856 1.524 . S
C855 C859 1.400 . S
C856 H841 0.960 . S
C856 H842 0.960 . S
C856 H843 0.960 . S
C856 C855 1.524 . S
C857 C854 1.403 . S
C857 C858 1.392 . S
C857 C861 1.495 . S
C858 C857 1.392 . S
C858 C859 1.385 . S
C858 C860 1.478 . S
C859 H853 0.930 . S
C859 C855 1.400 . S
C859 C858 1.385 . S
C860 C858 1.478 . S
C860 C862 1.381 . S
C860 C866 1.383 . S
C861 C857 1.495 . S
C861 H867 0.959 . S
C861 H868 0.961 . S
C861 H869 0.960 . S
C862 C860 1.381 . S
C862 C863 1.394 . S
C862 H870 0.930 . S
C863 C862 1.394 . S
C863 C864 1.383 . S
C863 H871 0.929 . S
C864 C863 1.383 . S
C864 C865 1.377 . S
C865 H849 0.930 . S
C865 C864 1.377 . S
C865 C866 1.379 . S
C866 H850 0.931 . S
C866 C860 1.383 . S
C866 C865 1.379 . S
H867 C861 0.959 . S
H868 C861 0.961 . S
H869 C861 0.960 . S
H870 C862 0.930 . S
H871 C863 0.929 . S
H872 C880 0.929 . S
H873 C882 0.930 . S
H874 C884 0.930 . S
H875 C887 0.929 . S
H876 C890 0.930 . S
H877 C892 0.960 . S
H878 C892 0.960 . S
H879 C892 0.960 . S
C880 H872 0.929 . S
C880 C881 1.377 . S
C880 C882 1.384 . S
C881 C880 1.377 . S
C881 C887 1.390 . S
C882 H873 0.930 . S
C882 C880 1.384 . S
C882 C883 1.372 . S
C883 C882 1.372 . S
C883 C884 1.400 . S
C883 C888 1.490 . S
C884 H874 0.930 . S
C884 C883 1.400 . S
C884 C887 1.386 . S
H885 C901 0.930 . S
H886 C902 0.931 . S
C887 H875 0.929 . S
C887 C881 1.390 . S
C887 C884 1.386 . S
C888 C883 1.490 . S
C888 C890 1.395 . S
C888 C891 1.403 . S
H889 C895 0.930 . S
C890 H876 0.930 . S
C890 C888 1.395 . S
C890 C893 1.403 . S
C891 C888 1.403 . S
C891 C892 1.524 . S
C891 C895 1.400 . S
C892 H877 0.960 . S
C892 H878 0.960 . S
C892 H879 0.960 . S
C892 C891 1.524 . S
C893 C890 1.403 . S
C893 C894 1.392 . S
C893 C897 1.495 . S
C894 C893 1.392 . S
C894 C895 1.385 . S
C894 C896 1.478 . S
C895 H889 0.930 . S
C895 C891 1.400 . S
C895 C894 1.385 . S
C896 C894 1.478 . S
C896 C898 1.381 . S
C896 C902 1.383 . S
C897 C893 1.495 . S
C897 H903 0.959 . S
C897 H904 0.961 . S
C897 H905 0.960 . S
C898 C896 1.381 . S
C898 C899 1.394 . S
C898 H906 0.930 . S
C899 C898 1.394 . S
C899 C900 1.383 . S
C899 H907 0.929 . S
C900 C899 1.383 . S
C900 C901 1.377 . S
C901 H885 0.930 . S
C901 C900 1.377 . S
C901 C902 1.379 . S
C902 H886 0.931 . S
C902 C896 1.383 . S
C902 C901 1.379 . S
H903 C897 0.959 . S
H904 C897 0.961 . S
H905 C897 0.960 . S
H906 C898 0.930 . S
H907 C899 0.929 . S
H908 C916 0.929 . S
H909 C918 0.930 . S
H910 C920 0.930 . S
H911 C923 0.929 . S
H912 C926 0.930 . S
H913 C928 0.960 . S
H914 C928 0.960 . S
H915 C928 0.960 . S
C916 H908 0.929 . S
C916 C917 1.377 . S
C916 C918 1.384 . S
C917 C916 1.377 . S
C917 C923 1.390 . S
C918 H909 0.930 . S
C918 C916 1.384 . S
C918 C919 1.372 . S
C919 C918 1.372 . S
C919 C920 1.400 . S
C919 C924 1.490 . S
C920 H910 0.930 . S
C920 C919 1.400 . S
C920 C923 1.386 . S
H921 C937 0.930 . S
H922 C938 0.931 . S
C923 H911 0.929 . S
C923 C917 1.390 . S
C923 C920 1.386 . S
C924 C919 1.490 . S
C924 C926 1.395 . S
C924 C927 1.403 . S
H925 C931 0.930 . S
C926 H912 0.930 . S
C926 C924 1.395 . S
C926 C929 1.403 . S
C927 C924 1.403 . S
C927 C928 1.524 . S
C927 C931 1.400 . S
C928 H913 0.960 . S
C928 H914 0.960 . S
C928 H915 0.960 . S
C928 C927 1.524 . S
C929 C926 1.403 . S
C929 C930 1.392 . S
C929 C933 1.495 . S
C930 C929 1.392 . S
C930 C931 1.385 . S
C930 C932 1.478 . S
C931 H925 0.930 . S
C931 C927 1.400 . S
C931 C930 1.385 . S
C932 C930 1.478 . S
C932 C934 1.381 . S
C932 C938 1.383 . S
C933 C929 1.495 . S
C933 H939 0.959 . S
C933 H940 0.961 . S
C933 H941 0.960 . S
C934 C932 1.381 . S
C934 C935 1.394 . S
C934 H942 0.930 . S
C935 C934 1.394 . S
C935 C936 1.383 . S
C935 H943 0.929 . S
C936 C935 1.383 . S
C936 C937 1.377 . S
C937 H921 0.930 . S
C937 C936 1.377 . S
C937 C938 1.379 . S
C938 H922 0.931 . S
C938 C932 1.383 . S
C938 C937 1.379 . S
H939 C933 0.959 . S
H940 C933 0.961 . S
H941 C933 0.960 . S
H942 C934 0.930 . S
H943 C935 0.929 . S
H944 C952 0.929 . S
H945 C954 0.930 . S
H946 C956 0.930 . S
H947 C959 0.929 . S
H948 C962 0.930 . S
H949 C964 0.960 . S
H950 C964 0.960 . S
H951 C964 0.960 . S
C952 H944 0.929 . S
C952 C953 1.377 . S
C952 C954 1.384 . S
C953 C952 1.377 . S
C953 C959 1.390 . S
C954 H945 0.930 . S
C954 C952 1.384 . S
C954 C955 1.372 . S
C955 C954 1.372 . S
C955 C956 1.400 . S
C955 C960 1.490 . S
C956 H946 0.930 . S
C956 C955 1.400 . S
C956 C959 1.386 . S
H957 C973 0.930 . S
H958 C974 0.931 . S
C959 H947 0.929 . S
C959 C953 1.390 . S
C959 C956 1.386 . S
C960 C955 1.490 . S
C960 C962 1.395 . S
C960 C963 1.403 . S
H961 C967 0.930 . S
C962 H948 0.930 . S
C962 C960 1.395 . S
C962 C965 1.403 . S
C963 C960 1.403 . S
C963 C964 1.524 . S
C963 C967 1.400 . S
C964 H949 0.960 . S
C964 H950 0.960 . S
C964 H951 0.960 . S
C964 C963 1.524 . S
C965 C962 1.403 . S
C965 C966 1.392 . S
C965 C969 1.495 . S
C966 C965 1.392 . S
C966 C967 1.385 . S
C966 C968 1.478 . S
C967 H961 0.930 . S
C967 C963 1.400 . S
C967 C966 1.385 . S
C968 C966 1.478 . S
C968 C970 1.381 . S
C968 C974 1.383 . S
C969 C965 1.495 . S
C969 H975 0.959 . S
C969 H976 0.961 . S
C969 H977 0.960 . S
C970 C968 1.381 . S
C970 C971 1.394 . S
C970 H978 0.930 . S
C971 C970 1.394 . S
C971 C972 1.383 . S
C971 H979 0.929 . S
C972 C971 1.383 . S
C972 C973 1.377 . S
C973 H957 0.930 . S
C973 C972 1.377 . S
C973 C974 1.379 . S
C974 H958 0.931 . S
C974 C968 1.383 . S
C974 C973 1.379 . S
H975 C969 0.959 . S
H976 C969 0.961 . S
H977 C969 0.960 . S
H978 C970 0.930 . S
H979 C971 0.929 . S
H980 C988 0.929 . S
H981 C990 0.930 . S
H982 C992 0.930 . S
H983 C995 0.929 . S
H984 C998 0.930 . S
H985 C1000 0.960 . S
H986 C1000 0.960 . S
H987 C1000 0.960 . S
C988 H980 0.929 . S
C988 C989 1.377 . S
C988 C990 1.384 . S
C989 C988 1.377 . S
C989 C995 1.390 . S
C990 H981 0.930 . S
C990 C988 1.384 . S
C990 C991 1.372 . S
C991 C990 1.372 . S
C991 C992 1.400 . S
C991 C996 1.490 . S
C992 H982 0.930 . S
C992 C991 1.400 . S
C992 C995 1.386 . S
H993 C1009 0.930 . S
H994 C1010 0.931 . S
C995 H983 0.929 . S
C995 C989 1.390 . S
C995 C992 1.386 . S
C996 C991 1.490 . S
C996 C998 1.395 . S
C996 C999 1.403 . S
H997 C1003 0.930 . S
C998 H984 0.930 . S
C998 C996 1.395 . S
C998 C1001 1.403 . S
C999 C996 1.403 . S
C999 C1000 1.524 . S
C999 C1003 1.400 . S
C1000 H985 0.960 . S
C1000 H986 0.960 . S
C1000 H987 0.960 . S
C1000 C999 1.524 . S
C1001 C998 1.403 . S
C1001 C1002 1.392 . S
C1001 C1005 1.495 . S
C1002 C1001 1.392 . S
C1002 C1003 1.385 . S
C1002 C1004 1.478 . S
C1003 H997 0.930 . S
C1003 C999 1.400 . S
C1003 C1002 1.385 . S
C1004 C1002 1.478 . S
C1004 C1006 1.381 . S
C1004 C1010 1.383 . S
C1005 C1001 1.495 . S
C1005 H1011 0.959 . S
C1005 H1012 0.961 . S
C1005 H1013 0.960 . S
C1006 C1004 1.381 . S
C1006 C1007 1.394 . S
C1006 H1014 0.930 . S
C1007 C1006 1.394 . S
C1007 C1008 1.383 . S
C1007 H1015 0.929 . S
C1008 C1007 1.383 . S
C1008 C1009 1.377 . S
C1009 H993 0.930 . S
C1009 C1008 1.377 . S
C1009 C1010 1.379 . S
C1010 H994 0.931 . S
C1010 C1004 1.383 . S
C1010 C1009 1.379 . S
H1011 C1005 0.959 . S
H1012 C1005 0.961 . S
H1013 C1005 0.960 . S
H1014 C1006 0.930 . S
H1015 C1007 0.929 . S
H1016 C1024 0.929 . S
H1017 C1026 0.930 . S
H1018 C1028 0.930 . S
H1019 C1031 0.929 . S
H1020 C1034 0.930 . S
H1021 C1036 0.960 . S
H1022 C1036 0.960 . S
H1023 C1036 0.960 . S
C1024 H1016 0.929 . S
C1024 C1025 1.377 . S
C1024 C1026 1.384 . S
C1025 C1024 1.377 . S
C1025 C1031 1.390 . S
C1026 H1017 0.930 . S
C1026 C1024 1.384 . S
C1026 C1027 1.372 . S
C1027 C1026 1.372 . S
C1027 C1028 1.400 . S
C1027 C1032 1.490 . S
C1028 H1018 0.930 . S
C1028 C1027 1.400 . S
C1028 C1031 1.386 . S
H1029 C1045 0.930 . S
H1030 C1046 0.931 . S
C1031 H1019 0.929 . S
C1031 C1025 1.390 . S
C1031 C1028 1.386 . S
C1032 C1027 1.490 . S
C1032 C1034 1.395 . S
C1032 C1035 1.403 . S
H1033 C1039 0.930 . S
C1034 H1020 0.930 . S
C1034 C1032 1.395 . S
C1034 C1037 1.403 1_565 S
C1035 C1032 1.403 . S
C1035 C1036 1.524 . S
C1035 C1039 1.400 1_565 S
C1036 H1021 0.960 . S
C1036 H1022 0.960 . S
C1036 H1023 0.960 . S
C1036 C1035 1.524 . S
C1037 C1034 1.403 1_545 S
C1037 C1038 1.392 . S
C1037 C1041 1.495 . S
C1038 C1037 1.392 . S
C1038 C1039 1.385 . S
C1038 C1040 1.478 . S
C1039 H1033 0.930 . S
C1039 C1035 1.400 1_545 S
C1039 C1038 1.385 . S
C1040 C1038 1.478 . S
C1040 C1042 1.381 . S
C1040 C1046 1.383 . S
C1041 C1037 1.495 . S
C1041 H1047 0.959 . S
C1041 H1048 0.961 . S
C1041 H1049 0.960 . S
C1042 C1040 1.381 . S
C1042 C1043 1.394 . S
C1042 H1050 0.930 . S
C1043 C1042 1.394 . S
C1043 C1044 1.383 . S
C1043 H1051 0.929 . S
C1044 C1043 1.383 . S
C1044 C1045 1.377 . S
C1045 H1029 0.930 . S
C1045 C1044 1.377 . S
C1045 C1046 1.379 . S
C1046 H1030 0.931 . S
C1046 C1040 1.383 . S
C1046 C1045 1.379 . S
H1047 C1041 0.959 . S
H1048 C1041 0.961 . S
H1049 C1041 0.960 . S
H1050 C1042 0.930 . S
H1051 C1043 0.929 . S
H1052 C1060 0.929 . S
H1053 C1062 0.930 . S
H1054 C1064 0.930 . S
H1055 C1067 0.929 . S
H1056 C1070 0.930 1_556 S
H1057 C1072 0.938 1_655 S
H1058 C1072 0.924 1_655 S
H1059 C1072 0.987 . S
C1060 H1052 0.929 . S
C1060 C1061 1.377 . S
C1060 C1062 1.384 . S
C1061 C1060 1.377 . S
C1061 C1067 1.390 . S
C1062 H1053 0.930 . S
C1062 C1060 1.384 . S
C1062 C1063 1.372 . S
C1063 C1062 1.372 . S
C1063 C1064 1.400 1_556 S
C1063 C1068 1.490 1_556 S
C1064 H1054 0.930 . S
C1064 C1063 1.400 1_554 S
C1064 C1067 1.386 1_554 S
H1065 C1081 0.930 . S
H1066 C1082 0.931 . S
C1067 H1055 0.929 . S
C1067 C1061 1.390 . S
C1067 C1064 1.386 1_556 S
C1068 C1063 1.490 1_554 S
C1068 C1070 1.395 1_545 S
C1068 C1071 1.403 . S
H1069 C1075 0.930 . S
C1070 H1056 0.930 1_554 S
C1070 C1068 1.395 1_565 S
C1070 C1073 1.403 . S
C1071 C1068 1.403 . S
C1071 C1072 1.558 . S
C1071 C1075 1.400 1_545 S
C1072 H1057 0.938 1_455 S
C1072 H1058 0.924 1_455 S
C1072 H1059 0.987 . S
C1072 C1071 1.558 . S
C1073 C1070 1.403 . S
C1073 C1074 1.392 . S
C1073 C1077 1.495 . S
C1074 C1073 1.392 . S
C1074 C1075 1.385 . S
C1074 C1076 1.478 . S
C1075 H1069 0.930 . S
C1075 C1071 1.400 1_565 S
C1075 C1074 1.385 . S
C1076 C1074 1.478 . S
C1076 C1078 1.381 . S
C1076 C1082 1.383 . S
C1077 C1073 1.495 . S
C1077 H1083 0.959 . S
C1077 H1084 0.961 . S
C1077 H1085 0.960 . S
C1078 C1076 1.381 . S
C1078 C1079 1.394 . S
C1078 H1086 0.930 . S
C1079 C1078 1.394 . S
C1079 C1080 1.383 . S
C1079 H1087 0.929 . S
C1080 C1079 1.383 . S
C1080 C1081 1.377 . S
C1081 H1065 0.930 . S
C1081 C1080 1.377 . S
C1081 C1082 1.379 . S
C1082 H1066 0.931 . S
C1082 C1076 1.383 . S
C1082 C1081 1.379 . S
H1083 C1077 0.959 . S
H1084 C1077 0.961 . S
H1085 C1077 0.960 . S
H1086 C1078 0.930 . S
H1087 C1079 0.929 . S
H1088 C1096 0.929 1_655 S
H1089 C1098 0.930 1_655 S
H1090 C1100 0.930 . S
H1091 C1103 0.929 . S
H1092 C1106 0.930 . S
H1093 C1108 0.960 . S
H1094 C1108 0.960 1_655 S
H1095 C1108 0.960 . S
C1096 H1088 0.929 1_455 S
C1096 C1097 1.377 . S
C1096 C1098 1.384 . S
C1097 C1096 1.377 . S
C1097 C1103 1.390 . S
C1098 H1089 0.930 1_455 S
C1098 C1096 1.384 . S
C1098 C1099 1.372 . S
C1099 C1098 1.372 . S
C1099 C1100 1.400 . S
C1099 C1104 1.490 . S
C1100 H1090 0.930 . S
C1100 C1099 1.400 . S
C1100 C1103 1.386 . S
H1101 C1117 0.930 . S
H1102 C1118 0.931 . S
C1103 H1091 0.929 . S
C1103 C1097 1.390 . S
C1103 C1100 1.386 . S
C1104 C1099 1.490 . S
C1104 C1106 1.395 . S
C1104 C1107 1.403 . S
H1105 C1111 0.930 . S
C1106 H1092 0.930 . S
C1106 C1104 1.395 . S
C1106 C1109 1.403 . S
C1107 C1104 1.403 . S
C1107 C1108 1.524 . S
C1107 C1111 1.400 . S
C1108 H1093 0.960 . S
C1108 H1094 0.960 1_455 S
C1108 H1095 0.960 . S
C1108 C1107 1.524 . S
C1109 C1106 1.403 . S
C1109 C1110 1.392 . S
C1109 C1113 1.495 . S
C1110 C1109 1.392 . S
C1110 C1111 1.385 . S
C1110 C1112 1.478 . S
C1111 H1105 0.930 . S
C1111 C1107 1.400 . S
C1111 C1110 1.385 . S
C1112 C1110 1.478 . S
C1112 C1114 1.381 . S
C1112 C1118 1.383 . S
C1113 C1109 1.495 . S
C1113 H1119 0.959 . S
C1113 H1120 0.961 . S
C1113 H1121 0.960 . S
C1114 C1112 1.381 . S
C1114 C1115 1.394 . S
C1114 H1122 0.930 1_455 S
C1115 C1114 1.394 . S
C1115 C1116 1.383 . S
C1115 H1123 0.929 1_455 S
C1116 C1115 1.383 . S
C1116 C1117 1.377 . S
C1117 H1101 0.930 . S
C1117 C1116 1.377 . S
C1117 C1118 1.379 . S
C1118 H1102 0.931 . S
C1118 C1112 1.383 . S
C1118 C1117 1.379 . S
H1119 C1113 0.959 . S
H1120 C1113 0.961 . S
H1121 C1113 0.960 . S
H1122 C1114 0.930 1_655 S
H1123 C1115 0.929 1_655 S
H1124 C1132 0.929 . S
H1125 C1134 0.930 . S
H1126 C1136 0.930 . S
H1127 C1139 0.929 . S
H1128 C1142 0.930 . S
H1129 C1144 0.960 . S
H1130 C1144 0.960 . S
H1131 C1144 0.960 . S
C1132 H1124 0.929 . S
C1132 C1133 1.377 . S
C1132 C1134 1.384 . S
C1133 C1132 1.377 . S
C1133 C1139 1.390 . S
C1134 H1125 0.930 . S
C1134 C1132 1.384 . S
C1134 C1135 1.372 . S
C1135 C1134 1.372 . S
C1135 C1136 1.400 . S
C1135 C1140 1.490 . S
C1136 H1126 0.930 . S
C1136 C1135 1.400 . S
C1136 C1139 1.386 . S
H1137 C1153 0.930 . S
H1138 C1154 0.931 . S
C1139 H1127 0.929 . S
C1139 C1133 1.390 . S
C1139 C1136 1.386 . S
C1140 C1135 1.490 . S
C1140 C1142 1.395 . S
C1140 C1143 1.403 . S
H1141 C1147 0.930 . S
C1142 H1128 0.930 . S
C1142 C1140 1.395 . S
C1142 C1145 1.403 . S
C1143 C1140 1.403 . S
C1143 C1144 1.524 . S
C1143 C1147 1.400 . S
C1144 H1129 0.960 . S
C1144 H1130 0.960 . S
C1144 H1131 0.960 . S
C1144 C1143 1.524 . S
C1145 C1142 1.403 . S
C1145 C1146 1.392 . S
C1145 C1149 1.495 . S
C1146 C1145 1.392 . S
C1146 C1147 1.385 . S
C1146 C1148 1.478 . S
C1147 H1141 0.930 . S
C1147 C1143 1.400 . S
C1147 C1146 1.385 . S
C1148 C1146 1.478 . S
C1148 C1150 1.381 . S
C1148 C1154 1.383 . S
C1149 C1145 1.495 . S
C1149 H1155 0.959 . S
C1149 H1156 0.961 . S
C1149 H1157 0.960 . S
C1150 C1148 1.381 . S
C1150 C1151 1.394 . S
C1150 H1158 0.930 . S
C1151 C1150 1.394 . S
C1151 C1152 1.383 . S
C1151 H1159 0.929 . S
C1152 C1151 1.383 . S
C1152 C1153 1.377 . S
C1153 H1137 0.930 . S
C1153 C1152 1.377 . S
C1153 C1154 1.379 . S
C1154 H1138 0.931 . S
C1154 C1148 1.383 . S
C1154 C1153 1.379 . S
H1155 C1149 0.959 . S
H1156 C1149 0.961 . S
H1157 C1149 0.960 . S
H1158 C1150 0.930 . S
H1159 C1151 0.929 . S
H1160 C1168 0.929 . S
H1161 C1170 0.930 . S
H1162 C1172 0.930 . S
H1163 C1175 0.929 . S
H1164 C1178 0.930 . S
H1165 C1180 0.960 . S
H1166 C1180 0.960 . S
H1167 C1180 0.960 . S
C1168 H1160 0.929 . S
C1168 C1169 1.377 . S
C1168 C1170 1.384 . S
C1169 C1168 1.377 . S
C1169 C1175 1.390 . S
C1170 H1161 0.930 . S
C1170 C1168 1.384 . S
C1170 C1171 1.372 . S
C1171 C1170 1.372 . S
C1171 C1172 1.400 . S
C1171 C1176 1.490 . S
C1172 H1162 0.930 . S
C1172 C1171 1.400 . S
C1172 C1175 1.386 . S
H1173 C1189 0.930 . S
H1174 C1190 0.931 1_554 S
C1175 H1163 0.929 . S
C1175 C1169 1.390 . S
C1175 C1172 1.386 . S
C1176 C1171 1.490 . S
C1176 C1178 1.395 . S
C1176 C1179 1.403 . S
H1177 C1183 0.930 1_556 S
C1178 H1164 0.930 . S
C1178 C1176 1.395 . S
C1178 C1181 1.403 . S
C1179 C1176 1.403 . S
C1179 C1180 1.524 . S
C1179 C1183 1.400 . S
C1180 H1165 0.960 . S
C1180 H1166 0.960 . S
C1180 H1167 0.960 . S
C1180 C1179 1.524 . S
C1181 C1178 1.403 . S
C1181 C1182 1.392 . S
C1181 C1185 1.495 . S
C1182 C1181 1.392 . S
C1182 C1183 1.385 . S
C1182 C1184 1.478 1_554 S
C1183 H1177 0.930 1_554 S
C1183 C1179 1.400 . S
C1183 C1182 1.385 . S
C1184 C1182 1.478 1_556 S
C1184 C1186 1.381 . S
C1184 C1190 1.383 . S
C1185 C1181 1.495 . S
C1185 H1191 0.959 . S
C1185 H1192 0.961 . S
C1185 H1193 0.960 . S
C1186 C1184 1.381 . S
C1186 C1187 1.394 . S
C1186 H1194 0.930 . S
C1187 C1186 1.394 . S
C1187 C1188 1.383 . S
C1187 H1195 0.929 . S
C1188 C1187 1.383 . S
C1188 C1189 1.377 . S
C1189 H1173 0.930 . S
C1189 C1188 1.377 . S
C1189 C1190 1.379 . S
C1190 H1174 0.931 1_556 S
C1190 C1184 1.383 . S
C1190 C1189 1.379 . S
H1191 C1185 0.959 . S
H1192 C1185 0.961 . S
H1193 C1185 0.960 . S
H1194 C1186 0.930 . S
H1195 C1187 0.929 . S
H1196 C1204 0.929 . S
H1197 C1206 0.930 . S
H1198 C1208 0.930 . S
H1199 C1211 0.929 . S
H1200 C1214 0.930 . S
H1201 C1216 0.960 . S
H1202 C1216 0.960 . S
H1203 C1216 0.960 . S
C1204 H1196 0.929 . S
C1204 C1205 1.377 . S
C1204 C1206 1.384 . S
C1205 C1204 1.377 . S
C1205 C1211 1.390 . S
C1206 H1197 0.930 . S
C1206 C1204 1.384 . S
C1206 C1207 1.372 . S
C1207 C1206 1.372 . S
C1207 C1208 1.400 . S
C1207 C1212 1.490 . S
C1208 H1198 0.930 . S
C1208 C1207 1.400 . S
C1208 C1211 1.386 . S
H1209 C1225 0.930 . S
H1210 C1226 0.931 . S
C1211 H1199 0.929 . S
C1211 C1205 1.390 . S
C1211 C1208 1.386 . S
C1212 C1207 1.490 . S
C1212 C1214 1.395 . S
C1212 C1215 1.403 . S
H1213 C1219 0.930 . S
C1214 H1200 0.930 . S
C1214 C1212 1.395 . S
C1214 C1217 1.403 . S
C1215 C1212 1.403 . S
C1215 C1216 1.524 . S
C1215 C1219 1.400 . S
C1216 H1201 0.960 . S
C1216 H1202 0.960 . S
C1216 H1203 0.960 . S
C1216 C1215 1.524 . S
C1217 C1214 1.403 . S
C1217 C1218 1.392 . S
C1217 C1221 1.495 . S
C1218 C1217 1.392 . S
C1218 C1219 1.385 . S
C1218 C1220 1.478 . S
C1219 H1213 0.930 . S
C1219 C1215 1.400 . S
C1219 C1218 1.385 . S
C1220 C1218 1.478 . S
C1220 C1222 1.381 . S
C1220 C1226 1.383 . S
C1221 C1217 1.495 . S
C1221 H1227 0.959 . S
C1221 H1228 0.961 . S
C1221 H1229 0.960 . S
C1222 C1220 1.381 . S
C1222 C1223 1.394 . S
C1222 H1230 0.930 . S
C1223 C1222 1.394 . S
C1223 C1224 1.383 . S
C1223 H1231 0.929 . S
C1224 C1223 1.383 . S
C1224 C1225 1.377 . S
C1225 H1209 0.930 . S
C1225 C1224 1.377 . S
C1225 C1226 1.379 . S
C1226 H1210 0.931 . S
C1226 C1220 1.383 . S
C1226 C1225 1.379 . S
H1227 C1221 0.959 . S
H1228 C1221 0.961 . S
H1229 C1221 0.960 . S
H1230 C1222 0.930 . S
H1231 C1223 0.929 . S
H1232 C1240 0.929 . S
H1233 C1242 0.930 . S
H1234 C1244 0.930 . S
H1235 C1247 0.929 . S
H1236 C1250 0.930 . S
H1237 C1252 0.960 . S
H1238 C1252 0.960 . S
H1239 C1252 0.960 . S
C1240 H1232 0.929 . S
C1240 C1241 1.377 . S
C1240 C1242 1.384 . S
C1241 C1240 1.377 . S
C1241 C1247 1.390 . S
C1242 H1233 0.930 . S
C1242 C1240 1.384 . S
C1242 C1243 1.372 . S
C1243 C1242 1.372 . S
C1243 C1244 1.400 . S
C1243 C1248 1.490 . S
C1244 H1234 0.930 . S
C1244 C1243 1.400 . S
C1244 C1247 1.386 . S
H1245 C1261 0.930 . S
H1246 C1262 0.931 . S
C1247 H1235 0.929 . S
C1247 C1241 1.390 . S
C1247 C1244 1.386 . S
C1248 C1243 1.490 . S
C1248 C1250 1.395 . S
C1248 C1251 1.403 . S
H1249 C1255 0.930 . S
C1250 H1236 0.930 . S
C1250 C1248 1.395 . S
C1250 C1253 1.403 . S
C1251 C1248 1.403 . S
C1251 C1252 1.524 . S
C1251 C1255 1.400 . S
C1252 H1237 0.960 . S
C1252 H1238 0.960 . S
C1252 H1239 0.960 . S
C1252 C1251 1.524 . S
C1253 C1250 1.403 . S
C1253 C1254 1.392 . S
C1253 C1257 1.495 . S
C1254 C1253 1.392 . S
C1254 C1255 1.385 . S
C1254 C1256 1.478 . S
C1255 H1249 0.930 . S
C1255 C1251 1.400 . S
C1255 C1254 1.385 . S
C1256 C1254 1.478 . S
C1256 C1258 1.381 . S
C1256 C1262 1.383 . S
C1257 C1253 1.495 . S
C1257 H1263 0.959 . S
C1257 H1264 0.961 . S
C1257 H1265 0.960 . S
C1258 C1256 1.381 . S
C1258 C1259 1.394 . S
C1258 H1266 0.930 . S
C1259 C1258 1.394 . S
C1259 C1260 1.383 . S
C1259 H1267 0.929 . S
C1260 C1259 1.383 . S
C1260 C1261 1.377 . S
C1261 H1245 0.930 . S
C1261 C1260 1.377 . S
C1261 C1262 1.379 . S
C1262 H1246 0.931 . S
C1262 C1256 1.383 . S
C1262 C1261 1.379 . S
H1263 C1257 0.959 . S
H1264 C1257 0.961 . S
H1265 C1257 0.960 . S
H1266 C1258 0.930 . S
H1267 C1259 0.929 . S
H1268 C1276 0.929 . S
H1269 C1278 0.930 . S
H1270 C1280 0.930 . S
H1271 C1283 0.929 . S
H1272 C1286 0.930 . S
H1273 C1288 0.960 . S
H1274 C1288 0.960 . S
H1275 C1288 0.960 . S
C1276 H1268 0.929 . S
C1276 C1277 1.377 . S
C1276 C1278 1.384 . S
C1277 C1276 1.377 . S
C1277 C1283 1.390 . S
C1278 H1269 0.930 . S
C1278 C1276 1.384 . S
C1278 C1279 1.372 . S
C1279 C1278 1.372 . S
C1279 C1280 1.400 . S
C1279 C1284 1.490 . S
C1280 H1270 0.930 . S
C1280 C1279 1.400 . S
C1280 C1283 1.386 . S
H1281 C1297 0.915 1_554 S
H1282 C1298 0.931 . S
C1283 H1271 0.929 . S
C1283 C1277 1.390 . S
C1283 C1280 1.386 . S
C1284 C1279 1.490 . S
C1284 C1286 1.395 . S
C1284 C1287 1.403 . S
H1285 C1291 0.930 . S
C1286 H1272 0.930 . S
C1286 C1284 1.395 . S
C1286 C1289 1.403 . S
C1287 C1284 1.403 . S
C1287 C1288 1.524 . S
C1287 C1291 1.400 . S
C1288 H1273 0.960 . S
C1288 H1274 0.960 . S
C1288 H1275 0.960 . S
C1288 C1287 1.524 . S
C1289 C1286 1.403 . S
C1289 C1290 1.392 . S
C1289 C1293 1.495 . S
C1290 C1289 1.392 . S
C1290 C1291 1.385 . S
C1290 C1292 1.478 . S
C1291 H1285 0.930 . S
C1291 C1287 1.400 . S
C1291 C1290 1.385 . S
C1292 C1290 1.478 . S
C1292 C1294 1.381 . S
C1292 C1298 1.383 . S
C1293 C1289 1.495 . S
C1293 H1299 0.959 . S
C1293 H1300 0.961 . S
C1293 H1301 0.960 . S
C1294 C1292 1.381 . S
C1294 C1295 1.394 . S
C1294 H1302 0.930 . S
C1295 C1294 1.394 . S
C1295 C1296 1.383 . S
C1295 H1303 0.929 . S
C1296 C1295 1.383 . S
C1296 C1297 1.377 . S
C1297 H1281 0.915 1_556 S
C1297 C1296 1.377 . S
C1297 C1298 1.379 . S
C1298 H1282 0.931 . S
C1298 C1292 1.383 . S
C1298 C1297 1.379 . S
H1299 C1293 0.959 . S
H1300 C1293 0.961 . S
H1301 C1293 0.960 . S
H1302 C1294 0.930 . S
H1303 C1295 0.929 . S
H1304 C1312 0.929 . S
H1305 C1314 0.930 . S
H1306 C1316 0.930 . S
H1307 C1319 0.929 . S
H1308 C1322 0.930 . S
H1309 C1324 0.960 . S
H1310 C1324 0.960 . S
H1311 C1324 0.960 . S
C1312 H1304 0.929 . S
C1312 C1313 1.377 . S
C1312 C1314 1.384 . S
C1313 C1312 1.377 . S
C1313 C1319 1.390 . S
C1314 H1305 0.930 . S
C1314 C1312 1.384 . S
C1314 C1315 1.372 . S
C1315 C1314 1.372 . S
C1315 C1316 1.400 . S
C1315 C1320 1.490 . S
C1316 H1306 0.930 . S
C1316 C1315 1.400 . S
C1316 C1319 1.386 . S
H1317 C1333 0.930 . S
H1318 C1334 0.931 . S
C1319 H1307 0.929 . S
C1319 C1313 1.390 . S
C1319 C1316 1.386 . S
C1320 C1315 1.490 . S
C1320 C1322 1.395 . S
C1320 C1323 1.403 1_565 S
H1321 C1327 0.930 . S
C1322 H1308 0.930 . S
C1322 C1320 1.395 . S
C1322 C1325 1.403 . S
C1323 C1320 1.403 1_545 S
C1323 C1324 1.524 . S
C1323 C1327 1.400 . S
C1324 H1309 0.960 . S
C1324 H1310 0.960 . S
C1324 H1311 0.960 . S
C1324 C1323 1.524 . S
C1325 C1322 1.403 . S
C1325 C1326 1.392 1_565 S
C1325 C1329 1.495 1_554 S
C1326 C1325 1.392 1_545 S
C1326 C1327 1.385 . S
C1326 C1328 1.478 1_554 S
C1327 H1321 0.930 . S
C1327 C1323 1.400 . S
C1327 C1326 1.385 . S
C1328 C1326 1.478 1_556 S
C1328 C1330 1.381 . S
C1328 C1334 1.383 . S
C1329 C1325 1.495 1_556 S
C1329 H1335 0.959 . S
C1329 H1336 0.961 . S
C1329 H1337 0.960 . S
C1330 C1328 1.381 . S
C1330 C1331 1.394 . S
C1330 H1338 0.930 . S
C1331 C1330 1.394 . S
C1331 C1332 1.383 . S
C1331 H1339 0.929 . S
C1332 C1331 1.383 . S
C1332 C1333 1.377 . S
C1333 H1317 0.930 . S
C1333 C1332 1.377 . S
C1333 C1334 1.379 . S
C1334 H1318 0.931 . S
C1334 C1328 1.383 . S
C1334 C1333 1.379 . S
H1335 C1329 0.959 . S
H1336 C1329 0.961 . S
H1337 C1329 0.960 . S
H1338 C1330 0.930 . S
H1339 C1331 0.929 . S
H1340 C1348 0.929 . S
H1341 C1350 0.930 . S
H1342 C1352 0.930 . S
H1343 C1355 0.929 . S
H1344 C1358 0.929 . S
H1345 C1360 0.960 . S
H1346 C1360 0.960 . S
H1347 C1360 0.960 . S
C1348 H1340 0.929 . S
C1348 C1349 1.377 . S
C1348 C1350 1.384 . S
C1349 C1348 1.377 . S
C1349 C1355 1.390 . S
C1350 H1341 0.930 . S
C1350 C1348 1.384 . S
C1350 C1351 1.372 . S
C1351 C1350 1.372 . S
C1351 C1352 1.400 . S
C1351 C1356 1.490 . S
C1352 H1342 0.930 . S
C1352 C1351 1.400 . S
C1352 C1355 1.386 . S
H1353 C1369 0.930 . S
H1354 C1370 0.931 . S
C1355 H1343 0.929 . S
C1355 C1349 1.390 . S
C1355 C1352 1.386 . S
C1356 C1351 1.490 . S
C1356 C1358 1.396 . S
C1356 C1359 1.403 . S
H1357 C1363 0.930 . S
C1358 H1344 0.929 . S
C1358 C1356 1.396 . S
C1358 C1361 1.402 1_545 S
C1359 C1356 1.403 . S
C1359 C1360 1.524 . S
C1359 C1363 1.400 1_545 S
C1360 H1345 0.960 . S
C1360 H1346 0.960 . S
C1360 H1347 0.960 . S
C1360 C1359 1.524 . S
C1361 C1358 1.402 1_565 S
C1361 C1362 1.392 . S
C1361 C1365 1.495 . S
C1362 C1361 1.392 . S
C1362 C1363 1.385 . S
C1362 C1364 1.478 . S
C1363 H1357 0.930 . S
C1363 C1359 1.400 1_565 S
C1363 C1362 1.385 . S
C1364 C1362 1.478 . S
C1364 C1366 1.381 . S
C1364 C1370 1.383 . S
C1365 C1361 1.495 . S
C1365 H1371 0.959 . S
C1365 H1372 0.961 . S
C1365 H1373 0.960 . S
C1366 C1364 1.381 . S
C1366 C1367 1.394 . S
C1366 H1374 0.930 . S
C1367 C1366 1.394 . S
C1367 C1368 1.383 . S
C1367 H1375 0.929 . S
C1368 C1367 1.383 . S
C1368 C1369 1.377 . S
C1369 H1353 0.930 . S
C1369 C1368 1.377 . S
C1369 C1370 1.379 . S
C1370 H1354 0.931 . S
C1370 C1364 1.383 . S
C1370 C1369 1.379 . S
H1371 C1365 0.959 . S
H1372 C1365 0.961 . S
H1373 C1365 0.960 . S
H1374 C1366 0.930 . S
H1375 C1367 0.929 . S
C233 C135 1.442 . S
C252 C9 1.451 . S
C269 C205 1.443 . S
C288 C23 1.452 . S
C305 C37 1.445 . S
C324 C121 1.452 . S
C341 C51 1.444 . S
C360 C219 1.453 1_655 S
C377 C65 1.443 . S
C396 C149 1.428 . S
C413 C191 1.442 1_655 S
C432 C79 1.450 . S
C449 C163 1.440 . S
C468 C93 1.427 . S
C485 C107 1.441 . S
C504 C177 1.427 . S
C521 C59 1.482 1_655 S
C540 C45 1.513 . S
C557 C171 1.522 . S
C576 C115 1.522 . S
C593 C87 1.528 . S
C612 C17 1.515 . S
C629 C129 1.528 . S
C648 C185 1.520 . S
C665 C3 1.486 1_655 S
C684 C73 1.518 . S
C701 C213 1.528 . S
C720 C143 1.512 . S
C737 C101 1.525 . S
C756 C31 1.508 . S
C773 C157 1.528 . S
C792 C199 1.522 . S
C809 C7 0.406 . S
C828 C63 0.356 . S
C845 C77 0.373 . S
C864 C21 0.460 . S
C881 C91 0.385 . S
C900 C35 0.319 . S
C917 C49 0.388 . S
C936 C105 0.311 . S
C953 C147 0.388 . S
C972 C119 0.471 . S
C989 C161 0.386 . S
C1008 C133 0.315 . S
C1025 C203 0.406 . S
C1044 C175 0.350 . S
C1061 C217 0.400 . S
C1080 C189 0.309 . S
C1097 C64 1.828 . S
C1116 C8 1.822 . S
C1133 C78 1.824 1_556 S
C1152 C22 1.820 . S
C1169 C92 1.827 . S
C1188 C36 1.829 . S
C1205 C50 1.827 . S
C1224 C106 1.825 . S
C1241 C120 1.827 . S
C1260 C148 1.819 . S
C1277 C162 1.826 . S
C1296 C134 1.814 1_556 S
C1313 C204 1.824 . S
C1332 C176 1.818 . S
C1349 C218 1.827 . S
C1368 C190 1.830 . S
