# Generated by pormake.
# Topology bcs, (6)-cn, num edge types: 1
# Building blocks:
#     Node 0, Type 0, BuildingBlock: UKALOJ_clean_sbu_0, # of connection points: 6
#     Node 1, Type 0, BuildingBlock: UKALOJ_clean_sbu_0, # of connection points: 6
#     Node 2, Type 0, BuildingBlock: UKALOJ_clean_sbu_0, # of connection points: 6
#     Node 3, Type 0, BuildingBlock: UKALOJ_clean_sbu_0, # of connection points: 6
#     Node 4, Type 0, BuildingBlock: UKALOJ_clean_sbu_0, # of connection points: 6
#     Node 5, Type 0, BuildingBlock: UKALOJ_clean_sbu_0, # of connection points: 6
#     Node 6, Type 0, BuildingBlock: UKALOJ_clean_sbu_0, # of connection points: 6
#     Node 7, Type 0, BuildingBlock: UKALOJ_clean_sbu_0, # of connection points: 6
#     Node 8, Type 0, BuildingBlock: UKALOJ_clean_sbu_0, # of connection points: 6
#     Node 9, Type 0, BuildingBlock: UKALOJ_clean_sbu_0, # of connection points: 6
#     Node 10, Type 0, BuildingBlock: UKALOJ_clean_sbu_0, # of connection points: 6
#     Node 11, Type 0, BuildingBlock: UKALOJ_clean_sbu_0, # of connection points: 6
#     Node 12, Type 0, BuildingBlock: UKALOJ_clean_sbu_0, # of connection points: 6
#     Node 13, Type 0, BuildingBlock: UKALOJ_clean_sbu_0, # of connection points: 6
#     Node 14, Type 0, BuildingBlock: UKALOJ_clean_sbu_0, # of connection points: 6
#     Node 15, Type 0, BuildingBlock: UKALOJ_clean_sbu_0, # of connection points: 6
#     Edge 16, Type (0, 0), BuildingBlock: AJUNOK_clean_linker_0, # of connection points: 2
#     Edge 17, Type (0, 0), BuildingBlock: AJUNOK_clean_linker_0, # of connection points: 2
#     Edge 18, Type (0, 0), BuildingBlock: AJUNOK_clean_linker_0, # of connection points: 2
#     Edge 19, Type (0, 0), BuildingBlock: AJUNOK_clean_linker_0, # of connection points: 2
#     Edge 20, Type (0, 0), BuildingBlock: AJUNOK_clean_linker_0, # of connection points: 2
#     Edge 21, Type (0, 0), BuildingBlock: AJUNOK_clean_linker_0, # of connection points: 2
#     Edge 22, Type (0, 0), BuildingBlock: AJUNOK_clean_linker_0, # of connection points: 2
#     Edge 23, Type (0, 0), BuildingBlock: AJUNOK_clean_linker_0, # of connection points: 2
#     Edge 24, Type (0, 0), BuildingBlock: AJUNOK_clean_linker_0, # of connection points: 2
#     Edge 25, Type (0, 0), BuildingBlock: AJUNOK_clean_linker_0, # of connection points: 2
#     Edge 26, Type (0, 0), BuildingBlock: AJUNOK_clean_linker_0, # of connection points: 2
#     Edge 27, Type (0, 0), BuildingBlock: AJUNOK_clean_linker_0, # of connection points: 2
#     Edge 28, Type (0, 0), BuildingBlock: AJUNOK_clean_linker_0, # of connection points: 2
#     Edge 29, Type (0, 0), BuildingBlock: AJUNOK_clean_linker_0, # of connection points: 2
#     Edge 30, Type (0, 0), BuildingBlock: AJUNOK_clean_linker_0, # of connection points: 2
#     Edge 31, Type (0, 0), BuildingBlock: AJUNOK_clean_linker_0, # of connection points: 2
#     Edge 32, Type (0, 0), BuildingBlock: AJUNOK_clean_linker_0, # of connection points: 2
#     Edge 33, Type (0, 0), BuildingBlock: AJUNOK_clean_linker_0, # of connection points: 2
#     Edge 34, Type (0, 0), BuildingBlock: AJUNOK_clean_linker_0, # of connection points: 2
#     Edge 35, Type (0, 0), BuildingBlock: AJUNOK_clean_linker_0, # of connection points: 2
#     Edge 36, Type (0, 0), BuildingBlock: AJUNOK_clean_linker_0, # of connection points: 2
#     Edge 37, Type (0, 0), BuildingBlock: AJUNOK_clean_linker_0, # of connection points: 2
#     Edge 38, Type (0, 0), BuildingBlock: AJUNOK_clean_linker_0, # of connection points: 2
#     Edge 39, Type (0, 0), BuildingBlock: AJUNOK_clean_linker_0, # of connection points: 2
#     Edge 40, Type (0, 0), BuildingBlock: AJUNOK_clean_linker_0, # of connection points: 2
#     Edge 41, Type (0, 0), BuildingBlock: AJUNOK_clean_linker_0, # of connection points: 2
#     Edge 42, Type (0, 0), BuildingBlock: AJUNOK_clean_linker_0, # of connection points: 2
#     Edge 43, Type (0, 0), BuildingBlock: AJUNOK_clean_linker_0, # of connection points: 2
#     Edge 44, Type (0, 0), BuildingBlock: AJUNOK_clean_linker_0, # of connection points: 2
#     Edge 45, Type (0, 0), BuildingBlock: AJUNOK_clean_linker_0, # of connection points: 2
#     Edge 46, Type (0, 0), BuildingBlock: AJUNOK_clean_linker_0, # of connection points: 2
#     Edge 47, Type (0, 0), BuildingBlock: AJUNOK_clean_linker_0, # of connection points: 2
#     Edge 48, Type (0, 0), BuildingBlock: AJUNOK_clean_linker_0, # of connection points: 2
#     Edge 49, Type (0, 0), BuildingBlock: AJUNOK_clean_linker_0, # of connection points: 2
#     Edge 50, Type (0, 0), BuildingBlock: AJUNOK_clean_linker_0, # of connection points: 2
#     Edge 51, Type (0, 0), BuildingBlock: AJUNOK_clean_linker_0, # of connection points: 2
#     Edge 52, Type (0, 0), BuildingBlock: AJUNOK_clean_linker_0, # of connection points: 2
#     Edge 53, Type (0, 0), BuildingBlock: AJUNOK_clean_linker_0, # of connection points: 2
#     Edge 54, Type (0, 0), BuildingBlock: AJUNOK_clean_linker_0, # of connection points: 2
#     Edge 55, Type (0, 0), BuildingBlock: AJUNOK_clean_linker_0, # of connection points: 2
#     Edge 56, Type (0, 0), BuildingBlock: AJUNOK_clean_linker_0, # of connection points: 2
#     Edge 57, Type (0, 0), BuildingBlock: AJUNOK_clean_linker_0, # of connection points: 2
#     Edge 58, Type (0, 0), BuildingBlock: AJUNOK_clean_linker_0, # of connection points: 2
#     Edge 59, Type (0, 0), BuildingBlock: AJUNOK_clean_linker_0, # of connection points: 2
#     Edge 60, Type (0, 0), BuildingBlock: AJUNOK_clean_linker_0, # of connection points: 2
#     Edge 61, Type (0, 0), BuildingBlock: AJUNOK_clean_linker_0, # of connection points: 2
#     Edge 62, Type (0, 0), BuildingBlock: AJUNOK_clean_linker_0, # of connection points: 2
#     Edge 63, Type (0, 0), BuildingBlock: AJUNOK_clean_linker_0, # of connection points: 2
# Relax obj value: 0.586
# Max RMSD: 0.312
# Mean RMSD: 0.274
data_MOF--net-bcs--node1-UKALOJ_clean_sbu_0--edge1-AJUNOK_clean_linker_0
_symmetry_space_group_name_H-M    P1
_symmetry_Int_Tables_number       1
_symmetry_cell_setting            triclinic
loop_
_symmetry_equiv_pos_as_xyz
'x, y, z'
_cell_length_a     27.980421
_cell_length_b     27.665243
_cell_length_c     29.864727
_cell_angle_alpha  89.872935
_cell_angle_beta   90.354799
_cell_angle_gamma 72.664431
loop_
_atom_site_label
_atom_site_type_symbol
_atom_site_fract_x
_atom_site_fract_y
_atom_site_fract_z
_atom_type_partial_charge
Zn0 Zn 0.02853 0.03143 0.00544 0.0
O1 O 0.07024 0.00284 0.06342 0.0
C2 C 0.0632 0.92936 0.96234 0.0
Zn3 Zn 0.97644 0.98388 0.01511 0.0
C4 C 0.05795 0.96967 0.08631 0.0
O5 O 0.02116 0.95475 0.07347 0.0
C6 C 0.94822 0.04652 0.93361 0.0
O7 O 0.93187 0.04431 0.05259 0.0
O8 O 0.98196 0.09145 0.04355 0.0
N9 N 0.92912 0.94067 0.02991 0.0
C10 C 0.90662 0.93447 0.06853 0.0
C11 C 0.88982 0.88482 0.02064 0.0
N12 N 0.91837 0.90987 1.0002 0.0
N13 N 0.88175 0.89972 0.06354 0.0
C14 C 0.10222 0.07611 0.95239 0.0
C15 C 0.11343 0.13171 0.99709 0.0
N16 N 0.07592 0.07424 0.9899 0.0
N17 N 0.08312 0.10878 0.01759 0.0
N18 N 0.12609 0.11192 0.95609 0.0
H19 H 0.13376 0.00258 0.92466 0.0
H20 H 0.12446 0.0517 0.88408 0.0
H21 H 0.0715 0.03423 0.90527 0.0
C22 C 0.10801 0.03971 0.91413 0.0
C23 C 0.90556 0.96524 0.11003 0.0
H24 H 0.9392 0.97811 0.11277 0.0
H25 H 0.90217 0.9439 0.14065 0.0
H26 H 0.8723 0.99923 0.10831 0.0
O27 O 0.93389 0.01449 0.95649 0.0
O28 O 0.98584 0.05945 0.94704 0.0
C29 C 0.94263 0.08499 0.06038 0.0
O30 O 0.07366 0.97012 0.97011 0.0
O31 O 0.02241 0.92385 0.97649 0.0
Zn32 Zn 0.2245 0.76396 0.28528 0.0
O33 O 0.27559 0.7001 0.31576 0.0
C34 C 0.2794 0.82755 0.32766 0.0
Zn35 Zn 0.28637 0.76963 0.24079 0.0
C36 C 0.32162 0.68441 0.3056 0.0
O37 O 0.3378 0.70628 0.27408 0.0
C38 C 0.18912 0.84947 0.22174 0.0
O39 O 0.26934 0.72143 0.191 0.0
O40 O 0.2066 0.71912 0.23381 0.0
N41 N 0.3436 0.7823 0.2043 0.0
C42 C 0.3453 0.8034 0.16372 0.0
C43 C 0.41325 0.80002 0.1979 0.0
N44 N 0.38608 0.77992 0.22521 0.0
N45 N 0.38839 0.81573 0.1592 0.0
C46 C 0.15554 0.71218 0.33523 0.0
C47 C 0.1074 0.77323 0.37199 0.0
N48 N 0.16808 0.75422 0.32448 0.0
N49 N 0.13793 0.79216 0.34725 0.0
N50 N 0.11771 0.72321 0.36473 0.0
H51 H 0.212 0.65828 0.29574 0.0
H52 H 0.15057 0.65003 0.29522 0.0
H53 H 0.18936 0.63213 0.34376 0.0
C54 C 0.1788 0.6604 0.31627 0.0
C55 C 0.30678 0.8079 0.1276 0.0
H56 H 0.29212 0.77491 0.12864 0.0
H57 H 0.32289 0.81035 0.09411 0.0
H58 H 0.27489 0.84225 0.13293 0.0
O59 O 0.23455 0.83264 0.20968 0.0
O60 O 0.17412 0.82847 0.25448 0.0
C61 C 0.23071 0.707 0.19748 0.0
O62 O 0.24342 0.80973 0.33599 0.0
O63 O 0.3018 0.81751 0.29044 0.0
Zn64 Zn 0.53454 0.03586 0.51613 0.0
O65 O 0.49216 0.09651 0.47635 0.0
C66 C 0.45463 0.05561 0.58735 0.0
Zn67 Zn 0.48428 0.98621 0.50799 0.0
C68 C 0.45284 0.08881 0.46031 0.0
O69 O 0.4437 0.04736 0.46856 0.0
C70 C 0.56558 0.93395 0.56463 0.0
O71 O 0.5276 0.95224 0.45088 0.0
O72 O 0.57614 1.00082 0.45814 0.0
N73 N 0.42834 0.95223 0.49473 0.0
C74 C 0.4212 0.92168 0.46172 0.0
C75 C 0.35195 0.94883 0.49609 0.0
N76 N 0.38517 0.9686 0.51615 0.0
N77 N 0.37353 0.91962 0.46145 0.0
C78 C 0.59155 0.10911 0.55561 0.0
C79 C 0.66646 0.07038 0.537 0.0
N80 N 0.58971 0.06983 0.52964 0.0
N81 N 0.63638 0.0462 0.51781 0.0
N82 N 0.63936 0.10997 0.56122 0.0
H83 H 0.51348 0.15153 0.55176 0.0
H84 H 0.55361 0.18504 0.57683 0.0
H85 H 0.53848 0.13578 0.6075 0.0
C86 C 0.54649 0.14779 0.57376 0.0
C87 C 0.46116 0.89214 0.43099 0.0
H88 H 0.46722 0.91776 0.40447 0.0
H89 H 0.45036 0.86079 0.41488 0.0
H90 H 0.49645 0.87595 0.45012 0.0
O91 O 0.5264 0.9259 0.54858 0.0
O92 O 0.575 0.97498 0.55531 0.0
C93 C 0.56491 0.96553 0.43736 0.0
O94 O 0.49201 0.0693 0.57447 0.0
O95 O 0.44308 0.0213 0.56544 0.0
Zn96 Zn 0.2869 0.26264 0.78541 0.0
O97 O 0.2345 0.3264 0.81451 0.0
C98 C 0.22588 0.20151 0.82436 0.0
Zn99 Zn 0.22567 0.2596 0.73869 0.0
C100 C 0.18937 0.34485 0.80173 0.0
O101 O 0.1738 0.32496 0.76849 0.0
C102 C 0.32401 0.17741 0.72279 0.0
O103 O 0.24806 0.30553 0.69032 0.0
O104 O 0.30831 0.30848 0.7366 0.0
N105 N 0.16988 0.25075 0.69807 0.0
C106 C 0.17063 0.22654 0.65882 0.0
C107 C 0.09658 0.24366 0.6843 0.0
N108 N 0.12366 0.26181 0.71356 0.0
N109 N 0.12518 0.22105 0.64965 0.0
C110 C 0.35324 0.31332 0.84047 0.0
C111 C 0.38701 0.25661 0.889 0.0
N112 N 0.3393 0.27192 0.83024 0.0
N113 N 0.36037 0.23675 0.86049 0.0
N114 N 0.38309 0.30454 0.87696 0.0
H115 H 0.29992 0.36859 0.79896 0.0
H116 H 0.36459 0.365 0.79157 0.0
H117 H 0.33215 0.39491 0.84034 0.0
C118 C 0.33597 0.36329 0.81651 0.0
C119 C 0.21494 0.21085 0.62842 0.0
H120 H 0.23893 0.23598 0.63275 0.0
H121 H 0.2025 0.21189 0.59297 0.0
H122 H 0.23754 0.17166 0.63653 0.0
O123 O 0.27835 0.19409 0.71059 0.0
O124 O 0.33939 0.19856 0.7554 0.0
C125 C 0.28632 0.31994 0.69888 0.0
O126 O 0.26427 0.21552 0.83322 0.0
O127 O 0.20396 0.21399 0.78687 0.0
Zn128 Zn 0.04819 0.99662 0.49014 0.0
O129 O 0.01266 0.94909 0.45851 0.0
C130 C 0.96446 0.08167 0.45448 0.0
Zn131 Zn 0.98389 0.01918 0.53588 0.0
C132 C 0.97407 0.93997 0.47393 0.0
O133 O 0.95328 0.96294 0.50884 0.0
C134 C 0.0583 0.07656 0.54984 0.0
O135 O 0.02396 0.9685 0.58394 0.0
O136 O 0.0836 0.93757 0.53564 0.0
N137 N 0.92626 0.04487 0.57916 0.0
C138 C 0.90856 0.01984 0.61039 0.0
C139 C 0.87012 0.09851 0.61838 0.0
N140 N 0.90228 0.09377 0.58398 0.0
N141 N 0.87384 0.05251 0.63533 0.0
C142 C 0.11573 0.97751 0.40514 0.0
C143 C 0.18456 0.93045 0.43165 0.0
N144 N 0.10801 0.96922 0.44853 0.0
N145 N 0.15057 0.93882 0.46461 0.0
N146 N 0.16386 0.95439 0.39371 0.0
H147 H 0.03947 0.0051 0.38234 0.0
H148 H 0.08384 1.00054 0.33905 0.0
H149 H 0.07495 0.05026 0.37947 0.0
C150 C 0.07637 0.01016 0.37468 0.0
C151 C 0.92598 0.96357 0.61784 0.0
H152 H 0.94384 0.94302 0.58776 0.0
H153 H 0.89403 0.94983 0.62747 0.0
H154 H 0.95343 0.95475 0.6459 0.0
O155 O 0.01501 0.07469 0.56055 0.0
O156 O 0.0841 0.04501 0.52191 0.0
C157 C 0.06531 0.93657 0.57427 0.0
O158 O 0.01007 0.0582 0.44628 0.0
O159 O 0.94432 0.07016 0.48911 0.0
Zn160 Zn 0.27819 0.79038 0.76725 0.0
O161 O 0.22254 0.82848 0.72249 0.0
C162 C 0.19642 0.80312 0.83535 0.0
Zn163 Zn 0.24327 0.72844 0.76919 0.0
C164 C 0.19217 0.80759 0.7054 0.0
O165 O 0.19335 0.76315 0.71711 0.0
C166 C 0.32909 0.71135 0.83137 0.0
O167 O 0.29776 0.69353 0.72164 0.0
O168 O 0.32538 0.75948 0.71341 0.0
N169 N 0.2151 0.66845 0.76809 0.0
C170 C 0.23636 0.61963 0.7569 0.0
C171 C 0.15782 0.63187 0.7589 0.0
N172 N 0.16625 0.67569 0.77028 0.0
N173 N 0.20123 0.59595 0.75017 0.0
C174 C 0.28459 0.90033 0.77555 0.0
C175 C 0.36352 0.88716 0.77622 0.0
N176 N 0.30622 0.85031 0.76905 0.0
N177 N 0.35523 0.84239 0.76888 0.0
N178 N 0.31988 0.92425 0.78061 0.0
H179 H 0.21352 0.91738 0.74182 0.0
H180 H 0.22073 0.96796 0.77584 0.0
H181 H 0.21028 0.91272 0.80154 0.0
C182 C 0.22919 0.92622 0.77381 0.0
C183 C 0.2915 0.59468 0.752 0.0
H184 H 0.30312 0.5994 0.71729 0.0
H185 H 0.30066 0.55345 0.75884 0.0
H186 H 0.31288 0.6117 0.77528 0.0
O187 O 0.29262 0.69513 0.82081 0.0
O188 O 0.33428 0.75058 0.81246 0.0
C189 C 0.32689 0.7147 0.70287 0.0
O190 O 0.23123 0.82022 0.82181 0.0
O191 O 0.18971 0.76441 0.81686 0.0
Zn192 Zn 0.54244 0.00342 0.04141 0.0
O193 O 0.49842 0.05856 0.08586 0.0
C194 C 0.46523 0.94851 0.05226 0.0
Zn195 Zn 0.47852 0.03027 0.99387 0.0
C196 C 0.45583 0.08906 0.07619 0.0
O197 O 0.43711 0.087 0.03765 0.0
C198 C 0.5655 0.94379 0.95978 0.0
O199 O 0.51428 0.08174 0.96832 0.0
O200 O 0.57788 0.05605 0.01495 0.0
N201 N 0.42464 0.05477 0.94558 0.0
C202 C 0.39816 0.02942 0.92291 0.0
C203 C 0.38027 0.10344 0.89419 0.0
N204 N 0.41345 0.10082 0.9278 0.0
N205 N 0.36948 0.05933 0.89117 0.0
C206 C 0.60932 0.00664 0.12262 0.0
C207 C 0.64407 0.92861 0.1379 0.0
N208 N 0.59561 0.97965 0.09026 0.0
N209 N 0.61734 0.93111 0.09967 0.0
N210 N 0.63893 0.97563 0.15297 0.0
H211 H 0.58019 0.08137 0.09247 0.0
H212 H 0.62695 0.07586 0.13556 0.0
H213 H 0.56489 0.07685 0.15042 0.0
C214 C 0.59441 0.06342 0.12488 0.0
C215 C 0.40336 0.97418 0.92927 0.0
H216 H 0.39696 0.95651 0.89737 0.0
H217 H 0.37506 0.97028 0.95376 0.0
H218 H 0.4409 0.9532 0.94217 0.0
O219 O 0.52191 0.97228 0.94963 0.0
O220 O 0.58452 0.94903 0.99749 0.0
C221 C 0.55569 0.08511 0.98333 0.0
O222 O 0.50773 0.95037 0.06588 0.0
O223 O 0.44235 0.97901 0.02181 0.0
Zn224 Zn 0.26838 0.29189 0.26752 0.0
O225 O 0.31564 0.26097 0.32136 0.0
C226 C 0.32783 0.21716 0.20637 0.0
Zn227 Zn 0.23547 0.22816 0.2627 0.0
C228 C 0.31406 0.2181 0.33511 0.0
O229 O 0.28407 0.19742 0.31667 0.0
C230 C 0.19089 0.30158 0.19438 0.0
O231 O 0.17632 0.26065 0.30823 0.0
O232 O 0.20881 0.32369 0.3118 0.0
N233 N 0.2189 0.16137 0.25709 0.0
C234 C 0.20638 0.13313 0.28896 0.0
C235 C 0.23139 0.08516 0.23258 0.0
N236 N 0.2339 0.13171 0.22189 0.0
N237 N 0.21505 0.08495 0.27479 0.0
C238 C 0.30242 0.38416 0.24173 0.0
C239 C 0.28671 0.42939 0.30081 0.0
N240 N 0.28686 0.35732 0.27292 0.0
N241 N 0.27736 0.38526 0.3097 0.0
N242 N 0.30204 0.42956 0.25827 0.0
H243 H 0.35724 0.33453 0.20011 0.0
H244 H 0.32734 0.39405 0.17404 0.0
H245 H 0.29425 0.34742 0.17981 0.0
C246 C 0.32091 0.36448 0.19617 0.0
C247 C 0.18287 0.15385 0.33269 0.0
H248 H 0.14858 0.18562 0.32592 0.0
H249 H 0.20907 0.16861 0.35253 0.0
H250 H 0.17149 0.12532 0.35257 0.0
O251 O 0.18769 0.25949 0.20887 0.0
O252 O 0.22097 0.322 0.21301 0.0
C253 C 0.17558 0.30363 0.32361 0.0
O254 O 0.32786 0.25933 0.22288 0.0
O255 O 0.29428 0.19732 0.2175 0.0
Zn256 Zn 0.48133 0.51538 0.03803 0.0
O257 O 0.52161 0.45688 0.08097 0.0
C258 C 0.56038 0.56769 0.05568 0.0
Zn259 Zn 0.54437 0.49572 0.99031 0.0
C260 C 0.56315 0.42688 0.06855 0.0
O261 O 0.58098 0.43367 0.03089 0.0
C262 C 0.46132 0.58495 0.9613 0.0
O263 O 0.50586 0.45114 0.95732 0.0
O264 O 0.44575 0.46547 0.00672 0.0
N265 N 0.60073 0.47224 0.94457 0.0
C266 C 0.60226 0.47968 0.90004 0.0
C267 C 0.676 0.44048 0.92144 0.0
N268 N 0.64646 0.44665 0.95758 0.0
N269 N 0.64976 0.46124 0.88438 0.0
C270 C 0.39937 0.5152 0.10714 0.0
C271 C 0.38209 0.58986 0.13392 0.0
N272 N 0.42646 0.53959 0.0843 0.0
N273 N 0.41545 0.58609 0.10075 0.0
N274 N 0.37094 0.54607 0.13791 0.0
H275 H 0.43878 0.43876 0.08656 0.0
H276 H 0.37205 0.45796 0.07828 0.0
H277 H 0.3976 0.44295 0.1336 0.0
C278 C 0.40259 0.46047 0.10119 0.0
C279 C 0.55619 0.49975 0.8716 0.0
H280 H 0.52152 0.50585 0.89088 0.0
H281 H 0.5546 0.471 0.84642 0.0
H282 H 0.55657 0.53531 0.85459 0.0
O283 O 0.506 0.56032 0.95138 0.0
O284 O 0.44173 0.57281 0.99601 0.0
C285 C 0.46586 0.44358 0.9711 0.0
O286 O 0.51755 0.5652 0.06718 0.0
O287 O 0.58338 0.5402 0.02388 0.0
Zn288 Zn 0.77977 0.28863 0.26196 0.0
O289 O 0.72558 0.31852 0.21255 0.0
C290 C 0.6975 0.31024 0.33226 0.0
Zn291 Zn 0.7408 0.22989 0.26941 0.0
C292 C 0.68976 0.30132 0.20194 0.0
O293 O 0.68449 0.26267 0.22191 0.0
C294 C 0.83184 0.21556 0.32835 0.0
O295 O 0.78956 0.19235 0.21698 0.0
O296 O 0.82798 0.25076 0.21184 0.0
N297 N 0.7159 0.16871 0.27943 0.0
C298 C 0.71047 0.13305 0.25112 0.0
C299 C 0.69629 0.1104 0.31685 0.0
N300 N 0.70704 0.15467 0.32029 0.0
N301 N 0.69933 0.09572 0.27383 0.0
C302 C 0.78197 0.39948 0.26008 0.0
C303 C 0.85975 0.39046 0.26538 0.0
N304 N 0.80604 0.34963 0.25603 0.0
N305 N 0.85456 0.34424 0.25824 0.0
N306 N 0.81471 0.42601 0.26701 0.0
H307 H 0.70532 0.39537 0.2594 0.0
H308 H 0.71745 0.44245 0.22384 0.0
H309 H 0.71303 0.45293 0.28265 0.0
C310 C 0.72627 0.42328 0.25686 0.0
C311 C 0.71384 0.13565 0.20114 0.0
H312 H 0.70862 0.17486 0.18946 0.0
H313 H 0.68527 0.1208 0.18501 0.0
H314 H 0.75119 0.11152 0.19057 0.0
O315 O 0.7964 0.19844 0.31664 0.0
O316 O 0.83558 0.25605 0.31072 0.0
C317 C 0.82242 0.20921 0.19865 0.0
O318 O 0.73039 0.32653 0.3135 0.0
O319 O 0.69307 0.2678 0.32056 0.0
Zn320 Zn 0.03362 0.50576 0.52871 0.0
O321 O 0.99969 0.56707 0.57349 0.0
C322 C 0.96203 0.45032 0.55448 0.0
Zn323 Zn 0.96601 0.52707 0.48481 0.0
C324 C 0.9543 0.59246 0.56637 0.0
O325 O 0.93209 0.58276 0.53195 0.0
C326 C 0.04479 0.43994 0.44691 0.0
O327 O 0.99526 0.57972 0.45056 0.0
O328 O 0.06354 0.55476 0.49154 0.0
N329 N 0.9009 0.551 0.44797 0.0
C330 C 0.89137 0.54732 0.40412 0.0
C331 C 0.82125 0.57523 0.43636 0.0
N332 N 0.85717 0.56978 0.46781 0.0
N333 N 0.84154 0.56105 0.39578 0.0
C334 C 0.10779 0.48817 0.60968 0.0
C335 C 0.17764 0.4557 0.57784 0.0
N336 N 0.09804 0.48241 0.56614 0.0
N337 N 0.14151 0.46107 0.54662 0.0
N338 N 0.15763 0.47234 0.61796 0.0
H339 H 0.06509 0.55326 0.64572 0.0
H340 H 0.07898 0.49526 0.67708 0.0
H341 H 0.03212 0.50728 0.63414 0.0
C342 C 0.06865 0.51233 0.64352 0.0
C343 C 0.9311 0.52801 0.36977 0.0
H344 H 0.96647 0.53461 0.38077 0.0
H345 H 0.92031 0.54779 0.33736 0.0
H346 H 0.93672 0.48698 0.36462 0.0
O347 O 0.00142 0.46946 0.43791 0.0
O348 O 0.0661 0.44575 0.48332 0.0
C349 C 0.03861 0.58271 0.46042 0.0
O350 O 0.00327 0.45761 0.56533 0.0
O351 O 0.93787 0.47347 0.52054 0.0
Zn352 Zn 0.73673 0.74733 0.24744 0.0
O353 O 0.75386 0.79399 0.19545 0.0
C354 C 0.83425 0.6679 0.23079 0.0
Zn355 Zn 0.79747 0.7564 0.29213 0.0
C356 C 0.79294 0.80785 0.20203 0.0
O357 O 0.81549 0.79834 0.23957 0.0
C358 C 0.74441 0.69385 0.3374 0.0
O359 O 0.74494 0.82333 0.31834 0.0
O360 O 0.68405 0.81124 0.27782 0.0
N361 N 0.85516 0.76755 0.3297 0.0
C362 C 0.85701 0.79578 0.36618 0.0
C363 C 0.93145 0.7664 0.34216 0.0
N364 N 0.90165 0.74883 0.3153 0.0
N365 N 0.90456 0.79555 0.37472 0.0
C366 C 0.67874 0.71027 0.17158 0.0
C367 C 0.60995 0.71599 0.20452 0.0
N368 N 0.68004 0.73288 0.2114 0.0
N369 N 0.63708 0.73669 0.23156 0.0
N370 N 0.63541 0.69851 0.16684 0.0
H371 H 0.73445 0.73508 0.13687 0.0
H372 H 0.7022 0.70053 0.10264 0.0
H373 H 0.74868 0.66797 0.14298 0.0
C374 C 0.71812 0.70321 0.13635 0.0
C375 C 0.81191 0.82722 0.39069 0.0
H376 H 0.79511 0.86256 0.3715 0.0
H377 H 0.82143 0.83812 0.42439 0.0
H378 H 0.78406 0.80612 0.39411 0.0
O379 O 0.7793 0.71359 0.34463 0.0
O380 O 0.72222 0.70058 0.29956 0.0
C381 C 0.69883 0.83649 0.30754 0.0
O382 O 0.78875 0.68387 0.21838 0.0
O383 O 0.8488 0.68969 0.2634 0.0
Zn384 Zn 0.7265 0.25947 0.78613 0.0
O385 O 0.77727 0.19251 0.8127 0.0
C386 C 0.7876 0.31699 0.83012 0.0
Zn387 Zn 0.78786 0.26542 0.74082 0.0
C388 C 0.82221 0.17502 0.79962 0.0
O389 O 0.83739 0.19741 0.76796 0.0
C390 C 0.69195 0.3493 0.72683 0.0
O391 O 0.76441 0.2243 0.68915 0.0
O392 O 0.70543 0.21692 0.73439 0.0
N393 N 0.84517 0.27521 0.70214 0.0
C394 C 0.84664 0.30307 0.66516 0.0
C395 C 0.92009 0.2795 0.69307 0.0
N396 N 0.89116 0.25987 0.71876 0.0
N397 N 0.89315 0.30771 0.65946 0.0
C398 C 0.67166 0.22491 0.86533 0.0
C399 C 0.59682 0.24331 0.84071 0.0
N400 N 0.67034 0.24893 0.8257 0.0
N401 N 0.62362 0.26068 0.8107 0.0
N402 N 0.62612 0.22056 0.87533 0.0
H403 H 0.7371 0.16762 0.88784 0.0
H404 H 0.70532 0.20995 0.93087 0.0
H405 H 0.74241 0.23081 0.88987 0.0
C406 C 0.71678 0.20763 0.89523 0.0
C407 C 0.80293 0.32464 0.63436 0.0
H408 H 0.77025 0.31229 0.64366 0.0
H409 H 0.81276 0.31034 0.60004 0.0
H410 H 0.79331 0.36653 0.6336 0.0
O411 O 0.7377 0.3332 0.71583 0.0
O412 O 0.676 0.32624 0.75753 0.0
C413 C 0.72671 0.20863 0.6964 0.0
O414 O 0.74896 0.3028 0.83714 0.0
O415 O 0.80996 0.30658 0.79282 0.0
Zn416 Zn 0.78132 0.7948 0.76706 0.0
O417 O 0.83156 0.7611 0.81759 0.0
C418 C 0.83256 0.71888 0.70338 0.0
Zn419 Zn 0.74237 0.73578 0.76531 0.0
C420 C 0.82602 0.72103 0.83432 0.0
O421 O 0.79219 0.70327 0.81891 0.0
C422 C 0.69751 0.81037 0.69848 0.0
O423 O 0.68537 0.77183 0.81171 0.0
O424 O 0.72712 0.82737 0.81587 0.0
N425 N 0.71936 0.67267 0.76084 0.0
C426 C 0.71335 0.64009 0.79222 0.0
C427 C 0.70491 0.60858 0.72861 0.0
N428 N 0.71399 0.65312 0.72133 0.0
N429 N 0.7049 0.59925 0.77288 0.0
C430 C 0.81373 0.88761 0.73953 0.0
C431 C 0.80649 0.92863 0.80092 0.0
N432 N 0.80299 0.85842 0.77158 0.0
N433 N 0.79877 0.88375 0.80973 0.0
N434 N 0.8152 0.93207 0.757 0.0
H435 H 0.86117 0.83821 0.69236 0.0
H436 H 0.83346 0.90087 0.67098 0.0
H437 H 0.79638 0.8578 0.67694 0.0
C438 C 0.82654 0.87076 0.69215 0.0
C439 C 0.71424 0.64912 0.84167 0.0
H440 H 0.70688 0.6897 0.84931 0.0
H441 H 0.75175 0.62853 0.85516 0.0
H442 H 0.68608 0.63476 0.85882 0.0
O443 O 0.69392 0.76856 0.71298 0.0
O444 O 0.72984 0.82885 0.71574 0.0
C445 C 0.69095 0.81197 0.82851 0.0
O446 O 0.83632 0.76055 0.71841 0.0
O447 O 0.79824 0.70173 0.71802 0.0
Zn448 Zn 0.53439 0.54133 0.51049 0.0
O449 O 0.58018 0.50572 0.56619 0.0
C450 C 0.56528 0.44374 0.45918 0.0
Zn451 Zn 0.48334 0.49265 0.52081 0.0
C452 C 0.56682 0.47278 0.58879 0.0
O453 O 0.5286 0.46029 0.57633 0.0
C454 C 0.44956 0.56176 0.44317 0.0
O455 O 0.44219 0.55079 0.56247 0.0
O456 O 0.49229 0.59785 0.55363 0.0
N457 N 0.43631 0.44817 0.53502 0.0
C458 C 0.40442 0.4483 0.56904 0.0
C459 C 0.40866 0.38317 0.52963 0.0
N460 N 0.43843 0.40772 0.51052 0.0
N461 N 0.38688 0.40777 0.56654 0.0
C462 C 0.62542 0.57787 0.47852 0.0
C463 C 0.59372 0.65775 0.48327 0.0
N464 N 0.5795 0.58651 0.49661 0.0
N465 N 0.56025 0.63627 0.4999 0.0
N466 N 0.63509 0.62192 0.46965 0.0
H467 H 0.65533 0.49875 0.49539 0.0
H468 H 0.70077 0.5286 0.47566 0.0
H469 H 0.65806 0.51436 0.43674 0.0
C470 C 0.66194 0.5267 0.47141 0.0
C471 C 0.38836 0.48935 0.60335 0.0
H472 H 0.4216 0.49177 0.62247 0.0
H473 H 0.36026 0.48313 0.6268 0.0
H474 H 0.37053 0.52596 0.58629 0.0
O475 O 0.43843 0.52696 0.46489 0.0
O476 O 0.48728 0.57528 0.45559 0.0
C477 C 0.45404 0.59053 0.57135 0.0
O478 O 0.5751 0.48484 0.46729 0.0
O479 O 0.52802 0.43501 0.47807 0.0
Zn480 Zn 0.03736 0.53418 0.01864 0.0
O481 O 0.99586 0.59815 0.98197 0.0
C482 C 0.96118 0.55114 0.09194 0.0
Zn483 Zn 0.9836 0.48885 0.00768 0.0
C484 C 0.95508 0.59396 0.96594 0.0
O485 O 0.94321 0.55365 0.97258 0.0
C486 C 0.06578 0.42907 0.06046 0.0
O487 O 0.02269 0.45864 0.94732 0.0
O488 O 0.07514 0.50239 0.95913 0.0
N489 N 0.92625 0.45782 0.99348 0.0
C490 C 0.92299 0.41986 0.96644 0.0
C491 C 0.84898 0.4583 0.98779 0.0
N492 N 0.88013 0.48132 0.00693 0.0
N493 N 0.8749 0.4196 0.962 0.0
C494 C 0.09697 0.60518 0.05729 0.0
C495 C 0.17177 0.56328 0.04111 0.0
N496 N 0.09454 0.56509 0.03271 0.0
N497 N 0.14114 0.53949 0.02233 0.0
N498 N 0.14515 0.60454 0.06369 0.0
H499 H 0.01981 0.64965 0.04926 0.0
H500 H 0.06075 0.68355 0.07223 0.0
H501 H 0.04168 0.63914 0.10608 0.0
C502 C 0.05212 0.6469 0.07184 0.0
C503 C 0.96694 0.38195 0.94575 0.0
H504 H 0.97366 0.39577 0.91227 0.0
H505 H 0.95926 0.34511 0.94142 0.0
H506 H 1.00093 0.37656 0.96682 0.0
O507 O 0.02536 0.42458 0.04385 0.0
O508 O 0.07732 0.46963 0.05417 0.0
C509 C 0.06114 0.47094 0.93536 0.0
O510 O 0.99871 0.56448 0.07902 0.0
O511 O 0.9464 0.5202 0.06806 0.0
C512 C 0.15805 0.16496 0.84806 0.0
C513 C 0.20366 0.17471 0.8581 0.0
C514 C 0.13333 0.14402 0.87994 0.0
C515 C 0.15362 0.13062 0.92295 0.0
H516 H 0.14027 0.17493 0.81563 0.0
H517 H 0.09729 0.1395 0.87124 0.0
S518 S 0.27153 0.14786 0.96701 0.0
N519 N 0.26763 0.16957 0.91511 0.0
N520 N 0.2215 0.1288 0.9744 0.0
C521 C 0.19911 0.13979 0.9336 0.0
C522 C 0.22421 0.16174 0.90129 0.0
C523 C 0.13975 0.94276 0.12726 0.0
C524 C 0.08869 0.94582 0.12555 0.0
C525 C 0.17137 0.91443 0.16062 0.0
C526 C 0.15321 0.88812 0.19362 0.0
H527 H 0.15603 0.96032 0.10141 0.0
H528 H 0.21073 0.91173 0.1595 0.0
S529 S 0.02021 0.89376 0.20974 0.0
N530 N 0.01983 0.92699 0.16369 0.0
N531 N 0.07915 0.87392 0.22661 0.0
C532 C 0.10134 0.89479 0.19468 0.0
C533 C 0.06917 0.92336 0.16044 0.0
C534 C 0.31934 0.86711 0.44038 0.0
C535 C 0.34795 0.89893 0.42798 0.0
C536 C 0.29529 0.84565 0.40787 0.0
C537 C 0.29875 0.85577 0.36195 0.0
H538 H 0.31669 0.85779 0.47532 0.0
H539 H 0.27527 0.81972 0.41869 0.0
S540 S 0.36154 0.94423 0.31321 0.0
N541 N 0.37289 0.94478 0.3675 0.0
N542 N 0.32823 0.90451 0.30645 0.0
C543 C 0.32502 0.88981 0.34952 0.0
C544 C 0.34944 0.91143 0.38251 0.0
C545 C 0.40758 0.14471 0.68595 0.0
C546 C 0.35995 0.13952 0.69442 0.0
C547 C 0.4385 0.11624 0.65245 0.0
C548 C 0.42335 0.08116 0.62604 0.0
H549 H 0.42007 0.17292 0.70368 0.0
H550 H 0.47405 0.12288 0.6466 0.0
S551 S 0.30505 0.04762 0.64031 0.0
N552 N 0.3015 0.09241 0.67769 0.0
N553 N 0.35907 0.0391 0.6147 0.0
C554 C 0.37704 0.07325 0.6364 0.0
C555 C 0.34553 0.1024 0.67048 0.0
C556 C 0.12872 0.85529 0.59587 0.0
C557 C 0.09336 0.90095 0.60861 0.0
C558 C 0.1589 0.82309 0.62794 0.0
C559 C 0.15498 0.83625 0.67335 0.0
H560 H 0.13376 0.84487 0.56088 0.0
H561 H 0.18694 0.78901 0.61701 0.0
S562 S 0.06763 0.94996 0.72448 0.0
N563 N 0.05497 0.95626 0.67031 0.0
N564 N 0.1128 0.896 0.73015 0.0
C565 C 0.11909 0.88077 0.68675 0.0
C566 C 0.08783 0.91311 0.65441 0.0
C567 C 0.34888 0.99932 0.78587 0.0
C568 C 0.31636 0.97242 0.80057 0.0
C569 C 0.36129 0.03453 0.81376 0.0
C570 C 0.34139 0.04365 0.85698 0.0
H571 H 0.36866 0.9892 0.75458 0.0
H572 H 0.39082 0.05007 0.80364 0.0
S573 S 0.24761 0.99157 0.90819 0.0
N574 N 0.25952 0.96308 0.85923 0.0
N575 N 0.28168 0.03095 0.91023 0.0
C576 C 0.30375 0.0227 0.86944 0.0
C577 C 0.29162 0.98631 0.84163 0.0
C578 C 0.3889 0.16836 0.09685 0.0
C579 C 0.42737 0.1249 0.11021 0.0
C580 C 0.35872 0.20056 0.12857 0.0
C581 C 0.36603 0.19019 0.17454 0.0
H582 H 0.38128 0.17695 0.06163 0.0
H583 H 0.32812 0.23245 0.11706 0.0
S584 S 0.46123 0.08228 0.22741 0.0
N585 N 0.47124 0.07408 0.17312 0.0
N586 N 0.4141 0.13471 0.23229 0.0
C587 C 0.40489 0.14791 0.1885 0.0
C588 C 0.43582 0.11526 0.15641 0.0
C589 C 0.17696 0.97411 0.31494 0.0
C590 C 0.1909 0.97282 0.36037 0.0
C591 C 0.18796 0.00878 0.2854 0.0
C592 C 0.21473 0.04126 0.3005 0.0
H593 H 0.15362 0.95166 0.30335 0.0
H594 H 0.17235 0.01293 0.25184 0.0
S595 S 0.27504 0.03903 0.41135 0.0
N596 N 0.2422 0.99866 0.41602 0.0
N597 N 0.26728 0.05947 0.35906 0.0
C598 C 0.23669 0.03328 0.34323 0.0
C599 C 0.22384 0.99985 0.37366 0.0
C600 C 0.83399 0.14894 0.1351 0.0
C601 C 0.85289 0.18105 0.16157 0.0
C602 C 0.86259 0.11983 0.1011 0.0
C603 C 0.91125 0.12178 0.09204 0.0
H604 H 0.79676 0.14614 0.14065 0.0
H605 H 0.84662 0.0949 0.08225 0.0
S606 S 0.97762 0.20117 0.15083 0.0
N607 N 0.9227 0.21449 0.17569 0.0
N608 N 0.97671 0.15962 0.11149 0.0
C609 C 0.93007 0.15513 0.11715 0.0
C610 C 0.90082 0.18481 0.15199 0.0
C611 C 0.03246 0.64866 0.40082 0.0
C612 C 0.05968 0.61869 0.4362 0.0
C613 C 0.05155 0.68297 0.37758 0.0
C614 C 0.09821 0.6886 0.38898 0.0
H615 H 0.99623 0.64552 0.3908 0.0
H616 H 0.03023 0.70485 0.35016 0.0
S617 S 0.18467 0.62043 0.47809 0.0
N618 N 0.13649 0.59768 0.48101 0.0
N619 N 0.17136 0.66255 0.43707 0.0
C620 C 0.12583 0.65933 0.42393 0.0
C621 C 0.10679 0.6243 0.44763 0.0
C622 C 0.64329 0.90949 0.6104 0.0
C623 C 0.59985 0.89825 0.59579 0.0
C624 C 0.67472 0.88026 0.64293 0.0
C625 C 0.66449 0.83813 0.6622 0.0
H626 H 0.65291 0.94195 0.59736 0.0
H627 H 0.707 0.89147 0.65338 0.0
S628 S 0.55747 0.79008 0.63373 0.0
N629 N 0.54935 0.84054 0.60154 0.0
N630 N 0.60914 0.78478 0.6629 0.0
C631 C 0.62224 0.82504 0.64688 0.0
C632 C 0.5898 0.85525 0.61362 0.0
C633 C 0.40597 0.39173 0.96517 0.0
C634 C 0.44407 0.4087 0.94603 0.0
C635 C 0.38631 0.35735 0.94255 0.0
C636 C 0.40375 0.33922 0.89997 0.0
H637 H 0.39164 0.40457 0.99806 0.0
H638 H 0.35721 0.34488 0.95823 0.0
S639 S 0.50189 0.37136 0.83455 0.0
N640 N 0.49795 0.40421 0.88119 0.0
N641 N 0.46031 0.34004 0.83928 0.0
C642 C 0.44115 0.35595 0.88022 0.0
C643 C 0.46153 0.39054 0.90313 0.0
C644 C 0.94163 0.86521 0.379 0.0
C645 C 0.92123 0.83103 0.40086 0.0
C646 C 0.95793 0.90063 0.40312 0.0
C647 C 0.95389 0.90362 0.45002 0.0
H648 H 0.94475 0.86458 0.34286 0.0
H649 H 0.97361 0.92612 0.3848 0.0
S650 S 0.90706 0.81956 0.52332 0.0
N651 N 0.90132 0.79943 0.47207 0.0
N652 N 0.93003 0.8678 0.51769 0.0
C653 C 0.93378 0.86944 0.47242 0.0
C654 C 0.91806 0.83256 0.44776 0.0
C655 C 0.39767 0.67424 0.59532 0.0
C656 C 0.42646 0.62459 0.60593 0.0
C657 C 0.36662 0.70466 0.6276 0.0
C658 C 0.36377 0.68579 0.67091 0.0
H659 H 0.39774 0.68879 0.56161 0.0
H660 H 0.34324 0.74213 0.61818 0.0
S661 S 0.43883 0.56162 0.71675 0.0
N662 N 0.45527 0.56037 0.66364 0.0
N663 N 0.3969 0.61733 0.72423 0.0
C664 C 0.39473 0.63737 0.6824 0.0
C665 C 0.42618 0.6067 0.6498 0.0
C666 C 0.62442 0.10533 0.94162 0.0
C667 C 0.57766 0.12192 0.9627 0.0
C668 C 0.64144 0.13849 0.91472 0.0
C669 C 0.61259 0.1894 0.90872 0.0
H670 H 0.64649 0.06588 0.94371 0.0
H671 H 0.67592 0.1234 0.89647 0.0
S672 S 0.49144 0.25254 0.96268 0.0
N673 N 0.50518 0.19307 0.97954 0.0
N674 N 0.53773 0.25567 0.92982 0.0
C675 C 0.56725 0.20687 0.93184 0.0
C676 C 0.5497 0.17307 0.95871 0.0
C677 C 0.14754 0.39191 0.09804 0.0
C678 C 0.09872 0.38979 0.08949 0.0
C679 C 0.17755 0.36165 0.13089 0.0
C680 C 0.16021 0.32768 0.15635 0.0
H681 H 0.16227 0.41855 0.08032 0.0
H682 H 0.21424 0.36596 0.13711 0.0
S683 S 0.03684 0.30453 0.14486 0.0
N684 N 0.03535 0.34876 0.10718 0.0
N685 N 0.09249 0.29101 0.16915 0.0
C686 C 0.11266 0.32279 0.14651 0.0
C687 C 0.08173 0.35404 0.11296 0.0
C688 C 0.71461 0.49799 0.85813 0.0
C689 C 0.67198 0.48243 0.84848 0.0
C690 C 0.72767 0.53317 0.83113 0.0
C691 C 0.69804 0.55513 0.79411 0.0
H692 H 0.73606 0.48606 0.88862 0.0
H693 H 0.75972 0.5451 0.84068 0.0
S694 S 0.59732 0.51149 0.7432 0.0
N695 N 0.61298 0.47744 0.78945 0.0
N696 N 0.63347 0.54896 0.74178 0.0
C697 C 0.66059 0.53427 0.77995 0.0
C698 C 0.6485 0.49659 0.80652 0.0
C699 C 0.67655 0.34283 0.12792 0.0
C700 C 0.65602 0.32627 0.1656 0.0
C701 C 0.64584 0.37286 0.09521 0.0
C702 C 0.59349 0.38837 0.09965 0.0
H703 H 0.7168 0.3336 0.12428 0.0
H704 H 0.66349 0.38614 0.06752 0.0
S705 S 0.52138 0.35153 0.19064 0.0
N706 N 0.58061 0.32392 0.20424 0.0
N707 N 0.52225 0.38187 0.14309 0.0
C708 C 0.57237 0.37014 0.13626 0.0
C709 C 0.60385 0.33858 0.16919 0.0
C710 C 0.82742 0.54571 0.31594 0.0
C711 C 0.81873 0.5386 0.36154 0.0
C712 C 0.82228 0.51069 0.28363 0.0
C713 C 0.8064 0.46897 0.29597 0.0
H714 H 0.84204 0.57613 0.30584 0.0
H715 H 0.8337 0.51435 0.24952 0.0
S716 S 0.77031 0.43872 0.40947 0.0
N717 N 0.78716 0.49056 0.41609 0.0
N718 N 0.77651 0.42582 0.35555 0.0
C719 C 0.79209 0.46499 0.34049 0.0
C720 C 0.79799 0.49993 0.37322 0.0
C721 C 0.67497 0.6134 0.39567 0.0
C722 C 0.67164 0.63127 0.43993 0.0
C723 C 0.70112 0.63175 0.36308 0.0
C724 C 0.7255 0.66805 0.37376 0.0
H725 H 0.65433 0.58776 0.3855 0.0
H726 H 0.70058 0.61891 0.32888 0.0
S727 S 0.73217 0.72254 0.48627 0.0
N728 N 0.69747 0.68421 0.49361 0.0
N729 N 0.74797 0.7179 0.43288 0.0
C730 C 0.72529 0.6835 0.41868 0.0
C731 C 0.69789 0.66541 0.4516 0.0
C732 C 0.84472 0.36728 0.85292 0.0
C733 C 0.80808 0.34404 0.86493 0.0
C734 C 0.86672 0.39124 0.88481 0.0
C735 C 0.85339 0.39275 0.93017 0.0
H736 H 0.85651 0.36722 0.81843 0.0
H737 H 0.89373 0.40962 0.87371 0.0
S738 S 0.76018 0.33774 0.97989 0.0
N739 N 0.75976 0.32412 0.92606 0.0
N740 N 0.8012 0.36966 0.98576 0.0
C741 C 0.81653 0.37037 0.94277 0.0
C742 C 0.794 0.34579 0.91029 0.0
C743 C 0.78726 0.85525 0.12854 0.0
C744 C 0.81561 0.83069 0.16571 0.0
C745 C 0.80891 0.87793 0.09505 0.0
C746 C 0.85965 0.87617 0.09744 0.0
H747 H 0.74794 0.85797 0.12583 0.0
H748 H 0.78582 0.89757 0.06749 0.0
S749 S 0.95273 0.80649 0.18139 0.0
N750 N 0.89916 0.79988 0.19874 0.0
N751 N 0.93919 0.84131 0.13544 0.0
C752 C 0.88898 0.84896 0.13258 0.0
C753 C 0.86714 0.82653 0.16679 0.0
C754 C 0.83927 0.10272 0.85398 0.0
C755 C 0.85768 0.13413 0.82607 0.0
C756 C 0.8696 0.07207 0.88705 0.0
C757 C 0.91951 0.07182 0.89359 0.0
H758 H 0.80049 0.10332 0.85151 0.0
H759 H 0.85294 0.05054 0.9091 0.0
S760 S 0.98834 0.1404 0.82412 0.0
N761 N 0.93092 0.15796 0.80333 0.0
N762 N 0.98788 0.10054 0.86519 0.0
C763 C 0.93954 0.09982 0.86339 0.0
C764 C 0.90871 0.13078 0.82959 0.0
C765 C 0.66508 0.16466 0.67075 0.0
C766 C 0.7056 0.18318 0.66072 0.0
C767 C 0.64282 0.14212 0.63793 0.0
C768 C 0.65975 0.13741 0.59348 0.0
H769 H 0.65046 0.16715 0.70445 0.0
H770 H 0.61326 0.12669 0.64792 0.0
S771 S 0.76476 0.17868 0.5491 0.0
N772 N 0.76196 0.19464 0.60251 0.0
N773 N 0.71986 0.15202 0.54105 0.0
C774 C 0.70038 0.15524 0.58286 0.0
C775 C 0.72324 0.17827 0.61631 0.0
C776 C 0.586 0.89561 0.38016 0.0
C777 C 0.59676 0.93753 0.39986 0.0
C778 C 0.61762 0.86523 0.34819 0.0
C779 C 0.66196 0.87487 0.33476 0.0
H780 H 0.5538 0.88473 0.3905 0.0
H781 H 0.60852 0.83227 0.33569 0.0
S782 S 0.70496 0.98327 0.37077 0.0
N783 N 0.65322 0.98972 0.39958 0.0
N784 N 0.71273 0.93209 0.33988 0.0
C785 C 0.67223 0.9179 0.35225 0.0
C786 C 0.63968 0.94931 0.3846 0.0
C787 C 0.84846 0.16332 0.39665 0.0
C788 C 0.86713 0.18756 0.36267 0.0
C789 C 0.88053 0.13039 0.42658 0.0
C790 C 0.93282 0.11971 0.42347 0.0
H791 H 0.80855 0.16898 0.3996 0.0
H792 H 0.86393 0.11196 0.45151 0.0
S793 S 1.00042 0.1766 0.34215 0.0
N794 N 0.94069 0.20141 0.32868 0.0
N795 N 0.00176 0.13884 0.38542 0.0
C796 C 0.9521 0.14515 0.3906 0.0
C797 C 0.91904 0.17942 0.36015 0.0
C798 C 0.63961 0.0497 0.25578 0.0
C799 C 0.68886 0.05232 0.25542 0.0
C800 C 0.62442 0.01897 0.22507 0.0
C801 C 0.65813 0.99051 0.19339 0.0
H802 H 0.61179 0.07525 0.27661 0.0
H803 H 0.58515 0.02123 0.22301 0.0
S804 S 0.79324 0.9769 0.18586 0.0
N805 N 0.77315 0.01735 0.22717 0.0
N806 N 0.74389 0.96118 0.16798 0.0
C807 C 0.70857 0.98832 0.19653 0.0
C808 C 0.72416 0.019 0.22807 0.0
C809 C 0.67841 0.86196 0.8984 0.0
C810 C 0.65746 0.84086 0.86344 0.0
C811 C 0.64821 0.89389 0.92997 0.0
C812 C 0.59569 0.90705 0.92726 0.0
H813 H 0.71865 0.85417 0.90112 0.0
H814 H 0.66629 0.90966 0.9559 0.0
S815 S 0.52225 0.86071 0.84259 0.0
N816 N 0.58122 0.83363 0.82858 0.0
N817 N 0.52392 0.89514 0.8874 0.0
C818 C 0.57412 0.88557 0.89282 0.0
C819 C 0.60515 0.85198 0.86109 0.0
C820 C 0.87771 0.02282 0.71237 0.0
C821 C 0.84938 0.03987 0.67331 0.0
C822 C 0.86377 0.99076 0.74255 0.0
C823 C 0.8214 0.97506 0.73396 0.0
H824 H 0.91339 0.03006 0.71698 0.0
H825 H 0.88851 0.97446 0.77026 0.0
S826 S 0.73065 0.01651 0.64081 0.0
N827 N 0.77417 0.04444 0.63082 0.0
N828 N 0.74708 0.98497 0.68827 0.0
C829 C 0.78973 0.9968 0.69804 0.0
C830 C 0.80401 0.02916 0.66737 0.0
C831 C 0.1122 0.834 0.87066 0.0
C832 C 0.16369 0.82915 0.87168 0.0
C833 C 0.07965 0.86435 0.902 0.0
C834 C 0.0979 0.89041 0.93511 0.0
H835 H 0.09667 0.81633 0.84425 0.0
H836 H 0.03983 0.86958 0.8988 0.0
S837 S 0.23085 0.8807 0.9578 0.0
N838 N 0.23226 0.84648 0.91232 0.0
N839 N 0.17121 0.90318 0.97134 0.0
C840 C 0.14973 0.88264 0.93843 0.0
C841 C 0.18266 0.85207 0.9066 0.0
C842 C 0.91133 0.3895 0.56282 0.0
C843 C 0.94284 0.4153 0.58177 0.0
C844 C 0.89512 0.35434 0.58797 0.0
C845 C 0.90893 0.34443 0.63335 0.0
H846 H 0.90035 0.39531 0.52789 0.0
H847 H 0.87357 0.33349 0.57091 0.0
S848 S 0.98882 0.40452 0.69939 0.0
N849 N 0.9863 0.42951 0.64892 0.0
N850 N 0.95475 0.36516 0.69633 0.0
C851 C 0.93982 0.37084 0.65272 0.0
C852 C 0.95688 0.40587 0.62701 0.0
C853 C 0.36983 0.11999 0.42328 0.0
C854 C 0.41701 0.12656 0.43189 0.0
C855 C 0.3362 0.15126 0.3933 0.0
C856 C 0.34814 0.19058 0.3707 0.0
H857 H 0.35893 0.08967 0.43914 0.0
H858 H 0.30084 0.14384 0.38717 0.0
S859 S 0.46511 0.22658 0.38377 0.0
N860 N 0.47288 0.17739 0.41749 0.0
N861 N 0.40916 0.23667 0.3607 0.0
C862 C 0.39412 0.19942 0.38047 0.0
C863 C 0.42869 0.16727 0.41118 0.0
C864 C 0.55158 0.65045 0.09246 0.0
C865 C 0.58251 0.60254 0.0796 0.0
C866 C 0.57014 0.68261 0.11895 0.0
C867 C 0.62012 0.66803 0.13391 0.0
H868 H 0.51245 0.66281 0.08261 0.0
H869 H 0.54488 0.71864 0.1291 0.0
S870 S 0.71516 0.54442 0.11252 0.0
N871 N 0.66511 0.54132 0.08445 0.0
N872 N 0.69933 0.60078 0.13628 0.0
C873 C 0.65151 0.62012 0.12125 0.0
C874 C 0.63283 0.58767 0.0935 0.0
C875 C 0.14329 0.1386 0.61092 0.0
C876 C 0.11149 0.18807 0.61813 0.0
C877 C 0.12684 0.10313 0.5866 0.0
C878 C 0.07767 0.11562 0.56983 0.0
H879 H 0.17999 0.12613 0.62632 0.0
H880 H 0.15175 0.06496 0.58313 0.0
S881 S 0.9818 0.24079 0.57545 0.0
N882 N 0.03026 0.24856 0.60313 0.0
N883 N 0.99887 0.18141 0.55855 0.0
C884 C 0.04629 0.16526 0.57525 0.0
C885 C 0.06326 0.20154 0.59923 0.0
C886 C 0.65773 0.39434 0.36626 0.0
C887 C 0.66311 0.34226 0.36529 0.0
C888 C 0.62511 0.42646 0.39601 0.0
C889 C 0.597 0.40795 0.42686 0.0
H890 H 0.67833 0.41088 0.34337 0.0
H891 H 0.62152 0.46643 0.39428 0.0
S892 S 0.59682 0.27444 0.43811 0.0
N893 N 0.63675 0.27334 0.39731 0.0
N894 N 0.57592 0.33407 0.45433 0.0
C895 C 0.60135 0.35599 0.42613 0.0
C896 C 0.6344 0.32307 0.39522 0.0
C897 C 0.47397 0.86519 0.08882 0.0
C898 C 0.44267 0.91206 0.07335 0.0
C899 C 0.45499 0.83257 0.11429 0.0
C900 C 0.4041 0.84551 0.12577 0.0
H901 H 0.51381 0.85421 0.08224 0.0
H902 H 0.48071 0.79771 0.12681 0.0
S903 S 0.30677 0.96514 0.09488 0.0
N904 N 0.35816 0.96982 0.07073 0.0
N905 N 0.323 0.90978 0.1208 0.0
C906 C 0.37212 0.89199 0.10982 0.0
C907 C 0.39131 0.92487 0.08299 0.0
C908 C 0.87137 0.63504 0.93338 0.0
C909 C 0.92191 0.63345 0.9374 0.0
C910 C 0.84026 0.66517 0.90103 0.0
C911 C 0.85847 0.69471 0.8713 0.0
H912 H 0.85599 0.61155 0.95453 0.0
H913 H 0.80183 0.66461 0.89886 0.0
S914 S 0.98669 0.70771 0.8705 0.0
N915 N 0.98798 0.6669 0.9113 0.0
N916 N 0.92911 0.72387 0.84994 0.0
C917 C 0.90807 0.69606 0.87663 0.0
C918 C 0.93993 0.66529 0.90986 0.0
C919 C 0.36956 0.51674 0.21491 0.0
C920 C 0.34484 0.53127 0.17372 0.0
C921 C 0.3527 0.4867 0.24513 0.0
C922 C 0.31077 0.47098 0.2346 0.0
H923 H 0.4045 0.52473 0.22174 0.0
H924 H 0.37473 0.47221 0.27484 0.0
S925 S 0.2292 0.50586 0.13471 0.0
N926 N 0.27394 0.53261 0.12631 0.0
N927 N 0.24086 0.47793 0.18417 0.0
C928 C 0.28276 0.49012 0.19602 0.0
C929 C 0.30033 0.51976 0.16506 0.0
C930 C 0.37737 0.63705 0.93576 0.0
C931 C 0.42969 0.62299 0.93043 0.0
C932 C 0.34526 0.66691 0.90392 0.0
C933 C 0.3642 0.68475 0.8661 0.0
H934 H 0.36073 0.62314 0.96376 0.0
H935 H 0.30521 0.67537 0.90854 0.0
S936 S 0.49769 0.66282 0.83788 0.0
N937 N 0.49896 0.63189 0.88548 0.0
N938 N 0.43787 0.68922 0.82569 0.0
C939 C 0.4162 0.67352 0.86124 0.0
C940 C 0.44917 0.64227 0.89344 0.0
C941 C 0.17541 0.48392 0.69766 0.0
C942 C 0.18248 0.49259 0.65208 0.0
C943 C 0.18546 0.51564 0.73076 0.0
C944 C 0.20408 0.5558 0.7191 0.0
H945 H 0.15868 0.4549 0.70733 0.0
H946 H 0.17586 0.51079 0.76521 0.0
S947 S 0.23471 0.58998 0.60495 0.0
N948 N 0.21392 0.54065 0.59758 0.0
N949 N 0.23274 0.59997 0.65944 0.0
C950 C 0.21557 0.56168 0.67408 0.0
C951 C 0.20514 0.52981 0.64062 0.0
C952 C 0.34753 0.36568 0.67661 0.0
C953 C 0.30812 0.34623 0.66446 0.0
C954 C 0.37254 0.38616 0.64465 0.0
C955 C 0.35878 0.38897 0.59915 0.0
H956 H 0.36023 0.364 0.71101 0.0
H957 H 0.40382 0.39879 0.6555 0.0
S958 S 0.26009 0.34156 0.54873 0.0
N959 N 0.25769 0.32988 0.60281 0.0
N960 N 0.30453 0.36922 0.54304 0.0
C961 C 0.31965 0.36974 0.58629 0.0
C962 C 0.29412 0.34859 0.61885 0.0
C963 C 0.16793 0.66461 0.17151 0.0
C964 C 0.211 0.6794 0.16245 0.0
C965 C 0.14608 0.64138 0.13893 0.0
C966 C 0.16583 0.63229 0.09554 0.0
H967 H 0.15074 0.67085 0.20424 0.0
H968 H 0.11434 0.62905 0.1484 0.0
S969 S 0.27946 0.66069 0.05459 0.0
N970 N 0.27377 0.68105 0.10681 0.0
N971 N 0.23219 0.63761 0.0456 0.0
C972 C 0.20936 0.64582 0.08608 0.0
C973 C 0.23194 0.66938 0.11939 0.0
C974 C 0.67639 0.41677 0.66785 0.0
C975 C 0.65701 0.38854 0.69834 0.0
C976 C 0.64653 0.44579 0.63369 0.0
C977 C 0.59606 0.44759 0.62854 0.0
H978 H 0.71554 0.41499 0.66929 0.0
H979 H 0.66377 0.46507 0.61001 0.0
S980 S 0.52457 0.38821 0.70427 0.0
N981 N 0.58227 0.36966 0.72445 0.0
N982 N 0.52612 0.42431 0.66056 0.0
C983 C 0.57518 0.42268 0.66081 0.0
C984 C 0.60558 0.39326 0.69569 0.0
C985 C 0.8523 0.60083 0.17179 0.0
C986 C 0.87036 0.62989 0.20255 0.0
C987 C 0.88262 0.57362 0.13748 0.0
C988 C 0.93252 0.57401 0.13256 0.0
H989 H 0.81371 0.60062 0.17307 0.0
H990 H 0.86596 0.55403 0.11347 0.0
S991 S 1.00126 0.63503 0.21005 0.0
N992 N 0.94356 0.65157 0.22953 0.0
N993 N 1.001 0.59882 0.16622 0.0
C994 C 0.95244 0.59896 0.16561 0.0
C995 C 0.92136 0.62709 0.20041 0.0
C996 C 0.87286 0.63697 0.60143 0.0
C997 C 0.92494 0.6287 0.59981 0.0
C998 C 0.84365 0.66702 0.63462 0.0
C999 C 0.86494 0.69107 0.66714 0.0
H1000 H 0.85445 0.61869 0.57773 0.0
H1001 H 0.80391 0.67107 0.635 0.0
S1002 S 0.9988 0.685 0.67616 0.0
N1003 N 0.99641 0.64895 0.63264 0.0
N1004 N 0.94081 0.70681 0.69472 0.0
C1005 C 0.91657 0.68506 0.66507 0.0
C1006 C 0.94675 0.65341 0.63156 0.0
C1007 C 0.43523 0.62108 0.37736 0.0
C1008 C 0.41845 0.58768 0.40446 0.0
C1009 C 0.40502 0.64963 0.34313 0.0
C1010 C 0.35655 0.64638 0.33493 0.0
H1011 H 0.47158 0.62635 0.38331 0.0
H1012 H 0.41878 0.67643 0.32464 0.0
S1013 S 0.29676 0.56045 0.39232 0.0
N1014 N 0.3516 0.54973 0.4176 0.0
N1015 N 0.29491 0.60375 0.35369 0.0
C1016 C 0.34029 0.61123 0.36005 0.0
C1017 C 0.37119 0.58179 0.39466 0.0
C1018 C 0.10419 0.38572 0.83385 0.0
C1019 C 0.15458 0.38448 0.82943 0.0
C1020 C 0.0735 0.41555 0.86682 0.0
C1021 C 0.09179 0.44562 0.89647 0.0
H1022 H 0.08908 0.36137 0.81341 0.0
H1023 H 0.03558 0.41381 0.86983 0.0
S1024 S 0.21904 0.46171 0.89374 0.0
N1025 N 0.2197 0.42031 0.85389 0.0
N1026 N 0.1624 0.47639 0.91539 0.0
C1027 C 0.14109 0.44752 0.89002 0.0
C1028 C 0.17234 0.41691 0.8567 0.0
C1029 C 0.13799 0.32199 0.39942 0.0
C1030 C 0.1356 0.33243 0.35331 0.0
C1031 C 0.10693 0.35612 0.42949 0.0
C1032 C 0.07223 0.40144 0.41426 0.0
H1033 H 0.16579 0.28869 0.41252 0.0
H1034 H 0.11115 0.34771 0.465 0.0
S1035 S 0.05191 0.44508 0.29607 0.0
N1036 N 0.09601 0.39009 0.29352 0.0
N1037 N 0.0375 0.45401 0.34957 0.0
C1038 C 0.06849 0.41103 0.36788 0.0
C1039 C 0.10035 0.37658 0.3375 0.0
loop_
_geom_bond_atom_site_label_1
_geom_bond_atom_site_label_2
_geom_bond_distance
_geom_bond_site_symmetry_2
_ccdc_geom_bond_type
Zn0 O1 2.055 1_545 S
Zn0 O8 2.046 . S
Zn0 N16 2.036 1_554 S
Zn0 O28 2.053 1_454 S
Zn0 O30 2.066 1_544 S
O1 Zn0 2.055 1_565 S
O1 C4 1.259 . S
C2 O30 1.256 . S
C2 O31 1.244 . S
Zn3 O5 2.046 1_655 S
Zn3 O7 2.055 1_565 S
Zn3 N9 2.036 . S
Zn3 O27 2.066 1_564 S
Zn3 O31 2.053 1_654 S
C4 O1 1.259 . S
C4 O5 1.254 . S
O5 Zn3 2.046 1_455 S
O5 C4 1.254 . S
C6 O27 1.256 . S
C6 O28 1.244 . S
O7 Zn3 2.055 1_545 S
O7 C29 1.259 . S
O8 Zn0 2.046 . S
O8 C29 1.254 1_455 S
N9 Zn3 2.036 . S
N9 C10 1.298 . S
N9 N12 1.398 . S
C10 N9 1.298 . S
C10 N13 1.367 . S
C10 C23 1.481 . S
C11 N12 1.299 . S
C11 N13 1.379 . S
N12 N9 1.398 . S
N12 C11 1.299 . S
N13 C10 1.367 . S
N13 C11 1.379 . S
C14 N16 1.298 . S
C14 N18 1.367 . S
C14 C22 1.481 . S
C15 N17 1.299 . S
C15 N18 1.379 . S
N16 Zn0 2.036 1_556 S
N16 C14 1.298 . S
N16 N17 1.398 . S
N17 C15 1.299 . S
N17 N16 1.398 . S
N18 C14 1.367 . S
N18 C15 1.379 . S
H19 C22 0.980 1_554 S
H20 C22 0.975 1_554 S
H21 C22 0.981 . S
C22 C14 1.481 . S
C22 H19 0.980 1_556 S
C22 H20 0.975 1_556 S
C22 H21 0.981 . S
C23 C10 1.481 . S
C23 H24 0.980 1_565 S
C23 H25 0.981 . S
C23 H26 0.978 1_565 S
H24 C23 0.980 1_545 S
H25 C23 0.981 . S
H26 C23 0.978 1_545 S
O27 Zn3 2.066 1_546 S
O27 C6 1.256 . S
O28 Zn0 2.053 1_656 S
O28 C6 1.244 . S
C29 O7 1.259 . S
C29 O8 1.254 1_655 S
O30 Zn0 2.066 1_566 S
O30 C2 1.256 . S
O31 C2 1.244 . S
O31 Zn3 2.053 1_456 S
Zn32 O33 2.055 . S
Zn32 O40 2.046 . S
Zn32 N48 2.036 . S
Zn32 O60 2.053 . S
Zn32 O62 2.066 . S
O33 Zn32 2.055 . S
O33 C36 1.259 . S
C34 O62 1.256 . S
C34 O63 1.244 . S
Zn35 O37 2.046 . S
Zn35 O39 2.055 . S
Zn35 N41 2.036 . S
Zn35 O59 2.066 . S
Zn35 O63 2.053 . S
C36 O33 1.259 . S
C36 O37 1.254 . S
O37 Zn35 2.046 . S
O37 C36 1.254 . S
C38 O59 1.256 . S
C38 O60 1.244 . S
O39 Zn35 2.055 . S
O39 C61 1.259 . S
O40 Zn32 2.046 . S
O40 C61 1.254 . S
N41 Zn35 2.036 . S
N41 C42 1.298 . S
N41 N44 1.398 . S
C42 N41 1.298 . S
C42 N45 1.367 . S
C42 C55 1.481 . S
C43 N44 1.299 . S
C43 N45 1.379 . S
N44 N41 1.398 . S
N44 C43 1.299 . S
N45 C42 1.367 . S
N45 C43 1.379 . S
C46 N48 1.298 . S
C46 N50 1.367 . S
C46 C54 1.481 . S
C47 N49 1.299 . S
C47 N50 1.379 . S
N48 Zn32 2.036 . S
N48 C46 1.298 . S
N48 N49 1.398 . S
N49 C47 1.299 . S
N49 N48 1.398 . S
N50 C46 1.367 . S
N50 C47 1.379 . S
H51 C54 0.980 . S
H52 C54 0.981 . S
H53 C54 0.981 . S
C54 C46 1.481 . S
C54 H51 0.980 . S
C54 H52 0.981 . S
C54 H53 0.981 . S
C55 C42 1.481 . S
C55 H56 0.980 . S
C55 H57 0.981 . S
C55 H58 0.981 . S
H56 C55 0.980 . S
H57 C55 0.981 . S
H58 C55 0.981 . S
O59 Zn35 2.066 . S
O59 C38 1.256 . S
O60 Zn32 2.053 . S
O60 C38 1.244 . S
C61 O39 1.259 . S
C61 O40 1.254 . S
O62 Zn32 2.066 . S
O62 C34 1.256 . S
O63 C34 1.244 . S
O63 Zn35 2.053 . S
Zn64 O65 2.055 . S
Zn64 O72 2.047 1_545 S
Zn64 N80 2.036 . S
Zn64 O92 2.053 1_545 S
Zn64 O94 2.066 . S
O65 Zn64 2.055 . S
O65 C68 1.259 . S
C66 O94 1.256 . S
C66 O95 1.244 . S
Zn67 O69 2.046 1_565 S
Zn67 O71 2.055 . S
Zn67 N73 2.036 . S
Zn67 O91 2.066 . S
Zn67 O95 2.053 1_565 S
C68 O65 1.259 . S
C68 O69 1.254 . S
O69 Zn67 2.046 1_545 S
O69 C68 1.254 . S
C70 O91 1.256 . S
C70 O92 1.244 . S
O71 Zn67 2.055 . S
O71 C93 1.259 . S
O72 Zn64 2.047 1_565 S
O72 C93 1.252 . S
N73 Zn67 2.036 . S
N73 C74 1.298 . S
N73 N76 1.398 . S
C74 N73 1.298 . S
C74 N77 1.367 . S
C74 C87 1.481 . S
C75 N76 1.299 . S
C75 N77 1.379 . S
N76 N73 1.398 . S
N76 C75 1.299 . S
N77 C74 1.367 . S
N77 C75 1.379 . S
C78 N80 1.298 . S
C78 N82 1.367 . S
C78 C86 1.481 . S
C79 N81 1.299 . S
C79 N82 1.379 . S
N80 Zn64 2.036 . S
N80 C78 1.298 . S
N80 N81 1.398 . S
N81 C79 1.299 . S
N81 N80 1.398 . S
N82 C78 1.367 . S
N82 C79 1.379 . S
H83 C86 0.980 . S
H84 C86 0.981 . S
H85 C86 0.981 . S
C86 C78 1.481 . S
C86 H83 0.980 . S
C86 H84 0.981 . S
C86 H85 0.981 . S
C87 C74 1.481 . S
C87 H88 0.980 . S
C87 H89 0.981 . S
C87 H90 0.981 . S
H88 C87 0.980 . S
H89 C87 0.981 . S
H90 C87 0.981 . S
O91 Zn67 2.066 . S
O91 C70 1.256 . S
O92 Zn64 2.053 1_565 S
O92 C70 1.244 . S
C93 O71 1.259 . S
C93 O72 1.252 . S
O94 Zn64 2.066 . S
O94 C66 1.256 . S
O95 C66 1.244 . S
O95 Zn67 2.053 1_545 S
Zn96 O97 2.055 . S
Zn96 O104 2.046 . S
Zn96 N112 2.036 . S
Zn96 O124 2.053 . S
Zn96 O126 2.066 . S
O97 Zn96 2.055 . S
O97 C100 1.259 . S
C98 O126 1.256 . S
C98 O127 1.244 . S
Zn99 O101 2.046 . S
Zn99 O103 2.055 . S
Zn99 N105 2.036 . S
Zn99 O123 2.066 . S
Zn99 O127 2.053 . S
C100 O97 1.259 . S
C100 O101 1.254 . S
O101 Zn99 2.046 . S
O101 C100 1.254 . S
C102 O123 1.256 . S
C102 O124 1.244 . S
O103 Zn99 2.055 . S
O103 C125 1.259 . S
O104 Zn96 2.046 . S
O104 C125 1.254 . S
N105 Zn99 2.036 . S
N105 C106 1.298 . S
N105 N108 1.398 . S
C106 N105 1.298 . S
C106 N109 1.367 . S
C106 C119 1.481 . S
C107 N108 1.299 . S
C107 N109 1.379 . S
N108 N105 1.398 . S
N108 C107 1.299 . S
N109 C106 1.367 . S
N109 C107 1.379 . S
C110 N112 1.298 . S
C110 N114 1.367 . S
C110 C118 1.481 . S
C111 N113 1.299 . S
C111 N114 1.379 . S
N112 Zn96 2.036 . S
N112 C110 1.298 . S
N112 N113 1.398 . S
N113 C111 1.299 . S
N113 N112 1.398 . S
N114 C110 1.367 . S
N114 C111 1.379 . S
H115 C118 0.980 . S
H116 C118 0.981 . S
H117 C118 0.981 . S
C118 C110 1.481 . S
C118 H115 0.980 . S
C118 H116 0.981 . S
C118 H117 0.981 . S
C119 C106 1.481 . S
C119 H120 0.980 . S
C119 H121 0.981 . S
C119 H122 0.981 . S
H120 C119 0.980 . S
H121 C119 0.981 . S
H122 C119 0.981 . S
O123 Zn99 2.066 . S
O123 C102 1.256 . S
O124 Zn96 2.053 . S
O124 C102 1.244 . S
C125 O103 1.259 . S
C125 O104 1.254 . S
O126 Zn96 2.066 . S
O126 C98 1.256 . S
O127 C98 1.244 . S
O127 Zn99 2.053 . S
Zn128 O129 2.055 1_545 S
Zn128 O136 2.046 1_545 S
Zn128 N144 2.036 . S
Zn128 O156 2.053 . S
Zn128 O158 2.066 1_455 S
O129 Zn128 2.055 1_565 S
O129 C132 1.259 1_455 S
C130 O158 1.256 . S
C130 O159 1.244 . S
Zn131 O133 2.046 . S
Zn131 O135 2.055 1_655 S
Zn131 N137 2.036 . S
Zn131 O155 2.066 1_565 S
Zn131 O159 2.053 1_565 S
C132 O129 1.259 1_655 S
C132 O133 1.254 . S
O133 Zn131 2.046 . S
O133 C132 1.254 . S
C134 O155 1.256 1_455 S
C134 O156 1.244 . S
O135 Zn131 2.055 1_455 S
O135 C157 1.259 . S
O136 Zn128 2.046 1_565 S
O136 C157 1.254 . S
N137 Zn131 2.036 . S
N137 C138 1.298 . S
N137 N140 1.398 . S
C138 N137 1.298 . S
C138 N141 1.367 . S
C138 C151 1.481 . S
C139 N140 1.299 . S
C139 N141 1.379 . S
N140 N137 1.398 . S
N140 C139 1.299 . S
N141 C138 1.367 . S
N141 C139 1.379 . S
C142 N144 1.298 . S
C142 N146 1.367 . S
C142 C150 1.481 . S
C143 N145 1.299 . S
C143 N146 1.379 . S
N144 Zn128 2.036 . S
N144 C142 1.298 . S
N144 N145 1.398 . S
N145 C143 1.299 . S
N145 N144 1.398 . S
N146 C142 1.367 . S
N146 C143 1.379 . S
H147 C150 0.980 1_565 S
H148 C150 0.983 . S
H149 C150 0.981 . S
C150 C142 1.481 . S
C150 H147 0.980 1_545 S
C150 H148 0.983 . S
C150 H149 0.981 . S
C151 C138 1.481 . S
C151 H152 0.980 . S
C151 H153 0.981 . S
C151 H154 0.981 . S
H152 C151 0.980 . S
H153 C151 0.981 . S
H154 C151 0.981 . S
O155 Zn131 2.066 1_545 S
O155 C134 1.256 1_655 S
O156 Zn128 2.053 . S
O156 C134 1.244 . S
C157 O135 1.259 . S
C157 O136 1.254 . S
O158 Zn128 2.066 1_655 S
O158 C130 1.256 . S
O159 C130 1.244 . S
O159 Zn131 2.053 1_545 S
Zn160 O161 2.055 . S
Zn160 O168 2.046 . S
Zn160 N176 2.036 . S
Zn160 O188 2.053 . S
Zn160 O190 2.066 . S
O161 Zn160 2.055 . S
O161 C164 1.259 . S
C162 O190 1.256 . S
C162 O191 1.244 . S
Zn163 O165 2.046 . S
Zn163 O167 2.055 . S
Zn163 N169 2.036 . S
Zn163 O187 2.066 . S
Zn163 O191 2.053 . S
C164 O161 1.259 . S
C164 O165 1.254 . S
O165 Zn163 2.046 . S
O165 C164 1.254 . S
C166 O187 1.256 . S
C166 O188 1.244 . S
O167 Zn163 2.055 . S
O167 C189 1.259 . S
O168 Zn160 2.046 . S
O168 C189 1.254 . S
N169 Zn163 2.036 . S
N169 C170 1.298 . S
N169 N172 1.398 . S
C170 N169 1.298 . S
C170 N173 1.367 . S
C170 C183 1.481 . S
C171 N172 1.299 . S
C171 N173 1.379 . S
N172 N169 1.398 . S
N172 C171 1.299 . S
N173 C170 1.367 . S
N173 C171 1.379 . S
C174 N176 1.298 . S
C174 N178 1.367 . S
C174 C182 1.481 . S
C175 N177 1.299 . S
C175 N178 1.379 . S
N176 Zn160 2.036 . S
N176 C174 1.298 . S
N176 N177 1.398 . S
N177 C175 1.299 . S
N177 N176 1.398 . S
N178 C174 1.367 . S
N178 C175 1.379 . S
H179 C182 0.980 . S
H180 C182 0.981 . S
H181 C182 0.981 . S
C182 C174 1.481 . S
C182 H179 0.980 . S
C182 H180 0.981 . S
C182 H181 0.981 . S
C183 C170 1.481 . S
C183 H184 0.980 . S
C183 H185 0.981 . S
C183 H186 0.981 . S
H184 C183 0.980 . S
H185 C183 0.981 . S
H186 C183 0.981 . S
O187 Zn163 2.066 . S
O187 C166 1.256 . S
O188 Zn160 2.053 . S
O188 C166 1.244 . S
C189 O167 1.259 . S
C189 O168 1.254 . S
O190 Zn160 2.066 . S
O190 C162 1.256 . S
O191 C162 1.244 . S
O191 Zn163 2.053 . S
Zn192 O193 2.055 . S
Zn192 O200 2.046 1_554 S
Zn192 N208 2.036 . S
Zn192 O220 2.053 1_545 S
Zn192 O222 2.066 1_545 S
O193 Zn192 2.055 . S
O193 C196 1.259 . S
C194 O222 1.256 . S
C194 O223 1.244 . S
Zn195 O197 2.046 1_556 S
Zn195 O199 2.055 . S
Zn195 N201 2.036 1_545 S
Zn195 O219 2.066 1_545 S
Zn195 O223 2.053 1_546 S
C196 O193 1.259 . S
C196 O197 1.254 . S
O197 Zn195 2.046 1_554 S
O197 C196 1.254 . S
C198 O219 1.256 . S
C198 O220 1.244 1_556 S
O199 Zn195 2.055 . S
O199 C221 1.259 . S
O200 Zn192 2.046 1_556 S
O200 C221 1.254 . S
N201 Zn195 2.036 1_565 S
N201 C202 1.298 . S
N201 N204 1.398 . S
C202 N201 1.298 . S
C202 N205 1.367 . S
C202 C215 1.481 1_565 S
C203 N204 1.299 . S
C203 N205 1.379 . S
N204 N201 1.398 . S
N204 C203 1.299 . S
N205 C202 1.367 . S
N205 C203 1.379 . S
C206 N208 1.298 . S
C206 N210 1.367 . S
C206 C214 1.481 . S
C207 N209 1.299 . S
C207 N210 1.379 . S
N208 Zn192 2.036 . S
N208 C206 1.298 . S
N208 N209 1.398 . S
N209 C207 1.299 . S
N209 N208 1.398 . S
N210 C206 1.367 . S
N210 C207 1.379 . S
H211 C214 0.980 . S
H212 C214 0.981 . S
H213 C214 0.981 . S
C214 C206 1.481 . S
C214 H211 0.980 . S
C214 H212 0.981 . S
C214 H213 0.981 . S
C215 C202 1.481 1_545 S
C215 H216 0.980 . S
C215 H217 0.981 . S
C215 H218 0.981 1_545 S
H216 C215 0.980 . S
H217 C215 0.981 . S
H218 C215 0.981 1_565 S
O219 Zn195 2.066 1_565 S
O219 C198 1.256 . S
O220 Zn192 2.053 1_565 S
O220 C198 1.244 1_554 S
C221 O199 1.259 . S
C221 O200 1.254 . S
O222 Zn192 2.066 1_565 S
O222 C194 1.256 . S
O223 C194 1.244 . S
O223 Zn195 2.053 1_564 S
Zn224 O225 2.055 . S
Zn224 O232 2.046 . S
Zn224 N240 2.036 . S
Zn224 O252 2.053 . S
Zn224 O254 2.066 . S
O225 Zn224 2.055 . S
O225 C228 1.259 . S
C226 O254 1.256 . S
C226 O255 1.244 . S
Zn227 O229 2.046 . S
Zn227 O231 2.055 . S
Zn227 N233 2.036 . S
Zn227 O251 2.066 . S
Zn227 O255 2.053 . S
C228 O225 1.259 . S
C228 O229 1.254 . S
O229 Zn227 2.046 . S
O229 C228 1.254 . S
C230 O251 1.256 . S
C230 O252 1.244 . S
O231 Zn227 2.055 . S
O231 C253 1.259 . S
O232 Zn224 2.046 . S
O232 C253 1.254 . S
N233 Zn227 2.036 . S
N233 C234 1.298 . S
N233 N236 1.398 . S
C234 N233 1.298 . S
C234 N237 1.367 . S
C234 C247 1.481 . S
C235 N236 1.299 . S
C235 N237 1.379 . S
N236 N233 1.398 . S
N236 C235 1.299 . S
N237 C234 1.367 . S
N237 C235 1.379 . S
C238 N240 1.298 . S
C238 N242 1.367 . S
C238 C246 1.481 . S
C239 N241 1.299 . S
C239 N242 1.379 . S
N240 Zn224 2.036 . S
N240 C238 1.298 . S
N240 N241 1.398 . S
N241 C239 1.299 . S
N241 N240 1.398 . S
N242 C238 1.367 . S
N242 C239 1.379 . S
H243 C246 0.980 . S
H244 C246 0.981 . S
H245 C246 0.981 . S
C246 C238 1.481 . S
C246 H243 0.980 . S
C246 H244 0.981 . S
C246 H245 0.981 . S
C247 C234 1.481 . S
C247 H248 0.980 . S
C247 H249 0.981 . S
C247 H250 0.981 . S
H248 C247 0.980 . S
H249 C247 0.981 . S
H250 C247 0.981 . S
O251 Zn227 2.066 . S
O251 C230 1.256 . S
O252 Zn224 2.053 . S
O252 C230 1.244 . S
C253 O231 1.259 . S
C253 O232 1.254 . S
O254 Zn224 2.066 . S
O254 C226 1.256 . S
O255 C226 1.244 . S
O255 Zn227 2.053 . S
Zn256 O257 2.055 . S
Zn256 O264 2.046 1_554 S
Zn256 N272 2.036 . S
Zn256 O284 2.053 1_554 S
Zn256 O286 2.066 . S
O257 Zn256 2.055 . S
O257 C260 1.259 . S
C258 O286 1.256 . S
C258 O287 1.244 . S
Zn259 O261 2.046 1_556 S
Zn259 O263 2.055 . S
Zn259 N265 2.036 . S
Zn259 O283 2.066 . S
Zn259 O287 2.053 1_556 S
C260 O257 1.259 . S
C260 O261 1.254 . S
O261 Zn259 2.046 1_554 S
O261 C260 1.254 . S
C262 O283 1.256 . S
C262 O284 1.244 . S
O263 Zn259 2.055 . S
O263 C285 1.259 . S
O264 Zn256 2.046 1_556 S
O264 C285 1.254 . S
N265 Zn259 2.036 . S
N265 C266 1.298 . S
N265 N268 1.398 . S
C266 N265 1.298 . S
C266 N269 1.367 . S
C266 C279 1.481 . S
C267 N268 1.299 . S
C267 N269 1.379 . S
N268 N265 1.398 . S
N268 C267 1.299 . S
N269 C266 1.367 . S
N269 C267 1.379 . S
C270 N272 1.298 . S
C270 N274 1.367 . S
C270 C278 1.481 . S
C271 N273 1.299 . S
C271 N274 1.379 . S
N272 Zn256 2.036 . S
N272 C270 1.298 . S
N272 N273 1.398 . S
N273 C271 1.299 . S
N273 N272 1.398 . S
N274 C270 1.367 . S
N274 C271 1.379 . S
H275 C278 0.980 . S
H276 C278 0.981 . S
H277 C278 0.981 . S
C278 C270 1.481 . S
C278 H275 0.980 . S
C278 H276 0.981 . S
C278 H277 0.981 . S
C279 C266 1.481 . S
C279 H280 0.980 . S
C279 H281 0.981 . S
C279 H282 0.981 . S
H280 C279 0.980 . S
H281 C279 0.981 . S
H282 C279 0.981 . S
O283 Zn259 2.066 . S
O283 C262 1.256 . S
O284 Zn256 2.053 1_556 S
O284 C262 1.244 . S
C285 O263 1.259 . S
C285 O264 1.254 . S
O286 Zn256 2.066 . S
O286 C258 1.256 . S
O287 C258 1.244 . S
O287 Zn259 2.053 1_554 S
Zn288 O289 2.055 . S
Zn288 O296 2.046 . S
Zn288 N304 2.036 . S
Zn288 O316 2.053 . S
Zn288 O318 2.066 . S
O289 Zn288 2.055 . S
O289 C292 1.259 . S
C290 O318 1.256 . S
C290 O319 1.244 . S
Zn291 O293 2.046 . S
Zn291 O295 2.055 . S
Zn291 N297 2.036 . S
Zn291 O315 2.066 . S
Zn291 O319 2.053 . S
C292 O289 1.259 . S
C292 O293 1.254 . S
O293 Zn291 2.046 . S
O293 C292 1.254 . S
C294 O315 1.256 . S
C294 O316 1.244 . S
O295 Zn291 2.055 . S
O295 C317 1.259 . S
O296 Zn288 2.046 . S
O296 C317 1.254 . S
N297 Zn291 2.036 . S
N297 C298 1.298 . S
N297 N300 1.398 . S
C298 N297 1.298 . S
C298 N301 1.367 . S
C298 C311 1.481 . S
C299 N300 1.299 . S
C299 N301 1.379 . S
N300 N297 1.398 . S
N300 C299 1.299 . S
N301 C298 1.367 . S
N301 C299 1.379 . S
C302 N304 1.298 . S
C302 N306 1.367 . S
C302 C310 1.481 . S
C303 N305 1.299 . S
C303 N306 1.379 . S
N304 Zn288 2.036 . S
N304 C302 1.298 . S
N304 N305 1.398 . S
N305 C303 1.299 . S
N305 N304 1.398 . S
N306 C302 1.367 . S
N306 C303 1.379 . S
H307 C310 0.980 . S
H308 C310 0.981 . S
H309 C310 0.981 . S
C310 C302 1.481 . S
C310 H307 0.980 . S
C310 H308 0.981 . S
C310 H309 0.981 . S
C311 C298 1.481 . S
C311 H312 0.980 . S
C311 H313 0.981 . S
C311 H314 0.981 . S
H312 C311 0.980 . S
H313 C311 0.981 . S
H314 C311 0.981 . S
O315 Zn291 2.066 . S
O315 C294 1.256 . S
O316 Zn288 2.053 . S
O316 C294 1.244 . S
C317 O295 1.259 . S
C317 O296 1.254 . S
O318 Zn288 2.066 . S
O318 C290 1.256 . S
O319 C290 1.244 . S
O319 Zn291 2.053 . S
Zn320 O321 2.055 1_455 S
Zn320 O328 2.046 . S
Zn320 N336 2.036 . S
Zn320 O348 2.053 . S
Zn320 O350 2.066 . S
O321 Zn320 2.055 1_655 S
O321 C324 1.259 . S
C322 O350 1.256 1_655 S
C322 O351 1.244 . S
Zn323 O325 2.046 . S
Zn323 O327 2.055 . S
Zn323 N329 2.036 . S
Zn323 O347 2.066 1_655 S
Zn323 O351 2.053 . S
C324 O321 1.259 . S
C324 O325 1.254 . S
O325 Zn323 2.046 . S
O325 C324 1.254 . S
C326 O347 1.256 . S
C326 O348 1.244 . S
O327 Zn323 2.055 . S
O327 C349 1.259 1_655 S
O328 Zn320 2.046 . S
O328 C349 1.254 . S
N329 Zn323 2.036 . S
N329 C330 1.298 . S
N329 N332 1.398 . S
C330 N329 1.298 . S
C330 N333 1.367 . S
C330 C343 1.481 . S
C331 N332 1.299 . S
C331 N333 1.379 . S
N332 N329 1.398 . S
N332 C331 1.299 . S
N333 C330 1.367 . S
N333 C331 1.379 . S
C334 N336 1.298 . S
C334 N338 1.367 . S
C334 C342 1.481 . S
C335 N337 1.299 . S
C335 N338 1.379 . S
N336 Zn320 2.036 . S
N336 C334 1.298 . S
N336 N337 1.398 . S
N337 C335 1.299 . S
N337 N336 1.398 . S
N338 C334 1.367 . S
N338 C335 1.379 . S
H339 C342 0.980 . S
H340 C342 0.981 . S
H341 C342 0.981 . S
C342 C334 1.481 . S
C342 H339 0.980 . S
C342 H340 0.981 . S
C342 H341 0.981 . S
C343 C330 1.481 . S
C343 H344 0.980 . S
C343 H345 0.981 . S
C343 H346 0.981 . S
H344 C343 0.980 . S
H345 C343 0.981 . S
H346 C343 0.981 . S
O347 Zn323 2.066 1_455 S
O347 C326 1.256 . S
O348 Zn320 2.053 . S
O348 C326 1.244 . S
C349 O327 1.259 1_455 S
C349 O328 1.254 . S
O350 Zn320 2.066 . S
O350 C322 1.256 1_455 S
O351 C322 1.244 . S
O351 Zn323 2.053 . S
Zn352 O353 2.055 . S
Zn352 O360 2.046 . S
Zn352 N368 2.036 . S
Zn352 O380 2.053 . S
Zn352 O382 2.066 . S
O353 Zn352 2.055 . S
O353 C356 1.259 . S
C354 O382 1.256 . S
C354 O383 1.244 . S
Zn355 O357 2.046 . S
Zn355 O359 2.055 . S
Zn355 N361 2.036 . S
Zn355 O379 2.066 . S
Zn355 O383 2.053 . S
C356 O353 1.259 . S
C356 O357 1.254 . S
O357 Zn355 2.046 . S
O357 C356 1.254 . S
C358 O379 1.256 . S
C358 O380 1.244 . S
O359 Zn355 2.055 . S
O359 C381 1.259 . S
O360 Zn352 2.046 . S
O360 C381 1.254 . S
N361 Zn355 2.036 . S
N361 C362 1.298 . S
N361 N364 1.398 . S
C362 N361 1.298 . S
C362 N365 1.367 . S
C362 C375 1.481 . S
C363 N364 1.299 . S
C363 N365 1.379 . S
N364 N361 1.398 . S
N364 C363 1.299 . S
N365 C362 1.367 . S
N365 C363 1.379 . S
C366 N368 1.298 . S
C366 N370 1.367 . S
C366 C374 1.481 . S
C367 N369 1.299 . S
C367 N370 1.379 . S
N368 Zn352 2.036 . S
N368 C366 1.298 . S
N368 N369 1.398 . S
N369 C367 1.299 . S
N369 N368 1.398 . S
N370 C366 1.367 . S
N370 C367 1.379 . S
H371 C374 0.980 . S
H372 C374 0.981 . S
H373 C374 0.981 . S
C374 C366 1.481 . S
C374 H371 0.980 . S
C374 H372 0.981 . S
C374 H373 0.981 . S
C375 C362 1.481 . S
C375 H376 0.980 . S
C375 H377 0.981 . S
C375 H378 0.981 . S
H376 C375 0.980 . S
H377 C375 0.981 . S
H378 C375 0.981 . S
O379 Zn355 2.066 . S
O379 C358 1.256 . S
O380 Zn352 2.053 . S
O380 C358 1.244 . S
C381 O359 1.259 . S
C381 O360 1.254 . S
O382 Zn352 2.066 . S
O382 C354 1.256 . S
O383 C354 1.244 . S
O383 Zn355 2.053 . S
Zn384 O385 2.055 . S
Zn384 O392 2.046 . S
Zn384 N400 2.036 . S
Zn384 O412 2.053 . S
Zn384 O414 2.066 . S
O385 Zn384 2.055 . S
O385 C388 1.259 . S
C386 O414 1.256 . S
C386 O415 1.244 . S
Zn387 O389 2.046 . S
Zn387 O391 2.055 . S
Zn387 N393 2.036 . S
Zn387 O411 2.066 . S
Zn387 O415 2.053 . S
C388 O385 1.259 . S
C388 O389 1.254 . S
O389 Zn387 2.046 . S
O389 C388 1.254 . S
C390 O411 1.256 . S
C390 O412 1.244 . S
O391 Zn387 2.055 . S
O391 C413 1.259 . S
O392 Zn384 2.046 . S
O392 C413 1.254 . S
N393 Zn387 2.036 . S
N393 C394 1.298 . S
N393 N396 1.398 . S
C394 N393 1.298 . S
C394 N397 1.367 . S
C394 C407 1.481 . S
C395 N396 1.299 . S
C395 N397 1.379 . S
N396 N393 1.398 . S
N396 C395 1.299 . S
N397 C394 1.367 . S
N397 C395 1.379 . S
C398 N400 1.298 . S
C398 N402 1.367 . S
C398 C406 1.481 . S
C399 N401 1.299 . S
C399 N402 1.379 . S
N400 Zn384 2.036 . S
N400 C398 1.298 . S
N400 N401 1.398 . S
N401 C399 1.299 . S
N401 N400 1.398 . S
N402 C398 1.367 . S
N402 C399 1.379 . S
H403 C406 0.980 . S
H404 C406 0.981 . S
H405 C406 0.981 . S
C406 C398 1.481 . S
C406 H403 0.980 . S
C406 H404 0.981 . S
C406 H405 0.981 . S
C407 C394 1.481 . S
C407 H408 0.980 . S
C407 H409 0.981 . S
C407 H410 0.981 . S
H408 C407 0.980 . S
H409 C407 0.981 . S
H410 C407 0.981 . S
O411 Zn387 2.066 . S
O411 C390 1.256 . S
O412 Zn384 2.053 . S
O412 C390 1.244 . S
C413 O391 1.259 . S
C413 O392 1.254 . S
O414 Zn384 2.066 . S
O414 C386 1.256 . S
O415 C386 1.244 . S
O415 Zn387 2.053 . S
Zn416 O417 2.055 . S
Zn416 O424 2.046 . S
Zn416 N432 2.036 . S
Zn416 O444 2.053 . S
Zn416 O446 2.066 . S
O417 Zn416 2.055 . S
O417 C420 1.259 . S
C418 O446 1.256 . S
C418 O447 1.244 . S
Zn419 O421 2.046 . S
Zn419 O423 2.055 . S
Zn419 N425 2.036 . S
Zn419 O443 2.066 . S
Zn419 O447 2.053 . S
C420 O417 1.259 . S
C420 O421 1.254 . S
O421 Zn419 2.046 . S
O421 C420 1.254 . S
C422 O443 1.256 . S
C422 O444 1.244 . S
O423 Zn419 2.055 . S
O423 C445 1.259 . S
O424 Zn416 2.046 . S
O424 C445 1.254 . S
N425 Zn419 2.036 . S
N425 C426 1.298 . S
N425 N428 1.398 . S
C426 N425 1.298 . S
C426 N429 1.367 . S
C426 C439 1.481 . S
C427 N428 1.299 . S
C427 N429 1.379 . S
N428 N425 1.398 . S
N428 C427 1.299 . S
N429 C426 1.367 . S
N429 C427 1.379 . S
C430 N432 1.298 . S
C430 N434 1.367 . S
C430 C438 1.481 . S
C431 N433 1.299 . S
C431 N434 1.379 . S
N432 Zn416 2.036 . S
N432 C430 1.298 . S
N432 N433 1.398 . S
N433 C431 1.299 . S
N433 N432 1.398 . S
N434 C430 1.367 . S
N434 C431 1.379 . S
H435 C438 0.980 . S
H436 C438 0.981 . S
H437 C438 0.981 . S
C438 C430 1.481 . S
C438 H435 0.980 . S
C438 H436 0.981 . S
C438 H437 0.981 . S
C439 C426 1.481 . S
C439 H440 0.980 . S
C439 H441 0.981 . S
C439 H442 0.981 . S
H440 C439 0.980 . S
H441 C439 0.981 . S
H442 C439 0.981 . S
O443 Zn419 2.066 . S
O443 C422 1.256 . S
O444 Zn416 2.053 . S
O444 C422 1.244 . S
C445 O423 1.259 . S
C445 O424 1.254 . S
O446 Zn416 2.066 . S
O446 C418 1.256 . S
O447 C418 1.244 . S
O447 Zn419 2.053 . S
Zn448 O449 2.055 . S
Zn448 O456 2.046 . S
Zn448 N464 2.036 . S
Zn448 O476 2.053 . S
Zn448 O478 2.066 . S
O449 Zn448 2.055 . S
O449 C452 1.259 . S
C450 O478 1.256 . S
C450 O479 1.244 . S
Zn451 O453 2.046 . S
Zn451 O455 2.055 . S
Zn451 N457 2.036 . S
Zn451 O475 2.066 . S
Zn451 O479 2.053 . S
C452 O449 1.259 . S
C452 O453 1.254 . S
O453 Zn451 2.046 . S
O453 C452 1.254 . S
C454 O475 1.256 . S
C454 O476 1.244 . S
O455 Zn451 2.055 . S
O455 C477 1.259 . S
O456 Zn448 2.046 . S
O456 C477 1.254 . S
N457 Zn451 2.036 . S
N457 C458 1.298 . S
N457 N460 1.398 . S
C458 N457 1.298 . S
C458 N461 1.367 . S
C458 C471 1.481 . S
C459 N460 1.299 . S
C459 N461 1.379 . S
N460 N457 1.398 . S
N460 C459 1.299 . S
N461 C458 1.367 . S
N461 C459 1.379 . S
C462 N464 1.298 . S
C462 N466 1.367 . S
C462 C470 1.481 . S
C463 N465 1.299 . S
C463 N466 1.379 . S
N464 Zn448 2.036 . S
N464 C462 1.298 . S
N464 N465 1.398 . S
N465 C463 1.299 . S
N465 N464 1.398 . S
N466 C462 1.367 . S
N466 C463 1.379 . S
H467 C470 0.980 . S
H468 C470 0.981 . S
H469 C470 0.981 . S
C470 C462 1.481 . S
C470 H467 0.980 . S
C470 H468 0.981 . S
C470 H469 0.981 . S
C471 C458 1.481 . S
C471 H472 0.980 . S
C471 H473 0.981 . S
C471 H474 0.981 . S
H472 C471 0.980 . S
H473 C471 0.981 . S
H474 C471 0.981 . S
O475 Zn451 2.066 . S
O475 C454 1.256 . S
O476 Zn448 2.053 . S
O476 C454 1.244 . S
C477 O455 1.259 . S
C477 O456 1.254 . S
O478 Zn448 2.066 . S
O478 C450 1.256 . S
O479 C450 1.244 . S
O479 Zn451 2.053 . S
Zn480 O481 2.055 1_454 S
Zn480 O488 2.046 1_554 S
Zn480 N496 2.036 . S
Zn480 O508 2.053 . S
Zn480 O510 2.066 1_455 S
O481 Zn480 2.055 1_656 S
O481 C484 1.259 . S
C482 O510 1.256 . S
C482 O511 1.244 . S
Zn483 O485 2.046 . S
Zn483 O487 2.055 1_655 S
Zn483 N489 2.036 . S
Zn483 O507 2.066 1_656 S
Zn483 O511 2.053 1_556 S
C484 O481 1.259 . S
C484 O485 1.254 . S
O485 Zn483 2.046 . S
O485 C484 1.254 . S
C486 O507 1.256 . S
C486 O508 1.244 . S
O487 Zn483 2.055 1_455 S
O487 C509 1.259 . S
O488 Zn480 2.046 1_556 S
O488 C509 1.254 . S
N489 Zn483 2.036 . S
N489 C490 1.298 . S
N489 N492 1.398 . S
C490 N489 1.298 . S
C490 N493 1.367 . S
C490 C503 1.481 . S
C491 N492 1.299 . S
C491 N493 1.379 . S
N492 N489 1.398 . S
N492 C491 1.299 . S
N493 C490 1.367 . S
N493 C491 1.379 . S
C494 N496 1.298 . S
C494 N498 1.367 . S
C494 C502 1.481 . S
C495 N497 1.299 . S
C495 N498 1.379 . S
N496 Zn480 2.036 . S
N496 C494 1.298 . S
N496 N497 1.398 . S
N497 C495 1.299 . S
N497 N496 1.398 . S
N498 C494 1.367 . S
N498 C495 1.379 . S
H499 C502 0.980 . S
H500 C502 0.981 . S
H501 C502 0.981 . S
C502 C494 1.481 . S
C502 H499 0.980 . S
C502 H500 0.981 . S
C502 H501 0.981 . S
C503 C490 1.481 . S
C503 H504 1.000 . S
C503 H505 0.981 . S
C503 H506 0.981 . S
H504 C503 1.000 . S
H505 C503 0.981 . S
H506 C503 0.981 . S
O507 Zn483 2.066 1_454 S
O507 C486 1.256 . S
O508 Zn480 2.053 . S
O508 C486 1.244 . S
C509 O487 1.259 . S
C509 O488 1.254 . S
O510 Zn480 2.066 1_655 S
O510 C482 1.256 . S
O511 C482 1.244 . S
O511 Zn483 2.053 1_554 S
C512 C513 1.369 . S
C512 C514 1.419 . S
C512 H516 0.930 . S
C513 C512 1.369 . S
C513 C522 1.429 . S
C514 C512 1.419 . S
C514 C515 1.363 . S
C514 H517 0.929 . S
C515 C514 1.363 . S
C515 C521 1.428 . S
H516 C512 0.930 . S
H517 C514 0.929 . S
S518 N519 1.613 . S
S518 N520 1.610 . S
N519 S518 1.613 . S
N519 C522 1.350 . S
N520 S518 1.610 . S
N520 C521 1.351 . S
C521 C515 1.428 . S
C521 N520 1.351 . S
C521 C522 1.434 . S
C522 C513 1.429 . S
C522 N519 1.350 . S
C522 C521 1.434 . S
C523 C524 1.369 . S
C523 C525 1.419 . S
C523 H527 0.930 . S
C524 C523 1.369 . S
C524 C533 1.429 . S
C525 C523 1.419 . S
C525 C526 1.363 . S
C525 H528 0.929 . S
C526 C525 1.363 . S
C526 C532 1.428 . S
H527 C523 0.930 . S
H528 C525 0.929 . S
S529 N530 1.613 . S
S529 N531 1.610 . S
N530 S529 1.613 . S
N530 C533 1.350 . S
N531 S529 1.610 . S
N531 C532 1.351 . S
C532 C526 1.428 . S
C532 N531 1.351 . S
C532 C533 1.434 . S
C533 C524 1.429 . S
C533 N530 1.350 . S
C533 C532 1.434 . S
C534 C535 1.369 . S
C534 C536 1.419 . S
C534 H538 0.930 . S
C535 C534 1.369 . S
C535 C544 1.429 . S
C536 C534 1.419 . S
C536 C537 1.363 . S
C536 H539 0.929 . S
C537 C536 1.363 . S
C537 C543 1.428 . S
H538 C534 0.930 . S
H539 C536 0.929 . S
S540 N541 1.613 . S
S540 N542 1.610 . S
N541 S540 1.613 . S
N541 C544 1.350 . S
N542 S540 1.610 . S
N542 C543 1.351 . S
C543 C537 1.428 . S
C543 N542 1.351 . S
C543 C544 1.434 . S
C544 C535 1.429 . S
C544 N541 1.350 . S
C544 C543 1.434 . S
C545 C546 1.369 . S
C545 C547 1.419 . S
C545 H549 0.930 . S
C546 C545 1.369 . S
C546 C555 1.429 . S
C547 C545 1.419 . S
C547 C548 1.363 . S
C547 H550 0.929 . S
C548 C547 1.363 . S
C548 C554 1.428 . S
H549 C545 0.930 . S
H550 C547 0.929 . S
S551 N552 1.613 . S
S551 N553 1.610 . S
N552 S551 1.613 . S
N552 C555 1.350 . S
N553 S551 1.610 . S
N553 C554 1.351 . S
C554 C548 1.428 . S
C554 N553 1.351 . S
C554 C555 1.434 . S
C555 C546 1.429 . S
C555 N552 1.350 . S
C555 C554 1.434 . S
C556 C557 1.369 . S
C556 C558 1.419 . S
C556 H560 0.930 . S
C557 C556 1.369 . S
C557 C566 1.429 . S
C558 C556 1.419 . S
C558 C559 1.363 . S
C558 H561 0.929 . S
C559 C558 1.363 . S
C559 C565 1.428 . S
H560 C556 0.930 . S
H561 C558 0.929 . S
S562 N563 1.613 . S
S562 N564 1.610 . S
N563 S562 1.613 . S
N563 C566 1.350 . S
N564 S562 1.610 . S
N564 C565 1.351 . S
C565 C559 1.428 . S
C565 N564 1.351 . S
C565 C566 1.434 . S
C566 C557 1.429 . S
C566 N563 1.350 . S
C566 C565 1.434 . S
C567 C568 1.369 . S
C567 C569 1.419 . S
C567 H571 0.930 . S
C568 C567 1.369 . S
C568 C577 1.429 . S
C569 C567 1.419 . S
C569 C570 1.363 . S
C569 H572 0.929 . S
C570 C569 1.363 . S
C570 C576 1.428 . S
H571 C567 0.930 . S
H572 C569 0.929 . S
S573 N574 1.613 . S
S573 N575 1.610 1_565 S
N574 S573 1.613 . S
N574 C577 1.350 . S
N575 S573 1.610 1_545 S
N575 C576 1.351 1_545 S
C576 C570 1.428 . S
C576 N575 1.351 1_565 S
C576 C577 1.434 . S
C577 C568 1.429 . S
C577 N574 1.350 . S
C577 C576 1.434 . S
C578 C579 1.369 . S
C578 C580 1.419 . S
C578 H582 0.930 . S
C579 C578 1.369 . S
C579 C588 1.429 . S
C580 C578 1.419 . S
C580 C581 1.363 . S
C580 H583 0.929 . S
C581 C580 1.363 . S
C581 C587 1.428 . S
H582 C578 0.930 . S
H583 C580 0.929 . S
S584 N585 1.613 . S
S584 N586 1.610 . S
N585 S584 1.613 . S
N585 C588 1.350 . S
N586 S584 1.610 . S
N586 C587 1.351 . S
C587 C581 1.428 . S
C587 N586 1.351 . S
C587 C588 1.434 . S
C588 C579 1.429 . S
C588 N585 1.350 . S
C588 C587 1.434 . S
C589 C590 1.369 . S
C589 C591 1.419 . S
C589 H593 0.930 . S
C590 C589 1.369 . S
C590 C599 1.429 . S
C591 C589 1.419 . S
C591 C592 1.363 . S
C591 H594 0.929 . S
C592 C591 1.363 . S
C592 C598 1.428 . S
H593 C589 0.930 . S
H594 C591 0.929 . S
S595 N596 1.613 . S
S595 N597 1.610 . S
N596 S595 1.613 . S
N596 C599 1.350 . S
N597 S595 1.610 . S
N597 C598 1.351 . S
C598 C592 1.428 . S
C598 N597 1.351 . S
C598 C599 1.434 . S
C599 C590 1.429 . S
C599 N596 1.350 . S
C599 C598 1.434 . S
C600 C601 1.369 . S
C600 C602 1.419 . S
C600 H604 0.930 . S
C601 C600 1.369 . S
C601 C610 1.429 . S
C602 C600 1.419 . S
C602 C603 1.363 . S
C602 H605 0.929 . S
C603 C602 1.363 . S
C603 C609 1.428 . S
H604 C600 0.930 . S
H605 C602 0.929 . S
S606 N607 1.613 . S
S606 N608 1.610 . S
N607 S606 1.613 . S
N607 C610 1.350 . S
N608 S606 1.610 . S
N608 C609 1.351 . S
C609 C603 1.428 . S
C609 N608 1.351 . S
C609 C610 1.434 . S
C610 C601 1.429 . S
C610 N607 1.350 . S
C610 C609 1.434 . S
C611 C612 1.369 . S
C611 C613 1.419 . S
C611 H615 0.930 . S
C612 C611 1.369 . S
C612 C621 1.429 . S
C613 C611 1.419 . S
C613 C614 1.363 . S
C613 H616 0.929 . S
C614 C613 1.363 . S
C614 C620 1.428 . S
H615 C611 0.930 . S
H616 C613 0.929 . S
S617 N618 1.613 . S
S617 N619 1.610 . S
N618 S617 1.613 . S
N618 C621 1.350 . S
N619 S617 1.610 . S
N619 C620 1.351 . S
C620 C614 1.428 . S
C620 N619 1.351 . S
C620 C621 1.434 . S
C621 C612 1.429 . S
C621 N618 1.350 . S
C621 C620 1.434 . S
C622 C623 1.369 . S
C622 C624 1.419 . S
C622 H626 0.930 . S
C623 C622 1.369 . S
C623 C632 1.429 . S
C624 C622 1.419 . S
C624 C625 1.363 . S
C624 H627 0.929 . S
C625 C624 1.363 . S
C625 C631 1.428 . S
H626 C622 0.930 . S
H627 C624 0.929 . S
S628 N629 1.613 . S
S628 N630 1.610 . S
N629 S628 1.613 . S
N629 C632 1.350 . S
N630 S628 1.610 . S
N630 C631 1.351 . S
C631 C625 1.428 . S
C631 N630 1.351 . S
C631 C632 1.434 . S
C632 C623 1.429 . S
C632 N629 1.350 . S
C632 C631 1.434 . S
C633 C634 1.369 . S
C633 C635 1.419 . S
C633 H637 0.930 . S
C634 C633 1.369 . S
C634 C643 1.429 . S
C635 C633 1.419 . S
C635 C636 1.363 . S
C635 H638 0.929 . S
C636 C635 1.363 . S
C636 C642 1.428 . S
H637 C633 0.930 . S
H638 C635 0.929 . S
S639 N640 1.613 . S
S639 N641 1.610 . S
N640 S639 1.613 . S
N640 C643 1.350 . S
N641 S639 1.610 . S
N641 C642 1.351 . S
C642 C636 1.428 . S
C642 N641 1.351 . S
C642 C643 1.434 . S
C643 C634 1.429 . S
C643 N640 1.350 . S
C643 C642 1.434 . S
C644 C645 1.369 . S
C644 C646 1.419 . S
C644 H648 0.930 . S
C645 C644 1.369 . S
C645 C654 1.429 . S
C646 C644 1.419 . S
C646 C647 1.363 . S
C646 H649 0.929 . S
C647 C646 1.363 . S
C647 C653 1.428 . S
H648 C644 0.930 . S
H649 C646 0.929 . S
S650 N651 1.613 . S
S650 N652 1.610 1_655 S
N651 S650 1.613 . S
N651 C654 1.350 . S
N652 S650 1.610 1_455 S
N652 C653 1.351 1_455 S
C653 C647 1.428 . S
C653 N652 1.351 1_655 S
C653 C654 1.434 . S
C654 C645 1.429 . S
C654 N651 1.350 . S
C654 C653 1.434 . S
C655 C656 1.369 . S
C655 C657 1.419 . S
C655 H659 0.930 . S
C656 C655 1.369 . S
C656 C665 1.429 . S
C657 C655 1.419 . S
C657 C658 1.363 . S
C657 H660 0.929 . S
C658 C657 1.363 . S
C658 C664 1.428 . S
H659 C655 0.930 . S
H660 C657 0.929 . S
S661 N662 1.613 . S
S661 N663 1.610 . S
N662 S661 1.613 . S
N662 C665 1.350 . S
N663 S661 1.610 . S
N663 C664 1.351 . S
C664 C658 1.428 . S
C664 N663 1.351 . S
C664 C665 1.434 . S
C665 C656 1.429 . S
C665 N662 1.350 . S
C665 C664 1.434 . S
C666 C667 1.369 . S
C666 C668 1.419 . S
C666 H670 0.930 . S
C667 C666 1.369 . S
C667 C676 1.429 . S
C668 C666 1.419 . S
C668 C669 1.363 . S
C668 H671 0.929 . S
C669 C668 1.363 . S
C669 C675 1.428 . S
H670 C666 0.930 . S
H671 C668 0.929 . S
S672 N673 1.613 . S
S672 N674 1.610 . S
N673 S672 1.613 . S
N673 C676 1.350 . S
N674 S672 1.610 . S
N674 C675 1.351 . S
C675 C669 1.428 . S
C675 N674 1.351 . S
C675 C676 1.434 . S
C676 C667 1.429 . S
C676 N673 1.350 . S
C676 C675 1.434 . S
C677 C678 1.369 . S
C677 C679 1.419 . S
C677 H681 0.930 . S
C678 C677 1.369 . S
C678 C687 1.429 . S
C679 C677 1.419 . S
C679 C680 1.363 . S
C679 H682 0.929 . S
C680 C679 1.363 . S
C680 C686 1.428 . S
H681 C677 0.930 . S
H682 C679 0.929 . S
S683 N684 1.613 . S
S683 N685 1.610 . S
N684 S683 1.613 . S
N684 C687 1.350 . S
N685 S683 1.610 . S
N685 C686 1.351 . S
C686 C680 1.428 . S
C686 N685 1.351 . S
C686 C687 1.434 . S
C687 C678 1.429 . S
C687 N684 1.350 . S
C687 C686 1.434 . S
C688 C689 1.369 . S
C688 C690 1.419 . S
C688 H692 0.930 . S
C689 C688 1.369 . S
C689 C698 1.429 . S
C690 C688 1.419 . S
C690 C691 1.363 . S
C690 H693 0.929 . S
C691 C690 1.363 . S
C691 C697 1.428 . S
H692 C688 0.930 . S
H693 C690 0.929 . S
S694 N695 1.613 . S
S694 N696 1.610 . S
N695 S694 1.613 . S
N695 C698 1.350 . S
N696 S694 1.610 . S
N696 C697 1.351 . S
C697 C691 1.428 . S
C697 N696 1.351 . S
C697 C698 1.434 . S
C698 C689 1.429 . S
C698 N695 1.350 . S
C698 C697 1.434 . S
C699 C700 1.369 . S
C699 C701 1.419 . S
C699 H703 0.930 . S
C700 C699 1.369 . S
C700 C709 1.429 . S
C701 C699 1.419 . S
C701 C702 1.363 . S
C701 H704 0.929 . S
C702 C701 1.363 . S
C702 C708 1.428 . S
H703 C699 0.930 . S
H704 C701 0.929 . S
S705 N706 1.613 . S
S705 N707 1.610 . S
N706 S705 1.613 . S
N706 C709 1.350 . S
N707 S705 1.610 . S
N707 C708 1.351 . S
C708 C702 1.428 . S
C708 N707 1.351 . S
C708 C709 1.434 . S
C709 C700 1.429 . S
C709 N706 1.350 . S
C709 C708 1.434 . S
C710 C711 1.369 . S
C710 C712 1.419 . S
C710 H714 0.930 . S
C711 C710 1.369 . S
C711 C720 1.429 . S
C712 C710 1.419 . S
C712 C713 1.363 . S
C712 H715 0.929 . S
C713 C712 1.363 . S
C713 C719 1.428 . S
H714 C710 0.930 . S
H715 C712 0.929 . S
S716 N717 1.613 . S
S716 N718 1.610 . S
N717 S716 1.613 . S
N717 C720 1.350 . S
N718 S716 1.610 . S
N718 C719 1.351 . S
C719 C713 1.428 . S
C719 N718 1.351 . S
C719 C720 1.434 . S
C720 C711 1.429 . S
C720 N717 1.350 . S
C720 C719 1.434 . S
C721 C722 1.369 . S
C721 C723 1.419 . S
C721 H725 0.930 . S
C722 C721 1.369 . S
C722 C731 1.429 . S
C723 C721 1.419 . S
C723 C724 1.363 . S
C723 H726 0.929 . S
C724 C723 1.363 . S
C724 C730 1.428 . S
H725 C721 0.930 . S
H726 C723 0.929 . S
S727 N728 1.613 . S
S727 N729 1.610 . S
N728 S727 1.613 . S
N728 C731 1.350 . S
N729 S727 1.610 . S
N729 C730 1.351 . S
C730 C724 1.428 . S
C730 N729 1.351 . S
C730 C731 1.434 . S
C731 C722 1.429 . S
C731 N728 1.350 . S
C731 C730 1.434 . S
C732 C733 1.369 . S
C732 C734 1.419 . S
C732 H736 0.930 . S
C733 C732 1.369 . S
C733 C742 1.429 . S
C734 C732 1.419 . S
C734 C735 1.363 . S
C734 H737 0.929 . S
C735 C734 1.363 . S
C735 C741 1.428 . S
H736 C732 0.930 . S
H737 C734 0.929 . S
S738 N739 1.613 . S
S738 N740 1.610 . S
N739 S738 1.613 . S
N739 C742 1.350 . S
N740 S738 1.610 . S
N740 C741 1.351 . S
C741 C735 1.428 . S
C741 N740 1.351 . S
C741 C742 1.434 . S
C742 C733 1.429 . S
C742 N739 1.350 . S
C742 C741 1.434 . S
C743 C744 1.369 . S
C743 C745 1.419 . S
C743 H747 0.930 . S
C744 C743 1.369 . S
C744 C753 1.429 . S
C745 C743 1.419 . S
C745 C746 1.363 . S
C745 H748 0.929 . S
C746 C745 1.363 . S
C746 C752 1.428 . S
H747 C743 0.930 . S
H748 C745 0.929 . S
S749 N750 1.613 . S
S749 N751 1.610 . S
N750 S749 1.613 . S
N750 C753 1.350 . S
N751 S749 1.610 . S
N751 C752 1.351 . S
C752 C746 1.428 . S
C752 N751 1.351 . S
C752 C753 1.434 . S
C753 C744 1.429 . S
C753 N750 1.350 . S
C753 C752 1.434 . S
C754 C755 1.369 . S
C754 C756 1.419 . S
C754 H758 0.930 . S
C755 C754 1.369 . S
C755 C764 1.429 . S
C756 C754 1.419 . S
C756 C757 1.363 . S
C756 H759 0.929 . S
C757 C756 1.363 . S
C757 C763 1.428 . S
H758 C754 0.930 . S
H759 C756 0.929 . S
S760 N761 1.613 . S
S760 N762 1.610 . S
N761 S760 1.613 . S
N761 C764 1.350 . S
N762 S760 1.610 . S
N762 C763 1.351 . S
C763 C757 1.428 . S
C763 N762 1.351 . S
C763 C764 1.434 . S
C764 C755 1.429 . S
C764 N761 1.350 . S
C764 C763 1.434 . S
C765 C766 1.369 . S
C765 C767 1.419 . S
C765 H769 0.930 . S
C766 C765 1.369 . S
C766 C775 1.429 . S
C767 C765 1.419 . S
C767 C768 1.363 . S
C767 H770 0.929 . S
C768 C767 1.363 . S
C768 C774 1.428 . S
H769 C765 0.930 . S
H770 C767 0.929 . S
S771 N772 1.613 . S
S771 N773 1.610 . S
N772 S771 1.613 . S
N772 C775 1.350 . S
N773 S771 1.610 . S
N773 C774 1.351 . S
C774 C768 1.428 . S
C774 N773 1.351 . S
C774 C775 1.434 . S
C775 C766 1.429 . S
C775 N772 1.350 . S
C775 C774 1.434 . S
C776 C777 1.369 . S
C776 C778 1.419 . S
C776 H780 0.930 . S
C777 C776 1.369 . S
C777 C786 1.429 . S
C778 C776 1.419 . S
C778 C779 1.363 . S
C778 H781 0.929 . S
C779 C778 1.363 . S
C779 C785 1.428 . S
H780 C776 0.930 . S
H781 C778 0.929 . S
S782 N783 1.613 . S
S782 N784 1.610 . S
N783 S782 1.613 . S
N783 C786 1.350 . S
N784 S782 1.610 . S
N784 C785 1.351 . S
C785 C779 1.428 . S
C785 N784 1.351 . S
C785 C786 1.434 . S
C786 C777 1.429 . S
C786 N783 1.350 . S
C786 C785 1.434 . S
C787 C788 1.369 . S
C787 C789 1.419 . S
C787 H791 0.930 . S
C788 C787 1.369 . S
C788 C797 1.429 . S
C789 C787 1.419 . S
C789 C790 1.363 . S
C789 H792 0.929 . S
C790 C789 1.363 . S
C790 C796 1.428 . S
H791 C787 0.930 . S
H792 C789 0.929 . S
S793 N794 1.613 . S
S793 N795 1.610 . S
N794 S793 1.613 . S
N794 C797 1.350 . S
N795 S793 1.610 . S
N795 C796 1.351 . S
C796 C790 1.428 . S
C796 N795 1.351 . S
C796 C797 1.434 . S
C797 C788 1.429 . S
C797 N794 1.350 . S
C797 C796 1.434 . S
C798 C799 1.369 . S
C798 C800 1.419 . S
C798 H802 0.930 . S
C799 C798 1.369 . S
C799 C808 1.429 . S
C800 C798 1.419 . S
C800 C801 1.363 . S
C800 H803 0.929 . S
C801 C800 1.363 . S
C801 C807 1.428 . S
H802 C798 0.930 . S
H803 C800 0.929 . S
S804 N805 1.613 . S
S804 N806 1.610 . S
N805 S804 1.613 . S
N805 C808 1.350 . S
N806 S804 1.610 . S
N806 C807 1.351 . S
C807 C801 1.428 . S
C807 N806 1.351 . S
C807 C808 1.434 . S
C808 C799 1.429 . S
C808 N805 1.350 . S
C808 C807 1.434 . S
C809 C810 1.369 . S
C809 C811 1.419 . S
C809 H813 0.930 . S
C810 C809 1.369 . S
C810 C819 1.429 . S
C811 C809 1.419 . S
C811 C812 1.363 . S
C811 H814 0.929 . S
C812 C811 1.363 . S
C812 C818 1.428 . S
H813 C809 0.930 . S
H814 C811 0.929 . S
S815 N816 1.613 . S
S815 N817 1.610 . S
N816 S815 1.613 . S
N816 C819 1.350 . S
N817 S815 1.610 . S
N817 C818 1.351 . S
C818 C812 1.428 . S
C818 N817 1.351 . S
C818 C819 1.434 . S
C819 C810 1.429 . S
C819 N816 1.350 . S
C819 C818 1.434 . S
C820 C821 1.369 . S
C820 C822 1.419 . S
C820 H824 0.930 . S
C821 C820 1.369 . S
C821 C830 1.429 . S
C822 C820 1.419 . S
C822 C823 1.363 . S
C822 H825 0.929 . S
C823 C822 1.363 . S
C823 C829 1.428 . S
H824 C820 0.930 . S
H825 C822 0.929 . S
S826 N827 1.613 . S
S826 N828 1.610 . S
N827 S826 1.613 . S
N827 C830 1.350 . S
N828 S826 1.610 . S
N828 C829 1.351 . S
C829 C823 1.428 . S
C829 N828 1.351 . S
C829 C830 1.434 . S
C830 C821 1.429 . S
C830 N827 1.350 . S
C830 C829 1.434 . S
C831 C832 1.369 . S
C831 C833 1.419 . S
C831 H835 0.930 . S
C832 C831 1.369 . S
C832 C841 1.429 . S
C833 C831 1.419 . S
C833 C834 1.363 . S
C833 H836 0.929 . S
C834 C833 1.363 . S
C834 C840 1.428 . S
H835 C831 0.930 . S
H836 C833 0.929 . S
S837 N838 1.613 . S
S837 N839 1.610 . S
N838 S837 1.613 . S
N838 C841 1.350 . S
N839 S837 1.610 . S
N839 C840 1.351 . S
C840 C834 1.428 . S
C840 N839 1.351 . S
C840 C841 1.434 . S
C841 C832 1.429 . S
C841 N838 1.350 . S
C841 C840 1.434 . S
C842 C843 1.369 . S
C842 C844 1.419 . S
C842 H846 0.930 . S
C843 C842 1.369 . S
C843 C852 1.429 . S
C844 C842 1.419 . S
C844 C845 1.363 . S
C844 H847 0.929 . S
C845 C844 1.363 . S
C845 C851 1.428 . S
H846 C842 0.930 . S
H847 C844 0.929 . S
S848 N849 1.613 . S
S848 N850 1.610 1_455 S
N849 S848 1.613 . S
N849 C852 1.350 1_455 S
N850 S848 1.610 1_655 S
N850 C851 1.351 . S
C851 C845 1.428 . S
C851 N850 1.351 . S
C851 C852 1.434 . S
C852 C843 1.429 . S
C852 N849 1.350 1_655 S
C852 C851 1.434 . S
C853 C854 1.369 . S
C853 C855 1.419 . S
C853 H857 0.930 . S
C854 C853 1.369 . S
C854 C863 1.429 . S
C855 C853 1.419 . S
C855 C856 1.363 . S
C855 H858 0.929 . S
C856 C855 1.363 . S
C856 C862 1.428 . S
H857 C853 0.930 . S
H858 C855 0.929 . S
S859 N860 1.613 . S
S859 N861 1.610 . S
N860 S859 1.613 . S
N860 C863 1.350 . S
N861 S859 1.610 . S
N861 C862 1.351 . S
C862 C856 1.428 . S
C862 N861 1.351 . S
C862 C863 1.434 . S
C863 C854 1.429 . S
C863 N860 1.350 . S
C863 C862 1.434 . S
C864 C865 1.369 . S
C864 C866 1.419 . S
C864 H868 0.930 . S
C865 C864 1.369 . S
C865 C874 1.429 . S
C866 C864 1.419 . S
C866 C867 1.363 . S
C866 H869 0.929 . S
C867 C866 1.363 . S
C867 C873 1.428 . S
H868 C864 0.930 . S
H869 C866 0.929 . S
S870 N871 1.613 . S
S870 N872 1.610 . S
N871 S870 1.613 . S
N871 C874 1.350 . S
N872 S870 1.610 . S
N872 C873 1.351 . S
C873 C867 1.428 . S
C873 N872 1.351 . S
C873 C874 1.434 . S
C874 C865 1.429 . S
C874 N871 1.350 . S
C874 C873 1.434 . S
C875 C876 1.369 . S
C875 C877 1.419 . S
C875 H879 0.930 . S
C876 C875 1.369 . S
C876 C885 1.429 . S
C877 C875 1.419 . S
C877 C878 1.363 . S
C877 H880 0.929 . S
C878 C877 1.363 . S
C878 C884 1.428 . S
H879 C875 0.930 . S
H880 C877 0.929 . S
S881 N882 1.613 1_655 S
S881 N883 1.610 . S
N882 S881 1.613 1_455 S
N882 C885 1.350 . S
N883 S881 1.610 . S
N883 C884 1.351 1_655 S
C884 C878 1.428 . S
C884 N883 1.351 1_455 S
C884 C885 1.434 . S
C885 C876 1.429 . S
C885 N882 1.350 . S
C885 C884 1.434 . S
C886 C887 1.369 . S
C886 C888 1.419 . S
C886 H890 0.930 . S
C887 C886 1.369 . S
C887 C896 1.429 . S
C888 C886 1.419 . S
C888 C889 1.363 . S
C888 H891 0.929 . S
C889 C888 1.363 . S
C889 C895 1.428 . S
H890 C886 0.930 . S
H891 C888 0.929 . S
S892 N893 1.613 . S
S892 N894 1.610 . S
N893 S892 1.613 . S
N893 C896 1.350 . S
N894 S892 1.610 . S
N894 C895 1.351 . S
C895 C889 1.428 . S
C895 N894 1.351 . S
C895 C896 1.434 . S
C896 C887 1.429 . S
C896 N893 1.350 . S
C896 C895 1.434 . S
C897 C898 1.369 . S
C897 C899 1.419 . S
C897 H901 0.930 . S
C898 C897 1.369 . S
C898 C907 1.429 . S
C899 C897 1.419 . S
C899 C900 1.363 . S
C899 H902 0.929 . S
C900 C899 1.363 . S
C900 C906 1.428 . S
H901 C897 0.930 . S
H902 C899 0.929 . S
S903 N904 1.613 . S
S903 N905 1.610 . S
N904 S903 1.613 . S
N904 C907 1.350 . S
N905 S903 1.610 . S
N905 C906 1.351 . S
C906 C900 1.428 . S
C906 N905 1.351 . S
C906 C907 1.434 . S
C907 C898 1.429 . S
C907 N904 1.350 . S
C907 C906 1.434 . S
C908 C909 1.369 . S
C908 C910 1.419 . S
C908 H912 0.930 . S
C909 C908 1.369 . S
C909 C918 1.429 . S
C910 C908 1.419 . S
C910 C911 1.363 . S
C910 H913 0.929 . S
C911 C910 1.363 . S
C911 C917 1.428 . S
H912 C908 0.930 . S
H913 C910 0.929 . S
S914 N915 1.610 1_455 S
S914 N916 1.600 1_455 S
N915 S914 1.610 1_655 S
N915 C918 1.350 . S
N916 S914 1.600 1_655 S
N916 C917 1.351 . S
C917 C911 1.428 . S
C917 N916 1.351 . S
C917 C918 1.434 . S
C918 C909 1.429 . S
C918 N915 1.350 . S
C918 C917 1.434 . S
C919 C920 1.369 . S
C919 C921 1.419 . S
C919 H923 0.930 . S
C920 C919 1.369 . S
C920 C929 1.429 . S
C921 C919 1.419 . S
C921 C922 1.363 . S
C921 H924 0.929 . S
C922 C921 1.363 . S
C922 C928 1.428 . S
H923 C919 0.930 . S
H924 C921 0.929 . S
S925 N926 1.613 . S
S925 N927 1.610 . S
N926 S925 1.613 . S
N926 C929 1.350 . S
N927 S925 1.610 . S
N927 C928 1.351 . S
C928 C922 1.428 . S
C928 N927 1.351 . S
C928 C929 1.434 . S
C929 C920 1.429 . S
C929 N926 1.350 . S
C929 C928 1.434 . S
C930 C931 1.369 . S
C930 C932 1.419 . S
C930 H934 0.930 . S
C931 C930 1.369 . S
C931 C940 1.429 . S
C932 C930 1.419 . S
C932 C933 1.363 . S
C932 H935 0.929 . S
C933 C932 1.363 . S
C933 C939 1.428 . S
H934 C930 0.930 . S
H935 C932 0.929 . S
S936 N937 1.613 . S
S936 N938 1.610 . S
N937 S936 1.613 . S
N937 C940 1.350 . S
N938 S936 1.610 . S
N938 C939 1.351 . S
C939 C933 1.428 . S
C939 N938 1.351 . S
C939 C940 1.434 . S
C940 C931 1.429 . S
C940 N937 1.350 . S
C940 C939 1.434 . S
C941 C942 1.369 . S
C941 C943 1.419 . S
C941 H945 0.930 . S
C942 C941 1.369 . S
C942 C951 1.429 . S
C943 C941 1.419 . S
C943 C944 1.363 . S
C943 H946 0.929 . S
C944 C943 1.363 . S
C944 C950 1.428 . S
H945 C941 0.930 . S
H946 C943 0.929 . S
S947 N948 1.613 . S
S947 N949 1.610 . S
N948 S947 1.613 . S
N948 C951 1.350 . S
N949 S947 1.610 . S
N949 C950 1.351 . S
C950 C944 1.428 . S
C950 N949 1.351 . S
C950 C951 1.434 . S
C951 C942 1.429 . S
C951 N948 1.350 . S
C951 C950 1.434 . S
C952 C953 1.369 . S
C952 C954 1.419 . S
C952 H956 0.930 . S
C953 C952 1.369 . S
C953 C962 1.429 . S
C954 C952 1.419 . S
C954 C955 1.363 . S
C954 H957 0.929 . S
C955 C954 1.363 . S
C955 C961 1.428 . S
H956 C952 0.930 . S
H957 C954 0.929 . S
S958 N959 1.613 . S
S958 N960 1.610 . S
N959 S958 1.613 . S
N959 C962 1.350 . S
N960 S958 1.610 . S
N960 C961 1.351 . S
C961 C955 1.428 . S
C961 N960 1.351 . S
C961 C962 1.434 . S
C962 C953 1.429 . S
C962 N959 1.350 . S
C962 C961 1.434 . S
C963 C964 1.369 . S
C963 C965 1.419 . S
C963 H967 0.930 . S
C964 C963 1.369 . S
C964 C973 1.429 . S
C965 C963 1.419 . S
C965 C966 1.363 . S
C965 H968 0.929 . S
C966 C965 1.363 . S
C966 C972 1.428 . S
H967 C963 0.930 . S
H968 C965 0.929 . S
S969 N970 1.613 . S
S969 N971 1.610 . S
N970 S969 1.613 . S
N970 C973 1.350 . S
N971 S969 1.610 . S
N971 C972 1.351 . S
C972 C966 1.428 . S
C972 N971 1.351 . S
C972 C973 1.434 . S
C973 C964 1.429 . S
C973 N970 1.350 . S
C973 C972 1.434 . S
C974 C975 1.369 . S
C974 C976 1.419 . S
C974 H978 0.930 . S
C975 C974 1.369 . S
C975 C984 1.429 . S
C976 C974 1.419 . S
C976 C977 1.363 . S
C976 H979 0.929 . S
C977 C976 1.363 . S
C977 C983 1.428 . S
H978 C974 0.930 . S
H979 C976 0.929 . S
S980 N981 1.613 . S
S980 N982 1.610 . S
N981 S980 1.613 . S
N981 C984 1.350 . S
N982 S980 1.610 . S
N982 C983 1.351 . S
C983 C977 1.428 . S
C983 N982 1.351 . S
C983 C984 1.434 . S
C984 C975 1.429 . S
C984 N981 1.350 . S
C984 C983 1.434 . S
C985 C986 1.369 . S
C985 C987 1.419 . S
C985 H989 0.930 . S
C986 C985 1.369 . S
C986 C995 1.429 . S
C987 C985 1.419 . S
C987 C988 1.363 . S
C987 H990 0.929 . S
C988 C987 1.363 . S
C988 C994 1.428 . S
H989 C985 0.930 . S
H990 C987 0.929 . S
S991 N992 1.613 . S
S991 N993 1.610 . S
N992 S991 1.613 . S
N992 C995 1.350 . S
N993 S991 1.610 . S
N993 C994 1.351 . S
C994 C988 1.428 . S
C994 N993 1.351 . S
C994 C995 1.434 . S
C995 C986 1.429 . S
C995 N992 1.350 . S
C995 C994 1.434 . S
C996 C997 1.369 . S
C996 C998 1.419 . S
C996 H1000 0.930 . S
C997 C996 1.369 . S
C997 C1006 1.429 . S
C998 C996 1.419 . S
C998 C999 1.363 . S
C998 H1001 0.929 . S
C999 C998 1.363 . S
C999 C1005 1.428 . S
H1000 C996 0.930 . S
H1001 C998 0.929 . S
S1002 N1003 1.613 . S
S1002 N1004 1.610 . S
N1003 S1002 1.613 . S
N1003 C1006 1.350 . S
N1004 S1002 1.610 . S
N1004 C1005 1.351 . S
C1005 C999 1.428 . S
C1005 N1004 1.351 . S
C1005 C1006 1.434 . S
C1006 C997 1.429 . S
C1006 N1003 1.350 . S
C1006 C1005 1.434 . S
C1007 C1008 1.369 . S
C1007 C1009 1.419 . S
C1007 H1011 0.930 . S
C1008 C1007 1.369 . S
C1008 C1017 1.429 . S
C1009 C1007 1.419 . S
C1009 C1010 1.363 . S
C1009 H1012 0.929 . S
C1010 C1009 1.363 . S
C1010 C1016 1.428 . S
H1011 C1007 0.930 . S
H1012 C1009 0.929 . S
S1013 N1014 1.613 . S
S1013 N1015 1.610 . S
N1014 S1013 1.613 . S
N1014 C1017 1.350 . S
N1015 S1013 1.610 . S
N1015 C1016 1.351 . S
C1016 C1010 1.428 . S
C1016 N1015 1.351 . S
C1016 C1017 1.434 . S
C1017 C1008 1.429 . S
C1017 N1014 1.350 . S
C1017 C1016 1.434 . S
C1018 C1019 1.369 . S
C1018 C1020 1.419 . S
C1018 H1022 0.930 . S
C1019 C1018 1.369 . S
C1019 C1028 1.429 . S
C1020 C1018 1.419 . S
C1020 C1021 1.363 . S
C1020 H1023 0.929 . S
C1021 C1020 1.363 . S
C1021 C1027 1.428 . S
H1022 C1018 0.930 . S
H1023 C1020 0.929 . S
S1024 N1025 1.613 . S
S1024 N1026 1.610 . S
N1025 S1024 1.613 . S
N1025 C1028 1.350 . S
N1026 S1024 1.610 . S
N1026 C1027 1.351 . S
C1027 C1021 1.428 . S
C1027 N1026 1.351 . S
C1027 C1028 1.434 . S
C1028 C1019 1.429 . S
C1028 N1025 1.350 . S
C1028 C1027 1.434 . S
C1029 C1030 1.369 . S
C1029 C1031 1.419 . S
C1029 H1033 0.930 . S
C1030 C1029 1.369 . S
C1030 C1039 1.429 . S
C1031 C1029 1.419 . S
C1031 C1032 1.363 . S
C1031 H1034 0.929 . S
C1032 C1031 1.363 . S
C1032 C1038 1.428 . S
H1033 C1029 0.930 . S
H1034 C1031 0.929 . S
S1035 N1036 1.613 . S
S1035 N1037 1.610 . S
N1036 S1035 1.613 . S
N1036 C1039 1.350 . S
N1037 S1035 1.610 . S
N1037 C1038 1.351 . S
C1038 C1032 1.428 . S
C1038 N1037 1.351 . S
C1038 C1039 1.434 . S
C1039 C1030 1.429 . S
C1039 N1036 1.350 . S
C1039 C1038 1.434 . S
C513 C98 1.450 . S
C515 N18 1.397 . S
C524 C4 1.511 . S
C526 C38 1.536 . S
C535 N77 1.419 . S
C537 C34 1.604 . S
C546 C102 1.743 . S
C548 C66 1.757 . S
C557 C157 1.595 . S
C559 C164 1.550 . S
C568 N178 0.225 . S
C570 N205 0.456 . S
C579 C196 1.803 . S
C581 C226 1.799 . S
C590 N146 0.632 . S
C592 N237 0.780 . S
C601 C317 1.625 . S
C603 C29 1.621 . S
C612 C349 1.688 . S
C614 N50 1.528 . S
C623 C70 1.569 . S
C625 C422 1.573 . S
C634 C285 1.707 . S
C636 N114 1.521 . S
C645 N365 1.535 . S
C647 C132 1.698 . S
C656 C477 1.618 . S
C658 C189 1.624 . S
C667 C221 1.692 . S
C669 N402 1.524 . S
C678 C486 1.566 . S
C680 C230 1.575 . S
C689 N269 0.658 . S
C691 N429 0.768 . S
C700 C292 1.543 . S
C702 C260 1.599 . S
C711 N333 0.427 . S
C713 N306 0.212 . S
C722 N466 1.393 . S
C724 C358 1.448 . S
C733 C386 1.605 . S
C735 N493 1.425 . S
C744 C356 1.619 . S
C746 N13 1.518 . S
C755 C388 1.621 . S
C757 C6 1.610 . S
C766 C413 1.588 . S
C768 N82 1.479 . S
C777 C93 1.886 . S
C779 C381 1.889 . S
C788 C294 1.585 . S
C790 C130 1.594 . S
C799 N301 0.391 . S
C801 N210 0.501 . S
C810 C445 1.836 . S
C812 C198 1.837 . S
C821 N141 0.647 . S
C823 N434 0.753 . S
C832 C162 1.881 . S
C834 C2 1.887 . S
C843 C322 1.686 . S
C845 N397 1.567 . S
C854 C68 1.501 . S
C856 C228 1.494 . S
C865 C258 1.711 . S
C867 N370 1.586 . S
C876 N109 1.587 . S
C878 C134 1.709 . S
C887 C290 1.883 . S
C889 C450 1.887 . S
C898 C194 1.689 . S
C900 N45 1.564 . S
C909 C484 1.499 . S
C911 C420 1.495 . S
C920 N274 0.648 . S
C922 N242 0.752 . S
C931 C262 1.596 . S
C933 C166 1.583 . S
C942 N338 0.484 . S
C944 N173 0.395 . S
C953 C125 1.620 . S
C955 N461 1.525 . S
C964 C61 1.590 . S
C966 N498 1.476 . S
C975 C390 1.536 . S
C977 C452 1.512 . S
C986 C354 1.740 . S
C988 C482 1.757 . S
C997 C324 1.801 . S
C999 C418 1.798 . S
C1008 C454 1.609 . S
C1010 C36 1.621 . S
C1019 C100 1.888 . S
C1021 C509 1.887 . S
C1030 C253 1.841 . S
C1032 C326 1.836 . S
