# Generated by pormake.
# Topology snp, (6)-cn, num edge types: 1
# Building blocks:
#     Node 0, Type 0, BuildingBlock: MIDCAF_clean_sbu_0, # of connection points: 6
#     Node 1, Type 0, BuildingBlock: MIDCAF_clean_sbu_0, # of connection points: 6
#     Node 2, Type 0, BuildingBlock: MIDCAF_clean_sbu_0, # of connection points: 6
#     Node 3, Type 0, BuildingBlock: MIDCAF_clean_sbu_0, # of connection points: 6
#     Edge 4, Type (0, 0), BuildingBlock: MIFKUJ_clean_linker_0, # of connection points: 2
#     Edge 5, Type (0, 0), BuildingBlock: MIFKUJ_clean_linker_0, # of connection points: 2
#     Edge 6, Type (0, 0), BuildingBlock: MIFKUJ_clean_linker_0, # of connection points: 2
#     Edge 7, Type (0, 0), BuildingBlock: MIFKUJ_clean_linker_0, # of connection points: 2
#     Edge 8, Type (0, 0), BuildingBlock: MIFKUJ_clean_linker_0, # of connection points: 2
#     Edge 9, Type (0, 0), BuildingBlock: MIFKUJ_clean_linker_0, # of connection points: 2
#     Edge 10, Type (0, 0), BuildingBlock: MIFKUJ_clean_linker_0, # of connection points: 2
#     Edge 11, Type (0, 0), BuildingBlock: MIFKUJ_clean_linker_0, # of connection points: 2
#     Edge 12, Type (0, 0), BuildingBlock: MIFKUJ_clean_linker_0, # of connection points: 2
#     Edge 13, Type (0, 0), BuildingBlock: MIFKUJ_clean_linker_0, # of connection points: 2
#     Edge 14, Type (0, 0), BuildingBlock: MIFKUJ_clean_linker_0, # of connection points: 2
#     Edge 15, Type (0, 0), BuildingBlock: MIFKUJ_clean_linker_0, # of connection points: 2
# Relax obj value: 0.760
# Max RMSD: 0.328
# Mean RMSD: 0.324
data_MOF--net-snp--node1-MIDCAF_clean_sbu_0--edge1-MIFKUJ_clean_linker_0
_symmetry_space_group_name_H-M    P1
_symmetry_Int_Tables_number       1
_symmetry_cell_setting            triclinic
loop_
_symmetry_equiv_pos_as_xyz
'x, y, z'
_cell_length_a     33.754905
_cell_length_b     33.798391
_cell_length_c     29.281523
_cell_angle_alpha  82.176412
_cell_angle_beta   90.079946
_cell_angle_gamma 99.639312
loop_
_atom_site_label
_atom_site_type_symbol
_atom_site_fract_x
_atom_site_fract_y
_atom_site_fract_z
_atom_type_partial_charge
Zn0 Zn 0.33603 0.27004 0.02856 0.0
Zn1 Zn 0.30259 0.07498 0.02314 0.0
Zn2 Zn 0.28622 0.13811 0.02471 0.0
C3 C 0.22474 0.08321 0.9825 0.0
C4 C 0.28931 0.06932 0.1106 0.0
O5 O 0.32905 0.193 0.01956 0.0
O6 O 0.38215 0.24003 0.0081 0.0
C7 C 0.27171 0.22993 0.98344 0.0
O8 O 0.23895 0.12075 0.98132 0.0
O9 O 0.24403 0.05711 0.00313 0.0
O10 O 0.31358 0.05457 0.08766 0.0
O11 O 0.27395 0.09944 0.09143 0.0
O12 O 0.28702 0.26695 0.98352 0.0
O13 O 0.28802 0.20329 0.0093 0.0
O14 O 0.30011 0.19403 0.05698 0.0
O15 O 0.31229 0.24607 0.09493 0.0
C16 C 0.29622 0.20928 0.09462 0.0
O17 O 0.2973 0.12289 0.95617 0.0
O18 O 0.34165 0.08266 0.96952 0.0
C19 C 0.36654 0.20306 0.0087 0.0
C20 C 0.32179 0.10257 0.9408 0.0
Zn21 Zn 0.90954 0.20602 0.5665 0.0
Zn22 Zn 0.12634 0.33405 0.48475 0.0
Zn23 Zn 0.01697 0.28001 0.53428 0.0
C24 C 0.0643 0.2526 0.45629 0.0
C25 C 0.10944 0.29948 0.57043 0.0
O26 O 0.97246 0.28323 0.58972 0.0
O27 O 0.92049 0.26927 0.54826 0.0
C28 C 0.95152 0.24112 0.47659 0.0
O29 O 0.0308 0.24682 0.47976 0.0
O30 O 0.09321 0.28173 0.4602 0.0
O31 O 0.14274 0.31681 0.5514 0.0
O32 O 0.07833 0.29963 0.54546 0.0
O33 O 0.93048 0.24866 0.50922 0.0
O34 O 0.98954 0.25288 0.47671 0.0
O35 O 0.9952 0.24425 0.59614 0.0
O36 O 0.95288 0.18797 0.61325 0.0
C37 C 0.9881 0.2056 0.59979 0.0
O38 O 0.05764 0.33212 0.51399 0.0
O39 O 0.09774 0.38459 0.48109 0.0
C40 C 0.93425 0.28067 0.58561 0.0
C41 C 0.06335 0.36978 0.4989 0.0
Zn42 Zn 0.70684 0.88699 0.06647 0.0
Zn43 Zn 0.75591 0.0274 0.0511 0.0
Zn44 Zn 0.74479 0.95906 0.05896 0.0
C45 C 0.8248 0.00476 0.01726 0.0
C46 C 0.76187 0.01192 0.13781 0.0
O47 O 0.6859 0.96879 0.05597 0.0
O48 O 0.6525 0.90698 0.05671 0.0
C49 C 0.76563 0.90156 0.99086 0.0
O50 O 0.7959 0.97587 0.01122 0.0
O51 O 0.81731 0.03302 0.03846 0.0
O52 O 0.73951 0.03334 0.11464 0.0
O53 O 0.77244 0.98206 0.12065 0.0
O54 O 0.73846 0.87516 0.01236 0.0
O55 O 0.77258 0.93766 0.00188 0.0
O56 O 0.76726 0.93553 0.12325 0.0
O57 O 0.73125 0.8739 0.13007 0.0
C58 C 0.75731 0.89999 0.14572 0.0
O59 O 0.75674 0.98368 0.98446 0.0
O60 O 0.72183 0.03106 0.99473 0.0
C61 C 0.65289 0.94479 0.05431 0.0
C62 C 0.73885 0.01305 0.96713 0.0
Zn63 Zn 0.93757 0.75538 0.57231 0.0
Zn64 Zn 0.12025 0.76716 0.61107 0.0
Zn65 Zn 0.05264 0.79503 0.60418 0.0
C66 C 0.11868 0.82453 0.67266 0.0
C67 C 0.11908 0.81864 0.52439 0.0
O68 O 0.03951 0.81005 0.53185 0.0
O69 O 0.9933 0.75494 0.53917 0.0
C70 C 0.96629 0.74465 0.65916 0.0
O71 O 0.0876 0.83092 0.64979 0.0
O72 O 0.13547 0.79478 0.66659 0.0
O73 O 0.14178 0.79932 0.5499 0.0
O74 O 0.0826 0.81791 0.53729 0.0
O75 O 0.93371 0.72953 0.64164 0.0
O76 O 0.9955 0.76034 0.63078 0.0
O77 O 0.99361 0.80669 0.59752 0.0
O78 O 0.93433 0.81651 0.576 0.0
C79 C 0.96906 0.83126 0.58887 0.0
O80 O 0.03791 0.73163 0.62381 0.0
O81 O 0.09423 0.70825 0.61785 0.0
C82 C 0.01024 0.78741 0.51444 0.0
C83 C 0.0566 0.70182 0.62505 0.0
H84 H 0.87253 0.07035 0.96965 0.0
H85 H 0.93969 0.07221 0.93622 0.0
H86 H 0.93175 0.94435 0.98306 0.0
H87 H 0.86477 0.94241 0.01617 0.0
H88 H 0.99544 0.99542 0.01792 0.0
H89 H 0.93957 0.96698 0.87774 0.0
H90 H 0.89785 0.97076 0.80864 0.0
H91 H 0.96297 0.08916 0.76034 0.0
H92 H 0.00382 0.08722 0.83015 0.0
H93 H 0.19159 0.006 0.97168 0.0
H94 H 0.12457 0.98316 0.94487 0.0
H95 H 0.10633 0.10715 0.91354 0.0
H96 H 0.17426 0.13041 0.93866 0.0
H97 H 0.05536 0.04527 0.86152 0.0
H98 H 0.095 0.07508 0.01848 0.0
H99 H 0.14199 0.06684 0.08237 0.0
H100 H 0.10771 0.93754 0.09479 0.0
H101 H 0.06135 0.94509 0.03002 0.0
C102 C 0.88516 0.04271 0.97229 0.0
C103 C 0.86411 0.00634 0.99564 0.0
C104 C 0.923 0.04361 0.95262 0.0
C105 C 0.94021 0.00828 0.95679 0.0
C106 C 0.9186 0.97173 0.97904 0.0
C107 C 0.8807 0.97075 0.99821 0.0
C108 C 0.98321 0.0113 0.94603 0.0
C109 C 0.00836 0.00541 0.98351 0.0
C110 C -0.00011 0.0247 0.90114 0.0
C111 C 0.97426 0.02722 0.85988 0.0
C112 C 0.94429 0.99434 0.85305 0.0
C113 C 0.92077 0.99619 0.81373 0.0
C114 C 0.92726 0.03058 0.78059 0.0
C115 C 0.95744 0.06303 0.78656 0.0
C116 C 0.98076 0.06158 0.82606 0.0
C117 C 0.17408 0.02854 0.95726 0.0
C118 C 0.18768 0.07 0.95836 0.0
C119 C 0.13595 0.01539 0.94137 0.0
C120 C 0.1105 0.04348 0.92808 0.0
C121 C 0.12569 0.08507 0.9237 0.0
C122 C 0.16422 0.09829 0.93883 0.0
C123 C 0.06685 0.03015 0.93351 0.0
C124 C 0.04191 0.03449 0.89551 0.0
C125 C 0.04991 0.01501 0.97788 0.0
C126 C 0.07508 0.01062 0.01923 0.0
C127 C 0.09755 0.04492 0.03485 0.0
C128 C 0.12422 0.04037 0.07099 0.0
C129 C 0.12805 0.00167 0.09239 0.0
C130 C 0.10487 0.96748 0.07801 0.0
C131 C 0.07843 0.97187 0.04156 0.0
H132 H 0.14876 0.9982 0.12034 0.0
H133 H 0.90929 0.03184 0.74995 0.0
H134 H 0.03592 0.87019 0.62466 0.0
H135 H 0.06423 0.94202 0.60937 0.0
H136 H 0.96003 0.96332 0.52991 0.0
H137 H 0.93355 0.89088 0.54223 0.0
H138 H 0.02253 -7e-05 0.48478 0.0
H139 H 0.97635 0.00333 0.64251 0.0
H140 H 0.96969 0.98384 0.72682 0.0
H141 H 0.09789 0.99682 0.73681 0.0
H142 H 0.10514 0.01498 0.65218 0.0
H143 H 0.95408 0.15871 0.53809 0.0
H144 H 0.9833 0.10929 0.50457 0.0
H145 H 0.0986 0.1541 0.55884 0.0
H146 H 0.06851 0.20506 0.59219 0.0
H147 H 0.06353 0.08615 0.60574 0.0
H148 H 0.10413 0.08751 0.43834 0.0
H149 H 0.10032 0.09991 0.3538 0.0
H150 H 0.9714 0.07996 0.364 0.0
H151 H 0.97459 0.06438 0.4483 0.0
C152 C 0.01941 0.89022 0.6037 0.0
C153 C 0.98304 0.87506 0.58416 0.0
C154 C 0.03522 0.93133 0.59556 0.0
C155 C 0.01419 0.95804 0.56864 0.0
C156 C 0.97694 0.94311 0.55051 0.0
C157 C 0.96163 0.90184 0.55789 0.0
C158 C 0.0315 0.00129 0.55733 0.0
C159 C 0.03201 0.01889 0.51119 0.0
C160 C 0.04538 0.02565 0.59143 0.0
C161 C 0.04126 0.01025 0.64124 0.0
C162 C 0.00303 0.00114 0.66266 0.0
C163 C -0.00085 0.99031 0.71044 0.0
C164 C 0.03331 0.98866 0.73714 0.0
C165 C 0.07145 0.99757 0.71601 0.0
C166 C 0.07547 0.00809 0.66816 0.0
C167 C 0.98615 0.1599 0.54028 0.0
C168 C 0.0089 0.18544 0.56798 0.0
C169 C 0.00334 0.13179 0.5202 0.0
C170 C 0.04338 0.12751 0.52899 0.0
C171 C 0.06769 0.15692 0.55121 0.0
C172 C 0.05042 0.18578 0.57076 0.0
C173 C 0.05228 0.08576 0.53337 0.0
C174 C 0.05685 0.06739 0.5787 0.0
C175 C 0.04196 0.06076 0.49879 0.0
C176 C 0.03968 0.07673 0.44964 0.0
C177 C 0.07504 0.08695 0.42252 0.0
C178 C 0.07294 0.09384 0.37451 0.0
C179 C 0.0356 0.09176 0.35336 0.0
C180 C 0.0003 0.08228 0.38026 0.0
C181 C 0.00224 0.07407 0.42815 0.0
H182 H 0.03389 0.09666 0.31618 0.0
H183 H 0.03022 0.98075 0.7742 0.0
H184 H 0.63672 0.01119 0.08694 0.0
H185 H 0.58078 0.04681 0.06746 0.0
H186 H 0.53074 0.95515 0.98442 0.0
H187 H 0.58652 0.91825 0.0056 0.0
H188 H 0.56662 0.08076 0.98567 0.0
H189 H 0.42538 0.96143 0.97521 0.0
H190 H 0.39664 0.89119 0.00743 0.0
H191 H 0.46621 0.90283 0.12926 0.0
H192 H 0.49483 0.97331 0.09809 0.0
H193 H 0.41399 0.19947 0.93453 0.0
H194 H 0.45421 0.14656 0.92573 0.0
H195 H 0.41392 0.08589 0.06138 0.0
H196 H 0.37145 0.13661 0.06808 0.0
H197 H 0.42058 0.03169 0.0119 0.0
H198 H 0.50754 0.15922 0.03522 0.0
H199 H 0.53648 0.23139 0.01324 0.0
H200 H 0.57763 0.20532 0.88362 0.0
H201 H 0.54858 0.13306 0.90474 0.0
C202 C 0.61341 0.99822 0.06521 0.0
C203 C 0.61586 0.96214 0.04761 0.0
C204 C 0.58158 0.01869 0.05387 0.0
C205 C 0.55184 0.00394 0.02401 0.0
C206 C 0.55327 0.96696 0.00769 0.0
C207 C 0.58499 0.94591 0.01985 0.0
C208 C 0.52109 0.02912 0.00876 0.0
C209 C 0.53462 0.06989 0.99111 0.0
C210 C 0.47935 0.01483 0.01491 0.0
C211 C 0.46283 0.97236 0.03389 0.0
C212 C 0.43461 0.94894 0.00882 0.0
C213 C 0.41828 0.90912 0.02694 0.0
C214 C 0.4298 0.89246 0.07024 0.0
C215 C 0.45752 0.91567 0.0956 0.0
C216 C 0.47386 0.95554 0.07768 0.0
C217 C 0.41375 0.17451 0.96205 0.0
C218 C 0.39047 0.172 0.00221 0.0
C219 C 0.43661 0.14439 0.95712 0.0
C220 C 0.43781 0.11262 0.99329 0.0
C221 C 0.41355 0.10993 0.03292 0.0
C222 C 0.38963 0.13907 0.03701 0.0
C223 C 0.46646 0.08391 0.9924 0.0
C224 C 0.45253 0.04235 0.00577 0.0
C225 C 0.50808 0.09761 0.98389 0.0
C226 C 0.52548 0.14097 0.97127 0.0
C227 C 0.52258 0.16898 0.00194 0.0
C228 C 0.53901 0.20986 0.98966 0.0
C229 C 0.55875 0.22296 0.94699 0.0
C230 C 0.56223 0.19517 0.91659 0.0
C231 C 0.5458 0.15427 0.92869 0.0
H232 H 0.57145 0.25462 0.93755 0.0
H233 H 0.41712 0.86164 0.08422 0.0
H234 H 0.06961 0.45025 0.46949 0.0
H235 H 0.02735 0.49504 0.49412 0.0
H236 H 0.94438 0.39198 0.56031 0.0
H237 H 0.98694 0.34677 0.53459 0.0
H238 H 0.9505 0.51147 0.49769 0.0
H239 H 0.92942 0.41519 0.66482 0.0
H240 H 0.94808 0.35265 0.70672 0.0
H241 H 0.06689 0.38472 0.64611 0.0
H242 H 0.049 0.44776 0.60454 0.0
H243 H 0.97557 0.67841 0.61726 0.0
H244 H 0.93977 0.61098 0.60994 0.0
H245 H 0.05067 0.56385 0.62946 0.0
H246 H 0.08615 0.63089 0.63959 0.0
H247 H 0.98886 0.50676 0.66174 0.0
H248 H 0.02054 0.60788 0.52107 0.0
H249 H 0.01272 0.66993 0.46909 0.0
H250 H 0.88523 0.62938 0.46746 0.0
H251 H 0.89232 0.56737 0.51995 0.0
C252 C 0.04171 0.43695 0.48792 0.0
C253 C 0.03229 0.3951 0.50209 0.0
C254 C 0.01727 0.46261 0.50165 0.0
C255 C 0.98318 0.44684 0.52994 0.0
C256 C 0.97086 0.40474 0.539 0.0
C257 C 0.99537 0.37898 0.52488 0.0
C258 C 0.96786 0.47463 0.55762 0.0
C259 C 0.957 0.51001 0.53415 0.0
C260 C 0.97623 0.47252 0.60517 0.0
C261 C 0.98786 0.43592 0.63167 0.0
C262 C 0.95959 0.40897 0.66082 0.0
C263 C 0.97002 0.37347 0.68442 0.0
C264 C 0.00864 0.36469 0.67903 0.0
C265 C 0.03703 0.39158 0.65032 0.0
C266 C 0.02682 0.42726 0.62691 0.0
C267 C 0.99201 0.6535 0.62232 0.0
C268 C 0.03377 0.66015 0.62904 0.0
C269 C 0.97147 0.61489 0.61766 0.0
C270 C 0.9926 0.58251 0.61844 0.0
C271 C 0.03365 0.5884 0.62883 0.0
C272 C 0.05406 0.62687 0.63415 0.0
C273 C 0.97474 0.54471 0.60066 0.0
C274 C 0.97907 0.50755 0.62636 0.0
C275 C 0.9612 0.54545 0.55473 0.0
C276 C 0.95686 0.58342 0.52488 0.0
C277 C 0.99082 0.61248 0.51 0.0
C278 C 0.98653 0.64757 0.48042 0.0
C279 C 0.94849 0.65356 0.46502 0.0
C280 C 0.91464 0.62471 0.47951 0.0
C281 C 0.91876 0.58965 0.50923 0.0
H282 H 0.94525 0.68037 0.44152 0.0
H283 H 0.01657 0.33707 0.69709 0.0
H284 H 0.11177 0.19599 0.4662 0.0
H285 H 0.14163 0.16959 0.40323 0.0
H286 H 0.06426 0.22596 0.30687 0.0
H287 H 0.03503 0.25325 0.37001 0.0
H288 H 0.08719 0.1481 0.28514 0.0
H289 H 0.14288 0.28163 0.31924 0.0
H290 H 0.16742 0.33025 0.37272 0.0
H291 H 0.26009 0.26161 0.41686 0.0
H292 H 0.23551 0.21208 0.36428 0.0
H293 H 0.21673 0.18415 0.08838 0.0
H294 H 0.16785 0.17241 0.15193 0.0
H295 H 0.26467 0.17455 0.24898 0.0
H296 H 0.31341 0.19106 0.18473 0.0
H297 H 0.22678 0.22291 0.2692 0.0
H298 H 0.17714 0.08799 0.24186 0.0
H299 H 0.14934 0.02901 0.20343 0.0
H300 H 0.04811 0.0854 0.16038 0.0
H301 H 0.07552 0.14472 0.19814 0.0
C302 C 0.09972 0.20091 0.43198 0.0
C303 C 0.07056 0.22576 0.42284 0.0
C304 C 0.11692 0.18609 0.39604 0.0
C305 C 0.1053 0.19619 0.3505 0.0
C306 C 0.07326 0.21757 0.34189 0.0
C307 C 0.05627 0.23276 0.37797 0.0
C308 C 0.13165 0.1913 0.31219 0.0
C309 C 0.11786 0.16396 0.28157 0.0
C310 C 0.17149 0.21247 0.30771 0.0
C311 C 0.18715 0.24299 0.33814 0.0
C312 C 0.16833 0.27678 0.34056 0.0
C313 C 0.18224 0.30449 0.3707 0.0
C314 C 0.21525 0.29898 0.39824 0.0
C315 C 0.2345 0.26581 0.39554 0.0
C316 C 0.2206 0.23792 0.36556 0.0
C317 C 0.22731 0.18073 0.12344 0.0
C318 C 0.26854 0.18855 0.13206 0.0
C319 C 0.19929 0.17368 0.15998 0.0
C320 C 0.2122 0.17278 0.20578 0.0
C321 C 0.25368 0.17597 0.21412 0.0
C322 C 0.28164 0.18495 0.17753 0.0
C323 C 0.18395 0.17622 0.24365 0.0
C324 C 0.19686 0.20504 0.27338 0.0
C325 C 0.14381 0.15494 0.24839 0.0
C326 C 0.12873 0.12093 0.22241 0.0
C327 C 0.14936 0.08802 0.2235 0.0
C328 C 0.13346 0.05441 0.2022 0.0
C329 C 0.09675 0.05332 0.17993 0.0
C330 C 0.07632 0.08615 0.17805 0.0
C331 C 0.09205 0.11976 0.19936 0.0
H332 H 0.08402 0.02701 0.16422 0.0
H333 H 0.22595 0.32045 0.4216 0.0
H334 H 0.9535 0.283 0.67749 0.0
H335 H 0.91445 0.24477 0.74446 0.0
H336 H 0.82147 0.20023 0.65345 0.0
H337 H 0.85594 0.2442 0.58945 0.0
H338 H 0.78663 0.19558 0.72141 0.0
H339 H 0.92012 0.15675 0.70234 0.0
H340 H 0.99434 0.17241 0.7034 0.0
H341 H 0.989 0.19119 0.84517 0.0
H342 H 0.91497 0.17704 0.84451 0.0
H343 H 0.78851 0.996 0.9001 0.0
H344 H 0.81759 0.0428 0.83255 0.0
H345 H 0.74401 0.12895 0.86387 0.0
H346 H 0.71344 0.08181 0.92839 0.0
H347 H 0.86274 0.11109 0.82824 0.0
H348 H 0.72855 0.19578 0.779 0.0
H349 H 0.65481 0.17997 0.77351 0.0
H350 H 0.6627 0.05739 0.75616 0.0
H351 H 0.73651 0.07257 0.76098 0.0
C352 C 0.9239 0.26636 0.67235 0.0
C353 C 0.90859 0.26563 0.62774 0.0
C354 C 0.90195 0.24348 0.71056 0.0
C355 C 0.86591 0.217 0.70431 0.0
C356 C 0.84928 0.21944 0.66018 0.0
C357 C 0.86952 0.24457 0.62297 0.0
C358 C 0.84596 0.18517 0.74184 0.0
C359 C 0.80365 0.17702 0.74422 0.0
C360 C 0.86747 0.16038 0.7724 0.0
C361 C 0.91201 0.16646 0.77312 0.0
C362 C 0.93483 0.16438 0.73363 0.0
C363 C 0.97684 0.17325 0.73409 0.0
C364 C 0.99627 0.1831 0.77425 0.0
C365 C 0.97386 0.18376 0.81407 0.0
C366 C 0.93192 0.17549 0.8136 0.0
C367 C 0.77771 0.02431 0.89158 0.0
C368 C 0.74896 0.03508 0.92008 0.0
C369 C 0.7946 0.05132 0.85318 0.0
C370 C 0.78304 0.08962 0.8427 0.0
C371 C 0.75294 0.09941 0.87002 0.0
C372 C 0.73552 0.07222 0.90743 0.0
C373 C 0.80392 0.12066 0.80551 0.0
C374 C 0.84613 0.12903 0.80409 0.0
C375 C 0.7825 0.14453 0.77426 0.0
C376 C 0.73808 0.13528 0.77071 0.0
C377 C 0.71458 0.16552 0.77376 0.0
C378 C 0.67276 0.15664 0.77084 0.0
C379 C 0.65408 0.11768 0.76461 0.0
C380 C 0.67719 0.08753 0.76114 0.0
C381 C 0.71902 0.09623 0.76403 0.0
H382 H 0.6217 0.11086 0.7624 0.0
H383 H 0.02867 0.19029 0.77468 0.0
H384 H 0.95527 0.7469 0.46299 0.0
H385 H 0.91528 0.77486 0.4009 0.0
H386 H 0.97325 0.89573 0.41703 0.0
H387 H 0.01455 0.86777 0.47847 0.0
H388 H 0.8694 0.85671 0.41697 0.0
H389 H -0.0012 0.90109 0.33357 0.0
H390 H 0.06542 0.88979 0.30896 0.0
H391 H 0.01019 0.78523 0.24977 0.0
H392 H 0.94321 0.79575 0.27433 0.0
H393 H 0.76663 0.93895 0.22115 0.0
H394 H 0.81281 0.92796 0.28457 0.0
H395 H 0.83834 0.82162 0.23129 0.0
H396 H 0.79479 0.835 0.16592 0.0
H397 H 0.90548 0.86407 0.25148 0.0
H398 H 0.77718 0.81914 0.33175 0.0
H399 H 0.70954 0.82623 0.35774 0.0
H400 H 0.76055 0.92753 0.42516 0.0
H401 H 0.82847 0.92129 0.39914 0.0
C402 C 0.95991 0.77936 0.4529 0.0
C403 C 0.98819 0.80502 0.47529 0.0
C404 C 0.93699 0.79528 0.41761 0.0
C405 C 0.94149 0.83722 0.40448 0.0
C406 C 0.96965 0.86321 0.42662 0.0
C407 C 0.99324 0.84717 0.46152 0.0
C408 C 0.9157 0.85305 0.36809 0.0
C409 C 0.87746 0.8594 0.38068 0.0
C410 C 0.92603 0.85529 0.32107 0.0
C411 C 0.96614 0.84892 0.30625 0.0
C412 C 0.00093 0.87545 0.31574 0.0
C413 C 0.03872 0.86927 0.30171 0.0
C414 C 0.04206 0.83672 0.27806 0.0
C415 C 0.00757 0.81038 0.26819 0.0
C416 C 0.96969 0.81647 0.28207 0.0
C417 C 0.78275 0.91373 0.22289 0.0
C418 C 0.77847 0.88869 0.1882 0.0
C419 C 0.8085 0.90693 0.25949 0.0
C420 C 0.82927 0.87395 0.26279 0.0
C421 C 0.82305 0.84752 0.22929 0.0
C422 C 0.79783 0.85483 0.1923 0.0
C423 C 0.8585 0.86753 0.30003 0.0
C424 C 0.89738 0.86246 0.28761 0.0
C425 C 0.84859 0.86641 0.34728 0.0
C426 C 0.80782 0.87 0.36313 0.0
C427 C 0.77393 0.84308 0.35187 0.0
C428 C 0.73556 0.84692 0.36665 0.0
C429 C 0.73074 0.87738 0.39298 0.0
C430 C 0.76432 0.90399 0.40471 0.0
C431 C 0.80275 0.90029 0.39001 0.0
H432 H 0.70101 0.88031 0.40437 0.0
H433 H 0.07136 0.83199 0.26724 0.0
H434 H 0.10065 0.8993 0.68286 0.0
H435 H 0.14158 0.95186 0.72055 0.0
H436 H 0.22462 0.87049 0.76281 0.0
H437 H 0.18366 0.81771 0.72656 0.0
H438 H 0.21766 0.91067 0.8281 0.0
H439 H 0.24523 0.94617 0.66839 0.0
H440 H 0.23012 0.95971 0.58588 0.0
H441 H 0.17506 0.06039 0.61136 0.0
H442 H 0.18847 0.04628 0.69466 0.0
H443 H 0.36478 0.05588 0.89762 0.0
H444 H 0.33837 0.01489 0.83832 0.0
H445 H 0.23815 0.07919 0.82051 0.0
H446 H 0.26467 0.1209 0.87877 0.0
H447 H 0.2587 0.04753 0.73941 0.0
H448 H 0.23674 0.00341 0.90615 0.0
H449 H 0.26175 0.98637 0.98456 0.0
H450 H 0.32096 0.89609 0.93743 0.0
H451 H 0.29659 0.91281 0.8588 0.0
C452 C 0.12718 0.89236 0.70097 0.0
C453 C 0.13899 0.85436 0.7014 0.0
C454 C 0.15077 0.92258 0.72213 0.0
C455 C 0.18664 0.91547 0.74377 0.0
C456 C 0.19725 0.87688 0.7462 0.0
C457 C 0.1737 0.84667 0.72536 0.0
C458 C 0.2136 0.94827 0.76319 0.0
C459 C 0.227 0.94036 0.80835 0.0
C460 C 0.22633 0.98697 0.73744 0.0
C461 C 0.21785 0.99532 0.68765 0.0
C462 C 0.2296 0.97101 0.65648 0.0
C463 C 0.22122 0.97866 0.60965 0.0
C464 C 0.20152 0.01085 0.59346 0.0
C465 C 0.19018 0.03543 0.62409 0.0
C466 C 0.19813 0.02763 0.67106 0.0
C467 C 0.33814 0.06263 0.87959 0.0
C468 C 0.31618 0.09079 0.89399 0.0
C469 C 0.323 0.03904 0.84576 0.0
C470 C 0.2856 0.0431 0.82625 0.0
C471 C 0.26682 0.07523 0.83555 0.0
C472 C 0.28212 0.09911 0.86902 0.0
C473 C 0.26241 0.00977 0.80417 0.0
C474 C 0.24954 0.01764 0.75874 0.0
C475 C 0.25152 0.97036 0.82898 0.0
C476 C 0.265 0.95954 0.87664 0.0
C477 C 0.25504 0.97993 0.91263 0.0
C478 C 0.26916 0.9704 0.95702 0.0
C479 C 0.29295 0.94027 0.96592 0.0
C480 C 0.30253 0.91945 0.93049 0.0
C481 C 0.28855 0.92891 0.88603 0.0
H482 H 0.30394 0.93302 0.00027 0.0
H483 H 0.19511 0.0168 0.55718 0.0
H484 H 0.76697 0.82502 0.97175 0.0
H485 H 0.81443 0.80311 0.92203 0.0
H486 H 0.87151 0.92711 0.88329 0.0
H487 H 0.82405 0.94938 0.93301 0.0
H488 H 0.86114 0.88572 0.80946 0.0
H489 H 0.91824 0.86857 0.95599 0.0
H490 H 0.92008 0.84782 0.03985 0.0
H491 H 0.88811 0.72292 0.02036 0.0
H492 H 0.8854 0.74295 0.93635 0.0
H493 H 0.00829 0.81154 0.69036 0.0
H494 H 0.98759 0.84267 0.75506 0.0
H495 H 0.89952 0.73602 0.79776 0.0
H496 H 0.91904 0.70529 0.7321 0.0
H497 H 0.93812 0.77846 0.873 0.0
H498 H 0.87135 0.8006 0.72592 0.0
H499 H 0.86732 0.82463 0.643 0.0
H500 H 0.91917 0.94511 0.66551 0.0
H501 H 0.92439 0.92146 0.74864 0.0
C502 C 0.78933 0.84783 0.95238 0.0
C503 C 0.79172 0.88913 0.9566 0.0
C504 C 0.81672 0.83514 0.92427 0.0
C505 C 0.84707 0.86343 0.89973 0.0
C506 C 0.8486 0.90478 0.90229 0.0
C507 C 0.82128 0.91749 0.93063 0.0
C508 C 0.87659 0.84939 0.87094 0.0
C509 C 0.87872 0.86299 0.8235 0.0
C510 C 0.89947 0.8197 0.88935 0.0
C511 C 0.90136 0.8073 0.93983 0.0
C512 C 0.91131 0.83668 0.96958 0.0
C513 C 0.91255 0.82505 0.01716 0.0
C514 C 0.90416 0.78408 0.03543 0.0
C515 C 0.89459 0.75465 0.00614 0.0
C516 C 0.89325 0.76612 0.95852 0.0
C517 C 0.98563 0.79403 0.71452 0.0
C518 C 0.96483 0.75619 0.70587 0.0
C519 C 0.97374 0.81198 0.75138 0.0
C520 C 0.94164 0.79184 0.78065 0.0
C521 C 0.92431 0.75204 0.77542 0.0
C522 C 0.93551 0.73448 0.73797 0.0
C523 C 0.92168 0.81404 0.8115 0.0
C524 C 0.92129 0.80192 0.85925 0.0
C525 C 0.90073 0.84549 0.79347 0.0
C526 C 0.89907 0.85914 0.74329 0.0
C527 C 0.88268 0.83203 0.71308 0.0
C528 C 0.88001 0.8456 0.66609 0.0
C529 C 0.89307 0.88635 0.64903 0.0
C530 C 0.90927 0.91353 0.67879 0.0
C531 C 0.91218 0.90005 0.72579 0.0
H532 H 0.89024 0.89696 0.61282 0.0
H533 H 0.90512 0.77512 0.07229 0.0
H534 H 0.26128 0.09957 0.18453 0.0
H535 H 0.23593 0.06121 0.25919 0.0
H536 H 0.25323 0.95037 0.21036 0.0
H537 H 0.28196 0.98877 0.13836 0.0
H538 H 0.17349 0.00761 0.28305 0.0
H539 H 0.27228 0.88044 0.29251 0.0
H540 H 0.34145 0.87356 0.27211 0.0
H541 H 0.38133 6e-05 0.27893 0.0
H542 H 0.31256 0.0076 0.29998 0.0
H543 H 0.0812 0.83948 0.4435 0.0
H544 H 0.11052 0.88532 0.37532 0.0
H545 H 0.22372 0.90628 0.4444 0.0
H546 H 0.19535 0.85867 0.5107 0.0
H547 H 0.24097 0.90023 0.36557 0.0
H548 H 0.15097 0.97467 0.4269 0.0
H549 H 0.08681 0.98886 0.45451 0.0
H550 H 0.03761 0.98264 0.31982 0.0
H551 H 0.10143 0.96747 0.29155 0.0
C552 C 0.2603 0.06717 0.19033 0.0
C553 C 0.27441 0.04736 0.15612 0.0
C554 C 0.24531 0.04518 0.23264 0.0
C555 C 0.24276 0.00282 0.24069 0.0
C556 C 0.25585 0.98305 0.2058 0.0
C557 C 0.2722 0.00509 0.16447 0.0
C558 C 0.22583 0.97883 0.28493 0.0
C559 C 0.18823 0.98418 0.3012 0.0
C560 C 0.24555 0.94904 0.30961 0.0
C561 C 0.28715 0.94462 0.29744 0.0
C562 C 0.29584 0.90674 0.28987 0.0
C563 C 0.33498 0.90274 0.27814 0.0
C564 C 0.36574 0.93637 0.27409 0.0
C565 C 0.35746 0.97406 0.28191 0.0
C566 C 0.31839 0.97822 0.29369 0.0
C567 C 0.11239 0.85373 0.4438 0.0
C568 C 0.13611 0.8452 0.4822 0.0
C569 C 0.12909 0.88028 0.40498 0.0
C570 C 0.16937 0.89994 0.40456 0.0
C571 C 0.19275 0.89146 0.4433 0.0
C572 C 0.17649 0.86413 0.48132 0.0
C573 C 0.18799 0.9283 0.36363 0.0
C574 C 0.22603 0.92369 0.34774 0.0
C575 C 0.16928 0.95982 0.34056 0.0
C576 C 0.13083 0.96913 0.35735 0.0
C577 C 0.12635 0.97583 0.40327 0.0
C578 C 0.08997 0.9841 0.41903 0.0
C579 C 0.05792 0.98633 0.38905 0.0
C580 C 0.06235 0.98064 0.3431 0.0
C581 C 0.09864 0.97217 0.3272 0.0
H582 H 0.02975 0.99274 0.40128 0.0
H583 H 0.396 0.93321 0.26497 0.0
H584 H 0.16781 0.26324 0.61145 0.0
H585 H 0.17063 0.23355 0.69132 0.0
H586 H 0.05178 0.2578 0.71738 0.0
H587 H 0.04971 0.28971 0.63676 0.0
H588 H 0.10726 0.2848 0.7796 0.0
H589 H 0.06291 0.14864 0.7381 0.0
H590 H 0.06153 0.10143 0.68117 0.0
H591 H 0.19063 0.11806 0.67972 0.0
H592 H 0.19241 0.16379 0.73869 0.0
H593 H 0.1925 0.232 0.99492 0.0
H594 H 0.14036 0.2237 0.93669 0.0
H595 H 0.22767 0.19679 0.84277 0.0
H596 H 0.27879 0.20299 0.90184 0.0
H597 H 0.15858 0.15635 0.82687 0.0
H598 H 0.20654 0.29776 0.85033 0.0
H599 H 0.21589 0.35422 0.89678 0.0
H600 H 0.0885 0.33682 0.92258 0.0
H601 H 0.07852 0.27997 0.8766 0.0
C602 C 0.14196 0.26172 0.63394 0.0
C603 C 0.10827 0.27815 0.61784 0.0
C604 C 0.14331 0.24407 0.6795 0.0
C605 C 0.11081 0.24196 0.71008 0.0
C606 C 0.07674 0.25807 0.69408 0.0
C607 C 0.07543 0.27599 0.64807 0.0
C608 C 0.11589 0.22782 0.75963 0.0
C609 C 0.117 0.25605 0.79067 0.0
C610 C 0.12897 0.19056 0.77398 0.0
C611 C 0.12773 0.1597 0.74256 0.0
C612 C 0.0909 0.14185 0.72606 0.0
C613 C 0.09008 0.11518 0.69351 0.0
C614 C 0.12603 0.10685 0.67656 0.0
C615 C 0.16278 0.12418 0.69318 0.0
C616 C 0.16368 0.15003 0.72663 0.0
C617 C 0.19995 0.2233 0.96213 0.0
C618 C 0.23931 0.21842 0.9522 0.0
C619 C 0.17037 0.21879 0.92888 0.0
C620 C 0.18029 0.21071 0.88485 0.0
C621 C 0.2192 0.20321 0.87633 0.0
C622 C 0.24847 0.2069 0.90988 0.0
C623 C 0.15237 0.2145 0.84584 0.0
C624 C 0.14679 0.18418 0.817 0.0
C625 C 0.13586 0.25029 0.83319 0.0
C626 C 0.14186 0.28439 0.86067 0.0
C627 C 0.18059 0.30589 0.86616 0.0
C628 C 0.18599 0.33793 0.89235 0.0
C629 C 0.15282 0.349 0.91276 0.0
C630 C 0.11417 0.32812 0.90688 0.0
C631 C 0.10862 0.296 0.88078 0.0
H632 H 0.15706 0.37382 0.93302 0.0
H633 H 0.12547 0.08722 0.65036 0.0
H634 H 0.73849 0.06758 0.18581 0.0
H635 H 0.77344 0.09858 0.24764 0.0
H636 H 0.85909 0.0165 0.25065 0.0
H637 H 0.82703 0.98908 0.18413 0.0
H638 H 0.78703 0.08185 0.3279 0.0
H639 H 0.94762 0.05566 0.29135 0.0
H640 H 0.98933 0.04474 0.22658 0.0
H641 H 0.91873 0.10996 0.1309 0.0
H642 H 0.87712 0.12191 0.19524 0.0
H643 H 0.89683 0.17194 0.49906 0.0
H644 H 0.8703 0.12254 0.44884 0.0
H645 H 0.93612 0.19816 0.33329 0.0
H646 H 0.96633 0.24515 0.38518 0.0
H647 H 0.93438 0.12879 0.31769 0.0
H648 H 0.82932 0.1952 0.36304 0.0
H649 H 0.78507 0.21893 0.41662 0.0
H650 H 0.74002 0.09588 0.47433 0.0
H651 H 0.78438 0.07144 0.42141 0.0
C652 C 0.76475 0.05602 0.1996 0.0
C653 C 0.77965 0.02544 0.18038 0.0
C654 C 0.78465 0.07362 0.23538 0.0
C655 C 0.8194 0.06041 0.25381 0.0
C656 C 0.83306 0.02817 0.23641 0.0
C657 C 0.81413 0.01178 0.19903 0.0
C658 C 0.84161 0.08193 0.2897 0.0
C659 C 0.8193 0.09195 0.32561 0.0
C660 C 0.88373 0.09565 0.28684 0.0
C661 C 0.90904 0.08928 0.24805 0.0
C662 C 0.9412 0.06789 0.25653 0.0
C663 C 0.96478 0.06149 0.21989 0.0
C664 C 0.95653 0.07646 0.17463 0.0
C665 C 0.92497 0.09823 0.16596 0.0
C666 C 0.9014 0.10486 0.20249 0.0
C667 C 0.90639 0.17748 0.46319 0.0
C668 C 0.93436 0.21183 0.44605 0.0
C669 C 0.89072 0.14948 0.43424 0.0
C670 C 0.90024 0.15689 0.38679 0.0
C671 C 0.92833 0.19137 0.36971 0.0
C672 C 0.94558 0.21831 0.39925 0.0
C673 C 0.87947 0.13004 0.35466 0.0
C674 C 0.90214 0.1185 0.32004 0.0
C675 C 0.83726 0.117 0.35686 0.0
C676 C 0.81048 0.13154 0.38866 0.0
C677 C 0.81014 0.17323 0.38735 0.0
C678 C 0.78503 0.1868 0.41757 0.0
C679 C 0.75985 0.15893 0.44896 0.0
C680 C 0.75962 0.11742 0.45007 0.0
C681 C 0.78471 0.10369 0.41996 0.0
H682 H 0.74044 0.1695 0.47233 0.0
H683 H 0.97458 0.07121 0.14625 0.0
loop_
_geom_bond_atom_site_label_1
_geom_bond_atom_site_label_2
_geom_bond_distance
_geom_bond_site_symmetry_2
_ccdc_geom_bond_type
Zn0 O6 1.925 . S
Zn0 O12 1.898 1_554 S
Zn0 O15 1.905 . S
Zn1 O9 1.905 1_565 S
Zn1 O10 1.898 . S
Zn1 O18 1.920 . S
Zn2 O5 2.080 . S
Zn2 O8 2.114 . S
Zn2 O11 2.120 . S
Zn2 O13 2.120 1_554 S
Zn2 O14 2.114 . S
Zn2 O17 2.080 1_554 S
C3 O8 1.166 . S
C3 O9 1.182 . S
C4 O10 1.167 1_545 S
C4 O11 1.299 . S
O5 Zn2 2.080 . S
O5 C19 1.305 . S
O6 Zn0 1.925 . S
O6 C19 1.236 . S
C7 O12 1.167 . S
C7 O13 1.299 . S
O8 Zn2 2.114 . S
O8 C3 1.166 . S
O9 Zn1 1.905 1_545 S
O9 C3 1.182 . S
O10 Zn1 1.898 . S
O10 C4 1.167 1_565 S
O11 Zn2 2.120 . S
O11 C4 1.299 . S
O12 Zn0 1.898 1_556 S
O12 C7 1.167 . S
O13 Zn2 2.120 1_556 S
O13 C7 1.299 . S
O14 Zn2 2.114 . S
O14 C16 1.166 . S
O15 Zn0 1.905 . S
O15 C16 1.182 . S
C16 O14 1.166 . S
C16 O15 1.182 . S
O17 Zn2 2.080 1_556 S
O17 C20 1.305 1_545 S
O18 Zn1 1.920 . S
O18 C20 1.234 1_554 S
C19 O5 1.305 . S
C19 O6 1.236 . S
C20 O17 1.305 1_565 S
C20 O18 1.234 1_556 S
Zn21 O27 1.920 . S
Zn21 O33 1.898 . S
Zn21 O36 1.905 . S
Zn22 O30 1.905 . S
Zn22 O31 1.898 . S
Zn22 O39 1.920 . S
Zn23 O26 2.080 1_455 S
Zn23 O29 2.114 . S
Zn23 O32 2.120 . S
Zn23 O34 2.120 1_455 S
Zn23 O35 2.114 . S
Zn23 O38 2.080 . S
C24 O29 1.166 . S
C24 O30 1.182 . S
C25 O31 1.167 . S
C25 O32 1.299 . S
O26 Zn23 2.080 1_655 S
O26 C40 1.305 . S
O27 Zn21 1.920 . S
O27 C40 1.234 . S
C28 O33 1.167 . S
C28 O34 1.299 . S
O29 Zn23 2.114 . S
O29 C24 1.166 . S
O30 Zn22 1.905 . S
O30 C24 1.182 . S
O31 Zn22 1.898 . S
O31 C25 1.167 . S
O32 Zn23 2.120 . S
O32 C25 1.299 . S
O33 Zn21 1.898 . S
O33 C28 1.167 . S
O34 Zn23 2.120 1_655 S
O34 C28 1.299 . S
O35 Zn23 2.114 . S
O35 C37 1.166 . S
O36 Zn21 1.905 . S
O36 C37 1.182 1_655 S
C37 O35 1.166 . S
C37 O36 1.182 1_455 S
O38 Zn23 2.080 . S
O38 C41 1.305 . S
O39 Zn22 1.920 . S
O39 C41 1.234 . S
C40 O26 1.305 . S
C40 O27 1.234 . S
C41 O38 1.305 . S
C41 O39 1.234 . S
Zn42 O48 1.920 . S
Zn42 O54 1.898 . S
Zn42 O57 1.905 . S
Zn43 O51 1.905 . S
Zn43 O52 1.898 . S
Zn43 O60 1.920 1_554 S
Zn44 O47 2.080 1_545 S
Zn44 O50 2.114 . S
Zn44 O53 2.120 . S
Zn44 O55 2.120 1_544 S
Zn44 O56 2.114 1_545 S
Zn44 O59 2.080 1_554 S
C45 O50 1.166 . S
C45 O51 1.182 . S
C46 O52 1.167 . S
C46 O53 1.299 . S
O47 Zn44 2.080 1_565 S
O47 C61 1.305 . S
O48 Zn42 1.920 . S
O48 C61 1.234 . S
C49 O54 1.167 1_556 S
C49 O55 1.299 . S
O50 Zn44 2.114 . S
O50 C45 1.166 . S
O51 Zn43 1.905 . S
O51 C45 1.182 . S
O52 Zn43 1.898 . S
O52 C46 1.167 . S
O53 Zn44 2.120 . S
O53 C46 1.299 . S
O54 Zn42 1.898 . S
O54 C49 1.167 1_554 S
O55 Zn44 2.120 1_566 S
O55 C49 1.299 . S
O56 Zn44 2.114 1_565 S
O56 C58 1.166 . S
O57 Zn42 1.905 . S
O57 C58 1.182 . S
C58 O56 1.166 . S
C58 O57 1.182 . S
O59 Zn44 2.080 1_556 S
O59 C62 1.305 . S
O60 Zn43 1.920 1_556 S
O60 C62 1.234 . S
C61 O47 1.305 . S
C61 O48 1.234 . S
C62 O59 1.305 . S
C62 O60 1.234 . S
Zn63 O69 1.920 . S
Zn63 O75 1.898 . S
Zn63 O78 1.905 . S
Zn64 O72 1.905 . S
Zn64 O73 1.898 . S
Zn64 O81 1.920 . S
Zn65 O68 2.080 1_455 S
Zn65 O71 2.114 . S
Zn65 O74 2.120 . S
Zn65 O76 2.120 1_455 S
Zn65 O77 2.114 . S
Zn65 O80 2.080 . S
C66 O71 1.166 . S
C66 O72 1.182 . S
C67 O73 1.167 . S
C67 O74 1.299 . S
O68 Zn65 2.080 1_655 S
O68 C82 1.305 . S
O69 Zn63 1.920 . S
O69 C82 1.234 . S
C70 O75 1.167 . S
C70 O76 1.299 . S
O71 Zn65 2.114 . S
O71 C66 1.166 . S
O72 Zn64 1.905 . S
O72 C66 1.182 . S
O73 Zn64 1.898 . S
O73 C67 1.167 . S
O74 Zn65 2.120 . S
O74 C67 1.299 . S
O75 Zn63 1.898 . S
O75 C70 1.167 . S
O76 Zn65 2.120 1_655 S
O76 C70 1.299 . S
O77 Zn65 2.114 . S
O77 C79 1.166 1_455 S
O78 Zn63 1.905 . S
O78 C79 1.182 . S
C79 O77 1.166 1_655 S
C79 O78 1.182 . S
O80 Zn65 2.080 . S
O80 C83 1.305 . S
O81 Zn64 1.920 . S
O81 C83 1.234 . S
C82 O68 1.305 . S
C82 O69 1.234 . S
C83 O80 1.305 . S
C83 O81 1.234 . S
H84 C102 0.951 . S
H85 C104 0.951 . S
H86 C106 0.950 . S
H87 C107 0.950 . S
H88 C109 0.950 1_665 S
H89 C112 0.950 . S
H90 C113 0.950 . S
H91 C115 0.950 . S
H92 C116 0.950 1_455 S
H93 C117 0.946 1_556 S
H94 C119 0.950 1_556 S
H95 C121 0.950 . S
H96 C122 0.950 . S
H97 C124 0.950 . S
H98 C127 0.950 . S
H99 C128 0.964 . S
H100 C130 0.950 . S
H101 C131 0.950 . S
C102 H84 0.951 . S
C102 C103 1.366 1_545 S
C102 C104 1.388 . S
C103 C102 1.366 1_565 S
C103 C107 1.385 . S
C104 H85 0.951 . S
C104 C102 1.388 . S
C104 C105 1.366 . S
C105 C104 1.366 . S
C105 C106 1.414 1_545 S
C105 C108 1.499 . S
C106 H86 0.950 . S
C106 C105 1.414 1_565 S
C106 C107 1.374 . S
C107 H87 0.950 . S
C107 C103 1.385 . S
C107 C106 1.374 . S
C108 C105 1.499 . S
C108 C109 1.373 1_655 S
C108 C110 1.389 1_654 S
C109 H88 0.950 1_445 S
C109 C108 1.373 1_455 S
C109 C125 1.377 . S
C110 C108 1.389 1_456 S
C110 C111 1.524 1_455 S
C110 C124 1.377 . S
C111 C110 1.524 1_655 S
C111 C112 1.397 . S
C111 C116 1.363 . S
C112 H89 0.950 . S
C112 C111 1.397 . S
C112 C113 1.334 . S
C113 H90 0.950 . S
C113 C112 1.334 . S
C113 C114 1.287 . S
C114 C113 1.287 . S
C114 C115 1.524 . S
C114 H133 0.913 . S
C115 H91 0.950 . S
C115 C114 1.524 . S
C115 C116 1.415 . S
C116 H92 0.950 1_655 S
C116 C111 1.363 . S
C116 C115 1.415 . S
C117 H93 0.946 1_554 S
C117 C118 1.370 . S
C117 C119 1.388 . S
C118 C117 1.370 . S
C118 C122 1.385 . S
C119 H94 0.950 1_554 S
C119 C117 1.388 . S
C119 C120 1.366 . S
C120 C119 1.366 . S
C120 C121 1.414 . S
C120 C123 1.499 . S
C121 H95 0.950 . S
C121 C120 1.414 . S
C121 C122 1.374 . S
C122 H96 0.950 . S
C122 C118 1.385 . S
C122 C121 1.374 . S
C123 C120 1.499 . S
C123 C124 1.373 1_554 S
C123 C125 1.389 . S
C124 H97 0.950 . S
C124 C110 1.377 . S
C124 C123 1.373 1_556 S
C125 C109 1.377 . S
C125 C123 1.389 . S
C125 C126 1.524 1_545 S
C126 C125 1.524 1_565 S
C126 C127 1.397 1_565 S
C126 C131 1.363 . S
C127 H98 0.950 . S
C127 C126 1.397 1_545 S
C127 C128 1.334 1_545 S
C128 H99 0.964 . S
C128 C127 1.334 1_565 S
C128 C129 1.287 . S
C129 C128 1.287 . S
C129 C130 1.524 . S
C129 H132 0.999 . S
C130 H100 0.950 . S
C130 C129 1.524 . S
C130 C131 1.415 . S
C131 H101 0.950 . S
C131 C126 1.363 . S
C131 C130 1.415 . S
H132 C129 0.999 . S
H133 C114 0.913 . S
H134 C152 0.951 . S
H135 C154 0.951 . S
H136 C156 0.950 . S
H137 C157 0.950 . S
H138 C159 0.950 . S
H139 C162 0.950 . S
H140 C163 0.950 . S
H141 C165 0.950 . S
H142 C166 0.950 . S
H143 C167 0.951 1_655 S
H144 C169 0.951 1_655 S
H145 C171 0.950 . S
H146 C172 0.950 . S
H147 C174 0.950 . S
H148 C177 0.950 . S
H149 C178 0.950 . S
H150 C180 0.950 . S
H151 C181 0.950 . S
C152 H134 0.951 . S
C152 C153 1.366 . S
C152 C154 1.388 . S
C153 C152 1.366 . S
C153 C157 1.385 1_455 S
C154 H135 0.951 . S
C154 C152 1.388 . S
C154 C155 1.366 . S
C155 C154 1.366 . S
C155 C156 1.414 1_455 S
C155 C158 1.499 . S
C156 H136 0.950 . S
C156 C155 1.414 1_655 S
C156 C157 1.374 . S
C157 H137 0.950 . S
C157 C153 1.385 1_655 S
C157 C156 1.374 . S
C158 C155 1.499 . S
C158 C159 1.373 1_565 S
C158 C160 1.389 1_565 S
C159 H138 0.950 . S
C159 C158 1.373 1_545 S
C159 C175 1.377 . S
C160 C158 1.389 1_545 S
C160 C161 1.524 1_545 S
C160 C174 1.377 . S
C161 C160 1.524 1_565 S
C161 C162 1.397 1_455 S
C161 C166 1.363 1_565 S
C162 H139 0.950 . S
C162 C161 1.397 1_655 S
C162 C163 1.334 . S
C163 H140 0.950 . S
C163 C162 1.334 . S
C163 C164 1.287 1_655 S
C164 C163 1.287 1_455 S
C164 C165 1.524 . S
C164 H183 0.913 . S
C165 H141 0.950 . S
C165 C164 1.524 . S
C165 C166 1.415 1_565 S
C166 H142 0.950 . S
C166 C161 1.363 1_545 S
C166 C165 1.415 1_545 S
C167 H143 0.951 1_455 S
C167 C168 1.366 . S
C167 C169 1.388 . S
C168 C167 1.366 . S
C168 C172 1.385 . S
C169 H144 0.951 1_455 S
C169 C167 1.388 . S
C169 C170 1.366 . S
C170 C169 1.366 . S
C170 C171 1.414 . S
C170 C173 1.499 . S
C171 H145 0.950 . S
C171 C170 1.414 . S
C171 C172 1.374 . S
C172 H146 0.950 . S
C172 C168 1.385 . S
C172 C171 1.374 . S
C173 C170 1.499 . S
C173 C174 1.373 . S
C173 C175 1.389 . S
C174 H147 0.950 . S
C174 C160 1.377 . S
C174 C173 1.373 . S
C175 C159 1.377 . S
C175 C173 1.389 . S
C175 C176 1.524 . S
C176 C175 1.524 . S
C176 C177 1.397 . S
C176 C181 1.363 1_455 S
C177 H148 0.950 . S
C177 C176 1.397 . S
C177 C178 1.334 . S
C178 H149 0.950 . S
C178 C177 1.334 . S
C178 C179 1.287 . S
C179 C178 1.287 . S
C179 C180 1.524 1_455 S
C179 H182 0.999 . S
C180 H150 0.950 . S
C180 C179 1.524 1_655 S
C180 C181 1.415 . S
C181 H151 0.950 . S
C181 C176 1.363 1_655 S
C181 C180 1.415 . S
H182 C179 0.999 . S
H183 C164 0.913 . S
H184 C202 0.951 . S
H185 C204 0.951 . S
H186 C206 0.950 . S
H187 C207 0.950 1_565 S
H188 C209 0.950 . S
H189 C212 0.950 . S
H190 C213 0.950 . S
H191 C215 0.950 . S
H192 C216 0.950 . S
H193 C217 0.951 . S
H194 C219 0.951 . S
H195 C221 0.950 . S
H196 C222 0.950 . S
H197 C224 0.950 . S
H198 C227 0.950 . S
H199 C228 0.950 . S
H200 C230 0.950 . S
H201 C231 0.950 . S
C202 H184 0.951 . S
C202 C203 1.366 1_545 S
C202 C204 1.388 . S
C203 C202 1.366 1_565 S
C203 C207 1.385 1_564 S
C204 H185 0.951 . S
C204 C202 1.388 . S
C204 C205 1.366 . S
C205 C204 1.366 . S
C205 C206 1.414 1_554 S
C205 C208 1.499 . S
C206 H186 0.950 . S
C206 C205 1.414 1_556 S
C206 C207 1.374 . S
C207 H187 0.950 1_545 S
C207 C203 1.385 1_546 S
C207 C206 1.374 . S
C208 C205 1.499 . S
C208 C209 1.373 1_554 S
C208 C210 1.389 . S
C209 H188 0.950 . S
C209 C208 1.373 1_556 S
C209 C225 1.377 . S
C210 C208 1.389 . S
C210 C211 1.524 1_545 S
C210 C224 1.377 . S
C211 C210 1.524 1_565 S
C211 C212 1.397 . S
C211 C216 1.363 . S
C212 H189 0.950 . S
C212 C211 1.397 . S
C212 C213 1.334 . S
C213 H190 0.950 . S
C213 C212 1.334 . S
C213 C214 1.287 . S
C214 C213 1.287 . S
C214 C215 1.524 . S
C214 H233 0.913 . S
C215 H191 0.950 . S
C215 C214 1.524 . S
C215 C216 1.415 . S
C216 H192 0.950 . S
C216 C211 1.363 . S
C216 C215 1.415 . S
C217 H193 0.951 . S
C217 C218 1.366 1_556 S
C217 C219 1.388 . S
C218 C217 1.366 1_554 S
C218 C222 1.385 . S
C219 H194 0.951 . S
C219 C217 1.388 . S
C219 C220 1.366 1_556 S
C220 C219 1.366 1_554 S
C220 C221 1.414 . S
C220 C223 1.499 . S
C221 H195 0.950 . S
C221 C220 1.414 . S
C221 C222 1.374 . S
C222 H196 0.950 . S
C222 C218 1.385 . S
C222 C221 1.374 . S
C223 C220 1.499 . S
C223 C224 1.373 . S
C223 C225 1.389 1_554 S
C224 H197 0.950 . S
C224 C210 1.377 . S
C224 C223 1.373 . S
C225 C209 1.377 . S
C225 C223 1.389 1_556 S
C225 C226 1.524 . S
C226 C225 1.524 . S
C226 C227 1.397 . S
C226 C231 1.363 . S
C227 H198 0.950 . S
C227 C226 1.397 . S
C227 C228 1.334 . S
C228 H199 0.950 . S
C228 C227 1.334 . S
C228 C229 1.287 . S
C229 C228 1.287 . S
C229 C230 1.524 . S
C229 H232 0.999 . S
C230 H200 0.950 . S
C230 C229 1.524 . S
C230 C231 1.415 . S
C231 H201 0.950 . S
C231 C226 1.363 . S
C231 C230 1.415 . S
H232 C229 0.999 . S
H233 C214 0.913 . S
H234 C252 0.951 . S
H235 C254 0.951 . S
H236 C256 0.950 1_655 S
H237 C257 0.950 1_655 S
H238 C259 0.950 . S
H239 C262 0.950 . S
H240 C263 0.950 . S
H241 C265 0.950 . S
H242 C266 0.950 . S
H243 C267 0.951 . S
H244 C269 0.951 . S
H245 C271 0.950 . S
H246 C272 0.950 . S
H247 C274 0.950 . S
H248 C277 0.950 . S
H249 C278 0.950 . S
H250 C280 0.950 . S
H251 C281 0.950 . S
C252 H234 0.951 . S
C252 C253 1.366 . S
C252 C254 1.388 . S
C253 C252 1.366 . S
C253 C257 1.385 . S
C254 H235 0.951 . S
C254 C252 1.388 . S
C254 C255 1.366 . S
C255 C254 1.366 . S
C255 C256 1.414 . S
C255 C258 1.499 . S
C256 H236 0.950 1_455 S
C256 C255 1.414 . S
C256 C257 1.374 . S
C257 H237 0.950 1_455 S
C257 C253 1.385 . S
C257 C256 1.374 . S
C258 C255 1.499 . S
C258 C259 1.373 . S
C258 C260 1.389 . S
C259 H238 0.950 . S
C259 C258 1.373 . S
C259 C275 1.377 . S
C260 C258 1.389 . S
C260 C261 1.529 . S
C260 C274 1.377 . S
C261 C260 1.529 . S
C261 C262 1.378 1_455 S
C261 C266 1.375 . S
C262 H239 0.950 . S
C262 C261 1.378 1_655 S
C262 C263 1.334 . S
C263 H240 0.950 . S
C263 C262 1.334 . S
C263 C264 1.287 . S
C264 C263 1.287 . S
C264 C265 1.524 1_655 S
C264 H283 0.913 . S
C265 H241 0.950 . S
C265 C264 1.524 1_455 S
C265 C266 1.415 . S
C266 H242 0.950 . S
C266 C261 1.375 . S
C266 C265 1.415 . S
C267 H243 0.951 . S
C267 C268 1.366 1_655 S
C267 C269 1.388 . S
C268 C267 1.366 1_455 S
C268 C272 1.385 . S
C269 H244 0.951 . S
C269 C267 1.388 . S
C269 C270 1.366 1_655 S
C270 C269 1.366 1_455 S
C270 C271 1.414 . S
C270 C273 1.499 . S
C271 H245 0.950 . S
C271 C270 1.414 . S
C271 C272 1.374 . S
C272 H246 0.950 . S
C272 C268 1.385 . S
C272 C271 1.374 . S
C273 C270 1.499 . S
C273 C274 1.373 . S
C273 C275 1.389 . S
C274 H247 0.950 . S
C274 C260 1.377 . S
C274 C273 1.373 . S
C275 C259 1.377 . S
C275 C273 1.389 . S
C275 C276 1.524 . S
C276 C275 1.524 . S
C276 C277 1.397 . S
C276 C281 1.363 . S
C277 H248 0.950 . S
C277 C276 1.397 . S
C277 C278 1.334 . S
C278 H249 0.950 . S
C278 C277 1.334 . S
C278 C279 1.287 . S
C279 C278 1.287 . S
C279 C280 1.524 . S
C279 H282 0.999 . S
C280 H250 0.950 . S
C280 C279 1.524 . S
C280 C281 1.415 . S
C281 H251 0.950 . S
C281 C276 1.363 . S
C281 C280 1.415 . S
H282 C279 0.999 . S
H283 C264 0.913 . S
H284 C302 0.951 . S
H285 C304 0.951 . S
H286 C306 0.950 . S
H287 C307 0.950 . S
H288 C309 0.950 . S
H289 C312 0.950 . S
H290 C313 0.950 . S
H291 C315 0.950 . S
H292 C316 0.950 . S
H293 C317 0.951 . S
H294 C319 0.951 . S
H295 C321 0.950 . S
H296 C322 0.950 . S
H297 C324 0.950 . S
H298 C327 0.950 . S
H299 C328 0.950 . S
H300 C330 0.950 . S
H301 C331 0.950 . S
C302 H284 0.951 . S
C302 C303 1.366 . S
C302 C304 1.388 . S
C303 C302 1.366 . S
C303 C307 1.385 . S
C304 H285 0.951 . S
C304 C302 1.388 . S
C304 C305 1.366 . S
C305 C304 1.366 . S
C305 C306 1.414 . S
C305 C308 1.499 . S
C306 H286 0.950 . S
C306 C305 1.414 . S
C306 C307 1.374 . S
C307 H287 0.950 . S
C307 C303 1.385 . S
C307 C306 1.374 . S
C308 C305 1.499 . S
C308 C309 1.373 . S
C308 C310 1.389 . S
C309 H288 0.950 . S
C309 C308 1.373 . S
C309 C325 1.377 . S
C310 C308 1.389 . S
C310 C311 1.524 . S
C310 C324 1.377 . S
C311 C310 1.524 . S
C311 C312 1.397 . S
C311 C316 1.363 . S
C312 H289 0.950 . S
C312 C311 1.397 . S
C312 C313 1.334 . S
C313 H290 0.950 . S
C313 C312 1.334 . S
C313 C314 1.287 . S
C314 C313 1.287 . S
C314 C315 1.524 . S
C314 H333 0.913 . S
C315 H291 0.950 . S
C315 C314 1.524 . S
C315 C316 1.415 . S
C316 H292 0.950 . S
C316 C311 1.363 . S
C316 C315 1.415 . S
C317 H293 0.951 . S
C317 C318 1.366 . S
C317 C319 1.388 . S
C318 C317 1.366 . S
C318 C322 1.385 . S
C319 H294 0.951 . S
C319 C317 1.388 . S
C319 C320 1.366 . S
C320 C319 1.366 . S
C320 C321 1.414 . S
C320 C323 1.499 . S
C321 H295 0.950 . S
C321 C320 1.414 . S
C321 C322 1.374 . S
C322 H296 0.950 . S
C322 C318 1.385 . S
C322 C321 1.374 . S
C323 C320 1.499 . S
C323 C324 1.373 . S
C323 C325 1.389 . S
C324 H297 0.950 . S
C324 C310 1.377 . S
C324 C323 1.373 . S
C325 C309 1.377 . S
C325 C323 1.389 . S
C325 C326 1.524 . S
C326 C325 1.524 . S
C326 C327 1.397 . S
C326 C331 1.363 . S
C327 H298 0.950 . S
C327 C326 1.397 . S
C327 C328 1.334 . S
C328 H299 0.950 . S
C328 C327 1.334 . S
C328 C329 1.287 . S
C329 C328 1.287 . S
C329 C330 1.524 . S
C329 H332 0.999 . S
C330 H300 0.950 . S
C330 C329 1.524 . S
C330 C331 1.415 . S
C331 H301 0.950 . S
C331 C326 1.363 . S
C331 C330 1.415 . S
H332 C329 0.999 . S
H333 C314 0.913 . S
H334 C352 0.951 . S
H335 C354 0.951 . S
H336 C356 0.950 . S
H337 C357 0.950 . S
H338 C359 0.950 . S
H339 C362 0.950 . S
H340 C363 0.950 . S
H341 C365 0.950 . S
H342 C366 0.950 . S
H343 C367 0.951 . S
H344 C369 0.951 . S
H345 C371 0.950 . S
H346 C372 0.950 . S
H347 C374 0.950 . S
H348 C377 0.950 . S
H349 C378 0.950 . S
H350 C380 0.950 . S
H351 C381 0.950 . S
C352 H334 0.951 . S
C352 C353 1.366 . S
C352 C354 1.388 . S
C353 C352 1.366 . S
C353 C357 1.385 . S
C354 H335 0.951 . S
C354 C352 1.388 . S
C354 C355 1.366 . S
C355 C354 1.366 . S
C355 C356 1.414 . S
C355 C358 1.499 . S
C356 H336 0.950 . S
C356 C355 1.414 . S
C356 C357 1.374 . S
C357 H337 0.950 . S
C357 C353 1.385 . S
C357 C356 1.374 . S
C358 C355 1.499 . S
C358 C359 1.373 . S
C358 C360 1.389 . S
C359 H338 0.950 . S
C359 C358 1.373 . S
C359 C375 1.377 . S
C360 C358 1.389 . S
C360 C361 1.524 . S
C360 C374 1.377 . S
C361 C360 1.524 . S
C361 C362 1.397 . S
C361 C366 1.363 . S
C362 H339 0.950 . S
C362 C361 1.397 . S
C362 C363 1.334 1_655 S
C363 H340 0.950 . S
C363 C362 1.334 1_455 S
C363 C364 1.291 . S
C364 C363 1.291 . S
C364 C365 1.500 1_455 S
C364 H383 0.934 . S
C365 H341 0.950 . S
C365 C364 1.500 1_655 S
C365 C366 1.415 . S
C366 H342 0.950 . S
C366 C361 1.363 . S
C366 C365 1.415 . S
C367 H343 0.951 . S
C367 C368 1.366 . S
C367 C369 1.388 . S
C368 C367 1.366 . S
C368 C372 1.385 . S
C369 H344 0.951 . S
C369 C367 1.388 . S
C369 C370 1.366 . S
C370 C369 1.366 . S
C370 C371 1.414 . S
C370 C373 1.499 . S
C371 H345 0.950 . S
C371 C370 1.414 . S
C371 C372 1.374 . S
C372 H346 0.950 . S
C372 C368 1.385 . S
C372 C371 1.374 . S
C373 C370 1.499 . S
C373 C374 1.373 . S
C373 C375 1.389 . S
C374 H347 0.950 . S
C374 C360 1.377 . S
C374 C373 1.373 . S
C375 C359 1.377 . S
C375 C373 1.389 . S
C375 C376 1.524 . S
C376 C375 1.524 . S
C376 C377 1.397 . S
C376 C381 1.363 . S
C377 H348 0.950 . S
C377 C376 1.397 . S
C377 C378 1.334 . S
C378 H349 0.950 . S
C378 C377 1.334 . S
C378 C379 1.287 . S
C379 C378 1.287 . S
C379 C380 1.524 . S
C379 H382 0.999 . S
C380 H350 0.950 . S
C380 C379 1.524 . S
C380 C381 1.415 . S
C381 H351 0.950 . S
C381 C376 1.363 . S
C381 C380 1.415 . S
H382 C379 0.999 . S
H383 C364 0.934 . S
H384 C402 0.951 . S
H385 C404 0.951 . S
H386 C406 0.950 . S
H387 C407 0.950 . S
H388 C409 0.950 . S
H389 C412 0.950 . S
H390 C413 0.950 1_455 S
H391 C415 0.950 1_455 S
H392 C416 0.950 . S
H393 C417 0.951 . S
H394 C419 0.951 . S
H395 C421 0.950 . S
H396 C422 0.950 . S
H397 C424 0.950 . S
H398 C427 0.950 . S
H399 C428 0.950 . S
H400 C430 0.950 . S
H401 C431 0.950 . S
C402 H384 0.951 . S
C402 C403 1.366 . S
C402 C404 1.388 . S
C403 C402 1.366 . S
C403 C407 1.385 . S
C404 H385 0.951 . S
C404 C402 1.388 . S
C404 C405 1.366 . S
C405 C404 1.366 . S
C405 C406 1.414 . S
C405 C408 1.499 . S
C406 H386 0.950 . S
C406 C405 1.414 . S
C406 C407 1.374 . S
C407 H387 0.950 . S
C407 C403 1.385 . S
C407 C406 1.374 . S
C408 C405 1.499 . S
C408 C409 1.373 . S
C408 C410 1.389 . S
C409 H388 0.950 . S
C409 C408 1.373 . S
C409 C425 1.377 . S
C410 C408 1.389 . S
C410 C411 1.524 . S
C410 C424 1.377 . S
C411 C410 1.524 . S
C411 C412 1.397 . S
C411 C416 1.363 . S
C412 H389 0.950 . S
C412 C411 1.397 . S
C412 C413 1.334 . S
C413 H390 0.950 1_655 S
C413 C412 1.334 . S
C413 C414 1.287 1_655 S
C414 C413 1.287 1_455 S
C414 C415 1.524 1_455 S
C414 H433 0.913 . S
C415 H391 0.950 1_655 S
C415 C414 1.524 1_655 S
C415 C416 1.415 . S
C416 H392 0.950 . S
C416 C411 1.363 . S
C416 C415 1.415 . S
C417 H393 0.951 . S
C417 C418 1.366 . S
C417 C419 1.388 . S
C418 C417 1.366 . S
C418 C422 1.385 . S
C419 H394 0.951 . S
C419 C417 1.388 . S
C419 C420 1.366 . S
C420 C419 1.366 . S
C420 C421 1.414 . S
C420 C423 1.499 . S
C421 H395 0.950 . S
C421 C420 1.414 . S
C421 C422 1.374 . S
C422 H396 0.950 . S
C422 C418 1.385 . S
C422 C421 1.374 . S
C423 C420 1.499 . S
C423 C424 1.373 . S
C423 C425 1.389 . S
C424 H397 0.950 . S
C424 C410 1.377 . S
C424 C423 1.373 . S
C425 C409 1.377 . S
C425 C423 1.389 . S
C425 C426 1.524 . S
C426 C425 1.524 . S
C426 C427 1.397 . S
C426 C431 1.363 . S
C427 H398 0.950 . S
C427 C426 1.397 . S
C427 C428 1.334 . S
C428 H399 0.950 . S
C428 C427 1.334 . S
C428 C429 1.287 . S
C429 C428 1.287 . S
C429 C430 1.524 . S
C429 H432 0.999 . S
C430 H400 0.950 . S
C430 C429 1.524 . S
C430 C431 1.415 . S
C431 H401 0.950 . S
C431 C426 1.363 . S
C431 C430 1.415 . S
H432 C429 0.999 . S
H433 C414 0.913 . S
H434 C452 0.951 . S
H435 C454 0.951 . S
H436 C456 0.950 . S
H437 C457 0.950 . S
H438 C459 0.950 . S
H439 C462 0.950 . S
H440 C463 0.950 . S
H441 C465 0.950 1_545 S
H442 C466 0.950 . S
H443 C467 0.951 . S
H444 C469 0.951 . S
H445 C471 0.950 . S
H446 C472 0.950 1_545 S
H447 C474 0.950 . S
H448 C477 0.950 . S
H449 C478 0.950 1_554 S
H450 C480 0.950 . S
H451 C481 0.950 . S
C452 H434 0.951 . S
C452 C453 1.366 . S
C452 C454 1.388 . S
C453 C452 1.366 . S
C453 C457 1.385 . S
C454 H435 0.951 . S
C454 C452 1.388 . S
C454 C455 1.366 . S
C455 C454 1.366 . S
C455 C456 1.414 . S
C455 C458 1.499 . S
C456 H436 0.950 . S
C456 C455 1.414 . S
C456 C457 1.374 . S
C457 H437 0.950 . S
C457 C453 1.385 . S
C457 C456 1.374 . S
C458 C455 1.499 . S
C458 C459 1.373 . S
C458 C460 1.389 . S
C459 H438 0.950 . S
C459 C458 1.373 . S
C459 C475 1.377 . S
C460 C458 1.389 . S
C460 C461 1.524 . S
C460 C474 1.377 . S
C461 C460 1.524 . S
C461 C462 1.397 . S
C461 C466 1.363 . S
C462 H439 0.950 . S
C462 C461 1.397 . S
C462 C463 1.334 . S
C463 H440 0.950 . S
C463 C462 1.334 . S
C463 C464 1.287 . S
C464 C463 1.287 . S
C464 C465 1.524 . S
C464 H483 0.912 1_565 S
C465 H441 0.950 1_565 S
C465 C464 1.524 . S
C465 C466 1.415 . S
C466 H442 0.950 . S
C466 C461 1.363 . S
C466 C465 1.415 . S
C467 H443 0.951 . S
C467 C468 1.366 . S
C467 C469 1.388 . S
C468 C467 1.366 . S
C468 C472 1.385 . S
C469 H444 0.951 . S
C469 C467 1.388 . S
C469 C470 1.366 . S
C470 C469 1.366 . S
C470 C471 1.414 . S
C470 C473 1.499 . S
C471 H445 0.950 . S
C471 C470 1.414 . S
C471 C472 1.374 . S
C472 H446 0.950 1_565 S
C472 C468 1.385 . S
C472 C471 1.374 . S
C473 C470 1.499 . S
C473 C474 1.373 . S
C473 C475 1.389 . S
C474 H447 0.950 . S
C474 C460 1.377 . S
C474 C473 1.373 . S
C475 C459 1.377 . S
C475 C473 1.389 . S
C475 C476 1.524 . S
C476 C475 1.524 . S
C476 C477 1.397 . S
C476 C481 1.363 . S
C477 H448 0.950 . S
C477 C476 1.397 . S
C477 C478 1.334 . S
C478 H449 0.950 1_556 S
C478 C477 1.334 . S
C478 C479 1.287 . S
C479 C478 1.287 . S
C479 C480 1.524 . S
C479 H482 0.999 1_556 S
C480 H450 0.950 . S
C480 C479 1.524 . S
C480 C481 1.415 . S
C481 H451 0.950 . S
C481 C476 1.363 . S
C481 C480 1.415 . S
H482 C479 0.999 1_554 S
H483 C464 0.912 1_545 S
H484 C502 0.951 . S
H485 C504 0.951 . S
H486 C506 0.950 . S
H487 C507 0.950 . S
H488 C509 0.950 . S
H489 C512 0.950 . S
H490 C513 0.950 . S
H491 C515 0.950 . S
H492 C516 0.950 . S
H493 C517 0.951 . S
H494 C519 0.951 . S
H495 C521 0.950 . S
H496 C522 0.950 . S
H497 C524 0.950 . S
H498 C527 0.950 . S
H499 C528 0.950 . S
H500 C530 0.940 1_545 S
H501 C531 0.950 . S
C502 H484 0.951 . S
C502 C503 1.366 . S
C502 C504 1.388 . S
C503 C502 1.366 . S
C503 C507 1.385 . S
C504 H485 0.951 . S
C504 C502 1.388 . S
C504 C505 1.366 . S
C505 C504 1.366 . S
C505 C506 1.414 . S
C505 C508 1.499 . S
C506 H486 0.950 . S
C506 C505 1.414 . S
C506 C507 1.374 . S
C507 H487 0.950 . S
C507 C503 1.385 . S
C507 C506 1.374 . S
C508 C505 1.499 . S
C508 C509 1.373 . S
C508 C510 1.389 . S
C509 H488 0.950 . S
C509 C508 1.373 . S
C509 C525 1.377 . S
C510 C508 1.389 . S
C510 C511 1.524 . S
C510 C524 1.377 . S
C511 C510 1.524 . S
C511 C512 1.397 . S
C511 C516 1.363 . S
C512 H489 0.950 . S
C512 C511 1.397 . S
C512 C513 1.334 1_556 S
C513 H490 0.950 . S
C513 C512 1.334 1_554 S
C513 C514 1.287 . S
C514 C513 1.287 . S
C514 C515 1.524 1_554 S
C514 H533 0.913 . S
C515 H491 0.950 . S
C515 C514 1.524 1_556 S
C515 C516 1.415 . S
C516 H492 0.950 . S
C516 C511 1.363 . S
C516 C515 1.415 . S
C517 H493 0.951 . S
C517 C518 1.366 . S
C517 C519 1.388 . S
C518 C517 1.366 . S
C518 C522 1.385 . S
C519 H494 0.951 . S
C519 C517 1.388 . S
C519 C520 1.366 . S
C520 C519 1.366 . S
C520 C521 1.414 . S
C520 C523 1.499 . S
C521 H495 0.950 . S
C521 C520 1.414 . S
C521 C522 1.374 . S
C522 H496 0.950 . S
C522 C518 1.385 . S
C522 C521 1.374 . S
C523 C520 1.499 . S
C523 C524 1.373 . S
C523 C525 1.389 . S
C524 H497 0.950 . S
C524 C510 1.377 . S
C524 C523 1.373 . S
C525 C509 1.377 . S
C525 C523 1.389 . S
C525 C526 1.524 . S
C526 C525 1.524 . S
C526 C527 1.397 . S
C526 C531 1.363 . S
C527 H498 0.950 . S
C527 C526 1.397 . S
C527 C528 1.334 . S
C528 H499 0.950 . S
C528 C527 1.334 . S
C528 C529 1.287 . S
C529 C528 1.287 . S
C529 C530 1.524 . S
C529 H532 0.999 . S
C530 H500 0.940 1_565 S
C530 C529 1.524 . S
C530 C531 1.415 . S
C531 H501 0.950 . S
C531 C526 1.363 . S
C531 C530 1.415 . S
H532 C529 0.999 . S
H533 C514 0.913 . S
H534 C552 0.951 . S
H535 C554 0.951 1_545 S
H536 C556 0.950 . S
H537 C557 0.950 . S
H538 C559 0.950 . S
H539 C562 0.950 . S
H540 C563 0.950 . S
H541 C565 0.950 . S
H542 C566 0.950 . S
H543 C567 0.951 . S
H544 C569 0.951 . S
H545 C571 0.950 . S
H546 C572 0.950 . S
H547 C574 0.950 . S
H548 C577 0.950 . S
H549 C578 0.950 . S
H550 C580 0.950 1_655 S
H551 C581 0.950 . S
C552 H534 0.951 . S
C552 C553 1.366 . S
C552 C554 1.388 1_545 S
C553 C552 1.366 . S
C553 C557 1.385 1_545 S
C554 H535 0.951 1_565 S
C554 C552 1.388 1_565 S
C554 C555 1.366 . S
C555 C554 1.366 . S
C555 C556 1.414 . S
C555 C558 1.499 . S
C556 H536 0.950 . S
C556 C555 1.414 . S
C556 C557 1.374 . S
C557 H537 0.950 . S
C557 C553 1.385 1_565 S
C557 C556 1.374 . S
C558 C555 1.499 . S
C558 C559 1.373 . S
C558 C560 1.389 . S
C559 H538 0.950 . S
C559 C558 1.373 . S
C559 C575 1.377 . S
C560 C558 1.389 . S
C560 C561 1.524 . S
C560 C574 1.377 . S
C561 C560 1.524 . S
C561 C562 1.397 . S
C561 C566 1.363 . S
C562 H539 0.950 . S
C562 C561 1.397 . S
C562 C563 1.334 . S
C563 H540 0.950 . S
C563 C562 1.334 . S
C563 C564 1.287 . S
C564 C563 1.287 . S
C564 C565 1.524 . S
C564 H583 0.913 . S
C565 H541 0.950 . S
C565 C564 1.524 . S
C565 C566 1.415 . S
C566 H542 0.950 . S
C566 C561 1.363 . S
C566 C565 1.415 . S
C567 H543 0.951 . S
C567 C568 1.366 . S
C567 C569 1.388 . S
C568 C567 1.366 . S
C568 C572 1.385 . S
C569 H544 0.951 . S
C569 C567 1.388 . S
C569 C570 1.366 . S
C570 C569 1.366 . S
C570 C571 1.414 . S
C570 C573 1.499 . S
C571 H545 0.950 . S
C571 C570 1.414 . S
C571 C572 1.374 . S
C572 H546 0.950 . S
C572 C568 1.385 . S
C572 C571 1.374 . S
C573 C570 1.499 . S
C573 C574 1.373 . S
C573 C575 1.389 . S
C574 H547 0.950 . S
C574 C560 1.377 . S
C574 C573 1.373 . S
C575 C559 1.377 . S
C575 C573 1.389 . S
C575 C576 1.524 . S
C576 C575 1.524 . S
C576 C577 1.397 . S
C576 C581 1.363 . S
C577 H548 0.950 . S
C577 C576 1.397 . S
C577 C578 1.334 . S
C578 H549 0.950 . S
C578 C577 1.334 . S
C578 C579 1.287 . S
C579 C578 1.287 . S
C579 C580 1.524 . S
C579 H582 0.999 1_455 S
C580 H550 0.950 1_455 S
C580 C579 1.524 . S
C580 C581 1.415 . S
C581 H551 0.950 . S
C581 C576 1.363 . S
C581 C580 1.415 . S
H582 C579 0.999 1_655 S
H583 C564 0.913 . S
H584 C602 0.951 . S
H585 C604 0.951 . S
H586 C606 0.950 . S
H587 C607 0.950 . S
H588 C609 0.950 . S
H589 C612 0.950 . S
H590 C613 0.950 . S
H591 C615 0.950 . S
H592 C616 0.950 . S
H593 C617 0.951 . S
H594 C619 0.951 . S
H595 C621 0.950 . S
H596 C622 0.950 . S
H597 C624 0.950 . S
H598 C627 0.950 . S
H599 C628 0.950 . S
H600 C630 0.950 . S
H601 C631 0.950 . S
C602 H584 0.951 . S
C602 C603 1.366 . S
C602 C604 1.388 . S
C603 C602 1.366 . S
C603 C607 1.385 . S
C604 H585 0.951 . S
C604 C602 1.388 . S
C604 C605 1.366 . S
C605 C604 1.366 . S
C605 C606 1.414 . S
C605 C608 1.499 . S
C606 H586 0.950 . S
C606 C605 1.414 . S
C606 C607 1.374 . S
C607 H587 0.950 . S
C607 C603 1.385 . S
C607 C606 1.374 . S
C608 C605 1.499 . S
C608 C609 1.373 . S
C608 C610 1.389 . S
C609 H588 0.950 . S
C609 C608 1.373 . S
C609 C625 1.377 . S
C610 C608 1.389 . S
C610 C611 1.524 . S
C610 C624 1.377 . S
C611 C610 1.524 . S
C611 C612 1.397 . S
C611 C616 1.363 . S
C612 H589 0.950 . S
C612 C611 1.397 . S
C612 C613 1.334 . S
C613 H590 0.950 . S
C613 C612 1.334 . S
C613 C614 1.287 . S
C614 C613 1.287 . S
C614 C615 1.524 . S
C614 H633 0.913 . S
C615 H591 0.950 . S
C615 C614 1.524 . S
C615 C616 1.415 . S
C616 H592 0.950 . S
C616 C611 1.363 . S
C616 C615 1.415 . S
C617 H593 0.951 . S
C617 C618 1.366 . S
C617 C619 1.388 . S
C618 C617 1.366 . S
C618 C622 1.385 . S
C619 H594 0.951 . S
C619 C617 1.388 . S
C619 C620 1.366 . S
C620 C619 1.366 . S
C620 C621 1.414 . S
C620 C623 1.499 . S
C621 H595 0.950 . S
C621 C620 1.414 . S
C621 C622 1.374 . S
C622 H596 0.950 . S
C622 C618 1.385 . S
C622 C621 1.374 . S
C623 C620 1.499 . S
C623 C624 1.373 . S
C623 C625 1.389 . S
C624 H597 0.950 . S
C624 C610 1.377 . S
C624 C623 1.373 . S
C625 C609 1.377 . S
C625 C623 1.389 . S
C625 C626 1.524 . S
C626 C625 1.524 . S
C626 C627 1.397 . S
C626 C631 1.363 . S
C627 H598 0.950 . S
C627 C626 1.397 . S
C627 C628 1.334 . S
C628 H599 0.950 . S
C628 C627 1.334 . S
C628 C629 1.287 . S
C629 C628 1.287 . S
C629 C630 1.524 . S
C629 H632 0.999 . S
C630 H600 0.950 . S
C630 C629 1.524 . S
C630 C631 1.415 . S
C631 H601 0.950 . S
C631 C626 1.363 . S
C631 C630 1.415 . S
H632 C629 0.999 . S
H633 C614 0.913 . S
H634 C652 0.951 . S
H635 C654 0.951 . S
H636 C656 0.950 . S
H637 C657 0.950 . S
H638 C659 0.950 . S
H639 C662 0.950 . S
H640 C663 0.950 . S
H641 C665 0.950 . S
H642 C666 0.950 . S
H643 C667 0.951 . S
H644 C669 0.951 . S
H645 C671 0.950 . S
H646 C672 0.950 . S
H647 C674 0.950 . S
H648 C677 0.950 . S
H649 C678 0.950 . S
H650 C680 0.950 . S
H651 C681 0.950 . S
C652 H634 0.951 . S
C652 C653 1.366 . S
C652 C654 1.388 . S
C653 C652 1.366 . S
C653 C657 1.385 . S
C654 H635 0.951 . S
C654 C652 1.388 . S
C654 C655 1.366 . S
C655 C654 1.366 . S
C655 C656 1.414 . S
C655 C658 1.499 . S
C656 H636 0.950 . S
C656 C655 1.414 . S
C656 C657 1.374 . S
C657 H637 0.950 . S
C657 C653 1.385 . S
C657 C656 1.374 . S
C658 C655 1.499 . S
C658 C659 1.373 . S
C658 C660 1.389 . S
C659 H638 0.950 . S
C659 C658 1.373 . S
C659 C675 1.377 . S
C660 C658 1.389 . S
C660 C661 1.524 . S
C660 C674 1.377 . S
C661 C660 1.524 . S
C661 C662 1.397 . S
C661 C666 1.363 . S
C662 H639 0.950 . S
C662 C661 1.397 . S
C662 C663 1.334 . S
C663 H640 0.950 . S
C663 C662 1.334 . S
C663 C664 1.287 . S
C664 C663 1.287 . S
C664 C665 1.524 . S
C664 H683 0.913 . S
C665 H641 0.950 . S
C665 C664 1.524 . S
C665 C666 1.415 . S
C666 H642 0.950 . S
C666 C661 1.363 . S
C666 C665 1.415 . S
C667 H643 0.951 . S
C667 C668 1.366 . S
C667 C669 1.388 . S
C668 C667 1.366 . S
C668 C672 1.385 . S
C669 H644 0.951 . S
C669 C667 1.388 . S
C669 C670 1.366 . S
C670 C669 1.366 . S
C670 C671 1.414 . S
C670 C673 1.499 . S
C671 H645 0.950 . S
C671 C670 1.414 . S
C671 C672 1.374 . S
C672 H646 0.950 . S
C672 C668 1.385 . S
C672 C671 1.374 . S
C673 C670 1.499 . S
C673 C674 1.373 . S
C673 C675 1.389 . S
C674 H647 0.950 . S
C674 C660 1.377 . S
C674 C673 1.373 . S
C675 C659 1.377 . S
C675 C673 1.389 . S
C675 C676 1.524 . S
C676 C675 1.524 . S
C676 C677 1.397 . S
C676 C681 1.363 . S
C677 H648 0.950 . S
C677 C676 1.397 . S
C677 C678 1.334 . S
C678 H649 0.950 . S
C678 C677 1.334 . S
C678 C679 1.287 . S
C679 C678 1.287 . S
C679 C680 1.524 . S
C679 H682 0.999 . S
C680 H650 0.950 . S
C680 C679 1.524 . S
C680 C681 1.415 . S
C681 H651 0.950 . S
C681 C676 1.363 . S
C681 C680 1.415 . S
H682 C679 0.999 . S
H683 C664 0.913 . S
C103 C45 1.087 1_565 S
C118 C3 1.087 . S
C153 C79 0.988 1_455 S
C168 C37 1.088 . S
C203 C61 0.719 . S
C218 C19 0.719 . S
C253 C41 0.641 . S
C268 C83 0.665 . S
C303 C24 1.439 . S
C318 C16 1.449 . S
C353 C40 1.082 . S
C368 C62 1.072 . S
C403 C82 1.321 . S
C418 C58 1.577 . S
C453 C66 1.184 . S
C468 C20 0.995 . S
C503 C49 0.702 . S
C518 C70 0.726 . S
C553 C4 1.122 . S
C568 C67 1.206 . S
C603 C25 0.878 . S
C618 C7 0.885 . S
C653 C46 0.950 . S
C668 C28 0.939 . S
