# Generated by pormake.
# Topology ukf, (4)-cn, num edge types: 1
# Building blocks:
#     Node 0, Type 0, BuildingBlock: UXUYUI_clean_sbu_0, # of connection points: 4
#     Node 1, Type 0, BuildingBlock: UXUYUI_clean_sbu_0, # of connection points: 4
#     Node 2, Type 0, BuildingBlock: UXUYUI_clean_sbu_0, # of connection points: 4
#     Node 3, Type 0, BuildingBlock: UXUYUI_clean_sbu_0, # of connection points: 4
#     Node 4, Type 0, BuildingBlock: UXUYUI_clean_sbu_0, # of connection points: 4
#     Node 5, Type 0, BuildingBlock: UXUYUI_clean_sbu_0, # of connection points: 4
#     Node 6, Type 0, BuildingBlock: UXUYUI_clean_sbu_0, # of connection points: 4
#     Node 7, Type 0, BuildingBlock: UXUYUI_clean_sbu_0, # of connection points: 4
#     Node 8, Type 0, BuildingBlock: UXUYUI_clean_sbu_0, # of connection points: 4
#     Node 9, Type 0, BuildingBlock: UXUYUI_clean_sbu_0, # of connection points: 4
#     Node 10, Type 0, BuildingBlock: UXUYUI_clean_sbu_0, # of connection points: 4
#     Node 11, Type 0, BuildingBlock: UXUYUI_clean_sbu_0, # of connection points: 4
#     Edge 12, Type (0, 0), BuildingBlock: TEMPAE_clean_linker_10, # of connection points: 2
#     Edge 13, Type (0, 0), BuildingBlock: TEMPAE_clean_linker_10, # of connection points: 2
#     Edge 14, Type (0, 0), BuildingBlock: TEMPAE_clean_linker_10, # of connection points: 2
#     Edge 15, Type (0, 0), BuildingBlock: TEMPAE_clean_linker_10, # of connection points: 2
#     Edge 16, Type (0, 0), BuildingBlock: TEMPAE_clean_linker_10, # of connection points: 2
#     Edge 17, Type (0, 0), BuildingBlock: TEMPAE_clean_linker_10, # of connection points: 2
#     Edge 18, Type (0, 0), BuildingBlock: TEMPAE_clean_linker_10, # of connection points: 2
#     Edge 19, Type (0, 0), BuildingBlock: TEMPAE_clean_linker_10, # of connection points: 2
#     Edge 20, Type (0, 0), BuildingBlock: TEMPAE_clean_linker_10, # of connection points: 2
#     Edge 21, Type (0, 0), BuildingBlock: TEMPAE_clean_linker_10, # of connection points: 2
#     Edge 22, Type (0, 0), BuildingBlock: TEMPAE_clean_linker_10, # of connection points: 2
#     Edge 23, Type (0, 0), BuildingBlock: TEMPAE_clean_linker_10, # of connection points: 2
#     Edge 24, Type (0, 0), BuildingBlock: TEMPAE_clean_linker_10, # of connection points: 2
#     Edge 25, Type (0, 0), BuildingBlock: TEMPAE_clean_linker_10, # of connection points: 2
#     Edge 26, Type (0, 0), BuildingBlock: TEMPAE_clean_linker_10, # of connection points: 2
#     Edge 27, Type (0, 0), BuildingBlock: TEMPAE_clean_linker_10, # of connection points: 2
#     Edge 28, Type (0, 0), BuildingBlock: TEMPAE_clean_linker_10, # of connection points: 2
#     Edge 29, Type (0, 0), BuildingBlock: TEMPAE_clean_linker_10, # of connection points: 2
#     Edge 30, Type (0, 0), BuildingBlock: TEMPAE_clean_linker_10, # of connection points: 2
#     Edge 31, Type (0, 0), BuildingBlock: TEMPAE_clean_linker_10, # of connection points: 2
#     Edge 32, Type (0, 0), BuildingBlock: TEMPAE_clean_linker_10, # of connection points: 2
#     Edge 33, Type (0, 0), BuildingBlock: TEMPAE_clean_linker_10, # of connection points: 2
#     Edge 34, Type (0, 0), BuildingBlock: TEMPAE_clean_linker_10, # of connection points: 2
#     Edge 35, Type (0, 0), BuildingBlock: TEMPAE_clean_linker_10, # of connection points: 2
# Relax obj value: 0.271
# Max RMSD: 0.213
# Mean RMSD: 0.213
data_MOF--net-ukf--node1-UXUYUI_clean_sbu_0--edge1-TEMPAE_clean_linker_10
_symmetry_space_group_name_H-M    P1
_symmetry_Int_Tables_number       1
_symmetry_cell_setting            triclinic
loop_
_symmetry_equiv_pos_as_xyz
'x, y, z'
_cell_length_a     46.767616
_cell_length_b     46.772671
_cell_length_c     93.156559
_cell_angle_alpha  89.999783
_cell_angle_beta   90.00494
_cell_angle_gamma 120.01025
loop_
_atom_site_label
_atom_site_type_symbol
_atom_site_fract_x
_atom_site_fract_y
_atom_site_fract_z
_atom_type_partial_charge
Li0 Li 0.39472 0.22368 0.06329 0.0
Li1 Li 0.36661 0.20611 0.03996 0.0
Li2 Li 0.4276 0.22486 0.04205 0.0
Li3 Li 0.4072 0.26347 0.04333 0.0
C4 C 0.38206 0.15662 0.05642 0.0
N5 N 0.36765 0.0956 0.06699 0.0
C6 C 0.34925 0.1315 0.05803 0.0
C7 C 0.40754 0.15055 0.06008 0.0
C8 C 0.34247 0.10087 0.06342 0.0
C9 C 0.39976 0.11959 0.06544 0.0
C10 C 0.33314 0.22969 0.05553 0.0
C11 C 0.28452 0.22875 0.04629 0.0
N12 N 0.2679 0.21325 0.05846 0.0
C13 C 0.31567 0.21394 0.06798 0.0
C14 C 0.31757 0.23738 0.04463 0.0
C15 C 0.28267 0.20577 0.06924 0.0
C16 C 0.40548 0.24566 0.09182 0.0
N17 N 0.39065 0.21797 0.08359 0.0
C18 C 0.37262 0.18386 0.10451 0.0
C19 C 0.37403 0.18746 0.08962 0.0
C20 C 0.38822 0.21197 0.11331 0.0
C21 C 0.4046 0.24324 0.10677 0.0
H22 H 0.41827 0.26966 0.08674 0.0
H23 H 0.36197 0.16584 0.08293 0.0
C24 C 0.33255 0.16472 0.01725 0.0
N25 N 0.32765 0.17357 0.03051 0.0
C26 C 0.30749 0.13679 0.01049 0.0
C27 C 0.27203 0.12862 0.03078 0.0
C28 C 0.29787 0.15665 0.03719 0.0
C29 C 0.27705 0.11768 0.01747 0.0
H30 H 0.35664 0.17823 0.01229 0.0
H31 H 0.2947 0.16338 0.04789 0.0
C32 C 0.4652 0.26639 0.06487 0.0
N33 N 0.51899 0.27944 0.08174 0.0
C34 C 0.492 0.29851 0.06584 0.0
C35 C 0.46566 0.24097 0.07254 0.0
C36 C 0.51901 0.3046 0.0744 0.0
C37 C 0.49308 0.24804 0.081 0.0
C38 C 0.40963 0.25483 0.01549 0.0
C39 C 0.4412 0.27187 0.00947 0.0
C40 C 0.3843 0.259 0.00983 0.0
C41 C 0.44704 0.29333 0.99798 0.0
C42 C 0.39113 0.28068 0.99834 0.0
N43 N 0.4221 0.29728 0.99272 0.0
C44 C 0.45549 0.18928 0.02959 0.0
C45 C 0.49355 0.24527 0.03503 0.0
C46 C 0.48078 0.18504 0.02392 0.0
N47 N 0.46236 0.21897 0.03508 0.0
C48 C 0.51956 0.24214 0.02951 0.0
C49 C 0.51333 0.21173 0.02384 0.0
H50 H 0.43031 0.16898 0.02951 0.0
H51 H 0.49814 0.26889 0.03902 0.0
C52 C 0.40149 0.32146 0.04004 0.0
N53 N 0.42139 0.30812 0.03888 0.0
C54 C 0.41423 0.35516 0.03749 0.0
C55 C 0.46733 0.36033 0.03239 0.0
C56 C 0.45366 0.32672 0.03512 0.0
C57 C 0.44766 0.37506 0.03372 0.0
H58 H 0.37599 0.30612 0.0432 0.0
H59 H 0.46895 0.31544 0.03448 0.0
O60 O 0.38916 0.18667 0.05096 0.0
O61 O 0.3655 0.23805 0.05416 0.0
O62 O 0.43865 0.26006 0.05648 0.0
O63 O 0.40359 0.23425 0.02691 0.0
H64 H 0.32921 0.13571 0.05536 0.0
H65 H 0.43311 0.1694 0.05873 0.0
H66 H 0.31717 0.0813 0.06479 0.0
H67 H 0.41925 0.1146 0.06833 0.0
H68 H 0.27209 0.2344 0.03791 0.0
H69 H 0.32741 0.20797 0.07655 0.0
H70 H 0.33081 0.24974 0.03497 0.0
H71 H 0.26879 0.19347 0.07879 0.0
H72 H 0.35998 0.15925 0.10905 0.0
H73 H 0.41651 0.26561 0.11313 0.0
H74 H 0.31275 0.12906 0.00035 0.0
H75 H 0.24892 0.11477 0.03651 0.0
H76 H 0.49198 0.31853 0.06003 0.0
H77 H 0.44493 0.21615 0.0721 0.0
H78 H 0.53998 0.32932 0.07522 0.0
H79 H 0.49372 0.22858 0.08701 0.0
H80 H 0.46104 0.26881 0.01372 0.0
H81 H 0.35966 0.24568 0.01428 0.0
H82 H 0.47141 0.30688 0.99328 0.0
H83 H 0.3718 0.2843 0.99389 0.0
H84 H 0.47494 0.16116 0.01968 0.0
H85 H 0.54414 0.26354 0.02935 0.0
H86 H 0.39823 0.36558 0.03858 0.0
H87 H 0.49332 0.37485 0.02976 0.0
Li88 Li 0.13913 0.40098 0.37701 0.0
Li89 Li 0.19724 0.42589 0.37364 0.0
Li90 Li 0.16206 0.36551 0.37249 0.0
Li91 Li 0.17131 0.39513 0.39617 0.0
C92 C 0.15552 0.40503 0.34631 0.0
N93 N 0.14095 0.41678 0.31894 0.0
C94 C 0.17055 0.43725 0.34093 0.0
C95 C 0.13342 0.37876 0.33767 0.0
C96 C 0.16276 0.44268 0.3271 0.0
C97 C 0.12628 0.38522 0.32389 0.0
C98 C 0.16516 0.45916 0.39065 0.0
C99 C 0.14085 0.48424 0.40511 0.0
N100 N 0.14221 0.50301 0.3937 0.0
C101 C 0.16671 0.47901 0.37912 0.0
C102 C 0.15243 0.46201 0.4038 0.0
C103 C 0.15483 0.5009 0.38085 0.0
C104 C 0.08546 0.40542 0.38693 0.0
N105 N 0.10259 0.40822 0.37472 0.0
C106 C 0.07553 0.4329 0.36243 0.0
C107 C 0.09725 0.42063 0.36245 0.0
C108 C 0.05949 0.43266 0.37519 0.0
C109 C 0.06382 0.41778 0.38745 0.0
H110 H 0.09037 0.39564 0.39655 0.0
H111 H 0.11117 0.42296 0.35291 0.0
C112 C 0.24934 0.4567 0.35382 0.0
N113 N 0.23564 0.46191 0.36569 0.0
C114 C 0.27736 0.48282 0.34758 0.0
C115 C 0.27639 0.51913 0.36584 0.0
C116 C 0.24864 0.49223 0.37182 0.0
C117 C 0.291 0.51455 0.35354 0.0
H118 H 0.2383 0.43225 0.34918 0.0
H119 H 0.23737 0.49553 0.38134 0.0
C120 C 0.09925 0.33281 0.38463 0.0
N121 N 0.0395 0.27723 0.37847 0.0
C122 C 0.08433 0.30735 0.39469 0.0
C123 C 0.08376 0.3301 0.37148 0.0
C124 C 0.05413 0.27941 0.39137 0.0
C125 C 0.05356 0.30179 0.36856 0.0
C126 C 0.23682 0.40435 0.38197 0.0
C127 C 0.24923 0.39132 0.37184 0.0
C128 C 0.25864 0.43187 0.39008 0.0
C129 C 0.28335 0.40622 0.36991 0.0
C130 C 0.29259 0.4461 0.38781 0.0
N131 N 0.30413 0.4331 0.37786 0.0
C132 C 0.17152 0.33247 0.35001 0.0
C133 C 0.14824 0.29899 0.37064 0.0
C134 C 0.1756 0.30798 0.34347 0.0
N135 N 0.1587 0.32783 0.36344 0.0
C136 C 0.15185 0.27371 0.36447 0.0
C137 C 0.1667 0.27858 0.3509 0.0
H138 H 0.18033 0.35595 0.34469 0.0
H139 H 0.13873 0.2963 0.38144 0.0
C140 C 0.15155 0.38961 0.42498 0.0
N141 N 0.17576 0.3918 0.4162 0.0
C142 C 0.15433 0.3879 0.43984 0.0
C143 C 0.20645 0.38976 0.43627 0.0
C144 C 0.20268 0.39149 0.42149 0.0
C145 C 0.1822 0.38819 0.44567 0.0
H146 H 0.13018 0.38942 0.42042 0.0
H147 H 0.2212 0.39252 0.41425 0.0
O148 O 0.16308 0.39912 0.35979 0.0
O149 O 0.17561 0.43673 0.389 0.0
O150 O 0.12896 0.36013 0.3877 0.0
O151 O 0.20348 0.39072 0.38371 0.0
H152 H 0.18793 0.4579 0.34736 0.0
H153 H 0.12198 0.35359 0.34152 0.0
H154 H 0.17409 0.4675 0.32284 0.0
H155 H 0.10915 0.36513 0.31712 0.0
H156 H 0.13066 0.48649 0.4152 0.0
H157 H 0.17651 0.47716 0.36888 0.0
H158 H 0.15125 0.44705 0.41287 0.0
H159 H 0.15554 0.51612 0.37196 0.0
H160 H 0.07298 0.44439 0.35279 0.0
H161 H 0.05164 0.41694 0.39746 0.0
H162 H 0.28783 0.47841 0.33804 0.0
H163 H 0.28648 0.5432 0.37081 0.0
H164 H 0.09607 0.30913 0.40493 0.0
H165 H 0.09483 0.34969 0.36365 0.0
H166 H 0.04232 0.25946 0.39903 0.0
H167 H 0.0413 0.29937 0.35841 0.0
H168 H 0.2327 0.37005 0.36547 0.0
H169 H 0.24939 0.44247 0.39785 0.0
H170 H 0.2933 0.39648 0.36207 0.0
H171 H 0.30975 0.46757 0.39392 0.0
H172 H 0.18694 0.31257 0.33295 0.0
H173 H 0.14503 0.25153 0.3706 0.0
H174 H 0.13515 0.38693 0.44668 0.0
H175 H 0.228 0.38939 0.44029 0.0
Li176 Li 0.77323 0.19841 0.70923 0.0
Li177 Li 0.73495 0.13897 0.71043 0.0
Li178 Li 0.77862 0.16865 0.72949 0.0
Li179 Li 0.79342 0.15963 0.70554 0.0
C180 C 0.72757 0.19303 0.72831 0.0
N181 N 0.70274 0.23337 0.73615 0.0
C182 C 0.69533 0.18454 0.72457 0.0
C183 C 0.747 0.22175 0.73622 0.0
C184 C 0.68327 0.20533 0.72858 0.0
C185 C 0.73405 0.2419 0.74003 0.0
C186 C 0.75238 0.14594 0.68165 0.0
C187 C 0.73878 0.09466 0.66998 0.0
N188 N 0.73482 0.1069 0.65736 0.0
C189 C 0.74819 0.15803 0.66858 0.0
C190 C 0.74762 0.11401 0.68238 0.0
C191 C 0.73929 0.1379 0.65642 0.0
C192 C 0.80683 0.26619 0.70181 0.0
N193 N 0.77674 0.23839 0.70271 0.0
C194 C 0.7504 0.26657 0.69299 0.0
C195 C 0.74884 0.23793 0.69825 0.0
C196 C 0.78111 0.29561 0.69191 0.0
C197 C 0.80963 0.29529 0.69633 0.0
H198 H 0.8287 0.26562 0.70511 0.0
H199 H 0.72543 0.21515 0.69858 0.0
C200 C 0.67458 0.07913 0.71482 0.0
N201 N 0.69034 0.10721 0.70691 0.0
C202 C 0.64062 0.05797 0.71319 0.0
C203 C 0.64004 0.09502 0.69524 0.0
C204 C 0.67398 0.11526 0.69713 0.0
C205 C 0.62275 0.06613 0.70348 0.0
H206 H 0.68819 0.07367 0.72268 0.0
H207 H 0.68714 0.13816 0.69121 0.0
C208 C 0.84199 0.21907 0.72449 0.0
N209 N 0.89913 0.25534 0.74025 0.0
C210 C 0.86685 0.21075 0.72423 0.0
C211 C 0.8464 0.24608 0.73263 0.0
C212 C 0.89552 0.22934 0.73229 0.0
C213 C 0.87539 0.26402 0.74057 0.0
C214 C 0.77499 0.10302 0.72209 0.0
C215 C 0.80573 0.11316 0.72835 0.0
C216 C 0.75497 0.07002 0.71806 0.0
C217 C 0.81599 0.0901 0.7305 0.0
C218 C 0.76608 0.04769 0.72039 0.0
N219 N 0.79611 0.0581 0.72652 0.0
C220 C 0.76182 0.16865 0.75832 0.0
C221 C 0.81541 0.17605 0.75546 0.0
C222 C 0.76601 0.17204 0.77318 0.0
N223 N 0.78652 0.17118 0.74976 0.0
C224 C 0.82057 0.17933 0.77026 0.0
C225 C 0.79581 0.17769 0.77935 0.0
H226 H 0.73891 0.16438 0.75361 0.0
H227 H 0.83467 0.17766 0.74859 0.0
C228 C 0.84665 0.18507 0.68809 0.0
N229 N 0.82561 0.1559 0.69448 0.0
C230 C 0.87431 0.18901 0.68077 0.0
C231 C 0.85752 0.13217 0.68611 0.0
C232 C 0.82989 0.12926 0.6933 0.0
C233 C 0.88041 0.16256 0.67992 0.0
H234 H 0.84252 0.20575 0.68917 0.0
H235 H 0.81242 0.10603 0.69815 0.0
O236 O 0.73997 0.17321 0.72433 0.0
O237 O 0.7609 0.16535 0.69365 0.0
O238 O 0.81377 0.20124 0.71662 0.0
O239 O 0.76447 0.1252 0.71988 0.0
H240 H 0.67985 0.16225 0.71856 0.0
H241 H 0.7718 0.2284 0.73937 0.0
H242 H 0.65844 0.19919 0.72568 0.0
H243 H 0.74889 0.26431 0.74608 0.0
H244 H 0.73504 0.0699 0.67039 0.0
H245 H 0.75171 0.18269 0.66787 0.0
H246 H 0.75071 0.10426 0.6924 0.0
H247 H 0.73593 0.14692 0.64622 0.0
H248 H 0.72799 0.26584 0.68942 0.0
H249 H 0.83373 0.31727 0.69556 0.0
H250 H 0.62842 0.03577 0.71964 0.0
H251 H 0.62732 0.10268 0.68782 0.0
H252 H 0.86396 0.18995 0.71801 0.0
H253 H 0.82768 0.25319 0.73279 0.0
H254 H 0.91485 0.22305 0.73226 0.0
H255 H 0.87905 0.28489 0.74696 0.0
H256 H 0.82177 0.13866 0.73123 0.0
H257 H 0.73114 0.06175 0.71313 0.0
H258 H 0.83982 0.09768 0.73527 0.0
H259 H 0.75086 0.02208 0.71731 0.0
H260 H 0.74632 0.17091 0.77971 0.0
H261 H 0.84371 0.18302 0.77454 0.0
H262 H 0.89149 0.21302 0.67635 0.0
H263 H 0.86117 0.11108 0.68554 0.0
Li264 Li 0.63019 0.79251 0.04 0.0
Li265 Li 0.60239 0.77147 0.06243 0.0
Li266 Li 0.59721 0.73281 0.04257 0.0
Li267 Li 0.5705 0.76727 0.0414 0.0
C268 C 0.66736 0.76668 0.05208 0.0
N269 N 0.7284 0.77165 0.04876 0.0
C270 C 0.69311 0.78609 0.06151 0.0
C271 C 0.67257 0.74957 0.04103 0.0
C272 C 0.72382 0.78836 0.05963 0.0
C273 C 0.70363 0.75246 0.03951 0.0
C274 C 0.61029 0.83112 0.06096 0.0
C275 C 0.5919 0.85247 0.08023 0.0
N276 N 0.62337 0.87772 0.08201 0.0
C277 C 0.64245 0.85733 0.06296 0.0
C278 C 0.58477 0.82872 0.06962 0.0
C279 C 0.64855 0.88063 0.07366 0.0
C280 C 0.65816 0.85135 0.02599 0.0
N281 N 0.66687 0.82952 0.03103 0.0
C282 C 0.72318 0.86588 0.02436 0.0
C283 C 0.69858 0.83588 0.03008 0.0
C284 C 0.71491 0.88931 0.01953 0.0
C285 C 0.68171 0.88127 0.02009 0.0
H286 H 0.63281 0.84572 0.02684 0.0
H287 H 0.70512 0.81824 0.03398 0.0
C288 C 0.57923 0.75728 0.09105 0.0
N289 N 0.60553 0.77731 0.08268 0.0
C290 C 0.58068 0.76198 0.10588 0.0
C291 C 0.63643 0.80755 0.10323 0.0
C292 C 0.63398 0.80177 0.08847 0.0
C293 C 0.60948 0.7876 0.11216 0.0
H294 H 0.55711 0.73764 0.08621 0.0
H295 H 0.65461 0.81716 0.08158 0.0
C296 C 0.60836 0.77321 0.01342 0.0
N297 N 0.6346 0.80271 0.98732 0.0
C298 C 0.59689 0.79216 0.00659 0.0
C299 C 0.63291 0.76897 0.00692 0.0
C300 C 0.61054 0.80694 0.9934 0.0
C301 C 0.64594 0.78418 0.99374 0.0
C302 C 0.52865 0.71393 0.05576 0.0
C303 C 0.51169 0.68356 0.04868 0.0
C304 C 0.51089 0.72633 0.06293 0.0
C305 C 0.47719 0.66625 0.04878 0.0
C306 C 0.47641 0.7083 0.06275 0.0
N307 N 0.46041 0.6789 0.05573 0.0
C308 C 0.58898 0.67106 0.0495 0.0
C309 C 0.58017 0.67765 0.02494 0.0
C310 C 0.57741 0.63749 0.04741 0.0
N311 N 0.58953 0.6901 0.03839 0.0
C312 C 0.56842 0.64417 0.02236 0.0
C313 C 0.56618 0.62347 0.03377 0.0
H314 H 0.59598 0.68166 0.06013 0.0
H315 H 0.58042 0.69339 0.01637 0.0
C316 C 0.52925 0.79455 0.03641 0.0
N317 N 0.53321 0.7681 0.03393 0.0
C318 C 0.50238 0.79567 0.03053 0.0
C319 C 0.48427 0.74235 0.01965 0.0
C320 C 0.51165 0.74242 0.02563 0.0
C321 C 0.47947 0.76929 0.02204 0.0
H322 H 0.54716 0.81494 0.0428 0.0
H323 H 0.51593 0.72212 0.02355 0.0
O324 O 0.63706 0.76391 0.05387 0.0
O325 O 0.60385 0.80778 0.05066 0.0
O326 O 0.59581 0.75913 0.02648 0.0
O327 O 0.56243 0.73156 0.05557 0.0
H328 H 0.68948 0.79934 0.07017 0.0
H329 H 0.65292 0.73427 0.03369 0.0
H330 H 0.74401 0.80339 0.06682 0.0
H331 H 0.70803 0.73945 0.03098 0.0
H332 H 0.57242 0.8508 0.08706 0.0
H333 H 0.66261 0.85943 0.05649 0.0
H334 H 0.55978 0.80857 0.06826 0.0
H335 H 0.67334 0.90094 0.07538 0.0
H336 H 0.74847 0.87103 0.02412 0.0
H337 H 0.67395 0.89811 0.01614 0.0
H338 H 0.55955 0.74556 0.11237 0.0
H339 H 0.65899 0.82781 0.10754 0.0
H340 H 0.57797 0.79577 0.01148 0.0
H341 H 0.64194 0.75426 0.01202 0.0
H342 H 0.60207 0.82185 0.98804 0.0
H343 H 0.66509 0.78127 0.98862 0.0
H344 H 0.52495 0.67355 0.04307 0.0
H345 H 0.52359 0.74978 0.06845 0.0
H346 H 0.46376 0.6428 0.04328 0.0
H347 H 0.46236 0.71773 0.06817 0.0
H348 H 0.57567 0.62239 0.05655 0.0
H349 H 0.56031 0.63442 0.01166 0.0
H350 H 0.49947 0.81685 0.03263 0.0
H351 H 0.46744 0.7218 0.01297 0.0
Li352 Li 0.84422 0.63595 0.37466 0.0
Li353 Li 0.83274 0.60803 0.39793 0.0
Li354 Li 0.86691 0.60047 0.3799 0.0
Li355 Li 0.80759 0.57547 0.37607 0.0
C356 C 0.90743 0.66671 0.38618 0.0
N357 N 0.96969 0.71637 0.3784 0.0
C358 C 0.92872 0.68877 0.3965 0.0
C359 C 0.9178 0.66989 0.3719 0.0
C360 C 0.9601 0.71373 0.39235 0.0
C361 C 0.94937 0.69516 0.36818 0.0
C362 C 0.77005 0.59869 0.39023 0.0
C363 C 0.72314 0.55629 0.40302 0.0
N364 N 0.70751 0.57405 0.40158 0.0
C365 C 0.75351 0.61648 0.38882 0.0
C366 C 0.75475 0.56832 0.39734 0.0
C367 C 0.72191 0.60363 0.39466 0.0
C368 C 0.83558 0.66967 0.35205 0.0
N369 N 0.84896 0.67388 0.36535 0.0
C370 C 0.85932 0.72928 0.36636 0.0
C371 C 0.86136 0.70307 0.37246 0.0
C372 C 0.84409 0.72516 0.35291 0.0
C373 C 0.83297 0.69514 0.34557 0.0
H374 H 0.82534 0.64591 0.34682 0.0
H375 H 0.87144 0.70547 0.38313 0.0
C376 C 0.84369 0.60119 0.42679 0.0
N377 N 0.8276 0.6115 0.4179 0.0
C378 C 0.84076 0.60251 0.44164 0.0
C379 C 0.80521 0.62562 0.43793 0.0
C380 C 0.80897 0.62399 0.42313 0.0
C381 C 0.82115 0.61468 0.44738 0.0
H382 H 0.85859 0.59166 0.42229 0.0
H383 H 0.79706 0.63275 0.41585 0.0
C384 C 0.84749 0.58615 0.35047 0.0
N385 N 0.85593 0.55533 0.32688 0.0
C386 C 0.83701 0.55247 0.35094 0.0
C387 C 0.86211 0.60415 0.33799 0.0
C388 C 0.84153 0.53734 0.33891 0.0
C389 C 0.86621 0.58813 0.32618 0.0
C390 C 0.82372 0.53687 0.39675 0.0
C391 C 0.83568 0.51864 0.38962 0.0
C392 C 0.80482 0.52402 0.4092 0.0
C393 C 0.82842 0.48788 0.39502 0.0
C394 C 0.79804 0.49313 0.41424 0.0
N395 N 0.80989 0.47585 0.40711 0.0
C396 C 0.91036 0.58321 0.39123 0.0
C397 C 0.91654 0.59068 0.36601 0.0
C398 C 0.93081 0.5695 0.39142 0.0
N399 N 0.90255 0.59212 0.37859 0.0
C400 C 0.93739 0.5773 0.36571 0.0
C401 C 0.94365 0.56537 0.37847 0.0
H402 H 0.89896 0.58485 0.40106 0.0
H403 H 0.91043 0.59843 0.35613 0.0
C404 C 0.75162 0.54718 0.3585 0.0
N405 N 0.76882 0.53946 0.36798 0.0
C406 C 0.72345 0.52221 0.35178 0.0
C407 C 0.73128 0.48184 0.36472 0.0
C408 C 0.75906 0.50755 0.37127 0.0
C409 C 0.71319 0.48904 0.35479 0.0
H410 H 0.76001 0.57281 0.35608 0.0
H411 H 0.77288 0.50188 0.37885 0.0
O412 O 0.87664 0.6422 0.39014 0.0
O413 O 0.80095 0.61096 0.38454 0.0
O414 O 0.84352 0.60161 0.36212 0.0
O415 O 0.83086 0.5673 0.39175 0.0
H416 H 0.92103 0.68661 0.4076 0.0
H417 H 0.90173 0.65313 0.36375 0.0
H418 H 0.97683 0.73099 0.40023 0.0
H419 H 0.95771 0.69791 0.35718 0.0
H420 H 0.71101 0.5328 0.40854 0.0
H421 H 0.76502 0.64 0.3833 0.0
H422 H 0.76707 0.55413 0.39838 0.0
H423 H 0.70883 0.61716 0.39369 0.0
H424 H 0.86838 0.75206 0.37234 0.0
H425 H 0.82048 0.69057 0.33533 0.0
H426 H 0.85325 0.5936 0.44855 0.0
H427 H 0.7903 0.63565 0.44193 0.0
H428 H 0.82557 0.53819 0.36047 0.0
H429 H 0.87037 0.63027 0.33747 0.0
H430 H 0.83359 0.51129 0.33914 0.0
H431 H 0.87758 0.60177 0.31646 0.0
H432 H 0.85047 0.52807 0.38002 0.0
H433 H 0.79545 0.53773 0.41494 0.0
H434 H 0.83756 0.47358 0.3896 0.0
H435 H 0.78341 0.48291 0.42385 0.0
H436 H 0.93553 0.56108 0.4015 0.0
H437 H 0.94694 0.57459 0.35552 0.0
H438 H 0.71024 0.52873 0.34412 0.0
H439 H 0.7239 0.45657 0.36747 0.0
Li440 Li 0.20215 0.84116 0.70494 0.0
Li441 Li 0.22048 0.8318 0.7282 0.0
Li442 Li 0.2618 0.86146 0.7083 0.0
Li443 Li 0.22342 0.80217 0.70741 0.0
C444 C 0.23015 0.9022 0.72055 0.0
N445 N 0.22461 0.95784 0.72444 0.0
C446 C 0.20733 0.90182 0.73034 0.0
C447 C 0.2507 0.93118 0.71298 0.0
C448 C 0.20472 0.93009 0.73208 0.0
C449 C 0.24738 0.95897 0.71503 0.0
C450 C 0.15842 0.77893 0.72502 0.0
C451 C 0.13766 0.73958 0.74446 0.0
N452 N 0.1082 0.73869 0.74364 0.0
C453 C 0.12783 0.7774 0.72429 0.0
C454 C 0.16328 0.75966 0.73511 0.0
C455 C 0.10279 0.75698 0.73381 0.0
C456 C 0.16171 0.83807 0.68178 0.0
N457 N 0.16829 0.84634 0.69587 0.0
C458 C 0.11889 0.84936 0.69814 0.0
C459 C 0.14797 0.85276 0.70398 0.0
C460 C 0.1107 0.8393 0.68378 0.0
C461 C 0.13334 0.83504 0.67544 0.0
H462 H 0.17739 0.83187 0.67562 0.0
H463 H 0.15285 0.85787 0.71529 0.0
C464 C 0.23839 0.83261 0.75706 0.0
N465 N 0.21393 0.83041 0.74844 0.0
C466 C 0.2343 0.83013 0.77193 0.0
C467 C 0.18022 0.82408 0.76883 0.0
C468 C 0.18541 0.82676 0.75402 0.0
C469 C 0.20475 0.82548 0.77799 0.0
H470 H 0.26097 0.83589 0.75235 0.0
H471 H 0.16645 0.82545 0.74696 0.0
C472 C 0.2427 0.85354 0.67957 0.0
N473 N 0.26196 0.8904 0.65461 0.0
C474 C 0.25075 0.84159 0.66738 0.0
C475 C 0.24415 0.88408 0.679 0.0
C476 C 0.26053 0.86064 0.65488 0.0
C477 C 0.25399 0.90238 0.6663 0.0
C478 C 0.27246 0.80748 0.72325 0.0
C479 C 0.29821 0.81215 0.71416 0.0
C480 C 0.26084 0.78248 0.73359 0.0
C481 C 0.31154 0.79138 0.71538 0.0
C482 C 0.27482 0.76222 0.73448 0.0
N483 N 0.29964 0.76702 0.72543 0.0
C484 C 0.3227 0.91905 0.71389 0.0
C485 C 0.32169 0.88988 0.6929 0.0
C486 C 0.35665 0.9404 0.71236 0.0
N487 N 0.30613 0.89417 0.70432 0.0
C488 C 0.35559 0.91047 0.69102 0.0
C489 C 0.37361 0.93567 0.70099 0.0
H490 H 0.30978 0.92144 0.72303 0.0
H491 H 0.30816 0.86939 0.68566 0.0
C492 C 0.19648 0.7322 0.70525 0.0
N493 N 0.21992 0.76234 0.70039 0.0
C494 C 0.19467 0.70355 0.69976 0.0
C495 C 0.24088 0.73751 0.68426 0.0
C496 C 0.24194 0.76546 0.69013 0.0
C497 C 0.21696 0.70606 0.68907 0.0
H498 H 0.17901 0.7303 0.71328 0.0
H499 H 0.2605 0.78975 0.68656 0.0
O500 O 0.23342 0.87487 0.71888 0.0
O501 O 0.18342 0.79922 0.71591 0.0
O502 O 0.23343 0.83536 0.69196 0.0
O503 O 0.2586 0.82714 0.72198 0.0
H504 H 0.19159 0.87985 0.73646 0.0
H505 H 0.2692 0.93236 0.70566 0.0
H506 H 0.18693 0.92999 0.73953 0.0
H507 H 0.26301 0.98148 0.70917 0.0
H508 H 0.14123 0.72476 0.7524 0.0
H509 H 0.12335 0.79166 0.71642 0.0
H510 H 0.1867 0.76046 0.73582 0.0
H511 H 0.07904 0.75566 0.73339 0.0
H512 H 0.10199 0.85229 0.70509 0.0
H513 H 0.12837 0.82773 0.66427 0.0
H514 H 0.25375 0.83109 0.77859 0.0
H515 H 0.15728 0.82101 0.77306 0.0
H516 H 0.2495 0.81787 0.66756 0.0
H517 H 0.23718 0.89323 0.68819 0.0
H518 H 0.26694 0.85174 0.64538 0.0
H519 H 0.25517 0.92605 0.66573 0.0
H520 H 0.30752 0.83129 0.70609 0.0
H521 H 0.24132 0.77876 0.74088 0.0
H522 H 0.33129 0.79458 0.70832 0.0
H523 H 0.26595 0.7427 0.7424 0.0
H524 H 0.36975 0.95931 0.72037 0.0
H525 H 0.36775 0.90612 0.68208 0.0
H526 H 0.17567 0.6797 0.70364 0.0
H527 H 0.25877 0.74048 0.67616 0.0
Li528 Li 0.77266 0.60593 0.60442 0.0
Li529 Li 0.78963 0.63421 0.62704 0.0
Li530 Li 0.76898 0.57511 0.62585 0.0
Li531 Li 0.73068 0.59748 0.6234 0.0
C532 C 0.83422 0.61926 0.60758 0.0
N533 N 0.88472 0.63669 0.58804 0.0
C534 C 0.85841 0.6524 0.60583 0.0
C535 C 0.83585 0.59498 0.59948 0.0
C536 C 0.88373 0.6607 0.59588 0.0
C537 C 0.86152 0.6043 0.58962 0.0
C538 C 0.76166 0.66774 0.61337 0.0
C539 C 0.7432 0.70249 0.62424 0.0
N540 N 0.76303 0.72737 0.61516 0.0
C541 C 0.78168 0.69357 0.60408 0.0
C542 C 0.74209 0.67212 0.62347 0.0
C543 C 0.78209 0.72357 0.60518 0.0
C544 C 0.76059 0.58179 0.57605 0.0
N545 N 0.77989 0.60876 0.58422 0.0
C546 C 0.80938 0.63927 0.56346 0.0
C547 C 0.80371 0.63732 0.57823 0.0
C548 C 0.79007 0.61166 0.55475 0.0
C549 C 0.76528 0.58268 0.56124 0.0
H550 H 0.74136 0.55962 0.58102 0.0
H551 H 0.81847 0.65853 0.58494 0.0
C552 C 0.84536 0.66501 0.64318 0.0
N553 N 0.82369 0.6722 0.63669 0.0
C554 C 0.87298 0.68943 0.65026 0.0
C555 C 0.85616 0.72886 0.64375 0.0
C556 C 0.82828 0.70334 0.637 0.0
C557 C 0.87886 0.72189 0.65046 0.0
H558 H 0.84143 0.6402 0.64261 0.0
H559 H 0.81085 0.7087 0.63188 0.0
C560 C 0.71854 0.53067 0.6102 0.0
N561 N 0.68767 0.46259 0.60908 0.0
C562 C 0.68686 0.51142 0.61591 0.0
C563 C 0.73439 0.5153 0.60381 0.0
C564 C 0.67169 0.47703 0.61525 0.0
C565 C 0.71842 0.48085 0.60339 0.0
C566 C 0.76778 0.61147 0.65343 0.0
C567 C 0.78635 0.60141 0.66153 0.0
C568 C 0.76097 0.63521 0.65896 0.0
C569 C 0.79825 0.61569 0.67497 0.0
C570 C 0.77335 0.64892 0.67244 0.0
N571 N 0.7916 0.63898 0.68009 0.0
C572 C 0.80206 0.54048 0.63322 0.0
C573 C 0.74597 0.51488 0.64045 0.0
C574 C 0.80524 0.51497 0.63935 0.0
N575 N 0.77268 0.5398 0.63379 0.0
C576 C 0.74784 0.48855 0.64644 0.0
C577 C 0.77779 0.48852 0.64594 0.0
H578 H 0.82308 0.56099 0.62812 0.0
H579 H 0.72323 0.51554 0.64113 0.0
C580 C 0.66764 0.58459 0.61533 0.0
N581 N 0.68655 0.58631 0.62672 0.0
C582 C 0.6336 0.5709 0.61697 0.0
C583 C 0.63949 0.56208 0.64214 0.0
C584 C 0.67342 0.57595 0.64 0.0
C585 C 0.61902 0.55875 0.63045 0.0
H586 H 0.67883 0.59247 0.60485 0.0
H587 H 0.6891 0.5772 0.6488 0.0
O588 O 0.80903 0.61064 0.61715 0.0
O589 O 0.76063 0.6381 0.6123 0.0
O590 O 0.73401 0.56438 0.61092 0.0
O591 O 0.75653 0.59831 0.64012 0.0
H592 H 0.85743 0.67156 0.61193 0.0
H593 H 0.81739 0.56923 0.60073 0.0
H594 H 0.90251 0.68626 0.59436 0.0
H595 H 0.86299 0.58578 0.58322 0.0
H596 H 0.72827 0.70626 0.63204 0.0
H597 H 0.79682 0.69054 0.59614 0.0
H598 H 0.7262 0.65232 0.63064 0.0
H599 H 0.79757 0.74382 0.59811 0.0
H600 H 0.82893 0.66203 0.55894 0.0
H601 H 0.74936 0.56103 0.55491 0.0
H602 H 0.89025 0.68322 0.6551 0.0
H603 H 0.86005 0.75372 0.64367 0.0
H604 H 0.67418 0.52284 0.62088 0.0
H605 H 0.75889 0.52983 0.59934 0.0
H606 H 0.64725 0.46183 0.61969 0.0
H607 H 0.7305 0.46864 0.59856 0.0
H608 H 0.79184 0.58306 0.65742 0.0
H609 H 0.74652 0.64315 0.65286 0.0
H610 H 0.81286 0.60832 0.68132 0.0
H611 H 0.76848 0.6675 0.6768 0.0
H612 H 0.82874 0.5157 0.63883 0.0
H613 H 0.72633 0.46874 0.65165 0.0
H614 H 0.61871 0.56842 0.60765 0.0
H615 H 0.62929 0.55335 0.65273 0.0
Li616 Li 0.19126 0.76474 0.95523 0.0
Li617 Li 0.13135 0.73319 0.95389 0.0
Li618 Li 0.16292 0.77192 0.93461 0.0
Li619 Li 0.15787 0.79206 0.95815 0.0
C620 C 0.17914 0.71839 0.93318 0.0
N621 N 0.21123 0.69157 0.9183 0.0
C622 C 0.16819 0.68465 0.93422 0.0
C623 C 0.20628 0.73845 0.92451 0.0
C624 C 0.18479 0.67157 0.92663 0.0
C625 C 0.2222 0.72444 0.91708 0.0
C626 C 0.16005 0.7377 0.98099 0.0
C627 C 0.16182 0.72424 0.00584 0.0
N628 N 0.16257 0.69673 0.0017 0.0
C629 C 0.16089 0.70933 0.97698 0.0
C630 C 0.16055 0.74527 0.99552 0.0
C631 C 0.16213 0.68892 0.98761 0.0
C632 C 0.25168 0.7936 0.9694 0.0
N633 N 0.23018 0.76595 0.96208 0.0
C634 C 0.26339 0.74135 0.96667 0.0
C635 C 0.23543 0.74001 0.96065 0.0
C636 C 0.28591 0.76949 0.97438 0.0
C637 C 0.27987 0.79592 0.97567 0.0
H638 H 0.24661 0.81366 0.97052 0.0
H639 H 0.21759 0.71788 0.95519 0.0
C640 C 0.08438 0.66985 0.9459 0.0
N641 N 0.09477 0.69055 0.95737 0.0
C642 C 0.06209 0.63631 0.94778 0.0
C643 C 0.06048 0.64629 0.97317 0.0
C644 C 0.08244 0.6798 0.97076 0.0
C645 C 0.05075 0.62405 0.96163 0.0
H646 H 0.09478 0.67916 0.93541 0.0
H647 H 0.09091 0.69686 0.97968 0.0
C648 C 0.22409 0.83305 0.9409 0.0
N649 N 0.27731 0.88853 0.9293 0.0
C650 C 0.22372 0.8627 0.93999 0.0
C651 C 0.25177 0.83178 0.93613 0.0
C652 C 0.25079 0.89042 0.93402 0.0
C653 C 0.27837 0.86005 0.93024 0.0
C654 C 0.09259 0.76171 0.94936 0.0
C655 C 0.06913 0.76145 0.94 0.0
C656 C 0.08612 0.7578 0.96411 0.0
C657 C 0.03951 0.75727 0.94554 0.0
C658 C 0.05621 0.75366 0.96922 0.0
N659 N 0.03372 0.75349 0.95991 0.0
C660 C 0.15481 0.75332 0.90552 0.0
C661 C 0.17761 0.81077 0.90927 0.0
C662 C 0.15768 0.75792 0.89067 0.0
N663 N 0.16539 0.77965 0.91447 0.0
C664 C 0.18088 0.81653 0.89449 0.0
C665 C 0.17122 0.78992 0.88499 0.0
H666 H 0.14439 0.72871 0.90991 0.0
H667 H 0.18496 0.83117 0.91657 0.0
C668 C 0.17719 0.83883 0.97964 0.0
N669 N 0.15849 0.82806 0.96757 0.0
C670 C 0.18392 0.86857 0.98596 0.0
C671 C 0.15086 0.87489 0.96762 0.0
C672 C 0.14476 0.84494 0.96163 0.0
C673 C 0.17149 0.88747 0.9797 0.0
H674 H 0.18809 0.82501 0.98397 0.0
H675 H 0.13052 0.83602 0.95185 0.0
O676 O 0.16324 0.73154 0.94063 0.0
O677 O 0.159 0.75823 0.9708 0.0
O678 O 0.19795 0.80579 0.94688 0.0
O679 O 0.12166 0.76579 0.94403 0.0
H680 H 0.14724 0.66878 0.94091 0.0
H681 H 0.21476 0.76447 0.92343 0.0
H682 H 0.17667 0.64553 0.92739 0.0
H683 H 0.24323 0.73968 0.91033 0.0
H684 H 0.1622 0.72979 0.01713 0.0
H685 H 0.16039 0.70298 0.96579 0.0
H686 H 0.15996 0.76718 0.9988 0.0
H687 H 0.16272 0.66685 0.98465 0.0
H688 H 0.26686 0.72021 0.96565 0.0
H689 H 0.29674 0.81812 0.98147 0.0
H690 H 0.05534 0.61985 0.93865 0.0
H691 H 0.05202 0.63768 0.98398 0.0
H692 H 0.20263 0.86421 0.94373 0.0
H693 H 0.25292 0.80935 0.9371 0.0
H694 H 0.25072 0.91346 0.93316 0.0
H695 H 0.29991 0.85939 0.92648 0.0
H696 H 0.07378 0.76447 0.92856 0.0
H697 H 0.10394 0.758 0.97155 0.0
H698 H 0.02113 0.75703 0.93841 0.0
H699 H 0.05088 0.75061 0.9806 0.0
H700 H 0.14928 0.73665 0.88372 0.0
H701 H 0.19147 0.8416 0.89058 0.0
H702 H 0.19962 0.87723 0.99536 0.0
H703 H 0.14109 0.88889 0.9624 0.0
Li704 Li 0.40475 0.13918 0.29005 0.0
Li705 Li 0.42572 0.19864 0.29149 0.0
Li706 Li 0.36527 0.15927 0.29278 0.0
Li707 Li 0.39546 0.17045 0.27023 0.0
C708 C 0.39138 0.14868 0.3192 0.0
N709 N 0.37201 0.11682 0.34538 0.0
C710 C 0.41136 0.16223 0.3313 0.0
C711 C 0.36137 0.11916 0.32046 0.0
C712 C 0.40121 0.14568 0.34443 0.0
C713 C 0.35205 0.10337 0.33377 0.0
C714 C 0.47102 0.19343 0.27715 0.0
C715 C 0.52095 0.24236 0.26977 0.0
N716 N 0.53897 0.23263 0.27773 0.0
C717 C 0.49004 0.18382 0.28519 0.0
C718 C 0.48658 0.22283 0.26931 0.0
C719 C 0.52436 0.204 0.28535 0.0
C720 C 0.41809 0.08995 0.28201 0.0
N721 N 0.41614 0.10622 0.2937 0.0
C722 C 0.43949 0.08155 0.30858 0.0
C723 C 0.4261 0.10214 0.30687 0.0
C724 C 0.44312 0.06544 0.29657 0.0
C725 C 0.43154 0.06931 0.2832 0.0
H726 H 0.41056 0.09423 0.27162 0.0
H727 H 0.42508 0.11588 0.31596 0.0
C728 C 0.46621 0.26821 0.2952 0.0
N729 N 0.4612 0.23807 0.29915 0.0
C730 C 0.49281 0.29687 0.30083 0.0
C731 C 0.50822 0.26282 0.31459 0.0
C732 C 0.48144 0.23489 0.30867 0.0
C733 C 0.51418 0.29433 0.31069 0.0
H734 H 0.44954 0.27003 0.28773 0.0
H735 H 0.47689 0.21057 0.31155 0.0
C736 C 0.33552 0.09711 0.27739 0.0
N737 N 0.27824 0.03688 0.27438 0.0
C738 C 0.31252 0.09272 0.26678 0.0
C739 C 0.32971 0.0706 0.28624 0.0
C740 C 0.28361 0.06217 0.2655 0.0
C741 C 0.30052 0.04042 0.28462 0.0
C742 C 0.38146 0.21906 0.27285 0.0
C743 C 0.34928 0.21372 0.27231 0.0
C744 C 0.40538 0.24176 0.26347 0.0
C745 C 0.34146 0.23092 0.26225 0.0
C746 C 0.39657 0.25841 0.25354 0.0
N747 N 0.36505 0.25268 0.25314 0.0
C748 C 0.33182 0.17207 0.3137 0.0
C749 C 0.29533 0.13531 0.29612 0.0
C750 C 0.30606 0.17386 0.32031 0.0
N751 N 0.32617 0.15336 0.30175 0.0
C752 C 0.26874 0.13649 0.30237 0.0
C753 C 0.27411 0.15648 0.31448 0.0
H754 H 0.35672 0.18678 0.31774 0.0
H755 H 0.29153 0.12124 0.28643 0.0
C756 C 0.41838 0.17786 0.24174 0.0
N757 N 0.39252 0.17359 0.24996 0.0
C758 C 0.41777 0.1816 0.2269 0.0
C759 C 0.36375 0.17609 0.22923 0.0
C760 C 0.36528 0.17216 0.244 0.0
C761 C 0.3903 0.18102 0.22049 0.0
H762 H 0.4396 0.1786 0.24673 0.0
H763 H 0.34491 0.16842 0.25075 0.0
O764 O 0.401 0.16467 0.30628 0.0
O765 O 0.43734 0.17439 0.27712 0.0
O766 O 0.36424 0.12672 0.27862 0.0
O767 O 0.38948 0.20221 0.28254 0.0
H768 H 0.43451 0.18525 0.33058 0.0
H769 H 0.34522 0.10879 0.31132 0.0
H770 H 0.41651 0.1558 0.35387 0.0
H771 H 0.32887 0.0805 0.33488 0.0
H772 H 0.5333 0.26529 0.26383 0.0
H773 H 0.47846 0.16121 0.29135 0.0
H774 H 0.47225 0.23062 0.26302 0.0
H775 H 0.53937 0.19695 0.29159 0.0
H776 H 0.44773 0.079 0.31912 0.0
H777 H 0.4343 0.05783 0.2736 0.0
H778 H 0.49637 0.32072 0.29767 0.0
H779 H 0.52436 0.25979 0.32201 0.0
H780 H 0.31677 0.11277 0.2597 0.0
H781 H 0.34763 0.07313 0.29421 0.0
H782 H 0.26547 0.05855 0.25742 0.0
H783 H 0.29565 0.01977 0.29145 0.0
H784 H 0.33048 0.19639 0.27953 0.0
H785 H 0.43036 0.24613 0.2637 0.0
H786 H 0.31662 0.22692 0.26167 0.0
H787 H 0.41476 0.27581 0.24614 0.0
H788 H 0.31157 0.19021 0.32941 0.0
H789 H 0.24451 0.12276 0.29752 0.0
H790 H 0.43881 0.18552 0.22054 0.0
H791 H 0.34195 0.17507 0.22467 0.0
Li792 Li 0.22089 0.42014 0.62458 0.0
Li793 Li 0.25914 0.39929 0.62264 0.0
Li794 Li 0.22064 0.39102 0.60317 0.0
Li795 Li 0.20153 0.36083 0.62563 0.0
C796 C 0.27167 0.44929 0.59843 0.0
N797 N 0.29987 0.47919 0.57261 0.0
C798 C 0.29949 0.44878 0.59329 0.0
C799 C 0.25827 0.46511 0.59047 0.0
C800 C 0.3134 0.46406 0.58021 0.0
C801 C 0.27284 0.48002 0.57743 0.0
C802 C 0.25208 0.40366 0.65031 0.0
C803 C 0.28382 0.39029 0.66656 0.0
N804 N 0.29814 0.42141 0.67202 0.0
C805 C 0.26696 0.43545 0.65613 0.0
C806 C 0.2604 0.38081 0.65561 0.0
C807 C 0.29024 0.44396 0.66708 0.0
C808 C 0.19534 0.44941 0.64346 0.0
N809 N 0.21663 0.45529 0.63243 0.0
C810 C 0.2359 0.51311 0.63352 0.0
C811 C 0.23677 0.48633 0.62742 0.0
C812 C 0.21409 0.50782 0.64488 0.0
C813 C 0.19339 0.47545 0.64978 0.0
H814 H 0.18028 0.42457 0.64749 0.0
H815 H 0.25397 0.49039 0.61886 0.0
C816 C 0.31615 0.39147 0.62562 0.0
N817 N 0.30351 0.41194 0.62696 0.0
C818 C 0.34985 0.40357 0.62794 0.0
C819 C 0.35637 0.45716 0.63321 0.0
C820 C 0.32278 0.44414 0.63071 0.0
C821 C 0.37042 0.43692 0.63169 0.0
H822 H 0.30026 0.36605 0.62246 0.0
H823 H 0.31207 0.45992 0.63142 0.0
C824 C 0.15866 0.39181 0.61734 0.0
N825 N 0.11228 0.41014 0.62358 0.0
C826 C 0.13448 0.37465 0.62775 0.0
C827 C 0.15918 0.41824 0.61009 0.0
C828 C 0.11123 0.38429 0.63073 0.0
C829 C 0.13557 0.42716 0.61341 0.0
C830 C 0.21978 0.3258 0.61028 0.0
C831 C 0.1996 0.3084 0.59868 0.0
C832 C 0.22616 0.30885 0.62101 0.0
C833 C 0.18583 0.27415 0.59808 0.0
C834 C 0.21189 0.2746 0.62002 0.0
N835 N 0.19218 0.2581 0.60868 0.0
C836 C 0.23684 0.38522 0.57453 0.0
C837 C 0.18902 0.39004 0.57716 0.0
C838 C 0.23381 0.38445 0.5596 0.0
N839 N 0.21482 0.38837 0.58293 0.0
C840 C 0.18501 0.38935 0.56231 0.0
C841 C 0.20772 0.38675 0.55331 0.0
H842 H 0.25698 0.38366 0.57944 0.0
H843 H 0.17155 0.39195 0.5841 0.0
C844 C 0.16683 0.31541 0.64804 0.0
N845 N 0.16807 0.3206 0.63365 0.0
C846 C 0.13862 0.28933 0.65424 0.0
C847 C 0.1144 0.27352 0.63058 0.0
C848 C 0.14296 0.29996 0.62486 0.0
C849 C 0.11152 0.26864 0.6455 0.0
H850 H 0.18687 0.33262 0.6548 0.0
H851 H 0.14423 0.30533 0.61352 0.0
O852 O 0.25719 0.43379 0.61103 0.0
O853 O 0.2298 0.39506 0.63935 0.0
O854 O 0.18193 0.38306 0.61438 0.0
O855 O 0.2331 0.35926 0.61117 0.0
H856 H 0.31001 0.43637 0.59922 0.0
H857 H 0.23658 0.4655 0.59423 0.0
H858 H 0.33484 0.46373 0.57607 0.0
H859 H 0.26259 0.49215 0.57111 0.0
H860 H 0.29066 0.37294 0.67071 0.0
H861 H 0.2609 0.45348 0.65212 0.0
H862 H 0.24913 0.35612 0.65121 0.0
H863 H 0.3021 0.46853 0.67163 0.0
H864 H 0.25217 0.53771 0.62941 0.0
H865 H 0.17658 0.47047 0.65866 0.0
H866 H 0.35976 0.38717 0.62668 0.0
H867 H 0.3714 0.48312 0.6358 0.0
H868 H 0.13377 0.35433 0.63357 0.0
H869 H 0.17795 0.43206 0.60213 0.0
H870 H 0.09245 0.3713 0.63879 0.0
H871 H 0.13583 0.4477 0.60795 0.0
H872 H 0.19434 0.32113 0.5903 0.0
H873 H 0.24175 0.32199 0.63004 0.0
H874 H 0.17002 0.26032 0.5892 0.0
H875 H 0.21646 0.26112 0.62829 0.0
H876 H 0.252 0.38267 0.55307 0.0
H877 H 0.16421 0.39057 0.55792 0.0
H878 H 0.13737 0.28634 0.66579 0.0
H879 H 0.0939 0.2586 0.62349 0.0
Li880 Li 0.8653 0.26482 0.95624 0.0
Li881 Li 0.80692 0.22617 0.95767 0.0
Li882 Li 0.84508 0.20642 0.95933 0.0
Li883 Li 0.83611 0.22658 0.93601 0.0
C884 C 0.83833 0.2556 0.98355 0.0
N885 N 0.83425 0.29465 0.0048 0.0
C886 C 0.82874 0.27871 0.98016 0.0
C887 C 0.84578 0.25233 0.99777 0.0
C888 C 0.82683 0.29822 0.99104 0.0
C889 C 0.8436 0.27231 0.00836 0.0
C890 C 0.81618 0.27809 0.93702 0.0
C891 C 0.78097 0.28018 0.91861 0.0
N892 N 0.78889 0.31096 0.92308 0.0
C893 C 0.82417 0.30986 0.94135 0.0
C894 C 0.79459 0.26321 0.92548 0.0
C895 C 0.81002 0.32601 0.9342 0.0
C896 C 0.90764 0.32901 0.94786 0.0
N897 N 0.89858 0.30922 0.95962 0.0
C898 C 0.93023 0.35565 0.97486 0.0
C899 C 0.91028 0.32161 0.97291 0.0
C900 C 0.93867 0.37679 0.96297 0.0
C901 C 0.92791 0.36306 0.94928 0.0
H902 H 0.89786 0.31839 0.93744 0.0
H903 H 0.90325 0.30533 0.98207 0.0
C904 C 0.75714 0.2072 0.97865 0.0
N905 N 0.76531 0.21885 0.965 0.0
C906 C 0.72826 0.2031 0.98496 0.0
C907 C 0.71572 0.22141 0.96282 0.0
C908 C 0.74489 0.22524 0.95697 0.0
C909 C 0.70735 0.21075 0.97708 0.0
H910 H 0.77334 0.20149 0.98473 0.0
H911 H 0.75106 0.23327 0.94603 0.0
C912 C 0.90993 0.24413 0.94969 0.0
N913 N 0.97212 0.25859 0.95858 0.0
C914 C 0.93341 0.24706 0.93963 0.0
C915 C 0.91806 0.24854 0.96428 0.0
C916 C 0.96472 0.25438 0.94434 0.0
C917 C 0.94963 0.25585 0.96855 0.0
C918 C 0.7724 0.16525 0.94916 0.0
C919 C 0.76212 0.14512 0.96134 0.0
C920 C 0.74911 0.16269 0.93908 0.0
C921 C 0.72851 0.12284 0.96329 0.0
C922 C 0.71573 0.14012 0.94143 0.0
N923 N 0.7062 0.12085 0.95339 0.0
C924 C 0.84981 0.16733 0.98141 0.0
C925 C 0.85116 0.15058 0.9575 0.0
C926 C 0.84665 0.13796 0.98673 0.0
N927 N 0.85106 0.17251 0.96702 0.0
C928 C 0.8479 0.12087 0.96234 0.0
C929 C 0.84438 0.11378 0.9771 0.0
H930 H 0.84913 0.185 0.98868 0.0
H931 H 0.85172 0.15531 0.94611 0.0
C932 C 0.84815 0.24803 0.90723 0.0
N933 N 0.83415 0.22106 0.91591 0.0
C934 C 0.84556 0.24421 0.89234 0.0
C935 C 0.81514 0.18497 0.89566 0.0
C936 C 0.81807 0.18994 0.91048 0.0
C937 C 0.82877 0.21234 0.88641 0.0
H938 H 0.8609 0.27247 0.91191 0.0
H939 H 0.80723 0.169 0.91769 0.0
O940 O 0.84059 0.23625 0.97309 0.0
O941 O 0.83049 0.26226 0.94367 0.0
O942 O 0.87923 0.23703 0.94519 0.0
O943 O 0.80505 0.18789 0.94728 0.0
H944 H 0.8227 0.28148 0.96927 0.0
H945 H 0.85332 0.23463 0.0006 0.0
H946 H 0.81944 0.31618 0.98855 0.0
H947 H 0.84936 0.27007 0.0194 0.0
H948 H 0.76407 0.26885 0.90974 0.0
H949 H 0.8412 0.32201 0.95011 0.0
H950 H 0.78801 0.23862 0.922 0.0
H951 H 0.81593 0.35056 0.93747 0.0
H952 H 0.93842 0.36541 0.98556 0.0
H953 H 0.93374 0.37862 0.93987 0.0
H954 H 0.72284 0.19488 0.996 0.0
H955 H 0.6999 0.22679 0.95623 0.0
H956 H 0.92748 0.24372 0.9283 0.0
H957 H 0.90027 0.24638 0.97223 0.0
H958 H 0.98315 0.25673 0.93667 0.0
H959 H 0.95626 0.25934 0.9798 0.0
H960 H 0.77987 0.14695 0.96927 0.0
H961 H 0.75672 0.17821 0.92962 0.0
H962 H 0.72014 0.10722 0.97271 0.0
H963 H 0.69738 0.13799 0.93377 0.0
H964 H 0.84353 0.13323 0.99817 0.0
H965 H 0.84638 0.10289 0.95459 0.0
H966 H 0.85666 0.26591 0.88555 0.0
H967 H 0.80177 0.16002 0.89149 0.0
Li968 Li 0.57577 0.80642 0.28935 0.0
Li969 Li 0.60328 0.86634 0.28811 0.0
Li970 Li 0.61041 0.83517 0.26858 0.0
Li971 Li 0.63649 0.84021 0.29191 0.0
C972 C 0.53895 0.83087 0.27445 0.0
N973 N 0.47731 0.82533 0.27364 0.0
C974 C 0.52576 0.83685 0.28678 0.0
C975 C 0.52077 0.82205 0.26169 0.0
C976 C 0.49459 0.83397 0.28616 0.0
C977 C 0.48964 0.81935 0.26151 0.0
C978 C 0.59551 0.84277 0.31824 0.0
C979 C 0.61481 0.86474 0.34196 0.0
N980 N 0.58299 0.85137 0.34644 0.0
C981 C 0.56299 0.82891 0.32315 0.0
C982 C 0.62165 0.86053 0.32777 0.0
C983 C 0.55718 0.83366 0.33742 0.0
C984 C 0.54428 0.75282 0.30768 0.0
N985 N 0.53868 0.76718 0.29617 0.0
C986 C 0.48169 0.7256 0.29588 0.0
C987 C 0.50828 0.75393 0.29007 0.0
C988 C 0.48654 0.71049 0.30795 0.0
C989 C 0.51848 0.72431 0.31376 0.0
H990 H 0.56886 0.76373 0.31218 0.0
H991 H 0.50452 0.7653 0.28073 0.0
C992 C 0.58892 0.91439 0.27975 0.0
N993 N 0.59614 0.90237 0.29163 0.0
C994 C 0.57667 0.93599 0.28109 0.0
C995 C 0.58142 0.93405 0.30687 0.0
C996 C 0.5935 0.91236 0.30503 0.0
C997 C 0.57193 0.9454 0.29481 0.0
H998 H 0.59088 0.90563 0.26925 0.0
H999 H 0.5994 0.90255 0.31432 0.0
C1000 C 0.59547 0.76991 0.27315 0.0
N1001 N 0.56525 0.71 0.25897 0.0
C1002 C 0.60759 0.74816 0.27466 0.0
C1003 C 0.56792 0.76116 0.26446 0.0
C1004 C 0.59198 0.71799 0.26739 0.0
C1005 C 0.55301 0.73078 0.25737 0.0
C1006 C 0.67179 0.90545 0.28234 0.0
C1007 C 0.69808 0.92342 0.27293 0.0
C1008 C 0.67296 0.91722 0.29622 0.0
C1009 C 0.72521 0.95291 0.27761 0.0
C1010 C 0.70049 0.94682 0.30051 0.0
N1011 N 0.72585 0.9639 0.29119 0.0
C1012 C 0.60166 0.84607 0.2397 0.0
C1013 C 0.63063 0.81705 0.24327 0.0
C1014 C 0.60291 0.84306 0.22484 0.0
N1015 N 0.61506 0.83277 0.24853 0.0
C1016 C 0.63218 0.8132 0.22849 0.0
C1017 C 0.61795 0.82606 0.21909 0.0
H1018 H 0.58962 0.8586 0.24424 0.0
H1019 H 0.64141 0.80707 0.25057 0.0
C1020 C 0.66397 0.82083 0.31324 0.0
N1021 N 0.67216 0.84019 0.30137 0.0
C1022 C 0.68721 0.81482 0.3198 0.0
C1023 C 0.72728 0.84954 0.30201 0.0
C1024 C 0.70316 0.85493 0.29577 0.0
C1025 C 0.71907 0.8285 0.31395 0.0
H1026 H 0.63893 0.80897 0.31727 0.0
H1027 H 0.70872 0.86958 0.28611 0.0
O1028 O 0.56952 0.83371 0.27474 0.0
O1029 O 0.60178 0.83821 0.30432 0.0
O1030 O 0.61047 0.79944 0.28027 0.0
O1031 O 0.64527 0.87637 0.27792 0.0
H1032 H 0.53953 0.8439 0.29669 0.0
H1033 H 0.53054 0.81718 0.25205 0.0
H1034 H 0.48416 0.83865 0.29563 0.0
H1035 H 0.47527 0.81248 0.25172 0.0
H1036 H 0.6348 0.87857 0.34941 0.0
H1037 H 0.54239 0.8144 0.31608 0.0
H1038 H 0.64698 0.87095 0.32427 0.0
H1039 H 0.53214 0.82316 0.34133 0.0
H1040 H 0.45749 0.71602 0.29109 0.0
H1041 H 0.52357 0.71318 0.32287 0.0
H1042 H 0.56932 0.94376 0.2715 0.0
H1043 H 0.57864 0.9411 0.31763 0.0
H1044 H 0.62884 0.75456 0.28138 0.0
H1045 H 0.55814 0.77762 0.26316 0.0
H1046 H 0.6011 0.70092 0.26845 0.0
H1047 H 0.5317 0.72371 0.2506 0.0
H1048 H 0.69755 0.91457 0.26213 0.0
H1049 H 0.65281 0.90372 0.30359 0.0
H1050 H 0.74577 0.96705 0.27045 0.0
H1051 H 0.70169 0.95621 0.31124 0.0
H1052 H 0.59148 0.85314 0.21794 0.0
H1053 H 0.64436 0.80031 0.22445 0.0
H1054 H 0.68 0.79873 0.32907 0.0
H1055 H 0.75146 0.86024 0.29709 0.0
C1056 C 0.16004 0.93269 0.9868 0.0
C1057 C 0.18245 0.92129 0.98503 0.0
C1058 C 0.17072 0.96483 0.99184 0.0
C1059 C 0.20456 0.98597 0.99503 0.0
C1060 C 0.22727 0.97467 0.99306 0.0
C1061 C 0.21594 0.94252 0.98809 0.0
C1062 C 0.14583 0.97604 0.99389 0.0
C1063 C 0.26363 0.9965 0.99623 0.0
C1064 C 0.24746 0.07923 0.99695 0.0
C1065 C 0.25276 0.08455 0.01178 0.0
C1066 C 0.22959 0.04713 0.99134 0.0
C1067 C 0.21667 0.01977 0.00078 0.0
C1068 C 0.21971 0.02507 0.01579 0.0
C1069 C 0.23782 0.05737 0.02111 0.0
C1070 C 0.2267 0.04251 0.97526 0.0
C1071 C 0.20615 0.99656 0.02624 0.0
H1072 H 0.13413 0.9163 0.98446 0.0
H1073 H 0.23347 0.93408 0.98643 0.0
H1074 H 0.14496 0.9819 0.00537 0.0
H1075 H 0.15335 0.99899 0.9877 0.0
H1076 H 0.12062 0.95701 0.99046 0.0
H1077 H 0.27808 0.98409 0.99388 0.0
H1078 H 0.27385 0.01945 0.98976 0.0
H1079 H 0.26715 0.00384 0.0077 0.0
H1080 H 0.25843 0.10013 0.98969 0.0
H1081 H 0.24202 0.0611 0.03257 0.0
H1082 H 0.20114 0.02379 0.97218 0.0
H1083 H 0.24324 0.03334 0.97159 0.0
H1084 H 0.23365 0.06592 0.96952 0.0
H1085 H 0.18055 0.97769 0.0233 0.0
H1086 H 0.20623 0.0047 0.03745 0.0
H1087 H 0.22144 0.98454 0.02581 0.0
C1088 C 0.15469 0.22091 0.34542 0.0
C1089 C 0.17649 0.25512 0.34521 0.0
C1090 C 0.16472 0.19891 0.3404 0.0
C1091 C 0.19737 0.21153 0.33529 0.0
C1092 C 0.21938 0.24606 0.33507 0.0
C1093 C 0.20864 0.26735 0.34 0.0
C1094 C 0.14054 0.16228 0.34063 0.0
C1095 C 0.25454 0.26059 0.32984 0.0
C1096 C 0.24527 0.16633 0.3349 0.0
C1097 C 0.24794 0.16263 0.3201 0.0
C1098 C 0.22629 0.1796 0.34017 0.0
C1099 C 0.20944 0.18918 0.3304 0.0
C1100 C 0.20937 0.18242 0.31558 0.0
C1101 C 0.22875 0.16931 0.31059 0.0
C1102 C 0.22689 0.18623 0.35606 0.0
C1103 C 0.19138 0.19188 0.30483 0.0
H1104 H 0.1298 0.21143 0.34942 0.0
H1105 H 0.22578 0.29373 0.3401 0.0
H1106 H 0.13804 0.1518 0.32971 0.0
H1107 H 0.1499 0.14972 0.34773 0.0
H1108 H 0.11574 0.15652 0.34447 0.0
H1109 H 0.2684 0.288 0.33032 0.0
H1110 H 0.26779 0.25117 0.33646 0.0
H1111 H 0.25475 0.25291 0.31859 0.0
H1112 H 0.25951 0.16053 0.34232 0.0
H1113 H 0.23071 0.16664 0.29913 0.0
H1114 H 0.20185 0.17919 0.36001 0.0
H1115 H 0.24306 0.21305 0.35807 0.0
H1116 H 0.23647 0.17267 0.36238 0.0
H1117 H 0.16658 0.18547 0.30888 0.0
H1118 H 0.18856 0.17954 0.29431 0.0
H1119 H 0.2055 0.21898 0.30311 0.0
C1120 C 0.93125 0.15739 0.68061 0.0
C1121 C 0.91178 0.16799 0.67347 0.0
C1122 C 0.96367 0.16782 0.67607 0.0
C1123 C 0.97686 0.18952 0.66422 0.0
C1124 C 0.95645 0.19826 0.65636 0.0
C1125 C 0.92412 0.18723 0.66104 0.0
C1126 C 0.98446 0.15746 0.68456 0.0
C1127 C 0.96947 0.22126 0.64361 0.0
C1128 C 0.0667 0.25635 0.66312 0.0
C1129 C 0.07892 0.24548 0.65192 0.0
C1130 C 0.03394 0.2374 0.66776 0.0
C1131 C 0.01286 0.20667 0.66109 0.0
C1132 C 0.02561 0.19453 0.65043 0.0
C1133 C 0.05848 0.21422 0.64587 0.0
C1134 C 0.02131 0.25138 0.67912 0.0
C1135 C 0.0041 0.16159 0.64329 0.0
H1136 H 0.92192 0.14257 0.69025 0.0
H1137 H 0.90891 0.19491 0.65531 0.0
H1138 H 0.99898 0.15076 0.67729 0.0
H1139 H 0.00225 0.17842 0.6913 0.0
H1140 H 0.96917 0.13618 0.69172 0.0
H1141 H 0.94966 0.22326 0.63792 0.0
H1142 H 0.98837 0.24627 0.64728 0.0
H1143 H 0.9816 0.21268 0.63588 0.0
H1144 H 0.08218 0.28065 0.6677 0.0
H1145 H 0.06794 0.2056 0.6373 0.0
H1146 H 0.00856 0.23301 0.68777 0.0
H1147 H 0.00301 0.25705 0.67429 0.0
H1148 H 0.04143 0.27433 0.684 0.0
H1149 H 0.9893 0.14244 0.65139 0.0
H1150 H 0.01886 0.15336 0.637 0.0
H1151 H 0.98653 0.16352 0.6359 0.0
C1152 C 0.7381 0.95026 0.01777 0.0
C1153 C 0.74043 0.92234 0.01423 0.0
C1154 C 0.7596 0.98117 0.01179 0.0
C1155 C 0.78463 0.98452 0.00224 0.0
C1156 C 0.78852 0.95696 0.9993 0.0
C1157 C 0.76618 0.92605 0.00526 0.0
C1158 C 0.75446 0.00989 0.01518 0.0
C1159 C 0.81537 0.95979 0.98941 0.0
C1160 C 0.80673 0.05302 0.97543 0.0
C1161 C 0.83337 0.07983 0.98224 0.0
C1162 C 0.79194 0.0213 0.98138 0.0
C1163 C 0.80432 0.01619 0.99441 0.0
C1164 C 0.8327 0.04267 0.0008 0.0
C1165 C 0.84672 0.07434 0.99472 0.0
C1166 C 0.76147 0.99387 0.9743 0.0
C1167 C 0.84707 0.03798 0.01451 0.0
H1168 H 0.71893 0.94784 0.02505 0.0
H1169 H 0.7682 0.90463 0.00248 0.0
H1170 H 0.77765 0.03105 0.01931 0.0
H1171 H 0.74771 0.0182 0.00524 0.0
H1172 H 0.73468 0.00343 0.02326 0.0
H1173 H 0.81821 0.93761 0.98992 0.0
H1174 H 0.80938 0.96283 0.97819 0.0
H1175 H 0.83934 0.9819 0.99214 0.0
H1176 H 0.79603 0.05719 0.96589 0.0
H1177 H 0.86751 0.095 -7e-05 0.0
H1178 H 0.73961 0.98717 0.98117 0.0
H1179 H 0.7637 0.97148 0.97312 0.0
H1180 H 0.75692 0.00107 0.96355 0.0
H1181 H 0.83081 0.03551 0.02366 0.0
H1182 H 0.87212 0.05917 0.01669 0.0
H1183 H 0.8485 0.01502 0.01402 0.0
C1184 C 0.77581 0.84148 0.3218 0.0
C1185 C 0.74236 0.81836 0.31954 0.0
C1186 C 0.79764 0.83155 0.32714 0.0
C1187 C 0.78567 0.79776 0.33016 0.0
C1188 C 0.75202 0.77435 0.32771 0.0
C1189 C 0.73085 0.78493 0.32244 0.0
C1190 C 0.83333 0.85716 0.32969 0.0
C1191 C 0.73826 0.73801 0.33068 0.0
C1192 C 0.83715 0.75625 0.33251 0.0
C1193 C 0.83593 0.74998 0.3473 0.0
C1194 C 0.82317 0.77425 0.32681 0.0
C1195 C 0.8077 0.78631 0.33613 0.0
C1196 C 0.80893 0.78252 0.35115 0.0
C1197 C 0.82294 0.76431 0.35655 0.0
C1198 C 0.82261 0.77799 0.31073 0.0
C1199 C 0.7929 0.79518 0.36147 0.0
H1200 H 0.78476 0.86735 0.31959 0.0
H1201 H 0.70519 0.76687 0.32041 0.0
H1202 H 0.83933 0.85776 0.34125 0.0
H1203 H 0.84971 0.85056 0.32369 0.0
H1204 H 0.83898 0.88226 0.32637 0.0
H1205 H 0.71159 0.723 0.32801 0.0
H1206 H 0.75192 0.72862 0.32434 0.0
H1207 H 0.74155 0.73425 0.34219 0.0
H1208 H 0.84773 0.74578 0.32532 0.0
H1209 H 0.82163 0.75944 0.36798 0.0
H1210 H 0.82891 0.80348 0.30785 0.0
H1211 H 0.79735 0.76104 0.30666 0.0
H1212 H 0.84004 0.77205 0.3052 0.0
H1213 H 0.79913 0.82068 0.35862 0.0
H1214 H 0.80053 0.79499 0.37275 0.0
H1215 H 0.76566 0.77933 0.36079 0.0
C1216 C 0.93207 0.77509 0.64836 0.0
C1217 C 0.90997 0.74821 0.65677 0.0
C1218 C 0.96472 0.79588 0.65293 0.0
C1219 C 0.9752 0.78961 0.66625 0.0
C1220 C 0.95198 0.76442 0.67534 0.0
C1221 C 0.91967 0.74386 0.67044 0.0
C1222 C 0.98867 0.82249 0.64294 0.0
C1223 C 0.96195 0.7572 0.68971 0.0
C1224 C 0.06076 0.80075 0.66955 0.0
C1225 C 0.07717 0.82916 0.67811 0.0
C1226 C 0.02809 0.78863 0.66515 0.0
C1227 C 0.01101 0.80497 0.66955 0.0
C1228 C 0.02754 0.83419 0.67783 0.0
C1229 C 0.06049 0.84599 0.68201 0.0
C1230 C 0.01144 0.7574 0.65627 0.0
C1231 C 0.01009 0.85226 0.68271 0.0
H1232 H 0.92459 0.77836 0.63775 0.0
H1233 H 0.9024 0.72323 0.67699 0.0
H1234 H 0.00509 0.84546 0.64893 0.0
H1235 H 0.00454 0.81409 0.63774 0.0
H1236 H 0.97572 0.82822 0.63439 0.0
H1237 H 0.94019 0.74045 0.69634 0.0
H1238 H 0.97708 0.74528 0.68801 0.0
H1239 H 0.97726 0.78038 0.69577 0.0
H1240 H 0.07298 0.78703 0.66674 0.0
H1241 H 0.07303 0.86812 0.68851 0.0
H1242 H 0.00025 0.76133 0.6465 0.0
H1243 H 0.99121 0.73734 0.66256 0.0
H1244 H 0.02884 0.74901 0.65291 0.0
H1245 H 0.99744 0.85638 0.67354 0.0
H1246 H 0.02732 0.87646 0.6877 0.0
H1247 H 0.99084 0.83698 0.69069 0.0
C1248 C 0.65733 0.1823 0.99292 0.0
C1249 C 0.67759 0.20868 0.98382 0.0
C1250 C 0.62973 0.18075 0.99966 0.0
C1251 C 0.62223 0.20616 0.99721 0.0
C1252 C 0.6424 0.23267 0.98795 0.0
C1253 C 0.66985 0.23364 0.98139 0.0
C1254 C 0.60873 0.15208 0.00946 0.0
C1255 C 0.63524 0.26028 0.9851 0.0
C1256 C 0.53614 0.19191 0.00435 0.0
C1257 C 0.5406 0.20835 0.01747 0.0
C1258 C 0.56231 0.19029 0.99779 0.0
C1259 C 0.59365 0.20548 0.00452 0.0
C1260 C 0.59808 0.22139 0.01793 0.0
C1261 C 0.5715 0.22264 0.02424 0.0
C1262 C 0.55668 0.17319 0.98346 0.0
C1263 C 0.6311 0.23773 0.02547 0.0
H1264 H 0.66295 0.16274 0.99471 0.0
H1265 H 0.68568 0.25437 0.97457 0.0
H1266 H 0.60863 0.16127 0.02043 0.0
H1267 H 0.5828 0.13896 0.00562 0.0
H1268 H 0.61768 0.13414 0.0101 0.0
H1269 H 0.65287 0.27867 0.97733 0.0
H1270 H 0.60984 0.25007 0.98081 0.0
H1271 H 0.63654 0.27317 0.99528 0.0
H1272 H 0.51242 0.18113 0.99899 0.0
H1273 H 0.57494 0.23497 0.03448 0.0
H1274 H 0.56442 0.15433 0.98395 0.0
H1275 H 0.57201 0.19141 0.97514 0.0
H1276 H 0.53041 0.161 0.98006 0.0
H1277 H 0.63982 0.2198 0.02693 0.0
H1278 H 0.63007 0.24779 0.03614 0.0
H1279 H 0.64971 0.25824 0.01878 0.0
C1280 C 0.34771 0.54045 0.34299 0.0
C1281 C 0.32003 0.54287 0.34683 0.0
C1282 C 0.37538 0.5672 0.33666 0.0
C1283 C 0.37509 0.59685 0.33396 0.0
C1284 C 0.34707 0.5993 0.33772 0.0
C1285 C 0.31993 0.57232 0.3442 0.0
C1286 C 0.40501 0.56386 0.33296 0.0
C1287 C 0.34568 0.63037 0.33484 0.0
C1288 C 0.45593 0.67729 0.32957 0.0
C1289 C 0.45839 0.68084 0.31459 0.0
C1290 C 0.42925 0.64978 0.33601 0.0
C1291 C 0.40415 0.62543 0.32726 0.0
C1292 C 0.40646 0.62873 0.31214 0.0
C1293 C 0.43365 0.65628 0.30598 0.0
C1294 C 0.42772 0.64697 0.35217 0.0
C1295 C 0.38002 0.60333 0.30248 0.0
H1296 H 0.34788 0.51776 0.34514 0.0
H1297 H 0.29835 0.57405 0.34702 0.0
H1298 H 0.41031 0.56799 0.3213 0.0
H1299 H 0.42711 0.58297 0.33872 0.0
H1300 H 0.40132 0.53917 0.33581 0.0
H1301 H 0.32187 0.6281 0.33826 0.0
H1302 H 0.36604 0.65152 0.3406 0.0
H1303 H 0.34918 0.63625 0.32321 0.0
H1304 H 0.47459 0.69636 0.33633 0.0
H1305 H 0.43559 0.65849 0.2944 0.0
H1306 H 0.42528 0.62308 0.3555 0.0
H1307 H 0.40561 0.64741 0.3562 0.0
H1308 H 0.44996 0.6673 0.35741 0.0
H1309 H 0.37734 0.57871 0.30442 0.0
H1310 H 0.38553 0.60953 0.29092 0.0
H1311 H 0.35588 0.60132 0.30498 0.0
C1312 C 0.7636 0.33794 0.69118 0.0
C1313 C 0.78329 0.32571 0.68573 0.0
C1314 C 0.76423 0.36557 0.68498 0.0
C1315 C 0.78449 0.38078 0.67286 0.0
C1316 C 0.80465 0.36864 0.66739 0.0
C1317 C 0.80405 0.34139 0.674 0.0
C1318 C 0.7429 0.37822 0.69129 0.0
C1319 C 0.82608 0.38381 0.65432 0.0
C1320 C 0.75799 0.42846 0.64859 0.0
C1321 C 0.78035 0.46112 0.65247 0.0
C1322 C 0.75957 0.40209 0.65492 0.0
C1323 C 0.78364 0.40862 0.6656 0.0
C1324 C 0.80631 0.44163 0.66954 0.0
C1325 C 0.80461 0.46757 0.6628 0.0
C1326 C 0.7354 0.36725 0.65023 0.0
C1327 C 0.83187 0.44949 0.68108 0.0
H1328 H 0.74772 0.32584 0.70032 0.0
H1329 H 0.81903 0.33165 0.66973 0.0
H1330 H 0.75816 0.40492 0.69378 0.0
H1331 H 0.724 0.37545 0.68336 0.0
H1332 H 0.73013 0.36486 0.70125 0.0
H1333 H 0.84084 0.37191 0.65162 0.0
H1334 H 0.81037 0.38147 0.64496 0.0
H1335 H 0.84318 0.41055 0.65608 0.0
H1336 H 0.73941 0.4236 0.64051 0.0
H1337 H 0.8217 0.49289 0.66585 0.0
H1338 H 0.71955 0.35301 0.65941 0.0
H1339 H 0.74892 0.35462 0.64669 0.0
H1340 H 0.71928 0.36653 0.64131 0.0
H1341 H 0.81945 0.43794 0.69136 0.0
H1342 H 0.84784 0.47649 0.6828 0.0
H1343 H 0.84775 0.43898 0.67821 0.0
C1344 C 0.32312 0.7818 0.99559 0.0
C1345 C 0.31501 0.77079 0.98138 0.0
C1346 C 0.34995 0.78216 0.0025 0.0
C1347 C 0.36921 0.77146 0.99498 0.0
C1348 C 0.36136 0.76068 0.98057 0.0
C1349 C 0.33425 0.76036 0.97396 0.0
C1350 C 0.35742 0.79356 0.01791 0.0
C1351 C 0.38151 0.74937 0.97217 0.0
C1352 C 0.45577 0.79862 0.00836 0.0
C1353 C 0.45108 0.77014 0.01544 0.0
C1354 C 0.4293 0.79945 0.00168 0.0
C1355 C 0.39738 0.7712 0.00222 0.0
C1356 C 0.39243 0.74251 0.00951 0.0
C1357 C 0.4194 0.74229 0.01598 0.0
C1358 C 0.43557 0.83037 0.99389 0.0
C1359 C 0.35868 0.71204 0.01043 0.0
H1360 H 0.30803 0.78948 0.00141 0.0
H1361 H 0.32823 0.75215 0.96292 0.0
H1362 H 0.35569 0.77333 0.02475 0.0
H1363 H 0.38305 0.81455 0.01883 0.0
H1364 H 0.34024 0.80141 0.02219 0.0
H1365 H 0.37251 0.74233 0.96098 0.0
H1366 H 0.40775 0.76929 0.97186 0.0
H1367 H 0.38069 0.72781 0.97755 0.0
H1368 H 0.48032 0.82007 0.00778 0.0
H1369 H 0.41568 0.72036 0.02159 0.0
H1370 H 0.41979 0.83963 0.99843 0.0
H1371 H 0.42885 0.82471 0.9824 0.0
H1372 H 0.46179 0.85033 0.9946 0.0
H1373 H 0.34095 0.71827 0.01544 0.0
H1374 H 0.35889 0.69203 0.01678 0.0
H1375 H 0.3494 0.70256 0.9995 0.0
C1376 C 0.54962 0.32571 0.33159 0.0
C1377 C 0.54258 0.32431 0.31689 0.0
C1378 C 0.57695 0.35341 0.33756 0.0
C1379 C 0.59781 0.38032 0.32861 0.0
C1380 C 0.5906 0.37927 0.31379 0.0
C1381 C 0.56299 0.35127 0.30811 0.0
C1382 C 0.58371 0.35372 0.35343 0.0
C1383 C 0.61243 0.40741 0.3039 0.0
C1384 C 0.65437 0.46259 0.34661 0.0
C1385 C 0.68395 0.46193 0.34756 0.0
C1386 C 0.62618 0.43636 0.3403 0.0
C1387 C 0.62778 0.40904 0.33471 0.0
C1388 C 0.6578 0.40862 0.33537 0.0
C1389 C 0.68549 0.43502 0.34184 0.0
C1390 C 0.59451 0.43755 0.33988 0.0
C1391 C 0.66057 0.38008 0.32939 0.0
H1392 H 0.53363 0.30511 0.33845 0.0
H1393 H 0.55781 0.35015 0.29672 0.0
H1394 H 0.60797 0.35533 0.35509 0.0
H1395 H 0.58505 0.37579 0.35854 0.0
H1396 H 0.56445 0.3313 0.35899 0.0
H1397 H 0.60278 0.40322 0.29274 0.0
H1398 H 0.61475 0.43081 0.30792 0.0
H1399 H 0.63761 0.41067 0.30371 0.0
H1400 H 0.65306 0.48327 0.35113 0.0
H1401 H 0.70848 0.43468 0.34238 0.0
H1402 H 0.5752 0.41674 0.34621 0.0
H1403 H 0.58536 0.4346 0.32869 0.0
H1404 H 0.59766 0.46104 0.34426 0.0
H1405 H 0.64356 0.35708 0.33524 0.0
H1406 H 0.68604 0.38415 0.33026 0.0
H1407 H 0.65309 0.3761 0.31794 0.0
C1408 C 0.24333 0.5643 0.65564 0.0
C1409 C 0.21363 0.5361 0.65181 0.0
C1410 C 0.24345 0.59146 0.66208 0.0
C1411 C 0.21312 0.59047 0.6646 0.0
C1412 C 0.18302 0.56198 0.66082 0.0
C1413 C 0.18363 0.53501 0.65453 0.0
C1414 C 0.27603 0.62125 0.66612 0.0
C1415 C 0.15024 0.5602 0.66321 0.0
C1416 C 0.21217 0.65057 0.69176 0.0
C1417 C 0.21518 0.67606 0.68283 0.0
C1418 C 0.21125 0.62241 0.68597 0.0
C1419 C 0.21305 0.61962 0.6709 0.0
C1420 C 0.21558 0.64507 0.66184 0.0
C1421 C 0.21677 0.67307 0.66792 0.0
C1422 C 0.20891 0.59592 0.69598 0.0
C1423 C 0.21722 0.64282 0.64572 0.0
H1424 H 0.26653 0.56499 0.65373 0.0
H1425 H 0.16065 0.5133 0.65147 0.0
H1426 H 0.27943 0.64321 0.66011 0.0
H1427 H 0.27617 0.62671 0.67772 0.0
H1428 H 0.29734 0.61767 0.66382 0.0
H1429 H 0.12905 0.53607 0.65986 0.0
H1430 H 0.14727 0.56421 0.67472 0.0
H1431 H 0.1494 0.5801 0.65708 0.0
H1432 H 0.21124 0.65298 0.7033 0.0
H1433 H 0.21867 0.69257 0.661 0.0
H1434 H 0.23095 0.5931 0.69465 0.0
H1435 H 0.18697 0.57183 0.69326 0.0
H1436 H 0.20715 0.60159 0.70741 0.0
H1437 H 0.23947 0.64152 0.64267 0.0
H1438 H 0.21811 0.66428 0.64017 0.0
H1439 H 0.1954 0.6199 0.64178 0.0
C1440 C 0.35937 0.18462 0.13625 0.0
C1441 C 0.38786 0.20856 0.12919 0.0
C1442 C 0.35913 0.18019 0.15116 0.0
C1443 C 0.38799 0.20039 0.15922 0.0
C1444 C 0.41664 0.225 0.15222 0.0
C1445 C 0.41628 0.2287 0.13728 0.0
C1446 C 0.32812 0.15364 0.15825 0.0
C1447 C 0.44784 0.24711 0.16048 0.0
C1448 C 0.37939 0.20735 0.19942 0.0
C1449 C 0.38947 0.1858 0.2048 0.0
C1450 C 0.37887 0.21243 0.1846 0.0
C1451 C 0.38841 0.19533 0.17495 0.0
C1452 C 0.39843 0.17338 0.18033 0.0
C1453 C 0.39897 0.16899 0.1952 0.0
C1454 C 0.36836 0.23627 0.17926 0.0
C1455 C 0.40847 0.15446 0.17036 0.0
H1456 H 0.33715 0.16932 0.13012 0.0
H1457 H 0.43854 0.24694 0.1319 0.0
H1458 H 0.33329 0.13557 0.16366 0.0
H1459 H 0.31977 0.16468 0.16664 0.0
H1460 H 0.30767 0.1402 0.15046 0.0
H1461 H 0.46758 0.2659 0.15351 0.0
H1462 H 0.44256 0.25999 0.16918 0.0
H1463 H 0.45724 0.23202 0.16562 0.0
H1464 H 0.37241 0.22068 0.20683 0.0
H1465 H 0.40644 0.15204 0.19933 0.0
H1466 H 0.3468 0.22337 0.17199 0.0
H1467 H 0.38863 0.25626 0.17296 0.0
H1468 H 0.36166 0.2476 0.18818 0.0
H1469 H 0.38787 0.13905 0.16294 0.0
H1470 H 0.4154 0.13818 0.17627 0.0
H1471 H 0.42976 0.1719 0.16369 0.0
C1472 C 0.21698 0.40731 0.46791 0.0
C1473 C 0.18613 0.38721 0.46146 0.0
C1474 C 0.22101 0.40704 0.48283 0.0
C1475 C 0.19352 0.38623 0.49151 0.0
C1476 C 0.16236 0.36574 0.48507 0.0
C1477 C 0.15905 0.36645 0.47013 0.0
C1478 C 0.25462 0.42927 0.48931 0.0
C1479 C 0.13249 0.3432 0.49399 0.0
C1480 C 0.20918 0.36477 0.52893 0.0
C1481 C 0.20424 0.38663 0.53746 0.0
C1482 C 0.20579 0.36436 0.51395 0.0
C1483 C 0.19724 0.38634 0.50736 0.0
C1484 C 0.19229 0.40851 0.5159 0.0
C1485 C 0.19588 0.40841 0.53085 0.0
C1486 C 0.21123 0.34035 0.50517 0.0
C1487 C 0.18327 0.43239 0.50926 0.0
H1488 H 0.23791 0.42375 0.46131 0.0
H1489 H 0.13526 0.35051 0.4652 0.0
H1490 H 0.25332 0.447 0.49681 0.0
H1491 H 0.26266 0.41442 0.49562 0.0
H1492 H 0.27364 0.44341 0.48103 0.0
H1493 H 0.1101 0.32855 0.48732 0.0
H1494 H 0.1374 0.32593 0.50026 0.0
H1495 H 0.12733 0.35795 0.50181 0.0
H1496 H 0.21525 0.34761 0.53399 0.0
H1497 H 0.19252 0.42571 0.53736 0.0
H1498 H 0.23122 0.35396 0.49723 0.0
H1499 H 0.18852 0.32373 0.49906 0.0
H1500 H 0.21794 0.32502 0.51194 0.0
H1501 H 0.20272 0.44882 0.50158 0.0
H1502 H 0.18013 0.44793 0.51742 0.0
H1503 H 0.15993 0.41865 0.5031 0.0
C1504 C 0.81502 0.22622 0.8624 0.0
C1505 C 0.82493 0.20762 0.87065 0.0
C1506 C 0.81044 0.22143 0.84752 0.0
C1507 C 0.8162 0.19768 0.84074 0.0
C1508 C 0.82654 0.17907 0.849 0.0
C1509 C 0.83064 0.18416 0.86388 0.0
C1510 C 0.79907 0.2415 0.83909 0.0
C1511 C 0.83327 0.15379 0.84212 0.0
C1512 C 0.77544 0.16339 0.80472 0.0
C1513 C 0.8012 0.18233 0.79511 0.0
C1514 C 0.77998 0.16814 0.8196 0.0
C1515 C 0.81115 0.19214 0.82502 0.0
C1516 C 0.83737 0.21108 0.81542 0.0
C1517 C 0.83204 0.20608 0.80058 0.0
C1518 C 0.75138 0.14757 0.82951 0.0
C1519 C 0.871 0.2368 0.82081 0.0
H1520 H 0.81021 0.24408 0.86763 0.0
H1521 H 0.83862 0.17 0.87022 0.0
H1522 H 0.8172 0.25565 0.83054 0.0
H1523 H 0.77522 0.22481 0.83374 0.0
H1524 H 0.79585 0.25908 0.84598 0.0
H1525 H 0.84163 0.14173 0.85003 0.0
H1526 H 0.81062 0.13446 0.83677 0.0
H1527 H 0.85251 0.1657 0.83371 0.0
H1528 H 0.7517 0.14465 0.80061 0.0
H1529 H 0.85194 0.22121 0.79326 0.0
H1530 H 0.74587 0.1639 0.83617 0.0
H1531 H 0.75798 0.13326 0.83695 0.0
H1532 H 0.72867 0.13009 0.82357 0.0
H1533 H 0.869 0.25618 0.82684 0.0
H1534 H 0.88906 0.24874 0.81196 0.0
H1535 H 0.88076 0.22537 0.82835 0.0
C1536 C 0.58392 0.79069 0.13535 0.0
C1537 C 0.61132 0.79359 0.12789 0.0
C1538 C 0.58522 0.79615 0.1502 0.0
C1539 C 0.61476 0.80508 0.15776 0.0
C1540 C 0.6426 0.80831 0.15032 0.0
C1541 C 0.6405 0.80237 0.13549 0.0
C1542 C 0.55497 0.79233 0.15779 0.0
C1543 C 0.67457 0.81793 0.15803 0.0
C1544 C 0.62637 0.84721 0.19386 0.0
C1545 C 0.61799 0.821 0.20339 0.0
C1546 C 0.62585 0.84249 0.17897 0.0
C1547 C 0.61638 0.81072 0.17351 0.0
C1548 C 0.60798 0.78419 0.18309 0.0
C1549 C 0.60903 0.78969 0.19793 0.0
C1550 C 0.63533 0.87145 0.16908 0.0
C1551 C 0.59742 0.74988 0.17767 0.0
H1552 H 0.56147 0.78449 0.12954 0.0
H1553 H 0.66164 0.80421 0.12987 0.0
H1554 H 0.54737 0.77347 0.16638 0.0
H1555 H 0.56072 0.81593 0.16301 0.0
H1556 H 0.53381 0.78489 0.15037 0.0
H1557 H 0.6942 0.82021 0.15061 0.0
H1558 H 0.6835 0.84185 0.16364 0.0
H1559 H 0.67043 0.79923 0.16633 0.0
H1560 H 0.63362 0.87151 0.19808 0.0
H1561 H 0.60214 0.76928 0.20528 0.0
H1562 H 0.61425 0.86636 0.16198 0.0
H1563 H 0.65608 0.87516 0.16206 0.0
H1564 H 0.64279 0.8947 0.17505 0.0
H1565 H 0.57498 0.74084 0.17092 0.0
H1566 H 0.59204 0.73203 0.18654 0.0
H1567 H 0.61705 0.75039 0.1708 0.0
C1568 C 0.80198 0.64121 0.53111 0.0
C1569 C 0.79553 0.61302 0.53898 0.0
C1570 C 0.80672 0.64258 0.5162 0.0
C1571 C 0.80478 0.61505 0.50897 0.0
C1572 C 0.79842 0.58658 0.51685 0.0
C1573 C 0.79398 0.58596 0.53176 0.0
C1574 C 0.81352 0.67339 0.50815 0.0
C1575 C 0.79619 0.55673 0.50952 0.0
C1576 C 0.78581 0.60492 0.46907 0.0
C1577 C 0.81712 0.61563 0.46314 0.0
C1578 C 0.78148 0.60482 0.48397 0.0
C1579 C 0.80915 0.61584 0.49315 0.0
C1580 C 0.84088 0.62706 0.48722 0.0
C1581 C 0.84447 0.62673 0.47228 0.0
C1582 C 0.74722 0.59247 0.48991 0.0
C1583 C 0.871 0.63923 0.49667 0.0
H1584 H 0.80279 0.66205 0.53658 0.0
H1585 H 0.78953 0.5643 0.53779 0.0
H1586 H 0.83711 0.68337 0.50216 0.0
H1587 H 0.79373 0.66734 0.50014 0.0
H1588 H 0.81501 0.69294 0.5154 0.0
H1589 H 0.79098 0.53651 0.51719 0.0
H1590 H 0.77637 0.54721 0.5013 0.0
H1591 H 0.81968 0.56373 0.50387 0.0
H1592 H 0.76455 0.59595 0.46205 0.0
H1593 H 0.86878 0.63542 0.46773 0.0
H1594 H 0.74682 0.6118 0.49666 0.0
H1595 H 0.74013 0.5707 0.49688 0.0
H1596 H 0.72841 0.58535 0.4813 0.0
H1597 H 0.8738 0.65996 0.50346 0.0
H1598 H 0.89401 0.64771 0.49035 0.0
H1599 H 0.868 0.61921 0.504 0.0
C1600 C 0.18781 0.77887 0.86099 0.0
C1601 C 0.17564 0.79553 0.86926 0.0
C1602 C 0.19244 0.78406 0.84614 0.0
C1603 C 0.18472 0.80647 0.83939 0.0
C1604 C 0.17242 0.82337 0.84766 0.0
C1605 C 0.16804 0.81771 0.8625 0.0
C1606 C 0.20573 0.76567 0.83769 0.0
C1607 C 0.16381 0.84736 0.84081 0.0
C1608 C 0.22471 0.8414 0.80329 0.0
C1609 C 0.19931 0.82139 0.79374 0.0
C1610 C 0.22017 0.83708 0.81819 0.0
C1611 C 0.1895 0.81214 0.82365 0.0
C1612 C 0.16364 0.79211 0.81408 0.0
C1613 C 0.16886 0.79697 0.79923 0.0
C1614 C 0.24829 0.85901 0.82808 0.0
C1615 C 0.13063 0.76517 0.8195 0.0
H1616 H 0.19421 0.76208 0.86619 0.0
H1617 H 0.15827 0.83037 0.86881 0.0
H1618 H 0.18802 0.75079 0.82912 0.0
H1619 H 0.2292 0.78348 0.83236 0.0
H1620 H 0.21033 0.74896 0.84455 0.0
H1621 H 0.15469 0.85866 0.84876 0.0
H1622 H 0.18581 0.86737 0.83534 0.0
H1623 H 0.14451 0.83455 0.83251 0.0
H1624 H 0.24815 0.86059 0.79911 0.0
H1625 H 0.14927 0.78113 0.7919 0.0
H1626 H 0.25545 0.84378 0.83464 0.0
H1627 H 0.24034 0.87205 0.83562 0.0
H1628 H 0.27037 0.87767 0.82212 0.0
H1629 H 0.13394 0.74661 0.82556 0.0
H1630 H 0.11276 0.75242 0.81066 0.0
H1631 H 0.11986 0.77566 0.82702 0.0
C1632 C 0.52048 0.57035 0.02388 0.0
C1633 C 0.54989 0.58714 0.03179 0.0
C1634 C 0.50314 0.53576 0.02298 0.0
C1635 C 0.51543 0.51754 0.03022 0.0
C1636 C 0.54557 0.53435 0.03788 0.0
C1637 C 0.56245 0.56894 0.03856 0.0
C1638 C 0.47112 0.51871 0.01469 0.0
C1639 C 0.55953 0.51574 0.04569 0.0
C1640 C 0.45631 0.42965 0.04209 0.0
C1641 C 0.46269 0.41131 0.032 0.0
C1642 C 0.47277 0.46423 0.04143 0.0
C1643 C 0.49608 0.48085 0.03037 0.0
C1644 C 0.5018 0.46243 0.01987 0.0
C1645 C 0.48508 0.42786 0.02082 0.0
C1646 C 0.46604 0.48303 0.05285 0.0
C1647 C 0.5262 0.47928 0.00784 0.0
H1648 H 0.51035 0.58419 0.01879 0.0
H1649 H 0.58536 0.58179 0.04453 0.0
H1650 H 0.47156 0.50106 0.00686 0.0
H1651 H 0.45032 0.50427 0.02217 0.0
H1652 H 0.46618 0.53647 0.00882 0.0
H1653 H 0.58389 0.53252 0.05066 0.0
H1654 H 0.54218 0.50024 0.05424 0.0
H1655 H 0.56237 0.49892 0.03817 0.0
H1656 H 0.43934 0.41701 0.05085 0.0
H1657 H 0.48977 0.41373 0.0129 0.0
H1658 H 0.45898 0.50011 0.04782 0.0
H1659 H 0.48881 0.49829 0.05919 0.0
H1660 H 0.44606 0.46639 0.06031 0.0
H1661 H 0.52026 0.4963 0.00197 0.0
H1662 H 0.52641 0.46135 7e-05 0.0
H1663 H 0.5514 0.49438 0.01233 0.0
C1664 C 0.94743 0.51585 0.38535 0.0
C1665 C 0.96106 0.54624 0.37818 0.0
C1666 C 0.96278 0.4967 0.3849 0.0
C1667 C 0.99262 0.50835 0.37719 0.0
C1668 C 0.00661 0.53909 0.36997 0.0
C1669 C 0.99051 0.55761 0.37047 0.0
C1670 C 0.94692 0.46388 0.3926 0.0
C1671 C 0.03861 0.55244 0.36176 0.0
C1672 C 0.04769 0.47335 0.38713 0.0
C1673 C 0.04099 0.45065 0.37602 0.0
C1674 C 0.03222 0.49241 0.38761 0.0
C1675 C 0.00928 0.48839 0.37678 0.0
C1676 C 0.00208 0.46517 0.36563 0.0
C1677 C 0.01823 0.4467 0.36533 0.0
C1678 C 0.04077 0.51715 0.39958 0.0
C1679 C 0.97742 0.45993 0.354 0.0
H1680 H 0.92432 0.50673 0.3911 0.0
H1681 H 0.0011 0.58115 0.36496 0.0
H1682 H 0.9417 0.4438 0.38487 0.0
H1683 H 0.9641 0.4638 0.40079 0.0
H1684 H 0.92348 0.45825 0.39799 0.0
H1685 H 0.04634 0.57688 0.35684 0.0
H1686 H 0.05851 0.55492 0.36904 0.0
H1687 H 0.036 0.53494 0.35314 0.0
H1688 H 0.06575 0.47685 0.39527 0.0
H1689 H 0.01302 0.42909 0.35675 0.0
H1690 H 0.01822 0.51146 0.40573 0.0
H1691 H 0.05073 0.54229 0.39503 0.0
H1692 H 0.05929 0.51737 0.40712 0.0
H1693 H 0.95308 0.45275 0.35886 0.0
H1694 H 0.97423 0.44053 0.34623 0.0
H1695 H 0.98556 0.4833 0.34805 0.0
C1696 C 0.56712 0.03241 0.71494 0.0
C1697 C 0.58614 0.04576 0.70249 0.0
C1698 C 0.53252 0.01439 0.7143 0.0
C1699 C 0.51648 0.00991 0.70093 0.0
C1700 C 0.53544 0.02316 0.68831 0.0
C1701 C 0.57004 0.04076 0.68923 0.0
C1702 C 0.51313 0.00042 0.72799 0.0
C1703 C 0.51917 0.01895 0.67386 0.0
C1704 C 0.4283 0.93906 0.69797 0.0
C1705 C 0.41016 0.95515 0.70019 0.0
C1706 C 0.46291 0.95666 0.69798 0.0
C1707 C 0.4798 0.99122 0.70018 0.0
C1708 C 0.46164 0.00773 0.70214 0.0
C1709 C 0.42698 0.98944 0.70222 0.0
C1710 C 0.4814 0.93813 0.69602 0.0
C1711 C 0.47882 0.04463 0.70435 0.0
H1712 H 0.57923 0.03663 0.72527 0.0
H1713 H 0.5845 0.05059 0.67953 0.0
H1714 H 0.49714 0.01127 0.72999 0.0
H1715 H 0.4967 0.97333 0.72693 0.0
H1716 H 0.52937 0.00536 0.73746 0.0
H1717 H 0.53745 0.03104 0.66509 0.0
H1718 H 0.50364 0.99232 0.67131 0.0
H1719 H 0.50263 0.02958 0.67413 0.0
H1720 H 0.41537 0.91248 0.69662 0.0
H1721 H 0.413 0.00194 0.70384 0.0
H1722 H 0.49613 0.9408 0.70578 0.0
H1723 H 0.49895 0.9487 0.68692 0.0
H1724 H 0.46458 0.91141 0.69396 0.0
H1725 H 0.49367 0.05136 0.71435 0.0
H1726 H 0.46113 0.05387 0.7051 0.0
H1727 H 0.49613 0.05746 0.69536 0.0
C1728 C 0.56654 0.51131 0.63992 0.0
C1729 C 0.58253 0.54085 0.63206 0.0
C1730 C 0.53197 0.49302 0.64083 0.0
C1731 C 0.51295 0.5045 0.63367 0.0
C1732 C 0.52893 0.53456 0.62592 0.0
C1733 C 0.56353 0.55238 0.62522 0.0
C1734 C 0.5158 0.46107 0.64918 0.0
C1735 C 0.50946 0.54767 0.6182 0.0
C1736 C 0.42439 0.44472 0.62284 0.0
C1737 C 0.40667 0.45142 0.63313 0.0
C1738 C 0.45902 0.46116 0.62313 0.0
C1739 C 0.47628 0.4848 0.63399 0.0
C1740 C 0.45849 0.49071 0.64474 0.0
C1741 C 0.42388 0.47396 0.64418 0.0
C1742 C 0.47716 0.45417 0.61148 0.0
C1743 C 0.47602 0.5155 0.65657 0.0
H1744 H 0.58103 0.50198 0.64505 0.0
H1745 H 0.57576 0.57536 0.61927 0.0
H1746 H 0.49881 0.46153 0.65737 0.0
H1747 H 0.50075 0.44016 0.64185 0.0
H1748 H 0.53412 0.45632 0.65465 0.0
H1749 H 0.52565 0.57175 0.61289 0.0
H1750 H 0.49342 0.52969 0.60994 0.0
H1751 H 0.49309 0.55079 0.62588 0.0
H1752 H 0.41125 0.42761 0.61419 0.0
H1753 H 0.41024 0.47888 0.65227 0.0
H1754 H 0.49497 0.44782 0.61629 0.0
H1755 H 0.49155 0.47663 0.60485 0.0
H1756 H 0.46011 0.43364 0.60434 0.0
H1757 H 0.49365 0.50999 0.66217 0.0
H1758 H 0.45857 0.51573 0.6646 0.0
H1759 H 0.49056 0.5406 0.6519 0.0
C1760 C 0.00445 0.56785 0.95535 0.0
C1761 C 0.03159 0.58798 0.96407 0.0
C1762 C 0.98856 0.53335 0.95644 0.0
C1763 C 0.00053 0.51872 0.96629 0.0
C1764 C 0.0273 0.53898 0.97543 0.0
C1765 C 0.04239 0.57343 0.97427 0.0
C1766 C 0.95968 0.51255 0.94669 0.0
C1767 C 0.04102 0.52432 0.98593 0.0
C1768 C 0.94518 0.42768 0.97471 0.0
C1769 C 0.95658 0.41306 0.96482 0.0
C1770 C 0.95962 0.46213 0.97552 0.0
C1771 C 0.98634 0.48232 0.96634 0.0
C1772 C 0.99871 0.46766 0.95672 0.0
C1773 C 0.98348 0.43316 0.95599 0.0
C1774 C 0.9455 0.47686 0.98578 0.0
C1775 C 0.02754 0.48839 0.94693 0.0
H1776 H 0.99603 0.57916 0.94752 0.0
H1777 H 0.06368 0.58901 0.98089 0.0
H1778 H 0.96654 0.49889 0.93899 0.0
H1779 H 0.93842 0.49397 0.95305 0.0
H1780 H 0.95171 0.52767 0.94051 0.0
H1781 H 0.06037 0.54335 0.99296 0.0
H1782 H 0.02101 0.5056 0.99278 0.0
H1783 H 0.05192 0.51153 0.97996 0.0
H1784 H 0.92409 0.4121 0.98142 0.0
H1785 H 0.99238 0.42181 0.9484 0.0
H1786 H 0.93488 0.48966 0.97963 0.0
H1787 H 0.96526 0.49558 0.99272 0.0
H1788 H 0.92587 0.45786 0.99272 0.0
H1789 H 0.02069 0.50205 0.93923 0.0
H1790 H 0.03549 0.47325 0.94076 0.0
H1791 H 0.04883 0.50698 0.95328 0.0
C1792 C 0.53031 0.95594 0.30697 0.0
C1793 C 0.55487 0.96478 0.29648 0.0
C1794 C 0.51199 0.97216 0.30792 0.0
C1795 C 0.51825 0.99771 0.2981 0.0
C1796 C 0.54347 0.00726 0.28769 0.0
C1797 C 0.56154 0.99073 0.28703 0.0
C1798 C 0.48539 0.96141 0.31921 0.0
C1799 C 0.5509 0.03445 0.27704 0.0
C1800 C 0.45053 0.01754 0.28989 0.0
C1801 C 0.46098 0.04669 0.29775 0.0
C1802 C 0.46868 0.00106 0.29008 0.0
C1803 C 0.49786 0.01392 0.29842 0.0
C1804 C 0.50807 0.0428 0.30668 0.0
C1805 C 0.48961 0.05893 0.3062 0.0
C1806 C 0.45702 0.97028 0.28113 0.0
C1807 C 0.53893 0.05713 0.31576 0.0
H1808 H 0.52463 0.93556 0.31416 0.0
H1809 H 0.58074 0.99795 0.27901 0.0
H1810 H 0.48925 0.98293 0.32571 0.0
H1811 H 0.46091 0.95118 0.31396 0.0
H1812 H 0.48482 0.94237 0.32652 0.0
H1813 H 0.57187 0.03948 0.26986 0.0
H1814 H 0.52878 0.02759 0.27032 0.0
H1815 H 0.55685 0.05756 0.28278 0.0
H1816 H 0.42822 0.00768 0.2835 0.0
H1817 H 0.49821 0.08173 0.31212 0.0
H1818 H 0.45369 0.94945 0.28799 0.0
H1819 H 0.47596 0.97438 0.27295 0.0
H1820 H 0.43336 0.963 0.27554 0.0
H1821 H 0.53791 0.03808 0.32318 0.0
H1822 H 0.54246 0.07867 0.32219 0.0
H1823 H 0.56084 0.0651 0.30877 0.0
loop_
_geom_bond_atom_site_label_1
_geom_bond_atom_site_label_2
_geom_bond_distance
_geom_bond_site_symmetry_2
_ccdc_geom_bond_type
Li0 N17 1.990 . S
Li0 O60 1.956 . S
Li0 O61 1.970 . S
Li0 O62 1.961 . S
Li1 N25 1.990 . S
Li1 O60 1.970 . S
Li1 O61 1.956 . S
Li1 O63 1.961 . S
Li2 N47 1.990 . S
Li2 O60 1.961 . S
Li2 O62 1.956 . S
Li2 O63 1.970 . S
Li3 N53 1.990 . S
Li3 O61 1.961 . S
Li3 O62 1.970 . S
Li3 O63 1.956 . S
C4 C6 1.348 . S
C4 C7 1.356 . S
C4 O60 1.325 . S
N5 C8 1.314 . S
N5 C9 1.279 . S
C6 C4 1.348 . S
C6 C8 1.353 . S
C6 H64 0.929 . S
C7 C4 1.356 . S
C7 C9 1.358 . S
C7 H65 0.930 . S
C8 N5 1.314 . S
C8 C6 1.353 . S
C8 H66 0.930 . S
C9 N5 1.279 . S
C9 C7 1.358 . S
C9 H67 0.930 . S
C10 C13 1.348 . S
C10 C14 1.356 . S
C10 O61 1.325 . S
C11 N12 1.279 . S
C11 C14 1.358 . S
C11 H68 0.930 . S
N12 C11 1.279 . S
N12 C15 1.314 . S
C13 C10 1.348 . S
C13 C15 1.353 . S
C13 H69 0.929 . S
C14 C10 1.356 . S
C14 C11 1.358 . S
C14 H70 0.930 . S
C15 N12 1.314 . S
C15 C13 1.353 . S
C15 H71 0.930 . S
C16 N17 1.314 . S
C16 C21 1.353 . S
C16 H22 0.930 . S
N17 Li0 1.990 . S
N17 C16 1.314 . S
N17 C19 1.279 . S
C18 C19 1.358 . S
C18 C20 1.356 . S
C18 H72 0.930 . S
C19 N17 1.279 . S
C19 C18 1.358 . S
C19 H23 0.930 . S
C20 C18 1.356 . S
C20 C21 1.348 . S
C21 C16 1.353 . S
C21 C20 1.348 . S
C21 H73 0.929 . S
H22 C16 0.930 . S
H23 C19 0.930 . S
C24 N25 1.314 . S
C24 C26 1.353 . S
C24 H30 0.930 . S
N25 Li1 1.990 . S
N25 C24 1.314 . S
N25 C28 1.279 . S
C26 C24 1.353 . S
C26 C29 1.348 . S
C26 H74 0.929 1_554 S
C27 C28 1.358 . S
C27 C29 1.356 . S
C27 H75 0.930 . S
C28 N25 1.279 . S
C28 C27 1.358 . S
C28 H31 0.930 . S
C29 C26 1.348 . S
C29 C27 1.356 . S
H30 C24 0.930 . S
H31 C28 0.930 . S
C32 C34 1.348 . S
C32 C35 1.356 . S
C32 O62 1.325 . S
N33 C36 1.314 . S
N33 C37 1.279 . S
C34 C32 1.348 . S
C34 C36 1.353 . S
C34 H76 0.929 . S
C35 C32 1.356 . S
C35 C37 1.358 . S
C35 H77 0.930 . S
C36 N33 1.314 . S
C36 C34 1.353 . S
C36 H78 0.930 . S
C37 N33 1.279 . S
C37 C35 1.358 . S
C37 H79 0.930 . S
C38 C39 1.348 . S
C38 C40 1.356 . S
C38 O63 1.325 . S
C39 C38 1.348 . S
C39 C41 1.353 1_554 S
C39 H80 0.929 . S
C40 C38 1.356 . S
C40 C42 1.358 1_554 S
C40 H81 0.930 . S
C41 C39 1.353 1_556 S
C41 N43 1.314 . S
C41 H82 0.930 . S
C42 C40 1.358 1_556 S
C42 N43 1.279 . S
C42 H83 0.930 . S
N43 C41 1.314 . S
N43 C42 1.279 . S
C44 C46 1.353 . S
C44 N47 1.314 . S
C44 H50 0.930 . S
C45 N47 1.279 . S
C45 C48 1.358 . S
C45 H51 0.930 . S
C46 C44 1.353 . S
C46 C49 1.348 . S
C46 H84 0.929 . S
N47 Li2 1.990 . S
N47 C44 1.314 . S
N47 C45 1.279 . S
C48 C45 1.358 . S
C48 C49 1.356 . S
C48 H85 0.930 . S
C49 C46 1.348 . S
C49 C48 1.356 . S
H50 C44 0.930 . S
H51 C45 0.930 . S
C52 N53 1.314 . S
C52 C54 1.353 . S
C52 H58 0.930 . S
N53 Li3 1.990 . S
N53 C52 1.314 . S
N53 C56 1.279 . S
C54 C52 1.353 . S
C54 C57 1.348 . S
C54 H86 0.929 . S
C55 C56 1.358 . S
C55 C57 1.356 . S
C55 H87 0.930 . S
C56 N53 1.279 . S
C56 C55 1.358 . S
C56 H59 0.930 . S
C57 C54 1.348 . S
C57 C55 1.356 . S
H58 C52 0.930 . S
H59 C56 0.930 . S
O60 Li0 1.956 . S
O60 Li1 1.970 . S
O60 Li2 1.961 . S
O60 C4 1.325 . S
O61 Li0 1.970 . S
O61 Li1 1.956 . S
O61 Li3 1.961 . S
O61 C10 1.325 . S
O62 Li0 1.961 . S
O62 Li2 1.956 . S
O62 Li3 1.970 . S
O62 C32 1.325 . S
O63 Li1 1.961 . S
O63 Li2 1.970 . S
O63 Li3 1.956 . S
O63 C38 1.325 . S
H64 C6 0.929 . S
H65 C7 0.930 . S
H66 C8 0.930 . S
H67 C9 0.930 . S
H68 C11 0.930 . S
H69 C13 0.929 . S
H70 C14 0.930 . S
H71 C15 0.930 . S
H72 C18 0.930 . S
H73 C21 0.929 . S
H74 C26 0.929 1_556 S
H75 C27 0.930 . S
H76 C34 0.929 . S
H77 C35 0.930 . S
H78 C36 0.930 . S
H79 C37 0.930 . S
H80 C39 0.929 . S
H81 C40 0.930 . S
H82 C41 0.930 . S
H83 C42 0.930 . S
H84 C46 0.929 . S
H85 C48 0.930 . S
H86 C54 0.929 . S
H87 C55 0.930 . S
Li88 N105 1.990 . S
Li88 O148 1.956 . S
Li88 O149 1.970 . S
Li88 O150 1.961 . S
Li89 N113 1.990 . S
Li89 O148 1.970 . S
Li89 O149 1.956 . S
Li89 O151 1.961 . S
Li90 N135 1.990 . S
Li90 O148 1.961 . S
Li90 O150 1.956 . S
Li90 O151 1.970 . S
Li91 N141 1.990 . S
Li91 O149 1.961 . S
Li91 O150 1.970 . S
Li91 O151 1.956 . S
C92 C94 1.348 . S
C92 C95 1.356 . S
C92 O148 1.325 . S
N93 C96 1.314 . S
N93 C97 1.279 . S
C94 C92 1.348 . S
C94 C96 1.353 . S
C94 H152 0.929 . S
C95 C92 1.356 . S
C95 C97 1.358 . S
C95 H153 0.930 . S
C96 N93 1.314 . S
C96 C94 1.353 . S
C96 H154 0.930 . S
C97 N93 1.279 . S
C97 C95 1.358 . S
C97 H155 0.930 . S
C98 C101 1.348 . S
C98 C102 1.356 . S
C98 O149 1.325 . S
C99 N100 1.279 . S
C99 C102 1.358 . S
C99 H156 0.930 . S
N100 C99 1.279 . S
N100 C103 1.314 . S
C101 C98 1.348 . S
C101 C103 1.353 . S
C101 H157 0.929 . S
C102 C98 1.356 . S
C102 C99 1.358 . S
C102 H158 0.930 . S
C103 N100 1.314 . S
C103 C101 1.353 . S
C103 H159 0.930 . S
C104 N105 1.314 . S
C104 C109 1.353 . S
C104 H110 0.930 . S
N105 Li88 1.990 . S
N105 C104 1.314 . S
N105 C107 1.279 . S
C106 C107 1.358 . S
C106 C108 1.356 . S
C106 H160 0.930 . S
C107 N105 1.279 . S
C107 C106 1.358 . S
C107 H111 0.930 . S
C108 C106 1.356 . S
C108 C109 1.348 . S
C109 C104 1.353 . S
C109 C108 1.348 . S
C109 H161 0.929 . S
H110 C104 0.930 . S
H111 C107 0.930 . S
C112 N113 1.314 . S
C112 C114 1.353 . S
C112 H118 0.930 . S
N113 Li89 1.990 . S
N113 C112 1.314 . S
N113 C116 1.279 . S
C114 C112 1.353 . S
C114 C117 1.348 . S
C114 H162 0.929 . S
C115 C116 1.358 . S
C115 C117 1.356 . S
C115 H163 0.930 . S
C116 N113 1.279 . S
C116 C115 1.358 . S
C116 H119 0.930 . S
C117 C114 1.348 . S
C117 C115 1.356 . S
H118 C112 0.930 . S
H119 C116 0.930 . S
C120 C122 1.348 . S
C120 C123 1.356 . S
C120 O150 1.325 . S
N121 C124 1.314 . S
N121 C125 1.279 . S
C122 C120 1.348 . S
C122 C124 1.353 . S
C122 H164 0.929 . S
C123 C120 1.356 . S
C123 C125 1.358 . S
C123 H165 0.930 . S
C124 N121 1.314 . S
C124 C122 1.353 . S
C124 H166 0.930 . S
C125 N121 1.279 . S
C125 C123 1.358 . S
C125 H167 0.930 . S
C126 C127 1.348 . S
C126 C128 1.356 . S
C126 O151 1.325 . S
C127 C126 1.348 . S
C127 C129 1.353 . S
C127 H168 0.929 . S
C128 C126 1.356 . S
C128 C130 1.358 . S
C128 H169 0.930 . S
C129 C127 1.353 . S
C129 N131 1.314 . S
C129 H170 0.930 . S
C130 C128 1.358 . S
C130 N131 1.279 . S
C130 H171 0.930 . S
N131 C129 1.314 . S
N131 C130 1.279 . S
C132 C134 1.353 . S
C132 N135 1.314 . S
C132 H138 0.930 . S
C133 N135 1.279 . S
C133 C136 1.358 . S
C133 H139 0.930 . S
C134 C132 1.353 . S
C134 C137 1.348 . S
C134 H172 0.929 . S
N135 Li90 1.990 . S
N135 C132 1.314 . S
N135 C133 1.279 . S
C136 C133 1.358 . S
C136 C137 1.356 . S
C136 H173 0.930 . S
C137 C134 1.348 . S
C137 C136 1.356 . S
H138 C132 0.930 . S
H139 C133 0.930 . S
C140 N141 1.314 . S
C140 C142 1.353 . S
C140 H146 0.930 . S
N141 Li91 1.990 . S
N141 C140 1.314 . S
N141 C144 1.279 . S
C142 C140 1.353 . S
C142 C145 1.348 . S
C142 H174 0.929 . S
C143 C144 1.358 . S
C143 C145 1.356 . S
C143 H175 0.930 . S
C144 N141 1.279 . S
C144 C143 1.358 . S
C144 H147 0.930 . S
C145 C142 1.348 . S
C145 C143 1.356 . S
H146 C140 0.930 . S
H147 C144 0.930 . S
O148 Li88 1.956 . S
O148 Li89 1.970 . S
O148 Li90 1.961 . S
O148 C92 1.325 . S
O149 Li88 1.970 . S
O149 Li89 1.956 . S
O149 Li91 1.961 . S
O149 C98 1.325 . S
O150 Li88 1.961 . S
O150 Li90 1.956 . S
O150 Li91 1.970 . S
O150 C120 1.325 . S
O151 Li89 1.961 . S
O151 Li90 1.970 . S
O151 Li91 1.956 . S
O151 C126 1.325 . S
H152 C94 0.929 . S
H153 C95 0.930 . S
H154 C96 0.930 . S
H155 C97 0.930 . S
H156 C99 0.930 . S
H157 C101 0.929 . S
H158 C102 0.930 . S
H159 C103 0.930 . S
H160 C106 0.930 . S
H161 C109 0.929 . S
H162 C114 0.929 . S
H163 C115 0.930 . S
H164 C122 0.929 . S
H165 C123 0.930 . S
H166 C124 0.930 . S
H167 C125 0.930 . S
H168 C127 0.929 . S
H169 C128 0.930 . S
H170 C129 0.930 . S
H171 C130 0.930 . S
H172 C134 0.929 . S
H173 C136 0.930 . S
H174 C142 0.929 . S
H175 C143 0.930 . S
Li176 N193 1.990 . S
Li176 O236 1.956 . S
Li176 O237 1.970 . S
Li176 O238 1.961 . S
Li177 N201 1.990 . S
Li177 O236 1.970 . S
Li177 O237 1.956 . S
Li177 O239 1.961 . S
Li178 N223 1.990 . S
Li178 O236 1.961 . S
Li178 O238 1.956 . S
Li178 O239 1.970 . S
Li179 N229 1.990 . S
Li179 O237 1.961 . S
Li179 O238 1.970 . S
Li179 O239 1.956 . S
C180 C182 1.348 . S
C180 C183 1.356 . S
C180 O236 1.325 . S
N181 C184 1.314 . S
N181 C185 1.279 . S
C182 C180 1.348 . S
C182 C184 1.353 . S
C182 H240 0.929 . S
C183 C180 1.356 . S
C183 C185 1.358 . S
C183 H241 0.930 . S
C184 N181 1.314 . S
C184 C182 1.353 . S
C184 H242 0.930 . S
C185 N181 1.279 . S
C185 C183 1.358 . S
C185 H243 0.930 . S
C186 C189 1.348 . S
C186 C190 1.356 . S
C186 O237 1.325 . S
C187 N188 1.279 . S
C187 C190 1.358 . S
C187 H244 0.930 . S
N188 C187 1.279 . S
N188 C191 1.314 . S
C189 C186 1.348 . S
C189 C191 1.353 . S
C189 H245 0.929 . S
C190 C186 1.356 . S
C190 C187 1.358 . S
C190 H246 0.930 . S
C191 N188 1.314 . S
C191 C189 1.353 . S
C191 H247 0.930 . S
C192 N193 1.314 . S
C192 C197 1.353 . S
C192 H198 0.930 . S
N193 Li176 1.990 . S
N193 C192 1.314 . S
N193 C195 1.279 . S
C194 C195 1.358 . S
C194 C196 1.356 . S
C194 H248 0.930 . S
C195 N193 1.279 . S
C195 C194 1.358 . S
C195 H199 0.930 . S
C196 C194 1.356 . S
C196 C197 1.348 . S
C197 C192 1.353 . S
C197 C196 1.348 . S
C197 H249 0.929 . S
H198 C192 0.930 . S
H199 C195 0.930 . S
C200 N201 1.314 . S
C200 C202 1.353 . S
C200 H206 0.930 . S
N201 Li177 1.990 . S
N201 C200 1.314 . S
N201 C204 1.279 . S
C202 C200 1.353 . S
C202 C205 1.348 . S
C202 H250 0.929 . S
C203 C204 1.358 . S
C203 C205 1.356 . S
C203 H251 0.930 . S
C204 N201 1.279 . S
C204 C203 1.358 . S
C204 H207 0.930 . S
C205 C202 1.348 . S
C205 C203 1.356 . S
H206 C200 0.930 . S
H207 C204 0.930 . S
C208 C210 1.348 . S
C208 C211 1.356 . S
C208 O238 1.325 . S
N209 C212 1.314 . S
N209 C213 1.279 . S
C210 C208 1.348 . S
C210 C212 1.353 . S
C210 H252 0.929 . S
C211 C208 1.356 . S
C211 C213 1.358 . S
C211 H253 0.930 . S
C212 N209 1.314 . S
C212 C210 1.353 . S
C212 H254 0.930 . S
C213 N209 1.279 . S
C213 C211 1.358 . S
C213 H255 0.930 . S
C214 C215 1.348 . S
C214 C216 1.356 . S
C214 O239 1.325 . S
C215 C214 1.348 . S
C215 C217 1.353 . S
C215 H256 0.929 . S
C216 C214 1.356 . S
C216 C218 1.358 . S
C216 H257 0.930 . S
C217 C215 1.353 . S
C217 N219 1.314 . S
C217 H258 0.930 . S
C218 C216 1.358 . S
C218 N219 1.279 . S
C218 H259 0.930 . S
N219 C217 1.314 . S
N219 C218 1.279 . S
C220 C222 1.353 . S
C220 N223 1.314 . S
C220 H226 0.930 . S
C221 N223 1.279 . S
C221 C224 1.358 . S
C221 H227 0.930 . S
C222 C220 1.353 . S
C222 C225 1.348 . S
C222 H260 0.929 . S
N223 Li178 1.990 . S
N223 C220 1.314 . S
N223 C221 1.279 . S
C224 C221 1.358 . S
C224 C225 1.356 . S
C224 H261 0.930 . S
C225 C222 1.348 . S
C225 C224 1.356 . S
H226 C220 0.930 . S
H227 C221 0.930 . S
C228 N229 1.314 . S
C228 C230 1.353 . S
C228 H234 0.930 . S
N229 Li179 1.990 . S
N229 C228 1.314 . S
N229 C232 1.279 . S
C230 C228 1.353 . S
C230 C233 1.348 . S
C230 H262 0.929 . S
C231 C232 1.358 . S
C231 C233 1.356 . S
C231 H263 0.930 . S
C232 N229 1.279 . S
C232 C231 1.358 . S
C232 H235 0.930 . S
C233 C230 1.348 . S
C233 C231 1.356 . S
H234 C228 0.930 . S
H235 C232 0.930 . S
O236 Li176 1.956 . S
O236 Li177 1.970 . S
O236 Li178 1.961 . S
O236 C180 1.325 . S
O237 Li176 1.970 . S
O237 Li177 1.956 . S
O237 Li179 1.961 . S
O237 C186 1.325 . S
O238 Li176 1.961 . S
O238 Li178 1.956 . S
O238 Li179 1.970 . S
O238 C208 1.325 . S
O239 Li177 1.961 . S
O239 Li178 1.970 . S
O239 Li179 1.956 . S
O239 C214 1.325 . S
H240 C182 0.929 . S
H241 C183 0.930 . S
H242 C184 0.930 . S
H243 C185 0.930 . S
H244 C187 0.930 . S
H245 C189 0.929 . S
H246 C190 0.930 . S
H247 C191 0.930 . S
H248 C194 0.930 . S
H249 C197 0.929 . S
H250 C202 0.929 . S
H251 C203 0.930 . S
H252 C210 0.929 . S
H253 C211 0.930 . S
H254 C212 0.930 . S
H255 C213 0.930 . S
H256 C215 0.929 . S
H257 C216 0.930 . S
H258 C217 0.930 . S
H259 C218 0.930 . S
H260 C222 0.929 . S
H261 C224 0.930 . S
H262 C230 0.929 . S
H263 C231 0.930 . S
Li264 N281 1.990 . S
Li264 O324 1.956 . S
Li264 O325 1.970 . S
Li264 O326 1.961 . S
Li265 N289 1.990 . S
Li265 O324 1.970 . S
Li265 O325 1.956 . S
Li265 O327 1.961 . S
Li266 N311 1.990 . S
Li266 O324 1.961 . S
Li266 O326 1.956 . S
Li266 O327 1.970 . S
Li267 N317 1.990 . S
Li267 O325 1.961 . S
Li267 O326 1.970 . S
Li267 O327 1.956 . S
C268 C270 1.348 . S
C268 C271 1.356 . S
C268 O324 1.325 . S
N269 C272 1.314 . S
N269 C273 1.279 . S
C270 C268 1.348 . S
C270 C272 1.353 . S
C270 H328 0.929 . S
C271 C268 1.356 . S
C271 C273 1.358 . S
C271 H329 0.930 . S
C272 N269 1.314 . S
C272 C270 1.353 . S
C272 H330 0.930 . S
C273 N269 1.279 . S
C273 C271 1.358 . S
C273 H331 0.930 . S
C274 C277 1.348 . S
C274 C278 1.356 . S
C274 O325 1.325 . S
C275 N276 1.279 . S
C275 C278 1.358 . S
C275 H332 0.930 . S
N276 C275 1.279 . S
N276 C279 1.314 . S
C277 C274 1.348 . S
C277 C279 1.353 . S
C277 H333 0.929 . S
C278 C274 1.356 . S
C278 C275 1.358 . S
C278 H334 0.930 . S
C279 N276 1.314 . S
C279 C277 1.353 . S
C279 H335 0.930 . S
C280 N281 1.314 . S
C280 C285 1.353 . S
C280 H286 0.930 . S
N281 Li264 1.990 . S
N281 C280 1.314 . S
N281 C283 1.279 . S
C282 C283 1.358 . S
C282 C284 1.356 . S
C282 H336 0.930 . S
C283 N281 1.279 . S
C283 C282 1.358 . S
C283 H287 0.930 . S
C284 C282 1.356 . S
C284 C285 1.348 . S
C285 C280 1.353 . S
C285 C284 1.348 . S
C285 H337 0.929 1_554 S
H286 C280 0.930 . S
H287 C283 0.930 . S
C288 N289 1.314 . S
C288 C290 1.353 . S
C288 H294 0.930 . S
N289 Li265 1.990 . S
N289 C288 1.314 . S
N289 C292 1.279 . S
C290 C288 1.353 . S
C290 C293 1.348 . S
C290 H338 0.929 . S
C291 C292 1.358 . S
C291 C293 1.356 . S
C291 H339 0.930 . S
C292 N289 1.279 . S
C292 C291 1.358 . S
C292 H295 0.930 . S
C293 C290 1.348 . S
C293 C291 1.356 . S
H294 C288 0.930 . S
H295 C292 0.930 . S
C296 C298 1.348 . S
C296 C299 1.356 . S
C296 O326 1.325 . S
N297 C300 1.314 . S
N297 C301 1.279 . S
C298 C296 1.348 . S
C298 C300 1.353 1_554 S
C298 H340 0.929 . S
C299 C296 1.356 . S
C299 C301 1.358 1_554 S
C299 H341 0.930 . S
C300 N297 1.314 . S
C300 C298 1.353 1_556 S
C300 H342 0.930 . S
C301 N297 1.279 . S
C301 C299 1.358 1_556 S
C301 H343 0.930 . S
C302 C303 1.348 . S
C302 C304 1.356 . S
C302 O327 1.325 . S
C303 C302 1.348 . S
C303 C305 1.353 . S
C303 H344 0.929 . S
C304 C302 1.356 . S
C304 C306 1.358 . S
C304 H345 0.930 . S
C305 C303 1.353 . S
C305 N307 1.314 . S
C305 H346 0.930 . S
C306 C304 1.358 . S
C306 N307 1.279 . S
C306 H347 0.930 . S
N307 C305 1.314 . S
N307 C306 1.279 . S
C308 C310 1.353 . S
C308 N311 1.314 . S
C308 H314 0.930 . S
C309 N311 1.279 . S
C309 C312 1.358 . S
C309 H315 0.930 . S
C310 C308 1.353 . S
C310 C313 1.348 . S
C310 H348 0.929 . S
N311 Li266 1.990 . S
N311 C308 1.314 . S
N311 C309 1.279 . S
C312 C309 1.358 . S
C312 C313 1.356 . S
C312 H349 0.930 . S
C313 C310 1.348 . S
C313 C312 1.356 . S
H314 C308 0.930 . S
H315 C309 0.930 . S
C316 N317 1.314 . S
C316 C318 1.353 . S
C316 H322 0.930 . S
N317 Li267 1.990 . S
N317 C316 1.314 . S
N317 C320 1.279 . S
C318 C316 1.353 . S
C318 C321 1.348 . S
C318 H350 0.929 . S
C319 C320 1.358 . S
C319 C321 1.356 . S
C319 H351 0.930 . S
C320 N317 1.279 . S
C320 C319 1.358 . S
C320 H323 0.930 . S
C321 C318 1.348 . S
C321 C319 1.356 . S
H322 C316 0.930 . S
H323 C320 0.930 . S
O324 Li264 1.956 . S
O324 Li265 1.970 . S
O324 Li266 1.961 . S
O324 C268 1.325 . S
O325 Li264 1.970 . S
O325 Li265 1.956 . S
O325 Li267 1.961 . S
O325 C274 1.325 . S
O326 Li264 1.961 . S
O326 Li266 1.956 . S
O326 Li267 1.970 . S
O326 C296 1.325 . S
O327 Li265 1.961 . S
O327 Li266 1.970 . S
O327 Li267 1.956 . S
O327 C302 1.325 . S
H328 C270 0.929 . S
H329 C271 0.930 . S
H330 C272 0.930 . S
H331 C273 0.930 . S
H332 C275 0.930 . S
H333 C277 0.929 . S
H334 C278 0.930 . S
H335 C279 0.930 . S
H336 C282 0.930 . S
H337 C285 0.929 1_556 S
H338 C290 0.929 . S
H339 C291 0.930 . S
H340 C298 0.929 . S
H341 C299 0.930 . S
H342 C300 0.930 . S
H343 C301 0.930 . S
H344 C303 0.929 . S
H345 C304 0.930 . S
H346 C305 0.930 . S
H347 C306 0.930 . S
H348 C310 0.929 . S
H349 C312 0.930 . S
H350 C318 0.929 . S
H351 C319 0.930 . S
Li352 N369 1.990 . S
Li352 O412 1.956 . S
Li352 O413 1.970 . S
Li352 O414 1.961 . S
Li353 N377 1.990 . S
Li353 O412 1.970 . S
Li353 O413 1.956 . S
Li353 O415 1.961 . S
Li354 N399 1.990 . S
Li354 O412 1.961 . S
Li354 O414 1.956 . S
Li354 O415 1.970 . S
Li355 N405 1.990 . S
Li355 O413 1.961 . S
Li355 O414 1.970 . S
Li355 O415 1.956 . S
C356 C358 1.348 . S
C356 C359 1.356 . S
C356 O412 1.325 . S
N357 C360 1.314 . S
N357 C361 1.279 . S
C358 C356 1.348 . S
C358 C360 1.353 . S
C358 H416 0.929 . S
C359 C356 1.356 . S
C359 C361 1.358 . S
C359 H417 0.930 . S
C360 N357 1.314 . S
C360 C358 1.353 . S
C360 H418 0.930 . S
C361 N357 1.279 . S
C361 C359 1.358 . S
C361 H419 0.930 . S
C362 C365 1.348 . S
C362 C366 1.356 . S
C362 O413 1.325 . S
C363 N364 1.279 . S
C363 C366 1.358 . S
C363 H420 0.930 . S
N364 C363 1.279 . S
N364 C367 1.314 . S
C365 C362 1.348 . S
C365 C367 1.353 . S
C365 H421 0.929 . S
C366 C362 1.356 . S
C366 C363 1.358 . S
C366 H422 0.930 . S
C367 N364 1.314 . S
C367 C365 1.353 . S
C367 H423 0.930 . S
C368 N369 1.314 . S
C368 C373 1.353 . S
C368 H374 0.930 . S
N369 Li352 1.990 . S
N369 C368 1.314 . S
N369 C371 1.279 . S
C370 C371 1.358 . S
C370 C372 1.356 . S
C370 H424 0.930 . S
C371 N369 1.279 . S
C371 C370 1.358 . S
C371 H375 0.930 . S
C372 C370 1.356 . S
C372 C373 1.348 . S
C373 C368 1.353 . S
C373 C372 1.348 . S
C373 H425 0.929 . S
H374 C368 0.930 . S
H375 C371 0.930 . S
C376 N377 1.314 . S
C376 C378 1.353 . S
C376 H382 0.930 . S
N377 Li353 1.990 . S
N377 C376 1.314 . S
N377 C380 1.279 . S
C378 C376 1.353 . S
C378 C381 1.348 . S
C378 H426 0.929 . S
C379 C380 1.358 . S
C379 C381 1.356 . S
C379 H427 0.930 . S
C380 N377 1.279 . S
C380 C379 1.358 . S
C380 H383 0.930 . S
C381 C378 1.348 . S
C381 C379 1.356 . S
H382 C376 0.930 . S
H383 C380 0.930 . S
C384 C386 1.348 . S
C384 C387 1.356 . S
C384 O414 1.325 . S
N385 C388 1.314 . S
N385 C389 1.279 . S
C386 C384 1.348 . S
C386 C388 1.353 . S
C386 H428 0.929 . S
C387 C384 1.356 . S
C387 C389 1.358 . S
C387 H429 0.930 . S
C388 N385 1.314 . S
C388 C386 1.353 . S
C388 H430 0.930 . S
C389 N385 1.279 . S
C389 C387 1.358 . S
C389 H431 0.930 . S
C390 C391 1.348 . S
C390 C392 1.356 . S
C390 O415 1.325 . S
C391 C390 1.348 . S
C391 C393 1.353 . S
C391 H432 0.929 . S
C392 C390 1.356 . S
C392 C394 1.358 . S
C392 H433 0.930 . S
C393 C391 1.353 . S
C393 N395 1.314 . S
C393 H434 0.930 . S
C394 C392 1.358 . S
C394 N395 1.279 . S
C394 H435 0.930 . S
N395 C393 1.314 . S
N395 C394 1.279 . S
C396 C398 1.353 . S
C396 N399 1.314 . S
C396 H402 0.930 . S
C397 N399 1.279 . S
C397 C400 1.358 . S
C397 H403 0.930 . S
C398 C396 1.353 . S
C398 C401 1.348 . S
C398 H436 0.929 . S
N399 Li354 1.990 . S
N399 C396 1.314 . S
N399 C397 1.279 . S
C400 C397 1.358 . S
C400 C401 1.356 . S
C400 H437 0.930 . S
C401 C398 1.348 . S
C401 C400 1.356 . S
H402 C396 0.930 . S
H403 C397 0.930 . S
C404 N405 1.314 . S
C404 C406 1.353 . S
C404 H410 0.930 . S
N405 Li355 1.990 . S
N405 C404 1.314 . S
N405 C408 1.279 . S
C406 C404 1.353 . S
C406 C409 1.348 . S
C406 H438 0.929 . S
C407 C408 1.358 . S
C407 C409 1.356 . S
C407 H439 0.930 . S
C408 N405 1.279 . S
C408 C407 1.358 . S
C408 H411 0.930 . S
C409 C406 1.348 . S
C409 C407 1.356 . S
H410 C404 0.930 . S
H411 C408 0.930 . S
O412 Li352 1.956 . S
O412 Li353 1.970 . S
O412 Li354 1.961 . S
O412 C356 1.325 . S
O413 Li352 1.970 . S
O413 Li353 1.956 . S
O413 Li355 1.961 . S
O413 C362 1.325 . S
O414 Li352 1.961 . S
O414 Li354 1.956 . S
O414 Li355 1.970 . S
O414 C384 1.325 . S
O415 Li353 1.961 . S
O415 Li354 1.970 . S
O415 Li355 1.956 . S
O415 C390 1.325 . S
H416 C358 0.929 . S
H417 C359 0.930 . S
H418 C360 0.930 . S
H419 C361 0.930 . S
H420 C363 0.930 . S
H421 C365 0.929 . S
H422 C366 0.930 . S
H423 C367 0.930 . S
H424 C370 0.930 . S
H425 C373 0.929 . S
H426 C378 0.929 . S
H427 C379 0.930 . S
H428 C386 0.929 . S
H429 C387 0.930 . S
H430 C388 0.930 . S
H431 C389 0.930 . S
H432 C391 0.929 . S
H433 C392 0.930 . S
H434 C393 0.930 . S
H435 C394 0.930 . S
H436 C398 0.929 . S
H437 C400 0.930 . S
H438 C406 0.929 . S
H439 C407 0.930 . S
Li440 N457 1.990 . S
Li440 O500 1.956 . S
Li440 O501 1.970 . S
Li440 O502 1.961 . S
Li441 N465 1.990 . S
Li441 O500 1.970 . S
Li441 O501 1.956 . S
Li441 O503 1.961 . S
Li442 N487 1.990 . S
Li442 O500 1.961 . S
Li442 O502 1.956 . S
Li442 O503 1.970 . S
Li443 N493 1.990 . S
Li443 O501 1.961 . S
Li443 O502 1.970 . S
Li443 O503 1.956 . S
C444 C446 1.348 . S
C444 C447 1.356 . S
C444 O500 1.325 . S
N445 C448 1.314 . S
N445 C449 1.279 . S
C446 C444 1.348 . S
C446 C448 1.353 . S
C446 H504 0.929 . S
C447 C444 1.356 . S
C447 C449 1.358 . S
C447 H505 0.930 . S
C448 N445 1.314 . S
C448 C446 1.353 . S
C448 H506 0.930 . S
C449 N445 1.279 . S
C449 C447 1.358 . S
C449 H507 0.930 . S
C450 C453 1.348 . S
C450 C454 1.356 . S
C450 O501 1.325 . S
C451 N452 1.279 . S
C451 C454 1.358 . S
C451 H508 0.930 . S
N452 C451 1.279 . S
N452 C455 1.314 . S
C453 C450 1.348 . S
C453 C455 1.353 . S
C453 H509 0.929 . S
C454 C450 1.356 . S
C454 C451 1.358 . S
C454 H510 0.930 . S
C455 N452 1.314 . S
C455 C453 1.353 . S
C455 H511 0.930 . S
C456 N457 1.314 . S
C456 C461 1.353 . S
C456 H462 0.930 . S
N457 Li440 1.990 . S
N457 C456 1.314 . S
N457 C459 1.279 . S
C458 C459 1.358 . S
C458 C460 1.356 . S
C458 H512 0.930 . S
C459 N457 1.279 . S
C459 C458 1.358 . S
C459 H463 0.930 . S
C460 C458 1.356 . S
C460 C461 1.348 . S
C461 C456 1.353 . S
C461 C460 1.348 . S
C461 H513 0.929 . S
H462 C456 0.930 . S
H463 C459 0.930 . S
C464 N465 1.314 . S
C464 C466 1.353 . S
C464 H470 0.930 . S
N465 Li441 1.990 . S
N465 C464 1.314 . S
N465 C468 1.279 . S
C466 C464 1.353 . S
C466 C469 1.348 . S
C466 H514 0.929 . S
C467 C468 1.358 . S
C467 C469 1.356 . S
C467 H515 0.930 . S
C468 N465 1.279 . S
C468 C467 1.358 . S
C468 H471 0.930 . S
C469 C466 1.348 . S
C469 C467 1.356 . S
H470 C464 0.930 . S
H471 C468 0.930 . S
C472 C474 1.348 . S
C472 C475 1.356 . S
C472 O502 1.325 . S
N473 C476 1.314 . S
N473 C477 1.279 . S
C474 C472 1.348 . S
C474 C476 1.353 . S
C474 H516 0.929 . S
C475 C472 1.356 . S
C475 C477 1.358 . S
C475 H517 0.930 . S
C476 N473 1.314 . S
C476 C474 1.353 . S
C476 H518 0.930 . S
C477 N473 1.279 . S
C477 C475 1.358 . S
C477 H519 0.930 . S
C478 C479 1.348 . S
C478 C480 1.356 . S
C478 O503 1.325 . S
C479 C478 1.348 . S
C479 C481 1.353 . S
C479 H520 0.929 . S
C480 C478 1.356 . S
C480 C482 1.358 . S
C480 H521 0.930 . S
C481 C479 1.353 . S
C481 N483 1.314 . S
C481 H522 0.930 . S
C482 C480 1.358 . S
C482 N483 1.279 . S
C482 H523 0.930 . S
N483 C481 1.314 . S
N483 C482 1.279 . S
C484 C486 1.353 . S
C484 N487 1.314 . S
C484 H490 0.930 . S
C485 N487 1.279 . S
C485 C488 1.358 . S
C485 H491 0.930 . S
C486 C484 1.353 . S
C486 C489 1.348 . S
C486 H524 0.929 . S
N487 Li442 1.990 . S
N487 C484 1.314 . S
N487 C485 1.279 . S
C488 C485 1.358 . S
C488 C489 1.356 . S
C488 H525 0.930 . S
C489 C486 1.348 . S
C489 C488 1.356 . S
H490 C484 0.930 . S
H491 C485 0.930 . S
C492 N493 1.314 . S
C492 C494 1.353 . S
C492 H498 0.930 . S
N493 Li443 1.990 . S
N493 C492 1.314 . S
N493 C496 1.279 . S
C494 C492 1.353 . S
C494 C497 1.348 . S
C494 H526 0.929 . S
C495 C496 1.358 . S
C495 C497 1.356 . S
C495 H527 0.930 . S
C496 N493 1.279 . S
C496 C495 1.358 . S
C496 H499 0.930 . S
C497 C494 1.348 . S
C497 C495 1.356 . S
H498 C492 0.930 . S
H499 C496 0.930 . S
O500 Li440 1.956 . S
O500 Li441 1.970 . S
O500 Li442 1.961 . S
O500 C444 1.325 . S
O501 Li440 1.970 . S
O501 Li441 1.956 . S
O501 Li443 1.961 . S
O501 C450 1.325 . S
O502 Li440 1.961 . S
O502 Li442 1.956 . S
O502 Li443 1.970 . S
O502 C472 1.325 . S
O503 Li441 1.961 . S
O503 Li442 1.970 . S
O503 Li443 1.956 . S
O503 C478 1.325 . S
H504 C446 0.929 . S
H505 C447 0.930 . S
H506 C448 0.930 . S
H507 C449 0.930 . S
H508 C451 0.930 . S
H509 C453 0.929 . S
H510 C454 0.930 . S
H511 C455 0.930 . S
H512 C458 0.930 . S
H513 C461 0.929 . S
H514 C466 0.929 . S
H515 C467 0.930 . S
H516 C474 0.929 . S
H517 C475 0.930 . S
H518 C476 0.930 . S
H519 C477 0.930 . S
H520 C479 0.929 . S
H521 C480 0.930 . S
H522 C481 0.930 . S
H523 C482 0.930 . S
H524 C486 0.929 . S
H525 C488 0.930 . S
H526 C494 0.929 . S
H527 C495 0.930 . S
Li528 N545 1.990 . S
Li528 O588 1.956 . S
Li528 O589 1.970 . S
Li528 O590 1.961 . S
Li529 N553 1.990 . S
Li529 O588 1.970 . S
Li529 O589 1.956 . S
Li529 O591 1.961 . S
Li530 N575 1.990 . S
Li530 O588 1.961 . S
Li530 O590 1.956 . S
Li530 O591 1.970 . S
Li531 N581 1.990 . S
Li531 O589 1.961 . S
Li531 O590 1.970 . S
Li531 O591 1.956 . S
C532 C534 1.348 . S
C532 C535 1.356 . S
C532 O588 1.325 . S
N533 C536 1.314 . S
N533 C537 1.279 . S
C534 C532 1.348 . S
C534 C536 1.353 . S
C534 H592 0.929 . S
C535 C532 1.356 . S
C535 C537 1.358 . S
C535 H593 0.930 . S
C536 N533 1.314 . S
C536 C534 1.353 . S
C536 H594 0.930 . S
C537 N533 1.279 . S
C537 C535 1.358 . S
C537 H595 0.930 . S
C538 C541 1.348 . S
C538 C542 1.356 . S
C538 O589 1.325 . S
C539 N540 1.279 . S
C539 C542 1.358 . S
C539 H596 0.930 . S
N540 C539 1.279 . S
N540 C543 1.314 . S
C541 C538 1.348 . S
C541 C543 1.353 . S
C541 H597 0.929 . S
C542 C538 1.356 . S
C542 C539 1.358 . S
C542 H598 0.930 . S
C543 N540 1.314 . S
C543 C541 1.353 . S
C543 H599 0.930 . S
C544 N545 1.314 . S
C544 C549 1.353 . S
C544 H550 0.930 . S
N545 Li528 1.990 . S
N545 C544 1.314 . S
N545 C547 1.279 . S
C546 C547 1.358 . S
C546 C548 1.356 . S
C546 H600 0.930 . S
C547 N545 1.279 . S
C547 C546 1.358 . S
C547 H551 0.930 . S
C548 C546 1.356 . S
C548 C549 1.348 . S
C549 C544 1.353 . S
C549 C548 1.348 . S
C549 H601 0.929 . S
H550 C544 0.930 . S
H551 C547 0.930 . S
C552 N553 1.314 . S
C552 C554 1.353 . S
C552 H558 0.930 . S
N553 Li529 1.990 . S
N553 C552 1.314 . S
N553 C556 1.279 . S
C554 C552 1.353 . S
C554 C557 1.348 . S
C554 H602 0.929 . S
C555 C556 1.358 . S
C555 C557 1.356 . S
C555 H603 0.930 . S
C556 N553 1.279 . S
C556 C555 1.358 . S
C556 H559 0.930 . S
C557 C554 1.348 . S
C557 C555 1.356 . S
H558 C552 0.930 . S
H559 C556 0.930 . S
C560 C562 1.348 . S
C560 C563 1.356 . S
C560 O590 1.325 . S
N561 C564 1.314 . S
N561 C565 1.279 . S
C562 C560 1.348 . S
C562 C564 1.353 . S
C562 H604 0.929 . S
C563 C560 1.356 . S
C563 C565 1.358 . S
C563 H605 0.930 . S
C564 N561 1.314 . S
C564 C562 1.353 . S
C564 H606 0.930 . S
C565 N561 1.279 . S
C565 C563 1.358 . S
C565 H607 0.930 . S
C566 C567 1.348 . S
C566 C568 1.356 . S
C566 O591 1.325 . S
C567 C566 1.348 . S
C567 C569 1.353 . S
C567 H608 0.929 . S
C568 C566 1.356 . S
C568 C570 1.358 . S
C568 H609 0.930 . S
C569 C567 1.353 . S
C569 N571 1.314 . S
C569 H610 0.930 . S
C570 C568 1.358 . S
C570 N571 1.279 . S
C570 H611 0.930 . S
N571 C569 1.314 . S
N571 C570 1.279 . S
C572 C574 1.353 . S
C572 N575 1.314 . S
C572 H578 0.930 . S
C573 N575 1.279 . S
C573 C576 1.358 . S
C573 H579 0.930 . S
C574 C572 1.353 . S
C574 C577 1.348 . S
C574 H612 0.929 . S
N575 Li530 1.990 . S
N575 C572 1.314 . S
N575 C573 1.279 . S
C576 C573 1.358 . S
C576 C577 1.356 . S
C576 H613 0.930 . S
C577 C574 1.348 . S
C577 C576 1.356 . S
H578 C572 0.930 . S
H579 C573 0.930 . S
C580 N581 1.314 . S
C580 C582 1.353 . S
C580 H586 0.930 . S
N581 Li531 1.990 . S
N581 C580 1.314 . S
N581 C584 1.279 . S
C582 C580 1.353 . S
C582 C585 1.348 . S
C582 H614 0.929 . S
C583 C584 1.358 . S
C583 C585 1.356 . S
C583 H615 0.930 . S
C584 N581 1.279 . S
C584 C583 1.358 . S
C584 H587 0.930 . S
C585 C582 1.348 . S
C585 C583 1.356 . S
H586 C580 0.930 . S
H587 C584 0.930 . S
O588 Li528 1.956 . S
O588 Li529 1.970 . S
O588 Li530 1.961 . S
O588 C532 1.325 . S
O589 Li528 1.970 . S
O589 Li529 1.956 . S
O589 Li531 1.961 . S
O589 C538 1.325 . S
O590 Li528 1.961 . S
O590 Li530 1.956 . S
O590 Li531 1.970 . S
O590 C560 1.325 . S
O591 Li529 1.961 . S
O591 Li530 1.970 . S
O591 Li531 1.956 . S
O591 C566 1.325 . S
H592 C534 0.929 . S
H593 C535 0.930 . S
H594 C536 0.930 . S
H595 C537 0.930 . S
H596 C539 0.930 . S
H597 C541 0.929 . S
H598 C542 0.930 . S
H599 C543 0.930 . S
H600 C546 0.930 . S
H601 C549 0.929 . S
H602 C554 0.929 . S
H603 C555 0.930 . S
H604 C562 0.929 . S
H605 C563 0.930 . S
H606 C564 0.930 . S
H607 C565 0.930 . S
H608 C567 0.929 . S
H609 C568 0.930 . S
H610 C569 0.930 . S
H611 C570 0.930 . S
H612 C574 0.929 . S
H613 C576 0.930 . S
H614 C582 0.929 . S
H615 C583 0.930 . S
Li616 N633 1.990 . S
Li616 O676 1.956 . S
Li616 O677 1.970 . S
Li616 O678 1.961 . S
Li617 N641 1.990 . S
Li617 O676 1.970 . S
Li617 O677 1.956 . S
Li617 O679 1.961 . S
Li618 N663 1.990 . S
Li618 O676 1.961 . S
Li618 O678 1.956 . S
Li618 O679 1.970 . S
Li619 N669 1.990 . S
Li619 O677 1.961 . S
Li619 O678 1.970 . S
Li619 O679 1.956 . S
C620 C622 1.348 . S
C620 C623 1.356 . S
C620 O676 1.325 . S
N621 C624 1.314 . S
N621 C625 1.279 . S
C622 C620 1.348 . S
C622 C624 1.353 . S
C622 H680 0.929 . S
C623 C620 1.356 . S
C623 C625 1.358 . S
C623 H681 0.930 . S
C624 N621 1.314 . S
C624 C622 1.353 . S
C624 H682 0.930 . S
C625 N621 1.279 . S
C625 C623 1.358 . S
C625 H683 0.930 . S
C626 C629 1.348 . S
C626 C630 1.356 . S
C626 O677 1.325 . S
C627 N628 1.279 . S
C627 C630 1.358 1_554 S
C627 H684 0.930 . S
N628 C627 1.279 . S
N628 C631 1.314 . S
C629 C626 1.348 . S
C629 C631 1.353 1_556 S
C629 H685 0.929 . S
C630 C626 1.356 . S
C630 C627 1.358 1_556 S
C630 H686 0.930 . S
C631 N628 1.314 . S
C631 C629 1.353 1_554 S
C631 H687 0.930 . S
C632 N633 1.314 . S
C632 C637 1.353 . S
C632 H638 0.930 . S
N633 Li616 1.990 . S
N633 C632 1.314 . S
N633 C635 1.279 . S
C634 C635 1.358 . S
C634 C636 1.356 . S
C634 H688 0.930 . S
C635 N633 1.279 . S
C635 C634 1.358 . S
C635 H639 0.930 . S
C636 C634 1.356 . S
C636 C637 1.348 . S
C637 C632 1.353 . S
C637 C636 1.348 . S
C637 H689 0.929 . S
H638 C632 0.930 . S
H639 C635 0.930 . S
C640 N641 1.314 . S
C640 C642 1.353 . S
C640 H646 0.930 . S
N641 Li617 1.990 . S
N641 C640 1.314 . S
N641 C644 1.279 . S
C642 C640 1.353 . S
C642 C645 1.348 . S
C642 H690 0.929 . S
C643 C644 1.358 . S
C643 C645 1.356 . S
C643 H691 0.930 . S
C644 N641 1.279 . S
C644 C643 1.358 . S
C644 H647 0.930 . S
C645 C642 1.348 . S
C645 C643 1.356 . S
H646 C640 0.930 . S
H647 C644 0.930 . S
C648 C650 1.348 . S
C648 C651 1.356 . S
C648 O678 1.325 . S
N649 C652 1.314 . S
N649 C653 1.279 . S
C650 C648 1.348 . S
C650 C652 1.353 . S
C650 H692 0.929 . S
C651 C648 1.356 . S
C651 C653 1.358 . S
C651 H693 0.930 . S
C652 N649 1.314 . S
C652 C650 1.353 . S
C652 H694 0.930 . S
C653 N649 1.279 . S
C653 C651 1.358 . S
C653 H695 0.930 . S
C654 C655 1.348 . S
C654 C656 1.356 . S
C654 O679 1.325 . S
C655 C654 1.348 . S
C655 C657 1.353 . S
C655 H696 0.929 . S
C656 C654 1.356 . S
C656 C658 1.358 . S
C656 H697 0.930 . S
C657 C655 1.353 . S
C657 N659 1.314 . S
C657 H698 0.930 . S
C658 C656 1.358 . S
C658 N659 1.279 . S
C658 H699 0.930 . S
N659 C657 1.314 . S
N659 C658 1.279 . S
C660 C662 1.353 . S
C660 N663 1.314 . S
C660 H666 0.930 . S
C661 N663 1.279 . S
C661 C664 1.358 . S
C661 H667 0.930 . S
C662 C660 1.353 . S
C662 C665 1.348 . S
C662 H700 0.929 . S
N663 Li618 1.990 . S
N663 C660 1.314 . S
N663 C661 1.279 . S
C664 C661 1.358 . S
C664 C665 1.356 . S
C664 H701 0.930 . S
C665 C662 1.348 . S
C665 C664 1.356 . S
H666 C660 0.930 . S
H667 C661 0.930 . S
C668 N669 1.314 . S
C668 C670 1.353 . S
C668 H674 0.930 . S
N669 Li619 1.990 . S
N669 C668 1.314 . S
N669 C672 1.279 . S
C670 C668 1.353 . S
C670 C673 1.348 . S
C670 H702 0.929 1_556 S
C671 C672 1.358 . S
C671 C673 1.356 . S
C671 H703 0.930 . S
C672 N669 1.279 . S
C672 C671 1.358 . S
C672 H675 0.930 . S
C673 C670 1.348 . S
C673 C671 1.356 . S
H674 C668 0.930 . S
H675 C672 0.930 . S
O676 Li616 1.956 . S
O676 Li617 1.970 . S
O676 Li618 1.961 . S
O676 C620 1.325 . S
O677 Li616 1.970 . S
O677 Li617 1.956 . S
O677 Li619 1.961 . S
O677 C626 1.325 . S
O678 Li616 1.961 . S
O678 Li618 1.956 . S
O678 Li619 1.970 . S
O678 C648 1.325 . S
O679 Li617 1.961 . S
O679 Li618 1.970 . S
O679 Li619 1.956 . S
O679 C654 1.325 . S
H680 C622 0.929 . S
H681 C623 0.930 . S
H682 C624 0.930 . S
H683 C625 0.930 . S
H684 C627 0.930 . S
H685 C629 0.929 . S
H686 C630 0.930 . S
H687 C631 0.930 . S
H688 C634 0.930 . S
H689 C637 0.929 . S
H690 C642 0.929 . S
H691 C643 0.930 . S
H692 C650 0.929 . S
H693 C651 0.930 . S
H694 C652 0.930 . S
H695 C653 0.930 . S
H696 C655 0.929 . S
H697 C656 0.930 . S
H698 C657 0.930 . S
H699 C658 0.930 . S
H700 C662 0.929 . S
H701 C664 0.930 . S
H702 C670 0.929 1_554 S
H703 C671 0.930 . S
Li704 N721 1.990 . S
Li704 O764 1.956 . S
Li704 O765 1.970 . S
Li704 O766 1.961 . S
Li705 N729 1.990 . S
Li705 O764 1.970 . S
Li705 O765 1.956 . S
Li705 O767 1.961 . S
Li706 N751 1.990 . S
Li706 O764 1.961 . S
Li706 O766 1.956 . S
Li706 O767 1.970 . S
Li707 N757 1.990 . S
Li707 O765 1.961 . S
Li707 O766 1.970 . S
Li707 O767 1.956 . S
C708 C710 1.348 . S
C708 C711 1.356 . S
C708 O764 1.325 . S
N709 C712 1.314 . S
N709 C713 1.279 . S
C710 C708 1.348 . S
C710 C712 1.353 . S
C710 H768 0.929 . S
C711 C708 1.356 . S
C711 C713 1.358 . S
C711 H769 0.930 . S
C712 N709 1.314 . S
C712 C710 1.353 . S
C712 H770 0.930 . S
C713 N709 1.279 . S
C713 C711 1.358 . S
C713 H771 0.930 . S
C714 C717 1.348 . S
C714 C718 1.356 . S
C714 O765 1.325 . S
C715 N716 1.279 . S
C715 C718 1.358 . S
C715 H772 0.930 . S
N716 C715 1.279 . S
N716 C719 1.314 . S
C717 C714 1.348 . S
C717 C719 1.353 . S
C717 H773 0.929 . S
C718 C714 1.356 . S
C718 C715 1.358 . S
C718 H774 0.930 . S
C719 N716 1.314 . S
C719 C717 1.353 . S
C719 H775 0.930 . S
C720 N721 1.314 . S
C720 C725 1.353 . S
C720 H726 0.930 . S
N721 Li704 1.990 . S
N721 C720 1.314 . S
N721 C723 1.279 . S
C722 C723 1.358 . S
C722 C724 1.356 . S
C722 H776 0.930 . S
C723 N721 1.279 . S
C723 C722 1.358 . S
C723 H727 0.930 . S
C724 C722 1.356 . S
C724 C725 1.348 . S
C725 C720 1.353 . S
C725 C724 1.348 . S
C725 H777 0.929 . S
H726 C720 0.930 . S
H727 C723 0.930 . S
C728 N729 1.314 . S
C728 C730 1.353 . S
C728 H734 0.930 . S
N729 Li705 1.990 . S
N729 C728 1.314 . S
N729 C732 1.279 . S
C730 C728 1.353 . S
C730 C733 1.348 . S
C730 H778 0.929 . S
C731 C732 1.358 . S
C731 C733 1.356 . S
C731 H779 0.930 . S
C732 N729 1.279 . S
C732 C731 1.358 . S
C732 H735 0.930 . S
C733 C730 1.348 . S
C733 C731 1.356 . S
H734 C728 0.930 . S
H735 C732 0.930 . S
C736 C738 1.348 . S
C736 C739 1.356 . S
C736 O766 1.325 . S
N737 C740 1.314 . S
N737 C741 1.279 . S
C738 C736 1.348 . S
C738 C740 1.353 . S
C738 H780 0.929 . S
C739 C736 1.356 . S
C739 C741 1.358 . S
C739 H781 0.930 . S
C740 N737 1.314 . S
C740 C738 1.353 . S
C740 H782 0.930 . S
C741 N737 1.279 . S
C741 C739 1.358 . S
C741 H783 0.930 . S
C742 C743 1.348 . S
C742 C744 1.356 . S
C742 O767 1.325 . S
C743 C742 1.348 . S
C743 C745 1.353 . S
C743 H784 0.929 . S
C744 C742 1.356 . S
C744 C746 1.358 . S
C744 H785 0.930 . S
C745 C743 1.353 . S
C745 N747 1.314 . S
C745 H786 0.930 . S
C746 C744 1.358 . S
C746 N747 1.279 . S
C746 H787 0.930 . S
N747 C745 1.314 . S
N747 C746 1.279 . S
C748 C750 1.353 . S
C748 N751 1.314 . S
C748 H754 0.930 . S
C749 N751 1.279 . S
C749 C752 1.358 . S
C749 H755 0.930 . S
C750 C748 1.353 . S
C750 C753 1.348 . S
C750 H788 0.929 . S
N751 Li706 1.990 . S
N751 C748 1.314 . S
N751 C749 1.279 . S
C752 C749 1.358 . S
C752 C753 1.356 . S
C752 H789 0.930 . S
C753 C750 1.348 . S
C753 C752 1.356 . S
H754 C748 0.930 . S
H755 C749 0.930 . S
C756 N757 1.314 . S
C756 C758 1.353 . S
C756 H762 0.930 . S
N757 Li707 1.990 . S
N757 C756 1.314 . S
N757 C760 1.279 . S
C758 C756 1.353 . S
C758 C761 1.348 . S
C758 H790 0.929 . S
C759 C760 1.358 . S
C759 C761 1.356 . S
C759 H791 0.930 . S
C760 N757 1.279 . S
C760 C759 1.358 . S
C760 H763 0.930 . S
C761 C758 1.348 . S
C761 C759 1.356 . S
H762 C756 0.930 . S
H763 C760 0.930 . S
O764 Li704 1.956 . S
O764 Li705 1.970 . S
O764 Li706 1.961 . S
O764 C708 1.325 . S
O765 Li704 1.970 . S
O765 Li705 1.956 . S
O765 Li707 1.961 . S
O765 C714 1.325 . S
O766 Li704 1.961 . S
O766 Li706 1.956 . S
O766 Li707 1.970 . S
O766 C736 1.325 . S
O767 Li705 1.961 . S
O767 Li706 1.970 . S
O767 Li707 1.956 . S
O767 C742 1.325 . S
H768 C710 0.929 . S
H769 C711 0.930 . S
H770 C712 0.930 . S
H771 C713 0.930 . S
H772 C715 0.930 . S
H773 C717 0.929 . S
H774 C718 0.930 . S
H775 C719 0.930 . S
H776 C722 0.930 . S
H777 C725 0.929 . S
H778 C730 0.929 . S
H779 C731 0.930 . S
H780 C738 0.929 . S
H781 C739 0.930 . S
H782 C740 0.930 . S
H783 C741 0.930 . S
H784 C743 0.929 . S
H785 C744 0.930 . S
H786 C745 0.930 . S
H787 C746 0.930 . S
H788 C750 0.929 . S
H789 C752 0.930 . S
H790 C758 0.929 . S
H791 C759 0.930 . S
Li792 N809 1.990 . S
Li792 O852 1.956 . S
Li792 O853 1.970 . S
Li792 O854 1.961 . S
Li793 N817 1.990 . S
Li793 O852 1.970 . S
Li793 O853 1.956 . S
Li793 O855 1.961 . S
Li794 N839 1.990 . S
Li794 O852 1.961 . S
Li794 O854 1.956 . S
Li794 O855 1.970 . S
Li795 N845 1.990 . S
Li795 O853 1.961 . S
Li795 O854 1.970 . S
Li795 O855 1.956 . S
C796 C798 1.348 . S
C796 C799 1.356 . S
C796 O852 1.325 . S
N797 C800 1.314 . S
N797 C801 1.279 . S
C798 C796 1.348 . S
C798 C800 1.353 . S
C798 H856 0.929 . S
C799 C796 1.356 . S
C799 C801 1.358 . S
C799 H857 0.930 . S
C800 N797 1.314 . S
C800 C798 1.353 . S
C800 H858 0.930 . S
C801 N797 1.279 . S
C801 C799 1.358 . S
C801 H859 0.930 . S
C802 C805 1.348 . S
C802 C806 1.356 . S
C802 O853 1.325 . S
C803 N804 1.279 . S
C803 C806 1.358 . S
C803 H860 0.930 . S
N804 C803 1.279 . S
N804 C807 1.314 . S
C805 C802 1.348 . S
C805 C807 1.353 . S
C805 H861 0.929 . S
C806 C802 1.356 . S
C806 C803 1.358 . S
C806 H862 0.930 . S
C807 N804 1.314 . S
C807 C805 1.353 . S
C807 H863 0.930 . S
C808 N809 1.314 . S
C808 C813 1.353 . S
C808 H814 0.930 . S
N809 Li792 1.990 . S
N809 C808 1.314 . S
N809 C811 1.279 . S
C810 C811 1.358 . S
C810 C812 1.356 . S
C810 H864 0.930 . S
C811 N809 1.279 . S
C811 C810 1.358 . S
C811 H815 0.930 . S
C812 C810 1.356 . S
C812 C813 1.348 . S
C813 C808 1.353 . S
C813 C812 1.348 . S
C813 H865 0.929 . S
H814 C808 0.930 . S
H815 C811 0.930 . S
C816 N817 1.314 . S
C816 C818 1.353 . S
C816 H822 0.930 . S
N817 Li793 1.990 . S
N817 C816 1.314 . S
N817 C820 1.279 . S
C818 C816 1.353 . S
C818 C821 1.348 . S
C818 H866 0.929 . S
C819 C820 1.358 . S
C819 C821 1.356 . S
C819 H867 0.930 . S
C820 N817 1.279 . S
C820 C819 1.358 . S
C820 H823 0.930 . S
C821 C818 1.348 . S
C821 C819 1.356 . S
H822 C816 0.930 . S
H823 C820 0.930 . S
C824 C826 1.348 . S
C824 C827 1.356 . S
C824 O854 1.325 . S
N825 C828 1.314 . S
N825 C829 1.279 . S
C826 C824 1.348 . S
C826 C828 1.353 . S
C826 H868 0.929 . S
C827 C824 1.356 . S
C827 C829 1.358 . S
C827 H869 0.930 . S
C828 N825 1.314 . S
C828 C826 1.353 . S
C828 H870 0.930 . S
C829 N825 1.279 . S
C829 C827 1.358 . S
C829 H871 0.930 . S
C830 C831 1.348 . S
C830 C832 1.356 . S
C830 O855 1.325 . S
C831 C830 1.348 . S
C831 C833 1.353 . S
C831 H872 0.929 . S
C832 C830 1.356 . S
C832 C834 1.358 . S
C832 H873 0.930 . S
C833 C831 1.353 . S
C833 N835 1.314 . S
C833 H874 0.930 . S
C834 C832 1.358 . S
C834 N835 1.279 . S
C834 H875 0.930 . S
N835 C833 1.314 . S
N835 C834 1.279 . S
C836 C838 1.353 . S
C836 N839 1.314 . S
C836 H842 0.930 . S
C837 N839 1.279 . S
C837 C840 1.358 . S
C837 H843 0.930 . S
C838 C836 1.353 . S
C838 C841 1.348 . S
C838 H876 0.929 . S
N839 Li794 1.990 . S
N839 C836 1.314 . S
N839 C837 1.279 . S
C840 C837 1.358 . S
C840 C841 1.356 . S
C840 H877 0.930 . S
C841 C838 1.348 . S
C841 C840 1.356 . S
H842 C836 0.930 . S
H843 C837 0.930 . S
C844 N845 1.314 . S
C844 C846 1.353 . S
C844 H850 0.930 . S
N845 Li795 1.990 . S
N845 C844 1.314 . S
N845 C848 1.279 . S
C846 C844 1.353 . S
C846 C849 1.348 . S
C846 H878 0.929 . S
C847 C848 1.358 . S
C847 C849 1.356 . S
C847 H879 0.930 . S
C848 N845 1.279 . S
C848 C847 1.358 . S
C848 H851 0.930 . S
C849 C846 1.348 . S
C849 C847 1.356 . S
H850 C844 0.930 . S
H851 C848 0.930 . S
O852 Li792 1.956 . S
O852 Li793 1.970 . S
O852 Li794 1.961 . S
O852 C796 1.325 . S
O853 Li792 1.970 . S
O853 Li793 1.956 . S
O853 Li795 1.961 . S
O853 C802 1.325 . S
O854 Li792 1.961 . S
O854 Li794 1.956 . S
O854 Li795 1.970 . S
O854 C824 1.325 . S
O855 Li793 1.961 . S
O855 Li794 1.970 . S
O855 Li795 1.956 . S
O855 C830 1.325 . S
H856 C798 0.929 . S
H857 C799 0.930 . S
H858 C800 0.930 . S
H859 C801 0.930 . S
H860 C803 0.930 . S
H861 C805 0.929 . S
H862 C806 0.930 . S
H863 C807 0.930 . S
H864 C810 0.930 . S
H865 C813 0.929 . S
H866 C818 0.929 . S
H867 C819 0.930 . S
H868 C826 0.929 . S
H869 C827 0.930 . S
H870 C828 0.930 . S
H871 C829 0.930 . S
H872 C831 0.929 . S
H873 C832 0.930 . S
H874 C833 0.930 . S
H875 C834 0.930 . S
H876 C838 0.929 . S
H877 C840 0.930 . S
H878 C846 0.929 . S
H879 C847 0.930 . S
Li880 N897 1.990 . S
Li880 O940 1.956 . S
Li880 O941 1.970 . S
Li880 O942 1.961 . S
Li881 N905 1.990 . S
Li881 O940 1.970 . S
Li881 O941 1.956 . S
Li881 O943 1.961 . S
Li882 N927 1.990 . S
Li882 O940 1.961 . S
Li882 O942 1.956 . S
Li882 O943 1.970 . S
Li883 N933 1.990 . S
Li883 O941 1.961 . S
Li883 O942 1.970 . S
Li883 O943 1.956 . S
C884 C886 1.348 . S
C884 C887 1.356 . S
C884 O940 1.325 . S
N885 C888 1.314 . S
N885 C889 1.279 . S
C886 C884 1.348 . S
C886 C888 1.353 1_556 S
C886 H944 0.929 . S
C887 C884 1.356 . S
C887 C889 1.358 1_556 S
C887 H945 0.930 . S
C888 N885 1.314 . S
C888 C886 1.353 1_554 S
C888 H946 0.930 . S
C889 N885 1.279 . S
C889 C887 1.358 1_554 S
C889 H947 0.930 . S
C890 C893 1.348 . S
C890 C894 1.356 . S
C890 O941 1.325 . S
C891 N892 1.279 . S
C891 C894 1.358 . S
C891 H948 0.930 . S
N892 C891 1.279 . S
N892 C895 1.314 . S
C893 C890 1.348 . S
C893 C895 1.353 . S
C893 H949 0.929 . S
C894 C890 1.356 . S
C894 C891 1.358 . S
C894 H950 0.930 . S
C895 N892 1.314 . S
C895 C893 1.353 . S
C895 H951 0.930 . S
C896 N897 1.314 . S
C896 C901 1.353 . S
C896 H902 0.930 . S
N897 Li880 1.990 . S
N897 C896 1.314 . S
N897 C899 1.279 . S
C898 C899 1.358 . S
C898 C900 1.356 . S
C898 H952 0.930 . S
C899 N897 1.279 . S
C899 C898 1.358 . S
C899 H903 0.930 . S
C900 C898 1.356 . S
C900 C901 1.348 . S
C901 C896 1.353 . S
C901 C900 1.348 . S
C901 H953 0.929 . S
H902 C896 0.930 . S
H903 C899 0.930 . S
C904 N905 1.314 . S
C904 C906 1.353 . S
C904 H910 0.930 . S
N905 Li881 1.990 . S
N905 C904 1.314 . S
N905 C908 1.279 . S
C906 C904 1.353 . S
C906 C909 1.348 . S
C906 H954 0.929 . S
C907 C908 1.358 . S
C907 C909 1.356 . S
C907 H955 0.930 . S
C908 N905 1.279 . S
C908 C907 1.358 . S
C908 H911 0.930 . S
C909 C906 1.348 . S
C909 C907 1.356 . S
H910 C904 0.930 . S
H911 C908 0.930 . S
C912 C914 1.348 . S
C912 C915 1.356 . S
C912 O942 1.325 . S
N913 C916 1.314 . S
N913 C917 1.279 . S
C914 C912 1.348 . S
C914 C916 1.353 . S
C914 H956 0.929 . S
C915 C912 1.356 . S
C915 C917 1.358 . S
C915 H957 0.930 . S
C916 N913 1.314 . S
C916 C914 1.353 . S
C916 H958 0.930 . S
C917 N913 1.279 . S
C917 C915 1.358 . S
C917 H959 0.930 . S
C918 C919 1.348 . S
C918 C920 1.356 . S
C918 O943 1.325 . S
C919 C918 1.348 . S
C919 C921 1.353 . S
C919 H960 0.929 . S
C920 C918 1.356 . S
C920 C922 1.358 . S
C920 H961 0.930 . S
C921 C919 1.353 . S
C921 N923 1.314 . S
C921 H962 0.930 . S
C922 C920 1.358 . S
C922 N923 1.279 . S
C922 H963 0.930 . S
N923 C921 1.314 . S
N923 C922 1.279 . S
C924 C926 1.353 . S
C924 N927 1.314 . S
C924 H930 0.930 . S
C925 N927 1.279 . S
C925 C928 1.358 . S
C925 H931 0.930 . S
C926 C924 1.353 . S
C926 C929 1.348 . S
C926 H964 0.929 1_556 S
N927 Li882 1.990 . S
N927 C924 1.314 . S
N927 C925 1.279 . S
C928 C925 1.358 . S
C928 C929 1.356 . S
C928 H965 0.930 . S
C929 C926 1.348 . S
C929 C928 1.356 . S
H930 C924 0.930 . S
H931 C925 0.930 . S
C932 N933 1.314 . S
C932 C934 1.353 . S
C932 H938 0.930 . S
N933 Li883 1.990 . S
N933 C932 1.314 . S
N933 C936 1.279 . S
C934 C932 1.353 . S
C934 C937 1.348 . S
C934 H966 0.929 . S
C935 C936 1.358 . S
C935 C937 1.356 . S
C935 H967 0.930 . S
C936 N933 1.279 . S
C936 C935 1.358 . S
C936 H939 0.930 . S
C937 C934 1.348 . S
C937 C935 1.356 . S
H938 C932 0.930 . S
H939 C936 0.930 . S
O940 Li880 1.956 . S
O940 Li881 1.970 . S
O940 Li882 1.961 . S
O940 C884 1.325 . S
O941 Li880 1.970 . S
O941 Li881 1.956 . S
O941 Li883 1.961 . S
O941 C890 1.325 . S
O942 Li880 1.961 . S
O942 Li882 1.956 . S
O942 Li883 1.970 . S
O942 C912 1.325 . S
O943 Li881 1.961 . S
O943 Li882 1.970 . S
O943 Li883 1.956 . S
O943 C918 1.325 . S
H944 C886 0.929 . S
H945 C887 0.930 . S
H946 C888 0.930 . S
H947 C889 0.930 . S
H948 C891 0.930 . S
H949 C893 0.929 . S
H950 C894 0.930 . S
H951 C895 0.930 . S
H952 C898 0.930 . S
H953 C901 0.929 . S
H954 C906 0.929 . S
H955 C907 0.930 . S
H956 C914 0.929 . S
H957 C915 0.930 . S
H958 C916 0.930 . S
H959 C917 0.930 . S
H960 C919 0.929 . S
H961 C920 0.930 . S
H962 C921 0.930 . S
H963 C922 0.930 . S
H964 C926 0.929 1_554 S
H965 C928 0.930 . S
H966 C934 0.929 . S
H967 C935 0.930 . S
Li968 N985 1.990 . S
Li968 O1028 1.956 . S
Li968 O1029 1.970 . S
Li968 O1030 1.961 . S
Li969 N993 1.990 . S
Li969 O1028 1.970 . S
Li969 O1029 1.956 . S
Li969 O1031 1.961 . S
Li970 N1015 1.990 . S
Li970 O1028 1.961 . S
Li970 O1030 1.956 . S
Li970 O1031 1.970 . S
Li971 N1021 1.990 . S
Li971 O1029 1.961 . S
Li971 O1030 1.970 . S
Li971 O1031 1.956 . S
C972 C974 1.348 . S
C972 C975 1.356 . S
C972 O1028 1.325 . S
N973 C976 1.314 . S
N973 C977 1.279 . S
C974 C972 1.348 . S
C974 C976 1.353 . S
C974 H1032 0.929 . S
C975 C972 1.356 . S
C975 C977 1.358 . S
C975 H1033 0.930 . S
C976 N973 1.314 . S
C976 C974 1.353 . S
C976 H1034 0.930 . S
C977 N973 1.279 . S
C977 C975 1.358 . S
C977 H1035 0.930 . S
C978 C981 1.348 . S
C978 C982 1.356 . S
C978 O1029 1.325 . S
C979 N980 1.279 . S
C979 C982 1.358 . S
C979 H1036 0.930 . S
N980 C979 1.279 . S
N980 C983 1.314 . S
C981 C978 1.348 . S
C981 C983 1.353 . S
C981 H1037 0.929 . S
C982 C978 1.356 . S
C982 C979 1.358 . S
C982 H1038 0.930 . S
C983 N980 1.314 . S
C983 C981 1.353 . S
C983 H1039 0.930 . S
C984 N985 1.314 . S
C984 C989 1.353 . S
C984 H990 0.930 . S
N985 Li968 1.990 . S
N985 C984 1.314 . S
N985 C987 1.279 . S
C986 C987 1.358 . S
C986 C988 1.356 . S
C986 H1040 0.930 . S
C987 N985 1.279 . S
C987 C986 1.358 . S
C987 H991 0.930 . S
C988 C986 1.356 . S
C988 C989 1.348 . S
C989 C984 1.353 . S
C989 C988 1.348 . S
C989 H1041 0.929 . S
H990 C984 0.930 . S
H991 C987 0.930 . S
C992 N993 1.314 . S
C992 C994 1.353 . S
C992 H998 0.930 . S
N993 Li969 1.990 . S
N993 C992 1.314 . S
N993 C996 1.279 . S
C994 C992 1.353 . S
C994 C997 1.348 . S
C994 H1042 0.929 . S
C995 C996 1.358 . S
C995 C997 1.356 . S
C995 H1043 0.930 . S
C996 N993 1.279 . S
C996 C995 1.358 . S
C996 H999 0.930 . S
C997 C994 1.348 . S
C997 C995 1.356 . S
H998 C992 0.930 . S
H999 C996 0.930 . S
C1000 C1002 1.348 . S
C1000 C1003 1.356 . S
C1000 O1030 1.325 . S
N1001 C1004 1.314 . S
N1001 C1005 1.279 . S
C1002 C1000 1.348 . S
C1002 C1004 1.353 . S
C1002 H1044 0.929 . S
C1003 C1000 1.356 . S
C1003 C1005 1.358 . S
C1003 H1045 0.930 . S
C1004 N1001 1.314 . S
C1004 C1002 1.353 . S
C1004 H1046 0.930 . S
C1005 N1001 1.279 . S
C1005 C1003 1.358 . S
C1005 H1047 0.930 . S
C1006 C1007 1.348 . S
C1006 C1008 1.356 . S
C1006 O1031 1.325 . S
C1007 C1006 1.348 . S
C1007 C1009 1.353 . S
C1007 H1048 0.929 . S
C1008 C1006 1.356 . S
C1008 C1010 1.358 . S
C1008 H1049 0.930 . S
C1009 C1007 1.353 . S
C1009 N1011 1.314 . S
C1009 H1050 0.930 . S
C1010 C1008 1.358 . S
C1010 N1011 1.279 . S
C1010 H1051 0.930 . S
N1011 C1009 1.314 . S
N1011 C1010 1.279 . S
C1012 C1014 1.353 . S
C1012 N1015 1.314 . S
C1012 H1018 0.930 . S
C1013 N1015 1.279 . S
C1013 C1016 1.358 . S
C1013 H1019 0.930 . S
C1014 C1012 1.353 . S
C1014 C1017 1.348 . S
C1014 H1052 0.929 . S
N1015 Li970 1.990 . S
N1015 C1012 1.314 . S
N1015 C1013 1.279 . S
C1016 C1013 1.358 . S
C1016 C1017 1.356 . S
C1016 H1053 0.930 . S
C1017 C1014 1.348 . S
C1017 C1016 1.356 . S
H1018 C1012 0.930 . S
H1019 C1013 0.930 . S
C1020 N1021 1.314 . S
C1020 C1022 1.353 . S
C1020 H1026 0.930 . S
N1021 Li971 1.990 . S
N1021 C1020 1.314 . S
N1021 C1024 1.279 . S
C1022 C1020 1.353 . S
C1022 C1025 1.348 . S
C1022 H1054 0.929 . S
C1023 C1024 1.358 . S
C1023 C1025 1.356 . S
C1023 H1055 0.930 . S
C1024 N1021 1.279 . S
C1024 C1023 1.358 . S
C1024 H1027 0.930 . S
C1025 C1022 1.348 . S
C1025 C1023 1.356 . S
H1026 C1020 0.930 . S
H1027 C1024 0.930 . S
O1028 Li968 1.956 . S
O1028 Li969 1.970 . S
O1028 Li970 1.961 . S
O1028 C972 1.325 . S
O1029 Li968 1.970 . S
O1029 Li969 1.956 . S
O1029 Li971 1.961 . S
O1029 C978 1.325 . S
O1030 Li968 1.961 . S
O1030 Li970 1.956 . S
O1030 Li971 1.970 . S
O1030 C1000 1.325 . S
O1031 Li969 1.961 . S
O1031 Li970 1.970 . S
O1031 Li971 1.956 . S
O1031 C1006 1.325 . S
H1032 C974 0.929 . S
H1033 C975 0.930 . S
H1034 C976 0.930 . S
H1035 C977 0.930 . S
H1036 C979 0.930 . S
H1037 C981 0.929 . S
H1038 C982 0.930 . S
H1039 C983 0.930 . S
H1040 C986 0.930 . S
H1041 C989 0.929 . S
H1042 C994 0.929 . S
H1043 C995 0.930 . S
H1044 C1002 0.929 . S
H1045 C1003 0.930 . S
H1046 C1004 0.930 . S
H1047 C1005 0.930 . S
H1048 C1007 0.929 . S
H1049 C1008 0.930 . S
H1050 C1009 0.930 . S
H1051 C1010 0.930 . S
H1052 C1014 0.929 . S
H1053 C1016 0.930 . S
H1054 C1022 0.929 . S
H1055 C1023 0.930 . S
C1056 C1057 1.391 . S
C1056 C1058 1.394 . S
C1056 H1072 0.931 . S
C1057 C1056 1.391 . S
C1057 C1061 1.376 1_556 S
C1058 C1056 1.394 . S
C1058 C1059 1.369 1_556 S
C1058 C1062 1.531 . S
C1059 C1058 1.369 1_554 S
C1059 C1060 1.410 . S
C1059 C1067 1.503 1_565 S
C1060 C1059 1.410 . S
C1060 C1061 1.392 . S
C1060 C1063 1.511 . S
C1061 C1057 1.376 1_554 S
C1061 C1060 1.392 . S
C1061 H1073 0.929 . S
C1062 C1058 1.531 . S
C1062 H1074 0.960 1_565 S
C1062 H1075 0.962 . S
C1062 H1076 0.960 . S
C1063 C1060 1.511 . S
C1063 H1077 0.961 . S
C1063 H1078 0.961 . S
C1063 H1079 0.961 . S
C1064 C1065 1.370 1_556 S
C1064 C1066 1.363 . S
C1064 H1080 0.931 . S
C1065 C1064 1.370 1_554 S
C1065 C1069 1.408 . S
C1066 C1064 1.363 . S
C1066 C1067 1.370 1_556 S
C1066 C1070 1.524 . S
C1067 C1059 1.503 1_545 S
C1067 C1066 1.370 1_554 S
C1067 C1068 1.403 . S
C1068 C1067 1.403 . S
C1068 C1069 1.404 . S
C1068 C1071 1.539 . S
C1069 C1065 1.408 . S
C1069 C1068 1.404 . S
C1069 H1081 0.930 . S
C1070 C1066 1.524 . S
C1070 H1082 0.956 . S
C1070 H1083 0.961 . S
C1070 H1084 0.961 . S
C1071 C1068 1.539 . S
C1071 H1085 0.958 . S
C1071 H1086 0.961 . S
C1071 H1087 0.960 1_545 S
H1072 C1056 0.931 . S
H1073 C1061 0.929 . S
H1074 C1062 0.960 1_545 S
H1075 C1062 0.962 . S
H1076 C1062 0.960 . S
H1077 C1063 0.961 . S
H1078 C1063 0.961 . S
H1079 C1063 0.961 . S
H1080 C1064 0.931 . S
H1081 C1069 0.930 . S
H1082 C1070 0.956 . S
H1083 C1070 0.961 . S
H1084 C1070 0.961 . S
H1085 C1071 0.958 . S
H1086 C1071 0.961 . S
H1087 C1071 0.960 1_565 S
C1088 C1089 1.391 . S
C1088 C1090 1.394 . S
C1088 H1104 0.931 . S
C1089 C1088 1.391 . S
C1089 C1093 1.376 . S
C1090 C1088 1.394 . S
C1090 C1091 1.369 . S
C1090 C1094 1.531 . S
C1091 C1090 1.369 . S
C1091 C1092 1.410 . S
C1091 C1099 1.503 . S
C1092 C1091 1.410 . S
C1092 C1093 1.392 . S
C1092 C1095 1.511 . S
C1093 C1089 1.376 . S
C1093 C1092 1.392 . S
C1093 H1105 0.929 . S
C1094 C1090 1.531 . S
C1094 H1106 0.960 . S
C1094 H1107 0.962 . S
C1094 H1108 0.960 . S
C1095 C1092 1.511 . S
C1095 H1109 0.961 . S
C1095 H1110 0.961 . S
C1095 H1111 0.961 . S
C1096 C1097 1.370 . S
C1096 C1098 1.363 . S
C1096 H1112 0.931 . S
C1097 C1096 1.370 . S
C1097 C1101 1.408 . S
C1098 C1096 1.363 . S
C1098 C1099 1.370 . S
C1098 C1102 1.524 . S
C1099 C1091 1.503 . S
C1099 C1098 1.370 . S
C1099 C1100 1.403 . S
C1100 C1099 1.403 . S
C1100 C1101 1.404 . S
C1100 C1103 1.539 . S
C1101 C1097 1.408 . S
C1101 C1100 1.404 . S
C1101 H1113 0.930 . S
C1102 C1098 1.524 . S
C1102 H1114 0.956 . S
C1102 H1115 0.961 . S
C1102 H1116 0.961 . S
C1103 C1100 1.539 . S
C1103 H1117 0.958 . S
C1103 H1118 0.961 . S
C1103 H1119 0.960 . S
H1104 C1088 0.931 . S
H1105 C1093 0.929 . S
H1106 C1094 0.960 . S
H1107 C1094 0.962 . S
H1108 C1094 0.960 . S
H1109 C1095 0.961 . S
H1110 C1095 0.961 . S
H1111 C1095 0.961 . S
H1112 C1096 0.931 . S
H1113 C1101 0.930 . S
H1114 C1102 0.956 . S
H1115 C1102 0.961 . S
H1116 C1102 0.961 . S
H1117 C1103 0.958 . S
H1118 C1103 0.961 . S
H1119 C1103 0.960 . S
C1120 C1121 1.391 . S
C1120 C1122 1.394 . S
C1120 H1136 0.931 . S
C1121 C1120 1.391 . S
C1121 C1125 1.376 . S
C1122 C1120 1.394 . S
C1122 C1123 1.369 . S
C1122 C1126 1.531 . S
C1123 C1122 1.369 . S
C1123 C1124 1.410 . S
C1123 C1131 1.503 1_655 S
C1124 C1123 1.410 . S
C1124 C1125 1.392 . S
C1124 C1127 1.511 . S
C1125 C1121 1.376 . S
C1125 C1124 1.392 . S
C1125 H1137 0.929 . S
C1126 C1122 1.531 . S
C1126 H1138 0.960 1_655 S
C1126 H1139 0.964 1_655 S
C1126 H1140 0.960 . S
C1127 C1124 1.511 . S
C1127 H1141 0.961 . S
C1127 H1142 0.961 . S
C1127 H1143 0.961 . S
C1128 C1129 1.370 . S
C1128 C1130 1.363 . S
C1128 H1144 0.931 . S
C1129 C1128 1.370 . S
C1129 C1133 1.408 . S
C1130 C1128 1.363 . S
C1130 C1131 1.370 . S
C1130 C1134 1.524 . S
C1131 C1123 1.503 1_455 S
C1131 C1130 1.370 . S
C1131 C1132 1.403 . S
C1132 C1131 1.403 . S
C1132 C1133 1.404 . S
C1132 C1135 1.539 . S
C1133 C1129 1.408 . S
C1133 C1132 1.404 . S
C1133 H1145 0.930 . S
C1134 C1130 1.524 . S
C1134 H1146 0.956 . S
C1134 H1147 0.957 . S
C1134 H1148 0.961 . S
C1135 C1132 1.539 . S
C1135 H1149 0.958 . S
C1135 H1150 0.961 . S
C1135 H1151 0.960 1_455 S
H1136 C1120 0.931 . S
H1137 C1125 0.929 . S
H1138 C1126 0.960 1_455 S
H1139 C1126 0.964 1_455 S
H1140 C1126 0.960 . S
H1141 C1127 0.961 . S
H1142 C1127 0.961 . S
H1143 C1127 0.961 . S
H1144 C1128 0.931 . S
H1145 C1133 0.930 . S
H1146 C1134 0.956 . S
H1147 C1134 0.957 . S
H1148 C1134 0.961 . S
H1149 C1135 0.958 . S
H1150 C1135 0.961 . S
H1151 C1135 0.960 1_655 S
C1152 C1153 1.391 . S
C1152 C1154 1.394 . S
C1152 H1168 0.931 . S
C1153 C1152 1.391 . S
C1153 C1157 1.376 . S
C1154 C1152 1.394 . S
C1154 C1155 1.369 . S
C1154 C1158 1.531 . S
C1155 C1154 1.369 . S
C1155 C1156 1.422 . S
C1155 C1163 1.519 1_565 S
C1156 C1155 1.422 . S
C1156 C1157 1.398 . S
C1156 C1159 1.495 1_554 S
C1157 C1153 1.376 . S
C1157 C1156 1.398 . S
C1157 H1169 0.924 1_554 S
C1158 C1154 1.531 . S
C1158 H1170 0.960 1_565 S
C1158 H1171 0.962 . S
C1158 H1172 0.960 . S
C1159 C1156 1.495 1_556 S
C1159 H1173 0.961 . S
C1159 H1174 0.961 . S
C1159 H1175 0.961 1_556 S
C1160 C1161 1.370 . S
C1160 C1162 1.363 . S
C1160 H1176 0.931 . S
C1161 C1160 1.370 . S
C1161 C1165 1.408 1_556 S
C1162 C1160 1.363 . S
C1162 C1163 1.318 1_556 S
C1162 C1166 1.524 . S
C1163 C1155 1.519 1_545 S
C1163 C1162 1.318 1_554 S
C1163 C1164 1.442 . S
C1164 C1163 1.442 . S
C1164 C1165 1.404 . S
C1164 C1167 1.539 . S
C1165 C1161 1.408 1_554 S
C1165 C1164 1.404 . S
C1165 H1177 0.930 . S
C1166 C1162 1.524 . S
C1166 H1178 0.956 1_545 S
C1166 H1179 0.961 1_545 S
C1166 H1180 0.961 . S
C1167 C1164 1.539 . S
C1167 H1181 0.958 . S
C1167 H1182 0.961 . S
C1167 H1183 0.960 . S
H1168 C1152 0.931 . S
H1169 C1157 0.924 1_556 S
H1170 C1158 0.960 1_545 S
H1171 C1158 0.962 . S
H1172 C1158 0.960 . S
H1173 C1159 0.961 . S
H1174 C1159 0.961 . S
H1175 C1159 0.961 1_554 S
H1176 C1160 0.931 . S
H1177 C1165 0.930 . S
H1178 C1166 0.956 1_565 S
H1179 C1166 0.961 1_565 S
H1180 C1166 0.961 . S
H1181 C1167 0.958 . S
H1182 C1167 0.961 . S
H1183 C1167 0.960 . S
C1184 C1185 1.391 . S
C1184 C1186 1.394 . S
C1184 H1200 0.931 . S
C1185 C1184 1.391 . S
C1185 C1189 1.376 . S
C1186 C1184 1.394 . S
C1186 C1187 1.369 . S
C1186 C1190 1.531 . S
C1187 C1186 1.369 . S
C1187 C1188 1.410 . S
C1187 C1195 1.503 . S
C1188 C1187 1.410 . S
C1188 C1189 1.392 . S
C1188 C1191 1.511 . S
C1189 C1185 1.376 . S
C1189 C1188 1.392 . S
C1189 H1201 0.929 . S
C1190 C1186 1.531 . S
C1190 H1202 0.960 . S
C1190 H1203 0.962 . S
C1190 H1204 0.960 . S
C1191 C1188 1.511 . S
C1191 H1205 0.961 . S
C1191 H1206 0.961 . S
C1191 H1207 0.961 . S
C1192 C1193 1.370 . S
C1192 C1194 1.363 . S
C1192 H1208 0.931 . S
C1193 C1192 1.370 . S
C1193 C1197 1.408 . S
C1194 C1192 1.363 . S
C1194 C1195 1.370 . S
C1194 C1198 1.524 . S
C1195 C1187 1.503 . S
C1195 C1194 1.370 . S
C1195 C1196 1.403 . S
C1196 C1195 1.403 . S
C1196 C1197 1.404 . S
C1196 C1199 1.539 . S
C1197 C1193 1.408 . S
C1197 C1196 1.404 . S
C1197 H1209 0.930 . S
C1198 C1194 1.524 . S
C1198 H1210 0.956 . S
C1198 H1211 0.961 . S
C1198 H1212 0.961 . S
C1199 C1196 1.539 . S
C1199 H1213 0.958 . S
C1199 H1214 0.961 . S
C1199 H1215 0.960 . S
H1200 C1184 0.931 . S
H1201 C1189 0.929 . S
H1202 C1190 0.960 . S
H1203 C1190 0.962 . S
H1204 C1190 0.960 . S
H1205 C1191 0.961 . S
H1206 C1191 0.961 . S
H1207 C1191 0.961 . S
H1208 C1192 0.931 . S
H1209 C1197 0.930 . S
H1210 C1198 0.956 . S
H1211 C1198 0.961 . S
H1212 C1198 0.961 . S
H1213 C1199 0.958 . S
H1214 C1199 0.961 . S
H1215 C1199 0.960 . S
C1216 C1217 1.391 . S
C1216 C1218 1.394 . S
C1216 H1232 0.931 . S
C1217 C1216 1.391 . S
C1217 C1221 1.376 . S
C1218 C1216 1.394 . S
C1218 C1219 1.369 . S
C1218 C1222 1.531 . S
C1219 C1218 1.369 . S
C1219 C1220 1.410 . S
C1219 C1227 1.503 1_655 S
C1220 C1219 1.410 . S
C1220 C1221 1.392 . S
C1220 C1223 1.511 . S
C1221 C1217 1.376 . S
C1221 C1220 1.392 . S
C1221 H1233 0.929 . S
C1222 C1218 1.531 . S
C1222 H1234 0.960 1_655 S
C1222 H1235 0.962 1_655 S
C1222 H1236 0.960 . S
C1223 C1220 1.511 . S
C1223 H1237 0.961 . S
C1223 H1238 0.961 . S
C1223 H1239 0.961 . S
C1224 C1225 1.370 . S
C1224 C1226 1.363 . S
C1224 H1240 0.931 . S
C1225 C1224 1.370 . S
C1225 C1229 1.408 . S
C1226 C1224 1.363 . S
C1226 C1227 1.370 . S
C1226 C1230 1.524 . S
C1227 C1219 1.503 1_455 S
C1227 C1226 1.370 . S
C1227 C1228 1.403 . S
C1228 C1227 1.403 . S
C1228 C1229 1.404 . S
C1228 C1231 1.539 . S
C1229 C1225 1.408 . S
C1229 C1228 1.404 . S
C1229 H1241 0.930 . S
C1230 C1226 1.524 . S
C1230 H1242 0.956 . S
C1230 H1243 0.961 1_455 S
C1230 H1244 0.961 . S
C1231 C1228 1.539 . S
C1231 H1245 0.958 . S
C1231 H1246 0.961 . S
C1231 H1247 0.960 1_455 S
H1232 C1216 0.931 . S
H1233 C1221 0.929 . S
H1234 C1222 0.960 1_455 S
H1235 C1222 0.962 1_455 S
H1236 C1222 0.960 . S
H1237 C1223 0.961 . S
H1238 C1223 0.961 . S
H1239 C1223 0.961 . S
H1240 C1224 0.931 . S
H1241 C1229 0.930 . S
H1242 C1230 0.956 . S
H1243 C1230 0.961 1_655 S
H1244 C1230 0.961 . S
H1245 C1231 0.958 . S
H1246 C1231 0.961 . S
H1247 C1231 0.960 1_655 S
C1248 C1249 1.391 . S
C1248 C1250 1.431 . S
C1248 H1264 0.931 . S
C1249 C1248 1.391 . S
C1249 C1253 1.376 . S
C1250 C1248 1.431 . S
C1250 C1251 1.368 . S
C1250 C1254 1.497 1_556 S
C1251 C1250 1.368 . S
C1251 C1252 1.429 . S
C1251 C1259 1.487 1_556 S
C1252 C1251 1.429 . S
C1252 C1253 1.392 . S
C1252 C1255 1.511 . S
C1253 C1249 1.376 . S
C1253 C1252 1.392 . S
C1253 H1265 0.929 . S
C1254 C1250 1.497 1_554 S
C1254 H1266 0.960 . S
C1254 H1267 0.982 . S
C1254 H1268 0.960 . S
C1255 C1252 1.511 . S
C1255 H1269 0.961 . S
C1255 H1270 0.961 . S
C1255 H1271 0.961 1_556 S
C1256 C1257 1.370 . S
C1256 C1258 1.363 1_554 S
C1256 H1272 0.931 1_554 S
C1257 C1256 1.370 . S
C1257 C1261 1.408 . S
C1258 C1256 1.363 1_556 S
C1258 C1259 1.370 1_556 S
C1258 C1262 1.524 . S
C1259 C1251 1.487 1_554 S
C1259 C1258 1.370 1_554 S
C1259 C1260 1.403 . S
C1260 C1259 1.403 . S
C1260 C1261 1.404 . S
C1260 C1263 1.539 . S
C1261 C1257 1.408 . S
C1261 C1260 1.404 . S
C1261 H1273 0.930 . S
C1262 C1258 1.524 . S
C1262 H1274 0.956 . S
C1262 H1275 0.961 . S
C1262 H1276 0.961 . S
C1263 C1260 1.539 . S
C1263 H1277 0.958 . S
C1263 H1278 0.961 . S
C1263 H1279 0.960 . S
H1264 C1248 0.931 . S
H1265 C1253 0.929 . S
H1266 C1254 0.960 . S
H1267 C1254 0.982 . S
H1268 C1254 0.960 . S
H1269 C1255 0.961 . S
H1270 C1255 0.961 . S
H1271 C1255 0.961 1_554 S
H1272 C1256 0.931 1_556 S
H1273 C1261 0.930 . S
H1274 C1262 0.956 . S
H1275 C1262 0.961 . S
H1276 C1262 0.961 . S
H1277 C1263 0.958 . S
H1278 C1263 0.961 . S
H1279 C1263 0.960 . S
C1280 C1281 1.391 . S
C1280 C1282 1.394 . S
C1280 H1296 0.931 . S
C1281 C1280 1.391 . S
C1281 C1285 1.376 . S
C1282 C1280 1.394 . S
C1282 C1283 1.369 . S
C1282 C1286 1.531 . S
C1283 C1282 1.369 . S
C1283 C1284 1.410 . S
C1283 C1291 1.503 . S
C1284 C1283 1.410 . S
C1284 C1285 1.392 . S
C1284 C1287 1.511 . S
C1285 C1281 1.376 . S
C1285 C1284 1.392 . S
C1285 H1297 0.929 . S
C1286 C1282 1.531 . S
C1286 H1298 0.960 . S
C1286 H1299 0.962 . S
C1286 H1300 0.960 . S
C1287 C1284 1.511 . S
C1287 H1301 0.961 . S
C1287 H1302 0.961 . S
C1287 H1303 0.961 . S
C1288 C1289 1.370 . S
C1288 C1290 1.363 . S
C1288 H1304 0.931 . S
C1289 C1288 1.370 . S
C1289 C1293 1.408 . S
C1290 C1288 1.363 . S
C1290 C1291 1.370 . S
C1290 C1294 1.524 . S
C1291 C1283 1.503 . S
C1291 C1290 1.370 . S
C1291 C1292 1.403 . S
C1292 C1291 1.403 . S
C1292 C1293 1.404 . S
C1292 C1295 1.539 . S
C1293 C1289 1.408 . S
C1293 C1292 1.404 . S
C1293 H1305 0.930 . S
C1294 C1290 1.524 . S
C1294 H1306 0.956 . S
C1294 H1307 0.961 . S
C1294 H1308 0.961 . S
C1295 C1292 1.539 . S
C1295 H1309 0.958 . S
C1295 H1310 0.961 . S
C1295 H1311 0.960 . S
H1296 C1280 0.931 . S
H1297 C1285 0.929 . S
H1298 C1286 0.960 . S
H1299 C1286 0.962 . S
H1300 C1286 0.960 . S
H1301 C1287 0.961 . S
H1302 C1287 0.961 . S
H1303 C1287 0.961 . S
H1304 C1288 0.931 . S
H1305 C1293 0.930 . S
H1306 C1294 0.956 . S
H1307 C1294 0.961 . S
H1308 C1294 0.961 . S
H1309 C1295 0.958 . S
H1310 C1295 0.961 . S
H1311 C1295 0.960 . S
C1312 C1313 1.391 . S
C1312 C1314 1.394 . S
C1312 H1328 0.931 . S
C1313 C1312 1.391 . S
C1313 C1317 1.376 . S
C1314 C1312 1.394 . S
C1314 C1315 1.369 . S
C1314 C1318 1.531 . S
C1315 C1314 1.369 . S
C1315 C1316 1.410 . S
C1315 C1323 1.503 . S
C1316 C1315 1.410 . S
C1316 C1317 1.392 . S
C1316 C1319 1.511 . S
C1317 C1313 1.376 . S
C1317 C1316 1.392 . S
C1317 H1329 0.929 . S
C1318 C1314 1.531 . S
C1318 H1330 0.960 . S
C1318 H1331 0.962 . S
C1318 H1332 0.960 . S
C1319 C1316 1.511 . S
C1319 H1333 0.961 . S
C1319 H1334 0.961 . S
C1319 H1335 0.961 . S
C1320 C1321 1.370 . S
C1320 C1322 1.363 . S
C1320 H1336 0.931 . S
C1321 C1320 1.370 . S
C1321 C1325 1.408 . S
C1322 C1320 1.363 . S
C1322 C1323 1.370 . S
C1322 C1326 1.524 . S
C1323 C1315 1.503 . S
C1323 C1322 1.370 . S
C1323 C1324 1.403 . S
C1324 C1323 1.403 . S
C1324 C1325 1.404 . S
C1324 C1327 1.539 . S
C1325 C1321 1.408 . S
C1325 C1324 1.404 . S
C1325 H1337 0.930 . S
C1326 C1322 1.524 . S
C1326 H1338 0.956 . S
C1326 H1339 0.961 . S
C1326 H1340 0.961 . S
C1327 C1324 1.539 . S
C1327 H1341 0.958 . S
C1327 H1342 0.961 . S
C1327 H1343 0.960 . S
H1328 C1312 0.931 . S
H1329 C1317 0.929 . S
H1330 C1318 0.960 . S
H1331 C1318 0.962 . S
H1332 C1318 0.960 . S
H1333 C1319 0.961 . S
H1334 C1319 0.961 . S
H1335 C1319 0.961 . S
H1336 C1320 0.931 . S
H1337 C1325 0.930 . S
H1338 C1326 0.956 . S
H1339 C1326 0.961 . S
H1340 C1326 0.961 . S
H1341 C1327 0.958 . S
H1342 C1327 0.961 . S
H1343 C1327 0.960 . S
C1344 C1345 1.391 . S
C1344 C1346 1.394 1_556 S
C1344 H1360 0.931 1_556 S
C1345 C1344 1.391 . S
C1345 C1349 1.376 . S
C1346 C1344 1.394 1_554 S
C1346 C1347 1.369 1_554 S
C1346 C1350 1.531 . S
C1347 C1346 1.369 1_556 S
C1347 C1348 1.410 . S
C1347 C1355 1.503 1_556 S
C1348 C1347 1.410 . S
C1348 C1349 1.392 . S
C1348 C1351 1.511 . S
C1349 C1345 1.376 . S
C1349 C1348 1.392 . S
C1349 H1361 0.929 . S
C1350 C1346 1.531 . S
C1350 H1362 0.960 . S
C1350 H1363 0.962 . S
C1350 H1364 0.960 . S
C1351 C1348 1.511 . S
C1351 H1365 0.961 . S
C1351 H1366 0.961 . S
C1351 H1367 0.961 . S
C1352 C1353 1.370 . S
C1352 C1354 1.363 . S
C1352 H1368 0.931 . S
C1353 C1352 1.370 . S
C1353 C1357 1.408 . S
C1354 C1352 1.363 . S
C1354 C1355 1.370 . S
C1354 C1358 1.524 1_554 S
C1355 C1347 1.503 1_554 S
C1355 C1354 1.370 . S
C1355 C1356 1.403 . S
C1356 C1355 1.403 . S
C1356 C1357 1.404 . S
C1356 C1359 1.539 . S
C1357 C1353 1.408 . S
C1357 C1356 1.404 . S
C1357 H1369 0.930 . S
C1358 C1354 1.524 1_556 S
C1358 H1370 0.956 . S
C1358 H1371 0.961 . S
C1358 H1372 0.961 . S
C1359 C1356 1.539 . S
C1359 H1373 0.958 . S
C1359 H1374 0.961 . S
C1359 H1375 0.960 . S
H1360 C1344 0.931 1_554 S
H1361 C1349 0.929 . S
H1362 C1350 0.960 . S
H1363 C1350 0.962 . S
H1364 C1350 0.960 . S
H1365 C1351 0.961 . S
H1366 C1351 0.961 . S
H1367 C1351 0.961 . S
H1368 C1352 0.931 . S
H1369 C1357 0.930 . S
H1370 C1358 0.956 . S
H1371 C1358 0.961 . S
H1372 C1358 0.961 . S
H1373 C1359 0.958 . S
H1374 C1359 0.961 . S
H1375 C1359 0.960 . S
C1376 C1377 1.391 . S
C1376 C1378 1.394 . S
C1376 H1392 0.931 . S
C1377 C1376 1.391 . S
C1377 C1381 1.376 . S
C1378 C1376 1.394 . S
C1378 C1379 1.369 . S
C1378 C1382 1.531 . S
C1379 C1378 1.369 . S
C1379 C1380 1.410 . S
C1379 C1387 1.503 . S
C1380 C1379 1.410 . S
C1380 C1381 1.392 . S
C1380 C1383 1.511 . S
C1381 C1377 1.376 . S
C1381 C1380 1.392 . S
C1381 H1393 0.929 . S
C1382 C1378 1.531 . S
C1382 H1394 0.960 . S
C1382 H1395 0.962 . S
C1382 H1396 0.960 . S
C1383 C1380 1.511 . S
C1383 H1397 0.961 . S
C1383 H1398 0.961 . S
C1383 H1399 0.961 . S
C1384 C1385 1.370 . S
C1384 C1386 1.363 . S
C1384 H1400 0.931 . S
C1385 C1384 1.370 . S
C1385 C1389 1.408 . S
C1386 C1384 1.363 . S
C1386 C1387 1.370 . S
C1386 C1390 1.524 . S
C1387 C1379 1.503 . S
C1387 C1386 1.370 . S
C1387 C1388 1.403 . S
C1388 C1387 1.403 . S
C1388 C1389 1.404 . S
C1388 C1391 1.539 . S
C1389 C1385 1.408 . S
C1389 C1388 1.404 . S
C1389 H1401 0.930 . S
C1390 C1386 1.524 . S
C1390 H1402 0.956 . S
C1390 H1403 0.961 . S
C1390 H1404 0.961 . S
C1391 C1388 1.539 . S
C1391 H1405 0.958 . S
C1391 H1406 0.961 . S
C1391 H1407 0.960 . S
H1392 C1376 0.931 . S
H1393 C1381 0.929 . S
H1394 C1382 0.960 . S
H1395 C1382 0.962 . S
H1396 C1382 0.960 . S
H1397 C1383 0.961 . S
H1398 C1383 0.961 . S
H1399 C1383 0.961 . S
H1400 C1384 0.931 . S
H1401 C1389 0.930 . S
H1402 C1390 0.956 . S
H1403 C1390 0.961 . S
H1404 C1390 0.961 . S
H1405 C1391 0.958 . S
H1406 C1391 0.961 . S
H1407 C1391 0.960 . S
C1408 C1409 1.391 . S
C1408 C1410 1.394 . S
C1408 H1424 0.931 . S
C1409 C1408 1.391 . S
C1409 C1413 1.376 . S
C1410 C1408 1.394 . S
C1410 C1411 1.369 . S
C1410 C1414 1.531 . S
C1411 C1410 1.369 . S
C1411 C1412 1.410 . S
C1411 C1419 1.503 . S
C1412 C1411 1.410 . S
C1412 C1413 1.392 . S
C1412 C1415 1.511 . S
C1413 C1409 1.376 . S
C1413 C1412 1.392 . S
C1413 H1425 0.929 . S
C1414 C1410 1.531 . S
C1414 H1426 0.960 . S
C1414 H1427 0.962 . S
C1414 H1428 0.960 . S
C1415 C1412 1.511 . S
C1415 H1429 0.961 . S
C1415 H1430 0.961 . S
C1415 H1431 0.961 . S
C1416 C1417 1.370 . S
C1416 C1418 1.363 . S
C1416 H1432 0.931 . S
C1417 C1416 1.370 . S
C1417 C1421 1.408 . S
C1418 C1416 1.363 . S
C1418 C1419 1.370 . S
C1418 C1422 1.524 . S
C1419 C1411 1.503 . S
C1419 C1418 1.370 . S
C1419 C1420 1.403 . S
C1420 C1419 1.403 . S
C1420 C1421 1.404 . S
C1420 C1423 1.539 . S
C1421 C1417 1.408 . S
C1421 C1420 1.404 . S
C1421 H1433 0.930 . S
C1422 C1418 1.524 . S
C1422 H1434 0.956 . S
C1422 H1435 0.961 . S
C1422 H1436 0.961 . S
C1423 C1420 1.539 . S
C1423 H1437 0.958 . S
C1423 H1438 0.961 . S
C1423 H1439 0.960 . S
H1424 C1408 0.931 . S
H1425 C1413 0.929 . S
H1426 C1414 0.960 . S
H1427 C1414 0.962 . S
H1428 C1414 0.960 . S
H1429 C1415 0.961 . S
H1430 C1415 0.961 . S
H1431 C1415 0.961 . S
H1432 C1416 0.931 . S
H1433 C1421 0.930 . S
H1434 C1422 0.956 . S
H1435 C1422 0.961 . S
H1436 C1422 0.961 . S
H1437 C1423 0.958 . S
H1438 C1423 0.961 . S
H1439 C1423 0.960 . S
C1440 C1441 1.391 . S
C1440 C1442 1.394 . S
C1440 H1456 0.931 . S
C1441 C1440 1.391 . S
C1441 C1445 1.376 . S
C1442 C1440 1.394 . S
C1442 C1443 1.369 . S
C1442 C1446 1.531 . S
C1443 C1442 1.369 . S
C1443 C1444 1.410 . S
C1443 C1451 1.503 . S
C1444 C1443 1.410 . S
C1444 C1445 1.392 . S
C1444 C1447 1.511 . S
C1445 C1441 1.376 . S
C1445 C1444 1.392 . S
C1445 H1457 0.929 . S
C1446 C1442 1.531 . S
C1446 H1458 0.960 . S
C1446 H1459 0.962 . S
C1446 H1460 0.960 . S
C1447 C1444 1.511 . S
C1447 H1461 0.961 . S
C1447 H1462 0.961 . S
C1447 H1463 0.961 . S
C1448 C1449 1.370 . S
C1448 C1450 1.363 . S
C1448 H1464 0.931 . S
C1449 C1448 1.370 . S
C1449 C1453 1.408 . S
C1450 C1448 1.363 . S
C1450 C1451 1.370 . S
C1450 C1454 1.524 . S
C1451 C1443 1.503 . S
C1451 C1450 1.370 . S
C1451 C1452 1.403 . S
C1452 C1451 1.403 . S
C1452 C1453 1.404 . S
C1452 C1455 1.539 . S
C1453 C1449 1.408 . S
C1453 C1452 1.404 . S
C1453 H1465 0.930 . S
C1454 C1450 1.524 . S
C1454 H1466 0.956 . S
C1454 H1467 0.961 . S
C1454 H1468 0.961 . S
C1455 C1452 1.539 . S
C1455 H1469 0.958 . S
C1455 H1470 0.961 . S
C1455 H1471 0.960 . S
H1456 C1440 0.931 . S
H1457 C1445 0.929 . S
H1458 C1446 0.960 . S
H1459 C1446 0.962 . S
H1460 C1446 0.960 . S
H1461 C1447 0.961 . S
H1462 C1447 0.961 . S
H1463 C1447 0.961 . S
H1464 C1448 0.931 . S
H1465 C1453 0.930 . S
H1466 C1454 0.956 . S
H1467 C1454 0.961 . S
H1468 C1454 0.961 . S
H1469 C1455 0.958 . S
H1470 C1455 0.961 . S
H1471 C1455 0.960 . S
C1472 C1473 1.391 . S
C1472 C1474 1.394 . S
C1472 H1488 0.931 . S
C1473 C1472 1.391 . S
C1473 C1477 1.376 . S
C1474 C1472 1.394 . S
C1474 C1475 1.369 . S
C1474 C1478 1.531 . S
C1475 C1474 1.369 . S
C1475 C1476 1.410 . S
C1475 C1483 1.503 . S
C1476 C1475 1.410 . S
C1476 C1477 1.392 . S
C1476 C1479 1.511 . S
C1477 C1473 1.376 . S
C1477 C1476 1.392 . S
C1477 H1489 0.929 . S
C1478 C1474 1.531 . S
C1478 H1490 0.960 . S
C1478 H1491 0.962 . S
C1478 H1492 0.960 . S
C1479 C1476 1.511 . S
C1479 H1493 0.961 . S
C1479 H1494 0.961 . S
C1479 H1495 0.961 . S
C1480 C1481 1.370 . S
C1480 C1482 1.363 . S
C1480 H1496 0.931 . S
C1481 C1480 1.370 . S
C1481 C1485 1.408 . S
C1482 C1480 1.363 . S
C1482 C1483 1.370 . S
C1482 C1486 1.524 . S
C1483 C1475 1.503 . S
C1483 C1482 1.370 . S
C1483 C1484 1.403 . S
C1484 C1483 1.403 . S
C1484 C1485 1.404 . S
C1484 C1487 1.539 . S
C1485 C1481 1.408 . S
C1485 C1484 1.404 . S
C1485 H1497 0.930 . S
C1486 C1482 1.524 . S
C1486 H1498 0.956 . S
C1486 H1499 0.961 . S
C1486 H1500 0.961 . S
C1487 C1484 1.539 . S
C1487 H1501 0.958 . S
C1487 H1502 0.961 . S
C1487 H1503 0.960 . S
H1488 C1472 0.931 . S
H1489 C1477 0.929 . S
H1490 C1478 0.960 . S
H1491 C1478 0.962 . S
H1492 C1478 0.960 . S
H1493 C1479 0.961 . S
H1494 C1479 0.961 . S
H1495 C1479 0.961 . S
H1496 C1480 0.931 . S
H1497 C1485 0.930 . S
H1498 C1486 0.956 . S
H1499 C1486 0.961 . S
H1500 C1486 0.961 . S
H1501 C1487 0.958 . S
H1502 C1487 0.961 . S
H1503 C1487 0.960 . S
C1504 C1505 1.391 . S
C1504 C1506 1.394 . S
C1504 H1520 0.931 . S
C1505 C1504 1.391 . S
C1505 C1509 1.376 . S
C1506 C1504 1.394 . S
C1506 C1507 1.369 . S
C1506 C1510 1.531 . S
C1507 C1506 1.369 . S
C1507 C1508 1.410 . S
C1507 C1515 1.503 . S
C1508 C1507 1.410 . S
C1508 C1509 1.392 . S
C1508 C1511 1.511 . S
C1509 C1505 1.376 . S
C1509 C1508 1.392 . S
C1509 H1521 0.929 . S
C1510 C1506 1.531 . S
C1510 H1522 0.960 . S
C1510 H1523 0.962 . S
C1510 H1524 0.960 . S
C1511 C1508 1.511 . S
C1511 H1525 0.961 . S
C1511 H1526 0.961 . S
C1511 H1527 0.961 . S
C1512 C1513 1.370 . S
C1512 C1514 1.363 . S
C1512 H1528 0.931 . S
C1513 C1512 1.370 . S
C1513 C1517 1.408 . S
C1514 C1512 1.363 . S
C1514 C1515 1.370 . S
C1514 C1518 1.524 . S
C1515 C1507 1.503 . S
C1515 C1514 1.370 . S
C1515 C1516 1.403 . S
C1516 C1515 1.403 . S
C1516 C1517 1.404 . S
C1516 C1519 1.539 . S
C1517 C1513 1.408 . S
C1517 C1516 1.404 . S
C1517 H1529 0.930 . S
C1518 C1514 1.524 . S
C1518 H1530 0.956 . S
C1518 H1531 0.961 . S
C1518 H1532 0.961 . S
C1519 C1516 1.539 . S
C1519 H1533 0.958 . S
C1519 H1534 0.961 . S
C1519 H1535 0.960 . S
H1520 C1504 0.931 . S
H1521 C1509 0.929 . S
H1522 C1510 0.960 . S
H1523 C1510 0.962 . S
H1524 C1510 0.960 . S
H1525 C1511 0.961 . S
H1526 C1511 0.961 . S
H1527 C1511 0.961 . S
H1528 C1512 0.931 . S
H1529 C1517 0.930 . S
H1530 C1518 0.956 . S
H1531 C1518 0.961 . S
H1532 C1518 0.961 . S
H1533 C1519 0.958 . S
H1534 C1519 0.961 . S
H1535 C1519 0.960 . S
C1536 C1537 1.391 . S
C1536 C1538 1.394 . S
C1536 H1552 0.931 . S
C1537 C1536 1.391 . S
C1537 C1541 1.376 . S
C1538 C1536 1.394 . S
C1538 C1539 1.369 . S
C1538 C1542 1.531 . S
C1539 C1538 1.369 . S
C1539 C1540 1.410 . S
C1539 C1547 1.503 . S
C1540 C1539 1.410 . S
C1540 C1541 1.392 . S
C1540 C1543 1.511 . S
C1541 C1537 1.376 . S
C1541 C1540 1.392 . S
C1541 H1553 0.929 . S
C1542 C1538 1.531 . S
C1542 H1554 0.960 . S
C1542 H1555 0.962 . S
C1542 H1556 0.960 . S
C1543 C1540 1.511 . S
C1543 H1557 0.961 . S
C1543 H1558 0.961 . S
C1543 H1559 0.961 . S
C1544 C1545 1.370 . S
C1544 C1546 1.363 . S
C1544 H1560 0.931 . S
C1545 C1544 1.370 . S
C1545 C1549 1.408 . S
C1546 C1544 1.363 . S
C1546 C1547 1.370 . S
C1546 C1550 1.524 . S
C1547 C1539 1.503 . S
C1547 C1546 1.370 . S
C1547 C1548 1.403 . S
C1548 C1547 1.403 . S
C1548 C1549 1.404 . S
C1548 C1551 1.539 . S
C1549 C1545 1.408 . S
C1549 C1548 1.404 . S
C1549 H1561 0.930 . S
C1550 C1546 1.524 . S
C1550 H1562 0.956 . S
C1550 H1563 0.961 . S
C1550 H1564 0.961 . S
C1551 C1548 1.539 . S
C1551 H1565 0.958 . S
C1551 H1566 0.961 . S
C1551 H1567 0.960 . S
H1552 C1536 0.931 . S
H1553 C1541 0.929 . S
H1554 C1542 0.960 . S
H1555 C1542 0.962 . S
H1556 C1542 0.960 . S
H1557 C1543 0.961 . S
H1558 C1543 0.961 . S
H1559 C1543 0.961 . S
H1560 C1544 0.931 . S
H1561 C1549 0.930 . S
H1562 C1550 0.956 . S
H1563 C1550 0.961 . S
H1564 C1550 0.961 . S
H1565 C1551 0.958 . S
H1566 C1551 0.961 . S
H1567 C1551 0.960 . S
C1568 C1569 1.391 . S
C1568 C1570 1.394 . S
C1568 H1584 0.931 . S
C1569 C1568 1.391 . S
C1569 C1573 1.376 . S
C1570 C1568 1.394 . S
C1570 C1571 1.369 . S
C1570 C1574 1.531 . S
C1571 C1570 1.369 . S
C1571 C1572 1.410 . S
C1571 C1579 1.503 . S
C1572 C1571 1.410 . S
C1572 C1573 1.392 . S
C1572 C1575 1.511 . S
C1573 C1569 1.376 . S
C1573 C1572 1.392 . S
C1573 H1585 0.929 . S
C1574 C1570 1.531 . S
C1574 H1586 0.960 . S
C1574 H1587 0.962 . S
C1574 H1588 0.960 . S
C1575 C1572 1.511 . S
C1575 H1589 0.961 . S
C1575 H1590 0.961 . S
C1575 H1591 0.961 . S
C1576 C1577 1.370 . S
C1576 C1578 1.363 . S
C1576 H1592 0.931 . S
C1577 C1576 1.370 . S
C1577 C1581 1.408 . S
C1578 C1576 1.363 . S
C1578 C1579 1.370 . S
C1578 C1582 1.524 . S
C1579 C1571 1.503 . S
C1579 C1578 1.370 . S
C1579 C1580 1.403 . S
C1580 C1579 1.403 . S
C1580 C1581 1.404 . S
C1580 C1583 1.539 . S
C1581 C1577 1.408 . S
C1581 C1580 1.404 . S
C1581 H1593 0.930 . S
C1582 C1578 1.524 . S
C1582 H1594 0.956 . S
C1582 H1595 0.961 . S
C1582 H1596 0.961 . S
C1583 C1580 1.539 . S
C1583 H1597 0.958 . S
C1583 H1598 0.961 . S
C1583 H1599 0.960 . S
H1584 C1568 0.931 . S
H1585 C1573 0.929 . S
H1586 C1574 0.960 . S
H1587 C1574 0.962 . S
H1588 C1574 0.960 . S
H1589 C1575 0.961 . S
H1590 C1575 0.961 . S
H1591 C1575 0.961 . S
H1592 C1576 0.931 . S
H1593 C1581 0.930 . S
H1594 C1582 0.956 . S
H1595 C1582 0.961 . S
H1596 C1582 0.961 . S
H1597 C1583 0.958 . S
H1598 C1583 0.961 . S
H1599 C1583 0.960 . S
C1600 C1601 1.391 . S
C1600 C1602 1.394 . S
C1600 H1616 0.931 . S
C1601 C1600 1.391 . S
C1601 C1605 1.376 . S
C1602 C1600 1.394 . S
C1602 C1603 1.369 . S
C1602 C1606 1.531 . S
C1603 C1602 1.369 . S
C1603 C1604 1.410 . S
C1603 C1611 1.503 . S
C1604 C1603 1.410 . S
C1604 C1605 1.392 . S
C1604 C1607 1.511 . S
C1605 C1601 1.376 . S
C1605 C1604 1.392 . S
C1605 H1617 0.929 . S
C1606 C1602 1.531 . S
C1606 H1618 0.960 . S
C1606 H1619 0.962 . S
C1606 H1620 0.960 . S
C1607 C1604 1.511 . S
C1607 H1621 0.961 . S
C1607 H1622 0.961 . S
C1607 H1623 0.961 . S
C1608 C1609 1.370 . S
C1608 C1610 1.363 . S
C1608 H1624 0.931 . S
C1609 C1608 1.370 . S
C1609 C1613 1.408 . S
C1610 C1608 1.363 . S
C1610 C1611 1.370 . S
C1610 C1614 1.524 . S
C1611 C1603 1.503 . S
C1611 C1610 1.370 . S
C1611 C1612 1.403 . S
C1612 C1611 1.403 . S
C1612 C1613 1.404 . S
C1612 C1615 1.539 . S
C1613 C1609 1.408 . S
C1613 C1612 1.404 . S
C1613 H1625 0.930 . S
C1614 C1610 1.524 . S
C1614 H1626 0.956 . S
C1614 H1627 0.961 . S
C1614 H1628 0.961 . S
C1615 C1612 1.539 . S
C1615 H1629 0.958 . S
C1615 H1630 0.961 . S
C1615 H1631 0.960 . S
H1616 C1600 0.931 . S
H1617 C1605 0.929 . S
H1618 C1606 0.960 . S
H1619 C1606 0.962 . S
H1620 C1606 0.960 . S
H1621 C1607 0.961 . S
H1622 C1607 0.961 . S
H1623 C1607 0.961 . S
H1624 C1608 0.931 . S
H1625 C1613 0.930 . S
H1626 C1614 0.956 . S
H1627 C1614 0.961 . S
H1628 C1614 0.961 . S
H1629 C1615 0.958 . S
H1630 C1615 0.961 . S
H1631 C1615 0.960 . S
C1632 C1633 1.391 . S
C1632 C1634 1.394 . S
C1632 H1648 0.931 . S
C1633 C1632 1.391 . S
C1633 C1637 1.376 . S
C1634 C1632 1.394 . S
C1634 C1635 1.369 . S
C1634 C1638 1.531 . S
C1635 C1634 1.369 . S
C1635 C1636 1.410 . S
C1635 C1643 1.503 . S
C1636 C1635 1.410 . S
C1636 C1637 1.392 . S
C1636 C1639 1.511 . S
C1637 C1633 1.376 . S
C1637 C1636 1.392 . S
C1637 H1649 0.929 . S
C1638 C1634 1.531 . S
C1638 H1650 0.960 . S
C1638 H1651 0.962 . S
C1638 H1652 0.960 . S
C1639 C1636 1.511 . S
C1639 H1653 0.961 . S
C1639 H1654 0.961 . S
C1639 H1655 0.961 . S
C1640 C1641 1.370 . S
C1640 C1642 1.363 . S
C1640 H1656 0.931 . S
C1641 C1640 1.370 . S
C1641 C1645 1.408 . S
C1642 C1640 1.363 . S
C1642 C1643 1.370 . S
C1642 C1646 1.524 . S
C1643 C1635 1.503 . S
C1643 C1642 1.370 . S
C1643 C1644 1.403 . S
C1644 C1643 1.403 . S
C1644 C1645 1.404 . S
C1644 C1647 1.540 1_554 S
C1645 C1641 1.408 . S
C1645 C1644 1.404 . S
C1645 H1657 0.930 . S
C1646 C1642 1.524 . S
C1646 H1658 0.956 . S
C1646 H1659 0.961 . S
C1646 H1660 0.961 . S
C1647 C1644 1.540 1_556 S
C1647 H1661 0.957 . S
C1647 H1662 0.961 . S
C1647 H1663 0.960 1_556 S
H1648 C1632 0.931 . S
H1649 C1637 0.929 . S
H1650 C1638 0.960 . S
H1651 C1638 0.962 . S
H1652 C1638 0.960 . S
H1653 C1639 0.961 . S
H1654 C1639 0.961 . S
H1655 C1639 0.961 . S
H1656 C1640 0.931 . S
H1657 C1645 0.930 . S
H1658 C1646 0.956 . S
H1659 C1646 0.961 . S
H1660 C1646 0.961 . S
H1661 C1647 0.957 . S
H1662 C1647 0.961 . S
H1663 C1647 0.960 1_554 S
C1664 C1665 1.391 . S
C1664 C1666 1.394 . S
C1664 H1680 0.931 . S
C1665 C1664 1.391 . S
C1665 C1669 1.376 1_655 S
C1666 C1664 1.394 . S
C1666 C1667 1.369 . S
C1666 C1670 1.531 . S
C1667 C1666 1.369 . S
C1667 C1668 1.410 1_655 S
C1667 C1675 1.503 . S
C1668 C1667 1.410 1_455 S
C1668 C1669 1.392 . S
C1668 C1671 1.511 . S
C1669 C1665 1.376 1_455 S
C1669 C1668 1.392 . S
C1669 H1681 0.929 . S
C1670 C1666 1.531 . S
C1670 H1682 0.960 . S
C1670 H1683 0.962 . S
C1670 H1684 0.960 . S
C1671 C1668 1.511 . S
C1671 H1685 0.961 . S
C1671 H1686 0.961 . S
C1671 H1687 0.961 . S
C1672 C1673 1.370 . S
C1672 C1674 1.363 . S
C1672 H1688 0.931 . S
C1673 C1672 1.370 . S
C1673 C1677 1.408 1_455 S
C1674 C1672 1.363 . S
C1674 C1675 1.370 1_455 S
C1674 C1678 1.524 . S
C1675 C1667 1.503 . S
C1675 C1674 1.370 1_655 S
C1675 C1676 1.403 . S
C1676 C1675 1.403 . S
C1676 C1677 1.404 . S
C1676 C1679 1.539 . S
C1677 C1673 1.408 1_655 S
C1677 C1676 1.404 . S
C1677 H1689 0.930 . S
C1678 C1674 1.524 . S
C1678 H1690 0.956 . S
C1678 H1691 0.961 . S
C1678 H1692 0.961 . S
C1679 C1676 1.539 . S
C1679 H1693 0.958 . S
C1679 H1694 0.961 . S
C1679 H1695 0.960 . S
H1680 C1664 0.931 . S
H1681 C1669 0.929 . S
H1682 C1670 0.960 . S
H1683 C1670 0.962 . S
H1684 C1670 0.960 . S
H1685 C1671 0.961 . S
H1686 C1671 0.961 . S
H1687 C1671 0.961 . S
H1688 C1672 0.931 . S
H1689 C1677 0.930 . S
H1690 C1678 0.956 . S
H1691 C1678 0.961 . S
H1692 C1678 0.961 . S
H1693 C1679 0.958 . S
H1694 C1679 0.961 . S
H1695 C1679 0.960 . S
C1696 C1697 1.391 . S
C1696 C1698 1.394 . S
C1696 H1712 0.931 . S
C1697 C1696 1.391 . S
C1697 C1701 1.376 . S
C1698 C1696 1.394 . S
C1698 C1699 1.369 . S
C1698 C1702 1.528 . S
C1699 C1698 1.369 . S
C1699 C1700 1.410 . S
C1699 C1707 1.503 . S
C1700 C1699 1.410 . S
C1700 C1701 1.392 . S
C1700 C1703 1.511 . S
C1701 C1697 1.376 . S
C1701 C1700 1.392 . S
C1701 H1713 0.929 . S
C1702 C1698 1.528 . S
C1702 H1714 0.980 . S
C1702 H1715 0.942 1_545 S
C1702 H1716 0.963 . S
C1703 C1700 1.511 . S
C1703 H1717 0.961 . S
C1703 H1718 0.961 . S
C1703 H1719 0.961 . S
C1704 C1705 1.370 . S
C1704 C1706 1.363 . S
C1704 H1720 0.931 . S
C1705 C1704 1.370 . S
C1705 C1709 1.408 1_565 S
C1706 C1704 1.363 . S
C1706 C1707 1.370 1_565 S
C1706 C1710 1.524 . S
C1707 C1699 1.503 . S
C1707 C1706 1.370 1_545 S
C1707 C1708 1.403 . S
C1708 C1707 1.403 . S
C1708 C1709 1.404 . S
C1708 C1711 1.539 . S
C1709 C1705 1.408 1_545 S
C1709 C1708 1.404 . S
C1709 H1721 0.930 . S
C1710 C1706 1.524 . S
C1710 H1722 0.956 . S
C1710 H1723 0.961 . S
C1710 H1724 0.961 . S
C1711 C1708 1.539 . S
C1711 H1725 0.958 . S
C1711 H1726 0.961 . S
C1711 H1727 0.960 . S
H1712 C1696 0.931 . S
H1713 C1701 0.929 . S
H1714 C1702 0.980 . S
H1715 C1702 0.942 1_565 S
H1716 C1702 0.963 . S
H1717 C1703 0.961 . S
H1718 C1703 0.961 . S
H1719 C1703 0.961 . S
H1720 C1704 0.931 . S
H1721 C1709 0.930 . S
H1722 C1710 0.956 . S
H1723 C1710 0.961 . S
H1724 C1710 0.961 . S
H1725 C1711 0.958 . S
H1726 C1711 0.961 . S
H1727 C1711 0.960 . S
C1728 C1729 1.391 . S
C1728 C1730 1.394 . S
C1728 H1744 0.931 . S
C1729 C1728 1.391 . S
C1729 C1733 1.376 . S
C1730 C1728 1.394 . S
C1730 C1731 1.369 . S
C1730 C1734 1.531 . S
C1731 C1730 1.369 . S
C1731 C1732 1.410 . S
C1731 C1739 1.503 . S
C1732 C1731 1.410 . S
C1732 C1733 1.392 . S
C1732 C1735 1.511 . S
C1733 C1729 1.376 . S
C1733 C1732 1.392 . S
C1733 H1745 0.929 . S
C1734 C1730 1.531 . S
C1734 H1746 0.960 . S
C1734 H1747 0.962 . S
C1734 H1748 0.960 . S
C1735 C1732 1.511 . S
C1735 H1749 0.961 . S
C1735 H1750 0.961 . S
C1735 H1751 0.961 . S
C1736 C1737 1.370 . S
C1736 C1738 1.363 . S
C1736 H1752 0.931 . S
C1737 C1736 1.370 . S
C1737 C1741 1.408 . S
C1738 C1736 1.363 . S
C1738 C1739 1.370 . S
C1738 C1742 1.524 . S
C1739 C1731 1.503 . S
C1739 C1738 1.370 . S
C1739 C1740 1.403 . S
C1740 C1739 1.403 . S
C1740 C1741 1.404 . S
C1740 C1743 1.539 . S
C1741 C1737 1.408 . S
C1741 C1740 1.404 . S
C1741 H1753 0.930 . S
C1742 C1738 1.524 . S
C1742 H1754 0.956 . S
C1742 H1755 0.961 . S
C1742 H1756 0.961 . S
C1743 C1740 1.539 . S
C1743 H1757 0.958 . S
C1743 H1758 0.961 . S
C1743 H1759 0.960 . S
H1744 C1728 0.931 . S
H1745 C1733 0.929 . S
H1746 C1734 0.960 . S
H1747 C1734 0.962 . S
H1748 C1734 0.960 . S
H1749 C1735 0.961 . S
H1750 C1735 0.961 . S
H1751 C1735 0.961 . S
H1752 C1736 0.931 . S
H1753 C1741 0.930 . S
H1754 C1742 0.956 . S
H1755 C1742 0.961 . S
H1756 C1742 0.961 . S
H1757 C1743 0.958 . S
H1758 C1743 0.961 . S
H1759 C1743 0.960 . S
C1760 C1761 1.391 1_655 S
C1760 C1762 1.394 . S
C1760 H1776 0.931 . S
C1761 C1760 1.391 1_455 S
C1761 C1765 1.376 . S
C1762 C1760 1.394 . S
C1762 C1763 1.369 1_655 S
C1762 C1766 1.531 . S
C1763 C1762 1.369 1_455 S
C1763 C1764 1.410 . S
C1763 C1771 1.503 . S
C1764 C1763 1.410 . S
C1764 C1765 1.392 . S
C1764 C1767 1.511 . S
C1765 C1761 1.376 . S
C1765 C1764 1.392 . S
C1765 H1777 0.929 . S
C1766 C1762 1.531 . S
C1766 H1778 0.960 . S
C1766 H1779 0.962 . S
C1766 H1780 0.960 . S
C1767 C1764 1.511 . S
C1767 H1781 0.961 . S
C1767 H1782 0.961 . S
C1767 H1783 0.961 . S
C1768 C1769 1.370 . S
C1768 C1770 1.363 . S
C1768 H1784 0.931 . S
C1769 C1768 1.370 . S
C1769 C1773 1.408 1_655 S
C1770 C1768 1.363 . S
C1770 C1771 1.370 1_655 S
C1770 C1774 1.524 . S
C1771 C1763 1.503 . S
C1771 C1770 1.370 1_455 S
C1771 C1772 1.403 . S
C1772 C1771 1.403 . S
C1772 C1773 1.404 . S
C1772 C1775 1.539 . S
C1773 C1769 1.408 1_455 S
C1773 C1772 1.404 . S
C1773 H1785 0.930 . S
C1774 C1770 1.524 . S
C1774 H1786 0.956 . S
C1774 H1787 0.961 . S
C1774 H1788 0.961 . S
C1775 C1772 1.539 . S
C1775 H1789 0.958 . S
C1775 H1790 0.961 . S
C1775 H1791 0.960 . S
H1776 C1760 0.931 . S
H1777 C1765 0.929 . S
H1778 C1766 0.960 . S
H1779 C1766 0.962 . S
H1780 C1766 0.960 . S
H1781 C1767 0.961 . S
H1782 C1767 0.961 . S
H1783 C1767 0.961 . S
H1784 C1768 0.931 . S
H1785 C1773 0.930 . S
H1786 C1774 0.956 . S
H1787 C1774 0.961 . S
H1788 C1774 0.961 . S
H1789 C1775 0.958 . S
H1790 C1775 0.961 . S
H1791 C1775 0.960 . S
C1792 C1793 1.391 . S
C1792 C1794 1.394 . S
C1792 H1808 0.931 . S
C1793 C1792 1.391 . S
C1793 C1797 1.376 1_565 S
C1794 C1792 1.394 . S
C1794 C1795 1.350 1_565 S
C1794 C1798 1.531 . S
C1795 C1794 1.350 1_545 S
C1795 C1796 1.416 . S
C1795 C1803 1.515 . S
C1796 C1795 1.416 . S
C1796 C1797 1.392 . S
C1796 C1799 1.511 . S
C1797 C1793 1.376 1_545 S
C1797 C1796 1.392 . S
C1797 H1809 0.929 . S
C1798 C1794 1.531 . S
C1798 H1810 0.960 . S
C1798 H1811 0.962 . S
C1798 H1812 0.960 . S
C1799 C1796 1.511 . S
C1799 H1813 0.961 . S
C1799 H1814 0.961 . S
C1799 H1815 0.961 . S
C1800 C1801 1.370 1_565 S
C1800 C1802 1.363 . S
C1800 H1816 0.931 . S
C1801 C1800 1.370 1_545 S
C1801 C1805 1.408 . S
C1802 C1800 1.363 . S
C1802 C1803 1.370 1_565 S
C1802 C1806 1.524 . S
C1803 C1795 1.515 . S
C1803 C1802 1.370 1_545 S
C1803 C1804 1.403 . S
C1804 C1803 1.403 . S
C1804 C1805 1.404 . S
C1804 C1807 1.539 . S
C1805 C1801 1.408 . S
C1805 C1804 1.404 . S
C1805 H1817 0.930 . S
C1806 C1802 1.524 . S
C1806 H1818 0.956 . S
C1806 H1819 0.961 . S
C1806 H1820 0.961 . S
C1807 C1804 1.539 . S
C1807 H1821 0.958 . S
C1807 H1822 0.961 . S
C1807 H1823 0.960 . S
H1808 C1792 0.931 . S
H1809 C1797 0.929 . S
H1810 C1798 0.960 . S
H1811 C1798 0.962 . S
H1812 C1798 0.960 . S
H1813 C1799 0.961 . S
H1814 C1799 0.961 . S
H1815 C1799 0.961 . S
H1816 C1800 0.931 . S
H1817 C1805 0.930 . S
H1818 C1806 0.956 . S
H1819 C1806 0.961 . S
H1820 C1806 0.961 . S
H1821 C1807 0.958 . S
H1822 C1807 0.961 . S
H1823 C1807 0.960 . S
C1057 C673 1.497 . S
C1065 C29 1.469 . S
C1089 C137 1.468 . S
C1097 C753 1.461 . S
C1121 C233 1.501 . S
C1129 C849 1.478 . S
C1153 C284 1.464 . S
C1161 C929 1.486 . S
C1185 C1025 1.488 . S
C1193 C372 1.464 . S
C1217 C557 1.499 . S
C1225 C460 1.481 . S
C1249 C909 0.940 . S
C1257 C49 0.950 . S
C1281 C117 0.939 . S
C1289 C988 0.950 . S
C1313 C196 0.942 . S
C1321 C577 0.943 . S
C1345 C636 0.947 . S
C1353 C321 0.950 . S
C1377 C733 0.954 . S
C1385 C409 0.947 . S
C1409 C812 0.954 . S
C1417 C497 0.946 . S
C1441 C20 1.655 . S
C1449 C761 1.663 . S
C1473 C145 1.655 . S
C1481 C841 1.659 . S
C1505 C937 1.661 . S
C1513 C225 1.661 . S
C1537 C293 1.661 . S
C1545 C1017 1.661 . S
C1569 C548 1.657 . S
C1577 C381 1.664 . S
C1601 C665 1.660 . S
C1609 C469 1.661 . S
C1633 C313 1.856 . S
C1641 C57 1.839 . S
C1665 C401 1.816 . S
C1673 C108 1.855 . S
C1697 C205 1.800 . S
C1705 C489 1.859 . S
C1729 C585 1.844 . S
C1737 C821 1.845 . S
C1761 C645 1.808 . S
C1769 C900 1.853 . S
C1793 C997 1.861 . S
C1801 C724 1.837 . S
