# Generated by pormake.
# Topology kag, (6)-cn, num edge types: 1
# Building blocks:
#     Node 0, Type 0, BuildingBlock: BETFEN_clean_sbu_0, # of connection points: 6
#     Node 1, Type 0, BuildingBlock: BETFEN_clean_sbu_0, # of connection points: 6
#     Node 2, Type 0, BuildingBlock: BETFEN_clean_sbu_0, # of connection points: 6
#     Edge 3, Type (0, 0), BuildingBlock: EZIPEK_clean_linker_0, # of connection points: 2
#     Edge 4, Type (0, 0), BuildingBlock: EZIPEK_clean_linker_0, # of connection points: 2
#     Edge 5, Type (0, 0), BuildingBlock: EZIPEK_clean_linker_0, # of connection points: 2
#     Edge 6, Type (0, 0), BuildingBlock: EZIPEK_clean_linker_0, # of connection points: 2
#     Edge 7, Type (0, 0), BuildingBlock: EZIPEK_clean_linker_0, # of connection points: 2
#     Edge 8, Type (0, 0), BuildingBlock: EZIPEK_clean_linker_0, # of connection points: 2
#     Edge 9, Type (0, 0), BuildingBlock: EZIPEK_clean_linker_0, # of connection points: 2
#     Edge 10, Type (0, 0), BuildingBlock: EZIPEK_clean_linker_0, # of connection points: 2
#     Edge 11, Type (0, 0), BuildingBlock: EZIPEK_clean_linker_0, # of connection points: 2
# Relax obj value: 0.120
# Max RMSD: 0.237
# Mean RMSD: 0.123
data_MOF--net-kag--node1-BETFEN_clean_sbu_0--edge1-EZIPEK_clean_linker_0
_symmetry_space_group_name_H-M    P1
_symmetry_Int_Tables_number       1
_symmetry_cell_setting            triclinic
loop_
_symmetry_equiv_pos_as_xyz
'x, y, z'
_cell_length_a     23.482607
_cell_length_b     34.46266
_cell_length_c     10.794772
_cell_angle_alpha  94.956717
_cell_angle_beta   90.98835
_cell_angle_gamma 91.90432
loop_
_atom_site_label
_atom_site_type_symbol
_atom_site_fract_x
_atom_site_fract_y
_atom_site_fract_z
_atom_type_partial_charge
Pr0 Pr 0.07547 0.47282 0.99326 0.0
Pr1 Pr 0.0814 0.55972 0.01014 0.0
C2 C 0.07662 0.39548 0.01455 0.0
C3 C 1.03368 0.36284 0.00661 0.0
C4 C 1.0313 0.33574 0.90222 0.0
C5 C 0.98851 0.30646 0.88909 0.0
C6 C 0.94487 0.30405 0.97745 0.0
C7 C 0.95229 0.32868 0.08909 0.0
C8 C 0.99491 0.35818 0.10195 0.0
C9 C 1.06548 0.50321 0.76201 0.0
C10 C 0.9528 0.51393 0.99745 0.0
C11 C 0.08069 0.63701 0.98731 0.0
C12 C 0.12379 0.6696 0.99794 0.0
C13 C 0.1286 0.69475 0.10687 0.0
C14 C 0.17157 0.72391 0.12093 0.0
C15 C 0.21308 0.72805 0.02876 0.0
C16 C 0.20301 0.70555 0.91379 0.0
C17 C 0.16017 0.67624 0.89979 0.0
C18 C 0.09055 0.52945 0.24148 0.0
C19 C 0.20433 0.5184 0.0078 0.0
O20 O 1.07486 0.42137 0.1104 0.0
O21 O 0.08725 0.41105 0.91086 0.0
O22 O 0.10116 0.51523 0.84688 0.0
O23 O 1.03412 0.47425 0.79471 0.0
O24 O 0.98232 0.54595 0.97571 0.0
O25 O 0.97845 0.48198 0.02181 0.0
O26 O 0.08425 0.61099 0.89238 0.0
O27 O 1.06788 0.62157 0.09012 0.0
O28 O 1.05533 0.51721 0.15598 0.0
O29 O 0.12101 0.55897 0.2101 0.0
O30 O 0.17458 0.48623 0.02667 0.0
O31 O 0.1789 0.5507 0.98624 0.0
H32 H 1.06258 0.33722 0.82996 0.0
H33 H 0.99084 0.2855 0.80914 0.0
H34 H 0.92683 0.3255 0.16963 0.0
H35 H 0.99743 0.37726 0.18721 0.0
H36 H 0.09904 0.69193 0.1818 0.0
H37 H 0.17082 0.74346 0.20453 0.0
H38 H 0.22656 0.71043 0.83161 0.0
H39 H 0.15554 0.65888 0.81139 0.0
Pr40 Pr 0.64193 0.01853 0.99448 0.0
Pr41 Pr 0.51629 1.01315 0.01029 0.0
C42 C 0.74947 0.04149 0.94686 0.0
C43 C 0.7762 0.08055 0.93988 0.0
C44 C 0.83125 0.08917 0.98967 0.0
C45 C 0.85497 0.12707 0.99176 0.0
C46 C 0.82364 0.15674 0.94489 0.0
C47 C 0.76878 0.14813 0.89467 0.0
C48 C 0.74532 0.11032 0.89169 0.0
C49 C 0.605 1.01266 0.23777 0.0
C50 C 0.56843 0.10048 0.01855 0.0
C51 C 0.40869 0.99027 0.05763 0.0
C52 C 0.38203 0.95125 0.06557 0.0
C53 C 0.327 0.94249 0.01594 0.0
C54 C 0.30341 0.90458 0.01439 0.0
C55 C 0.33487 0.87503 0.06165 0.0
C56 C 0.38969 0.8838 0.11185 0.0
C57 C 0.413 0.92162 0.11433 0.0
C58 C 0.55346 0.01908 0.76736 0.0
C59 C 0.58974 0.9312 0.98646 0.0
O60 O 0.71194 0.02987 0.85943 0.0
O61 O 0.73334 0.03347 0.05721 0.0
O62 O 0.58318 0.03402 0.16107 0.0
O63 O 0.64746 0.99378 0.18987 0.0
O64 O 0.52467 0.08043 0.0582 0.0
O65 O 0.61327 0.08257 0.97323 0.0
O66 O 0.44605 1.00218 0.14513 0.0
O67 O 0.42503 0.99794 0.9471 0.0
O68 O 0.57505 0.99757 0.84394 0.0
O69 O 0.51108 0.03805 0.81517 0.0
O70 O 0.63346 0.95124 0.94651 0.0
O71 O 0.54497 0.94914 0.03202 0.0
H72 H 0.8555 0.06673 0.02836 0.0
H73 H 0.89737 0.13337 0.03101 0.0
H74 H 0.74405 0.17076 0.85837 0.0
H75 H 0.70275 0.10457 0.85301 0.0
H76 H 0.30268 0.96482 0.97681 0.0
H77 H 0.26105 0.89815 0.97508 0.0
H78 H 0.41453 0.86126 0.1484 0.0
H79 H 0.45557 0.92749 0.15291 0.0
Pr80 Pr 0.58386 0.55964 0.01249 0.0
Pr81 Pr 0.57414 0.47199 0.99212 0.0
C82 C 0.58245 0.63724 0.99809 0.0
C83 C 0.58177 0.68014 0.99358 0.0
C84 C 0.58483 0.70494 0.10432 0.0
C85 C 0.58649 0.74547 0.10084 0.0
C86 C 0.58537 0.76204 0.98663 0.0
C87 C 0.58193 0.73742 0.87581 0.0
C88 C 0.58006 0.69682 0.87923 0.0
C89 C 0.59203 0.52777 0.24167 0.0
C90 C 0.4532 0.51633 0.00358 0.0
C91 C 0.57551 0.39436 0.00649 0.0
C92 C 0.57622 0.35147 0.01126 0.0
C93 C 0.57532 0.32667 0.90053 0.0
C94 C 0.57351 0.28614 0.90406 0.0
C95 C 0.57249 0.26959 0.01828 0.0
C96 C 0.57382 0.29419 0.12912 0.0
C97 C 0.57565 0.33479 0.12568 0.0
C98 C 0.56667 0.50383 0.76314 0.0
C99 C 0.70419 0.51549 0.99896 0.0
O100 O 0.57411 0.61241 0.90008 0.0
O101 O 0.59044 0.62145 0.10242 0.0
O102 O 0.55594 0.51674 0.15643 0.0
O103 O 0.62471 0.55616 0.21004 0.0
O104 O 0.47755 0.48338 0.02255 0.0
O105 O 0.48392 0.54819 0.98534 0.0
O106 O 0.57558 0.41901 0.10577 0.0
O107 O 0.57597 0.41036 0.90118 0.0
O108 O 0.60242 0.51503 0.84884 0.0
O109 O 0.53468 0.47497 0.79358 0.0
O110 O 0.67942 0.54767 0.97307 0.0
O111 O 0.67378 0.48414 0.02378 0.0
H112 H 0.5862 0.69305 0.19394 0.0
H113 H 0.58884 0.76396 0.18732 0.0
H114 H 0.58087 0.74969 0.78676 0.0
H115 H 0.57791 0.67851 0.79239 0.0
H116 H 0.57556 0.33854 0.81086 0.0
H117 H 0.57275 0.26764 0.81761 0.0
H118 H 0.57324 0.28192 0.21818 0.0
H119 H 0.57616 0.35309 0.2125 0.0
C120 C 0.10865 0.48635 0.55336 0.0
C121 C 1.07279 0.51038 0.62925 0.0
C122 C 1.04438 0.54416 0.44774 0.0
C123 C 0.08324 0.522 0.37389 0.0
N124 N 0.15832 0.47601 0.35845 0.0
N125 N 1.01323 0.56592 0.6547 0.0
C126 C 0.11707 0.4942 0.42734 0.0
C127 C 1.0425 0.54036 0.57804 0.0
N128 N 0.13378 0.45549 0.6011 0.0
N129 N 1.00857 0.56841 0.39288 0.0
H130 H 1.01066 0.56376 0.75011 0.0
H131 H 0.99534 0.59098 0.62609 0.0
H132 H 1.00982 0.57293 0.29865 0.0
H133 H 0.97476 0.58184 0.43826 0.0
H134 H 0.155 0.43421 0.54739 0.0
H135 H 0.13023 0.44953 0.69378 0.0
H136 H 0.1889 0.45886 0.39543 0.0
H137 H 0.16465 0.48032 0.26525 0.0
C138 C 0.59443 0.05077 0.44743 0.0
C139 C 0.59194 1.01443 0.37362 0.0
C140 C 0.56389 0.98093 0.55764 0.0
C141 C 0.56651 0.01727 0.63149 0.0
N142 N 0.5894 0.08626 0.65148 0.0
N143 N 0.56945 0.94539 0.35368 0.0
C144 C 0.58239 0.05213 0.5771 0.0
C145 C 0.57614 0.97956 0.42803 0.0
N146 N 0.60874 0.08413 0.39344 0.0
N147 N 0.54917 0.94763 0.61154 0.0
H148 H 0.57851 0.94295 0.25941 0.0
H149 H 0.55212 0.91955 0.38205 0.0
H150 H 0.53259 0.94779 0.70026 0.0
H151 H 0.55418 0.91957 0.57049 0.0
H152 H 0.60336 0.11214 0.43451 0.0
H153 H 0.62515 0.08404 0.30458 0.0
H154 H 0.60708 0.11199 0.62307 0.0
H155 H 0.58041 0.08873 0.74578 0.0
C156 C 0.54139 0.539 0.57672 0.0
C157 C 0.57454 0.51098 0.63083 0.0
C158 C 0.61377 0.49086 0.42649 0.0
C159 C 0.5841 0.52093 0.37436 0.0
N160 N 0.52529 0.57702 0.40112 0.0
N161 N 0.64705 0.46299 0.61254 0.0
C162 C 0.54944 0.54598 0.4499 0.0
C163 C 0.61219 0.48772 0.55716 0.0
N164 N 0.50117 0.55826 0.64585 0.0
N165 N 0.64224 0.46466 0.35036 0.0
H166 H 0.64586 0.4589 0.70707 0.0
H167 H 0.68009 0.44862 0.56721 0.0
H168 H 0.64469 0.46644 0.25471 0.0
H169 H 0.65966 0.43955 0.37965 0.0
H170 H 0.47098 0.57564 0.60858 0.0
H171 H 0.49531 0.55473 0.73979 0.0
H172 H 0.50505 0.59892 0.45433 0.0
H173 H 0.52875 0.58248 0.30799 0.0
C174 C 0.30087 0.5398 0.10282 0.0
C175 C 0.26812 0.51796 0.00705 0.0
C176 C 0.35662 0.49603 0.90734 0.0
C177 C 0.38942 0.5175 0.00378 0.0
N178 N 0.3941 0.56254 0.18742 0.0
N179 N 0.2636 0.47276 0.82368 0.0
C180 C 0.36181 0.54025 0.09967 0.0
C181 C 0.29576 0.4953 0.91106 0.0
N182 N 0.27347 0.55827 0.20076 0.0
N183 N 0.38384 0.4783 0.8079 0.0
H184 H 0.21934 0.47367 0.8173 0.0
H185 H 0.27999 0.45167 0.76067 0.0
H186 H 0.42797 0.4788 0.80084 0.0
H187 H 0.36335 0.46554 0.72767 0.0
H188 H 0.29373 0.57168 0.2803 0.0
H189 H 0.22929 0.55815 0.20686 0.0
H190 H 0.37793 0.58338 0.25153 0.0
H191 H 0.43835 0.56154 0.19334 0.0
C192 C 0.86913 0.2114 0.83799 0.0
C193 C 0.84767 0.19716 0.94817 0.0
C194 C 0.86157 0.26239 0.05479 0.0
C195 C 0.89697 0.273 0.95732 0.0
N196 N 0.89237 0.26912 0.73393 0.0
N197 N 0.82121 0.2099 0.16302 0.0
C198 C 0.88866 0.25091 0.84094 0.0
C199 C 0.84317 0.22287 0.05723 0.0
N200 N 0.87275 0.18705 0.73188 0.0
N201 N 0.83631 0.29055 0.12904 0.0
H202 H 0.80539 0.18143 0.16783 0.0
H203 H 0.82209 0.22708 0.24752 0.0
H204 H 0.83867 0.31969 0.10934 0.0
H205 H 0.80604 0.28436 0.19475 0.0
H206 H 0.89363 0.19514 0.65318 0.0
H207 H 0.85868 0.1579 0.72576 0.0
H208 H 0.88157 0.25545 0.64639 0.0
H209 H 0.89929 0.29926 0.73583 0.0
C210 C 0.63741 0.86871 0.02978 0.0
C211 C 0.58991 0.88773 0.9823 0.0
C212 C 0.53755 0.8245 0.94995 0.0
C213 C 0.5872 0.80528 0.98356 0.0
N214 N 0.68771 0.80853 0.03447 0.0
N215 N 0.49845 0.88209 0.87381 0.0
C216 C 0.63818 0.82724 0.01701 0.0
C217 C 0.54094 0.86517 0.93597 0.0
N218 N 0.6803 0.88992 0.09393 0.0
N219 N 0.48652 0.8042 0.93544 0.0
H220 H 0.49935 0.91147 0.85803 0.0
H221 H 0.4649 0.86621 0.82703 0.0
H222 H 0.4821 0.77438 0.94475 0.0
H223 H 0.44783 0.81764 0.92604 0.0
H224 H 0.71278 0.87725 0.14166 0.0
H225 H 0.6804 0.92012 0.11113 0.0
H226 H 0.72733 0.82305 0.04596 0.0
H227 H 0.68999 0.77824 0.02611 0.0
C228 C 0.85986 0.51158 0.11097 0.0
C229 C 0.88906 0.514 0.99735 0.0
C230 C 0.79711 0.51696 0.88472 0.0
C231 C 0.7679 0.5146 0.9984 0.0
N232 N 0.76983 0.50727 0.2183 0.0
N233 N 0.88724 0.52073 0.77723 0.0
C234 C 0.79892 0.51108 0.11105 0.0
C235 C 0.85807 0.51726 0.88456 0.0
N236 N 0.89075 0.512 0.2199 0.0
N237 N 0.76619 0.51681 0.77595 0.0
H238 H 0.93112 0.51763 0.77165 0.0
H239 H 0.86895 0.5278 0.69411 0.0
H240 H 0.72178 0.51632 0.77234 0.0
H241 H 0.78357 0.51499 0.68786 0.0
H242 H 0.87327 0.51412 0.30792 0.0
H243 H 0.93516 0.51255 0.22372 0.0
H244 H 0.78823 0.49974 0.30078 0.0
H245 H 0.72597 0.51035 0.22433 0.0
C246 C 0.27094 0.78049 0.16515 0.0
C247 C 0.26131 0.75887 0.04842 0.0
C248 C 0.31491 0.80907 0.94835 0.0
C249 C 0.31108 0.83455 0.0582 0.0
N250 N 0.28751 0.84403 0.27556 0.0
N251 N 0.31981 0.74148 0.87291 0.0
C252 C 0.29039 0.82 0.16859 0.0
C253 C 0.29603 0.76962 0.95 0.0
N254 N 0.26915 0.7618 0.27142 0.0
N255 N 0.3365 0.82226 0.8425 0.0
H256 H 0.31618 0.71213 0.8899 0.0
H257 H 0.34975 0.74761 0.80647 0.0
H258 H 0.35273 0.85065 0.83829 0.0
H259 H 0.33498 0.80536 0.75747 0.0
H260 H 0.28102 0.77523 0.35869 0.0
H261 H 0.26293 0.73158 0.26854 0.0
H262 H 0.26728 0.83561 0.35466 0.0
H263 H 0.30148 0.87321 0.28213 0.0
C264 C 0.51992 0.20436 0.98686 0.0
C265 C 0.57072 0.22638 0.02139 0.0
C266 C 0.617 0.16657 0.06964 0.0
C267 C 0.56819 0.14394 0.0226 0.0
N268 N 0.47812 0.14161 0.90966 0.0
N269 N 0.67115 0.2277 0.07197 0.0
C270 C 0.52079 0.1629 0.97435 0.0
C271 C 0.62029 0.20726 0.05601 0.0
N272 N 0.47048 0.22303 0.96794 0.0
N273 N 0.6594 0.14966 0.13213 0.0
H274 H 0.67544 0.25758 0.06349 0.0
H275 H 0.70989 0.21437 0.08194 0.0
H276 H 0.65862 0.12025 0.14744 0.0
H277 H 0.69278 0.16555 0.1795 0.0
H278 H 0.4309 0.20851 0.95572 0.0
H279 H 0.46822 0.25332 0.9756 0.0
H280 H 0.44576 0.1542 0.86135 0.0
H281 H 0.47811 0.11141 0.89271 0.0
loop_
_geom_bond_atom_site_label_1
_geom_bond_atom_site_label_2
_geom_bond_distance
_geom_bond_site_symmetry_2
_ccdc_geom_bond_type
Pr0 C2 2.891 . S
Pr0 O20 2.573 1_556 S
Pr0 O21 2.499 . S
Pr0 O22 2.693 1_655 S
Pr0 O23 2.513 . S
Pr0 O25 2.450 . S
Pr0 O28 2.437 1_556 S
Pr0 O30 2.424 1_655 S
Pr1 C11 2.880 . S
Pr1 O22 2.436 1_554 S
Pr1 O24 2.438 1_455 S
Pr1 O26 2.562 1_554 S
Pr1 O27 2.490 . S
Pr1 O28 2.695 1_455 S
Pr1 O29 2.512 . S
Pr1 O31 2.437 . S
C2 Pr0 2.891 . S
C2 C3 1.491 . S
C2 O20 1.254 1_556 S
C2 O21 1.225 . S
C3 C2 1.491 . S
C3 C4 1.392 . S
C3 C8 1.356 1_556 S
C4 C3 1.392 . S
C4 C5 1.368 . S
C4 H32 0.929 . S
C5 C4 1.368 . S
C5 C6 1.386 . S
C5 H33 0.929 . S
C6 C5 1.386 . S
C6 C7 1.373 1_556 S
C7 C6 1.373 1_554 S
C7 C8 1.409 . S
C7 H34 0.931 . S
C8 C3 1.356 1_554 S
C8 C7 1.409 . S
C8 H35 0.930 . S
C9 O22 1.270 . S
C9 O23 1.248 1_455 S
C10 O24 1.267 1_556 S
C10 O25 1.278 . S
C11 Pr1 2.880 . S
C11 C12 1.491 . S
C11 O26 1.254 1_554 S
C11 O27 1.225 . S
C12 C11 1.491 . S
C12 C13 1.392 . S
C12 C17 1.356 1_554 S
C13 C12 1.392 . S
C13 C14 1.368 . S
C13 H36 0.929 . S
C14 C13 1.368 . S
C14 C15 1.386 . S
C14 H37 0.929 . S
C15 C14 1.386 . S
C15 C16 1.373 1_554 S
C16 C15 1.373 1_556 S
C16 C17 1.409 . S
C16 H38 0.931 . S
C17 C12 1.356 1_556 S
C17 C16 1.409 . S
C17 H39 0.930 . S
C18 O28 1.270 1_455 S
C18 O29 1.248 . S
C19 O30 1.267 1_554 S
C19 O31 1.278 . S
O20 Pr0 2.573 1_554 S
O20 C2 1.254 1_554 S
O21 Pr0 2.499 . S
O21 C2 1.225 . S
O22 Pr0 2.693 1_455 S
O22 Pr1 2.436 1_556 S
O22 C9 1.270 . S
O23 Pr0 2.513 . S
O23 C9 1.248 1_655 S
O24 Pr1 2.438 1_655 S
O24 C10 1.267 1_554 S
O25 Pr0 2.450 . S
O25 C10 1.278 . S
O26 Pr1 2.562 1_556 S
O26 C11 1.254 1_556 S
O27 Pr1 2.490 . S
O27 C11 1.225 . S
O28 Pr0 2.437 1_554 S
O28 Pr1 2.695 1_655 S
O28 C18 1.270 1_655 S
O29 Pr1 2.512 . S
O29 C18 1.248 . S
O30 Pr0 2.424 1_455 S
O30 C19 1.267 1_556 S
O31 Pr1 2.437 . S
O31 C19 1.278 . S
H32 C4 0.929 . S
H33 C5 0.929 . S
H34 C7 0.931 . S
H35 C8 0.930 . S
H36 C13 0.929 . S
H37 C14 0.929 . S
H38 C16 0.931 . S
H39 C17 0.930 . S
Pr40 C42 2.880 . S
Pr40 O60 2.562 1_554 S
Pr40 O61 2.490 . S
Pr40 O62 2.695 1_545 S
Pr40 O63 2.512 . S
Pr40 O65 2.437 . S
Pr40 O68 2.436 1_554 S
Pr40 O70 2.438 1_545 S
Pr41 C51 2.880 . S
Pr41 O62 2.436 1_556 S
Pr41 O64 2.438 1_565 S
Pr41 O66 2.562 1_556 S
Pr41 O67 2.490 . S
Pr41 O68 2.695 1_565 S
Pr41 O69 2.512 . S
Pr41 O71 2.437 . S
C42 Pr40 2.880 . S
C42 C43 1.491 1_554 S
C42 O60 1.254 1_554 S
C42 O61 1.225 . S
C43 C42 1.491 1_556 S
C43 C44 1.392 1_556 S
C43 C48 1.356 . S
C44 C43 1.392 1_554 S
C44 C45 1.368 . S
C44 H72 0.929 . S
C45 C44 1.368 . S
C45 C46 1.386 1_554 S
C45 H73 0.929 . S
C46 C45 1.386 1_556 S
C46 C47 1.373 . S
C47 C46 1.373 . S
C47 C48 1.409 . S
C47 H74 0.931 . S
C48 C43 1.356 . S
C48 C47 1.409 . S
C48 H75 0.930 . S
C49 O62 1.270 1_545 S
C49 O63 1.248 . S
C50 O64 1.267 1_554 S
C50 O65 1.278 . S
C51 Pr41 2.880 . S
C51 C52 1.491 1_556 S
C51 O66 1.254 1_556 S
C51 O67 1.225 . S
C52 C51 1.491 1_554 S
C52 C53 1.392 1_554 S
C52 C57 1.356 . S
C53 C52 1.392 1_556 S
C53 C54 1.368 . S
C53 H76 0.929 . S
C54 C53 1.368 . S
C54 C55 1.386 1_556 S
C54 H77 0.929 . S
C55 C54 1.386 1_554 S
C55 C56 1.373 . S
C56 C55 1.373 . S
C56 C57 1.409 . S
C56 H78 0.931 . S
C57 C52 1.356 . S
C57 C56 1.409 . S
C57 H79 0.930 . S
C58 O68 1.270 1_565 S
C58 O69 1.248 . S
C59 O70 1.266 1_556 S
C59 O71 1.278 . S
O60 Pr40 2.562 1_556 S
O60 C42 1.254 1_556 S
O61 Pr40 2.490 . S
O61 C42 1.225 . S
O62 Pr40 2.695 1_565 S
O62 Pr41 2.436 1_554 S
O62 C49 1.270 1_565 S
O63 Pr40 2.512 . S
O63 C49 1.248 . S
O64 Pr41 2.438 1_545 S
O64 C50 1.267 1_556 S
O65 Pr40 2.437 . S
O65 C50 1.278 . S
O66 Pr41 2.562 1_554 S
O66 C51 1.254 1_554 S
O67 Pr41 2.490 . S
O67 C51 1.225 . S
O68 Pr40 2.436 1_556 S
O68 Pr41 2.695 1_545 S
O68 C58 1.270 1_545 S
O69 Pr41 2.512 . S
O69 C58 1.248 . S
O70 Pr40 2.438 1_565 S
O70 C59 1.266 1_554 S
O71 Pr41 2.437 . S
O71 C59 1.278 . S
H72 C44 0.929 . S
H73 C45 0.929 . S
H74 C47 0.931 . S
H75 C48 0.930 . S
H76 C53 0.929 . S
H77 C54 0.929 . S
H78 C56 0.931 . S
H79 C57 0.930 . S
Pr80 C82 2.880 . S
Pr80 O100 2.562 1_554 S
Pr80 O101 2.490 . S
Pr80 O102 2.695 . S
Pr80 O103 2.512 . S
Pr80 O105 2.437 . S
Pr80 O108 2.436 1_554 S
Pr80 O110 2.438 . S
Pr81 C91 2.880 . S
Pr81 O102 2.436 1_556 S
Pr81 O104 2.438 . S
Pr81 O106 2.562 1_556 S
Pr81 O107 2.490 . S
Pr81 O108 2.695 . S
Pr81 O109 2.512 . S
Pr81 O111 2.437 . S
C82 Pr80 2.880 . S
C82 C83 1.491 . S
C82 O100 1.254 1_554 S
C82 O101 1.225 . S
C83 C82 1.491 . S
C83 C84 1.392 . S
C83 C88 1.356 1_554 S
C84 C83 1.392 . S
C84 C85 1.368 . S
C84 H112 0.929 . S
C85 C84 1.368 . S
C85 C86 1.388 . S
C85 H113 0.929 . S
C86 C85 1.388 . S
C86 C87 1.371 1_554 S
C87 C86 1.371 1_556 S
C87 C88 1.409 . S
C87 H114 0.931 . S
C88 C83 1.356 1_556 S
C88 C87 1.409 . S
C88 H115 0.930 . S
C89 O102 1.270 . S
C89 O103 1.248 . S
C90 O104 1.267 1_554 S
C90 O105 1.278 . S
C91 Pr81 2.880 . S
C91 C92 1.491 . S
C91 O106 1.254 1_556 S
C91 O107 1.225 . S
C92 C91 1.491 . S
C92 C93 1.392 . S
C92 C97 1.356 1_556 S
C93 C92 1.392 . S
C93 C94 1.368 . S
C93 H116 0.929 . S
C94 C93 1.368 . S
C94 C95 1.385 1_556 S
C94 H117 0.929 . S
C95 C94 1.385 1_554 S
C95 C96 1.374 . S
C96 C95 1.374 . S
C96 C97 1.409 . S
C96 H118 0.931 . S
C97 C92 1.356 1_554 S
C97 C96 1.409 . S
C97 H119 0.930 . S
C98 O108 1.270 . S
C98 O109 1.248 . S
C99 O110 1.267 1_556 S
C99 O111 1.278 . S
O100 Pr80 2.562 1_556 S
O100 C82 1.254 1_556 S
O101 Pr80 2.490 . S
O101 C82 1.225 . S
O102 Pr80 2.695 . S
O102 Pr81 2.436 1_554 S
O102 C89 1.270 . S
O103 Pr80 2.512 . S
O103 C89 1.248 . S
O104 Pr81 2.438 . S
O104 C90 1.267 1_556 S
O105 Pr80 2.437 . S
O105 C90 1.278 . S
O106 Pr81 2.562 1_554 S
O106 C91 1.254 1_554 S
O107 Pr81 2.490 . S
O107 C91 1.225 . S
O108 Pr80 2.436 1_556 S
O108 Pr81 2.695 . S
O108 C98 1.270 . S
O109 Pr81 2.512 . S
O109 C98 1.248 . S
O110 Pr80 2.438 . S
O110 C99 1.267 1_554 S
O111 Pr81 2.437 . S
O111 C99 1.278 . S
H112 C84 0.929 . S
H113 C85 0.929 . S
H114 C87 0.931 . S
H115 C88 0.930 . S
H116 C93 0.929 . S
H117 C94 0.929 . S
H118 C96 0.931 . S
H119 C97 0.930 . S
C120 C121 1.363 . S
C120 C126 1.379 . S
C120 N128 1.356 . S
C121 C120 1.363 . S
C121 C127 1.363 1_455 S
C122 C123 1.363 1_655 S
C122 C127 1.379 . S
C122 N129 1.356 . S
C123 C122 1.363 1_455 S
C123 C126 1.363 . S
N124 C126 1.356 . S
N124 H136 0.984 . S
N124 H137 0.985 . S
N125 C127 1.356 . S
N125 H130 0.984 . S
N125 H131 0.985 . S
C126 C120 1.379 . S
C126 C123 1.363 . S
C126 N124 1.356 . S
C127 C121 1.363 1_655 S
C127 C122 1.379 . S
C127 N125 1.356 . S
N128 C120 1.356 . S
N128 H134 0.984 . S
N128 H135 0.984 . S
N129 C122 1.356 . S
N129 H132 0.984 . S
N129 H133 0.985 . S
H130 N125 0.984 . S
H131 N125 0.985 . S
H132 N129 0.984 . S
H133 N129 0.985 . S
H134 N128 0.984 . S
H135 N128 0.984 . S
H136 N124 0.984 . S
H137 N124 0.985 . S
C138 C139 1.375 . S
C138 C144 1.379 . S
C138 N146 1.356 . S
C139 C138 1.375 . S
C139 C145 1.350 1_545 S
C140 C141 1.365 . S
C140 C145 1.379 . S
C140 N147 1.356 . S
C141 C140 1.365 . S
C141 C144 1.360 1_565 S
N142 C144 1.356 . S
N142 H154 0.984 . S
N142 H155 0.985 . S
N143 C145 1.356 . S
N143 H148 0.984 . S
N143 H149 0.985 . S
C144 C138 1.379 . S
C144 C141 1.360 1_545 S
C144 N142 1.356 . S
C145 C139 1.350 1_565 S
C145 C140 1.379 . S
C145 N143 1.356 . S
N146 C138 1.356 . S
N146 H152 0.984 . S
N146 H153 0.984 . S
N147 C140 1.356 . S
N147 H150 0.984 . S
N147 H151 0.985 . S
H148 N143 0.984 . S
H149 N143 0.985 . S
H150 N147 0.984 . S
H151 N147 0.985 . S
H152 N146 0.984 . S
H153 N146 0.984 . S
H154 N142 0.984 . S
H155 N142 0.985 . S
C156 C157 1.363 . S
C156 C162 1.379 . S
C156 N164 1.356 . S
C157 C156 1.363 . S
C157 C163 1.363 . S
C158 C159 1.363 . S
C158 C163 1.379 . S
C158 N165 1.356 . S
C159 C158 1.363 . S
C159 C162 1.363 . S
N160 C162 1.356 . S
N160 H172 0.984 . S
N160 H173 0.985 . S
N161 C163 1.356 . S
N161 H166 0.984 . S
N161 H167 0.985 . S
C162 C156 1.379 . S
C162 C159 1.363 . S
C162 N160 1.356 . S
C163 C157 1.363 . S
C163 C158 1.379 . S
C163 N161 1.356 . S
N164 C156 1.356 . S
N164 H170 0.984 . S
N164 H171 0.984 . S
N165 C158 1.356 . S
N165 H168 0.984 . S
N165 H169 0.985 . S
H166 N161 0.984 . S
H167 N161 0.985 . S
H168 N165 0.984 . S
H169 N165 0.985 . S
H170 N164 0.984 . S
H171 N164 0.984 . S
H172 N160 0.984 . S
H173 N160 0.985 . S
C174 C175 1.363 1_554 S
C174 C180 1.379 . S
C174 N182 1.356 . S
C175 C174 1.363 1_556 S
C175 C181 1.363 . S
C176 C177 1.363 . S
C176 C181 1.379 . S
C176 N183 1.356 . S
C177 C176 1.363 . S
C177 C180 1.363 1_556 S
N178 C180 1.356 . S
N178 H190 0.984 . S
N178 H191 0.985 . S
N179 C181 1.356 . S
N179 H184 0.984 . S
N179 H185 0.985 . S
C180 C174 1.379 . S
C180 C177 1.363 1_554 S
C180 N178 1.356 . S
C181 C175 1.363 . S
C181 C176 1.379 . S
C181 N179 1.356 . S
N182 C174 1.356 . S
N182 H188 0.984 . S
N182 H189 0.984 . S
N183 C176 1.356 . S
N183 H186 0.984 . S
N183 H187 0.985 . S
H184 N179 0.984 . S
H185 N179 0.985 . S
H186 N183 0.984 . S
H187 N183 0.985 . S
H188 N182 0.984 . S
H189 N182 0.984 . S
H190 N178 0.984 . S
H191 N178 0.985 . S
C192 C193 1.363 . S
C192 C198 1.379 . S
C192 N200 1.356 . S
C193 C192 1.363 . S
C193 C199 1.363 1_556 S
C194 C195 1.363 1_554 S
C194 C199 1.379 . S
C194 N201 1.356 . S
C195 C194 1.363 1_556 S
C195 C198 1.363 . S
N196 C198 1.356 . S
N196 H208 0.984 . S
N196 H209 0.985 . S
N197 C199 1.356 . S
N197 H202 0.984 . S
N197 H203 0.985 . S
C198 C192 1.379 . S
C198 C195 1.363 . S
C198 N196 1.356 . S
C199 C193 1.363 1_554 S
C199 C194 1.379 . S
C199 N197 1.356 . S
N200 C192 1.356 . S
N200 H206 0.984 . S
N200 H207 0.984 . S
N201 C194 1.356 . S
N201 H204 0.984 . S
N201 H205 0.985 . S
H202 N197 0.984 . S
H203 N197 0.985 . S
H204 N201 0.984 . S
H205 N201 0.985 . S
H206 N200 0.984 . S
H207 N200 0.984 . S
H208 N196 0.984 . S
H209 N196 0.985 . S
C210 C211 1.363 1_554 S
C210 C216 1.379 . S
C210 N218 1.356 . S
C211 C210 1.363 1_556 S
C211 C217 1.363 . S
C212 C213 1.363 . S
C212 C217 1.379 . S
C212 N219 1.356 . S
C213 C212 1.363 . S
C213 C216 1.363 1_556 S
N214 C216 1.356 . S
N214 H226 0.984 . S
N214 H227 0.985 . S
N215 C217 1.356 . S
N215 H220 0.984 . S
N215 H221 0.985 . S
C216 C210 1.379 . S
C216 C213 1.363 1_554 S
C216 N214 1.356 . S
C217 C211 1.363 . S
C217 C212 1.379 . S
C217 N215 1.356 . S
N218 C210 1.356 . S
N218 H224 0.984 . S
N218 H225 0.984 . S
N219 C212 1.356 . S
N219 H222 0.984 . S
N219 H223 0.985 . S
H220 N215 0.984 . S
H221 N215 0.985 . S
H222 N219 0.984 . S
H223 N219 0.985 . S
H224 N218 0.984 . S
H225 N218 0.984 . S
H226 N214 0.984 . S
H227 N214 0.985 . S
C228 C229 1.363 . S
C228 C234 1.379 . S
C228 N236 1.356 . S
C229 C228 1.363 . S
C229 C235 1.363 1_554 S
C230 C231 1.363 1_556 S
C230 C235 1.379 . S
C230 N237 1.356 . S
C231 C230 1.363 1_554 S
C231 C234 1.363 . S
N232 C234 1.356 . S
N232 H244 0.984 . S
N232 H245 0.985 . S
N233 C235 1.356 . S
N233 H238 0.984 . S
N233 H239 0.985 . S
C234 C228 1.379 . S
C234 C231 1.363 . S
C234 N232 1.356 . S
C235 C229 1.363 1_556 S
C235 C230 1.379 . S
C235 N233 1.356 . S
N236 C228 1.356 . S
N236 H242 0.984 . S
N236 H243 0.984 . S
N237 C230 1.356 . S
N237 H240 0.984 . S
N237 H241 0.985 . S
H238 N233 0.984 . S
H239 N233 0.985 . S
H240 N237 0.984 . S
H241 N237 0.985 . S
H242 N236 0.984 . S
H243 N236 0.984 . S
H244 N232 0.984 . S
H245 N232 0.985 . S
C246 C247 1.363 . S
C246 C252 1.379 . S
C246 N254 1.356 . S
C247 C246 1.363 . S
C247 C253 1.363 1_554 S
C248 C249 1.363 1_556 S
C248 C253 1.379 . S
C248 N255 1.356 . S
C249 C248 1.363 1_554 S
C249 C252 1.363 . S
N250 C252 1.356 . S
N250 H262 0.984 . S
N250 H263 0.985 . S
N251 C253 1.356 . S
N251 H256 0.984 . S
N251 H257 0.985 . S
C252 C246 1.379 . S
C252 C249 1.363 . S
C252 N250 1.356 . S
C253 C247 1.363 1_556 S
C253 C248 1.379 . S
C253 N251 1.356 . S
N254 C246 1.356 . S
N254 H260 0.984 . S
N254 H261 0.984 . S
N255 C248 1.356 . S
N255 H258 0.984 . S
N255 H259 0.985 . S
H256 N251 0.984 . S
H257 N251 0.985 . S
H258 N255 0.984 . S
H259 N255 0.985 . S
H260 N254 0.984 . S
H261 N254 0.984 . S
H262 N250 0.984 . S
H263 N250 0.985 . S
C264 C265 1.363 1_556 S
C264 C270 1.379 . S
C264 N272 1.356 . S
C265 C264 1.363 1_554 S
C265 C271 1.363 . S
C266 C267 1.363 . S
C266 C271 1.379 . S
C266 N273 1.356 . S
C267 C266 1.363 . S
C267 C270 1.363 1_554 S
N268 C270 1.356 . S
N268 H280 0.984 . S
N268 H281 0.985 . S
N269 C271 1.356 . S
N269 H274 0.984 . S
N269 H275 0.985 . S
C270 C264 1.379 . S
C270 C267 1.363 1_556 S
C270 N268 1.356 . S
C271 C265 1.363 . S
C271 C266 1.379 . S
C271 N269 1.356 . S
N272 C264 1.356 . S
N272 H278 0.984 . S
N272 H279 0.984 . S
N273 C266 1.356 . S
N273 H276 0.984 . S
N273 H277 0.985 . S
H274 N269 0.984 . S
H275 N269 0.985 . S
H276 N273 0.984 . S
H277 N273 0.985 . S
H278 N272 0.984 . S
H279 N272 0.984 . S
H280 N268 0.984 . S
H281 N268 0.985 . S
C121 C9 1.453 . S
C123 C18 1.453 . S
C139 C49 1.451 . S
C141 C58 1.449 . S
C157 C98 1.455 . S
C159 C89 1.455 . S
C175 C19 2.660 1_556 S
C177 C90 2.577 1_556 S
C193 C46 0.961 . S
C195 C6 0.963 . S
C211 C59 2.309 . S
C213 C86 2.201 1_556 S
C229 C10 2.660 1_554 S
C231 C99 2.577 1_554 S
C247 C15 0.963 . S
C249 C55 0.961 . S
C265 C95 2.201 . S
C267 C50 2.309 . S
