# Generated by pormake.
# Topology uog, (4)-cn, num edge types: 1
# Building blocks:
#     Node 0, Type 0, BuildingBlock: ESEHIV_clean_sbu_0, # of connection points: 4
#     Node 1, Type 0, BuildingBlock: ESEHIV_clean_sbu_0, # of connection points: 4
#     Node 2, Type 0, BuildingBlock: ESEHIV_clean_sbu_0, # of connection points: 4
#     Node 3, Type 0, BuildingBlock: ESEHIV_clean_sbu_0, # of connection points: 4
#     Node 4, Type 0, BuildingBlock: ESEHIV_clean_sbu_0, # of connection points: 4
#     Node 5, Type 0, BuildingBlock: ESEHIV_clean_sbu_0, # of connection points: 4
#     Edge 6, Type (0, 0), BuildingBlock: KIFKEQ_clean_linker_1, # of connection points: 2
#     Edge 7, Type (0, 0), BuildingBlock: KIFKEQ_clean_linker_1, # of connection points: 2
#     Edge 8, Type (0, 0), BuildingBlock: KIFKEQ_clean_linker_1, # of connection points: 2
#     Edge 9, Type (0, 0), BuildingBlock: KIFKEQ_clean_linker_1, # of connection points: 2
#     Edge 10, Type (0, 0), BuildingBlock: KIFKEQ_clean_linker_1, # of connection points: 2
#     Edge 11, Type (0, 0), BuildingBlock: KIFKEQ_clean_linker_1, # of connection points: 2
#     Edge 12, Type (0, 0), BuildingBlock: KIFKEQ_clean_linker_1, # of connection points: 2
#     Edge 13, Type (0, 0), BuildingBlock: KIFKEQ_clean_linker_1, # of connection points: 2
#     Edge 14, Type (0, 0), BuildingBlock: KIFKEQ_clean_linker_1, # of connection points: 2
#     Edge 15, Type (0, 0), BuildingBlock: KIFKEQ_clean_linker_1, # of connection points: 2
#     Edge 16, Type (0, 0), BuildingBlock: KIFKEQ_clean_linker_1, # of connection points: 2
#     Edge 17, Type (0, 0), BuildingBlock: KIFKEQ_clean_linker_1, # of connection points: 2
# Relax obj value: 0.017
# Max RMSD: 0.204
# Mean RMSD: 0.149
data_MOF--net-uog--node1-ESEHIV_clean_sbu_0--edge1-KIFKEQ_clean_linker_1
_symmetry_space_group_name_H-M    P1
_symmetry_Int_Tables_number       1
_symmetry_cell_setting            triclinic
loop_
_symmetry_equiv_pos_as_xyz
'x, y, z'
_cell_length_a     28.738786
_cell_length_b     34.735838
_cell_length_c     44.992089
_cell_angle_alpha  90.420395
_cell_angle_beta   90.029966
_cell_angle_gamma 114.5304
loop_
_atom_site_label
_atom_site_type_symbol
_atom_site_fract_x
_atom_site_fract_y
_atom_site_fract_z
_atom_type_partial_charge
Cu0 Cu 0.58767 0.28042 0.18763 0.0
N1 N 0.54619 0.30999 0.18738 0.0
N2 N 0.52406 0.36456 0.18802 0.0
C3 C 0.56245 0.35207 0.19095 0.0
C4 C 0.4819 0.32883 0.18223 0.0
C5 C 0.49569 0.29523 0.18181 0.0
O6 O 0.62948 0.29556 0.22336 0.0
C7 C 0.60024 0.28257 0.12695 0.0
O8 O 0.55012 0.26651 0.12877 0.0
H9 H 0.60203 0.37335 0.19449 0.0
H10 H 0.47084 0.26254 0.17705 0.0
N11 N 0.54863 0.22221 0.18953 0.0
N12 N 0.53022 0.15304 0.18774 0.0
C13 C 0.56371 0.19236 0.18007 0.0
C14 C 0.50417 0.20126 0.20377 0.0
C15 C 0.49251 0.15856 0.20253 0.0
C16 C 0.66535 0.33133 0.22964 0.0
O17 O 0.68005 0.3616 0.20982 0.0
H18 H 0.59934 0.19965 0.16851 0.0
H19 H 0.48294 0.21608 0.21543 0.0
O20 O 0.6264 0.29206 0.1509 0.0
H21 H 0.44388 0.32704 0.17837 0.0
H22 H 0.46016 0.1338 0.21307 0.0
Cu23 Cu 0.34603 0.6097 0.51474 0.0
N24 N 0.35997 0.64594 0.48213 0.0
N25 N 0.36684 0.66994 0.43557 0.0
C26 C 0.35595 0.63568 0.45297 0.0
C27 C 0.37805 0.70283 0.45463 0.0
C28 C 0.37367 0.68793 0.48323 0.0
O29 O 0.38305 0.57342 0.51082 0.0
C30 C 0.24245 0.55748 0.53618 0.0
O31 O 0.26285 0.54887 0.55993 0.0
H32 H 0.34451 0.60366 0.44477 0.0
H33 H 0.37972 0.7064 0.50347 0.0
N34 N 0.37248 0.64267 0.54905 0.0
N35 N 0.38534 0.6675 0.59592 0.0
C36 C 0.35094 0.64202 0.57582 0.0
C37 C 0.42185 0.66966 0.55229 0.0
C38 C 0.42991 0.68497 0.58095 0.0
C39 C 0.42759 0.58869 0.49921 0.0
O40 O 0.44506 0.62671 0.48771 0.0
H41 H 0.31115 0.62301 0.58056 0.0
H42 H 0.45051 0.6767 0.53516 0.0
O43 O 0.27132 0.57998 0.51567 0.0
H44 H 0.38923 0.73549 0.4484 0.0
H45 H 0.46646 0.70603 0.59023 0.0
Cu46 Cu 0.76686 0.27291 0.8661 0.0
N47 N 0.75147 0.21526 0.86446 0.0
N48 N 0.70324 0.14559 0.86361 0.0
C49 C 0.70628 0.184 0.8719 0.0
C50 C 0.74845 0.15305 0.85056 0.0
C51 C 0.77805 0.19607 0.85104 0.0
O52 O 0.7363 0.28398 0.9018 0.0
C53 C 0.73745 0.31954 0.82243 0.0
O54 O 0.74662 0.34924 0.8427 0.0
H55 H 0.67497 0.18966 0.88127 0.0
H56 H 0.81508 0.21233 0.84081 0.0
N57 N 0.83732 0.30549 0.86809 0.0
N58 N 0.91158 0.36292 0.86847 0.0
C59 C 0.86049 0.34764 0.86439 0.0
C60 C 0.87493 0.29352 0.87492 0.0
C61 C 0.92083 0.32888 0.87512 0.0
C62 C 0.75263 0.27565 0.92617 0.0
O63 O 0.78763 0.26055 0.92515 0.0
H64 H 0.83998 0.36687 0.85972 0.0
H65 H 0.86936 0.26153 0.87999 0.0
O66 O 0.7417 0.28564 0.82912 0.0
H67 H 0.75866 0.12932 0.84037 0.0
H68 H 0.95801 0.32938 0.87981 0.0
Cu69 Cu 0.50659 0.75167 0.17364 0.0
N70 N 0.5468 0.72114 0.17501 0.0
N71 N 0.56618 0.66531 0.17895 0.0
C72 C 0.53287 0.68211 0.18621 0.0
C73 C 0.60285 0.69529 0.16281 0.0
C74 C 0.59059 0.7295 0.16025 0.0
O75 O 0.46378 0.7392 0.20883 0.0
C76 C 0.43648 0.74837 0.12651 0.0
O77 O 0.41734 0.76761 0.1448 0.0
H78 H 0.49791 0.66568 0.1984 0.0
H79 H 0.61048 0.75739 0.147 0.0
N80 N 0.54768 0.80973 0.17472 0.0
N81 N 0.56929 0.87945 0.17581 0.0
C82 C 0.53117 0.84056 0.17188 0.0
C83 C 0.59798 0.82971 0.18083 0.0
C84 C 0.61147 0.87272 0.18143 0.0
C85 C 0.42761 0.7041 0.21579 0.0
O86 O 0.41217 0.67249 0.19664 0.0
H87 H 0.49154 0.83445 0.16823 0.0
H88 H 0.6229 0.81414 0.1853 0.0
O89 O 0.47127 0.73768 0.13562 0.0
H90 H 0.63442 0.69171 0.15193 0.0
H91 H 0.6493 0.89703 0.18592 0.0
Cu92 Cu 0.75736 0.43308 0.52751 0.0
N93 N 0.75187 0.3988 0.49441 0.0
N94 N 0.74606 0.37505 0.44757 0.0
C95 C 0.74881 0.40742 0.4655 0.0
C96 C 0.74733 0.34508 0.46613 0.0
C97 C 0.75101 0.35985 0.49489 0.0
O98 O 0.72077 0.46845 0.51897 0.0
C99 C 0.86281 0.48551 0.51802 0.0
O100 O 0.84665 0.49322 0.49238 0.0
H101 H 0.74923 0.43703 0.45787 0.0
H102 H 0.75279 0.34331 0.51484 0.0
N103 N 0.7244 0.39779 0.55914 0.0
N104 N 0.70462 0.37058 0.60473 0.0
C105 C 0.74034 0.39987 0.58752 0.0
C106 C 0.67722 0.36627 0.55827 0.0
C107 C 0.66493 0.3494 0.58626 0.0
C108 C 0.69732 0.47893 0.53937 0.0
O109 O 0.70378 0.47078 0.56714 0.0
H110 H 0.77721 0.42262 0.59531 0.0
H111 H 0.65308 0.35687 0.5387 0.0
O112 O 0.8301 0.46292 0.53695 0.0
H113 H 0.74489 0.31427 0.45955 0.0
H114 H 0.62887 0.32424 0.59259 0.0
Cu115 Cu 0.30738 0.75596 0.85758 0.0
N116 N 0.32536 0.81396 0.85416 0.0
N117 N 0.37713 0.88301 0.85335 0.0
C118 C 0.36756 0.84518 0.86577 0.0
C119 C 0.33923 0.8753 0.83336 0.0
C120 C 0.30773 0.83275 0.83373 0.0
O121 O 0.32755 0.74441 0.89652 0.0
C122 C 0.32892 0.70432 0.81377 0.0
O123 O 0.29995 0.67132 0.82942 0.0
H124 H 0.3933 0.83963 0.88094 0.0
H125 H 0.27703 0.81628 0.81823 0.0
N126 N 0.23666 0.7243 0.85508 0.0
N127 N 0.16231 0.66695 0.85652 0.0
C128 C 0.21313 0.68297 0.86178 0.0
C129 C 0.19924 0.73521 0.84586 0.0
C130 C 0.15334 0.69987 0.84667 0.0
C131 C 0.37239 0.75248 0.90591 0.0
O132 O 0.41134 0.76845 0.88767 0.0
H133 H 0.23314 0.66506 0.87042 0.0
H134 H 0.2046 0.76637 0.83877 0.0
O135 O 0.33904 0.74138 0.82366 0.0
H136 H 0.33622 0.89825 0.81823 0.0
H137 H 0.11657 0.69837 0.83974 0.0
H138 H 0.61884 0.1436 0.1806 0.0
H139 H 0.45494 0.07343 0.18609 0.0
H140 H 0.62878 0.07768 0.17561 0.0
H141 H 0.46509 1.00731 0.18227 0.0
H142 H 0.49879 0.8981 0.14652 0.0
H143 H 0.48954 0.96473 0.14778 0.0
H144 H 0.62039 0.01816 0.20639 0.0
H145 H 0.62964 0.95162 0.20509 0.0
C146 C 0.58483 0.1142 0.18053 0.0
C147 C 0.53602 0.11396 0.18376 0.0
C148 C 0.59062 0.0763 0.17804 0.0
C149 C 0.54778 0.03716 0.1787 0.0
C150 C 0.4989 0.03689 0.18143 0.0
C151 C 0.4931 0.07482 0.18395 0.0
C152 C 0.52543 0.92396 0.1598 0.0
C153 C 0.5649 0.91937 0.17576 0.0
C154 C 0.52011 0.96219 0.16052 0.0
C155 C 0.55416 0.9968 0.17722 0.0
C156 C 0.59396 0.99237 0.19292 0.0
C157 C 0.59929 0.95416 0.19218 0.0
H158 H 0.41855 0.52177 0.53483 0.0
H159 H 0.51704 0.60776 0.46966 0.0
H160 H 0.48266 0.49353 0.54306 0.0
H161 H 0.58097 0.58007 0.4781 0.0
H162 H 0.66953 0.49656 0.48426 0.0
H163 H 0.60116 0.51866 0.47254 0.0
H164 H 0.56785 0.51961 0.56604 0.0
H165 H 0.63554 0.49728 0.57773 0.0
C166 C 0.45346 0.53422 0.52196 0.0
C167 C 0.46265 0.56715 0.50168 0.0
C168 C 0.49047 0.51835 0.52687 0.0
C169 C 0.5373 0.53479 0.51144 0.0
C170 C 0.54535 0.56642 0.49025 0.0
C171 C 0.50865 0.58245 0.48551 0.0
C172 C 0.64783 0.50174 0.50232 0.0
C173 C 0.6583 0.49525 0.53196 0.0
C174 C 0.60857 0.51439 0.49561 0.0
C175 C 0.5786 0.5206 0.51833 0.0
C176 C 0.58942 0.51439 0.54793 0.0
C177 C 0.62875 0.50201 0.55465 0.0
H178 H 1.00423 0.39944 0.89581 0.0
H179 H 0.90175 0.42595 0.83754 0.0
H180 H 0.0649 0.47344 0.89364 0.0
H181 H 0.96222 0.49988 0.8356 0.0
H182 H 0.0596 0.63708 0.86437 0.0
H183 H 0.99857 0.56319 0.86768 0.0
H184 H 0.1219 0.52382 0.85773 0.0
H185 H 0.18269 0.59736 0.8542 0.0
C186 C 0.99474 0.42087 0.88235 0.0
C187 C 0.94795 0.4066 0.86691 0.0
C188 C 1.02951 0.46335 0.88116 0.0
C189 C 1.0183 0.49257 0.86452 0.0
C190 C 0.97162 0.47833 0.84903 0.0
C191 C 0.93693 0.43587 0.85016 0.0
C192 C 0.07367 0.61269 0.86272 0.0
C193 C 0.12616 0.62333 0.85912 0.0
C194 C 1.03869 0.57033 0.86463 0.0
C195 C 0.05541 0.53764 0.86301 0.0
C196 C 0.10787 0.54826 0.85955 0.0
C197 C 0.14278 0.59054 0.85758 0.0
H198 H 0.17199 0.5324 0.58121 0.0
H199 H 0.18567 0.554 0.48665 0.0
H200 H 0.08129 0.51723 0.57842 0.0
H201 H 0.09474 0.53684 0.48344 0.0
H202 H 0.94285 0.54504 0.4881 0.0
H203 H 1.0336 0.56235 0.49354 0.0
H204 H 0.99946 0.47025 0.56368 0.0
H205 H 0.9089 0.45465 0.55911 0.0
C206 C 0.15544 0.53322 0.55972 0.0
C207 C 0.18623 0.54453 0.53417 0.0
C208 C 0.1032 0.52437 0.55806 0.0
C209 C 0.08012 0.52604 0.53071 0.0
C210 C 0.11093 0.53625 0.50507 0.0
C211 C 0.16321 0.54569 0.50682 0.0
C212 C 0.95479 0.52882 0.50491 0.0
C213 C 0.91849 0.49847 0.52316 0.0
C214 C 1.00698 0.5384 0.50785 0.0
C215 C 1.02445 0.51738 0.52881 0.0
C216 C 0.98802 0.48759 0.5475 0.0
C217 C 0.93584 0.47849 0.54484 0.0
H218 H 0.42428 0.94014 0.81046 0.0
H219 H 0.43536 0.91222 0.90285 0.0
H220 H 0.50435 1.00305 0.8147 0.0
H221 H 0.51631 0.97545 0.90706 0.0
H222 H 0.62823 0.12069 0.90495 0.0
H223 H 0.54853 0.05618 0.90389 0.0
H224 H 0.59679 1.01694 0.82267 0.0
H225 H 0.67584 0.08131 0.82357 0.0
C226 C 0.4435 0.94769 0.83179 0.0
C227 C 0.42332 0.92128 0.85639 0.0
C228 C 0.48973 0.98348 0.83411 0.0
C229 C 0.51674 0.99399 0.86115 0.0
C230 C 0.4962 0.96814 0.88596 0.0
C231 C 0.45011 0.93192 0.88353 0.0
C232 C 0.62179 0.09814 0.88697 0.0
C233 C 0.65826 0.10614 0.86432 0.0
C234 C 0.57641 0.06115 0.88647 0.0
C235 C 0.56634 0.03172 0.86309 0.0
C236 C 0.6033 0.03929 0.84081 0.0
C237 C 0.64883 0.07596 0.84149 0.0
H238 H 0.64069 0.63665 0.18043 0.0
H239 H 0.47717 0.5959 0.18736 0.0
H240 H 0.62946 0.5633 0.18413 0.0
H241 H 0.46622 0.52302 0.19221 0.0
H242 H 0.4633 0.39575 0.16034 0.0
H243 H 0.47316 0.46885 0.16039 0.0
H244 H 0.60456 0.50406 0.21834 0.0
H245 H 0.59469 0.43091 0.21827 0.0
C246 C 0.60243 0.61215 0.18295 0.0
C247 C 0.55992 0.62233 0.18349 0.0
C248 C 0.59601 0.57012 0.18537 0.0
C249 C 0.54689 0.53725 0.18836 0.0
C250 C 0.50451 0.54751 0.18956 0.0
C251 C 0.51092 0.58949 0.18717 0.0
C252 C 0.49387 0.41892 0.1734 0.0
C253 C 0.52833 0.40742 0.18917 0.0
C254 C 0.49955 0.46088 0.17344 0.0
C255 C 0.53976 0.49236 0.1893 0.0
C256 C 0.5737 0.48074 0.20549 0.0
C257 C 0.56803 0.43878 0.20543 0.0
H258 H 0.78106 0.25999 0.98087 0.0
H259 H 0.6788 0.30477 0.93765 0.0
H260 H 0.74642 0.26634 0.02889 0.0
H261 H 0.64469 0.3121 0.98614 0.0
H262 H 0.55321 0.26357 0.07282 0.0
H263 H 0.59183 0.26635 0.02443 0.0
H264 H 0.74161 0.31577 0.06533 0.0
H265 H 0.70265 0.312 0.11411 0.0
C266 C 0.75144 0.2716 0.98161 0.0
C267 C 0.73248 0.28164 0.95534 0.0
C268 C 0.73186 0.27559 1.00927 0.0
C269 C 0.69281 0.28981 1.01147 0.0
C270 C 0.67439 0.3006 0.98523 0.0
C271 C 0.69404 0.29657 0.95745 0.0
C272 C 0.59444 0.27528 0.07156 0.0
C273 C 0.62482 0.28726 0.09742 0.0
C274 C 0.61664 0.2772 0.04369 0.0
C275 C 0.66984 0.29119 0.04092 0.0
C276 C 0.70041 0.30426 0.06671 0.0
C277 C 0.67815 0.3023 0.09467 0.0
H278 H 0.44673 0.76413 0.25915 0.0
H279 H 0.36724 0.62955 0.24321 0.0
H280 H 0.42603 0.75342 0.31163 0.0
H281 H 0.34563 0.61887 0.29599 0.0
H282 H 0.3839 0.61674 0.39689 0.0
H283 H 0.39094 0.62305 0.34291 0.0
H284 H 0.3576 0.73328 0.34735 0.0
H285 H 0.35079 0.72704 0.40117 0.0
C286 C 0.4241 0.73226 0.26675 0.0
C287 C 0.40885 0.69769 0.24691 0.0
C288 C 0.41197 0.72613 0.29691 0.0
C289 C 0.38429 0.68524 0.30814 0.0
C290 C 0.36755 0.65073 0.28815 0.0
C291 C 0.37954 0.6569 0.25785 0.0
C292 C 0.37735 0.64194 0.38632 0.0
C293 C 0.36739 0.67168 0.40347 0.0
C294 C 0.38128 0.64553 0.35532 0.0
C295 C 0.37525 0.6789 0.34074 0.0
C296 C 0.3635 0.7077 0.35785 0.0
C297 C 0.35967 0.70416 0.38877 0.0
H298 H 0.71877 0.26477 0.77557 0.0
H299 H 0.73436 0.39075 0.79799 0.0
H300 H 0.70976 0.27792 0.72345 0.0
H301 H 0.72397 0.40359 0.74556 0.0
H302 H 0.76533 0.42666 0.64609 0.0
H303 H 0.7704 0.41442 0.69901 0.0
H304 H 0.65314 0.28747 0.68834 0.0
H305 H 0.6498 0.29894 0.63539 0.0
C306 C 0.71962 0.29515 0.76945 0.0
C307 C 0.72738 0.32673 0.79105 0.0
C308 C 0.71417 0.30262 0.73948 0.0
C309 C 0.71616 0.34184 0.73021 0.0
C310 C 0.72293 0.37321 0.75186 0.0
C311 C 0.72844 0.36573 0.78196 0.0
C312 C 0.74098 0.396 0.65492 0.0
C313 C 0.70731 0.36377 0.63625 0.0
C314 C 0.74338 0.38917 0.68542 0.0
C315 C 0.71218 0.34994 0.69802 0.0
C316 C 0.67819 0.31792 0.67939 0.0
C317 C 0.67588 0.32469 0.64896 0.0
H318 H 0.30006 0.72455 0.94954 0.0
H319 H 0.46266 0.76871 0.9351 0.0
H320 H 0.31302 0.71995 1.00264 0.0
H321 H 0.4756 0.76444 0.98844 0.0
H322 H 0.47504 0.71567 0.08232 0.0
H323 H 0.4582 0.71342 0.02913 0.0
H324 H 0.3507 0.76883 0.04454 0.0
H325 H 0.36714 0.77076 0.0979 0.0
C326 C 0.33861 0.73312 0.95764 0.0
C327 C 0.38038 0.74713 0.93797 0.0
C328 C 0.34602 0.73071 0.98816 0.0
C329 C 0.39533 0.74203 0.99985 0.0
C330 C 0.43702 0.75511 0.98014 0.0
C331 C 0.42965 0.75772 0.94956 0.0
C332 C 0.44741 0.72704 0.07446 0.0
C333 C 0.42251 0.74351 0.09446 0.0
C334 C 0.43808 0.72601 0.04389 0.0
C335 C 0.4034 0.7412 0.03252 0.0
C336 C 0.37737 0.75655 0.05257 0.0
C337 C 0.38688 0.75777 0.08318 0.0
H338 H 0.71171 0.42003 0.41111 0.0
H339 H 0.77035 0.32383 0.41075 0.0
H340 H 0.69943 0.41199 0.35743 0.0
H341 H 0.75722 0.31545 0.35728 0.0
H342 H 0.65545 0.27348 0.27257 0.0
H343 H 0.68065 0.28684 0.32461 0.0
H344 H 0.74601 0.42143 0.30885 0.0
H345 H 0.72057 0.40809 0.25652 0.0
C346 C 0.72262 0.39757 0.39967 0.0
C347 C 0.74151 0.37226 0.41552 0.0
C348 C 0.71559 0.393 0.36883 0.0
C349 C 0.72704 0.36289 0.35314 0.0
C350 C 0.74726 0.33846 0.36881 0.0
C351 C 0.75457 0.34318 0.39955 0.0
C352 C 0.67572 0.30595 0.28007 0.0
C353 C 0.68589 0.33972 0.26039 0.0
C354 C 0.69037 0.31359 0.3099 0.0
C355 C 0.71519 0.3552 0.32088 0.0
C356 C 0.72652 0.38903 0.30108 0.0
C357 C 0.71232 0.38137 0.27108 0.0
H358 H 0.31414 0.6304 0.78466 0.0
H359 H 0.37401 0.76564 0.7723 0.0
H360 H 0.32921 0.62115 0.73225 0.0
H361 H 0.38725 0.75637 0.71995 0.0
H362 H 0.44602 0.73149 0.6324 0.0
H363 H 0.43655 0.7388 0.68532 0.0
H364 H 0.29642 0.62473 0.68411 0.0
H365 H 0.30757 0.61589 0.63128 0.0
C366 C 0.33079 0.65818 0.77083 0.0
C367 C 0.3429 0.69876 0.78276 0.0
C368 C 0.33894 0.65285 0.74066 0.0
C369 C 0.35912 0.68795 0.72165 0.0
C370 C 0.37231 0.72858 0.73385 0.0
C371 C 0.36454 0.73392 0.76398 0.0
C372 C 0.41344 0.70756 0.6433 0.0
C373 C 0.37777 0.67292 0.62725 0.0
C374 C 0.40765 0.7121 0.67379 0.0
C375 C 0.36569 0.6824 0.68919 0.0
C376 C 0.32968 0.64793 0.67316 0.0
C377 C 0.33568 0.6432 0.64263 0.0
loop_
_geom_bond_atom_site_label_1
_geom_bond_atom_site_label_2
_geom_bond_distance
_geom_bond_site_symmetry_2
_ccdc_geom_bond_type
Cu0 N1 1.999 . S
Cu0 O6 1.974 . S
Cu0 N11 1.985 . S
Cu0 O20 1.959 . S
N1 Cu0 1.999 . S
N1 C3 1.263 . S
N1 C5 1.389 . S
N2 C3 1.358 . S
N2 C4 1.400 . S
C3 N1 1.263 . S
C3 N2 1.358 . S
C3 H9 0.930 . S
C4 N2 1.400 . S
C4 C5 1.351 . S
C4 H21 0.930 . S
C5 N1 1.389 . S
C5 C4 1.351 . S
C5 H10 0.930 . S
O6 Cu0 1.974 . S
O6 C16 1.282 . S
C7 O8 1.261 . S
C7 O20 1.251 . S
O8 C7 1.261 . S
H9 C3 0.930 . S
H10 C5 0.930 . S
N11 Cu0 1.985 . S
N11 C13 1.335 . S
N11 C14 1.390 . S
N12 C13 1.345 . S
N12 C15 1.336 . S
C13 N11 1.335 . S
C13 N12 1.345 . S
C13 H18 0.930 . S
C14 N11 1.390 . S
C14 C15 1.346 . S
C14 H19 0.930 . S
C15 N12 1.336 . S
C15 C14 1.346 . S
C15 H22 0.929 . S
C16 O6 1.282 . S
C16 O17 1.216 . S
O17 C16 1.216 . S
H18 C13 0.930 . S
H19 C14 0.930 . S
O20 Cu0 1.959 . S
O20 C7 1.251 . S
H21 C4 0.930 . S
H22 C15 0.929 . S
Cu23 N24 1.999 . S
Cu23 O29 1.974 . S
Cu23 N34 1.985 . S
Cu23 O43 1.959 . S
N24 Cu23 1.999 . S
N24 C26 1.263 . S
N24 C28 1.389 . S
N25 C26 1.358 . S
N25 C27 1.400 . S
C26 N24 1.263 . S
C26 N25 1.358 . S
C26 H32 0.930 . S
C27 N25 1.400 . S
C27 C28 1.351 . S
C27 H44 0.930 . S
C28 N24 1.389 . S
C28 C27 1.351 . S
C28 H33 0.930 . S
O29 Cu23 1.974 . S
O29 C39 1.282 . S
C30 O31 1.261 . S
C30 O43 1.251 . S
O31 C30 1.261 . S
H32 C26 0.930 . S
H33 C28 0.930 . S
N34 Cu23 1.985 . S
N34 C36 1.335 . S
N34 C37 1.390 . S
N35 C36 1.345 . S
N35 C38 1.336 . S
C36 N34 1.335 . S
C36 N35 1.345 . S
C36 H41 0.930 . S
C37 N34 1.390 . S
C37 C38 1.346 . S
C37 H42 0.930 . S
C38 N35 1.336 . S
C38 C37 1.346 . S
C38 H45 0.929 . S
C39 O29 1.282 . S
C39 O40 1.216 . S
O40 C39 1.216 . S
H41 C36 0.930 . S
H42 C37 0.930 . S
O43 Cu23 1.959 . S
O43 C30 1.251 . S
H44 C27 0.930 . S
H45 C38 0.929 . S
Cu46 N47 1.999 . S
Cu46 O52 1.974 . S
Cu46 N57 1.985 . S
Cu46 O66 1.959 . S
N47 Cu46 1.999 . S
N47 C49 1.263 . S
N47 C51 1.389 . S
N48 C49 1.358 . S
N48 C50 1.400 . S
C49 N47 1.263 . S
C49 N48 1.358 . S
C49 H55 0.930 . S
C50 N48 1.400 . S
C50 C51 1.351 . S
C50 H67 0.930 . S
C51 N47 1.389 . S
C51 C50 1.351 . S
C51 H56 0.930 . S
O52 Cu46 1.974 . S
O52 C62 1.282 . S
C53 O54 1.261 . S
C53 O66 1.251 . S
O54 C53 1.261 . S
H55 C49 0.930 . S
H56 C51 0.930 . S
N57 Cu46 1.985 . S
N57 C59 1.335 . S
N57 C60 1.390 . S
N58 C59 1.345 . S
N58 C61 1.336 . S
C59 N57 1.335 . S
C59 N58 1.345 . S
C59 H64 0.930 . S
C60 N57 1.390 . S
C60 C61 1.346 . S
C60 H65 0.930 . S
C61 N58 1.336 . S
C61 C60 1.346 . S
C61 H68 0.929 . S
C62 O52 1.282 . S
C62 O63 1.216 . S
O63 C62 1.216 . S
H64 C59 0.930 . S
H65 C60 0.930 . S
O66 Cu46 1.959 . S
O66 C53 1.251 . S
H67 C50 0.930 . S
H68 C61 0.929 . S
Cu69 N70 1.999 . S
Cu69 O75 1.974 . S
Cu69 N80 1.985 . S
Cu69 O89 1.959 . S
N70 Cu69 1.999 . S
N70 C72 1.263 . S
N70 C74 1.389 . S
N71 C72 1.358 . S
N71 C73 1.400 . S
C72 N70 1.263 . S
C72 N71 1.358 . S
C72 H78 0.930 . S
C73 N71 1.400 . S
C73 C74 1.351 . S
C73 H90 0.930 . S
C74 N70 1.389 . S
C74 C73 1.351 . S
C74 H79 0.930 . S
O75 Cu69 1.974 . S
O75 C85 1.282 . S
C76 O77 1.261 . S
C76 O89 1.251 . S
O77 C76 1.261 . S
H78 C72 0.930 . S
H79 C74 0.930 . S
N80 Cu69 1.985 . S
N80 C82 1.335 . S
N80 C83 1.390 . S
N81 C82 1.345 . S
N81 C84 1.336 . S
C82 N80 1.335 . S
C82 N81 1.345 . S
C82 H87 0.930 . S
C83 N80 1.390 . S
C83 C84 1.346 . S
C83 H88 0.930 . S
C84 N81 1.336 . S
C84 C83 1.346 . S
C84 H91 0.929 . S
C85 O75 1.282 . S
C85 O86 1.216 . S
O86 C85 1.216 . S
H87 C82 0.930 . S
H88 C83 0.930 . S
O89 Cu69 1.959 . S
O89 C76 1.251 . S
H90 C73 0.930 . S
H91 C84 0.929 . S
Cu92 N93 1.999 . S
Cu92 O98 1.974 . S
Cu92 N103 1.985 . S
Cu92 O112 1.959 . S
N93 Cu92 1.999 . S
N93 C95 1.263 . S
N93 C97 1.389 . S
N94 C95 1.358 . S
N94 C96 1.400 . S
C95 N93 1.263 . S
C95 N94 1.358 . S
C95 H101 0.930 . S
C96 N94 1.400 . S
C96 C97 1.351 . S
C96 H113 0.930 . S
C97 N93 1.389 . S
C97 C96 1.351 . S
C97 H102 0.930 . S
O98 Cu92 1.974 . S
O98 C108 1.282 . S
C99 O100 1.261 . S
C99 O112 1.251 . S
O100 C99 1.261 . S
H101 C95 0.930 . S
H102 C97 0.930 . S
N103 Cu92 1.985 . S
N103 C105 1.335 . S
N103 C106 1.390 . S
N104 C105 1.345 . S
N104 C107 1.336 . S
C105 N103 1.335 . S
C105 N104 1.345 . S
C105 H110 0.930 . S
C106 N103 1.390 . S
C106 C107 1.346 . S
C106 H111 0.930 . S
C107 N104 1.336 . S
C107 C106 1.346 . S
C107 H114 0.929 . S
C108 O98 1.282 . S
C108 O109 1.216 . S
O109 C108 1.216 . S
H110 C105 0.930 . S
H111 C106 0.930 . S
O112 Cu92 1.959 . S
O112 C99 1.251 . S
H113 C96 0.930 . S
H114 C107 0.929 . S
Cu115 N116 1.999 . S
Cu115 O121 1.974 . S
Cu115 N126 1.985 . S
Cu115 O135 1.959 . S
N116 Cu115 1.999 . S
N116 C118 1.263 . S
N116 C120 1.389 . S
N117 C118 1.358 . S
N117 C119 1.400 . S
C118 N116 1.263 . S
C118 N117 1.358 . S
C118 H124 0.930 . S
C119 N117 1.400 . S
C119 C120 1.351 . S
C119 H136 0.930 . S
C120 N116 1.389 . S
C120 C119 1.351 . S
C120 H125 0.930 . S
O121 Cu115 1.974 . S
O121 C131 1.282 . S
C122 O123 1.261 . S
C122 O135 1.251 . S
O123 C122 1.261 . S
H124 C118 0.930 . S
H125 C120 0.930 . S
N126 Cu115 1.985 . S
N126 C128 1.335 . S
N126 C129 1.390 . S
N127 C128 1.345 . S
N127 C130 1.336 . S
C128 N126 1.335 . S
C128 N127 1.345 . S
C128 H133 0.930 . S
C129 N126 1.390 . S
C129 C130 1.346 . S
C129 H134 0.930 . S
C130 N127 1.336 . S
C130 C129 1.346 . S
C130 H137 0.929 . S
C131 O121 1.282 . S
C131 O132 1.216 . S
O132 C131 1.216 . S
H133 C128 0.930 . S
H134 C129 0.930 . S
O135 Cu115 1.959 . S
O135 C122 1.251 . S
H136 C119 0.930 . S
H137 C130 0.929 . S
H138 C146 0.950 . S
H139 C151 0.950 . S
H140 C148 0.950 . S
H141 C150 0.950 . S
H142 C152 0.950 . S
H143 C154 0.950 . S
H144 C156 0.950 . S
H145 C157 0.950 . S
C146 H138 0.950 . S
C146 C147 1.386 . S
C146 C148 1.391 . S
C147 C146 1.386 . S
C147 C151 1.393 . S
C148 H140 0.950 . S
C148 C146 1.391 . S
C148 C149 1.400 . S
C149 C148 1.400 . S
C149 C150 1.398 . S
C149 C155 1.491 1_545 S
C150 H141 0.950 . S
C150 C149 1.398 . S
C150 C151 1.391 . S
C151 H139 0.950 . S
C151 C147 1.393 . S
C151 C150 1.391 . S
C152 H142 0.950 . S
C152 C153 1.386 . S
C152 C154 1.391 . S
C153 C152 1.386 . S
C153 C157 1.393 . S
C154 H143 0.950 . S
C154 C152 1.391 . S
C154 C155 1.400 . S
C155 C149 1.491 1_565 S
C155 C154 1.400 . S
C155 C156 1.398 . S
C156 H144 0.950 . S
C156 C155 1.398 . S
C156 C157 1.391 . S
C157 H145 0.950 . S
C157 C153 1.393 . S
C157 C156 1.391 . S
H158 C166 0.950 . S
H159 C171 0.950 . S
H160 C168 0.950 . S
H161 C170 0.950 . S
H162 C172 0.950 . S
H163 C174 0.950 . S
H164 C176 0.950 . S
H165 C177 0.950 . S
C166 H158 0.950 . S
C166 C167 1.386 . S
C166 C168 1.391 . S
C167 C166 1.386 . S
C167 C171 1.393 . S
C168 H160 0.950 . S
C168 C166 1.391 . S
C168 C169 1.400 . S
C169 C168 1.400 . S
C169 C170 1.398 . S
C169 C175 1.491 . S
C170 H161 0.950 . S
C170 C169 1.398 . S
C170 C171 1.391 . S
C171 H159 0.950 . S
C171 C167 1.393 . S
C171 C170 1.391 . S
C172 H162 0.950 . S
C172 C173 1.386 . S
C172 C174 1.391 . S
C173 C172 1.386 . S
C173 C177 1.393 . S
C174 H163 0.950 . S
C174 C172 1.391 . S
C174 C175 1.400 . S
C175 C169 1.491 . S
C175 C174 1.400 . S
C175 C176 1.398 . S
C176 H164 0.950 . S
C176 C175 1.398 . S
C176 C177 1.391 . S
C177 H165 0.950 . S
C177 C173 1.393 . S
C177 C176 1.391 . S
H178 C186 0.950 . S
H179 C191 0.950 . S
H180 C188 0.950 1_455 S
H181 C190 0.950 . S
H182 C192 0.950 . S
H183 C194 0.950 1_655 S
H184 C196 0.950 . S
H185 C197 0.950 . S
C186 H178 0.950 . S
C186 C187 1.386 . S
C186 C188 1.391 . S
C187 C186 1.386 . S
C187 C191 1.393 . S
C188 H180 0.950 1_655 S
C188 C186 1.391 . S
C188 C189 1.400 . S
C189 C188 1.400 . S
C189 C190 1.398 . S
C189 C195 1.491 1_655 S
C190 H181 0.950 . S
C190 C189 1.398 . S
C190 C191 1.391 . S
C191 H179 0.950 . S
C191 C187 1.393 . S
C191 C190 1.391 . S
C192 H182 0.950 . S
C192 C193 1.386 . S
C192 C194 1.391 . S
C193 C192 1.386 . S
C193 C197 1.393 . S
C194 H183 0.950 1_455 S
C194 C192 1.391 . S
C194 C195 1.400 . S
C195 C189 1.491 1_455 S
C195 C194 1.400 . S
C195 C196 1.398 . S
C196 H184 0.950 . S
C196 C195 1.398 . S
C196 C197 1.391 . S
C197 H185 0.950 . S
C197 C193 1.393 . S
C197 C196 1.391 . S
H198 C206 0.950 . S
H199 C211 0.950 . S
H200 C208 0.950 . S
H201 C210 0.950 . S
H202 C212 0.950 . S
H203 C214 0.950 . S
H204 C216 0.950 . S
H205 C217 0.950 . S
C206 H198 0.950 . S
C206 C207 1.386 . S
C206 C208 1.391 . S
C207 C206 1.386 . S
C207 C211 1.393 . S
C208 H200 0.950 . S
C208 C206 1.391 . S
C208 C209 1.400 . S
C209 C208 1.400 . S
C209 C210 1.398 . S
C209 C215 1.491 1_455 S
C210 H201 0.950 . S
C210 C209 1.398 . S
C210 C211 1.391 . S
C211 H199 0.950 . S
C211 C207 1.393 . S
C211 C210 1.391 . S
C212 H202 0.950 . S
C212 C213 1.386 . S
C212 C214 1.391 . S
C213 C212 1.386 . S
C213 C217 1.393 . S
C214 H203 0.950 . S
C214 C212 1.391 . S
C214 C215 1.400 . S
C215 C209 1.491 1_655 S
C215 C214 1.400 . S
C215 C216 1.398 . S
C216 H204 0.950 . S
C216 C215 1.398 . S
C216 C217 1.391 . S
C217 H205 0.950 . S
C217 C213 1.393 . S
C217 C216 1.391 . S
H218 C226 0.950 . S
H219 C231 0.950 . S
H220 C228 0.950 . S
H221 C230 0.950 . S
H222 C232 0.950 . S
H223 C234 0.950 . S
H224 C236 0.950 . S
H225 C237 0.950 . S
C226 H218 0.950 . S
C226 C227 1.386 . S
C226 C228 1.391 . S
C227 C226 1.386 . S
C227 C231 1.393 . S
C228 H220 0.950 . S
C228 C226 1.391 . S
C228 C229 1.400 . S
C229 C228 1.400 . S
C229 C230 1.398 . S
C229 C235 1.491 1_565 S
C230 H221 0.950 . S
C230 C229 1.398 . S
C230 C231 1.391 . S
C231 H219 0.950 . S
C231 C227 1.393 . S
C231 C230 1.391 . S
C232 H222 0.950 . S
C232 C233 1.386 . S
C232 C234 1.391 . S
C233 C232 1.386 . S
C233 C237 1.393 . S
C234 H223 0.950 . S
C234 C232 1.391 . S
C234 C235 1.400 . S
C235 C229 1.491 1_545 S
C235 C234 1.400 . S
C235 C236 1.398 . S
C236 H224 0.950 . S
C236 C235 1.398 . S
C236 C237 1.391 . S
C237 H225 0.950 . S
C237 C233 1.393 . S
C237 C236 1.391 . S
H238 C246 0.950 . S
H239 C251 0.950 . S
H240 C248 0.950 . S
H241 C250 0.950 . S
H242 C252 0.950 . S
H243 C254 0.950 . S
H244 C256 0.950 . S
H245 C257 0.950 . S
C246 H238 0.950 . S
C246 C247 1.386 . S
C246 C248 1.391 . S
C247 C246 1.386 . S
C247 C251 1.393 . S
C248 H240 0.950 . S
C248 C246 1.391 . S
C248 C249 1.400 . S
C249 C248 1.400 . S
C249 C250 1.398 . S
C249 C255 1.491 . S
C250 H241 0.950 . S
C250 C249 1.398 . S
C250 C251 1.391 . S
C251 H239 0.950 . S
C251 C247 1.393 . S
C251 C250 1.391 . S
C252 H242 0.950 . S
C252 C253 1.386 . S
C252 C254 1.391 . S
C253 C252 1.386 . S
C253 C257 1.393 . S
C254 H243 0.950 . S
C254 C252 1.391 . S
C254 C255 1.400 . S
C255 C249 1.491 . S
C255 C254 1.400 . S
C255 C256 1.398 . S
C256 H244 0.950 . S
C256 C255 1.398 . S
C256 C257 1.391 . S
C257 H245 0.950 . S
C257 C253 1.393 . S
C257 C256 1.391 . S
H258 C266 0.950 . S
H259 C271 0.950 . S
H260 C268 0.950 . S
H261 C270 0.950 . S
H262 C272 0.950 . S
H263 C274 0.950 . S
H264 C276 0.950 . S
H265 C277 0.950 . S
C266 H258 0.950 . S
C266 C267 1.386 . S
C266 C268 1.391 . S
C267 C266 1.386 . S
C267 C271 1.393 . S
C268 H260 0.950 . S
C268 C266 1.391 . S
C268 C269 1.400 . S
C269 C268 1.400 . S
C269 C270 1.398 . S
C269 C275 1.491 1_556 S
C270 H261 0.950 . S
C270 C269 1.398 . S
C270 C271 1.391 . S
C271 H259 0.950 . S
C271 C267 1.393 . S
C271 C270 1.391 . S
C272 H262 0.950 . S
C272 C273 1.386 . S
C272 C274 1.391 . S
C273 C272 1.386 . S
C273 C277 1.393 . S
C274 H263 0.950 . S
C274 C272 1.391 . S
C274 C275 1.400 . S
C275 C269 1.491 1_554 S
C275 C274 1.400 . S
C275 C276 1.398 . S
C276 H264 0.950 . S
C276 C275 1.398 . S
C276 C277 1.391 . S
C277 H265 0.950 . S
C277 C273 1.393 . S
C277 C276 1.391 . S
H278 C286 0.950 . S
H279 C291 0.950 . S
H280 C288 0.950 . S
H281 C290 0.950 . S
H282 C292 0.950 . S
H283 C294 0.950 . S
H284 C296 0.950 . S
H285 C297 0.950 . S
C286 H278 0.950 . S
C286 C287 1.386 . S
C286 C288 1.391 . S
C287 C286 1.386 . S
C287 C291 1.393 . S
C288 H280 0.950 . S
C288 C286 1.391 . S
C288 C289 1.400 . S
C289 C288 1.400 . S
C289 C290 1.398 . S
C289 C295 1.491 . S
C290 H281 0.950 . S
C290 C289 1.398 . S
C290 C291 1.391 . S
C291 H279 0.950 . S
C291 C287 1.393 . S
C291 C290 1.391 . S
C292 H282 0.950 . S
C292 C293 1.386 . S
C292 C294 1.391 . S
C293 C292 1.386 . S
C293 C297 1.393 . S
C294 H283 0.950 . S
C294 C292 1.391 . S
C294 C295 1.400 . S
C295 C289 1.491 . S
C295 C294 1.400 . S
C295 C296 1.398 . S
C296 H284 0.950 . S
C296 C295 1.398 . S
C296 C297 1.391 . S
C297 H285 0.950 . S
C297 C293 1.393 . S
C297 C296 1.391 . S
H298 C306 0.950 . S
H299 C311 0.950 . S
H300 C308 0.950 . S
H301 C310 0.950 . S
H302 C312 0.950 . S
H303 C314 0.950 . S
H304 C316 0.950 . S
H305 C317 0.950 . S
C306 H298 0.950 . S
C306 C307 1.386 . S
C306 C308 1.391 . S
C307 C306 1.386 . S
C307 C311 1.393 . S
C308 H300 0.950 . S
C308 C306 1.391 . S
C308 C309 1.400 . S
C309 C308 1.400 . S
C309 C310 1.398 . S
C309 C315 1.491 . S
C310 H301 0.950 . S
C310 C309 1.398 . S
C310 C311 1.391 . S
C311 H299 0.950 . S
C311 C307 1.393 . S
C311 C310 1.391 . S
C312 H302 0.950 . S
C312 C313 1.386 . S
C312 C314 1.391 . S
C313 C312 1.386 . S
C313 C317 1.393 . S
C314 H303 0.950 . S
C314 C312 1.391 . S
C314 C315 1.400 . S
C315 C309 1.491 . S
C315 C314 1.400 . S
C315 C316 1.398 . S
C316 H304 0.950 . S
C316 C315 1.398 . S
C316 C317 1.391 . S
C317 H305 0.950 . S
C317 C313 1.393 . S
C317 C316 1.391 . S
H318 C326 0.950 . S
H319 C331 0.950 . S
H320 C328 0.950 1_554 S
H321 C330 0.950 . S
H322 C332 0.950 . S
H323 C334 0.950 1_556 S
H324 C336 0.950 . S
H325 C337 0.950 . S
C326 H318 0.950 . S
C326 C327 1.386 . S
C326 C328 1.391 . S
C327 C326 1.386 . S
C327 C331 1.393 . S
C328 H320 0.950 1_556 S
C328 C326 1.391 . S
C328 C329 1.400 . S
C329 C328 1.400 . S
C329 C330 1.398 . S
C329 C335 1.491 1_556 S
C330 H321 0.950 . S
C330 C329 1.398 . S
C330 C331 1.391 . S
C331 H319 0.950 . S
C331 C327 1.393 . S
C331 C330 1.391 . S
C332 H322 0.950 . S
C332 C333 1.386 . S
C332 C334 1.391 . S
C333 C332 1.386 . S
C333 C337 1.393 . S
C334 H323 0.950 1_554 S
C334 C332 1.391 . S
C334 C335 1.400 . S
C335 C329 1.491 1_554 S
C335 C334 1.400 . S
C335 C336 1.398 . S
C336 H324 0.950 . S
C336 C335 1.398 . S
C336 C337 1.391 . S
C337 H325 0.950 . S
C337 C333 1.393 . S
C337 C336 1.391 . S
H338 C346 0.950 . S
H339 C351 0.950 . S
H340 C348 0.950 . S
H341 C350 0.950 . S
H342 C352 0.950 . S
H343 C354 0.950 . S
H344 C356 0.950 . S
H345 C357 0.950 . S
C346 H338 0.950 . S
C346 C347 1.386 . S
C346 C348 1.391 . S
C347 C346 1.386 . S
C347 C351 1.393 . S
C348 H340 0.950 . S
C348 C346 1.391 . S
C348 C349 1.400 . S
C349 C348 1.400 . S
C349 C350 1.398 . S
C349 C355 1.491 . S
C350 H341 0.950 . S
C350 C349 1.398 . S
C350 C351 1.391 . S
C351 H339 0.950 . S
C351 C347 1.393 . S
C351 C350 1.391 . S
C352 H342 0.950 . S
C352 C353 1.386 . S
C352 C354 1.391 . S
C353 C352 1.386 . S
C353 C357 1.393 . S
C354 H343 0.950 . S
C354 C352 1.391 . S
C354 C355 1.400 . S
C355 C349 1.491 . S
C355 C354 1.400 . S
C355 C356 1.398 . S
C356 H344 0.950 . S
C356 C355 1.398 . S
C356 C357 1.391 . S
C357 H345 0.950 . S
C357 C353 1.393 . S
C357 C356 1.391 . S
H358 C366 0.950 . S
H359 C371 0.950 . S
H360 C368 0.950 . S
H361 C370 0.950 . S
H362 C372 0.950 . S
H363 C374 0.950 . S
H364 C376 0.950 . S
H365 C377 0.950 . S
C366 H358 0.950 . S
C366 C367 1.386 . S
C366 C368 1.391 . S
C367 C366 1.386 . S
C367 C371 1.393 . S
C368 H360 0.950 . S
C368 C366 1.391 . S
C368 C369 1.400 . S
C369 C368 1.400 . S
C369 C370 1.398 . S
C369 C375 1.491 . S
C370 H361 0.950 . S
C370 C369 1.398 . S
C370 C371 1.391 . S
C371 H359 0.950 . S
C371 C367 1.393 . S
C371 C370 1.391 . S
C372 H362 0.950 . S
C372 C373 1.386 . S
C372 C374 1.391 . S
C373 C372 1.386 . S
C373 C377 1.393 . S
C374 H363 0.950 . S
C374 C372 1.391 . S
C374 C375 1.400 . S
C375 C369 1.491 . S
C375 C374 1.400 . S
C375 C376 1.398 . S
C376 H364 0.950 . S
C376 C375 1.398 . S
C376 C377 1.391 . S
C377 H365 0.950 . S
C377 C373 1.393 . S
C377 C376 1.391 . S
C147 N12 1.464 . S
C153 N81 1.477 . S
C167 C39 1.689 . S
C173 C108 1.694 . S
C187 N58 1.356 . S
C193 N127 1.337 . S
C207 C30 1.790 . S
C213 C99 1.788 . S
C227 N117 1.476 . S
C233 N48 1.475 . S
C247 N71 1.383 . S
C253 N2 1.376 . S
C267 C62 1.849 . S
C273 C7 1.893 . S
C287 C85 1.896 . S
C293 N25 1.830 . S
C307 C53 1.942 . S
C313 N104 1.923 . S
C327 C131 1.843 . S
C333 C76 1.905 . S
C347 N94 1.824 . S
C353 C16 1.908 . S
C367 C122 1.954 . S
C373 N35 1.929 . S
