# Generated by pormake.
# Topology smu, (6)-cn, num edge types: 1
# Building blocks:
#     Node 0, Type 0, BuildingBlock: OJICUG_clean_sbu_0, # of connection points: 6
#     Node 1, Type 0, BuildingBlock: OJICUG_clean_sbu_0, # of connection points: 6
#     Node 2, Type 0, BuildingBlock: OJICUG_clean_sbu_0, # of connection points: 6
#     Node 3, Type 0, BuildingBlock: OJICUG_clean_sbu_0, # of connection points: 6
#     Node 4, Type 0, BuildingBlock: OJICUG_clean_sbu_0, # of connection points: 6
#     Node 5, Type 0, BuildingBlock: OJICUG_clean_sbu_0, # of connection points: 6
#     Edge 6, Type (0, 0), BuildingBlock: FUNLAD_clean_linker_0, # of connection points: 2
#     Edge 7, Type (0, 0), BuildingBlock: FUNLAD_clean_linker_0, # of connection points: 2
#     Edge 8, Type (0, 0), BuildingBlock: FUNLAD_clean_linker_0, # of connection points: 2
#     Edge 9, Type (0, 0), BuildingBlock: FUNLAD_clean_linker_0, # of connection points: 2
#     Edge 10, Type (0, 0), BuildingBlock: FUNLAD_clean_linker_0, # of connection points: 2
#     Edge 11, Type (0, 0), BuildingBlock: FUNLAD_clean_linker_0, # of connection points: 2
#     Edge 12, Type (0, 0), BuildingBlock: FUNLAD_clean_linker_0, # of connection points: 2
#     Edge 13, Type (0, 0), BuildingBlock: FUNLAD_clean_linker_0, # of connection points: 2
#     Edge 14, Type (0, 0), BuildingBlock: FUNLAD_clean_linker_0, # of connection points: 2
#     Edge 15, Type (0, 0), BuildingBlock: FUNLAD_clean_linker_0, # of connection points: 2
#     Edge 16, Type (0, 0), BuildingBlock: FUNLAD_clean_linker_0, # of connection points: 2
#     Edge 17, Type (0, 0), BuildingBlock: FUNLAD_clean_linker_0, # of connection points: 2
#     Edge 18, Type (0, 0), BuildingBlock: FUNLAD_clean_linker_0, # of connection points: 2
#     Edge 19, Type (0, 0), BuildingBlock: FUNLAD_clean_linker_0, # of connection points: 2
#     Edge 20, Type (0, 0), BuildingBlock: FUNLAD_clean_linker_0, # of connection points: 2
#     Edge 21, Type (0, 0), BuildingBlock: FUNLAD_clean_linker_0, # of connection points: 2
#     Edge 22, Type (0, 0), BuildingBlock: FUNLAD_clean_linker_0, # of connection points: 2
#     Edge 23, Type (0, 0), BuildingBlock: FUNLAD_clean_linker_0, # of connection points: 2
# Relax obj value: 0.250
# Max RMSD: 0.294
# Mean RMSD: 0.265
data_MOF--net-smu--node1-OJICUG_clean_sbu_0--edge1-FUNLAD_clean_linker_0
_symmetry_space_group_name_H-M    P1
_symmetry_Int_Tables_number       1
_symmetry_cell_setting            triclinic
loop_
_symmetry_equiv_pos_as_xyz
'x, y, z'
_cell_length_a     34.671075
_cell_length_b     34.639403
_cell_length_c     35.555432
_cell_angle_alpha  95.378628
_cell_angle_beta   95.789884
_cell_angle_gamma 119.96442
loop_
_atom_site_label
_atom_site_type_symbol
_atom_site_fract_x
_atom_site_fract_y
_atom_site_fract_z
_atom_type_partial_charge
Sc0 Sc 0.30626 0.06693 0.20222 0.0
Sc1 Sc 0.31934 0.99058 0.25224 0.0
Sc2 Sc 0.3615 0.10311 0.29758 0.0
O3 O 0.3288 0.05349 0.25097 0.0
C4 C 0.39665 0.16149 0.2314 0.0
C5 C 0.34562 0.00896 0.16956 0.0
C6 C 0.4224 0.05794 0.29082 0.0
C7 C 0.2258 0.96715 0.20579 0.0
C8 C 0.27723 0.11236 0.26681 0.0
C9 C 0.30867 0.01675 0.33768 0.0
O10 O 0.36448 0.13257 0.20547 0.0
O11 O 0.33498 0.98392 0.19523 0.0
O12 O 0.41682 0.09045 0.3028 0.0
O13 O 0.24408 0.00317 0.19147 0.0
O14 O 0.30831 0.11947 0.29392 0.0
O15 O 0.30331 0.988 0.30959 0.0
O16 O 0.27266 0.0938 0.23277 0.0
O17 O 0.24781 0.95786 0.23051 0.0
O18 O 0.3283 0.05876 0.33671 0.0
O19 O 0.33931 0.04192 0.16926 0.0
O20 O 0.40003 0.15536 0.26586 0.0
O21 O 0.39018 0.01964 0.2732 0.0
Sc22 Sc 0.72628 0.63394 0.19188 0.0
Sc23 Sc 0.66468 0.66114 0.25085 0.0
Sc24 Sc 0.78008 0.70169 0.28132 0.0
O25 O 0.72363 0.66586 0.24129 0.0
C26 C 0.78521 0.61467 0.25104 0.0
C27 C 0.62981 0.56199 0.21015 0.0
C28 C 0.7061 0.6525 0.33265 0.0
C29 C 0.66582 0.67211 0.16189 0.0
C30 C 0.82292 0.72563 0.20733 0.0
C31 C 0.73485 0.76295 0.28687 0.0
O32 O 0.75505 0.60126 0.22158 0.0
O33 O 0.62806 0.58923 0.2354 0.0
O34 O 0.7454 0.6676 0.32463 0.0
O35 O 0.69767 0.66452 0.15883 0.0
O36 O 0.82018 0.73854 0.24105 0.0
O37 O 0.69633 0.733 0.26795 0.0
O38 O 0.79296 0.68781 0.18735 0.0
O39 O 0.6478 0.66881 0.19197 0.0
O40 O 0.76684 0.75547 0.29507 0.0
O41 O 0.66102 0.57441 0.19005 0.0
O42 O 0.80012 0.65191 0.27333 0.0
O43 O 0.67413 0.65149 0.31045 0.0
Sc44 Sc 0.88863 0.18642 0.20715 0.0
Sc45 Sc 0.96903 0.29991 0.24048 0.0
Sc46 Sc 0.8769 0.2439 0.28594 0.0
O47 O 0.91139 0.24354 0.24435 0.0
C48 C 0.79682 0.1832 0.22043 0.0
C49 C 0.92159 0.25695 0.15237 0.0
C50 C 0.90993 0.34023 0.25976 0.0
C51 C -0.00464 0.22704 0.2245 0.0
C52 C 0.87019 0.1483 0.2832 0.0
C53 C 0.97416 0.3039 0.33125 0.0
O54 O 0.81737 0.16472 0.20651 0.0
O55 O 0.95511 0.28555 0.17806 0.0
O56 O 0.89079 0.31156 0.28169 0.0
O57 O 0.95643 0.19924 0.20467 0.0
O58 O 0.85855 0.17606 0.29551 0.0
O59 O 0.98943 0.32211 0.30243 0.0
O60 O 0.88754 0.15072 0.2531 0.0
O61 O 0.00484 0.26454 0.24343 0.0
O62 O 0.93518 0.26926 0.32847 0.0
O63 O 0.88965 0.22017 0.15939 0.0
O64 O 0.81683 0.2187 0.2455 0.0
O65 O 0.93579 0.33762 0.23809 0.0
Sc66 Sc 0.08136 0.31047 0.70935 0.0
Sc67 Sc 0.00472 0.33604 0.74638 0.0
Sc68 Sc 0.11243 0.3753 0.80061 0.0
O69 O 0.06607 0.34045 0.75226 0.0
C70 C 0.11607 0.28478 0.78361 0.0
C71 C 0.97681 0.23789 0.70752 0.0
C72 C 0.02083 0.32927 0.83487 0.0
C73 C 0.03426 0.35403 0.66407 0.0
C74 C 0.17794 0.39907 0.73949 0.0
C75 C 0.07363 0.43956 0.78183 0.0
O76 O 0.10002 0.27679 0.74815 0.0
O77 O 0.96851 0.26428 0.72765 0.0
O78 O 0.0632 0.34795 0.83679 0.0
O79 O 0.06387 0.34281 0.66874 0.0
O80 O 0.16815 0.40738 0.77138 0.0
O81 O 0.03555 0.40735 0.76409 0.0
O82 O 0.15042 0.36486 0.71446 0.0
O83 O 0.00764 0.34959 0.6878 0.0
O84 O 0.10466 0.43344 0.79715 0.0
O85 O 0.01481 0.25095 0.69707 0.0
O86 O 0.12435 0.31974 0.80652 0.0
O87 O -0.00563 0.32268 0.80427 0.0
Sc88 Sc 0.18213 0.90214 0.72347 0.0
Sc89 Sc 0.29752 0.97451 0.75736 0.0
Sc90 Sc 0.24105 0.86553 0.77798 0.0
O91 O 0.24058 0.91466 0.75326 0.0
C92 C 0.14758 0.85634 0.79227 0.0
C93 C 0.22761 0.00586 0.76209 0.0
C94 C 0.30252 0.94835 0.84168 0.0
C95 C 0.24993 0.95156 0.66899 0.0
C96 C 0.17579 0.80646 0.70612 0.0
C97 C 0.33724 0.91157 0.75098 0.0
O98 O 0.15151 0.88713 0.77344 0.0
O99 O 0.26514 0.01026 0.77574 0.0
O100 O 0.26873 0.90833 0.83223 0.0
O101 O 0.21239 0.9179 0.67301 0.0
O102 O 0.21558 0.82257 0.72376 0.0
O103 O 0.33516 0.94421 0.73955 0.0
O104 O 0.15667 0.82979 0.70631 0.0
O105 O 0.28113 0.97776 0.69736 0.0
O106 O 0.30785 0.88374 0.76845 0.0
O107 O 0.19726 0.97108 0.73861 0.0
O108 O 0.17317 0.83982 0.79141 0.0
O109 O 0.31877 0.97509 0.81753 0.0
Sc110 Sc 0.64704 0.74527 0.68859 0.0
Sc111 Sc 0.66656 0.68224 0.75243 0.0
Sc112 Sc 0.70692 0.79765 0.78136 0.0
O113 O 0.6735 0.74165 0.74073 0.0
C114 C 0.74121 0.83913 0.70744 0.0
C115 C 0.68103 0.6792 0.66462 0.0
C116 C 0.76721 0.75168 0.79218 0.0
C117 C 0.57009 0.64999 0.70602 0.0
C118 C 0.62581 0.80764 0.74239 0.0
C119 C 0.65467 0.72427 0.83223 0.0
O120 O 0.70574 0.80914 0.68453 0.0
O121 O 0.6759 0.66254 0.69547 0.0
O122 O 0.75918 0.78349 0.79891 0.0
O123 O 0.58473 0.68192 0.6864 0.0
O124 O 0.65866 0.81864 0.76894 0.0
O125 O 0.65448 0.6925 0.81076 0.0
O126 O 0.61567 0.77932 0.71237 0.0
O127 O 0.59515 0.64722 0.73302 0.0
O128 O 0.66946 0.76336 0.82359 0.0
O129 O 0.67595 0.71218 0.65948 0.0
O130 O 0.7476 0.83782 0.74298 0.0
O131 O 0.73806 0.71313 0.77273 0.0
C132 C 0.31295 0.93027 0.90673 0.0
C133 C 0.32526 0.96255 0.88214 0.0
C134 C 0.33415 0.9424 0.94477 0.0
C135 C 0.36842 0.98722 0.95934 0.0
C136 C 0.381 0.01957 0.93487 0.0
C137 C 0.3599 0.00731 0.89647 0.0
C138 C 0.38661 0.00201 0.0009 0.0
C139 C 0.38618 0.97359 0.02458 0.0
C140 C 0.38634 0.98287 0.06611 0.0
C141 C 0.35912 0.94662 0.08429 0.0
C142 C 0.34839 0.95475 0.11992 0.0
C143 C 0.36478 -0.00073 0.13752 0.0
H144 H 0.43013 0.05586 0.07387 0.0
C145 C 0.3961 0.03532 0.12141 0.0
C146 C 0.40724 0.02722 0.08619 0.0
H147 H 0.41023 0.06999 0.13516 0.0
H148 H 0.28652 0.89539 0.89676 0.0
H149 H 0.32205 0.91676 0.96291 0.0
H150 H 0.40672 0.05454 0.94565 0.0
H151 H 0.37024 0.03294 0.87826 0.0
H152 H 0.39539 0.03604 0.01253 0.0
H153 H 0.37769 0.93972 0.01265 0.0
H154 H 0.34314 0.91208 0.06958 0.0
H155 H 0.32455 0.92644 0.13208 0.0
C156 C 0.72015 0.68168 0.60976 0.0
C157 C 0.68623 0.65614 0.63044 0.0
C158 C 0.71683 0.66595 0.5713 0.0
C159 C 0.679 0.62459 0.55258 0.0
C160 C 0.64651 0.59778 0.574 0.0
C161 C 0.65036 0.61321 0.61283 0.0
C162 C 0.66993 0.61245 0.51011 0.0
C163 C 0.7035 0.625 0.48953 0.0
C164 C 0.69735 0.62312 0.44735 0.0
C165 C 0.73054 0.62289 0.42813 0.0
C166 C 0.73139 0.62971 0.3902 0.0
C167 C 0.69935 0.63763 0.37048 0.0
H168 H 0.63763 0.62913 0.44124 0.0
C169 C 0.66429 0.6351 0.38884 0.0
C170 C 0.66332 0.62799 0.42707 0.0
H171 H 0.63914 0.64105 0.37447 0.0
H172 H 0.74744 0.71537 0.62255 0.0
H173 H 0.74202 0.6881 0.55561 0.0
H174 H 0.61692 0.56601 0.5602 0.0
H175 H 0.62315 0.59353 0.62799 0.0
H176 H 0.63503 0.59462 0.49558 0.0
H177 H 0.73784 0.63894 0.50445 0.0
H178 H 0.75708 0.6192 0.44301 0.0
H179 H 0.75849 0.6306 0.37682 0.0
C180 C 0.95724 0.30468 0.10302 0.0
C181 C 0.92111 0.26579 0.11233 0.0
C182 C 0.959 0.31113 0.06494 0.0
C183 C 0.92479 0.27873 0.03521 0.0
C184 C 0.8873 0.24131 0.04456 0.0
C185 C 0.88555 0.23471 0.08275 0.0
C186 C 0.92911 0.28229 0.99436 0.0
C187 C 0.96945 0.29715 0.98321 0.0
C188 C 0.97765 0.30001 0.94314 0.0
C189 C 0.01739 0.30237 0.93506 0.0
C190 C 0.02988 0.30981 0.89932 0.0
C191 C 0.0031 0.31546 0.87054 0.0
H192 H 0.91876 0.30242 0.91932 0.0
C193 C 0.96207 0.31109 0.87776 0.0
C194 C 0.94944 0.30356 0.91394 0.0
H195 H 0.94083 0.31541 0.85615 0.0
H196 H 0.98483 0.32975 0.12502 0.0
H197 H 0.98767 0.34119 0.05876 0.0
H198 H 0.86028 0.21616 0.02219 0.0
H199 H 0.85688 0.20464 0.0889 0.0
H200 H 0.89868 0.26901 0.97326 0.0
H201 H -0.00155 0.30598 0.00471 0.0
H202 H 0.03961 0.29945 0.95684 0.0
H203 H 0.06136 0.31223 0.89463 0.0
C204 C 0.29545 0.03254 0.40378 0.0
C205 C 0.29321 0.00153 0.37383 0.0
C206 C 0.28418 0.01976 0.43897 0.0
C207 C 0.27072 0.97565 0.44531 0.0
C208 C 0.26653 0.94403 0.41495 0.0
C209 C 0.27782 0.95684 0.37957 0.0
C210 C 0.26068 0.96189 0.48318 0.0
C211 C 0.28108 0.99138 0.51635 0.0
C212 C 0.27242 0.97925 0.55489 0.0
C213 C 0.3048 0.00793 0.58708 0.0
C214 C 0.29767 -0.00117 0.62401 0.0
C215 C 0.25765 0.96092 0.6297 0.0
H216 H 0.20588 0.91908 0.53657 0.0
C217 C 0.22506 0.93226 0.59746 0.0
C218 C 0.23227 0.94133 0.56047 0.0
H219 H 0.19371 0.90287 0.60073 0.0
H220 H 0.30635 0.06705 0.40026 0.0
H221 H 0.28597 0.0446 0.46106 0.0
H222 H 0.25557 0.90963 0.41891 0.0
H223 H 0.2754 0.93199 0.35708 0.0
H224 H 0.23801 0.92627 0.48365 0.0
H225 H 0.30701 0.02599 0.51562 0.0
H226 H 0.33588 0.03758 0.58368 0.0
H227 H 0.32351 0.02174 0.64807 0.0
C228 C 0.63191 0.67876 0.88603 0.0
C229 C 0.64059 0.7176 0.8704 0.0
C230 C 0.62515 0.67628 0.92421 0.0
C231 C 0.62694 0.71266 0.94739 0.0
C232 C 0.63328 0.75025 0.93111 0.0
C233 C 0.63965 0.7526 0.89312 0.0
C234 C 0.62872 0.71556 0.98956 0.0
C235 C 0.61076 0.67955 0.0076 0.0
C236 C 0.62157 0.6838 0.0499 0.0
C237 C 0.59084 0.65115 0.06922 0.0
C238 C 0.60356 0.65027 0.10771 0.0
C239 C 0.64754 0.68146 0.12707 0.0
H240 H 0.68966 0.74183 0.0563 0.0
C241 C 0.67747 0.71541 0.10842 0.0
C242 C 0.66459 0.71683 0.07035 0.0
H243 H 0.71189 0.73915 0.12258 0.0
H244 H 0.63241 0.65121 0.86942 0.0
H245 H 0.62119 0.64707 0.93601 0.0
H246 H 0.6349 0.77875 0.94827 0.0
H247 H 0.64569 0.78291 0.88211 0.0
H248 H 0.64693 0.74926 0.00659 0.0
H249 H 0.58889 0.64588 0.99102 0.0
H250 H 0.55769 0.6251 0.05405 0.0
H251 H 0.58033 0.62309 0.12127 0.0
C252 C 0.98644 0.30153 0.40065 0.0
C253 C -0.00089 0.32628 0.37046 0.0
C254 C 0.00134 0.32343 0.43845 0.0
C255 C 0.02947 0.37059 0.44703 0.0
C256 C 0.04562 0.39514 0.41728 0.0
C257 C 0.03022 0.37312 0.37903 0.0
C258 C 0.04189 0.39329 0.4873 0.0
C259 C 0.01024 0.38059 0.5101 0.0
C260 C 0.0199 0.38619 0.5525 0.0
C261 C 0.98323 0.3702 0.5725 0.0
C262 C 0.98831 0.36279 0.6102 0.0
C263 C 0.03014 0.37096 0.62827 0.0
H264 H 0.09208 0.4113 0.55829 0.0
C265 C 0.06773 0.39112 0.60967 0.0
C266 C 0.06278 0.39877 0.57222 0.0
H267 H 0.10068 0.3987 0.62334 0.0
H268 H 0.96325 0.2653 0.39506 0.0
H269 H 0.98997 0.30347 0.46104 0.0
H270 H 0.06825 0.43145 0.42349 0.0
H271 H 0.04062 0.39303 0.35631 0.0
H272 H 0.07726 0.41745 0.49835 0.0
H273 H 0.97492 0.35929 0.49666 0.0
H274 H 0.94983 0.36036 0.55806 0.0
H275 H 0.95887 0.34758 0.62402 0.0
C276 C 0.47718 0.03638 0.27032 0.0
C277 C 0.46923 0.06752 0.29135 0.0
C278 C 0.52045 0.04917 0.26291 0.0
C279 C 0.55676 0.0934 0.27649 0.0
C280 C 0.54953 0.1231 0.30029 0.0
C281 C 0.50628 0.11043 0.30754 0.0
C282 C 0.60206 0.111 0.26537 0.0
C283 C 0.61075 0.09222 0.23482 0.0
C284 C 0.65606 0.11495 0.22358 0.0
C285 C 0.67566 0.08976 0.21205 0.0
C286 C 0.72099 0.11183 0.20712 0.0
C287 C 0.74695 0.15932 0.21332 0.0
H288 H 0.66583 0.18226 0.23302 0.0
C289 C 0.72567 0.18403 0.22077 0.0
C290 C 0.68072 0.1621 0.22583 0.0
H291 H 0.74462 0.22064 0.2251 0.0
H292 H 0.44958 0.00281 0.25772 0.0
H293 H 0.52479 0.0246 0.24574 0.0
H294 H 0.57703 0.15714 0.31174 0.0
H295 H 0.50161 0.1352 0.32414 0.0
H296 H 0.62932 0.1428 0.28205 0.0
H297 H 0.58509 0.0599 0.21798 0.0
H298 H 0.65688 0.05327 0.20937 0.0
H299 H 0.73651 0.0919 0.20145 0.0
C300 C 0.60276 0.48087 0.18567 0.0
C301 C 0.59658 0.51323 0.20673 0.0
C302 C 0.57536 0.43499 0.18726 0.0
C303 C 0.54098 0.42062 0.20971 0.0
C304 C 0.53352 0.45277 0.2292 0.0
C305 C 0.56088 0.49854 0.22768 0.0
C306 C 0.51484 0.37338 0.21642 0.0
C307 C 0.51068 0.33758 0.19397 0.0
C308 C 0.4851 0.29167 0.20351 0.0
C309 C 0.45761 0.25479 0.17417 0.0
C310 C 0.42981 0.21198 0.18309 0.0
C311 C 0.42968 0.2053 0.22154 0.0
H312 H 0.50908 0.31216 0.2649 0.0
C313 C 0.45953 0.24177 0.25068 0.0
C314 C 0.48694 0.28454 0.24176 0.0
H315 H 0.46072 0.23773 0.28054 0.0
H316 H 0.63009 0.49105 0.16937 0.0
H317 H 0.5828 0.41145 0.17235 0.0
H318 H 0.50722 0.4426 0.24666 0.0
H319 H 0.55497 0.52248 0.24408 0.0
H320 H 0.49762 0.36779 0.24106 0.0
H321 H 0.52354 0.34122 0.16713 0.0
H322 H 0.45626 0.25947 0.14446 0.0
H323 H 0.40765 0.18441 0.15991 0.0
C324 C 0.87799 0.38565 0.28617 0.0
C325 C 0.90149 0.37794 0.2593 0.0
C326 C 0.86861 0.42028 0.28482 0.0
C327 C 0.88263 0.4479 0.25654 0.0
C328 C 0.90648 0.44051 0.22999 0.0
C329 C 0.91612 0.40609 0.23146 0.0
C330 C 0.86931 0.48173 0.25165 0.0
C331 C 0.8592 0.50162 0.28016 0.0
C332 C 0.84042 0.53072 0.27269 0.0
C333 C 0.85054 0.56733 0.3006 0.0
C334 C 0.83282 0.59497 0.29372 0.0
C335 C 0.80406 0.5858 0.25902 0.0
H336 H 0.80126 0.49215 0.21681 0.0
C337 C 0.79318 0.54838 0.23159 0.0
C338 C 0.81106 0.52113 0.23835 0.0
H339 H 0.77085 0.54004 0.20467 0.0
H340 H 0.86622 0.36454 0.30798 0.0
H341 H 0.849 0.42413 0.30508 0.0
H342 H 0.91721 0.46107 0.20769 0.0
H343 H 0.93421 0.40103 0.21028 0.0
H344 H 0.8676 0.49044 0.22318 0.0
H345 H 0.86521 0.49707 0.30954 0.0
H346 H 0.87258 0.57486 0.32752 0.0
H347 H 0.8415 0.6233 0.31557 0.0
C348 C 0.04947 0.49347 0.76394 0.0
C349 C 0.08396 0.48613 0.77906 0.0
C350 C 0.05981 0.53496 0.75331 0.0
C351 C 0.10506 0.5702 0.7575 0.0
C352 C 0.1392 0.56388 0.77518 0.0
C353 C 0.12885 0.52236 0.78583 0.0
C354 C 0.11869 0.61341 0.74294 0.0
C355 C 0.09094 0.62191 0.72039 0.0
C356 C 0.10828 0.66598 0.70693 0.0
C357 C 0.08368 0.6881 0.70819 0.0
C358 C 0.10372 0.73333 0.70301 0.0
C359 C 0.14848 0.75668 0.69623 0.0
H360 H 0.16971 0.6707 0.69273 0.0
C361 C 0.17062 0.73255 0.6901 0.0
C362 C 0.15076 0.68764 0.69548 0.0
H363 H 0.20493 0.74952 0.68438 0.0
H364 H 0.0144 0.46647 0.75875 0.0
H365 H 0.03215 0.53846 0.74104 0.0
H366 H 0.17434 0.59058 0.77934 0.0
H367 H 0.1563 0.518 0.79739 0.0
H368 H 0.15417 0.63961 0.75071 0.0
H369 H 0.05497 0.59785 0.71316 0.0
H370 H 0.05048 0.67167 0.71625 0.0
H371 H 0.08583 0.75102 0.70803 0.0
C372 C 0.38406 0.87721 0.76548 0.0
C373 C 0.37614 0.90636 0.74546 0.0
C374 C 0.42105 0.87252 0.76148 0.0
C375 C 0.45111 0.89691 0.73735 0.0
C376 C 0.4429 0.92538 0.71668 0.0
C377 C 0.40593 0.93049 0.72099 0.0
C378 C 0.48936 0.89052 0.7318 0.0
C379 C 0.51085 0.88147 0.76014 0.0
C380 C 0.54307 0.8663 0.75406 0.0
C381 C 0.57409 0.87144 0.78552 0.0
C382 C 0.60169 0.85318 0.78168 0.0
C383 C 0.59819 0.82876 0.74636 0.0
H384 H 0.51576 0.8368 0.69391 0.0
C385 C 0.56748 0.82411 0.71475 0.0
C386 C 0.54021 0.84266 0.71853 0.0
H387 H 0.56399 0.80559 0.6871 0.0
H388 H 0.36178 0.85799 0.7845 0.0
H389 H 0.42543 0.849 0.77676 0.0
H390 H 0.46527 0.94391 0.69744 0.0
H391 H 0.40055 0.95301 0.70501 0.0
H392 H 0.49943 0.89273 0.70376 0.0
H393 H 0.50364 0.88404 0.78903 0.0
H394 H 0.57649 0.88904 0.8133 0.0
H395 H 0.62496 0.85731 0.8066 0.0
C396 C 0.23711 0.42447 0.69701 0.0
C397 C 0.2242 0.42956 0.73255 0.0
C398 C 0.28189 0.45188 0.69197 0.0
C399 C 0.31437 0.4846 0.7225 0.0
C400 C 0.30121 0.49008 0.75761 0.0
C401 C 0.25667 0.46319 0.76254 0.0
C402 C 0.36283 0.51164 0.72011 0.0
C403 C 0.37898 0.52325 0.68757 0.0
C404 C 0.42814 0.55235 0.68862 0.0
C405 C 0.44438 0.58749 0.66705 0.0
C406 C 0.49074 0.61878 0.67181 0.0
C407 C 0.5215 0.61501 0.69799 0.0
H408 H 0.44752 0.51923 0.72897 0.0
C409 C 0.50516 0.57801 0.71765 0.0
C410 C 0.45905 0.54696 0.71292 0.0
H411 H 0.52787 0.57343 0.73743 0.0
H412 H 0.2129 0.39886 0.67336 0.0
H413 H 0.29122 0.4463 0.66471 0.0
H414 H 0.32567 0.51499 0.78158 0.0
H415 H 0.24808 0.46817 0.79033 0.0
H416 H 0.38638 0.52471 0.7471 0.0
H417 H 0.3561 0.51477 0.66087 0.0
H418 H 0.42109 0.59192 0.64784 0.0
H419 H 0.50225 0.6466 0.65587 0.0
C420 C 0.20021 0.10026 0.25316 0.0
C421 C 0.24441 0.12622 0.27387 0.0
C422 C 0.17036 0.11595 0.25404 0.0
C423 C 0.18431 0.15852 0.27508 0.0
C424 C 0.22739 0.18303 0.2981 0.0
C425 C 0.25736 0.16699 0.29752 0.0
C426 C 0.15473 0.17808 0.27262 0.0
C427 C 0.12528 0.1688 0.24045 0.0
C428 C 0.0936 0.18575 0.23645 0.0
C429 C 0.05452 0.1615 0.20836 0.0
C430 C 0.02304 0.17532 0.20392 0.0
C431 C 0.03025 0.21419 0.22719 0.0
H432 H 0.13185 0.24571 0.28028 0.0
C433 C 0.07015 0.23936 0.2545 0.0
C434 C 0.1015 0.2253 0.25914 0.0
H435 H 0.07689 0.26959 0.27285 0.0
H436 H 0.18902 0.06813 0.23539 0.0
H437 H 0.13662 0.09489 0.23762 0.0
H438 H 0.23858 0.21552 0.31518 0.0
H439 H 0.29125 0.18751 0.31383 0.0
H440 H 0.15815 0.20105 0.29741 0.0
H441 H 0.12314 0.14652 0.21567 0.0
H442 H 0.04784 0.13115 0.1902 0.0
H443 H -0.00716 0.15523 0.18248 0.0
C444 C 0.8958 0.7979 0.21053 0.0
C445 C 0.86592 0.75263 0.19349 0.0
C446 C 0.94004 0.82077 0.20344 0.0
C447 C 0.95537 0.79871 0.17925 0.0
C448 C 0.92495 0.75421 0.16082 0.0
C449 C 0.88044 0.7315 0.16749 0.0
C450 C 0.00384 0.81975 0.1762 0.0
C451 C 0.03117 0.86465 0.17948 0.0
C452 C 0.08077 0.88698 0.18222 0.0
C453 C 0.10377 0.92866 0.16979 0.0
C454 C 0.15081 0.95346 0.17592 0.0
C455 C 0.17609 0.93755 0.19542 0.0
H456 H 0.08896 0.83835 0.21118 0.0
C457 C 0.15306 0.89518 0.20711 0.0
C458 C 0.10576 0.86999 0.20044 0.0
H459 H 0.17149 0.88206 0.2223 0.0
H460 H 0.88564 0.81502 0.23078 0.0
H461 H 0.9628 0.85476 0.21881 0.0
H462 H 0.93604 0.73648 0.1422 0.0
H463 H 0.85836 0.69647 0.15417 0.0
H464 H 0.01735 0.79767 0.17159 0.0
H465 H 0.01674 0.88622 0.18024 0.0
H466 H 0.08529 0.9426 0.15598 0.0
H467 H 0.16724 0.98604 0.16663 0.0
C468 C 0.82168 0.08799 0.31922 0.0
C469 C 0.86083 0.1097 0.30278 0.0
C470 C 0.80916 0.04679 0.33164 0.0
C471 C 0.83604 0.02723 0.32816 0.0
C472 C 0.877 0.051 0.31474 0.0
C473 C 0.88904 0.09157 0.30173 0.0
C474 C 0.82102 0.98065 0.33485 0.0
C475 C 0.77751 0.947 0.32549 0.0
C476 C 0.76408 0.89862 0.32 0.0
C477 C 0.72524 0.86751 0.29339 0.0
C478 C 0.71493 0.82302 0.28327 0.0
C479 C 0.74335 0.8088 0.29963 0.0
H480 H 0.81988 0.90586 0.36014 0.0
C481 C 0.78072 0.83921 0.32794 0.0
C482 C 0.79077 0.88351 0.33829 0.0
H483 H 0.80262 0.82897 0.34186 0.0
H484 H 0.79951 0.1015 0.32049 0.0
H485 H 0.77793 0.02973 0.34284 0.0
H486 H 0.8985 0.03684 0.31215 0.0
H487 H 0.91973 0.10802 0.28964 0.0
H488 H 0.84734 0.97272 0.34107 0.0
H489 H 0.75185 0.95485 0.3158 0.0
H490 H 0.70384 0.87812 0.27914 0.0
H491 H 0.68559 0.80028 0.26167 0.0
C492 C 0.16712 0.26237 0.81717 0.0
C493 C 0.12445 0.25064 0.79781 0.0
C494 C 0.17714 0.22855 0.82281 0.0
C495 C 0.14429 0.18266 0.80955 0.0
C496 C 0.10068 0.17124 0.79308 0.0
C497 C 0.09103 0.20485 0.78679 0.0
C498 C 0.1544 0.14575 0.80958 0.0
C499 C 0.19498 0.15137 0.80534 0.0
C500 C 0.20198 0.11276 0.79611 0.0
C501 C 0.24524 0.11911 0.80584 0.0
C502 C 0.25353 0.08433 0.79522 0.0
C503 C 0.21882 0.04261 0.77397 0.0
H504 H 0.1338 0.06517 0.76564 0.0
C505 C 0.17555 0.03636 0.76411 0.0
C506 C 0.16721 0.07096 0.77498 0.0
H507 H 0.14803 0.00477 0.74769 0.0
H508 H 0.19339 0.29754 0.82578 0.0
H509 H 0.21077 0.23847 0.8366 0.0
H510 H 0.07465 0.13622 0.78294 0.0
H511 H 0.05783 0.19507 0.77187 0.0
H512 H 0.12599 0.11189 0.80869 0.0
H513 H 0.22371 0.18511 0.80657 0.0
H514 H 0.27277 0.15114 0.8216 0.0
H515 H 0.28733 0.09044 0.80323 0.0
C516 C 0.09571 0.8624 0.83225 0.0
C517 C 0.10782 0.83518 0.81105 0.0
C518 C 0.05317 0.84345 0.84291 0.0
C519 C 0.02118 0.79705 0.83102 0.0
C520 C 0.03501 0.76932 0.81285 0.0
C521 C 0.07816 0.78822 0.80307 0.0
C522 C 0.97236 0.77747 0.83312 0.0
C523 C 0.95323 0.80303 0.83563 0.0
C524 C 0.90388 0.78507 0.82894 0.0
C525 C 0.88882 0.81379 0.84215 0.0
C526 C 0.84409 0.80204 0.83132 0.0
C527 C 0.81321 0.76124 0.80671 0.0
H528 H 0.88311 0.72053 0.79423 0.0
C529 C 0.82763 0.73135 0.79484 0.0
C530 C 0.87263 0.74319 0.80574 0.0
H531 H 0.80471 0.69965 0.77588 0.0
H532 H 0.11855 0.89867 0.83924 0.0
H533 H 0.0452 0.86584 0.859 0.0
H534 H 0.01145 0.73341 0.80391 0.0
H535 H 0.08694 0.76661 0.78667 0.0
H536 H 0.95107 0.7409 0.82844 0.0
H537 H 0.97424 0.83955 0.84027 0.0
H538 H 0.91216 0.84629 0.85992 0.0
H539 H 0.83416 0.82573 0.84144 0.0
C540 C 0.94908 0.15919 0.67448 0.0
C541 C 0.94231 0.18913 0.69857 0.0
C542 C 0.91982 0.11251 0.67037 0.0
C543 C 0.88328 0.09495 0.69039 0.0
C544 C 0.87527 0.12487 0.71288 0.0
C545 C 0.90424 0.17147 0.71675 0.0
C546 C 0.85648 0.04627 0.69258 0.0
C547 C 0.85137 0.0128 0.66624 0.0
C548 C 0.82787 0.96586 0.67373 0.0
C549 C 0.79216 0.93104 0.64667 0.0
C550 C 0.76521 0.88844 0.65661 0.0
C551 C 0.77419 0.88017 0.6936 0.0
H552 H 0.86735 0.98265 0.73034 0.0
C553 C 0.81267 0.9141 0.71918 0.0
C554 C 0.83909 0.95651 0.70939 0.0
H555 H 0.82122 0.90879 0.74763 0.0
H556 H 0.97799 0.17167 0.65992 0.0
H557 H 0.92748 0.09046 0.6533 0.0
H558 H 0.84737 0.11212 0.72867 0.0
H559 H 0.8979 0.19346 0.73546 0.0
H560 H 0.84058 0.0375 0.71782 0.0
H561 H 0.86279 0.01939 0.63896 0.0
H562 H 0.78341 0.93756 0.61881 0.0
H563 H 0.73609 0.86291 0.63609 0.0
loop_
_geom_bond_atom_site_label_1
_geom_bond_atom_site_label_2
_geom_bond_distance
_geom_bond_site_symmetry_2
_ccdc_geom_bond_type
Sc0 O3 2.025 . S
Sc0 O10 2.105 . S
Sc0 O13 2.105 . S
Sc0 O16 2.105 . S
Sc0 O19 2.105 . S
Sc1 O3 2.025 . S
Sc1 O11 2.105 . S
Sc1 O15 2.105 . S
Sc1 O17 2.105 1_545 S
Sc1 O21 2.105 . S
Sc2 O3 2.025 . S
Sc2 O12 2.105 . S
Sc2 O14 2.105 . S
Sc2 O18 2.105 . S
Sc2 O20 2.105 . S
O3 Sc0 2.025 . S
O3 Sc1 2.025 . S
O3 Sc2 2.025 . S
C4 O10 1.268 . S
C4 O20 1.268 . S
C5 O11 1.268 . S
C5 O19 1.268 . S
C6 O12 1.268 . S
C6 O21 1.268 . S
C7 O13 1.268 1_565 S
C7 O17 1.268 . S
C8 O14 1.268 . S
C8 O16 1.268 . S
C9 O15 1.268 . S
C9 O18 1.268 . S
O10 Sc0 2.105 . S
O10 C4 1.268 . S
O11 Sc1 2.105 . S
O11 C5 1.268 . S
O12 Sc2 2.105 . S
O12 C6 1.268 . S
O13 Sc0 2.105 . S
O13 C7 1.268 1_545 S
O14 Sc2 2.105 . S
O14 C8 1.268 . S
O15 Sc1 2.105 . S
O15 C9 1.268 . S
O16 Sc0 2.105 . S
O16 C8 1.268 . S
O17 Sc1 2.105 1_565 S
O17 C7 1.268 . S
O18 Sc2 2.105 . S
O18 C9 1.268 . S
O19 Sc0 2.105 . S
O19 C5 1.268 . S
O20 Sc2 2.105 . S
O20 C4 1.268 . S
O21 Sc1 2.105 . S
O21 C6 1.268 . S
Sc22 O25 2.025 . S
Sc22 O32 2.105 . S
Sc22 O35 2.105 . S
Sc22 O38 2.105 . S
Sc22 O41 2.105 . S
Sc23 O25 2.025 . S
Sc23 O33 2.105 . S
Sc23 O37 2.105 . S
Sc23 O39 2.105 . S
Sc23 O43 2.105 . S
Sc24 O25 2.025 . S
Sc24 O34 2.105 . S
Sc24 O36 2.105 . S
Sc24 O40 2.105 . S
Sc24 O42 2.105 . S
O25 Sc22 2.025 . S
O25 Sc23 2.025 . S
O25 Sc24 2.025 . S
C26 O32 1.268 . S
C26 O42 1.268 . S
C27 O33 1.268 . S
C27 O41 1.268 . S
C28 O34 1.268 . S
C28 O43 1.268 . S
C29 O35 1.268 . S
C29 O39 1.268 . S
C30 O36 1.268 . S
C30 O38 1.268 . S
C31 O37 1.268 . S
C31 O40 1.268 . S
O32 Sc22 2.105 . S
O32 C26 1.268 . S
O33 Sc23 2.105 . S
O33 C27 1.268 . S
O34 Sc24 2.105 . S
O34 C28 1.268 . S
O35 Sc22 2.105 . S
O35 C29 1.268 . S
O36 Sc24 2.105 . S
O36 C30 1.268 . S
O37 Sc23 2.105 . S
O37 C31 1.268 . S
O38 Sc22 2.105 . S
O38 C30 1.268 . S
O39 Sc23 2.105 . S
O39 C29 1.268 . S
O40 Sc24 2.105 . S
O40 C31 1.268 . S
O41 Sc22 2.105 . S
O41 C27 1.268 . S
O42 Sc24 2.105 . S
O42 C26 1.268 . S
O43 Sc23 2.105 . S
O43 C28 1.268 . S
Sc44 O47 2.025 . S
Sc44 O54 2.105 . S
Sc44 O57 2.105 . S
Sc44 O60 2.105 . S
Sc44 O63 2.105 . S
Sc45 O47 2.025 . S
Sc45 O55 2.105 . S
Sc45 O59 2.105 . S
Sc45 O61 2.105 1_655 S
Sc45 O65 2.105 . S
Sc46 O47 2.025 . S
Sc46 O56 2.105 . S
Sc46 O58 2.105 . S
Sc46 O62 2.105 . S
Sc46 O64 2.105 . S
O47 Sc44 2.025 . S
O47 Sc45 2.025 . S
O47 Sc46 2.025 . S
C48 O54 1.268 . S
C48 O64 1.268 . S
C49 O55 1.268 . S
C49 O63 1.268 . S
C50 O56 1.268 . S
C50 O65 1.268 . S
C51 O57 1.268 1_455 S
C51 O61 1.268 . S
C52 O58 1.268 . S
C52 O60 1.268 . S
C53 O59 1.268 . S
C53 O62 1.268 . S
O54 Sc44 2.105 . S
O54 C48 1.268 . S
O55 Sc45 2.105 . S
O55 C49 1.268 . S
O56 Sc46 2.105 . S
O56 C50 1.268 . S
O57 Sc44 2.105 . S
O57 C51 1.268 1_655 S
O58 Sc46 2.105 . S
O58 C52 1.268 . S
O59 Sc45 2.105 . S
O59 C53 1.268 . S
O60 Sc44 2.105 . S
O60 C52 1.268 . S
O61 Sc45 2.105 1_455 S
O61 C51 1.268 . S
O62 Sc46 2.105 . S
O62 C53 1.268 . S
O63 Sc44 2.105 . S
O63 C49 1.268 . S
O64 Sc46 2.105 . S
O64 C48 1.268 . S
O65 Sc45 2.105 . S
O65 C50 1.268 . S
Sc66 O69 2.025 . S
Sc66 O76 2.105 . S
Sc66 O79 2.105 . S
Sc66 O82 2.105 . S
Sc66 O85 2.105 . S
Sc67 O69 2.025 . S
Sc67 O77 2.105 1_455 S
Sc67 O81 2.105 . S
Sc67 O83 2.105 . S
Sc67 O87 2.105 . S
Sc68 O69 2.025 . S
Sc68 O78 2.105 . S
Sc68 O80 2.105 . S
Sc68 O84 2.105 . S
Sc68 O86 2.105 . S
O69 Sc66 2.025 . S
O69 Sc67 2.025 . S
O69 Sc68 2.025 . S
C70 O76 1.268 . S
C70 O86 1.268 . S
C71 O77 1.268 . S
C71 O85 1.268 1_655 S
C72 O78 1.268 . S
C72 O87 1.268 . S
C73 O79 1.268 . S
C73 O83 1.268 . S
C74 O80 1.268 . S
C74 O82 1.268 . S
C75 O81 1.268 . S
C75 O84 1.268 . S
O76 Sc66 2.105 . S
O76 C70 1.268 . S
O77 Sc67 2.105 1_655 S
O77 C71 1.268 . S
O78 Sc68 2.105 . S
O78 C72 1.268 . S
O79 Sc66 2.105 . S
O79 C73 1.268 . S
O80 Sc68 2.105 . S
O80 C74 1.268 . S
O81 Sc67 2.105 . S
O81 C75 1.268 . S
O82 Sc66 2.105 . S
O82 C74 1.268 . S
O83 Sc67 2.105 . S
O83 C73 1.268 . S
O84 Sc68 2.105 . S
O84 C75 1.268 . S
O85 Sc66 2.105 . S
O85 C71 1.268 1_455 S
O86 Sc68 2.105 . S
O86 C70 1.268 . S
O87 Sc67 2.105 . S
O87 C72 1.268 . S
Sc88 O91 2.025 . S
Sc88 O98 2.105 . S
Sc88 O101 2.105 . S
Sc88 O104 2.105 . S
Sc88 O107 2.105 . S
Sc89 O91 2.025 . S
Sc89 O99 2.105 1_565 S
Sc89 O103 2.105 . S
Sc89 O105 2.105 . S
Sc89 O109 2.105 . S
Sc90 O91 2.025 . S
Sc90 O100 2.105 . S
Sc90 O102 2.105 . S
Sc90 O106 2.105 . S
Sc90 O108 2.105 . S
O91 Sc88 2.025 . S
O91 Sc89 2.025 . S
O91 Sc90 2.025 . S
C92 O98 1.268 . S
C92 O108 1.268 . S
C93 O99 1.268 . S
C93 O107 1.268 1_545 S
C94 O100 1.268 . S
C94 O109 1.268 . S
C95 O101 1.268 . S
C95 O105 1.268 . S
C96 O102 1.268 . S
C96 O104 1.268 . S
C97 O103 1.268 . S
C97 O106 1.268 . S
O98 Sc88 2.105 . S
O98 C92 1.268 . S
O99 Sc89 2.105 1_545 S
O99 C93 1.268 . S
O100 Sc90 2.105 . S
O100 C94 1.268 . S
O101 Sc88 2.105 . S
O101 C95 1.268 . S
O102 Sc90 2.105 . S
O102 C96 1.268 . S
O103 Sc89 2.105 . S
O103 C97 1.268 . S
O104 Sc88 2.105 . S
O104 C96 1.268 . S
O105 Sc89 2.105 . S
O105 C95 1.268 . S
O106 Sc90 2.105 . S
O106 C97 1.268 . S
O107 Sc88 2.105 . S
O107 C93 1.268 1_565 S
O108 Sc90 2.105 . S
O108 C92 1.268 . S
O109 Sc89 2.105 . S
O109 C94 1.268 . S
Sc110 O113 2.025 . S
Sc110 O120 2.105 . S
Sc110 O123 2.105 . S
Sc110 O126 2.105 . S
Sc110 O129 2.105 . S
Sc111 O113 2.025 . S
Sc111 O121 2.105 . S
Sc111 O125 2.105 . S
Sc111 O127 2.105 . S
Sc111 O131 2.105 . S
Sc112 O113 2.025 . S
Sc112 O122 2.105 . S
Sc112 O124 2.105 . S
Sc112 O128 2.105 . S
Sc112 O130 2.105 . S
O113 Sc110 2.025 . S
O113 Sc111 2.025 . S
O113 Sc112 2.025 . S
C114 O120 1.268 . S
C114 O130 1.268 . S
C115 O121 1.268 . S
C115 O129 1.268 . S
C116 O122 1.268 . S
C116 O131 1.268 . S
C117 O123 1.268 . S
C117 O127 1.268 . S
C118 O124 1.268 . S
C118 O126 1.268 . S
C119 O125 1.268 . S
C119 O128 1.268 . S
O120 Sc110 2.105 . S
O120 C114 1.268 . S
O121 Sc111 2.105 . S
O121 C115 1.268 . S
O122 Sc112 2.105 . S
O122 C116 1.268 . S
O123 Sc110 2.105 . S
O123 C117 1.268 . S
O124 Sc112 2.105 . S
O124 C118 1.268 . S
O125 Sc111 2.105 . S
O125 C119 1.268 . S
O126 Sc110 2.105 . S
O126 C118 1.268 . S
O127 Sc111 2.105 . S
O127 C117 1.268 . S
O128 Sc112 2.105 . S
O128 C119 1.268 . S
O129 Sc110 2.105 . S
O129 C115 1.268 . S
O130 Sc112 2.105 . S
O130 C114 1.268 . S
O131 Sc111 2.105 . S
O131 C116 1.268 . S
C132 C133 1.386 1_545 S
C132 C134 1.383 . S
C132 H148 0.951 . S
C133 C132 1.386 1_565 S
C133 C137 1.383 . S
C134 C132 1.383 . S
C134 C135 1.402 1_545 S
C134 H149 0.951 . S
C135 C134 1.402 1_565 S
C135 C136 1.375 . S
C135 C138 1.481 . S
C136 C135 1.375 . S
C136 C137 1.367 . S
C136 H150 0.951 . S
C137 C133 1.383 . S
C137 C136 1.367 . S
C137 H151 0.950 . S
C138 C135 1.481 . S
C138 C139 1.297 1_566 S
C138 H152 0.950 1_556 S
C139 C138 1.297 1_544 S
C139 C140 1.479 . S
C139 H153 0.950 . S
C140 C139 1.479 . S
C140 C141 1.375 . S
C140 C146 1.404 1_545 S
C141 C140 1.375 . S
C141 C142 1.369 . S
C141 H154 0.950 . S
C142 C141 1.369 . S
C142 C143 1.392 . S
C142 H155 0.951 . S
C143 C142 1.392 . S
C143 C145 1.384 1_545 S
H144 C146 0.949 . S
C145 C143 1.384 1_565 S
C145 C146 1.385 . S
C145 H147 0.950 . S
C146 C140 1.404 1_565 S
C146 H144 0.949 . S
C146 C145 1.385 . S
H147 C145 0.950 . S
H148 C132 0.951 . S
H149 C134 0.951 . S
H150 C136 0.951 . S
H151 C137 0.950 . S
H152 C138 0.950 1_554 S
H153 C139 0.950 . S
H154 C141 0.950 . S
H155 C142 0.951 . S
C156 C157 1.386 . S
C156 C158 1.383 . S
C156 H172 0.951 . S
C157 C156 1.386 . S
C157 C161 1.383 . S
C158 C156 1.383 . S
C158 C159 1.402 . S
C158 H173 0.951 . S
C159 C158 1.402 . S
C159 C160 1.375 . S
C159 C162 1.481 . S
C160 C159 1.375 . S
C160 C161 1.367 . S
C160 H174 0.951 . S
C161 C157 1.383 . S
C161 C160 1.367 . S
C161 H175 0.950 . S
C162 C159 1.481 . S
C162 C163 1.297 . S
C162 H176 0.950 . S
C163 C162 1.297 . S
C163 C164 1.479 . S
C163 H177 0.950 . S
C164 C163 1.479 . S
C164 C165 1.375 . S
C164 C170 1.404 . S
C165 C164 1.375 . S
C165 C166 1.369 . S
C165 H178 0.950 . S
C166 C165 1.369 . S
C166 C167 1.392 . S
C166 H179 0.951 . S
C167 C166 1.392 . S
C167 C169 1.384 . S
H168 C170 0.949 . S
C169 C167 1.384 . S
C169 C170 1.385 . S
C169 H171 0.950 . S
C170 C164 1.404 . S
C170 H168 0.949 . S
C170 C169 1.385 . S
H171 C169 0.950 . S
H172 C156 0.951 . S
H173 C158 0.951 . S
H174 C160 0.951 . S
H175 C161 0.950 . S
H176 C162 0.950 . S
H177 C163 0.950 . S
H178 C165 0.950 . S
H179 C166 0.951 . S
C180 C181 1.386 . S
C180 C182 1.383 1_655 S
C180 H196 0.951 1_655 S
C181 C180 1.386 . S
C181 C185 1.383 . S
C182 C180 1.383 1_455 S
C182 C183 1.402 1_455 S
C182 H197 0.951 . S
C183 C182 1.402 1_655 S
C183 C184 1.375 . S
C183 C186 1.481 . S
C184 C183 1.375 . S
C184 C185 1.367 . S
C184 H198 0.951 . S
C185 C181 1.383 . S
C185 C184 1.367 . S
C185 H199 0.950 . S
C186 C183 1.481 . S
C186 C187 1.297 1_654 S
C186 H200 0.950 1_554 S
C187 C186 1.297 1_456 S
C187 C188 1.479 . S
C187 H201 0.950 1_556 S
C188 C187 1.479 . S
C188 C189 1.375 . S
C188 C194 1.404 1_455 S
C189 C188 1.375 . S
C189 C190 1.369 . S
C189 H202 0.950 . S
C190 C189 1.369 . S
C190 C191 1.392 . S
C190 H203 0.951 . S
C191 C190 1.392 . S
C191 C193 1.384 1_455 S
H192 C194 0.949 . S
C193 C191 1.384 1_655 S
C193 C194 1.385 . S
C193 H195 0.950 . S
C194 C188 1.404 1_655 S
C194 H192 0.949 . S
C194 C193 1.385 . S
H195 C193 0.950 . S
H196 C180 0.951 1_455 S
H197 C182 0.951 . S
H198 C184 0.951 . S
H199 C185 0.950 . S
H200 C186 0.950 1_556 S
H201 C187 0.950 1_554 S
H202 C189 0.950 . S
H203 C190 0.951 . S
C204 C205 1.386 . S
C204 C206 1.383 . S
C204 H220 0.951 . S
C205 C204 1.386 . S
C205 C209 1.383 1_545 S
C206 C204 1.383 . S
C206 C207 1.402 1_545 S
C206 H221 0.951 . S
C207 C206 1.402 1_565 S
C207 C208 1.375 . S
C207 C210 1.481 . S
C208 C207 1.375 . S
C208 C209 1.367 . S
C208 H222 0.951 . S
C209 C205 1.383 1_565 S
C209 C208 1.367 . S
C209 H223 0.950 . S
C210 C207 1.481 . S
C210 C211 1.297 . S
C210 H224 0.950 . S
C211 C210 1.297 . S
C211 C212 1.479 . S
C211 H225 0.950 1_565 S
C212 C211 1.479 . S
C212 C213 1.375 1_565 S
C212 C218 1.404 . S
C213 C212 1.375 1_545 S
C213 C214 1.369 . S
C213 H226 0.950 . S
C214 C213 1.369 . S
C214 C215 1.392 1_545 S
C214 H227 0.951 . S
C215 C214 1.392 1_565 S
C215 C217 1.384 . S
H216 C218 0.949 . S
C217 C215 1.384 . S
C217 C218 1.385 . S
C217 H219 0.950 . S
C218 C212 1.404 . S
C218 H216 0.949 . S
C218 C217 1.385 . S
H219 C217 0.950 . S
H220 C204 0.951 . S
H221 C206 0.951 . S
H222 C208 0.951 . S
H223 C209 0.950 . S
H224 C210 0.950 . S
H225 C211 0.950 1_545 S
H226 C213 0.950 . S
H227 C214 0.951 . S
C228 C229 1.386 . S
C228 C230 1.383 . S
C228 H244 0.951 . S
C229 C228 1.386 . S
C229 C233 1.383 . S
C230 C228 1.383 . S
C230 C231 1.402 . S
C230 H245 0.951 . S
C231 C230 1.402 . S
C231 C232 1.375 . S
C231 C234 1.481 . S
C232 C231 1.375 . S
C232 C233 1.367 . S
C232 H246 0.951 . S
C233 C229 1.383 . S
C233 C232 1.367 . S
C233 H247 0.950 . S
C234 C231 1.481 . S
C234 C235 1.297 . S
C234 H248 0.950 . S
C235 C234 1.297 . S
C235 C236 1.479 1_556 S
C235 H249 0.950 . S
C236 C235 1.479 1_554 S
C236 C237 1.375 . S
C236 C242 1.404 . S
C237 C236 1.375 . S
C237 C238 1.369 . S
C237 H250 0.950 . S
C238 C237 1.369 . S
C238 C239 1.392 . S
C238 H251 0.951 . S
C239 C238 1.392 . S
C239 C241 1.384 . S
H240 C242 0.949 . S
C241 C239 1.384 . S
C241 C242 1.385 . S
C241 H243 0.950 . S
C242 C236 1.404 . S
C242 H240 0.949 . S
C242 C241 1.385 . S
H243 C241 0.950 . S
H244 C228 0.951 . S
H245 C230 0.951 . S
H246 C232 0.951 . S
H247 C233 0.950 . S
H248 C234 0.950 . S
H249 C235 0.950 . S
H250 C237 0.950 . S
H251 C238 0.951 . S
C252 C253 1.386 . S
C252 C254 1.383 . S
C252 H268 0.951 . S
C253 C252 1.386 . S
C253 C257 1.383 1_655 S
C254 C252 1.383 . S
C254 C255 1.402 1_655 S
C254 H269 0.951 . S
C255 C254 1.402 1_455 S
C255 C256 1.375 . S
C255 C258 1.481 . S
C256 C255 1.375 . S
C256 C257 1.367 . S
C256 H270 0.951 . S
C257 C253 1.383 1_455 S
C257 C256 1.367 . S
C257 H271 0.950 . S
C258 C255 1.481 . S
C258 C259 1.297 . S
C258 H272 0.950 . S
C259 C258 1.297 . S
C259 C260 1.479 . S
C259 H273 0.950 . S
C260 C259 1.479 . S
C260 C261 1.375 . S
C260 C266 1.404 . S
C261 C260 1.375 . S
C261 C262 1.369 . S
C261 H274 0.950 1_455 S
C262 C261 1.369 . S
C262 C263 1.392 . S
C262 H275 0.951 1_455 S
C263 C262 1.392 . S
C263 C265 1.384 . S
H264 C266 0.949 . S
C265 C263 1.384 . S
C265 C266 1.385 . S
C265 H267 0.950 . S
C266 C260 1.404 . S
C266 H264 0.949 . S
C266 C265 1.385 . S
H267 C265 0.950 . S
H268 C252 0.951 . S
H269 C254 0.951 . S
H270 C256 0.951 . S
H271 C257 0.950 . S
H272 C258 0.950 . S
H273 C259 0.950 . S
H274 C261 0.950 1_655 S
H275 C262 0.951 1_655 S
C276 C277 1.386 . S
C276 C278 1.383 . S
C276 H292 0.951 . S
C277 C276 1.386 . S
C277 C281 1.383 . S
C278 C276 1.383 . S
C278 C279 1.402 . S
C278 H293 0.951 . S
C279 C278 1.402 . S
C279 C280 1.375 . S
C279 C282 1.481 . S
C280 C279 1.375 . S
C280 C281 1.367 . S
C280 H294 0.951 . S
C281 C277 1.383 . S
C281 C280 1.367 . S
C281 H295 0.950 . S
C282 C279 1.481 . S
C282 C283 1.297 . S
C282 H296 0.950 . S
C283 C282 1.297 . S
C283 C284 1.479 . S
C283 H297 0.950 . S
C284 C283 1.479 . S
C284 C285 1.375 . S
C284 C290 1.404 . S
C285 C284 1.375 . S
C285 C286 1.369 . S
C285 H298 0.950 . S
C286 C285 1.369 . S
C286 C287 1.392 . S
C286 H299 0.951 . S
C287 C286 1.392 . S
C287 C289 1.384 . S
H288 C290 0.949 . S
C289 C287 1.384 . S
C289 C290 1.385 . S
C289 H291 0.950 . S
C290 C284 1.404 . S
C290 H288 0.949 . S
C290 C289 1.385 . S
H291 C289 0.950 . S
H292 C276 0.951 . S
H293 C278 0.951 . S
H294 C280 0.951 . S
H295 C281 0.950 . S
H296 C282 0.950 . S
H297 C283 0.950 . S
H298 C285 0.950 . S
H299 C286 0.951 . S
C300 C301 1.386 . S
C300 C302 1.383 . S
C300 H316 0.951 . S
C301 C300 1.386 . S
C301 C305 1.383 . S
C302 C300 1.383 . S
C302 C303 1.402 . S
C302 H317 0.951 . S
C303 C302 1.402 . S
C303 C304 1.375 . S
C303 C306 1.481 . S
C304 C303 1.375 . S
C304 C305 1.367 . S
C304 H318 0.951 . S
C305 C301 1.383 . S
C305 C304 1.367 . S
C305 H319 0.950 . S
C306 C303 1.481 . S
C306 C307 1.297 . S
C306 H320 0.950 . S
C307 C306 1.297 . S
C307 C308 1.479 . S
C307 H321 0.950 . S
C308 C307 1.479 . S
C308 C309 1.375 . S
C308 C314 1.404 . S
C309 C308 1.375 . S
C309 C310 1.369 . S
C309 H322 0.950 . S
C310 C309 1.369 . S
C310 C311 1.392 . S
C310 H323 0.951 . S
C311 C310 1.392 . S
C311 C313 1.384 . S
H312 C314 0.949 . S
C313 C311 1.384 . S
C313 C314 1.385 . S
C313 H315 0.950 . S
C314 C308 1.404 . S
C314 H312 0.949 . S
C314 C313 1.385 . S
H315 C313 0.950 . S
H316 C300 0.951 . S
H317 C302 0.951 . S
H318 C304 0.951 . S
H319 C305 0.950 . S
H320 C306 0.950 . S
H321 C307 0.950 . S
H322 C309 0.950 . S
H323 C310 0.951 . S
C324 C325 1.386 . S
C324 C326 1.383 . S
C324 H340 0.951 . S
C325 C324 1.386 . S
C325 C329 1.383 . S
C326 C324 1.383 . S
C326 C327 1.402 . S
C326 H341 0.951 . S
C327 C326 1.402 . S
C327 C328 1.375 . S
C327 C330 1.481 . S
C328 C327 1.375 . S
C328 C329 1.367 . S
C328 H342 0.951 . S
C329 C325 1.383 . S
C329 C328 1.367 . S
C329 H343 0.950 . S
C330 C327 1.481 . S
C330 C331 1.297 . S
C330 H344 0.950 . S
C331 C330 1.297 . S
C331 C332 1.479 . S
C331 H345 0.950 . S
C332 C331 1.479 . S
C332 C333 1.375 . S
C332 C338 1.404 . S
C333 C332 1.375 . S
C333 C334 1.369 . S
C333 H346 0.950 . S
C334 C333 1.369 . S
C334 C335 1.392 . S
C334 H347 0.951 . S
C335 C334 1.392 . S
C335 C337 1.384 . S
H336 C338 0.949 . S
C337 C335 1.384 . S
C337 C338 1.385 . S
C337 H339 0.950 . S
C338 C332 1.404 . S
C338 H336 0.949 . S
C338 C337 1.385 . S
H339 C337 0.950 . S
H340 C324 0.951 . S
H341 C326 0.951 . S
H342 C328 0.951 . S
H343 C329 0.950 . S
H344 C330 0.950 . S
H345 C331 0.950 . S
H346 C333 0.950 . S
H347 C334 0.951 . S
C348 C349 1.386 . S
C348 C350 1.383 . S
C348 H364 0.951 . S
C349 C348 1.386 . S
C349 C353 1.383 . S
C350 C348 1.383 . S
C350 C351 1.402 . S
C350 H365 0.951 . S
C351 C350 1.402 . S
C351 C352 1.375 . S
C351 C354 1.481 . S
C352 C351 1.375 . S
C352 C353 1.367 . S
C352 H366 0.951 . S
C353 C349 1.383 . S
C353 C352 1.367 . S
C353 H367 0.950 . S
C354 C351 1.481 . S
C354 C355 1.297 . S
C354 H368 0.950 . S
C355 C354 1.297 . S
C355 C356 1.479 . S
C355 H369 0.950 . S
C356 C355 1.479 . S
C356 C357 1.375 . S
C356 C362 1.404 . S
C357 C356 1.375 . S
C357 C358 1.369 . S
C357 H370 0.950 . S
C358 C357 1.369 . S
C358 C359 1.392 . S
C358 H371 0.951 . S
C359 C358 1.392 . S
C359 C361 1.384 . S
H360 C362 0.949 . S
C361 C359 1.384 . S
C361 C362 1.385 . S
C361 H363 0.950 . S
C362 C356 1.404 . S
C362 H360 0.949 . S
C362 C361 1.385 . S
H363 C361 0.950 . S
H364 C348 0.951 . S
H365 C350 0.951 . S
H366 C352 0.951 . S
H367 C353 0.950 . S
H368 C354 0.950 . S
H369 C355 0.950 . S
H370 C357 0.950 . S
H371 C358 0.951 . S
C372 C373 1.386 . S
C372 C374 1.383 . S
C372 H388 0.951 . S
C373 C372 1.386 . S
C373 C377 1.383 . S
C374 C372 1.383 . S
C374 C375 1.402 . S
C374 H389 0.951 . S
C375 C374 1.402 . S
C375 C376 1.375 . S
C375 C378 1.481 . S
C376 C375 1.375 . S
C376 C377 1.367 . S
C376 H390 0.951 . S
C377 C373 1.383 . S
C377 C376 1.367 . S
C377 H391 0.950 . S
C378 C375 1.481 . S
C378 C379 1.297 . S
C378 H392 0.950 . S
C379 C378 1.297 . S
C379 C380 1.479 . S
C379 H393 0.950 . S
C380 C379 1.479 . S
C380 C381 1.375 . S
C380 C386 1.404 . S
C381 C380 1.375 . S
C381 C382 1.369 . S
C381 H394 0.950 . S
C382 C381 1.369 . S
C382 C383 1.392 . S
C382 H395 0.951 . S
C383 C382 1.392 . S
C383 C385 1.384 . S
H384 C386 0.949 . S
C385 C383 1.384 . S
C385 C386 1.385 . S
C385 H387 0.950 . S
C386 C380 1.404 . S
C386 H384 0.949 . S
C386 C385 1.385 . S
H387 C385 0.950 . S
H388 C372 0.951 . S
H389 C374 0.951 . S
H390 C376 0.951 . S
H391 C377 0.950 . S
H392 C378 0.950 . S
H393 C379 0.950 . S
H394 C381 0.950 . S
H395 C382 0.951 . S
C396 C397 1.386 . S
C396 C398 1.383 . S
C396 H412 0.951 . S
C397 C396 1.386 . S
C397 C401 1.383 . S
C398 C396 1.383 . S
C398 C399 1.402 . S
C398 H413 0.951 . S
C399 C398 1.402 . S
C399 C400 1.375 . S
C399 C402 1.481 . S
C400 C399 1.375 . S
C400 C401 1.367 . S
C400 H414 0.951 . S
C401 C397 1.383 . S
C401 C400 1.367 . S
C401 H415 0.950 . S
C402 C399 1.481 . S
C402 C403 1.297 . S
C402 H416 0.950 . S
C403 C402 1.297 . S
C403 C404 1.479 . S
C403 H417 0.950 . S
C404 C403 1.479 . S
C404 C405 1.375 . S
C404 C410 1.404 . S
C405 C404 1.375 . S
C405 C406 1.369 . S
C405 H418 0.950 . S
C406 C405 1.369 . S
C406 C407 1.392 . S
C406 H419 0.951 . S
C407 C406 1.392 . S
C407 C409 1.384 . S
H408 C410 0.949 . S
C409 C407 1.384 . S
C409 C410 1.385 . S
C409 H411 0.950 . S
C410 C404 1.404 . S
C410 H408 0.949 . S
C410 C409 1.385 . S
H411 C409 0.950 . S
H412 C396 0.951 . S
H413 C398 0.951 . S
H414 C400 0.951 . S
H415 C401 0.950 . S
H416 C402 0.950 . S
H417 C403 0.950 . S
H418 C405 0.950 . S
H419 C406 0.951 . S
C420 C421 1.386 . S
C420 C422 1.383 . S
C420 H436 0.951 . S
C421 C420 1.386 . S
C421 C425 1.383 . S
C422 C420 1.383 . S
C422 C423 1.402 . S
C422 H437 0.951 . S
C423 C422 1.402 . S
C423 C424 1.375 . S
C423 C426 1.481 . S
C424 C423 1.375 . S
C424 C425 1.367 . S
C424 H438 0.951 . S
C425 C421 1.383 . S
C425 C424 1.367 . S
C425 H439 0.950 . S
C426 C423 1.481 . S
C426 C427 1.297 . S
C426 H440 0.950 . S
C427 C426 1.297 . S
C427 C428 1.479 . S
C427 H441 0.950 . S
C428 C427 1.479 . S
C428 C429 1.375 . S
C428 C434 1.404 . S
C429 C428 1.375 . S
C429 C430 1.369 . S
C429 H442 0.950 . S
C430 C429 1.369 . S
C430 C431 1.392 . S
C430 H443 0.951 . S
C431 C430 1.392 . S
C431 C433 1.384 . S
H432 C434 0.949 . S
C433 C431 1.384 . S
C433 C434 1.385 . S
C433 H435 0.950 . S
C434 C428 1.404 . S
C434 H432 0.949 . S
C434 C433 1.385 . S
H435 C433 0.950 . S
H436 C420 0.951 . S
H437 C422 0.951 . S
H438 C424 0.951 . S
H439 C425 0.950 . S
H440 C426 0.950 . S
H441 C427 0.950 . S
H442 C429 0.950 . S
H443 C430 0.951 . S
C444 C445 1.386 . S
C444 C446 1.383 . S
C444 H460 0.951 . S
C445 C444 1.386 . S
C445 C449 1.383 . S
C446 C444 1.383 . S
C446 C447 1.402 . S
C446 H461 0.951 . S
C447 C446 1.402 . S
C447 C448 1.375 . S
C447 C450 1.481 1_655 S
C448 C447 1.375 . S
C448 C449 1.367 . S
C448 H462 0.951 . S
C449 C445 1.383 . S
C449 C448 1.367 . S
C449 H463 0.950 . S
C450 C447 1.481 1_455 S
C450 C451 1.297 . S
C450 H464 0.950 . S
C451 C450 1.297 . S
C451 C452 1.479 . S
C451 H465 0.950 . S
C452 C451 1.479 . S
C452 C453 1.375 . S
C452 C458 1.404 . S
C453 C452 1.375 . S
C453 C454 1.369 . S
C453 H466 0.950 . S
C454 C453 1.369 . S
C454 C455 1.392 . S
C454 H467 0.951 1_565 S
C455 C454 1.392 . S
C455 C457 1.384 . S
H456 C458 0.949 . S
C457 C455 1.384 . S
C457 C458 1.385 . S
C457 H459 0.950 . S
C458 C452 1.404 . S
C458 H456 0.949 . S
C458 C457 1.385 . S
H459 C457 0.950 . S
H460 C444 0.951 . S
H461 C446 0.951 . S
H462 C448 0.951 . S
H463 C449 0.950 . S
H464 C450 0.950 . S
H465 C451 0.950 . S
H466 C453 0.950 . S
H467 C454 0.951 1_545 S
C468 C469 1.386 . S
C468 C470 1.383 . S
C468 H484 0.951 . S
C469 C468 1.386 . S
C469 C473 1.383 . S
C470 C468 1.383 . S
C470 C471 1.402 . S
C470 H485 0.951 . S
C471 C470 1.402 . S
C471 C472 1.375 . S
C471 C474 1.481 1_545 S
C472 C471 1.375 . S
C472 C473 1.367 . S
C472 H486 0.951 . S
C473 C469 1.383 . S
C473 C472 1.367 . S
C473 H487 0.950 . S
C474 C471 1.481 1_565 S
C474 C475 1.297 . S
C474 H488 0.950 . S
C475 C474 1.297 . S
C475 C476 1.479 . S
C475 H489 0.950 . S
C476 C475 1.479 . S
C476 C477 1.375 . S
C476 C482 1.404 . S
C477 C476 1.375 . S
C477 C478 1.369 . S
C477 H490 0.950 . S
C478 C477 1.369 . S
C478 C479 1.392 . S
C478 H491 0.951 . S
C479 C478 1.392 . S
C479 C481 1.384 . S
H480 C482 0.949 . S
C481 C479 1.384 . S
C481 C482 1.385 . S
C481 H483 0.950 . S
C482 C476 1.404 . S
C482 H480 0.949 . S
C482 C481 1.385 . S
H483 C481 0.950 . S
H484 C468 0.951 . S
H485 C470 0.951 . S
H486 C472 0.951 . S
H487 C473 0.950 . S
H488 C474 0.950 . S
H489 C475 0.950 . S
H490 C477 0.950 . S
H491 C478 0.951 . S
C492 C493 1.386 . S
C492 C494 1.383 . S
C492 H508 0.951 . S
C493 C492 1.386 . S
C493 C497 1.383 . S
C494 C492 1.383 . S
C494 C495 1.402 . S
C494 H509 0.951 . S
C495 C494 1.402 . S
C495 C496 1.375 . S
C495 C498 1.481 . S
C496 C495 1.375 . S
C496 C497 1.367 . S
C496 H510 0.951 . S
C497 C493 1.383 . S
C497 C496 1.367 . S
C497 H511 0.950 . S
C498 C495 1.481 . S
C498 C499 1.297 . S
C498 H512 0.950 . S
C499 C498 1.297 . S
C499 C500 1.479 . S
C499 H513 0.950 . S
C500 C499 1.479 . S
C500 C501 1.375 . S
C500 C506 1.404 . S
C501 C500 1.375 . S
C501 C502 1.369 . S
C501 H514 0.950 . S
C502 C501 1.369 . S
C502 C503 1.392 . S
C502 H515 0.951 . S
C503 C502 1.392 . S
C503 C505 1.384 . S
H504 C506 0.949 . S
C505 C503 1.384 . S
C505 C506 1.385 . S
C505 H507 0.950 . S
C506 C500 1.404 . S
C506 H504 0.949 . S
C506 C505 1.385 . S
H507 C505 0.950 . S
H508 C492 0.951 . S
H509 C494 0.951 . S
H510 C496 0.951 . S
H511 C497 0.950 . S
H512 C498 0.950 . S
H513 C499 0.950 . S
H514 C501 0.950 . S
H515 C502 0.951 . S
C516 C517 1.386 . S
C516 C518 1.383 . S
C516 H532 0.951 . S
C517 C516 1.386 . S
C517 C521 1.383 . S
C518 C516 1.383 . S
C518 C519 1.402 . S
C518 H533 0.951 . S
C519 C518 1.402 . S
C519 C520 1.375 . S
C519 C522 1.481 1_455 S
C520 C519 1.375 . S
C520 C521 1.367 . S
C520 H534 0.951 . S
C521 C517 1.383 . S
C521 C520 1.367 . S
C521 H535 0.950 . S
C522 C519 1.481 1_655 S
C522 C523 1.297 . S
C522 H536 0.950 . S
C523 C522 1.297 . S
C523 C524 1.479 . S
C523 H537 0.950 . S
C524 C523 1.479 . S
C524 C525 1.375 . S
C524 C530 1.404 . S
C525 C524 1.375 . S
C525 C526 1.369 . S
C525 H538 0.950 . S
C526 C525 1.369 . S
C526 C527 1.392 . S
C526 H539 0.951 . S
C527 C526 1.392 . S
C527 C529 1.384 . S
H528 C530 0.949 . S
C529 C527 1.384 . S
C529 C530 1.385 . S
C529 H531 0.950 . S
C530 C524 1.404 . S
C530 H528 0.949 . S
C530 C529 1.385 . S
H531 C529 0.950 . S
H532 C516 0.951 . S
H533 C518 0.951 . S
H534 C520 0.951 . S
H535 C521 0.950 . S
H536 C522 0.950 . S
H537 C523 0.950 . S
H538 C525 0.950 . S
H539 C526 0.951 . S
C540 C541 1.386 . S
C540 C542 1.383 . S
C540 H556 0.951 . S
C541 C540 1.386 . S
C541 C545 1.383 . S
C542 C540 1.383 . S
C542 C543 1.402 . S
C542 H557 0.951 . S
C543 C542 1.402 . S
C543 C544 1.375 . S
C543 C546 1.481 . S
C544 C543 1.375 . S
C544 C545 1.367 . S
C544 H558 0.951 . S
C545 C541 1.383 . S
C545 C544 1.367 . S
C545 H559 0.950 . S
C546 C543 1.481 . S
C546 C547 1.297 . S
C546 H560 0.950 . S
C547 C546 1.297 . S
C547 C548 1.479 1_545 S
C547 H561 0.950 . S
C548 C547 1.479 1_565 S
C548 C549 1.375 . S
C548 C554 1.404 . S
C549 C548 1.375 . S
C549 C550 1.369 . S
C549 H562 0.950 . S
C550 C549 1.369 . S
C550 C551 1.392 . S
C550 H563 0.951 . S
C551 C550 1.392 . S
C551 C553 1.384 . S
H552 C554 0.949 . S
C553 C551 1.384 . S
C553 C554 1.385 . S
C553 H555 0.950 . S
C554 C548 1.404 . S
C554 H552 0.949 . S
C554 C553 1.385 . S
H555 C553 0.950 . S
H556 C540 0.951 . S
H557 C542 0.951 . S
H558 C544 0.951 . S
H559 C545 0.950 . S
H560 C546 0.950 . S
H561 C547 0.950 . S
H562 C549 0.950 . S
H563 C550 0.951 . S
C133 C94 0.446 . S
C143 C5 0.426 . S
C157 C115 1.333 . S
C167 C28 1.329 . S
C181 C49 2.182 . S
C191 C72 2.267 . S
C205 C9 2.270 . S
C215 C95 2.143 . S
C229 C119 1.283 . S
C239 C29 1.304 . S
C253 C53 0.567 . S
C263 C73 0.438 . S
C277 C6 1.340 . S
C287 C48 1.240 . S
C301 C27 1.193 . S
C311 C4 1.131 . S
C325 C50 1.219 . S
C335 C26 1.120 . S
C349 C75 1.338 . S
C359 C96 1.151 . S
C373 C97 1.219 . S
C383 C118 1.142 . S
C397 C74 1.113 . S
C407 C117 1.178 . S
C421 C8 1.160 . S
C431 C51 1.245 . S
C445 C30 1.164 . S
C455 C7 1.232 . S
C469 C52 1.184 . S
C479 C31 1.277 . S
C493 C70 1.182 . S
C503 C93 1.250 . S
C517 C92 1.185 . S
C527 C116 1.290 . S
C541 C71 1.230 . S
C551 C114 1.230 . S
