# Generated by pormake.
# Topology uke, (4)-cn, num edge types: 1
# Building blocks:
#     Node 0, Type 0, BuildingBlock: QUQFOY_clean_sbu_1, # of connection points: 4
#     Node 1, Type 0, BuildingBlock: QUQFOY_clean_sbu_1, # of connection points: 4
#     Node 2, Type 0, BuildingBlock: QUQFOY_clean_sbu_1, # of connection points: 4
#     Node 3, Type 0, BuildingBlock: QUQFOY_clean_sbu_1, # of connection points: 4
#     Node 4, Type 0, BuildingBlock: QUQFOY_clean_sbu_1, # of connection points: 4
#     Node 5, Type 0, BuildingBlock: QUQFOY_clean_sbu_1, # of connection points: 4
#     Node 6, Type 0, BuildingBlock: QUQFOY_clean_sbu_1, # of connection points: 4
#     Node 7, Type 0, BuildingBlock: QUQFOY_clean_sbu_1, # of connection points: 4
#     Node 8, Type 0, BuildingBlock: QUQFOY_clean_sbu_1, # of connection points: 4
#     Node 9, Type 0, BuildingBlock: QUQFOY_clean_sbu_1, # of connection points: 4
#     Node 10, Type 0, BuildingBlock: QUQFOY_clean_sbu_1, # of connection points: 4
#     Node 11, Type 0, BuildingBlock: QUQFOY_clean_sbu_1, # of connection points: 4
#     Node 12, Type 0, BuildingBlock: QUQFOY_clean_sbu_1, # of connection points: 4
#     Node 13, Type 0, BuildingBlock: QUQFOY_clean_sbu_1, # of connection points: 4
#     Node 14, Type 0, BuildingBlock: QUQFOY_clean_sbu_1, # of connection points: 4
#     Node 15, Type 0, BuildingBlock: QUQFOY_clean_sbu_1, # of connection points: 4
#     Node 16, Type 0, BuildingBlock: QUQFOY_clean_sbu_1, # of connection points: 4
#     Node 17, Type 0, BuildingBlock: QUQFOY_clean_sbu_1, # of connection points: 4
#     Node 18, Type 0, BuildingBlock: QUQFOY_clean_sbu_1, # of connection points: 4
#     Node 19, Type 0, BuildingBlock: QUQFOY_clean_sbu_1, # of connection points: 4
#     Node 20, Type 0, BuildingBlock: QUQFOY_clean_sbu_1, # of connection points: 4
#     Node 21, Type 0, BuildingBlock: QUQFOY_clean_sbu_1, # of connection points: 4
#     Node 22, Type 0, BuildingBlock: QUQFOY_clean_sbu_1, # of connection points: 4
#     Node 23, Type 0, BuildingBlock: QUQFOY_clean_sbu_1, # of connection points: 4
#     Node 24, Type 0, BuildingBlock: QUQFOY_clean_sbu_1, # of connection points: 4
#     Node 25, Type 0, BuildingBlock: QUQFOY_clean_sbu_1, # of connection points: 4
#     Node 26, Type 0, BuildingBlock: QUQFOY_clean_sbu_1, # of connection points: 4
#     Node 27, Type 0, BuildingBlock: QUQFOY_clean_sbu_1, # of connection points: 4
#     Node 28, Type 0, BuildingBlock: QUQFOY_clean_sbu_1, # of connection points: 4
#     Node 29, Type 0, BuildingBlock: QUQFOY_clean_sbu_1, # of connection points: 4
#     Node 30, Type 0, BuildingBlock: QUQFOY_clean_sbu_1, # of connection points: 4
#     Node 31, Type 0, BuildingBlock: QUQFOY_clean_sbu_1, # of connection points: 4
#     Edge 32, Type (0, 0), BuildingBlock: UVAHIK_clean_linker_0, # of connection points: 2
#     Edge 33, Type (0, 0), BuildingBlock: UVAHIK_clean_linker_0, # of connection points: 2
#     Edge 34, Type (0, 0), BuildingBlock: UVAHIK_clean_linker_0, # of connection points: 2
#     Edge 35, Type (0, 0), BuildingBlock: UVAHIK_clean_linker_0, # of connection points: 2
#     Edge 36, Type (0, 0), BuildingBlock: UVAHIK_clean_linker_0, # of connection points: 2
#     Edge 37, Type (0, 0), BuildingBlock: UVAHIK_clean_linker_0, # of connection points: 2
#     Edge 38, Type (0, 0), BuildingBlock: UVAHIK_clean_linker_0, # of connection points: 2
#     Edge 39, Type (0, 0), BuildingBlock: UVAHIK_clean_linker_0, # of connection points: 2
#     Edge 40, Type (0, 0), BuildingBlock: UVAHIK_clean_linker_0, # of connection points: 2
#     Edge 41, Type (0, 0), BuildingBlock: UVAHIK_clean_linker_0, # of connection points: 2
#     Edge 42, Type (0, 0), BuildingBlock: UVAHIK_clean_linker_0, # of connection points: 2
#     Edge 43, Type (0, 0), BuildingBlock: UVAHIK_clean_linker_0, # of connection points: 2
#     Edge 44, Type (0, 0), BuildingBlock: UVAHIK_clean_linker_0, # of connection points: 2
#     Edge 45, Type (0, 0), BuildingBlock: UVAHIK_clean_linker_0, # of connection points: 2
#     Edge 46, Type (0, 0), BuildingBlock: UVAHIK_clean_linker_0, # of connection points: 2
#     Edge 47, Type (0, 0), BuildingBlock: UVAHIK_clean_linker_0, # of connection points: 2
#     Edge 48, Type (0, 0), BuildingBlock: UVAHIK_clean_linker_0, # of connection points: 2
#     Edge 49, Type (0, 0), BuildingBlock: UVAHIK_clean_linker_0, # of connection points: 2
#     Edge 50, Type (0, 0), BuildingBlock: UVAHIK_clean_linker_0, # of connection points: 2
#     Edge 51, Type (0, 0), BuildingBlock: UVAHIK_clean_linker_0, # of connection points: 2
#     Edge 52, Type (0, 0), BuildingBlock: UVAHIK_clean_linker_0, # of connection points: 2
#     Edge 53, Type (0, 0), BuildingBlock: UVAHIK_clean_linker_0, # of connection points: 2
#     Edge 54, Type (0, 0), BuildingBlock: UVAHIK_clean_linker_0, # of connection points: 2
#     Edge 55, Type (0, 0), BuildingBlock: UVAHIK_clean_linker_0, # of connection points: 2
#     Edge 56, Type (0, 0), BuildingBlock: UVAHIK_clean_linker_0, # of connection points: 2
#     Edge 57, Type (0, 0), BuildingBlock: UVAHIK_clean_linker_0, # of connection points: 2
#     Edge 58, Type (0, 0), BuildingBlock: UVAHIK_clean_linker_0, # of connection points: 2
#     Edge 59, Type (0, 0), BuildingBlock: UVAHIK_clean_linker_0, # of connection points: 2
#     Edge 60, Type (0, 0), BuildingBlock: UVAHIK_clean_linker_0, # of connection points: 2
#     Edge 61, Type (0, 0), BuildingBlock: UVAHIK_clean_linker_0, # of connection points: 2
#     Edge 62, Type (0, 0), BuildingBlock: UVAHIK_clean_linker_0, # of connection points: 2
#     Edge 63, Type (0, 0), BuildingBlock: UVAHIK_clean_linker_0, # of connection points: 2
#     Edge 64, Type (0, 0), BuildingBlock: UVAHIK_clean_linker_0, # of connection points: 2
#     Edge 65, Type (0, 0), BuildingBlock: UVAHIK_clean_linker_0, # of connection points: 2
#     Edge 66, Type (0, 0), BuildingBlock: UVAHIK_clean_linker_0, # of connection points: 2
#     Edge 67, Type (0, 0), BuildingBlock: UVAHIK_clean_linker_0, # of connection points: 2
#     Edge 68, Type (0, 0), BuildingBlock: UVAHIK_clean_linker_0, # of connection points: 2
#     Edge 69, Type (0, 0), BuildingBlock: UVAHIK_clean_linker_0, # of connection points: 2
#     Edge 70, Type (0, 0), BuildingBlock: UVAHIK_clean_linker_0, # of connection points: 2
#     Edge 71, Type (0, 0), BuildingBlock: UVAHIK_clean_linker_0, # of connection points: 2
#     Edge 72, Type (0, 0), BuildingBlock: UVAHIK_clean_linker_0, # of connection points: 2
#     Edge 73, Type (0, 0), BuildingBlock: UVAHIK_clean_linker_0, # of connection points: 2
#     Edge 74, Type (0, 0), BuildingBlock: UVAHIK_clean_linker_0, # of connection points: 2
#     Edge 75, Type (0, 0), BuildingBlock: UVAHIK_clean_linker_0, # of connection points: 2
#     Edge 76, Type (0, 0), BuildingBlock: UVAHIK_clean_linker_0, # of connection points: 2
#     Edge 77, Type (0, 0), BuildingBlock: UVAHIK_clean_linker_0, # of connection points: 2
#     Edge 78, Type (0, 0), BuildingBlock: UVAHIK_clean_linker_0, # of connection points: 2
#     Edge 79, Type (0, 0), BuildingBlock: UVAHIK_clean_linker_0, # of connection points: 2
#     Edge 80, Type (0, 0), BuildingBlock: UVAHIK_clean_linker_0, # of connection points: 2
#     Edge 81, Type (0, 0), BuildingBlock: UVAHIK_clean_linker_0, # of connection points: 2
#     Edge 82, Type (0, 0), BuildingBlock: UVAHIK_clean_linker_0, # of connection points: 2
#     Edge 83, Type (0, 0), BuildingBlock: UVAHIK_clean_linker_0, # of connection points: 2
#     Edge 84, Type (0, 0), BuildingBlock: UVAHIK_clean_linker_0, # of connection points: 2
#     Edge 85, Type (0, 0), BuildingBlock: UVAHIK_clean_linker_0, # of connection points: 2
#     Edge 86, Type (0, 0), BuildingBlock: UVAHIK_clean_linker_0, # of connection points: 2
#     Edge 87, Type (0, 0), BuildingBlock: UVAHIK_clean_linker_0, # of connection points: 2
#     Edge 88, Type (0, 0), BuildingBlock: UVAHIK_clean_linker_0, # of connection points: 2
#     Edge 89, Type (0, 0), BuildingBlock: UVAHIK_clean_linker_0, # of connection points: 2
#     Edge 90, Type (0, 0), BuildingBlock: UVAHIK_clean_linker_0, # of connection points: 2
#     Edge 91, Type (0, 0), BuildingBlock: UVAHIK_clean_linker_0, # of connection points: 2
#     Edge 92, Type (0, 0), BuildingBlock: UVAHIK_clean_linker_0, # of connection points: 2
#     Edge 93, Type (0, 0), BuildingBlock: UVAHIK_clean_linker_0, # of connection points: 2
#     Edge 94, Type (0, 0), BuildingBlock: UVAHIK_clean_linker_0, # of connection points: 2
#     Edge 95, Type (0, 0), BuildingBlock: UVAHIK_clean_linker_0, # of connection points: 2
# Relax obj value: 0.024
# Max RMSD: 0.091
# Mean RMSD: 0.091
data_MOF--net-uke--node1-QUQFOY_clean_sbu_1--edge1-UVAHIK_clean_linker_0
_symmetry_space_group_name_H-M    P1
_symmetry_Int_Tables_number       1
_symmetry_cell_setting            triclinic
loop_
_symmetry_equiv_pos_as_xyz
'x, y, z'
_cell_length_a     31.881182
_cell_length_b     144.90062
_cell_length_c     67.605877
_cell_angle_alpha  89.993324
_cell_angle_beta   89.997504
_cell_angle_gamma 89.998517
loop_
_atom_site_label
_atom_site_type_symbol
_atom_site_fract_x
_atom_site_fract_y
_atom_site_fract_z
_atom_type_partial_charge
O0 O 0.07899 0.0826 0.28122 0.0
Cd1 Cd 0.06298 0.0693 0.2728 0.0
Cd2 Cd 0.1441 0.06788 0.27358 0.0
O3 O 0.14313 0.07947 0.29137 0.0
O4 O 1.00307 0.06745 0.28084 0.0
O5 O 0.05631 0.06038 0.29537 0.0
C6 C 0.01658 0.06212 0.29475 0.0
C7 C 0.17489 0.05355 0.27896 0.0
C8 C 0.11255 0.08508 0.28993 0.0
C9 C 0.10493 0.06805 0.23411 0.0
O10 O 0.13691 0.07043 0.24404 0.0
O11 O 0.07123 0.0658 0.24303 0.0
O12 O 0.19756 0.06076 0.27548 0.0
O13 O 0.13501 0.05471 0.28143 0.0
O14 O 0.18529 0.18549 0.28142 0.0
Cd15 Cd 0.20089 0.19878 0.27307 0.0
Cd16 Cd 0.11876 0.20045 0.2748 0.0
O17 O 0.12022 0.18827 0.29085 0.0
O18 O 0.26076 0.20073 0.28108 0.0
O19 O 0.20722 0.20766 0.2957 0.0
C20 C 0.24701 0.20599 0.29507 0.0
C21 C 0.08736 0.21451 0.28219 0.0
C22 C 0.15144 0.18281 0.28958 0.0
C23 C 0.1569 0.20109 0.23478 0.0
O24 O 0.12459 0.1991 0.24486 0.0
O25 O 0.19196 0.20236 0.24342 0.0
O26 O 0.06498 0.20734 0.27797 0.0
O27 O 0.12729 0.21337 0.28448 0.0
O28 O 0.08092 0.18581 0.97582 0.0
Cd29 Cd 0.06511 0.19907 0.98421 0.0
Cd30 Cd 0.14762 0.20068 0.98327 0.0
O31 O 0.14664 0.18847 0.96728 0.0
O32 O 1.00554 0.20102 0.97566 0.0
O33 O 0.05956 0.20808 0.96177 0.0
C34 C 0.01979 0.20638 0.96196 0.0
C35 C 0.17921 0.21473 0.97585 0.0
C36 C 0.11514 0.18307 0.9681 0.0
C37 C 0.10761 0.20133 0.02294 0.0
O38 O 0.14043 0.19939 0.01317 0.0
O39 O 0.07291 0.20257 0.01396 0.0
O40 O 0.20148 0.20759 0.98043 0.0
O41 O 0.13937 0.21357 0.9733 0.0
O42 O 0.18405 0.08268 0.97585 0.0
Cd43 Cd 0.19955 0.06934 0.98415 0.0
Cd44 Cd 0.11842 0.06805 0.98318 0.0
O45 O 0.11995 0.07968 0.96549 0.0
O46 O 0.25952 0.06744 0.97627 0.0
O47 O 0.20631 0.06048 0.96148 0.0
C48 C 0.24606 0.06218 0.96224 0.0
C49 C 0.08758 0.05373 0.97767 0.0
C50 C 0.15069 0.08524 0.96707 0.0
C51 C 0.15717 0.06808 0.02273 0.0
O52 O 0.12539 0.07054 0.01275 0.0
O53 O 0.19088 0.06579 0.01387 0.0
O54 O 0.06493 0.06095 0.98111 0.0
O55 O 0.12749 0.05488 0.97528 0.0
O56 O 0.92923 0.9356 0.72647 0.0
Cd57 Cd 0.94604 0.9488 0.73488 0.0
Cd58 Cd 0.8645 0.95092 0.73276 0.0
O59 O 0.86524 0.93887 0.71623 0.0
O60 O 0.00616 0.95051 0.72709 0.0
O61 O 0.95346 0.95769 0.71235 0.0
C62 C 0.99309 0.95587 0.71312 0.0
C63 C 0.83433 0.96517 0.72581 0.0
C64 C 0.89551 0.93317 0.71785 0.0
C65 C 0.90165 0.95113 0.77296 0.0
O66 O 0.86947 0.94926 0.76268 0.0
O67 O 0.9369 0.95238 0.76449 0.0
O68 O 0.81133 0.95805 0.72961 0.0
O69 O 0.87423 0.96391 0.72369 0.0
O70 O 0.82747 0.83257 0.72587 0.0
Cd71 Cd 0.8127 0.81924 0.73426 0.0
Cd72 Cd 0.89509 0.81784 0.73238 0.0
O73 O 0.89264 0.83002 0.71631 0.0
O74 O 0.75317 0.81707 0.72588 0.0
O75 O 0.80764 0.81028 0.71175 0.0
C76 C 0.76773 0.81182 0.71205 0.0
C77 C 0.92718 0.80385 0.72502 0.0
C78 C 0.86104 0.83537 0.71764 0.0
C79 C 0.8571 0.81707 0.77245 0.0
O80 O 0.88917 0.81919 0.76231 0.0
O81 O 0.82205 0.81569 0.76389 0.0
O82 O 0.94925 0.81108 0.72918 0.0
O83 O 0.8872 0.8049 0.72277 0.0
O84 O 0.93688 0.83201 0.03072 0.0
Cd85 Cd 0.95199 0.81866 0.02266 0.0
Cd86 Cd 0.86977 0.81723 0.02376 0.0
O87 O 0.87136 0.82945 0.03969 0.0
O88 O 0.01171 0.81665 0.0308 0.0
O89 O 0.95792 0.80981 0.0454 0.0
C90 C 0.99776 0.81141 0.04478 0.0
C91 C 0.83759 0.80324 0.03102 0.0
C92 C 0.90292 0.83482 0.03857 0.0
C93 C 0.90914 0.81639 0.98406 0.0
O94 O 0.87658 0.81851 0.99384 0.0
O95 O 0.94377 0.81503 0.99301 0.0
O96 O 0.81563 0.81045 0.02664 0.0
O97 O 0.87751 0.80429 0.03355 0.0
O98 O 0.82929 0.93526 0.03121 0.0
Cd99 Cd 0.81191 0.94852 0.02349 0.0
Cd100 Cd 0.89392 0.9507 0.02436 0.0
O101 O 0.89432 0.93841 0.04009 0.0
O102 O 0.7527 0.95026 0.03268 0.0
O103 O 0.807 0.95738 0.04622 0.0
C104 C 0.76729 0.95559 0.04635 0.0
C105 C 0.92647 0.96466 0.03176 0.0
C106 C 0.86384 0.93274 0.03894 0.0
C107 C 0.85314 0.95129 0.98477 0.0
O108 O 0.88632 0.94953 0.99443 0.0
O109 O 0.8184 0.95225 0.99385 0.0
O110 O 0.94817 0.95748 0.02689 0.0
O111 O 0.88666 0.96359 0.03459 0.0
O112 O 0.0775 0.58248 0.7822 0.0
Cd113 Cd 0.06352 0.5691 0.77362 0.0
Cd114 Cd 0.14503 0.56832 0.77455 0.0
O115 O 0.14243 0.57998 0.79209 0.0
O116 O 1.00352 0.567 0.78124 0.0
O117 O 0.05688 0.56017 0.79618 0.0
C118 C 0.01705 0.56176 0.7953 0.0
C119 C 0.17588 0.55403 0.78025 0.0
C120 C 0.11068 0.58528 0.79079 0.0
C121 C 0.10633 0.5681 0.735 0.0
O122 O 0.13788 0.5707 0.74497 0.0
O123 O 0.07281 0.56567 0.74386 0.0
O124 O 0.19857 0.56125 0.77681 0.0
O125 O 0.13595 0.55517 0.78255 0.0
O126 O 0.18001 0.68536 0.78143 0.0
Cd127 Cd 0.19713 0.69853 0.77286 0.0
Cd128 Cd 0.11554 0.70075 0.77479 0.0
O129 O 0.11586 0.6887 0.79134 0.0
O130 O 0.25721 0.70022 0.78072 0.0
O131 O 0.20451 0.70751 0.79524 0.0
C132 C 0.24413 0.70566 0.79454 0.0
C133 C 0.08507 0.71497 0.78171 0.0
C134 C 0.14606 0.68298 0.78993 0.0
C135 C 0.15319 0.70087 0.73466 0.0
O136 O 0.1208 0.6991 0.74487 0.0
O137 O 0.18842 0.70204 0.7432 0.0
O138 O 0.06224 0.70783 0.7778 0.0
O139 O 0.12496 0.71374 0.78394 0.0
O140 O 0.08024 0.68586 0.47598 0.0
Cd141 Cd 0.06304 0.69907 0.48413 0.0
Cd142 Cd 0.14483 0.70123 0.48303 0.0
O143 O 0.14506 0.68906 0.46688 0.0
O144 O 1.00324 0.70074 0.47584 0.0
O145 O 0.05638 0.70797 0.46155 0.0
C146 C 0.01673 0.70613 0.46202 0.0
C147 C 0.17596 0.71536 0.47583 0.0
C148 C 0.11462 0.68339 0.46801 0.0
C149 C 0.10518 0.70158 0.52276 0.0
O150 O 0.13815 0.69982 0.51295 0.0
O151 O 0.07035 0.70265 0.51382 0.0
O152 O 0.19842 0.70824 0.48028 0.0
O153 O 0.13614 0.71416 0.47328 0.0
O154 O 0.1836 0.58272 0.47614 0.0
Cd155 Cd 0.19785 0.56934 0.48456 0.0
Cd156 Cd 0.11603 0.56857 0.48425 0.0
O157 O 0.1182 0.58031 0.46687 0.0
O158 O 0.25732 0.56716 0.47609 0.0
O159 O 0.20284 0.56034 0.46206 0.0
C160 C 0.24274 0.5619 0.4623 0.0
C161 C 0.08471 0.55433 0.47843 0.0
C162 C 0.1501 0.58558 0.46791 0.0
C163 C 0.15644 0.56827 0.52351 0.0
O164 O 0.12445 0.57084 0.5138 0.0
O165 O 0.18973 0.5659 0.51439 0.0
O166 O 0.06227 0.56154 0.48228 0.0
O167 O 0.12457 0.55547 0.47586 0.0
O168 O 0.93624 0.43521 0.22737 0.0
Cd169 Cd 0.95197 0.44854 0.23561 0.0
Cd170 Cd 0.87068 0.44991 0.23479 0.0
O171 O 0.87205 0.43826 0.21718 0.0
O172 O 0.01136 0.45057 0.22688 0.0
O173 O 0.95688 0.45748 0.21302 0.0
C174 C 0.99673 0.45585 0.21312 0.0
C175 C 0.83883 0.46411 0.22918 0.0
C176 C 0.90274 0.43267 0.21867 0.0
C177 C 0.91015 0.44992 0.27427 0.0
O178 O 0.87816 0.44751 0.26438 0.0
O179 O 0.9439 0.45212 0.26534 0.0
O180 O 0.8167 0.45684 0.23286 0.0
O181 O 0.87875 0.46308 0.22666 0.0
O182 O 0.82957 0.33228 0.2258 0.0
Cd183 Cd 0.81333 0.31907 0.23433 0.0
Cd184 Cd 0.89568 0.31725 0.23289 0.0
O185 O 0.8949 0.32945 0.21687 0.0
O186 O 0.75386 0.31711 0.22565 0.0
O187 O 0.80806 0.31002 0.21198 0.0
C188 C 0.76828 0.31173 0.21202 0.0
C189 C 0.92764 0.30322 0.22569 0.0
C190 C 0.86373 0.33493 0.21787 0.0
C191 C 0.85646 0.31679 0.27282 0.0
O192 O 0.88907 0.31861 0.26279 0.0
O193 O 0.82139 0.31564 0.26412 0.0
O194 O 0.94971 0.31041 0.23011 0.0
O195 O 0.88777 0.30432 0.22312 0.0
O196 O 0.93099 0.33325 0.53164 0.0
Cd197 Cd 0.94818 0.32005 0.52332 0.0
Cd198 Cd 0.86627 0.31793 0.5245 0.0
O199 O 0.86628 0.33002 0.54089 0.0
O200 O 0.0076 0.31823 0.53221 0.0
O201 O 0.9535 0.31103 0.54574 0.0
C202 C 0.99322 0.31281 0.54578 0.0
C203 C 0.8346 0.30383 0.53139 0.0
C204 C 0.89673 0.3357 0.53975 0.0
C205 C 0.90585 0.31766 0.48472 0.0
O206 O 0.87304 0.31947 0.49461 0.0
O207 O 0.94072 0.3165 0.4936 0.0
O208 O 0.8124 0.311 0.52703 0.0
O209 O 0.87443 0.30496 0.53402 0.0
O210 O 0.82849 0.43627 0.53275 0.0
Cd211 Cd 0.81439 0.44964 0.52419 0.0
Cd212 Cd 0.89597 0.45047 0.52522 0.0
O213 O 0.89343 0.43875 0.54263 0.0
O214 O 0.75427 0.45168 0.53169 0.0
O215 O 0.80735 0.45856 0.54675 0.0
C216 C 0.76757 0.45693 0.54578 0.0
C217 C 0.9263 0.46478 0.53127 0.0
C218 C 0.86169 0.43345 0.5413 0.0
C219 C 0.85737 0.45069 0.48561 0.0
O220 O 0.88899 0.44814 0.49561 0.0
O221 O 0.82374 0.45307 0.49444 0.0
O222 O 0.94926 0.45762 0.5277 0.0
O223 O 0.88639 0.46356 0.53344 0.0
O224 O 0.57973 0.08301 0.78206 0.0
Cd225 Cd 0.56483 0.06969 0.77373 0.0
Cd226 Cd 0.64715 0.06827 0.77565 0.0
O227 O 0.64477 0.08043 0.79178 0.0
O228 O 0.50521 0.06755 0.78205 0.0
O229 O 0.55951 0.06077 0.79633 0.0
C230 C 0.51962 0.06233 0.79595 0.0
C231 C 0.67875 0.05421 0.78292 0.0
C232 C 0.61325 0.0858 0.79035 0.0
C233 C 0.6094 0.06753 0.73557 0.0
O234 O 0.64139 0.06968 0.74573 0.0
O235 O 0.57437 0.06609 0.74412 0.0
O236 O 0.70108 0.06141 0.77887 0.0
O237 O 0.63878 0.05531 0.78512 0.0
O238 O 0.68157 0.18622 0.7824 0.0
Cd239 Cd 0.69817 0.19948 0.77428 0.0
Cd240 Cd 0.61644 0.20149 0.77592 0.0
O241 O 0.61707 0.18934 0.79213 0.0
O242 O 0.7582 0.2012 0.7822 0.0
O243 O 0.70534 0.20831 0.79698 0.0
C244 C 0.74501 0.20651 0.79621 0.0
C245 C 0.58546 0.21562 0.78316 0.0
C246 C 0.64759 0.1837 0.79067 0.0
C247 C 0.65474 0.20193 0.73595 0.0
O248 O 0.62222 0.20002 0.74597 0.0
O249 O 0.68972 0.20315 0.74469 0.0
O250 O 0.56289 0.20848 0.77898 0.0
O251 O 0.62536 0.21444 0.78545 0.0
O252 O 0.57689 0.18547 0.47823 0.0
Cd253 Cd 0.55974 0.19873 0.48605 0.0
Cd254 Cd 0.64163 0.20095 0.48419 0.0
O255 O 0.64126 0.18868 0.46841 0.0
O256 O 0.5005 0.20061 0.47695 0.0
O257 O 0.55512 0.20757 0.46331 0.0
C258 C 0.51533 0.20588 0.46321 0.0
C259 C 0.67374 0.21494 0.47666 0.0
C260 C 0.61098 0.18298 0.47001 0.0
C261 C 0.6029 0.20152 0.52425 0.0
O262 O 0.63547 0.19973 0.51417 0.0
O263 O 0.56765 0.2025 0.51563 0.0
O264 O 0.69573 0.20776 0.48123 0.0
O265 O 0.63386 0.21385 0.47415 0.0
O266 O 0.68623 0.08232 0.47721 0.0
Cd267 Cd 0.70218 0.069 0.48511 0.0
Cd268 Cd 0.61976 0.06737 0.48439 0.0
O269 O 0.62051 0.07966 0.4687 0.0
O270 O 0.76137 0.06704 0.47603 0.0
O271 O 0.70668 0.06012 0.46239 0.0
C272 C 0.74651 0.06178 0.4623 0.0
C273 C 0.58669 0.05347 0.4771 0.0
C274 C 0.65191 0.08508 0.46964 0.0
C275 C 0.66053 0.06653 0.52391 0.0
O276 O 0.62758 0.06851 0.51428 0.0
O277 O 0.69513 0.06535 0.51482 0.0
O278 O 0.56524 0.0607 0.48188 0.0
O279 O 0.62653 0.05446 0.47422 0.0
O280 O 0.43086 0.93494 0.22667 0.0
Cd281 Cd 0.44787 0.94817 0.23481 0.0
Cd282 Cd 0.36617 0.95043 0.23251 0.0
O283 O 0.36673 0.9382 0.2166 0.0
O284 O 0.50795 0.94987 0.22694 0.0
O285 O 0.45513 0.95699 0.21214 0.0
C286 C 0.4948 0.95519 0.21293 0.0
C287 C 0.33536 0.96451 0.22465 0.0
C288 C 0.39693 0.93249 0.21825 0.0
C289 C 0.40343 0.95095 0.27277 0.0
O290 O 0.37108 0.94916 0.26253 0.0
O291 O 0.43886 0.95193 0.26431 0.0
O292 O 0.3127 0.9574 0.22898 0.0
O293 O 0.3753 0.96331 0.22259 0.0
O294 O 0.32649 0.83188 0.2262 0.0
Cd295 Cd 0.31209 0.81849 0.23457 0.0
Cd296 Cd 0.39383 0.81771 0.23443 0.0
O297 O 0.39193 0.82943 0.21704 0.0
O298 O 0.25277 0.81631 0.2259 0.0
O299 O 0.30749 0.80951 0.21204 0.0
C300 C 0.26758 0.81105 0.21215 0.0
C301 C 0.42571 0.80352 0.22878 0.0
C302 C 0.36009 0.83472 0.21803 0.0
C303 C 0.3531 0.81738 0.27359 0.0
O304 O 0.38515 0.81997 0.26396 0.0
O305 O 0.31989 0.81502 0.2644 0.0
O306 O 0.44784 0.81077 0.23266 0.0
O307 O 0.38586 0.80458 0.22606 0.0
O308 O 0.43843 0.83216 0.5292 0.0
Cd309 Cd 0.45084 0.81848 0.5226 0.0
Cd310 Cd 0.37018 0.81816 0.52499 0.0
O311 O 0.37573 0.82998 0.54205 0.0
O312 O 0.51059 0.81609 0.53033 0.0
O313 O 0.45623 0.81019 0.54629 0.0
C314 C 0.49631 0.81137 0.54508 0.0
C315 C 0.33822 0.80407 0.53141 0.0
C316 C 0.40695 0.83524 0.53872 0.0
C317 C 0.40607 0.81706 0.48493 0.0
O318 O 0.37599 0.82023 0.49518 0.0
O319 O 0.43947 0.81434 0.49349 0.0
O320 O 0.31602 0.81138 0.52814 0.0
O321 O 0.37834 0.80504 0.53324 0.0
O322 O 0.32395 0.93589 0.52847 0.0
Cd323 Cd 0.30814 0.9494 0.5223 0.0
Cd324 Cd 0.38954 0.95098 0.52423 0.0
O325 O 0.3874 0.93866 0.53998 0.0
O326 O 0.24903 0.95134 0.53153 0.0
O327 O 0.30419 0.95775 0.54592 0.0
C328 C 0.26423 0.95625 0.54578 0.0
C329 C 0.4226 0.96484 0.53182 0.0
C330 C 0.35704 0.9331 0.53712 0.0
C331 C 0.35089 0.95224 0.4843 0.0
O332 O 0.38301 0.94987 0.49417 0.0
O333 O 0.31621 0.95367 0.49315 0.0
O334 O 0.44412 0.95759 0.5273 0.0
O335 O 0.38263 0.96389 0.5343 0.0
O336 O 0.57792 0.58238 0.28094 0.0
Cd337 Cd 0.56087 0.56909 0.27324 0.0
Cd338 Cd 0.64272 0.56694 0.27456 0.0
O339 O 0.64271 0.57924 0.2902 0.0
O340 O 0.5011 0.56741 0.28158 0.0
O341 O 0.55438 0.56034 0.29612 0.0
C342 C 0.51468 0.56212 0.29556 0.0
C343 C 0.67488 0.553 0.28236 0.0
C344 C 0.61227 0.58491 0.28884 0.0
C345 C 0.60328 0.5662 0.23479 0.0
O346 O 0.63619 0.56804 0.24457 0.0
O347 O 0.56836 0.56524 0.24372 0.0
O348 O 0.6968 0.56016 0.27759 0.0
O349 O 0.63498 0.55408 0.28488 0.0
O350 O 0.68624 0.6856 0.28031 0.0
Cd351 Cd 0.70156 0.69894 0.27235 0.0
Cd352 Cd 0.61918 0.70058 0.27433 0.0
O353 O 0.62108 0.68823 0.28981 0.0
O354 O 0.76095 0.70106 0.28099 0.0
O355 O 0.70625 0.70779 0.29507 0.0
C356 C 0.74617 0.70625 0.29487 0.0
C357 C 0.58673 0.71445 0.28239 0.0
C358 C 0.65243 0.68281 0.28836 0.0
C359 C 0.65743 0.70159 0.23424 0.0
O360 O 0.62514 0.69957 0.24432 0.0
O361 O 0.69265 0.70271 0.24283 0.0
O362 O 0.56488 0.70726 0.27775 0.0
O363 O 0.6267 0.71342 0.28467 0.0
O364 O 0.5737 0.6862 0.97902 0.0
Cd365 Cd 0.5593 0.69979 0.98506 0.0
Cd366 Cd 0.64085 0.70093 0.98297 0.0
O367 O 0.63737 0.68859 0.9674 0.0
O368 O 0.50019 0.70194 0.97603 0.0
O369 O 0.5556 0.70806 0.9613 0.0
C370 C 0.51554 0.70672 0.96162 0.0
C371 C 0.67421 0.71473 0.97517 0.0
C372 C 0.6064 0.6832 0.97036 0.0
C373 C 0.60288 0.70253 0.02292 0.0
O374 O 0.6346 0.69992 0.01303 0.0
O375 O 0.5683 0.70413 0.01412 0.0
O376 O 0.69562 0.70744 0.97961 0.0
O377 O 0.63418 0.71383 0.97284 0.0
O378 O 0.68769 0.58227 0.97988 0.0
Cd379 Cd 0.70228 0.56869 0.98602 0.0
Cd380 Cd 0.62089 0.56742 0.98307 0.0
O381 O 0.62479 0.57975 0.96746 0.0
O382 O 0.76151 0.56651 0.97714 0.0
O383 O 0.70617 0.56043 0.96229 0.0
C384 C 0.74624 0.56173 0.9627 0.0
C385 C 0.5879 0.55359 0.97518 0.0
C386 C 0.65535 0.5852 0.97082 0.0
C387 C 0.65716 0.56592 0.02342 0.0
O388 O 0.6259 0.56849 0.01317 0.0
O389 O 0.6922 0.56434 0.01501 0.0
O390 O 0.56627 0.56088 0.97935 0.0
O391 O 0.628 0.5545 0.97315 0.0
O392 O 0.43561 0.43612 0.72962 0.0
Cd393 Cd 0.45111 0.44964 0.73587 0.0
Cd394 Cd 0.36956 0.45114 0.73383 0.0
O395 O 0.37203 0.43881 0.71817 0.0
O396 O 0.51032 0.45163 0.72682 0.0
O397 O 0.45527 0.45802 0.71232 0.0
C398 C 0.49525 0.45656 0.71257 0.0
C399 C 0.33686 0.46502 0.72595 0.0
C400 C 0.40256 0.43329 0.72099 0.0
C401 C 0.40791 0.45245 0.77382 0.0
O402 O 0.37582 0.45009 0.76391 0.0
O403 O 0.44265 0.45387 0.76503 0.0
O404 O 0.31512 0.4578 0.73049 0.0
O405 O 0.37686 0.46403 0.72365 0.0
O406 O 0.32228 0.33231 0.72908 0.0
Cd407 Cd 0.30972 0.31863 0.7356 0.0
Cd408 Cd 0.39033 0.31828 0.73328 0.0
O409 O 0.38495 0.33011 0.71621 0.0
O410 O 0.24996 0.31629 0.72781 0.0
O411 O 0.30427 0.31038 0.71185 0.0
C412 C 0.26421 0.31159 0.71303 0.0
C413 C 0.42234 0.30418 0.72694 0.0
C414 C 0.35378 0.33538 0.71957 0.0
C415 C 0.35425 0.31718 0.7733 0.0
O416 O 0.38437 0.32035 0.76308 0.0
O417 O 0.32091 0.31446 0.76471 0.0
O418 O 0.44451 0.3115 0.73022 0.0
O419 O 0.38223 0.30515 0.72505 0.0
O420 O 0.43641 0.33242 0.03164 0.0
Cd421 Cd 0.45045 0.319 0.02336 0.0
Cd422 Cd 0.36888 0.31824 0.02398 0.0
O423 O 0.37129 0.32998 0.04131 0.0
O424 O 0.51033 0.31687 0.03117 0.0
O425 O 0.45669 0.31014 0.0461 0.0
C426 C 0.49656 0.31169 0.04527 0.0
C427 C 0.33789 0.30398 0.02988 0.0
C428 C 0.40308 0.33527 0.04004 0.0
C429 C 0.40821 0.3178 0.9846 0.0
O430 O 0.37652 0.32048 0.99438 0.0
O431 O 0.44156 0.31542 0.99365 0.0
O432 O 0.31527 0.31119 0.02621 0.0
O433 O 0.37778 0.30513 0.0323 0.0
O434 O 0.33158 0.43547 0.03192 0.0
Cd435 Cd 0.31417 0.44868 0.0238 0.0
Cd436 Cd 0.39574 0.45095 0.0255 0.0
O437 O 0.39582 0.4388 0.04171 0.0
O438 O 0.2543 0.45035 0.03203 0.0
O439 O 0.30741 0.45752 0.04648 0.0
C440 C 0.26775 0.45569 0.04594 0.0
C441 C 0.42686 0.46509 0.03249 0.0
C442 C 0.3657 0.43306 0.04023 0.0
C443 C 0.35739 0.4513 0.98551 0.0
O444 O 0.38994 0.44947 0.99557 0.0
O445 O 0.32226 0.45238 0.99419 0.0
O446 O 0.44934 0.45793 0.02834 0.0
O447 O 0.387 0.46392 0.03496 0.0
C448 C 0.12212 0.07312 0.05384 0.0
C449 C 0.1539 0.06796 0.04457 0.0
C450 C 0.11728 0.07292 0.07431 0.0
C451 C 0.13455 0.05898 0.11821 0.0
H452 H 0.12467 0.08225 0.14623 0.0
C453 C 0.08101 0.06256 0.20057 0.0
C454 C 0.10799 0.06796 0.21227 0.0
C455 C 0.08622 0.06225 0.17996 0.0
C456 C 0.12732 0.0757 0.13859 0.0
H457 H 0.20541 0.05849 0.04956 0.0
H458 H 0.1964 0.05802 0.08568 0.0
H459 H 0.13669 0.08224 0.11055 0.0
H460 H 0.16094 0.07737 0.21153 0.0
H461 H 0.16921 0.07698 0.17579 0.0
H462 H 0.12471 0.05246 0.14637 0.0
C463 C 0.17547 0.06225 0.0769 0.0
C464 C 0.13411 0.0757 0.1182 0.0
C465 C 0.18081 0.06257 0.0563 0.0
C466 C 0.13966 0.07313 0.20296 0.0
C467 C 0.14437 0.07294 0.18248 0.0
C468 C 0.12708 0.05898 0.13863 0.0
C469 C 0.14371 0.06746 0.08606 0.0
C470 C 0.13791 0.06735 0.10781 0.0
C471 C 0.11791 0.06747 0.17077 0.0
C472 C 0.12363 0.06735 0.14901 0.0
H473 H 0.10089 0.07737 0.04524 0.0
H474 H 0.09238 0.07695 0.08097 0.0
H475 H 0.13701 0.05245 0.11049 0.0
H476 H 0.05649 0.05847 0.20734 0.0
H477 H 0.06527 0.05802 0.17121 0.0
C478 C 0.15071 0.20212 0.05374 0.0
C479 C 0.1109 0.2022 0.04474 0.0
C480 C 0.15476 0.20273 0.07423 0.0
C481 C 0.09809 0.19819 0.1203 0.0
H482 H 0.18591 0.2131 0.14393 0.0
C483 C 0.11224 0.20216 0.20455 0.0
C484 C 0.15254 0.20199 0.21303 0.0
C485 C 0.10707 0.20273 0.18412 0.0
C486 C 0.16156 0.20882 0.13756 0.0
H487 H 0.04408 0.20312 0.05031 0.0
H488 H 0.05119 0.20415 0.08635 0.0
H489 H 0.17579 0.21332 0.10814 0.0
H490 H 0.21909 0.20244 0.20659 0.0
H491 H 0.21009 0.20326 0.17065 0.0
H492 H 0.08425 0.19354 0.14957 0.0
C493 C 0.07923 0.20356 0.0774 0.0
C494 C 0.15564 0.20898 0.11706 0.0
C495 C 0.07515 0.20301 0.05678 0.0
C496 C 0.18766 0.20255 0.20052 0.0
C497 C 0.18245 0.20307 0.17995 0.0
C498 C 0.10411 0.198 0.14076 0.0
C499 C 0.11914 0.2034 0.08633 0.0
C500 C 0.12394 0.20364 0.10819 0.0
C501 C 0.14202 0.20308 0.17151 0.0
C502 C 0.13595 0.2033 0.14967 0.0
H503 H 0.17901 0.20153 0.04496 0.0
H504 H 0.18589 0.20246 0.08063 0.0
H505 H 0.07389 0.19388 0.1139 0.0
H506 H 0.0844 0.20186 0.21371 0.0
H507 H 0.0755 0.20294 0.17821 0.0
C508 C 0.8957 0.95256 0.95389 0.0
C509 C 0.85601 0.95223 0.96298 0.0
C510 C 0.89939 0.95317 0.93339 0.0
C511 C 0.84334 0.94787 0.88755 0.0
H512 H 0.9278 0.96356 0.86349 0.0
C513 C 0.85667 0.9517 0.80317 0.0
C514 C 0.897 0.9519 0.79472 0.0
C515 C 0.85133 0.95224 0.82359 0.0
C516 C 0.90441 0.95906 0.86999 0.0
H517 H 0.789 0.95242 0.95757 0.0
H518 H 0.7955 0.95346 0.9215 0.0
H519 H 0.91776 0.96386 0.89928 0.0
H520 H 0.9634 0.95295 0.80121 0.0
H521 H 0.95411 0.95374 0.83712 0.0
H522 H 0.83041 0.94295 0.85838 0.0
C523 C 0.82373 0.9532 0.9304 0.0
C524 C 0.89853 0.95926 0.89048 0.0
C525 C 0.82 0.95265 0.95103 0.0
C526 C 0.93194 0.95278 0.80725 0.0
C527 C 0.92657 0.95328 0.82781 0.0
C528 C 0.84932 0.94765 0.86708 0.0
C529 C 0.86353 0.95343 0.92137 0.0
C530 C 0.86806 0.95364 0.8995 0.0
C531 C 0.88615 0.95295 0.83621 0.0
C532 C 0.88 0.95322 0.85804 0.0
H533 H 0.92418 0.95228 0.96261 0.0
H534 H 0.93048 0.95322 0.92691 0.0
H535 H 0.82013 0.94334 0.89407 0.0
H536 H 0.82895 0.95113 0.79399 0.0
H537 H 0.81974 0.95216 0.82949 0.0
C538 C 0.86573 0.81542 0.9534 0.0
C539 C 0.90565 0.81547 0.96228 0.0
C540 C 0.86148 0.81482 0.93291 0.0
C541 C 0.91711 0.81977 0.88684 0.0
H542 H 0.83049 0.80456 0.8631 0.0
C543 C 0.90221 0.81616 0.80255 0.0
C544 C 0.8618 0.81615 0.79419 0.0
C545 C 0.9077 0.81553 0.82295 0.0
C546 C 0.85449 0.80893 0.86951 0.0
H547 H 0.97247 0.81479 0.95654 0.0
H548 H 0.96501 0.8138 0.92051 0.0
H549 H 0.84112 0.8042 0.89886 0.0
H550 H 0.79539 0.81533 0.80079 0.0
H551 H 0.80494 0.81441 0.83669 0.0
H552 H 0.93003 0.82465 0.85764 0.0
C553 C 0.93703 0.81426 0.92955 0.0
C554 C 0.86071 0.80869 0.88998 0.0
C555 C 0.94131 0.81479 0.95016 0.0
C556 C 0.82691 0.81536 0.80677 0.0
C557 C 0.83243 0.81478 0.82732 0.0
C558 C 0.91077 0.82005 0.8664 0.0
C559 C 0.89702 0.8143 0.92072 0.0
C560 C 0.89199 0.81414 0.89888 0.0
C561 C 0.87295 0.81494 0.83565 0.0
C562 C 0.87935 0.81464 0.85746 0.0
H563 H 0.83751 0.8159 0.96226 0.0
H564 H 0.83027 0.81498 0.92659 0.0
H565 H 0.94095 0.82417 0.89327 0.0
H566 H 0.9299 0.81664 0.79332 0.0
H567 H 0.93935 0.81546 0.82876 0.0
C568 C 0.08267 0.56258 0.70143 0.0
C569 C 0.10969 0.56795 0.71316 0.0
C570 C 0.088 0.56225 0.68083 0.0
C571 C 0.12989 0.5757 0.63959 0.0
H572 H 0.1373 0.5525 0.61116 0.0
C573 C 0.12288 0.57341 0.55488 0.0
C574 C 0.15387 0.56813 0.54536 0.0
C575 C 0.11856 0.57317 0.57538 0.0
C576 C 0.13551 0.55901 0.61897 0.0
H577 H 0.16295 0.57729 0.71247 0.0
H578 H 0.17149 0.57685 0.67677 0.0
H579 H 0.12541 0.55245 0.64707 0.0
H580 H 0.20459 0.5584 0.54992 0.0
H581 H 0.1965 0.55787 0.58609 0.0
H582 H 0.13951 0.58228 0.61162 0.0
C583 C 0.14648 0.57285 0.68342 0.0
C584 C 0.12827 0.55898 0.63942 0.0
C585 C 0.14161 0.57306 0.70389 0.0
C586 C 0.18059 0.56258 0.55687 0.0
C587 C 0.17577 0.56222 0.57749 0.0
C588 C 0.13649 0.57573 0.61919 0.0
C589 C 0.1199 0.56743 0.67167 0.0
C590 C 0.12559 0.56734 0.64991 0.0
C591 C 0.14475 0.56755 0.5869 0.0
C592 C 0.13943 0.5674 0.60867 0.0
H593 H 0.05795 0.55853 0.70817 0.0
H594 H 0.06694 0.55805 0.67205 0.0
H595 H 0.12781 0.58224 0.64731 0.0
H596 H 0.10182 0.57778 0.54648 0.0
H597 H 0.09422 0.5773 0.58223 0.0
C598 C 0.10856 0.70158 0.70435 0.0
C599 C 0.14881 0.70165 0.71289 0.0
C600 C 0.10347 0.70213 0.68391 0.0
C601 C 0.15751 0.70876 0.63762 0.0
H602 H 0.07205 0.6934 0.6134 0.0
C603 C 0.14809 0.7025 0.55361 0.0
C604 C 0.10832 0.70238 0.54457 0.0
C605 C 0.15196 0.70302 0.57412 0.0
C606 C 0.09562 0.69783 0.61996 0.0
H607 H 0.21535 0.70246 0.70654 0.0
H608 H 0.20649 0.70327 0.67061 0.0
H609 H 0.08215 0.69293 0.6491 0.0
H610 H 0.04137 0.70283 0.55009 0.0
H611 H 0.04818 0.7037 0.58615 0.0
H612 H 0.17136 0.71353 0.60836 0.0
C613 C 0.17882 0.7029 0.67986 0.0
C614 C 0.1015 0.69756 0.64043 0.0
C615 C 0.18394 0.70239 0.70043 0.0
C616 C 0.07243 0.7029 0.55659 0.0
C617 C 0.07633 0.70335 0.57722 0.0
C618 C 0.15174 0.709 0.61712 0.0
C619 C 0.13847 0.70271 0.67137 0.0
C620 C 0.13255 0.70301 0.64953 0.0
C621 C 0.11619 0.70339 0.58619 0.0
C622 C 0.12083 0.70351 0.60806 0.0
H623 H 0.08071 0.70112 0.71347 0.0
H624 H 0.07194 0.70217 0.67795 0.0
H625 H 0.18122 0.71316 0.64416 0.0
H626 H 0.17647 0.70214 0.54484 0.0
H627 H 0.18308 0.70291 0.58055 0.0
C628 C 0.89215 0.4455 0.45456 0.0
C629 C 0.86071 0.45078 0.46378 0.0
C630 C 0.897 0.44565 0.43408 0.0
C631 C 0.88065 0.45952 0.39002 0.0
H632 H 0.88889 0.43613 0.36234 0.0
C633 C 0.93419 0.45548 0.30775 0.0
C634 C 0.90699 0.45011 0.29612 0.0
C635 C 0.92887 0.45589 0.32834 0.0
C636 C 0.88669 0.44271 0.36987 0.0
H637 H 0.8098 0.4604 0.4587 0.0
H638 H 0.81884 0.46077 0.42257 0.0
H639 H 0.87678 0.43629 0.398 0.0
H640 H 0.85351 0.44084 0.29697 0.0
H641 H 0.84503 0.44142 0.33268 0.0
H642 H 0.89103 0.46592 0.36177 0.0
C643 C 0.8395 0.4565 0.4314 0.0
C644 C 0.87985 0.4428 0.39026 0.0
C645 C 0.83415 0.45624 0.45199 0.0
C646 C 0.87497 0.44506 0.30548 0.0
C647 C 0.87014 0.44536 0.32595 0.0
C648 C 0.88816 0.45943 0.3696 0.0
C649 C 0.87091 0.45117 0.42229 0.0
C650 C 0.87667 0.45119 0.40053 0.0
C651 C 0.89684 0.4508 0.33759 0.0
C652 C 0.89103 0.45101 0.35934 0.0
H653 H 0.91311 0.44121 0.46318 0.0
H654 H 0.92163 0.44152 0.42746 0.0
H655 H 0.87866 0.46608 0.39765 0.0
H656 H 0.95898 0.45948 0.30093 0.0
H657 H 0.95002 0.46011 0.33704 0.0
C658 C 0.90071 0.31567 0.30316 0.0
C659 C 0.86051 0.31601 0.29461 0.0
C660 C 0.90569 0.31526 0.32362 0.0
C661 C 0.85041 0.30993 0.37035 0.0
H662 H 0.9396 0.32464 0.39341 0.0
C663 C 0.86246 0.31705 0.45398 0.0
C664 C 0.90232 0.31683 0.46292 0.0
C665 C 0.85818 0.31639 0.43351 0.0
C666 C 0.91495 0.3204 0.38719 0.0
H667 H 0.79389 0.316 0.30095 0.0
H668 H 0.80256 0.31545 0.33694 0.0
H669 H 0.92922 0.32472 0.35773 0.0
H670 H 0.96901 0.31564 0.45722 0.0
H671 H 0.96152 0.31452 0.42122 0.0
H672 H 0.83581 0.30574 0.39995 0.0
C673 C 0.83027 0.31539 0.32767 0.0
C674 C 0.90892 0.32044 0.36672 0.0
C675 C 0.82525 0.31575 0.30707 0.0
C676 C 0.93791 0.31586 0.45082 0.0
C677 C 0.9336 0.31526 0.43021 0.0
C678 C 0.85635 0.30992 0.39086 0.0
C679 C 0.87063 0.31524 0.33618 0.0
C680 C 0.87657 0.31521 0.35803 0.0
C681 C 0.89363 0.31553 0.42136 0.0
C682 C 0.88862 0.31517 0.39951 0.0
H683 H 0.92865 0.31573 0.29403 0.0
H684 H 0.93718 0.31493 0.32958 0.0
H685 H 0.82564 0.30571 0.36415 0.0
H686 H 0.83427 0.31777 0.4628 0.0
H687 H 0.82703 0.31676 0.42717 0.0
C688 C 0.57941 0.06559 0.70126 0.0
C689 C 0.61419 0.06661 0.71383 0.0
C690 C 0.58501 0.06497 0.68072 0.0
C691 C 0.66266 0.07051 0.6415 0.0
H692 H 0.59503 0.05409 0.60943 0.0
C693 C 0.69333 0.06517 0.55775 0.0
C694 C 0.65746 0.06559 0.5457 0.0
C695 C 0.68933 0.06467 0.57838 0.0
C696 C 0.61405 0.05874 0.6182 0.0
H697 H 0.68222 0.06751 0.71467 0.0
H698 H 0.69181 0.06627 0.67925 0.0
H699 H 0.5844 0.05456 0.64519 0.0
H700 H 0.58929 0.06553 0.54589 0.0
H701 H 0.58255 0.06465 0.58157 0.0
H702 H 0.69225 0.0747 0.61452 0.0
C703 C 0.66016 0.06618 0.68506 0.0
C704 C 0.60782 0.05903 0.63867 0.0
C705 C 0.65459 0.06684 0.70546 0.0
C706 C 0.61766 0.06527 0.55469 0.0
C707 C 0.61371 0.06469 0.57518 0.0
C708 C 0.669 0.07018 0.62107 0.0
C709 C 0.6255 0.06533 0.67238 0.0
C710 C 0.63194 0.06496 0.65058 0.0
C711 C 0.64942 0.06445 0.5873 0.0
C712 C 0.64459 0.06434 0.60916 0.0
H713 H 0.54791 0.06539 0.70724 0.0
H714 H 0.55757 0.0644 0.67136 0.0
H715 H 0.68134 0.07527 0.65015 0.0
H716 H 0.7244 0.06539 0.55128 0.0
H717 H 0.71745 0.06443 0.58735 0.0
C718 C 0.68627 0.2037 0.70195 0.0
C719 C 0.65085 0.20277 0.71417 0.0
C720 C 0.6817 0.20422 0.68136 0.0
C721 C 0.60401 0.2093 0.64202 0.0
H722 H 0.67664 0.19428 0.60923 0.0
C723 C 0.57208 0.2028 0.55854 0.0
C724 C 0.6072 0.20247 0.546 0.0
C725 C 0.57731 0.20332 0.57911 0.0
C726 C 0.65641 0.19862 0.61812 0.0
H727 H 0.58281 0.20184 0.71428 0.0
H728 H 0.57508 0.20272 0.67864 0.0
H729 H 0.68736 0.19461 0.64487 0.0
H730 H 0.67533 0.20281 0.54524 0.0
H731 H 0.68424 0.20389 0.58074 0.0
H732 H 0.573 0.2133 0.61525 0.0
C733 C 0.60632 0.20311 0.68489 0.0
C734 C 0.66263 0.19881 0.63857 0.0
C735 C 0.61086 0.20253 0.70536 0.0
C736 C 0.6475 0.20291 0.55443 0.0
C737 C 0.65269 0.20349 0.57486 0.0
C738 C 0.59786 0.20914 0.62154 0.0
C739 C 0.64163 0.20391 0.67262 0.0
C740 C 0.63639 0.20411 0.65077 0.0
C741 C 0.61776 0.20358 0.5875 0.0
C742 C 0.62394 0.20378 0.60933 0.0
H743 H 0.71747 0.20392 0.70826 0.0
H744 H 0.70951 0.20491 0.67227 0.0
H745 H 0.58352 0.21354 0.65102 0.0
H746 H 0.54065 0.20247 0.5525 0.0
H747 H 0.54971 0.20332 0.58844 0.0
C748 C 0.31928 0.95415 0.45038 0.0
C749 C 0.35476 0.95324 0.46256 0.0
C750 C 0.32376 0.95465 0.42978 0.0
C751 C 0.401 0.9596 0.3902 0.0
H752 H 0.32922 0.94411 0.35803 0.0
C753 C 0.43372 0.95249 0.30709 0.0
C754 C 0.39875 0.95195 0.29449 0.0
C755 C 0.42826 0.95315 0.32762 0.0
C756 C 0.34919 0.94858 0.36674 0.0
H757 H 0.42281 0.9524 0.46265 0.0
H758 H 0.4304 0.95326 0.42697 0.0
H759 H 0.31844 0.94473 0.39365 0.0
H760 H 0.33062 0.95199 0.29359 0.0
H761 H 0.3213 0.95331 0.32903 0.0
H762 H 0.43179 0.96345 0.36328 0.0
C763 C 0.39918 0.95363 0.43325 0.0
C764 C 0.34294 0.94894 0.38717 0.0
C765 C 0.39473 0.95306 0.45374 0.0
C766 C 0.35835 0.95227 0.30283 0.0
C767 C 0.35293 0.95299 0.32323 0.0
C768 C 0.40715 0.95928 0.36973 0.0
C769 C 0.36379 0.95434 0.42101 0.0
C770 C 0.3689 0.95441 0.39916 0.0
C771 C 0.38773 0.95333 0.33594 0.0
C772 C 0.3814 0.95374 0.35774 0.0
H773 H 0.28809 0.95432 0.45671 0.0
H774 H 0.2959 0.95527 0.42071 0.0
H775 H 0.42127 0.96396 0.39904 0.0
H776 H 0.46524 0.95225 0.30113 0.0
H777 H 0.45579 0.95333 0.337 0.0
C778 C 0.42743 0.81115 0.4513 0.0
C779 C 0.40138 0.81669 0.46315 0.0
C780 C 0.42138 0.81077 0.43076 0.0
C781 C 0.37995 0.82441 0.38976 0.0
H782 H 0.37076 0.8013 0.36112 0.0
C783 C 0.38685 0.82232 0.30507 0.0
C784 C 0.35556 0.81716 0.29546 0.0
C785 C 0.3911 0.82201 0.32557 0.0
C786 C 0.37303 0.80779 0.36899 0.0
H787 H 0.34883 0.82623 0.46269 0.0
H788 H 0.33901 0.82569 0.42707 0.0
H789 H 0.38272 0.80113 0.39703 0.0
H790 H 0.30427 0.80756 0.29985 0.0
H791 H 0.3122 0.8069 0.33602 0.0
H792 H 0.37077 0.83109 0.36186 0.0
C793 C 0.36388 0.8216 0.43361 0.0
C794 C 0.38031 0.8077 0.38944 0.0
C795 C 0.36948 0.82188 0.45403 0.0
C796 C 0.3285 0.81165 0.30686 0.0
C797 C 0.33322 0.81122 0.32748 0.0
C798 C 0.37331 0.8245 0.36937 0.0
C799 C 0.38968 0.81605 0.42174 0.0
C800 C 0.38366 0.81602 0.4 0.0
C801 C 0.36453 0.81643 0.33699 0.0
C802 C 0.36975 0.81621 0.35877 0.0
H803 H 0.45213 0.80704 0.45791 0.0
H804 H 0.44185 0.80647 0.42189 0.0
H805 H 0.38259 0.83093 0.39752 0.0
H806 H 0.4082 0.82665 0.29674 0.0
H807 H 0.41568 0.82604 0.33249 0.0
C808 C 0.68623 0.56382 0.05782 0.0
C809 C 0.65173 0.56483 0.04507 0.0
C810 C 0.68018 0.56323 0.07833 0.0
C811 C 0.6018 0.56901 0.11698 0.0
H812 H 0.66966 0.55303 0.14999 0.0
C813 C 0.57086 0.56458 0.20094 0.0
C814 C 0.60663 0.56513 0.21303 0.0
C815 C 0.57501 0.56387 0.18035 0.0
C816 C 0.65057 0.55756 0.14096 0.0
H817 H 0.58374 0.56563 0.04383 0.0
H818 H 0.57333 0.56443 0.07925 0.0
H819 H 0.68043 0.5531 0.11423 0.0
H820 H 0.6748 0.56515 0.21296 0.0
H821 H 0.68181 0.56393 0.17732 0.0
H822 H 0.57203 0.57348 0.14371 0.0
C823 C 0.60511 0.56435 0.07359 0.0
C824 C 0.65686 0.55762 0.12048 0.0
C825 C 0.61113 0.56499 0.05321 0.0
C826 C 0.6465 0.56478 0.20413 0.0
C827 C 0.65061 0.564 0.18366 0.0
C828 C 0.59539 0.56891 0.13743 0.0
C829 C 0.63951 0.56359 0.08645 0.0
C830 C 0.63269 0.56339 0.10824 0.0
C831 C 0.61498 0.5636 0.17151 0.0
C832 C 0.61991 0.56324 0.14967 0.0
H833 H 0.71788 0.56368 0.05201 0.0
H834 H 0.70743 0.56273 0.08783 0.0
H835 H 0.58308 0.57366 0.10807 0.0
H836 H 0.53974 0.56482 0.20734 0.0
H837 H 0.54696 0.56351 0.17135 0.0
C838 C 0.61242 0.70316 0.20425 0.0
C839 C 0.65283 0.70269 0.21255 0.0
C840 C 0.60695 0.70389 0.18387 0.0
C841 C 0.66121 0.70987 0.13718 0.0
H842 H 0.57126 0.69553 0.11372 0.0
C843 C 0.64722 0.70334 0.05332 0.0
C844 C 0.60714 0.70363 0.04462 0.0
C845 C 0.65202 0.70399 0.07377 0.0
C846 C 0.5961 0.69968 0.12007 0.0
H847 H 0.7193 0.70281 0.20586 0.0
H848 H 0.70975 0.70391 0.16998 0.0
H849 H 0.58242 0.69499 0.14932 0.0
H850 H 0.54066 0.70501 0.05064 0.0
H851 H 0.54907 0.70611 0.0866 0.0
H852 H 0.67531 0.71441 0.10775 0.0
C853 C 0.68226 0.70383 0.17939 0.0
C854 C 0.60258 0.69937 0.14049 0.0
C855 C 0.68778 0.70315 0.19993 0.0
C856 C 0.57192 0.70474 0.05688 0.0
C857 C 0.57674 0.70533 0.07745 0.0
C858 C 0.65485 0.71015 0.11671 0.0
C859 C 0.6417 0.70411 0.17112 0.0
C860 C 0.63522 0.70446 0.14932 0.0
C861 C 0.61687 0.7049 0.08611 0.0
C862 C 0.62228 0.70503 0.10793 0.0
H863 H 0.58472 0.70296 0.21352 0.0
H864 H 0.57531 0.70432 0.17811 0.0
H865 H 0.68622 0.71398 0.1435 0.0
H866 H 0.67511 0.70252 0.04433 0.0
H867 H 0.68329 0.70353 0.07996 0.0
C868 C 0.4394 0.45434 0.80777 0.0
C869 C 0.40395 0.45343 0.79557 0.0
C870 C 0.43489 0.45482 0.82836 0.0
C871 C 0.35769 0.45971 0.86797 0.0
H872 H 0.42979 0.44424 0.90004 0.0
C873 C 0.32632 0.45276 0.95132 0.0
C874 C 0.36155 0.45224 0.96376 0.0
C875 C 0.33135 0.45337 0.93075 0.0
C876 C 0.40972 0.4487 0.89136 0.0
H877 H 0.33591 0.45258 0.79544 0.0
H878 H 0.32825 0.4534 0.83113 0.0
H879 H 0.44024 0.44485 0.8644 0.0
H880 H 0.4297 0.45228 0.96434 0.0
H881 H 0.43828 0.45352 0.92885 0.0
H882 H 0.32715 0.46358 0.89496 0.0
C883 C 0.35947 0.45378 0.82486 0.0
C884 C 0.41579 0.44905 0.87091 0.0
C885 C 0.36396 0.45324 0.80437 0.0
C886 C 0.40178 0.45254 0.95523 0.0
C887 C 0.40677 0.45321 0.9348 0.0
C888 C 0.35173 0.4594 0.88846 0.0
C889 C 0.39484 0.45449 0.83712 0.0
C890 C 0.38974 0.45453 0.85897 0.0
C891 C 0.37171 0.45352 0.92225 0.0
C892 C 0.37763 0.45387 0.90042 0.0
H893 H 0.47061 0.45452 0.80145 0.0
H894 H 0.46273 0.45544 0.83744 0.0
H895 H 0.33734 0.46407 0.85917 0.0
H896 H 0.29493 0.45254 0.95744 0.0
H897 H 0.30363 0.45354 0.9215 0.0
C898 C 0.39055 0.32206 0.80423 0.0
C899 C 0.35882 0.31683 0.79509 0.0
C900 C 0.39602 0.32181 0.82467 0.0
C901 C 0.37981 0.30791 0.86885 0.0
H902 H 0.38856 0.33133 0.89637 0.0
C903 C 0.43222 0.31201 0.95129 0.0
C904 C 0.40521 0.31751 0.96276 0.0
C905 C 0.42716 0.31154 0.93069 0.0
C906 C 0.38623 0.32474 0.88888 0.0
H907 H 0.30824 0.30714 0.80029 0.0
H908 H 0.31832 0.3066 0.83633 0.0
H909 H 0.37672 0.33113 0.8607 0.0
H910 H 0.35226 0.32692 0.96159 0.0
H911 H 0.3442 0.32623 0.92587 0.0
H912 H 0.38965 0.30154 0.89718 0.0
C913 C 0.33874 0.31091 0.82748 0.0
C914 C 0.37957 0.32463 0.86849 0.0
C915 C 0.3328 0.31127 0.80692 0.0
C916 C 0.37359 0.32261 0.95322 0.0
C917 C 0.369 0.32225 0.93274 0.0
C918 C 0.38711 0.30802 0.88929 0.0
C919 C 0.37026 0.31624 0.83651 0.0
C920 C 0.37618 0.31622 0.85826 0.0
C921 C 0.39556 0.31669 0.92126 0.0
C922 C 0.39012 0.31645 0.89949 0.0
H923 H 0.41115 0.32643 0.79559 0.0
H924 H 0.42076 0.32592 0.83122 0.0
H925 H 0.37764 0.30134 0.86126 0.0
H926 H 0.45671 0.30798 0.95824 0.0
H927 H 0.44819 0.30724 0.92212 0.0
C928 C 0.34323 0.98174 0.22448 0.0
C929 C 0.31711 0.97393 0.22536 0.0
C930 C 0.32768 0.99048 0.22937 0.0
C931 C 0.22977 1.00387 0.23813 0.0
H932 H 0.30084 0.01833 0.27289 0.0
C933 C 0.16707 0.03633 0.27766 0.0
C934 C 0.19311 0.04416 0.27719 0.0
C935 C 0.18266 0.02766 0.27223 0.0
C936 C 0.28072 0.01442 0.26306 0.0
H937 H 0.25347 0.9693 0.23087 0.0
H938 H 0.22642 0.9845 0.23934 0.0
H939 H 0.32659 1.00377 0.25953 0.0
H940 H 0.25658 0.0489 0.27167 0.0
H941 H 0.28368 0.03382 0.26226 0.0
H942 H 0.18387 0.01453 0.2417 0.0
C943 C 0.25892 0.9839 0.23485 0.0
C944 C 0.29555 1.00608 0.25532 0.0
C945 C 0.27447 0.97516 0.22999 0.0
C946 C 0.23565 0.04302 0.27226 0.0
C947 C 0.25124 0.03435 0.26686 0.0
C948 C 0.21494 0.01221 0.24588 0.0
C949 C 0.28562 0.99163 0.2352 0.0
C950 C 0.27028 1.00069 0.24275 0.0
C951 C 0.22466 0.0266 0.26625 0.0
C952 C 0.24018 0.01759 0.25848 0.0
H953 H 0.37623 0.98105 0.22096 0.0
H954 H 0.34891 0.99631 0.22907 0.0
H955 H 0.20962 0.99996 0.22833 0.0
H956 H 0.13415 0.03695 0.28139 0.0
H957 H 0.16152 0.02181 0.27233 0.0
C958 C 0.98862 0.29273 0.2322 0.0
C959 C 0.94625 0.29385 0.22691 0.0
C960 C 1.00418 0.28406 0.23756 0.0
C961 C 0.96707 0.26194 0.25817 0.0
H962 H 0.07966 0.25356 0.24615 0.0
C963 C 0.02651 0.22505 0.27588 0.0
C964 C 0.06892 0.2239 0.28104 0.0
C965 C 0.01104 0.23374 0.27056 0.0
C966 C 0.04834 0.25585 0.24991 0.0
H967 H 0.88774 0.28658 0.22187 0.0
H968 H 0.9151 0.27143 0.23086 0.0
H969 H 0.05441 0.26804 0.23218 0.0
H970 H 0.12763 0.23111 0.28591 0.0
H971 H 0.10043 0.24629 0.27701 0.0
H972 H 0.961 0.24976 0.27591 0.0
C973 C 0.93608 0.2773 0.23129 0.0
C974 C 0.03379 0.26415 0.2418 0.0
C975 C 0.92052 0.28598 0.2259 0.0
C976 C 0.09482 0.23174 0.28198 0.0
C977 C 0.07934 0.24043 0.27664 0.0
C978 C 0.98163 0.25365 0.26629 0.0
C979 C 0.97776 0.27628 0.23777 0.0
C980 C 0.99294 0.26729 0.24581 0.0
C981 C 0.0376 0.24149 0.27027 0.0
C982 C 0.02246 0.25049 0.26227 0.0
H983 H 0.00931 0.29864 0.23321 0.0
H984 H 0.03639 0.28355 0.24254 0.0
H985 H 0.93574 0.26424 0.26191 0.0
H986 H 1.00568 0.21916 0.27493 0.0
H987 H 0.97878 0.23428 0.26567 0.0
C988 C 0.23997 0.22533 0.98195 0.0
C989 C 0.19761 0.22413 0.97675 0.0
C990 C 0.2554 0.23408 0.9869 0.0
C991 C 0.21807 0.25638 0.00647 0.0
H992 H 0.33047 0.26471 0.99389 0.0
C993 C 0.27732 0.29341 0.02307 0.0
C994 C 0.31967 0.29458 0.02833 0.0
C995 C 0.26194 0.2847 0.0178 0.0
C996 C 0.29919 0.26243 0.99779 0.0
H997 H 0.13892 0.23129 0.97148 0.0
H998 H 0.16603 0.24655 0.97975 0.0
H999 H 0.3053 0.25008 0.98063 0.0
H1000 H 0.37843 0.2874 0.03327 0.0
H1001 H 0.3514 0.2722 0.02444 0.0
H1002 H 0.21198 0.26873 0.02366 0.0
C1003 C 0.18712 0.2407 0.98041 0.0
C1004 C 0.28469 0.25405 0.9901 0.0
C1005 C 0.1717 0.23196 0.97544 0.0
C1006 C 0.34566 0.28676 0.02927 0.0
C1007 C 0.33028 0.27805 0.02398 0.0
C1008 C 0.23257 0.26476 0.01417 0.0
C1009 C 0.22884 0.24183 0.98678 0.0
C1010 C 0.24393 0.25092 0.99433 0.0
C1011 C 0.28853 0.27695 0.01764 0.0
C1012 C 0.27335 0.2679 0.00996 0.0
H1013 H 0.26079 0.21946 0.98319 0.0
H1014 H 0.28763 0.23467 0.99179 0.0
H1015 H 0.1868 0.2541 0.01038 0.0
H1016 H 0.25644 0.29929 0.02211 0.0
H1017 H 0.22969 0.28415 0.01292 0.0
C1018 C 0.09526 0.0365 0.97885 0.0
C1019 C 0.0693 0.04435 0.97939 0.0
C1020 C 0.07962 0.02783 0.98421 0.0
C1021 C 0.99573 0.01742 0.01464 0.0
H1022 H 0.02954 0.99468 0.98905 0.0
C1023 C 0.91995 0.98191 0.03191 0.0
C1024 C 0.94542 0.97401 0.03087 0.0
C1025 C 0.93605 0.9906 0.02693 0.0
C1026 C 0.02027 1.00096 0.99657 0.0
H1027 H 1.00583 0.0491 0.98489 0.0
H1028 H 0.97844 0.03396 0.99387 0.0
H1029 H 0.05409 0.00941 0.97604 0.0
H1030 H 0.00858 0.96914 0.02507 0.0
H1031 H 0.03682 0.98429 0.01684 0.0
H1032 H 0.96192 1.00897 0.03518 0.0
C1033 C 0.01114 0.03454 0.98972 0.0
C1034 C 0.03424 0.00941 0.98904 0.0
C1035 C 0.02677 0.04321 0.98435 0.0
C1036 C 0.98801 0.97508 0.02596 0.0
C1037 C 1.00411 0.98376 0.02101 0.0
C1038 C 0.98178 1.00897 0.02219 0.0
C1039 C 0.03763 0.02678 0.99025 0.0
C1040 C 0.02209 0.01776 0.99795 0.0
C1041 C 0.97803 0.99159 0.02083 0.0
C1042 C 0.99387 1.00062 0.01326 0.0
H1043 H 0.12822 0.03712 0.97519 0.0
H1044 H 0.10098 0.02202 0.98451 0.0
H1045 H 0.98639 0.02371 0.02212 0.0
H1046 H 0.88696 0.98134 0.03553 0.0
H1047 H 0.91497 0.99646 0.02689 0.0
C1048 C 0.67133 0.03698 0.78226 0.0
C1049 C 0.69726 0.04483 0.78166 0.0
C1050 C 0.68694 0.02831 0.77685 0.0
C1051 C 0.77059 0.01804 0.74604 0.0
H1052 H 0.73488 0.99513 0.77035 0.0
C1053 C 0.84301 0.98238 0.72687 0.0
C1054 C 0.81653 0.97462 0.72721 0.0
C1055 C 0.82789 0.99108 0.73238 0.0
C1056 C 0.74471 1.00146 0.7632 0.0
H1057 H 0.76073 0.04958 0.77618 0.0
H1058 H 0.78812 0.03444 0.76719 0.0
H1059 H 0.71154 0.00979 0.78418 0.0
H1060 H 0.75264 0.97006 0.73237 0.0
H1061 H 0.72618 0.98524 0.74159 0.0
H1062 H 0.8038 0.0097 0.72507 0.0
C1063 C 0.75543 0.03502 0.77137 0.0
C1064 C 0.73143 0.00988 0.7712 0.0
C1065 C 0.73982 0.04369 0.77676 0.0
C1066 C 0.77398 0.97587 0.73199 0.0
C1067 C 0.75888 0.98457 0.7375 0.0
C1068 C 0.78391 0.00962 0.73805 0.0
C1069 C 0.72888 0.02727 0.77075 0.0
C1070 C 0.74416 0.01828 0.76272 0.0
C1071 C 0.78594 0.99222 0.73836 0.0
C1072 C 0.77106 1.00122 0.7465 0.0
H1073 H 0.63835 0.0376 0.78587 0.0
H1074 H 0.6655 0.02252 0.77649 0.0
H1075 H 0.78037 0.02437 0.73886 0.0
H1076 H 0.876 0.98166 0.72336 0.0
H1077 H 0.84967 0.99681 0.73291 0.0
C1078 C 0.09342 0.73218 0.78072 0.0
C1079 C 0.06709 0.7244 0.78034 0.0
C1080 C 0.07812 0.74087 0.77524 0.0
C1081 C 0.99478 0.75119 0.74441 0.0
H1082 H 0.02971 0.77411 0.76888 0.0
C1083 C 0.92034 0.78661 0.72553 0.0
C1084 C 0.94601 0.7945 0.72619 0.0
C1085 C 0.93622 0.77796 0.73088 0.0
C1086 C 0.02014 0.76778 0.76167 0.0
H1087 H 1.0033 0.71978 0.77517 0.0
H1088 H 0.97653 0.73494 0.766 0.0
H1089 H 0.05353 0.75946 0.78262 0.0
H1090 H 0.00931 0.79934 0.73172 0.0
H1091 H 0.03719 0.78423 0.74061 0.0
H1092 H 0.96144 0.75949 0.72345 0.0
C1093 C 0.00925 0.7343 0.77008 0.0
C1094 C 0.03367 0.75937 0.76963 0.0
C1095 C 0.02452 0.72561 0.77557 0.0
C1096 C 0.9886 0.79342 0.73109 0.0
C1097 C 1.00448 0.78477 0.73643 0.0
C1098 C 0.98129 0.75959 0.73645 0.0
C1099 C 0.03614 0.74198 0.76925 0.0
C1100 C 0.02108 0.75096 0.76114 0.0
C1101 C 0.97819 0.77698 0.73699 0.0
C1102 C 0.99374 0.768 0.74497 0.0
H1103 H 0.12642 0.73149 0.78423 0.0
H1104 H 0.09977 0.74663 0.77473 0.0
H1105 H 0.98515 0.74485 0.73723 0.0
H1106 H 0.88734 0.78719 0.72192 0.0
H1107 H 0.91497 0.77213 0.73121 0.0
C1108 C 0.73629 0.72495 0.98136 0.0
C1109 C 0.69377 0.72402 0.97618 0.0
C1110 C 0.75269 0.73357 0.98661 0.0
C1111 C 0.73156 0.75884 0.98593 0.0
H1112 H 0.80203 0.75888 0.03271 0.0
C1113 C 0.7763 0.79283 0.02462 0.0
C1114 C 0.81876 0.79388 0.02977 0.0
C1115 C 0.76046 0.78418 0.01921 0.0
C1116 C 0.78269 0.759 0.01954 0.0
H1117 H 0.63585 0.73153 0.97132 0.0
H1118 H 0.6644 0.74653 0.98045 0.0
H1119 H 0.77754 0.74427 0.01907 0.0
H1120 H 0.87723 0.78654 0.03441 0.0
H1121 H 0.8496 0.77148 0.02503 0.0
H1122 H 0.73663 0.77356 0.98644 0.0
C1123 C 0.68518 0.74062 0.98041 0.0
C1124 C 0.76877 0.75061 0.01165 0.0
C1125 C 0.66877 0.732 0.97515 0.0
C1126 C 0.84433 0.78598 0.03061 0.0
C1127 C 0.82846 0.77733 0.02519 0.0
C1128 C 0.74545 0.76722 0.99384 0.0
C1129 C 0.72701 0.74147 0.98681 0.0
C1130 C 0.743 0.75041 0.99473 0.0
C1131 C 0.78666 0.77638 0.01882 0.0
C1132 C 0.77113 0.76742 0.01077 0.0
H1133 H 0.7565 0.71896 0.98228 0.0
H1134 H 0.78529 0.734 0.99102 0.0
H1135 H 0.71221 0.75895 0.97277 0.0
H1136 H 0.75565 0.79875 0.02387 0.0
H1137 H 0.72786 0.78367 0.01483 0.0
C1138 C 0.16808 0.5368 0.77913 0.0
C1139 C 0.19411 0.54464 0.77856 0.0
C1140 C 0.18361 0.52812 0.77372 0.0
C1141 C 0.2671 0.51773 0.74307 0.0
H1142 H 0.23335 0.49496 0.76856 0.0
C1143 C 0.343 0.48227 0.72567 0.0
C1144 C 0.31766 0.47434 0.72672 0.0
C1145 C 0.32676 0.49095 0.73063 0.0
C1146 C 0.24259 0.50124 0.76106 0.0
H1147 H 0.25759 0.54936 0.77299 0.0
H1148 H 0.28478 0.53422 0.76393 0.0
H1149 H 0.209 0.50967 0.78171 0.0
H1150 H 0.25458 0.46943 0.73252 0.0
H1151 H 0.2261 0.48457 0.74074 0.0
H1152 H 0.3007 0.5093 0.72242 0.0
C1153 C 0.25211 0.53481 0.76813 0.0
C1154 C 0.22874 0.50969 0.76868 0.0
C1155 C 0.23661 0.54349 0.77355 0.0
C1156 C 0.27504 0.47538 0.73161 0.0
C1157 C 0.25881 0.48406 0.73655 0.0
C1158 C 0.28092 0.50928 0.73544 0.0
C1159 C 0.22553 0.52707 0.76761 0.0
C1160 C 0.2409 0.51805 0.75981 0.0
C1161 C 0.28478 0.49191 0.73673 0.0
C1162 C 0.26888 0.50092 0.74434 0.0
H1163 H 0.13515 0.53744 0.78283 0.0
H1164 H 0.16218 0.52233 0.77343 0.0
H1165 H 0.27642 0.52402 0.73561 0.0
H1166 H 0.376 0.48173 0.72206 0.0
H1167 H 0.34777 0.49682 0.73067 0.0
C1168 C 0.27668 0.79373 0.52476 0.0
C1169 C 0.3192 0.79474 0.52987 0.0
C1170 C 0.26065 0.78511 0.5193 0.0
C1171 C 0.29643 0.76293 0.49834 0.0
H1172 H 0.1841 0.75465 0.51118 0.0
C1173 C 0.23669 0.72598 0.48182 0.0
C1174 C 0.19419 0.72477 0.47687 0.0
C1175 C 0.25216 0.7347 0.48688 0.0
C1176 C 0.21533 0.75692 0.50719 0.0
H1177 H 0.37754 0.78734 0.53443 0.0
H1178 H 0.34939 0.77228 0.52528 0.0
H1179 H 0.20993 0.76916 0.52479 0.0
H1180 H 0.13525 0.73193 0.4722 0.0
H1181 H 0.16245 0.74716 0.48067 0.0
H1182 H 0.30188 0.75069 0.48076 0.0
C1183 C 0.32864 0.7782 0.52507 0.0
C1184 C 0.23021 0.76523 0.51508 0.0
C1185 C 0.34466 0.78682 0.53054 0.0
C1186 C 0.16814 0.7326 0.47595 0.0
C1187 C 0.18362 0.74132 0.48104 0.0
C1188 C 0.28156 0.75462 0.49044 0.0
C1189 C 0.28675 0.77728 0.51881 0.0
C1190 C 0.27101 0.76833 0.51081 0.0
C1191 C 0.22553 0.74244 0.48713 0.0
C1192 C 0.24083 0.75149 0.49479 0.0
H1193 H 0.25619 0.79969 0.52401 0.0
H1194 H 0.22829 0.78467 0.51451 0.0
H1195 H 0.3277 0.76519 0.49438 0.0
H1196 H 0.25763 0.72011 0.48275 0.0
H1197 H 0.28453 0.73527 0.49158 0.0
C1198 C 0.91802 0.48201 0.53095 0.0
C1199 C 0.94425 0.47422 0.52995 0.0
C1200 C 0.93329 0.49076 0.52598 0.0
C1201 C 0.03094 0.50422 0.51704 0.0
H1202 H 0.95867 0.51905 0.48358 0.0
C1203 C 0.0923 0.5371 0.47871 0.0
C1204 C 0.06639 0.54494 0.47985 0.0
C1205 C 0.07684 0.52837 0.48378 0.0
C1206 C 0.97913 0.51504 0.49304 0.0
H1207 H 0.00774 0.46963 0.52391 0.0
H1208 H 0.03428 0.48486 0.51525 0.0
H1209 H 0.93342 0.50433 0.49637 0.0
H1210 H 1.00322 0.54964 0.4862 0.0
H1211 H 0.97629 0.53445 0.49498 0.0
H1212 H 0.07668 0.51492 0.51368 0.0
C1213 C 1.00193 0.48423 0.51995 0.0
C1214 C 0.96459 0.5066 0.50046 0.0
C1215 C 0.98667 0.47548 0.52492 0.0
C1216 C 0.02404 0.54376 0.48509 0.0
C1217 C 0.00856 0.53503 0.49013 0.0
C1218 C 0.04549 0.51265 0.50961 0.0
C1219 C 0.97516 0.49195 0.51989 0.0
C1220 C 0.9903 0.50108 0.51256 0.0
C1221 C 0.03507 0.52726 0.49007 0.0
C1222 C 0.01981 0.51816 0.49749 0.0
H1223 H 0.88519 0.4813 0.53478 0.0
H1224 H 0.912 0.49658 0.5265 0.0
H1225 H 0.05142 0.50021 0.5265 0.0
H1226 H 0.12507 0.53775 0.47472 0.0
H1227 H 0.0979 0.52251 0.48317 0.0
C1228 C 0.66832 0.53574 0.28256 0.0
C1229 C 0.69383 0.54365 0.28166 0.0
C1230 C 0.68453 0.52706 0.27766 0.0
C1231 C 0.76911 0.51675 0.24757 0.0
H1232 H 0.73568 0.49398 0.27314 0.0
C1233 C 0.84553 0.48136 0.23012 0.0
C1234 C 0.82 0.47345 0.23077 0.0
C1235 C 0.82942 0.49001 0.23537 0.0
C1236 C 0.74488 0.50026 0.26564 0.0
H1237 H 0.75715 0.54851 0.27623 0.0
H1238 H 0.78553 0.53336 0.26811 0.0
H1239 H 0.71067 0.50869 0.2861 0.0
H1240 H 0.7568 0.46855 0.23632 0.0
H1241 H 0.72857 0.48364 0.24509 0.0
H1242 H 0.80326 0.50834 0.2271 0.0
C1243 C 0.75273 0.5339 0.27212 0.0
C1244 C 0.73064 0.50871 0.27314 0.0
C1245 C 0.73654 0.54258 0.277 0.0
C1246 C 0.77741 0.47448 0.23571 0.0
C1247 C 0.76131 0.48313 0.24096 0.0
C1248 C 0.78333 0.50831 0.24007 0.0
C1249 C 0.72663 0.52607 0.27177 0.0
C1250 C 0.74262 0.51707 0.26422 0.0
C1251 C 0.78738 0.49095 0.24139 0.0
C1252 C 0.77139 0.49995 0.249 0.0
H1253 H 0.63523 0.53632 0.28599 0.0
H1254 H 0.66345 0.5212 0.2775 0.0
H1255 H 0.77829 0.52304 0.24006 0.0
H1256 H 0.87853 0.48082 0.22648 0.0
H1257 H 0.85049 0.49587 0.23561 0.0
C1258 C 0.77375 0.29331 0.52487 0.0
C1259 C 0.81611 0.29445 0.53014 0.0
C1260 C 0.7582 0.28462 0.51964 0.0
C1261 C 0.79515 0.26236 0.49954 0.0
H1262 H 0.6824 0.25414 0.51174 0.0
C1263 C 0.73487 0.22542 0.48287 0.0
C1264 C 0.69248 0.2243 0.47762 0.0
C1265 C 0.75057 0.23412 0.48797 0.0
C1266 C 0.71378 0.25639 0.50794 0.0
H1267 H 0.87468 0.2872 0.53522 0.0
H1268 H 0.84734 0.27202 0.52646 0.0
H1269 H 0.70788 0.26867 0.52535 0.0
H1270 H 0.63408 0.23158 0.47238 0.0
H1271 H 0.66167 0.24677 0.48092 0.0
H1272 H 0.80105 0.25007 0.48215 0.0
C1273 C 0.82635 0.27789 0.52595 0.0
C1274 C 0.72845 0.26472 0.51583 0.0
C1275 C 0.8419 0.28659 0.53121 0.0
C1276 C 0.66686 0.23218 0.47638 0.0
C1277 C 0.68255 0.24088 0.48151 0.0
C1278 C 0.78048 0.25403 0.49165 0.0
C1279 C 0.78463 0.27684 0.51954 0.0
C1280 C 0.76935 0.26781 0.51174 0.0
C1281 C 0.72426 0.24192 0.48796 0.0
C1282 C 0.73958 0.25094 0.49573 0.0
H1283 H 0.75301 0.29921 0.52382 0.0
H1284 H 0.72598 0.28409 0.5147 0.0
H1285 H 0.82653 0.26461 0.49574 0.0
H1286 H 0.75548 0.21951 0.48405 0.0
H1287 H 0.78279 0.23464 0.49292 0.0
C1288 C 0.48394 0.29386 0.73357 0.0
C1289 C 0.44138 0.29486 0.72853 0.0
C1290 C 0.50004 0.28525 0.73908 0.0
C1291 C 0.46452 0.26311 0.76035 0.0
H1292 H 0.57673 0.25481 0.74733 0.0
C1293 C 0.52459 0.22622 0.77725 0.0
C1294 C 0.56717 0.22503 0.78206 0.0
C1295 C 0.50902 0.23492 0.77211 0.0
C1296 C 0.54553 0.25709 0.75137 0.0
H1297 H 0.38301 0.28744 0.72417 0.0
H1298 H 0.41126 0.27241 0.73341 0.0
H1299 H 0.55071 0.26929 0.73362 0.0
H1300 H 0.62616 0.2322 0.78642 0.0
H1301 H 0.5988 0.24741 0.77783 0.0
H1302 H 0.4593 0.25092 0.77809 0.0
C1303 C 0.43201 0.27833 0.73352 0.0
C1304 C 0.53055 0.26538 0.74342 0.0
C1305 C 0.41592 0.28694 0.72799 0.0
C1306 C 0.59321 0.23286 0.78278 0.0
C1307 C 0.57763 0.24157 0.77761 0.0
C1308 C 0.4795 0.25483 0.76831 0.0
C1309 C 0.47395 0.27742 0.7397 0.0
C1310 C 0.48978 0.26849 0.74775 0.0
C1311 C 0.53563 0.24266 0.77165 0.0
C1312 C 0.52019 0.25169 0.7639 0.0
H1313 H 0.50443 0.29982 0.73423 0.0
H1314 H 0.53244 0.28483 0.74381 0.0
H1315 H 0.43328 0.26538 0.76436 0.0
H1316 H 0.50365 0.22034 0.77648 0.0
H1317 H 0.47658 0.23548 0.76752 0.0
C1318 C 0.52509 0.04315 0.48355 0.0
C1319 C 0.5675 0.04415 0.47824 0.0
C1320 C 0.50898 0.03451 0.48881 0.0
C1321 C 0.53038 0.00928 0.48775 0.0
H1322 H 0.46034 1.00908 0.53468 0.0
C1323 C 0.48443 0.97513 0.52558 0.0
C1324 C 0.44196 0.97415 0.5308 0.0
C1325 C 0.5007 0.98376 0.52039 0.0
C1326 C 0.47956 1.00901 0.52147 0.0
H1327 H 0.62556 0.03672 0.47315 0.0
H1328 H 0.5975 0.02166 0.48228 0.0
H1329 H 0.48494 0.02373 0.52128 0.0
H1330 H 0.38395 0.98161 0.53579 0.0
H1331 H 0.41228 0.99666 0.52678 0.0
H1332 H 0.52499 0.99456 0.48794 0.0
C1333 C 0.57658 0.02755 0.48235 0.0
C1334 C 0.49356 0.01742 0.51372 0.0
C1335 C 0.59271 0.0362 0.47709 0.0
C1336 C 0.41685 0.98211 0.53192 0.0
C1337 C 0.43312 0.99075 0.52673 0.0
C1338 C 0.51639 1.00087 0.49551 0.0
C1339 C 0.53486 0.02665 0.48887 0.0
C1340 C 0.5191 0.01767 0.49674 0.0
C1341 C 0.47491 0.99164 0.5203 0.0
C1342 C 0.49081 1.00061 0.51248 0.0
H1343 H 0.50472 0.04912 0.48455 0.0
H1344 H 0.47645 0.03403 0.4933 0.0
H1345 H 0.54958 1.00921 0.47454 0.0
H1346 H 0.50473 0.96915 0.52459 0.0
H1347 H 0.53327 0.98422 0.51594 0.0
C1348 C 0.59311 0.7317 0.28294 0.0
C1349 C 0.56767 0.72379 0.28172 0.0
C1350 C 0.57705 0.7404 0.27804 0.0
C1351 C 0.49369 0.75078 0.24735 0.0
H1352 H 0.52642 0.77349 0.27339 0.0
C1353 C 0.4187 0.78628 0.22944 0.0
C1354 C 0.44434 0.79417 0.23041 0.0
C1355 C 0.43443 0.77761 0.23476 0.0
C1356 C 0.51744 0.76722 0.26576 0.0
H1357 H 0.50459 0.71893 0.2757 0.0
H1358 H 0.47644 0.73411 0.26756 0.0
H1359 H 0.55063 0.75874 0.28647 0.0
H1360 H 0.50738 0.799 0.23659 0.0
H1361 H 0.53496 0.78387 0.24548 0.0
H1362 H 0.46056 0.75926 0.22662 0.0
C1363 C 0.50908 0.73356 0.27185 0.0
C1364 C 0.5312 0.75876 0.27333 0.0
C1365 C 0.52513 0.72487 0.27674 0.0
C1366 C 0.4867 0.79309 0.23573 0.0
C1367 C 0.50242 0.78442 0.24105 0.0
C1368 C 0.47994 0.75925 0.23978 0.0
C1369 C 0.53517 0.74139 0.27182 0.0
C1370 C 0.51949 0.75042 0.26423 0.0
C1371 C 0.47618 0.77661 0.24117 0.0
C1372 C 0.49166 0.76758 0.24887 0.0
H1373 H 0.62606 0.73112 0.28664 0.0
H1374 H 0.5981 0.74626 0.27814 0.0
H1375 H 0.48474 0.74452 0.2397 0.0
H1376 H 0.38588 0.78686 0.2255 0.0
H1377 H 0.41325 0.77177 0.23476 0.0
C1378 C 0.48763 0.47564 0.02608 0.0
C1379 C 0.44511 0.47449 0.03104 0.0
C1380 C 0.50306 0.48429 0.02047 0.0
C1381 C 0.47945 0.50941 0.01991 0.0
H1382 H 0.55094 0.50932 0.97347 0.0
C1383 C 0.52584 0.54334 0.9812 0.0
C1384 C 0.56845 0.54429 0.97623 0.0
C1385 C 0.50948 0.53473 0.98654 0.0
C1386 C 0.5313 0.50948 0.98653 0.0
H1387 H 0.38608 0.48169 0.03514 0.0
H1388 H 0.41302 0.49677 0.02542 0.0
H1389 H 0.52684 0.49475 0.98743 0.0
H1390 H 0.62661 0.53681 0.97178 0.0
H1391 H 0.59817 0.52183 0.98106 0.0
H1392 H 0.48403 0.52414 0.01906 0.0
C1393 C 0.4345 0.49098 0.02588 0.0
C1394 C 0.51758 0.50111 0.9946 0.0
C1395 C 0.41904 0.48232 0.03149 0.0
C1396 C 0.59362 0.53633 0.97545 0.0
C1397 C 0.57726 0.52772 0.9808 0.0
C1398 C 0.49321 0.51778 0.01185 0.0
C1399 C 0.47639 0.49202 0.01969 0.0
C1400 C 0.49158 0.50096 0.01143 0.0
C1401 C 0.53531 0.52686 0.98702 0.0
C1402 C 0.51936 0.51793 0.99506 0.0
H1403 H 0.50866 0.46978 0.02563 0.0
H1404 H 0.53572 0.48488 0.01624 0.0
H1405 H 0.45982 0.50956 0.03298 0.0
H1406 H 0.5055 0.54932 0.98192 0.0
H1407 H 0.47679 0.53428 0.9908 0.0
C1408 C 0.18436 0.16773 0.29869 0.0
C1409 C 0.14797 0.17307 0.29612 0.0
C1410 C 0.1816 0.15827 0.30239 0.0
C1411 C 0.10746 0.13926 0.3156 0.0
H1412 H 0.18723 0.12435 0.28636 0.0
C1413 C 0.08207 0.10072 0.29656 0.0
C1414 C 0.11702 0.09479 0.29659 0.0
C1415 C 0.08684 0.11016 0.30027 0.0
C1416 C 0.16514 0.12839 0.29491 0.0
H1417 H 0.08001 0.17271 0.29623 0.0
H1418 H 0.07508 0.15613 0.30218 0.0
H1419 H 0.19338 0.14105 0.28578 0.0
H1420 H 0.18418 0.09409 0.30149 0.0
H1421 H 0.19249 0.11059 0.30792 0.0
H1422 H 0.07838 0.1265 0.32406 0.0
C1423 C 0.10586 0.15928 0.30169 0.0
C1424 C 0.16867 0.138 0.29461 0.0
C1425 C 0.10865 0.1688 0.29821 0.0
C1426 C 0.15661 0.09846 0.30131 0.0
C1427 C 0.16142 0.10792 0.30487 0.0
C1428 C 0.10376 0.12962 0.31578 0.0
C1429 C 0.14236 0.15385 0.30336 0.0
C1430 C 0.13971 0.14358 0.30481 0.0
C1431 C 0.12671 0.11391 0.30396 0.0
C1432 C 0.13237 0.12409 0.30528 0.0
H1433 H 0.21517 0.17083 0.29742 0.0
H1434 H 0.21037 0.15438 0.30411 0.0
H1435 H 0.08495 0.14331 0.32387 0.0
H1436 H 0.05108 0.09813 0.29306 0.0
H1437 H 0.05951 0.11458 0.29931 0.0
C1438 C 0.08211 0.16806 0.95856 0.0
C1439 C 0.11857 0.17333 0.96152 0.0
C1440 C 0.08468 0.1586 0.95481 0.0
C1441 C 0.15856 0.13948 0.94207 0.0
H1442 H 0.07717 0.12466 0.97052 0.0
C1443 C 0.18187 0.10085 0.96074 0.0
C1444 C 0.14669 0.09498 0.9605 0.0
C1445 C 0.17754 0.1103 0.95712 0.0
C1446 C 0.09972 0.12868 0.96219 0.0
H1447 H 0.1865 0.17285 0.96207 0.0
H1448 H 0.19108 0.15627 0.95601 0.0
H1449 H 0.07166 0.14137 0.97122 0.0
H1450 H 0.07962 0.09442 0.95529 0.0
H1451 H 0.07207 0.11094 0.94898 0.0
H1452 H 0.1874 0.12669 0.93368 0.0
C1453 C 0.16041 0.15947 0.95624 0.0
C1454 C 0.09657 0.1383 0.96256 0.0
C1455 C 0.15782 0.16899 0.95979 0.0
C1456 C 0.10735 0.09873 0.95564 0.0
C1457 C 0.10297 0.10821 0.95215 0.0
C1458 C 0.16186 0.12984 0.94181 0.0
C1459 C 0.12379 0.15411 0.95417 0.0
C1460 C 0.12611 0.14384 0.95265 0.0
C1461 C 0.13789 0.11413 0.95328 0.0
C1462 C 0.13267 0.12433 0.95202 0.0
H1463 H 0.05136 0.17121 0.95955 0.0
H1464 H 0.05585 0.15476 0.95278 0.0
H1465 H 0.18152 0.14351 0.93403 0.0
H1466 H 0.21269 0.09819 0.96435 0.0
H1467 H 0.20502 0.11466 0.95825 0.0
C1468 C 0.92587 0.91756 0.71091 0.0
C1469 C 0.8908 0.92346 0.71126 0.0
C1470 C 0.92118 0.90814 0.70713 0.0
C1471 C 0.8437 0.88974 0.71277 0.0
H1472 H 0.92381 0.87512 0.68309 0.0
C1473 C 0.82688 0.85035 0.70876 0.0
C1474 C 0.86371 0.84512 0.71111 0.0
C1475 C 0.8289 0.85982 0.7051 0.0
C1476 C 0.90132 0.87909 0.69155 0.0
H1477 H 0.82345 0.9241 0.70702 0.0
H1478 H 0.81524 0.9076 0.70045 0.0
H1479 H 0.92941 0.89194 0.68303 0.0
H1480 H 0.93162 0.84571 0.71064 0.0
H1481 H 0.93525 0.86231 0.70474 0.0
H1482 H 0.81646 0.87699 0.72195 0.0
C1483 C 0.84636 0.9103 0.70326 0.0
C1484 C 0.90446 0.88873 0.69145 0.0
C1485 C 0.8511 0.91976 0.70689 0.0
C1486 C 0.90267 0.84953 0.70884 0.0
C1487 C 0.90471 0.85906 0.70538 0.0
C1488 C 0.84072 0.88012 0.71298 0.0
C1489 C 0.88126 0.90435 0.70373 0.0
C1490 C 0.87592 0.89417 0.70224 0.0
C1491 C 0.8678 0.86437 0.70394 0.0
C1492 C 0.86971 0.87465 0.70253 0.0
H1493 H 0.95696 0.92018 0.71413 0.0
H1494 H 0.94866 0.90375 0.70777 0.0
H1495 H 0.82167 0.8937 0.72153 0.0
H1496 H 0.79632 0.84714 0.71018 0.0
H1497 H 0.79982 0.86362 0.70356 0.0
C1498 C 0.90907 0.91929 0.04892 0.0
C1499 C 0.86909 0.92297 0.04507 0.0
C1500 C 0.91419 0.90981 0.05226 0.0
C1501 C 0.85703 0.88815 0.06426 0.0
H1502 H 0.94479 0.87658 0.0333 0.0
C1503 C 0.86056 0.84892 0.04713 0.0
C1504 C 0.89976 0.8446 0.04488 0.0
C1505 C 0.85801 0.85845 0.05042 0.0
C1506 C 0.9206 0.87967 0.04238 0.0
H1507 H 0.8029 0.91963 0.04277 0.0
H1508 H 0.81187 0.90318 0.0486 0.0
H1509 H 0.93883 0.89329 0.03372 0.0
H1510 H 0.96703 0.84682 0.04563 0.0
H1511 H 0.96264 0.86331 0.05192 0.0
H1512 H 0.83849 0.87449 0.07273 0.0
C1513 C 0.83928 0.90759 0.04907 0.0
C1514 C 0.91719 0.88929 0.04259 0.0
C1515 C 0.83419 0.91703 0.0456 0.0
C1516 C 0.9363 0.84994 0.04705 0.0
C1517 C 0.93377 0.85942 0.05052 0.0
C1518 C 0.86058 0.87851 0.06414 0.0
C1519 C 0.87942 0.90383 0.05199 0.0
C1520 C 0.88507 0.89364 0.05333 0.0
C1521 C 0.89462 0.86386 0.0517 0.0
C1522 C 0.89215 0.87414 0.05301 0.0
H1523 H 0.93661 0.92366 0.04865 0.0
H1524 H 0.94549 0.90714 0.05471 0.0
H1525 H 0.83218 0.8913 0.07285 0.0
H1526 H 0.83181 0.84501 0.04547 0.0
H1527 H 0.8273 0.86162 0.05109 0.0
C1528 C 0.07608 0.60023 0.79961 0.0
C1529 C 0.113 0.59501 0.79752 0.0
C1530 C 0.07795 0.6097 0.8033 0.0
C1531 C 0.15008 0.62899 0.81719 0.0
H1532 H 0.07151 0.64357 0.7865 0.0
C1533 C 0.17595 0.66736 0.79721 0.0
C1534 C 0.14103 0.67329 0.79662 0.0
C1535 C 0.17096 0.65795 0.80113 0.0
C1536 C 0.09323 0.63962 0.79546 0.0
H1537 H 0.18089 0.59561 0.79853 0.0
H1538 H 0.18428 0.6122 0.80448 0.0
H1539 H 0.06602 0.62685 0.78632 0.0
H1540 H 0.07361 0.67402 0.80057 0.0
H1541 H 0.06489 0.65755 0.80737 0.0
H1542 H 0.17819 0.64185 0.82565 0.0
C1543 C 0.15376 0.60895 0.80361 0.0
C1544 C 0.09007 0.63 0.79539 0.0
C1545 C 0.15186 0.59942 0.80013 0.0
C1546 C 0.10116 0.66965 0.80088 0.0
C1547 C 0.09613 0.6602 0.80465 0.0
C1548 C 0.1534 0.63863 0.81714 0.0
C1549 C 0.11681 0.61426 0.80476 0.0
C1550 C 0.1187 0.62453 0.80609 0.0
C1551 C 0.13089 0.65422 0.80443 0.0
C1552 C 0.12527 0.64405 0.80609 0.0
H1553 H 0.0456 0.59702 0.79792 0.0
H1554 H 0.04882 0.6135 0.8046 0.0
H1555 H 0.17228 0.62503 0.82585 0.0
H1556 H 0.20715 0.66993 0.79407 0.0
H1557 H 0.19835 0.65353 0.80068 0.0
C1558 C 0.08478 0.66774 0.46088 0.0
C1559 C 0.11975 0.67366 0.46157 0.0
C1560 C 0.08976 0.65832 0.45716 0.0
C1561 C 0.16729 0.63994 0.46338 0.0
H1562 H 0.08844 0.62533 0.43293 0.0
C1563 C 0.18457 0.60055 0.45917 0.0
C1564 C 0.14768 0.59532 0.46128 0.0
C1565 C 0.18265 0.61003 0.45553 0.0
C1566 C 0.11057 0.6293 0.4416 0.0
H1567 H 0.18729 0.67433 0.45804 0.0
H1568 H 0.19598 0.65784 0.45157 0.0
H1569 H 0.08263 0.64215 0.43297 0.0
H1570 H 0.07978 0.59592 0.46038 0.0
H1571 H 0.07631 0.61251 0.45448 0.0
H1572 H 0.19438 0.62718 0.47262 0.0
C1573 C 0.16471 0.66051 0.45406 0.0
C1574 C 0.10732 0.63894 0.44157 0.0
C1575 C 0.1597 0.66998 0.45764 0.0
C1576 C 0.10879 0.59973 0.45876 0.0
C1577 C 0.10684 0.60926 0.45531 0.0
C1578 C 0.1704 0.63032 0.46351 0.0
C1579 C 0.12986 0.65455 0.45416 0.0
C1580 C 0.13538 0.64437 0.45264 0.0
C1581 C 0.14377 0.61457 0.45413 0.0
C1582 C 0.14185 0.62485 0.45278 0.0
H1583 H 0.05352 0.67034 0.46376 0.0
H1584 H 0.0623 0.65392 0.45752 0.0
H1585 H 0.18895 0.6439 0.47235 0.0
H1586 H 0.21508 0.59734 0.46079 0.0
H1587 H 0.21175 0.61383 0.45421 0.0
C1588 C 0.83136 0.35002 0.20842 0.0
C1589 C 0.86759 0.34466 0.21135 0.0
C1590 C 0.83436 0.35949 0.20484 0.0
C1591 C 0.90913 0.37853 0.19271 0.0
H1592 H 0.82806 0.39333 0.22137 0.0
C1593 C 0.93353 0.41704 0.2123 0.0
C1594 C 0.89854 0.42295 0.21203 0.0
C1595 C 0.92897 0.4076 0.20851 0.0
C1596 C 0.85053 0.38932 0.21298 0.0
H1597 H 0.93553 0.345 0.21199 0.0
H1598 H 0.94085 0.36159 0.20624 0.0
H1599 H 0.8219 0.37664 0.22164 0.0
H1600 H 0.83155 0.42363 0.20662 0.0
H1601 H 0.8236 0.40714 0.20002 0.0
H1602 H 0.93856 0.39131 0.18472 0.0
C1603 C 0.91003 0.35845 0.20636 0.0
C1604 C 0.847 0.37971 0.2131 0.0
C1605 C 0.90703 0.34893 0.20972 0.0
C1606 C 0.85915 0.41927 0.207 0.0
C1607 C 0.85454 0.40982 0.20335 0.0
C1608 C 0.91282 0.38816 0.19271 0.0
C1609 C 0.87366 0.36389 0.20436 0.0
C1610 C 0.87641 0.37416 0.2031 0.0
C1611 C 0.88926 0.40384 0.20448 0.0
C1612 C 0.88374 0.39366 0.20299 0.0
H1613 H 0.80049 0.34692 0.20933 0.0
H1614 H 0.8057 0.36339 0.20285 0.0
H1615 H 0.93202 0.3745 0.18461 0.0
H1616 H 0.96438 0.41963 0.21605 0.0
H1617 H 0.9563 0.40319 0.20965 0.0
C1618 C 0.9267 0.35131 0.54708 0.0
C1619 C 0.8917 0.3454 0.54637 0.0
C1620 C 0.92178 0.36072 0.55101 0.0
C1621 C 0.84425 0.37911 0.5453 0.0
H1622 H 0.92325 0.3936 0.57594 0.0
C1623 C 0.82713 0.41849 0.54999 0.0
C1624 C 0.86404 0.42371 0.54795 0.0
C1625 C 0.82901 0.409 0.55356 0.0
C1626 C 0.90107 0.38967 0.56721 0.0
H1627 H 0.82422 0.34472 0.5501 0.0
H1628 H 0.81563 0.36118 0.55692 0.0
H1629 H 0.92906 0.37679 0.57557 0.0
H1630 H 0.93193 0.42311 0.54892 0.0
H1631 H 0.93533 0.4065 0.55468 0.0
H1632 H 0.81714 0.39191 0.5363 0.0
C1633 C 0.84687 0.35851 0.55428 0.0
C1634 C 0.90433 0.38003 0.56706 0.0
C1635 C 0.85182 0.34907 0.5505 0.0
C1636 C 0.90291 0.41929 0.55049 0.0
C1637 C 0.90481 0.40976 0.55386 0.0
C1638 C 0.84115 0.38873 0.54535 0.0
C1639 C 0.88172 0.36447 0.5542 0.0
C1640 C 0.87621 0.37465 0.55593 0.0
C1641 C 0.86786 0.40445 0.55495 0.0
C1642 C 0.86975 0.39416 0.55614 0.0
H1643 H 0.95791 0.34872 0.54405 0.0
H1644 H 0.94923 0.36512 0.55066 0.0
H1645 H 0.82255 0.37519 0.53628 0.0
H1646 H 0.79663 0.4217 0.54835 0.0
H1647 H 0.79988 0.4052 0.55483 0.0
C1648 C 0.65497 0.09995 0.79917 0.0
C1649 C 0.61598 0.09556 0.79685 0.0
C1650 C 0.65708 0.10949 0.80258 0.0
C1651 C 0.59331 0.13057 0.7948 0.0
H1652 H 0.68169 0.14238 0.82497 0.0
C1653 C 0.60324 0.1702 0.80123 0.0
C1654 C 0.64295 0.17395 0.79705 0.0
C1655 C 0.5986 0.16073 0.80471 0.0
C1656 C 0.65684 0.13917 0.81647 0.0
H1657 H 0.54861 0.09762 0.79766 0.0
H1658 H 0.55222 0.1141 0.8042 0.0
H1659 H 0.67613 0.12556 0.82485 0.0
H1660 H 0.7092 0.17073 0.79435 0.0
H1661 H 0.70106 0.15427 0.80044 0.0
H1662 H 0.57431 0.14416 0.78625 0.0
C1663 C 0.58128 0.11029 0.80272 0.0
C1664 C 0.65372 0.12953 0.81634 0.0
C1665 C 0.57919 0.10081 0.79911 0.0
C1666 C 0.6781 0.16808 0.79743 0.0
C1667 C 0.6735 0.15864 0.80105 0.0
C1668 C 0.59628 0.14019 0.79504 0.0
C1669 C 0.62021 0.11482 0.80393 0.0
C1670 C 0.62219 0.12509 0.80531 0.0
C1671 C 0.6336 0.15481 0.80427 0.0
C1672 C 0.62837 0.14462 0.80566 0.0
H1673 H 0.68389 0.09612 0.79743 0.0
H1674 H 0.68765 0.11272 0.80326 0.0
H1675 H 0.56913 0.12744 0.78579 0.0
H1676 H 0.57552 0.17452 0.80108 0.0
H1677 H 0.56748 0.158 0.80738 0.0
C1678 C 0.58122 0.16724 0.46376 0.0
C1679 C 0.61604 0.17321 0.46383 0.0
C1680 C 0.58627 0.15781 0.46023 0.0
C1681 C 0.6648 0.13957 0.4657 0.0
H1682 H 0.58484 0.12472 0.43645 0.0
C1683 C 0.68452 0.10025 0.4609 0.0
C1684 C 0.64821 0.09487 0.46343 0.0
C1685 C 0.6816 0.10974 0.4575 0.0
C1686 C 0.60729 0.12876 0.4448 0.0
H1687 H 0.68331 0.17397 0.45936 0.0
H1688 H 0.69212 0.15745 0.4532 0.0
H1689 H 0.57818 0.14152 0.43647 0.0
H1690 H 0.58025 0.0952 0.46359 0.0
H1691 H 0.57507 0.11182 0.45811 0.0
H1692 H 0.69314 0.12689 0.47463 0.0
C1693 C 0.66093 0.1601 0.45605 0.0
C1694 C 0.60353 0.13839 0.44475 0.0
C1695 C 0.65584 0.16957 0.45946 0.0
C1696 C 0.60882 0.09914 0.46163 0.0
C1697 C 0.60589 0.10868 0.45842 0.0
C1698 C 0.66841 0.12996 0.46584 0.0
C1699 C 0.62629 0.15408 0.45677 0.0
C1700 C 0.63204 0.14391 0.45536 0.0
C1701 C 0.6423 0.11414 0.45677 0.0
C1702 C 0.63952 0.12441 0.45554 0.0
H1703 H 0.55006 0.16982 0.467 0.0
H1704 H 0.55898 0.15337 0.46106 0.0
H1705 H 0.68683 0.1436 0.47432 0.0
H1706 H 0.71538 0.09716 0.46196 0.0
H1707 H 0.7103 0.11366 0.4558 0.0
C1708 C 0.4268 0.9168 0.21157 0.0
C1709 C 0.39193 0.92275 0.21185 0.0
C1710 C 0.42181 0.90738 0.20782 0.0
C1711 C 0.34376 0.88909 0.21332 0.0
H1712 H 0.42325 0.87441 0.1834 0.0
C1713 C 0.32597 0.84971 0.20913 0.0
C1714 C 0.36274 0.84446 0.2114 0.0
C1715 C 0.32811 0.85919 0.20548 0.0
C1716 C 0.40093 0.8784 0.19193 0.0
H1717 H 0.3246 0.9235 0.20756 0.0
H1718 H 0.31587 0.90701 0.20107 0.0
H1719 H 0.42943 0.89122 0.18353 0.0
H1720 H 0.43067 0.845 0.21079 0.0
H1721 H 0.43451 0.86159 0.2049 0.0
H1722 H 0.31612 0.87636 0.22238 0.0
C1723 C 0.34707 0.90966 0.20389 0.0
C1724 C 0.4044 0.88803 0.19194 0.0
C1725 C 0.35211 0.91911 0.20749 0.0
C1726 C 0.40175 0.84884 0.20904 0.0
C1727 C 0.40391 0.85836 0.2056 0.0
C1728 C 0.34045 0.87948 0.21343 0.0
C1729 C 0.38178 0.90366 0.20439 0.0
C1730 C 0.37611 0.89349 0.20282 0.0
C1731 C 0.36709 0.8637 0.20424 0.0
C1732 C 0.36922 0.87398 0.2029 0.0
H1733 H 0.45797 0.91938 0.21479 0.0
H1734 H 0.44914 0.90295 0.20848 0.0
H1735 H 0.3219 0.89307 0.22214 0.0
H1736 H 0.29539 0.84653 0.21063 0.0
H1737 H 0.29909 0.86301 0.20402 0.0
C1738 C 0.33244 0.91679 0.53402 0.0
C1739 C 0.3611 0.92316 0.54207 0.0
C1740 C 0.33805 0.90733 0.53667 0.0
C1741 C 0.38069 0.88914 0.56662 0.0
H1742 H 0.39588 0.87587 0.51727 0.0
C1743 C 0.37186 0.84895 0.55478 0.0
C1744 C 0.40538 0.8452 0.54387 0.0
C1745 C 0.36851 0.85853 0.55744 0.0
C1746 C 0.39176 0.87949 0.53116 0.0
H1747 H 0.41706 0.92452 0.56007 0.0
H1748 H 0.4262 0.90783 0.56512 0.0
H1749 H 0.38488 0.89256 0.51675 0.0
H1750 H 0.4626 0.8486 0.52798 0.0
H1751 H 0.45605 0.8652 0.53227 0.0
H1752 H 0.3864 0.87593 0.58095 0.0
C1753 C 0.39968 0.91029 0.5566 0.0
C1754 C 0.38537 0.88901 0.53086 0.0
C1755 C 0.39451 0.91981 0.55364 0.0
C1756 C 0.43626 0.85121 0.53641 0.0
C1757 C 0.43255 0.86074 0.53881 0.0
C1758 C 0.38622 0.87953 0.56691 0.0
C1759 C 0.37198 0.90398 0.54773 0.0
C1760 C 0.37983 0.89392 0.54855 0.0
C1761 C 0.39827 0.8645 0.54899 0.0
C1762 C 0.39201 0.87464 0.54915 0.0
H1763 H 0.30635 0.91909 0.52501 0.0
H1764 H 0.31625 0.90259 0.52975 0.0
H1765 H 0.37629 0.8928 0.58043 0.0
H1766 H 0.34761 0.84452 0.56076 0.0
H1767 H 0.34168 0.86129 0.56529 0.0
C1768 C 0.68564 0.66765 0.29664 0.0
C1769 C 0.64917 0.67302 0.29459 0.0
C1770 C 0.68297 0.65817 0.30012 0.0
C1771 C 0.60944 0.63915 0.31389 0.0
H1772 H 0.68743 0.62429 0.2835 0.0
C1773 C 0.58261 0.60064 0.2953 0.0
C1774 C 0.61746 0.59468 0.29494 0.0
C1775 C 0.58775 0.61008 0.29875 0.0
C1776 C 0.66585 0.62832 0.29236 0.0
H1777 H 0.58123 0.67268 0.29537 0.0
H1778 H 0.57646 0.65607 0.30097 0.0
H1779 H 0.69366 0.64099 0.28303 0.0
H1780 H 0.68491 0.59396 0.2988 0.0
H1781 H 0.69387 0.61048 0.3048 0.0
H1782 H 0.5808 0.62639 0.32261 0.0
C1783 C 0.60723 0.65921 0.30023 0.0
C1784 C 0.66943 0.63793 0.29212 0.0
C1785 C 0.60992 0.66874 0.29694 0.0
C1786 C 0.65741 0.59834 0.29894 0.0
C1787 C 0.66258 0.60782 0.30225 0.0
C1788 C 0.60571 0.62952 0.31402 0.0
C1789 C 0.64375 0.65376 0.30141 0.0
C1790 C 0.64108 0.6435 0.30274 0.0
C1791 C 0.62789 0.61382 0.30182 0.0
C1792 C 0.63366 0.624 0.30311 0.0
H1793 H 0.71641 0.67075 0.29515 0.0
H1794 H 0.71178 0.65426 0.30146 0.0
H1795 H 0.58744 0.64319 0.32249 0.0
H1796 H 0.55135 0.59805 0.29235 0.0
H1797 H 0.56041 0.61451 0.29816 0.0
C1798 C 0.64322 0.66958 0.95475 0.0
C1799 C 0.60926 0.67322 0.96554 0.0
C1800 C 0.64727 0.66002 0.95207 0.0
C1801 C 0.62539 0.63891 0.97795 0.0
H1802 H 0.63817 0.62577 0.9283 0.0
C1803 C 0.68138 0.60139 0.9743 0.0
C1804 C 0.6523 0.59518 0.96602 0.0
C1805 C 0.67661 0.61089 0.97184 0.0
C1806 C 0.63457 0.62938 0.94222 0.0
H1807 H 0.5522 0.66962 0.98135 0.0
H1808 H 0.56002 0.65304 0.97708 0.0
H1809 H 0.62855 0.64266 0.92818 0.0
H1810 H 0.59655 0.59413 0.94777 0.0
H1811 H 0.58887 0.61088 0.94308 0.0
H1812 H 0.63239 0.62578 0.99206 0.0
C1813 C 0.58325 0.65758 0.9706 0.0
C1814 C 0.62933 0.639 0.94216 0.0
C1815 C 0.57883 0.6671 0.97299 0.0
C1816 C 0.6194 0.59872 0.95439 0.0
C1817 C 0.61507 0.60828 0.95164 0.0
C1818 C 0.63149 0.62938 0.97802 0.0
C1819 C 0.6178 0.65394 0.96042 0.0
C1820 C 0.62443 0.64382 0.96005 0.0
C1821 C 0.64312 0.61443 0.96075 0.0
C1822 C 0.63602 0.62452 0.9602 0.0
H1823 H 0.66713 0.6741 0.94877 0.0
H1824 H 0.67429 0.65735 0.94423 0.0
H1825 H 0.62187 0.64248 0.99193 0.0
H1826 H 0.70713 0.59894 0.98334 0.0
H1827 H 0.69871 0.6155 0.97894 0.0
C1828 C 0.42767 0.41701 0.72407 0.0
C1829 C 0.39876 0.42334 0.71606 0.0
C1830 C 0.42229 0.40754 0.72144 0.0
C1831 C 0.37962 0.38929 0.6916 0.0
H1832 H 0.36561 0.37601 0.74103 0.0
C1833 C 0.3889 0.34909 0.70349 0.0
C1834 C 0.35543 0.34535 0.71445 0.0
C1835 C 0.39228 0.35867 0.70083 0.0
C1836 C 0.36942 0.37963 0.72712 0.0
H1837 H 0.3426 0.42462 0.69816 0.0
H1838 H 0.33388 0.40792 0.69316 0.0
H1839 H 0.37638 0.39271 0.74149 0.0
H1840 H 0.29834 0.34875 0.73042 0.0
H1841 H 0.30496 0.36536 0.72614 0.0
H1842 H 0.3738 0.37607 0.67731 0.0
C1843 C 0.36041 0.41041 0.70163 0.0
C1844 C 0.37568 0.38915 0.72739 0.0
C1845 C 0.36534 0.41994 0.70456 0.0
C1846 C 0.32464 0.35136 0.72196 0.0
C1847 C 0.32838 0.36089 0.71956 0.0
C1848 C 0.37423 0.37967 0.69135 0.0
C1849 C 0.38836 0.40414 0.71045 0.0
C1850 C 0.38076 0.39407 0.70967 0.0
C1851 C 0.3626 0.36465 0.70932 0.0
C1852 C 0.36886 0.37478 0.70913 0.0
H1853 H 0.45377 0.41935 0.73302 0.0
H1854 H 0.44429 0.40283 0.72833 0.0
H1855 H 0.38367 0.39296 0.67778 0.0
H1856 H 0.41308 0.34466 0.69747 0.0
H1857 H 0.41905 0.36143 0.69292 0.0
C1858 C 0.41101 0.4197 0.05066 0.0
C1859 C 0.37101 0.42333 0.04664 0.0
C1860 C 0.41626 0.41024 0.05418 0.0
C1861 C 0.35955 0.38858 0.06652 0.0
H1862 H 0.44667 0.37696 0.03526 0.0
C1863 C 0.36172 0.34939 0.04932 0.0
C1864 C 0.40065 0.34502 0.04661 0.0
C1865 C 0.35965 0.35892 0.05277 0.0
C1866 C 0.42269 0.38007 0.04444 0.0
H1867 H 0.3049 0.41993 0.04425 0.0
H1868 H 0.31408 0.40351 0.05045 0.0
H1869 H 0.44084 0.39368 0.03565 0.0
H1870 H 0.46801 0.34711 0.04675 0.0
H1871 H 0.46449 0.36359 0.05336 0.0
H1872 H 0.34111 0.37495 0.07516 0.0
C1873 C 0.34141 0.40794 0.05089 0.0
C1874 C 0.41934 0.38968 0.04463 0.0
C1875 C 0.3362 0.41737 0.04721 0.0
C1876 C 0.43747 0.35028 0.04852 0.0
C1877 C 0.43543 0.35976 0.05218 0.0
C1878 C 0.36307 0.37894 0.06645 0.0
C1879 C 0.38159 0.40423 0.05396 0.0
C1880 C 0.38739 0.39406 0.05544 0.0
C1881 C 0.39649 0.36427 0.05378 0.0
C1882 C 0.39436 0.37455 0.05519 0.0
H1883 H 0.43848 0.42409 0.05035 0.0
H1884 H 0.44758 0.4076 0.05672 0.0
H1885 H 0.33484 0.39175 0.07517 0.0
H1886 H 0.33276 0.34555 0.04786 0.0
H1887 H 0.32907 0.36214 0.05375 0.0
C1888 C 1.0038 0.0568 0.3295 0.0
C1889 C 0.98797 0.05896 0.31066 0.0
C1890 C 0.97656 0.05527 0.34542 0.0
C1891 C 0.86611 0.06015 0.36067 0.0
H1892 H 0.89712 0.04555 0.40646 0.0
C1893 C 0.75563 0.0559 0.42769 0.0
C1894 C 0.77358 0.05863 0.44577 0.0
C1895 C 0.78086 0.05438 0.41106 0.0
C1896 C 0.88807 0.04963 0.39374 0.0
H1897 H 0.93119 0.06058 0.29344 0.0
H1898 H 0.88369 0.05739 0.3208 0.0
H1899 H 0.94194 0.04543 0.37715 0.0
H1900 H 0.83231 0.06136 0.46084 0.0
H1901 H 0.87643 0.05845 0.43189 0.0
H1902 H 0.81191 0.06421 0.37726 0.0
C1903 C 0.91709 0.05728 0.32364 0.0
C1904 C 0.91388 0.04963 0.37694 0.0
C1905 C 0.94434 0.05901 0.30782 0.0
C1906 C 0.81751 0.05927 0.44713 0.0
C1907 C 0.8428 0.05758 0.43057 0.0
C1908 C 0.84001 0.06 0.37729 0.0
C1909 C 0.93272 0.05567 0.34284 0.0
C1910 C 0.90364 0.05501 0.36023 0.0
C1911 C 0.82464 0.05538 0.41223 0.0
C1912 C 0.85096 0.05485 0.3941 0.0
H1913 H 0.03728 0.05679 0.33221 0.0
H1914 H 0.99013 0.05418 0.3599 0.0
H1915 H 0.85735 0.06457 0.34844 0.0
H1916 H 0.7219 0.05538 0.42611 0.0
H1917 H 0.76607 0.05262 0.39713 0.0
C1918 C 0.31907 0.20913 0.30833 0.0
C1919 C 0.27542 0.20914 0.31107 0.0
C1920 C 0.34612 0.21083 0.32423 0.0
C1921 C 0.34861 0.21824 0.3777 0.0
H1922 H 0.45073 0.20372 0.37799 0.0
C1923 C 0.44437 0.20832 0.44792 0.0
C1924 C 0.48828 0.20904 0.44667 0.0
C1925 C 0.4192 0.21005 0.43134 0.0
C1926 C 0.42258 0.2079 0.37803 0.0
H1927 H 0.22584 0.21119 0.33254 0.0
H1928 H 0.27265 0.21373 0.36038 0.0
H1929 H 0.40567 0.20348 0.34903 0.0
H1930 H 0.54006 0.21246 0.42719 0.0
H1931 H 0.49611 0.21529 0.39819 0.0
H1932 H 0.36494 0.22219 0.40736 0.0
C1933 C 0.28639 0.21271 0.34591 0.0
C1934 C 0.3967 0.20783 0.36133 0.0
C1935 C 0.25936 0.21121 0.3299 0.0
C1936 C 0.50634 0.21187 0.42869 0.0
C1937 C 0.48123 0.21344 0.41204 0.0
C1938 C 0.37419 0.21817 0.39457 0.0
C1939 C 0.33026 0.21235 0.34343 0.0
C1940 C 0.35912 0.21295 0.3609 0.0
C1941 C 0.43747 0.21238 0.4131 0.0
C1942 C 0.41135 0.21297 0.39492 0.0
H1943 H 0.3324 0.20763 0.29395 0.0
H1944 H 0.37956 0.21076 0.32147 0.0
H1945 H 0.3205 0.22243 0.37792 0.0
H1946 H 0.4295 0.20614 0.46155 0.0
H1947 H 0.38557 0.20913 0.43256 0.0
C1948 C 0.75854 0.21169 0.83098 0.0
C1949 C 0.77395 0.20962 0.81202 0.0
C1950 C 0.78614 0.21319 0.84678 0.0
C1951 C 0.89708 0.20836 0.86129 0.0
H1952 H 0.86699 0.22273 0.90754 0.0
C1953 C 0.00937 0.21247 0.92761 0.0
C1954 C 0.99208 0.2096 0.94573 0.0
C1955 C 0.98358 0.21406 0.9112 0.0
C1956 C 0.87578 0.21871 0.89468 0.0
H1957 H 0.83031 0.20812 0.79445 0.0
H1958 H 0.87844 0.21126 0.8216 0.0
H1959 H 0.82136 0.22292 0.87851 0.0
H1960 H 0.93393 0.20666 0.96113 0.0
H1961 H 0.88881 0.20968 0.93256 0.0
H1962 H 0.95183 0.20429 0.87746 0.0
C1963 C 0.8451 0.21132 0.82463 0.0
C1964 C 0.84952 0.21875 0.87805 0.0
C1965 C 0.81749 0.20962 0.80894 0.0
C1966 C 0.94822 0.20887 0.94738 0.0
C1967 C 0.92237 0.21061 0.93105 0.0
C1968 C 0.92363 0.20846 0.87775 0.0
C1969 C 0.82992 0.21284 0.84395 0.0
C1970 C 0.85943 0.21346 0.86117 0.0
C1971 C 0.93988 0.21297 0.91265 0.0
C1972 C 0.91303 0.21353 0.89471 0.0
H1973 H 0.72512 0.21166 0.83387 0.0
H1974 H 0.77292 0.2142 0.86136 0.0
H1975 H 0.90562 0.204 0.84893 0.0
H1976 H 0.04303 0.21307 0.92581 0.0
H1977 H 0.99787 0.21593 0.89723 0.0
C1978 C 0.2592 0.05701 0.92742 0.0
C1979 C 0.2748 0.05904 0.94636 0.0
C1980 C 0.28662 0.05552 0.91155 0.0
C1981 C 0.39741 0.06035 0.89681 0.0
H1982 H 0.36688 0.04603 0.85055 0.0
C1983 C 0.5093 0.05627 0.83034 0.0
C1984 C 0.49194 0.05911 0.81221 0.0
C1985 C 0.48356 0.0547 0.84678 0.0
C1986 C 0.37579 0.05004 0.8634 0.0
H1987 H 0.33137 0.06049 0.96381 0.0
H1988 H 0.37918 0.05737 0.93653 0.0
H1989 H 0.3215 0.04582 0.87967 0.0
H1990 H 0.43371 0.06199 0.79683 0.0
H1991 H 0.3887 0.05899 0.82544 0.0
H1992 H 0.45204 0.06442 0.88055 0.0
C1993 C 0.34582 0.05733 0.93358 0.0
C1994 C 0.34967 0.04998 0.88009 0.0
C1995 C 0.31839 0.05901 0.94934 0.0
C1996 C 0.44807 0.05981 0.81058 0.0
C1997 C 0.42227 0.05808 0.82694 0.0
C1998 C 0.42382 0.06026 0.8803 0.0
C1999 C 0.33043 0.05585 0.91428 0.0
C2000 C 0.35975 0.05525 0.89698 0.0
C2001 C 0.43985 0.05576 0.84535 0.0
C2002 C 0.41307 0.0552 0.86332 0.0
H2003 H 0.22575 0.05706 0.9246 0.0
H2004 H 0.27324 0.05453 0.897 0.0
H2005 H 0.40608 0.06469 0.90918 0.0
H2006 H 0.54296 0.0557 0.83213 0.0
H2007 H 0.49792 0.05286 0.86075 0.0
C2008 C 0.25531 0.96171 0.58071 0.0
C2009 C 0.23727 0.95925 0.56247 0.0
C2010 C 0.23009 0.96318 0.59736 0.0
C2011 C 0.12322 0.9683 0.61461 0.0
H2012 H 0.15225 0.95297 0.65954 0.0
C2013 C 0.00653 0.96127 0.6785 0.0
C2014 C 0.02207 0.95898 0.69732 0.0
C2015 C 0.03398 0.96277 0.66265 0.0
C2016 C 0.14398 0.95749 0.64742 0.0
H2017 H 0.17844 0.95692 0.54718 0.0
H2018 H 0.13434 0.95973 0.57619 0.0
H2019 H 0.19786 0.95327 0.63078 0.0
H2020 H 0.0786 0.95706 0.71459 0.0
H2021 H 0.12652 0.96018 0.68734 0.0
H2022 H 0.06968 0.97266 0.63125 0.0
C2023 C 0.16804 0.96043 0.5776 0.0
C2024 C 0.17018 0.95761 0.63083 0.0
C2025 C 0.19331 0.9588 0.56101 0.0
C2026 C 0.06566 0.95874 0.70021 0.0
C2027 C 0.09315 0.96043 0.68447 0.0
C2028 C 0.09733 0.96833 0.63138 0.0
C2029 C 0.18624 0.96239 0.59606 0.0
C2030 C 0.15982 0.96291 0.61415 0.0
C2031 C 0.07776 0.96218 0.66528 0.0
C2032 C 0.10697 0.96281 0.64795 0.0
H2033 H 0.28906 0.96209 0.58236 0.0
H2034 H 0.24492 0.96475 0.61138 0.0
H2035 H 0.11466 0.97251 0.602 0.0
H2036 H 0.97307 0.96143 0.67574 0.0
H2037 H 0.0206 0.96397 0.64817 0.0
C2038 C 0.69633 0.80934 0.69726 0.0
C2039 C 0.74019 0.80855 0.6958 0.0
C2040 C 0.67071 0.80756 0.68087 0.0
C2041 C 0.67338 0.8093 0.62737 0.0
H2042 H 0.5695 0.79542 0.6284 0.0
C2043 C 0.56823 0.80792 0.5582 0.0
C2044 C 0.52467 0.80829 0.56117 0.0
C2045 C 0.59541 0.80625 0.57407 0.0
C2046 C 0.59814 0.79942 0.62786 0.0
H2047 H 0.79136 0.8049 0.67616 0.0
H2048 H 0.74665 0.80196 0.64748 0.0
H2049 H 0.61464 0.79565 0.6576 0.0
H2050 H 0.47536 0.80691 0.58302 0.0
H2051 H 0.52245 0.80438 0.61076 0.0
H2052 H 0.65639 0.81354 0.59824 0.0
C2053 C 0.73215 0.80393 0.66135 0.0
C2054 C 0.62411 0.7995 0.6446 0.0
C2055 C 0.75771 0.80556 0.67782 0.0
C2056 C 0.50878 0.8066 0.58021 0.0
C2057 C 0.53596 0.8051 0.59616 0.0
C2058 C 0.64716 0.80937 0.61079 0.0
C2059 C 0.68846 0.80509 0.66258 0.0
C2060 C 0.66191 0.80448 0.64455 0.0
C2061 C 0.57979 0.80509 0.59343 0.0
C2062 C 0.60895 0.80448 0.61078 0.0
H2063 H 0.68185 0.81163 0.7109 0.0
H2064 H 0.63716 0.80856 0.68223 0.0
H2065 H 0.70202 0.81333 0.627 0.0
H2066 H 0.58144 0.80913 0.54367 0.0
H2067 H 0.62877 0.80603 0.57116 0.0
C2068 C 0.19644 0.80849 0.19718 0.0
C2069 C 0.24034 0.8078 0.19578 0.0
C2070 C 0.17103 0.80676 0.18069 0.0
C2071 C 0.17395 0.809 0.12736 0.0
H2072 H 0.07115 0.79473 0.12745 0.0
C2073 C 0.06971 0.80807 0.05791 0.0
C2074 C 0.02609 0.80819 0.06074 0.0
C2075 C 0.09681 0.8063 0.07376 0.0
C2076 C 0.09947 0.79884 0.12718 0.0
H2077 H 0.29185 0.80439 0.17613 0.0
H2078 H 0.24749 0.80155 0.14727 0.0
H2079 H 0.11599 0.79481 0.15676 0.0
H2080 H 0.97659 0.80628 0.08231 0.0
H2081 H 0.02352 0.80359 0.11006 0.0
H2082 H 0.1569 0.81351 0.09844 0.0
C2083 C 0.2328 0.80339 0.16118 0.0
C2084 C 0.12528 0.79882 0.14398 0.0
C2085 C 0.25815 0.80496 0.17774 0.0
C2086 C 0.01008 0.80616 0.07961 0.0
C2087 C 0.03717 0.80458 0.09556 0.0
C2088 C 0.14787 0.80916 0.11074 0.0
C2089 C 0.18906 0.80446 0.16237 0.0
C2090 C 0.1627 0.80394 0.14425 0.0
C2091 C 0.08104 0.80482 0.09298 0.0
C2092 C 0.11005 0.80413 0.11038 0.0
H2093 H 0.18175 0.81066 0.21086 0.0
H2094 H 0.13743 0.80768 0.18201 0.0
H2095 H 0.20229 0.81313 0.12726 0.0
H2096 H 0.083 0.80954 0.0435 0.0
H2097 H 0.13023 0.80627 0.07093 0.0
C2098 C 0.75781 0.96148 0.08092 0.0
C2099 C 0.74004 0.95872 0.06283 0.0
C2100 C 0.73241 0.96301 0.09749 0.0
C2101 C 0.62511 0.96775 0.11456 0.0
H2102 H 0.65504 0.95275 0.15986 0.0
C2103 C 0.5083 0.96051 0.17826 0.0
C2104 C 0.52376 0.95833 0.19714 0.0
C2105 C 0.53583 0.96207 0.16247 0.0
C2106 C 0.6465 0.95718 0.14763 0.0
H2107 H 0.6815 0.95592 0.04765 0.0
H2108 H 0.63707 0.95884 0.0765 0.0
H2109 H 0.70091 0.95312 0.1312 0.0
H2110 H 0.58019 0.95666 0.2146 0.0
H2111 H 0.62823 0.95988 0.18746 0.0
H2112 H 0.57105 0.97196 0.13099 0.0
C2113 C 0.67069 0.95973 0.07787 0.0
C2114 C 0.67285 0.95734 0.1311 0.0
C2115 C 0.69614 0.95803 0.06138 0.0
C2116 C 0.56732 0.95825 0.20017 0.0
C2117 C 0.59488 0.96 0.18448 0.0
C2118 C 0.59907 0.96775 0.13127 0.0
C2119 C 0.68866 0.96198 0.09623 0.0
C2120 C 0.66216 0.96251 0.11429 0.0
C2121 C 0.57962 0.96165 0.16523 0.0
C2122 C 0.609 0.96234 0.14797 0.0
H2123 H 0.79151 0.96203 0.08256 0.0
H2124 H 0.74704 0.96479 0.11144 0.0
H2125 H 0.61628 0.97186 0.10183 0.0
H2126 H 0.47486 0.96055 0.17541 0.0
H2127 H 0.52254 0.96318 0.14793 0.0
C2128 C 1.00401 0.55643 0.83001 0.0
C2129 C 0.98832 0.55858 0.81114 0.0
C2130 C 0.97667 0.55494 0.84591 0.0
C2131 C 0.86656 0.56011 0.86105 0.0
H2132 H 0.8964 0.54541 0.90687 0.0
C2133 C 0.75533 0.55619 0.92783 0.0
C2134 C 0.7733 0.55869 0.94607 0.0
C2135 C 0.78062 0.55467 0.91123 0.0
C2136 C 0.88769 0.54953 0.89415 0.0
H2137 H 0.93165 0.56024 0.79385 0.0
H2138 H 0.88395 0.55715 0.8212 0.0
H2139 H 0.94135 0.54515 0.8776 0.0
H2140 H 0.83209 0.56103 0.96139 0.0
H2141 H 0.87629 0.55814 0.93245 0.0
H2142 H 0.81262 0.56436 0.87759 0.0
C2143 C 0.91734 0.557 0.82405 0.0
C2144 C 0.91356 0.54944 0.87737 0.0
C2145 C 0.94471 0.55867 0.80825 0.0
C2146 C 0.81726 0.55913 0.94757 0.0
C2147 C 0.84259 0.55745 0.93102 0.0
C2148 C 0.84042 0.56006 0.87766 0.0
C2149 C 0.93286 0.55541 0.84328 0.0
C2150 C 0.90372 0.55484 0.86065 0.0
C2151 C 0.82447 0.55545 0.91255 0.0
C2152 C 0.85094 0.55487 0.89448 0.0
H2153 H 0.03748 0.55638 0.83276 0.0
H2154 H 0.99012 0.55385 0.86042 0.0
H2155 H 0.85814 0.56455 0.8488 0.0
H2156 H 0.72159 0.55582 0.92614 0.0
H2157 H 0.76582 0.55307 0.89722 0.0
C2158 C 0.31669 0.70861 0.80735 0.0
C2159 C 0.27311 0.70885 0.81027 0.0
C2160 C 0.3442 0.71039 0.82303 0.0
C2161 C 0.34852 0.71856 0.87593 0.0
H2162 H 0.449 0.70349 0.87682 0.0
C2163 C 0.44462 0.70934 0.94645 0.0
C2164 C 0.48858 0.70972 0.94493 0.0
C2165 C 0.41932 0.71093 0.92985 0.0
C2166 C 0.42133 0.70783 0.87668 0.0
H2167 H 0.22413 0.7114 0.8318 0.0
H2168 H 0.27172 0.7141 0.85929 0.0
H2169 H 0.40332 0.70305 0.8481 0.0
H2170 H 0.54037 0.71241 0.92493 0.0
H2171 H 0.49617 0.715 0.89591 0.0
H2172 H 0.36593 0.72289 0.90519 0.0
C2173 C 0.28507 0.71283 0.84483 0.0
C2174 C 0.3951 0.70764 0.86012 0.0
C2175 C 0.25759 0.71124 0.82903 0.0
C2176 C 0.50661 0.71208 0.92663 0.0
C2177 C 0.48136 0.71352 0.90997 0.0
C2178 C 0.37446 0.71862 0.89267 0.0
C2179 C 0.32884 0.71224 0.84219 0.0
C2180 C 0.3581 0.71295 0.85948 0.0
C2181 C 0.43749 0.71279 0.91133 0.0
C2182 C 0.41104 0.71322 0.89324 0.0
H2183 H 0.32961 0.70687 0.79301 0.0
H2184 H 0.37757 0.71014 0.82015 0.0
H2185 H 0.32087 0.72289 0.87596 0.0
H2186 H 0.42975 0.70754 0.96033 0.0
H2187 H 0.38561 0.71028 0.9313 0.0
C2188 C 1.00406 0.71144 0.42727 0.0
C2189 C 0.98819 0.70929 0.4461 0.0
C2190 C 0.97687 0.71298 0.41134 0.0
C2191 C 0.86647 0.70808 0.39612 0.0
H2192 H 0.89735 0.72265 0.35027 0.0
C2193 C 0.75569 0.71226 0.32933 0.0
C2194 C 0.77346 0.70947 0.31125 0.0
C2195 C 0.78108 0.71383 0.34587 0.0
C2196 C 0.88835 0.71857 0.36301 0.0
H2197 H 0.93139 0.7077 0.46332 0.0
H2198 H 0.88394 0.7109 0.43595 0.0
H2199 H 0.94224 0.72279 0.37956 0.0
H2200 H 0.83202 0.70668 0.29608 0.0
H2201 H 0.87644 0.70968 0.3249 0.0
H2202 H 0.81226 0.704 0.37958 0.0
C2203 C 0.91735 0.71099 0.43312 0.0
C2204 C 0.91418 0.71859 0.3798 0.0
C2205 C 0.94457 0.70925 0.44893 0.0
C2206 C 0.81737 0.70882 0.30979 0.0
C2207 C 0.84282 0.71055 0.32627 0.0
C2208 C 0.84035 0.70821 0.37952 0.0
C2209 C 0.93302 0.71258 0.41392 0.0
C2210 C 0.90397 0.71323 0.39653 0.0
C2211 C 0.82484 0.71282 0.34461 0.0
C2212 C 0.85125 0.71335 0.36269 0.0
H2213 H 0.03756 0.71144 0.42457 0.0
H2214 H 0.99045 0.71405 0.39685 0.0
H2215 H 0.85774 0.70367 0.40837 0.0
H2216 H 0.72198 0.7128 0.33099 0.0
H2217 H 0.76643 0.71564 0.35981 0.0
C2218 C 0.50192 0.55693 0.33039 0.0
C2219 C 0.48611 0.559 0.31151 0.0
C2220 C 0.47465 0.55539 0.3463 0.0
C2221 C 0.36393 0.56012 0.3613 0.0
H2222 H 0.39492 0.54564 0.40727 0.0
C2223 C 0.25267 0.55584 0.4279 0.0
C2224 C 0.27021 0.55866 0.44601 0.0
C2225 C 0.27824 0.55428 0.41141 0.0
C2226 C 0.38588 0.54969 0.3945 0.0
H2227 H 0.42939 0.56046 0.29418 0.0
H2228 H 0.38184 0.55726 0.32152 0.0
H2229 H 0.4401 0.54556 0.37808 0.0
H2230 H 0.32859 0.5615 0.46128 0.0
H2231 H 0.37333 0.55854 0.43256 0.0
H2232 H 0.3094 0.56411 0.37771 0.0
C2233 C 0.41523 0.55723 0.32441 0.0
C2234 C 0.41189 0.54971 0.37777 0.0
C2235 C 0.44251 0.55897 0.30861 0.0
C2236 C 0.3141 0.55934 0.44755 0.0
C2237 C 0.33974 0.55762 0.43113 0.0
C2238 C 0.33764 0.55995 0.37784 0.0
C2239 C 0.43081 0.55571 0.34365 0.0
C2240 C 0.40163 0.55504 0.36099 0.0
C2241 C 0.32197 0.55534 0.41275 0.0
C2242 C 0.34857 0.55484 0.39472 0.0
H2243 H 0.53539 0.55698 0.33314 0.0
H2244 H 0.48815 0.55437 0.36082 0.0
H2245 H 0.35514 0.5645 0.34901 0.0
H2246 H 0.21899 0.55527 0.42618 0.0
H2247 H 0.26375 0.55246 0.39745 0.0
C2248 C 0.06797 0.45835 0.19819 0.0
C2249 C 0.02407 0.45904 0.19673 0.0
C2250 C 0.09348 0.46006 0.18172 0.0
C2251 C 0.0911 0.45772 0.12845 0.0
H2252 H 0.1932 0.47224 0.12847 0.0
C2253 C 0.19554 0.45876 0.05906 0.0
C2254 C 0.23916 0.4588 0.06189 0.0
C2255 C 0.1683 0.46047 0.07488 0.0
C2256 C 0.1651 0.46805 0.12822 0.0
H2257 H 0.97268 0.46241 0.17698 0.0
H2258 H 0.01722 0.4652 0.14816 0.0
H2259 H 0.14825 0.47211 0.15774 0.0
H2260 H 0.28849 0.46093 0.08344 0.0
H2261 H 0.24135 0.4635 0.11117 0.0
H2262 H 0.1085 0.45318 0.09961 0.0
C2263 C 0.03182 0.46339 0.1621 0.0
C2264 C 0.13922 0.46805 0.14499 0.0
C2265 C 0.00638 0.46185 0.17865 0.0
C2266 C 0.255 0.46092 0.08074 0.0
C2267 C 0.22778 0.46244 0.09667 0.0
C2268 C 0.11727 0.45758 0.11186 0.0
C2269 C 0.07556 0.46234 0.16336 0.0
C2270 C 0.10203 0.46285 0.14529 0.0
C2271 C 0.18394 0.46205 0.09409 0.0
C2272 C 0.15485 0.4627 0.11147 0.0
H2273 H 0.08257 0.4562 0.21191 0.0
H2274 H 0.12708 0.45915 0.1831 0.0
H2275 H 0.06295 0.45353 0.12837 0.0
H2276 H 0.18238 0.45722 0.04466 0.0
H2277 H 0.13489 0.46038 0.07204 0.0
C2278 C 0.75841 0.30556 0.1777 0.0
C2279 C 0.74082 0.3085 0.19571 0.0
C2280 C 0.73291 0.30396 0.1612 0.0
C2281 C 0.62526 0.2994 0.14428 0.0
H2282 H 0.65651 0.31388 0.09839 0.0
C2283 C 0.50936 0.30651 0.0801 0.0
C2284 C 0.52511 0.30849 0.06116 0.0
C2285 C 0.53666 0.30497 0.09599 0.0
C2286 C 0.64758 0.30959 0.11079 0.0
H2287 H 0.68243 0.31153 0.21081 0.0
H2288 H 0.63782 0.3085 0.18208 0.0
H2289 H 0.70218 0.31361 0.12712 0.0
H2290 H 0.58179 0.30978 0.04373 0.0
H2291 H 0.62938 0.30658 0.07106 0.0
H2292 H 0.57097 0.29524 0.12796 0.0
C2293 C 0.67138 0.30752 0.18073 0.0
C2294 C 0.67382 0.3095 0.12736 0.0
C2295 C 0.69695 0.30928 0.19715 0.0
C2296 C 0.5687 0.30835 0.0582 0.0
C2297 C 0.59601 0.30662 0.07399 0.0
C2298 C 0.5993 0.29935 0.12754 0.0
C2299 C 0.68921 0.3051 0.16243 0.0
C2300 C 0.66269 0.30451 0.14438 0.0
C2301 C 0.58049 0.3052 0.09328 0.0
C2302 C 0.60972 0.30457 0.11062 0.0
H2303 H 0.79208 0.30492 0.17606 0.0
H2304 H 0.74745 0.30204 0.14731 0.0
H2305 H 0.61607 0.29545 0.15717 0.0
H2306 H 0.47591 0.30664 0.0829 0.0
H2307 H 0.52319 0.30403 0.11054 0.0
C2308 C 1.00312 0.30646 0.57996 0.0
C2309 C 0.0207 0.30956 0.56208 0.0
C2310 C 0.02859 0.30478 0.59644 0.0
C2311 C 0.13654 0.30029 0.61319 0.0
H2312 H 0.10414 0.31407 0.65989 0.0
C2313 C 0.25176 0.30699 0.6778 0.0
C2314 C 0.23585 0.30859 0.69688 0.0
C2315 C 0.22459 0.30559 0.66181 0.0
C2316 C 0.11341 0.30997 0.64724 0.0
H2317 H 0.07906 0.31282 0.54717 0.0
H2318 H 0.12362 0.30965 0.57584 0.0
H2319 H 0.05858 0.31402 0.6311 0.0
H2320 H 0.17907 0.30937 0.71437 0.0
H2321 H 0.13174 0.30644 0.6868 0.0
H2322 H 0.19108 0.29612 0.6293 0.0
C2323 C 0.09008 0.30861 0.57712 0.0
C2324 C 0.08722 0.31 0.63064 0.0
C2325 C 0.06454 0.31044 0.56073 0.0
C2326 C 0.19228 0.30823 0.69981 0.0
C2327 C 0.16512 0.30665 0.6839 0.0
C2328 C 0.16245 0.30012 0.62993 0.0
C2329 C 0.07226 0.306 0.5953 0.0
C2330 C 0.09875 0.30528 0.61335 0.0
C2331 C 0.18076 0.30559 0.66452 0.0
C2332 C 0.15162 0.30508 0.64714 0.0
H2333 H 0.96947 0.30574 0.58153 0.0
H2334 H 0.01405 0.30271 0.61023 0.0
H2335 H 0.14604 0.29653 0.60009 0.0
H2336 H 0.28519 0.30729 0.67501 0.0
H2337 H 0.23813 0.30493 0.6472 0.0
C2338 C 0.50452 0.46222 0.67781 0.0
C2339 C 0.52239 0.45964 0.696 0.0
C2340 C 0.52991 0.46379 0.66125 0.0
C2341 C 0.63708 0.46896 0.64439 0.0
H2342 H 0.60795 0.45405 0.59882 0.0
C2343 C 0.75408 0.4622 0.58048 0.0
C2344 C 0.73863 0.46007 0.56157 0.0
C2345 C 0.72655 0.46366 0.59632 0.0
C2346 C 0.61625 0.45846 0.61113 0.0
H2347 H 0.58107 0.45718 0.71134 0.0
H2348 H 0.62543 0.46016 0.6825 0.0
H2349 H 0.56213 0.45417 0.62751 0.0
H2350 H 0.68217 0.45843 0.54411 0.0
H2351 H 0.63413 0.46148 0.57135 0.0
H2352 H 0.69089 0.47337 0.62801 0.0
C2353 C 0.59176 0.46088 0.68104 0.0
C2354 C 0.58994 0.45847 0.62768 0.0
C2355 C 0.56633 0.45915 0.69753 0.0
C2356 C 0.69505 0.45998 0.55856 0.0
C2357 C 0.6675 0.46163 0.57429 0.0
C2358 C 0.6631 0.46909 0.62767 0.0
C2359 C 0.57374 0.46298 0.66261 0.0
C2360 C 0.60032 0.46361 0.64458 0.0
C2361 C 0.68277 0.46319 0.59358 0.0
C2362 C 0.65343 0.46372 0.61087 0.0
H2363 H 0.47079 0.46263 0.6761 0.0
H2364 H 0.51521 0.46546 0.64725 0.0
H2365 H 0.64567 0.47304 0.65718 0.0
H2366 H 0.78752 0.46224 0.58333 0.0
H2367 H 0.73983 0.46472 0.61087 0.0
loop_
_geom_bond_atom_site_label_1
_geom_bond_atom_site_label_2
_geom_bond_distance
_geom_bond_site_symmetry_2
_ccdc_geom_bond_type
O0 Cd1 2.223 . S
O0 C8 1.315 . S
Cd1 O0 2.223 . S
Cd1 O4 2.287 1_455 S
Cd1 O5 2.439 . S
Cd1 O11 2.240 . S
Cd2 O3 2.240 . S
Cd2 O10 2.223 . S
Cd2 O12 2.297 . S
Cd2 O13 2.439 . S
O3 Cd2 2.240 . S
O3 C8 1.279 . S
O4 Cd1 2.287 1_655 S
O4 C6 1.240 1_655 S
O5 Cd1 2.439 . S
O5 C6 1.208 . S
C6 O4 1.240 1_455 S
C6 O5 1.208 . S
C7 O12 1.247 . S
C7 O13 1.208 . S
C8 O0 1.315 . S
C8 O3 1.279 . S
C9 O10 1.315 . S
C9 O11 1.279 . S
O10 Cd2 2.223 . S
O10 C9 1.315 . S
O11 Cd1 2.240 . S
O11 C9 1.279 . S
O12 Cd2 2.297 . S
O12 C7 1.247 . S
O13 Cd2 2.439 . S
O13 C7 1.208 . S
O14 Cd15 2.223 . S
O14 C22 1.315 . S
Cd15 O14 2.223 . S
Cd15 O18 2.297 . S
Cd15 O19 2.439 . S
Cd15 O25 2.240 . S
Cd16 O17 2.240 . S
Cd16 O24 2.223 . S
Cd16 O26 2.297 . S
Cd16 O27 2.439 . S
O17 Cd16 2.240 . S
O17 C22 1.279 . S
O18 Cd15 2.297 . S
O18 C20 1.247 . S
O19 Cd15 2.439 . S
O19 C20 1.208 . S
C20 O18 1.247 . S
C20 O19 1.208 . S
C21 O26 1.247 . S
C21 O27 1.208 . S
C22 O14 1.315 . S
C22 O17 1.279 . S
C23 O24 1.315 . S
C23 O25 1.279 . S
O24 Cd16 2.223 . S
O24 C23 1.315 . S
O25 Cd15 2.240 . S
O25 C23 1.279 . S
O26 Cd16 2.297 . S
O26 C21 1.247 . S
O27 Cd16 2.439 . S
O27 C21 1.208 . S
O28 Cd29 2.223 . S
O28 C36 1.315 . S
Cd29 O28 2.223 . S
Cd29 O32 2.287 1_455 S
Cd29 O33 2.439 . S
Cd29 O39 2.240 1_556 S
Cd30 O31 2.240 . S
Cd30 O38 2.223 1_556 S
Cd30 O40 2.287 1_556 S
Cd30 O41 2.439 . S
O31 Cd30 2.240 . S
O31 C36 1.279 . S
O32 Cd29 2.287 1_655 S
O32 C34 1.239 1_655 S
O33 Cd29 2.439 . S
O33 C34 1.208 . S
C34 O32 1.239 1_455 S
C34 O33 1.208 . S
C35 O40 1.223 1_556 S
C35 O41 1.208 . S
C36 O28 1.315 . S
C36 O31 1.279 . S
C37 O38 1.315 . S
C37 O39 1.279 . S
O38 Cd30 2.223 1_554 S
O38 C37 1.315 . S
O39 Cd29 2.240 1_554 S
O39 C37 1.279 . S
O40 Cd30 2.287 1_554 S
O40 C35 1.223 1_554 S
O41 Cd30 2.439 . S
O41 C35 1.208 . S
O42 Cd43 2.223 . S
O42 C50 1.315 . S
Cd43 O42 2.223 . S
Cd43 O46 2.297 . S
Cd43 O47 2.439 . S
Cd43 O53 2.240 1_556 S
Cd44 O45 2.240 . S
Cd44 O52 2.223 1_556 S
Cd44 O54 2.287 1_556 S
Cd44 O55 2.439 . S
O45 Cd44 2.240 . S
O45 C50 1.279 . S
O46 Cd43 2.297 . S
O46 C48 1.247 . S
O47 Cd43 2.439 . S
O47 C48 1.208 . S
C48 O46 1.247 . S
C48 O47 1.208 . S
C49 O54 1.223 1_556 S
C49 O55 1.208 . S
C50 O42 1.315 . S
C50 O45 1.279 . S
C51 O52 1.315 . S
C51 O53 1.279 . S
O52 Cd44 2.223 1_554 S
O52 C51 1.315 . S
O53 Cd43 2.240 1_554 S
O53 C51 1.279 . S
O54 Cd44 2.287 1_554 S
O54 C49 1.223 1_554 S
O55 Cd44 2.439 . S
O55 C49 1.208 . S
O56 Cd57 2.223 . S
O56 C64 1.315 . S
Cd57 O56 2.223 . S
Cd57 O60 2.287 1_655 S
Cd57 O61 2.439 . S
Cd57 O67 2.240 . S
Cd58 O59 2.240 . S
Cd58 O66 2.223 . S
Cd58 O68 2.297 . S
Cd58 O69 2.439 . S
O59 Cd58 2.240 . S
O59 C64 1.279 . S
O60 Cd57 2.287 1_455 S
O60 C62 1.240 1_455 S
O61 Cd57 2.439 . S
O61 C62 1.208 . S
C62 O60 1.240 1_655 S
C62 O61 1.208 . S
C63 O68 1.247 . S
C63 O69 1.208 . S
C64 O56 1.315 . S
C64 O59 1.279 . S
C65 O66 1.315 . S
C65 O67 1.279 . S
O66 Cd58 2.223 . S
O66 C65 1.315 . S
O67 Cd57 2.240 . S
O67 C65 1.279 . S
O68 Cd58 2.297 . S
O68 C63 1.247 . S
O69 Cd58 2.439 . S
O69 C63 1.208 . S
O70 Cd71 2.223 . S
O70 C78 1.315 . S
Cd71 O70 2.223 . S
Cd71 O74 2.297 . S
Cd71 O75 2.439 . S
Cd71 O81 2.240 . S
Cd72 O73 2.240 . S
Cd72 O80 2.223 . S
Cd72 O82 2.297 . S
Cd72 O83 2.439 . S
O73 Cd72 2.240 . S
O73 C78 1.279 . S
O74 Cd71 2.297 . S
O74 C76 1.247 . S
O75 Cd71 2.439 . S
O75 C76 1.208 . S
C76 O74 1.247 . S
C76 O75 1.208 . S
C77 O82 1.247 . S
C77 O83 1.208 . S
C78 O70 1.315 . S
C78 O73 1.279 . S
C79 O80 1.315 . S
C79 O81 1.279 . S
O80 Cd72 2.223 . S
O80 C79 1.315 . S
O81 Cd71 2.240 . S
O81 C79 1.279 . S
O82 Cd72 2.297 . S
O82 C77 1.247 . S
O83 Cd72 2.439 . S
O83 C77 1.208 . S
O84 Cd85 2.223 . S
O84 C92 1.315 . S
Cd85 O84 2.223 . S
Cd85 O88 2.287 1_655 S
Cd85 O89 2.439 . S
Cd85 O95 2.240 1_554 S
Cd86 O87 2.240 . S
Cd86 O94 2.223 1_554 S
Cd86 O96 2.287 1_554 S
Cd86 O97 2.439 . S
O87 Cd86 2.240 . S
O87 C92 1.279 . S
O88 Cd85 2.287 1_455 S
O88 C90 1.239 1_455 S
O89 Cd85 2.439 . S
O89 C90 1.208 . S
C90 O88 1.239 1_655 S
C90 O89 1.208 . S
C91 O96 1.223 1_554 S
C91 O97 1.208 . S
C92 O84 1.315 . S
C92 O87 1.279 . S
C93 O94 1.315 . S
C93 O95 1.279 . S
O94 Cd86 2.223 1_556 S
O94 C93 1.315 . S
O95 Cd85 2.240 1_556 S
O95 C93 1.279 . S
O96 Cd86 2.287 1_556 S
O96 C91 1.223 1_556 S
O97 Cd86 2.439 . S
O97 C91 1.208 . S
O98 Cd99 2.223 . S
O98 C106 1.315 . S
Cd99 O98 2.223 . S
Cd99 O102 2.297 . S
Cd99 O103 2.439 . S
Cd99 O109 2.240 1_554 S
Cd100 O101 2.240 . S
Cd100 O108 2.223 1_554 S
Cd100 O110 2.287 1_554 S
Cd100 O111 2.439 . S
O101 Cd100 2.240 . S
O101 C106 1.279 . S
O102 Cd99 2.297 . S
O102 C104 1.247 . S
O103 Cd99 2.439 . S
O103 C104 1.208 . S
C104 O102 1.247 . S
C104 O103 1.208 . S
C105 O110 1.223 1_554 S
C105 O111 1.208 . S
C106 O98 1.315 . S
C106 O101 1.279 . S
C107 O108 1.315 . S
C107 O109 1.279 . S
O108 Cd100 2.223 1_556 S
O108 C107 1.315 . S
O109 Cd99 2.240 1_556 S
O109 C107 1.279 . S
O110 Cd100 2.287 1_556 S
O110 C105 1.223 1_556 S
O111 Cd100 2.439 . S
O111 C105 1.208 . S
O112 Cd113 2.223 . S
O112 C120 1.315 . S
Cd113 O112 2.223 . S
Cd113 O116 2.287 1_455 S
Cd113 O117 2.439 . S
Cd113 O123 2.240 . S
Cd114 O115 2.240 . S
Cd114 O122 2.223 . S
Cd114 O124 2.297 . S
Cd114 O125 2.439 . S
O115 Cd114 2.240 . S
O115 C120 1.279 . S
O116 Cd113 2.287 1_655 S
O116 C118 1.240 1_655 S
O117 Cd113 2.439 . S
O117 C118 1.208 . S
C118 O116 1.240 1_455 S
C118 O117 1.208 . S
C119 O124 1.247 . S
C119 O125 1.208 . S
C120 O112 1.315 . S
C120 O115 1.279 . S
C121 O122 1.315 . S
C121 O123 1.279 . S
O122 Cd114 2.223 . S
O122 C121 1.315 . S
O123 Cd113 2.240 . S
O123 C121 1.279 . S
O124 Cd114 2.297 . S
O124 C119 1.247 . S
O125 Cd114 2.439 . S
O125 C119 1.208 . S
O126 Cd127 2.223 . S
O126 C134 1.315 . S
Cd127 O126 2.223 . S
Cd127 O130 2.297 . S
Cd127 O131 2.439 . S
Cd127 O137 2.240 . S
Cd128 O129 2.240 . S
Cd128 O136 2.223 . S
Cd128 O138 2.297 . S
Cd128 O139 2.439 . S
O129 Cd128 2.240 . S
O129 C134 1.279 . S
O130 Cd127 2.297 . S
O130 C132 1.247 . S
O131 Cd127 2.439 . S
O131 C132 1.208 . S
C132 O130 1.247 . S
C132 O131 1.208 . S
C133 O138 1.247 . S
C133 O139 1.208 . S
C134 O126 1.315 . S
C134 O129 1.279 . S
C135 O136 1.315 . S
C135 O137 1.279 . S
O136 Cd128 2.223 . S
O136 C135 1.315 . S
O137 Cd127 2.240 . S
O137 C135 1.279 . S
O138 Cd128 2.297 . S
O138 C133 1.247 . S
O139 Cd128 2.439 . S
O139 C133 1.208 . S
O140 Cd141 2.223 . S
O140 C148 1.315 . S
Cd141 O140 2.223 . S
Cd141 O144 2.287 1_455 S
Cd141 O145 2.439 . S
Cd141 O151 2.240 . S
Cd142 O143 2.240 . S
Cd142 O150 2.223 . S
Cd142 O152 2.297 . S
Cd142 O153 2.439 . S
O143 Cd142 2.240 . S
O143 C148 1.279 . S
O144 Cd141 2.287 1_655 S
O144 C146 1.239 1_655 S
O145 Cd141 2.439 . S
O145 C146 1.208 . S
C146 O144 1.239 1_455 S
C146 O145 1.208 . S
C147 O152 1.247 . S
C147 O153 1.208 . S
C148 O140 1.315 . S
C148 O143 1.279 . S
C149 O150 1.315 . S
C149 O151 1.279 . S
O150 Cd142 2.223 . S
O150 C149 1.315 . S
O151 Cd141 2.240 . S
O151 C149 1.279 . S
O152 Cd142 2.297 . S
O152 C147 1.247 . S
O153 Cd142 2.439 . S
O153 C147 1.208 . S
O154 Cd155 2.223 . S
O154 C162 1.315 . S
Cd155 O154 2.223 . S
Cd155 O158 2.297 . S
Cd155 O159 2.439 . S
Cd155 O165 2.240 . S
Cd156 O157 2.240 . S
Cd156 O164 2.223 . S
Cd156 O166 2.297 . S
Cd156 O167 2.439 . S
O157 Cd156 2.240 . S
O157 C162 1.279 . S
O158 Cd155 2.297 . S
O158 C160 1.247 . S
O159 Cd155 2.439 . S
O159 C160 1.208 . S
C160 O158 1.247 . S
C160 O159 1.208 . S
C161 O166 1.247 . S
C161 O167 1.208 . S
C162 O154 1.315 . S
C162 O157 1.279 . S
C163 O164 1.315 . S
C163 O165 1.279 . S
O164 Cd156 2.223 . S
O164 C163 1.315 . S
O165 Cd155 2.240 . S
O165 C163 1.279 . S
O166 Cd156 2.297 . S
O166 C161 1.247 . S
O167 Cd156 2.439 . S
O167 C161 1.208 . S
O168 Cd169 2.223 . S
O168 C176 1.315 . S
Cd169 O168 2.223 . S
Cd169 O172 2.287 1_655 S
Cd169 O173 2.439 . S
Cd169 O179 2.240 . S
Cd170 O171 2.240 . S
Cd170 O178 2.223 . S
Cd170 O180 2.297 . S
Cd170 O181 2.439 . S
O171 Cd170 2.240 . S
O171 C176 1.279 . S
O172 Cd169 2.287 1_455 S
O172 C174 1.240 1_455 S
O173 Cd169 2.439 . S
O173 C174 1.208 . S
C174 O172 1.240 1_655 S
C174 O173 1.208 . S
C175 O180 1.247 . S
C175 O181 1.208 . S
C176 O168 1.315 . S
C176 O171 1.279 . S
C177 O178 1.315 . S
C177 O179 1.279 . S
O178 Cd170 2.223 . S
O178 C177 1.315 . S
O179 Cd169 2.240 . S
O179 C177 1.279 . S
O180 Cd170 2.297 . S
O180 C175 1.247 . S
O181 Cd170 2.439 . S
O181 C175 1.208 . S
O182 Cd183 2.223 . S
O182 C190 1.315 . S
Cd183 O182 2.223 . S
Cd183 O186 2.297 . S
Cd183 O187 2.439 . S
Cd183 O193 2.240 . S
Cd184 O185 2.240 . S
Cd184 O192 2.223 . S
Cd184 O194 2.297 . S
Cd184 O195 2.439 . S
O185 Cd184 2.240 . S
O185 C190 1.279 . S
O186 Cd183 2.297 . S
O186 C188 1.247 . S
O187 Cd183 2.439 . S
O187 C188 1.208 . S
C188 O186 1.247 . S
C188 O187 1.208 . S
C189 O194 1.247 . S
C189 O195 1.208 . S
C190 O182 1.315 . S
C190 O185 1.279 . S
C191 O192 1.315 . S
C191 O193 1.279 . S
O192 Cd184 2.223 . S
O192 C191 1.315 . S
O193 Cd183 2.240 . S
O193 C191 1.279 . S
O194 Cd184 2.297 . S
O194 C189 1.247 . S
O195 Cd184 2.439 . S
O195 C189 1.208 . S
O196 Cd197 2.223 . S
O196 C204 1.315 . S
Cd197 O196 2.223 . S
Cd197 O200 2.287 1_655 S
Cd197 O201 2.439 . S
Cd197 O207 2.240 . S
Cd198 O199 2.240 . S
Cd198 O206 2.223 . S
Cd198 O208 2.297 . S
Cd198 O209 2.439 . S
O199 Cd198 2.240 . S
O199 C204 1.279 . S
O200 Cd197 2.287 1_455 S
O200 C202 1.239 1_455 S
O201 Cd197 2.439 . S
O201 C202 1.208 . S
C202 O200 1.239 1_655 S
C202 O201 1.208 . S
C203 O208 1.247 . S
C203 O209 1.208 . S
C204 O196 1.315 . S
C204 O199 1.279 . S
C205 O206 1.315 . S
C205 O207 1.279 . S
O206 Cd198 2.223 . S
O206 C205 1.315 . S
O207 Cd197 2.240 . S
O207 C205 1.279 . S
O208 Cd198 2.297 . S
O208 C203 1.247 . S
O209 Cd198 2.439 . S
O209 C203 1.208 . S
O210 Cd211 2.223 . S
O210 C218 1.315 . S
Cd211 O210 2.223 . S
Cd211 O214 2.297 . S
Cd211 O215 2.439 . S
Cd211 O221 2.240 . S
Cd212 O213 2.240 . S
Cd212 O220 2.223 . S
Cd212 O222 2.297 . S
Cd212 O223 2.439 . S
O213 Cd212 2.240 . S
O213 C218 1.279 . S
O214 Cd211 2.297 . S
O214 C216 1.247 . S
O215 Cd211 2.439 . S
O215 C216 1.208 . S
C216 O214 1.247 . S
C216 O215 1.208 . S
C217 O222 1.247 . S
C217 O223 1.208 . S
C218 O210 1.315 . S
C218 O213 1.279 . S
C219 O220 1.315 . S
C219 O221 1.279 . S
O220 Cd212 2.223 . S
O220 C219 1.315 . S
O221 Cd211 2.240 . S
O221 C219 1.279 . S
O222 Cd212 2.297 . S
O222 C217 1.247 . S
O223 Cd212 2.439 . S
O223 C217 1.208 . S
O224 Cd225 2.223 . S
O224 C232 1.315 . S
Cd225 O224 2.223 . S
Cd225 O228 2.297 . S
Cd225 O229 2.439 . S
Cd225 O235 2.240 . S
Cd226 O227 2.240 . S
Cd226 O234 2.223 . S
Cd226 O236 2.297 . S
Cd226 O237 2.439 . S
O227 Cd226 2.240 . S
O227 C232 1.279 . S
O228 Cd225 2.297 . S
O228 C230 1.247 . S
O229 Cd225 2.439 . S
O229 C230 1.208 . S
C230 O228 1.247 . S
C230 O229 1.208 . S
C231 O236 1.247 . S
C231 O237 1.208 . S
C232 O224 1.315 . S
C232 O227 1.279 . S
C233 O234 1.315 . S
C233 O235 1.279 . S
O234 Cd226 2.223 . S
O234 C233 1.315 . S
O235 Cd225 2.240 . S
O235 C233 1.279 . S
O236 Cd226 2.297 . S
O236 C231 1.247 . S
O237 Cd226 2.439 . S
O237 C231 1.208 . S
O238 Cd239 2.223 . S
O238 C246 1.315 . S
Cd239 O238 2.223 . S
Cd239 O242 2.297 . S
Cd239 O243 2.439 . S
Cd239 O249 2.240 . S
Cd240 O241 2.240 . S
Cd240 O248 2.223 . S
Cd240 O250 2.297 . S
Cd240 O251 2.439 . S
O241 Cd240 2.240 . S
O241 C246 1.279 . S
O242 Cd239 2.297 . S
O242 C244 1.247 . S
O243 Cd239 2.439 . S
O243 C244 1.208 . S
C244 O242 1.247 . S
C244 O243 1.208 . S
C245 O250 1.247 . S
C245 O251 1.208 . S
C246 O238 1.315 . S
C246 O241 1.279 . S
C247 O248 1.315 . S
C247 O249 1.279 . S
O248 Cd240 2.223 . S
O248 C247 1.315 . S
O249 Cd239 2.240 . S
O249 C247 1.279 . S
O250 Cd240 2.297 . S
O250 C245 1.247 . S
O251 Cd240 2.439 . S
O251 C245 1.208 . S
O252 Cd253 2.223 . S
O252 C260 1.315 . S
Cd253 O252 2.223 . S
Cd253 O256 2.297 . S
Cd253 O257 2.439 . S
Cd253 O263 2.240 . S
Cd254 O255 2.240 . S
Cd254 O262 2.223 . S
Cd254 O264 2.297 . S
Cd254 O265 2.439 . S
O255 Cd254 2.240 . S
O255 C260 1.279 . S
O256 Cd253 2.297 . S
O256 C258 1.247 . S
O257 Cd253 2.439 . S
O257 C258 1.208 . S
C258 O256 1.247 . S
C258 O257 1.208 . S
C259 O264 1.247 . S
C259 O265 1.208 . S
C260 O252 1.315 . S
C260 O255 1.279 . S
C261 O262 1.315 . S
C261 O263 1.279 . S
O262 Cd254 2.223 . S
O262 C261 1.315 . S
O263 Cd253 2.240 . S
O263 C261 1.279 . S
O264 Cd254 2.297 . S
O264 C259 1.247 . S
O265 Cd254 2.439 . S
O265 C259 1.208 . S
O266 Cd267 2.223 . S
O266 C274 1.315 . S
Cd267 O266 2.223 . S
Cd267 O270 2.297 . S
Cd267 O271 2.439 . S
Cd267 O277 2.240 . S
Cd268 O269 2.240 . S
Cd268 O276 2.223 . S
Cd268 O278 2.297 . S
Cd268 O279 2.439 . S
O269 Cd268 2.240 . S
O269 C274 1.279 . S
O270 Cd267 2.297 . S
O270 C272 1.247 . S
O271 Cd267 2.439 . S
O271 C272 1.208 . S
C272 O270 1.247 . S
C272 O271 1.208 . S
C273 O278 1.247 . S
C273 O279 1.208 . S
C274 O266 1.315 . S
C274 O269 1.279 . S
C275 O276 1.315 . S
C275 O277 1.279 . S
O276 Cd268 2.223 . S
O276 C275 1.315 . S
O277 Cd267 2.240 . S
O277 C275 1.279 . S
O278 Cd268 2.297 . S
O278 C273 1.247 . S
O279 Cd268 2.439 . S
O279 C273 1.208 . S
O280 Cd281 2.223 . S
O280 C288 1.315 . S
Cd281 O280 2.223 . S
Cd281 O284 2.297 . S
Cd281 O285 2.439 . S
Cd281 O291 2.240 . S
Cd282 O283 2.240 . S
Cd282 O290 2.223 . S
Cd282 O292 2.297 . S
Cd282 O293 2.439 . S
O283 Cd282 2.240 . S
O283 C288 1.279 . S
O284 Cd281 2.297 . S
O284 C286 1.247 . S
O285 Cd281 2.439 . S
O285 C286 1.208 . S
C286 O284 1.247 . S
C286 O285 1.208 . S
C287 O292 1.247 . S
C287 O293 1.208 . S
C288 O280 1.315 . S
C288 O283 1.279 . S
C289 O290 1.315 . S
C289 O291 1.279 . S
O290 Cd282 2.223 . S
O290 C289 1.315 . S
O291 Cd281 2.240 . S
O291 C289 1.279 . S
O292 Cd282 2.297 . S
O292 C287 1.247 . S
O293 Cd282 2.439 . S
O293 C287 1.208 . S
O294 Cd295 2.223 . S
O294 C302 1.315 . S
Cd295 O294 2.223 . S
Cd295 O298 2.297 . S
Cd295 O299 2.439 . S
Cd295 O305 2.240 . S
Cd296 O297 2.240 . S
Cd296 O304 2.223 . S
Cd296 O306 2.297 . S
Cd296 O307 2.439 . S
O297 Cd296 2.240 . S
O297 C302 1.279 . S
O298 Cd295 2.297 . S
O298 C300 1.247 . S
O299 Cd295 2.439 . S
O299 C300 1.208 . S
C300 O298 1.247 . S
C300 O299 1.208 . S
C301 O306 1.247 . S
C301 O307 1.208 . S
C302 O294 1.315 . S
C302 O297 1.279 . S
C303 O304 1.315 . S
C303 O305 1.279 . S
O304 Cd296 2.223 . S
O304 C303 1.315 . S
O305 Cd295 2.240 . S
O305 C303 1.279 . S
O306 Cd296 2.297 . S
O306 C301 1.247 . S
O307 Cd296 2.439 . S
O307 C301 1.208 . S
O308 Cd309 2.223 . S
O308 C316 1.315 . S
Cd309 O308 2.223 . S
Cd309 O312 2.297 . S
Cd309 O313 2.439 . S
Cd309 O319 2.240 . S
Cd310 O311 2.240 . S
Cd310 O318 2.223 . S
Cd310 O320 2.297 . S
Cd310 O321 2.439 . S
O311 Cd310 2.240 . S
O311 C316 1.279 . S
O312 Cd309 2.297 . S
O312 C314 1.247 . S
O313 Cd309 2.439 . S
O313 C314 1.208 . S
C314 O312 1.247 . S
C314 O313 1.208 . S
C315 O320 1.247 . S
C315 O321 1.208 . S
C316 O308 1.315 . S
C316 O311 1.279 . S
C317 O318 1.315 . S
C317 O319 1.279 . S
O318 Cd310 2.223 . S
O318 C317 1.315 . S
O319 Cd309 2.240 . S
O319 C317 1.279 . S
O320 Cd310 2.297 . S
O320 C315 1.247 . S
O321 Cd310 2.439 . S
O321 C315 1.208 . S
O322 Cd323 2.223 . S
O322 C330 1.315 . S
Cd323 O322 2.223 . S
Cd323 O326 2.297 . S
Cd323 O327 2.439 . S
Cd323 O333 2.240 . S
Cd324 O325 2.240 . S
Cd324 O332 2.223 . S
Cd324 O334 2.297 . S
Cd324 O335 2.439 . S
O325 Cd324 2.240 . S
O325 C330 1.279 . S
O326 Cd323 2.297 . S
O326 C328 1.247 . S
O327 Cd323 2.439 . S
O327 C328 1.208 . S
C328 O326 1.247 . S
C328 O327 1.208 . S
C329 O334 1.247 . S
C329 O335 1.208 . S
C330 O322 1.315 . S
C330 O325 1.279 . S
C331 O332 1.315 . S
C331 O333 1.279 . S
O332 Cd324 2.223 . S
O332 C331 1.315 . S
O333 Cd323 2.240 . S
O333 C331 1.279 . S
O334 Cd324 2.297 . S
O334 C329 1.247 . S
O335 Cd324 2.439 . S
O335 C329 1.208 . S
O336 Cd337 2.223 . S
O336 C344 1.315 . S
Cd337 O336 2.223 . S
Cd337 O340 2.297 . S
Cd337 O341 2.439 . S
Cd337 O347 2.240 . S
Cd338 O339 2.240 . S
Cd338 O346 2.223 . S
Cd338 O348 2.297 . S
Cd338 O349 2.439 . S
O339 Cd338 2.240 . S
O339 C344 1.279 . S
O340 Cd337 2.297 . S
O340 C342 1.247 . S
O341 Cd337 2.439 . S
O341 C342 1.208 . S
C342 O340 1.247 . S
C342 O341 1.208 . S
C343 O348 1.247 . S
C343 O349 1.208 . S
C344 O336 1.315 . S
C344 O339 1.279 . S
C345 O346 1.315 . S
C345 O347 1.279 . S
O346 Cd338 2.223 . S
O346 C345 1.315 . S
O347 Cd337 2.240 . S
O347 C345 1.279 . S
O348 Cd338 2.297 . S
O348 C343 1.247 . S
O349 Cd338 2.439 . S
O349 C343 1.208 . S
O350 Cd351 2.223 . S
O350 C358 1.315 . S
Cd351 O350 2.223 . S
Cd351 O354 2.297 . S
Cd351 O355 2.439 . S
Cd351 O361 2.240 . S
Cd352 O353 2.240 . S
Cd352 O360 2.223 . S
Cd352 O362 2.297 . S
Cd352 O363 2.439 . S
O353 Cd352 2.240 . S
O353 C358 1.279 . S
O354 Cd351 2.297 . S
O354 C356 1.247 . S
O355 Cd351 2.439 . S
O355 C356 1.208 . S
C356 O354 1.247 . S
C356 O355 1.208 . S
C357 O362 1.247 . S
C357 O363 1.208 . S
C358 O350 1.315 . S
C358 O353 1.279 . S
C359 O360 1.315 . S
C359 O361 1.279 . S
O360 Cd352 2.223 . S
O360 C359 1.315 . S
O361 Cd351 2.240 . S
O361 C359 1.279 . S
O362 Cd352 2.297 . S
O362 C357 1.247 . S
O363 Cd352 2.439 . S
O363 C357 1.208 . S
O364 Cd365 2.223 . S
O364 C372 1.315 . S
Cd365 O364 2.223 . S
Cd365 O368 2.297 . S
Cd365 O369 2.439 . S
Cd365 O375 2.240 1_556 S
Cd366 O367 2.240 . S
Cd366 O374 2.223 1_556 S
Cd366 O376 2.287 1_556 S
Cd366 O377 2.439 . S
O367 Cd366 2.240 . S
O367 C372 1.279 . S
O368 Cd365 2.297 . S
O368 C370 1.247 . S
O369 Cd365 2.439 . S
O369 C370 1.208 . S
C370 O368 1.247 . S
C370 O369 1.208 . S
C371 O376 1.223 1_556 S
C371 O377 1.208 . S
C372 O364 1.315 . S
C372 O367 1.279 . S
C373 O374 1.315 . S
C373 O375 1.279 . S
O374 Cd366 2.223 1_554 S
O374 C373 1.315 . S
O375 Cd365 2.240 1_554 S
O375 C373 1.279 . S
O376 Cd366 2.287 1_554 S
O376 C371 1.223 1_554 S
O377 Cd366 2.439 . S
O377 C371 1.208 . S
O378 Cd379 2.223 . S
O378 C386 1.315 . S
Cd379 O378 2.223 . S
Cd379 O382 2.297 . S
Cd379 O383 2.439 . S
Cd379 O389 2.240 1_556 S
Cd380 O381 2.240 . S
Cd380 O388 2.223 1_556 S
Cd380 O390 2.287 1_556 S
Cd380 O391 2.439 . S
O381 Cd380 2.240 . S
O381 C386 1.279 . S
O382 Cd379 2.297 . S
O382 C384 1.247 . S
O383 Cd379 2.439 . S
O383 C384 1.208 . S
C384 O382 1.247 . S
C384 O383 1.208 . S
C385 O390 1.223 1_556 S
C385 O391 1.208 . S
C386 O378 1.315 . S
C386 O381 1.279 . S
C387 O388 1.315 . S
C387 O389 1.279 . S
O388 Cd380 2.223 1_554 S
O388 C387 1.315 . S
O389 Cd379 2.240 1_554 S
O389 C387 1.279 . S
O390 Cd380 2.287 1_554 S
O390 C385 1.223 1_554 S
O391 Cd380 2.439 . S
O391 C385 1.208 . S
O392 Cd393 2.223 . S
O392 C400 1.315 . S
Cd393 O392 2.223 . S
Cd393 O396 2.297 . S
Cd393 O397 2.439 . S
Cd393 O403 2.240 . S
Cd394 O395 2.240 . S
Cd394 O402 2.223 . S
Cd394 O404 2.297 . S
Cd394 O405 2.439 . S
O395 Cd394 2.240 . S
O395 C400 1.279 . S
O396 Cd393 2.297 . S
O396 C398 1.247 . S
O397 Cd393 2.439 . S
O397 C398 1.208 . S
C398 O396 1.247 . S
C398 O397 1.208 . S
C399 O404 1.247 . S
C399 O405 1.208 . S
C400 O392 1.315 . S
C400 O395 1.279 . S
C401 O402 1.315 . S
C401 O403 1.279 . S
O402 Cd394 2.223 . S
O402 C401 1.315 . S
O403 Cd393 2.240 . S
O403 C401 1.279 . S
O404 Cd394 2.297 . S
O404 C399 1.247 . S
O405 Cd394 2.439 . S
O405 C399 1.208 . S
O406 Cd407 2.223 . S
O406 C414 1.315 . S
Cd407 O406 2.223 . S
Cd407 O410 2.297 . S
Cd407 O411 2.439 . S
Cd407 O417 2.240 . S
Cd408 O409 2.240 . S
Cd408 O416 2.223 . S
Cd408 O418 2.297 . S
Cd408 O419 2.439 . S
O409 Cd408 2.240 . S
O409 C414 1.279 . S
O410 Cd407 2.297 . S
O410 C412 1.247 . S
O411 Cd407 2.439 . S
O411 C412 1.208 . S
C412 O410 1.247 . S
C412 O411 1.208 . S
C413 O418 1.247 . S
C413 O419 1.208 . S
C414 O406 1.315 . S
C414 O409 1.279 . S
C415 O416 1.315 . S
C415 O417 1.279 . S
O416 Cd408 2.223 . S
O416 C415 1.315 . S
O417 Cd407 2.240 . S
O417 C415 1.279 . S
O418 Cd408 2.297 . S
O418 C413 1.247 . S
O419 Cd408 2.439 . S
O419 C413 1.208 . S
O420 Cd421 2.223 . S
O420 C428 1.315 . S
Cd421 O420 2.223 . S
Cd421 O424 2.297 . S
Cd421 O425 2.439 . S
Cd421 O431 2.240 1_554 S
Cd422 O423 2.240 . S
Cd422 O430 2.223 1_554 S
Cd422 O432 2.287 1_554 S
Cd422 O433 2.439 . S
O423 Cd422 2.240 . S
O423 C428 1.279 . S
O424 Cd421 2.297 . S
O424 C426 1.247 . S
O425 Cd421 2.439 . S
O425 C426 1.208 . S
C426 O424 1.247 . S
C426 O425 1.208 . S
C427 O432 1.223 1_554 S
C427 O433 1.208 . S
C428 O420 1.315 . S
C428 O423 1.279 . S
C429 O430 1.315 . S
C429 O431 1.279 . S
O430 Cd422 2.223 1_556 S
O430 C429 1.315 . S
O431 Cd421 2.240 1_556 S
O431 C429 1.279 . S
O432 Cd422 2.287 1_556 S
O432 C427 1.223 1_556 S
O433 Cd422 2.439 . S
O433 C427 1.208 . S
O434 Cd435 2.223 . S
O434 C442 1.315 . S
Cd435 O434 2.223 . S
Cd435 O438 2.297 . S
Cd435 O439 2.439 . S
Cd435 O445 2.240 1_554 S
Cd436 O437 2.240 . S
Cd436 O444 2.223 1_554 S
Cd436 O446 2.287 1_554 S
Cd436 O447 2.439 . S
O437 Cd436 2.240 . S
O437 C442 1.279 . S
O438 Cd435 2.297 . S
O438 C440 1.247 . S
O439 Cd435 2.439 . S
O439 C440 1.208 . S
C440 O438 1.247 . S
C440 O439 1.208 . S
C441 O446 1.223 1_554 S
C441 O447 1.208 . S
C442 O434 1.315 . S
C442 O437 1.279 . S
C443 O444 1.315 . S
C443 O445 1.279 . S
O444 Cd436 2.223 1_556 S
O444 C443 1.315 . S
O445 Cd435 2.240 1_556 S
O445 C443 1.279 . S
O446 Cd436 2.287 1_556 S
O446 C441 1.223 1_556 S
O447 Cd436 2.439 . S
O447 C441 1.208 . S
C448 C449 1.349 . S
C448 C450 1.327 . S
C448 H473 0.950 . S
C449 C448 1.349 . S
C449 C465 1.349 . S
C450 C448 1.327 . S
C450 C469 1.429 . S
C450 H474 0.950 . S
C451 C468 1.574 . S
C451 C470 1.368 . S
C451 H475 0.949 . S
H452 C456 0.949 . S
C453 C454 1.349 . S
C453 C455 1.327 . S
C453 H476 0.950 . S
C454 C453 1.349 . S
C454 C466 1.349 . S
C455 C453 1.327 . S
C455 C471 1.429 . S
C455 H477 0.950 . S
C456 H452 0.949 . S
C456 C464 1.574 . S
C456 C472 1.368 . S
H457 C465 0.950 . S
H458 C463 0.950 . S
H459 C464 0.949 . S
H460 C466 0.950 . S
H461 C467 0.950 . S
H462 C468 0.949 . S
C463 H458 0.950 . S
C463 C465 1.327 . S
C463 C469 1.429 . S
C464 C456 1.574 . S
C464 H459 0.949 . S
C464 C470 1.368 . S
C465 C449 1.349 . S
C465 H457 0.950 . S
C465 C463 1.327 . S
C466 C454 1.349 . S
C466 H460 0.950 . S
C466 C467 1.327 . S
C467 H461 0.950 . S
C467 C466 1.327 . S
C467 C471 1.429 . S
C468 C451 1.574 . S
C468 H462 0.949 . S
C468 C472 1.368 . S
C469 C450 1.429 . S
C469 C463 1.429 . S
C469 C470 1.523 . S
C470 C451 1.368 . S
C470 C464 1.368 . S
C470 C469 1.523 . S
C471 C455 1.429 . S
C471 C467 1.429 . S
C471 C472 1.523 . S
C472 C456 1.368 . S
C472 C468 1.368 . S
C472 C471 1.523 . S
H473 C448 0.950 . S
H474 C450 0.950 . S
H475 C451 0.949 . S
H476 C453 0.950 . S
H477 C455 0.950 . S
C478 C479 1.349 . S
C478 C480 1.327 . S
C478 H503 0.950 . S
C479 C478 1.349 . S
C479 C495 1.349 . S
C480 C478 1.327 . S
C480 C499 1.429 . S
C480 H504 0.950 . S
C481 C498 1.574 . S
C481 C500 1.368 . S
C481 H505 0.949 . S
H482 C486 0.949 . S
C483 C484 1.349 . S
C483 C485 1.327 . S
C483 H506 0.950 . S
C484 C483 1.349 . S
C484 C496 1.349 . S
C485 C483 1.327 . S
C485 C501 1.429 . S
C485 H507 0.950 . S
C486 H482 0.949 . S
C486 C494 1.574 . S
C486 C502 1.368 . S
H487 C495 0.950 . S
H488 C493 0.950 . S
H489 C494 0.949 . S
H490 C496 0.950 . S
H491 C497 0.950 . S
H492 C498 0.949 . S
C493 H488 0.950 . S
C493 C495 1.327 . S
C493 C499 1.429 . S
C494 C486 1.574 . S
C494 H489 0.949 . S
C494 C500 1.368 . S
C495 C479 1.349 . S
C495 H487 0.950 . S
C495 C493 1.327 . S
C496 C484 1.349 . S
C496 H490 0.950 . S
C496 C497 1.327 . S
C497 H491 0.950 . S
C497 C496 1.327 . S
C497 C501 1.429 . S
C498 C481 1.574 . S
C498 H492 0.949 . S
C498 C502 1.368 . S
C499 C480 1.429 . S
C499 C493 1.429 . S
C499 C500 1.523 . S
C500 C481 1.368 . S
C500 C494 1.368 . S
C500 C499 1.523 . S
C501 C485 1.429 . S
C501 C497 1.429 . S
C501 C502 1.523 . S
C502 C486 1.368 . S
C502 C498 1.368 . S
C502 C501 1.523 . S
H503 C478 0.950 . S
H504 C480 0.950 . S
H505 C481 0.949 . S
H506 C483 0.950 . S
H507 C485 0.950 . S
C508 C509 1.349 . S
C508 C510 1.327 . S
C508 H533 0.950 . S
C509 C508 1.349 . S
C509 C525 1.349 . S
C510 C508 1.327 . S
C510 C529 1.429 . S
C510 H534 0.950 . S
C511 C528 1.574 . S
C511 C530 1.368 . S
C511 H535 0.949 . S
H512 C516 0.949 . S
C513 C514 1.349 . S
C513 C515 1.327 . S
C513 H536 0.950 . S
C514 C513 1.349 . S
C514 C526 1.349 . S
C515 C513 1.327 . S
C515 C531 1.429 . S
C515 H537 0.950 . S
C516 H512 0.949 . S
C516 C524 1.574 . S
C516 C532 1.368 . S
H517 C525 0.950 . S
H518 C523 0.950 . S
H519 C524 0.949 . S
H520 C526 0.950 . S
H521 C527 0.950 . S
H522 C528 0.949 . S
C523 H518 0.950 . S
C523 C525 1.327 . S
C523 C529 1.429 . S
C524 C516 1.574 . S
C524 H519 0.949 . S
C524 C530 1.368 . S
C525 C509 1.349 . S
C525 H517 0.950 . S
C525 C523 1.327 . S
C526 C514 1.349 . S
C526 H520 0.950 . S
C526 C527 1.327 . S
C527 H521 0.950 . S
C527 C526 1.327 . S
C527 C531 1.429 . S
C528 C511 1.574 . S
C528 H522 0.949 . S
C528 C532 1.368 . S
C529 C510 1.429 . S
C529 C523 1.429 . S
C529 C530 1.523 . S
C530 C511 1.368 . S
C530 C524 1.368 . S
C530 C529 1.523 . S
C531 C515 1.429 . S
C531 C527 1.429 . S
C531 C532 1.523 . S
C532 C516 1.368 . S
C532 C528 1.368 . S
C532 C531 1.523 . S
H533 C508 0.950 . S
H534 C510 0.950 . S
H535 C511 0.949 . S
H536 C513 0.950 . S
H537 C515 0.950 . S
C538 C539 1.349 . S
C538 C540 1.327 . S
C538 H563 0.950 . S
C539 C538 1.349 . S
C539 C555 1.349 . S
C540 C538 1.327 . S
C540 C559 1.429 . S
C540 H564 0.950 . S
C541 C558 1.574 . S
C541 C560 1.368 . S
C541 H565 0.949 . S
H542 C546 0.949 . S
C543 C544 1.349 . S
C543 C545 1.327 . S
C543 H566 0.950 . S
C544 C543 1.349 . S
C544 C556 1.349 . S
C545 C543 1.327 . S
C545 C561 1.429 . S
C545 H567 0.950 . S
C546 H542 0.949 . S
C546 C554 1.574 . S
C546 C562 1.368 . S
H547 C555 0.950 . S
H548 C553 0.950 . S
H549 C554 0.949 . S
H550 C556 0.950 . S
H551 C557 0.950 . S
H552 C558 0.949 . S
C553 H548 0.950 . S
C553 C555 1.327 . S
C553 C559 1.429 . S
C554 C546 1.574 . S
C554 H549 0.949 . S
C554 C560 1.368 . S
C555 C539 1.349 . S
C555 H547 0.950 . S
C555 C553 1.327 . S
C556 C544 1.349 . S
C556 H550 0.950 . S
C556 C557 1.327 . S
C557 H551 0.950 . S
C557 C556 1.327 . S
C557 C561 1.429 . S
C558 C541 1.574 . S
C558 H552 0.949 . S
C558 C562 1.368 . S
C559 C540 1.429 . S
C559 C553 1.429 . S
C559 C560 1.523 . S
C560 C541 1.368 . S
C560 C554 1.368 . S
C560 C559 1.523 . S
C561 C545 1.429 . S
C561 C557 1.429 . S
C561 C562 1.523 . S
C562 C546 1.368 . S
C562 C558 1.368 . S
C562 C561 1.523 . S
H563 C538 0.950 . S
H564 C540 0.950 . S
H565 C541 0.949 . S
H566 C543 0.950 . S
H567 C545 0.950 . S
C568 C569 1.349 . S
C568 C570 1.327 . S
C568 H593 0.950 . S
C569 C568 1.349 . S
C569 C585 1.349 . S
C570 C568 1.327 . S
C570 C589 1.429 . S
C570 H594 0.950 . S
C571 C588 1.574 . S
C571 C590 1.368 . S
C571 H595 0.949 . S
H572 C576 0.949 . S
C573 C574 1.349 . S
C573 C575 1.327 . S
C573 H596 0.950 . S
C574 C573 1.349 . S
C574 C586 1.349 . S
C575 C573 1.327 . S
C575 C591 1.429 . S
C575 H597 0.950 . S
C576 H572 0.949 . S
C576 C584 1.574 . S
C576 C592 1.368 . S
H577 C585 0.950 . S
H578 C583 0.950 . S
H579 C584 0.949 . S
H580 C586 0.950 . S
H581 C587 0.950 . S
H582 C588 0.949 . S
C583 H578 0.950 . S
C583 C585 1.327 . S
C583 C589 1.429 . S
C584 C576 1.574 . S
C584 H579 0.949 . S
C584 C590 1.368 . S
C585 C569 1.349 . S
C585 H577 0.950 . S
C585 C583 1.327 . S
C586 C574 1.349 . S
C586 H580 0.950 . S
C586 C587 1.327 . S
C587 H581 0.950 . S
C587 C586 1.327 . S
C587 C591 1.429 . S
C588 C571 1.574 . S
C588 H582 0.949 . S
C588 C592 1.368 . S
C589 C570 1.429 . S
C589 C583 1.429 . S
C589 C590 1.523 . S
C590 C571 1.368 . S
C590 C584 1.368 . S
C590 C589 1.523 . S
C591 C575 1.429 . S
C591 C587 1.429 . S
C591 C592 1.523 . S
C592 C576 1.368 . S
C592 C588 1.368 . S
C592 C591 1.523 . S
H593 C568 0.950 . S
H594 C570 0.950 . S
H595 C571 0.949 . S
H596 C573 0.950 . S
H597 C575 0.950 . S
C598 C599 1.349 . S
C598 C600 1.327 . S
C598 H623 0.950 . S
C599 C598 1.349 . S
C599 C615 1.349 . S
C600 C598 1.327 . S
C600 C619 1.429 . S
C600 H624 0.950 . S
C601 C618 1.574 . S
C601 C620 1.368 . S
C601 H625 0.949 . S
H602 C606 0.949 . S
C603 C604 1.349 . S
C603 C605 1.327 . S
C603 H626 0.950 . S
C604 C603 1.349 . S
C604 C616 1.349 . S
C605 C603 1.327 . S
C605 C621 1.429 . S
C605 H627 0.950 . S
C606 H602 0.949 . S
C606 C614 1.574 . S
C606 C622 1.368 . S
H607 C615 0.950 . S
H608 C613 0.950 . S
H609 C614 0.949 . S
H610 C616 0.950 . S
H611 C617 0.950 . S
H612 C618 0.949 . S
C613 H608 0.950 . S
C613 C615 1.327 . S
C613 C619 1.429 . S
C614 C606 1.574 . S
C614 H609 0.949 . S
C614 C620 1.368 . S
C615 C599 1.349 . S
C615 H607 0.950 . S
C615 C613 1.327 . S
C616 C604 1.349 . S
C616 H610 0.950 . S
C616 C617 1.327 . S
C617 H611 0.950 . S
C617 C616 1.327 . S
C617 C621 1.429 . S
C618 C601 1.574 . S
C618 H612 0.949 . S
C618 C622 1.368 . S
C619 C600 1.429 . S
C619 C613 1.429 . S
C619 C620 1.523 . S
C620 C601 1.368 . S
C620 C614 1.368 . S
C620 C619 1.523 . S
C621 C605 1.429 . S
C621 C617 1.429 . S
C621 C622 1.523 . S
C622 C606 1.368 . S
C622 C618 1.368 . S
C622 C621 1.523 . S
H623 C598 0.950 . S
H624 C600 0.950 . S
H625 C601 0.949 . S
H626 C603 0.950 . S
H627 C605 0.950 . S
C628 C629 1.349 . S
C628 C630 1.327 . S
C628 H653 0.950 . S
C629 C628 1.349 . S
C629 C645 1.349 . S
C630 C628 1.327 . S
C630 C649 1.429 . S
C630 H654 0.950 . S
C631 C648 1.574 . S
C631 C650 1.368 . S
C631 H655 0.949 . S
H632 C636 0.949 . S
C633 C634 1.349 . S
C633 C635 1.327 . S
C633 H656 0.950 . S
C634 C633 1.349 . S
C634 C646 1.349 . S
C635 C633 1.327 . S
C635 C651 1.429 . S
C635 H657 0.950 . S
C636 H632 0.949 . S
C636 C644 1.574 . S
C636 C652 1.368 . S
H637 C645 0.950 . S
H638 C643 0.950 . S
H639 C644 0.949 . S
H640 C646 0.950 . S
H641 C647 0.950 . S
H642 C648 0.949 . S
C643 H638 0.950 . S
C643 C645 1.327 . S
C643 C649 1.429 . S
C644 C636 1.574 . S
C644 H639 0.949 . S
C644 C650 1.368 . S
C645 C629 1.349 . S
C645 H637 0.950 . S
C645 C643 1.327 . S
C646 C634 1.349 . S
C646 H640 0.950 . S
C646 C647 1.327 . S
C647 H641 0.950 . S
C647 C646 1.327 . S
C647 C651 1.429 . S
C648 C631 1.574 . S
C648 H642 0.949 . S
C648 C652 1.368 . S
C649 C630 1.429 . S
C649 C643 1.429 . S
C649 C650 1.523 . S
C650 C631 1.368 . S
C650 C644 1.368 . S
C650 C649 1.523 . S
C651 C635 1.429 . S
C651 C647 1.429 . S
C651 C652 1.523 . S
C652 C636 1.368 . S
C652 C648 1.368 . S
C652 C651 1.523 . S
H653 C628 0.950 . S
H654 C630 0.950 . S
H655 C631 0.949 . S
H656 C633 0.950 . S
H657 C635 0.950 . S
C658 C659 1.349 . S
C658 C660 1.327 . S
C658 H683 0.950 . S
C659 C658 1.349 . S
C659 C675 1.349 . S
C660 C658 1.327 . S
C660 C679 1.429 . S
C660 H684 0.950 . S
C661 C678 1.574 . S
C661 C680 1.368 . S
C661 H685 0.949 . S
H662 C666 0.949 . S
C663 C664 1.349 . S
C663 C665 1.327 . S
C663 H686 0.950 . S
C664 C663 1.349 . S
C664 C676 1.349 . S
C665 C663 1.327 . S
C665 C681 1.429 . S
C665 H687 0.950 . S
C666 H662 0.949 . S
C666 C674 1.574 . S
C666 C682 1.368 . S
H667 C675 0.950 . S
H668 C673 0.950 . S
H669 C674 0.949 . S
H670 C676 0.950 . S
H671 C677 0.950 . S
H672 C678 0.949 . S
C673 H668 0.950 . S
C673 C675 1.327 . S
C673 C679 1.429 . S
C674 C666 1.574 . S
C674 H669 0.949 . S
C674 C680 1.368 . S
C675 C659 1.349 . S
C675 H667 0.950 . S
C675 C673 1.327 . S
C676 C664 1.349 . S
C676 H670 0.950 . S
C676 C677 1.327 . S
C677 H671 0.950 . S
C677 C676 1.327 . S
C677 C681 1.429 . S
C678 C661 1.574 . S
C678 H672 0.949 . S
C678 C682 1.368 . S
C679 C660 1.429 . S
C679 C673 1.429 . S
C679 C680 1.523 . S
C680 C661 1.368 . S
C680 C674 1.368 . S
C680 C679 1.523 . S
C681 C665 1.429 . S
C681 C677 1.429 . S
C681 C682 1.523 . S
C682 C666 1.368 . S
C682 C678 1.368 . S
C682 C681 1.523 . S
H683 C658 0.950 . S
H684 C660 0.950 . S
H685 C661 0.949 . S
H686 C663 0.950 . S
H687 C665 0.950 . S
C688 C689 1.349 . S
C688 C690 1.327 . S
C688 H713 0.950 . S
C689 C688 1.349 . S
C689 C705 1.349 . S
C690 C688 1.327 . S
C690 C709 1.429 . S
C690 H714 0.950 . S
C691 C708 1.574 . S
C691 C710 1.368 . S
C691 H715 0.949 . S
H692 C696 0.949 . S
C693 C694 1.349 . S
C693 C695 1.327 . S
C693 H716 0.950 . S
C694 C693 1.349 . S
C694 C706 1.349 . S
C695 C693 1.327 . S
C695 C711 1.429 . S
C695 H717 0.950 . S
C696 H692 0.949 . S
C696 C704 1.574 . S
C696 C712 1.368 . S
H697 C705 0.950 . S
H698 C703 0.950 . S
H699 C704 0.949 . S
H700 C706 0.950 . S
H701 C707 0.950 . S
H702 C708 0.949 . S
C703 H698 0.950 . S
C703 C705 1.327 . S
C703 C709 1.429 . S
C704 C696 1.574 . S
C704 H699 0.949 . S
C704 C710 1.368 . S
C705 C689 1.349 . S
C705 H697 0.950 . S
C705 C703 1.327 . S
C706 C694 1.349 . S
C706 H700 0.950 . S
C706 C707 1.327 . S
C707 H701 0.950 . S
C707 C706 1.327 . S
C707 C711 1.429 . S
C708 C691 1.574 . S
C708 H702 0.949 . S
C708 C712 1.368 . S
C709 C690 1.429 . S
C709 C703 1.429 . S
C709 C710 1.523 . S
C710 C691 1.368 . S
C710 C704 1.368 . S
C710 C709 1.523 . S
C711 C695 1.429 . S
C711 C707 1.429 . S
C711 C712 1.523 . S
C712 C696 1.368 . S
C712 C708 1.368 . S
C712 C711 1.523 . S
H713 C688 0.950 . S
H714 C690 0.950 . S
H715 C691 0.949 . S
H716 C693 0.950 . S
H717 C695 0.950 . S
C718 C719 1.349 . S
C718 C720 1.327 . S
C718 H743 0.950 . S
C719 C718 1.349 . S
C719 C735 1.349 . S
C720 C718 1.327 . S
C720 C739 1.429 . S
C720 H744 0.950 . S
C721 C738 1.574 . S
C721 C740 1.368 . S
C721 H745 0.949 . S
H722 C726 0.949 . S
C723 C724 1.349 . S
C723 C725 1.327 . S
C723 H746 0.950 . S
C724 C723 1.349 . S
C724 C736 1.349 . S
C725 C723 1.327 . S
C725 C741 1.429 . S
C725 H747 0.950 . S
C726 H722 0.949 . S
C726 C734 1.574 . S
C726 C742 1.368 . S
H727 C735 0.950 . S
H728 C733 0.950 . S
H729 C734 0.949 . S
H730 C736 0.950 . S
H731 C737 0.950 . S
H732 C738 0.949 . S
C733 H728 0.950 . S
C733 C735 1.327 . S
C733 C739 1.429 . S
C734 C726 1.574 . S
C734 H729 0.949 . S
C734 C740 1.368 . S
C735 C719 1.349 . S
C735 H727 0.950 . S
C735 C733 1.327 . S
C736 C724 1.349 . S
C736 H730 0.950 . S
C736 C737 1.327 . S
C737 H731 0.950 . S
C737 C736 1.327 . S
C737 C741 1.429 . S
C738 C721 1.574 . S
C738 H732 0.949 . S
C738 C742 1.368 . S
C739 C720 1.429 . S
C739 C733 1.429 . S
C739 C740 1.523 . S
C740 C721 1.368 . S
C740 C734 1.368 . S
C740 C739 1.523 . S
C741 C725 1.429 . S
C741 C737 1.429 . S
C741 C742 1.523 . S
C742 C726 1.368 . S
C742 C738 1.368 . S
C742 C741 1.523 . S
H743 C718 0.950 . S
H744 C720 0.950 . S
H745 C721 0.949 . S
H746 C723 0.950 . S
H747 C725 0.950 . S
C748 C749 1.349 . S
C748 C750 1.327 . S
C748 H773 0.950 . S
C749 C748 1.349 . S
C749 C765 1.349 . S
C750 C748 1.327 . S
C750 C769 1.429 . S
C750 H774 0.950 . S
C751 C768 1.574 . S
C751 C770 1.368 . S
C751 H775 0.949 . S
H752 C756 0.949 . S
C753 C754 1.349 . S
C753 C755 1.327 . S
C753 H776 0.950 . S
C754 C753 1.349 . S
C754 C766 1.349 . S
C755 C753 1.327 . S
C755 C771 1.429 . S
C755 H777 0.950 . S
C756 H752 0.949 . S
C756 C764 1.574 . S
C756 C772 1.368 . S
H757 C765 0.950 . S
H758 C763 0.950 . S
H759 C764 0.949 . S
H760 C766 0.950 . S
H761 C767 0.950 . S
H762 C768 0.949 . S
C763 H758 0.950 . S
C763 C765 1.327 . S
C763 C769 1.429 . S
C764 C756 1.574 . S
C764 H759 0.949 . S
C764 C770 1.368 . S
C765 C749 1.349 . S
C765 H757 0.950 . S
C765 C763 1.327 . S
C766 C754 1.349 . S
C766 H760 0.950 . S
C766 C767 1.327 . S
C767 H761 0.950 . S
C767 C766 1.327 . S
C767 C771 1.429 . S
C768 C751 1.574 . S
C768 H762 0.949 . S
C768 C772 1.368 . S
C769 C750 1.429 . S
C769 C763 1.429 . S
C769 C770 1.523 . S
C770 C751 1.368 . S
C770 C764 1.368 . S
C770 C769 1.523 . S
C771 C755 1.429 . S
C771 C767 1.429 . S
C771 C772 1.523 . S
C772 C756 1.368 . S
C772 C768 1.368 . S
C772 C771 1.523 . S
H773 C748 0.950 . S
H774 C750 0.950 . S
H775 C751 0.949 . S
H776 C753 0.950 . S
H777 C755 0.950 . S
C778 C779 1.349 . S
C778 C780 1.327 . S
C778 H803 0.950 . S
C779 C778 1.349 . S
C779 C795 1.349 . S
C780 C778 1.327 . S
C780 C799 1.429 . S
C780 H804 0.950 . S
C781 C798 1.574 . S
C781 C800 1.368 . S
C781 H805 0.949 . S
H782 C786 0.949 . S
C783 C784 1.349 . S
C783 C785 1.327 . S
C783 H806 0.950 . S
C784 C783 1.349 . S
C784 C796 1.349 . S
C785 C783 1.327 . S
C785 C801 1.429 . S
C785 H807 0.950 . S
C786 H782 0.949 . S
C786 C794 1.574 . S
C786 C802 1.368 . S
H787 C795 0.950 . S
H788 C793 0.950 . S
H789 C794 0.949 . S
H790 C796 0.950 . S
H791 C797 0.950 . S
H792 C798 0.949 . S
C793 H788 0.950 . S
C793 C795 1.327 . S
C793 C799 1.429 . S
C794 C786 1.574 . S
C794 H789 0.949 . S
C794 C800 1.368 . S
C795 C779 1.349 . S
C795 H787 0.950 . S
C795 C793 1.327 . S
C796 C784 1.349 . S
C796 H790 0.950 . S
C796 C797 1.327 . S
C797 H791 0.950 . S
C797 C796 1.327 . S
C797 C801 1.429 . S
C798 C781 1.574 . S
C798 H792 0.949 . S
C798 C802 1.368 . S
C799 C780 1.429 . S
C799 C793 1.429 . S
C799 C800 1.523 . S
C800 C781 1.368 . S
C800 C794 1.368 . S
C800 C799 1.523 . S
C801 C785 1.429 . S
C801 C797 1.429 . S
C801 C802 1.523 . S
C802 C786 1.368 . S
C802 C798 1.368 . S
C802 C801 1.523 . S
H803 C778 0.950 . S
H804 C780 0.950 . S
H805 C781 0.949 . S
H806 C783 0.950 . S
H807 C785 0.950 . S
C808 C809 1.349 . S
C808 C810 1.327 . S
C808 H833 0.950 . S
C809 C808 1.349 . S
C809 C825 1.349 . S
C810 C808 1.327 . S
C810 C829 1.429 . S
C810 H834 0.950 . S
C811 C828 1.574 . S
C811 C830 1.368 . S
C811 H835 0.949 . S
H812 C816 0.949 . S
C813 C814 1.349 . S
C813 C815 1.327 . S
C813 H836 0.950 . S
C814 C813 1.349 . S
C814 C826 1.349 . S
C815 C813 1.327 . S
C815 C831 1.429 . S
C815 H837 0.950 . S
C816 H812 0.949 . S
C816 C824 1.574 . S
C816 C832 1.368 . S
H817 C825 0.950 . S
H818 C823 0.950 . S
H819 C824 0.949 . S
H820 C826 0.950 . S
H821 C827 0.950 . S
H822 C828 0.949 . S
C823 H818 0.950 . S
C823 C825 1.327 . S
C823 C829 1.429 . S
C824 C816 1.574 . S
C824 H819 0.949 . S
C824 C830 1.368 . S
C825 C809 1.349 . S
C825 H817 0.950 . S
C825 C823 1.327 . S
C826 C814 1.349 . S
C826 H820 0.950 . S
C826 C827 1.327 . S
C827 H821 0.950 . S
C827 C826 1.327 . S
C827 C831 1.429 . S
C828 C811 1.574 . S
C828 H822 0.949 . S
C828 C832 1.368 . S
C829 C810 1.429 . S
C829 C823 1.429 . S
C829 C830 1.523 . S
C830 C811 1.368 . S
C830 C824 1.368 . S
C830 C829 1.523 . S
C831 C815 1.429 . S
C831 C827 1.429 . S
C831 C832 1.523 . S
C832 C816 1.368 . S
C832 C828 1.368 . S
C832 C831 1.523 . S
H833 C808 0.950 . S
H834 C810 0.950 . S
H835 C811 0.949 . S
H836 C813 0.950 . S
H837 C815 0.950 . S
C838 C839 1.349 . S
C838 C840 1.327 . S
C838 H863 0.950 . S
C839 C838 1.349 . S
C839 C855 1.349 . S
C840 C838 1.327 . S
C840 C859 1.429 . S
C840 H864 0.950 . S
C841 C858 1.574 . S
C841 C860 1.368 . S
C841 H865 0.949 . S
H842 C846 0.949 . S
C843 C844 1.349 . S
C843 C845 1.327 . S
C843 H866 0.950 . S
C844 C843 1.349 . S
C844 C856 1.349 . S
C845 C843 1.327 . S
C845 C861 1.429 . S
C845 H867 0.950 . S
C846 H842 0.949 . S
C846 C854 1.574 . S
C846 C862 1.368 . S
H847 C855 0.950 . S
H848 C853 0.950 . S
H849 C854 0.949 . S
H850 C856 0.950 . S
H851 C857 0.950 . S
H852 C858 0.949 . S
C853 H848 0.950 . S
C853 C855 1.327 . S
C853 C859 1.429 . S
C854 C846 1.574 . S
C854 H849 0.949 . S
C854 C860 1.368 . S
C855 C839 1.349 . S
C855 H847 0.950 . S
C855 C853 1.327 . S
C856 C844 1.349 . S
C856 H850 0.950 . S
C856 C857 1.327 . S
C857 H851 0.950 . S
C857 C856 1.327 . S
C857 C861 1.429 . S
C858 C841 1.574 . S
C858 H852 0.949 . S
C858 C862 1.368 . S
C859 C840 1.429 . S
C859 C853 1.429 . S
C859 C860 1.523 . S
C860 C841 1.368 . S
C860 C854 1.368 . S
C860 C859 1.523 . S
C861 C845 1.429 . S
C861 C857 1.429 . S
C861 C862 1.523 . S
C862 C846 1.368 . S
C862 C858 1.368 . S
C862 C861 1.523 . S
H863 C838 0.950 . S
H864 C840 0.950 . S
H865 C841 0.949 . S
H866 C843 0.950 . S
H867 C845 0.950 . S
C868 C869 1.349 . S
C868 C870 1.327 . S
C868 H893 0.950 . S
C869 C868 1.349 . S
C869 C885 1.349 . S
C870 C868 1.327 . S
C870 C889 1.429 . S
C870 H894 0.950 . S
C871 C888 1.574 . S
C871 C890 1.368 . S
C871 H895 0.949 . S
H872 C876 0.949 . S
C873 C874 1.349 . S
C873 C875 1.327 . S
C873 H896 0.950 . S
C874 C873 1.349 . S
C874 C886 1.349 . S
C875 C873 1.327 . S
C875 C891 1.429 . S
C875 H897 0.950 . S
C876 H872 0.949 . S
C876 C884 1.574 . S
C876 C892 1.368 . S
H877 C885 0.950 . S
H878 C883 0.950 . S
H879 C884 0.949 . S
H880 C886 0.950 . S
H881 C887 0.950 . S
H882 C888 0.949 . S
C883 H878 0.950 . S
C883 C885 1.327 . S
C883 C889 1.429 . S
C884 C876 1.574 . S
C884 H879 0.949 . S
C884 C890 1.368 . S
C885 C869 1.349 . S
C885 H877 0.950 . S
C885 C883 1.327 . S
C886 C874 1.349 . S
C886 H880 0.950 . S
C886 C887 1.327 . S
C887 H881 0.950 . S
C887 C886 1.327 . S
C887 C891 1.429 . S
C888 C871 1.574 . S
C888 H882 0.949 . S
C888 C892 1.368 . S
C889 C870 1.429 . S
C889 C883 1.429 . S
C889 C890 1.523 . S
C890 C871 1.368 . S
C890 C884 1.368 . S
C890 C889 1.523 . S
C891 C875 1.429 . S
C891 C887 1.429 . S
C891 C892 1.523 . S
C892 C876 1.368 . S
C892 C888 1.368 . S
C892 C891 1.523 . S
H893 C868 0.950 . S
H894 C870 0.950 . S
H895 C871 0.949 . S
H896 C873 0.950 . S
H897 C875 0.950 . S
C898 C899 1.349 . S
C898 C900 1.327 . S
C898 H923 0.950 . S
C899 C898 1.349 . S
C899 C915 1.349 . S
C900 C898 1.327 . S
C900 C919 1.429 . S
C900 H924 0.950 . S
C901 C918 1.574 . S
C901 C920 1.368 . S
C901 H925 0.949 . S
H902 C906 0.949 . S
C903 C904 1.349 . S
C903 C905 1.327 . S
C903 H926 0.950 . S
C904 C903 1.349 . S
C904 C916 1.349 . S
C905 C903 1.327 . S
C905 C921 1.429 . S
C905 H927 0.950 . S
C906 H902 0.949 . S
C906 C914 1.574 . S
C906 C922 1.368 . S
H907 C915 0.950 . S
H908 C913 0.950 . S
H909 C914 0.949 . S
H910 C916 0.950 . S
H911 C917 0.950 . S
H912 C918 0.949 . S
C913 H908 0.950 . S
C913 C915 1.327 . S
C913 C919 1.429 . S
C914 C906 1.574 . S
C914 H909 0.949 . S
C914 C920 1.368 . S
C915 C899 1.349 . S
C915 H907 0.950 . S
C915 C913 1.327 . S
C916 C904 1.349 . S
C916 H910 0.950 . S
C916 C917 1.327 . S
C917 H911 0.950 . S
C917 C916 1.327 . S
C917 C921 1.429 . S
C918 C901 1.574 . S
C918 H912 0.949 . S
C918 C922 1.368 . S
C919 C900 1.429 . S
C919 C913 1.429 . S
C919 C920 1.523 . S
C920 C901 1.368 . S
C920 C914 1.368 . S
C920 C919 1.523 . S
C921 C905 1.429 . S
C921 C917 1.429 . S
C921 C922 1.523 . S
C922 C906 1.368 . S
C922 C918 1.368 . S
C922 C921 1.523 . S
H923 C898 0.950 . S
H924 C900 0.950 . S
H925 C901 0.949 . S
H926 C903 0.950 . S
H927 C905 0.950 . S
C928 C929 1.349 . S
C928 C930 1.327 . S
C928 H953 0.950 . S
C929 C928 1.349 . S
C929 C945 1.349 . S
C930 C928 1.327 . S
C930 C949 1.429 . S
C930 H954 0.950 . S
C931 C948 1.574 1_565 S
C931 C950 1.368 . S
C931 H955 0.949 . S
H932 C936 0.949 . S
C933 C934 1.349 . S
C933 C935 1.327 . S
C933 H956 0.950 . S
C934 C933 1.349 . S
C934 C946 1.349 . S
C935 C933 1.327 . S
C935 C951 1.429 . S
C935 H957 0.950 . S
C936 H932 0.949 . S
C936 C944 1.574 1_545 S
C936 C952 1.368 . S
H937 C945 0.950 . S
H938 C943 0.950 . S
H939 C944 0.949 . S
H940 C946 0.950 . S
H941 C947 0.950 . S
H942 C948 0.949 . S
C943 H938 0.950 . S
C943 C945 1.327 . S
C943 C949 1.429 . S
C944 C936 1.574 1_565 S
C944 H939 0.949 . S
C944 C950 1.368 . S
C945 C929 1.349 . S
C945 H937 0.950 . S
C945 C943 1.327 . S
C946 C934 1.349 . S
C946 H940 0.950 . S
C946 C947 1.327 . S
C947 H941 0.950 . S
C947 C946 1.327 . S
C947 C951 1.429 . S
C948 C931 1.574 1_545 S
C948 H942 0.949 . S
C948 C952 1.368 . S
C949 C930 1.429 . S
C949 C943 1.429 . S
C949 C950 1.523 . S
C950 C931 1.368 . S
C950 C944 1.368 . S
C950 C949 1.523 . S
C951 C935 1.429 . S
C951 C947 1.429 . S
C951 C952 1.523 . S
C952 C936 1.368 . S
C952 C948 1.368 . S
C952 C951 1.523 . S
H953 C928 0.950 . S
H954 C930 0.950 . S
H955 C931 0.949 . S
H956 C933 0.950 . S
H957 C935 0.950 . S
C958 C959 1.349 . S
C958 C960 1.327 . S
C958 H983 0.950 . S
C959 C958 1.349 . S
C959 C975 1.349 . S
C960 C958 1.327 . S
C960 C979 1.429 . S
C960 H984 0.950 . S
C961 C978 1.574 . S
C961 C980 1.368 . S
C961 H985 0.949 . S
H962 C966 0.949 . S
C963 C964 1.349 . S
C963 C965 1.327 . S
C963 H986 0.950 . S
C964 C963 1.349 . S
C964 C976 1.349 . S
C965 C963 1.327 . S
C965 C981 1.429 . S
C965 H987 0.950 . S
C966 H962 0.949 . S
C966 C974 1.574 . S
C966 C982 1.368 . S
H967 C975 0.950 . S
H968 C973 0.950 . S
H969 C974 0.949 . S
H970 C976 0.950 . S
H971 C977 0.950 . S
H972 C978 0.949 . S
C973 H968 0.950 . S
C973 C975 1.327 . S
C973 C979 1.429 . S
C974 C966 1.574 . S
C974 H969 0.949 . S
C974 C980 1.368 1_455 S
C975 C959 1.349 . S
C975 H967 0.950 . S
C975 C973 1.327 . S
C976 C964 1.349 . S
C976 H970 0.950 . S
C976 C977 1.327 . S
C977 H971 0.950 . S
C977 C976 1.327 . S
C977 C981 1.429 . S
C978 C961 1.574 . S
C978 H972 0.949 . S
C978 C982 1.368 1_655 S
C979 C960 1.429 . S
C979 C973 1.429 . S
C979 C980 1.523 . S
C980 C961 1.368 . S
C980 C974 1.368 1_655 S
C980 C979 1.523 . S
C981 C965 1.429 . S
C981 C977 1.429 . S
C981 C982 1.523 . S
C982 C966 1.368 . S
C982 C978 1.368 1_455 S
C982 C981 1.523 . S
H983 C958 0.950 . S
H984 C960 0.950 . S
H985 C961 0.949 . S
H986 C963 0.950 . S
H987 C965 0.950 . S
C988 C989 1.349 . S
C988 C990 1.327 . S
C988 H1013 0.950 . S
C989 C988 1.349 . S
C989 C1005 1.349 1_556 S
C990 C988 1.327 . S
C990 C1009 1.429 . S
C990 H1014 0.950 . S
C991 C1008 1.574 . S
C991 C1010 1.368 1_554 S
C991 H1015 0.949 . S
H992 C996 0.949 . S
C993 C994 1.349 . S
C993 C995 1.327 . S
C993 H1016 0.950 . S
C994 C993 1.349 . S
C994 C1006 1.349 1_554 S
C995 C993 1.327 . S
C995 C1011 1.429 . S
C995 H1017 0.950 . S
C996 H992 0.949 . S
C996 C1004 1.574 . S
C996 C1012 1.368 1_556 S
H997 C1005 0.950 . S
H998 C1003 0.950 . S
H999 C1004 0.949 . S
H1000 C1006 0.950 . S
H1001 C1007 0.950 . S
H1002 C1008 0.949 . S
C1003 H998 0.950 . S
C1003 C1005 1.327 . S
C1003 C1009 1.429 1_554 S
C1004 C996 1.574 . S
C1004 H999 0.949 . S
C1004 C1010 1.368 . S
C1005 C989 1.349 1_554 S
C1005 H997 0.950 . S
C1005 C1003 1.327 . S
C1006 C994 1.349 1_556 S
C1006 H1000 0.950 . S
C1006 C1007 1.327 . S
C1007 H1001 0.950 . S
C1007 C1006 1.327 . S
C1007 C1011 1.429 1_556 S
C1008 C991 1.574 . S
C1008 H1002 0.949 . S
C1008 C1012 1.368 . S
C1009 C990 1.429 . S
C1009 C1003 1.429 1_556 S
C1009 C1010 1.523 . S
C1010 C991 1.368 1_556 S
C1010 C1004 1.368 . S
C1010 C1009 1.523 . S
C1011 C995 1.429 . S
C1011 C1007 1.429 1_554 S
C1011 C1012 1.523 . S
C1012 C996 1.368 1_554 S
C1012 C1008 1.368 . S
C1012 C1011 1.523 . S
H1013 C988 0.950 . S
H1014 C990 0.950 . S
H1015 C991 0.949 . S
H1016 C993 0.950 . S
H1017 C995 0.950 . S
C1018 C1019 1.349 . S
C1018 C1020 1.327 . S
C1018 H1043 0.950 . S
C1019 C1018 1.349 . S
C1019 C1035 1.349 1_556 S
C1020 C1018 1.327 . S
C1020 C1039 1.429 . S
C1020 H1044 0.950 . S
C1021 C1038 1.574 1_545 S
C1021 C1040 1.368 1_654 S
C1021 H1045 0.949 . S
H1022 C1026 0.949 . S
C1023 C1024 1.349 . S
C1023 C1025 1.327 . S
C1023 H1046 0.950 . S
C1024 C1023 1.349 . S
C1024 C1036 1.349 1_554 S
C1025 C1023 1.327 . S
C1025 C1041 1.429 . S
C1025 H1047 0.950 . S
C1026 H1022 0.949 . S
C1026 C1034 1.574 1_565 S
C1026 C1042 1.368 1_456 S
H1027 C1035 0.950 . S
H1028 C1033 0.950 . S
H1029 C1034 0.949 . S
H1030 C1036 0.950 . S
H1031 C1037 0.950 . S
H1032 C1038 0.949 . S
C1033 H1028 0.950 . S
C1033 C1035 1.327 . S
C1033 C1039 1.429 1_554 S
C1034 C1026 1.574 1_545 S
C1034 H1029 0.949 . S
C1034 C1040 1.368 . S
C1035 C1019 1.349 1_554 S
C1035 H1027 0.950 . S
C1035 C1033 1.327 . S
C1036 C1024 1.349 1_556 S
C1036 H1030 0.950 . S
C1036 C1037 1.327 . S
C1037 H1031 0.950 . S
C1037 C1036 1.327 . S
C1037 C1041 1.429 1_556 S
C1038 C1021 1.574 1_565 S
C1038 H1032 0.949 . S
C1038 C1042 1.368 . S
C1039 C1020 1.429 . S
C1039 C1033 1.429 1_556 S
C1039 C1040 1.523 . S
C1040 C1021 1.368 1_456 S
C1040 C1034 1.368 . S
C1040 C1039 1.523 . S
C1041 C1025 1.429 . S
C1041 C1037 1.429 1_554 S
C1041 C1042 1.523 . S
C1042 C1026 1.368 1_654 S
C1042 C1038 1.368 . S
C1042 C1041 1.523 . S
H1043 C1018 0.950 . S
H1044 C1020 0.950 . S
H1045 C1021 0.949 . S
H1046 C1023 0.950 . S
H1047 C1025 0.950 . S
C1048 C1049 1.349 . S
C1048 C1050 1.327 . S
C1048 H1073 0.950 . S
C1049 C1048 1.349 . S
C1049 C1065 1.349 . S
C1050 C1048 1.327 . S
C1050 C1069 1.429 . S
C1050 H1074 0.950 . S
C1051 C1068 1.574 1_545 S
C1051 C1070 1.368 . S
C1051 H1075 0.949 . S
H1052 C1056 0.949 . S
C1053 C1054 1.349 . S
C1053 C1055 1.327 . S
C1053 H1076 0.950 . S
C1054 C1053 1.349 . S
C1054 C1066 1.349 . S
C1055 C1053 1.327 . S
C1055 C1071 1.429 . S
C1055 H1077 0.950 . S
C1056 H1052 0.949 . S
C1056 C1064 1.574 1_565 S
C1056 C1072 1.368 . S
H1057 C1065 0.950 . S
H1058 C1063 0.950 . S
H1059 C1064 0.949 . S
H1060 C1066 0.950 . S
H1061 C1067 0.950 . S
H1062 C1068 0.949 . S
C1063 H1058 0.950 . S
C1063 C1065 1.327 . S
C1063 C1069 1.429 . S
C1064 C1056 1.574 1_545 S
C1064 H1059 0.949 . S
C1064 C1070 1.368 . S
C1065 C1049 1.349 . S
C1065 H1057 0.950 . S
C1065 C1063 1.327 . S
C1066 C1054 1.349 . S
C1066 H1060 0.950 . S
C1066 C1067 1.327 . S
C1067 H1061 0.950 . S
C1067 C1066 1.327 . S
C1067 C1071 1.429 . S
C1068 C1051 1.574 1_565 S
C1068 H1062 0.949 . S
C1068 C1072 1.368 . S
C1069 C1050 1.429 . S
C1069 C1063 1.429 . S
C1069 C1070 1.523 . S
C1070 C1051 1.368 . S
C1070 C1064 1.368 . S
C1070 C1069 1.523 . S
C1071 C1055 1.429 . S
C1071 C1067 1.429 . S
C1071 C1072 1.523 . S
C1072 C1056 1.368 . S
C1072 C1068 1.368 . S
C1072 C1071 1.523 . S
H1073 C1048 0.950 . S
H1074 C1050 0.950 . S
H1075 C1051 0.949 . S
H1076 C1053 0.950 . S
H1077 C1055 0.950 . S
C1078 C1079 1.349 . S
C1078 C1080 1.327 . S
C1078 H1103 0.950 . S
C1079 C1078 1.349 . S
C1079 C1095 1.349 . S
C1080 C1078 1.327 . S
C1080 C1099 1.429 . S
C1080 H1104 0.950 . S
C1081 C1098 1.574 . S
C1081 C1100 1.368 1_655 S
C1081 H1105 0.949 . S
H1082 C1086 0.949 . S
C1083 C1084 1.349 . S
C1083 C1085 1.327 . S
C1083 H1106 0.950 . S
C1084 C1083 1.349 . S
C1084 C1096 1.349 . S
C1085 C1083 1.327 . S
C1085 C1101 1.429 . S
C1085 H1107 0.950 . S
C1086 H1082 0.949 . S
C1086 C1094 1.574 . S
C1086 C1102 1.368 1_455 S
H1087 C1095 0.950 . S
H1088 C1093 0.950 . S
H1089 C1094 0.949 . S
H1090 C1096 0.950 . S
H1091 C1097 0.950 . S
H1092 C1098 0.949 . S
C1093 H1088 0.950 . S
C1093 C1095 1.327 . S
C1093 C1099 1.429 . S
C1094 C1086 1.574 . S
C1094 H1089 0.949 . S
C1094 C1100 1.368 . S
C1095 C1079 1.349 . S
C1095 H1087 0.950 . S
C1095 C1093 1.327 . S
C1096 C1084 1.349 . S
C1096 H1090 0.950 . S
C1096 C1097 1.327 . S
C1097 H1091 0.950 . S
C1097 C1096 1.327 . S
C1097 C1101 1.429 . S
C1098 C1081 1.574 . S
C1098 H1092 0.949 . S
C1098 C1102 1.368 . S
C1099 C1080 1.429 . S
C1099 C1093 1.429 . S
C1099 C1100 1.523 . S
C1100 C1081 1.368 1_455 S
C1100 C1094 1.368 . S
C1100 C1099 1.523 . S
C1101 C1085 1.429 . S
C1101 C1097 1.429 . S
C1101 C1102 1.523 . S
C1102 C1086 1.368 1_655 S
C1102 C1098 1.368 . S
C1102 C1101 1.523 . S
H1103 C1078 0.950 . S
H1104 C1080 0.950 . S
H1105 C1081 0.949 . S
H1106 C1083 0.950 . S
H1107 C1085 0.950 . S
C1108 C1109 1.349 1_554 S
C1108 C1110 1.327 . S
C1108 H1133 0.950 . S
C1109 C1108 1.349 1_556 S
C1109 C1125 1.349 . S
C1110 C1108 1.327 . S
C1110 C1129 1.429 1_554 S
C1110 H1134 0.950 . S
C1111 C1128 1.574 . S
C1111 C1130 1.368 . S
C1111 H1135 0.949 . S
H1112 C1116 0.949 . S
C1113 C1114 1.349 1_556 S
C1113 C1115 1.327 . S
C1113 H1136 0.950 . S
C1114 C1113 1.349 1_554 S
C1114 C1126 1.349 . S
C1115 C1113 1.327 . S
C1115 C1131 1.429 1_556 S
C1115 H1137 0.950 . S
C1116 H1112 0.949 . S
C1116 C1124 1.574 . S
C1116 C1132 1.368 . S
H1117 C1125 0.950 . S
H1118 C1123 0.950 . S
H1119 C1124 0.949 . S
H1120 C1126 0.950 . S
H1121 C1127 0.950 . S
H1122 C1128 0.949 . S
C1123 H1118 0.950 . S
C1123 C1125 1.327 . S
C1123 C1129 1.429 . S
C1124 C1116 1.574 . S
C1124 H1119 0.949 . S
C1124 C1130 1.368 1_554 S
C1125 C1109 1.349 . S
C1125 H1117 0.950 . S
C1125 C1123 1.327 . S
C1126 C1114 1.349 . S
C1126 H1120 0.950 . S
C1126 C1127 1.327 . S
C1127 H1121 0.950 . S
C1127 C1126 1.327 . S
C1127 C1131 1.429 . S
C1128 C1111 1.574 . S
C1128 H1122 0.949 . S
C1128 C1132 1.368 1_556 S
C1129 C1110 1.429 1_556 S
C1129 C1123 1.429 . S
C1129 C1130 1.523 . S
C1130 C1111 1.368 . S
C1130 C1124 1.368 1_556 S
C1130 C1129 1.523 . S
C1131 C1115 1.429 1_554 S
C1131 C1127 1.429 . S
C1131 C1132 1.523 . S
C1132 C1116 1.368 . S
C1132 C1128 1.368 1_554 S
C1132 C1131 1.523 . S
H1133 C1108 0.950 . S
H1134 C1110 0.950 . S
H1135 C1111 0.949 . S
H1136 C1113 0.950 . S
H1137 C1115 0.950 . S
C1138 C1139 1.349 . S
C1138 C1140 1.327 . S
C1138 H1163 0.950 . S
C1139 C1138 1.349 . S
C1139 C1155 1.349 . S
C1140 C1138 1.327 . S
C1140 C1159 1.429 . S
C1140 H1164 0.950 . S
C1141 C1158 1.574 . S
C1141 C1160 1.368 . S
C1141 H1165 0.949 . S
H1142 C1146 0.949 . S
C1143 C1144 1.349 . S
C1143 C1145 1.327 . S
C1143 H1166 0.950 . S
C1144 C1143 1.349 . S
C1144 C1156 1.349 . S
C1145 C1143 1.327 . S
C1145 C1161 1.429 . S
C1145 H1167 0.950 . S
C1146 H1142 0.949 . S
C1146 C1154 1.574 . S
C1146 C1162 1.368 . S
H1147 C1155 0.950 . S
H1148 C1153 0.950 . S
H1149 C1154 0.949 . S
H1150 C1156 0.950 . S
H1151 C1157 0.950 . S
H1152 C1158 0.949 . S
C1153 H1148 0.950 . S
C1153 C1155 1.327 . S
C1153 C1159 1.429 . S
C1154 C1146 1.574 . S
C1154 H1149 0.949 . S
C1154 C1160 1.368 . S
C1155 C1139 1.349 . S
C1155 H1147 0.950 . S
C1155 C1153 1.327 . S
C1156 C1144 1.349 . S
C1156 H1150 0.950 . S
C1156 C1157 1.327 . S
C1157 H1151 0.950 . S
C1157 C1156 1.327 . S
C1157 C1161 1.429 . S
C1158 C1141 1.574 . S
C1158 H1152 0.949 . S
C1158 C1162 1.368 . S
C1159 C1140 1.429 . S
C1159 C1153 1.429 . S
C1159 C1160 1.523 . S
C1160 C1141 1.368 . S
C1160 C1154 1.368 . S
C1160 C1159 1.523 . S
C1161 C1145 1.429 . S
C1161 C1157 1.429 . S
C1161 C1162 1.523 . S
C1162 C1146 1.368 . S
C1162 C1158 1.368 . S
C1162 C1161 1.523 . S
H1163 C1138 0.950 . S
H1164 C1140 0.950 . S
H1165 C1141 0.949 . S
H1166 C1143 0.950 . S
H1167 C1145 0.950 . S
C1168 C1169 1.349 . S
C1168 C1170 1.327 . S
C1168 H1193 0.950 . S
C1169 C1168 1.349 . S
C1169 C1185 1.349 . S
C1170 C1168 1.327 . S
C1170 C1189 1.429 . S
C1170 H1194 0.950 . S
C1171 C1188 1.574 . S
C1171 C1190 1.368 . S
C1171 H1195 0.949 . S
H1172 C1176 0.949 . S
C1173 C1174 1.349 . S
C1173 C1175 1.327 . S
C1173 H1196 0.950 . S
C1174 C1173 1.349 . S
C1174 C1186 1.349 . S
C1175 C1173 1.327 . S
C1175 C1191 1.429 . S
C1175 H1197 0.950 . S
C1176 H1172 0.949 . S
C1176 C1184 1.574 . S
C1176 C1192 1.368 . S
H1177 C1185 0.950 . S
H1178 C1183 0.950 . S
H1179 C1184 0.949 . S
H1180 C1186 0.950 . S
H1181 C1187 0.950 . S
H1182 C1188 0.949 . S
C1183 H1178 0.950 . S
C1183 C1185 1.327 . S
C1183 C1189 1.429 . S
C1184 C1176 1.574 . S
C1184 H1179 0.949 . S
C1184 C1190 1.368 . S
C1185 C1169 1.349 . S
C1185 H1177 0.950 . S
C1185 C1183 1.327 . S
C1186 C1174 1.349 . S
C1186 H1180 0.950 . S
C1186 C1187 1.327 . S
C1187 H1181 0.950 . S
C1187 C1186 1.327 . S
C1187 C1191 1.429 . S
C1188 C1171 1.574 . S
C1188 H1182 0.949 . S
C1188 C1192 1.368 . S
C1189 C1170 1.429 . S
C1189 C1183 1.429 . S
C1189 C1190 1.523 . S
C1190 C1171 1.368 . S
C1190 C1184 1.368 . S
C1190 C1189 1.523 . S
C1191 C1175 1.429 . S
C1191 C1187 1.429 . S
C1191 C1192 1.523 . S
C1192 C1176 1.368 . S
C1192 C1188 1.368 . S
C1192 C1191 1.523 . S
H1193 C1168 0.950 . S
H1194 C1170 0.950 . S
H1195 C1171 0.949 . S
H1196 C1173 0.950 . S
H1197 C1175 0.950 . S
C1198 C1199 1.349 . S
C1198 C1200 1.327 . S
C1198 H1223 0.950 . S
C1199 C1198 1.349 . S
C1199 C1215 1.349 . S
C1200 C1198 1.327 . S
C1200 C1219 1.429 . S
C1200 H1224 0.950 . S
C1201 C1218 1.574 . S
C1201 C1220 1.368 1_455 S
C1201 H1225 0.949 . S
H1202 C1206 0.949 . S
C1203 C1204 1.349 . S
C1203 C1205 1.327 . S
C1203 H1226 0.950 . S
C1204 C1203 1.349 . S
C1204 C1216 1.349 . S
C1205 C1203 1.327 . S
C1205 C1221 1.429 . S
C1205 H1227 0.950 . S
C1206 H1202 0.949 . S
C1206 C1214 1.574 . S
C1206 C1222 1.368 1_655 S
H1207 C1215 0.950 . S
H1208 C1213 0.950 . S
H1209 C1214 0.949 . S
H1210 C1216 0.950 . S
H1211 C1217 0.950 . S
H1212 C1218 0.949 . S
C1213 H1208 0.950 . S
C1213 C1215 1.327 . S
C1213 C1219 1.429 . S
C1214 C1206 1.574 . S
C1214 H1209 0.949 . S
C1214 C1220 1.368 . S
C1215 C1199 1.349 . S
C1215 H1207 0.950 . S
C1215 C1213 1.327 . S
C1216 C1204 1.349 . S
C1216 H1210 0.950 . S
C1216 C1217 1.327 . S
C1217 H1211 0.950 . S
C1217 C1216 1.327 . S
C1217 C1221 1.429 . S
C1218 C1201 1.574 . S
C1218 H1212 0.949 . S
C1218 C1222 1.368 . S
C1219 C1200 1.429 . S
C1219 C1213 1.429 . S
C1219 C1220 1.523 . S
C1220 C1201 1.368 1_655 S
C1220 C1214 1.368 . S
C1220 C1219 1.523 . S
C1221 C1205 1.429 . S
C1221 C1217 1.429 . S
C1221 C1222 1.523 . S
C1222 C1206 1.368 1_455 S
C1222 C1218 1.368 . S
C1222 C1221 1.523 . S
H1223 C1198 0.950 . S
H1224 C1200 0.950 . S
H1225 C1201 0.949 . S
H1226 C1203 0.950 . S
H1227 C1205 0.950 . S
C1228 C1229 1.349 . S
C1228 C1230 1.327 . S
C1228 H1253 0.950 . S
C1229 C1228 1.349 . S
C1229 C1245 1.349 . S
C1230 C1228 1.327 . S
C1230 C1249 1.429 . S
C1230 H1254 0.950 . S
C1231 C1248 1.574 . S
C1231 C1250 1.368 . S
C1231 H1255 0.949 . S
H1232 C1236 0.949 . S
C1233 C1234 1.349 . S
C1233 C1235 1.327 . S
C1233 H1256 0.950 . S
C1234 C1233 1.349 . S
C1234 C1246 1.349 . S
C1235 C1233 1.327 . S
C1235 C1251 1.429 . S
C1235 H1257 0.950 . S
C1236 H1232 0.949 . S
C1236 C1244 1.574 . S
C1236 C1252 1.368 . S
H1237 C1245 0.950 . S
H1238 C1243 0.950 . S
H1239 C1244 0.949 . S
H1240 C1246 0.950 . S
H1241 C1247 0.950 . S
H1242 C1248 0.949 . S
C1243 H1238 0.950 . S
C1243 C1245 1.327 . S
C1243 C1249 1.429 . S
C1244 C1236 1.574 . S
C1244 H1239 0.949 . S
C1244 C1250 1.368 . S
C1245 C1229 1.349 . S
C1245 H1237 0.950 . S
C1245 C1243 1.327 . S
C1246 C1234 1.349 . S
C1246 H1240 0.950 . S
C1246 C1247 1.327 . S
C1247 H1241 0.950 . S
C1247 C1246 1.327 . S
C1247 C1251 1.429 . S
C1248 C1231 1.574 . S
C1248 H1242 0.949 . S
C1248 C1252 1.368 . S
C1249 C1230 1.429 . S
C1249 C1243 1.429 . S
C1249 C1250 1.523 . S
C1250 C1231 1.368 . S
C1250 C1244 1.368 . S
C1250 C1249 1.523 . S
C1251 C1235 1.429 . S
C1251 C1247 1.429 . S
C1251 C1252 1.523 . S
C1252 C1236 1.368 . S
C1252 C1248 1.368 . S
C1252 C1251 1.523 . S
H1253 C1228 0.950 . S
H1254 C1230 0.950 . S
H1255 C1231 0.949 . S
H1256 C1233 0.950 . S
H1257 C1235 0.950 . S
C1258 C1259 1.349 . S
C1258 C1260 1.327 . S
C1258 H1283 0.950 . S
C1259 C1258 1.349 . S
C1259 C1275 1.349 . S
C1260 C1258 1.327 . S
C1260 C1279 1.429 . S
C1260 H1284 0.950 . S
C1261 C1278 1.574 . S
C1261 C1280 1.368 . S
C1261 H1285 0.949 . S
H1262 C1266 0.949 . S
C1263 C1264 1.349 . S
C1263 C1265 1.327 . S
C1263 H1286 0.950 . S
C1264 C1263 1.349 . S
C1264 C1276 1.349 . S
C1265 C1263 1.327 . S
C1265 C1281 1.429 . S
C1265 H1287 0.950 . S
C1266 H1262 0.949 . S
C1266 C1274 1.574 . S
C1266 C1282 1.368 . S
H1267 C1275 0.950 . S
H1268 C1273 0.950 . S
H1269 C1274 0.949 . S
H1270 C1276 0.950 . S
H1271 C1277 0.950 . S
H1272 C1278 0.949 . S
C1273 H1268 0.950 . S
C1273 C1275 1.327 . S
C1273 C1279 1.429 . S
C1274 C1266 1.574 . S
C1274 H1269 0.949 . S
C1274 C1280 1.368 . S
C1275 C1259 1.349 . S
C1275 H1267 0.950 . S
C1275 C1273 1.327 . S
C1276 C1264 1.349 . S
C1276 H1270 0.950 . S
C1276 C1277 1.327 . S
C1277 H1271 0.950 . S
C1277 C1276 1.327 . S
C1277 C1281 1.429 . S
C1278 C1261 1.574 . S
C1278 H1272 0.949 . S
C1278 C1282 1.368 . S
C1279 C1260 1.429 . S
C1279 C1273 1.429 . S
C1279 C1280 1.523 . S
C1280 C1261 1.368 . S
C1280 C1274 1.368 . S
C1280 C1279 1.523 . S
C1281 C1265 1.429 . S
C1281 C1277 1.429 . S
C1281 C1282 1.523 . S
C1282 C1266 1.368 . S
C1282 C1278 1.368 . S
C1282 C1281 1.523 . S
H1283 C1258 0.950 . S
H1284 C1260 0.950 . S
H1285 C1261 0.949 . S
H1286 C1263 0.950 . S
H1287 C1265 0.950 . S
C1288 C1289 1.349 . S
C1288 C1290 1.327 . S
C1288 H1313 0.950 . S
C1289 C1288 1.349 . S
C1289 C1305 1.349 . S
C1290 C1288 1.327 . S
C1290 C1309 1.429 . S
C1290 H1314 0.950 . S
C1291 C1308 1.574 . S
C1291 C1310 1.368 . S
C1291 H1315 0.949 . S
H1292 C1296 0.949 . S
C1293 C1294 1.349 . S
C1293 C1295 1.327 . S
C1293 H1316 0.950 . S
C1294 C1293 1.349 . S
C1294 C1306 1.349 . S
C1295 C1293 1.327 . S
C1295 C1311 1.429 . S
C1295 H1317 0.950 . S
C1296 H1292 0.949 . S
C1296 C1304 1.574 . S
C1296 C1312 1.368 . S
H1297 C1305 0.950 . S
H1298 C1303 0.950 . S
H1299 C1304 0.949 . S
H1300 C1306 0.950 . S
H1301 C1307 0.950 . S
H1302 C1308 0.949 . S
C1303 H1298 0.950 . S
C1303 C1305 1.327 . S
C1303 C1309 1.429 . S
C1304 C1296 1.574 . S
C1304 H1299 0.949 . S
C1304 C1310 1.368 . S
C1305 C1289 1.349 . S
C1305 H1297 0.950 . S
C1305 C1303 1.327 . S
C1306 C1294 1.349 . S
C1306 H1300 0.950 . S
C1306 C1307 1.327 . S
C1307 H1301 0.950 . S
C1307 C1306 1.327 . S
C1307 C1311 1.429 . S
C1308 C1291 1.574 . S
C1308 H1302 0.949 . S
C1308 C1312 1.368 . S
C1309 C1290 1.429 . S
C1309 C1303 1.429 . S
C1309 C1310 1.523 . S
C1310 C1291 1.368 . S
C1310 C1304 1.368 . S
C1310 C1309 1.523 . S
C1311 C1295 1.429 . S
C1311 C1307 1.429 . S
C1311 C1312 1.523 . S
C1312 C1296 1.368 . S
C1312 C1308 1.368 . S
C1312 C1311 1.523 . S
H1313 C1288 0.950 . S
H1314 C1290 0.950 . S
H1315 C1291 0.949 . S
H1316 C1293 0.950 . S
H1317 C1295 0.950 . S
C1318 C1319 1.349 . S
C1318 C1320 1.327 . S
C1318 H1343 0.950 . S
C1319 C1318 1.349 . S
C1319 C1335 1.349 . S
C1320 C1318 1.327 . S
C1320 C1339 1.429 . S
C1320 H1344 0.950 . S
C1321 C1338 1.574 1_545 S
C1321 C1340 1.368 . S
C1321 H1345 0.949 . S
H1322 C1326 0.949 . S
C1323 C1324 1.349 . S
C1323 C1325 1.327 . S
C1323 H1346 0.950 . S
C1324 C1323 1.349 . S
C1324 C1336 1.349 . S
C1325 C1323 1.327 . S
C1325 C1341 1.429 . S
C1325 H1347 0.950 . S
C1326 H1322 0.949 . S
C1326 C1334 1.574 1_565 S
C1326 C1342 1.368 . S
H1327 C1335 0.950 . S
H1328 C1333 0.950 . S
H1329 C1334 0.949 . S
H1330 C1336 0.950 . S
H1331 C1337 0.950 . S
H1332 C1338 0.949 . S
C1333 H1328 0.950 . S
C1333 C1335 1.327 . S
C1333 C1339 1.429 . S
C1334 C1326 1.574 1_545 S
C1334 H1329 0.949 . S
C1334 C1340 1.368 . S
C1335 C1319 1.349 . S
C1335 H1327 0.950 . S
C1335 C1333 1.327 . S
C1336 C1324 1.349 . S
C1336 H1330 0.950 . S
C1336 C1337 1.327 . S
C1337 H1331 0.950 . S
C1337 C1336 1.327 . S
C1337 C1341 1.429 . S
C1338 C1321 1.574 1_565 S
C1338 H1332 0.949 . S
C1338 C1342 1.368 . S
C1339 C1320 1.429 . S
C1339 C1333 1.429 . S
C1339 C1340 1.523 . S
C1340 C1321 1.368 . S
C1340 C1334 1.368 . S
C1340 C1339 1.523 . S
C1341 C1325 1.429 . S
C1341 C1337 1.429 . S
C1341 C1342 1.523 . S
C1342 C1326 1.368 . S
C1342 C1338 1.368 . S
C1342 C1341 1.523 . S
H1343 C1318 0.950 . S
H1344 C1320 0.950 . S
H1345 C1321 0.949 . S
H1346 C1323 0.950 . S
H1347 C1325 0.950 . S
C1348 C1349 1.349 . S
C1348 C1350 1.327 . S
C1348 H1373 0.950 . S
C1349 C1348 1.349 . S
C1349 C1365 1.349 . S
C1350 C1348 1.327 . S
C1350 C1369 1.429 . S
C1350 H1374 0.950 . S
C1351 C1368 1.574 . S
C1351 C1370 1.368 . S
C1351 H1375 0.949 . S
H1352 C1356 0.949 . S
C1353 C1354 1.349 . S
C1353 C1355 1.327 . S
C1353 H1376 0.950 . S
C1354 C1353 1.349 . S
C1354 C1366 1.349 . S
C1355 C1353 1.327 . S
C1355 C1371 1.429 . S
C1355 H1377 0.950 . S
C1356 H1352 0.949 . S
C1356 C1364 1.574 . S
C1356 C1372 1.368 . S
H1357 C1365 0.950 . S
H1358 C1363 0.950 . S
H1359 C1364 0.949 . S
H1360 C1366 0.950 . S
H1361 C1367 0.950 . S
H1362 C1368 0.949 . S
C1363 H1358 0.950 . S
C1363 C1365 1.327 . S
C1363 C1369 1.429 . S
C1364 C1356 1.574 . S
C1364 H1359 0.949 . S
C1364 C1370 1.368 . S
C1365 C1349 1.349 . S
C1365 H1357 0.950 . S
C1365 C1363 1.327 . S
C1366 C1354 1.349 . S
C1366 H1360 0.950 . S
C1366 C1367 1.327 . S
C1367 H1361 0.950 . S
C1367 C1366 1.327 . S
C1367 C1371 1.429 . S
C1368 C1351 1.574 . S
C1368 H1362 0.949 . S
C1368 C1372 1.368 . S
C1369 C1350 1.429 . S
C1369 C1363 1.429 . S
C1369 C1370 1.523 . S
C1370 C1351 1.368 . S
C1370 C1364 1.368 . S
C1370 C1369 1.523 . S
C1371 C1355 1.429 . S
C1371 C1367 1.429 . S
C1371 C1372 1.523 . S
C1372 C1356 1.368 . S
C1372 C1368 1.368 . S
C1372 C1371 1.523 . S
H1373 C1348 0.950 . S
H1374 C1350 0.950 . S
H1375 C1351 0.949 . S
H1376 C1353 0.950 . S
H1377 C1355 0.950 . S
C1378 C1379 1.349 1_556 S
C1378 C1380 1.327 . S
C1378 H1403 0.950 . S
C1379 C1378 1.349 1_554 S
C1379 C1395 1.349 . S
C1380 C1378 1.327 . S
C1380 C1399 1.429 1_556 S
C1380 H1404 0.950 . S
C1381 C1398 1.574 . S
C1381 C1400 1.368 . S
C1381 H1405 0.949 . S
H1382 C1386 0.949 . S
C1383 C1384 1.349 1_554 S
C1383 C1385 1.327 . S
C1383 H1406 0.950 . S
C1384 C1383 1.349 1_556 S
C1384 C1396 1.349 . S
C1385 C1383 1.327 . S
C1385 C1401 1.429 1_554 S
C1385 H1407 0.950 . S
C1386 H1382 0.949 . S
C1386 C1394 1.574 . S
C1386 C1402 1.368 . S
H1387 C1395 0.950 . S
H1388 C1393 0.950 . S
H1389 C1394 0.949 . S
H1390 C1396 0.950 . S
H1391 C1397 0.950 . S
H1392 C1398 0.949 . S
C1393 H1388 0.950 . S
C1393 C1395 1.327 . S
C1393 C1399 1.429 . S
C1394 C1386 1.574 . S
C1394 H1389 0.949 . S
C1394 C1400 1.368 1_556 S
C1395 C1379 1.349 . S
C1395 H1387 0.950 . S
C1395 C1393 1.327 . S
C1396 C1384 1.349 . S
C1396 H1390 0.950 . S
C1396 C1397 1.327 . S
C1397 H1391 0.950 . S
C1397 C1396 1.327 . S
C1397 C1401 1.429 . S
C1398 C1381 1.574 . S
C1398 H1392 0.949 . S
C1398 C1402 1.368 1_554 S
C1399 C1380 1.429 1_554 S
C1399 C1393 1.429 . S
C1399 C1400 1.523 . S
C1400 C1381 1.368 . S
C1400 C1394 1.368 1_554 S
C1400 C1399 1.523 . S
C1401 C1385 1.429 1_556 S
C1401 C1397 1.429 . S
C1401 C1402 1.523 . S
C1402 C1386 1.368 . S
C1402 C1398 1.368 1_556 S
C1402 C1401 1.523 . S
H1403 C1378 0.950 . S
H1404 C1380 0.950 . S
H1405 C1381 0.949 . S
H1406 C1383 0.950 . S
H1407 C1385 0.950 . S
C1408 C1409 1.349 . S
C1408 C1410 1.327 . S
C1408 H1433 0.950 . S
C1409 C1408 1.349 . S
C1409 C1425 1.349 . S
C1410 C1408 1.327 . S
C1410 C1429 1.429 . S
C1410 H1434 0.950 . S
C1411 C1428 1.574 . S
C1411 C1430 1.368 . S
C1411 H1435 0.949 . S
H1412 C1416 0.949 . S
C1413 C1414 1.349 . S
C1413 C1415 1.327 . S
C1413 H1436 0.950 . S
C1414 C1413 1.349 . S
C1414 C1426 1.349 . S
C1415 C1413 1.327 . S
C1415 C1431 1.429 . S
C1415 H1437 0.950 . S
C1416 H1412 0.949 . S
C1416 C1424 1.574 . S
C1416 C1432 1.368 . S
H1417 C1425 0.950 . S
H1418 C1423 0.950 . S
H1419 C1424 0.949 . S
H1420 C1426 0.950 . S
H1421 C1427 0.950 . S
H1422 C1428 0.949 . S
C1423 H1418 0.950 . S
C1423 C1425 1.327 . S
C1423 C1429 1.429 . S
C1424 C1416 1.574 . S
C1424 H1419 0.949 . S
C1424 C1430 1.368 . S
C1425 C1409 1.349 . S
C1425 H1417 0.950 . S
C1425 C1423 1.327 . S
C1426 C1414 1.349 . S
C1426 H1420 0.950 . S
C1426 C1427 1.327 . S
C1427 H1421 0.950 . S
C1427 C1426 1.327 . S
C1427 C1431 1.429 . S
C1428 C1411 1.574 . S
C1428 H1422 0.949 . S
C1428 C1432 1.368 . S
C1429 C1410 1.429 . S
C1429 C1423 1.429 . S
C1429 C1430 1.523 . S
C1430 C1411 1.368 . S
C1430 C1424 1.368 . S
C1430 C1429 1.523 . S
C1431 C1415 1.429 . S
C1431 C1427 1.429 . S
C1431 C1432 1.523 . S
C1432 C1416 1.368 . S
C1432 C1428 1.368 . S
C1432 C1431 1.523 . S
H1433 C1408 0.950 . S
H1434 C1410 0.950 . S
H1435 C1411 0.949 . S
H1436 C1413 0.950 . S
H1437 C1415 0.950 . S
C1438 C1439 1.349 1_554 S
C1438 C1440 1.327 . S
C1438 H1463 0.950 . S
C1439 C1438 1.349 1_556 S
C1439 C1455 1.349 . S
C1440 C1438 1.327 . S
C1440 C1459 1.429 1_554 S
C1440 H1464 0.950 . S
C1441 C1458 1.574 . S
C1441 C1460 1.368 . S
C1441 H1465 0.949 . S
H1442 C1446 0.949 . S
C1443 C1444 1.349 . S
C1443 C1445 1.327 . S
C1443 H1466 0.950 . S
C1444 C1443 1.349 . S
C1444 C1456 1.349 1_556 S
C1445 C1443 1.327 . S
C1445 C1461 1.429 . S
C1445 H1467 0.950 . S
C1446 H1442 0.949 . S
C1446 C1454 1.574 . S
C1446 C1462 1.368 1_554 S
H1447 C1455 0.950 . S
H1448 C1453 0.950 . S
H1449 C1454 0.949 . S
H1450 C1456 0.950 . S
H1451 C1457 0.950 . S
H1452 C1458 0.949 . S
C1453 H1448 0.950 . S
C1453 C1455 1.327 . S
C1453 C1459 1.429 . S
C1454 C1446 1.574 . S
C1454 H1449 0.949 . S
C1454 C1460 1.368 1_554 S
C1455 C1439 1.349 . S
C1455 H1447 0.950 . S
C1455 C1453 1.327 . S
C1456 C1444 1.349 1_554 S
C1456 H1450 0.950 . S
C1456 C1457 1.327 . S
C1457 H1451 0.950 . S
C1457 C1456 1.327 . S
C1457 C1461 1.429 1_554 S
C1458 C1441 1.574 . S
C1458 H1452 0.949 . S
C1458 C1462 1.368 . S
C1459 C1440 1.429 1_556 S
C1459 C1453 1.429 . S
C1459 C1460 1.523 . S
C1460 C1441 1.368 . S
C1460 C1454 1.368 1_556 S
C1460 C1459 1.523 . S
C1461 C1445 1.429 . S
C1461 C1457 1.429 1_556 S
C1461 C1462 1.523 . S
C1462 C1446 1.368 1_556 S
C1462 C1458 1.368 . S
C1462 C1461 1.523 . S
H1463 C1438 0.950 . S
H1464 C1440 0.950 . S
H1465 C1441 0.949 . S
H1466 C1443 0.950 . S
H1467 C1445 0.950 . S
C1468 C1469 1.349 . S
C1468 C1470 1.327 . S
C1468 H1493 0.950 . S
C1469 C1468 1.349 . S
C1469 C1485 1.349 . S
C1470 C1468 1.327 . S
C1470 C1489 1.429 . S
C1470 H1494 0.950 . S
C1471 C1488 1.574 . S
C1471 C1490 1.368 . S
C1471 H1495 0.949 . S
H1472 C1476 0.949 . S
C1473 C1474 1.349 . S
C1473 C1475 1.327 . S
C1473 H1496 0.950 . S
C1474 C1473 1.349 . S
C1474 C1486 1.349 . S
C1475 C1473 1.327 . S
C1475 C1491 1.429 . S
C1475 H1497 0.950 . S
C1476 H1472 0.949 . S
C1476 C1484 1.574 . S
C1476 C1492 1.368 . S
H1477 C1485 0.950 . S
H1478 C1483 0.950 . S
H1479 C1484 0.949 . S
H1480 C1486 0.950 . S
H1481 C1487 0.950 . S
H1482 C1488 0.949 . S
C1483 H1478 0.950 . S
C1483 C1485 1.327 . S
C1483 C1489 1.429 . S
C1484 C1476 1.574 . S
C1484 H1479 0.949 . S
C1484 C1490 1.368 . S
C1485 C1469 1.349 . S
C1485 H1477 0.950 . S
C1485 C1483 1.327 . S
C1486 C1474 1.349 . S
C1486 H1480 0.950 . S
C1486 C1487 1.327 . S
C1487 H1481 0.950 . S
C1487 C1486 1.327 . S
C1487 C1491 1.429 . S
C1488 C1471 1.574 . S
C1488 H1482 0.949 . S
C1488 C1492 1.368 . S
C1489 C1470 1.429 . S
C1489 C1483 1.429 . S
C1489 C1490 1.523 . S
C1490 C1471 1.368 . S
C1490 C1484 1.368 . S
C1490 C1489 1.523 . S
C1491 C1475 1.429 . S
C1491 C1487 1.429 . S
C1491 C1492 1.523 . S
C1492 C1476 1.368 . S
C1492 C1488 1.368 . S
C1492 C1491 1.523 . S
H1493 C1468 0.950 . S
H1494 C1470 0.950 . S
H1495 C1471 0.949 . S
H1496 C1473 0.950 . S
H1497 C1475 0.950 . S
C1498 C1499 1.349 1_556 S
C1498 C1500 1.327 . S
C1498 H1523 0.950 . S
C1499 C1498 1.349 1_554 S
C1499 C1515 1.349 . S
C1500 C1498 1.327 . S
C1500 C1519 1.429 1_556 S
C1500 H1524 0.950 . S
C1501 C1518 1.574 . S
C1501 C1520 1.368 . S
C1501 H1525 0.949 . S
H1502 C1506 0.949 . S
C1503 C1504 1.349 . S
C1503 C1505 1.327 . S
C1503 H1526 0.950 . S
C1504 C1503 1.349 . S
C1504 C1516 1.349 1_554 S
C1505 C1503 1.327 . S
C1505 C1521 1.429 . S
C1505 H1527 0.950 . S
C1506 H1502 0.949 . S
C1506 C1514 1.574 . S
C1506 C1522 1.368 1_556 S
H1507 C1515 0.950 . S
H1508 C1513 0.950 . S
H1509 C1514 0.949 . S
H1510 C1516 0.950 . S
H1511 C1517 0.950 . S
H1512 C1518 0.949 . S
C1513 H1508 0.950 . S
C1513 C1515 1.327 . S
C1513 C1519 1.429 . S
C1514 C1506 1.574 . S
C1514 H1509 0.949 . S
C1514 C1520 1.368 1_556 S
C1515 C1499 1.349 . S
C1515 H1507 0.950 . S
C1515 C1513 1.327 . S
C1516 C1504 1.349 1_556 S
C1516 H1510 0.950 . S
C1516 C1517 1.327 . S
C1517 H1511 0.950 . S
C1517 C1516 1.327 . S
C1517 C1521 1.429 1_556 S
C1518 C1501 1.574 . S
C1518 H1512 0.949 . S
C1518 C1522 1.368 . S
C1519 C1500 1.429 1_554 S
C1519 C1513 1.429 . S
C1519 C1520 1.523 . S
C1520 C1501 1.368 . S
C1520 C1514 1.368 1_554 S
C1520 C1519 1.523 . S
C1521 C1505 1.429 . S
C1521 C1517 1.429 1_554 S
C1521 C1522 1.523 . S
C1522 C1506 1.368 1_554 S
C1522 C1518 1.368 . S
C1522 C1521 1.523 . S
H1523 C1498 0.950 . S
H1524 C1500 0.950 . S
H1525 C1501 0.949 . S
H1526 C1503 0.950 . S
H1527 C1505 0.950 . S
C1528 C1529 1.349 . S
C1528 C1530 1.327 . S
C1528 H1553 0.950 . S
C1529 C1528 1.349 . S
C1529 C1545 1.349 . S
C1530 C1528 1.327 . S
C1530 C1549 1.429 . S
C1530 H1554 0.950 . S
C1531 C1548 1.574 . S
C1531 C1550 1.368 . S
C1531 H1555 0.949 . S
H1532 C1536 0.949 . S
C1533 C1534 1.349 . S
C1533 C1535 1.327 . S
C1533 H1556 0.950 . S
C1534 C1533 1.349 . S
C1534 C1546 1.349 . S
C1535 C1533 1.327 . S
C1535 C1551 1.429 . S
C1535 H1557 0.950 . S
C1536 H1532 0.949 . S
C1536 C1544 1.574 . S
C1536 C1552 1.368 . S
H1537 C1545 0.950 . S
H1538 C1543 0.950 . S
H1539 C1544 0.949 . S
H1540 C1546 0.950 . S
H1541 C1547 0.950 . S
H1542 C1548 0.949 . S
C1543 H1538 0.950 . S
C1543 C1545 1.327 . S
C1543 C1549 1.429 . S
C1544 C1536 1.574 . S
C1544 H1539 0.949 . S
C1544 C1550 1.368 . S
C1545 C1529 1.349 . S
C1545 H1537 0.950 . S
C1545 C1543 1.327 . S
C1546 C1534 1.349 . S
C1546 H1540 0.950 . S
C1546 C1547 1.327 . S
C1547 H1541 0.950 . S
C1547 C1546 1.327 . S
C1547 C1551 1.429 . S
C1548 C1531 1.574 . S
C1548 H1542 0.949 . S
C1548 C1552 1.368 . S
C1549 C1530 1.429 . S
C1549 C1543 1.429 . S
C1549 C1550 1.523 . S
C1550 C1531 1.368 . S
C1550 C1544 1.368 . S
C1550 C1549 1.523 . S
C1551 C1535 1.429 . S
C1551 C1547 1.429 . S
C1551 C1552 1.523 . S
C1552 C1536 1.368 . S
C1552 C1548 1.368 . S
C1552 C1551 1.523 . S
H1553 C1528 0.950 . S
H1554 C1530 0.950 . S
H1555 C1531 0.949 . S
H1556 C1533 0.950 . S
H1557 C1535 0.950 . S
C1558 C1559 1.349 . S
C1558 C1560 1.327 . S
C1558 H1583 0.950 . S
C1559 C1558 1.349 . S
C1559 C1575 1.349 . S
C1560 C1558 1.327 . S
C1560 C1579 1.429 . S
C1560 H1584 0.950 . S
C1561 C1578 1.574 . S
C1561 C1580 1.368 . S
C1561 H1585 0.949 . S
H1562 C1566 0.949 . S
C1563 C1564 1.349 . S
C1563 C1565 1.327 . S
C1563 H1586 0.950 . S
C1564 C1563 1.349 . S
C1564 C1576 1.349 . S
C1565 C1563 1.327 . S
C1565 C1581 1.429 . S
C1565 H1587 0.950 . S
C1566 H1562 0.949 . S
C1566 C1574 1.574 . S
C1566 C1582 1.368 . S
H1567 C1575 0.950 . S
H1568 C1573 0.950 . S
H1569 C1574 0.949 . S
H1570 C1576 0.950 . S
H1571 C1577 0.950 . S
H1572 C1578 0.949 . S
C1573 H1568 0.950 . S
C1573 C1575 1.327 . S
C1573 C1579 1.429 . S
C1574 C1566 1.574 . S
C1574 H1569 0.949 . S
C1574 C1580 1.368 . S
C1575 C1559 1.349 . S
C1575 H1567 0.950 . S
C1575 C1573 1.327 . S
C1576 C1564 1.349 . S
C1576 H1570 0.950 . S
C1576 C1577 1.327 . S
C1577 H1571 0.950 . S
C1577 C1576 1.327 . S
C1577 C1581 1.429 . S
C1578 C1561 1.574 . S
C1578 H1572 0.949 . S
C1578 C1582 1.368 . S
C1579 C1560 1.429 . S
C1579 C1573 1.429 . S
C1579 C1580 1.523 . S
C1580 C1561 1.368 . S
C1580 C1574 1.368 . S
C1580 C1579 1.523 . S
C1581 C1565 1.429 . S
C1581 C1577 1.429 . S
C1581 C1582 1.523 . S
C1582 C1566 1.368 . S
C1582 C1578 1.368 . S
C1582 C1581 1.523 . S
H1583 C1558 0.950 . S
H1584 C1560 0.950 . S
H1585 C1561 0.949 . S
H1586 C1563 0.950 . S
H1587 C1565 0.950 . S
C1588 C1589 1.349 . S
C1588 C1590 1.327 . S
C1588 H1613 0.950 . S
C1589 C1588 1.349 . S
C1589 C1605 1.349 . S
C1590 C1588 1.327 . S
C1590 C1609 1.429 . S
C1590 H1614 0.950 . S
C1591 C1608 1.574 . S
C1591 C1610 1.368 . S
C1591 H1615 0.949 . S
H1592 C1596 0.949 . S
C1593 C1594 1.349 . S
C1593 C1595 1.327 . S
C1593 H1616 0.950 . S
C1594 C1593 1.349 . S
C1594 C1606 1.349 . S
C1595 C1593 1.327 . S
C1595 C1611 1.429 . S
C1595 H1617 0.950 . S
C1596 H1592 0.949 . S
C1596 C1604 1.574 . S
C1596 C1612 1.368 . S
H1597 C1605 0.950 . S
H1598 C1603 0.950 . S
H1599 C1604 0.949 . S
H1600 C1606 0.950 . S
H1601 C1607 0.950 . S
H1602 C1608 0.949 . S
C1603 H1598 0.950 . S
C1603 C1605 1.327 . S
C1603 C1609 1.429 . S
C1604 C1596 1.574 . S
C1604 H1599 0.949 . S
C1604 C1610 1.368 . S
C1605 C1589 1.349 . S
C1605 H1597 0.950 . S
C1605 C1603 1.327 . S
C1606 C1594 1.349 . S
C1606 H1600 0.950 . S
C1606 C1607 1.327 . S
C1607 H1601 0.950 . S
C1607 C1606 1.327 . S
C1607 C1611 1.429 . S
C1608 C1591 1.574 . S
C1608 H1602 0.949 . S
C1608 C1612 1.368 . S
C1609 C1590 1.429 . S
C1609 C1603 1.429 . S
C1609 C1610 1.523 . S
C1610 C1591 1.368 . S
C1610 C1604 1.368 . S
C1610 C1609 1.523 . S
C1611 C1595 1.429 . S
C1611 C1607 1.429 . S
C1611 C1612 1.523 . S
C1612 C1596 1.368 . S
C1612 C1608 1.368 . S
C1612 C1611 1.523 . S
H1613 C1588 0.950 . S
H1614 C1590 0.950 . S
H1615 C1591 0.949 . S
H1616 C1593 0.950 . S
H1617 C1595 0.950 . S
C1618 C1619 1.349 . S
C1618 C1620 1.327 . S
C1618 H1643 0.950 . S
C1619 C1618 1.349 . S
C1619 C1635 1.349 . S
C1620 C1618 1.327 . S
C1620 C1639 1.429 . S
C1620 H1644 0.950 . S
C1621 C1638 1.574 . S
C1621 C1640 1.368 . S
C1621 H1645 0.949 . S
H1622 C1626 0.949 . S
C1623 C1624 1.349 . S
C1623 C1625 1.327 . S
C1623 H1646 0.950 . S
C1624 C1623 1.349 . S
C1624 C1636 1.349 . S
C1625 C1623 1.327 . S
C1625 C1641 1.429 . S
C1625 H1647 0.950 . S
C1626 H1622 0.949 . S
C1626 C1634 1.574 . S
C1626 C1642 1.368 . S
H1627 C1635 0.950 . S
H1628 C1633 0.950 . S
H1629 C1634 0.949 . S
H1630 C1636 0.950 . S
H1631 C1637 0.950 . S
H1632 C1638 0.949 . S
C1633 H1628 0.950 . S
C1633 C1635 1.327 . S
C1633 C1639 1.429 . S
C1634 C1626 1.574 . S
C1634 H1629 0.949 . S
C1634 C1640 1.368 . S
C1635 C1619 1.349 . S
C1635 H1627 0.950 . S
C1635 C1633 1.327 . S
C1636 C1624 1.349 . S
C1636 H1630 0.950 . S
C1636 C1637 1.327 . S
C1637 H1631 0.950 . S
C1637 C1636 1.327 . S
C1637 C1641 1.429 . S
C1638 C1621 1.574 . S
C1638 H1632 0.949 . S
C1638 C1642 1.368 . S
C1639 C1620 1.429 . S
C1639 C1633 1.429 . S
C1639 C1640 1.523 . S
C1640 C1621 1.368 . S
C1640 C1634 1.368 . S
C1640 C1639 1.523 . S
C1641 C1625 1.429 . S
C1641 C1637 1.429 . S
C1641 C1642 1.523 . S
C1642 C1626 1.368 . S
C1642 C1638 1.368 . S
C1642 C1641 1.523 . S
H1643 C1618 0.950 . S
H1644 C1620 0.950 . S
H1645 C1621 0.949 . S
H1646 C1623 0.950 . S
H1647 C1625 0.950 . S
C1648 C1649 1.349 . S
C1648 C1650 1.327 . S
C1648 H1673 0.950 . S
C1649 C1648 1.349 . S
C1649 C1665 1.349 . S
C1650 C1648 1.327 . S
C1650 C1669 1.429 . S
C1650 H1674 0.950 . S
C1651 C1668 1.574 . S
C1651 C1670 1.368 . S
C1651 H1675 0.949 . S
H1652 C1656 0.949 . S
C1653 C1654 1.349 . S
C1653 C1655 1.327 . S
C1653 H1676 0.950 . S
C1654 C1653 1.349 . S
C1654 C1666 1.349 . S
C1655 C1653 1.327 . S
C1655 C1671 1.429 . S
C1655 H1677 0.950 . S
C1656 H1652 0.949 . S
C1656 C1664 1.574 . S
C1656 C1672 1.368 . S
H1657 C1665 0.950 . S
H1658 C1663 0.950 . S
H1659 C1664 0.949 . S
H1660 C1666 0.950 . S
H1661 C1667 0.950 . S
H1662 C1668 0.949 . S
C1663 H1658 0.950 . S
C1663 C1665 1.327 . S
C1663 C1669 1.429 . S
C1664 C1656 1.574 . S
C1664 H1659 0.949 . S
C1664 C1670 1.368 . S
C1665 C1649 1.349 . S
C1665 H1657 0.950 . S
C1665 C1663 1.327 . S
C1666 C1654 1.349 . S
C1666 H1660 0.950 . S
C1666 C1667 1.327 . S
C1667 H1661 0.950 . S
C1667 C1666 1.327 . S
C1667 C1671 1.429 . S
C1668 C1651 1.574 . S
C1668 H1662 0.949 . S
C1668 C1672 1.368 . S
C1669 C1650 1.429 . S
C1669 C1663 1.429 . S
C1669 C1670 1.523 . S
C1670 C1651 1.368 . S
C1670 C1664 1.368 . S
C1670 C1669 1.523 . S
C1671 C1655 1.429 . S
C1671 C1667 1.429 . S
C1671 C1672 1.523 . S
C1672 C1656 1.368 . S
C1672 C1668 1.368 . S
C1672 C1671 1.523 . S
H1673 C1648 0.950 . S
H1674 C1650 0.950 . S
H1675 C1651 0.949 . S
H1676 C1653 0.950 . S
H1677 C1655 0.950 . S
C1678 C1679 1.349 . S
C1678 C1680 1.327 . S
C1678 H1703 0.950 . S
C1679 C1678 1.349 . S
C1679 C1695 1.349 . S
C1680 C1678 1.327 . S
C1680 C1699 1.429 . S
C1680 H1704 0.950 . S
C1681 C1698 1.574 . S
C1681 C1700 1.368 . S
C1681 H1705 0.949 . S
H1682 C1686 0.949 . S
C1683 C1684 1.349 . S
C1683 C1685 1.327 . S
C1683 H1706 0.950 . S
C1684 C1683 1.349 . S
C1684 C1696 1.349 . S
C1685 C1683 1.327 . S
C1685 C1701 1.429 . S
C1685 H1707 0.950 . S
C1686 H1682 0.949 . S
C1686 C1694 1.574 . S
C1686 C1702 1.368 . S
H1687 C1695 0.950 . S
H1688 C1693 0.950 . S
H1689 C1694 0.949 . S
H1690 C1696 0.950 . S
H1691 C1697 0.950 . S
H1692 C1698 0.949 . S
C1693 H1688 0.950 . S
C1693 C1695 1.327 . S
C1693 C1699 1.429 . S
C1694 C1686 1.574 . S
C1694 H1689 0.949 . S
C1694 C1700 1.368 . S
C1695 C1679 1.349 . S
C1695 H1687 0.950 . S
C1695 C1693 1.327 . S
C1696 C1684 1.349 . S
C1696 H1690 0.950 . S
C1696 C1697 1.327 . S
C1697 H1691 0.950 . S
C1697 C1696 1.327 . S
C1697 C1701 1.429 . S
C1698 C1681 1.574 . S
C1698 H1692 0.949 . S
C1698 C1702 1.368 . S
C1699 C1680 1.429 . S
C1699 C1693 1.429 . S
C1699 C1700 1.523 . S
C1700 C1681 1.368 . S
C1700 C1694 1.368 . S
C1700 C1699 1.523 . S
C1701 C1685 1.429 . S
C1701 C1697 1.429 . S
C1701 C1702 1.523 . S
C1702 C1686 1.368 . S
C1702 C1698 1.368 . S
C1702 C1701 1.523 . S
H1703 C1678 0.950 . S
H1704 C1680 0.950 . S
H1705 C1681 0.949 . S
H1706 C1683 0.950 . S
H1707 C1685 0.950 . S
C1708 C1709 1.349 . S
C1708 C1710 1.327 . S
C1708 H1733 0.950 . S
C1709 C1708 1.349 . S
C1709 C1725 1.349 . S
C1710 C1708 1.327 . S
C1710 C1729 1.429 . S
C1710 H1734 0.950 . S
C1711 C1728 1.574 . S
C1711 C1730 1.368 . S
C1711 H1735 0.949 . S
H1712 C1716 0.949 . S
C1713 C1714 1.349 . S
C1713 C1715 1.327 . S
C1713 H1736 0.950 . S
C1714 C1713 1.349 . S
C1714 C1726 1.349 . S
C1715 C1713 1.327 . S
C1715 C1731 1.429 . S
C1715 H1737 0.950 . S
C1716 H1712 0.949 . S
C1716 C1724 1.574 . S
C1716 C1732 1.368 . S
H1717 C1725 0.950 . S
H1718 C1723 0.950 . S
H1719 C1724 0.949 . S
H1720 C1726 0.950 . S
H1721 C1727 0.950 . S
H1722 C1728 0.949 . S
C1723 H1718 0.950 . S
C1723 C1725 1.327 . S
C1723 C1729 1.429 . S
C1724 C1716 1.574 . S
C1724 H1719 0.949 . S
C1724 C1730 1.368 . S
C1725 C1709 1.349 . S
C1725 H1717 0.950 . S
C1725 C1723 1.327 . S
C1726 C1714 1.349 . S
C1726 H1720 0.950 . S
C1726 C1727 1.327 . S
C1727 H1721 0.950 . S
C1727 C1726 1.327 . S
C1727 C1731 1.429 . S
C1728 C1711 1.574 . S
C1728 H1722 0.949 . S
C1728 C1732 1.368 . S
C1729 C1710 1.429 . S
C1729 C1723 1.429 . S
C1729 C1730 1.523 . S
C1730 C1711 1.368 . S
C1730 C1724 1.368 . S
C1730 C1729 1.523 . S
C1731 C1715 1.429 . S
C1731 C1727 1.429 . S
C1731 C1732 1.523 . S
C1732 C1716 1.368 . S
C1732 C1728 1.368 . S
C1732 C1731 1.523 . S
H1733 C1708 0.950 . S
H1734 C1710 0.950 . S
H1735 C1711 0.949 . S
H1736 C1713 0.950 . S
H1737 C1715 0.950 . S
C1738 C1739 1.349 . S
C1738 C1740 1.327 . S
C1738 H1763 0.950 . S
C1739 C1738 1.349 . S
C1739 C1755 1.349 . S
C1740 C1738 1.327 . S
C1740 C1759 1.429 . S
C1740 H1764 0.950 . S
C1741 C1758 1.574 . S
C1741 C1760 1.368 . S
C1741 H1765 0.949 . S
H1742 C1746 0.949 . S
C1743 C1744 1.349 . S
C1743 C1745 1.327 . S
C1743 H1766 0.950 . S
C1744 C1743 1.349 . S
C1744 C1756 1.349 . S
C1745 C1743 1.327 . S
C1745 C1761 1.429 . S
C1745 H1767 0.950 . S
C1746 H1742 0.949 . S
C1746 C1754 1.574 . S
C1746 C1762 1.368 . S
H1747 C1755 0.950 . S
H1748 C1753 0.950 . S
H1749 C1754 0.949 . S
H1750 C1756 0.950 . S
H1751 C1757 0.950 . S
H1752 C1758 0.949 . S
C1753 H1748 0.950 . S
C1753 C1755 1.327 . S
C1753 C1759 1.429 . S
C1754 C1746 1.574 . S
C1754 H1749 0.949 . S
C1754 C1760 1.368 . S
C1755 C1739 1.349 . S
C1755 H1747 0.950 . S
C1755 C1753 1.327 . S
C1756 C1744 1.349 . S
C1756 H1750 0.950 . S
C1756 C1757 1.327 . S
C1757 H1751 0.950 . S
C1757 C1756 1.327 . S
C1757 C1761 1.429 . S
C1758 C1741 1.574 . S
C1758 H1752 0.949 . S
C1758 C1762 1.368 . S
C1759 C1740 1.429 . S
C1759 C1753 1.429 . S
C1759 C1760 1.523 . S
C1760 C1741 1.368 . S
C1760 C1754 1.368 . S
C1760 C1759 1.523 . S
C1761 C1745 1.429 . S
C1761 C1757 1.429 . S
C1761 C1762 1.523 . S
C1762 C1746 1.368 . S
C1762 C1758 1.368 . S
C1762 C1761 1.523 . S
H1763 C1738 0.950 . S
H1764 C1740 0.950 . S
H1765 C1741 0.949 . S
H1766 C1743 0.950 . S
H1767 C1745 0.950 . S
C1768 C1769 1.349 . S
C1768 C1770 1.327 . S
C1768 H1793 0.950 . S
C1769 C1768 1.349 . S
C1769 C1785 1.349 . S
C1770 C1768 1.327 . S
C1770 C1789 1.429 . S
C1770 H1794 0.950 . S
C1771 C1788 1.574 . S
C1771 C1790 1.368 . S
C1771 H1795 0.949 . S
H1772 C1776 0.949 . S
C1773 C1774 1.349 . S
C1773 C1775 1.327 . S
C1773 H1796 0.950 . S
C1774 C1773 1.349 . S
C1774 C1786 1.349 . S
C1775 C1773 1.327 . S
C1775 C1791 1.429 . S
C1775 H1797 0.950 . S
C1776 H1772 0.949 . S
C1776 C1784 1.574 . S
C1776 C1792 1.368 . S
H1777 C1785 0.950 . S
H1778 C1783 0.950 . S
H1779 C1784 0.949 . S
H1780 C1786 0.950 . S
H1781 C1787 0.950 . S
H1782 C1788 0.949 . S
C1783 H1778 0.950 . S
C1783 C1785 1.327 . S
C1783 C1789 1.429 . S
C1784 C1776 1.574 . S
C1784 H1779 0.949 . S
C1784 C1790 1.368 . S
C1785 C1769 1.349 . S
C1785 H1777 0.950 . S
C1785 C1783 1.327 . S
C1786 C1774 1.349 . S
C1786 H1780 0.950 . S
C1786 C1787 1.327 . S
C1787 H1781 0.950 . S
C1787 C1786 1.327 . S
C1787 C1791 1.429 . S
C1788 C1771 1.574 . S
C1788 H1782 0.949 . S
C1788 C1792 1.368 . S
C1789 C1770 1.429 . S
C1789 C1783 1.429 . S
C1789 C1790 1.523 . S
C1790 C1771 1.368 . S
C1790 C1784 1.368 . S
C1790 C1789 1.523 . S
C1791 C1775 1.429 . S
C1791 C1787 1.429 . S
C1791 C1792 1.523 . S
C1792 C1776 1.368 . S
C1792 C1788 1.368 . S
C1792 C1791 1.523 . S
H1793 C1768 0.950 . S
H1794 C1770 0.950 . S
H1795 C1771 0.949 . S
H1796 C1773 0.950 . S
H1797 C1775 0.950 . S
C1798 C1799 1.349 . S
C1798 C1800 1.327 . S
C1798 H1823 0.950 . S
C1799 C1798 1.349 . S
C1799 C1815 1.349 1_556 S
C1800 C1798 1.327 . S
C1800 C1819 1.429 . S
C1800 H1824 0.950 . S
C1801 C1818 1.574 . S
C1801 C1820 1.368 1_554 S
C1801 H1825 0.949 . S
H1802 C1806 0.949 . S
C1803 C1804 1.349 1_554 S
C1803 C1805 1.327 . S
C1803 H1826 0.950 . S
C1804 C1803 1.349 1_556 S
C1804 C1816 1.349 . S
C1805 C1803 1.327 . S
C1805 C1821 1.429 1_554 S
C1805 H1827 0.950 . S
C1806 H1802 0.949 . S
C1806 C1814 1.574 . S
C1806 C1822 1.368 . S
H1807 C1815 0.950 . S
H1808 C1813 0.950 . S
H1809 C1814 0.949 . S
H1810 C1816 0.950 . S
H1811 C1817 0.950 . S
H1812 C1818 0.949 . S
C1813 H1808 0.950 . S
C1813 C1815 1.327 . S
C1813 C1819 1.429 1_554 S
C1814 C1806 1.574 . S
C1814 H1809 0.949 . S
C1814 C1820 1.368 . S
C1815 C1799 1.349 1_554 S
C1815 H1807 0.950 . S
C1815 C1813 1.327 . S
C1816 C1804 1.349 . S
C1816 H1810 0.950 . S
C1816 C1817 1.327 . S
C1817 H1811 0.950 . S
C1817 C1816 1.327 . S
C1817 C1821 1.429 . S
C1818 C1801 1.574 . S
C1818 H1812 0.949 . S
C1818 C1822 1.368 1_554 S
C1819 C1800 1.429 . S
C1819 C1813 1.429 1_556 S
C1819 C1820 1.523 . S
C1820 C1801 1.368 1_556 S
C1820 C1814 1.368 . S
C1820 C1819 1.523 . S
C1821 C1805 1.429 1_556 S
C1821 C1817 1.429 . S
C1821 C1822 1.523 . S
C1822 C1806 1.368 . S
C1822 C1818 1.368 1_556 S
C1822 C1821 1.523 . S
H1823 C1798 0.950 . S
H1824 C1800 0.950 . S
H1825 C1801 0.949 . S
H1826 C1803 0.950 . S
H1827 C1805 0.950 . S
C1828 C1829 1.349 . S
C1828 C1830 1.327 . S
C1828 H1853 0.950 . S
C1829 C1828 1.349 . S
C1829 C1845 1.349 . S
C1830 C1828 1.327 . S
C1830 C1849 1.429 . S
C1830 H1854 0.950 . S
C1831 C1848 1.574 . S
C1831 C1850 1.368 . S
C1831 H1855 0.949 . S
H1832 C1836 0.949 . S
C1833 C1834 1.349 . S
C1833 C1835 1.327 . S
C1833 H1856 0.950 . S
C1834 C1833 1.349 . S
C1834 C1846 1.349 . S
C1835 C1833 1.327 . S
C1835 C1851 1.429 . S
C1835 H1857 0.950 . S
C1836 H1832 0.949 . S
C1836 C1844 1.574 . S
C1836 C1852 1.368 . S
H1837 C1845 0.950 . S
H1838 C1843 0.950 . S
H1839 C1844 0.949 . S
H1840 C1846 0.950 . S
H1841 C1847 0.950 . S
H1842 C1848 0.949 . S
C1843 H1838 0.950 . S
C1843 C1845 1.327 . S
C1843 C1849 1.429 . S
C1844 C1836 1.574 . S
C1844 H1839 0.949 . S
C1844 C1850 1.368 . S
C1845 C1829 1.349 . S
C1845 H1837 0.950 . S
C1845 C1843 1.327 . S
C1846 C1834 1.349 . S
C1846 H1840 0.950 . S
C1846 C1847 1.327 . S
C1847 H1841 0.950 . S
C1847 C1846 1.327 . S
C1847 C1851 1.429 . S
C1848 C1831 1.574 . S
C1848 H1842 0.949 . S
C1848 C1852 1.368 . S
C1849 C1830 1.429 . S
C1849 C1843 1.429 . S
C1849 C1850 1.523 . S
C1850 C1831 1.368 . S
C1850 C1844 1.368 . S
C1850 C1849 1.523 . S
C1851 C1835 1.429 . S
C1851 C1847 1.429 . S
C1851 C1852 1.523 . S
C1852 C1836 1.368 . S
C1852 C1848 1.368 . S
C1852 C1851 1.523 . S
H1853 C1828 0.950 . S
H1854 C1830 0.950 . S
H1855 C1831 0.949 . S
H1856 C1833 0.950 . S
H1857 C1835 0.950 . S
C1858 C1859 1.349 1_556 S
C1858 C1860 1.327 . S
C1858 H1883 0.950 . S
C1859 C1858 1.349 1_554 S
C1859 C1875 1.349 . S
C1860 C1858 1.327 . S
C1860 C1879 1.429 1_556 S
C1860 H1884 0.950 . S
C1861 C1878 1.574 . S
C1861 C1880 1.368 . S
C1861 H1885 0.949 . S
H1862 C1866 0.949 . S
C1863 C1864 1.349 . S
C1863 C1865 1.327 . S
C1863 H1886 0.950 . S
C1864 C1863 1.349 . S
C1864 C1876 1.349 1_554 S
C1865 C1863 1.327 . S
C1865 C1881 1.429 . S
C1865 H1887 0.950 . S
C1866 H1862 0.949 . S
C1866 C1874 1.574 . S
C1866 C1882 1.368 1_556 S
H1867 C1875 0.950 . S
H1868 C1873 0.950 . S
H1869 C1874 0.949 . S
H1870 C1876 0.950 . S
H1871 C1877 0.950 . S
H1872 C1878 0.949 . S
C1873 H1868 0.950 . S
C1873 C1875 1.327 . S
C1873 C1879 1.429 . S
C1874 C1866 1.574 . S
C1874 H1869 0.949 . S
C1874 C1880 1.368 1_556 S
C1875 C1859 1.349 . S
C1875 H1867 0.950 . S
C1875 C1873 1.327 . S
C1876 C1864 1.349 1_556 S
C1876 H1870 0.950 . S
C1876 C1877 1.327 . S
C1877 H1871 0.950 . S
C1877 C1876 1.327 . S
C1877 C1881 1.429 1_556 S
C1878 C1861 1.574 . S
C1878 H1872 0.949 . S
C1878 C1882 1.368 . S
C1879 C1860 1.429 1_554 S
C1879 C1873 1.429 . S
C1879 C1880 1.523 . S
C1880 C1861 1.368 . S
C1880 C1874 1.368 1_554 S
C1880 C1879 1.523 . S
C1881 C1865 1.429 . S
C1881 C1877 1.429 1_554 S
C1881 C1882 1.523 . S
C1882 C1866 1.368 1_554 S
C1882 C1878 1.368 . S
C1882 C1881 1.523 . S
H1883 C1858 0.950 . S
H1884 C1860 0.950 . S
H1885 C1861 0.949 . S
H1886 C1863 0.950 . S
H1887 C1865 0.950 . S
C1888 C1889 1.349 . S
C1888 C1890 1.327 . S
C1888 H1913 0.950 1_655 S
C1889 C1888 1.349 . S
C1889 C1905 1.349 . S
C1890 C1888 1.327 . S
C1890 C1909 1.429 . S
C1890 H1914 0.950 . S
C1891 C1908 1.574 . S
C1891 C1910 1.368 . S
C1891 H1915 0.949 . S
H1892 C1896 0.949 . S
C1893 C1894 1.349 . S
C1893 C1895 1.327 . S
C1893 H1916 0.950 . S
C1894 C1893 1.349 . S
C1894 C1906 1.349 . S
C1895 C1893 1.327 . S
C1895 C1911 1.429 . S
C1895 H1917 0.950 . S
C1896 H1892 0.949 . S
C1896 C1904 1.574 . S
C1896 C1912 1.368 . S
H1897 C1905 0.950 . S
H1898 C1903 0.950 . S
H1899 C1904 0.949 . S
H1900 C1906 0.950 . S
H1901 C1907 0.950 . S
H1902 C1908 0.949 . S
C1903 H1898 0.950 . S
C1903 C1905 1.327 . S
C1903 C1909 1.429 . S
C1904 C1896 1.574 . S
C1904 H1899 0.949 . S
C1904 C1910 1.368 . S
C1905 C1889 1.349 . S
C1905 H1897 0.950 . S
C1905 C1903 1.327 . S
C1906 C1894 1.349 . S
C1906 H1900 0.950 . S
C1906 C1907 1.327 . S
C1907 H1901 0.950 . S
C1907 C1906 1.327 . S
C1907 C1911 1.429 . S
C1908 C1891 1.574 . S
C1908 H1902 0.949 . S
C1908 C1912 1.368 . S
C1909 C1890 1.429 . S
C1909 C1903 1.429 . S
C1909 C1910 1.523 . S
C1910 C1891 1.368 . S
C1910 C1904 1.368 . S
C1910 C1909 1.523 . S
C1911 C1895 1.429 . S
C1911 C1907 1.429 . S
C1911 C1912 1.523 . S
C1912 C1896 1.368 . S
C1912 C1908 1.368 . S
C1912 C1911 1.523 . S
H1913 C1888 0.950 1_455 S
H1914 C1890 0.950 . S
H1915 C1891 0.949 . S
H1916 C1893 0.950 . S
H1917 C1895 0.950 . S
C1918 C1919 1.349 . S
C1918 C1920 1.327 . S
C1918 H1943 0.950 . S
C1919 C1918 1.349 . S
C1919 C1935 1.349 . S
C1920 C1918 1.327 . S
C1920 C1939 1.429 . S
C1920 H1944 0.950 . S
C1921 C1938 1.574 . S
C1921 C1940 1.368 . S
C1921 H1945 0.949 . S
H1922 C1926 0.949 . S
C1923 C1924 1.349 . S
C1923 C1925 1.327 . S
C1923 H1946 0.950 . S
C1924 C1923 1.349 . S
C1924 C1936 1.349 . S
C1925 C1923 1.327 . S
C1925 C1941 1.429 . S
C1925 H1947 0.950 . S
C1926 H1922 0.949 . S
C1926 C1934 1.574 . S
C1926 C1942 1.368 . S
H1927 C1935 0.950 . S
H1928 C1933 0.950 . S
H1929 C1934 0.949 . S
H1930 C1936 0.950 . S
H1931 C1937 0.950 . S
H1932 C1938 0.949 . S
C1933 H1928 0.950 . S
C1933 C1935 1.327 . S
C1933 C1939 1.429 . S
C1934 C1926 1.574 . S
C1934 H1929 0.949 . S
C1934 C1940 1.368 . S
C1935 C1919 1.349 . S
C1935 H1927 0.950 . S
C1935 C1933 1.327 . S
C1936 C1924 1.349 . S
C1936 H1930 0.950 . S
C1936 C1937 1.327 . S
C1937 H1931 0.950 . S
C1937 C1936 1.327 . S
C1937 C1941 1.429 . S
C1938 C1921 1.574 . S
C1938 H1932 0.949 . S
C1938 C1942 1.368 . S
C1939 C1920 1.429 . S
C1939 C1933 1.429 . S
C1939 C1940 1.523 . S
C1940 C1921 1.368 . S
C1940 C1934 1.368 . S
C1940 C1939 1.523 . S
C1941 C1925 1.429 . S
C1941 C1937 1.429 . S
C1941 C1942 1.523 . S
C1942 C1926 1.368 . S
C1942 C1938 1.368 . S
C1942 C1941 1.523 . S
H1943 C1918 0.950 . S
H1944 C1920 0.950 . S
H1945 C1921 0.949 . S
H1946 C1923 0.950 . S
H1947 C1925 0.950 . S
C1948 C1949 1.349 . S
C1948 C1950 1.327 . S
C1948 H1973 0.950 . S
C1949 C1948 1.349 . S
C1949 C1965 1.349 . S
C1950 C1948 1.327 . S
C1950 C1969 1.429 . S
C1950 H1974 0.950 . S
C1951 C1968 1.574 . S
C1951 C1970 1.368 . S
C1951 H1975 0.949 . S
H1952 C1956 0.949 . S
C1953 C1954 1.349 . S
C1953 C1955 1.327 . S
C1953 H1976 0.950 1_655 S
C1954 C1953 1.349 . S
C1954 C1966 1.349 . S
C1955 C1953 1.327 . S
C1955 C1971 1.429 . S
C1955 H1977 0.950 . S
C1956 H1952 0.949 . S
C1956 C1964 1.574 . S
C1956 C1972 1.368 . S
H1957 C1965 0.950 . S
H1958 C1963 0.950 . S
H1959 C1964 0.949 . S
H1960 C1966 0.950 . S
H1961 C1967 0.950 . S
H1962 C1968 0.949 . S
C1963 H1958 0.950 . S
C1963 C1965 1.327 . S
C1963 C1969 1.429 . S
C1964 C1956 1.574 . S
C1964 H1959 0.949 . S
C1964 C1970 1.368 . S
C1965 C1949 1.349 . S
C1965 H1957 0.950 . S
C1965 C1963 1.327 . S
C1966 C1954 1.349 . S
C1966 H1960 0.950 . S
C1966 C1967 1.327 . S
C1967 H1961 0.950 . S
C1967 C1966 1.327 . S
C1967 C1971 1.429 . S
C1968 C1951 1.574 . S
C1968 H1962 0.949 . S
C1968 C1972 1.368 . S
C1969 C1950 1.429 . S
C1969 C1963 1.429 . S
C1969 C1970 1.523 . S
C1970 C1951 1.368 . S
C1970 C1964 1.368 . S
C1970 C1969 1.523 . S
C1971 C1955 1.429 . S
C1971 C1967 1.429 . S
C1971 C1972 1.523 . S
C1972 C1956 1.368 . S
C1972 C1968 1.368 . S
C1972 C1971 1.523 . S
H1973 C1948 0.950 . S
H1974 C1950 0.950 . S
H1975 C1951 0.949 . S
H1976 C1953 0.950 1_455 S
H1977 C1955 0.950 . S
C1978 C1979 1.349 . S
C1978 C1980 1.327 . S
C1978 H2003 0.950 . S
C1979 C1978 1.349 . S
C1979 C1995 1.349 . S
C1980 C1978 1.327 . S
C1980 C1999 1.429 . S
C1980 H2004 0.950 . S
C1981 C1998 1.574 . S
C1981 C2000 1.368 . S
C1981 H2005 0.949 . S
H1982 C1986 0.949 . S
C1983 C1984 1.349 . S
C1983 C1985 1.327 . S
C1983 H2006 0.950 . S
C1984 C1983 1.349 . S
C1984 C1996 1.349 . S
C1985 C1983 1.327 . S
C1985 C2001 1.429 . S
C1985 H2007 0.950 . S
C1986 H1982 0.949 . S
C1986 C1994 1.574 . S
C1986 C2002 1.368 . S
H1987 C1995 0.950 . S
H1988 C1993 0.950 . S
H1989 C1994 0.949 . S
H1990 C1996 0.950 . S
H1991 C1997 0.950 . S
H1992 C1998 0.949 . S
C1993 H1988 0.950 . S
C1993 C1995 1.327 . S
C1993 C1999 1.429 . S
C1994 C1986 1.574 . S
C1994 H1989 0.949 . S
C1994 C2000 1.368 . S
C1995 C1979 1.349 . S
C1995 H1987 0.950 . S
C1995 C1993 1.327 . S
C1996 C1984 1.349 . S
C1996 H1990 0.950 . S
C1996 C1997 1.327 . S
C1997 H1991 0.950 . S
C1997 C1996 1.327 . S
C1997 C2001 1.429 . S
C1998 C1981 1.574 . S
C1998 H1992 0.949 . S
C1998 C2002 1.368 . S
C1999 C1980 1.429 . S
C1999 C1993 1.429 . S
C1999 C2000 1.523 . S
C2000 C1981 1.368 . S
C2000 C1994 1.368 . S
C2000 C1999 1.523 . S
C2001 C1985 1.429 . S
C2001 C1997 1.429 . S
C2001 C2002 1.523 . S
C2002 C1986 1.368 . S
C2002 C1998 1.368 . S
C2002 C2001 1.523 . S
H2003 C1978 0.950 . S
H2004 C1980 0.950 . S
H2005 C1981 0.949 . S
H2006 C1983 0.950 . S
H2007 C1985 0.950 . S
C2008 C2009 1.349 . S
C2008 C2010 1.327 . S
C2008 H2033 0.950 . S
C2009 C2008 1.349 . S
C2009 C2025 1.349 . S
C2010 C2008 1.327 . S
C2010 C2029 1.429 . S
C2010 H2034 0.950 . S
C2011 C2028 1.574 . S
C2011 C2030 1.368 . S
C2011 H2035 0.949 . S
H2012 C2016 0.949 . S
C2013 C2014 1.349 . S
C2013 C2015 1.327 . S
C2013 H2036 0.950 1_455 S
C2014 C2013 1.349 . S
C2014 C2026 1.349 . S
C2015 C2013 1.327 . S
C2015 C2031 1.429 . S
C2015 H2037 0.950 . S
C2016 H2012 0.949 . S
C2016 C2024 1.574 . S
C2016 C2032 1.368 . S
H2017 C2025 0.950 . S
H2018 C2023 0.950 . S
H2019 C2024 0.949 . S
H2020 C2026 0.950 . S
H2021 C2027 0.950 . S
H2022 C2028 0.949 . S
C2023 H2018 0.950 . S
C2023 C2025 1.327 . S
C2023 C2029 1.429 . S
C2024 C2016 1.574 . S
C2024 H2019 0.949 . S
C2024 C2030 1.368 . S
C2025 C2009 1.349 . S
C2025 H2017 0.950 . S
C2025 C2023 1.327 . S
C2026 C2014 1.349 . S
C2026 H2020 0.950 . S
C2026 C2027 1.327 . S
C2027 H2021 0.950 . S
C2027 C2026 1.327 . S
C2027 C2031 1.429 . S
C2028 C2011 1.574 . S
C2028 H2022 0.949 . S
C2028 C2032 1.368 . S
C2029 C2010 1.429 . S
C2029 C2023 1.429 . S
C2029 C2030 1.523 . S
C2030 C2011 1.368 . S
C2030 C2024 1.368 . S
C2030 C2029 1.523 . S
C2031 C2015 1.429 . S
C2031 C2027 1.429 . S
C2031 C2032 1.523 . S
C2032 C2016 1.368 . S
C2032 C2028 1.368 . S
C2032 C2031 1.523 . S
H2033 C2008 0.950 . S
H2034 C2010 0.950 . S
H2035 C2011 0.949 . S
H2036 C2013 0.950 1_655 S
H2037 C2015 0.950 . S
C2038 C2039 1.349 . S
C2038 C2040 1.327 . S
C2038 H2063 0.950 . S
C2039 C2038 1.349 . S
C2039 C2055 1.349 . S
C2040 C2038 1.327 . S
C2040 C2059 1.429 . S
C2040 H2064 0.950 . S
C2041 C2058 1.574 . S
C2041 C2060 1.368 . S
C2041 H2065 0.949 . S
H2042 C2046 0.949 . S
C2043 C2044 1.349 . S
C2043 C2045 1.327 . S
C2043 H2066 0.950 . S
C2044 C2043 1.349 . S
C2044 C2056 1.349 . S
C2045 C2043 1.327 . S
C2045 C2061 1.429 . S
C2045 H2067 0.950 . S
C2046 H2042 0.949 . S
C2046 C2054 1.574 . S
C2046 C2062 1.368 . S
H2047 C2055 0.950 . S
H2048 C2053 0.950 . S
H2049 C2054 0.949 . S
H2050 C2056 0.950 . S
H2051 C2057 0.950 . S
H2052 C2058 0.949 . S
C2053 H2048 0.950 . S
C2053 C2055 1.327 . S
C2053 C2059 1.429 . S
C2054 C2046 1.574 . S
C2054 H2049 0.949 . S
C2054 C2060 1.368 . S
C2055 C2039 1.349 . S
C2055 H2047 0.950 . S
C2055 C2053 1.327 . S
C2056 C2044 1.349 . S
C2056 H2050 0.950 . S
C2056 C2057 1.327 . S
C2057 H2051 0.950 . S
C2057 C2056 1.327 . S
C2057 C2061 1.429 . S
C2058 C2041 1.574 . S
C2058 H2052 0.949 . S
C2058 C2062 1.368 . S
C2059 C2040 1.429 . S
C2059 C2053 1.429 . S
C2059 C2060 1.523 . S
C2060 C2041 1.368 . S
C2060 C2054 1.368 . S
C2060 C2059 1.523 . S
C2061 C2045 1.429 . S
C2061 C2057 1.429 . S
C2061 C2062 1.523 . S
C2062 C2046 1.368 . S
C2062 C2058 1.368 . S
C2062 C2061 1.523 . S
H2063 C2038 0.950 . S
H2064 C2040 0.950 . S
H2065 C2041 0.949 . S
H2066 C2043 0.950 . S
H2067 C2045 0.950 . S
C2068 C2069 1.349 . S
C2068 C2070 1.327 . S
C2068 H2093 0.950 . S
C2069 C2068 1.349 . S
C2069 C2085 1.349 . S
C2070 C2068 1.327 . S
C2070 C2089 1.429 . S
C2070 H2094 0.950 . S
C2071 C2088 1.574 . S
C2071 C2090 1.368 . S
C2071 H2095 0.949 . S
H2072 C2076 0.949 . S
C2073 C2074 1.349 . S
C2073 C2075 1.327 . S
C2073 H2096 0.950 . S
C2074 C2073 1.349 . S
C2074 C2086 1.349 . S
C2075 C2073 1.327 . S
C2075 C2091 1.429 . S
C2075 H2097 0.950 . S
C2076 H2072 0.949 . S
C2076 C2084 1.574 . S
C2076 C2092 1.368 . S
H2077 C2085 0.950 . S
H2078 C2083 0.950 . S
H2079 C2084 0.949 . S
H2080 C2086 0.950 1_655 S
H2081 C2087 0.950 . S
H2082 C2088 0.949 . S
C2083 H2078 0.950 . S
C2083 C2085 1.327 . S
C2083 C2089 1.429 . S
C2084 C2076 1.574 . S
C2084 H2079 0.949 . S
C2084 C2090 1.368 . S
C2085 C2069 1.349 . S
C2085 H2077 0.950 . S
C2085 C2083 1.327 . S
C2086 C2074 1.349 . S
C2086 H2080 0.950 1_455 S
C2086 C2087 1.327 . S
C2087 H2081 0.950 . S
C2087 C2086 1.327 . S
C2087 C2091 1.429 . S
C2088 C2071 1.574 . S
C2088 H2082 0.949 . S
C2088 C2092 1.368 . S
C2089 C2070 1.429 . S
C2089 C2083 1.429 . S
C2089 C2090 1.523 . S
C2090 C2071 1.368 . S
C2090 C2084 1.368 . S
C2090 C2089 1.523 . S
C2091 C2075 1.429 . S
C2091 C2087 1.429 . S
C2091 C2092 1.523 . S
C2092 C2076 1.368 . S
C2092 C2088 1.368 . S
C2092 C2091 1.523 . S
H2093 C2068 0.950 . S
H2094 C2070 0.950 . S
H2095 C2071 0.949 . S
H2096 C2073 0.950 . S
H2097 C2075 0.950 . S
C2098 C2099 1.349 . S
C2098 C2100 1.327 . S
C2098 H2123 0.950 . S
C2099 C2098 1.349 . S
C2099 C2115 1.349 . S
C2100 C2098 1.327 . S
C2100 C2119 1.429 . S
C2100 H2124 0.950 . S
C2101 C2118 1.574 . S
C2101 C2120 1.368 . S
C2101 H2125 0.949 . S
H2102 C2106 0.949 . S
C2103 C2104 1.349 . S
C2103 C2105 1.327 . S
C2103 H2126 0.950 . S
C2104 C2103 1.349 . S
C2104 C2116 1.349 . S
C2105 C2103 1.327 . S
C2105 C2121 1.429 . S
C2105 H2127 0.950 . S
C2106 H2102 0.949 . S
C2106 C2114 1.574 . S
C2106 C2122 1.368 . S
H2107 C2115 0.950 . S
H2108 C2113 0.950 . S
H2109 C2114 0.949 . S
H2110 C2116 0.950 . S
H2111 C2117 0.950 . S
H2112 C2118 0.949 . S
C2113 H2108 0.950 . S
C2113 C2115 1.327 . S
C2113 C2119 1.429 . S
C2114 C2106 1.574 . S
C2114 H2109 0.949 . S
C2114 C2120 1.368 . S
C2115 C2099 1.349 . S
C2115 H2107 0.950 . S
C2115 C2113 1.327 . S
C2116 C2104 1.349 . S
C2116 H2110 0.950 . S
C2116 C2117 1.327 . S
C2117 H2111 0.950 . S
C2117 C2116 1.327 . S
C2117 C2121 1.429 . S
C2118 C2101 1.574 . S
C2118 H2112 0.949 . S
C2118 C2122 1.368 . S
C2119 C2100 1.429 . S
C2119 C2113 1.429 . S
C2119 C2120 1.523 . S
C2120 C2101 1.368 . S
C2120 C2114 1.368 . S
C2120 C2119 1.523 . S
C2121 C2105 1.429 . S
C2121 C2117 1.429 . S
C2121 C2122 1.523 . S
C2122 C2106 1.368 . S
C2122 C2118 1.368 . S
C2122 C2121 1.523 . S
H2123 C2098 0.950 . S
H2124 C2100 0.950 . S
H2125 C2101 0.949 . S
H2126 C2103 0.950 . S
H2127 C2105 0.950 . S
C2128 C2129 1.349 . S
C2128 C2130 1.327 . S
C2128 H2153 0.950 1_655 S
C2129 C2128 1.349 . S
C2129 C2145 1.349 . S
C2130 C2128 1.327 . S
C2130 C2149 1.429 . S
C2130 H2154 0.950 . S
C2131 C2148 1.574 . S
C2131 C2150 1.368 . S
C2131 H2155 0.949 . S
H2132 C2136 0.949 . S
C2133 C2134 1.349 . S
C2133 C2135 1.327 . S
C2133 H2156 0.950 . S
C2134 C2133 1.349 . S
C2134 C2146 1.349 . S
C2135 C2133 1.327 . S
C2135 C2151 1.429 . S
C2135 H2157 0.950 . S
C2136 H2132 0.949 . S
C2136 C2144 1.574 . S
C2136 C2152 1.368 . S
H2137 C2145 0.950 . S
H2138 C2143 0.950 . S
H2139 C2144 0.949 . S
H2140 C2146 0.950 . S
H2141 C2147 0.950 . S
H2142 C2148 0.949 . S
C2143 H2138 0.950 . S
C2143 C2145 1.327 . S
C2143 C2149 1.429 . S
C2144 C2136 1.574 . S
C2144 H2139 0.949 . S
C2144 C2150 1.368 . S
C2145 C2129 1.349 . S
C2145 H2137 0.950 . S
C2145 C2143 1.327 . S
C2146 C2134 1.349 . S
C2146 H2140 0.950 . S
C2146 C2147 1.327 . S
C2147 H2141 0.950 . S
C2147 C2146 1.327 . S
C2147 C2151 1.429 . S
C2148 C2131 1.574 . S
C2148 H2142 0.949 . S
C2148 C2152 1.368 . S
C2149 C2130 1.429 . S
C2149 C2143 1.429 . S
C2149 C2150 1.523 . S
C2150 C2131 1.368 . S
C2150 C2144 1.368 . S
C2150 C2149 1.523 . S
C2151 C2135 1.429 . S
C2151 C2147 1.429 . S
C2151 C2152 1.523 . S
C2152 C2136 1.368 . S
C2152 C2148 1.368 . S
C2152 C2151 1.523 . S
H2153 C2128 0.950 1_455 S
H2154 C2130 0.950 . S
H2155 C2131 0.949 . S
H2156 C2133 0.950 . S
H2157 C2135 0.950 . S
C2158 C2159 1.349 . S
C2158 C2160 1.327 . S
C2158 H2183 0.950 . S
C2159 C2158 1.349 . S
C2159 C2175 1.349 . S
C2160 C2158 1.327 . S
C2160 C2179 1.429 . S
C2160 H2184 0.950 . S
C2161 C2178 1.574 . S
C2161 C2180 1.368 . S
C2161 H2185 0.949 . S
H2162 C2166 0.949 . S
C2163 C2164 1.349 . S
C2163 C2165 1.327 . S
C2163 H2186 0.950 . S
C2164 C2163 1.349 . S
C2164 C2176 1.349 . S
C2165 C2163 1.327 . S
C2165 C2181 1.429 . S
C2165 H2187 0.950 . S
C2166 H2162 0.949 . S
C2166 C2174 1.574 . S
C2166 C2182 1.368 . S
H2167 C2175 0.950 . S
H2168 C2173 0.950 . S
H2169 C2174 0.949 . S
H2170 C2176 0.950 . S
H2171 C2177 0.950 . S
H2172 C2178 0.949 . S
C2173 H2168 0.950 . S
C2173 C2175 1.327 . S
C2173 C2179 1.429 . S
C2174 C2166 1.574 . S
C2174 H2169 0.949 . S
C2174 C2180 1.368 . S
C2175 C2159 1.349 . S
C2175 H2167 0.950 . S
C2175 C2173 1.327 . S
C2176 C2164 1.349 . S
C2176 H2170 0.950 . S
C2176 C2177 1.327 . S
C2177 H2171 0.950 . S
C2177 C2176 1.327 . S
C2177 C2181 1.429 . S
C2178 C2161 1.574 . S
C2178 H2172 0.949 . S
C2178 C2182 1.368 . S
C2179 C2160 1.429 . S
C2179 C2173 1.429 . S
C2179 C2180 1.523 . S
C2180 C2161 1.368 . S
C2180 C2174 1.368 . S
C2180 C2179 1.523 . S
C2181 C2165 1.429 . S
C2181 C2177 1.429 . S
C2181 C2182 1.523 . S
C2182 C2166 1.368 . S
C2182 C2178 1.368 . S
C2182 C2181 1.523 . S
H2183 C2158 0.950 . S
H2184 C2160 0.950 . S
H2185 C2161 0.949 . S
H2186 C2163 0.950 . S
H2187 C2165 0.950 . S
C2188 C2189 1.349 . S
C2188 C2190 1.327 . S
C2188 H2213 0.950 1_655 S
C2189 C2188 1.349 . S
C2189 C2205 1.349 . S
C2190 C2188 1.327 . S
C2190 C2209 1.429 . S
C2190 H2214 0.950 . S
C2191 C2208 1.574 . S
C2191 C2210 1.368 . S
C2191 H2215 0.949 . S
H2192 C2196 0.949 . S
C2193 C2194 1.349 . S
C2193 C2195 1.327 . S
C2193 H2216 0.950 . S
C2194 C2193 1.349 . S
C2194 C2206 1.349 . S
C2195 C2193 1.327 . S
C2195 C2211 1.429 . S
C2195 H2217 0.950 . S
C2196 H2192 0.949 . S
C2196 C2204 1.574 . S
C2196 C2212 1.368 . S
H2197 C2205 0.950 . S
H2198 C2203 0.950 . S
H2199 C2204 0.949 . S
H2200 C2206 0.950 . S
H2201 C2207 0.950 . S
H2202 C2208 0.949 . S
C2203 H2198 0.950 . S
C2203 C2205 1.327 . S
C2203 C2209 1.429 . S
C2204 C2196 1.574 . S
C2204 H2199 0.949 . S
C2204 C2210 1.368 . S
C2205 C2189 1.349 . S
C2205 H2197 0.950 . S
C2205 C2203 1.327 . S
C2206 C2194 1.349 . S
C2206 H2200 0.950 . S
C2206 C2207 1.327 . S
C2207 H2201 0.950 . S
C2207 C2206 1.327 . S
C2207 C2211 1.429 . S
C2208 C2191 1.574 . S
C2208 H2202 0.949 . S
C2208 C2212 1.368 . S
C2209 C2190 1.429 . S
C2209 C2203 1.429 . S
C2209 C2210 1.523 . S
C2210 C2191 1.368 . S
C2210 C2204 1.368 . S
C2210 C2209 1.523 . S
C2211 C2195 1.429 . S
C2211 C2207 1.429 . S
C2211 C2212 1.523 . S
C2212 C2196 1.368 . S
C2212 C2208 1.368 . S
C2212 C2211 1.523 . S
H2213 C2188 0.950 1_455 S
H2214 C2190 0.950 . S
H2215 C2191 0.949 . S
H2216 C2193 0.950 . S
H2217 C2195 0.950 . S
C2218 C2219 1.349 . S
C2218 C2220 1.327 . S
C2218 H2243 0.950 . S
C2219 C2218 1.349 . S
C2219 C2235 1.349 . S
C2220 C2218 1.327 . S
C2220 C2239 1.429 . S
C2220 H2244 0.950 . S
C2221 C2238 1.574 . S
C2221 C2240 1.368 . S
C2221 H2245 0.949 . S
H2222 C2226 0.949 . S
C2223 C2224 1.349 . S
C2223 C2225 1.327 . S
C2223 H2246 0.950 . S
C2224 C2223 1.349 . S
C2224 C2236 1.349 . S
C2225 C2223 1.327 . S
C2225 C2241 1.429 . S
C2225 H2247 0.950 . S
C2226 H2222 0.949 . S
C2226 C2234 1.574 . S
C2226 C2242 1.368 . S
H2227 C2235 0.950 . S
H2228 C2233 0.950 . S
H2229 C2234 0.949 . S
H2230 C2236 0.950 . S
H2231 C2237 0.950 . S
H2232 C2238 0.949 . S
C2233 H2228 0.950 . S
C2233 C2235 1.327 . S
C2233 C2239 1.429 . S
C2234 C2226 1.574 . S
C2234 H2229 0.949 . S
C2234 C2240 1.368 . S
C2235 C2219 1.349 . S
C2235 H2227 0.950 . S
C2235 C2233 1.327 . S
C2236 C2224 1.349 . S
C2236 H2230 0.950 . S
C2236 C2237 1.327 . S
C2237 H2231 0.950 . S
C2237 C2236 1.327 . S
C2237 C2241 1.429 . S
C2238 C2221 1.574 . S
C2238 H2232 0.949 . S
C2238 C2242 1.368 . S
C2239 C2220 1.429 . S
C2239 C2233 1.429 . S
C2239 C2240 1.523 . S
C2240 C2221 1.368 . S
C2240 C2234 1.368 . S
C2240 C2239 1.523 . S
C2241 C2225 1.429 . S
C2241 C2237 1.429 . S
C2241 C2242 1.523 . S
C2242 C2226 1.368 . S
C2242 C2238 1.368 . S
C2242 C2241 1.523 . S
H2243 C2218 0.950 . S
H2244 C2220 0.950 . S
H2245 C2221 0.949 . S
H2246 C2223 0.950 . S
H2247 C2225 0.950 . S
C2248 C2249 1.349 . S
C2248 C2250 1.327 . S
C2248 H2273 0.950 . S
C2249 C2248 1.349 . S
C2249 C2265 1.349 . S
C2250 C2248 1.327 . S
C2250 C2269 1.429 . S
C2250 H2274 0.950 . S
C2251 C2268 1.574 . S
C2251 C2270 1.368 . S
C2251 H2275 0.949 . S
H2252 C2256 0.949 . S
C2253 C2254 1.349 . S
C2253 C2255 1.327 . S
C2253 H2276 0.950 . S
C2254 C2253 1.349 . S
C2254 C2266 1.349 . S
C2255 C2253 1.327 . S
C2255 C2271 1.429 . S
C2255 H2277 0.950 . S
C2256 H2252 0.949 . S
C2256 C2264 1.574 . S
C2256 C2272 1.368 . S
H2257 C2265 0.950 1_655 S
H2258 C2263 0.950 . S
H2259 C2264 0.949 . S
H2260 C2266 0.950 . S
H2261 C2267 0.950 . S
H2262 C2268 0.949 . S
C2263 H2258 0.950 . S
C2263 C2265 1.327 . S
C2263 C2269 1.429 . S
C2264 C2256 1.574 . S
C2264 H2259 0.949 . S
C2264 C2270 1.368 . S
C2265 C2249 1.349 . S
C2265 H2257 0.950 1_455 S
C2265 C2263 1.327 . S
C2266 C2254 1.349 . S
C2266 H2260 0.950 . S
C2266 C2267 1.327 . S
C2267 H2261 0.950 . S
C2267 C2266 1.327 . S
C2267 C2271 1.429 . S
C2268 C2251 1.574 . S
C2268 H2262 0.949 . S
C2268 C2272 1.368 . S
C2269 C2250 1.429 . S
C2269 C2263 1.429 . S
C2269 C2270 1.523 . S
C2270 C2251 1.368 . S
C2270 C2264 1.368 . S
C2270 C2269 1.523 . S
C2271 C2255 1.429 . S
C2271 C2267 1.429 . S
C2271 C2272 1.523 . S
C2272 C2256 1.368 . S
C2272 C2268 1.368 . S
C2272 C2271 1.523 . S
H2273 C2248 0.950 . S
H2274 C2250 0.950 . S
H2275 C2251 0.949 . S
H2276 C2253 0.950 . S
H2277 C2255 0.950 . S
C2278 C2279 1.349 . S
C2278 C2280 1.327 . S
C2278 H2303 0.950 . S
C2279 C2278 1.349 . S
C2279 C2295 1.349 . S
C2280 C2278 1.327 . S
C2280 C2299 1.429 . S
C2280 H2304 0.950 . S
C2281 C2298 1.574 . S
C2281 C2300 1.368 . S
C2281 H2305 0.949 . S
H2282 C2286 0.949 . S
C2283 C2284 1.349 . S
C2283 C2285 1.327 . S
C2283 H2306 0.950 . S
C2284 C2283 1.349 . S
C2284 C2296 1.349 . S
C2285 C2283 1.327 . S
C2285 C2301 1.429 . S
C2285 H2307 0.950 . S
C2286 H2282 0.949 . S
C2286 C2294 1.574 . S
C2286 C2302 1.368 . S
H2287 C2295 0.950 . S
H2288 C2293 0.950 . S
H2289 C2294 0.949 . S
H2290 C2296 0.950 . S
H2291 C2297 0.950 . S
H2292 C2298 0.949 . S
C2293 H2288 0.950 . S
C2293 C2295 1.327 . S
C2293 C2299 1.429 . S
C2294 C2286 1.574 . S
C2294 H2289 0.949 . S
C2294 C2300 1.368 . S
C2295 C2279 1.349 . S
C2295 H2287 0.950 . S
C2295 C2293 1.327 . S
C2296 C2284 1.349 . S
C2296 H2290 0.950 . S
C2296 C2297 1.327 . S
C2297 H2291 0.950 . S
C2297 C2296 1.327 . S
C2297 C2301 1.429 . S
C2298 C2281 1.574 . S
C2298 H2292 0.949 . S
C2298 C2302 1.368 . S
C2299 C2280 1.429 . S
C2299 C2293 1.429 . S
C2299 C2300 1.523 . S
C2300 C2281 1.368 . S
C2300 C2294 1.368 . S
C2300 C2299 1.523 . S
C2301 C2285 1.429 . S
C2301 C2297 1.429 . S
C2301 C2302 1.523 . S
C2302 C2286 1.368 . S
C2302 C2298 1.368 . S
C2302 C2301 1.523 . S
H2303 C2278 0.950 . S
H2304 C2280 0.950 . S
H2305 C2281 0.949 . S
H2306 C2283 0.950 . S
H2307 C2285 0.950 . S
C2308 C2309 1.349 . S
C2308 C2310 1.327 . S
C2308 H2333 0.950 1_455 S
C2309 C2308 1.349 . S
C2309 C2325 1.349 . S
C2310 C2308 1.327 . S
C2310 C2329 1.429 . S
C2310 H2334 0.950 . S
C2311 C2328 1.574 . S
C2311 C2330 1.368 . S
C2311 H2335 0.949 . S
H2312 C2316 0.949 . S
C2313 C2314 1.349 . S
C2313 C2315 1.327 . S
C2313 H2336 0.950 . S
C2314 C2313 1.349 . S
C2314 C2326 1.349 . S
C2315 C2313 1.327 . S
C2315 C2331 1.429 . S
C2315 H2337 0.950 . S
C2316 H2312 0.949 . S
C2316 C2324 1.574 . S
C2316 C2332 1.368 . S
H2317 C2325 0.950 . S
H2318 C2323 0.950 . S
H2319 C2324 0.949 . S
H2320 C2326 0.950 . S
H2321 C2327 0.950 . S
H2322 C2328 0.949 . S
C2323 H2318 0.950 . S
C2323 C2325 1.327 . S
C2323 C2329 1.429 . S
C2324 C2316 1.574 . S
C2324 H2319 0.949 . S
C2324 C2330 1.368 . S
C2325 C2309 1.349 . S
C2325 H2317 0.950 . S
C2325 C2323 1.327 . S
C2326 C2314 1.349 . S
C2326 H2320 0.950 . S
C2326 C2327 1.327 . S
C2327 H2321 0.950 . S
C2327 C2326 1.327 . S
C2327 C2331 1.429 . S
C2328 C2311 1.574 . S
C2328 H2322 0.949 . S
C2328 C2332 1.368 . S
C2329 C2310 1.429 . S
C2329 C2323 1.429 . S
C2329 C2330 1.523 . S
C2330 C2311 1.368 . S
C2330 C2324 1.368 . S
C2330 C2329 1.523 . S
C2331 C2315 1.429 . S
C2331 C2327 1.429 . S
C2331 C2332 1.523 . S
C2332 C2316 1.368 . S
C2332 C2328 1.368 . S
C2332 C2331 1.523 . S
H2333 C2308 0.950 1_655 S
H2334 C2310 0.950 . S
H2335 C2311 0.949 . S
H2336 C2313 0.950 . S
H2337 C2315 0.950 . S
C2338 C2339 1.349 . S
C2338 C2340 1.327 . S
C2338 H2363 0.950 . S
C2339 C2338 1.349 . S
C2339 C2355 1.349 . S
C2340 C2338 1.327 . S
C2340 C2359 1.429 . S
C2340 H2364 0.950 . S
C2341 C2358 1.574 . S
C2341 C2360 1.368 . S
C2341 H2365 0.949 . S
H2342 C2346 0.949 . S
C2343 C2344 1.349 . S
C2343 C2345 1.327 . S
C2343 H2366 0.950 . S
C2344 C2343 1.349 . S
C2344 C2356 1.349 . S
C2345 C2343 1.327 . S
C2345 C2361 1.429 . S
C2345 H2367 0.950 . S
C2346 H2342 0.949 . S
C2346 C2354 1.574 . S
C2346 C2362 1.368 . S
H2347 C2355 0.950 . S
H2348 C2353 0.950 . S
H2349 C2354 0.949 . S
H2350 C2356 0.950 . S
H2351 C2357 0.950 . S
H2352 C2358 0.949 . S
C2353 H2348 0.950 . S
C2353 C2355 1.327 . S
C2353 C2359 1.429 . S
C2354 C2346 1.574 . S
C2354 H2349 0.949 . S
C2354 C2360 1.368 . S
C2355 C2339 1.349 . S
C2355 H2347 0.950 . S
C2355 C2353 1.327 . S
C2356 C2344 1.349 . S
C2356 H2350 0.950 . S
C2356 C2357 1.327 . S
C2357 H2351 0.950 . S
C2357 C2356 1.327 . S
C2357 C2361 1.429 . S
C2358 C2341 1.574 . S
C2358 H2352 0.949 . S
C2358 C2362 1.368 . S
C2359 C2340 1.429 . S
C2359 C2353 1.429 . S
C2359 C2360 1.523 . S
C2360 C2341 1.368 . S
C2360 C2354 1.368 . S
C2360 C2359 1.523 . S
C2361 C2345 1.429 . S
C2361 C2357 1.429 . S
C2361 C2362 1.523 . S
C2362 C2346 1.368 . S
C2362 C2358 1.368 . S
C2362 C2361 1.523 . S
H2363 C2338 0.950 . S
H2364 C2340 0.950 . S
H2365 C2341 0.949 . S
H2366 C2343 0.950 . S
H2367 C2345 0.950 . S
C449 C51 1.126 . S
C454 C9 1.126 . S
C479 C37 1.126 . S
C484 C23 1.126 . S
C509 C107 1.126 . S
C514 C65 1.126 . S
C539 C93 1.126 . S
C544 C79 1.126 . S
C569 C121 1.126 . S
C574 C163 1.126 . S
C599 C135 1.126 . S
C604 C149 1.126 . S
C629 C219 1.126 . S
C634 C177 1.126 . S
C659 C191 1.126 . S
C664 C205 1.126 . S
C689 C233 1.126 . S
C694 C275 1.126 . S
C719 C247 1.126 . S
C724 C261 1.126 . S
C749 C331 1.126 . S
C754 C289 1.126 . S
C779 C317 1.126 . S
C784 C303 1.126 . S
C809 C387 1.126 . S
C814 C345 1.126 . S
C839 C359 1.126 . S
C844 C373 1.126 . S
C869 C401 1.126 . S
C874 C443 1.126 . S
C899 C415 1.126 . S
C904 C429 1.126 . S
C929 C287 1.365 . S
C934 C7 1.365 . S
C959 C189 1.365 . S
C964 C21 1.365 . S
C989 C35 1.365 . S
C994 C427 1.365 . S
C1019 C49 1.365 . S
C1024 C105 1.365 . S
C1049 C231 1.365 . S
C1054 C63 1.365 . S
C1079 C133 1.365 . S
C1084 C77 1.365 . S
C1109 C371 1.365 . S
C1114 C91 1.365 . S
C1139 C119 1.365 . S
C1144 C399 1.365 . S
C1169 C315 1.365 . S
C1174 C147 1.365 . S
C1199 C217 1.365 . S
C1204 C161 1.365 . S
C1229 C343 1.365 . S
C1234 C175 1.365 . S
C1259 C203 1.365 . S
C1264 C259 1.365 . S
C1289 C413 1.365 . S
C1294 C245 1.365 . S
C1319 C273 1.365 . S
C1324 C329 1.365 . S
C1349 C357 1.365 . S
C1354 C301 1.365 . S
C1379 C441 1.365 . S
C1384 C385 1.365 . S
C1409 C22 1.304 . S
C1414 C8 1.304 . S
C1439 C36 1.305 . S
C1444 C50 1.305 . S
C1469 C64 1.304 . S
C1474 C78 1.304 . S
C1499 C106 1.305 . S
C1504 C92 1.305 . S
C1529 C120 1.304 . S
C1534 C134 1.304 . S
C1559 C148 1.305 . S
C1564 C162 1.305 . S
C1589 C190 1.304 . S
C1594 C176 1.304 . S
C1619 C204 1.305 . S
C1624 C218 1.305 . S
C1649 C232 1.304 . S
C1654 C246 1.304 . S
C1679 C260 1.305 . S
C1684 C274 1.305 . S
C1709 C288 1.304 . S
C1714 C302 1.304 . S
C1739 C330 1.305 . S
C1744 C316 1.305 . S
C1769 C358 1.304 . S
C1774 C344 1.304 . S
C1799 C372 1.305 . S
C1804 C386 1.305 . S
C1829 C400 1.304 . S
C1834 C414 1.304 . S
C1859 C442 1.305 . S
C1864 C428 1.305 . S
C1889 C6 1.572 1_655 S
C1894 C272 1.572 . S
C1919 C20 1.572 . S
C1924 C258 1.572 . S
C1949 C244 1.572 . S
C1954 C34 1.572 1_655 S
C1979 C48 1.572 . S
C1984 C230 1.572 . S
C2009 C328 1.572 . S
C2014 C62 1.572 1_455 S
C2039 C76 1.572 . S
C2044 C314 1.572 . S
C2069 C300 1.572 . S
C2074 C90 1.572 1_455 S
C2099 C104 1.572 . S
C2104 C286 1.572 . S
C2129 C118 1.572 1_655 S
C2134 C384 1.572 . S
C2159 C132 1.572 . S
C2164 C370 1.572 . S
C2189 C146 1.572 1_655 S
C2194 C356 1.572 . S
C2219 C342 1.572 . S
C2224 C160 1.572 . S
C2249 C174 1.572 1_455 S
C2254 C440 1.572 . S
C2279 C188 1.572 . S
C2284 C426 1.572 . S
C2309 C202 1.572 1_455 S
C2314 C412 1.572 . S
C2339 C398 1.572 . S
C2344 C216 1.572 . S
