# Generated by pormake.
# Topology wlb, (5)-cn, num edge types: 1
# Building blocks:
#     Node 0, Type 0, BuildingBlock: BEQFEK_clean_sbu_0, # of connection points: 5
#     Node 1, Type 0, BuildingBlock: BEQFEK_clean_sbu_0, # of connection points: 5
#     Node 2, Type 0, BuildingBlock: BEQFEK_clean_sbu_0, # of connection points: 5
#     Node 3, Type 0, BuildingBlock: BEQFEK_clean_sbu_0, # of connection points: 5
#     Node 4, Type 0, BuildingBlock: BEQFEK_clean_sbu_0, # of connection points: 5
#     Node 5, Type 0, BuildingBlock: BEQFEK_clean_sbu_0, # of connection points: 5
#     Node 6, Type 0, BuildingBlock: BEQFEK_clean_sbu_0, # of connection points: 5
#     Node 7, Type 0, BuildingBlock: BEQFEK_clean_sbu_0, # of connection points: 5
#     Node 8, Type 0, BuildingBlock: BEQFEK_clean_sbu_0, # of connection points: 5
#     Node 9, Type 0, BuildingBlock: BEQFEK_clean_sbu_0, # of connection points: 5
#     Node 10, Type 0, BuildingBlock: BEQFEK_clean_sbu_0, # of connection points: 5
#     Node 11, Type 0, BuildingBlock: BEQFEK_clean_sbu_0, # of connection points: 5
#     Node 12, Type 0, BuildingBlock: BEQFEK_clean_sbu_0, # of connection points: 5
#     Node 13, Type 0, BuildingBlock: BEQFEK_clean_sbu_0, # of connection points: 5
#     Node 14, Type 0, BuildingBlock: BEQFEK_clean_sbu_0, # of connection points: 5
#     Node 15, Type 0, BuildingBlock: BEQFEK_clean_sbu_0, # of connection points: 5
#     Node 16, Type 0, BuildingBlock: BEQFEK_clean_sbu_0, # of connection points: 5
#     Node 17, Type 0, BuildingBlock: BEQFEK_clean_sbu_0, # of connection points: 5
#     Edge 18, Type (0, 0), BuildingBlock: XUDNAN_clean_linker_2, # of connection points: 2
#     Edge 19, Type (0, 0), BuildingBlock: XUDNAN_clean_linker_2, # of connection points: 2
#     Edge 20, Type (0, 0), BuildingBlock: XUDNAN_clean_linker_2, # of connection points: 2
#     Edge 21, Type (0, 0), BuildingBlock: XUDNAN_clean_linker_2, # of connection points: 2
#     Edge 22, Type (0, 0), BuildingBlock: XUDNAN_clean_linker_2, # of connection points: 2
#     Edge 23, Type (0, 0), BuildingBlock: XUDNAN_clean_linker_2, # of connection points: 2
#     Edge 24, Type (0, 0), BuildingBlock: XUDNAN_clean_linker_2, # of connection points: 2
#     Edge 25, Type (0, 0), BuildingBlock: XUDNAN_clean_linker_2, # of connection points: 2
#     Edge 26, Type (0, 0), BuildingBlock: XUDNAN_clean_linker_2, # of connection points: 2
#     Edge 27, Type (0, 0), BuildingBlock: XUDNAN_clean_linker_2, # of connection points: 2
#     Edge 28, Type (0, 0), BuildingBlock: XUDNAN_clean_linker_2, # of connection points: 2
#     Edge 29, Type (0, 0), BuildingBlock: XUDNAN_clean_linker_2, # of connection points: 2
#     Edge 30, Type (0, 0), BuildingBlock: XUDNAN_clean_linker_2, # of connection points: 2
#     Edge 31, Type (0, 0), BuildingBlock: XUDNAN_clean_linker_2, # of connection points: 2
#     Edge 32, Type (0, 0), BuildingBlock: XUDNAN_clean_linker_2, # of connection points: 2
#     Edge 33, Type (0, 0), BuildingBlock: XUDNAN_clean_linker_2, # of connection points: 2
#     Edge 34, Type (0, 0), BuildingBlock: XUDNAN_clean_linker_2, # of connection points: 2
#     Edge 35, Type (0, 0), BuildingBlock: XUDNAN_clean_linker_2, # of connection points: 2
#     Edge 36, Type (0, 0), BuildingBlock: XUDNAN_clean_linker_2, # of connection points: 2
#     Edge 37, Type (0, 0), BuildingBlock: XUDNAN_clean_linker_2, # of connection points: 2
#     Edge 38, Type (0, 0), BuildingBlock: XUDNAN_clean_linker_2, # of connection points: 2
#     Edge 39, Type (0, 0), BuildingBlock: XUDNAN_clean_linker_2, # of connection points: 2
#     Edge 40, Type (0, 0), BuildingBlock: XUDNAN_clean_linker_2, # of connection points: 2
#     Edge 41, Type (0, 0), BuildingBlock: XUDNAN_clean_linker_2, # of connection points: 2
#     Edge 42, Type (0, 0), BuildingBlock: XUDNAN_clean_linker_2, # of connection points: 2
#     Edge 43, Type (0, 0), BuildingBlock: XUDNAN_clean_linker_2, # of connection points: 2
#     Edge 44, Type (0, 0), BuildingBlock: XUDNAN_clean_linker_2, # of connection points: 2
#     Edge 45, Type (0, 0), BuildingBlock: XUDNAN_clean_linker_2, # of connection points: 2
#     Edge 46, Type (0, 0), BuildingBlock: XUDNAN_clean_linker_2, # of connection points: 2
#     Edge 47, Type (0, 0), BuildingBlock: XUDNAN_clean_linker_2, # of connection points: 2
#     Edge 48, Type (0, 0), BuildingBlock: XUDNAN_clean_linker_2, # of connection points: 2
#     Edge 49, Type (0, 0), BuildingBlock: XUDNAN_clean_linker_2, # of connection points: 2
#     Edge 50, Type (0, 0), BuildingBlock: XUDNAN_clean_linker_2, # of connection points: 2
#     Edge 51, Type (0, 0), BuildingBlock: XUDNAN_clean_linker_2, # of connection points: 2
#     Edge 52, Type (0, 0), BuildingBlock: XUDNAN_clean_linker_2, # of connection points: 2
#     Edge 53, Type (0, 0), BuildingBlock: XUDNAN_clean_linker_2, # of connection points: 2
#     Edge 54, Type (0, 0), BuildingBlock: XUDNAN_clean_linker_2, # of connection points: 2
#     Edge 55, Type (0, 0), BuildingBlock: XUDNAN_clean_linker_2, # of connection points: 2
#     Edge 56, Type (0, 0), BuildingBlock: XUDNAN_clean_linker_2, # of connection points: 2
#     Edge 57, Type (0, 0), BuildingBlock: XUDNAN_clean_linker_2, # of connection points: 2
#     Edge 58, Type (0, 0), BuildingBlock: XUDNAN_clean_linker_2, # of connection points: 2
#     Edge 59, Type (0, 0), BuildingBlock: XUDNAN_clean_linker_2, # of connection points: 2
#     Edge 60, Type (0, 0), BuildingBlock: XUDNAN_clean_linker_2, # of connection points: 2
#     Edge 61, Type (0, 0), BuildingBlock: XUDNAN_clean_linker_2, # of connection points: 2
#     Edge 62, Type (0, 0), BuildingBlock: XUDNAN_clean_linker_2, # of connection points: 2
# Relax obj value: 0.389
# Max RMSD: 0.217
# Mean RMSD: 0.217
data_MOF--net-wlb--node1-BEQFEK_clean_sbu_0--edge1-XUDNAN_clean_linker_2
_symmetry_space_group_name_H-M    P1
_symmetry_Int_Tables_number       1
_symmetry_cell_setting            triclinic
loop_
_symmetry_equiv_pos_as_xyz
'x, y, z'
_cell_length_a     52.886388
_cell_length_b     53.021015
_cell_length_c     37.300106
_cell_angle_alpha  90.012772
_cell_angle_beta   90.103344
_cell_angle_gamma 120.10467
loop_
_atom_site_label
_atom_site_type_symbol
_atom_site_fract_x
_atom_site_fract_y
_atom_site_fract_z
_atom_type_partial_charge
Co0 Co 0.0714 0.17722 0.20845 0.0
Co1 Co 0.02427 0.1883 0.24009 0.0
C2 C 0.03098 0.18104 0.15847 0.0
O3 O 0.05437 0.1797 0.16081 0.0
O4 O 0.01916 0.18406 0.18665 0.0
C5 C 0.0904 0.13987 0.1911 0.0
O6 O 0.06364 0.12712 0.17826 0.0
C7 C 0.01365 0.23448 0.24057 0.0
C8 C 0.98402 0.2265 0.28632 0.0
C9 C 1.00126 0.24722 0.261 0.0
N10 N 0.00467 0.20786 0.25357 0.0
N11 N 0.98653 0.20272 0.28052 0.0
C12 C 0.03723 0.24861 0.21275 0.0
H13 H 0.04927 0.23678 0.20917 0.0
H14 H 0.053 0.27157 0.22004 0.0
H15 H 0.02715 0.2481 0.18646 0.0
C16 C 0.11087 0.23315 0.25068 0.0
N17 N 0.0848 0.21088 0.23917 0.0
N18 N 0.06385 0.21235 0.25607 0.0
C19 C 0.07572 0.23478 0.27958 0.0
C20 C 0.10602 0.24954 0.27651 0.0
C21 C 0.13972 0.23884 0.23671 0.0
H22 H 0.13702 0.22871 0.20988 0.0
H23 H 0.15533 0.26264 0.23521 0.0
H24 H 0.14882 0.22906 0.2553 0.0
O25 O 0.03909 0.14174 0.23285 0.0
O26 O 0.00575 0.14887 0.25931 0.0
H27 H 0.038 0.21972 0.31348 0.0
H28 H 0.07147 0.2486 0.33248 0.0
C29 C 0.05856 0.24016 0.3074 0.0
H30 H 0.05336 0.25675 0.29758 0.0
H31 H 0.97756 0.18405 0.29627 0.0
O32 O 0.10162 0.1658 0.20289 0.0
C33 C 0.01565 0.13224 0.25102 0.0
Co34 Co 0.8195 0.87759 0.21275 0.0
Co35 Co 0.77459 0.82096 0.17955 0.0
C36 C 0.81154 0.8597 0.12997 0.0
O37 O 0.8259 0.87478 0.15745 0.0
O38 O 0.78569 0.83868 0.13361 0.0
C39 C 0.8724 0.92646 0.22208 0.0
O40 O 0.8784 0.90774 0.20677 0.0
C41 C 0.72116 0.77124 0.15124 0.0
C42 C 0.70746 0.74317 0.19947 0.0
C43 C 0.69805 0.74652 0.16608 0.0
N44 N 0.74287 0.78266 0.17565 0.0
N45 N 0.73482 0.76541 0.20397 0.0
C46 C 0.7213 0.78555 0.11658 0.0
H47 H 0.7306 0.80929 0.12056 0.0
H48 H 0.69899 0.77601 0.10509 0.0
H49 H 0.7355 0.78258 0.0972 0.0
C50 C 0.76593 0.86218 0.26031 0.0
N51 N 0.78011 0.86139 0.23027 0.0
N52 N 0.76109 0.84101 0.20921 0.0
C53 C 0.73407 0.83056 0.2226 0.0
C54 C 0.73582 0.84191 0.25688 0.0
C55 C 0.7814 0.87944 0.29291 0.0
H56 H 0.80543 0.88953 0.28983 0.0
H57 H 0.77595 0.8969 0.29691 0.0
H58 H 0.77403 0.86517 0.31693 0.0
O59 O 0.83509 0.85528 0.23477 0.0
O60 O 0.81042 0.81871 0.1971 0.0
H61 H 0.69724 0.79162 0.20148 0.0
H62 H 0.69055 0.82118 0.20864 0.0
C63 C 0.7071 0.81549 0.19974 0.0
H64 H 0.71266 0.82203 0.17135 0.0
H65 H 0.74715 0.77003 0.22736 0.0
O66 O 0.84578 0.91875 0.22781 0.0
C67 C 0.83128 0.83229 0.21957 0.0
Co68 Co 0.09717 0.91998 0.19703 0.0
Co69 Co 0.16533 0.95523 0.19234 0.0
C70 C 0.12838 0.9412 0.12607 0.0
O71 O 0.10456 0.92751 0.14376 0.0
O72 O 0.15298 0.951 0.14161 0.0
C73 C 0.03395 0.88971 0.18456 0.0
O74 O 0.04115 0.90068 0.15213 0.0
C75 C 0.21935 0.95533 0.18475 0.0
C76 C 0.24947 0.99476 0.21567 0.0
C77 C 0.24683 0.96972 0.20025 0.0
N78 N 0.2059 0.97042 0.19251 0.0
N79 N 0.22428 0.99449 0.2098 0.0
C80 C 0.20441 0.92576 0.16768 0.0
H81 H 0.18047 0.91689 0.16606 0.0
H82 H 0.20918 0.91055 0.18272 0.0
H83 H 0.21286 0.92762 0.14002 0.0
C84 C 0.11158 0.88168 0.24339 0.0
N85 N 0.11901 0.90436 0.22073 0.0
N86 N 0.14764 0.9208 0.22067 0.0
C87 C 0.15913 0.90992 0.24429 0.0
C88 C 0.13696 0.88421 0.25849 0.0
C89 C 0.0808 0.85919 0.2521 0.0
H90 H 0.06735 0.8526 0.22732 0.0
H91 H 0.07982 0.83983 0.26495 0.0
H92 H 0.07159 0.8688 0.27076 0.0
O93 O 0.10898 0.9597 0.21648 0.0
O94 O 0.15744 0.98452 0.21258 0.0
H95 H 0.1982 0.95032 0.2572 0.0
H96 H 0.18958 0.92146 0.28834 0.0
C97 C 0.18946 0.92659 0.25951 0.0
H98 H 0.20387 0.9202 0.24554 0.0
H99 H 0.21879 0.00933 0.22028 0.0
O100 O 0.05414 0.89467 0.207 0.0
C101 C 0.13345 0.98333 0.22012 0.0
Co102 Co 0.16904 0.06712 0.82544 0.0
Co103 Co 0.20844 0.03962 0.83361 0.0
C104 C 0.17843 0.04796 0.89734 0.0
O105 O 0.1675 0.06056 0.87913 0.0
O106 O 0.19492 0.04013 0.88249 0.0
C107 C 0.15222 0.11134 0.82792 0.0
O108 O 0.17605 0.12593 0.84726 0.0
C109 C 0.2619 0.04867 0.86243 0.0
C110 C 0.27139 0.01901 0.83117 0.0
C111 C 0.28296 0.04119 0.85655 0.0
N112 N 0.23923 0.0324 0.8407 0.0
N113 N 0.24464 0.01427 0.82247 0.0
C114 C 0.26448 0.07311 0.88518 0.0
H115 H 0.25171 0.08244 0.87334 0.0
H116 H 0.28769 0.09046 0.88825 0.0
H117 H 0.25547 0.06451 0.91215 0.0
C118 C 0.22183 0.11053 0.78117 0.0
N119 N 0.20757 0.08751 0.80376 0.0
N120 N 0.22315 0.07457 0.80682 0.0
C121 C 0.24725 0.08844 0.78613 0.0
C122 C 0.2475 0.1118 0.76944 0.0
C123 C 0.21014 0.12948 0.76867 0.0
H124 H 0.18639 0.11599 0.76311 0.0
H125 H 0.21329 0.14525 0.79017 0.0
H126 H 0.2217 0.1418 0.74424 0.0
O127 O 0.14635 0.02671 0.80541 0.0
O128 O 0.17492 0.00711 0.80932 0.0
H129 H 0.25707 0.0547 0.77466 0.0
H130 H 0.28351 0.08968 0.75711 0.0
C131 C 0.26883 0.07843 0.78004 0.0
H132 H 0.28272 0.0832 0.80417 0.0
H133 H 0.23075 0.99973 0.80311 0.0
O134 O 0.14586 0.08656 0.81528 0.0
C135 C 0.15061 0.0052 0.80104 0.0
Co136 Co 0.9226 0.10181 0.84793 0.0
Co137 Co 0.95001 0.16877 0.85298 0.0
C138 C 0.93731 0.13416 0.91972 0.0
O139 O 0.9275 0.11022 0.9023 0.0
O140 O 0.94523 0.15804 0.90364 0.0
C141 C 0.87691 0.03925 0.84183 0.0
O142 O 0.85747 0.04624 0.85215 0.0
C143 C 0.94853 0.22147 0.86582 0.0
C144 C 0.97894 0.25033 0.82405 0.0
C145 C 0.95776 0.24751 0.84816 0.0
N146 N 0.96239 0.20864 0.85115 0.0
N147 N 0.98142 0.22643 0.82731 0.0
C148 C 0.92367 0.20678 0.89168 0.0
H149 H 0.91214 0.18279 0.88783 0.0
H150 H 0.90806 0.21484 0.88861 0.0
H151 H 0.93254 0.21162 0.91938 0.0
C152 C 0.88431 0.11064 0.79306 0.0
N153 N 0.90405 0.11959 0.82041 0.0
N154 N 0.91473 0.14775 0.82509 0.0
C155 C 0.9009 0.15696 0.80253 0.0
C156 C 0.88116 0.13399 0.7813 0.0
C157 C 0.87202 0.08174 0.77479 0.0
H158 H 0.88745 0.0734 0.77695 0.0
H159 H 0.85117 0.06603 0.78792 0.0
H160 H 0.86733 0.08336 0.74613 0.0
O161 O 0.96264 0.11625 0.83024 0.0
O162 O 0.98295 0.16419 0.83437 0.0
H163 H 0.93204 0.20139 0.7903 0.0
H164 H 0.89566 0.1906 0.77578 0.0
C165 C 0.90867 0.18805 0.79732 0.0
H166 H 0.90383 0.19615 0.82213 0.0
H167 H 0.99407 0.22112 0.81106 0.0
O168 O 0.90358 0.059 0.83918 0.0
C169 C 0.98474 0.14166 0.82706 0.0
Co170 Co 0.89491 0.82244 0.82703 0.0
Co171 Co 0.82793 0.7881 0.8306 0.0
C172 C 0.86668 0.81373 0.89715 0.0
O173 O 0.8908 0.82197 0.88092 0.0
O174 O 0.84273 0.80106 0.87992 0.0
C175 C 0.9565 0.83956 0.8285 0.0
O176 O 0.94935 0.81929 0.85299 0.0
C177 C 0.77915 0.73989 0.86279 0.0
C178 C 0.74149 0.74155 0.84026 0.0
C179 C 0.74938 0.72745 0.86541 0.0
N180 N 0.78862 0.76037 0.83727 0.0
N181 N 0.766 0.76092 0.82314 0.0
C182 C 0.79865 0.73505 0.88743 0.0
H183 H 0.82031 0.74271 0.87488 0.0
H184 H 0.7884 0.71157 0.89426 0.0
H185 H 0.80163 0.74728 0.91271 0.0
C186 C 0.88255 0.7686 0.78267 0.0
N187 N 0.87469 0.78445 0.80368 0.0
N188 N 0.84605 0.77094 0.80484 0.0
C189 C 0.8347 0.7467 0.78436 0.0
C190 C 0.85735 0.74391 0.76965 0.0
C191 C 0.91358 0.77691 0.7755 0.0
H192 H 0.92559 0.7817 0.80122 0.0
H193 H 0.91521 0.75926 0.76173 0.0
H194 H 0.92409 0.797 0.75897 0.0
O195 O 0.88009 0.84898 0.81044 0.0
O196 O 0.83175 0.82275 0.80686 0.0
H197 H 0.79902 0.71647 0.75016 0.0
H198 H 0.79152 0.71294 0.79769 0.0
C199 C 0.8028 0.72866 0.77563 0.0
H200 H 0.79314 0.7429 0.77304 0.0
H201 H 0.76753 0.77575 0.80378 0.0
O202 O 0.93686 0.8435 0.81448 0.0
C203 C 0.85545 0.84693 0.80353 0.0
Co204 Co 0.74046 0.50111 0.54506 0.0
Co205 Co 0.70725 0.53563 0.54268 0.0
C206 C 0.71985 0.51219 0.47511 0.0
O207 O 0.73363 0.50165 0.49172 0.0
O208 O 0.71015 0.52644 0.49189 0.0
C209 C 0.77337 0.47047 0.53341 0.0
O210 O 0.77006 0.47328 0.49899 0.0
C211 C 0.71232 0.59066 0.52916 0.0
C212 C 0.67765 0.58943 0.56341 0.0
C213 C 0.70215 0.60782 0.54341 0.0
N214 N 0.69538 0.56347 0.54146 0.0
N215 N 0.67402 0.5625 0.56085 0.0
C216 C 0.74043 0.60083 0.50946 0.0
H217 H 0.74615 0.58339 0.50811 0.0
H218 H 0.75835 0.62045 0.52267 0.0
H219 H 0.73807 0.60709 0.48181 0.0
C220 C 0.78242 0.55447 0.58905 0.0
N221 N 0.75815 0.5388 0.56865 0.0
N222 N 0.74208 0.55125 0.57045 0.0
C223 C 0.75454 0.57391 0.59364 0.0
C224 C 0.7808 0.57725 0.60572 0.0
C225 C 0.80562 0.54661 0.59435 0.0
H226 H 0.8107 0.53997 0.56836 0.0
H227 H 0.82569 0.56509 0.60605 0.0
H228 H 0.7973 0.52769 0.61279 0.0
O229 O 0.70001 0.47426 0.56455 0.0
O230 O 0.67688 0.49954 0.56396 0.0
H231 H 0.71681 0.57748 0.60601 0.0
H232 H 0.74762 0.5994 0.63384 0.0
C233 C 0.74087 0.59117 0.6062 0.0
H234 H 0.74805 0.61046 0.58874 0.0
H235 H 0.65872 0.5442 0.57492 0.0
O236 O 0.76344 0.48131 0.55605 0.0
C237 C 0.6771 0.47605 0.57006 0.0
Co238 Co 0.48969 0.21899 0.54669 0.0
Co239 Co 0.45351 0.152 0.54096 0.0
C240 C 0.4842 0.19131 0.47656 0.0
O241 O 0.49233 0.21514 0.49333 0.0
O242 O 0.46966 0.16707 0.4926 0.0
C243 C 0.50997 0.28106 0.54472 0.0
O244 O 0.49032 0.27472 0.51948 0.0
C245 C 0.4049 0.10643 0.50481 0.0
C246 C 0.402 0.06642 0.52628 0.0
C247 C 0.39037 0.0767 0.50061 0.0
N248 N 0.42415 0.11359 0.5317 0.0
N249 N 0.42196 0.08955 0.54516 0.0
C250 C 0.40302 0.12793 0.48065 0.0
H251 H 0.41194 0.1494 0.49413 0.0
H252 H 0.37995 0.11971 0.47263 0.0
H253 H 0.41574 0.13055 0.45593 0.0
C254 C 0.43496 0.20806 0.58731 0.0
N255 N 0.45065 0.19978 0.56669 0.0
N256 N 0.4366 0.1712 0.56525 0.0
C257 C 0.41224 0.16029 0.58545 0.0
C258 C 0.40988 0.1832 0.60006 0.0
C259 C 0.44413 0.23917 0.59502 0.0
H260 H 0.45218 0.25212 0.57014 0.0
H261 H 0.42574 0.24138 0.60553 0.0
H262 H 0.46228 0.2481 0.61481 0.0
O263 O 0.51301 0.20216 0.56721 0.0
O264 O 0.48628 0.15383 0.5681 0.0
H265 H 0.38285 0.1253 0.62082 0.0
H266 H 0.37776 0.11713 0.57343 0.0
C267 C 0.39423 0.12861 0.59483 0.0
H268 H 0.40841 0.11882 0.59675 0.0
H269 H 0.43534 0.08913 0.56539 0.0
O270 O 0.51229 0.26082 0.55969 0.0
C271 C 0.51018 0.17733 0.5744 0.0
Co272 Co 0.76668 0.25375 0.54546 0.0
Co273 Co 0.82723 0.2713 0.51964 0.0
C274 C 0.78997 0.27097 0.46565 0.0
O275 O 0.77108 0.26541 0.49055 0.0
O276 O 0.81286 0.26989 0.47236 0.0
C277 C 0.70712 0.20725 0.56221 0.0
O278 O 0.71657 0.1888 0.55773 0.0
C279 C 0.87844 0.2725 0.49033 0.0
C280 C 0.9074 0.28558 0.53781 0.0
C281 C 0.90471 0.27624 0.5026 0.0
N282 N 0.8657 0.27864 0.51734 0.0
N283 N 0.88304 0.28645 0.5457 0.0
C284 C 0.8647 0.26105 0.45444 0.0
H285 H 0.84122 0.24475 0.45756 0.0
H286 H 0.87565 0.25083 0.44008 0.0
H287 H 0.86656 0.27938 0.43812 0.0
C288 C 0.78413 0.21699 0.59361 0.0
N289 N 0.78468 0.23206 0.5637 0.0
N290 N 0.80618 0.23514 0.54353 0.0
C291 C 0.81786 0.21985 0.55736 0.0
C292 C 0.80581 0.20907 0.59092 0.0
C293 C 0.7659 0.21351 0.62579 0.0
H294 H 0.75507 0.22673 0.62302 0.0
H295 H 0.74895 0.1902 0.62865 0.0
H296 H 0.77968 0.22011 0.65032 0.0
O297 O 0.7851 0.29112 0.5694 0.0
O298 O 0.82787 0.30665 0.54279 0.0
H299 H 0.85979 0.2265 0.54052 0.0
H300 H 0.83175 0.1891 0.54389 0.0
C301 C 0.83631 0.21118 0.53594 0.0
H302 H 0.83172 0.21117 0.50693 0.0
H303 H 0.87788 0.29153 0.57056 0.0
O304 O 0.72468 0.2344 0.55821 0.0
C305 C 0.81064 0.31147 0.56182 0.0
Co306 Co 0.83703 0.39857 0.162 0.0
Co307 Co 0.88042 0.37793 0.17844 0.0
C308 C 0.8473 0.38142 0.23852 0.0
O309 O 0.83423 0.38979 0.21663 0.0
O310 O 0.86843 0.37838 0.22782 0.0
C311 C 0.82288 0.44466 0.15232 0.0
O312 O 0.85028 0.46305 0.16055 0.0
C313 C 0.92892 0.37137 0.20294 0.0
C314 C 0.95098 0.37497 0.15136 0.0
C315 C 0.95488 0.37547 0.1882 0.0
N316 N 0.91175 0.37071 0.17606 0.0
N317 N 0.92464 0.37208 0.14526 0.0
C318 C 0.91875 0.36489 0.24099 0.0
H319 H 0.89463 0.35132 0.24162 0.0
H320 H 0.92557 0.38558 0.25556 0.0
H321 H 0.92766 0.35248 0.25474 0.0
C322 C 0.88862 0.43881 0.1129 0.0
N323 N 0.87551 0.42004 0.14062 0.0
N324 N 0.89472 0.41451 0.15514 0.0
C325 C 0.92111 0.43147 0.13994 0.0
C326 C 0.91821 0.44651 0.11118 0.0
C327 C 0.87249 0.4467 0.08643 0.0
H328 H 0.8486 0.4314 0.08836 0.0
H329 H 0.87698 0.46912 0.09214 0.0
H330 H 0.88008 0.44637 0.0588 0.0
O331 O 0.81544 0.35988 0.14062 0.0
O332 O 0.84535 0.34365 0.15531 0.0
H333 H 0.96096 0.42962 0.14282 0.0
H334 H 0.96413 0.46278 0.15826 0.0
C335 C 0.94943 0.43877 0.15783 0.0
H336 H 0.94563 0.4305 0.18575 0.0
H337 H 0.9163 0.37292 0.12031 0.0
O338 O 0.81383 0.4175 0.15159 0.0
C339 C 0.82114 0.33931 0.14224 0.0
Co340 Co 0.59403 0.43706 0.17276 0.0
Co341 Co 0.6276 0.50456 0.17672 0.0
C342 C 0.61629 0.46724 0.24312 0.0
O343 O 0.60189 0.44334 0.22575 0.0
O344 O 0.6258 0.4917 0.22745 0.0
C345 C 0.55794 0.37288 0.17931 0.0
O346 O 0.55397 0.37639 0.2133 0.0
C347 C 0.62274 0.55574 0.18373 0.0
C348 C 0.66155 0.58766 0.15337 0.0
C349 C 0.63517 0.58278 0.16741 0.0
N350 N 0.64016 0.54456 0.17754 0.0
N351 N 0.66388 0.56413 0.16072 0.0
C352 C 0.59287 0.53881 0.19987 0.0
H353 H 0.58682 0.51579 0.2045 0.0
H354 H 0.57638 0.53984 0.18244 0.0
H355 H 0.59281 0.54862 0.22611 0.0
C356 C 0.55162 0.44865 0.13105 0.0
N357 N 0.57587 0.45706 0.15135 0.0
N358 N 0.59225 0.48553 0.14957 0.0
C359 C 0.58007 0.49592 0.1263 0.0
C360 C 0.55324 0.47324 0.1149 0.0
C361 C 0.52812 0.41763 0.1261 0.0
H362 H 0.52602 0.40489 0.15063 0.0
H363 H 0.50691 0.4162 0.11985 0.0
H364 H 0.5341 0.40806 0.10348 0.0
O365 O 0.63368 0.45095 0.15156 0.0
O366 O 0.65759 0.49928 0.15331 0.0
H367 H 0.59087 0.52309 0.07937 0.0
H368 H 0.59013 0.5403 0.12011 0.0
C369 C 0.59646 0.5251 0.10833 0.0
H370 H 0.62034 0.53421 0.11088 0.0
H371 H 0.68016 0.5603 0.15112 0.0
O372 O 0.57248 0.39512 0.1596 0.0
C373 C 0.65665 0.47545 0.14575 0.0
Co374 Co 0.5665 0.15475 0.17046 0.0
Co375 Co 0.49936 0.11874 0.18171 0.0
C376 C 0.53906 0.14453 0.24437 0.0
O377 O 0.56182 0.15633 0.22455 0.0
O378 O 0.51408 0.12785 0.23089 0.0
C379 C 0.62816 0.16942 0.16906 0.0
O380 O 0.62021 0.14633 0.18922 0.0
C381 C 0.4492 0.0667 0.20621 0.0
C382 C 0.41336 0.0651 0.17392 0.0
C383 C 0.42005 0.04949 0.19816 0.0
N384 N 0.45964 0.09127 0.18693 0.0
N385 N 0.43806 0.09065 0.16833 0.0
C386 C 0.46762 0.05862 0.22848 0.0
H387 H 0.49024 0.06919 0.21787 0.0
H388 H 0.45812 0.03461 0.22926 0.0
H389 H 0.46852 0.06647 0.25629 0.0
C390 C 0.5526 0.10254 0.12326 0.0
N391 N 0.54546 0.11678 0.14788 0.0
N392 N 0.51691 0.10236 0.15203 0.0
C393 C 0.50507 0.07877 0.13021 0.0
C394 C 0.52717 0.07796 0.11118 0.0
C395 C 0.58274 0.11378 0.10885 0.0
H396 H 0.59614 0.11065 0.12933 0.0
H397 H 0.58243 0.10213 0.08398 0.0
H398 H 0.59303 0.13746 0.10335 0.0
O399 O 0.55193 0.1799 0.1507 0.0
O400 O 0.50413 0.1556 0.16178 0.0
H401 H 0.4678 0.0415 0.10503 0.0
H402 H 0.46505 0.045 0.15204 0.0
C403 C 0.47298 0.05753 0.12685 0.0
H404 H 0.4611 0.06944 0.12187 0.0
H405 H 0.44056 0.10678 0.15038 0.0
O406 O 0.60899 0.17557 0.15856 0.0
C407 C 0.52699 0.17812 0.15032 0.0
Co408 Co 0.40476 0.85565 0.85587 0.0
Co409 Co 0.36426 0.8809 0.86913 0.0
C410 C 0.38132 0.87284 0.79386 0.0
O411 O 0.39671 0.86198 0.80482 0.0
O412 O 0.369 0.88163 0.81587 0.0
C413 C 0.41859 0.8121 0.84896 0.0
O414 O 0.39371 0.80061 0.83134 0.0
C415 C 0.3637 0.93385 0.87462 0.0
C416 C 0.32759 0.92289 0.91261 0.0
C417 C 0.3514 0.94609 0.89611 0.0
N418 N 0.34863 0.90492 0.87949 0.0
N419 N 0.32656 0.89827 0.90138 0.0
C420 C 0.39202 0.94932 0.85455 0.0
H421 H 0.4005 0.93444 0.8486 0.0
H422 H 0.40853 0.96841 0.87005 0.0
H423 H 0.38835 0.95716 0.82857 0.0
C424 C 0.44442 0.90578 0.90487 0.0
N425 N 0.41949 0.8894 0.88599 0.0
N426 N 0.40018 0.89675 0.89543 0.0
C427 C 0.41152 0.9168 0.92196 0.0
C428 C 0.44038 0.92422 0.9281 0.0
C429 C 0.47127 0.90343 0.90094 0.0
H430 H 0.47212 0.8954 0.87374 0.0
H431 H 0.49119 0.92484 0.90585 0.0
H432 H 0.47061 0.88758 0.92088 0.0
O433 O 0.36716 0.82384 0.87583 0.0
O434 O 0.33652 0.84049 0.88331 0.0
H435 H 0.37045 0.90743 0.94512 0.0
H436 H 0.40164 0.92751 0.97387 0.0
C437 C 0.39374 0.92471 0.94575 0.0
H438 H 0.396 0.9457 0.93703 0.0
H439 H 0.31244 0.87737 0.91096 0.0
O440 O 0.43022 0.83844 0.85933 0.0
C441 C 0.34219 0.81989 0.88464 0.0
Co442 Co 0.15633 0.55462 0.87344 0.0
Co443 Co 0.11842 0.48827 0.86167 0.0
C444 C 0.14335 0.52889 0.799 0.0
O445 O 0.15509 0.55148 0.81913 0.0
O446 O 0.12756 0.50371 0.81237 0.0
C447 C 0.18198 0.61861 0.8729 0.0
O448 O 0.16574 0.61563 0.84476 0.0
C449 C 0.0646 0.43867 0.84003 0.0
C450 C 0.06294 0.4043 0.87519 0.0
C451 C 0.04628 0.41072 0.85218 0.0
N452 N 0.09038 0.44885 0.85677 0.0
N453 N 0.08976 0.42795 0.87663 0.0
C454 C 0.05651 0.4572 0.81796 0.0
H455 H 0.07037 0.48052 0.82527 0.0
H456 H 0.03312 0.45045 0.82146 0.0
H457 H 0.06024 0.45462 0.78926 0.0
C458 C 0.1055 0.54271 0.92278 0.0
N459 N 0.11901 0.53464 0.89817 0.0
N460 N 0.1032 0.50631 0.89328 0.0
C461 C 0.07922 0.49551 0.91457 0.0
C462 C 0.07974 0.51808 0.93436 0.0
C463 C 0.11809 0.57317 0.93657 0.0
H464 H 0.14173 0.58249 0.94218 0.0
H465 H 0.11589 0.58678 0.91558 0.0
H466 H 0.10683 0.57392 0.96128 0.0
O467 O 0.18204 0.53873 0.88735 0.0
O468 O 0.15501 0.49096 0.87987 0.0
H469 H 0.0647 0.44997 0.9194 0.0
H470 H 0.03824 0.4592 0.93502 0.0
C471 C 0.0553 0.46422 0.91479 0.0
H472 H 0.04389 0.45902 0.88873 0.0
H473 H 0.10669 0.43068 0.89348 0.0
O474 O 0.17965 0.59609 0.8881 0.0
C475 C 0.17931 0.51346 0.88776 0.0
Co476 Co 0.43881 0.5979 0.88367 0.0
Co477 Co 0.50197 0.64021 0.91191 0.0
C478 C 0.48913 0.63143 0.83232 0.0
O479 O 0.46199 0.61272 0.83713 0.0
O480 O 0.50669 0.64259 0.85884 0.0
C481 C 0.37828 0.5461 0.86423 0.0
O482 O 0.38837 0.5305 0.84925 0.0
C483 C 0.56374 0.66482 0.92951 0.0
C484 C 0.56466 0.6801 0.98506 0.0
C485 C 0.58108 0.67559 0.95987 0.0
N486 N 0.53763 0.66178 0.93702 0.0
N487 N 0.53855 0.67179 0.96979 0.0
C488 C 0.57116 0.65652 0.8943 0.0
H489 H 0.57236 0.67208 0.87357 0.0
H490 H 0.5535 0.63458 0.88597 0.0
H491 H 0.59242 0.65715 0.89519 0.0
C492 C 0.44719 0.55643 0.93346 0.0
N493 N 0.4559 0.58271 0.91784 0.0
N494 N 0.48277 0.60096 0.92851 0.0
C495 C 0.49206 0.58691 0.95034 0.0
C496 C 0.46983 0.55836 0.95487 0.0
C497 C 0.41773 0.53007 0.92847 0.0
H498 H 0.4007 0.5364 0.92902 0.0
H499 H 0.41697 0.52021 0.90198 0.0
H500 H 0.41319 0.51363 0.94964 0.0
O501 O 0.43773 0.6326 0.90173 0.0
O502 O 0.48171 0.66124 0.92388 0.0
H503 H 0.52803 0.6168 0.98301 0.0
H504 H 0.52716 0.58285 0.97545 0.0
C505 C 0.5229 0.59936 0.96314 0.0
H506 H 0.53769 0.60832 0.93997 0.0
H507 H 0.52077 0.67114 0.98256 0.0
O508 O 0.39591 0.57108 0.87718 0.0
C509 C 0.45623 0.65627 0.91672 0.0
Co510 Co 0.51838 0.73105 0.5201 0.0
Co511 Co 0.55621 0.70167 0.52069 0.0
C512 C 0.53674 0.71624 0.58957 0.0
O513 O 0.52332 0.7276 0.57396 0.0
O514 O 0.55042 0.7066 0.57158 0.0
C515 C 0.4689 0.73396 0.52608 0.0
O516 O 0.46452 0.71197 0.54656 0.0
C517 C 0.61213 0.70841 0.53485 0.0
C518 C 0.61281 0.67508 0.4999 0.0
C519 C 0.63021 0.69887 0.52164 0.0
N520 N 0.58557 0.69183 0.52033 0.0
N521 N 0.58575 0.67142 0.50022 0.0
C522 C 0.62079 0.7354 0.55637 0.0
H523 H 0.60563 0.74374 0.55129 0.0
H524 H 0.6435 0.75258 0.54998 0.0
H525 H 0.61975 0.73007 0.58528 0.0
C526 C 0.56528 0.77049 0.46669 0.0
N527 N 0.55404 0.74933 0.49211 0.0
N528 N 0.56967 0.73635 0.49273 0.0
C529 C 0.59146 0.74912 0.46843 0.0
C530 C 0.58982 0.77143 0.45118 0.0
C531 C 0.5505 0.78659 0.45405 0.0
H532 H 0.54294 0.79395 0.47744 0.0
H533 H 0.5654 0.80556 0.43724 0.0
H534 H 0.53097 0.77159 0.43797 0.0
O535 O 0.49266 0.69037 0.50298 0.0
O536 O 0.51891 0.66841 0.50246 0.0
H537 H 0.59844 0.71379 0.45452 0.0
H538 H 0.62302 0.74738 0.4324 0.0
C539 C 0.61125 0.73775 0.45778 0.0
H540 H 0.62816 0.74363 0.47867 0.0
H541 H 0.56804 0.65634 0.485 0.0
O542 O 0.49391 0.74928 0.51182 0.0
C543 C 0.49472 0.66776 0.49767 0.0
Co544 Co 0.26558 0.7808 0.49955 0.0
Co545 Co 0.31465 0.83829 0.46593 0.0
C546 C 0.30209 0.82942 0.54772 0.0
O547 O 0.28025 0.80359 0.54482 0.0
O548 O 0.31579 0.84421 0.52 0.0
C549 C 0.21157 0.71871 0.51401 0.0
O550 O 0.19243 0.72511 0.52708 0.0
C551 C 0.33177 0.89635 0.44254 0.0
C552 C 0.36423 0.90433 0.40024 0.0
C553 C 0.34727 0.91498 0.41457 0.0
N554 N 0.33796 0.87477 0.44324 0.0
N555 N 0.35784 0.8799 0.41848 0.0
C556 C 0.31092 0.89832 0.46797 0.0
H557 H 0.30994 0.88716 0.49349 0.0
H558 H 0.28865 0.88734 0.4562 0.0
H559 H 0.31766 0.92143 0.47346 0.0
C560 C 0.22837 0.79392 0.45009 0.0
N561 N 0.25432 0.79925 0.46376 0.0
N562 N 0.27554 0.82098 0.44609 0.0
C563 C 0.2637 0.82872 0.41897 0.0
C564 C 0.23328 0.81266 0.42128 0.0
C565 C 0.19948 0.77031 0.46342 0.0
H566 H 0.19758 0.77356 0.49246 0.0
H567 H 0.18095 0.76964 0.44864 0.0
H568 H 0.19841 0.74903 0.45996 0.0
O569 O 0.29833 0.77598 0.48333 0.0
O570 O 0.3335 0.81486 0.45679 0.0
H571 H 0.27244 0.84121 0.36344 0.0
H572 H 0.27967 0.87026 0.39354 0.0
C573 C 0.28105 0.85023 0.39027 0.0
H574 H 0.3039 0.85514 0.39039 0.0
H575 H 0.36563 0.86585 0.41252 0.0
O576 O 0.23678 0.73883 0.50478 0.0
C577 C 0.32294 0.78887 0.46775 0.0
Co578 Co 0.23144 0.50239 0.49041 0.0
Co579 Co 0.16403 0.46759 0.49163 0.0
C580 C 0.19298 0.48641 0.55997 0.0
O581 O 0.21716 0.499 0.54251 0.0
O582 O 0.16885 0.46981 0.54404 0.0
C583 C 0.29089 0.51004 0.49824 0.0
O584 O 0.27874 0.48314 0.51013 0.0
C585 C 0.10231 0.42355 0.48819 0.0
C586 C 0.09407 0.42941 0.43139 0.0
C587 C 0.08264 0.41055 0.46015 0.0
N588 N 0.12526 0.44782 0.47549 0.0
N589 N 0.11972 0.45191 0.44211 0.0
C590 C 0.09981 0.41339 0.52621 0.0
H591 H 0.10816 0.43241 0.54456 0.0
H592 H 0.11345 0.40321 0.53054 0.0
H593 H 0.07677 0.39747 0.53309 0.0
C594 C 0.22012 0.45138 0.4401 0.0
N595 N 0.21212 0.46599 0.46328 0.0
N596 N 0.18369 0.45046 0.46774 0.0
C597 C 0.17308 0.42524 0.44922 0.0
C598 C 0.19537 0.42508 0.42998 0.0
C599 C 0.25049 0.46293 0.42641 0.0
H600 H 0.26287 0.48709 0.42773 0.0
H601 H 0.26176 0.45435 0.44331 0.0
H602 H 0.25005 0.45558 0.39843 0.0
O603 O 0.22425 0.53297 0.46992 0.0
O604 O 0.17647 0.5076 0.47671 0.0
H605 H 0.12813 0.4023 0.43362 0.0
H606 H 0.14198 0.37901 0.44694 0.0
C607 C 0.14275 0.3999 0.45281 0.0
H608 H 0.13506 0.39882 0.48049 0.0
H609 H 0.13462 0.4686 0.42566 0.0
O610 O 0.27482 0.52055 0.48935 0.0
C611 C 0.1994 0.53124 0.46881 0.0
H612 H 0.9945 0.36504 0.15744 0.0
H613 H 0.975 0.39099 0.25873 0.0
H614 H 0.0024 0.37169 0.29039 0.0
H615 H 0.97686 0.30448 0.17069 0.0
H616 H 0.0052 0.29943 0.15107 0.0
H617 H 1.00042 0.32852 0.13598 0.0
H618 H 0.05423 0.36582 0.15112 0.0
H619 H 0.05934 0.33628 0.16595 0.0
H620 H 0.06842 0.36665 0.19534 0.0
H621 H 0.00986 0.33202 0.31022 0.0
H622 H 0.00229 0.28222 0.31589 0.0
H623 H 0.01256 0.27995 0.20121 0.0
C624 C 0.99724 0.3679 0.18616 0.0
C625 C 0.98038 0.3766 0.20602 0.0
C626 C 0.98549 0.38162 0.24323 0.0
C627 C 0.0019 0.37158 0.26137 0.0
C628 C 0.01408 0.35803 0.24151 0.0
C629 C 0.01331 0.35764 0.20425 0.0
C630 C 0.02131 0.33613 0.18919 0.0
C631 C 0.99958 0.31595 0.16018 0.0
C632 C 0.05269 0.35219 0.17457 0.0
C633 C 0.01982 0.32008 0.22314 0.0
C634 C 0.01823 0.33436 0.25333 0.0
C635 C 0.01216 0.32116 0.28704 0.0
C636 C 0.00729 0.2927 0.28989 0.0
C637 C 0.00782 0.27762 0.25896 0.0
C638 C 0.01415 0.29161 0.22551 0.0
H639 H 0.63957 0.60919 0.10458 0.0
H640 H 0.59986 0.59504 0.20912 0.0
H641 H 0.58795 0.63325 0.19766 0.0
H642 H 0.68132 0.66854 0.10451 0.0
H643 H 0.67883 0.68475 0.06298 0.0
H644 H 0.6647 0.64647 0.06508 0.0
H645 H 0.61517 0.6376 0.04321 0.0
H646 H 0.62881 0.67636 0.04199 0.0
H647 H 0.59622 0.65282 0.06677 0.0
H648 H 0.60338 0.68299 0.19236 0.0
H649 H 0.64754 0.73018 0.20115 0.0
H650 H 0.68278 0.72008 0.10169 0.0
C651 C 0.62722 0.61359 0.12418 0.0
C652 C 0.62107 0.59978 0.15782 0.0
C653 C 0.60467 0.60528 0.18303 0.0
C654 C 0.59758 0.62696 0.17641 0.0
C655 C 0.60749 0.64328 0.14478 0.0
C656 C 0.62106 0.63597 0.11816 0.0
C657 C 0.63726 0.66103 0.0923 0.0
C658 C 0.66733 0.66546 0.08075 0.0
C659 C 0.61819 0.65665 0.05913 0.0
C660 C 0.63925 0.68557 0.11518 0.0
C661 C 0.61827 0.67443 0.14226 0.0
C662 C 0.61948 0.69173 0.17118 0.0
C663 C 0.64483 0.71855 0.17623 0.0
C664 C 0.66835 0.72783 0.15222 0.0
C665 C 0.66445 0.71296 0.11973 0.0
H666 H 0.39205 0.0288 0.26031 0.0
H667 H 0.40385 0.00314 0.15499 0.0
H668 H 0.35745 0.95724 0.16006 0.0
H669 H 0.33008 0.94165 0.29026 0.0
H670 H 0.31227 0.95722 0.31562 0.0
H671 H 0.3516 0.97443 0.31589 0.0
H672 H 0.35481 0.02266 0.29648 0.0
H673 H 0.31607 0.00539 0.29584 0.0
H674 H 0.33648 0.02355 0.256 0.0
H675 H 0.30642 0.93575 0.15836 0.0
H676 H 0.26302 0.94069 0.15306 0.0
H677 H 0.27713 0.97568 0.26045 0.0
C678 C 0.38535 0.01217 0.23984 0.0
C679 C 0.40069 0.01893 0.2074 0.0
C680 C 0.39199 0.9979 0.1801 0.0
C681 C 0.36568 0.97164 0.18302 0.0
C682 C 0.34821 0.96714 0.21312 0.0
C683 C 0.35844 0.98617 0.2423 0.0
C684 C 0.3334 0.9812 0.26656 0.0
C685 C 0.33172 0.96249 0.29897 0.0
C686 C 0.33531 0.00991 0.27928 0.0
C687 C 0.30806 0.96375 0.24127 0.0
C688 C 0.31657 0.9533 0.2123 0.0
C689 C 0.29921 0.94281 0.18144 0.0
C690 C 0.27451 0.94584 0.17841 0.0
C691 C 0.26726 0.95894 0.2063 0.0
C692 C 0.28276 0.96576 0.23889 0.0
H693 H 0.33357 0.05632 0.82421 0.0
H694 H 0.29527 0.05062 0.9278 0.0
H695 H 0.33592 0.04913 0.95678 0.0
H696 H 0.34193 0.01018 0.81945 0.0
H697 H 0.37839 0.02081 0.80435 0.0
H698 H 0.36381 0.04399 0.79556 0.0
H699 H 0.40806 0.08644 0.82671 0.0
H700 H 0.42275 0.06284 0.83571 0.0
H701 H 0.4178 0.08251 0.8718 0.0
H702 H 0.35483 0.01819 0.9683 0.0
H703 H 0.34972 0.97009 0.95983 0.0
H704 H 0.37667 0.99125 0.84963 0.0
C705 C 0.33531 0.05673 0.85313 0.0
C706 C 0.31158 0.05295 0.87388 0.0
C707 C 0.31347 0.05353 0.91151 0.0
C708 C 0.33677 0.05284 0.92818 0.0
C709 C 0.35764 0.05128 0.90674 0.0
C710 C 0.35833 0.05536 0.86975 0.0
C711 C 0.3771 0.04492 0.8518 0.0
C712 C 0.36442 0.02893 0.81578 0.0
C713 C 0.40826 0.0707 0.84623 0.0
C714 C 0.3771 0.02531 0.88122 0.0
C715 C 0.36939 0.03217 0.91391 0.0
C716 C 0.36157 0.01323 0.94316 0.0
C717 C 0.35812 0.98561 0.93798 0.0
C718 C 0.36261 0.97716 0.90385 0.0
C719 C 0.3741 0.99779 0.87611 0.0
H720 H 0.00892 0.38505 0.90615 0.0
H721 H 0.01269 0.39789 0.79179 0.0
H722 H 0.96271 0.3569 0.7858 0.0
H723 H 0.99533 0.3285 0.91504 0.0
H724 H 0.96619 0.30998 0.94719 0.0
H725 H 0.98724 0.34874 0.94756 0.0
H726 H 0.94064 0.35184 0.94101 0.0
H727 H 0.91915 0.31256 0.94083 0.0
H728 H 0.91531 0.33316 0.905 0.0
H729 H 0.93329 0.30611 0.78585 0.0
H730 H 0.93678 0.26202 0.79053 0.0
H731 H 0.94947 0.27399 0.90467 0.0
C732 C 0.99817 0.3797 0.88028 0.0
C733 C 0.01432 0.39358 0.84938 0.0
C734 C 1.00047 0.38717 0.81575 0.0
C735 C 0.97185 0.36397 0.81234 0.0
C736 C 0.95774 0.34719 0.84268 0.0
C737 C 0.96993 0.35583 0.87673 0.0
C738 C 0.95566 0.33072 0.90297 0.0
C739 C 0.97748 0.32941 0.92959 0.0
C740 C 0.93124 0.33215 0.92362 0.0
C741 C 0.9425 0.3057 0.87649 0.0
C742 C 0.94003 0.31554 0.84267 0.0
C743 C 0.93481 0.29834 0.81213 0.0
C744 C 0.93722 0.27343 0.81485 0.0
C745 C 0.94411 0.26566 0.84799 0.0
C746 C 0.94389 0.28002 0.87943 0.0
H747 H 0.63302 0.72187 0.97768 0.0
H748 H 0.58942 0.62928 0.95738 0.0
H749 H 0.63671 0.63128 0.95407 0.0
H750 H 0.67746 0.74415 0.91881 0.0
H751 H 0.71052 0.77211 0.93975 0.0
H752 H 0.67606 0.76188 0.95951 0.0
H753 H 0.69246 0.74957 1.01956 0.0
H754 H 0.72756 0.76115 0.99934 0.0
H755 H 0.70737 0.72558 1.01944 0.0
H756 H 0.68223 0.64519 0.92606 0.0
H757 H 0.7208 0.66946 0.88049 0.0
H758 H 0.7391 0.75354 0.91976 0.0
C759 C 0.63387 0.70202 0.9745 0.0
C760 C 0.60824 0.67566 0.96712 0.0
C761 C 0.60921 0.64977 0.96257 0.0
C762 C 0.63599 0.65068 0.96124 0.0
C763 C 0.66149 0.67762 0.96492 0.0
C764 C 0.6607 0.70284 0.97289 0.0
C765 C 0.69031 0.72971 0.96734 0.0
C766 C 0.68841 0.75324 0.94495 0.0
C767 C 0.7053 0.74221 1.00359 0.0
C768 C 0.70552 0.71614 0.9476 0.0
C769 C 0.68946 0.68592 0.94883 0.0
C770 C 0.69566 0.66871 0.92612 0.0
C771 C 0.71732 0.68251 0.90005 0.0
C772 C 0.73228 0.71305 0.89722 0.0
C773 C 0.72774 0.73003 0.92242 0.0
H774 H 0.71774 0.64334 0.48651 0.0
H775 H 0.7189 0.64269 0.60191 0.0
H776 H 0.72847 0.69283 0.60342 0.0
H777 H 0.76155 0.73718 0.48358 0.0
H778 H 0.73982 0.73298 0.4444 0.0
H779 H 0.75684 0.71101 0.44963 0.0
H780 H 0.70703 0.6648 0.4404 0.0
H781 H 0.69021 0.68642 0.43518 0.0
H782 H 0.67663 0.65811 0.46882 0.0
H783 H 0.70766 0.72228 0.59648 0.0
H784 H 0.66106 0.71948 0.58397 0.0
H785 H 0.6694 0.70545 0.47182 0.0
C786 C 0.72198 0.65496 0.51165 0.0
C787 C 0.71715 0.63969 0.54392 0.0
C788 C 0.72212 0.6543 0.57689 0.0
C789 C 0.72805 0.68303 0.57782 0.0
C790 C 0.72796 0.69648 0.5456 0.0
C791 C 0.72664 0.68343 0.51261 0.0
C792 C 0.71819 0.69745 0.48315 0.0
C793 C 0.74573 0.72106 0.46411 0.0
C794 C 0.69665 0.67531 0.45542 0.0
C795 C 0.70501 0.71156 0.50595 0.0
C796 C 0.71462 0.71452 0.5413 0.0
C797 C 0.70054 0.72057 0.56892 0.0
C798 C 0.6738 0.71881 0.5617 0.0
C799 C 0.66181 0.7116 0.52699 0.0
C800 C 0.67871 0.7108 0.49849 0.0
H801 H 0.39207 0.96633 0.39221 0.0
H802 H 0.29855 0.92035 0.40727 0.0
H803 H 0.29851 0.96638 0.40584 0.0
H804 H 0.41348 0.01224 0.44547 0.0
H805 H 0.44007 0.04541 0.42357 0.0
H806 H 0.43143 0.01115 0.40479 0.0
H807 H 0.41766 0.02537 0.34464 0.0
H808 H 0.42671 0.06019 0.36371 0.0
H809 H 0.39137 0.03749 0.34378 0.0
H810 H 0.3104 0.01076 0.43517 0.0
H811 H 0.33262 0.04769 0.48292 0.0
H812 H 0.4186 0.07044 0.44563 0.0
C813 C 0.37156 0.9662 0.39306 0.0
C814 C 0.34566 0.94038 0.40166 0.0
C815 C 0.31893 0.94024 0.40244 0.0
C816 C 0.31864 0.96636 0.40081 0.0
C817 C 0.34519 0.99232 0.39752 0.0
C818 C 0.37118 0.99242 0.39151 0.0
C819 C 0.39722 0.02272 0.39657 0.0
C820 C 0.42189 0.02281 0.41903 0.0
C821 C 0.40891 0.03729 0.36 0.0
C822 C 0.38239 0.03697 0.4157 0.0
C823 C 0.35215 0.02005 0.41331 0.0
C824 C 0.33388 0.02488 0.43591 0.0
C825 C 0.34653 0.04564 0.46325 0.0
C826 C 0.37706 0.06139 0.46723 0.0
C827 C 0.39512 0.05857 0.44194 0.0
H828 H 0.03437 0.39007 0.41921 0.0
H829 H 0.0801 0.36217 0.49074 0.0
H830 H 0.03885 0.31216 0.4887 0.0
H831 H 0.97341 0.36065 0.45494 0.0
H832 H 0.94958 0.34787 0.4163 0.0
H833 H 0.98614 0.37704 0.41144 0.0
H834 H 0.99441 0.34792 0.36218 0.0
H835 H 0.95773 0.31778 0.36773 0.0
H836 H 0.98836 0.31188 0.37137 0.0
H837 H 0.99002 0.27416 0.49882 0.0
H838 H 0.94013 0.25503 0.5215 0.0
H839 H 0.92341 0.30184 0.43889 0.0
C840 C 0.0358 0.37305 0.43348 0.0
C841 C 0.05945 0.38002 0.45653 0.0
C842 C 0.06131 0.35757 0.47451 0.0
C843 C 0.03834 0.32884 0.47252 0.0
C844 C 0.01404 0.3228 0.45165 0.0
C845 C 0.01295 0.34425 0.43159 0.0
C846 C 0.98248 0.33397 0.41765 0.0
C847 C 0.97234 0.35615 0.42569 0.0
C848 C 0.98065 0.32747 0.37733 0.0
C849 C 0.96584 0.30601 0.43879 0.0
C850 C 0.9846 0.29883 0.45625 0.0
C851 C 0.975 0.27865 0.48426 0.0
C852 C 0.94667 0.26794 0.49719 0.0
C853 C 0.92833 0.27701 0.48149 0.0
C854 C 0.93702 0.29399 0.45022 0.0
H855 H 0.1534 0.39996 0.37786 0.0
H856 H 0.22739 0.39698 0.42287 0.0
H857 H 0.2151 0.35357 0.3852 0.0
H858 H 0.10495 0.32382 0.37931 0.0
H859 H 0.08625 0.32314 0.33856 0.0
H860 H 0.10301 0.35547 0.36598 0.0
H861 H 0.13319 0.38582 0.31145 0.0
H862 H 0.11643 0.35353 0.28392 0.0
H863 H 0.15569 0.3749 0.28739 0.0
H864 H 0.19099 0.30678 0.34538 0.0
H865 H 0.15886 0.26337 0.30836 0.0
H866 H 0.10108 0.29794 0.28997 0.0
C867 C 0.1673 0.39043 0.37954 0.0
C868 C 0.19146 0.402 0.40345 0.0
C869 C 0.20906 0.38885 0.40452 0.0
C870 C 0.20203 0.364 0.38337 0.0
C871 C 0.17735 0.35252 0.36108 0.0
C872 C 0.16039 0.36556 0.359 0.0
C873 C 0.13406 0.34836 0.33479 0.0
C874 C 0.10538 0.33703 0.35592 0.0
C875 C 0.13491 0.36675 0.30247 0.0
C876 C 0.13869 0.32349 0.32339 0.0
C877 C 0.16373 0.32612 0.33873 0.0
C878 C 0.17155 0.30483 0.33304 0.0
C879 C 0.15324 0.28025 0.31169 0.0
C880 C 0.12724 0.27693 0.2962 0.0
C881 C 0.12045 0.29934 0.30178 0.0
H882 H 0.63984 0.82445 0.43587 0.0
H883 H 0.57307 0.74385 0.38782 0.0
H884 H 0.60366 0.75391 0.33403 0.0
H885 H 0.66079 0.86649 0.34728 0.0
H886 H 0.69883 0.88746 0.35966 0.0
H887 H 0.67098 0.87536 0.39369 0.0
H888 H 0.6955 0.85057 0.42731 0.0
H889 H 0.72305 0.86198 0.39304 0.0
H890 H 0.70117 0.82391 0.40429 0.0
H891 H 0.646 0.76531 0.29548 0.0
H892 H 0.69029 0.7858 0.25998 0.0
H893 H 0.72664 0.86661 0.32038 0.0
C894 C 0.63115 0.80975 0.41321 0.0
C895 C 0.60381 0.78345 0.41579 0.0
C896 C 0.59355 0.76429 0.38608 0.0
C897 C 0.611 0.76964 0.35565 0.0
C898 C 0.63833 0.7949 0.35457 0.0
C899 C 0.64791 0.81547 0.38157 0.0
C900 C 0.67822 0.84103 0.37246 0.0
C901 C 0.67714 0.86927 0.368 0.0
C902 C 0.70081 0.84457 0.40099 0.0
C903 C 0.68435 0.83102 0.33674 0.0
C904 C 0.66124 0.80385 0.32799 0.0
C905 C 0.6632 0.78753 0.30026 0.0
C906 C 0.68854 0.79985 0.27947 0.0
C907 C 0.71124 0.82925 0.28412 0.0
C908 C 0.70941 0.84472 0.31435 0.0
H909 H 0.17248 0.86101 0.25399 0.0
H910 H 0.11331 0.86965 0.32625 0.0
H911 H 0.12926 0.84938 0.37573 0.0
H912 H 0.16404 0.79271 0.29165 0.0
H913 H 0.20208 0.8043 0.2849 0.0
H914 H 0.18386 0.81691 0.2552 0.0
H915 H 0.22348 0.87032 0.26892 0.0
H916 H 0.24155 0.85795 0.29917 0.0
H917 H 0.23016 0.88288 0.31473 0.0
H918 H 0.15728 0.83415 0.41908 0.0
H919 H 0.19051 0.82109 0.45026 0.0
H920 H 0.22695 0.81711 0.34785 0.0
C921 C 0.16222 0.85775 0.28 0.0
C922 C 0.14126 0.86641 0.28621 0.0
C923 C 0.12885 0.86252 0.32075 0.0
C924 C 0.13804 0.85129 0.34904 0.0
C925 C 0.15943 0.84374 0.34224 0.0
C926 C 0.17092 0.84633 0.30829 0.0
C927 C 0.19435 0.83779 0.30802 0.0
C928 C 0.18554 0.81135 0.28349 0.0
C929 C 0.22413 0.86378 0.29706 0.0
C930 C 0.19441 0.83001 0.34712 0.0
C931 C 0.17447 0.83397 0.36662 0.0
C932 C 0.17245 0.83037 0.40379 0.0
C933 C 0.1913 0.82272 0.4213 0.0
C934 C 0.21168 0.8182 0.40176 0.0
C935 C 0.21256 0.82131 0.36402 0.0
H936 H 0.35051 0.1443 0.60005 0.0
H937 H 0.4186 0.21541 0.66162 0.0
H938 H 0.38222 0.20929 0.70728 0.0
H939 H 0.28896 0.15416 0.62252 0.0
H940 H 0.26378 0.11565 0.62744 0.0
H941 H 0.29415 0.12824 0.59697 0.0
H942 H 0.31142 0.09624 0.62922 0.0
H943 H 0.28095 0.08334 0.65948 0.0
H944 H 0.31765 0.10002 0.67695 0.0
H945 H 0.33878 0.19301 0.74888 0.0
H946 H 0.29372 0.16519 0.78493 0.0
H947 H 0.25477 0.10225 0.69907 0.0
C948 C 0.35777 0.15881 0.62296 0.0
C949 C 0.38749 0.18087 0.6266 0.0
C950 C 0.39592 0.1991 0.65729 0.0
C951 C 0.37537 0.19559 0.68364 0.0
C952 C 0.34638 0.17341 0.67939 0.0
C953 C 0.33768 0.15506 0.65 0.0
C954 C 0.30605 0.13089 0.65368 0.0
C955 C 0.28712 0.13234 0.62334 0.0
C956 C 0.3039 0.10085 0.65491 0.0
C957 C 0.29818 0.1386 0.6896 0.0
C958 C 0.32167 0.1634 0.70385 0.0
C959 C 0.32016 0.17384 0.7377 0.0
C960 C 0.29439 0.15812 0.75787 0.0
C961 C 0.27049 0.13219 0.7443 0.0
C962 C 0.27231 0.12265 0.70946 0.0
H963 H 0.78087 0.16915 0.64924 0.0
H964 H 0.86394 0.2295 0.60006 0.0
H965 H 0.88832 0.20949 0.63572 0.0
H966 H 0.81671 0.18294 0.73847 0.0
H967 H 0.79241 0.14668 0.7549 0.0
H968 H 0.77973 0.16261 0.72186 0.0
H969 H 0.76492 0.11814 0.68042 0.0
H970 H 0.77807 0.10238 0.71314 0.0
H971 H 0.79195 0.10854 0.66796 0.0
H972 H 0.90375 0.18054 0.67188 0.0
H973 H 0.91405 0.15736 0.72268 0.0
H974 H 0.82565 0.1237 0.76151 0.0
C975 C 0.80414 0.1781 0.64594 0.0
C976 C 0.8198 0.19921 0.61887 0.0
C977 C 0.8506 0.21131 0.6174 0.0
C978 C 0.86495 0.20039 0.63818 0.0
C979 C 0.84878 0.1784 0.66259 0.0
C980 C 0.81947 0.16849 0.6683 0.0
C981 C 0.80892 0.14807 0.7007 0.0
C982 C 0.79885 0.16084 0.73077 0.0
C983 C 0.78451 0.11746 0.68989 0.0
C984 C 0.83675 0.14778 0.71137 0.0
C985 C 0.85906 0.16475 0.68795 0.0
C986 C 0.8866 0.16749 0.69077 0.0
C987 C 0.89215 0.15386 0.71943 0.0
C988 C 0.87069 0.13846 0.74586 0.0
C989 C 0.84232 0.13483 0.74135 0.0
H990 H 0.81923 0.68461 0.77204 0.0
H991 H 0.88751 0.75166 0.70666 0.0
H992 H 0.87981 0.71455 0.66109 0.0
H993 H 0.83029 0.6238 0.74929 0.0
H994 H 0.7917 0.59779 0.74705 0.0
H995 H 0.80503 0.62887 0.77649 0.0
H996 H 0.77036 0.64385 0.74633 0.0
H997 H 0.7568 0.61274 0.71702 0.0
H998 H 0.77177 0.6488 0.69841 0.0
H999 H 0.86159 0.67027 0.61987 0.0
H1000 H 0.83266 0.62418 0.58593 0.0
H1001 H 0.77525 0.58629 0.67701 0.0
C1002 C 0.83284 0.69146 0.74833 0.0
C1003 C 0.85445 0.72112 0.74341 0.0
C1004 C 0.87149 0.72906 0.71174 0.0
C1005 C 0.86708 0.70809 0.6855 0.0
C1006 C 0.84534 0.67913 0.69101 0.0
C1007 C 0.82835 0.67087 0.72161 0.0
C1008 C 0.80462 0.63899 0.71966 0.0
C1009 C 0.80813 0.62132 0.74993 0.0
C1010 C 0.77409 0.63593 0.72039 0.0
C1011 C 0.81096 0.63047 0.68332 0.0
C1012 C 0.83461 0.65388 0.66722 0.0
C1013 C 0.84334 0.65173 0.63253 0.0
C1014 C 0.82699 0.62538 0.61352 0.0
C1015 C 0.80215 0.60149 0.62909 0.0
C1016 C 0.79461 0.60395 0.6648 0.0
H1017 H 0.95814 0.4329 0.08355 0.0
H1018 H 0.92978 0.49634 0.07292 0.0
H1019 H 0.96856 0.5228 0.02752 0.0
H1020 H 0.03569 0.48556 0.08079 0.0
H1021 H 0.04433 0.46113 0.05728 0.0
H1022 H 0.01328 0.44671 0.08684 0.0
H1023 H 0.97981 0.41494 0.03503 0.0
H1024 H 0.01069 0.4294 1.00522 0.0
H1025 H 0.97902 0.43206 0.99361 0.0
H1026 H 0.01112 0.54149 0.98066 0.0
H1027 H 0.05197 0.5503 0.94006 0.0
H1028 H 0.05694 0.47942 0.99067 0.0
C1029 C 0.96047 0.45286 0.07275 0.0
C1030 C 0.94098 0.46271 0.08275 0.0
C1031 C 0.94411 0.48807 0.06583 0.0
C1032 C 0.96633 0.50341 0.04014 0.0
C1033 C 0.98565 0.49344 0.03182 0.0
C1034 C 0.98295 0.46879 0.04804 0.0
C1035 C 0.00663 0.46264 0.03549 0.0
C1036 C 0.02614 0.46411 0.06698 0.0
C1037 C 0.99323 0.43301 1.01619 0.0
C1038 C 0.02324 0.48764 1.00952 0.0
C1039 C 0.01063 0.50498 1.00715 0.0
C1040 C 0.02124 0.52817 0.98281 0.0
C1041 C 0.04467 0.53322 0.95998 0.0
C1042 C 0.05764 0.51545 0.96178 0.0
C1043 C 0.04728 0.49314 0.98802 0.0
H1044 H 0.48711 0.56349 0.02458 0.0
H1045 H 0.45912 0.50378 0.9347 0.0
H1046 H 0.47271 0.47186 0.96843 0.0
H1047 H 0.5504 0.56033 0.04171 0.0
H1048 H 0.54943 0.56398 0.08965 0.0
H1049 H 0.53316 0.57914 0.06079 0.0
H1050 H 0.48375 0.54947 0.09398 0.0
H1051 H 0.49999 0.53437 0.12312 0.0
H1052 H 0.46743 0.51049 0.09802 0.0
H1053 H 0.49542 0.44955 1.01053 0.0
H1054 H 0.52396 0.43959 0.05554 0.0
H1055 H 0.53722 0.5147 0.11682 0.0
C1056 C 0.48301 0.54322 1.01242 0.0
C1057 C 0.47175 0.53593 0.97715 0.0
C1058 C 0.46722 0.50952 0.96189 0.0
C1059 C 0.47514 0.49142 0.98081 0.0
C1060 C 0.48754 0.50002 1.01499 0.0
C1061 C 0.49129 0.52534 0.03062 0.0
C1062 C 0.50754 0.53148 0.06597 0.0
C1063 C 0.53685 0.56043 0.06442 0.0
C1064 C 0.48853 0.53143 0.09712 0.0
C1065 C 0.51233 0.50563 0.06808 0.0
C1066 C 0.50069 0.48762 0.03855 0.0
C1067 C 0.50417 0.46334 0.03396 0.0
C1068 C 0.52024 0.45766 0.05982 0.0
C1069 C 0.53274 0.47623 0.08986 0.0
C1070 C 0.52806 0.5001 0.09413 0.0
H1071 H 0.49659 0.06724 0.04834 0.0
H1072 H 0.54771 0.03971 0.11036 0.0
H1073 H 0.53437 0.99894 0.06762 0.0
H1074 H 0.43806 0.99689 0.03026 0.0
H1075 H 0.43113 0.00511 0.98566 0.0
H1076 H 0.44725 0.03356 1.01885 0.0
H1077 H 0.49105 0.06406 0.97666 0.0
H1078 H 0.47491 0.03571 0.94328 0.0
H1079 H 0.5116 0.04817 0.95889 0.0
H1080 H 0.5103 0.95755 0.02101 0.0
H1081 H 0.48003 0.92155 0.97445 0.0
H1082 H 0.44694 0.97802 0.94145 0.0
C1083 C 0.50551 0.05299 0.05238 0.0
C1084 C 0.52331 0.05664 0.08253 0.0
C1085 C 0.53431 0.03743 0.08723 0.0
C1086 C 0.52668 0.01414 0.06318 0.0
C1087 C 0.50822 0.01051 0.03432 0.0
C1088 C 0.49805 0.02968 0.02869 0.0
C1089 C 0.47731 0.02029 0.99693 0.0
C1090 C 0.44663 0.01357 1.00864 0.0
C1091 C 0.48945 0.04343 0.96717 0.0
C1092 C 0.47719 0.99276 0.98559 0.0
C1093 C 0.49501 0.9873 1.00748 0.0
C1094 C 0.49671 0.96197 1.00338 0.0
C1095 C 0.47958 0.94167 0.97661 0.0
C1096 C 0.46101 0.94679 0.95411 0.0
C1097 C 0.46052 0.9731 0.95842 0.0
H1098 H 0.03526 0.15566 0.09451 0.0
H1099 H 0.99034 0.19659 0.1434 0.0
H1100 H 0.95937 0.18532 0.08984 0.0
H1101 H 0.03405 0.18047 1.00285 0.0
H1102 H 0.02813 0.14718 0.98222 0.0
H1103 H 0.04753 0.159 0.0242 0.0
H1104 H 0.01083 0.10933 0.05253 0.0
H1105 H 0.9911 0.09755 1.01074 0.0
H1106 H 0.97229 0.09707 0.05122 0.0
H1107 H 0.93277 0.16987 0.03159 0.0
H1108 H 0.91499 0.15448 0.96967 0.0
H1109 H 0.97505 0.12203 0.95697 0.0
C1110 C 0.01921 0.16262 0.09368 0.0
C1111 C 0.01538 0.17707 0.1235 0.0
C1112 C 0.9938 0.18546 0.12124 0.0
C1113 C 0.97593 0.17906 0.09086 0.0
C1114 C 0.97962 0.16413 0.06252 0.0
C1115 C 1.0009 0.15627 0.0633 0.0
C1116 C 1.00019 0.14062 0.02867 0.0
C1117 C 0.0292 0.15785 1.00828 0.0
C1118 C 0.99318 0.10928 0.03626 0.0
C1119 C 0.97516 0.14087 1.00857 0.0
C1120 C 0.96366 0.15455 0.0288 0.0
C1121 C 0.94135 0.1588 1.01568 0.0
C1122 C 0.93112 0.14969 0.98061 0.0
C1123 C 0.94275 0.13604 0.95899 0.0
C1124 C 0.96482 0.13122 0.97344 0.0
H1125 H 0.81822 0.79732 0.93865 0.0
H1126 H 0.91276 0.8509 0.94129 0.0
H1127 H 0.90951 0.87063 1.00037 0.0
H1128 H 0.80201 0.84852 0.97472 0.0
H1129 H 0.77113 0.82242 1.00058 0.0
H1130 H 0.78116 0.81107 0.96018 0.0
H1131 H 0.78496 0.7712 0.99525 0.0
H1132 H 0.77502 0.78217 0.03609 0.0
H1133 H 0.80845 0.78101 0.03404 0.0
H1134 H 0.89476 0.88586 0.0596 0.0
H1135 H 0.87055 0.89174 0.11333 0.0
H1136 H 0.78611 0.82945 0.0684 0.0
C1137 C 0.83841 0.81282 0.95175 0.0
C1138 C 0.86583 0.82237 0.93513 0.0
C1139 C 0.89152 0.84294 0.95345 0.0
C1140 C 0.88984 0.85445 0.98696 0.0
C1141 C 0.86232 0.8452 1.00191 0.0
C1142 C 0.83712 0.82453 0.9849 0.0
C1143 C 0.8101 0.81819 1.00596 0.0
C1144 C 0.78994 0.82551 0.98404 0.0
C1145 C 0.79367 0.78626 1.01858 0.0
C1146 C 0.82387 0.83898 0.03721 0.0
C1147 C 0.854 0.85428 0.03477 0.0
C1148 C 0.87116 0.87404 0.06152 0.0
C1149 C 0.85721 0.87751 0.09184 0.0
C1150 C 0.82634 0.86142 0.09518 0.0
C1151 C 0.8097 0.84248 0.06682 0.0
H1152 H 0.20455 0.03077 0.94782 0.0
H1153 H 0.12714 0.03747 0.92918 0.0
H1154 H 0.1046 0.00826 0.98381 0.0
H1155 H 0.16899 0.9582 0.97789 0.0
H1156 H 0.19565 0.96382 1.0118 0.0
H1157 H 0.20647 0.98675 0.97266 0.0
H1158 H 0.22694 0.03278 1.01273 0.0
H1159 H 0.21671 0.01004 0.05202 0.0
H1160 H 0.20374 0.03538 0.04611 0.0
H1161 H 0.08875 0.97402 0.03798 0.0
H1162 H 0.08453 0.94585 0.09268 0.0
H1163 H 0.17298 0.96288 0.07658 0.0
C1164 C 0.18312 0.02673 0.95564 0.0
C1165 C 0.16772 0.03666 0.93414 0.0
C1166 C 0.13961 0.03057 0.94534 0.0
C1167 C 0.12647 0.01364 0.97615 0.0
C1168 C 0.1418 0.00316 0.9958 0.0
C1169 C 0.16982 0.01012 0.98643 0.0
C1170 C 0.18179 0.99642 1.0121 0.0
C1171 C 0.18862 0.97503 0.99242 0.0
C1172 C 0.20889 0.02006 0.03193 0.0
C1173 C 0.15605 0.98042 0.03729 0.0
C1174 C 0.13302 0.98423 0.0272 0.0
C1175 C 0.10676 0.97112 0.0462 0.0
C1176 C 0.10442 0.95479 0.07707 0.0
C1177 C 0.12832 0.95189 0.08905 0.0
C1178 C 0.15419 0.96444 0.06819 0.0
H1179 H 0.63726 0.51101 0.29411 0.0
H1180 H 0.62259 0.424 0.27451 0.0
H1181 H 0.65044 0.42754 0.32934 0.0
H1182 H 0.70943 0.54269 0.32764 0.0
H1183 H 0.70503 0.56407 0.36204 0.0
H1184 H 0.68315 0.55458 0.32188 0.0
H1185 H 0.63585 0.53085 0.35987 0.0
H1186 H 0.65761 0.54073 0.40015 0.0
H1187 H 0.63009 0.50325 0.39228 0.0
H1188 H 0.68401 0.44246 0.38375 0.0
H1189 H 0.71179 0.4633 0.43983 0.0
H1190 H 0.70215 0.53933 0.42637 0.0
C1191 C 0.63937 0.49244 0.30174 0.0
C1192 C 0.62754 0.46714 0.27986 0.0
C1193 C 0.63102 0.44346 0.29087 0.0
C1194 C 0.64716 0.44541 0.32183 0.0
C1195 C 0.65938 0.47102 0.34202 0.0
C1196 C 0.65497 0.49381 0.33298 0.0
C1197 C 0.66971 0.51857 0.3599 0.0
C1198 C 0.69322 0.54663 0.34176 0.0
C1199 C 0.64696 0.52364 0.3792 0.0
C1200 C 0.68339 0.50631 0.38524 0.0
C1201 C 0.67759 0.47906 0.37412 0.0
C1202 C 0.68844 0.46368 0.39284 0.0
C1203 C 0.70456 0.47588 0.4245 0.0
C1204 C 0.70937 0.50305 0.43759 0.0
C1205 C 0.69905 0.51861 0.41709 0.0
H1206 H 0.46409 0.14528 0.4294 0.0
H1207 H 0.53073 0.23627 0.44137 0.0
H1208 H 0.55438 0.23307 0.38567 0.0
H1209 H 0.50954 0.11936 0.39677 0.0
H1210 H 0.48343 0.09415 0.36492 0.0
H1211 H 0.47092 0.10355 0.40491 0.0
H1212 H 0.44094 0.12002 0.36706 0.0
H1213 H 0.4527 0.11025 0.32674 0.0
H1214 H 0.45868 0.14664 0.33206 0.0
H1215 H 0.57264 0.21865 0.33011 0.0
H1216 H 0.57886 0.19707 0.27434 0.0
H1217 H 0.49926 0.11611 0.29802 0.0
C1218 C 0.48335 0.16476 0.42004 0.0
C1219 C 0.49542 0.19112 0.43989 0.0
C1220 C 0.52081 0.21593 0.42659 0.0
C1221 C 0.5346 0.21421 0.39513 0.0
C1222 C 0.52263 0.18762 0.37695 0.0
C1223 C 0.49716 0.16352 0.38854 0.0
C1224 C 0.48826 0.13765 0.36378 0.0
C1225 C 0.48803 0.11218 0.38381 0.0
C1226 C 0.45838 0.1281 0.34637 0.0
C1227 C 0.51277 0.1509 0.33646 0.0
C1228 C 0.53264 0.1796 0.34476 0.0
C1229 C 0.55713 0.19623 0.32334 0.0
C1230 C 0.56073 0.18364 0.29189 0.0
C1231 C 0.53975 0.15478 0.28179 0.0
C1232 C 0.51589 0.13812 0.30505 0.0
H1233 H 0.86678 0.35624 0.28718 0.0
H1234 H 0.79865 0.37802 0.2722 0.0
H1235 H 0.77472 0.35108 0.32805 0.0
H1236 H 0.82004 0.28372 0.31449 0.0
H1237 H 0.84595 0.28345 0.34572 0.0
H1238 H 0.85872 0.30684 0.30703 0.0
H1239 H 0.88848 0.35172 0.34799 0.0
H1240 H 0.87606 0.32842 0.38676 0.0
H1241 H 0.87029 0.3591 0.38387 0.0
H1242 H 0.75796 0.31957 0.38756 0.0
H1243 H 0.75175 0.28941 0.44155 0.0
H1244 H 0.82855 0.28527 0.41041 0.0
C1245 C 0.84706 0.35588 0.29559 0.0
C1246 C 0.8349 0.36967 0.27499 0.0
C1247 C 0.80879 0.36809 0.28748 0.0
C1248 C 0.79489 0.35258 0.31915 0.0
C1249 C 0.80709 0.33838 0.33797 0.0
C1250 C 0.83271 0.34006 0.32638 0.0
C1251 C 0.84108 0.32203 0.34971 0.0
C1252 C 0.84145 0.29756 0.32793 0.0
C1253 C 0.87073 0.34148 0.36818 0.0
C1254 C 0.81625 0.3098 0.37646 0.0
C1255 C 0.79687 0.31953 0.36982 0.0
C1256 C 0.77298 0.31172 0.39257 0.0
C1257 C 0.76939 0.29427 0.42308 0.0
C1258 C 0.78936 0.28444 0.43043 0.0
C1259 C 0.81257 0.29196 0.40592 0.0
H1260 H 0.35618 0.8261 0.74813 0.0
H1261 H 0.38945 0.91912 0.75348 0.0
H1262 H 0.37295 0.91836 0.69102 0.0
H1263 H 0.37148 0.82132 0.65351 0.0
H1264 H 0.33778 0.78756 0.64643 0.0
H1265 H 0.35477 0.79605 0.69004 0.0
H1266 H 0.30688 0.78905 0.71796 0.0
H1267 H 0.28981 0.78079 0.6744 0.0
H1268 H 0.29102 0.80983 0.70086 0.0
H1269 H 0.35281 0.90724 0.62749 0.0
H1270 H 0.32883 0.88647 0.56921 0.0
H1271 H 0.30395 0.79983 0.60731 0.0
C1272 C 0.36064 0.84638 0.7357 0.0
C1273 C 0.37489 0.87288 0.75514 0.0
C1274 C 0.37919 0.89877 0.73869 0.0
C1275 C 0.36976 0.89849 0.70331 0.0
C1276 C 0.35536 0.87195 0.68498 0.0
C1277 C 0.35061 0.84631 0.70071 0.0
C1278 C 0.33279 0.82045 0.67611 0.0
C1279 C 0.35025 0.80547 0.66592 0.0
C1280 C 0.30339 0.79876 0.69337 0.0
C1281 C 0.32846 0.83553 0.644 0.0
C1282 C 0.34192 0.86528 0.64951 0.0
C1283 C 0.34196 0.88394 0.62308 0.0
C1284 C 0.32821 0.87196 0.59007 0.0
C1285 C 0.31402 0.84151 0.58389 0.0
C1286 C 0.31396 0.82312 0.61151 0.0
H1287 H 0.14796 0.46027 0.60928 0.0
H1288 H 0.23515 0.53461 0.59542 0.0
H1289 H 0.23032 0.55521 0.6526 0.0
H1290 H 0.11502 0.49803 0.64765 0.0
H1291 H 0.09314 0.47 0.67961 0.0
H1292 H 0.10349 0.46046 0.63799 0.0
H1293 H 0.12689 0.43499 0.67274 0.0
H1294 H 0.11618 0.44406 0.71442 0.0
H1295 H 0.15394 0.45493 0.70676 0.0
H1296 H 0.21448 0.56976 0.7096 0.0
H1297 H 0.19276 0.5725 0.76706 0.0
H1298 H 0.11685 0.48778 0.7456 0.0
C1299 C 0.16628 0.48063 0.61855 0.0
C1300 C 0.19202 0.4957 0.5976 0.0
C1301 C 0.21533 0.52237 0.61089 0.0
C1302 C 0.21267 0.53447 0.64326 0.0
C1303 C 0.18668 0.51955 0.66256 0.0
C1304 C 0.16417 0.49284 0.65115 0.0
C1305 C 0.13888 0.48086 0.6775 0.0
C1306 C 0.11099 0.47713 0.6596 0.0
C1307 C 0.13368 0.452 0.69383 0.0
C1308 C 0.15058 0.50511 0.70531 0.0
C1309 C 0.178 0.52743 0.69592 0.0
C1310 C 0.19307 0.55229 0.71729 0.0
C1311 C 0.18037 0.55383 0.74977 0.0
C1312 C 0.15297 0.53049 0.761 0.0
C1313 C 0.13772 0.50614 0.73784 0.0
H1314 H 0.45887 0.63398 0.77245 0.0
H1315 H 0.54569 0.65743 0.8101 0.0
H1316 H 0.56685 0.68437 0.75414 0.0
H1317 H 0.47176 0.62495 0.67764 0.0
H1318 H 0.45026 0.64023 0.66117 0.0
H1319 H 0.44158 0.62167 0.7037 0.0
H1320 H 0.44584 0.66752 0.73422 0.0
H1321 H 0.45498 0.68634 0.69184 0.0
H1322 H 0.47918 0.70204 0.7297 0.0
H1323 H 0.57929 0.70972 0.69529 0.0
H1324 H 0.58177 0.72813 0.63391 0.0
H1325 H 0.48762 0.6901 0.63278 0.0
C1326 C 0.48226 0.64427 0.76856 0.0
C1327 C 0.50057 0.64338 0.79586 0.0
C1328 C 0.53114 0.65768 0.78981 0.0
C1329 C 0.54343 0.67321 0.75809 0.0
C1330 C 0.525 0.67449 0.73236 0.0
C1331 C 0.49504 0.66015 0.73687 0.0
C1332 C 0.48041 0.66526 0.70463 0.0
C1333 C 0.45979 0.63631 0.68566 0.0
C1334 C 0.46414 0.68124 0.71578 0.0
C1335 C 0.50685 0.68467 0.68144 0.0
C1336 C 0.53231 0.68973 0.69822 0.0
C1337 C 0.55953 0.70607 0.68199 0.0
C1338 C 0.56077 0.71668 0.64722 0.0
C1339 C 0.53505 0.71126 0.6289 0.0
C1340 C 0.50774 0.69549 0.64659 0.0
H1341 H 0.08648 0.99121 0.22861 0.0
H1342 H 0.18129 0.03849 0.2241 0.0
H1343 H 0.18125 0.08492 0.22061 0.0
H1344 H 0.07354 0.02981 0.16625 0.0
H1345 H 0.04361 0.02992 0.18921 0.0
H1346 H 0.0514 0.0011 0.19735 0.0
H1347 H 0.05533 0.01229 0.26491 0.0
H1348 H 0.04929 0.04249 0.25812 0.0
H1349 H 0.08154 0.04816 0.2811 0.0
H1350 H 0.17024 0.126 0.21007 0.0
H1351 H 0.14893 0.15735 0.19611 0.0
H1352 H 0.06193 0.08209 0.20547 0.0
C1353 C 0.10731 0.01132 0.22799 0.0
C1354 C 0.13383 0.01109 0.22662 0.0
C1355 C 0.1606 0.03801 0.22539 0.0
C1356 C 0.16085 0.06457 0.22327 0.0
C1357 C 0.13418 0.06387 0.22282 0.0
C1358 C 0.10796 0.03793 0.2257 0.0
C1359 C 0.08225 0.04275 0.22283 0.0
C1360 C 0.06151 0.02484 0.19207 0.0
C1361 C 0.06613 0.03598 0.25888 0.0
C1362 C 0.09792 0.07505 0.215 0.0
C1363 C 0.1279 0.08716 0.21616 0.0
C1364 C 0.14677 0.11675 0.20935 0.0
C1365 C 0.13456 0.13434 0.20126 0.0
C1366 C 0.10388 0.12199 0.19913 0.0
C1367 C 0.0855 0.09204 0.20628 0.0
H1368 H 0.95589 0.09864 0.25575 0.0
H1369 H 0.03565 0.09423 0.258 0.0
H1370 H 0.00622 0.04049 0.25671 0.0
H1371 H 0.90936 0.03044 0.30894 0.0
H1372 H 0.87773 0.02048 0.28128 0.0
H1373 H 0.90434 0.05839 0.28836 0.0
H1374 H 0.91037 0.06605 0.21967 0.0
H1375 H 0.88411 0.02817 0.21235 0.0
H1376 H 0.92018 0.04373 0.19332 0.0
H1377 H 0.97063 0.98914 0.24732 0.0
H1378 H 0.92885 0.94109 0.23229 0.0
H1379 H 0.87105 0.97711 0.23572 0.0
C1380 C 0.96712 0.08632 0.25748 0.0
C1381 C 0.99805 0.10057 0.25763 0.0
C1382 C 0.01202 0.08376 0.25834 0.0
C1383 C 0.9956 0.05331 0.25765 0.0
C1384 C 0.96532 0.03994 0.25629 0.0
C1385 C 0.95105 0.05574 0.25648 0.0
C1386 C 0.91836 0.03582 0.25125 0.0
C1387 C 0.90145 0.03631 0.28444 0.0
C1388 C 0.90764 0.04393 0.21712 0.0
C1389 C 0.91675 0.00655 0.2472 0.0
C1390 C 0.94417 0.00958 0.25048 0.0
C1391 C 0.94894 0.98632 0.24533 0.0
C1392 C 0.92505 0.95913 0.23658 0.0
C1393 C 0.89667 0.95531 0.23307 0.0
C1394 C 0.89242 0.97931 0.23884 0.0
H1395 H 0.86432 0.83536 0.16286 0.0
H1396 H 0.85717 0.82357 0.2779 0.0
H1397 H 0.90722 0.83085 0.28017 0.0
H1398 H 0.91432 0.80515 0.14439 0.0
H1399 H 0.93465 0.83325 0.11182 0.0
H1400 H 0.89624 0.82008 0.11821 0.0
H1401 H 0.90774 0.87281 0.13003 0.0
H1402 H 0.94615 0.88624 0.12441 0.0
H1403 H 0.93298 0.89386 0.16522 0.0
H1404 H 0.96021 0.84625 0.27093 0.0
H1405 H 0.01168 0.86915 0.25153 0.0
H1406 H 0.98539 0.87448 0.14278 0.0
C1407 C 0.87272 0.83258 0.18817 0.0
C1408 C 0.85647 0.82751 0.22005 0.0
C1409 C 0.86889 0.82624 0.25311 0.0
C1410 C 0.89737 0.83056 0.2546 0.0
C1411 C 0.91333 0.83669 0.22284 0.0
C1412 C 0.90139 0.83763 0.19018 0.0
C1413 C 0.92437 0.84893 0.16088 0.0
C1414 C 0.91695 0.82544 0.13213 0.0
C1415 C 0.92802 0.87713 0.14419 0.0
C1416 C 0.95121 0.85478 0.18224 0.0
C1417 C 0.9443 0.84713 0.2178 0.0
C1418 C 0.96577 0.85194 0.24305 0.0
C1419 C 0.99501 0.86504 0.23177 0.0
C1420 C 0.0027 0.87362 0.1956 0.0
C1421 C 0.98031 0.86803 0.17057 0.0
H1422 H 0.99629 0.09811 0.80997 0.0
H1423 H 0.03876 0.19145 0.82851 0.0
H1424 H 0.08693 0.19458 0.82581 0.0
H1425 H 0.04152 0.08528 0.8646 0.0
H1426 H 0.04203 0.0579 0.83644 0.0
H1427 H 0.01119 0.06348 0.83513 0.0
H1428 H 0.0176 0.07226 0.76662 0.0
H1429 H 0.04836 0.06643 0.76761 0.0
H1430 H 0.05242 0.09967 0.7491 0.0
H1431 H 0.13002 0.18634 0.82919 0.0
H1432 H 0.1646 0.1679 0.83401 0.0
H1433 H 0.0939 0.08031 0.81154 0.0
C1434 C 0.01569 0.11938 0.81256 0.0
C1435 C 0.01364 0.14456 0.81934 0.0
C1436 C 0.03968 0.17186 0.82301 0.0
C1437 C 0.06717 0.17385 0.82162 0.0
C1438 C 0.06831 0.14841 0.81612 0.0
C1439 C 0.04324 0.12176 0.81113 0.0
C1440 C 0.05021 0.0974 0.80781 0.0
C1441 C 0.03536 0.07469 0.83778 0.0
C1442 C 0.04164 0.08311 0.77056 0.0
C1443 C 0.08307 0.11439 0.81256 0.0
C1444 C 0.09314 0.14379 0.81729 0.0
C1445 C 0.12245 0.16345 0.82484 0.0
C1446 C 0.1419 0.15277 0.82767 0.0
C1447 C 0.13201 0.12275 0.82276 0.0
C1448 C 0.10225 0.10347 0.81471 0.0
H1449 H 0.91207 0.01535 0.83414 0.0
H1450 H 0.82166 0.99438 0.82683 0.0
H1451 H 0.80715 0.9439 0.80922 0.0
H1452 H 0.911 0.97012 0.75988 0.0
H1453 H 0.93407 0.95924 0.78271 0.0
H1454 H 0.93764 0.99422 0.79211 0.0
H1455 H 0.92928 0.98152 0.85971 0.0
H1456 H 0.926 0.94669 0.85056 0.0
H1457 H 0.89706 0.9485 0.87368 0.0
H1458 H 0.80236 0.89524 0.79454 0.0
H1459 H 0.80672 0.85119 0.78991 0.0
H1460 H 0.90029 0.90385 0.80794 0.0
C1461 C 0.88923 1.00023 0.8285 0.0
C1462 C 0.86799 0.00886 0.83167 0.0
C1463 C 0.8383 0.98826 0.82461 0.0
C1464 C 0.8299 0.9596 0.81435 0.0
C1465 C 0.85142 0.95185 0.81138 0.0
C1466 C 0.88045 0.97152 0.81858 0.0
C1467 C 0.89902 0.9572 0.81593 0.0
C1468 C 0.92177 0.97102 0.78586 0.0
C1469 C 0.91369 0.95855 0.85212 0.0
C1470 C 0.87585 0.92627 0.80651 0.0
C1471 C 0.84861 0.92374 0.80353 0.0
C1472 C 0.82361 0.89702 0.79658 0.0
C1473 C 0.82635 0.87209 0.79384 0.0
C1474 C 0.85387 0.87392 0.79835 0.0
C1475 C 0.87899 0.90162 0.80378 0.0
H1476 H 0.09488 0.9921 0.7841 0.0
H1477 H 0.14823 0.95229 0.80248 0.0
H1478 H 0.10372 0.90392 0.80507 0.0
H1479 H 0.04238 0.95206 0.84466 0.0
H1480 H 0.01168 0.94835 0.81925 0.0
H1481 H 0.04749 0.97908 0.81169 0.0
H1482 H 0.04397 0.96611 0.7442 0.0
H1483 H 0.0078 0.93553 0.75139 0.0
H1484 H 0.03551 0.92999 0.73097 0.0
H1485 H 0.05356 0.86167 0.8179 0.0
H1486 H 1.00147 0.828 0.83236 0.0
H1487 H 0.98113 0.89504 0.80323 0.0
C1488 C 0.09734 0.97315 0.78729 0.0
C1489 C 0.12513 0.9761 0.79306 0.0
C1490 C 0.12726 0.95068 0.79772 0.0
C1491 C 0.10205 0.92305 0.79937 0.0
C1492 C 0.07492 0.92113 0.79564 0.0
C1493 C 0.07245 0.94544 0.78884 0.0
C1494 C 0.04081 0.93796 0.78894 0.0
C1495 C 0.03529 0.95539 0.81786 0.0
C1496 C 0.03147 0.94267 0.75165 0.0
C1497 C 0.02597 0.90591 0.79824 0.0
C1498 C 0.04595 0.89653 0.80195 0.0
C1499 C 0.03762 0.86853 0.81411 0.0
C1500 C 0.00808 0.84965 0.82251 0.0
C1501 C 0.98733 0.85884 0.81842 0.0
C1502 C 0.99644 0.88721 0.80576 0.0
H1503 H 0.82289 0.35221 0.51083 0.0
H1504 H 0.80742 0.33602 0.62459 0.0
H1505 H 0.80338 0.38035 0.63075 0.0
H1506 H 0.86078 0.4349 0.51324 0.0
H1507 H 0.84195 0.43551 0.47321 0.0
H1508 H 0.8511 0.40729 0.47933 0.0
H1509 H 0.7968 0.36818 0.46977 0.0
H1510 H 0.78735 0.39612 0.46423 0.0
H1511 H 0.76928 0.36844 0.49797 0.0
H1512 H 0.79379 0.42168 0.62312 0.0
H1513 H 0.77809 0.45589 0.60255 0.0
H1514 H 0.79611 0.44321 0.49256 0.0
C1515 C 0.82036 0.35905 0.53731 0.0
C1516 C 0.81673 0.34153 0.56758 0.0
C1517 C 0.81133 0.34983 0.60144 0.0
C1518 C 0.80886 0.37487 0.60507 0.0
C1519 C 0.81135 0.3911 0.57445 0.0
C1520 C 0.81706 0.38357 0.54116 0.0
C1521 C 0.81422 0.40181 0.51175 0.0
C1522 C 0.84378 0.42102 0.4933 0.0
C1523 C 0.7905 0.38248 0.48434 0.0
C1524 C 0.80509 0.42008 0.53353 0.0
C1525 C 0.80419 0.414 0.5697 0.0
C1526 C 0.79483 0.42692 0.59493 0.0
C1527 C 0.78587 0.44632 0.58293 0.0
C1528 C 0.78587 0.45236 0.54591 0.0
C1529 C 0.79606 0.4393 0.52105 0.0
H1530 H 0.66635 0.41977 0.57701 0.0
H1531 H 0.62358 0.47152 0.57843 0.0
H1532 H 0.5756 0.42663 0.57729 0.0
H1533 H 0.62069 0.36871 0.51645 0.0
H1534 H 0.6198 0.33758 0.53723 0.0
H1535 H 0.65091 0.37336 0.54377 0.0
H1536 H 0.64453 0.36738 0.61264 0.0
H1537 H 0.61359 0.3313 0.60634 0.0
H1538 H 0.60976 0.35783 0.63238 0.0
H1539 H 0.53298 0.37717 0.56443 0.0
H1540 H 0.49816 0.32549 0.54953 0.0
H1541 H 0.56778 0.30542 0.56073 0.0
C1542 C 0.64693 0.42169 0.57835 0.0
C1543 C 0.64887 0.44928 0.57776 0.0
C1544 C 0.62281 0.45072 0.57895 0.0
C1545 C 0.59536 0.4253 0.57824 0.0
C1546 C 0.59424 0.39853 0.57705 0.0
C1547 C 0.61929 0.39648 0.57802 0.0
C1548 C 0.61204 0.36508 0.5743 0.0
C1549 C 0.62673 0.36097 0.54095 0.0
C1550 C 0.62048 0.35479 0.60846 0.0
C1551 C 0.57917 0.35002 0.5698 0.0
C1552 C 0.56932 0.3697 0.57135 0.0
C1553 C 0.54026 0.36139 0.56419 0.0
C1554 C 0.52071 0.33214 0.55551 0.0
C1555 C 0.53029 0.3116 0.55463 0.0
C1556 C 0.5598 0.32064 0.56218 0.0
H1557 H 0.68061 0.23997 0.5687 0.0
H1558 H 0.66324 0.1509 0.57441 0.0
H1559 H 0.61102 0.13376 0.58588 0.0
H1560 H 0.62824 0.23373 0.63742 0.0
H1561 H 0.61827 0.25678 0.61296 0.0
H1562 H 0.65457 0.26211 0.60875 0.0
H1563 H 0.64818 0.2565 0.53974 0.0
H1564 H 0.61202 0.25136 0.54378 0.0
H1565 H 0.61735 0.2243 0.52127 0.0
H1566 H 0.5599 0.12616 0.59159 0.0
H1567 H 0.51449 0.1286 0.58827 0.0
H1568 H 0.56623 0.22287 0.57976 0.0
C1569 C 0.66598 0.21688 0.5729 0.0
C1570 C 0.67607 0.19679 0.5708 0.0
C1571 C 0.65605 0.16672 0.576 0.0
C1572 C 0.62637 0.1568 0.58268 0.0
C1573 C 0.61713 0.17723 0.58429 0.0
C1574 C 0.63641 0.20665 0.57954 0.0
C1575 C 0.62082 0.22401 0.57993 0.0
C1576 C 0.63109 0.24542 0.61166 0.0
C1577 C 0.62483 0.23996 0.54405 0.0
C1578 C 0.58961 0.1997 0.58493 0.0
C1579 C 0.58788 0.17289 0.58774 0.0
C1580 C 0.56104 0.14709 0.58994 0.0
C1581 C 0.53534 0.1487 0.58816 0.0
C1582 C 0.53668 0.17593 0.58404 0.0
C1583 C 0.56429 0.20172 0.58351 0.0
H1584 H 0.76345 0.41186 0.14727 0.0
H1585 H 0.83551 0.50096 0.14074 0.0
H1586 H 0.80033 0.51802 0.13012 0.0
H1587 H 0.71577 0.41782 0.08012 0.0
H1588 H 0.68318 0.39495 0.10552 0.0
H1589 H 0.71415 0.38953 0.10852 0.0
H1590 H 0.71504 0.39545 0.17759 0.0
H1591 H 0.68403 0.40067 0.1748 0.0
H1592 H 0.71713 0.42778 0.19639 0.0
H1593 H 0.7571 0.52554 0.12494 0.0
H1594 H 0.7096 0.52348 0.12994 0.0
H1595 H 0.66611 0.42929 0.14035 0.0
C1596 C 0.77194 0.43494 0.14299 0.0
C1597 C 0.80225 0.45509 0.14459 0.0
C1598 C 0.81238 0.48514 0.13955 0.0
C1599 C 0.79258 0.49499 0.13328 0.0
C1600 C 0.7628 0.4745 0.1321 0.0
C1601 C 0.75254 0.44511 0.13696 0.0
C1602 C 0.71949 0.42779 0.13762 0.0
C1603 C 0.70745 0.40626 0.10606 0.0
C1604 C 0.70828 0.41202 0.17374 0.0
C1605 C 0.71268 0.45212 0.13318 0.0
C1606 C 0.73791 0.47885 0.1295 0.0
C1607 C 0.73718 0.5047 0.12736 0.0
C1608 C 0.71005 0.50329 0.13018 0.0
C1609 C 0.68404 0.4762 0.13539 0.0
C1610 C 0.68545 0.45029 0.13582 0.0
H1611 H 0.5041 0.20345 0.19212 0.0
H1612 H 0.55041 0.21392 0.09263 0.0
H1613 H 0.55684 0.26321 0.08529 0.0
H1614 H 0.46995 0.24897 0.16932 0.0
H1615 H 0.47654 0.26429 0.21381 0.0
H1616 H 0.46975 0.22772 0.20715 0.0
H1617 H 0.51835 0.24154 0.23959 0.0
H1618 H 0.52544 0.27813 0.24603 0.0
H1619 H 0.55196 0.27195 0.22344 0.0
H1620 H 0.56294 0.31263 0.09202 0.0
H1621 H 0.57178 0.36014 0.11386 0.0
H1622 H 0.52515 0.31937 0.21209 0.0
C1623 C 0.51439 0.2157 0.16802 0.0
C1624 C 0.52591 0.20471 0.14222 0.0
C1625 C 0.54081 0.22182 0.11207 0.0
C1626 C 0.54453 0.24976 0.10775 0.0
C1627 C 0.53364 0.26038 0.13419 0.0
C1628 C 0.51899 0.24395 0.16387 0.0
C1629 C 0.5134 0.26197 0.19094 0.0
C1630 C 0.48045 0.25002 0.19556 0.0
C1631 C 0.52818 0.26348 0.22712 0.0
C1632 C 0.52792 0.29132 0.1723 0.0
C1633 C 0.53879 0.28967 0.13924 0.0
C1634 C 0.55425 0.31412 0.11767 0.0
C1635 C 0.55917 0.34107 0.1304 0.0
C1636 C 0.54917 0.34357 0.16475 0.0
C1637 C 0.53292 0.31818 0.18565 0.0
H1638 H 0.76548 0.3223 0.12003 0.0
H1639 H 0.82087 0.28777 0.15331 0.0
H1640 H 0.77732 0.2386 0.15776 0.0
H1641 H 0.71129 0.28442 0.18053 0.0
H1642 H 0.68125 0.27815 0.15179 0.0
H1643 H 0.71688 0.30924 0.14438 0.0
H1644 H 0.71642 0.29281 0.07885 0.0
H1645 H 0.68049 0.26181 0.08584 0.0
H1646 H 0.7097 0.25652 0.07005 0.0
H1647 H 0.72678 0.19487 0.16808 0.0
H1648 H 0.67441 0.1602 0.17941 0.0
H1649 H 0.65272 0.22393 0.13956 0.0
C1650 C 0.76873 0.30429 0.12698 0.0
C1651 C 0.79678 0.30902 0.13607 0.0
C1652 C 0.79975 0.28477 0.14577 0.0
C1653 C 0.77506 0.25673 0.14854 0.0
C1654 C 0.74758 0.2532 0.1412 0.0
C1655 C 0.74439 0.27631 0.13006 0.0
C1656 C 0.71246 0.26761 0.12712 0.0
C1657 C 0.70506 0.28594 0.15247 0.0
C1658 C 0.70429 0.26981 0.08814 0.0
C1659 C 0.69811 0.2362 0.13927 0.0
C1660 C 0.71865 0.22815 0.14708 0.0
C1661 C 0.71053 0.2008 0.16137 0.0
C1662 C 0.68073 0.18129 0.16787 0.0
C1663 C 0.65939 0.18922 0.16015 0.0
C1664 C 0.66837 0.21696 0.14526 0.0
H1665 H 0.39511 0.75361 0.83714 0.0
H1666 H 0.46577 0.82722 0.89292 0.0
H1667 H 0.4799 0.79404 0.92148 0.0
H1668 H 0.37504 0.70182 0.90876 0.0
H1669 H 0.3675 0.67174 0.87954 0.0
H1670 H 0.36279 0.70117 0.86346 0.0
H1671 H 0.39799 0.70986 0.81052 0.0
H1672 H 0.40227 0.68009 0.82606 0.0
H1673 H 0.43399 0.7156 0.81967 0.0
H1674 H 0.48632 0.7529 0.94376 0.0
H1675 H 0.48824 0.70781 0.95274 0.0
H1676 H 0.41275 0.6611 0.88312 0.0
C1677 C 0.41371 0.76286 0.85514 0.0
C1678 C 0.42935 0.79304 0.86277 0.0
C1679 C 0.45352 0.80419 0.88655 0.0
C1680 C 0.46155 0.78549 0.90314 0.0
C1681 C 0.44514 0.75574 0.89573 0.0
C1682 C 0.42195 0.74454 0.87197 0.0
C1683 C 0.40845 0.71188 0.86773 0.0
C1684 C 0.37655 0.69571 0.88065 0.0
C1685 C 0.41084 0.7039 0.82869 0.0
C1686 C 0.42791 0.70648 0.89254 0.0
C1687 C 0.44874 0.73201 0.90872 0.0
C1688 C 0.47002 0.73274 0.93142 0.0
C1689 C 0.47082 0.70696 0.93651 0.0
C1690 C 0.45054 0.68084 0.91883 0.0
C1691 C 0.42822 0.68051 0.89757 0.0
H1692 H 0.28593 0.7915 0.86019 0.0
H1693 H 0.34717 0.7808 0.92671 0.0
H1694 H 0.3102 0.72893 0.93602 0.0
H1695 H 0.21746 0.73888 0.90645 0.0
H1696 H 0.1976 0.72546 0.86495 0.0
H1697 H 0.22699 0.7627 0.8682 0.0
H1698 H 0.25232 0.75458 0.81363 0.0
H1699 H 0.22313 0.71735 0.81031 0.0
H1700 H 0.26038 0.72534 0.81472 0.0
H1701 H 0.26827 0.67821 0.93526 0.0
H1702 H 0.22573 0.63052 0.92062 0.0
H1703 H 0.19255 0.67269 0.85031 0.0
C1704 C 0.29108 0.77837 0.87765 0.0
C1705 C 0.31899 0.79014 0.89361 0.0
C1706 C 0.32565 0.77217 0.91489 0.0
C1707 C 0.30481 0.74277 0.92033 0.0
C1708 C 0.27761 0.73163 0.90377 0.0
C1709 C 0.27075 0.74875 0.88258 0.0
C1710 C 0.24131 0.73055 0.86442 0.0
C1711 C 0.21955 0.73996 0.87676 0.0
C1712 C 0.24449 0.73205 0.82334 0.0
C1713 C 0.23285 0.70049 0.87844 0.0
C1714 C 0.25391 0.70179 0.9016 0.0
C1715 C 0.25153 0.67691 0.91734 0.0
C1716 C 0.2272 0.64988 0.90883 0.0
C1717 C 0.20571 0.64778 0.8843 0.0
C1718 C 0.2085 0.67355 0.86926 0.0
H1719 H 0.23572 0.55746 0.89978 0.0
H1720 H 0.18378 0.46414 0.88137 0.0
H1721 H 0.22903 0.46178 0.87531 0.0
H1722 H 0.28928 0.57156 0.83633 0.0
H1723 H 0.31938 0.59888 0.86227 0.0
H1724 H 0.28309 0.59283 0.86918 0.0
H1725 H 0.28637 0.58347 0.93674 0.0
H1726 H 0.32287 0.58987 0.93009 0.0
H1727 H 0.29543 0.55627 0.95013 0.0
H1728 H 0.28039 0.47068 0.86451 0.0
H1729 H 0.33333 0.48953 0.85566 0.0
H1730 H 0.35102 0.57666 0.88193 0.0
C1731 C 0.23374 0.53635 0.89543 0.0
C1732 C 0.20602 0.51096 0.89123 0.0
C1733 C 0.20464 0.48389 0.88502 0.0
C1734 C 0.23028 0.48234 0.88134 0.0
C1735 C 0.2572 0.50798 0.88424 0.0
C1736 C 0.25906 0.5344 0.89173 0.0
C1737 C 0.29056 0.55899 0.89207 0.0
C1738 C 0.29587 0.5819 0.86324 0.0
C1739 C 0.29932 0.57296 0.92949 0.0
C1740 C 0.3061 0.54239 0.88295 0.0
C1741 C 0.28656 0.51299 0.87848 0.0
C1742 C 0.2959 0.49361 0.8684 0.0
C1743 C 0.32599 0.50453 0.8632 0.0
C1744 C 0.34638 0.53452 0.86823 0.0
C1745 C 0.33609 0.55355 0.87818 0.0
H1746 H 0.38264 0.81364 0.45881 0.0
H1747 H 0.30317 0.73136 0.4787 0.0
H1748 H 0.33237 0.7083 0.49217 0.0
H1749 H 0.42501 0.78055 0.41903 0.0
H1750 H 0.45861 0.80757 0.43977 0.0
H1751 H 0.43148 0.8169 0.4267 0.0
H1752 H 0.43093 0.83402 0.49154 0.0
H1753 H 0.4576 0.82427 0.50503 0.0
H1754 H 0.42316 0.80905 0.52823 0.0
H1755 H 0.36892 0.69643 0.51392 0.0
H1756 H 0.41173 0.69366 0.53372 0.0
H1757 H 0.46902 0.78193 0.49607 0.0
C1758 C 0.37141 0.79054 0.46469 0.0
C1759 C 0.34057 0.77429 0.4676 0.0
C1760 C 0.32672 0.74424 0.47621 0.0
C1761 C 0.34312 0.73092 0.48401 0.0
C1762 C 0.37343 0.74781 0.48263 0.0
C1763 C 0.38756 0.77675 0.47241 0.0
C1764 C 0.42052 0.79011 0.4751 0.0
C1765 C 0.43475 0.79932 0.43793 0.0
C1766 C 0.43382 0.81588 0.50155 0.0
C1767 C 0.42251 0.76439 0.48958 0.0
C1768 C 0.39497 0.74034 0.49381 0.0
C1769 C 0.39065 0.71479 0.50975 0.0
C1770 C 0.41516 0.71348 0.52104 0.0
C1771 C 0.44374 0.73731 0.51574 0.0
C1772 C 0.44745 0.76317 0.49982 0.0
H1773 H 0.24288 0.58895 0.47405 0.0
H1774 H 0.1495 0.53321 0.45733 0.0
H1775 H 0.1425 0.57531 0.4659 0.0
H1776 H 0.23909 0.63085 0.5425 0.0
H1777 H 0.26964 0.66513 0.52835 0.0
H1778 H 0.26822 0.63151 0.51672 0.0
H1779 H 0.27327 0.64519 0.44944 0.0
H1780 H 0.27518 0.67909 0.46093 0.0
H1781 H 0.24812 0.65468 0.42936 0.0
H1782 H 0.14449 0.62172 0.48481 0.0
H1783 H 0.15673 0.67141 0.50357 0.0
H1784 H 0.2487 0.69741 0.50559 0.0
C1785 C 0.22112 0.58579 0.47091 0.0
C1786 C 0.19678 0.55769 0.46498 0.0
C1787 C 0.16855 0.55447 0.46181 0.0
C1788 C 0.16427 0.57826 0.46679 0.0
C1789 C 0.18847 0.60532 0.47442 0.0
C1790 C 0.21645 0.60941 0.4756 0.0
C1791 C 0.23855 0.64063 0.48544 0.0
C1792 C 0.25481 0.64209 0.52033 0.0
C1793 C 0.26004 0.65579 0.45444 0.0
C1794 C 0.21849 0.65306 0.49066 0.0
C1795 C 0.18968 0.63234 0.48429 0.0
C1796 C 0.16704 0.63832 0.48929 0.0
C1797 C 0.17413 0.66647 0.50029 0.0
C1798 C 0.2036 0.68827 0.50588 0.0
C1799 C 0.22595 0.68127 0.50118 0.0
H1800 H 0.44089 0.65963 0.4797 0.0
H1801 H 0.48646 0.61227 0.50147 0.0
H1802 H 0.4393 0.56589 0.50021 0.0
H1803 H 0.38204 0.61986 0.5345 0.0
H1804 H 0.35468 0.61987 0.50557 0.0
H1805 H 0.39192 0.64898 0.50276 0.0
H1806 H 0.39395 0.63975 0.43546 0.0
H1807 H 0.35631 0.61097 0.43712 0.0
H1808 H 0.38388 0.60366 0.42008 0.0
H1809 H 0.38614 0.52516 0.50385 0.0
H1810 H 0.33236 0.49371 0.50763 0.0
H1811 H 0.32248 0.56822 0.48245 0.0
C1812 C 0.44113 0.63949 0.48331 0.0
C1813 C 0.46749 0.63967 0.49057 0.0
C1814 C 0.46666 0.61275 0.49551 0.0
C1815 C 0.43993 0.58627 0.49499 0.0
C1816 C 0.41426 0.58702 0.489 0.0
C1817 C 0.41476 0.61294 0.48263 0.0
C1818 C 0.38415 0.60814 0.47857 0.0
C1819 C 0.37783 0.6252 0.5071 0.0
C1820 C 0.37929 0.61609 0.44054 0.0
C1821 C 0.36627 0.57563 0.4849 0.0
C1822 C 0.38393 0.56371 0.49065 0.0
C1823 C 0.37214 0.53423 0.49885 0.0
C1824 C 0.34157 0.51655 0.5011 0.0
C1825 C 0.32313 0.52841 0.49521 0.0
C1826 C 0.33585 0.55834 0.48679 0.0
loop_
_geom_bond_atom_site_label_1
_geom_bond_atom_site_label_2
_geom_bond_distance
_geom_bond_site_symmetry_2
_ccdc_geom_bond_type
Co0 O3 1.970 . S
Co0 N17 1.989 . S
Co0 O25 1.967 . S
Co0 O32 1.920 . S
Co1 O4 1.966 . S
Co1 N10 2.022 . S
Co1 N18 1.993 . S
Co1 O26 1.941 . S
C2 O3 1.258 . S
C2 O4 1.263 . S
O3 Co0 1.970 . S
O3 C2 1.258 . S
O4 Co1 1.966 . S
O4 C2 1.263 . S
C5 O6 1.235 . S
C5 O32 1.289 . S
O6 C5 1.235 . S
C7 C9 1.400 . S
C7 N10 1.351 . S
C7 C12 1.501 . S
C8 C9 1.387 1_655 S
C8 N11 1.341 . S
C9 C7 1.400 . S
C9 C8 1.387 1_455 S
N10 Co1 2.022 . S
N10 C7 1.351 . S
N10 N11 1.365 1_455 S
N11 C8 1.341 . S
N11 N10 1.365 1_655 S
N11 H31 0.862 . S
C12 C7 1.501 . S
C12 H13 0.961 . S
C12 H14 0.961 . S
C12 H15 0.960 . S
H13 C12 0.961 . S
H14 C12 0.961 . S
H15 C12 0.960 . S
C16 N17 1.342 . S
C16 C20 1.401 . S
C16 C21 1.499 . S
N17 Co0 1.989 . S
N17 C16 1.342 . S
N17 N18 1.388 . S
N18 Co1 1.993 . S
N18 N17 1.388 . S
N18 C19 1.346 . S
C19 N18 1.346 . S
C19 C20 1.396 . S
C19 C29 1.510 . S
C20 C16 1.401 . S
C20 C19 1.396 . S
C21 C16 1.499 . S
C21 H22 0.959 . S
C21 H23 0.960 . S
C21 H24 0.961 . S
H22 C21 0.959 . S
H23 C21 0.960 . S
H24 C21 0.961 . S
O25 Co0 1.967 . S
O25 C33 1.258 . S
O26 Co1 1.941 . S
O26 C33 1.266 . S
H27 C29 0.959 . S
H28 C29 0.961 . S
C29 C19 1.510 . S
C29 H27 0.959 . S
C29 H28 0.961 . S
C29 H30 0.960 . S
H30 C29 0.960 . S
H31 N11 0.862 . S
O32 Co0 1.920 . S
O32 C5 1.289 . S
C33 O25 1.258 . S
C33 O26 1.266 . S
Co34 O37 1.970 . S
Co34 N51 1.989 . S
Co34 O59 1.967 . S
Co34 O66 1.920 . S
Co35 O38 1.966 . S
Co35 N44 2.022 . S
Co35 N52 1.993 . S
Co35 O60 1.941 . S
C36 O37 1.258 . S
C36 O38 1.263 . S
O37 Co34 1.970 . S
O37 C36 1.258 . S
O38 Co35 1.966 . S
O38 C36 1.263 . S
C39 O40 1.235 . S
C39 O66 1.289 . S
O40 C39 1.235 . S
C41 C43 1.400 . S
C41 N44 1.351 . S
C41 C46 1.501 . S
C42 C43 1.387 . S
C42 N45 1.341 . S
C43 C41 1.400 . S
C43 C42 1.387 . S
N44 Co35 2.022 . S
N44 C41 1.351 . S
N44 N45 1.365 . S
N45 C42 1.341 . S
N45 N44 1.365 . S
N45 H65 0.862 . S
C46 C41 1.501 . S
C46 H47 0.961 . S
C46 H48 0.961 . S
C46 H49 0.960 . S
H47 C46 0.961 . S
H48 C46 0.961 . S
H49 C46 0.960 . S
C50 N51 1.342 . S
C50 C54 1.401 . S
C50 C55 1.499 . S
N51 Co34 1.989 . S
N51 C50 1.342 . S
N51 N52 1.388 . S
N52 Co35 1.993 . S
N52 N51 1.388 . S
N52 C53 1.346 . S
C53 N52 1.346 . S
C53 C54 1.396 . S
C53 C63 1.510 . S
C54 C50 1.401 . S
C54 C53 1.396 . S
C55 C50 1.499 . S
C55 H56 0.959 . S
C55 H57 0.960 . S
C55 H58 0.961 . S
H56 C55 0.959 . S
H57 C55 0.960 . S
H58 C55 0.961 . S
O59 Co34 1.967 . S
O59 C67 1.258 . S
O60 Co35 1.941 . S
O60 C67 1.266 . S
H61 C63 0.959 . S
H62 C63 0.961 . S
C63 C53 1.510 . S
C63 H61 0.959 . S
C63 H62 0.961 . S
C63 H64 0.960 . S
H64 C63 0.960 . S
H65 N45 0.862 . S
O66 Co34 1.920 . S
O66 C39 1.289 . S
C67 O59 1.258 . S
C67 O60 1.266 . S
Co68 O71 1.970 . S
Co68 N85 1.989 . S
Co68 O93 1.967 . S
Co68 O100 1.920 . S
Co69 O72 1.966 . S
Co69 N78 2.022 . S
Co69 N86 1.993 . S
Co69 O94 1.941 . S
C70 O71 1.258 . S
C70 O72 1.263 . S
O71 Co68 1.970 . S
O71 C70 1.258 . S
O72 Co69 1.966 . S
O72 C70 1.263 . S
C73 O74 1.235 . S
C73 O100 1.289 . S
O74 C73 1.235 . S
C75 C77 1.400 . S
C75 N78 1.351 . S
C75 C80 1.501 . S
C76 C77 1.379 1_545 S
C76 N79 1.348 1_545 S
C77 C75 1.400 . S
C77 C76 1.379 1_565 S
N78 Co69 2.022 . S
N78 C75 1.351 . S
N78 N79 1.365 . S
N79 C76 1.348 1_565 S
N79 N78 1.365 . S
N79 H99 0.852 1_565 S
C80 C75 1.501 . S
C80 H81 0.961 . S
C80 H82 0.961 . S
C80 H83 0.960 . S
H81 C80 0.961 . S
H82 C80 0.961 . S
H83 C80 0.960 . S
C84 N85 1.342 . S
C84 C88 1.401 . S
C84 C89 1.499 . S
N85 Co68 1.989 . S
N85 C84 1.342 . S
N85 N86 1.388 . S
N86 Co69 1.993 . S
N86 N85 1.388 . S
N86 C87 1.346 . S
C87 N86 1.346 . S
C87 C88 1.396 . S
C87 C97 1.510 . S
C88 C84 1.401 . S
C88 C87 1.396 . S
C89 C84 1.499 . S
C89 H90 0.959 . S
C89 H91 0.960 . S
C89 H92 0.961 . S
H90 C89 0.959 . S
H91 C89 0.960 . S
H92 C89 0.961 . S
O93 Co68 1.967 . S
O93 C101 1.258 . S
O94 Co69 1.941 . S
O94 C101 1.266 . S
H95 C97 0.959 . S
H96 C97 0.961 . S
C97 C87 1.510 . S
C97 H95 0.959 . S
C97 H96 0.961 . S
C97 H98 0.960 . S
H98 C97 0.960 . S
H99 N79 0.852 1_545 S
O100 Co68 1.920 . S
O100 C73 1.289 . S
C101 O93 1.258 . S
C101 O94 1.266 . S
Co102 O105 1.970 . S
Co102 N119 1.989 . S
Co102 O127 1.967 . S
Co102 O134 1.920 . S
Co103 O106 1.966 . S
Co103 N112 2.022 . S
Co103 N120 1.993 . S
Co103 O128 1.941 . S
C104 O105 1.258 . S
C104 O106 1.263 . S
O105 Co102 1.970 . S
O105 C104 1.258 . S
O106 Co103 1.966 . S
O106 C104 1.263 . S
C107 O108 1.235 . S
C107 O134 1.289 . S
O108 C107 1.235 . S
C109 C111 1.400 . S
C109 N112 1.351 . S
C109 C114 1.501 . S
C110 C111 1.387 1_565 S
C110 N113 1.341 . S
C111 C109 1.400 . S
C111 C110 1.387 1_545 S
N112 Co103 2.022 . S
N112 C109 1.351 . S
N112 N113 1.365 1_545 S
N113 C110 1.341 . S
N113 N112 1.365 1_565 S
N113 H133 0.862 . S
C114 C109 1.501 . S
C114 H115 0.961 . S
C114 H116 0.961 . S
C114 H117 0.960 . S
H115 C114 0.961 . S
H116 C114 0.961 . S
H117 C114 0.960 . S
C118 N119 1.342 . S
C118 C122 1.401 . S
C118 C123 1.499 . S
N119 Co102 1.989 . S
N119 C118 1.342 . S
N119 N120 1.388 . S
N120 Co103 1.993 . S
N120 N119 1.388 . S
N120 C121 1.346 . S
C121 N120 1.346 . S
C121 C122 1.396 . S
C121 C131 1.510 . S
C122 C118 1.401 . S
C122 C121 1.396 . S
C123 C118 1.499 . S
C123 H124 0.959 . S
C123 H125 0.960 . S
C123 H126 0.961 . S
H124 C123 0.959 . S
H125 C123 0.960 . S
H126 C123 0.961 . S
O127 Co102 1.967 . S
O127 C135 1.258 . S
O128 Co103 1.941 . S
O128 C135 1.266 . S
H129 C131 0.959 . S
H130 C131 0.961 . S
C131 C121 1.510 . S
C131 H129 0.959 . S
C131 H130 0.961 . S
C131 H132 0.960 . S
H132 C131 0.960 . S
H133 N113 0.862 . S
O134 Co102 1.920 . S
O134 C107 1.289 . S
C135 O127 1.258 . S
C135 O128 1.266 . S
Co136 O139 1.970 . S
Co136 N153 1.989 . S
Co136 O161 1.967 . S
Co136 O168 1.920 . S
Co137 O140 1.966 . S
Co137 N146 2.022 . S
Co137 N154 1.993 . S
Co137 O162 1.941 . S
C138 O139 1.258 . S
C138 O140 1.263 . S
O139 Co136 1.970 . S
O139 C138 1.258 . S
O140 Co137 1.966 . S
O140 C138 1.263 . S
C141 O142 1.235 . S
C141 O168 1.289 . S
O142 C141 1.235 . S
C143 C145 1.400 . S
C143 N146 1.351 . S
C143 C148 1.501 . S
C144 C145 1.379 1_455 S
C144 N147 1.348 1_455 S
C145 C143 1.400 . S
C145 C144 1.379 1_655 S
N146 Co137 2.022 . S
N146 C143 1.351 . S
N146 N147 1.365 . S
N147 C144 1.348 1_655 S
N147 N146 1.365 . S
N147 H167 0.852 1_655 S
C148 C143 1.501 . S
C148 H149 0.961 . S
C148 H150 0.961 . S
C148 H151 0.960 . S
H149 C148 0.961 . S
H150 C148 0.961 . S
H151 C148 0.960 . S
C152 N153 1.342 . S
C152 C156 1.401 . S
C152 C157 1.499 . S
N153 Co136 1.989 . S
N153 C152 1.342 . S
N153 N154 1.388 . S
N154 Co137 1.993 . S
N154 N153 1.388 . S
N154 C155 1.346 . S
C155 N154 1.346 . S
C155 C156 1.396 . S
C155 C165 1.510 . S
C156 C152 1.401 . S
C156 C155 1.396 . S
C157 C152 1.499 . S
C157 H158 0.959 . S
C157 H159 0.960 . S
C157 H160 0.961 . S
H158 C157 0.959 . S
H159 C157 0.960 . S
H160 C157 0.961 . S
O161 Co136 1.967 . S
O161 C169 1.258 . S
O162 Co137 1.941 . S
O162 C169 1.266 . S
H163 C165 0.959 . S
H164 C165 0.961 . S
C165 C155 1.510 . S
C165 H163 0.959 . S
C165 H164 0.961 . S
C165 H166 0.960 . S
H166 C165 0.960 . S
H167 N147 0.852 1_455 S
O168 Co136 1.920 . S
O168 C141 1.289 . S
C169 O161 1.258 . S
C169 O162 1.266 . S
Co170 O173 1.970 . S
Co170 N187 1.989 . S
Co170 O195 1.967 . S
Co170 O202 1.920 . S
Co171 O174 1.966 . S
Co171 N180 2.022 . S
Co171 N188 1.993 . S
Co171 O196 1.941 . S
C172 O173 1.258 . S
C172 O174 1.263 . S
O173 Co170 1.970 . S
O173 C172 1.258 . S
O174 Co171 1.966 . S
O174 C172 1.263 . S
C175 O176 1.235 . S
C175 O202 1.289 . S
O176 C175 1.235 . S
C177 C179 1.400 . S
C177 N180 1.351 . S
C177 C182 1.501 . S
C178 C179 1.387 . S
C178 N181 1.341 . S
C179 C177 1.400 . S
C179 C178 1.387 . S
N180 Co171 2.022 . S
N180 C177 1.351 . S
N180 N181 1.365 . S
N181 C178 1.341 . S
N181 N180 1.365 . S
N181 H201 0.862 . S
C182 C177 1.501 . S
C182 H183 0.961 . S
C182 H184 0.961 . S
C182 H185 0.960 . S
H183 C182 0.961 . S
H184 C182 0.961 . S
H185 C182 0.960 . S
C186 N187 1.342 . S
C186 C190 1.401 . S
C186 C191 1.499 . S
N187 Co170 1.989 . S
N187 C186 1.342 . S
N187 N188 1.388 . S
N188 Co171 1.993 . S
N188 N187 1.388 . S
N188 C189 1.346 . S
C189 N188 1.346 . S
C189 C190 1.396 . S
C189 C199 1.510 . S
C190 C186 1.401 . S
C190 C189 1.396 . S
C191 C186 1.499 . S
C191 H192 0.959 . S
C191 H193 0.960 . S
C191 H194 0.961 . S
H192 C191 0.959 . S
H193 C191 0.960 . S
H194 C191 0.961 . S
O195 Co170 1.967 . S
O195 C203 1.258 . S
O196 Co171 1.941 . S
O196 C203 1.266 . S
H197 C199 0.959 . S
H198 C199 0.961 . S
C199 C189 1.510 . S
C199 H197 0.959 . S
C199 H198 0.961 . S
C199 H200 0.960 . S
H200 C199 0.960 . S
H201 N181 0.862 . S
O202 Co170 1.920 . S
O202 C175 1.289 . S
C203 O195 1.258 . S
C203 O196 1.266 . S
Co204 O207 1.970 . S
Co204 N221 1.989 . S
Co204 O229 1.967 . S
Co204 O236 1.920 . S
Co205 O208 1.966 . S
Co205 N214 2.022 . S
Co205 N222 1.993 . S
Co205 O230 1.941 . S
C206 O207 1.258 . S
C206 O208 1.263 . S
O207 Co204 1.970 . S
O207 C206 1.258 . S
O208 Co205 1.966 . S
O208 C206 1.263 . S
C209 O210 1.235 . S
C209 O236 1.289 . S
O210 C209 1.235 . S
C211 C213 1.400 . S
C211 N214 1.351 . S
C211 C216 1.501 . S
C212 C213 1.387 . S
C212 N215 1.341 . S
C213 C211 1.400 . S
C213 C212 1.387 . S
N214 Co205 2.022 . S
N214 C211 1.351 . S
N214 N215 1.365 . S
N215 C212 1.341 . S
N215 N214 1.365 . S
N215 H235 0.862 . S
C216 C211 1.501 . S
C216 H217 0.961 . S
C216 H218 0.961 . S
C216 H219 0.960 . S
H217 C216 0.961 . S
H218 C216 0.961 . S
H219 C216 0.960 . S
C220 N221 1.342 . S
C220 C224 1.401 . S
C220 C225 1.499 . S
N221 Co204 1.989 . S
N221 C220 1.342 . S
N221 N222 1.388 . S
N222 Co205 1.993 . S
N222 N221 1.388 . S
N222 C223 1.346 . S
C223 N222 1.346 . S
C223 C224 1.396 . S
C223 C233 1.510 . S
C224 C220 1.401 . S
C224 C223 1.396 . S
C225 C220 1.499 . S
C225 H226 0.959 . S
C225 H227 0.960 . S
C225 H228 0.961 . S
H226 C225 0.959 . S
H227 C225 0.960 . S
H228 C225 0.961 . S
O229 Co204 1.967 . S
O229 C237 1.258 . S
O230 Co205 1.941 . S
O230 C237 1.266 . S
H231 C233 0.959 . S
H232 C233 0.961 . S
C233 C223 1.510 . S
C233 H231 0.959 . S
C233 H232 0.961 . S
C233 H234 0.960 . S
H234 C233 0.960 . S
H235 N215 0.862 . S
O236 Co204 1.920 . S
O236 C209 1.289 . S
C237 O229 1.258 . S
C237 O230 1.266 . S
Co238 O241 1.970 . S
Co238 N255 1.989 . S
Co238 O263 1.967 . S
Co238 O270 1.920 . S
Co239 O242 1.966 . S
Co239 N248 2.022 . S
Co239 N256 1.993 . S
Co239 O264 1.941 . S
C240 O241 1.258 . S
C240 O242 1.263 . S
O241 Co238 1.970 . S
O241 C240 1.258 . S
O242 Co239 1.966 . S
O242 C240 1.263 . S
C243 O244 1.235 . S
C243 O270 1.289 . S
O244 C243 1.235 . S
C245 C247 1.400 . S
C245 N248 1.351 . S
C245 C250 1.501 . S
C246 C247 1.387 . S
C246 N249 1.341 . S
C247 C245 1.400 . S
C247 C246 1.387 . S
N248 Co239 2.022 . S
N248 C245 1.351 . S
N248 N249 1.365 . S
N249 C246 1.341 . S
N249 N248 1.365 . S
N249 H269 0.862 . S
C250 C245 1.501 . S
C250 H251 0.961 . S
C250 H252 0.961 . S
C250 H253 0.960 . S
H251 C250 0.961 . S
H252 C250 0.961 . S
H253 C250 0.960 . S
C254 N255 1.342 . S
C254 C258 1.401 . S
C254 C259 1.499 . S
N255 Co238 1.989 . S
N255 C254 1.342 . S
N255 N256 1.388 . S
N256 Co239 1.993 . S
N256 N255 1.388 . S
N256 C257 1.346 . S
C257 N256 1.346 . S
C257 C258 1.396 . S
C257 C267 1.510 . S
C258 C254 1.401 . S
C258 C257 1.396 . S
C259 C254 1.499 . S
C259 H260 0.959 . S
C259 H261 0.960 . S
C259 H262 0.961 . S
H260 C259 0.959 . S
H261 C259 0.960 . S
H262 C259 0.961 . S
O263 Co238 1.967 . S
O263 C271 1.258 . S
O264 Co239 1.941 . S
O264 C271 1.266 . S
H265 C267 0.959 . S
H266 C267 0.961 . S
C267 C257 1.510 . S
C267 H265 0.959 . S
C267 H266 0.961 . S
C267 H268 0.960 . S
H268 C267 0.960 . S
H269 N249 0.862 . S
O270 Co238 1.920 . S
O270 C243 1.289 . S
C271 O263 1.258 . S
C271 O264 1.266 . S
Co272 O275 1.970 . S
Co272 N289 1.989 . S
Co272 O297 1.967 . S
Co272 O304 1.920 . S
Co273 O276 1.966 . S
Co273 N282 2.022 . S
Co273 N290 1.993 . S
Co273 O298 1.941 . S
C274 O275 1.258 . S
C274 O276 1.263 . S
O275 Co272 1.970 . S
O275 C274 1.258 . S
O276 Co273 1.966 . S
O276 C274 1.263 . S
C277 O278 1.235 . S
C277 O304 1.289 . S
O278 C277 1.235 . S
C279 C281 1.400 . S
C279 N282 1.351 . S
C279 C284 1.501 . S
C280 C281 1.387 . S
C280 N283 1.341 . S
C281 C279 1.400 . S
C281 C280 1.387 . S
N282 Co273 2.022 . S
N282 C279 1.351 . S
N282 N283 1.365 . S
N283 C280 1.341 . S
N283 N282 1.365 . S
N283 H303 0.862 . S
C284 C279 1.501 . S
C284 H285 0.961 . S
C284 H286 0.961 . S
C284 H287 0.960 . S
H285 C284 0.961 . S
H286 C284 0.961 . S
H287 C284 0.960 . S
C288 N289 1.342 . S
C288 C292 1.401 . S
C288 C293 1.499 . S
N289 Co272 1.989 . S
N289 C288 1.342 . S
N289 N290 1.388 . S
N290 Co273 1.993 . S
N290 N289 1.388 . S
N290 C291 1.346 . S
C291 N290 1.346 . S
C291 C292 1.396 . S
C291 C301 1.510 . S
C292 C288 1.401 . S
C292 C291 1.396 . S
C293 C288 1.499 . S
C293 H294 0.959 . S
C293 H295 0.960 . S
C293 H296 0.961 . S
H294 C293 0.959 . S
H295 C293 0.960 . S
H296 C293 0.961 . S
O297 Co272 1.967 . S
O297 C305 1.258 . S
O298 Co273 1.941 . S
O298 C305 1.266 . S
H299 C301 0.959 . S
H300 C301 0.961 . S
C301 C291 1.510 . S
C301 H299 0.959 . S
C301 H300 0.961 . S
C301 H302 0.960 . S
H302 C301 0.960 . S
H303 N283 0.862 . S
O304 Co272 1.920 . S
O304 C277 1.289 . S
C305 O297 1.258 . S
C305 O298 1.266 . S
Co306 O309 1.970 . S
Co306 N323 1.989 . S
Co306 O331 1.967 . S
Co306 O338 1.920 . S
Co307 O310 1.966 . S
Co307 N316 2.022 . S
Co307 N324 1.993 . S
Co307 O332 1.941 . S
C308 O309 1.258 . S
C308 O310 1.263 . S
O309 Co306 1.970 . S
O309 C308 1.258 . S
O310 Co307 1.966 . S
O310 C308 1.263 . S
C311 O312 1.235 . S
C311 O338 1.289 . S
O312 C311 1.235 . S
C313 C315 1.400 . S
C313 N316 1.351 . S
C313 C318 1.501 . S
C314 C315 1.387 . S
C314 N317 1.341 . S
C315 C313 1.400 . S
C315 C314 1.387 . S
N316 Co307 2.022 . S
N316 C313 1.351 . S
N316 N317 1.365 . S
N317 C314 1.341 . S
N317 N316 1.365 . S
N317 H337 0.862 . S
C318 C313 1.501 . S
C318 H319 0.961 . S
C318 H320 0.961 . S
C318 H321 0.960 . S
H319 C318 0.961 . S
H320 C318 0.961 . S
H321 C318 0.960 . S
C322 N323 1.342 . S
C322 C326 1.401 . S
C322 C327 1.499 . S
N323 Co306 1.989 . S
N323 C322 1.342 . S
N323 N324 1.388 . S
N324 Co307 1.993 . S
N324 N323 1.388 . S
N324 C325 1.346 . S
C325 N324 1.346 . S
C325 C326 1.396 . S
C325 C335 1.510 . S
C326 C322 1.401 . S
C326 C325 1.396 . S
C327 C322 1.499 . S
C327 H328 0.959 . S
C327 H329 0.960 . S
C327 H330 0.961 . S
H328 C327 0.959 . S
H329 C327 0.960 . S
H330 C327 0.961 . S
O331 Co306 1.967 . S
O331 C339 1.258 . S
O332 Co307 1.941 . S
O332 C339 1.266 . S
H333 C335 0.959 . S
H334 C335 0.961 . S
C335 C325 1.510 . S
C335 H333 0.959 . S
C335 H334 0.961 . S
C335 H336 0.960 . S
H336 C335 0.960 . S
H337 N317 0.862 . S
O338 Co306 1.920 . S
O338 C311 1.289 . S
C339 O331 1.258 . S
C339 O332 1.266 . S
Co340 O343 1.970 . S
Co340 N357 1.989 . S
Co340 O365 1.967 . S
Co340 O372 1.920 . S
Co341 O344 1.966 . S
Co341 N350 2.022 . S
Co341 N358 1.993 . S
Co341 O366 1.941 . S
C342 O343 1.258 . S
C342 O344 1.263 . S
O343 Co340 1.970 . S
O343 C342 1.258 . S
O344 Co341 1.966 . S
O344 C342 1.263 . S
C345 O346 1.235 . S
C345 O372 1.289 . S
O346 C345 1.235 . S
C347 C349 1.400 . S
C347 N350 1.351 . S
C347 C352 1.501 . S
C348 C349 1.387 . S
C348 N351 1.341 . S
C349 C347 1.400 . S
C349 C348 1.387 . S
N350 Co341 2.022 . S
N350 C347 1.351 . S
N350 N351 1.365 . S
N351 C348 1.341 . S
N351 N350 1.365 . S
N351 H371 0.862 . S
C352 C347 1.501 . S
C352 H353 0.961 . S
C352 H354 0.961 . S
C352 H355 0.960 . S
H353 C352 0.961 . S
H354 C352 0.961 . S
H355 C352 0.960 . S
C356 N357 1.342 . S
C356 C360 1.401 . S
C356 C361 1.499 . S
N357 Co340 1.989 . S
N357 C356 1.342 . S
N357 N358 1.388 . S
N358 Co341 1.993 . S
N358 N357 1.388 . S
N358 C359 1.346 . S
C359 N358 1.346 . S
C359 C360 1.396 . S
C359 C369 1.510 . S
C360 C356 1.401 . S
C360 C359 1.396 . S
C361 C356 1.499 . S
C361 H362 0.959 . S
C361 H363 0.960 . S
C361 H364 0.961 . S
H362 C361 0.959 . S
H363 C361 0.960 . S
H364 C361 0.961 . S
O365 Co340 1.967 . S
O365 C373 1.258 . S
O366 Co341 1.941 . S
O366 C373 1.266 . S
H367 C369 0.959 . S
H368 C369 0.961 . S
C369 C359 1.510 . S
C369 H367 0.959 . S
C369 H368 0.961 . S
C369 H370 0.960 . S
H370 C369 0.960 . S
H371 N351 0.862 . S
O372 Co340 1.920 . S
O372 C345 1.289 . S
C373 O365 1.258 . S
C373 O366 1.266 . S
Co374 O377 1.970 . S
Co374 N391 1.989 . S
Co374 O399 1.967 . S
Co374 O406 1.920 . S
Co375 O378 1.966 . S
Co375 N384 2.022 . S
Co375 N392 1.993 . S
Co375 O400 1.941 . S
C376 O377 1.258 . S
C376 O378 1.263 . S
O377 Co374 1.970 . S
O377 C376 1.258 . S
O378 Co375 1.966 . S
O378 C376 1.263 . S
C379 O380 1.235 . S
C379 O406 1.289 . S
O380 C379 1.235 . S
C381 C383 1.400 . S
C381 N384 1.351 . S
C381 C386 1.501 . S
C382 C383 1.387 . S
C382 N385 1.341 . S
C383 C381 1.400 . S
C383 C382 1.387 . S
N384 Co375 2.022 . S
N384 C381 1.351 . S
N384 N385 1.365 . S
N385 C382 1.341 . S
N385 N384 1.365 . S
N385 H405 0.862 . S
C386 C381 1.501 . S
C386 H387 0.961 . S
C386 H388 0.961 . S
C386 H389 0.960 . S
H387 C386 0.961 . S
H388 C386 0.961 . S
H389 C386 0.960 . S
C390 N391 1.342 . S
C390 C394 1.401 . S
C390 C395 1.499 . S
N391 Co374 1.989 . S
N391 C390 1.342 . S
N391 N392 1.388 . S
N392 Co375 1.993 . S
N392 N391 1.388 . S
N392 C393 1.346 . S
C393 N392 1.346 . S
C393 C394 1.396 . S
C393 C403 1.510 . S
C394 C390 1.401 . S
C394 C393 1.396 . S
C395 C390 1.499 . S
C395 H396 0.959 . S
C395 H397 0.960 . S
C395 H398 0.961 . S
H396 C395 0.959 . S
H397 C395 0.960 . S
H398 C395 0.961 . S
O399 Co374 1.967 . S
O399 C407 1.258 . S
O400 Co375 1.941 . S
O400 C407 1.266 . S
H401 C403 0.959 . S
H402 C403 0.961 . S
C403 C393 1.510 . S
C403 H401 0.959 . S
C403 H402 0.961 . S
C403 H404 0.960 . S
H404 C403 0.960 . S
H405 N385 0.862 . S
O406 Co374 1.920 . S
O406 C379 1.289 . S
C407 O399 1.258 . S
C407 O400 1.266 . S
Co408 O411 1.970 . S
Co408 N425 1.989 . S
Co408 O433 1.967 . S
Co408 O440 1.920 . S
Co409 O412 1.966 . S
Co409 N418 2.022 . S
Co409 N426 1.993 . S
Co409 O434 1.941 . S
C410 O411 1.258 . S
C410 O412 1.263 . S
O411 Co408 1.970 . S
O411 C410 1.258 . S
O412 Co409 1.966 . S
O412 C410 1.263 . S
C413 O414 1.235 . S
C413 O440 1.289 . S
O414 C413 1.235 . S
C415 C417 1.400 . S
C415 N418 1.351 . S
C415 C420 1.501 . S
C416 C417 1.387 . S
C416 N419 1.341 . S
C417 C415 1.400 . S
C417 C416 1.387 . S
N418 Co409 2.022 . S
N418 C415 1.351 . S
N418 N419 1.365 . S
N419 C416 1.341 . S
N419 N418 1.365 . S
N419 H439 0.862 . S
C420 C415 1.501 . S
C420 H421 0.961 . S
C420 H422 0.961 . S
C420 H423 0.960 . S
H421 C420 0.961 . S
H422 C420 0.961 . S
H423 C420 0.960 . S
C424 N425 1.342 . S
C424 C428 1.401 . S
C424 C429 1.499 . S
N425 Co408 1.989 . S
N425 C424 1.342 . S
N425 N426 1.388 . S
N426 Co409 1.993 . S
N426 N425 1.388 . S
N426 C427 1.346 . S
C427 N426 1.346 . S
C427 C428 1.396 . S
C427 C437 1.510 . S
C428 C424 1.401 . S
C428 C427 1.396 . S
C429 C424 1.499 . S
C429 H430 0.959 . S
C429 H431 0.960 . S
C429 H432 0.961 . S
H430 C429 0.959 . S
H431 C429 0.960 . S
H432 C429 0.961 . S
O433 Co408 1.967 . S
O433 C441 1.258 . S
O434 Co409 1.941 . S
O434 C441 1.266 . S
H435 C437 0.959 . S
H436 C437 0.961 . S
C437 C427 1.510 . S
C437 H435 0.959 . S
C437 H436 0.961 . S
C437 H438 0.960 . S
H438 C437 0.960 . S
H439 N419 0.862 . S
O440 Co408 1.920 . S
O440 C413 1.289 . S
C441 O433 1.258 . S
C441 O434 1.266 . S
Co442 O445 1.970 . S
Co442 N459 1.989 . S
Co442 O467 1.967 . S
Co442 O474 1.920 . S
Co443 O446 1.966 . S
Co443 N452 2.022 . S
Co443 N460 1.993 . S
Co443 O468 1.941 . S
C444 O445 1.258 . S
C444 O446 1.263 . S
O445 Co442 1.970 . S
O445 C444 1.258 . S
O446 Co443 1.966 . S
O446 C444 1.263 . S
C447 O448 1.235 . S
C447 O474 1.289 . S
O448 C447 1.235 . S
C449 C451 1.400 . S
C449 N452 1.351 . S
C449 C454 1.501 . S
C450 C451 1.387 . S
C450 N453 1.341 . S
C451 C449 1.400 . S
C451 C450 1.387 . S
N452 Co443 2.022 . S
N452 C449 1.351 . S
N452 N453 1.365 . S
N453 C450 1.341 . S
N453 N452 1.365 . S
N453 H473 0.862 . S
C454 C449 1.501 . S
C454 H455 0.961 . S
C454 H456 0.961 . S
C454 H457 0.960 . S
H455 C454 0.961 . S
H456 C454 0.961 . S
H457 C454 0.960 . S
C458 N459 1.342 . S
C458 C462 1.401 . S
C458 C463 1.499 . S
N459 Co442 1.989 . S
N459 C458 1.342 . S
N459 N460 1.388 . S
N460 Co443 1.993 . S
N460 N459 1.388 . S
N460 C461 1.346 . S
C461 N460 1.346 . S
C461 C462 1.396 . S
C461 C471 1.510 . S
C462 C458 1.401 . S
C462 C461 1.396 . S
C463 C458 1.499 . S
C463 H464 0.959 . S
C463 H465 0.960 . S
C463 H466 0.961 . S
H464 C463 0.959 . S
H465 C463 0.960 . S
H466 C463 0.961 . S
O467 Co442 1.967 . S
O467 C475 1.258 . S
O468 Co443 1.941 . S
O468 C475 1.266 . S
H469 C471 0.959 . S
H470 C471 0.961 . S
C471 C461 1.510 . S
C471 H469 0.959 . S
C471 H470 0.961 . S
C471 H472 0.960 . S
H472 C471 0.960 . S
H473 N453 0.862 . S
O474 Co442 1.920 . S
O474 C447 1.289 . S
C475 O467 1.258 . S
C475 O468 1.266 . S
Co476 O479 1.970 . S
Co476 N493 1.989 . S
Co476 O501 1.967 . S
Co476 O508 1.920 . S
Co477 O480 1.966 . S
Co477 N486 2.022 . S
Co477 N494 1.993 . S
Co477 O502 1.941 . S
C478 O479 1.258 . S
C478 O480 1.263 . S
O479 Co476 1.970 . S
O479 C478 1.258 . S
O480 Co477 1.966 . S
O480 C478 1.263 . S
C481 O482 1.235 . S
C481 O508 1.289 . S
O482 C481 1.235 . S
C483 C485 1.400 . S
C483 N486 1.351 . S
C483 C488 1.501 . S
C484 C485 1.387 . S
C484 N487 1.341 . S
C485 C483 1.400 . S
C485 C484 1.387 . S
N486 Co477 2.022 . S
N486 C483 1.351 . S
N486 N487 1.365 . S
N487 C484 1.341 . S
N487 N486 1.365 . S
N487 H507 0.862 . S
C488 C483 1.501 . S
C488 H489 0.961 . S
C488 H490 0.961 . S
C488 H491 0.960 . S
H489 C488 0.961 . S
H490 C488 0.961 . S
H491 C488 0.960 . S
C492 N493 1.342 . S
C492 C496 1.401 . S
C492 C497 1.499 . S
N493 Co476 1.989 . S
N493 C492 1.342 . S
N493 N494 1.388 . S
N494 Co477 1.993 . S
N494 N493 1.388 . S
N494 C495 1.346 . S
C495 N494 1.346 . S
C495 C496 1.396 . S
C495 C505 1.510 . S
C496 C492 1.401 . S
C496 C495 1.396 . S
C497 C492 1.499 . S
C497 H498 0.959 . S
C497 H499 0.960 . S
C497 H500 0.961 . S
H498 C497 0.959 . S
H499 C497 0.960 . S
H500 C497 0.961 . S
O501 Co476 1.967 . S
O501 C509 1.258 . S
O502 Co477 1.941 . S
O502 C509 1.266 . S
H503 C505 0.959 . S
H504 C505 0.961 . S
C505 C495 1.510 . S
C505 H503 0.959 . S
C505 H504 0.961 . S
C505 H506 0.960 . S
H506 C505 0.960 . S
H507 N487 0.862 . S
O508 Co476 1.920 . S
O508 C481 1.289 . S
C509 O501 1.258 . S
C509 O502 1.266 . S
Co510 O513 1.970 . S
Co510 N527 1.989 . S
Co510 O535 1.967 . S
Co510 O542 1.920 . S
Co511 O514 1.966 . S
Co511 N520 2.022 . S
Co511 N528 1.993 . S
Co511 O536 1.941 . S
C512 O513 1.258 . S
C512 O514 1.263 . S
O513 Co510 1.970 . S
O513 C512 1.258 . S
O514 Co511 1.966 . S
O514 C512 1.263 . S
C515 O516 1.235 . S
C515 O542 1.289 . S
O516 C515 1.235 . S
C517 C519 1.400 . S
C517 N520 1.351 . S
C517 C522 1.501 . S
C518 C519 1.387 . S
C518 N521 1.341 . S
C519 C517 1.400 . S
C519 C518 1.387 . S
N520 Co511 2.022 . S
N520 C517 1.351 . S
N520 N521 1.365 . S
N521 C518 1.341 . S
N521 N520 1.365 . S
N521 H541 0.862 . S
C522 C517 1.501 . S
C522 H523 0.961 . S
C522 H524 0.961 . S
C522 H525 0.960 . S
H523 C522 0.961 . S
H524 C522 0.961 . S
H525 C522 0.960 . S
C526 N527 1.342 . S
C526 C530 1.401 . S
C526 C531 1.499 . S
N527 Co510 1.989 . S
N527 C526 1.342 . S
N527 N528 1.388 . S
N528 Co511 1.993 . S
N528 N527 1.388 . S
N528 C529 1.346 . S
C529 N528 1.346 . S
C529 C530 1.396 . S
C529 C539 1.510 . S
C530 C526 1.401 . S
C530 C529 1.396 . S
C531 C526 1.499 . S
C531 H532 0.959 . S
C531 H533 0.960 . S
C531 H534 0.961 . S
H532 C531 0.959 . S
H533 C531 0.960 . S
H534 C531 0.961 . S
O535 Co510 1.967 . S
O535 C543 1.258 . S
O536 Co511 1.941 . S
O536 C543 1.266 . S
H537 C539 0.959 . S
H538 C539 0.961 . S
C539 C529 1.510 . S
C539 H537 0.959 . S
C539 H538 0.961 . S
C539 H540 0.960 . S
H540 C539 0.960 . S
H541 N521 0.862 . S
O542 Co510 1.920 . S
O542 C515 1.289 . S
C543 O535 1.258 . S
C543 O536 1.266 . S
Co544 O547 1.970 . S
Co544 N561 1.989 . S
Co544 O569 1.967 . S
Co544 O576 1.920 . S
Co545 O548 1.966 . S
Co545 N554 2.022 . S
Co545 N562 1.993 . S
Co545 O570 1.941 . S
C546 O547 1.258 . S
C546 O548 1.263 . S
O547 Co544 1.970 . S
O547 C546 1.258 . S
O548 Co545 1.966 . S
O548 C546 1.263 . S
C549 O550 1.235 . S
C549 O576 1.289 . S
O550 C549 1.235 . S
C551 C553 1.400 . S
C551 N554 1.351 . S
C551 C556 1.501 . S
C552 C553 1.387 . S
C552 N555 1.341 . S
C553 C551 1.400 . S
C553 C552 1.387 . S
N554 Co545 2.022 . S
N554 C551 1.351 . S
N554 N555 1.365 . S
N555 C552 1.341 . S
N555 N554 1.365 . S
N555 H575 0.862 . S
C556 C551 1.501 . S
C556 H557 0.961 . S
C556 H558 0.961 . S
C556 H559 0.960 . S
H557 C556 0.961 . S
H558 C556 0.961 . S
H559 C556 0.960 . S
C560 N561 1.342 . S
C560 C564 1.401 . S
C560 C565 1.499 . S
N561 Co544 1.989 . S
N561 C560 1.342 . S
N561 N562 1.388 . S
N562 Co545 1.993 . S
N562 N561 1.388 . S
N562 C563 1.346 . S
C563 N562 1.346 . S
C563 C564 1.396 . S
C563 C573 1.510 . S
C564 C560 1.401 . S
C564 C563 1.396 . S
C565 C560 1.499 . S
C565 H566 0.959 . S
C565 H567 0.960 . S
C565 H568 0.961 . S
H566 C565 0.959 . S
H567 C565 0.960 . S
H568 C565 0.961 . S
O569 Co544 1.967 . S
O569 C577 1.258 . S
O570 Co545 1.941 . S
O570 C577 1.266 . S
H571 C573 0.959 . S
H572 C573 0.961 . S
C573 C563 1.510 . S
C573 H571 0.959 . S
C573 H572 0.961 . S
C573 H574 0.960 . S
H574 C573 0.960 . S
H575 N555 0.862 . S
O576 Co544 1.920 . S
O576 C549 1.289 . S
C577 O569 1.258 . S
C577 O570 1.266 . S
Co578 O581 1.970 . S
Co578 N595 1.989 . S
Co578 O603 1.967 . S
Co578 O610 1.920 . S
Co579 O582 1.966 . S
Co579 N588 2.022 . S
Co579 N596 1.993 . S
Co579 O604 1.941 . S
C580 O581 1.258 . S
C580 O582 1.263 . S
O581 Co578 1.970 . S
O581 C580 1.258 . S
O582 Co579 1.966 . S
O582 C580 1.263 . S
C583 O584 1.235 . S
C583 O610 1.289 . S
O584 C583 1.235 . S
C585 C587 1.400 . S
C585 N588 1.351 . S
C585 C590 1.501 . S
C586 C587 1.387 . S
C586 N589 1.341 . S
C587 C585 1.400 . S
C587 C586 1.387 . S
N588 Co579 2.022 . S
N588 C585 1.351 . S
N588 N589 1.365 . S
N589 C586 1.341 . S
N589 N588 1.365 . S
N589 H609 0.862 . S
C590 C585 1.501 . S
C590 H591 0.961 . S
C590 H592 0.961 . S
C590 H593 0.960 . S
H591 C590 0.961 . S
H592 C590 0.961 . S
H593 C590 0.960 . S
C594 N595 1.342 . S
C594 C598 1.401 . S
C594 C599 1.499 . S
N595 Co578 1.989 . S
N595 C594 1.342 . S
N595 N596 1.388 . S
N596 Co579 1.993 . S
N596 N595 1.388 . S
N596 C597 1.346 . S
C597 N596 1.346 . S
C597 C598 1.396 . S
C597 C607 1.510 . S
C598 C594 1.401 . S
C598 C597 1.396 . S
C599 C594 1.499 . S
C599 H600 0.959 . S
C599 H601 0.960 . S
C599 H602 0.961 . S
H600 C599 0.959 . S
H601 C599 0.960 . S
H602 C599 0.961 . S
O603 Co578 1.967 . S
O603 C611 1.258 . S
O604 Co579 1.941 . S
O604 C611 1.266 . S
H605 C607 0.959 . S
H606 C607 0.961 . S
C607 C597 1.510 . S
C607 H605 0.959 . S
C607 H606 0.961 . S
C607 H608 0.960 . S
H608 C607 0.960 . S
H609 N589 0.862 . S
O610 Co578 1.920 . S
O610 C583 1.289 . S
C611 O603 1.258 . S
C611 O604 1.266 . S
H612 C624 0.930 . S
H613 C626 0.930 . S
H614 C627 0.930 . S
H615 C631 0.959 . S
H616 C631 0.959 . S
H617 C631 0.961 . S
H618 C632 0.960 . S
H619 C632 0.961 . S
H620 C632 0.959 . S
H621 C635 0.929 . S
H622 C636 0.931 . S
H623 C638 0.930 . S
C624 H612 0.930 . S
C624 C625 1.399 . S
C624 C629 1.399 . S
C625 C624 1.399 . S
C625 C626 1.376 . S
C626 H613 0.930 . S
C626 C625 1.376 . S
C626 C627 1.388 . S
C627 H614 0.930 . S
C627 C626 1.388 . S
C627 C628 1.390 . S
C628 C627 1.390 . S
C628 C629 1.394 . S
C628 C634 1.465 . S
C629 C624 1.399 . S
C629 C628 1.394 . S
C629 C630 1.516 . S
C630 C629 1.516 . S
C630 C631 1.502 . S
C630 C632 1.561 . S
C630 C633 1.526 . S
C631 H615 0.959 . S
C631 H616 0.959 . S
C631 H617 0.961 . S
C631 C630 1.502 . S
C632 H618 0.960 . S
C632 H619 0.961 . S
C632 H620 0.959 . S
C632 C630 1.561 . S
C633 C630 1.526 . S
C633 C634 1.396 . S
C633 C638 1.390 . S
C634 C628 1.465 . S
C634 C633 1.396 . S
C634 C635 1.399 1_655 S
C635 H621 0.929 . S
C635 C634 1.399 1_455 S
C635 C636 1.385 . S
C636 H622 0.931 . S
C636 C635 1.385 . S
C636 C637 1.389 . S
C637 C636 1.389 . S
C637 C638 1.387 1_455 S
C638 H623 0.930 . S
C638 C633 1.390 . S
C638 C637 1.387 1_655 S
H639 C651 0.930 . S
H640 C653 0.930 . S
H641 C654 0.930 . S
H642 C658 0.959 . S
H643 C658 0.959 . S
H644 C658 0.961 . S
H645 C659 0.960 . S
H646 C659 0.961 . S
H647 C659 0.959 . S
H648 C662 0.929 . S
H649 C663 0.931 . S
H650 C665 0.930 . S
C651 H639 0.930 . S
C651 C652 1.399 . S
C651 C656 1.399 . S
C652 C651 1.399 . S
C652 C653 1.376 . S
C653 H640 0.930 . S
C653 C652 1.376 . S
C653 C654 1.388 . S
C654 H641 0.930 . S
C654 C653 1.388 . S
C654 C655 1.390 . S
C655 C654 1.390 . S
C655 C656 1.394 . S
C655 C661 1.465 . S
C656 C651 1.399 . S
C656 C655 1.394 . S
C656 C657 1.516 . S
C657 C656 1.516 . S
C657 C658 1.502 . S
C657 C659 1.561 . S
C657 C660 1.526 . S
C658 H642 0.959 . S
C658 H643 0.959 . S
C658 H644 0.961 . S
C658 C657 1.502 . S
C659 H645 0.960 . S
C659 H646 0.961 . S
C659 H647 0.959 . S
C659 C657 1.561 . S
C660 C657 1.526 . S
C660 C661 1.396 . S
C660 C665 1.390 . S
C661 C655 1.465 . S
C661 C660 1.396 . S
C661 C662 1.399 . S
C662 H648 0.929 . S
C662 C661 1.399 . S
C662 C663 1.385 . S
C663 H649 0.931 . S
C663 C662 1.385 . S
C663 C664 1.389 . S
C664 C663 1.389 . S
C664 C665 1.387 . S
C665 H650 0.930 . S
C665 C660 1.390 . S
C665 C664 1.387 . S
H666 C678 0.930 . S
H667 C680 0.930 . S
H668 C681 0.930 . S
H669 C685 0.959 . S
H670 C685 0.959 . S
H671 C685 0.961 1_545 S
H672 C686 0.960 . S
H673 C686 0.961 . S
H674 C686 0.959 . S
H675 C689 0.929 . S
H676 C690 0.931 . S
H677 C692 0.930 . S
C678 H666 0.930 . S
C678 C679 1.399 . S
C678 C683 1.399 . S
C679 C678 1.399 . S
C679 C680 1.376 . S
C680 H667 0.930 . S
C680 C679 1.376 . S
C680 C681 1.388 . S
C681 H668 0.930 . S
C681 C680 1.388 . S
C681 C682 1.390 . S
C682 C681 1.390 . S
C682 C683 1.394 . S
C682 C688 1.465 . S
C683 C678 1.399 . S
C683 C682 1.394 . S
C683 C684 1.516 . S
C684 C683 1.516 . S
C684 C685 1.502 1_545 S
C684 C686 1.561 . S
C684 C687 1.526 . S
C685 H669 0.959 . S
C685 H670 0.959 . S
C685 H671 0.961 1_565 S
C685 C684 1.502 1_565 S
C686 H672 0.960 . S
C686 H673 0.961 . S
C686 H674 0.959 . S
C686 C684 1.561 . S
C687 C684 1.526 . S
C687 C688 1.396 . S
C687 C692 1.390 1_545 S
C688 C682 1.465 . S
C688 C687 1.396 . S
C688 C689 1.399 . S
C689 H675 0.929 . S
C689 C688 1.399 . S
C689 C690 1.385 1_545 S
C690 H676 0.931 . S
C690 C689 1.385 1_565 S
C690 C691 1.389 . S
C691 C690 1.389 . S
C691 C692 1.387 . S
C692 H677 0.930 . S
C692 C687 1.390 1_565 S
C692 C691 1.387 . S
H693 C705 0.930 1_545 S
H694 C707 0.930 . S
H695 C708 0.930 . S
H696 C712 0.959 . S
H697 C712 0.959 . S
H698 C712 0.961 . S
H699 C713 0.960 1_545 S
H700 C713 0.961 . S
H701 C713 0.959 1_545 S
H702 C716 0.929 . S
H703 C717 0.931 . S
H704 C719 0.930 . S
C705 H693 0.930 1_565 S
C705 C706 1.399 1_565 S
C705 C710 1.399 . S
C706 C705 1.399 1_545 S
C706 C707 1.376 . S
C707 H694 0.930 . S
C707 C706 1.376 . S
C707 C708 1.388 1_545 S
C708 H695 0.930 . S
C708 C707 1.388 1_565 S
C708 C709 1.390 . S
C709 C708 1.390 . S
C709 C710 1.394 . S
C709 C715 1.465 . S
C710 C705 1.399 . S
C710 C709 1.394 . S
C710 C711 1.516 . S
C711 C710 1.516 . S
C711 C712 1.502 . S
C711 C713 1.561 . S
C711 C714 1.526 . S
C712 H696 0.959 . S
C712 H697 0.959 . S
C712 H698 0.961 . S
C712 C711 1.502 . S
C713 H699 0.960 1_565 S
C713 H700 0.961 . S
C713 H701 0.959 1_565 S
C713 C711 1.561 . S
C714 C711 1.526 . S
C714 C715 1.396 . S
C714 C719 1.390 . S
C715 C709 1.465 . S
C715 C714 1.396 . S
C715 C716 1.399 . S
C716 H702 0.929 . S
C716 C715 1.399 . S
C716 C717 1.385 . S
C717 H703 0.931 . S
C717 C716 1.385 . S
C717 C718 1.389 . S
C718 C717 1.389 . S
C718 C719 1.387 . S
C719 H704 0.930 . S
C719 C714 1.390 . S
C719 C718 1.387 . S
H720 C732 0.930 . S
H721 C734 0.930 . S
H722 C735 0.930 . S
H723 C739 0.959 . S
H724 C739 0.959 . S
H725 C739 0.961 . S
H726 C740 0.960 . S
H727 C740 0.961 . S
H728 C740 0.959 1_655 S
H729 C743 0.929 . S
H730 C744 0.931 . S
H731 C746 0.946 . S
C732 H720 0.930 . S
C732 C733 1.399 . S
C732 C737 1.399 . S
C733 C732 1.399 . S
C733 C734 1.376 . S
C734 H721 0.930 . S
C734 C733 1.376 . S
C734 C735 1.388 . S
C735 H722 0.930 . S
C735 C734 1.388 . S
C735 C736 1.390 . S
C736 C735 1.390 . S
C736 C737 1.394 . S
C736 C742 1.465 . S
C737 C732 1.399 . S
C737 C736 1.394 . S
C737 C738 1.516 . S
C738 C737 1.516 . S
C738 C739 1.502 . S
C738 C740 1.561 . S
C738 C741 1.526 . S
C739 H723 0.959 . S
C739 H724 0.959 . S
C739 H725 0.961 . S
C739 C738 1.502 . S
C740 H726 0.960 . S
C740 H727 0.961 . S
C740 H728 0.959 1_455 S
C740 C738 1.561 . S
C741 C738 1.526 . S
C741 C742 1.396 . S
C741 C746 1.386 . S
C742 C736 1.465 . S
C742 C741 1.396 . S
C742 C743 1.399 1_455 S
C743 H729 0.929 . S
C743 C742 1.399 1_655 S
C743 C744 1.385 . S
C744 H730 0.931 . S
C744 C743 1.385 . S
C744 C745 1.389 . S
C745 C744 1.389 . S
C745 C746 1.376 1_655 S
C746 H731 0.946 . S
C746 C741 1.386 . S
C746 C745 1.376 1_455 S
H747 C759 0.930 . S
H748 C761 0.930 . S
H749 C762 0.930 . S
H750 C766 0.959 . S
H751 C766 0.959 . S
H752 C766 0.961 . S
H753 C767 0.960 . S
H754 C767 0.961 . S
H755 C767 0.959 . S
H756 C770 0.929 . S
H757 C771 0.931 . S
H758 C773 0.930 . S
C759 H747 0.930 . S
C759 C760 1.399 . S
C759 C764 1.399 . S
C760 C759 1.399 . S
C760 C761 1.376 . S
C761 H748 0.930 . S
C761 C760 1.376 . S
C761 C762 1.388 . S
C762 H749 0.930 . S
C762 C761 1.388 . S
C762 C763 1.390 . S
C763 C762 1.390 . S
C763 C764 1.394 . S
C763 C769 1.465 . S
C764 C759 1.399 . S
C764 C763 1.394 . S
C764 C765 1.516 . S
C765 C764 1.516 . S
C765 C766 1.502 . S
C765 C767 1.561 . S
C765 C768 1.526 . S
C766 H750 0.959 . S
C766 H751 0.959 . S
C766 H752 0.961 . S
C766 C765 1.502 . S
C767 H753 0.960 . S
C767 H754 0.961 . S
C767 H755 0.959 . S
C767 C765 1.561 . S
C768 C765 1.526 . S
C768 C769 1.396 . S
C768 C773 1.390 . S
C769 C763 1.465 . S
C769 C768 1.396 . S
C769 C770 1.399 . S
C770 H756 0.929 . S
C770 C769 1.399 . S
C770 C771 1.385 . S
C771 H757 0.931 . S
C771 C770 1.385 . S
C771 C772 1.389 . S
C772 C771 1.389 . S
C772 C773 1.387 . S
C773 H758 0.930 . S
C773 C768 1.390 . S
C773 C772 1.387 . S
H774 C786 0.930 . S
H775 C788 0.930 . S
H776 C789 0.930 . S
H777 C793 0.959 . S
H778 C793 0.959 . S
H779 C793 0.961 . S
H780 C794 0.960 . S
H781 C794 0.961 . S
H782 C794 0.959 . S
H783 C797 0.929 . S
H784 C798 0.931 . S
H785 C800 0.930 . S
C786 H774 0.930 . S
C786 C787 1.399 . S
C786 C791 1.399 . S
C787 C786 1.399 . S
C787 C788 1.376 . S
C788 H775 0.930 . S
C788 C787 1.376 . S
C788 C789 1.388 . S
C789 H776 0.930 . S
C789 C788 1.388 . S
C789 C790 1.390 . S
C790 C789 1.390 . S
C790 C791 1.394 . S
C790 C796 1.465 . S
C791 C786 1.399 . S
C791 C790 1.394 . S
C791 C792 1.516 . S
C792 C791 1.516 . S
C792 C793 1.502 . S
C792 C794 1.561 . S
C792 C795 1.526 . S
C793 H777 0.959 . S
C793 H778 0.959 . S
C793 H779 0.961 . S
C793 C792 1.502 . S
C794 H780 0.960 . S
C794 H781 0.961 . S
C794 H782 0.959 . S
C794 C792 1.561 . S
C795 C792 1.526 . S
C795 C796 1.396 . S
C795 C800 1.390 . S
C796 C790 1.465 . S
C796 C795 1.396 . S
C796 C797 1.399 . S
C797 H783 0.929 . S
C797 C796 1.399 . S
C797 C798 1.385 . S
C798 H784 0.931 . S
C798 C797 1.385 . S
C798 C799 1.389 . S
C799 C798 1.389 . S
C799 C800 1.387 . S
C800 H785 0.930 . S
C800 C795 1.390 . S
C800 C799 1.387 . S
H801 C813 0.930 . S
H802 C815 0.930 . S
H803 C816 0.930 . S
H804 C820 0.952 . S
H805 C820 0.979 . S
H806 C820 0.937 1_565 S
H807 C821 0.960 1_565 S
H808 C821 0.961 . S
H809 C821 0.959 . S
H810 C824 0.929 . S
H811 C825 0.931 . S
H812 C827 0.930 . S
C813 H801 0.930 . S
C813 C814 1.399 . S
C813 C818 1.399 . S
C814 C813 1.399 . S
C814 C815 1.376 . S
C815 H802 0.930 . S
C815 C814 1.376 . S
C815 C816 1.388 . S
C816 H803 0.930 . S
C816 C815 1.388 . S
C816 C817 1.390 . S
C817 C816 1.390 . S
C817 C818 1.394 . S
C817 C823 1.465 1_565 S
C818 C813 1.399 . S
C818 C817 1.394 . S
C818 C819 1.535 . S
C819 C818 1.535 . S
C819 C820 1.529 1_565 S
C819 C821 1.550 1_565 S
C819 C822 1.503 1_565 S
C820 H804 0.952 . S
C820 H805 0.979 . S
C820 H806 0.937 1_545 S
C820 C819 1.529 1_545 S
C821 H807 0.960 1_545 S
C821 H808 0.961 . S
C821 H809 0.959 . S
C821 C819 1.550 1_545 S
C822 C819 1.503 1_545 S
C822 C823 1.396 . S
C822 C827 1.390 . S
C823 C817 1.465 1_545 S
C823 C822 1.396 . S
C823 C824 1.399 . S
C824 H810 0.929 . S
C824 C823 1.399 . S
C824 C825 1.385 . S
C825 H811 0.931 . S
C825 C824 1.385 . S
C825 C826 1.389 . S
C826 C825 1.389 . S
C826 C827 1.387 . S
C827 H812 0.930 . S
C827 C822 1.390 . S
C827 C826 1.387 . S
H828 C840 0.930 . S
H829 C842 0.930 . S
H830 C843 0.930 . S
H831 C847 0.959 . S
H832 C847 0.959 . S
H833 C847 0.961 1_455 S
H834 C848 0.960 1_455 S
H835 C848 0.961 . S
H836 C848 0.959 . S
H837 C851 0.929 . S
H838 C852 0.931 . S
H839 C854 0.930 . S
C840 H828 0.930 . S
C840 C841 1.399 . S
C840 C845 1.399 . S
C841 C840 1.399 . S
C841 C842 1.376 . S
C842 H829 0.930 . S
C842 C841 1.376 . S
C842 C843 1.388 . S
C843 H830 0.930 . S
C843 C842 1.388 . S
C843 C844 1.390 . S
C844 C843 1.390 . S
C844 C845 1.394 . S
C844 C850 1.465 1_455 S
C845 C840 1.399 . S
C845 C844 1.394 . S
C845 C846 1.516 1_455 S
C846 C845 1.516 1_655 S
C846 C847 1.502 . S
C846 C848 1.561 . S
C846 C849 1.526 . S
C847 H831 0.959 . S
C847 H832 0.959 . S
C847 H833 0.961 1_655 S
C847 C846 1.502 . S
C848 H834 0.960 1_655 S
C848 H835 0.961 . S
C848 H836 0.959 . S
C848 C846 1.561 . S
C849 C846 1.526 . S
C849 C850 1.396 . S
C849 C854 1.390 . S
C850 C844 1.465 1_655 S
C850 C849 1.396 . S
C850 C851 1.399 . S
C851 H837 0.929 . S
C851 C850 1.399 . S
C851 C852 1.385 . S
C852 H838 0.931 . S
C852 C851 1.385 . S
C852 C853 1.389 . S
C853 C852 1.389 . S
C853 C854 1.387 . S
C854 H839 0.930 . S
C854 C849 1.390 . S
C854 C853 1.387 . S
H855 C867 0.930 . S
H856 C869 0.930 . S
H857 C870 0.930 . S
H858 C874 0.959 . S
H859 C874 0.959 . S
H860 C874 0.961 . S
H861 C875 0.960 . S
H862 C875 0.961 . S
H863 C875 0.959 . S
H864 C878 0.929 . S
H865 C879 0.931 . S
H866 C881 0.930 . S
C867 H855 0.930 . S
C867 C868 1.399 . S
C867 C872 1.399 . S
C868 C867 1.399 . S
C868 C869 1.376 . S
C869 H856 0.930 . S
C869 C868 1.376 . S
C869 C870 1.388 . S
C870 H857 0.930 . S
C870 C869 1.388 . S
C870 C871 1.390 . S
C871 C870 1.390 . S
C871 C872 1.394 . S
C871 C877 1.465 . S
C872 C867 1.399 . S
C872 C871 1.394 . S
C872 C873 1.516 . S
C873 C872 1.516 . S
C873 C874 1.502 . S
C873 C875 1.561 . S
C873 C876 1.526 . S
C874 H858 0.959 . S
C874 H859 0.959 . S
C874 H860 0.961 . S
C874 C873 1.502 . S
C875 H861 0.960 . S
C875 H862 0.961 . S
C875 H863 0.959 . S
C875 C873 1.561 . S
C876 C873 1.526 . S
C876 C877 1.396 . S
C876 C881 1.390 . S
C877 C871 1.465 . S
C877 C876 1.396 . S
C877 C878 1.399 . S
C878 H864 0.929 . S
C878 C877 1.399 . S
C878 C879 1.385 . S
C879 H865 0.931 . S
C879 C878 1.385 . S
C879 C880 1.389 . S
C880 C879 1.389 . S
C880 C881 1.387 . S
C881 H866 0.930 . S
C881 C876 1.390 . S
C881 C880 1.387 . S
H882 C894 0.930 . S
H883 C896 0.930 . S
H884 C897 0.930 . S
H885 C901 0.959 . S
H886 C901 0.959 . S
H887 C901 0.961 . S
H888 C902 0.960 . S
H889 C902 0.961 . S
H890 C902 0.959 . S
H891 C905 0.929 . S
H892 C906 0.931 . S
H893 C908 0.930 . S
C894 H882 0.930 . S
C894 C895 1.399 . S
C894 C899 1.399 . S
C895 C894 1.399 . S
C895 C896 1.376 . S
C896 H883 0.930 . S
C896 C895 1.376 . S
C896 C897 1.388 . S
C897 H884 0.930 . S
C897 C896 1.388 . S
C897 C898 1.390 . S
C898 C897 1.390 . S
C898 C899 1.394 . S
C898 C904 1.465 . S
C899 C894 1.399 . S
C899 C898 1.394 . S
C899 C900 1.516 . S
C900 C899 1.516 . S
C900 C901 1.502 . S
C900 C902 1.561 . S
C900 C903 1.526 . S
C901 H885 0.959 . S
C901 H886 0.959 . S
C901 H887 0.961 . S
C901 C900 1.502 . S
C902 H888 0.960 . S
C902 H889 0.961 . S
C902 H890 0.959 . S
C902 C900 1.561 . S
C903 C900 1.526 . S
C903 C904 1.396 . S
C903 C908 1.390 . S
C904 C898 1.465 . S
C904 C903 1.396 . S
C904 C905 1.399 . S
C905 H891 0.929 . S
C905 C904 1.399 . S
C905 C906 1.385 . S
C906 H892 0.931 . S
C906 C905 1.385 . S
C906 C907 1.389 . S
C907 C906 1.389 . S
C907 C908 1.387 . S
C908 H893 0.930 . S
C908 C903 1.390 . S
C908 C907 1.387 . S
H909 C921 0.930 . S
H910 C923 0.930 . S
H911 C924 0.930 . S
H912 C928 0.959 . S
H913 C928 0.959 . S
H914 C928 0.961 . S
H915 C929 0.960 . S
H916 C929 0.961 . S
H917 C929 0.959 . S
H918 C932 0.929 . S
H919 C933 0.931 . S
H920 C935 0.930 . S
C921 H909 0.930 . S
C921 C922 1.399 . S
C921 C926 1.399 . S
C922 C921 1.399 . S
C922 C923 1.376 . S
C923 H910 0.930 . S
C923 C922 1.376 . S
C923 C924 1.388 . S
C924 H911 0.930 . S
C924 C923 1.388 . S
C924 C925 1.390 . S
C925 C924 1.390 . S
C925 C926 1.394 . S
C925 C931 1.465 . S
C926 C921 1.399 . S
C926 C925 1.394 . S
C926 C927 1.516 . S
C927 C926 1.516 . S
C927 C928 1.502 . S
C927 C929 1.561 . S
C927 C930 1.526 . S
C928 H912 0.959 . S
C928 H913 0.959 . S
C928 H914 0.961 . S
C928 C927 1.502 . S
C929 H915 0.960 . S
C929 H916 0.961 . S
C929 H917 0.959 . S
C929 C927 1.561 . S
C930 C927 1.526 . S
C930 C931 1.396 . S
C930 C935 1.390 . S
C931 C925 1.465 . S
C931 C930 1.396 . S
C931 C932 1.399 . S
C932 H918 0.929 . S
C932 C931 1.399 . S
C932 C933 1.385 . S
C933 H919 0.931 . S
C933 C932 1.385 . S
C933 C934 1.389 . S
C934 C933 1.389 . S
C934 C935 1.387 . S
C935 H920 0.930 . S
C935 C930 1.390 . S
C935 C934 1.387 . S
H936 C948 0.930 . S
H937 C950 0.930 . S
H938 C951 0.930 . S
H939 C955 0.959 . S
H940 C955 0.959 . S
H941 C955 0.961 . S
H942 C956 0.960 . S
H943 C956 0.961 . S
H944 C956 0.959 . S
H945 C959 0.929 . S
H946 C960 0.931 . S
H947 C962 0.930 . S
C948 H936 0.930 . S
C948 C949 1.399 . S
C948 C953 1.399 . S
C949 C948 1.399 . S
C949 C950 1.376 . S
C950 H937 0.930 . S
C950 C949 1.376 . S
C950 C951 1.388 . S
C951 H938 0.930 . S
C951 C950 1.388 . S
C951 C952 1.390 . S
C952 C951 1.390 . S
C952 C953 1.394 . S
C952 C958 1.465 . S
C953 C948 1.399 . S
C953 C952 1.394 . S
C953 C954 1.516 . S
C954 C953 1.516 . S
C954 C955 1.502 . S
C954 C956 1.561 . S
C954 C957 1.526 . S
C955 H939 0.959 . S
C955 H940 0.959 . S
C955 H941 0.961 . S
C955 C954 1.502 . S
C956 H942 0.960 . S
C956 H943 0.961 . S
C956 H944 0.959 . S
C956 C954 1.561 . S
C957 C954 1.526 . S
C957 C958 1.396 . S
C957 C962 1.390 . S
C958 C952 1.465 . S
C958 C957 1.396 . S
C958 C959 1.399 . S
C959 H945 0.929 . S
C959 C958 1.399 . S
C959 C960 1.385 . S
C960 H946 0.931 . S
C960 C959 1.385 . S
C960 C961 1.389 . S
C961 C960 1.389 . S
C961 C962 1.387 . S
C962 H947 0.930 . S
C962 C957 1.390 . S
C962 C961 1.387 . S
H963 C975 0.930 . S
H964 C977 0.930 . S
H965 C978 0.930 . S
H966 C982 0.959 . S
H967 C982 0.959 . S
H968 C982 0.961 . S
H969 C983 0.960 . S
H970 C983 0.961 . S
H971 C983 0.959 . S
H972 C986 0.929 . S
H973 C987 0.931 . S
H974 C989 0.930 . S
C975 H963 0.930 . S
C975 C976 1.399 . S
C975 C980 1.399 . S
C976 C975 1.399 . S
C976 C977 1.376 . S
C977 H964 0.930 . S
C977 C976 1.376 . S
C977 C978 1.388 . S
C978 H965 0.930 . S
C978 C977 1.388 . S
C978 C979 1.390 . S
C979 C978 1.390 . S
C979 C980 1.394 . S
C979 C985 1.465 . S
C980 C975 1.399 . S
C980 C979 1.394 . S
C980 C981 1.516 . S
C981 C980 1.516 . S
C981 C982 1.502 . S
C981 C983 1.561 . S
C981 C984 1.526 . S
C982 H966 0.959 . S
C982 H967 0.959 . S
C982 H968 0.961 . S
C982 C981 1.502 . S
C983 H969 0.960 . S
C983 H970 0.961 . S
C983 H971 0.959 . S
C983 C981 1.561 . S
C984 C981 1.526 . S
C984 C985 1.396 . S
C984 C989 1.390 . S
C985 C979 1.465 . S
C985 C984 1.396 . S
C985 C986 1.399 . S
C986 H972 0.929 . S
C986 C985 1.399 . S
C986 C987 1.385 . S
C987 H973 0.931 . S
C987 C986 1.385 . S
C987 C988 1.389 . S
C988 C987 1.389 . S
C988 C989 1.387 . S
C989 H974 0.930 . S
C989 C984 1.390 . S
C989 C988 1.387 . S
H990 C1002 0.930 . S
H991 C1004 0.930 . S
H992 C1005 0.930 . S
H993 C1009 0.959 . S
H994 C1009 0.959 . S
H995 C1009 0.961 . S
H996 C1010 0.960 . S
H997 C1010 0.961 . S
H998 C1010 0.959 . S
H999 C1013 0.929 . S
H1000 C1014 0.931 . S
H1001 C1016 0.930 . S
C1002 H990 0.930 . S
C1002 C1003 1.399 . S
C1002 C1007 1.399 . S
C1003 C1002 1.399 . S
C1003 C1004 1.376 . S
C1004 H991 0.930 . S
C1004 C1003 1.376 . S
C1004 C1005 1.388 . S
C1005 H992 0.930 . S
C1005 C1004 1.388 . S
C1005 C1006 1.390 . S
C1006 C1005 1.390 . S
C1006 C1007 1.394 . S
C1006 C1012 1.465 . S
C1007 C1002 1.399 . S
C1007 C1006 1.394 . S
C1007 C1008 1.516 . S
C1008 C1007 1.516 . S
C1008 C1009 1.502 . S
C1008 C1010 1.561 . S
C1008 C1011 1.526 . S
C1009 H993 0.959 . S
C1009 H994 0.959 . S
C1009 H995 0.961 . S
C1009 C1008 1.502 . S
C1010 H996 0.960 . S
C1010 H997 0.961 . S
C1010 H998 0.959 . S
C1010 C1008 1.561 . S
C1011 C1008 1.526 . S
C1011 C1012 1.396 . S
C1011 C1016 1.390 . S
C1012 C1006 1.465 . S
C1012 C1011 1.396 . S
C1012 C1013 1.399 . S
C1013 H999 0.929 . S
C1013 C1012 1.399 . S
C1013 C1014 1.385 . S
C1014 H1000 0.931 . S
C1014 C1013 1.385 . S
C1014 C1015 1.389 . S
C1015 C1014 1.389 . S
C1015 C1016 1.387 . S
C1016 H1001 0.930 . S
C1016 C1011 1.390 . S
C1016 C1015 1.387 . S
H1017 C1029 0.930 . S
H1018 C1031 0.930 . S
H1019 C1032 0.911 1_556 S
H1020 C1036 0.959 . S
H1021 C1036 0.959 . S
H1022 C1036 0.961 . S
H1023 C1037 0.949 1_554 S
H1024 C1037 0.964 1_455 S
H1025 C1037 0.974 . S
H1026 C1040 0.929 . S
H1027 C1041 0.931 . S
H1028 C1043 0.930 . S
C1029 H1017 0.930 . S
C1029 C1030 1.399 . S
C1029 C1034 1.399 . S
C1030 C1029 1.399 . S
C1030 C1031 1.376 . S
C1031 H1018 0.930 . S
C1031 C1030 1.376 . S
C1031 C1032 1.409 . S
C1032 H1019 0.911 1_554 S
C1032 C1031 1.409 . S
C1032 C1033 1.390 . S
C1033 C1032 1.390 . S
C1033 C1034 1.393 . S
C1033 C1039 1.466 1_654 S
C1034 C1029 1.399 . S
C1034 C1033 1.393 . S
C1034 C1035 1.516 1_655 S
C1035 C1034 1.516 1_455 S
C1035 C1036 1.502 . S
C1035 C1037 1.554 1_454 S
C1035 C1038 1.526 1_554 S
C1036 H1020 0.959 . S
C1036 H1021 0.959 . S
C1036 H1022 0.961 . S
C1036 C1035 1.502 . S
C1037 H1023 0.949 1_556 S
C1037 H1024 0.964 1_655 S
C1037 H1025 0.974 . S
C1037 C1035 1.554 1_656 S
C1038 C1035 1.526 1_556 S
C1038 C1039 1.396 . S
C1038 C1043 1.390 . S
C1039 C1033 1.466 1_456 S
C1039 C1038 1.396 . S
C1039 C1040 1.399 . S
C1040 H1026 0.929 . S
C1040 C1039 1.399 . S
C1040 C1041 1.385 . S
C1041 H1027 0.931 . S
C1041 C1040 1.385 . S
C1041 C1042 1.389 . S
C1042 C1041 1.389 . S
C1042 C1043 1.387 . S
C1043 H1028 0.930 . S
C1043 C1038 1.390 . S
C1043 C1042 1.387 . S
H1044 C1056 0.930 . S
H1045 C1058 0.930 . S
H1046 C1059 0.930 . S
H1047 C1063 0.959 1_556 S
H1048 C1063 0.959 . S
H1049 C1063 0.953 1_556 S
H1050 C1064 0.960 . S
H1051 C1064 0.961 . S
H1052 C1064 0.959 . S
H1053 C1067 0.923 1_556 S
H1054 C1068 0.931 . S
H1055 C1070 0.930 . S
C1056 H1044 0.930 . S
C1056 C1057 1.399 . S
C1056 C1061 1.399 . S
C1057 C1056 1.399 . S
C1057 C1058 1.376 . S
C1058 H1045 0.930 . S
C1058 C1057 1.376 . S
C1058 C1059 1.388 . S
C1059 H1046 0.930 . S
C1059 C1058 1.388 . S
C1059 C1060 1.390 . S
C1060 C1059 1.390 . S
C1060 C1061 1.394 . S
C1060 C1066 1.465 1_556 S
C1061 C1056 1.399 . S
C1061 C1060 1.394 . S
C1061 C1062 1.516 1_556 S
C1062 C1061 1.516 1_554 S
C1062 C1063 1.502 . S
C1062 C1064 1.561 . S
C1062 C1065 1.526 . S
C1063 H1047 0.959 1_554 S
C1063 H1048 0.959 . S
C1063 H1049 0.953 1_554 S
C1063 C1062 1.502 . S
C1064 H1050 0.960 . S
C1064 H1051 0.961 . S
C1064 H1052 0.959 . S
C1064 C1062 1.561 . S
C1065 C1062 1.526 . S
C1065 C1066 1.396 . S
C1065 C1070 1.390 . S
C1066 C1060 1.465 1_554 S
C1066 C1065 1.396 . S
C1066 C1067 1.399 . S
C1067 H1053 0.923 1_554 S
C1067 C1066 1.399 . S
C1067 C1068 1.385 . S
C1068 H1054 0.931 . S
C1068 C1067 1.385 . S
C1068 C1069 1.389 . S
C1069 C1068 1.389 . S
C1069 C1070 1.387 . S
C1070 H1055 0.930 . S
C1070 C1065 1.390 . S
C1070 C1069 1.387 . S
H1071 C1083 0.930 . S
H1072 C1085 0.930 . S
H1073 C1086 0.930 1_565 S
H1074 C1090 0.959 . S
H1075 C1090 0.959 . S
H1076 C1090 0.961 . S
H1077 C1091 0.960 . S
H1078 C1091 0.961 . S
H1079 C1091 0.959 . S
H1080 C1094 0.929 . S
H1081 C1095 0.931 . S
H1082 C1097 0.930 . S
C1083 H1071 0.930 . S
C1083 C1084 1.399 . S
C1083 C1088 1.399 . S
C1084 C1083 1.399 . S
C1084 C1085 1.376 . S
C1085 H1072 0.930 . S
C1085 C1084 1.376 . S
C1085 C1086 1.388 . S
C1086 H1073 0.930 1_545 S
C1086 C1085 1.388 . S
C1086 C1087 1.390 . S
C1087 C1086 1.390 . S
C1087 C1088 1.394 . S
C1087 C1093 1.465 1_545 S
C1088 C1083 1.399 . S
C1088 C1087 1.394 . S
C1088 C1089 1.516 1_554 S
C1089 C1088 1.516 1_556 S
C1089 C1090 1.502 . S
C1089 C1091 1.561 . S
C1089 C1092 1.526 1_545 S
C1090 H1074 0.959 . S
C1090 H1075 0.959 . S
C1090 H1076 0.961 . S
C1090 C1089 1.502 . S
C1091 H1077 0.960 . S
C1091 H1078 0.961 . S
C1091 H1079 0.959 . S
C1091 C1089 1.561 . S
C1092 C1089 1.526 1_565 S
C1092 C1093 1.396 1_556 S
C1092 C1097 1.390 . S
C1093 C1087 1.465 1_565 S
C1093 C1092 1.396 1_554 S
C1093 C1094 1.399 . S
C1094 H1080 0.929 . S
C1094 C1093 1.399 . S
C1094 C1095 1.385 1_554 S
C1095 H1081 0.931 . S
C1095 C1094 1.385 1_556 S
C1095 C1096 1.389 . S
C1096 C1095 1.389 . S
C1096 C1097 1.387 . S
C1097 H1082 0.930 . S
C1097 C1092 1.390 . S
C1097 C1096 1.387 . S
H1098 C1110 0.930 . S
H1099 C1112 0.930 . S
H1100 C1113 0.930 . S
H1101 C1117 0.959 1_455 S
H1102 C1117 0.959 . S
H1103 C1117 0.961 1_454 S
H1104 C1118 0.960 . S
H1105 C1118 0.961 . S
H1106 C1118 0.959 . S
H1107 C1121 0.929 . S
H1108 C1122 0.931 . S
H1109 C1124 0.930 . S
C1110 H1098 0.930 . S
C1110 C1111 1.399 . S
C1110 C1115 1.399 . S
C1111 C1110 1.399 . S
C1111 C1112 1.376 . S
C1112 H1099 0.930 . S
C1112 C1111 1.376 . S
C1112 C1113 1.388 . S
C1113 H1100 0.930 . S
C1113 C1112 1.388 . S
C1113 C1114 1.390 . S
C1114 C1113 1.390 . S
C1114 C1115 1.394 . S
C1114 C1120 1.465 1_454 S
C1115 C1110 1.399 . S
C1115 C1114 1.394 . S
C1115 C1116 1.516 1_455 S
C1116 C1115 1.516 1_655 S
C1116 C1117 1.502 1_554 S
C1116 C1118 1.561 . S
C1116 C1119 1.526 1_554 S
C1117 H1101 0.959 1_655 S
C1117 H1102 0.959 . S
C1117 H1103 0.961 1_656 S
C1117 C1116 1.502 1_556 S
C1118 H1104 0.960 . S
C1118 H1105 0.961 . S
C1118 H1106 0.959 . S
C1118 C1116 1.561 . S
C1119 C1116 1.526 1_556 S
C1119 C1120 1.396 . S
C1119 C1124 1.390 . S
C1120 C1114 1.465 1_656 S
C1120 C1119 1.396 . S
C1120 C1121 1.399 . S
C1121 H1107 0.929 . S
C1121 C1120 1.399 . S
C1121 C1122 1.385 . S
C1122 H1108 0.931 . S
C1122 C1121 1.385 . S
C1122 C1123 1.389 . S
C1123 C1122 1.389 . S
C1123 C1124 1.387 . S
C1124 H1109 0.930 . S
C1124 C1119 1.390 . S
C1124 C1123 1.387 . S
H1125 C1137 0.930 . S
H1126 C1139 0.930 . S
H1127 C1140 0.930 . S
H1128 C1144 0.959 . S
H1129 C1144 0.959 1_554 S
H1130 C1144 0.961 . S
H1131 C1145 0.960 . S
H1132 C1145 0.961 . S
H1133 C1145 0.959 . S
H1134 C1148 0.929 . S
H1135 C1149 0.931 . S
H1136 C1151 0.930 . S
C1137 H1125 0.930 . S
C1137 C1138 1.399 . S
C1137 C1142 1.399 . S
C1138 C1137 1.399 . S
C1138 C1139 1.376 . S
C1139 H1126 0.930 . S
C1139 C1138 1.376 . S
C1139 C1140 1.388 . S
C1140 H1127 0.930 . S
C1140 C1139 1.388 . S
C1140 C1141 1.390 . S
C1141 C1140 1.390 . S
C1141 C1142 1.394 . S
C1141 C1147 1.465 1_556 S
C1142 C1137 1.399 . S
C1142 C1141 1.394 . S
C1142 C1143 1.516 1_556 S
C1143 C1142 1.516 1_554 S
C1143 C1144 1.502 1_554 S
C1143 C1145 1.561 . S
C1143 C1146 1.526 . S
C1144 H1128 0.959 . S
C1144 H1129 0.959 1_556 S
C1144 H1130 0.961 . S
C1144 C1143 1.502 1_556 S
C1145 H1131 0.960 . S
C1145 H1132 0.961 . S
C1145 H1133 0.959 . S
C1145 C1143 1.561 . S
C1146 C1143 1.526 . S
C1146 C1147 1.396 . S
C1146 C1151 1.390 . S
C1147 C1141 1.465 1_554 S
C1147 C1146 1.396 . S
C1147 C1148 1.399 . S
C1148 H1134 0.929 . S
C1148 C1147 1.399 . S
C1148 C1149 1.385 . S
C1149 H1135 0.931 . S
C1149 C1148 1.385 . S
C1149 C1150 1.389 . S
C1150 C1149 1.389 . S
C1150 C1151 1.387 . S
C1151 H1136 0.930 . S
C1151 C1146 1.390 . S
C1151 C1150 1.387 . S
H1152 C1164 0.930 . S
H1153 C1166 0.930 . S
H1154 C1167 0.930 . S
H1155 C1171 0.959 . S
H1156 C1171 0.959 . S
H1157 C1171 0.961 . S
H1158 C1172 0.960 . S
H1159 C1172 0.961 . S
H1160 C1172 0.959 . S
H1161 C1175 0.929 1_556 S
H1162 C1176 0.931 . S
H1163 C1178 0.930 . S
C1164 H1152 0.930 . S
C1164 C1165 1.399 . S
C1164 C1169 1.399 . S
C1165 C1164 1.399 . S
C1165 C1166 1.376 . S
C1166 H1153 0.930 . S
C1166 C1165 1.376 . S
C1166 C1167 1.388 1_545 S
C1167 H1154 0.930 . S
C1167 C1166 1.388 1_565 S
C1167 C1168 1.390 . S
C1168 C1167 1.390 . S
C1168 C1169 1.394 1_565 S
C1168 C1174 1.465 1_556 S
C1169 C1164 1.399 . S
C1169 C1168 1.394 1_545 S
C1169 C1170 1.516 1_556 S
C1170 C1169 1.516 1_554 S
C1170 C1171 1.502 . S
C1170 C1172 1.561 . S
C1170 C1173 1.526 1_545 S
C1171 H1155 0.959 . S
C1171 H1156 0.959 . S
C1171 H1157 0.961 . S
C1171 C1170 1.502 . S
C1172 H1158 0.960 . S
C1172 H1159 0.961 . S
C1172 H1160 0.959 . S
C1172 C1170 1.561 . S
C1173 C1170 1.526 1_565 S
C1173 C1174 1.396 . S
C1173 C1178 1.390 . S
C1174 C1168 1.465 1_554 S
C1174 C1173 1.396 . S
C1174 C1175 1.399 . S
C1175 H1161 0.929 1_554 S
C1175 C1174 1.399 . S
C1175 C1176 1.385 . S
C1176 H1162 0.931 . S
C1176 C1175 1.385 . S
C1176 C1177 1.389 . S
C1177 C1176 1.389 . S
C1177 C1178 1.387 . S
C1178 H1163 0.930 . S
C1178 C1173 1.390 . S
C1178 C1177 1.387 . S
H1179 C1191 0.930 . S
H1180 C1193 0.930 . S
H1181 C1194 0.930 . S
H1182 C1198 0.959 . S
H1183 C1198 0.959 . S
H1184 C1198 0.961 . S
H1185 C1199 0.960 . S
H1186 C1199 0.961 . S
H1187 C1199 0.959 . S
H1188 C1202 0.929 . S
H1189 C1203 0.931 . S
H1190 C1205 0.930 . S
C1191 H1179 0.930 . S
C1191 C1192 1.399 . S
C1191 C1196 1.399 . S
C1192 C1191 1.399 . S
C1192 C1193 1.376 . S
C1193 H1180 0.930 . S
C1193 C1192 1.376 . S
C1193 C1194 1.388 . S
C1194 H1181 0.930 . S
C1194 C1193 1.388 . S
C1194 C1195 1.390 . S
C1195 C1194 1.390 . S
C1195 C1196 1.394 . S
C1195 C1201 1.465 . S
C1196 C1191 1.399 . S
C1196 C1195 1.394 . S
C1196 C1197 1.516 . S
C1197 C1196 1.516 . S
C1197 C1198 1.502 . S
C1197 C1199 1.561 . S
C1197 C1200 1.526 . S
C1198 H1182 0.959 . S
C1198 H1183 0.959 . S
C1198 H1184 0.961 . S
C1198 C1197 1.502 . S
C1199 H1185 0.960 . S
C1199 H1186 0.961 . S
C1199 H1187 0.959 . S
C1199 C1197 1.561 . S
C1200 C1197 1.526 . S
C1200 C1201 1.396 . S
C1200 C1205 1.390 . S
C1201 C1195 1.465 . S
C1201 C1200 1.396 . S
C1201 C1202 1.399 . S
C1202 H1188 0.929 . S
C1202 C1201 1.399 . S
C1202 C1203 1.385 . S
C1203 H1189 0.931 . S
C1203 C1202 1.385 . S
C1203 C1204 1.389 . S
C1204 C1203 1.389 . S
C1204 C1205 1.387 . S
C1205 H1190 0.930 . S
C1205 C1200 1.390 . S
C1205 C1204 1.387 . S
H1206 C1218 0.930 . S
H1207 C1220 0.930 . S
H1208 C1221 0.930 . S
H1209 C1225 0.959 . S
H1210 C1225 0.959 . S
H1211 C1225 0.961 . S
H1212 C1226 0.960 . S
H1213 C1226 0.961 . S
H1214 C1226 0.959 . S
H1215 C1229 0.929 . S
H1216 C1230 0.931 . S
H1217 C1232 0.930 . S
C1218 H1206 0.930 . S
C1218 C1219 1.399 . S
C1218 C1223 1.399 . S
C1219 C1218 1.399 . S
C1219 C1220 1.376 . S
C1220 H1207 0.930 . S
C1220 C1219 1.376 . S
C1220 C1221 1.388 . S
C1221 H1208 0.930 . S
C1221 C1220 1.388 . S
C1221 C1222 1.390 . S
C1222 C1221 1.390 . S
C1222 C1223 1.394 . S
C1222 C1228 1.465 . S
C1223 C1218 1.399 . S
C1223 C1222 1.394 . S
C1223 C1224 1.516 . S
C1224 C1223 1.516 . S
C1224 C1225 1.502 . S
C1224 C1226 1.561 . S
C1224 C1227 1.526 . S
C1225 H1209 0.959 . S
C1225 H1210 0.959 . S
C1225 H1211 0.961 . S
C1225 C1224 1.502 . S
C1226 H1212 0.960 . S
C1226 H1213 0.961 . S
C1226 H1214 0.959 . S
C1226 C1224 1.561 . S
C1227 C1224 1.526 . S
C1227 C1228 1.396 . S
C1227 C1232 1.390 . S
C1228 C1222 1.465 . S
C1228 C1227 1.396 . S
C1228 C1229 1.399 . S
C1229 H1215 0.929 . S
C1229 C1228 1.399 . S
C1229 C1230 1.385 . S
C1230 H1216 0.931 . S
C1230 C1229 1.385 . S
C1230 C1231 1.389 . S
C1231 C1230 1.389 . S
C1231 C1232 1.387 . S
C1232 H1217 0.930 . S
C1232 C1227 1.390 . S
C1232 C1231 1.387 . S
H1233 C1245 0.930 . S
H1234 C1247 0.930 . S
H1235 C1248 0.930 . S
H1236 C1252 0.959 . S
H1237 C1252 0.959 . S
H1238 C1252 0.961 . S
H1239 C1253 0.960 . S
H1240 C1253 0.961 . S
H1241 C1253 0.959 . S
H1242 C1256 0.929 . S
H1243 C1257 0.931 . S
H1244 C1259 0.930 . S
C1245 H1233 0.930 . S
C1245 C1246 1.399 . S
C1245 C1250 1.399 . S
C1246 C1245 1.399 . S
C1246 C1247 1.376 . S
C1247 H1234 0.930 . S
C1247 C1246 1.376 . S
C1247 C1248 1.388 . S
C1248 H1235 0.930 . S
C1248 C1247 1.388 . S
C1248 C1249 1.390 . S
C1249 C1248 1.390 . S
C1249 C1250 1.394 . S
C1249 C1255 1.465 . S
C1250 C1245 1.399 . S
C1250 C1249 1.394 . S
C1250 C1251 1.516 . S
C1251 C1250 1.516 . S
C1251 C1252 1.502 . S
C1251 C1253 1.561 . S
C1251 C1254 1.526 . S
C1252 H1236 0.959 . S
C1252 H1237 0.959 . S
C1252 H1238 0.961 . S
C1252 C1251 1.502 . S
C1253 H1239 0.960 . S
C1253 H1240 0.961 . S
C1253 H1241 0.959 . S
C1253 C1251 1.561 . S
C1254 C1251 1.526 . S
C1254 C1255 1.396 . S
C1254 C1259 1.390 . S
C1255 C1249 1.465 . S
C1255 C1254 1.396 . S
C1255 C1256 1.399 . S
C1256 H1242 0.929 . S
C1256 C1255 1.399 . S
C1256 C1257 1.385 . S
C1257 H1243 0.931 . S
C1257 C1256 1.385 . S
C1257 C1258 1.389 . S
C1258 C1257 1.389 . S
C1258 C1259 1.387 . S
C1259 H1244 0.930 . S
C1259 C1254 1.390 . S
C1259 C1258 1.387 . S
H1260 C1272 0.930 . S
H1261 C1274 0.930 . S
H1262 C1275 0.930 . S
H1263 C1279 0.959 . S
H1264 C1279 0.959 . S
H1265 C1279 0.961 . S
H1266 C1280 0.960 . S
H1267 C1280 0.961 . S
H1268 C1280 0.959 . S
H1269 C1283 0.929 . S
H1270 C1284 0.931 . S
H1271 C1286 0.930 . S
C1272 H1260 0.930 . S
C1272 C1273 1.399 . S
C1272 C1277 1.399 . S
C1273 C1272 1.399 . S
C1273 C1274 1.376 . S
C1274 H1261 0.930 . S
C1274 C1273 1.376 . S
C1274 C1275 1.388 . S
C1275 H1262 0.930 . S
C1275 C1274 1.388 . S
C1275 C1276 1.390 . S
C1276 C1275 1.390 . S
C1276 C1277 1.394 . S
C1276 C1282 1.465 . S
C1277 C1272 1.399 . S
C1277 C1276 1.394 . S
C1277 C1278 1.516 . S
C1278 C1277 1.516 . S
C1278 C1279 1.502 . S
C1278 C1280 1.561 . S
C1278 C1281 1.526 . S
C1279 H1263 0.959 . S
C1279 H1264 0.959 . S
C1279 H1265 0.961 . S
C1279 C1278 1.502 . S
C1280 H1266 0.960 . S
C1280 H1267 0.961 . S
C1280 H1268 0.959 . S
C1280 C1278 1.561 . S
C1281 C1278 1.526 . S
C1281 C1282 1.396 . S
C1281 C1286 1.390 . S
C1282 C1276 1.465 . S
C1282 C1281 1.396 . S
C1282 C1283 1.399 . S
C1283 H1269 0.929 . S
C1283 C1282 1.399 . S
C1283 C1284 1.385 . S
C1284 H1270 0.931 . S
C1284 C1283 1.385 . S
C1284 C1285 1.389 . S
C1285 C1284 1.389 . S
C1285 C1286 1.387 . S
C1286 H1271 0.930 . S
C1286 C1281 1.390 . S
C1286 C1285 1.387 . S
H1287 C1299 0.930 . S
H1288 C1301 0.930 . S
H1289 C1302 0.930 . S
H1290 C1306 0.959 . S
H1291 C1306 0.959 . S
H1292 C1306 0.961 . S
H1293 C1307 0.960 . S
H1294 C1307 0.961 . S
H1295 C1307 0.959 . S
H1296 C1310 0.929 . S
H1297 C1311 0.931 . S
H1298 C1313 0.930 . S
C1299 H1287 0.930 . S
C1299 C1300 1.399 . S
C1299 C1304 1.399 . S
C1300 C1299 1.399 . S
C1300 C1301 1.376 . S
C1301 H1288 0.930 . S
C1301 C1300 1.376 . S
C1301 C1302 1.388 . S
C1302 H1289 0.930 . S
C1302 C1301 1.388 . S
C1302 C1303 1.390 . S
C1303 C1302 1.390 . S
C1303 C1304 1.394 . S
C1303 C1309 1.465 . S
C1304 C1299 1.399 . S
C1304 C1303 1.394 . S
C1304 C1305 1.516 . S
C1305 C1304 1.516 . S
C1305 C1306 1.502 . S
C1305 C1307 1.561 . S
C1305 C1308 1.526 . S
C1306 H1290 0.959 . S
C1306 H1291 0.959 . S
C1306 H1292 0.961 . S
C1306 C1305 1.502 . S
C1307 H1293 0.960 . S
C1307 H1294 0.961 . S
C1307 H1295 0.959 . S
C1307 C1305 1.561 . S
C1308 C1305 1.526 . S
C1308 C1309 1.396 . S
C1308 C1313 1.390 . S
C1309 C1303 1.465 . S
C1309 C1308 1.396 . S
C1309 C1310 1.399 . S
C1310 H1296 0.929 . S
C1310 C1309 1.399 . S
C1310 C1311 1.385 . S
C1311 H1297 0.931 . S
C1311 C1310 1.385 . S
C1311 C1312 1.389 . S
C1312 C1311 1.389 . S
C1312 C1313 1.387 . S
C1313 H1298 0.930 . S
C1313 C1308 1.390 . S
C1313 C1312 1.387 . S
H1314 C1326 0.930 . S
H1315 C1328 0.930 . S
H1316 C1329 0.930 . S
H1317 C1333 0.959 . S
H1318 C1333 0.959 . S
H1319 C1333 0.961 . S
H1320 C1334 0.960 . S
H1321 C1334 0.961 . S
H1322 C1334 0.959 . S
H1323 C1337 0.929 . S
H1324 C1338 0.931 . S
H1325 C1340 0.930 . S
C1326 H1314 0.930 . S
C1326 C1327 1.399 . S
C1326 C1331 1.399 . S
C1327 C1326 1.399 . S
C1327 C1328 1.376 . S
C1328 H1315 0.930 . S
C1328 C1327 1.376 . S
C1328 C1329 1.388 . S
C1329 H1316 0.930 . S
C1329 C1328 1.388 . S
C1329 C1330 1.390 . S
C1330 C1329 1.390 . S
C1330 C1331 1.394 . S
C1330 C1336 1.465 . S
C1331 C1326 1.399 . S
C1331 C1330 1.394 . S
C1331 C1332 1.516 . S
C1332 C1331 1.516 . S
C1332 C1333 1.502 . S
C1332 C1334 1.561 . S
C1332 C1335 1.526 . S
C1333 H1317 0.959 . S
C1333 H1318 0.959 . S
C1333 H1319 0.961 . S
C1333 C1332 1.502 . S
C1334 H1320 0.960 . S
C1334 H1321 0.961 . S
C1334 H1322 0.959 . S
C1334 C1332 1.561 . S
C1335 C1332 1.526 . S
C1335 C1336 1.396 . S
C1335 C1340 1.390 . S
C1336 C1330 1.465 . S
C1336 C1335 1.396 . S
C1336 C1337 1.399 . S
C1337 H1323 0.929 . S
C1337 C1336 1.399 . S
C1337 C1338 1.385 . S
C1338 H1324 0.931 . S
C1338 C1337 1.385 . S
C1338 C1339 1.389 . S
C1339 C1338 1.389 . S
C1339 C1340 1.387 . S
C1340 H1325 0.930 . S
C1340 C1335 1.390 . S
C1340 C1339 1.387 . S
H1341 C1353 0.930 . S
H1342 C1355 0.930 . S
H1343 C1356 0.930 . S
H1344 C1360 0.959 . S
H1345 C1360 0.959 . S
H1346 C1360 0.961 . S
H1347 C1361 0.960 . S
H1348 C1361 0.961 . S
H1349 C1361 0.959 . S
H1350 C1364 0.929 . S
H1351 C1365 0.931 . S
H1352 C1367 0.930 . S
C1353 H1341 0.930 . S
C1353 C1354 1.399 . S
C1353 C1358 1.399 . S
C1354 C1353 1.399 . S
C1354 C1355 1.376 . S
C1355 H1342 0.930 . S
C1355 C1354 1.376 . S
C1355 C1356 1.388 . S
C1356 H1343 0.930 . S
C1356 C1355 1.388 . S
C1356 C1357 1.390 . S
C1357 C1356 1.390 . S
C1357 C1358 1.394 . S
C1357 C1363 1.465 . S
C1358 C1353 1.399 . S
C1358 C1357 1.394 . S
C1358 C1359 1.516 . S
C1359 C1358 1.516 . S
C1359 C1360 1.502 . S
C1359 C1361 1.561 . S
C1359 C1362 1.526 . S
C1360 H1344 0.959 . S
C1360 H1345 0.959 . S
C1360 H1346 0.961 . S
C1360 C1359 1.502 . S
C1361 H1347 0.960 . S
C1361 H1348 0.961 . S
C1361 H1349 0.959 . S
C1361 C1359 1.561 . S
C1362 C1359 1.526 . S
C1362 C1363 1.396 . S
C1362 C1367 1.390 . S
C1363 C1357 1.465 . S
C1363 C1362 1.396 . S
C1363 C1364 1.399 . S
C1364 H1350 0.929 . S
C1364 C1363 1.399 . S
C1364 C1365 1.385 . S
C1365 H1351 0.931 . S
C1365 C1364 1.385 . S
C1365 C1366 1.389 . S
C1366 C1365 1.389 . S
C1366 C1367 1.387 . S
C1367 H1352 0.930 . S
C1367 C1362 1.390 . S
C1367 C1366 1.387 . S
H1368 C1380 0.930 . S
H1369 C1382 0.930 1_455 S
H1370 C1383 0.930 . S
H1371 C1387 0.959 . S
H1372 C1387 0.959 . S
H1373 C1387 0.961 . S
H1374 C1388 0.960 . S
H1375 C1388 0.961 . S
H1376 C1388 0.959 . S
H1377 C1391 0.929 . S
H1378 C1392 0.931 . S
H1379 C1394 0.930 . S
C1380 H1368 0.930 . S
C1380 C1381 1.399 . S
C1380 C1385 1.399 . S
C1381 C1380 1.399 . S
C1381 C1382 1.376 . S
C1382 H1369 0.930 1_655 S
C1382 C1381 1.376 . S
C1382 C1383 1.388 . S
C1383 H1370 0.930 . S
C1383 C1382 1.388 . S
C1383 C1384 1.390 . S
C1384 C1383 1.390 . S
C1384 C1385 1.394 . S
C1384 C1390 1.465 . S
C1385 C1380 1.399 . S
C1385 C1384 1.394 . S
C1385 C1386 1.516 . S
C1386 C1385 1.516 . S
C1386 C1387 1.502 . S
C1386 C1388 1.561 . S
C1386 C1389 1.526 . S
C1387 H1371 0.959 . S
C1387 H1372 0.959 . S
C1387 H1373 0.961 . S
C1387 C1386 1.502 . S
C1388 H1374 0.960 . S
C1388 H1375 0.961 . S
C1388 H1376 0.959 . S
C1388 C1386 1.561 . S
C1389 C1386 1.526 . S
C1389 C1390 1.396 . S
C1389 C1394 1.390 . S
C1390 C1384 1.465 . S
C1390 C1389 1.396 . S
C1390 C1391 1.399 . S
C1391 H1377 0.929 . S
C1391 C1390 1.399 . S
C1391 C1392 1.385 1_545 S
C1392 H1378 0.931 . S
C1392 C1391 1.385 1_565 S
C1392 C1393 1.389 . S
C1393 C1392 1.389 . S
C1393 C1394 1.387 1_565 S
C1394 H1379 0.930 . S
C1394 C1389 1.390 . S
C1394 C1393 1.387 1_545 S
H1395 C1407 0.930 . S
H1396 C1409 0.930 . S
H1397 C1410 0.930 . S
H1398 C1414 0.959 . S
H1399 C1414 0.959 . S
H1400 C1414 0.961 . S
H1401 C1415 0.960 . S
H1402 C1415 0.961 . S
H1403 C1415 0.959 . S
H1404 C1418 0.929 . S
H1405 C1419 0.931 . S
H1406 C1421 0.930 . S
C1407 H1395 0.930 . S
C1407 C1408 1.399 . S
C1407 C1412 1.399 . S
C1408 C1407 1.399 . S
C1408 C1409 1.376 . S
C1409 H1396 0.930 . S
C1409 C1408 1.376 . S
C1409 C1410 1.388 . S
C1410 H1397 0.930 . S
C1410 C1409 1.388 . S
C1410 C1411 1.390 . S
C1411 C1410 1.390 . S
C1411 C1412 1.394 . S
C1411 C1417 1.465 . S
C1412 C1407 1.399 . S
C1412 C1411 1.394 . S
C1412 C1413 1.516 . S
C1413 C1412 1.516 . S
C1413 C1414 1.502 . S
C1413 C1415 1.561 . S
C1413 C1416 1.526 . S
C1414 H1398 0.959 . S
C1414 H1399 0.959 . S
C1414 H1400 0.961 . S
C1414 C1413 1.502 . S
C1415 H1401 0.960 . S
C1415 H1402 0.961 . S
C1415 H1403 0.959 . S
C1415 C1413 1.561 . S
C1416 C1413 1.526 . S
C1416 C1417 1.396 . S
C1416 C1421 1.390 . S
C1417 C1411 1.465 . S
C1417 C1416 1.396 . S
C1417 C1418 1.399 . S
C1418 H1404 0.929 . S
C1418 C1417 1.399 . S
C1418 C1419 1.385 1_655 S
C1419 H1405 0.931 . S
C1419 C1418 1.385 1_455 S
C1419 C1420 1.389 . S
C1420 C1419 1.389 . S
C1420 C1421 1.387 1_455 S
C1421 H1406 0.930 . S
C1421 C1416 1.390 . S
C1421 C1420 1.387 1_655 S
H1422 C1434 0.930 . S
H1423 C1436 0.930 . S
H1424 C1437 0.930 . S
H1425 C1441 0.959 . S
H1426 C1441 0.959 . S
H1427 C1441 0.961 . S
H1428 C1442 0.960 . S
H1429 C1442 0.961 . S
H1430 C1442 0.959 . S
H1431 C1445 0.929 . S
H1432 C1446 0.931 . S
H1433 C1448 0.930 . S
C1434 H1422 0.930 . S
C1434 C1435 1.399 . S
C1434 C1439 1.399 . S
C1435 C1434 1.399 . S
C1435 C1436 1.376 . S
C1436 H1423 0.930 . S
C1436 C1435 1.376 . S
C1436 C1437 1.388 . S
C1437 H1424 0.930 . S
C1437 C1436 1.388 . S
C1437 C1438 1.390 . S
C1438 C1437 1.390 . S
C1438 C1439 1.394 . S
C1438 C1444 1.465 . S
C1439 C1434 1.399 . S
C1439 C1438 1.394 . S
C1439 C1440 1.516 . S
C1440 C1439 1.516 . S
C1440 C1441 1.502 . S
C1440 C1442 1.561 . S
C1440 C1443 1.526 . S
C1441 H1425 0.959 . S
C1441 H1426 0.959 . S
C1441 H1427 0.961 . S
C1441 C1440 1.502 . S
C1442 H1428 0.960 . S
C1442 H1429 0.961 . S
C1442 H1430 0.959 . S
C1442 C1440 1.561 . S
C1443 C1440 1.526 . S
C1443 C1444 1.396 . S
C1443 C1448 1.390 . S
C1444 C1438 1.465 . S
C1444 C1443 1.396 . S
C1444 C1445 1.399 . S
C1445 H1431 0.929 . S
C1445 C1444 1.399 . S
C1445 C1446 1.385 . S
C1446 H1432 0.931 . S
C1446 C1445 1.385 . S
C1446 C1447 1.389 . S
C1447 C1446 1.389 . S
C1447 C1448 1.387 . S
C1448 H1433 0.930 . S
C1448 C1443 1.390 . S
C1448 C1447 1.387 . S
H1449 C1461 0.930 1_545 S
H1450 C1463 0.930 1_545 S
H1451 C1464 0.930 . S
H1452 C1468 0.959 . S
H1453 C1468 0.959 . S
H1454 C1468 0.961 . S
H1455 C1469 0.960 . S
H1456 C1469 0.961 . S
H1457 C1469 0.959 . S
H1458 C1472 0.929 . S
H1459 C1473 0.931 . S
H1460 C1475 0.930 . S
C1461 H1449 0.930 1_565 S
C1461 C1462 1.399 1_565 S
C1461 C1466 1.399 . S
C1462 C1461 1.399 1_545 S
C1462 C1463 1.376 1_545 S
C1463 H1450 0.930 1_565 S
C1463 C1462 1.376 1_565 S
C1463 C1464 1.388 . S
C1464 H1451 0.930 . S
C1464 C1463 1.388 . S
C1464 C1465 1.390 . S
C1465 C1464 1.390 . S
C1465 C1466 1.394 . S
C1465 C1471 1.465 . S
C1466 C1461 1.399 . S
C1466 C1465 1.394 . S
C1466 C1467 1.516 . S
C1467 C1466 1.516 . S
C1467 C1468 1.502 . S
C1467 C1469 1.561 . S
C1467 C1470 1.526 . S
C1468 H1452 0.959 . S
C1468 H1453 0.959 . S
C1468 H1454 0.961 . S
C1468 C1467 1.502 . S
C1469 H1455 0.960 . S
C1469 H1456 0.961 . S
C1469 H1457 0.959 . S
C1469 C1467 1.561 . S
C1470 C1467 1.526 . S
C1470 C1471 1.396 . S
C1470 C1475 1.390 . S
C1471 C1465 1.465 . S
C1471 C1470 1.396 . S
C1471 C1472 1.399 . S
C1472 H1458 0.929 . S
C1472 C1471 1.399 . S
C1472 C1473 1.385 . S
C1473 H1459 0.931 . S
C1473 C1472 1.385 . S
C1473 C1474 1.389 . S
C1474 C1473 1.389 . S
C1474 C1475 1.387 . S
C1475 H1460 0.930 . S
C1475 C1470 1.390 . S
C1475 C1474 1.387 . S
H1476 C1488 0.930 . S
H1477 C1490 0.930 . S
H1478 C1491 0.930 . S
H1479 C1495 0.959 . S
H1480 C1495 0.959 1_655 S
H1481 C1495 0.961 . S
H1482 C1496 0.960 . S
H1483 C1496 0.961 . S
H1484 C1496 0.959 . S
H1485 C1499 0.929 . S
H1486 C1500 0.926 . S
H1487 C1502 0.930 . S
C1488 H1476 0.930 . S
C1488 C1489 1.399 . S
C1488 C1493 1.399 . S
C1489 C1488 1.399 . S
C1489 C1490 1.376 . S
C1490 H1477 0.930 . S
C1490 C1489 1.376 . S
C1490 C1491 1.388 . S
C1491 H1478 0.930 . S
C1491 C1490 1.388 . S
C1491 C1492 1.390 . S
C1492 C1491 1.390 . S
C1492 C1493 1.394 . S
C1492 C1498 1.465 . S
C1493 C1488 1.399 . S
C1493 C1492 1.394 . S
C1493 C1494 1.516 . S
C1494 C1493 1.516 . S
C1494 C1495 1.502 . S
C1494 C1496 1.561 . S
C1494 C1497 1.526 . S
C1495 H1479 0.959 . S
C1495 H1480 0.959 1_455 S
C1495 H1481 0.961 . S
C1495 C1494 1.502 . S
C1496 H1482 0.960 . S
C1496 H1483 0.961 . S
C1496 H1484 0.959 . S
C1496 C1494 1.561 . S
C1497 C1494 1.526 . S
C1497 C1498 1.396 . S
C1497 C1502 1.390 1_455 S
C1498 C1492 1.465 . S
C1498 C1497 1.396 . S
C1498 C1499 1.399 . S
C1499 H1485 0.929 . S
C1499 C1498 1.399 . S
C1499 C1500 1.385 . S
C1500 H1486 0.926 . S
C1500 C1499 1.385 . S
C1500 C1501 1.389 1_455 S
C1501 C1500 1.389 1_655 S
C1501 C1502 1.387 . S
C1502 H1487 0.930 . S
C1502 C1497 1.390 1_655 S
C1502 C1501 1.387 . S
H1503 C1515 0.930 . S
H1504 C1517 0.930 . S
H1505 C1518 0.930 . S
H1506 C1522 0.959 . S
H1507 C1522 0.959 . S
H1508 C1522 0.961 . S
H1509 C1523 0.960 . S
H1510 C1523 0.961 . S
H1511 C1523 0.959 . S
H1512 C1526 0.929 . S
H1513 C1527 0.931 . S
H1514 C1529 0.930 . S
C1515 H1503 0.930 . S
C1515 C1516 1.399 . S
C1515 C1520 1.399 . S
C1516 C1515 1.399 . S
C1516 C1517 1.376 . S
C1517 H1504 0.930 . S
C1517 C1516 1.376 . S
C1517 C1518 1.388 . S
C1518 H1505 0.930 . S
C1518 C1517 1.388 . S
C1518 C1519 1.390 . S
C1519 C1518 1.390 . S
C1519 C1520 1.394 . S
C1519 C1525 1.465 . S
C1520 C1515 1.399 . S
C1520 C1519 1.394 . S
C1520 C1521 1.516 . S
C1521 C1520 1.516 . S
C1521 C1522 1.502 . S
C1521 C1523 1.561 . S
C1521 C1524 1.526 . S
C1522 H1506 0.959 . S
C1522 H1507 0.959 . S
C1522 H1508 0.961 . S
C1522 C1521 1.502 . S
C1523 H1509 0.960 . S
C1523 H1510 0.961 . S
C1523 H1511 0.959 . S
C1523 C1521 1.561 . S
C1524 C1521 1.526 . S
C1524 C1525 1.396 . S
C1524 C1529 1.390 . S
C1525 C1519 1.465 . S
C1525 C1524 1.396 . S
C1525 C1526 1.399 . S
C1526 H1512 0.929 . S
C1526 C1525 1.399 . S
C1526 C1527 1.385 . S
C1527 H1513 0.931 . S
C1527 C1526 1.385 . S
C1527 C1528 1.389 . S
C1528 C1527 1.389 . S
C1528 C1529 1.387 . S
C1529 H1514 0.930 . S
C1529 C1524 1.390 . S
C1529 C1528 1.387 . S
H1530 C1542 0.930 . S
H1531 C1544 0.930 . S
H1532 C1545 0.930 . S
H1533 C1549 0.959 . S
H1534 C1549 0.959 . S
H1535 C1549 0.961 . S
H1536 C1550 0.960 . S
H1537 C1550 0.961 . S
H1538 C1550 0.959 . S
H1539 C1553 0.929 . S
H1540 C1554 0.931 . S
H1541 C1556 0.930 . S
C1542 H1530 0.930 . S
C1542 C1543 1.399 . S
C1542 C1547 1.399 . S
C1543 C1542 1.399 . S
C1543 C1544 1.376 . S
C1544 H1531 0.930 . S
C1544 C1543 1.376 . S
C1544 C1545 1.388 . S
C1545 H1532 0.930 . S
C1545 C1544 1.388 . S
C1545 C1546 1.390 . S
C1546 C1545 1.390 . S
C1546 C1547 1.394 . S
C1546 C1552 1.465 . S
C1547 C1542 1.399 . S
C1547 C1546 1.394 . S
C1547 C1548 1.516 . S
C1548 C1547 1.516 . S
C1548 C1549 1.502 . S
C1548 C1550 1.561 . S
C1548 C1551 1.526 . S
C1549 H1533 0.959 . S
C1549 H1534 0.959 . S
C1549 H1535 0.961 . S
C1549 C1548 1.502 . S
C1550 H1536 0.960 . S
C1550 H1537 0.961 . S
C1550 H1538 0.959 . S
C1550 C1548 1.561 . S
C1551 C1548 1.526 . S
C1551 C1552 1.396 . S
C1551 C1556 1.390 . S
C1552 C1546 1.465 . S
C1552 C1551 1.396 . S
C1552 C1553 1.399 . S
C1553 H1539 0.929 . S
C1553 C1552 1.399 . S
C1553 C1554 1.385 . S
C1554 H1540 0.931 . S
C1554 C1553 1.385 . S
C1554 C1555 1.389 . S
C1555 C1554 1.389 . S
C1555 C1556 1.387 . S
C1556 H1541 0.930 . S
C1556 C1551 1.390 . S
C1556 C1555 1.387 . S
H1557 C1569 0.930 . S
H1558 C1571 0.930 . S
H1559 C1572 0.930 . S
H1560 C1576 0.959 . S
H1561 C1576 0.959 . S
H1562 C1576 0.961 . S
H1563 C1577 0.960 . S
H1564 C1577 0.961 . S
H1565 C1577 0.959 . S
H1566 C1580 0.929 . S
H1567 C1581 0.931 . S
H1568 C1583 0.930 . S
C1569 H1557 0.930 . S
C1569 C1570 1.399 . S
C1569 C1574 1.399 . S
C1570 C1569 1.399 . S
C1570 C1571 1.376 . S
C1571 H1558 0.930 . S
C1571 C1570 1.376 . S
C1571 C1572 1.388 . S
C1572 H1559 0.930 . S
C1572 C1571 1.388 . S
C1572 C1573 1.390 . S
C1573 C1572 1.390 . S
C1573 C1574 1.394 . S
C1573 C1579 1.465 . S
C1574 C1569 1.399 . S
C1574 C1573 1.394 . S
C1574 C1575 1.516 . S
C1575 C1574 1.516 . S
C1575 C1576 1.502 . S
C1575 C1577 1.561 . S
C1575 C1578 1.526 . S
C1576 H1560 0.959 . S
C1576 H1561 0.959 . S
C1576 H1562 0.961 . S
C1576 C1575 1.502 . S
C1577 H1563 0.960 . S
C1577 H1564 0.961 . S
C1577 H1565 0.959 . S
C1577 C1575 1.561 . S
C1578 C1575 1.526 . S
C1578 C1579 1.396 . S
C1578 C1583 1.390 . S
C1579 C1573 1.465 . S
C1579 C1578 1.396 . S
C1579 C1580 1.399 . S
C1580 H1566 0.929 . S
C1580 C1579 1.399 . S
C1580 C1581 1.385 . S
C1581 H1567 0.931 . S
C1581 C1580 1.385 . S
C1581 C1582 1.389 . S
C1582 C1581 1.389 . S
C1582 C1583 1.387 . S
C1583 H1568 0.930 . S
C1583 C1578 1.390 . S
C1583 C1582 1.387 . S
H1584 C1596 0.930 . S
H1585 C1598 0.930 . S
H1586 C1599 0.930 . S
H1587 C1603 0.959 . S
H1588 C1603 0.959 . S
H1589 C1603 0.961 . S
H1590 C1604 0.960 . S
H1591 C1604 0.961 . S
H1592 C1604 0.959 . S
H1593 C1607 0.929 . S
H1594 C1608 0.931 . S
H1595 C1610 0.930 . S
C1596 H1584 0.930 . S
C1596 C1597 1.399 . S
C1596 C1601 1.399 . S
C1597 C1596 1.399 . S
C1597 C1598 1.376 . S
C1598 H1585 0.930 . S
C1598 C1597 1.376 . S
C1598 C1599 1.388 . S
C1599 H1586 0.930 . S
C1599 C1598 1.388 . S
C1599 C1600 1.390 . S
C1600 C1599 1.390 . S
C1600 C1601 1.394 . S
C1600 C1606 1.465 . S
C1601 C1596 1.399 . S
C1601 C1600 1.394 . S
C1601 C1602 1.516 . S
C1602 C1601 1.516 . S
C1602 C1603 1.502 . S
C1602 C1604 1.561 . S
C1602 C1605 1.526 . S
C1603 H1587 0.959 . S
C1603 H1588 0.959 . S
C1603 H1589 0.961 . S
C1603 C1602 1.502 . S
C1604 H1590 0.960 . S
C1604 H1591 0.961 . S
C1604 H1592 0.959 . S
C1604 C1602 1.561 . S
C1605 C1602 1.526 . S
C1605 C1606 1.396 . S
C1605 C1610 1.390 . S
C1606 C1600 1.465 . S
C1606 C1605 1.396 . S
C1606 C1607 1.399 . S
C1607 H1593 0.929 . S
C1607 C1606 1.399 . S
C1607 C1608 1.385 . S
C1608 H1594 0.931 . S
C1608 C1607 1.385 . S
C1608 C1609 1.389 . S
C1609 C1608 1.389 . S
C1609 C1610 1.387 . S
C1610 H1595 0.930 . S
C1610 C1605 1.390 . S
C1610 C1609 1.387 . S
H1611 C1623 0.930 . S
H1612 C1625 0.930 . S
H1613 C1626 0.930 . S
H1614 C1630 0.959 . S
H1615 C1630 0.959 . S
H1616 C1630 0.961 . S
H1617 C1631 0.960 . S
H1618 C1631 0.961 . S
H1619 C1631 0.959 . S
H1620 C1634 0.929 . S
H1621 C1635 0.931 . S
H1622 C1637 0.930 . S
C1623 H1611 0.930 . S
C1623 C1624 1.399 . S
C1623 C1628 1.399 . S
C1624 C1623 1.399 . S
C1624 C1625 1.376 . S
C1625 H1612 0.930 . S
C1625 C1624 1.376 . S
C1625 C1626 1.388 . S
C1626 H1613 0.930 . S
C1626 C1625 1.388 . S
C1626 C1627 1.390 . S
C1627 C1626 1.390 . S
C1627 C1628 1.394 . S
C1627 C1633 1.465 . S
C1628 C1623 1.399 . S
C1628 C1627 1.394 . S
C1628 C1629 1.516 . S
C1629 C1628 1.516 . S
C1629 C1630 1.502 . S
C1629 C1631 1.561 . S
C1629 C1632 1.526 . S
C1630 H1614 0.959 . S
C1630 H1615 0.959 . S
C1630 H1616 0.961 . S
C1630 C1629 1.502 . S
C1631 H1617 0.960 . S
C1631 H1618 0.961 . S
C1631 H1619 0.959 . S
C1631 C1629 1.561 . S
C1632 C1629 1.526 . S
C1632 C1633 1.396 . S
C1632 C1637 1.390 . S
C1633 C1627 1.465 . S
C1633 C1632 1.396 . S
C1633 C1634 1.399 . S
C1634 H1620 0.929 . S
C1634 C1633 1.399 . S
C1634 C1635 1.385 . S
C1635 H1621 0.931 . S
C1635 C1634 1.385 . S
C1635 C1636 1.389 . S
C1636 C1635 1.389 . S
C1636 C1637 1.387 . S
C1637 H1622 0.930 . S
C1637 C1632 1.390 . S
C1637 C1636 1.387 . S
H1638 C1650 0.930 . S
H1639 C1652 0.930 . S
H1640 C1653 0.930 . S
H1641 C1657 0.959 . S
H1642 C1657 0.959 . S
H1643 C1657 0.961 . S
H1644 C1658 0.960 . S
H1645 C1658 0.961 . S
H1646 C1658 0.959 . S
H1647 C1661 0.929 . S
H1648 C1662 0.931 . S
H1649 C1664 0.930 . S
C1650 H1638 0.930 . S
C1650 C1651 1.399 . S
C1650 C1655 1.399 . S
C1651 C1650 1.399 . S
C1651 C1652 1.376 . S
C1652 H1639 0.930 . S
C1652 C1651 1.376 . S
C1652 C1653 1.388 . S
C1653 H1640 0.930 . S
C1653 C1652 1.388 . S
C1653 C1654 1.390 . S
C1654 C1653 1.390 . S
C1654 C1655 1.394 . S
C1654 C1660 1.465 . S
C1655 C1650 1.399 . S
C1655 C1654 1.394 . S
C1655 C1656 1.516 . S
C1656 C1655 1.516 . S
C1656 C1657 1.502 . S
C1656 C1658 1.561 . S
C1656 C1659 1.526 . S
C1657 H1641 0.959 . S
C1657 H1642 0.959 . S
C1657 H1643 0.961 . S
C1657 C1656 1.502 . S
C1658 H1644 0.960 . S
C1658 H1645 0.961 . S
C1658 H1646 0.959 . S
C1658 C1656 1.561 . S
C1659 C1656 1.526 . S
C1659 C1660 1.396 . S
C1659 C1664 1.390 . S
C1660 C1654 1.465 . S
C1660 C1659 1.396 . S
C1660 C1661 1.399 . S
C1661 H1647 0.929 . S
C1661 C1660 1.399 . S
C1661 C1662 1.385 . S
C1662 H1648 0.931 . S
C1662 C1661 1.385 . S
C1662 C1663 1.389 . S
C1663 C1662 1.389 . S
C1663 C1664 1.387 . S
C1664 H1649 0.930 . S
C1664 C1659 1.390 . S
C1664 C1663 1.387 . S
H1665 C1677 0.930 . S
H1666 C1679 0.930 . S
H1667 C1680 0.930 . S
H1668 C1684 0.959 . S
H1669 C1684 0.959 . S
H1670 C1684 0.961 . S
H1671 C1685 0.960 . S
H1672 C1685 0.961 . S
H1673 C1685 0.959 . S
H1674 C1688 0.929 . S
H1675 C1689 0.931 . S
H1676 C1691 0.930 . S
C1677 H1665 0.930 . S
C1677 C1678 1.399 . S
C1677 C1682 1.399 . S
C1678 C1677 1.399 . S
C1678 C1679 1.376 . S
C1679 H1666 0.930 . S
C1679 C1678 1.376 . S
C1679 C1680 1.388 . S
C1680 H1667 0.930 . S
C1680 C1679 1.388 . S
C1680 C1681 1.390 . S
C1681 C1680 1.390 . S
C1681 C1682 1.394 . S
C1681 C1687 1.465 . S
C1682 C1677 1.399 . S
C1682 C1681 1.394 . S
C1682 C1683 1.516 . S
C1683 C1682 1.516 . S
C1683 C1684 1.502 . S
C1683 C1685 1.561 . S
C1683 C1686 1.526 . S
C1684 H1668 0.959 . S
C1684 H1669 0.959 . S
C1684 H1670 0.961 . S
C1684 C1683 1.502 . S
C1685 H1671 0.960 . S
C1685 H1672 0.961 . S
C1685 H1673 0.959 . S
C1685 C1683 1.561 . S
C1686 C1683 1.526 . S
C1686 C1687 1.396 . S
C1686 C1691 1.390 . S
C1687 C1681 1.465 . S
C1687 C1686 1.396 . S
C1687 C1688 1.399 . S
C1688 H1674 0.929 . S
C1688 C1687 1.399 . S
C1688 C1689 1.385 . S
C1689 H1675 0.931 . S
C1689 C1688 1.385 . S
C1689 C1690 1.389 . S
C1690 C1689 1.389 . S
C1690 C1691 1.387 . S
C1691 H1676 0.930 . S
C1691 C1686 1.390 . S
C1691 C1690 1.387 . S
H1692 C1704 0.930 . S
H1693 C1706 0.930 . S
H1694 C1707 0.930 . S
H1695 C1711 0.959 . S
H1696 C1711 0.959 . S
H1697 C1711 0.961 . S
H1698 C1712 0.960 . S
H1699 C1712 0.961 . S
H1700 C1712 0.959 . S
H1701 C1715 0.929 . S
H1702 C1716 0.931 . S
H1703 C1718 0.930 . S
C1704 H1692 0.930 . S
C1704 C1705 1.399 . S
C1704 C1709 1.399 . S
C1705 C1704 1.399 . S
C1705 C1706 1.376 . S
C1706 H1693 0.930 . S
C1706 C1705 1.376 . S
C1706 C1707 1.388 . S
C1707 H1694 0.930 . S
C1707 C1706 1.388 . S
C1707 C1708 1.390 . S
C1708 C1707 1.390 . S
C1708 C1709 1.394 . S
C1708 C1714 1.465 . S
C1709 C1704 1.399 . S
C1709 C1708 1.394 . S
C1709 C1710 1.516 . S
C1710 C1709 1.516 . S
C1710 C1711 1.502 . S
C1710 C1712 1.561 . S
C1710 C1713 1.526 . S
C1711 H1695 0.959 . S
C1711 H1696 0.959 . S
C1711 H1697 0.961 . S
C1711 C1710 1.502 . S
C1712 H1698 0.960 . S
C1712 H1699 0.961 . S
C1712 H1700 0.959 . S
C1712 C1710 1.561 . S
C1713 C1710 1.526 . S
C1713 C1714 1.396 . S
C1713 C1718 1.390 . S
C1714 C1708 1.465 . S
C1714 C1713 1.396 . S
C1714 C1715 1.399 . S
C1715 H1701 0.929 . S
C1715 C1714 1.399 . S
C1715 C1716 1.385 . S
C1716 H1702 0.931 . S
C1716 C1715 1.385 . S
C1716 C1717 1.389 . S
C1717 C1716 1.389 . S
C1717 C1718 1.387 . S
C1718 H1703 0.930 . S
C1718 C1713 1.390 . S
C1718 C1717 1.387 . S
H1719 C1731 0.930 . S
H1720 C1733 0.930 . S
H1721 C1734 0.930 . S
H1722 C1738 0.959 . S
H1723 C1738 0.959 . S
H1724 C1738 0.961 . S
H1725 C1739 0.960 . S
H1726 C1739 0.961 . S
H1727 C1739 0.959 . S
H1728 C1742 0.929 . S
H1729 C1743 0.931 . S
H1730 C1745 0.930 . S
C1731 H1719 0.930 . S
C1731 C1732 1.399 . S
C1731 C1736 1.399 . S
C1732 C1731 1.399 . S
C1732 C1733 1.376 . S
C1733 H1720 0.930 . S
C1733 C1732 1.376 . S
C1733 C1734 1.388 . S
C1734 H1721 0.930 . S
C1734 C1733 1.388 . S
C1734 C1735 1.390 . S
C1735 C1734 1.390 . S
C1735 C1736 1.394 . S
C1735 C1741 1.465 . S
C1736 C1731 1.399 . S
C1736 C1735 1.394 . S
C1736 C1737 1.516 . S
C1737 C1736 1.516 . S
C1737 C1738 1.502 . S
C1737 C1739 1.561 . S
C1737 C1740 1.526 . S
C1738 H1722 0.959 . S
C1738 H1723 0.959 . S
C1738 H1724 0.961 . S
C1738 C1737 1.502 . S
C1739 H1725 0.960 . S
C1739 H1726 0.961 . S
C1739 H1727 0.959 . S
C1739 C1737 1.561 . S
C1740 C1737 1.526 . S
C1740 C1741 1.396 . S
C1740 C1745 1.390 . S
C1741 C1735 1.465 . S
C1741 C1740 1.396 . S
C1741 C1742 1.399 . S
C1742 H1728 0.929 . S
C1742 C1741 1.399 . S
C1742 C1743 1.385 . S
C1743 H1729 0.931 . S
C1743 C1742 1.385 . S
C1743 C1744 1.389 . S
C1744 C1743 1.389 . S
C1744 C1745 1.387 . S
C1745 H1730 0.930 . S
C1745 C1740 1.390 . S
C1745 C1744 1.387 . S
H1746 C1758 0.930 . S
H1747 C1760 0.930 . S
H1748 C1761 0.930 . S
H1749 C1765 0.959 . S
H1750 C1765 0.959 . S
H1751 C1765 0.961 . S
H1752 C1766 0.960 . S
H1753 C1766 0.961 . S
H1754 C1766 0.959 . S
H1755 C1769 0.929 . S
H1756 C1770 0.931 . S
H1757 C1772 0.930 . S
C1758 H1746 0.930 . S
C1758 C1759 1.399 . S
C1758 C1763 1.399 . S
C1759 C1758 1.399 . S
C1759 C1760 1.376 . S
C1760 H1747 0.930 . S
C1760 C1759 1.376 . S
C1760 C1761 1.388 . S
C1761 H1748 0.930 . S
C1761 C1760 1.388 . S
C1761 C1762 1.390 . S
C1762 C1761 1.390 . S
C1762 C1763 1.394 . S
C1762 C1768 1.465 . S
C1763 C1758 1.399 . S
C1763 C1762 1.394 . S
C1763 C1764 1.516 . S
C1764 C1763 1.516 . S
C1764 C1765 1.502 . S
C1764 C1766 1.561 . S
C1764 C1767 1.526 . S
C1765 H1749 0.959 . S
C1765 H1750 0.959 . S
C1765 H1751 0.961 . S
C1765 C1764 1.502 . S
C1766 H1752 0.960 . S
C1766 H1753 0.961 . S
C1766 H1754 0.959 . S
C1766 C1764 1.561 . S
C1767 C1764 1.526 . S
C1767 C1768 1.396 . S
C1767 C1772 1.390 . S
C1768 C1762 1.465 . S
C1768 C1767 1.396 . S
C1768 C1769 1.399 . S
C1769 H1755 0.929 . S
C1769 C1768 1.399 . S
C1769 C1770 1.385 . S
C1770 H1756 0.931 . S
C1770 C1769 1.385 . S
C1770 C1771 1.389 . S
C1771 C1770 1.389 . S
C1771 C1772 1.387 . S
C1772 H1757 0.930 . S
C1772 C1767 1.390 . S
C1772 C1771 1.387 . S
H1773 C1785 0.930 . S
H1774 C1787 0.930 . S
H1775 C1788 0.930 . S
H1776 C1792 0.959 . S
H1777 C1792 0.959 . S
H1778 C1792 0.961 . S
H1779 C1793 0.960 . S
H1780 C1793 0.961 . S
H1781 C1793 0.959 . S
H1782 C1796 0.929 . S
H1783 C1797 0.931 . S
H1784 C1799 0.930 . S
C1785 H1773 0.930 . S
C1785 C1786 1.399 . S
C1785 C1790 1.399 . S
C1786 C1785 1.399 . S
C1786 C1787 1.376 . S
C1787 H1774 0.930 . S
C1787 C1786 1.376 . S
C1787 C1788 1.388 . S
C1788 H1775 0.930 . S
C1788 C1787 1.388 . S
C1788 C1789 1.390 . S
C1789 C1788 1.390 . S
C1789 C1790 1.394 . S
C1789 C1795 1.465 . S
C1790 C1785 1.399 . S
C1790 C1789 1.394 . S
C1790 C1791 1.516 . S
C1791 C1790 1.516 . S
C1791 C1792 1.502 . S
C1791 C1793 1.561 . S
C1791 C1794 1.526 . S
C1792 H1776 0.959 . S
C1792 H1777 0.959 . S
C1792 H1778 0.961 . S
C1792 C1791 1.502 . S
C1793 H1779 0.960 . S
C1793 H1780 0.961 . S
C1793 H1781 0.959 . S
C1793 C1791 1.561 . S
C1794 C1791 1.526 . S
C1794 C1795 1.396 . S
C1794 C1799 1.390 . S
C1795 C1789 1.465 . S
C1795 C1794 1.396 . S
C1795 C1796 1.399 . S
C1796 H1782 0.929 . S
C1796 C1795 1.399 . S
C1796 C1797 1.385 . S
C1797 H1783 0.931 . S
C1797 C1796 1.385 . S
C1797 C1798 1.389 . S
C1798 C1797 1.389 . S
C1798 C1799 1.387 . S
C1799 H1784 0.930 . S
C1799 C1794 1.390 . S
C1799 C1798 1.387 . S
H1800 C1812 0.930 . S
H1801 C1814 0.930 . S
H1802 C1815 0.930 . S
H1803 C1819 0.959 . S
H1804 C1819 0.959 . S
H1805 C1819 0.961 . S
H1806 C1820 0.960 . S
H1807 C1820 0.961 . S
H1808 C1820 0.959 . S
H1809 C1823 0.929 . S
H1810 C1824 0.931 . S
H1811 C1826 0.930 . S
C1812 H1800 0.930 . S
C1812 C1813 1.399 . S
C1812 C1817 1.399 . S
C1813 C1812 1.399 . S
C1813 C1814 1.376 . S
C1814 H1801 0.930 . S
C1814 C1813 1.376 . S
C1814 C1815 1.388 . S
C1815 H1802 0.930 . S
C1815 C1814 1.388 . S
C1815 C1816 1.390 . S
C1816 C1815 1.390 . S
C1816 C1817 1.394 . S
C1816 C1822 1.465 . S
C1817 C1812 1.399 . S
C1817 C1816 1.394 . S
C1817 C1818 1.516 . S
C1818 C1817 1.516 . S
C1818 C1819 1.502 . S
C1818 C1820 1.561 . S
C1818 C1821 1.526 . S
C1819 H1803 0.959 . S
C1819 H1804 0.959 . S
C1819 H1805 0.961 . S
C1819 C1818 1.502 . S
C1820 H1806 0.960 . S
C1820 H1807 0.961 . S
C1820 H1808 0.959 . S
C1820 C1818 1.561 . S
C1821 C1818 1.526 . S
C1821 C1822 1.396 . S
C1821 C1826 1.390 . S
C1822 C1816 1.465 . S
C1822 C1821 1.396 . S
C1822 C1823 1.399 . S
C1823 H1809 0.929 . S
C1823 C1822 1.399 . S
C1823 C1824 1.385 . S
C1824 H1810 0.931 . S
C1824 C1823 1.385 . S
C1824 C1825 1.389 . S
C1825 C1824 1.389 . S
C1825 C1826 1.387 . S
C1826 H1811 0.930 . S
C1826 C1821 1.390 . S
C1826 C1825 1.387 . S
C625 C315 0.613 . S
C637 C9 0.508 . S
C652 C349 0.599 . S
C664 C43 0.430 . S
C679 C383 0.351 . S
C691 C77 0.526 . S
C706 C111 0.599 . S
C718 C417 0.432 . S
C733 C451 0.612 . S
C745 C145 0.485 . S
C760 C485 0.611 . S
C772 C179 0.470 . S
C787 C213 0.364 . S
C799 C519 0.549 . S
C814 C553 0.613 . S
C826 C247 0.486 . S
C841 C587 0.613 . S
C853 C281 0.500 . S
C868 C598 1.881 . S
C880 C20 1.914 . S
C895 C530 1.880 . S
C907 C54 1.874 . S
C922 C88 1.887 . S
C934 C564 1.871 . S
C949 C258 1.911 . S
C961 C122 1.878 . S
C976 C292 1.873 . S
C988 C156 1.881 . S
C1003 C190 1.911 . S
C1015 C224 1.878 . S
C1030 C326 1.915 . S
C1042 C462 1.889 . S
C1057 C496 1.905 . S
C1069 C360 1.910 . S
C1084 C394 1.880 . S
C1096 C428 1.913 . S
C1111 C2 1.809 . S
C1123 C138 1.808 . S
C1138 C172 1.818 . S
C1150 C36 1.818 . S
C1165 C104 1.790 . S
C1177 C70 1.840 . S
C1192 C342 1.840 . S
C1204 C206 1.785 . S
C1219 C240 1.841 . S
C1231 C376 1.788 . S
C1246 C308 1.806 . S
C1258 C274 1.829 . S
C1273 C410 1.804 . S
C1285 C546 1.813 . S
C1300 C580 1.811 . S
C1312 C444 1.825 . S
C1327 C478 1.808 . S
C1339 C512 1.809 . S
C1354 C101 1.290 1_545 S
C1366 C5 1.329 . S
C1381 C33 1.300 1_655 S
C1393 C39 1.299 . S
C1408 C67 1.312 . S
C1420 C73 1.287 . S
C1435 C169 1.344 1_455 S
C1447 C107 1.344 . S
C1462 C141 1.313 . S
C1474 C203 1.293 . S
C1489 C135 1.295 1_565 S
C1501 C175 1.345 . S
C1516 C305 1.358 . S
C1528 C209 1.299 . S
C1543 C237 1.291 . S
C1555 C243 1.338 . S
C1570 C277 1.357 . S
C1582 C271 1.318 . S
C1597 C311 1.346 . S
C1609 C373 1.296 . S
C1624 C407 1.358 . S
C1636 C345 1.299 . S
C1651 C339 1.290 . S
C1663 C379 1.330 . S
C1678 C413 1.316 . S
C1690 C509 1.359 . S
C1705 C441 1.354 . S
C1717 C447 1.291 . S
C1732 C475 1.343 . S
C1744 C481 1.346 . S
C1759 C577 1.307 . S
C1771 C515 1.291 . S
C1786 C611 1.322 . S
C1798 C549 1.356 . S
C1813 C543 1.294 . S
C1825 C583 1.344 . S
