# Generated by pormake.
# Topology sma, (6)-cn, num edge types: 1
# Building blocks:
#     Node 0, Type 0, BuildingBlock: PAMTUU_clean_sbu_0, # of connection points: 6
#     Node 1, Type 0, BuildingBlock: PAMTUU_clean_sbu_0, # of connection points: 6
#     Node 2, Type 0, BuildingBlock: PAMTUU_clean_sbu_0, # of connection points: 6
#     Edge 3, Type (0, 0), BuildingBlock: XUDNAN_clean_linker_2, # of connection points: 2
#     Edge 4, Type (0, 0), BuildingBlock: XUDNAN_clean_linker_2, # of connection points: 2
#     Edge 5, Type (0, 0), BuildingBlock: XUDNAN_clean_linker_2, # of connection points: 2
#     Edge 6, Type (0, 0), BuildingBlock: XUDNAN_clean_linker_2, # of connection points: 2
#     Edge 7, Type (0, 0), BuildingBlock: XUDNAN_clean_linker_2, # of connection points: 2
#     Edge 8, Type (0, 0), BuildingBlock: XUDNAN_clean_linker_2, # of connection points: 2
#     Edge 9, Type (0, 0), BuildingBlock: XUDNAN_clean_linker_2, # of connection points: 2
#     Edge 10, Type (0, 0), BuildingBlock: XUDNAN_clean_linker_2, # of connection points: 2
#     Edge 11, Type (0, 0), BuildingBlock: XUDNAN_clean_linker_2, # of connection points: 2
# Relax obj value: 0.066
# Max RMSD: 0.176
# Mean RMSD: 0.171
data_MOF--net-sma--node1-PAMTUU_clean_sbu_0--edge1-XUDNAN_clean_linker_2
_symmetry_space_group_name_H-M    P1
_symmetry_Int_Tables_number       1
_symmetry_cell_setting            triclinic
loop_
_symmetry_equiv_pos_as_xyz
'x, y, z'
_cell_length_a     39.030516
_cell_length_b     39.364081
_cell_length_c     14.449662
_cell_angle_alpha  96.677073
_cell_angle_beta   91.823926
_cell_angle_gamma 120.62779
loop_
_atom_site_label
_atom_site_type_symbol
_atom_site_fract_x
_atom_site_fract_y
_atom_site_fract_z
_atom_type_partial_charge
Tb0 Tb 1.03666 0.57483 0.14769 0.0
Tb1 Tb 0.08519 0.52576 0.11532 0.0
C2 C 1.04018 0.53424 -0.04438 0.0
C3 C 0.96243 0.60673 0.10617 0.0
C4 C 0.8972 0.60588 0.01182 0.0
C5 C 0.93569 0.62653 -0.01775 0.0
C6 C 0.96791 0.62703 0.02892 0.0
C7 C 0.9238 0.58548 0.13476 0.0
C8 C 0.89151 0.5849 0.08784 0.0
C9 C 0.99707 0.60953 0.15991 0.0
O10 O 0.99168 0.51118 0.12504 0.0
O11 O 1.03027 0.48652 0.17415 0.0
O12 O 0.10668 0.55773 0.25529 0.0
O13 O 1.05486 0.56872 0.28511 0.0
O14 O 0.11188 0.50631 0.0161 0.0
O15 O 0.1076 0.49036 0.15536 0.0
O16 O 0.12528 0.58709 0.09124 0.0
O17 O 0.09984 0.6197 0.18063 0.0
O18 O 1.04531 0.56738 0.00152 0.0
O19 O 1.03991 0.5075 0.0011 0.0
C20 C 0.99519 0.48317 0.15821 0.0
O21 O 0.98998 0.57977 0.20364 0.0
O22 O 1.03009 0.62247 0.11995 0.0
C23 C 0.08579 0.56606 0.31289 0.0
C24 C 0.16217 0.49603 0.07648 0.0
C25 C 0.23902 0.50654 0.06668 0.0
C26 C 0.23367 0.5394 0.06922 0.0
C27 C 0.19551 0.53421 0.07435 0.0
C28 C 0.16747 0.4634 0.07488 0.0
C29 C 0.20544 0.46854 0.07001 0.0
C30 C 0.12128 0.48882 0.07475 0.0
C31 C 0.12938 0.61985 0.13892 0.0
H32 H 0.94101 0.64266 0.92336 0.0
H33 H 0.99724 0.64389 0.00516 0.0
H34 H 0.91863 0.56991 0.19464 0.0
H35 H 0.86237 0.56916 0.1132 0.0
H36 H 0.25896 0.56909 0.06756 0.0
H37 H 0.19195 0.5598 0.07544 0.0
H38 H 0.14203 0.43369 0.07566 0.0
H39 H 0.20831 0.44248 0.06658 0.0
Tb40 Tb 0.54531 1.03176 0.49757 0.0
Tb41 Tb 0.64489 0.0801 0.48384 0.0
C42 C 0.58336 0.04686 0.31589 0.0
C43 C 0.43746 0.95537 0.44859 0.0
C44 C 0.37519 0.87941 0.3589 0.0
C45 C 0.40867 0.90309 0.31257 0.0
C46 C 0.43955 0.9405 0.35709 0.0
C47 C 0.40414 0.93208 0.495 0.0
C48 C 0.37335 0.89446 0.4508 0.0
C49 C 0.47019 0.99453 0.49696 0.0
O50 O 0.55904 0.98471 0.48697 0.0
O51 O 0.62663 1.01693 0.46304 0.0
O52 O 0.6364 0.05541 0.61203 0.0
O53 O 0.57574 0.05035 0.63795 0.0
O54 O 0.68922 0.09061 0.39318 0.0
O55 O 0.70454 0.12274 0.53458 0.0
O56 O 0.63293 0.12365 0.55634 0.0
O57 O 0.5662 0.09524 0.50446 0.0
O58 O 0.55676 1.01881 0.35767 0.0
O59 O 0.61045 0.08072 0.36522 0.0
C60 C 0.59209 0.98467 0.47156 0.0
O61 O 0.49421 0.99347 0.55996 0.0
O62 O 0.48979 1.02168 0.44399 0.0
C63 C 0.60784 0.04963 0.66489 0.0
C64 C 0.7416 0.15801 0.41679 0.0
C65 C 0.78841 0.23032 0.34547 0.0
C66 C 0.75386 0.22284 0.38861 0.0
C67 C 0.73061 0.187 0.42352 0.0
C68 C 0.77585 0.16517 0.37372 0.0
C69 C 0.79903 0.20093 0.33833 0.0
C70 C 0.71727 0.1201 0.45306 0.0
C71 C 0.60079 0.12601 0.54373 0.0
H72 H 0.41099 0.8929 0.24144 0.0
H73 H 0.4651 0.95776 0.31987 0.0
H74 H 0.4021 0.94283 0.56591 0.0
H75 H 0.34849 0.87692 0.48945 0.0
H76 H 0.74498 0.24488 0.39657 0.0
H77 H 0.70412 0.18199 0.45609 0.0
H78 H 0.7846 0.14299 0.36711 0.0
H79 H 0.825 0.2053 0.30427 0.0
Tb80 Tb 0.55207 0.51346 0.8123 0.0
Tb81 Tb 0.58152 0.61045 0.85132 0.0
C82 C 0.5417 0.55639 0.66161 0.0
C83 C 0.54388 0.41282 0.75413 0.0
C84 C 0.56917 0.35708 0.72363 0.0
C85 C 0.54054 0.3558 0.65942 0.0
C86 C 0.52801 0.38326 0.67473 0.0
C87 C 0.57294 0.41479 0.81809 0.0
C88 C 0.58544 0.3871 0.80298 0.0
C89 C 0.52871 0.44032 0.76794 0.0
O90 O 0.6134 0.54626 0.77637 0.0
O91 O 0.635 0.60699 0.86782 0.0
O92 O 0.58018 0.59166 -0.01316 0.0
O93 O 0.5863 0.53644 -0.05215 0.0
O94 O 0.62483 0.66888 0.83491 0.0
O95 O 0.57223 0.65724 0.9019 0.0
O96 O 0.51634 0.57697 0.8488 0.0
O97 O 0.50733 0.51814 0.88907 0.0
O98 O 0.52195 0.52696 0.70826 0.0
O99 O 0.5723 0.59025 0.70277 0.0
C100 C 0.64222 0.58123 0.81993 0.0
O101 O 0.53088 0.45706 0.85313 0.0
O102 O 0.53775 0.46516 0.70789 0.0
C103 C 0.58568 0.56322 0.00985 0.0
C104 C 0.59879 0.70983 0.81176 0.0
C105 C 0.5921 0.76162 0.70243 0.0
C106 C 0.60599 0.77406 0.79847 0.0
C107 C 0.60932 0.7484 0.85247 0.0
C108 C 0.58459 0.69703 0.71626 0.0
C109 C 0.58133 0.72269 0.66204 0.0
C110 C 0.60404 0.68388 0.86887 0.0
C111 C 0.49541 0.54381 0.88472 0.0
H112 H 0.52799 0.33375 0.59658 0.0
H113 H 0.5057 0.38135 0.62429 0.0
H114 H 0.58572 0.43744 0.87985 0.0
H115 H 0.60733 0.38882 0.85423 0.0
H116 H 0.61387 0.8035 0.83231 0.0
H117 H 0.6203 0.75876 0.92612 0.0
H118 H 0.57643 0.66734 0.68349 0.0
H119 H 0.57092 0.71223 0.58819 0.0
H120 H 0.29665 0.55182 -0.04438 0.0
H121 H 0.27189 0.47146 0.15953 0.0
H122 H 0.33536 0.47386 0.13707 0.0
H123 H 0.33933 0.51179 0.79929 0.0
H124 H 0.37755 0.55907 0.7707 0.0
H125 H 0.3312 0.55314 0.80595 0.0
H126 H 0.3703 0.61325 0.93923 0.0
H127 H 0.41684 0.6196 0.90388 0.0
H128 H 0.40559 0.61329 0.02292 0.0
H129 H 0.39847 0.48091 0.08562 0.0
H130 H 0.46011 0.49534 0.01477 0.0
H131 H 0.44641 0.57336 0.84766 0.0
C132 C 0.30497 0.53537 -0.00308 0.0
C133 C 0.27909 0.51122 0.05897 0.0
C134 C 0.29085 0.48966 0.11055 0.0
C135 C 0.32696 0.491 0.09869 0.0
C136 C 0.35128 0.51432 0.03557 0.0
C137 C 0.3411 0.53649 -0.01381 0.0
C138 C 0.37236 0.55832 0.92105 0.0
C139 C 0.354 0.54476 0.81816 0.0
C140 C 0.39247 0.60382 -0.05156 0.0
C141 C 0.40132 0.54444 0.94068 0.0
C142 C 0.38843 0.51903 0.00693 0.0
C143 C 0.40908 0.50101 0.03424 0.0
C144 C 0.44394 0.50921 -0.00697 0.0
C145 C 0.45805 0.53542 0.92549 0.0
C146 C 0.4365 0.55342 0.89951 0.0
H147 H 0.87072 0.2755 0.3516 0.0
H148 H 0.76231 0.27191 0.25438 0.0
H149 H 0.80318 0.33586 0.19587 0.0
H150 H 0.9306 0.38072 0.42677 0.0
H151 H 0.97587 0.38514 0.38746 0.0
H152 H 0.9381 0.33901 0.4217 0.0
H153 H 0.9347 0.30056 0.26005 0.0
H154 H 0.97254 0.34658 0.2254 0.0
H155 H 0.92504 0.3161 0.15465 0.0
H156 H 0.85608 0.401 0.14981 0.0
H157 H 0.91684 0.46162 0.11769 0.0
H158 H 0.99055 0.42154 0.24052 0.0
C159 C 0.85545 0.28783 0.31706 0.0
C160 C 0.81315 0.26855 0.30816 0.0
C161 C 0.79461 0.28627 0.26365 0.0
C162 C 0.81758 0.32252 0.22953 0.0
C163 C 0.85913 0.34071 0.23987 0.0
C164 C 0.87789 0.3239 0.28223 0.0
C165 C 0.92302 0.34956 0.28469 0.0
C166 C 0.94306 0.36449 0.38619 0.0
C167 C 0.9398 0.32684 0.22779 0.0
C168 C 0.9267 0.38353 0.23751 0.0
C169 C 0.88952 0.37789 0.21222 0.0
C170 C 0.88535 0.40563 0.16893 0.0
C171 C 0.9201 0.44002 0.15102 0.0
C172 C 0.95858 0.4464 0.17609 0.0
C173 C 0.96167 0.41756 0.2198 0.0
H174 H 0.64571 0.9731 0.56688 0.0
H175 H 0.53307 0.91064 0.38919 0.0
H176 H 0.52405 0.84585 0.41697 0.0
H177 H 0.67696 0.89834 0.51203 0.0
H178 H 0.69644 0.90541 0.63201 0.0
H179 H 0.69735 0.94624 0.58477 0.0
H180 H 0.65863 0.95431 0.7196 0.0
H181 H 0.65702 0.91321 0.76656 0.0
H182 H 0.61119 0.91216 0.73752 0.0
H183 H 0.5238 0.78852 0.47727 0.0
H184 H 0.53167 0.7428 0.56684 0.0
H185 H 0.64369 0.84263 0.70976 0.0
C186 C 0.62003 0.94569 0.53087 0.0
C187 C 0.59056 0.94661 0.47391 0.0
C188 C 0.55627 0.91033 0.43163 0.0
C189 C 0.55092 0.87348 0.44711 0.0
C190 C 0.57993 0.8735 0.506 0.0
C191 C 0.61387 0.90866 0.54717 0.0
C192 C 0.63812 0.90063 0.61583 0.0
C193 C 0.67968 0.91341 0.58424 0.0
C194 C 0.64141 0.92129 0.71576 0.0
C195 C 0.61227 0.85558 0.60781 0.0
C196 C 0.5791 0.84048 0.54333 0.0
C197 C 0.54997 0.79993 0.52694 0.0
C198 C 0.55479 0.77415 0.578 0.0
C199 C 0.58836 0.78897 0.64526 0.0
C200 C 0.61755 0.83028 0.65937 0.0
H201 H 0.66912 0.53039 0.84245 0.0
H202 H 0.70909 0.65343 0.81658 0.0
H203 H 0.77947 0.67156 0.84802 0.0
H204 H 0.73665 0.55344 0.03599 0.0
H205 H 0.74542 0.51308 0.00378 0.0
H206 H 0.69866 0.508 -0.03621 0.0
H207 H 0.70934 0.49246 0.79179 0.0
H208 H 0.75604 0.4971 0.8311 0.0
H209 H 0.75491 0.52684 0.74648 0.0
H210 H 0.8445 0.67763 0.89566 0.0
H211 H 0.90014 0.67202 -0.0386 0.0
H212 H 0.81838 0.54548 -0.03631 0.0
C213 C 0.69284 0.56083 0.84031 0.0
C214 C 0.68394 0.59046 0.82523 0.0
C215 C 0.7155 0.63031 0.82682 0.0
C216 C 0.75549 0.64083 0.84449 0.0
C217 C 0.76335 0.61119 0.86152 0.0
C218 C 0.73296 0.57199 0.85978 0.0
C219 C 0.74934 0.54692 0.89026 0.0
C220 C 0.73145 0.52934 -0.0213 0.0
C221 C 0.74197 0.51388 0.81011 0.0
C222 C 0.79353 0.57831 0.91099 0.0
C223 C 0.80096 0.61501 0.89251 0.0
C224 C 0.83916 0.64896 0.90924 0.0
C225 C 0.87063 0.64542 -0.0537 0.0
C226 C 0.86375 0.60827 -0.03286 0.0
C227 C 0.82461 0.57428 -0.05141 0.0
H228 H 0.29372 0.84287 0.37073 0.0
H229 H 0.38281 0.82388 0.24158 0.0
H230 H 0.32936 0.75733 0.1639 0.0
H231 H 0.233 0.74295 0.41965 0.0
H232 H 0.18642 0.7412 0.39679 0.0
H233 H 0.23154 0.78826 0.43807 0.0
H234 H 0.22097 0.81702 0.29457 0.0
H235 H 0.17592 0.76993 0.25256 0.0
H236 H 0.21552 0.79154 0.1781 0.0
H237 H 0.26622 0.69174 0.10336 0.0
H238 H 0.19867 0.63152 0.06945 0.0
H239 H 0.15106 0.69249 0.24187 0.0
C240 C 0.30215 0.82475 0.32657 0.0
C241 C 0.34269 0.83905 0.31199 0.0
C242 C 0.35206 0.81421 0.25262 0.0
C243 C 0.32188 0.77616 0.20847 0.0
C244 C 0.28235 0.76312 0.22443 0.0
C245 C 0.27244 0.78658 0.28238 0.0
C246 C 0.2278 0.76497 0.29036 0.0
C247 C 0.2192 0.75899 0.39226 0.0
C248 C 0.20895 0.78719 0.25156 0.0
C249 C 0.21419 0.72559 0.22828 0.0
C250 C 0.24607 0.7252 0.19047 0.0
C251 C 0.241 0.69177 0.13236 0.0
C252 C 0.20244 0.65767 0.11339 0.0
C253 C 0.16936 0.65713 0.15268 0.0
C254 C 0.17552 0.69186 0.2101 0.0
H255 H 0.52221 0.27695 0.65385 0.0
H256 H 0.64486 0.36942 0.7548 0.0
H257 H 0.666 0.3202 0.7219 0.0
H258 H 0.52387 0.1958 0.74187 0.0
H259 H 0.4934 0.15957 0.64105 0.0
H260 H 0.48778 0.20176 0.67592 0.0
H261 H 0.5009 0.22135 0.50991 0.0
H262 H 0.50666 0.17929 0.4746 0.0
H263 H 0.54605 0.22895 0.46255 0.0
H264 H 0.67403 0.26126 0.67372 0.0
H265 H 0.66839 0.19695 0.61705 0.0
H266 H 0.54055 0.14324 0.5438 0.0
C267 C 0.55359 0.28703 0.66866 0.0
C268 C 0.58187 0.32721 0.70697 0.0
C269 C 0.62251 0.33878 0.72667 0.0
C270 C 0.63486 0.31108 0.70761 0.0
C271 C 0.60625 0.2719 0.66881 0.0
C272 C 0.56645 0.25986 0.64974 0.0
C273 C 0.54174 0.21615 0.6069 0.0
C274 C 0.50982 0.19189 0.67024 0.0
C275 C 0.52273 0.21116 0.5076 0.0
C276 C 0.57391 0.20545 0.60447 0.0
C277 C 0.61089 0.23803 0.64062 0.0
C278 C 0.64521 0.23554 0.64547 0.0
C279 C 0.64164 0.19878 0.61296 0.0
C280 C 0.60399 0.16484 0.57585 0.0
C281 C 0.56977 0.16849 0.57151 0.0
H282 H 1.03534 0.57937 0.83249 0.0
H283 H 0.06183 0.48591 0.85739 0.0
H284 H 0.08684 0.49263 0.70266 0.0
H285 H 0.9982 0.54663 0.58952 0.0
H286 H 1.01784 0.59662 0.56375 0.0
H287 H 1.00444 0.58581 0.67925 0.0
H288 H 0.07617 0.64217 0.74857 0.0
H289 H 0.0901 0.65222 0.63269 0.0
H290 H 0.11873 0.6405 0.7092 0.0
H291 H 0.11066 0.5104 0.55012 0.0
H292 H 0.11583 0.52562 0.38899 0.0
H293 H 0.07002 0.60438 0.45856 0.0
C294 C 1.04615 0.56016 0.80497 0.0
C295 C 1.04739 0.53271 0.85718 0.0
C296 C 0.06101 0.50748 0.81869 0.0
C297 C 0.07574 0.51137 0.73149 0.0
C298 C 0.07592 0.5401 0.68373 0.0
C299 C 0.06032 0.56314 0.71745 0.0
C300 C 0.06053 0.58901 0.64795 0.0
C301 C 1.01771 0.57888 0.61833 0.0
C302 C 0.08803 0.63362 0.68698 0.0
C303 C 0.0779 0.57615 0.56913 0.0
C304 C 0.08781 0.54895 0.59266 0.0
C305 C 0.10313 0.53171 0.5305 0.0
C306 C 0.10624 0.54078 0.43957 0.0
C307 C 0.09312 0.56601 0.41223 0.0
C308 C 0.08031 0.58511 0.47848 0.0
H309 H 0.63423 0.09876 0.20722 0.0
H310 H 0.54139 0.97467 0.20291 0.0
H311 H 0.54894 0.95947 0.03742 0.0
H312 H 0.60256 0.10844 -0.00428 0.0
H313 H 0.65158 0.1406 -0.0387 0.0
H314 H 0.64447 0.13995 0.0833 0.0
H315 H 0.69979 0.12286 0.10797 0.0
H316 H 0.70682 0.12312 -0.01476 0.0
H317 H 0.69569 0.07972 0.03777 0.0
H318 H 0.55858 0.95945 0.87148 0.0
H319 H 0.56584 0.97622 0.71091 0.0
H320 H 0.65261 0.09975 0.8213 0.0
C321 C 0.61598 0.06826 0.1718 0.0
C322 C 0.58729 0.03789 0.21727 0.0
C323 C 0.56351 0.99842 0.16883 0.0
C324 C 0.56797 0.98936 0.07539 0.0
C325 C 0.59647 1.02005 0.03228 0.0
C326 C 0.61997 0.05876 0.07864 0.0
C327 C 0.64437 0.08729 0.01318 0.0
C328 C 0.63515 0.12101 0.01337 0.0
C329 C 0.68934 0.10423 0.0375 0.0
C330 C 0.62883 0.05899 0.9216 0.0
C331 C 0.60219 1.02008 0.9347 0.0
C332 C 0.58009 0.98946 0.86011 0.0
C333 C 0.5842 0.99917 0.76974 0.0
C334 C 0.61004 0.03898 0.7561 0.0
C335 C 0.63358 0.06898 0.83169 0.0
H336 H 0.56317 0.6107 0.54261 0.0
H337 H 0.50907 0.48379 0.55192 0.0
H338 H 0.51634 0.47229 0.38451 0.0
H339 H 0.51812 0.59786 0.29836 0.0
H340 H 0.56242 0.64203 0.27435 0.0
H341 H 0.54785 0.63885 0.39156 0.0
H342 H 0.61827 0.65401 0.45141 0.0
H343 H 0.6326 0.65559 0.33414 0.0
H344 H 0.63567 0.6218 0.40341 0.0
H345 H 0.53953 0.47628 0.22668 0.0
H346 H 0.56201 0.49261 0.07215 0.0
H347 H 0.59873 0.61661 0.16433 0.0
C348 C 0.55175 0.58037 0.50854 0.0
C349 C 0.536 0.54821 0.55957 0.0
C350 C 0.52121 0.50883 0.5135 0.0
C351 C 0.52547 0.50202 0.41879 0.0
C352 C 0.54363 0.53482 0.37183 0.0
C353 C 0.55518 0.57298 0.41395 0.0
C354 C 0.57458 0.60309 0.34812 0.0
C355 C 0.54922 0.62153 0.3268 0.0
C356 C 0.61784 0.63551 0.38663 0.0
C357 C 0.57354 0.57604 0.26372 0.0
C358 C 0.55584 0.53688 0.27916 0.0
C359 C 0.55279 0.50668 0.21278 0.0
C360 C 0.56623 0.51641 0.1259 0.0
C361 C 0.58195 0.55588 0.10672 0.0
C362 C 0.58674 0.58621 0.17737 0.0
loop_
_geom_bond_atom_site_label_1
_geom_bond_atom_site_label_2
_geom_bond_distance
_geom_bond_site_symmetry_2
_ccdc_geom_bond_type
Tb0 C9 2.764 . S
Tb0 O10 2.325 . S
Tb0 O13 2.303 1_655 S
Tb0 O17 2.322 1_655 S
Tb0 O18 2.349 1_554 S
Tb0 O21 2.415 . S
Tb0 O22 2.399 . S
Tb1 O11 2.322 1_455 S
Tb1 O12 2.349 . S
Tb1 O14 2.415 . S
Tb1 O15 2.399 . S
Tb1 O16 2.325 . S
Tb1 O19 2.303 . S
Tb1 C30 2.764 . S
C2 O18 1.261 1_455 S
C2 O19 1.257 1_556 S
C3 C6 1.358 . S
C3 C7 1.332 . S
C3 C9 1.504 . S
C4 C5 1.373 . S
C4 C8 1.308 . S
C5 C4 1.373 . S
C5 C6 1.429 . S
C5 H32 0.932 . S
C6 C3 1.358 . S
C6 C5 1.429 . S
C6 H33 0.930 . S
C7 C3 1.332 . S
C7 C8 1.394 . S
C7 H34 0.932 . S
C8 C4 1.308 . S
C8 C7 1.394 . S
C8 H35 0.929 . S
C9 Tb0 2.764 . S
C9 C3 1.504 . S
C9 O21 1.239 . S
C9 O22 1.263 . S
O10 Tb0 2.325 . S
O10 C20 1.236 . S
O11 Tb1 2.322 1_655 S
O11 C20 1.257 . S
O12 Tb1 2.349 . S
O12 C23 1.261 . S
O13 Tb0 2.303 1_455 S
O13 C23 1.257 . S
O14 Tb1 2.415 . S
O14 C30 1.239 . S
O15 Tb1 2.399 . S
O15 C30 1.263 . S
O16 Tb1 2.325 . S
O16 C31 1.236 . S
O17 Tb0 2.322 1_455 S
O17 C31 1.257 . S
O18 Tb0 2.349 1_556 S
O18 C2 1.261 1_655 S
O19 Tb1 2.303 . S
O19 C2 1.257 1_554 S
C20 O10 1.236 . S
C20 O11 1.257 . S
O21 Tb0 2.415 . S
O21 C9 1.239 . S
O22 Tb0 2.399 . S
O22 C9 1.263 . S
C23 O12 1.261 . S
C23 O13 1.257 . S
C24 C27 1.358 . S
C24 C28 1.332 . S
C24 C30 1.504 . S
C25 C26 1.373 . S
C25 C29 1.308 . S
C26 C25 1.373 . S
C26 C27 1.429 . S
C26 H36 0.932 . S
C27 C24 1.358 . S
C27 C26 1.429 . S
C27 H37 0.930 . S
C28 C24 1.332 . S
C28 C29 1.394 . S
C28 H38 0.932 . S
C29 C25 1.308 . S
C29 C28 1.394 . S
C29 H39 0.929 1_554 S
C30 Tb1 2.764 . S
C30 O14 1.239 . S
C30 O15 1.263 . S
C30 C24 1.504 . S
C31 O16 1.236 . S
C31 O17 1.257 . S
H32 C5 0.932 . S
H33 C6 0.930 . S
H34 C7 0.932 . S
H35 C8 0.929 . S
H36 C26 0.932 . S
H37 C27 0.930 . S
H38 C28 0.932 . S
H39 C29 0.929 1_556 S
Tb40 C49 2.764 . S
Tb40 O50 2.325 . S
Tb40 O53 2.303 1_565 S
Tb40 O57 2.322 1_565 S
Tb40 O58 2.349 . S
Tb40 O61 2.415 . S
Tb40 O62 2.399 . S
Tb41 O51 2.322 1_545 S
Tb41 O52 2.349 . S
Tb41 O54 2.415 . S
Tb41 O55 2.399 . S
Tb41 O56 2.325 . S
Tb41 O59 2.303 . S
Tb41 C70 2.764 . S
C42 O58 1.261 1_545 S
C42 O59 1.257 . S
C43 C46 1.358 . S
C43 C47 1.332 . S
C43 C49 1.504 . S
C44 C45 1.373 . S
C44 C48 1.308 . S
C45 C44 1.373 . S
C45 C46 1.429 . S
C45 H72 0.932 . S
C46 C43 1.358 . S
C46 C45 1.429 . S
C46 H73 0.930 . S
C47 C43 1.332 . S
C47 C48 1.394 . S
C47 H74 0.932 . S
C48 C44 1.308 . S
C48 C47 1.394 . S
C48 H75 0.929 . S
C49 Tb40 2.764 . S
C49 C43 1.504 . S
C49 O61 1.239 . S
C49 O62 1.263 . S
O50 Tb40 2.325 . S
O50 C60 1.236 . S
O51 Tb41 2.322 1_565 S
O51 C60 1.257 . S
O52 Tb41 2.349 . S
O52 C63 1.261 . S
O53 Tb40 2.303 1_545 S
O53 C63 1.257 . S
O54 Tb41 2.415 . S
O54 C70 1.239 . S
O55 Tb41 2.399 . S
O55 C70 1.263 . S
O56 Tb41 2.325 . S
O56 C71 1.236 . S
O57 Tb40 2.322 1_545 S
O57 C71 1.257 . S
O58 Tb40 2.349 . S
O58 C42 1.261 1_565 S
O59 Tb41 2.303 . S
O59 C42 1.257 . S
C60 O50 1.236 . S
C60 O51 1.257 . S
O61 Tb40 2.415 . S
O61 C49 1.239 . S
O62 Tb40 2.399 . S
O62 C49 1.263 . S
C63 O52 1.261 . S
C63 O53 1.257 . S
C64 C67 1.358 . S
C64 C68 1.332 . S
C64 C70 1.504 . S
C65 C66 1.373 . S
C65 C69 1.308 . S
C66 C65 1.373 . S
C66 C67 1.429 . S
C66 H76 0.932 . S
C67 C64 1.358 . S
C67 C66 1.429 . S
C67 H77 0.930 . S
C68 C64 1.332 . S
C68 C69 1.394 . S
C68 H78 0.932 . S
C69 C65 1.308 . S
C69 C68 1.394 . S
C69 H79 0.929 . S
C70 Tb41 2.764 . S
C70 O54 1.239 . S
C70 O55 1.263 . S
C70 C64 1.504 . S
C71 O56 1.236 . S
C71 O57 1.257 . S
H72 C45 0.932 . S
H73 C46 0.930 . S
H74 C47 0.932 . S
H75 C48 0.929 . S
H76 C66 0.932 . S
H77 C67 0.930 . S
H78 C68 0.932 . S
H79 C69 0.929 . S
Tb80 C89 2.764 . S
Tb80 O90 2.325 . S
Tb80 O93 2.303 . S
Tb80 O97 2.322 . S
Tb80 O98 2.349 . S
Tb80 O101 2.415 . S
Tb80 O102 2.399 . S
Tb81 O91 2.322 . S
Tb81 O92 2.349 1_556 S
Tb81 O94 2.415 . S
Tb81 O95 2.399 . S
Tb81 O96 2.325 . S
Tb81 O99 2.303 . S
Tb81 C110 2.764 . S
C82 O98 1.261 . S
C82 O99 1.257 . S
C83 C86 1.358 . S
C83 C87 1.332 . S
C83 C89 1.504 . S
C84 C85 1.373 . S
C84 C88 1.308 . S
C85 C84 1.373 . S
C85 C86 1.429 . S
C85 H112 0.932 . S
C86 C83 1.358 . S
C86 C85 1.429 . S
C86 H113 0.930 . S
C87 C83 1.332 . S
C87 C88 1.394 . S
C87 H114 0.932 . S
C88 C84 1.308 . S
C88 C87 1.394 . S
C88 H115 0.929 . S
C89 Tb80 2.764 . S
C89 C83 1.504 . S
C89 O101 1.239 . S
C89 O102 1.263 . S
O90 Tb80 2.325 . S
O90 C100 1.236 . S
O91 Tb81 2.322 . S
O91 C100 1.257 . S
O92 Tb81 2.349 1_554 S
O92 C103 1.261 . S
O93 Tb80 2.303 . S
O93 C103 1.257 1_556 S
O94 Tb81 2.415 . S
O94 C110 1.239 . S
O95 Tb81 2.399 . S
O95 C110 1.263 . S
O96 Tb81 2.325 . S
O96 C111 1.236 . S
O97 Tb80 2.322 . S
O97 C111 1.257 . S
O98 Tb80 2.349 . S
O98 C82 1.261 . S
O99 Tb81 2.303 . S
O99 C82 1.257 . S
C100 O90 1.236 . S
C100 O91 1.257 . S
O101 Tb80 2.415 . S
O101 C89 1.239 . S
O102 Tb80 2.399 . S
O102 C89 1.263 . S
C103 O92 1.261 . S
C103 O93 1.257 1_554 S
C104 C107 1.358 . S
C104 C108 1.332 . S
C104 C110 1.504 . S
C105 C106 1.373 . S
C105 C109 1.308 . S
C106 C105 1.373 . S
C106 C107 1.429 . S
C106 H116 0.932 . S
C107 C104 1.358 . S
C107 C106 1.429 . S
C107 H117 0.934 . S
C108 C104 1.332 . S
C108 C109 1.394 . S
C108 H118 0.932 . S
C109 C105 1.308 . S
C109 C108 1.394 . S
C109 H119 0.929 . S
C110 Tb81 2.764 . S
C110 O94 1.239 . S
C110 O95 1.263 . S
C110 C104 1.504 . S
C111 O96 1.236 . S
C111 O97 1.257 . S
H112 C85 0.932 . S
H113 C86 0.930 . S
H114 C87 0.932 . S
H115 C88 0.929 . S
H116 C106 0.932 . S
H117 C107 0.934 . S
H118 C108 0.932 . S
H119 C109 0.929 . S
H120 C132 0.930 . S
H121 C134 0.930 . S
H122 C135 0.930 . S
H123 C139 0.959 . S
H124 C139 0.959 . S
H125 C139 0.961 . S
H126 C140 0.960 . S
H127 C140 0.961 . S
H128 C140 0.959 . S
H129 C143 0.929 . S
H130 C144 0.931 . S
H131 C146 0.930 . S
C132 H120 0.930 . S
C132 C133 1.399 . S
C132 C137 1.399 . S
C133 C132 1.399 . S
C133 C134 1.376 1_554 S
C134 H121 0.930 . S
C134 C133 1.376 1_556 S
C134 C135 1.388 . S
C135 H122 0.930 . S
C135 C134 1.388 . S
C135 C136 1.390 . S
C136 C135 1.390 . S
C136 C137 1.394 1_556 S
C136 C142 1.465 . S
C137 C132 1.399 . S
C137 C136 1.394 1_554 S
C137 C138 1.516 . S
C138 C137 1.516 . S
C138 C139 1.502 . S
C138 C140 1.561 . S
C138 C141 1.526 1_554 S
C139 H123 0.959 . S
C139 H124 0.959 . S
C139 H125 0.961 . S
C139 C138 1.502 . S
C140 H126 0.960 . S
C140 H127 0.961 . S
C140 H128 0.959 . S
C140 C138 1.561 . S
C141 C138 1.526 1_556 S
C141 C142 1.396 . S
C141 C146 1.390 . S
C142 C136 1.465 . S
C142 C141 1.396 . S
C142 C143 1.399 . S
C143 H129 0.929 . S
C143 C142 1.399 . S
C143 C144 1.385 . S
C144 H130 0.931 . S
C144 C143 1.385 . S
C144 C145 1.389 . S
C145 C144 1.389 . S
C145 C146 1.387 . S
C146 H131 0.930 . S
C146 C141 1.390 . S
C146 C145 1.387 . S
H147 C159 0.930 . S
H148 C161 0.930 . S
H149 C162 0.930 . S
H150 C166 0.959 . S
H151 C166 0.959 . S
H152 C166 0.961 . S
H153 C167 0.960 . S
H154 C167 0.961 . S
H155 C167 0.959 . S
H156 C170 0.929 . S
H157 C171 0.931 . S
H158 C173 0.930 . S
C159 H147 0.930 . S
C159 C160 1.399 . S
C159 C164 1.399 . S
C160 C159 1.399 . S
C160 C161 1.376 . S
C161 H148 0.930 . S
C161 C160 1.376 . S
C161 C162 1.388 . S
C162 H149 0.930 . S
C162 C161 1.388 . S
C162 C163 1.390 . S
C163 C162 1.390 . S
C163 C164 1.394 . S
C163 C169 1.465 . S
C164 C159 1.399 . S
C164 C163 1.394 . S
C164 C165 1.516 . S
C165 C164 1.516 . S
C165 C166 1.502 . S
C165 C167 1.561 . S
C165 C168 1.526 . S
C166 H150 0.959 . S
C166 H151 0.959 . S
C166 H152 0.961 . S
C166 C165 1.502 . S
C167 H153 0.960 . S
C167 H154 0.961 . S
C167 H155 0.959 . S
C167 C165 1.561 . S
C168 C165 1.526 . S
C168 C169 1.396 . S
C168 C173 1.390 . S
C169 C163 1.465 . S
C169 C168 1.396 . S
C169 C170 1.399 . S
C170 H156 0.929 . S
C170 C169 1.399 . S
C170 C171 1.385 . S
C171 H157 0.931 . S
C171 C170 1.385 . S
C171 C172 1.389 . S
C172 C171 1.389 . S
C172 C173 1.387 . S
C173 H158 0.930 . S
C173 C168 1.390 . S
C173 C172 1.387 . S
H174 C186 0.930 . S
H175 C188 0.930 . S
H176 C189 0.930 . S
H177 C193 0.959 . S
H178 C193 0.959 . S
H179 C193 0.961 . S
H180 C194 0.960 . S
H181 C194 0.961 . S
H182 C194 0.959 . S
H183 C197 0.929 . S
H184 C198 0.931 . S
H185 C200 0.930 . S
C186 H174 0.930 . S
C186 C187 1.399 . S
C186 C191 1.399 . S
C187 C186 1.399 . S
C187 C188 1.376 . S
C188 H175 0.930 . S
C188 C187 1.376 . S
C188 C189 1.388 . S
C189 H176 0.930 . S
C189 C188 1.388 . S
C189 C190 1.390 . S
C190 C189 1.390 . S
C190 C191 1.394 . S
C190 C196 1.465 . S
C191 C186 1.399 . S
C191 C190 1.394 . S
C191 C192 1.516 . S
C192 C191 1.516 . S
C192 C193 1.502 . S
C192 C194 1.561 . S
C192 C195 1.526 . S
C193 H177 0.959 . S
C193 H178 0.959 . S
C193 H179 0.961 . S
C193 C192 1.502 . S
C194 H180 0.960 . S
C194 H181 0.961 . S
C194 H182 0.959 . S
C194 C192 1.561 . S
C195 C192 1.526 . S
C195 C196 1.396 . S
C195 C200 1.390 . S
C196 C190 1.465 . S
C196 C195 1.396 . S
C196 C197 1.399 . S
C197 H183 0.929 . S
C197 C196 1.399 . S
C197 C198 1.385 . S
C198 H184 0.931 . S
C198 C197 1.385 . S
C198 C199 1.389 . S
C199 C198 1.389 . S
C199 C200 1.387 . S
C200 H185 0.930 . S
C200 C195 1.390 . S
C200 C199 1.387 . S
H201 C213 0.930 . S
H202 C215 0.930 . S
H203 C216 0.930 . S
H204 C220 0.959 . S
H205 C220 0.959 . S
H206 C220 0.961 . S
H207 C221 0.960 . S
H208 C221 0.961 1_554 S
H209 C221 0.959 . S
H210 C224 0.929 . S
H211 C225 0.931 . S
H212 C227 0.930 . S
C213 H201 0.930 . S
C213 C214 1.399 . S
C213 C218 1.399 . S
C214 C213 1.399 . S
C214 C215 1.376 . S
C215 H202 0.930 . S
C215 C214 1.376 . S
C215 C216 1.388 . S
C216 H203 0.930 . S
C216 C215 1.388 . S
C216 C217 1.390 . S
C217 C216 1.390 . S
C217 C218 1.394 . S
C217 C223 1.465 1_556 S
C218 C213 1.399 . S
C218 C217 1.394 . S
C218 C219 1.516 1_556 S
C219 C218 1.516 1_554 S
C219 C220 1.502 . S
C219 C221 1.561 1_554 S
C219 C222 1.526 . S
C220 H204 0.959 . S
C220 H205 0.959 . S
C220 H206 0.961 . S
C220 C219 1.502 . S
C221 H207 0.960 . S
C221 H208 0.961 1_556 S
C221 H209 0.959 . S
C221 C219 1.561 1_556 S
C222 C219 1.526 . S
C222 C223 1.396 . S
C222 C227 1.390 . S
C223 C217 1.465 1_554 S
C223 C222 1.396 . S
C223 C224 1.399 . S
C224 H210 0.929 . S
C224 C223 1.399 . S
C224 C225 1.385 . S
C225 H211 0.931 . S
C225 C224 1.385 . S
C225 C226 1.389 . S
C226 C225 1.389 . S
C226 C227 1.387 . S
C227 H212 0.930 . S
C227 C222 1.390 . S
C227 C226 1.387 . S
H228 C240 0.930 . S
H229 C242 0.930 . S
H230 C243 0.930 . S
H231 C247 0.959 . S
H232 C247 0.959 . S
H233 C247 0.961 . S
H234 C248 0.960 . S
H235 C248 0.961 . S
H236 C248 0.959 . S
H237 C251 0.929 . S
H238 C252 0.931 . S
H239 C254 0.930 . S
C240 H228 0.930 . S
C240 C241 1.399 . S
C240 C245 1.399 . S
C241 C240 1.399 . S
C241 C242 1.376 . S
C242 H229 0.930 . S
C242 C241 1.376 . S
C242 C243 1.388 . S
C243 H230 0.930 . S
C243 C242 1.388 . S
C243 C244 1.390 . S
C244 C243 1.390 . S
C244 C245 1.394 . S
C244 C250 1.465 . S
C245 C240 1.399 . S
C245 C244 1.394 . S
C245 C246 1.516 . S
C246 C245 1.516 . S
C246 C247 1.502 . S
C246 C248 1.561 . S
C246 C249 1.526 . S
C247 H231 0.959 . S
C247 H232 0.959 . S
C247 H233 0.961 . S
C247 C246 1.502 . S
C248 H234 0.960 . S
C248 H235 0.961 . S
C248 H236 0.959 . S
C248 C246 1.561 . S
C249 C246 1.526 . S
C249 C250 1.396 . S
C249 C254 1.390 . S
C250 C244 1.465 . S
C250 C249 1.396 . S
C250 C251 1.399 . S
C251 H237 0.929 . S
C251 C250 1.399 . S
C251 C252 1.385 . S
C252 H238 0.931 . S
C252 C251 1.385 . S
C252 C253 1.389 . S
C253 C252 1.389 . S
C253 C254 1.387 . S
C254 H239 0.930 . S
C254 C249 1.390 . S
C254 C253 1.387 . S
H255 C267 0.930 . S
H256 C269 0.930 . S
H257 C270 0.930 . S
H258 C274 0.959 . S
H259 C274 0.959 . S
H260 C274 0.961 . S
H261 C275 0.960 . S
H262 C275 0.961 . S
H263 C275 0.959 . S
H264 C278 0.929 . S
H265 C279 0.931 . S
H266 C281 0.930 . S
C267 H255 0.930 . S
C267 C268 1.399 . S
C267 C272 1.399 . S
C268 C267 1.399 . S
C268 C269 1.376 . S
C269 H256 0.930 . S
C269 C268 1.376 . S
C269 C270 1.388 . S
C270 H257 0.930 . S
C270 C269 1.388 . S
C270 C271 1.390 . S
C271 C270 1.390 . S
C271 C272 1.394 . S
C271 C277 1.465 . S
C272 C267 1.399 . S
C272 C271 1.394 . S
C272 C273 1.516 . S
C273 C272 1.516 . S
C273 C274 1.502 . S
C273 C275 1.561 . S
C273 C276 1.526 . S
C274 H258 0.959 . S
C274 H259 0.959 . S
C274 H260 0.961 . S
C274 C273 1.502 . S
C275 H261 0.960 . S
C275 H262 0.961 . S
C275 H263 0.959 . S
C275 C273 1.561 . S
C276 C273 1.526 . S
C276 C277 1.396 . S
C276 C281 1.390 . S
C277 C271 1.465 . S
C277 C276 1.396 . S
C277 C278 1.399 . S
C278 H264 0.929 . S
C278 C277 1.399 . S
C278 C279 1.385 . S
C279 H265 0.931 . S
C279 C278 1.385 . S
C279 C280 1.389 . S
C280 C279 1.389 . S
C280 C281 1.387 . S
C281 H266 0.930 . S
C281 C276 1.390 . S
C281 C280 1.387 . S
H282 C294 0.930 . S
H283 C296 0.930 . S
H284 C297 0.930 . S
H285 C301 0.959 . S
H286 C301 0.959 . S
H287 C301 0.961 . S
H288 C302 0.960 . S
H289 C302 0.961 . S
H290 C302 0.959 . S
H291 C305 0.929 . S
H292 C306 0.931 . S
H293 C308 0.930 . S
C294 H282 0.930 . S
C294 C295 1.399 . S
C294 C299 1.399 . S
C295 C294 1.399 . S
C295 C296 1.376 . S
C296 H283 0.930 . S
C296 C295 1.376 . S
C296 C297 1.388 . S
C297 H284 0.930 . S
C297 C296 1.388 . S
C297 C298 1.390 . S
C298 C297 1.390 . S
C298 C299 1.394 . S
C298 C304 1.465 . S
C299 C294 1.399 . S
C299 C298 1.394 . S
C299 C300 1.516 . S
C300 C299 1.516 . S
C300 C301 1.502 1_455 S
C300 C302 1.561 . S
C300 C303 1.526 . S
C301 H285 0.959 . S
C301 H286 0.959 . S
C301 H287 0.961 . S
C301 C300 1.502 1_655 S
C302 H288 0.960 . S
C302 H289 0.961 . S
C302 H290 0.959 . S
C302 C300 1.561 . S
C303 C300 1.526 . S
C303 C304 1.396 . S
C303 C308 1.390 . S
C304 C298 1.465 . S
C304 C303 1.396 . S
C304 C305 1.399 . S
C305 H291 0.929 . S
C305 C304 1.399 . S
C305 C306 1.385 . S
C306 H292 0.931 . S
C306 C305 1.385 . S
C306 C307 1.389 . S
C307 C306 1.389 . S
C307 C308 1.387 . S
C308 H293 0.930 . S
C308 C303 1.390 . S
C308 C307 1.387 . S
H309 C321 0.930 . S
H310 C323 0.930 . S
H311 C324 0.930 . S
H312 C328 0.959 . S
H313 C328 0.959 1_556 S
H314 C328 0.961 . S
H315 C329 0.960 . S
H316 C329 0.961 1_556 S
H317 C329 0.959 . S
H318 C332 0.929 . S
H319 C333 0.931 . S
H320 C335 0.930 . S
C321 H309 0.930 . S
C321 C322 1.399 . S
C321 C326 1.399 . S
C322 C321 1.399 . S
C322 C323 1.376 1_545 S
C323 H310 0.930 . S
C323 C322 1.376 1_565 S
C323 C324 1.388 . S
C324 H311 0.930 . S
C324 C323 1.388 . S
C324 C325 1.373 1_565 S
C325 C324 1.373 1_545 S
C325 C326 1.412 . S
C325 C331 1.468 1_554 S
C326 C321 1.399 . S
C326 C325 1.412 . S
C326 C327 1.516 . S
C327 C326 1.516 . S
C327 C328 1.502 . S
C327 C329 1.561 . S
C327 C330 1.526 1_554 S
C328 H312 0.959 . S
C328 H313 0.959 1_554 S
C328 H314 0.961 . S
C328 C327 1.502 . S
C329 H315 0.960 . S
C329 H316 0.961 1_554 S
C329 H317 0.959 . S
C329 C327 1.561 . S
C330 C327 1.526 1_556 S
C330 C331 1.400 . S
C330 C335 1.390 . S
C331 C325 1.468 1_556 S
C331 C330 1.400 . S
C331 C332 1.396 1_545 S
C332 H318 0.929 . S
C332 C331 1.396 1_565 S
C332 C333 1.385 . S
C333 H319 0.931 . S
C333 C332 1.385 . S
C333 C334 1.389 1_565 S
C334 C333 1.389 1_545 S
C334 C335 1.387 . S
C335 H320 0.930 . S
C335 C330 1.390 . S
C335 C334 1.387 . S
H336 C348 0.930 . S
H337 C350 0.930 . S
H338 C351 0.930 . S
H339 C355 0.959 . S
H340 C355 0.959 . S
H341 C355 0.961 . S
H342 C356 0.960 . S
H343 C356 0.961 . S
H344 C356 0.959 . S
H345 C359 0.929 . S
H346 C360 0.931 . S
H347 C362 0.930 . S
C348 H336 0.930 . S
C348 C349 1.399 . S
C348 C353 1.399 . S
C349 C348 1.399 . S
C349 C350 1.376 . S
C350 H337 0.930 . S
C350 C349 1.376 . S
C350 C351 1.388 . S
C351 H338 0.930 . S
C351 C350 1.388 . S
C351 C352 1.390 . S
C352 C351 1.390 . S
C352 C353 1.394 . S
C352 C358 1.465 . S
C353 C348 1.399 . S
C353 C352 1.394 . S
C353 C354 1.516 . S
C354 C353 1.516 . S
C354 C355 1.502 . S
C354 C356 1.561 . S
C354 C357 1.526 . S
C355 H339 0.959 . S
C355 H340 0.959 . S
C355 H341 0.961 . S
C355 C354 1.502 . S
C356 H342 0.960 . S
C356 H343 0.961 . S
C356 H344 0.959 . S
C356 C354 1.561 . S
C357 C354 1.526 . S
C357 C358 1.396 . S
C357 C362 1.390 . S
C358 C352 1.465 . S
C358 C357 1.396 . S
C358 C359 1.399 . S
C359 H345 0.929 . S
C359 C358 1.399 . S
C359 C360 1.385 . S
C360 H346 0.931 . S
C360 C359 1.385 . S
C360 C361 1.389 . S
C361 C360 1.389 . S
C361 C362 1.387 . S
C362 H347 0.930 . S
C362 C357 1.390 . S
C362 C361 1.387 . S
C133 C25 1.824 . S
C145 C111 1.795 . S
C160 C65 2.033 . S
C172 C20 2.033 . S
C187 C60 2.054 . S
C199 C105 2.004 . S
C214 C100 2.068 . S
C226 C4 1.991 . S
C241 C44 1.732 . S
C253 C31 1.766 . S
C268 C84 1.768 . S
C280 C71 1.710 . S
C295 C2 0.667 . S
C307 C23 0.489 . S
C322 C42 0.503 . S
C334 C63 0.603 . S
C349 C82 0.465 . S
C361 C103 0.643 . S
