# Generated by pormake.
# Topology vmb, (5)-cn, num edge types: 1
# Building blocks:
#     Node 0, Type 0, BuildingBlock: XOMCOT_clean_sbu_1, # of connection points: 5
#     Node 1, Type 0, BuildingBlock: XOMCOT_clean_sbu_1, # of connection points: 5
#     Node 2, Type 0, BuildingBlock: XOMCOT_clean_sbu_1, # of connection points: 5
#     Node 3, Type 0, BuildingBlock: XOMCOT_clean_sbu_1, # of connection points: 5
#     Node 4, Type 0, BuildingBlock: XOMCOT_clean_sbu_1, # of connection points: 5
#     Node 5, Type 0, BuildingBlock: XOMCOT_clean_sbu_1, # of connection points: 5
#     Node 6, Type 0, BuildingBlock: XOMCOT_clean_sbu_1, # of connection points: 5
#     Node 7, Type 0, BuildingBlock: XOMCOT_clean_sbu_1, # of connection points: 5
#     Edge 8, Type (0, 0), BuildingBlock: AJUNOK_clean_linker_0, # of connection points: 2
#     Edge 9, Type (0, 0), BuildingBlock: AJUNOK_clean_linker_0, # of connection points: 2
#     Edge 10, Type (0, 0), BuildingBlock: AJUNOK_clean_linker_0, # of connection points: 2
#     Edge 11, Type (0, 0), BuildingBlock: AJUNOK_clean_linker_0, # of connection points: 2
#     Edge 12, Type (0, 0), BuildingBlock: AJUNOK_clean_linker_0, # of connection points: 2
#     Edge 13, Type (0, 0), BuildingBlock: AJUNOK_clean_linker_0, # of connection points: 2
#     Edge 14, Type (0, 0), BuildingBlock: AJUNOK_clean_linker_0, # of connection points: 2
#     Edge 15, Type (0, 0), BuildingBlock: AJUNOK_clean_linker_0, # of connection points: 2
#     Edge 16, Type (0, 0), BuildingBlock: AJUNOK_clean_linker_0, # of connection points: 2
#     Edge 17, Type (0, 0), BuildingBlock: AJUNOK_clean_linker_0, # of connection points: 2
#     Edge 18, Type (0, 0), BuildingBlock: AJUNOK_clean_linker_0, # of connection points: 2
#     Edge 19, Type (0, 0), BuildingBlock: AJUNOK_clean_linker_0, # of connection points: 2
#     Edge 20, Type (0, 0), BuildingBlock: AJUNOK_clean_linker_0, # of connection points: 2
#     Edge 21, Type (0, 0), BuildingBlock: AJUNOK_clean_linker_0, # of connection points: 2
#     Edge 22, Type (0, 0), BuildingBlock: AJUNOK_clean_linker_0, # of connection points: 2
#     Edge 23, Type (0, 0), BuildingBlock: AJUNOK_clean_linker_0, # of connection points: 2
#     Edge 24, Type (0, 0), BuildingBlock: AJUNOK_clean_linker_0, # of connection points: 2
#     Edge 25, Type (0, 0), BuildingBlock: AJUNOK_clean_linker_0, # of connection points: 2
#     Edge 26, Type (0, 0), BuildingBlock: AJUNOK_clean_linker_0, # of connection points: 2
#     Edge 27, Type (0, 0), BuildingBlock: AJUNOK_clean_linker_0, # of connection points: 2
# Relax obj value: 0.075
# Max RMSD: 0.116
# Mean RMSD: 0.116
data_MOF--net-vmb--node1-XOMCOT_clean_sbu_1--edge1-AJUNOK_clean_linker_0
_symmetry_space_group_name_H-M    P1
_symmetry_Int_Tables_number       1
_symmetry_cell_setting            triclinic
loop_
_symmetry_equiv_pos_as_xyz
'x, y, z'
_cell_length_a     28.906105
_cell_length_b     38.793084
_cell_length_c     19.275004
_cell_angle_alpha  90.008547
_cell_angle_beta   118.28577
_cell_angle_gamma 90.144008
loop_
_atom_site_label
_atom_site_type_symbol
_atom_site_fract_x
_atom_site_fract_y
_atom_site_fract_z
_atom_type_partial_charge
C0 C 0.22609 0.07941 0.32398 0.0
C1 C 0.1721 0.08045 0.28653 0.0
N2 N 0.1549 0.05385 0.31268 0.0
N3 N 0.24298 0.05272 0.37511 0.0
C4 C 0.1982 0.03705 0.36461 0.0
H5 H 0.25103 0.09704 0.31352 0.0
Co6 Co 0.31314 0.03866 0.43821 0.0
C7 C 0.26663 0.01929 0.54544 0.0
O8 O 0.2384 0.04754 0.52941 0.0
N9 N 0.38273 0.0242 0.49951 0.0
C10 C 0.45675 0.00562 0.60038 0.0
C11 C 0.40709 0.01767 0.57768 0.0
C12 C 0.41867 0.0159 0.47615 0.0
N13 N 0.46414 0.00462 0.53656 0.0
O14 O 0.29836 -0.00116 0.37151 0.0
H15 H 0.38952 0.02008 0.61591 0.0
H16 H 0.41147 0.01734 0.41583 0.0
O17 O 0.29455 0.01362 0.51108 0.0
C18 C 0.30323 0.00784 0.31149 0.0
O19 O 0.31801 0.03964 0.30857 0.0
N20 N 0.3292 0.07993 0.49701 0.0
C21 C 0.33949 0.14718 0.55211 0.0
C22 C 0.33861 0.11961 0.59831 0.0
C23 C 0.3348 0.08594 0.5705 0.0
C24 C 0.3372 0.10614 0.45678 0.0
C25 C 0.34158 0.14016 0.48254 0.0
H26 H 0.3357 0.06529 0.60821 0.0
H27 H 0.33799 0.1007 0.40236 0.0
H28 H 0.19688 0.01363 0.39398 0.0
H29 H 0.1474 0.0998 0.24518 0.0
H30 H 0.48417 -0.00352 0.6586 0.0
H31 H 0.33963 0.12412 0.65449 0.0
H32 H 0.34395 0.16081 0.44651 0.0
C33 C 0.8759 0.08892 0.24649 0.0
C34 C 0.9298 0.08802 0.28228 0.0
N35 N 0.94414 0.05928 0.25864 0.0
N36 N 0.85595 0.06106 0.19936 0.0
C37 C 0.89889 0.0429 0.21035 0.0
H38 H 0.85302 0.10883 0.25489 0.0
Co39 Co 0.78378 0.05071 0.13749 0.0
C40 C 0.82524 0.02389 1.02901 0.0
O41 O 0.85934 0.04906 0.04515 0.0
N42 N 0.71245 0.04009 0.07665 0.0
C43 C 0.63632 0.02563 0.97383 0.0
C44 C 0.6857 0.03845 0.99716 0.0
C45 C 0.67815 0.0282 0.10021 0.0
N46 N 0.63148 0.01923 0.03865 0.0
O47 O 0.79259 0.01107 0.20264 0.0
H48 H 0.70181 0.04397 0.95807 0.0
H49 H 0.68776 0.02495 0.16131 0.0
O50 O 0.79676 0.02287 0.0634 0.0
C51 C 0.79618 0.01968 0.26908 0.0
O52 O 0.79585 0.05264 0.28452 0.0
N53 N 0.77338 0.09177 0.07967 0.0
C54 C 0.7653 0.15876 1.02389 0.0
C55 C 0.76925 0.13101 0.98075 0.0
C56 C 0.77201 0.09755 1.00872 0.0
C57 C 0.76464 0.11832 0.11826 0.0
C58 C 0.76123 0.15217 0.09211 0.0
H59 H 0.77223 0.07689 0.97195 0.0
H60 H 0.76215 0.1132 0.17154 0.0
H61 H 0.89731 0.01819 0.18332 0.0
H62 H 0.95643 0.10759 0.3206 0.0
H63 H 0.6076 0.01928 0.91399 0.0
H64 H 0.77039 0.1352 0.926 0.0
H65 H 0.75742 0.17302 0.12643 0.0
C66 C 0.88428 0.89592 0.78378 0.0
C67 C 0.93782 0.89717 0.81497 0.0
N68 N 0.94912 0.90643 0.75739 0.0
N69 N 0.86182 0.90443 0.70692 0.0
C70 C 0.90237 0.91039 0.69205 0.0
H71 H 0.86294 0.88864 0.81484 0.0
Co72 Co 0.78976 0.90532 0.64572 0.0
C73 C 0.76685 0.93043 0.48801 0.0
O74 O 0.72896 0.90743 0.45858 0.0
N75 N 0.71534 0.90638 0.58617 0.0
C76 C 0.62985 0.89403 0.53062 0.0
C77 C 0.67948 0.88057 0.5585 0.0
C78 C 0.68604 0.93522 0.57251 0.0
N79 N 0.63422 0.92839 0.54083 0.0
O80 O 0.78877 0.94588 0.70179 0.0
H81 H 0.68808 0.85344 0.56118 0.0
H82 H 0.70259 0.96084 0.58857 0.0
O83 O 0.79516 0.93295 0.56313 0.0
C84 C 0.77576 0.938 0.75454 0.0
O85 O 0.76054 0.90621 0.7564 0.0
N86 N 0.79392 0.86341 0.60141 0.0
C87 C 0.81002 0.79593 0.56885 0.0
C88 C 0.82153 0.82372 0.53302 0.0
C89 C 0.81451 0.85739 0.5517 0.0
C90 C 0.78559 0.83673 0.64011 0.0
C91 C 0.79279 0.80277 0.62416 0.0
H92 H 0.82782 0.87819 0.52855 0.0
H93 H 0.77374 0.84205 0.68451 0.0
H94 H 0.8979 0.91716 0.63472 0.0
H95 H 0.96632 0.89052 0.87467 0.0
H96 H 0.59369 0.87946 0.50972 0.0
H97 H 0.83661 0.81951 0.49188 0.0
H98 H 0.78605 0.78215 0.65619 0.0
C99 C 0.22837 0.85466 0.84551 0.0
C100 C 0.17436 0.85569 0.80638 0.0
N101 N 0.15908 0.88758 0.814 0.0
N102 N 0.24723 0.88569 0.87884 0.0
C103 C 0.20399 0.90545 0.85601 0.0
H104 H 0.2518 0.83237 0.84984 0.0
Co105 Co 0.31687 0.90042 0.94145 0.0
C106 C 0.26569 0.92186 0.04101 0.0
O107 O 0.23322 0.89547 1.01889 0.0
N108 N 0.38577 0.91572 1.00343 0.0
C109 C 0.45895 0.93429 0.10644 0.0
C110 C 0.41134 0.91837 0.08282 0.0
C111 C 0.41886 0.92998 0.98024 0.0
N112 N 0.46331 0.94194 0.04176 0.0
O113 O 0.30191 0.94007 0.87424 0.0
H114 H 0.39557 0.91069 0.12129 0.0
H115 H 0.41017 0.93218 0.91937 0.0
O116 O 0.29771 0.92546 1.01298 0.0
C117 C 0.30471 0.9309 0.81264 0.0
O118 O 0.31792 0.89886 0.80846 0.0
N119 N 0.33324 0.85952 1.00057 0.0
C120 C 0.34902 0.79188 0.05488 0.0
C121 C 0.33858 0.81789 0.09601 0.0
C122 C 0.3317 0.85179 0.06861 0.0
C123 C 0.34855 0.83517 0.96477 0.0
C124 C 0.35585 0.80104 0.99011 0.0
H125 H 0.32503 0.87121 0.10251 0.0
H126 H 0.352 0.842 0.913 0.0
H127 H 0.2056 0.93236 0.87173 0.0
H128 H 0.14832 0.83417 0.77765 0.0
H129 H 0.48707 0.94122 0.16624 0.0
H130 H 0.3337 0.81195 0.14707 0.0
H131 H 0.36509 0.78181 0.95782 0.0
C132 C 0.71199 0.58465 0.27124 0.0
C133 C 0.65946 0.58111 0.24807 0.0
N134 N 0.65196 0.55148 0.27761 0.0
N135 N 0.73889 0.55786 0.3175 0.0
C136 C 0.7005 0.5373 0.31697 0.0
H137 H 0.72855 0.60559 0.25355 0.0
Co138 Co 0.81341 0.55012 0.36587 0.0
C139 C 0.78774 0.52984 0.49259 0.0
O140 O 0.75652 0.55663 0.47608 0.0
N141 N 0.8863 0.54173 0.41086 0.0
C142 C 0.97217 0.54864 0.45657 0.0
C143 C 0.92453 0.56508 0.42608 0.0
C144 C 0.91185 0.51109 0.43131 0.0
N145 N 0.9646 0.51444 0.45977 0.0
O146 O 0.80073 0.50994 0.30307 0.0
H147 H 0.91848 0.59244 0.41535 0.0
H148 H 0.8914 0.48684 0.42273 0.0
O149 O 0.81168 0.52396 0.45223 0.0
C150 C 0.79243 0.51919 0.23467 0.0
O151 O 0.78994 0.55228 0.21886 0.0
N152 N 0.82755 0.59184 0.42242 0.0
C153 C 0.83782 0.65743 0.48462 0.0
C154 C 0.85179 0.62874 0.53424 0.0
C155 C 0.84836 0.59595 0.50214 0.0
C156 C 0.821 0.61988 0.37615 0.0
C157 C 0.82473 0.65307 0.4056 0.0
H158 H 0.86201 0.57417 0.54145 0.0
H159 H 0.8126 0.61637 0.31572 0.0
H160 H 0.70821 0.51237 0.34524 0.0
H161 H 0.62923 0.5996 0.21369 0.0
H162 H 1.00964 0.56126 0.47536 0.0
H163 H 0.8645 0.63163 0.59659 0.0
H164 H 0.81596 0.67501 0.36662 0.0
C165 C 0.40269 0.54615 0.33083 0.0
C166 C 0.45474 0.54331 0.34998 0.0
N167 N 0.45775 0.53345 0.28524 0.0
N168 N 0.3725 0.53812 0.25423 0.0
C169 C 0.40727 0.53068 0.22776 0.0
H170 H 0.38794 0.5549 0.36982 0.0
Co171 Co 0.29898 0.54143 0.20251 0.0
C172 C 0.26412 0.51822 0.03954 0.0
O173 O 0.22964 0.54336 1.01509 0.0
N174 N 0.22411 0.54412 0.15208 0.0
C175 C 0.14024 0.55949 0.10504 0.0
C176 C 0.19136 0.57115 0.13768 0.0
C177 C 0.19147 0.51637 0.12763 0.0
N178 N 0.14037 0.52493 0.0993 0.0
O179 O 0.29499 0.50111 0.25643 0.0
H180 H 0.20302 0.59778 0.15031 0.0
H181 H 0.20512 0.49011 0.13185 0.0
O182 O 0.29448 0.51409 0.11356 0.0
C183 C 0.29154 0.51076 0.31715 0.0
O184 O 0.29076 0.54397 0.33001 0.0
N185 N 0.30535 0.58325 0.15899 0.0
C186 C 0.32717 0.64982 0.12836 0.0
C187 C 0.33268 0.62162 0.08748 0.0
C188 C 0.3229 0.58835 0.10515 0.0
C189 C 0.30213 0.61034 0.20144 0.0
C190 C 0.31176 0.64391 0.18606 0.0
H191 H 0.33179 0.56699 0.0778 0.0
H192 H 0.2925 0.6057 0.24845 0.0
H193 H 0.396 0.52424 0.16719 0.0
H194 H 0.48783 0.54994 0.40621 0.0
H195 H 0.10567 0.57539 0.08633 0.0
H196 H 0.34613 0.6252 0.0442 0.0
H197 H 0.30731 0.66501 0.2192 0.0
C198 C 0.39818 0.39804 0.83181 0.0
C199 C 0.4503 0.40045 0.85034 0.0
N200 N 0.45296 0.40551 0.78329 0.0
N201 N 0.36784 0.402 0.75341 0.0
C202 C 0.40251 0.40654 0.72546 0.0
H203 H 0.38358 0.39296 0.87304 0.0
Co204 Co 0.29415 0.39907 0.69946 0.0
C205 C 0.26242 0.42266 0.53737 0.0
O206 O 0.22654 0.39826 0.5108 0.0
N207 N 0.21916 0.39681 0.64589 0.0
C208 C 0.13466 0.3814 0.58429 0.0
C209 C 0.1857 0.36968 0.62213 0.0
C210 C 0.18699 0.42466 0.62215 0.0
N211 N 0.1354 0.41613 0.58475 0.0
O212 O 0.29016 0.43967 0.75281 0.0
H213 H 0.19687 0.3429 0.62977 0.0
H214 H 0.20132 0.45095 0.63176 0.0
O215 O 0.29213 0.42613 0.61178 0.0
C216 C 0.28536 0.42997 0.81242 0.0
O217 O 0.28309 0.39675 0.82388 0.0
N218 N 0.30021 0.35696 0.65694 0.0
C219 C 0.31546 0.28917 0.62467 0.0
C220 C 0.32235 0.31658 0.58298 0.0
C221 C 0.31559 0.35047 0.60115 0.0
C222 C 0.297 0.33072 0.70137 0.0
C223 C 0.30392 0.29665 0.68585 0.0
H224 H 0.32432 0.37108 0.57173 0.0
H225 H 0.28876 0.33643 0.74934 0.0
H226 H 0.39116 0.41031 0.66386 0.0
H227 H 0.48375 0.3975 0.90828 0.0
H228 H 0.09994 0.36535 0.55649 0.0
H229 H 0.33306 0.3119 0.53703 0.0
H230 H 0.30086 0.27638 0.72212 0.0
C231 C 0.70647 0.4056 0.72566 0.0
C232 C 0.65342 0.4053 0.70155 0.0
N233 N 0.6464 0.40766 0.76574 0.0
N234 N 0.73315 0.40858 0.80466 0.0
C235 C 0.69547 0.41006 0.82743 0.0
H236 H 0.72454 0.40372 0.68786 0.0
Co237 Co 0.8065 0.40888 0.86254 0.0
C238 C 0.83233 0.43541 1.02043 0.0
O239 O 0.8717 0.41363 0.0518 0.0
N240 N 0.88147 0.40968 0.91929 0.0
C241 C 0.96661 0.39695 0.97128 0.0
C242 C 0.91631 0.38377 0.93578 0.0
C243 C 0.91199 0.43839 0.94512 0.0
N244 N 0.96391 0.43135 0.97741 0.0
O245 O 0.80764 0.44978 0.80843 0.0
H246 H 0.90653 0.35697 0.92153 0.0
H247 H 0.89616 0.46416 0.93799 0.0
O248 O 0.80316 0.43601 0.94558 0.0
C249 C 0.82324 0.44365 0.75792 0.0
O250 O 0.83873 0.41235 0.75303 0.0
N251 N 0.80302 0.36674 0.90745 0.0
C252 C 0.78728 0.29941 0.94219 0.0
C253 C 0.78054 0.32728 0.98269 0.0
C254 C 0.78726 0.36083 0.96304 0.0
C255 C 0.80802 0.33993 0.8659 0.0
C256 C 0.80117 0.30601 0.88305 0.0
H257 H 0.77733 0.38156 0.99053 0.0
H258 H 0.81677 0.34508 0.81816 0.0
H259 H 0.70377 0.41221 0.88819 0.0
H260 H 0.62254 0.40398 0.64113 0.0
H261 H 1.00246 0.38233 0.99056 0.0
H262 H 0.76948 0.32327 1.02848 0.0
H263 H 0.80552 0.28521 0.84912 0.0
C264 C 0.30949 0.97073 0.13434 0.0
C265 C 0.27273 0.94357 0.10923 0.0
C266 C 0.31947 -0.00938 0.20059 0.0
C267 C 0.29359 -0.01581 0.24545 0.0
H268 H 0.33107 -0.02324 0.10276 0.0
H269 H 0.34804 0.01129 0.21687 0.0
S270 S 0.19269 0.91692 0.20478 0.0
N271 N 0.20937 0.91175 0.13448 0.0
N272 N 0.22882 0.94925 0.2596 0.0
C273 C 0.25681 0.95719 0.22161 0.0
C274 C 0.24611 0.93696 0.15331 0.0
C275 C 0.81298 0.00387 0.40479 0.0
C276 C 0.79452 -0.00579 0.32541 0.0
C277 C 0.80564 -0.01736 0.45779 0.0
C278 C 0.77868 0.95111 0.43322 0.0
H279 H 0.83233 0.02851 0.42592 0.0
H280 H 0.81952 -0.0084 0.51765 0.0
S281 S 0.72602 0.91261 0.23307 0.0
N282 N 0.75109 0.94994 0.22625 0.0
N283 N 0.73663 0.9101 0.32496 0.0
C284 C 0.76175 0.94051 0.35465 0.0
C285 C 0.7699 0.96198 0.30103 0.0
C286 C 0.82459 -0.01329 0.8455 0.0
C287 C 0.78464 0.96169 0.81995 0.0
C288 C 0.83811 0.00615 0.91397 0.0
C289 C 0.81199 0.00149 0.95932 0.0
H290 H 0.8467 -0.0094 0.81381 0.0
H291 H 0.86942 0.02496 0.93138 0.0
S292 S 0.70195 0.94044 0.9141 0.0
N293 N 0.71736 0.93428 0.84283 0.0
N294 N 0.74277 0.97042 0.97134 0.0
C295 C 0.77123 -0.02313 0.93329 0.0
C296 C 0.75753 0.95715 0.86366 0.0
C297 C 0.31 0.94476 0.6902 0.0
C298 C 0.29438 0.95467 0.74636 0.0
C299 C 0.30005 0.9655 0.62521 0.0
C300 C 0.27358 -0.00291 0.61276 0.0
H301 H 0.33054 0.9207 0.69646 0.0
H302 H 0.31347 0.95663 0.5845 0.0
S303 S 0.2241 0.03508 0.74227 0.0
N304 N 0.25105 -0.00172 0.78531 0.0
N305 N 0.2319 0.03743 0.66288 0.0
C306 C 0.25743 0.00737 0.6683 0.0
C307 C 0.26804 -0.01378 0.73516 0.0
C308 C 0.83193 0.46763 0.20633 0.0
C309 C 0.79551 0.49469 0.17858 0.0
C310 C 0.84317 0.44848 0.15449 0.0
C311 C 0.81794 0.45542 0.07291 0.0
H312 H 0.85389 0.46235 0.26889 0.0
H313 H 0.87259 0.42845 0.17906 0.0
S314 S 0.71492 0.52137 0.97035 0.0
N315 N 0.73137 0.526 0.06439 0.0
N316 N 0.7517 0.48969 0.96659 0.0
C317 C 0.77941 0.48133 0.04414 0.0
C318 C 0.76842 0.50103 0.09709 0.0
C319 C 0.30447 0.49667 0.45113 0.0
C320 C 0.2873 0.48626 0.37264 0.0
C321 C 0.29723 0.47567 0.50433 0.0
C322 C 0.2716 0.44368 0.48076 0.0
H323 H 0.3234 0.52147 0.47166 0.0
H324 H 0.31071 0.48499 0.56384 0.0
S325 S 0.22083 0.40395 0.28225 0.0
N326 N 0.24526 0.4414 0.27457 0.0
N327 N 0.2308 0.4019 0.3739 0.0
C328 C 0.25506 0.43263 0.40267 0.0
C329 C 0.26322 0.45388 0.34882 0.0
C330 C 0.29438 0.4644 1.00233 0.0
C331 C 0.27109 0.49707 0.98105 0.0
C332 C 0.29967 0.44337 0.94745 0.0
C333 C 0.28282 0.45438 0.86949 0.0
H334 H 0.30758 0.45462 0.06137 0.0
H335 H 0.31692 0.41808 0.96634 0.0
S336 S 0.2221 0.53853 0.78483 0.0
N337 N 0.23276 0.5401 0.87687 0.0
N338 N 0.2436 0.5005 0.77438 0.0
C339 C 0.26102 0.48738 0.84791 0.0
C340 C 0.25482 0.5087 0.90348 0.0
C341 C 0.77217 0.48878 0.65921 0.0
C342 C 0.81817 0.46922 0.69842 0.0
C343 C 0.76305 0.50864 0.59315 0.0
C344 C 0.79931 0.50926 0.56364 0.0
H345 H 0.74212 0.48763 0.67764 0.0
H346 H 0.72682 0.52305 0.56409 0.0
S347 S 0.93081 0.46836 0.65718 0.0
N348 N 0.90358 0.45547 0.71107 0.0
N349 N 0.88665 0.49275 0.5869 0.0
C350 C 0.8469 0.49141 0.60562 0.0
C351 C 0.85621 0.47137 0.67298 0.0
C352 C 0.54228 0.9483 0.47203 0.0
C353 C 0.59343 0.95124 0.53539 0.0
C354 C 0.50052 0.9673 0.47046 0.0
C355 C 0.5084 -0.01049 0.53286 0.0
H356 H 0.53438 0.93051 0.42437 0.0
H357 H 0.4614 0.96329 0.42207 0.0
S358 S 0.6352 0.00766 0.71075 0.0
N359 N 0.6498 -0.02102 0.66093 0.0
N360 N 0.57166 0.01503 0.65718 0.0
C361 C 0.55971 -0.00632 0.59502 0.0
C362 C 0.60217 0.97448 0.5965 0.0
C363 C 0.55717 0.95704 0.09879 0.0
C364 C 0.50492 0.96166 0.03982 0.0
C365 C 0.59823 -0.0235 0.09927 0.0
C366 C 0.58848 0.00135 0.04085 0.0
H367 H 0.56641 0.93784 0.14423 0.0
H368 H 0.63798 0.97147 0.14455 0.0
S369 S 0.45794 0.02608 0.87862 0.0
N370 N 0.44522 -0.00526 0.92508 0.0
N371 N 0.52234 0.03132 0.92595 0.0
C372 C 0.53624 0.00685 0.98275 0.0
C373 C 0.49448 -0.013 0.98218 0.0
C374 C 0.05408 0.49516 0.48932 0.0
C375 C 1.00538 0.48812 0.48704 0.0
C376 C 0.09579 0.47157 0.52053 0.0
C377 C 0.09103 0.43952 0.55065 0.0
H378 H 0.0604 0.51915 0.46653 0.0
H379 H 0.13205 0.47849 0.52043 0.0
S380 S 0.97194 0.40691 0.55629 0.0
N381 N 0.95486 0.44539 0.51561 0.0
N382 N 1.03335 0.40152 0.57502 0.0
C383 C 1.04238 0.43155 0.54716 0.0
C384 C 0.99963 0.45562 0.51513 0.0
C385 C 0.0944 0.4723 1.02591 0.0
C386 C 0.09562 0.5018 0.06928 0.0
C387 C 0.05128 0.44958 0.99593 0.0
C388 C 1.00754 0.45536 1.00807 0.0
H389 H 0.12677 0.467 1.01411 0.0
H390 H 0.05191 0.42749 0.96206 0.0
S391 S 0.99339 0.52682 0.12441 0.0
N392 N 0.05055 0.53423 0.12726 0.0
N393 N 0.96973 0.4916 0.07084 0.0
C394 C 1.00856 0.48445 0.05232 0.0
C395 C 0.05249 0.5076 0.08293 0.0
C396 C 0.0911 0.0535 0.36288 0.0
C397 C 0.10228 0.0491 0.30002 0.0
C398 C 1.03902 0.05506 0.34947 0.0
C399 C 0.9966 0.05144 0.27309 0.0
H400 H 0.1228 0.05771 0.42194 0.0
H401 H 1.03169 0.06031 0.39858 0.0
S402 S 1.00609 0.03654 0.09013 0.0
N403 N 0.06777 0.03942 0.16007 0.0
N404 N 0.96977 0.04117 0.13474 0.0
C405 C 1.00763 0.045 0.2106 0.0
C406 C 0.06058 0.0442 0.22411 0.0
C407 C 0.0635 0.88454 0.72504 0.0
C408 C 0.10623 0.89782 0.79351 0.0
C409 C 1.01156 0.88947 0.71037 0.0
C410 C 1.00078 0.90747 0.76429 0.0
H411 H 0.07046 0.8692 0.68398 0.0
H412 H 0.97989 0.87742 0.65914 0.0
S413 S 0.09751 0.95013 0.94839 0.0
N414 N 0.13338 0.93195 0.91274 0.0
N415 N 1.03591 0.94116 0.88463 0.0
C416 C 1.04271 0.92253 0.83043 0.0
C417 C 0.09544 0.91778 0.84517 0.0
C418 C 0.50673 0.54666 0.21228 0.0
C419 C 0.50522 0.53203 0.27786 0.0
C420 C 0.55453 0.55095 0.2107 0.0
C421 C 0.60286 0.54076 0.27453 0.0
H422 H 0.47113 0.55658 0.16371 0.0
H423 H 0.55378 0.56351 0.16005 0.0
S424 S 0.6185 0.49606 0.45488 0.0
N425 N 0.55482 0.50332 0.4036 0.0
N426 N 0.64469 0.51203 0.40195 0.0
C427 C 0.60121 0.52384 0.33805 0.0
C428 C 0.55245 0.51944 0.33944 0.0
C429 C 0.5916 0.42601 0.82654 0.0
C430 C 0.59706 0.40728 0.76821 0.0
C431 C 0.54425 0.42568 0.83045 0.0
C432 C 0.50031 0.40691 0.77579 0.0
H433 H 0.62407 0.44123 0.86924 0.0
H434 H 0.54182 0.44036 0.87639 0.0
S435 S 0.49497 0.35099 0.61632 0.0
N436 N 0.5549 0.36741 0.65788 0.0
N437 N 0.46599 0.36762 0.66457 0.0
C438 C 0.50516 0.38793 0.71758 0.0
C439 C 0.55346 0.38792 0.71395 0.0
C440 C 0.36434 0.24284 0.59573 0.0
C441 C 0.32111 0.25289 0.60579 0.0
C442 C 0.3706 0.20846 0.5792 0.0
C443 C 0.33411 0.18303 0.57301 0.0
H444 H 0.3938 0.26158 0.60146 0.0
H445 H 0.40428 0.20166 0.57168 0.0
S446 S 0.21189 0.19643 0.587 0.0
N447 N 0.23947 0.23496 0.60281 0.0
N448 N 0.25193 0.17034 0.57343 0.0
C449 C 0.29051 0.19277 0.58197 0.0
C450 C 0.28384 0.22771 0.59797 0.0
C451 C 0.81742 0.23842 0.97143 0.0
C452 C 0.7797 0.26355 0.96103 0.0
C453 C 0.81185 0.20443 0.99046 0.0
C454 C 0.76853 0.19443 1.00017 0.0
H455 H 0.852 0.24521 0.96613 0.0
H456 H 0.84224 0.18598 0.99929 0.0
S457 S 0.65658 0.24943 0.97283 0.0
N458 N 0.6957 0.27549 0.95661 0.0
N459 N 0.68595 0.21152 0.99415 0.0
C460 C 0.73009 0.21903 0.98879 0.0
C461 C 0.73551 0.25363 0.96878 0.0
C462 C 0.87101 0.71702 0.52834 0.0
C463 C 0.83276 0.69161 0.51275 0.0
C464 C 0.8637 0.7507 0.54748 0.0
C465 C 0.8176 0.75997 0.55056 0.0
H466 H 0.90638 0.71089 0.52477 0.0
H467 H 0.89426 0.76962 0.55972 0.0
S468 S 0.70473 0.70244 0.5099 0.0
N469 N 0.74731 0.67741 0.49985 0.0
N470 N 0.73251 0.74092 0.53357 0.0
C471 C 0.77911 0.73452 0.53481 0.0
C472 C 0.78693 0.70025 0.51629 0.0
C473 C 0.31703 0.73164 1.01516 0.0
C474 C 0.34821 0.75512 0.07496 0.0
C475 C 0.31166 0.69734 1.03274 0.0
C476 C 0.33711 0.68535 0.11076 0.0
H477 H 0.29517 0.74011 0.95455 0.0
H478 H 0.28601 0.68039 0.98525 0.0
S479 S 0.42826 0.73528 0.28739 0.0
N480 N 0.40846 0.76323 0.21427 0.0
N481 N 0.39819 0.69864 0.24747 0.0
C482 C 0.36997 0.70816 0.17075 0.0
C483 C 0.37554 0.74309 0.15283 0.0
loop_
_geom_bond_atom_site_label_1
_geom_bond_atom_site_label_2
_geom_bond_distance
_geom_bond_site_symmetry_2
_ccdc_geom_bond_type
C0 C1 1.351 . S
C0 N3 1.368 . S
C0 H5 0.931 . S
C1 C0 1.351 . S
C1 N2 1.373 . S
C1 H29 0.930 . S
N2 C1 1.373 . S
N2 C4 1.340 . S
N3 C0 1.368 . S
N3 C4 1.321 . S
N3 Co6 2.135 . S
C4 N2 1.340 . S
C4 N3 1.321 . S
C4 H28 0.930 . S
H5 C0 0.931 . S
Co6 N3 2.135 . S
Co6 N9 2.121 . S
Co6 O14 2.055 . S
Co6 O17 2.039 . S
Co6 N20 2.140 . S
C7 O8 1.227 . S
C7 O17 1.265 . S
O8 C7 1.227 . S
N9 Co6 2.121 . S
N9 C11 1.375 . S
N9 C12 1.313 . S
C10 C11 1.338 . S
C10 N13 1.377 . S
C10 H30 0.930 . S
C11 N9 1.375 . S
C11 C10 1.338 . S
C11 H15 0.931 . S
C12 N9 1.313 . S
C12 N13 1.344 . S
C12 H16 0.930 . S
N13 C10 1.377 . S
N13 C12 1.344 . S
O14 Co6 2.055 . S
O14 C18 1.253 . S
H15 C11 0.931 . S
H16 C12 0.930 . S
O17 Co6 2.039 . S
O17 C7 1.265 . S
C18 O14 1.253 . S
C18 O19 1.227 . S
O19 C18 1.227 . S
N20 Co6 2.140 . S
N20 C23 1.346 . S
N20 C24 1.345 . S
C21 C22 1.387 . S
C21 C25 1.391 . S
C22 C21 1.387 . S
C22 C23 1.369 . S
C22 H31 0.929 . S
C23 N20 1.346 . S
C23 C22 1.369 . S
C23 H26 0.928 . S
C24 N20 1.345 . S
C24 C25 1.371 . S
C24 H27 0.931 . S
C25 C21 1.391 . S
C25 C24 1.371 . S
C25 H32 0.930 . S
H26 C23 0.928 . S
H27 C24 0.931 . S
H28 C4 0.930 . S
H29 C1 0.930 . S
H30 C10 0.930 . S
H31 C22 0.929 . S
H32 C25 0.930 . S
C33 C34 1.351 . S
C33 N36 1.368 . S
C33 H38 0.931 . S
C34 C33 1.351 . S
C34 N35 1.373 . S
C34 H62 0.930 . S
N35 C34 1.373 . S
N35 C37 1.340 . S
N36 C33 1.368 . S
N36 C37 1.321 . S
N36 Co39 2.135 . S
C37 N35 1.340 . S
C37 N36 1.321 . S
C37 H61 0.930 . S
H38 C33 0.931 . S
Co39 N36 2.135 . S
Co39 N42 2.121 . S
Co39 O47 2.055 . S
Co39 O50 2.039 . S
Co39 N53 2.140 . S
C40 O41 1.227 . S
C40 O50 1.265 1_556 S
O41 C40 1.227 . S
N42 Co39 2.121 . S
N42 C44 1.375 1_554 S
N42 C45 1.313 . S
C43 C44 1.338 . S
C43 N46 1.377 1_556 S
C43 H63 0.930 . S
C44 N42 1.375 1_556 S
C44 C43 1.338 . S
C44 H48 0.931 . S
C45 N42 1.313 . S
C45 N46 1.344 . S
C45 H49 0.930 . S
N46 C43 1.377 1_554 S
N46 C45 1.344 . S
O47 Co39 2.055 . S
O47 C51 1.253 . S
H48 C44 0.931 . S
H49 C45 0.930 . S
O50 Co39 2.039 . S
O50 C40 1.265 1_554 S
C51 O47 1.253 . S
C51 O52 1.227 . S
O52 C51 1.227 . S
N53 Co39 2.140 . S
N53 C56 1.346 . S
N53 C57 1.345 . S
C54 C55 1.387 . S
C54 C58 1.391 . S
C55 C54 1.387 . S
C55 C56 1.369 . S
C55 H64 0.929 . S
C56 N53 1.346 . S
C56 C55 1.369 . S
C56 H59 0.928 . S
C57 N53 1.345 . S
C57 C58 1.371 . S
C57 H60 0.931 . S
C58 C54 1.391 . S
C58 C57 1.371 . S
C58 H65 0.930 . S
H59 C56 0.928 . S
H60 C57 0.931 . S
H61 C37 0.930 . S
H62 C34 0.930 . S
H63 C43 0.930 . S
H64 C55 0.929 . S
H65 C58 0.930 . S
C66 C67 1.351 . S
C66 N69 1.368 . S
C66 H71 0.931 . S
C67 C66 1.351 . S
C67 N68 1.373 . S
C67 H95 0.930 . S
N68 C67 1.373 . S
N68 C70 1.340 . S
N69 C66 1.368 . S
N69 C70 1.321 . S
N69 Co72 2.135 . S
C70 N68 1.340 . S
C70 N69 1.321 . S
C70 H94 0.930 . S
H71 C66 0.931 . S
Co72 N69 2.135 . S
Co72 N75 2.121 . S
Co72 O80 2.055 . S
Co72 O83 2.039 . S
Co72 N86 2.140 . S
C73 O74 1.227 . S
C73 O83 1.265 . S
O74 C73 1.227 . S
N75 Co72 2.121 . S
N75 C77 1.375 . S
N75 C78 1.313 . S
C76 C77 1.338 . S
C76 N79 1.377 . S
C76 H96 0.930 . S
C77 N75 1.375 . S
C77 C76 1.338 . S
C77 H81 0.931 . S
C78 N75 1.313 . S
C78 N79 1.344 . S
C78 H82 0.930 . S
N79 C76 1.377 . S
N79 C78 1.344 . S
O80 Co72 2.055 . S
O80 C84 1.253 . S
H81 C77 0.931 . S
H82 C78 0.930 . S
O83 Co72 2.039 . S
O83 C73 1.265 . S
C84 O80 1.253 . S
C84 O85 1.227 . S
O85 C84 1.227 . S
N86 Co72 2.140 . S
N86 C89 1.346 . S
N86 C90 1.345 . S
C87 C88 1.387 . S
C87 C91 1.391 . S
C88 C87 1.387 . S
C88 C89 1.369 . S
C88 H97 0.929 . S
C89 N86 1.346 . S
C89 C88 1.369 . S
C89 H92 0.928 . S
C90 N86 1.345 . S
C90 C91 1.371 . S
C90 H93 0.931 . S
C91 C87 1.391 . S
C91 C90 1.371 . S
C91 H98 0.930 . S
H92 C89 0.928 . S
H93 C90 0.931 . S
H94 C70 0.930 . S
H95 C67 0.930 . S
H96 C76 0.930 . S
H97 C88 0.929 . S
H98 C91 0.930 . S
C99 C100 1.351 . S
C99 N102 1.368 . S
C99 H104 0.931 . S
C100 C99 1.351 . S
C100 N101 1.373 . S
C100 H128 0.930 . S
N101 C100 1.373 . S
N101 C103 1.340 . S
N102 C99 1.368 . S
N102 C103 1.321 . S
N102 Co105 2.135 . S
C103 N101 1.340 . S
C103 N102 1.321 . S
C103 H127 0.930 . S
H104 C99 0.931 . S
Co105 N102 2.135 . S
Co105 N108 2.121 . S
Co105 O113 2.055 . S
Co105 O116 2.039 . S
Co105 N119 2.140 . S
C106 O107 1.227 . S
C106 O116 1.265 1_554 S
O107 C106 1.227 . S
N108 Co105 2.121 . S
N108 C110 1.375 1_556 S
N108 C111 1.313 . S
C109 C110 1.338 . S
C109 N112 1.377 1_554 S
C109 H129 0.930 . S
C110 N108 1.375 1_554 S
C110 C109 1.338 . S
C110 H114 0.931 . S
C111 N108 1.313 . S
C111 N112 1.344 . S
C111 H115 0.930 . S
N112 C109 1.377 1_556 S
N112 C111 1.344 . S
O113 Co105 2.055 . S
O113 C117 1.253 . S
H114 C110 0.931 . S
H115 C111 0.930 . S
O116 Co105 2.039 . S
O116 C106 1.265 1_556 S
C117 O113 1.253 . S
C117 O118 1.227 . S
O118 C117 1.227 . S
N119 Co105 2.140 . S
N119 C122 1.346 . S
N119 C123 1.345 . S
C120 C121 1.387 . S
C120 C124 1.391 . S
C121 C120 1.387 . S
C121 C122 1.369 . S
C121 H130 0.929 . S
C122 N119 1.346 . S
C122 C121 1.369 . S
C122 H125 0.928 . S
C123 N119 1.345 . S
C123 C124 1.371 . S
C123 H126 0.931 . S
C124 C120 1.391 . S
C124 C123 1.371 . S
C124 H131 0.930 . S
H125 C122 0.928 . S
H126 C123 0.931 . S
H127 C103 0.930 . S
H128 C100 0.930 . S
H129 C109 0.930 . S
H130 C121 0.929 . S
H131 C124 0.930 . S
C132 C133 1.351 . S
C132 N135 1.368 . S
C132 H137 0.931 . S
C133 C132 1.351 . S
C133 N134 1.373 . S
C133 H161 0.930 . S
N134 C133 1.373 . S
N134 C136 1.340 . S
N135 C132 1.368 . S
N135 C136 1.321 . S
N135 Co138 2.135 . S
C136 N134 1.340 . S
C136 N135 1.321 . S
C136 H160 0.930 . S
H137 C132 0.931 . S
Co138 N135 2.135 . S
Co138 N141 2.121 . S
Co138 O146 2.055 . S
Co138 O149 2.039 . S
Co138 N152 2.140 . S
C139 O140 1.227 . S
C139 O149 1.265 . S
O140 C139 1.227 . S
N141 Co138 2.121 . S
N141 C143 1.375 . S
N141 C144 1.313 . S
C142 C143 1.338 . S
C142 N145 1.377 . S
C142 H162 0.930 . S
C143 N141 1.375 . S
C143 C142 1.338 . S
C143 H147 0.931 . S
C144 N141 1.313 . S
C144 N145 1.344 . S
C144 H148 0.930 . S
N145 C142 1.377 . S
N145 C144 1.344 . S
O146 Co138 2.055 . S
O146 C150 1.253 . S
H147 C143 0.931 . S
H148 C144 0.930 . S
O149 Co138 2.039 . S
O149 C139 1.265 . S
C150 O146 1.253 . S
C150 O151 1.227 . S
O151 C150 1.227 . S
N152 Co138 2.140 . S
N152 C155 1.346 . S
N152 C156 1.345 . S
C153 C154 1.387 . S
C153 C157 1.391 . S
C154 C153 1.387 . S
C154 C155 1.369 . S
C154 H163 0.929 . S
C155 N152 1.346 . S
C155 C154 1.369 . S
C155 H158 0.928 . S
C156 N152 1.345 . S
C156 C157 1.371 . S
C156 H159 0.931 . S
C157 C153 1.391 . S
C157 C156 1.371 . S
C157 H164 0.930 . S
H158 C155 0.928 . S
H159 C156 0.931 . S
H160 C136 0.930 . S
H161 C133 0.930 . S
H162 C142 0.930 . S
H163 C154 0.929 . S
H164 C157 0.930 . S
C165 C166 1.351 . S
C165 N168 1.368 . S
C165 H170 0.931 . S
C166 C165 1.351 . S
C166 N167 1.373 . S
C166 H194 0.930 . S
N167 C166 1.373 . S
N167 C169 1.340 . S
N168 C165 1.368 . S
N168 C169 1.321 . S
N168 Co171 2.135 . S
C169 N167 1.340 . S
C169 N168 1.321 . S
C169 H193 0.930 . S
H170 C165 0.931 . S
Co171 N168 2.135 . S
Co171 N174 2.121 . S
Co171 O179 2.055 . S
Co171 O182 2.039 . S
Co171 N185 2.140 . S
C172 O173 1.227 . S
C172 O182 1.265 1_556 S
O173 C172 1.227 . S
N174 Co171 2.121 . S
N174 C176 1.375 1_554 S
N174 C177 1.313 . S
C175 C176 1.338 . S
C175 N178 1.377 1_556 S
C175 H195 0.930 . S
C176 N174 1.375 1_556 S
C176 C175 1.338 . S
C176 H180 0.931 . S
C177 N174 1.313 . S
C177 N178 1.344 . S
C177 H181 0.930 . S
N178 C175 1.377 1_554 S
N178 C177 1.344 . S
O179 Co171 2.055 . S
O179 C183 1.253 . S
H180 C176 0.931 . S
H181 C177 0.930 . S
O182 Co171 2.039 . S
O182 C172 1.265 1_554 S
C183 O179 1.253 . S
C183 O184 1.227 . S
O184 C183 1.227 . S
N185 Co171 2.140 . S
N185 C188 1.346 . S
N185 C189 1.345 . S
C186 C187 1.387 . S
C186 C190 1.391 . S
C187 C186 1.387 . S
C187 C188 1.369 . S
C187 H196 0.929 . S
C188 N185 1.346 . S
C188 C187 1.369 . S
C188 H191 0.928 . S
C189 N185 1.345 . S
C189 C190 1.371 . S
C189 H192 0.931 . S
C190 C186 1.391 . S
C190 C189 1.371 . S
C190 H197 0.930 . S
H191 C188 0.928 . S
H192 C189 0.931 . S
H193 C169 0.930 . S
H194 C166 0.930 . S
H195 C175 0.930 . S
H196 C187 0.929 . S
H197 C190 0.930 . S
C198 C199 1.351 . S
C198 N201 1.368 . S
C198 H203 0.931 . S
C199 C198 1.351 . S
C199 N200 1.373 . S
C199 H227 0.930 . S
N200 C199 1.373 . S
N200 C202 1.340 . S
N201 C198 1.368 . S
N201 C202 1.321 . S
N201 Co204 2.135 . S
C202 N200 1.340 . S
C202 N201 1.321 . S
C202 H226 0.930 . S
H203 C198 0.931 . S
Co204 N201 2.135 . S
Co204 N207 2.121 . S
Co204 O212 2.055 . S
Co204 O215 2.039 . S
Co204 N218 2.140 . S
C205 O206 1.227 . S
C205 O215 1.265 . S
O206 C205 1.227 . S
N207 Co204 2.121 . S
N207 C209 1.375 . S
N207 C210 1.313 . S
C208 C209 1.338 . S
C208 N211 1.377 . S
C208 H228 0.930 . S
C209 N207 1.375 . S
C209 C208 1.338 . S
C209 H213 0.931 . S
C210 N207 1.313 . S
C210 N211 1.344 . S
C210 H214 0.930 . S
N211 C208 1.377 . S
N211 C210 1.344 . S
O212 Co204 2.055 . S
O212 C216 1.253 . S
H213 C209 0.931 . S
H214 C210 0.930 . S
O215 Co204 2.039 . S
O215 C205 1.265 . S
C216 O212 1.253 . S
C216 O217 1.227 . S
O217 C216 1.227 . S
N218 Co204 2.140 . S
N218 C221 1.346 . S
N218 C222 1.345 . S
C219 C220 1.387 . S
C219 C223 1.391 . S
C220 C219 1.387 . S
C220 C221 1.369 . S
C220 H229 0.929 . S
C221 N218 1.346 . S
C221 C220 1.369 . S
C221 H224 0.928 . S
C222 N218 1.345 . S
C222 C223 1.371 . S
C222 H225 0.931 . S
C223 C219 1.391 . S
C223 C222 1.371 . S
C223 H230 0.930 . S
H224 C221 0.928 . S
H225 C222 0.931 . S
H226 C202 0.930 . S
H227 C199 0.930 . S
H228 C208 0.930 . S
H229 C220 0.929 . S
H230 C223 0.930 . S
C231 C232 1.351 . S
C231 N234 1.368 . S
C231 H236 0.931 . S
C232 C231 1.351 . S
C232 N233 1.373 . S
C232 H260 0.930 . S
N233 C232 1.373 . S
N233 C235 1.340 . S
N234 C231 1.368 . S
N234 C235 1.321 . S
N234 Co237 2.135 . S
C235 N233 1.340 . S
C235 N234 1.321 . S
C235 H259 0.930 . S
H236 C231 0.931 . S
Co237 N234 2.135 . S
Co237 N240 2.121 . S
Co237 O245 2.055 . S
Co237 O248 2.039 . S
Co237 N251 2.140 . S
C238 O239 1.227 . S
C238 O248 1.265 1_554 S
O239 C238 1.227 . S
N240 Co237 2.121 . S
N240 C242 1.375 1_556 S
N240 C243 1.313 . S
C241 C242 1.338 . S
C241 N244 1.377 1_554 S
C241 H261 0.930 . S
C242 N240 1.375 1_554 S
C242 C241 1.338 . S
C242 H246 0.931 . S
C243 N240 1.313 . S
C243 N244 1.344 . S
C243 H247 0.930 . S
N244 C241 1.377 1_556 S
N244 C243 1.344 . S
O245 Co237 2.055 . S
O245 C249 1.253 . S
H246 C242 0.931 . S
H247 C243 0.930 . S
O248 Co237 2.039 . S
O248 C238 1.265 1_556 S
C249 O245 1.253 . S
C249 O250 1.227 . S
O250 C249 1.227 . S
N251 Co237 2.140 . S
N251 C254 1.346 . S
N251 C255 1.345 . S
C252 C253 1.387 . S
C252 C256 1.391 . S
C253 C252 1.387 . S
C253 C254 1.369 . S
C253 H262 0.929 . S
C254 N251 1.346 . S
C254 C253 1.369 . S
C254 H257 0.928 . S
C255 N251 1.345 . S
C255 C256 1.371 . S
C255 H258 0.931 . S
C256 C252 1.391 . S
C256 C255 1.371 . S
C256 H263 0.930 . S
H257 C254 0.928 . S
H258 C255 0.931 . S
H259 C235 0.930 . S
H260 C232 0.930 . S
H261 C241 0.930 . S
H262 C253 0.929 . S
H263 C256 0.930 . S
C264 C265 1.369 1_545 S
C264 C266 1.419 . S
C264 H268 0.930 . S
C265 C264 1.369 1_565 S
C265 C274 1.429 . S
C266 C264 1.419 . S
C266 C267 1.363 . S
C266 H269 0.929 . S
C267 C266 1.363 . S
C267 C273 1.428 1_545 S
H268 C264 0.930 . S
H269 C266 0.929 . S
S270 N271 1.613 . S
S270 N272 1.610 . S
N271 S270 1.613 . S
N271 C274 1.350 . S
N272 S270 1.610 . S
N272 C273 1.351 . S
C273 C267 1.428 1_565 S
C273 N272 1.351 . S
C273 C274 1.434 . S
C274 C265 1.429 . S
C274 N271 1.350 . S
C274 C273 1.434 . S
C275 C276 1.369 . S
C275 C277 1.419 . S
C275 H279 0.930 . S
C276 C275 1.369 . S
C276 C285 1.429 1_545 S
C277 C275 1.419 . S
C277 C278 1.363 1_545 S
C277 H280 0.929 . S
C278 C277 1.363 1_565 S
C278 C284 1.428 . S
H279 C275 0.930 . S
H280 C277 0.929 . S
S281 N282 1.613 . S
S281 N283 1.610 . S
N282 S281 1.613 . S
N282 C285 1.350 . S
N283 S281 1.610 . S
N283 C284 1.351 . S
C284 C278 1.428 . S
C284 N283 1.351 . S
C284 C285 1.434 . S
C285 C276 1.429 1_565 S
C285 N282 1.350 . S
C285 C284 1.434 . S
C286 C287 1.369 1_545 S
C286 C288 1.419 . S
C286 H290 0.930 . S
C287 C286 1.369 1_565 S
C287 C296 1.429 . S
C288 C286 1.419 . S
C288 C289 1.363 . S
C288 H291 0.929 . S
C289 C288 1.363 . S
C289 C295 1.428 1_545 S
H290 C286 0.930 . S
H291 C288 0.929 . S
S292 N293 1.613 . S
S292 N294 1.610 . S
N293 S292 1.613 . S
N293 C296 1.350 . S
N294 S292 1.610 . S
N294 C295 1.351 . S
C295 C289 1.428 1_565 S
C295 N294 1.351 . S
C295 C296 1.434 . S
C296 C287 1.429 . S
C296 N293 1.350 . S
C296 C295 1.434 . S
C297 C298 1.369 . S
C297 C299 1.419 . S
C297 H301 0.930 . S
C298 C297 1.369 . S
C298 C307 1.429 1_565 S
C299 C297 1.419 . S
C299 C300 1.363 1_565 S
C299 H302 0.929 . S
C300 C299 1.363 1_545 S
C300 C306 1.428 . S
H301 C297 0.930 . S
H302 C299 0.929 . S
S303 N304 1.613 . S
S303 N305 1.610 . S
N304 S303 1.613 . S
N304 C307 1.350 . S
N305 S303 1.610 . S
N305 C306 1.351 . S
C306 C300 1.428 . S
C306 N305 1.351 . S
C306 C307 1.434 . S
C307 C298 1.429 1_545 S
C307 N304 1.350 . S
C307 C306 1.434 . S
C308 C309 1.369 . S
C308 C310 1.419 . S
C308 H312 0.930 . S
C309 C308 1.369 . S
C309 C318 1.429 . S
C310 C308 1.419 . S
C310 C311 1.363 . S
C310 H313 0.929 . S
C311 C310 1.363 . S
C311 C317 1.428 . S
H312 C308 0.930 . S
H313 C310 0.929 . S
S314 N315 1.613 . S
S314 N316 1.610 . S
N315 S314 1.613 . S
N315 C318 1.350 . S
N316 S314 1.610 . S
N316 C317 1.351 . S
C317 C311 1.428 . S
C317 N316 1.351 . S
C317 C318 1.434 . S
C318 C309 1.429 . S
C318 N315 1.350 . S
C318 C317 1.434 . S
C319 C320 1.369 . S
C319 C321 1.419 . S
C319 H323 0.930 . S
C320 C319 1.369 . S
C320 C329 1.429 . S
C321 C319 1.419 . S
C321 C322 1.363 . S
C321 H324 0.929 . S
C322 C321 1.363 . S
C322 C328 1.428 . S
H323 C319 0.930 . S
H324 C321 0.929 . S
S325 N326 1.613 . S
S325 N327 1.610 . S
N326 S325 1.613 . S
N326 C329 1.350 . S
N327 S325 1.610 . S
N327 C328 1.351 . S
C328 C322 1.428 . S
C328 N327 1.351 . S
C328 C329 1.434 . S
C329 C320 1.429 . S
C329 N326 1.350 . S
C329 C328 1.434 . S
C330 C331 1.369 . S
C330 C332 1.419 . S
C330 H334 0.930 . S
C331 C330 1.369 . S
C331 C340 1.429 . S
C332 C330 1.419 . S
C332 C333 1.363 . S
C332 H335 0.929 . S
C333 C332 1.363 . S
C333 C339 1.428 . S
H334 C330 0.930 . S
H335 C332 0.929 . S
S336 N337 1.613 . S
S336 N338 1.610 . S
N337 S336 1.613 . S
N337 C340 1.350 . S
N338 S336 1.610 . S
N338 C339 1.351 . S
C339 C333 1.428 . S
C339 N338 1.351 . S
C339 C340 1.434 . S
C340 C331 1.429 . S
C340 N337 1.350 . S
C340 C339 1.434 . S
C341 C342 1.369 . S
C341 C343 1.419 . S
C341 H345 0.930 . S
C342 C341 1.369 . S
C342 C351 1.429 . S
C343 C341 1.419 . S
C343 C344 1.363 . S
C343 H346 0.929 . S
C344 C343 1.363 . S
C344 C350 1.428 . S
H345 C341 0.930 . S
H346 C343 0.929 . S
S347 N348 1.613 . S
S347 N349 1.610 . S
N348 S347 1.613 . S
N348 C351 1.350 . S
N349 S347 1.610 . S
N349 C350 1.351 . S
C350 C344 1.428 . S
C350 N349 1.351 . S
C350 C351 1.434 . S
C351 C342 1.429 . S
C351 N348 1.350 . S
C351 C350 1.434 . S
C352 C353 1.369 . S
C352 C354 1.419 . S
C352 H356 0.930 . S
C353 C352 1.369 . S
C353 C362 1.429 1_565 S
C354 C352 1.419 . S
C354 C355 1.363 1_565 S
C354 H357 0.929 . S
C355 C354 1.363 1_545 S
C355 C361 1.428 . S
H356 C352 0.930 . S
H357 C354 0.929 . S
S358 N359 1.613 . S
S358 N360 1.610 . S
N359 S358 1.613 . S
N359 C362 1.350 . S
N360 S358 1.610 . S
N360 C361 1.351 . S
C361 C355 1.428 . S
C361 N360 1.351 . S
C361 C362 1.434 . S
C362 C353 1.429 1_545 S
C362 N359 1.350 . S
C362 C361 1.434 . S
C363 C364 1.369 1_554 S
C363 C365 1.417 . S
C363 H367 0.930 . S
C364 C363 1.369 1_556 S
C364 C373 1.429 . S
C365 C363 1.417 . S
C365 C366 1.364 1_565 S
C365 H368 0.929 . S
C366 C365 1.364 1_545 S
C366 C372 1.428 1_554 S
H367 C363 0.930 . S
H368 C365 0.929 . S
S369 N370 1.627 . S
S369 N371 1.610 . S
N370 S369 1.627 . S
N370 C373 1.349 1_545 S
N371 S369 1.610 . S
N371 C372 1.351 . S
C372 C366 1.428 1_556 S
C372 N371 1.351 . S
C372 C373 1.433 1_545 S
C373 C364 1.429 . S
C373 N370 1.349 1_565 S
C373 C372 1.433 1_565 S
C374 C375 1.364 1_455 S
C374 C376 1.425 . S
C374 H378 0.928 . S
C375 C374 1.364 1_655 S
C375 C384 1.429 . S
C376 C374 1.425 . S
C376 C377 1.363 . S
C376 H379 0.929 . S
C377 C376 1.363 . S
C377 C383 1.428 1_455 S
H378 C374 0.928 . S
H379 C376 0.929 . S
S380 N381 1.613 . S
S380 N382 1.610 . S
N381 S380 1.613 . S
N381 C384 1.350 . S
N382 S380 1.610 . S
N382 C383 1.351 . S
C383 C377 1.428 1_655 S
C383 N382 1.351 . S
C383 C384 1.434 . S
C384 C375 1.429 . S
C384 N381 1.350 . S
C384 C383 1.434 . S
C385 C386 1.369 . S
C385 C387 1.418 . S
C385 H389 0.930 . S
C386 C385 1.369 . S
C386 C395 1.429 1_454 S
C387 C385 1.418 . S
C387 C388 1.364 1_454 S
C387 H390 0.929 . S
C388 C387 1.364 1_656 S
C388 C394 1.428 . S
H389 C385 0.930 . S
H390 C387 0.929 . S
S391 N392 1.613 . S
S391 N393 1.610 . S
N392 S391 1.613 . S
N392 C395 1.350 . S
N393 S391 1.610 . S
N393 C394 1.351 . S
C394 C388 1.428 . S
C394 N393 1.351 . S
C394 C395 1.434 . S
C395 C386 1.429 1_656 S
C395 N392 1.350 . S
C395 C394 1.434 . S
C396 C397 1.369 . S
C396 C398 1.419 1_455 S
C396 H400 0.930 . S
C397 C396 1.369 . S
C397 C406 1.429 . S
C398 C396 1.419 1_655 S
C398 C399 1.363 . S
C398 H401 0.929 . S
C399 C398 1.363 . S
C399 C405 1.428 . S
H400 C396 0.930 . S
H401 C398 0.929 . S
S402 N403 1.613 . S
S402 N404 1.610 1_455 S
N403 S402 1.613 . S
N403 C406 1.350 . S
N404 S402 1.610 1_655 S
N404 C405 1.351 . S
C405 C399 1.428 . S
C405 N404 1.351 . S
C405 C406 1.434 1_655 S
C406 C397 1.429 . S
C406 N403 1.350 . S
C406 C405 1.434 1_455 S
C407 C408 1.369 . S
C407 C409 1.419 1_455 S
C407 H411 0.930 . S
C408 C407 1.369 . S
C408 C417 1.429 . S
C409 C407 1.419 1_655 S
C409 C410 1.363 . S
C409 H412 0.929 . S
C410 C409 1.363 . S
C410 C416 1.428 . S
H411 C407 0.930 . S
H412 C409 0.929 . S
S413 N414 1.613 1_645 S
S413 N415 1.610 1_545 S
N414 S413 1.613 1_465 S
N414 C417 1.350 . S
N415 S413 1.610 1_565 S
N415 C416 1.351 . S
C416 C410 1.428 . S
C416 N415 1.351 . S
C416 C417 1.434 1_655 S
C417 C408 1.429 . S
C417 N414 1.350 . S
C417 C416 1.434 1_455 S
C418 C419 1.369 . S
C418 C420 1.419 . S
C418 H422 0.930 . S
C419 C418 1.369 . S
C419 C428 1.429 . S
C420 C418 1.419 . S
C420 C421 1.363 . S
C420 H423 0.929 . S
C421 C420 1.363 . S
C421 C427 1.428 . S
H422 C418 0.930 . S
H423 C420 0.929 . S
S424 N425 1.613 . S
S424 N426 1.610 . S
N425 S424 1.613 . S
N425 C428 1.350 . S
N426 S424 1.610 . S
N426 C427 1.351 . S
C427 C421 1.428 . S
C427 N426 1.351 . S
C427 C428 1.434 . S
C428 C419 1.429 . S
C428 N425 1.350 . S
C428 C427 1.434 . S
C429 C430 1.369 . S
C429 C431 1.419 . S
C429 H433 0.930 . S
C430 C429 1.369 . S
C430 C439 1.429 . S
C431 C429 1.419 . S
C431 C432 1.363 . S
C431 H434 0.929 . S
C432 C431 1.363 . S
C432 C438 1.428 . S
H433 C429 0.930 . S
H434 C431 0.929 . S
S435 N436 1.613 . S
S435 N437 1.610 . S
N436 S435 1.613 . S
N436 C439 1.350 . S
N437 S435 1.610 . S
N437 C438 1.351 . S
C438 C432 1.428 . S
C438 N437 1.351 . S
C438 C439 1.434 . S
C439 C430 1.429 . S
C439 N436 1.350 . S
C439 C438 1.434 . S
C440 C441 1.369 . S
C440 C442 1.419 . S
C440 H444 0.930 . S
C441 C440 1.369 . S
C441 C450 1.429 . S
C442 C440 1.419 . S
C442 C443 1.363 . S
C442 H445 0.929 . S
C443 C442 1.363 . S
C443 C449 1.428 . S
H444 C440 0.930 . S
H445 C442 0.929 . S
S446 N447 1.613 . S
S446 N448 1.610 . S
N447 S446 1.613 . S
N447 C450 1.350 . S
N448 S446 1.610 . S
N448 C449 1.351 . S
C449 C443 1.428 . S
C449 N448 1.351 . S
C449 C450 1.434 . S
C450 C441 1.429 . S
C450 N447 1.350 . S
C450 C449 1.434 . S
C451 C452 1.369 1_554 S
C451 C453 1.419 . S
C451 H455 0.930 . S
C452 C451 1.369 1_556 S
C452 C461 1.429 . S
C453 C451 1.419 . S
C453 C454 1.363 . S
C453 H456 0.929 . S
C454 C453 1.363 . S
C454 C460 1.428 1_554 S
H455 C451 0.930 . S
H456 C453 0.929 . S
S457 N458 1.613 . S
S457 N459 1.610 . S
N458 S457 1.613 . S
N458 C461 1.350 . S
N459 S457 1.610 . S
N459 C460 1.351 . S
C460 C454 1.428 1_556 S
C460 N459 1.351 . S
C460 C461 1.434 . S
C461 C452 1.429 . S
C461 N458 1.350 . S
C461 C460 1.434 . S
C462 C463 1.369 . S
C462 C464 1.419 . S
C462 H466 0.930 . S
C463 C462 1.369 . S
C463 C472 1.429 . S
C464 C462 1.419 . S
C464 C465 1.363 . S
C464 H467 0.929 . S
C465 C464 1.363 . S
C465 C471 1.428 . S
H466 C462 0.930 . S
H467 C464 0.929 . S
S468 N469 1.613 . S
S468 N470 1.610 . S
N469 S468 1.613 . S
N469 C472 1.350 . S
N470 S468 1.610 . S
N470 C471 1.351 . S
C471 C465 1.428 . S
C471 N470 1.351 . S
C471 C472 1.434 . S
C472 C463 1.429 . S
C472 N469 1.350 . S
C472 C471 1.434 . S
C473 C474 1.369 . S
C473 C475 1.419 . S
C473 H477 0.930 . S
C474 C473 1.369 . S
C474 C483 1.429 1_556 S
C475 C473 1.419 . S
C475 C476 1.363 1_556 S
C475 H478 0.929 . S
C476 C475 1.363 1_554 S
C476 C482 1.428 . S
H477 C473 0.930 . S
H478 C475 0.929 . S
S479 N480 1.613 . S
S479 N481 1.610 . S
N480 S479 1.613 . S
N480 C483 1.350 . S
N481 S479 1.610 . S
N481 C482 1.351 . S
C482 C476 1.428 . S
C482 N481 1.351 . S
C482 C483 1.434 . S
C483 C474 1.429 1_554 S
C483 N480 1.350 . S
C483 C482 1.434 . S
C265 C106 1.151 . S
C267 C18 1.173 . S
C276 C51 1.172 . S
C278 C73 1.152 . S
C287 C84 1.169 . S
C289 C40 1.158 . S
C298 C117 1.173 . S
C300 C7 1.152 . S
C309 C150 1.171 . S
C311 C238 1.154 . S
C320 C183 1.173 . S
C322 C205 1.151 . S
C331 C172 1.150 . S
C333 C216 1.173 . S
C342 C249 1.169 . S
C344 C139 1.158 . S
C353 N79 1.839 . S
C355 N13 1.841 . S
C364 N112 1.842 . S
C366 N46 1.839 . S
C375 N145 1.839 . S
C377 N211 1.841 . S
C386 N178 1.841 . S
C388 N244 1.839 . S
C397 N2 1.238 . S
C399 N35 1.250 . S
C408 N101 1.250 . S
C410 N68 1.239 . S
C419 N167 1.237 . S
C421 N134 1.248 . S
C430 N233 1.238 . S
C432 N200 1.249 . S
C441 C219 1.625 . S
C443 C21 1.623 . S
C452 C252 1.620 . S
C454 C54 1.627 . S
C463 C153 1.622 . S
C465 C87 1.626 . S
C474 C120 1.624 . S
C476 C186 1.625 . S
