# Generated by pormake.
# Topology lta, (4)-cn, num edge types: 1
# Building blocks:
#     Node 0, Type 0, BuildingBlock: GALJAG_clean_sbu_0, # of connection points: 4
#     Node 1, Type 0, BuildingBlock: GALJAG_clean_sbu_0, # of connection points: 4
#     Node 2, Type 0, BuildingBlock: GALJAG_clean_sbu_0, # of connection points: 4
#     Node 3, Type 0, BuildingBlock: GALJAG_clean_sbu_0, # of connection points: 4
#     Node 4, Type 0, BuildingBlock: GALJAG_clean_sbu_0, # of connection points: 4
#     Node 5, Type 0, BuildingBlock: GALJAG_clean_sbu_0, # of connection points: 4
#     Node 6, Type 0, BuildingBlock: GALJAG_clean_sbu_0, # of connection points: 4
#     Node 7, Type 0, BuildingBlock: GALJAG_clean_sbu_0, # of connection points: 4
#     Node 8, Type 0, BuildingBlock: GALJAG_clean_sbu_0, # of connection points: 4
#     Node 9, Type 0, BuildingBlock: GALJAG_clean_sbu_0, # of connection points: 4
#     Node 10, Type 0, BuildingBlock: GALJAG_clean_sbu_0, # of connection points: 4
#     Node 11, Type 0, BuildingBlock: GALJAG_clean_sbu_0, # of connection points: 4
#     Node 12, Type 0, BuildingBlock: GALJAG_clean_sbu_0, # of connection points: 4
#     Node 13, Type 0, BuildingBlock: GALJAG_clean_sbu_0, # of connection points: 4
#     Node 14, Type 0, BuildingBlock: GALJAG_clean_sbu_0, # of connection points: 4
#     Node 15, Type 0, BuildingBlock: GALJAG_clean_sbu_0, # of connection points: 4
#     Node 16, Type 0, BuildingBlock: GALJAG_clean_sbu_0, # of connection points: 4
#     Node 17, Type 0, BuildingBlock: GALJAG_clean_sbu_0, # of connection points: 4
#     Node 18, Type 0, BuildingBlock: GALJAG_clean_sbu_0, # of connection points: 4
#     Node 19, Type 0, BuildingBlock: GALJAG_clean_sbu_0, # of connection points: 4
#     Node 20, Type 0, BuildingBlock: GALJAG_clean_sbu_0, # of connection points: 4
#     Node 21, Type 0, BuildingBlock: GALJAG_clean_sbu_0, # of connection points: 4
#     Node 22, Type 0, BuildingBlock: GALJAG_clean_sbu_0, # of connection points: 4
#     Node 23, Type 0, BuildingBlock: GALJAG_clean_sbu_0, # of connection points: 4
#     Edge 24, Type (0, 0), BuildingBlock: UVAHIK_clean_linker_0, # of connection points: 2
#     Edge 25, Type (0, 0), BuildingBlock: UVAHIK_clean_linker_0, # of connection points: 2
#     Edge 26, Type (0, 0), BuildingBlock: UVAHIK_clean_linker_0, # of connection points: 2
#     Edge 27, Type (0, 0), BuildingBlock: UVAHIK_clean_linker_0, # of connection points: 2
#     Edge 28, Type (0, 0), BuildingBlock: UVAHIK_clean_linker_0, # of connection points: 2
#     Edge 29, Type (0, 0), BuildingBlock: UVAHIK_clean_linker_0, # of connection points: 2
#     Edge 30, Type (0, 0), BuildingBlock: UVAHIK_clean_linker_0, # of connection points: 2
#     Edge 31, Type (0, 0), BuildingBlock: UVAHIK_clean_linker_0, # of connection points: 2
#     Edge 32, Type (0, 0), BuildingBlock: UVAHIK_clean_linker_0, # of connection points: 2
#     Edge 33, Type (0, 0), BuildingBlock: UVAHIK_clean_linker_0, # of connection points: 2
#     Edge 34, Type (0, 0), BuildingBlock: UVAHIK_clean_linker_0, # of connection points: 2
#     Edge 35, Type (0, 0), BuildingBlock: UVAHIK_clean_linker_0, # of connection points: 2
#     Edge 36, Type (0, 0), BuildingBlock: UVAHIK_clean_linker_0, # of connection points: 2
#     Edge 37, Type (0, 0), BuildingBlock: UVAHIK_clean_linker_0, # of connection points: 2
#     Edge 38, Type (0, 0), BuildingBlock: UVAHIK_clean_linker_0, # of connection points: 2
#     Edge 39, Type (0, 0), BuildingBlock: UVAHIK_clean_linker_0, # of connection points: 2
#     Edge 40, Type (0, 0), BuildingBlock: UVAHIK_clean_linker_0, # of connection points: 2
#     Edge 41, Type (0, 0), BuildingBlock: UVAHIK_clean_linker_0, # of connection points: 2
#     Edge 42, Type (0, 0), BuildingBlock: UVAHIK_clean_linker_0, # of connection points: 2
#     Edge 43, Type (0, 0), BuildingBlock: UVAHIK_clean_linker_0, # of connection points: 2
#     Edge 44, Type (0, 0), BuildingBlock: UVAHIK_clean_linker_0, # of connection points: 2
#     Edge 45, Type (0, 0), BuildingBlock: UVAHIK_clean_linker_0, # of connection points: 2
#     Edge 46, Type (0, 0), BuildingBlock: UVAHIK_clean_linker_0, # of connection points: 2
#     Edge 47, Type (0, 0), BuildingBlock: UVAHIK_clean_linker_0, # of connection points: 2
#     Edge 48, Type (0, 0), BuildingBlock: UVAHIK_clean_linker_0, # of connection points: 2
#     Edge 49, Type (0, 0), BuildingBlock: UVAHIK_clean_linker_0, # of connection points: 2
#     Edge 50, Type (0, 0), BuildingBlock: UVAHIK_clean_linker_0, # of connection points: 2
#     Edge 51, Type (0, 0), BuildingBlock: UVAHIK_clean_linker_0, # of connection points: 2
#     Edge 52, Type (0, 0), BuildingBlock: UVAHIK_clean_linker_0, # of connection points: 2
#     Edge 53, Type (0, 0), BuildingBlock: UVAHIK_clean_linker_0, # of connection points: 2
#     Edge 54, Type (0, 0), BuildingBlock: UVAHIK_clean_linker_0, # of connection points: 2
#     Edge 55, Type (0, 0), BuildingBlock: UVAHIK_clean_linker_0, # of connection points: 2
#     Edge 56, Type (0, 0), BuildingBlock: UVAHIK_clean_linker_0, # of connection points: 2
#     Edge 57, Type (0, 0), BuildingBlock: UVAHIK_clean_linker_0, # of connection points: 2
#     Edge 58, Type (0, 0), BuildingBlock: UVAHIK_clean_linker_0, # of connection points: 2
#     Edge 59, Type (0, 0), BuildingBlock: UVAHIK_clean_linker_0, # of connection points: 2
#     Edge 60, Type (0, 0), BuildingBlock: UVAHIK_clean_linker_0, # of connection points: 2
#     Edge 61, Type (0, 0), BuildingBlock: UVAHIK_clean_linker_0, # of connection points: 2
#     Edge 62, Type (0, 0), BuildingBlock: UVAHIK_clean_linker_0, # of connection points: 2
#     Edge 63, Type (0, 0), BuildingBlock: UVAHIK_clean_linker_0, # of connection points: 2
#     Edge 64, Type (0, 0), BuildingBlock: UVAHIK_clean_linker_0, # of connection points: 2
#     Edge 65, Type (0, 0), BuildingBlock: UVAHIK_clean_linker_0, # of connection points: 2
#     Edge 66, Type (0, 0), BuildingBlock: UVAHIK_clean_linker_0, # of connection points: 2
#     Edge 67, Type (0, 0), BuildingBlock: UVAHIK_clean_linker_0, # of connection points: 2
#     Edge 68, Type (0, 0), BuildingBlock: UVAHIK_clean_linker_0, # of connection points: 2
#     Edge 69, Type (0, 0), BuildingBlock: UVAHIK_clean_linker_0, # of connection points: 2
#     Edge 70, Type (0, 0), BuildingBlock: UVAHIK_clean_linker_0, # of connection points: 2
#     Edge 71, Type (0, 0), BuildingBlock: UVAHIK_clean_linker_0, # of connection points: 2
# Relax obj value: 0.417
# Max RMSD: 0.229
# Mean RMSD: 0.229
data_MOF--net-lta--node1-GALJAG_clean_sbu_0--edge1-UVAHIK_clean_linker_0
_symmetry_space_group_name_H-M    P1
_symmetry_Int_Tables_number       1
_symmetry_cell_setting            triclinic
loop_
_symmetry_equiv_pos_as_xyz
'x, y, z'
_cell_length_a     72.667618
_cell_length_b     72.646446
_cell_length_c     72.642207
_cell_angle_alpha  90.016789
_cell_angle_beta   90.038328
_cell_angle_gamma 89.992296
loop_
_atom_site_label
_atom_site_type_symbol
_atom_site_fract_x
_atom_site_fract_y
_atom_site_fract_z
_atom_type_partial_charge
In0 In 0.12697 0.30724 0.46894 0.0
O1 O 0.14611 0.31965 0.49058 0.0
O2 O 0.11966 0.31087 0.49924 0.0
C3 C 0.13608 0.3313 0.44229 0.0
C4 C 0.14595 0.27547 0.46818 0.0
C5 C 0.09036 0.30528 0.46418 0.0
O6 O 0.13622 0.33532 0.45917 0.0
O7 O 0.13127 0.31499 0.4387 0.0
O8 O 0.10096 0.29235 0.45946 0.0
O9 O 0.09832 0.31925 0.47073 0.0
C10 C 0.13483 0.318 0.50366 0.0
O11 O 0.13019 0.27675 0.47528 0.0
O12 O 0.15191 0.29009 0.46101 0.0
In13 In 0.6825 0.12599 0.46814 0.0
O14 O 0.66663 0.14449 0.488 0.0
O15 O 0.67836 0.12 0.49869 0.0
C16 C 0.66324 0.1359 0.43809 0.0
C17 C 0.71476 0.14417 0.47012 0.0
C18 C 0.68024 0.08922 0.46525 0.0
O19 O 0.65768 0.13859 0.45431 0.0
O20 O 0.67873 0.12809 0.43686 0.0
O21 O 0.69503 0.09783 0.46211 0.0
O22 O 0.66664 0.09924 0.46926 0.0
C23 C 0.66911 0.13432 0.50183 0.0
O24 O 0.71315 0.12763 0.47506 0.0
O25 O 0.70038 0.15115 0.46344 0.0
In26 In 0.86636 0.69204 0.47317 0.0
O27 O 0.86152 0.72027 0.48581 0.0
O28 O 0.84588 0.71317 0.46223 0.0
C29 C 0.90312 0.69247 0.47009 0.0
C30 C 0.8581 0.67599 0.50568 0.0
C31 C 0.85624 0.67101 0.44441 0.0
O32 O 0.89359 0.70695 0.46866 0.0
O33 O 0.89403 0.67788 0.47253 0.0
O34 O 0.84965 0.66909 0.46035 0.0
O35 O 0.86781 0.68389 0.44278 0.0
C36 C 0.84915 0.72487 0.47461 0.0
O37 O 0.84678 0.67693 0.49258 0.0
O38 O 0.87351 0.68322 0.50243 0.0
In39 In 0.31045 0.86586 0.47839 0.0
O40 O 0.32771 0.85342 0.50155 0.0
O41 O 0.3166 0.88013 0.50564 0.0
C42 C 0.3358 0.86268 0.45144 0.0
C43 C 0.28669 0.83751 0.47829 0.0
C44 C 0.29213 0.89789 0.47556 0.0
O45 O 0.33936 0.86942 0.46702 0.0
O46 O 0.31934 0.85761 0.44932 0.0
O47 O 0.28713 0.88511 0.4862 0.0
O48 O 0.30626 0.89438 0.46606 0.0
C49 C 0.32592 0.86704 0.51217 0.0
O50 O 0.28371 0.85211 0.46943 0.0
O51 O 0.30186 0.83703 0.48666 0.0
In52 In 0.12858 0.67361 0.5193 0.0
O53 O 0.14804 0.65944 0.49894 0.0
O54 O 0.12255 0.66944 0.48887 0.0
C55 C 0.13442 0.65058 0.54765 0.0
C56 C 0.1492 0.70431 0.52111 0.0
C57 C 0.09187 0.67715 0.52041 0.0
O58 O 0.13746 0.64624 0.53112 0.0
O59 O 0.12831 0.66668 0.55001 0.0
O60 O 0.10254 0.69027 0.52445 0.0
O61 O 0.09978 0.66215 0.51661 0.0
C62 C 0.13745 0.66137 0.48532 0.0
O63 O 0.13406 0.70367 0.5127 0.0
O64 O 0.1537 0.68959 0.52908 0.0
In65 In 0.30707 0.1177 0.51884 0.0
O66 O 0.33141 0.13175 0.50482 0.0
O67 O 0.31048 0.12024 0.48787 0.0
C68 C 0.32924 0.11591 0.54866 0.0
C69 C 0.2794 0.14232 0.51939 0.0
C70 C 0.29454 0.08351 0.51228 0.0
O71 O 0.33122 0.10576 0.53475 0.0
O72 O 0.31571 0.12673 0.54782 0.0
O73 O 0.28941 0.0926 0.5262 0.0
O74 O 0.30611 0.09154 0.50218 0.0
C75 C 0.32561 0.1287 0.48871 0.0
O76 O 0.27689 0.12551 0.5229 0.0
O77 O 0.29588 0.1467 0.51639 0.0
In78 In 0.8681 0.30583 0.52324 0.0
O79 O 0.85128 0.32689 0.50691 0.0
O80 O 0.87107 0.31107 0.49248 0.0
C81 C 0.86656 0.32662 0.55389 0.0
C82 C 0.84441 0.27768 0.52617 0.0
C83 C 0.90379 0.29692 0.51883 0.0
O84 O 0.87276 0.33239 0.53876 0.0
O85 O 0.86103 0.31015 0.55373 0.0
O86 O 0.89095 0.28688 0.51283 0.0
O87 O 0.89855 0.31086 0.52772 0.0
C88 C 0.85896 0.32343 0.49176 0.0
O89 O 0.86102 0.27623 0.53111 0.0
O90 O 0.83984 0.29336 0.5203 0.0
In91 In 0.67001 0.86123 0.51653 0.0
O92 O 0.69971 0.85646 0.52579 0.0
O93 O 0.68502 0.83412 0.51398 0.0
C94 C 0.67209 0.89793 0.51223 0.0
C95 C 0.65715 0.85373 0.48257 0.0
C96 C 0.65016 0.85346 0.54692 0.0
O97 O 0.68617 0.88781 0.51319 0.0
O98 O 0.65696 0.88958 0.51396 0.0
O99 O 0.64819 0.84503 0.5319 0.0
O100 O 0.66232 0.86585 0.54675 0.0
C101 C 0.69994 0.83988 0.52065 0.0
O102 O 0.64743 0.85206 0.49685 0.0
O103 O 0.67336 0.85923 0.48539 0.0
In104 In 0.47649 0.13436 0.31382 0.0
O105 O 0.46603 0.13697 0.28433 0.0
O106 O 0.47417 0.16134 0.29824 0.0
C107 C 0.48242 0.09791 0.3117 0.0
C108 C 0.51083 0.14396 0.32427 0.0
C109 C 0.44753 0.14053 0.33621 0.0
O110 O 0.47959 0.1078 0.29773 0.0
O111 O 0.48174 0.10632 0.32689 0.0
O112 O 0.46212 0.14985 0.33674 0.0
O113 O 0.44733 0.12806 0.32412 0.0
C114 C 0.46821 0.15415 0.28363 0.0
O115 O 0.49706 0.14522 0.33473 0.0
O116 O 0.50731 0.138 0.30835 0.0
In117 In 0.86418 0.47739 0.31781 0.0
O118 O 0.85552 0.4692 0.28866 0.0
O119 O 0.83524 0.48011 0.30662 0.0
C120 C 0.89913 0.47717 0.30563 0.0
C121 C 0.85829 0.51052 0.33369 0.0
C122 C 0.8614 0.44985 0.34236 0.0
O123 O 0.8869 0.48741 0.29875 0.0
O124 O 0.89361 0.46675 0.31839 0.0
O125 O 0.86818 0.46536 0.34624 0.0
O126 O 0.85624 0.44802 0.32585 0.0
C127 C 0.83902 0.47409 0.29083 0.0
O128 O 0.84837 0.49668 0.33687 0.0
O129 O 0.87129 0.50766 0.3226 0.0
In130 In 0.51707 0.87003 0.30678 0.0
O131 O 0.50389 0.86613 0.27854 0.0
O132 O 0.52462 0.84726 0.28668 0.0
C133 C 0.52349 0.90641 0.30531 0.0
C134 C 0.48442 0.86409 0.32348 0.0
C135 C 0.54594 0.85821 0.32674 0.0
O136 O 0.52348 0.89645 0.29106 0.0
O137 O 0.5207 0.89791 0.32018 0.0
O138 O 0.52944 0.85569 0.33148 0.0
O139 O 0.54801 0.86666 0.31169 0.0
C140 C 0.51307 0.85196 0.27463 0.0
O141 O 0.49639 0.85166 0.32169 0.0
O142 O 0.48885 0.87942 0.31672 0.0
In143 In 0.12734 0.51759 0.3096 0.0
O144 O 0.13443 0.5007 0.33504 0.0
O145 O 0.13653 0.48754 0.30904 0.0
C146 C 0.13603 0.54792 0.32907 0.0
C147 C 0.14531 0.51867 0.27724 0.0
C148 C 0.09053 0.51512 0.30694 0.0
O149 O 0.14663 0.53426 0.3276 0.0
O150 O 0.12099 0.54644 0.32047 0.0
O151 O 0.09986 0.52529 0.29639 0.0
O152 O 0.09972 0.50681 0.31909 0.0
C153 C 0.13817 0.48621 0.32626 0.0
O154 O 0.13047 0.51 0.27937 0.0
O155 O 0.1508 0.52724 0.29129 0.0
In156 In 0.47332 0.87464 0.68983 0.0
O157 O 0.47969 0.86742 0.71961 0.0
O158 O 0.4641 0.84833 0.70381 0.0
C159 C 0.47501 0.91108 0.69586 0.0
C160 C 0.50491 0.8617 0.67526 0.0
C161 C 0.44437 0.87442 0.66668 0.0
O162 O 0.46709 0.90042 0.70707 0.0
O163 O 0.48181 0.90331 0.68194 0.0
O164 O 0.46081 0.87594 0.66142 0.0
O165 O 0.44232 0.8728 0.68387 0.0
C166 C 0.47178 0.85198 0.71895 0.0
O167 O 0.48944 0.85466 0.67175 0.0
O168 O 0.50446 0.87505 0.68633 0.0
In169 In 0.12683 0.4617 0.67834 0.0
O170 O 0.1317 0.4562 0.70906 0.0
O171 O 0.15389 0.46608 0.69282 0.0
C172 C 0.09 0.46449 0.67938 0.0
C173 C 0.13275 0.49497 0.66314 0.0
C174 C 0.136 0.43033 0.66067 0.0
O175 O 0.09965 0.46362 0.69383 0.0
O176 O 0.09892 0.46336 0.66452 0.0
O177 O 0.14488 0.44511 0.65904 0.0
O178 O 0.1225 0.43117 0.67154 0.0
C179 C 0.14827 0.46138 0.70851 0.0
O180 O 0.13491 0.48013 0.65438 0.0
O181 O 0.12752 0.49305 0.67957 0.0
In182 In 0.52077 0.13381 0.6792 0.0
O183 O 0.5297 0.14614 0.70665 0.0
O184 O 0.51552 0.16333 0.68769 0.0
C185 C 0.52151 0.09935 0.69278 0.0
C186 C 0.48694 0.13613 0.66391 0.0
C187 C 0.54869 0.13632 0.65498 0.0
O188 O 0.51455 0.11263 0.70151 0.0
O189 O 0.52866 0.10361 0.67755 0.0
O190 O 0.53276 0.13099 0.65069 0.0
O191 O 0.5508 0.14028 0.67179 0.0
C192 C 0.52283 0.16174 0.70334 0.0
O193 O 0.50049 0.14526 0.65811 0.0
O194 O 0.49037 0.12602 0.67757 0.0
In195 In 0.86301 0.51887 0.67365 0.0
O196 O 0.85793 0.52573 0.70393 0.0
O197 O 0.83504 0.51847 0.68726 0.0
C198 C 0.89989 0.517 0.67494 0.0
C199 C 0.85709 0.48376 0.66322 0.0
C200 C 0.85521 0.54868 0.65296 0.0
O201 O 0.89022 0.51979 0.6891 0.0
O202 O 0.89096 0.51565 0.66008 0.0
O203 O 0.8476 0.53328 0.65057 0.0
O204 O 0.86677 0.54914 0.66591 0.0
C205 C 0.84084 0.52285 0.703 0.0
O206 O 0.85381 0.49728 0.65283 0.0
O207 O 0.8633 0.48795 0.67888 0.0
In208 In 0.31157 0.47177 0.12535 0.0
O209 O 0.28528 0.46016 0.13803 0.0
O210 O 0.30075 0.47969 0.15338 0.0
C211 C 0.29367 0.46956 0.09301 0.0
C212 C 0.32707 0.5055 0.12703 0.0
C213 C 0.33798 0.44586 0.12752 0.0
O214 O 0.28862 0.48011 0.10583 0.0
O215 O 0.30752 0.45972 0.09669 0.0
O216 O 0.33906 0.45964 0.11706 0.0
O217 O 0.32336 0.44492 0.13685 0.0
C218 C 0.28654 0.46982 0.15242 0.0
O219 O 0.33034 0.49313 0.13874 0.0
O220 O 0.31627 0.50076 0.11433 0.0
In221 In 0.29902 0.51555 0.87184 0.0
O222 O 0.30691 0.49257 0.85169 0.0
O223 O 0.30897 0.48714 0.8803 0.0
C224 C 0.32477 0.54113 0.86385 0.0
C225 C 0.26735 0.51667 0.85274 0.0
C226 C 0.29351 0.51763 0.90829 0.0
O227 O 0.32622 0.52442 0.85951 0.0
O228 O 0.31005 0.54522 0.87209 0.0
O229 O 0.2817 0.52343 0.89692 0.0
O230 O 0.30823 0.51179 0.90121 0.0
C231 C 0.311 0.4812 0.86415 0.0
O232 O 0.26947 0.50684 0.86687 0.0
O233 O 0.28105 0.5265 0.84858 0.0
In234 In 0.47183 0.32102 0.8648 0.0
O235 O 0.47391 0.29065 0.8574 0.0
O236 O 0.47058 0.30991 0.83564 0.0
C237 C 0.47001 0.31721 0.90157 0.0
C238 C 0.50609 0.33423 0.85937 0.0
C239 C 0.44104 0.3404 0.85776 0.0
O240 O 0.46699 0.30398 0.89072 0.0
O241 O 0.47342 0.33236 0.89384 0.0
O242 O 0.45695 0.34728 0.8572 0.0
O243 O 0.44052 0.32355 0.862 0.0
C244 C 0.47275 0.29334 0.8403 0.0
O245 O 0.49189 0.34222 0.85342 0.0
O246 O 0.50304 0.31955 0.86808 0.0
In247 In 0.68704 0.47547 0.86679 0.0
O248 O 0.6717 0.49356 0.84618 0.0
O249 O 0.68279 0.50636 0.87001 0.0
C250 C 0.66351 0.44705 0.86287 0.0
C251 C 0.71771 0.47479 0.84604 0.0
C252 C 0.69155 0.47659 0.9034 0.0
O253 O 0.6589 0.46362 0.86074 0.0
O254 O 0.68014 0.44462 0.86729 0.0
O255 O 0.70236 0.4677 0.89308 0.0
O256 O 0.67821 0.48417 0.89528 0.0
C257 C 0.67388 0.50822 0.85523 0.0
O258 O 0.71728 0.48191 0.86183 0.0
O259 O 0.70287 0.46735 0.84103 0.0
In260 In 0.51877 0.67202 0.8595 0.0
O261 O 0.52488 0.702 0.85206 0.0
O262 O 0.50899 0.686 0.83346 0.0
C263 C 0.51838 0.67676 0.89619 0.0
C264 C 0.4869 0.65321 0.85726 0.0
C265 C 0.55036 0.65548 0.84894 0.0
O266 O 0.51743 0.6901 0.88509 0.0
O267 O 0.51989 0.66113 0.88874 0.0
O268 O 0.53551 0.6539 0.84016 0.0
O269 O 0.54942 0.66569 0.86294 0.0
C270 C 0.51604 0.70139 0.83713 0.0
O271 O 0.50232 0.6459 0.85408 0.0
O272 O 0.48754 0.67002 0.86157 0.0
In273 In 0.68177 0.51389 0.12602 0.0
O274 O 0.71176 0.51743 0.13437 0.0
O275 O 0.69161 0.51708 0.15551 0.0
C276 C 0.69745 0.51556 0.09261 0.0
C277 C 0.66753 0.47988 0.13107 0.0
C278 C 0.65504 0.53954 0.12777 0.0
O279 O 0.70097 0.50296 0.10403 0.0
O280 O 0.68634 0.5277 0.09825 0.0
O281 O 0.65233 0.52348 0.12176 0.0
O282 O 0.67134 0.54279 0.13282 0.0
C283 C 0.70842 0.51788 0.15138 0.0
O284 O 0.67145 0.49043 0.14425 0.0
O285 O 0.67042 0.48659 0.11536 0.0
In286 In 0.46968 0.68143 0.12453 0.0
O287 O 0.46211 0.7114 0.13119 0.0
O288 O 0.47712 0.69603 0.15094 0.0
C289 C 0.47415 0.68394 0.08793 0.0
C290 C 0.50101 0.66271 0.13088 0.0
C291 C 0.43734 0.66438 0.13109 0.0
O292 O 0.47468 0.6979 0.09829 0.0
O293 O 0.47094 0.66891 0.09602 0.0
O294 O 0.43926 0.67594 0.1183 0.0
O295 O 0.45152 0.66183 0.14072 0.0
C296 C 0.4698 0.71114 0.14674 0.0
O297 O 0.48539 0.65665 0.1354 0.0
O298 O 0.50088 0.67832 0.12326 0.0
In299 In 0.52603 0.30762 0.12733 0.0
O300 O 0.51153 0.33419 0.1357 0.0
O301 O 0.49496 0.31108 0.12892 0.0
C302 C 0.55995 0.32077 0.13501 0.0
C303 C 0.52133 0.2774 0.14813 0.0
C304 C 0.5222 0.30659 0.09065 0.0
O305 O 0.54646 0.32255 0.1457 0.0
O306 O 0.55656 0.3118 0.12055 0.0
O307 O 0.52419 0.29213 0.10013 0.0
O308 O 0.52282 0.32145 0.09965 0.0
C309 C 0.49553 0.32768 0.13394 0.0
O310 O 0.52427 0.27634 0.13105 0.0
O311 O 0.52165 0.29347 0.15459 0.0
C312 C 0.14339 0.4522 0.32564 0.0
C313 C 0.14308 0.46885 0.3355 0.0
C314 C 0.14653 0.43556 0.33477 0.0
C315 C 0.16434 0.41561 0.37797 0.0
H316 H 0.12713 0.37809 0.3704 0.0
C317 C 0.14607 0.36276 0.43315 0.0
C318 C 0.14079 0.3449 0.428 0.0
C319 C 0.14968 0.37606 0.41982 0.0
C320 C 0.1379 0.3882 0.37241 0.0
H321 H 0.14654 0.48129 0.3624 0.0
H322 H 0.15212 0.45229 0.37832 0.0
H323 H 0.12787 0.40499 0.35037 0.0
H324 H 0.13565 0.32675 0.40487 0.0
H325 H 0.14207 0.35009 0.38143 0.0
H326 H 0.17409 0.39909 0.4003 0.0
C327 C 0.14998 0.45207 0.36356 0.0
C328 C 0.1383 0.40363 0.36095 0.0
C329 C 0.14666 0.46866 0.35448 0.0
C330 C 0.13963 0.34045 0.40921 0.0
C331 C 0.14324 0.35381 0.39582 0.0
C332 C 0.16402 0.40015 0.38936 0.0
C333 C 0.14964 0.43534 0.35386 0.0
C334 C 0.15116 0.41774 0.364 0.0
C335 C 0.14813 0.37181 0.40101 0.0
C336 C 0.15041 0.38657 0.38709 0.0
H337 H 0.14069 0.45198 0.31098 0.0
H338 H 0.14629 0.42286 0.32697 0.0
H339 H 0.17459 0.42616 0.38042 0.0
H340 H 0.14708 0.3666 0.44753 0.0
H341 H 0.15308 0.38986 0.42432 0.0
C342 C 0.65655 0.13498 0.4042 0.0
C343 C 0.65199 0.14105 0.42199 0.0
C344 C 0.64484 0.13872 0.38935 0.0
C345 C 0.60491 0.16753 0.3753 0.0
H346 H 0.59027 0.12462 0.34714 0.0
C347 C 0.5323 0.1569 0.34763 0.0
C348 C 0.52964 0.14805 0.33067 0.0
C349 C 0.54998 0.15924 0.3547 0.0
C350 C 0.59447 0.13686 0.35454 0.0
H351 H 0.63211 0.15642 0.43809 0.0
H352 H 0.61175 0.16282 0.4124 0.0
H353 H 0.61713 0.12293 0.36718 0.0
H354 H 0.54334 0.13529 0.30743 0.0
H355 H 0.57441 0.13918 0.31999 0.0
H356 H 0.58162 0.18113 0.36343 0.0
C357 C 0.62437 0.15534 0.40977 0.0
C358 C 0.60988 0.1359 0.36602 0.0
C359 C 0.63596 0.15151 0.42455 0.0
C360 C 0.54503 0.14216 0.32056 0.0
C361 C 0.56277 0.14432 0.32775 0.0
C362 C 0.58949 0.16848 0.36388 0.0
C363 C 0.62849 0.14874 0.39206 0.0
C364 C 0.6148 0.151 0.37707 0.0
C365 C 0.56537 0.15264 0.34503 0.0
C366 C 0.58371 0.15293 0.35395 0.0
H367 H 0.66887 0.12692 0.40186 0.0
H368 H 0.64839 0.13354 0.37584 0.0
H369 H 0.60861 0.17951 0.38338 0.0
H370 H 0.52068 0.16161 0.35569 0.0
H371 H 0.55152 0.16546 0.36817 0.0
C372 C 0.83763 0.64523 0.43165 0.0
C373 C 0.85202 0.65793 0.4295 0.0
C374 C 0.83525 0.631 0.41899 0.0
C375 C 0.84986 0.61312 0.37334 0.0
H376 H 0.84291 0.56584 0.39712 0.0
C377 C 0.86687 0.54342 0.33888 0.0
C378 C 0.85508 0.52853 0.34245 0.0
C379 C 0.86426 0.56025 0.34782 0.0
C380 C 0.84454 0.57894 0.3902 0.0
H381 H 0.87454 0.66643 0.4119 0.0
H382 H 0.87066 0.64129 0.38993 0.0
H383 H 0.84186 0.59378 0.41538 0.0
H384 H 0.83096 0.51968 0.35761 0.0
H385 H 0.82635 0.54908 0.37315 0.0
H386 H 0.85307 0.59803 0.34818 0.0
C387 C 0.86105 0.64245 0.40126 0.0
C388 C 0.84391 0.59499 0.40067 0.0
C389 C 0.86333 0.65681 0.41388 0.0
C390 C 0.84035 0.53089 0.35472 0.0
C391 C 0.83774 0.5477 0.36364 0.0
C392 C 0.85054 0.597 0.36283 0.0
C393 C 0.84733 0.62906 0.40402 0.0
C394 C 0.84669 0.61227 0.39241 0.0
C395 C 0.84982 0.56247 0.36049 0.0
C396 C 0.84803 0.57973 0.37121 0.0
H397 H 0.82857 0.64591 0.44347 0.0
H398 H 0.82429 0.62116 0.42126 0.0
H399 H 0.8519 0.62624 0.36655 0.0
H400 H 0.87832 0.54198 0.32945 0.0
H401 H 0.87391 0.57132 0.34525 0.0
C402 C 0.34517 0.85458 0.41927 0.0
C403 C 0.34989 0.86081 0.43696 0.0
C404 C 0.35865 0.85291 0.40564 0.0
C405 C 0.40871 0.84815 0.39945 0.0
H406 H 0.3999 0.86845 0.35086 0.0
C407 C 0.45431 0.87566 0.33528 0.0
C408 C 0.4671 0.86126 0.33365 0.0
C409 C 0.43865 0.87355 0.34619 0.0
C410 C 0.40252 0.86269 0.36436 0.0
H411 H 0.37233 0.87011 0.45433 0.0
H412 H 0.3958 0.8672 0.43058 0.0
H413 H 0.37525 0.86878 0.37375 0.0
H414 H 0.47322 0.83313 0.34153 0.0
H415 H 0.4458 0.82944 0.3606 0.0
H416 H 0.43611 0.84258 0.39033 0.0
C417 C 0.38175 0.86347 0.42726 0.0
C418 C 0.38839 0.86274 0.37739 0.0
C419 C 0.36829 0.86525 0.44082 0.0
C420 C 0.46363 0.84449 0.34261 0.0
C421 C 0.44799 0.8424 0.35358 0.0
C422 C 0.42279 0.84801 0.38641 0.0
C423 C 0.37708 0.85728 0.40954 0.0
C424 C 0.39146 0.85578 0.39517 0.0
C425 C 0.4355 0.85702 0.35572 0.0
C426 C 0.41995 0.85556 0.36883 0.0
H427 H 0.33107 0.85106 0.41594 0.0
H428 H 0.35469 0.84802 0.39211 0.0
H429 H 0.41139 0.8425 0.41298 0.0
H430 H 0.45664 0.88874 0.32851 0.0
H431 H 0.42938 0.88513 0.34773 0.0
C432 C 0.1436 0.5144 0.63707 0.0
C433 C 0.13589 0.51314 0.65473 0.0
C434 C 0.1461 0.53153 0.62879 0.0
C435 C 0.12731 0.57789 0.62822 0.0
H436 H 0.17041 0.58808 0.59845 0.0
C437 C 0.13194 0.64176 0.58091 0.0
C438 C 0.13749 0.63754 0.56288 0.0
C439 C 0.13406 0.6288 0.595 0.0
C440 C 0.15831 0.58544 0.60674 0.0
H441 H 0.12502 0.52875 0.67774 0.0
H442 H 0.12925 0.5588 0.6631 0.0
H443 H 0.16989 0.56089 0.61816 0.0
H444 H 0.15005 0.61676 0.5455 0.0
H445 H 0.15361 0.59422 0.56991 0.0
H446 H 0.11541 0.60201 0.61621 0.0
C447 C 0.13334 0.54651 0.65572 0.0
C448 C 0.15802 0.56991 0.618 0.0
C449 C 0.13097 0.52934 0.66408 0.0
C450 C 0.14562 0.6204 0.55927 0.0
C451 C 0.14782 0.60754 0.5733 0.0
C452 C 0.12758 0.59343 0.6169 0.0
C453 C 0.14085 0.54774 0.63795 0.0
C454 C 0.1423 0.56567 0.62839 0.0
C455 C 0.1419 0.6115 0.59128 0.0
C456 C 0.14285 0.59701 0.6056 0.0
H457 H 0.14753 0.50214 0.62955 0.0
H458 H 0.15167 0.53204 0.61497 0.0
H459 H 0.11497 0.57489 0.63601 0.0
H460 H 0.12566 0.65491 0.58406 0.0
H461 H 0.12945 0.63224 0.60876 0.0
C462 C 0.34157 0.12949 0.57787 0.0
C463 C 0.34288 0.11638 0.5637 0.0
C464 C 0.35586 0.13149 0.59062 0.0
C465 C 0.40553 0.12466 0.59341 0.0
H466 H 0.3995 0.13247 0.64588 0.0
C467 C 0.45442 0.12523 0.66122 0.0
C468 C 0.46887 0.13628 0.65467 0.0
C469 C 0.43791 0.12401 0.65142 0.0
C470 C 0.40135 0.13028 0.63125 0.0
H471 H 0.3596 0.09438 0.55238 0.0
H472 H 0.38443 0.09782 0.57465 0.0
H473 H 0.37242 0.12655 0.62661 0.0
H474 H 0.47713 0.15535 0.63326 0.0
H475 H 0.44829 0.15325 0.61619 0.0
H476 H 0.43436 0.12818 0.59792 0.0
C477 C 0.37253 0.10673 0.57574 0.0
C478 C 0.38589 0.127 0.62024 0.0
C479 C 0.35826 0.1047 0.56307 0.0
C480 C 0.46627 0.14664 0.63857 0.0
C481 C 0.4498 0.14537 0.62876 0.0
C482 C 0.42092 0.12806 0.60434 0.0
C483 C 0.3717 0.12046 0.58934 0.0
C484 C 0.38787 0.12402 0.60123 0.0
C485 C 0.4356 0.13375 0.63488 0.0
C486 C 0.41902 0.13085 0.62337 0.0
H487 H 0.32984 0.13866 0.57868 0.0
H488 H 0.35489 0.14222 0.60093 0.0
H489 H 0.40746 0.12268 0.57875 0.0
H490 H 0.45605 0.11712 0.67362 0.0
H491 H 0.42725 0.11486 0.6564 0.0
C492 C 0.84565 0.46056 0.64062 0.0
C493 C 0.85483 0.46454 0.65716 0.0
C494 C 0.84486 0.44253 0.63405 0.0
C495 C 0.83959 0.40149 0.62684 0.0
H496 H 0.88798 0.37956 0.62156 0.0
C497 C 0.85294 0.33514 0.5844 0.0
C498 C 0.86563 0.33856 0.57023 0.0
C499 C 0.85105 0.34766 0.59894 0.0
C500 C 0.87435 0.38537 0.6232 0.0
H501 H 0.86978 0.45276 0.68017 0.0
H502 H 0.86871 0.4212 0.66843 0.0
H503 H 0.88423 0.40726 0.64026 0.0
H504 H 0.88688 0.3571 0.56049 0.0
H505 H 0.88389 0.37864 0.58602 0.0
H506 H 0.8299 0.38001 0.60906 0.0
C507 C 0.86206 0.43205 0.66064 0.0
C508 C 0.87217 0.40114 0.63396 0.0
C509 C 0.86265 0.45007 0.66735 0.0
C510 C 0.87694 0.35418 0.57122 0.0
C511 C 0.87533 0.36643 0.58588 0.0
C512 C 0.84173 0.38556 0.61626 0.0
C513 C 0.85342 0.42817 0.64379 0.0
C514 C 0.85489 0.4097 0.63534 0.0
C515 C 0.86216 0.36347 0.59969 0.0
C516 C 0.85925 0.37778 0.61383 0.0
H517 H 0.83944 0.47145 0.63254 0.0
H518 H 0.8383 0.43996 0.6209 0.0
H519 H 0.8261 0.40778 0.6278 0.0
H520 H 0.84404 0.3232 0.58388 0.0
H521 H 0.84079 0.34514 0.60945 0.0
C522 C 0.53824 0.86601 0.66823 0.0
C523 C 0.52193 0.85592 0.66587 0.0
C524 C 0.55374 0.86203 0.6576 0.0
C525 C 0.56514 0.84238 0.61262 0.0
H526 H 0.6155 0.84834 0.62929 0.0
C527 C 0.62525 0.83556 0.56224 0.0
C528 C 0.63825 0.84984 0.56293 0.0
C529 C 0.61263 0.83321 0.57651 0.0
C530 C 0.6015 0.84666 0.62445 0.0
H531 H 0.50934 0.83304 0.65143 0.0
H532 H 0.53651 0.82587 0.63306 0.0
H533 H 0.59035 0.84932 0.65162 0.0
H534 H 0.64885 0.87234 0.57943 0.0
H535 H 0.62658 0.86842 0.6043 0.0
H536 H 0.57611 0.8402 0.58546 0.0
C537 C 0.53722 0.83711 0.64284 0.0
C538 C 0.58711 0.84722 0.63722 0.0
C539 C 0.52169 0.84114 0.65341 0.0
C540 C 0.63895 0.86123 0.57854 0.0
C541 C 0.62627 0.85891 0.59282 0.0
C542 C 0.57948 0.84179 0.5999 0.0
C543 C 0.55325 0.84783 0.64445 0.0
C544 C 0.56875 0.84535 0.63139 0.0
C545 C 0.61271 0.84514 0.59174 0.0
C546 C 0.59779 0.84418 0.60563 0.0
H547 H 0.53882 0.87748 0.67774 0.0
H548 H 0.56579 0.87068 0.65906 0.0
H549 H 0.55115 0.84127 0.60759 0.0
H550 H 0.6245 0.82646 0.55045 0.0
H551 H 0.60254 0.82229 0.57543 0.0
C552 C 0.35145 0.14539 0.47339 0.0
C553 C 0.33608 0.13377 0.47212 0.0
C554 C 0.36202 0.14921 0.45781 0.0
C555 C 0.36265 0.14503 0.40658 0.0
H556 H 0.41549 0.14478 0.41401 0.0
C557 C 0.4167 0.13226 0.34922 0.0
C558 C 0.43261 0.14323 0.34968 0.0
C559 C 0.40353 0.1337 0.36317 0.0
C560 C 0.40075 0.14513 0.41174 0.0
H561 H 0.3194 0.11738 0.45357 0.0
H562 H 0.33816 0.12348 0.42653 0.0
H563 H 0.39516 0.1426 0.44044 0.0
H564 H 0.44683 0.16489 0.36457 0.0
H565 H 0.42392 0.16727 0.38894 0.0
H566 H 0.36849 0.14678 0.37768 0.0
C567 C 0.34187 0.13005 0.43939 0.0
C568 C 0.38907 0.14396 0.4269 0.0
C569 C 0.33118 0.12643 0.45493 0.0
C570 C 0.43476 0.15616 0.36391 0.0
C571 C 0.42169 0.1575 0.37788 0.0
C572 C 0.37438 0.14599 0.39136 0.0
C573 C 0.35758 0.14128 0.44069 0.0
C574 C 0.36987 0.14377 0.42453 0.0
C575 C 0.40616 0.14603 0.37786 0.0
C576 C 0.39354 0.14596 0.39383 0.0
H577 H 0.35542 0.15138 0.48646 0.0
H578 H 0.3738 0.15823 0.45923 0.0
H579 H 0.34793 0.1452 0.40426 0.0
H580 H 0.41469 0.12221 0.33838 0.0
H581 H 0.39171 0.12462 0.3629 0.0
C582 C 0.84083 0.3469 0.4743 0.0
C583 C 0.85496 0.33374 0.47475 0.0
C584 C 0.83819 0.35779 0.45867 0.0
C585 C 0.84584 0.38779 0.431 0.0
H586 H 0.85596 0.37097 0.38135 0.0
C587 C 0.86626 0.43801 0.37412 0.0
C588 C 0.85921 0.43532 0.35634 0.0
C589 C 0.86361 0.42477 0.38773 0.0
C590 C 0.85285 0.37585 0.39509 0.0
H591 H 0.87694 0.32109 0.45902 0.0
H592 H 0.8727 0.34036 0.43199 0.0
H593 H 0.8537 0.34862 0.40632 0.0
H594 H 0.84404 0.4166 0.33872 0.0
H595 H 0.83922 0.39341 0.36267 0.0
H596 H 0.84487 0.41496 0.41983 0.0
C597 C 0.8634 0.34211 0.4435 0.0
C598 C 0.85175 0.36307 0.40943 0.0
C599 C 0.86594 0.33115 0.45906 0.0
C600 C 0.84965 0.41899 0.35233 0.0
C601 C 0.84694 0.40572 0.36601 0.0
C602 C 0.84686 0.40052 0.41669 0.0
C603 C 0.84973 0.35582 0.44325 0.0
C604 C 0.84864 0.36895 0.42762 0.0
C605 C 0.85376 0.40856 0.38391 0.0
C606 C 0.85083 0.39475 0.39866 0.0
H607 H 0.83205 0.34906 0.48615 0.0
H608 H 0.82733 0.36799 0.4588 0.0
H609 H 0.8436 0.39285 0.44484 0.0
H610 H 0.87379 0.45041 0.37759 0.0
H611 H 0.86942 0.4272 0.40125 0.0
C612 C 0.57952 0.85818 0.33459 0.0
C613 C 0.56144 0.85267 0.33861 0.0
C614 C 0.59376 0.85457 0.34705 0.0
C615 C 0.60536 0.82787 0.38928 0.0
H616 H 0.63411 0.87101 0.40201 0.0
C617 C 0.63255 0.84186 0.4618 0.0
C618 C 0.64995 0.84995 0.46398 0.0
C619 C 0.62525 0.83911 0.44425 0.0
C620 C 0.6265 0.8587 0.3984 0.0
H621 H 0.54419 0.83829 0.35825 0.0
H622 H 0.56882 0.83221 0.37998 0.0
H623 H 0.61503 0.87137 0.37445 0.0
H624 H 0.6736 0.86108 0.44959 0.0
H625 H 0.66066 0.85648 0.41882 0.0
H626 H 0.61611 0.81561 0.41384 0.0
C627 C 0.57217 0.83912 0.3672 0.0
C628 C 0.61558 0.85888 0.38258 0.0
C629 C 0.55799 0.84275 0.35481 0.0
C630 C 0.66012 0.85485 0.44829 0.0
C631 C 0.65273 0.85226 0.43071 0.0
C632 C 0.61619 0.82773 0.40515 0.0
C633 C 0.59014 0.84533 0.36367 0.0
C634 C 0.60439 0.84371 0.37821 0.0
C635 C 0.63514 0.84452 0.42855 0.0
C636 C 0.62637 0.84337 0.41019 0.0
H637 H 0.58256 0.86579 0.32214 0.0
H638 H 0.60751 0.85938 0.34389 0.0
H639 H 0.59717 0.81583 0.38607 0.0
H640 H 0.62443 0.8379 0.47366 0.0
H641 H 0.61155 0.83335 0.44302 0.0
C642 C 0.15804 0.64433 0.46362 0.0
C643 C 0.1416 0.65392 0.46691 0.0
C644 C 0.16112 0.63592 0.44659 0.0
C645 C 0.14385 0.6332 0.39838 0.0
H646 H 0.16037 0.58257 0.4018 0.0
C647 C 0.12727 0.57746 0.34441 0.0
C648 C 0.14037 0.56364 0.34115 0.0
C649 C 0.13058 0.59104 0.35763 0.0
C650 C 0.1561 0.5968 0.4005 0.0
H651 H 0.11584 0.66295 0.45481 0.0
H652 H 0.12102 0.64804 0.4253 0.0
H653 H 0.16072 0.60189 0.42907 0.0
H654 H 0.16765 0.5538 0.34827 0.0
H655 H 0.17346 0.57757 0.37124 0.0
H656 H 0.13854 0.62775 0.36987 0.0
C657 C 0.13168 0.64718 0.43569 0.0
C658 C 0.15632 0.6079 0.41616 0.0
C659 C 0.12863 0.6556 0.45267 0.0
C660 C 0.15722 0.56419 0.35062 0.0
C661 C 0.16053 0.57776 0.36381 0.0
C662 C 0.14358 0.62205 0.3827 0.0
C663 C 0.14779 0.63694 0.43257 0.0
C664 C 0.14982 0.6261 0.41538 0.0
C665 C 0.14704 0.59102 0.36781 0.0
C666 C 0.14936 0.60362 0.3837 0.0
H667 H 0.16833 0.64293 0.47432 0.0
H668 H 0.17378 0.62833 0.44451 0.0
H669 H 0.13902 0.64726 0.39728 0.0
H670 H 0.11417 0.57738 0.33728 0.0
H671 H 0.11985 0.60098 0.36051 0.0
C672 C 0.33161 0.88328 0.54191 0.0
C673 C 0.33415 0.86774 0.5307 0.0
C674 C 0.34004 0.88433 0.55915 0.0
C675 C 0.36373 0.85688 0.59504 0.0
H676 H 0.39049 0.90222 0.6039 0.0
C677 C 0.41126 0.86882 0.65855 0.0
C678 C 0.42896 0.87477 0.65352 0.0
C679 C 0.39701 0.86871 0.64556 0.0
C680 C 0.38295 0.88954 0.60168 0.0
H681 H 0.34697 0.84084 0.52893 0.0
H682 H 0.36194 0.84279 0.55895 0.0
H683 H 0.37003 0.89997 0.57742 0.0
H684 H 0.44557 0.88561 0.63122 0.0
H685 H 0.42076 0.88564 0.60876 0.0
H686 H 0.37737 0.84627 0.61898 0.0
C687 C 0.35325 0.85407 0.55452 0.0
C688 C 0.37114 0.88828 0.58661 0.0
C689 C 0.34482 0.85302 0.53727 0.0
C690 C 0.43208 0.88091 0.63547 0.0
C691 C 0.41785 0.88106 0.62265 0.0
C692 C 0.3755 0.85818 0.61022 0.0
C693 C 0.35117 0.86986 0.56552 0.0
C694 C 0.36176 0.87179 0.58285 0.0
C695 C 0.40021 0.87488 0.6275 0.0
C696 C 0.3856 0.87436 0.61335 0.0
H697 H 0.3233 0.89477 0.53727 0.0
H698 H 0.33802 0.89658 0.56742 0.0
H699 H 0.35651 0.84406 0.59258 0.0
H700 H 0.40854 0.86398 0.67238 0.0
H701 H 0.3835 0.86388 0.6496 0.0
C702 C 0.1565 0.41339 0.63908 0.0
C703 C 0.14006 0.41412 0.64919 0.0
C704 C 0.15924 0.39964 0.62596 0.0
C705 C 0.14046 0.35579 0.60713 0.0
H706 H 0.1581 0.37589 0.56094 0.0
C707 C 0.12511 0.32371 0.53612 0.0
C708 C 0.13862 0.32491 0.52237 0.0
C709 C 0.12798 0.3318 0.55332 0.0
C710 C 0.1535 0.36991 0.57379 0.0
H711 H 0.11407 0.40047 0.65438 0.0
H712 H 0.11861 0.37667 0.6311 0.0
H713 H 0.15847 0.3949 0.58837 0.0
H714 H 0.16611 0.33465 0.51607 0.0
H715 H 0.17119 0.34871 0.54617 0.0
H716 H 0.13485 0.33097 0.59217 0.0
C717 C 0.12953 0.38653 0.63348 0.0
C718 C 0.15372 0.38082 0.58957 0.0
C719 C 0.12688 0.40021 0.64676 0.0
C720 C 0.15539 0.33364 0.52637 0.0
C721 C 0.15827 0.34173 0.54357 0.0
C722 C 0.14018 0.34486 0.59127 0.0
C723 C 0.1455 0.38646 0.62252 0.0
C724 C 0.14696 0.37401 0.60637 0.0
C725 C 0.14444 0.34125 0.55709 0.0
C726 C 0.14645 0.35193 0.57438 0.0
H727 H 0.167 0.42383 0.64084 0.0
H728 H 0.17187 0.39972 0.61806 0.0
H729 H 0.13535 0.35007 0.6199 0.0
H730 H 0.11206 0.31703 0.53342 0.0
H731 H 0.11698 0.33136 0.56337 0.0
C732 C 0.55964 0.13361 0.6227 0.0
C733 C 0.56338 0.13814 0.64111 0.0
C734 C 0.57306 0.13582 0.60922 0.0
C735 C 0.6227 0.139 0.60163 0.0
H736 H 0.60691 0.15771 0.55418 0.0
C737 C 0.65131 0.15477 0.52296 0.0
C738 C 0.66086 0.13825 0.51994 0.0
C739 C 0.64194 0.15769 0.53948 0.0
C740 C 0.6117 0.15278 0.5674 0.0
H741 H 0.58419 0.14829 0.65995 0.0
H742 H 0.60784 0.15219 0.63618 0.0
H743 H 0.58547 0.1575 0.57979 0.0
H744 H 0.6689 0.11221 0.5321 0.0
H745 H 0.65219 0.11706 0.56074 0.0
H746 H 0.64895 0.13416 0.58911 0.0
C747 C 0.59447 0.14689 0.63228 0.0
C748 C 0.59932 0.15243 0.58203 0.0
C749 C 0.58095 0.1447 0.64584 0.0
C750 C 0.6616 0.12506 0.53405 0.0
C751 C 0.65214 0.12792 0.55053 0.0
C752 C 0.63515 0.13936 0.58695 0.0
C753 C 0.59055 0.14264 0.6138 0.0
C754 C 0.60451 0.14508 0.59914 0.0
C755 C 0.64184 0.14408 0.55326 0.0
C756 C 0.62964 0.14587 0.56955 0.0
H757 H 0.54627 0.12841 0.61863 0.0
H758 H 0.56974 0.13204 0.59517 0.0
H759 H 0.62708 0.13324 0.61466 0.0
H760 H 0.65068 0.16526 0.51238 0.0
H761 H 0.63441 0.17042 0.54129 0.0
C762 C 0.83679 0.56401 0.62841 0.0
C763 C 0.85158 0.56451 0.64082 0.0
C764 C 0.83426 0.57819 0.61571 0.0
C765 C 0.84962 0.62552 0.60324 0.0
H766 H 0.83809 0.60908 0.55377 0.0
C767 C 0.86691 0.66648 0.5375 0.0
C768 C 0.85408 0.66629 0.52303 0.0
C769 C 0.86386 0.65604 0.55333 0.0
C770 C 0.841 0.61395 0.56756 0.0
H771 H 0.87497 0.58046 0.6502 0.0
H772 H 0.87095 0.60498 0.62766 0.0
H773 H 0.83776 0.58709 0.57894 0.0
H774 H 0.8277 0.65564 0.51401 0.0
H775 H 0.82243 0.63726 0.54168 0.0
H776 H 0.85365 0.65229 0.5915 0.0
C777 C 0.86103 0.59386 0.62793 0.0
C778 C 0.84078 0.60136 0.58203 0.0
C779 C 0.86343 0.57976 0.64078 0.0
C780 C 0.83785 0.65599 0.52493 0.0
C781 C 0.83486 0.64543 0.54072 0.0
C782 C 0.84999 0.63811 0.5887 0.0
C783 C 0.84663 0.59306 0.615 0.0
C784 C 0.84532 0.60692 0.60002 0.0
C785 C 0.84799 0.64512 0.55493 0.0
C786 C 0.84591 0.63238 0.57069 0.0
H787 H 0.82732 0.55249 0.62829 0.0
H788 H 0.82279 0.57733 0.60622 0.0
H789 H 0.8529 0.63033 0.61697 0.0
H790 H 0.87953 0.67434 0.53641 0.0
H791 H 0.8743 0.65592 0.56399 0.0
C792 C 0.35321 0.41932 0.14338 0.0
C793 C 0.35305 0.43239 0.12914 0.0
C794 C 0.36821 0.40744 0.1455 0.0
C795 C 0.41734 0.40336 0.13275 0.0
H796 H 0.41108 0.3522 0.14652 0.0
C797 C 0.46162 0.33203 0.13093 0.0
C798 C 0.4788 0.33881 0.1366 0.0
C799 C 0.44594 0.34306 0.13213 0.0
C800 C 0.41305 0.36644 0.14258 0.0
H801 H 0.36804 0.44289 0.10558 0.0
H802 H 0.39388 0.42192 0.10893 0.0
H803 H 0.38413 0.37198 0.14345 0.0
H804 H 0.493 0.36205 0.14877 0.0
H805 H 0.46555 0.38118 0.15137 0.0
H806 H 0.4461 0.39773 0.13103 0.0
C807 C 0.38274 0.42112 0.1188 0.0
C808 C 0.39762 0.37782 0.14103 0.0
C809 C 0.36787 0.43305 0.11678 0.0
C810 C 0.47994 0.35656 0.14413 0.0
C811 C 0.46423 0.36753 0.14552 0.0
C812 C 0.43272 0.39198 0.13417 0.0
C813 C 0.38325 0.40837 0.13335 0.0
C814 C 0.39959 0.39637 0.13587 0.0
C815 C 0.4471 0.36105 0.1392 0.0
C816 C 0.43077 0.37334 0.13894 0.0
H817 H 0.34196 0.41856 0.15313 0.0
H818 H 0.36823 0.39787 0.15692 0.0
H819 H 0.4194 0.41767 0.1291 0.0
H820 H 0.46037 0.31839 0.12503 0.0
H821 H 0.43305 0.3377 0.1269 0.0
C822 C 0.46937 0.62465 0.84978 0.0
C823 C 0.46949 0.64283 0.85631 0.0
C824 C 0.45303 0.61458 0.84939 0.0
C825 C 0.40223 0.61901 0.85144 0.0
H826 H 0.40514 0.56781 0.8662 0.0
C827 C 0.33884 0.5725 0.86718 0.0
C828 C 0.33982 0.55435 0.86055 0.0
C829 C 0.35399 0.58428 0.86549 0.0
C830 C 0.40413 0.58204 0.86186 0.0
H831 H 0.45264 0.66486 0.86731 0.0
H832 H 0.42411 0.64712 0.86701 0.0
H833 H 0.43292 0.58641 0.86567 0.0
H834 H 0.35699 0.53458 0.8462 0.0
H835 H 0.38327 0.5551 0.84321 0.0
H836 H 0.37324 0.61453 0.84796 0.0
C837 C 0.43657 0.64073 0.8619 0.0
C838 C 0.42006 0.5927 0.86151 0.0
C839 C 0.45292 0.65086 0.86218 0.0
C840 C 0.35588 0.54844 0.85159 0.0
C841 C 0.37097 0.56015 0.84995 0.0
C842 C 0.38622 0.60832 0.85189 0.0
C843 C 0.43647 0.62241 0.85566 0.0
C844 C 0.41935 0.61127 0.85616 0.0
C845 C 0.37033 0.57805 0.85722 0.0
C846 C 0.38707 0.58969 0.85696 0.0
H847 H 0.48192 0.61816 0.84501 0.0
H848 H 0.45338 0.60062 0.84415 0.0
H849 H 0.40124 0.63324 0.8471 0.0
H850 H 0.32661 0.57741 0.87413 0.0
H851 H 0.35316 0.59801 0.87126 0.0
C852 C 0.40677 0.34378 0.85539 0.0
C853 C 0.42445 0.35149 0.85409 0.0
C854 C 0.39116 0.35476 0.85273 0.0
C855 C 0.3763 0.40049 0.83489 0.0
H856 H 0.33826 0.39658 0.87205 0.0
C857 C 0.32472 0.4517 0.87491 0.0
C858 C 0.31875 0.46284 0.86031 0.0
C859 C 0.33385 0.43519 0.87145 0.0
C860 C 0.34873 0.39782 0.86152 0.0
H861 H 0.43971 0.37653 0.84854 0.0
H862 H 0.41269 0.39565 0.84428 0.0
H863 H 0.36227 0.37325 0.87045 0.0
H864 H 0.31665 0.46499 0.83062 0.0
H865 H 0.3324 0.43589 0.82451 0.0
H866 H 0.36363 0.42574 0.82683 0.0
C867 C 0.41074 0.38113 0.847 0.0
C868 C 0.36237 0.38431 0.86046 0.0
C869 C 0.42626 0.37019 0.84964 0.0
C870 C 0.32126 0.45672 0.84214 0.0
C871 C 0.33033 0.4401 0.83866 0.0
C872 C 0.36276 0.41405 0.83604 0.0
C873 C 0.393 0.37361 0.84869 0.0
C874 C 0.3767 0.38588 0.84757 0.0
C875 C 0.33712 0.42936 0.85328 0.0
C876 C 0.3492 0.41323 0.84981 0.0
H877 H 0.40499 0.32936 0.85873 0.0
H878 H 0.37768 0.34855 0.85399 0.0
H879 H 0.38694 0.40188 0.82455 0.0
H880 H 0.32296 0.45606 0.88907 0.0
H881 H 0.33913 0.42747 0.88306 0.0
C882 C 0.65432 0.41391 0.86611 0.0
C883 C 0.65034 0.43188 0.86014 0.0
C884 C 0.6413 0.39987 0.86395 0.0
C885 C 0.59963 0.38737 0.83778 0.0
H886 H 0.585 0.36079 0.88167 0.0
C887 C 0.52722 0.35832 0.84716 0.0
C888 C 0.52474 0.34181 0.85684 0.0
C889 C 0.54468 0.36611 0.84557 0.0
C890 C 0.58915 0.36777 0.86917 0.0
H891 H 0.62995 0.44916 0.84683 0.0
H892 H 0.60742 0.42474 0.84296 0.0
H893 H 0.61241 0.38019 0.88239 0.0
H894 H 0.5386 0.32015 0.87202 0.0
H895 H 0.56924 0.33377 0.86917 0.0
H896 H 0.57613 0.37542 0.82469 0.0
C897 C 0.62053 0.42144 0.84925 0.0
C898 C 0.60485 0.37887 0.8696 0.0
C899 C 0.63338 0.43546 0.85162 0.0
C900 C 0.54012 0.33296 0.86453 0.0
C901 C 0.55763 0.34077 0.86296 0.0
C902 C 0.58402 0.37621 0.83732 0.0
C903 C 0.62428 0.40355 0.85551 0.0
C904 C 0.60984 0.38926 0.85409 0.0
C905 C 0.56006 0.35753 0.85362 0.0
C906 C 0.57824 0.36681 0.8532 0.0
H907 H 0.66732 0.41081 0.87272 0.0
H908 H 0.6445 0.38617 0.86888 0.0
H909 H 0.60338 0.39501 0.82554 0.0
H910 H 0.51561 0.36545 0.84109 0.0
H911 H 0.54602 0.37919 0.83855 0.0
C912 C 0.66695 0.54133 0.86121 0.0
C913 C 0.66557 0.52588 0.84967 0.0
C914 C 0.65746 0.55749 0.85698 0.0
C915 C 0.61597 0.5721 0.8326 0.0
H916 H 0.63328 0.62112 0.84476 0.0
C917 C 0.5671 0.63359 0.82846 0.0
C918 C 0.56691 0.6447 0.84428 0.0
C919 C 0.58157 0.62133 0.82538 0.0
C920 C 0.62827 0.60751 0.8413 0.0
H921 H 0.65409 0.5155 0.82415 0.0
H922 H 0.63764 0.54382 0.81664 0.0
H923 H 0.65461 0.59512 0.84603 0.0
H924 H 0.58216 0.65256 0.8687 0.0
H925 H 0.60727 0.63092 0.86352 0.0
H926 H 0.58954 0.58422 0.82853 0.0
C927 C 0.6458 0.54335 0.82911 0.0
C928 C 0.64047 0.59264 0.84202 0.0
C929 C 0.65527 0.52716 0.83337 0.0
C930 C 0.58195 0.64413 0.8564 0.0
C931 C 0.59639 0.6318 0.85336 0.0
C932 C 0.60381 0.58692 0.83188 0.0
C933 C 0.64643 0.55854 0.8411 0.0
C934 C 0.63434 0.57471 0.83806 0.0
C935 C 0.59608 0.61987 0.83811 0.0
C936 C 0.60971 0.60474 0.83658 0.0
H937 H 0.67483 0.54074 0.87386 0.0
H938 H 0.65808 0.56886 0.86662 0.0
H939 H 0.6107 0.55844 0.82977 0.0
H940 H 0.55576 0.63388 0.81878 0.0
H941 H 0.5811 0.61257 0.81332 0.0
C942 C 0.6232 0.54988 0.12038 0.0
C943 C 0.64016 0.55327 0.12897 0.0
C944 C 0.60886 0.56254 0.12185 0.0
C945 C 0.59846 0.61104 0.13383 0.0
H946 H 0.54882 0.59184 0.13747 0.0
C947 C 0.518 0.63646 0.14503 0.0
C948 C 0.51798 0.65193 0.13347 0.0
C949 C 0.53366 0.62543 0.14648 0.0
C950 C 0.56259 0.5975 0.13677 0.0
H951 H 0.65553 0.57257 0.14576 0.0
H952 H 0.63025 0.59454 0.14878 0.0
H953 H 0.57458 0.5707 0.13647 0.0
H954 H 0.53436 0.66832 0.11471 0.0
H955 H 0.56149 0.64871 0.11667 0.0
H956 H 0.58641 0.6379 0.13471 0.0
C957 C 0.62814 0.58227 0.14059 0.0
C958 C 0.57738 0.58533 0.13586 0.0
C959 C 0.64259 0.56965 0.13894 0.0
C960 C 0.53404 0.65648 0.12377 0.0
C961 C 0.54963 0.64529 0.125 0.0
C962 C 0.58363 0.62326 0.13494 0.0
C963 C 0.61105 0.57879 0.13214 0.0
C964 C 0.59548 0.59191 0.13409 0.0
C965 C 0.54953 0.62945 0.13615 0.0
C966 C 0.56549 0.61663 0.1362 0.0
H967 H 0.62101 0.53743 0.11246 0.0
H968 H 0.59606 0.5596 0.11479 0.0
H969 H 0.6122 0.6166 0.13235 0.0
H970 H 0.50585 0.63277 0.15282 0.0
H971 H 0.53322 0.61361 0.15554 0.0
C972 C 0.34675 0.52884 0.14282 0.0
C973 C 0.33491 0.52416 0.12828 0.0
C974 C 0.35417 0.54653 0.14399 0.0
C975 C 0.36582 0.58625 0.11525 0.0
H976 H 0.37297 0.61042 0.16232 0.0
C977 C 0.40654 0.65362 0.12013 0.0
C978 C 0.42067 0.65304 0.13331 0.0
C979 C 0.39231 0.64068 0.12059 0.0
C980 C 0.37103 0.60385 0.14908 0.0
H981 H 0.32127 0.53433 0.10374 0.0
H982 H 0.33422 0.56526 0.10581 0.0
H983 H 0.35537 0.58183 0.1608 0.0
H984 H 0.43039 0.63937 0.15801 0.0
H985 H 0.40574 0.61677 0.15875 0.0
H986 H 0.38198 0.60786 0.10359 0.0
C987 C 0.33789 0.55522 0.1162 0.0
C988 C 0.36101 0.58747 0.14821 0.0
C989 C 0.33046 0.53753 0.11504 0.0
C990 C 0.4197 0.64011 0.14763 0.0
C991 C 0.40549 0.62722 0.14812 0.0
C992 C 0.37584 0.60261 0.11611 0.0
C993 C 0.34989 0.55988 0.13065 0.0
C994 C 0.35868 0.57827 0.13134 0.0
C995 C 0.39197 0.627 0.13428 0.0
C996 C 0.37893 0.61135 0.1331 0.0
H997 H 0.35039 0.51881 0.15323 0.0
H998 H 0.36361 0.5496 0.15512 0.0
H999 H 0.36445 0.57939 0.10207 0.0
H1000 H 0.40691 0.66351 0.10898 0.0
H1001 H 0.38193 0.64099 0.10989 0.0
C1002 C 0.65612 0.4547 0.15152 0.0
C1003 C 0.66034 0.4611 0.13378 0.0
C1004 C 0.64898 0.43704 0.15402 0.0
C1005 C 0.64336 0.39171 0.1316 0.0
H1006 H 0.5989 0.38893 0.1609 0.0
C1007 C 0.58866 0.33518 0.12297 0.0
C1008 C 0.57724 0.33093 0.13794 0.0
C1009 C 0.60259 0.3483 0.12486 0.0
C1010 C 0.61156 0.38924 0.15305 0.0
H1011 H 0.66089 0.45395 0.1048 0.0
H1012 H 0.6483 0.42312 0.10916 0.0
H1013 H 0.616 0.41756 0.15964 0.0
H1014 H 0.57254 0.33548 0.16704 0.0
H1015 H 0.59729 0.35785 0.17055 0.0
H1016 H 0.63867 0.36344 0.1247 0.0
C1017 C 0.65065 0.43169 0.12114 0.0
C1018 C 0.62132 0.40574 0.15228 0.0
C1019 C 0.65768 0.44939 0.11863 0.0
C1020 C 0.58103 0.3387 0.15522 0.0
C1021 C 0.59511 0.35161 0.15718 0.0
C1022 C 0.63365 0.37512 0.13248 0.0
C1023 C 0.64605 0.42541 0.13883 0.0
C1024 C 0.63707 0.40727 0.14123 0.0
C1025 C 0.60546 0.35723 0.14182 0.0
C1026 C 0.61739 0.37381 0.14289 0.0
H1027 H 0.65814 0.46341 0.16346 0.0
H1028 H 0.64566 0.43249 0.16782 0.0
H1029 H 0.65562 0.39246 0.12317 0.0
H1030 H 0.586 0.32939 0.10948 0.0
H1031 H 0.6102 0.35234 0.1127 0.0
C1032 C 0.05932 0.31827 0.47031 0.0
C1033 C 0.07016 0.30356 0.4641 0.0
C1034 C 0.04047 0.31601 0.47288 0.0
C1035 C 0.00677 0.27996 0.48319 0.0
H1036 H 0.97252 0.32049 0.4774 0.0
C1037 C 0.92853 0.27913 0.50274 0.0
C1038 C 0.92316 0.29431 0.51346 0.0
C1039 C 0.94625 0.27834 0.49524 0.0
C1040 C 0.98195 0.30906 0.47905 0.0
H1041 H 0.06972 0.27522 0.45472 0.0
H1042 H 0.03655 0.27133 0.45896 0.0
H1043 H 0.00338 0.32295 0.46452 0.0
H1044 H 0.93228 0.32009 0.5255 0.0
H1045 H 0.96304 0.31875 0.51228 0.0
H1046 H 0.98515 0.26618 0.49784 0.0
C1047 C 0.04272 0.28452 0.46213 0.0
C1048 C -0.0004 0.31046 0.47171 0.0
C1049 C 0.06166 0.28679 0.45958 0.0
C1050 C 0.93601 0.30823 0.51726 0.0
C1051 C 0.95355 0.30755 0.5096 0.0
C1052 C 0.98898 0.27848 0.49035 0.0
C1053 C 0.032 0.299 0.46921 0.0
C1054 C 0.01242 0.29619 0.47422 0.0
C1055 C 0.95866 0.29284 0.49817 0.0
C1056 C 0.97666 0.29327 0.48882 0.0
H1057 H 0.0655 0.33136 0.47392 0.0
H1058 H 0.03271 0.32739 0.4786 0.0
H1059 H 0.01636 0.26878 0.4855 0.0
H1060 H 0.91887 0.26822 0.4996 0.0
H1061 H 0.94996 0.26683 0.48651 0.0
C1062 C 0.69538 0.05832 0.46593 0.0
C1063 C 0.67927 0.06899 0.46628 0.0
C1064 C 0.6946 0.03945 0.46962 0.0
C1065 C 0.66561 0.00617 0.49431 0.0
H1066 H 0.69569 0.96961 0.46968 0.0
C1067 C 0.65706 0.92833 0.50671 0.0
C1068 C 0.67318 0.91776 0.50809 0.0
C1069 C 0.65798 0.9468 0.50151 0.0
C1070 C 0.68736 0.97972 0.4768 0.0
H1071 H 0.64963 0.06821 0.46963 0.0
H1072 H 0.64823 0.03528 0.47568 0.0
H1073 H 0.6967 0.00162 0.45942 0.0
H1074 H 0.7029 0.91823 0.50546 0.0
H1075 H 0.7045 0.95059 0.49652 0.0
H1076 H 0.65628 0.98433 0.51168 0.0
C1077 C 0.66151 0.04151 0.47302 0.0
C1078 C 0.68791 -0.00198 0.47091 0.0
C1079 C 0.66229 0.06034 0.46941 0.0
C1080 C 0.69025 0.92607 0.5045 0.0
C1081 C 0.69116 0.94453 0.49924 0.0
C1082 C 0.66504 0.9879 0.50016 0.0
C1083 C 0.6777 0.03095 0.47367 0.0
C1084 C 0.677 0.01143 0.47957 0.0
C1085 C 0.67502 0.95504 0.49755 0.0
C1086 C 0.67588 0.97448 0.49147 0.0
H1087 H 0.70866 0.06466 0.46359 0.0
H1088 H 0.70733 0.03171 0.4701 0.0
H1089 H 0.65735 0.01625 0.50154 0.0
H1090 H 0.64371 0.92226 0.50933 0.0
H1091 H 0.64529 0.9545 0.50016 0.0
C1092 C 0.93293 0.70929 0.4734 0.0
C1093 C 0.92335 0.69267 0.47101 0.0
C1094 C 0.95179 0.70913 0.47715 0.0
C1095 C 0.99332 0.6799 0.47591 0.0
H1096 H 0.00822 0.70798 0.51886 0.0
C1097 C 0.06094 0.66456 0.51288 0.0
C1098 C 0.07196 0.67969 0.51767 0.0
C1099 C 0.04279 0.66719 0.50727 0.0
C1100 C 0.00433 0.70024 0.50672 0.0
H1101 H 0.92603 0.66297 0.46959 0.0
H1102 H 0.95889 0.6627 0.47602 0.0
H1103 H 0.97705 0.71136 0.50674 0.0
H1104 H 0.07245 0.70931 0.52128 0.0
H1105 H 0.04065 0.71394 0.51138 0.0
H1106 H 0.02047 0.66861 0.47597 0.0
C1107 C 0.95191 0.67584 0.475 0.0
C1108 C 0.98652 0.70223 0.49974 0.0
C1109 C 0.93308 0.67599 0.47141 0.0
C1110 C 0.06422 0.6974 0.5177 0.0
C1111 C 0.04604 0.70005 0.51203 0.0
C1112 C 0.0111 0.67794 0.48286 0.0
C1113 C 0.96136 0.69237 0.47837 0.0
C1114 C 0.98078 0.69184 0.48445 0.0
C1115 C 0.03532 0.68501 0.50627 0.0
C1116 C 0.01668 0.68783 0.49853 0.0
H1117 H 0.92573 0.72234 0.47316 0.0
H1118 H 0.95881 0.72207 0.47949 0.0
H1119 H 0.98932 0.67192 0.46396 0.0
H1120 H 0.06652 0.65073 0.51284 0.0
H1121 H 0.03471 0.65529 0.50335 0.0
C1122 C 0.29332 0.05641 0.49146 0.0
C1123 C 0.2875 0.06504 0.50774 0.0
C1124 C 0.28716 0.03883 0.48703 0.0
C1125 C 0.2711 -0.00331 0.50869 0.0
H1126 H 0.2645 0.98162 0.45786 0.0
C1127 C 0.27012 0.92043 0.48924 0.0
C1128 C 0.28354 0.91625 0.47596 0.0
C1129 C 0.2643 0.93857 0.49179 0.0
C1130 C 0.26615 0.98565 0.47212 0.0
H1131 H 0.27031 0.06229 0.53195 0.0
H1132 H 0.25953 0.03126 0.52421 0.0
H1133 H 0.2658 0.01433 0.46549 0.0
H1134 H 0.30034 0.92742 0.45399 0.0
H1135 H 0.29023 0.95907 0.45844 0.0
H1136 H 0.27227 0.96805 0.51523 0.0
C1137 C 0.26893 0.03816 0.51494 0.0
C1138 C 0.26693 0.00434 0.4765 0.0
C1139 C 0.27509 0.05588 0.51937 0.0
C1140 C 0.29003 0.93027 0.46438 0.0
C1141 C 0.28414 0.94838 0.46686 0.0
C1142 C 0.27024 0.97801 0.50432 0.0
C1143 C 0.27503 0.02942 0.49877 0.0
C1144 C 0.2702 0.01002 0.49472 0.0
C1145 C 0.2717 0.95279 0.481 0.0
C1146 C 0.2685 0.97231 0.48591 0.0
H1147 H 0.30286 0.06315 0.4822 0.0
H1148 H 0.29244 0.03236 0.47468 0.0
H1149 H 0.27377 0.00062 0.52282 0.0
H1150 H 0.2648 0.90985 0.4983 0.0
H1151 H 0.25457 0.94158 0.50267 0.0
C1152 C 0.52398 0.93595 0.28769 0.0
C1153 C 0.52462 0.92664 0.30462 0.0
C1154 C 0.52224 0.95509 0.28724 0.0
C1155 C 0.52554 -0.0027 0.31567 0.0
H1156 H 0.4861 0.01476 0.28419 0.0
C1157 C 0.49139 0.06799 0.32604 0.0
C1158 C 0.4874 0.07831 0.31021 0.0
C1159 C 0.49727 0.04975 0.3245 0.0
C1160 C 0.49733 0.01017 0.29286 0.0
H1161 H 0.52508 0.93002 0.33428 0.0
H1162 H 0.522 0.96336 0.33349 0.0
H1163 H 0.49565 0.98268 0.28251 0.0
H1164 H 0.4862 0.0777 0.28038 0.0
H1165 H 0.49655 0.0459 0.27768 0.0
H1166 H 0.52699 0.02476 0.32624 0.0
C1167 C 0.5229 0.95595 0.32058 0.0
C1168 C 0.50284 0.99181 0.29186 0.0
C1169 C 0.52457 0.93684 0.32103 0.0
C1170 C 0.48911 0.07003 0.29283 0.0
C1171 C 0.49499 0.05181 0.29128 0.0
C1172 C 0.52004 0.01569 0.31666 0.0
C1173 C 0.52121 0.96523 0.3037 0.0
C1174 C 0.51683 0.98513 0.30343 0.0
C1175 C 0.49926 0.04152 0.30709 0.0
C1176 C 0.5057 0.02225 0.30544 0.0
H1177 H 0.52405 0.9284 0.27483 0.0
H1178 H 0.52121 0.96193 0.27403 0.0
H1179 H 0.5365 0.99257 0.32461 0.0
H1180 H 0.49017 0.07404 0.33962 0.0
H1181 H 0.50016 0.04207 0.33694 0.0
C1182 C 0.92442 0.49151 0.2873 0.0
C1183 C 0.91868 0.47861 0.3005 0.0
C1184 C 0.94315 0.49454 0.2842 0.0
C1185 C 0.98971 0.47561 0.29355 0.0
H1186 H 0.00438 0.52697 0.29367 0.0
C1187 C 0.06169 0.4987 0.31531 0.0
C1188 C 0.07066 0.51195 0.30448 0.0
C1189 C 0.04325 0.49449 0.3122 0.0
C1190 C 0.00048 0.51258 0.29333 0.0
H1191 H 0.92792 0.45815 0.32017 0.0
H1192 H 0.96052 0.46357 0.31497 0.0
H1193 H 0.97181 0.51901 0.29196 0.0
H1194 H 0.06732 0.53148 0.28217 0.0
H1195 H 0.03482 0.52424 0.27687 0.0
H1196 H 0.01838 0.46924 0.29562 0.0
C1197 C 0.95064 0.47122 0.30683 0.0
C1198 C 0.98185 0.508 0.29229 0.0
C1199 C 0.93195 0.46818 0.3099 0.0
C1200 C 0.06072 0.52123 0.29074 0.0
C1201 C 0.04216 0.51711 0.2877 0.0
C1202 C 0.00831 0.4802 0.29468 0.0
C1203 C 0.95645 0.48473 0.29425 0.0
C1204 C 0.97624 0.48947 0.29282 0.0
C1205 C 0.03335 0.50351 0.29826 0.0
C1206 C 0.01384 0.49872 0.29502 0.0
H1207 H 0.91447 0.49968 0.27978 0.0
H1208 H 0.94721 0.50485 0.27422 0.0
H1209 H 0.98585 0.46121 0.29362 0.0
H1210 H 0.069 0.49133 0.32602 0.0
H1211 H 0.0367 0.4842 0.32077 0.0
C1212 C 0.47238 0.93943 0.71552 0.0
C1213 C 0.47673 0.93108 0.69861 0.0
C1214 C 0.47513 0.95836 0.71797 0.0
C1215 C 0.48126 0.00121 0.6914 0.0
H1216 H 0.51027 0.01855 0.73279 0.0
C1217 C 0.52391 0.06586 0.6863 0.0
C1218 C 0.51881 0.08005 0.69837 0.0
C1219 C 0.51807 0.04789 0.6895 0.0
C1220 C 0.50197 0.01387 0.72132 0.0
H1221 H 0.487 0.9359 0.67099 0.0
H1222 H 0.49176 0.9686 0.67524 0.0
H1223 H 0.4993 0.98654 0.73222 0.0
H1224 H 0.50494 0.0864 0.72405 0.0
H1225 H 0.49497 0.05463 0.72979 0.0
H1226 H 0.48468 0.02813 0.68005 0.0
C1227 C 0.4861 0.96073 0.68656 0.0
C1228 C 0.49561 -0.00433 0.72103 0.0
C1229 C 0.4835 0.94194 0.68417 0.0
C1230 C 0.50901 0.0757 0.71449 0.0
C1231 C 0.50331 0.0576 0.7178 0.0
C1232 C 0.48772 0.01922 0.69162 0.0
C1233 C 0.48202 0.96915 0.70347 0.0
C1234 C 0.48575 0.98904 0.70573 0.0
C1235 C 0.50722 0.04377 0.70492 0.0
C1236 C 0.4986 0.02549 0.70628 0.0
H1237 H 0.46718 0.9313 0.72688 0.0
H1238 H 0.47187 0.96456 0.73114 0.0
H1239 H 0.47334 -0.00342 0.67963 0.0
H1240 H 0.53153 0.06877 0.67382 0.0
H1241 H 0.52138 0.03732 0.67951 0.0
C1242 C 0.92993 0.51035 0.65973 0.0
C1243 C 0.91993 0.51402 0.67584 0.0
C1244 C 0.94858 0.50585 0.6607 0.0
C1245 C 0.98271 0.48622 0.69229 0.0
H1246 H 0.01774 0.50442 0.65641 0.0
C1247 C 0.061 0.47179 0.69639 0.0
C1248 C 0.07007 0.46823 0.6797 0.0
C1249 C 0.04256 0.47724 0.69644 0.0
C1250 C 0.00807 0.49906 0.66641 0.0
H1251 H 0.92165 0.51643 0.70556 0.0
H1252 H 0.95432 0.50871 0.70723 0.0
H1253 H 0.98605 0.51538 0.65564 0.0
H1254 H 0.06684 0.46686 0.65004 0.0
H1255 H 0.03461 0.47607 0.65015 0.0
H1256 H 0.00472 0.46979 0.70297 0.0
C1257 C 0.94767 0.50909 0.69388 0.0
C1258 C 0.98995 0.50538 0.66599 0.0
C1259 C 0.92902 0.51364 0.69291 0.0
C1260 C 0.06022 0.4696 0.66312 0.0
C1261 C 0.04181 0.47502 0.66317 0.0
C1262 C 0.00085 0.47988 0.6927 0.0
C1263 C 0.95758 0.50491 0.6778 0.0
C1264 C 0.97704 0.49893 0.67884 0.0
C1265 C 0.03287 0.47922 0.6798 0.0
C1266 C 0.01368 0.48612 0.67966 0.0
H1267 H 0.92326 0.51051 0.64639 0.0
H1268 H 0.95579 0.50253 0.64808 0.0
H1269 H 0.973 0.4808 0.70222 0.0
H1270 H 0.06829 0.4709 0.70937 0.0
H1271 H 0.03607 0.48048 0.70946 0.0
C1272 C 0.30187 0.50481 0.93881 0.0
C1273 C 0.28952 0.51502 0.92799 0.0
C1274 C 0.29709 0.49951 0.95656 0.0
C1275 C 0.27184 0.51005 -0.00317 0.0
H1276 H 0.27488 0.45755 0.00626 0.0
C1277 C 0.2711 0.48277 0.07072 0.0
C1278 C 0.28571 0.47065 0.0744 0.0
C1279 C 0.26587 0.48647 0.05259 0.0
C1280 C 0.27392 0.47223 0.00387 0.0
H1281 H 0.26292 0.52857 0.92757 0.0
H1282 H 0.25482 0.51972 0.95924 0.0
H1283 H 0.2775 0.46901 0.9748 0.0
H1284 H 0.30541 0.45187 0.0622 0.0
H1285 H 0.29664 0.45853 0.03067 0.0
H1286 H 0.2697 0.51351 0.02595 0.0
C1287 C 0.26802 0.51562 0.95364 0.0
C1288 C 0.27532 0.47875 0.98589 0.0
C1289 C 0.27269 0.52071 0.93565 0.0
C1290 C 0.29411 0.46129 0.05976 0.0
C1291 C 0.28897 0.46505 0.04166 0.0
C1292 C 0.27068 0.50356 0.01489 0.0
C1293 C 0.28 0.50453 0.96396 0.0
C1294 C 0.27493 0.49772 0.98234 0.0
C1295 C 0.27522 0.47816 0.03784 0.0
C1296 C 0.27242 0.48461 0.01866 0.0
H1297 H 0.31494 0.50023 0.93331 0.0
H1298 H 0.30665 0.49121 0.96446 0.0
H1299 H 0.27157 0.52475 0.99432 0.0
H1300 H 0.26428 0.49007 0.08179 0.0
H1301 H 0.25501 0.49638 0.05011 0.0
C1302 C 0.47117 0.29722 0.92955 0.0
C1303 C 0.47129 0.31487 0.92167 0.0
C1304 C 0.47472 0.29495 0.94832 0.0
C1305 C 0.47697 0.31994 0.99256 0.0
H1306 H 0.51416 0.28378 0.00528 0.0
C1307 C 0.51521 0.32281 0.0613 0.0
C1308 C 0.51767 0.30623 0.07089 0.0
C1309 C 0.50891 0.32271 0.04318 0.0
C1310 C 0.50358 0.29376 0.00199 0.0
H1311 H 0.47437 0.34403 0.92727 0.0
H1312 H 0.48053 0.3401 0.95997 0.0
H1313 H 0.50267 0.28546 0.97372 0.0
H1314 H 0.5161 0.27648 0.0689 0.0
H1315 H 0.50501 0.2763 0.03711 0.0
H1316 H 0.47804 0.32844 0.02071 0.0
C1317 C 0.47763 0.32801 0.95173 0.0
C1318 C 0.49697 0.29469 0.98395 0.0
C1319 C 0.47419 0.33026 0.93299 0.0
C1320 C 0.51435 0.28948 0.0618 0.0
C1321 C 0.50803 0.28937 0.04362 0.0
C1322 C 0.48355 0.319 0.01057 0.0
C1323 C 0.4783 0.31032 0.95952 0.0
C1324 C 0.48383 0.30801 0.979 0.0
C1325 C 0.50491 0.30602 0.03426 0.0
C1326 C 0.49717 0.30614 0.01539 0.0
H1327 H 0.46895 0.28512 0.92112 0.0
H1328 H 0.47496 0.28118 0.95402 0.0
H1329 H 0.46663 0.33015 0.9892 0.0
H1330 H 0.51774 0.33593 0.06792 0.0
H1331 H 0.50703 0.33574 0.03618 0.0
C1332 C 0.6849 0.49286 0.93274 0.0
C1333 C 0.69521 0.47967 0.9231 0.0
C1334 C 0.68936 0.49732 0.95084 0.0
C1335 C 0.71021 0.47994 0.99245 0.0
H1336 H 0.71281 0.53159 0.00588 0.0
C1337 C 0.71657 0.50116 0.06803 0.0
C1338 C 0.70395 0.51476 0.07345 0.0
C1339 C 0.72027 0.49822 0.04941 0.0
C1340 C 0.71211 0.51712 0.00237 0.0
H1341 H 0.71791 0.46038 0.92492 0.0
H1342 H 0.72543 0.4679 0.95699 0.0
H1343 H 0.70925 0.52292 0.97361 0.0
H1344 H 0.68624 0.53675 0.06384 0.0
H1345 H 0.69229 0.53139 0.03139 0.0
H1346 H 0.71199 0.47406 0.02118 0.0
C1347 C 0.71406 0.4749 0.95035 0.0
C1348 C 0.71011 0.51217 0.98392 0.0
C1349 C 0.70974 0.47059 0.93208 0.0
C1350 C 0.69603 0.52617 0.06004 0.0
C1351 C 0.6996 0.52314 0.04142 0.0
C1352 C 0.712 0.48488 0.01093 0.0
C1353 C 0.70408 0.48854 0.95974 0.0
C1354 C 0.70866 0.49357 0.97888 0.0
C1355 C 0.7113 0.50873 0.03587 0.0
C1356 C 0.71247 0.50354 0.01615 0.0
H1357 H 0.67364 0.50011 0.92617 0.0
H1358 H 0.68126 0.50765 0.95793 0.0
H1359 H 0.70903 0.46551 0.98888 0.0
H1360 H 0.72302 0.49227 0.07813 0.0
H1361 H 0.72965 0.48727 0.0456 0.0
C1362 C 0.51465 0.69664 0.92406 0.0
C1363 C 0.51662 0.67905 0.91626 0.0
C1364 C 0.51159 0.69862 0.94295 0.0
C1365 C 0.51446 0.67335 0.98724 0.0
H1366 H 0.47662 0.70763 0.00285 0.0
C1367 C 0.48006 0.66843 0.05794 0.0
C1368 C 0.47832 0.68478 0.0681 0.0
C1369 C 0.48542 0.66895 0.03954 0.0
C1370 C 0.48736 0.69817 -0.0013 0.0
H1371 H 0.51731 0.64979 0.92209 0.0
H1372 H 0.5117 0.65318 0.9549 0.0
H1373 H 0.48561 0.70642 0.97048 0.0
H1374 H 0.48032 0.71454 0.06689 0.0
H1375 H 0.48955 0.71545 0.03448 0.0
H1376 H 0.51582 0.66475 0.01537 0.0
C1377 C 0.51281 0.66549 0.94656 0.0
C1378 C 0.49257 0.6975 0.9802 0.0
C1379 C 0.51592 0.66353 0.92772 0.0
C1380 C 0.48156 0.70172 0.05936 0.0
C1381 C 0.48679 0.70225 0.04085 0.0
C1382 C 0.50917 0.67393 0.00567 0.0
C1383 C 0.51042 0.68304 0.95437 0.0
C1384 C 0.50599 0.68489 0.97422 0.0
C1385 C 0.48905 0.68584 0.03087 0.0
C1386 C 0.49538 0.68614 0.01153 0.0
H1387 H 0.51518 0.70886 0.91553 0.0
H1388 H 0.51005 0.71233 0.94859 0.0
H1389 H 0.52511 0.66375 0.98316 0.0
H1390 H 0.47762 0.65516 0.0643 0.0
H1391 H 0.48677 0.65611 0.03207 0.0
C1392 C 0.17591 0.25926 0.46478 0.0
C1393 C 0.15733 0.25883 0.46998 0.0
C1394 C 0.18745 0.24451 0.4689 0.0
C1395 C 0.19165 0.20664 0.50211 0.0
H1396 H 0.23326 0.19353 0.4714 0.0
C1397 C 0.24581 0.14977 0.51895 0.0
C1398 C 0.26416 0.15533 0.51651 0.0
C1399 C 0.23139 0.16131 0.51355 0.0
C1400 C 0.22169 0.1971 0.4801 0.0
H1401 H 0.13592 0.24227 0.48254 0.0
H1402 H 0.15604 0.21623 0.48936 0.0
H1403 H 0.20991 0.21449 0.45953 0.0
H1404 H 0.28188 0.17758 0.50741 0.0
H1405 H 0.25674 0.19762 0.49793 0.0
H1406 H 0.2036 0.18914 0.52266 0.0
C1407 C 0.16178 0.22815 0.4825 0.0
C1408 C 0.20835 0.20909 0.47334 0.0
C1409 C 0.15025 0.24299 0.47848 0.0
C1410 C 0.26787 0.17291 0.50939 0.0
C1411 C 0.25351 0.18432 0.50384 0.0
C1412 C 0.20493 0.19446 0.5088 0.0
C1413 C 0.18061 0.22896 0.47817 0.0
C1414 C 0.19342 0.21436 0.48442 0.0
C1415 C 0.2352 0.17844 0.50547 0.0
C1416 C 0.22027 0.18998 0.498 0.0
H1417 H 0.18175 0.27133 0.45826 0.0
H1418 H 0.20193 0.24571 0.46558 0.0
H1419 H 0.18044 0.2106 0.51109 0.0
H1420 H 0.2426 0.13627 0.52441 0.0
H1421 H 0.21734 0.15655 0.51496 0.0
C1422 C 0.74632 0.14754 0.48351 0.0
C1423 C 0.73105 0.15537 0.47455 0.0
C1424 C 0.76019 0.1588 0.49068 0.0
C1425 C 0.76508 0.20414 0.51028 0.0
H1426 H 0.81732 0.20102 0.49994 0.0
C1427 C 0.81327 0.26492 0.52039 0.0
C1428 C 0.83163 0.26199 0.52557 0.0
C1429 C 0.80157 0.25007 0.51735 0.0
C1430 C 0.80283 0.2018 0.50332 0.0
H1431 H 0.71886 0.18093 0.46504 0.0
H1432 H 0.74295 0.20051 0.47769 0.0
H1433 H 0.79633 0.17806 0.48692 0.0
H1434 H 0.85201 0.2413 0.53248 0.0
H1435 H 0.83137 0.21515 0.52729 0.0
H1436 H 0.77133 0.22783 0.52652 0.0
C1437 C 0.74411 0.18572 0.47927 0.0
C1438 C 0.79086 0.18874 0.49577 0.0
C1439 C 0.73041 0.1745 0.47194 0.0
C1440 C 0.83789 0.24392 0.52848 0.0
C1441 C 0.82614 0.22898 0.52539 0.0
C1442 C 0.777 0.21701 0.51797 0.0
C1443 C 0.7588 0.178 0.48916 0.0
C1444 C 0.77185 0.19022 0.49873 0.0
C1445 C 0.80796 0.23193 0.51945 0.0
C1446 C 0.79592 0.21637 0.51406 0.0
H1447 H 0.74715 0.13281 0.48568 0.0
H1448 H 0.77148 0.1526 0.49821 0.0
H1449 H 0.75047 0.20528 0.51304 0.0
H1450 H 0.80807 0.2787 0.51804 0.0
H1451 H 0.78774 0.25284 0.51252 0.0
C1452 C 0.82021 0.74218 0.46892 0.0
C1453 C 0.83737 0.74103 0.47772 0.0
C1454 C 0.80723 0.75499 0.47483 0.0
C1455 C 0.79676 0.79719 0.49705 0.0
H1456 H 0.7555 0.77123 0.51884 0.0
C1457 C 0.73372 0.8359 0.52611 0.0
C1458 C 0.71673 0.82856 0.52055 0.0
C1459 C 0.7499 0.82576 0.5237 0.0
C1460 C 0.76685 0.7787 0.51274 0.0
H1461 H 0.85511 0.75334 0.49836 0.0
H1462 H 0.83236 0.77618 0.50836 0.0
H1463 H 0.78154 0.75388 0.50676 0.0
H1464 H 0.70315 0.80469 0.50882 0.0
H1465 H 0.73117 0.78726 0.50429 0.0
H1466 H 0.78169 0.822 0.50208 0.0
C1467 C 0.829 0.76697 0.49712 0.0
C1468 C 0.78172 0.76877 0.5059 0.0
C1469 C 0.84193 0.75393 0.49141 0.0
C1470 C 0.71606 0.81069 0.51328 0.0
C1471 C 0.73215 0.80064 0.5108 0.0
C1472 C 0.78169 0.80718 0.50365 0.0
C1473 C 0.81137 0.76703 0.48934 0.0
C1474 C 0.79656 0.77793 0.49769 0.0
C1475 C 0.7493 0.80815 0.51567 0.0
C1476 C 0.76638 0.79798 0.51116 0.0
H1477 H 0.81634 0.7324 0.45834 0.0
H1478 H 0.79365 0.75496 0.46865 0.0
H1479 H 0.8082 0.80443 0.4908 0.0
H1480 H 0.73459 0.84966 0.53179 0.0
H1481 H 0.76289 0.83182 0.5278 0.0
C1482 C 0.15646 0.73571 0.50946 0.0
C1483 C 0.16163 0.72021 0.51978 0.0
C1484 C 0.16921 0.74959 0.50582 0.0
C1485 C 0.21454 0.76809 0.51942 0.0
H1486 H 0.21715 0.78326 0.46826 0.0
C1487 C 0.27663 0.80751 0.49135 0.0
C1488 C 0.27274 0.82303 0.48053 0.0
C1489 C 0.26275 0.79501 0.49567 0.0
C1490 C 0.21647 0.77929 0.48262 0.0
H1491 H 0.18376 0.70746 0.53524 0.0
H1492 H 0.20607 0.73163 0.52877 0.0
H1493 H 0.19273 0.76249 0.47817 0.0
H1494 H 0.25158 0.83729 0.46502 0.0
H1495 H 0.22725 0.81541 0.47263 0.0
H1496 H 0.23839 0.78474 0.52382 0.0
C1497 C 0.19217 0.73314 0.52359 0.0
C1498 C 0.20246 0.76747 0.48832 0.0
C1499 C 0.17942 0.71928 0.52724 0.0
C1500 C 0.25494 0.8254 0.47337 0.0
C1501 C 0.24104 0.81288 0.47771 0.0
C1502 C 0.22855 0.77988 0.51372 0.0
C1503 C 0.18732 0.74818 0.51244 0.0
C1504 C 0.20144 0.76166 0.50675 0.0
C1505 C 0.24473 0.79782 0.48926 0.0
C1506 C 0.22973 0.78547 0.49524 0.0
H1507 H 0.14278 0.73682 0.50364 0.0
H1508 H 0.16502 0.7612 0.49746 0.0
H1509 H 0.21395 0.76401 0.53375 0.0
H1510 H 0.29027 0.80529 0.49696 0.0
H1511 H 0.26605 0.7833 0.50429 0.0
C1512 C 0.46545 0.15575 0.24941 0.0
C1513 C 0.4661 0.16474 0.26653 0.0
C1514 C 0.46678 0.16588 0.23311 0.0
C1515 C 0.46534 0.2132 0.21423 0.0
H1516 H 0.50688 0.19751 0.18454 0.0
C1517 C 0.51108 0.26448 0.17798 0.0
C1518 C 0.51531 0.26165 0.15935 0.0
C1519 C 0.50256 0.2507 0.18815 0.0
C1520 C 0.49502 0.20187 0.19245 0.0
H1521 H 0.46723 0.19127 0.28012 0.0
H1522 H 0.46942 0.20892 0.2518 0.0
H1523 H 0.49398 0.17658 0.20752 0.0
H1524 H 0.51485 0.24191 0.13695 0.0
H1525 H 0.50016 0.21745 0.15508 0.0
H1526 H 0.46707 0.23885 0.19993 0.0
C1527 C 0.46789 0.19411 0.25086 0.0
C1528 C 0.48758 0.1899 0.20553 0.0
C1529 C 0.46677 0.18402 0.2671 0.0
C1530 C 0.51174 0.24441 0.15131 0.0
C1531 C 0.5033 0.23049 0.16161 0.0
C1532 C 0.4728 0.22514 0.20124 0.0
C1533 C 0.4685 0.18512 0.23374 0.0
C1534 C 0.4732 0.19579 0.21707 0.0
C1535 C 0.49817 0.23378 0.17995 0.0
C1536 C 0.48819 0.21985 0.19083 0.0
H1537 H 0.46493 0.14087 0.24862 0.0
H1538 H 0.46711 0.15864 0.22007 0.0
H1539 H 0.45406 0.21795 0.22274 0.0
H1540 H 0.51376 0.27758 0.18458 0.0
H1541 H 0.49917 0.25339 0.20243 0.0
C1542 C 0.83136 0.47303 0.25734 0.0
C1543 C 0.82559 0.47471 0.27571 0.0
C1544 C 0.81902 0.47643 0.24299 0.0
C1545 C 0.76973 0.48088 0.23194 0.0
H1546 H 0.78624 0.51586 0.19512 0.0
C1547 C 0.71842 0.51623 0.1841 0.0
C1548 C 0.72301 0.51656 0.16535 0.0
C1549 C 0.73165 0.51167 0.19723 0.0
C1550 C 0.7815 0.50594 0.20519 0.0
H1551 H 0.80232 0.48019 0.29356 0.0
H1552 H 0.78079 0.48597 0.26855 0.0
H1553 H 0.80793 0.50441 0.21812 0.0
H1554 H 0.74521 0.51349 0.14564 0.0
H1555 H 0.76833 0.50538 0.1686 0.0
H1556 H 0.74332 0.48242 0.21914 0.0
C1557 C 0.79478 0.48207 0.2652 0.0
C1558 C 0.79391 0.49934 0.21829 0.0
C1559 C 0.80712 0.47884 0.27951 0.0
C1560 C 0.74131 0.51335 0.16003 0.0
C1561 C 0.75455 0.50872 0.17317 0.0
C1562 C 0.75735 0.48744 0.21885 0.0
C1563 C 0.80072 0.48134 0.24682 0.0
C1564 C 0.78807 0.48692 0.23191 0.0
C1565 C 0.74969 0.50729 0.19183 0.0
C1566 C 0.76304 0.50023 0.2055 0.0
H1567 H 0.84555 0.46988 0.25407 0.0
H1568 H 0.82386 0.47559 0.22891 0.0
H1569 H 0.76494 0.47115 0.24217 0.0
H1570 H 0.70443 0.51877 0.18859 0.0
H1571 H 0.72763 0.51111 0.21158 0.0
C1572 C 0.47951 0.72545 0.17617 0.0
C1573 C 0.47086 0.72723 0.15901 0.0
C1574 C 0.48151 0.74062 0.18766 0.0
C1575 C 0.48421 0.79086 0.1873 0.0
H1576 H 0.48105 0.78385 0.24014 0.0
C1577 C 0.49619 0.84628 0.24515 0.0
C1578 C 0.50898 0.84045 0.25847 0.0
C1579 C 0.49032 0.83417 0.23138 0.0
C1580 C 0.48192 0.78598 0.2254 0.0
H1581 H 0.45722 0.7462 0.14043 0.0
H1582 H 0.46061 0.77295 0.16077 0.0
H1583 H 0.47099 0.75936 0.21956 0.0
H1584 H 0.52635 0.81784 0.26733 0.0
H1585 H 0.51586 0.79667 0.24348 0.0
H1586 H 0.49525 0.81762 0.19342 0.0
C1587 C 0.46596 0.75976 0.1652 0.0
C1588 C 0.47622 0.772 0.21363 0.0
C1589 C 0.46395 0.74448 0.15363 0.0
C1590 C 0.51646 0.82269 0.25728 0.0
C1591 C 0.51042 0.81056 0.24372 0.0
C1592 C 0.48974 0.80501 0.19915 0.0
C1593 C 0.47482 0.75795 0.18232 0.0
C1594 C 0.47791 0.77402 0.19448 0.0
C1595 C 0.49699 0.81607 0.23098 0.0
C1596 C 0.48917 0.80237 0.21827 0.0
H1597 H 0.48504 0.71234 0.18067 0.0
H1598 H 0.48874 0.73882 0.20058 0.0
H1599 H 0.48575 0.79277 0.17259 0.0
H1600 H 0.49026 0.85995 0.24576 0.0
H1601 H 0.47996 0.83865 0.22162 0.0
C1602 C 0.15118 0.50496 0.24633 0.0
C1603 C 0.15666 0.51679 0.2606 0.0
C1604 C 0.16337 0.50061 0.23213 0.0
C1605 C 0.20789 0.51374 0.21105 0.0
H1606 H 0.21277 0.46128 0.20211 0.0
C1607 C 0.27349 0.48364 0.1808 0.0
C1608 C 0.27141 0.47176 0.1657 0.0
C1609 C 0.25835 0.48843 0.19148 0.0
C1610 C 0.21141 0.47597 0.20432 0.0
H1611 H 0.17861 0.53434 0.27066 0.0
H1612 H 0.19991 0.52667 0.24605 0.0
H1613 H 0.18733 0.47267 0.22089 0.0
H1614 H 0.25218 0.4546 0.15062 0.0
H1615 H 0.22558 0.46291 0.16954 0.0
H1616 H 0.23229 0.51697 0.19495 0.0
C1617 C 0.18621 0.52081 0.24567 0.0
C1618 C 0.19682 0.48252 0.21496 0.0
C1619 C 0.17404 0.52515 0.25983 0.0
C1620 C 0.25415 0.46379 0.16221 0.0
C1621 C 0.23895 0.46856 0.17298 0.0
C1622 C 0.2225 0.50719 0.20052 0.0
C1623 C 0.1812 0.50807 0.23199 0.0
C1624 C 0.19514 0.50144 0.21873 0.0
C1625 C 0.24085 0.4814 0.18731 0.0
C1626 C 0.22461 0.48823 0.1974 0.0
H1627 H 0.13779 0.4984 0.24655 0.0
H1628 H 0.15905 0.49099 0.22159 0.0
H1629 H 0.20677 0.52842 0.21346 0.0
H1630 H 0.28668 0.48989 0.18389 0.0
H1631 H 0.26023 0.49804 0.20274 0.0
C1632 C 0.50296 0.71574 0.80897 0.0
C1633 C 0.51316 0.71756 0.82528 0.0
C1634 C 0.49908 0.73109 0.79819 0.0
C1635 C 0.49457 0.78131 0.80052 0.0
H1636 H 0.49554 0.77716 0.7473 0.0
C1637 C 0.4841 0.84209 0.74949 0.0
C1638 C 0.47354 0.83825 0.73374 0.0
C1639 C 0.48835 0.82809 0.76197 0.0
C1640 C 0.49502 0.77845 0.76215 0.0
H1641 H 0.52758 0.73677 0.843 0.0
H1642 H 0.52093 0.76375 0.82393 0.0
H1643 H 0.50577 0.75138 0.76607 0.0
H1644 H 0.45813 0.81715 0.71928 0.0
H1645 H 0.46547 0.79277 0.74111 0.0
H1646 H 0.48388 0.80853 0.79644 0.0
C1647 C 0.51578 0.75043 0.81965 0.0
C1648 C 0.50092 0.76372 0.77289 0.0
C1649 C 0.51969 0.735 0.83047 0.0
C1650 C 0.46639 0.82048 0.73124 0.0
C1651 C 0.47069 0.8065 0.74365 0.0
C1652 C 0.48874 0.79613 0.78972 0.0
C1653 C 0.50533 0.74861 0.80346 0.0
C1654 C 0.50049 0.76487 0.79218 0.0
C1655 C 0.48216 0.81006 0.75881 0.0
C1656 C 0.48865 0.7947 0.77045 0.0
H1657 H 0.49769 0.70247 0.80466 0.0
H1658 H 0.49076 0.72928 0.78594 0.0
H1659 H 0.49393 0.78253 0.81536 0.0
H1660 H 0.48976 0.8557 0.75175 0.0
H1661 H 0.49723 0.83118 0.77355 0.0
C1662 C 0.25247 0.52043 0.82215 0.0
C1663 C 0.25143 0.51436 0.84045 0.0
C1664 C 0.23941 0.51467 0.80933 0.0
C1665 C 0.19413 0.49573 0.80113 0.0
H1666 H 0.21805 0.46885 0.76166 0.0
C1667 C 0.15276 0.46065 0.74272 0.0
C1668 C 0.15983 0.46367 0.72499 0.0
C1669 C 0.16332 0.46501 0.75824 0.0
C1670 C 0.21114 0.47643 0.77248 0.0
H1671 H 0.23513 0.49895 0.86015 0.0
H1672 H 0.21197 0.48921 0.83765 0.0
H1673 H 0.23657 0.48267 0.78594 0.0
H1674 H 0.18358 0.47304 0.70953 0.0
H1675 H 0.2017 0.48094 0.73631 0.0
H1676 H 0.16872 0.49016 0.78727 0.0
C1677 C 0.22303 0.49821 0.83328 0.0
C1678 C 0.22175 0.48431 0.78635 0.0
C1679 C 0.23626 0.50375 0.84608 0.0
C1680 C 0.17778 0.4705 0.72302 0.0
C1681 C 0.18823 0.47492 0.73843 0.0
C1682 C 0.18347 0.48808 0.78704 0.0
C1683 C 0.22498 0.50301 0.81469 0.0
C1684 C 0.21336 0.49428 0.80058 0.0
C1685 C 0.18107 0.47247 0.75622 0.0
C1686 C 0.19193 0.47864 0.77237 0.0
H1687 H 0.264 0.52862 0.81745 0.0
H1688 H 0.24101 0.51864 0.79504 0.0
H1689 H 0.18744 0.50329 0.81211 0.0
H1690 H 0.13894 0.4554 0.7446 0.0
H1691 H 0.15751 0.46277 0.77178 0.0
C1692 C 0.52487 0.1723 0.73595 0.0
C1693 C 0.52128 0.17623 0.71737 0.0
C1694 C 0.52037 0.18508 0.74958 0.0
C1695 C 0.48837 0.22345 0.75706 0.0
H1696 H 0.51733 0.23213 0.80106 0.0
C1697 C 0.47387 0.28242 0.80784 0.0
C1698 C 0.47563 0.27863 0.8267 0.0
C1699 C 0.47871 0.26919 0.79482 0.0
C1700 C 0.50901 0.22963 0.78894 0.0
H1701 H 0.51147 0.19698 0.69829 0.0
H1702 H 0.50407 0.21947 0.72203 0.0
H1703 H 0.52895 0.21129 0.77737 0.0
H1704 H 0.48315 0.25789 0.84682 0.0
H1705 H 0.49159 0.23468 0.82397 0.0
H1706 H 0.46853 0.24193 0.76853 0.0
C1707 C 0.50984 0.20634 0.72613 0.0
C1708 C 0.51567 0.21777 0.77538 0.0
C1709 C 0.51421 0.19355 0.71254 0.0
C1710 C 0.48167 0.26116 0.83235 0.0
C1711 C 0.48663 0.24795 0.81931 0.0
C1712 C 0.48175 0.23535 0.77057 0.0
C1713 C 0.51231 0.20201 0.74482 0.0
C1714 C 0.50547 0.21466 0.75925 0.0
C1715 C 0.48547 0.25197 0.80043 0.0
C1716 C 0.49204 0.23862 0.78658 0.0
H1717 H 0.53028 0.15902 0.74003 0.0
H1718 H 0.52238 0.18132 0.76387 0.0
H1719 H 0.47997 0.22099 0.74499 0.0
H1720 H 0.46926 0.29579 0.80312 0.0
H1721 H 0.47781 0.27269 0.78035 0.0
C1722 C 0.74943 0.4862 0.8395 0.0
C1723 C 0.73321 0.47762 0.83336 0.0
C1724 C 0.76269 0.492 0.82684 0.0
C1725 C 0.76486 0.50917 0.78048 0.0
H1726 H 0.81694 0.49759 0.78095 0.0
C1727 C 0.81014 0.51816 0.71718 0.0
C1728 C 0.8288 0.52261 0.71926 0.0
C1729 C 0.79909 0.51535 0.73256 0.0
C1730 C 0.8025 0.5013 0.78087 0.0
H1731 H 0.71861 0.46732 0.80943 0.0
H1732 H 0.74168 0.47764 0.78736 0.0
H1733 H 0.79703 0.48575 0.80539 0.0
H1734 H 0.85039 0.52862 0.73898 0.0
H1735 H 0.8309 0.52403 0.76604 0.0
H1736 H 0.77012 0.52476 0.75615 0.0
C1737 C 0.74406 0.47993 0.80191 0.0
C1738 C 0.79114 0.4944 0.79476 0.0
C1739 C 0.73096 0.47393 0.81453 0.0
C1740 C 0.83603 0.52513 0.73702 0.0
C1741 C 0.82493 0.52237 0.75248 0.0
C1742 C 0.7762 0.51625 0.76678 0.0
C1743 C 0.75973 0.48948 0.80793 0.0
C1744 C 0.77217 0.49788 0.79433 0.0
C1745 C 0.80644 0.51706 0.75038 0.0
C1746 C 0.79505 0.51195 0.7665 0.0
H1747 H 0.75151 0.48916 0.85397 0.0
H1748 H 0.77473 0.4993 0.83174 0.0
H1749 H 0.75029 0.51234 0.78015 0.0
H1750 H 0.80419 0.51611 0.70365 0.0
H1751 H 0.785 0.51101 0.73042 0.0
loop_
_geom_bond_atom_site_label_1
_geom_bond_atom_site_label_2
_geom_bond_distance
_geom_bond_site_symmetry_2
_ccdc_geom_bond_type
In0 O1 2.294 . S
In0 O2 2.326 . S
In0 O6 2.266 . S
In0 O7 2.326 . S
In0 O8 2.266 . S
In0 O9 2.326 . S
In0 O11 2.294 . S
In0 O12 2.326 . S
O1 In0 2.294 . S
O1 C10 1.240 . S
O2 In0 2.326 . S
O2 C10 1.252 . S
C3 O6 1.252 . S
C3 O7 1.260 . S
C4 O11 1.240 . S
C4 O12 1.252 . S
C5 O8 1.252 . S
C5 O9 1.260 . S
O6 In0 2.266 . S
O6 C3 1.252 . S
O7 In0 2.326 . S
O7 C3 1.260 . S
O8 In0 2.266 . S
O8 C5 1.252 . S
O9 In0 2.326 . S
O9 C5 1.260 . S
C10 O1 1.240 . S
C10 O2 1.252 . S
O11 In0 2.294 . S
O11 C4 1.240 . S
O12 In0 2.326 . S
O12 C4 1.252 . S
In13 O14 2.294 . S
In13 O15 2.326 . S
In13 O19 2.266 . S
In13 O20 2.326 . S
In13 O21 2.266 . S
In13 O22 2.326 . S
In13 O24 2.294 . S
In13 O25 2.326 . S
O14 In13 2.294 . S
O14 C23 1.240 . S
O15 In13 2.326 . S
O15 C23 1.252 . S
C16 O19 1.252 . S
C16 O20 1.260 . S
C17 O24 1.240 . S
C17 O25 1.252 . S
C18 O21 1.252 . S
C18 O22 1.260 . S
O19 In13 2.266 . S
O19 C16 1.252 . S
O20 In13 2.326 . S
O20 C16 1.260 . S
O21 In13 2.266 . S
O21 C18 1.252 . S
O22 In13 2.326 . S
O22 C18 1.260 . S
C23 O14 1.240 . S
C23 O15 1.252 . S
O24 In13 2.294 . S
O24 C17 1.240 . S
O25 In13 2.326 . S
O25 C17 1.252 . S
In26 O27 2.294 . S
In26 O28 2.326 . S
In26 O32 2.266 . S
In26 O33 2.326 . S
In26 O34 2.266 . S
In26 O35 2.326 . S
In26 O37 2.294 . S
In26 O38 2.326 . S
O27 In26 2.294 . S
O27 C36 1.240 . S
O28 In26 2.326 . S
O28 C36 1.252 . S
C29 O32 1.252 . S
C29 O33 1.260 . S
C30 O37 1.240 . S
C30 O38 1.252 . S
C31 O34 1.252 . S
C31 O35 1.260 . S
O32 In26 2.266 . S
O32 C29 1.252 . S
O33 In26 2.326 . S
O33 C29 1.260 . S
O34 In26 2.266 . S
O34 C31 1.252 . S
O35 In26 2.326 . S
O35 C31 1.260 . S
C36 O27 1.240 . S
C36 O28 1.252 . S
O37 In26 2.294 . S
O37 C30 1.240 . S
O38 In26 2.326 . S
O38 C30 1.252 . S
In39 O40 2.294 . S
In39 O41 2.326 . S
In39 O45 2.266 . S
In39 O46 2.326 . S
In39 O47 2.266 . S
In39 O48 2.326 . S
In39 O50 2.294 . S
In39 O51 2.326 . S
O40 In39 2.294 . S
O40 C49 1.240 . S
O41 In39 2.326 . S
O41 C49 1.252 . S
C42 O45 1.252 . S
C42 O46 1.260 . S
C43 O50 1.240 . S
C43 O51 1.252 . S
C44 O47 1.252 . S
C44 O48 1.260 . S
O45 In39 2.266 . S
O45 C42 1.252 . S
O46 In39 2.326 . S
O46 C42 1.260 . S
O47 In39 2.266 . S
O47 C44 1.252 . S
O48 In39 2.326 . S
O48 C44 1.260 . S
C49 O40 1.240 . S
C49 O41 1.252 . S
O50 In39 2.294 . S
O50 C43 1.240 . S
O51 In39 2.326 . S
O51 C43 1.252 . S
In52 O53 2.294 . S
In52 O54 2.326 . S
In52 O58 2.266 . S
In52 O59 2.326 . S
In52 O60 2.266 . S
In52 O61 2.326 . S
In52 O63 2.294 . S
In52 O64 2.326 . S
O53 In52 2.294 . S
O53 C62 1.240 . S
O54 In52 2.326 . S
O54 C62 1.252 . S
C55 O58 1.252 . S
C55 O59 1.260 . S
C56 O63 1.240 . S
C56 O64 1.252 . S
C57 O60 1.252 . S
C57 O61 1.260 . S
O58 In52 2.266 . S
O58 C55 1.252 . S
O59 In52 2.326 . S
O59 C55 1.260 . S
O60 In52 2.266 . S
O60 C57 1.252 . S
O61 In52 2.326 . S
O61 C57 1.260 . S
C62 O53 1.240 . S
C62 O54 1.252 . S
O63 In52 2.294 . S
O63 C56 1.240 . S
O64 In52 2.326 . S
O64 C56 1.252 . S
In65 O66 2.294 . S
In65 O67 2.326 . S
In65 O71 2.266 . S
In65 O72 2.326 . S
In65 O73 2.266 . S
In65 O74 2.326 . S
In65 O76 2.294 . S
In65 O77 2.326 . S
O66 In65 2.294 . S
O66 C75 1.240 . S
O67 In65 2.326 . S
O67 C75 1.252 . S
C68 O71 1.252 . S
C68 O72 1.260 . S
C69 O76 1.240 . S
C69 O77 1.252 . S
C70 O73 1.252 . S
C70 O74 1.260 . S
O71 In65 2.266 . S
O71 C68 1.252 . S
O72 In65 2.326 . S
O72 C68 1.260 . S
O73 In65 2.266 . S
O73 C70 1.252 . S
O74 In65 2.326 . S
O74 C70 1.260 . S
C75 O66 1.240 . S
C75 O67 1.252 . S
O76 In65 2.294 . S
O76 C69 1.240 . S
O77 In65 2.326 . S
O77 C69 1.252 . S
In78 O79 2.294 . S
In78 O80 2.326 . S
In78 O84 2.266 . S
In78 O85 2.326 . S
In78 O86 2.266 . S
In78 O87 2.326 . S
In78 O89 2.294 . S
In78 O90 2.326 . S
O79 In78 2.294 . S
O79 C88 1.240 . S
O80 In78 2.326 . S
O80 C88 1.252 . S
C81 O84 1.252 . S
C81 O85 1.260 . S
C82 O89 1.240 . S
C82 O90 1.252 . S
C83 O86 1.252 . S
C83 O87 1.260 . S
O84 In78 2.266 . S
O84 C81 1.252 . S
O85 In78 2.326 . S
O85 C81 1.260 . S
O86 In78 2.266 . S
O86 C83 1.252 . S
O87 In78 2.326 . S
O87 C83 1.260 . S
C88 O79 1.240 . S
C88 O80 1.252 . S
O89 In78 2.294 . S
O89 C82 1.240 . S
O90 In78 2.326 . S
O90 C82 1.252 . S
In91 O92 2.294 . S
In91 O93 2.326 . S
In91 O97 2.266 . S
In91 O98 2.326 . S
In91 O99 2.266 . S
In91 O100 2.326 . S
In91 O102 2.294 . S
In91 O103 2.326 . S
O92 In91 2.294 . S
O92 C101 1.240 . S
O93 In91 2.326 . S
O93 C101 1.252 . S
C94 O97 1.252 . S
C94 O98 1.260 . S
C95 O102 1.240 . S
C95 O103 1.252 . S
C96 O99 1.252 . S
C96 O100 1.260 . S
O97 In91 2.266 . S
O97 C94 1.252 . S
O98 In91 2.326 . S
O98 C94 1.260 . S
O99 In91 2.266 . S
O99 C96 1.252 . S
O100 In91 2.326 . S
O100 C96 1.260 . S
C101 O92 1.240 . S
C101 O93 1.252 . S
O102 In91 2.294 . S
O102 C95 1.240 . S
O103 In91 2.326 . S
O103 C95 1.252 . S
In104 O105 2.294 . S
In104 O106 2.326 . S
In104 O110 2.266 . S
In104 O111 2.326 . S
In104 O112 2.266 . S
In104 O113 2.326 . S
In104 O115 2.294 . S
In104 O116 2.326 . S
O105 In104 2.294 . S
O105 C114 1.240 . S
O106 In104 2.326 . S
O106 C114 1.252 . S
C107 O110 1.252 . S
C107 O111 1.260 . S
C108 O115 1.240 . S
C108 O116 1.252 . S
C109 O112 1.252 . S
C109 O113 1.260 . S
O110 In104 2.266 . S
O110 C107 1.252 . S
O111 In104 2.326 . S
O111 C107 1.260 . S
O112 In104 2.266 . S
O112 C109 1.252 . S
O113 In104 2.326 . S
O113 C109 1.260 . S
C114 O105 1.240 . S
C114 O106 1.252 . S
O115 In104 2.294 . S
O115 C108 1.240 . S
O116 In104 2.326 . S
O116 C108 1.252 . S
In117 O118 2.294 . S
In117 O119 2.326 . S
In117 O123 2.266 . S
In117 O124 2.326 . S
In117 O125 2.266 . S
In117 O126 2.326 . S
In117 O128 2.294 . S
In117 O129 2.326 . S
O118 In117 2.294 . S
O118 C127 1.240 . S
O119 In117 2.326 . S
O119 C127 1.252 . S
C120 O123 1.252 . S
C120 O124 1.260 . S
C121 O128 1.240 . S
C121 O129 1.252 . S
C122 O125 1.252 . S
C122 O126 1.260 . S
O123 In117 2.266 . S
O123 C120 1.252 . S
O124 In117 2.326 . S
O124 C120 1.260 . S
O125 In117 2.266 . S
O125 C122 1.252 . S
O126 In117 2.326 . S
O126 C122 1.260 . S
C127 O118 1.240 . S
C127 O119 1.252 . S
O128 In117 2.294 . S
O128 C121 1.240 . S
O129 In117 2.326 . S
O129 C121 1.252 . S
In130 O131 2.294 . S
In130 O132 2.326 . S
In130 O136 2.266 . S
In130 O137 2.326 . S
In130 O138 2.266 . S
In130 O139 2.326 . S
In130 O141 2.294 . S
In130 O142 2.326 . S
O131 In130 2.294 . S
O131 C140 1.240 . S
O132 In130 2.326 . S
O132 C140 1.252 . S
C133 O136 1.252 . S
C133 O137 1.260 . S
C134 O141 1.240 . S
C134 O142 1.252 . S
C135 O138 1.252 . S
C135 O139 1.260 . S
O136 In130 2.266 . S
O136 C133 1.252 . S
O137 In130 2.326 . S
O137 C133 1.260 . S
O138 In130 2.266 . S
O138 C135 1.252 . S
O139 In130 2.326 . S
O139 C135 1.260 . S
C140 O131 1.240 . S
C140 O132 1.252 . S
O141 In130 2.294 . S
O141 C134 1.240 . S
O142 In130 2.326 . S
O142 C134 1.252 . S
In143 O144 2.294 . S
In143 O145 2.326 . S
In143 O149 2.266 . S
In143 O150 2.326 . S
In143 O151 2.266 . S
In143 O152 2.326 . S
In143 O154 2.294 . S
In143 O155 2.326 . S
O144 In143 2.294 . S
O144 C153 1.240 . S
O145 In143 2.326 . S
O145 C153 1.252 . S
C146 O149 1.252 . S
C146 O150 1.260 . S
C147 O154 1.240 . S
C147 O155 1.252 . S
C148 O151 1.252 . S
C148 O152 1.260 . S
O149 In143 2.266 . S
O149 C146 1.252 . S
O150 In143 2.326 . S
O150 C146 1.260 . S
O151 In143 2.266 . S
O151 C148 1.252 . S
O152 In143 2.326 . S
O152 C148 1.260 . S
C153 O144 1.240 . S
C153 O145 1.252 . S
O154 In143 2.294 . S
O154 C147 1.240 . S
O155 In143 2.326 . S
O155 C147 1.252 . S
In156 O157 2.294 . S
In156 O158 2.326 . S
In156 O162 2.266 . S
In156 O163 2.326 . S
In156 O164 2.266 . S
In156 O165 2.326 . S
In156 O167 2.294 . S
In156 O168 2.326 . S
O157 In156 2.294 . S
O157 C166 1.240 . S
O158 In156 2.326 . S
O158 C166 1.252 . S
C159 O162 1.252 . S
C159 O163 1.260 . S
C160 O167 1.240 . S
C160 O168 1.252 . S
C161 O164 1.252 . S
C161 O165 1.260 . S
O162 In156 2.266 . S
O162 C159 1.252 . S
O163 In156 2.326 . S
O163 C159 1.260 . S
O164 In156 2.266 . S
O164 C161 1.252 . S
O165 In156 2.326 . S
O165 C161 1.260 . S
C166 O157 1.240 . S
C166 O158 1.252 . S
O167 In156 2.294 . S
O167 C160 1.240 . S
O168 In156 2.326 . S
O168 C160 1.252 . S
In169 O170 2.294 . S
In169 O171 2.326 . S
In169 O175 2.266 . S
In169 O176 2.326 . S
In169 O177 2.266 . S
In169 O178 2.326 . S
In169 O180 2.294 . S
In169 O181 2.326 . S
O170 In169 2.294 . S
O170 C179 1.240 . S
O171 In169 2.326 . S
O171 C179 1.252 . S
C172 O175 1.252 . S
C172 O176 1.260 . S
C173 O180 1.240 . S
C173 O181 1.252 . S
C174 O177 1.252 . S
C174 O178 1.260 . S
O175 In169 2.266 . S
O175 C172 1.252 . S
O176 In169 2.326 . S
O176 C172 1.260 . S
O177 In169 2.266 . S
O177 C174 1.252 . S
O178 In169 2.326 . S
O178 C174 1.260 . S
C179 O170 1.240 . S
C179 O171 1.252 . S
O180 In169 2.294 . S
O180 C173 1.240 . S
O181 In169 2.326 . S
O181 C173 1.252 . S
In182 O183 2.294 . S
In182 O184 2.326 . S
In182 O188 2.266 . S
In182 O189 2.326 . S
In182 O190 2.266 . S
In182 O191 2.326 . S
In182 O193 2.294 . S
In182 O194 2.326 . S
O183 In182 2.294 . S
O183 C192 1.240 . S
O184 In182 2.326 . S
O184 C192 1.252 . S
C185 O188 1.252 . S
C185 O189 1.260 . S
C186 O193 1.240 . S
C186 O194 1.252 . S
C187 O190 1.252 . S
C187 O191 1.260 . S
O188 In182 2.266 . S
O188 C185 1.252 . S
O189 In182 2.326 . S
O189 C185 1.260 . S
O190 In182 2.266 . S
O190 C187 1.252 . S
O191 In182 2.326 . S
O191 C187 1.260 . S
C192 O183 1.240 . S
C192 O184 1.252 . S
O193 In182 2.294 . S
O193 C186 1.240 . S
O194 In182 2.326 . S
O194 C186 1.252 . S
In195 O196 2.294 . S
In195 O197 2.326 . S
In195 O201 2.266 . S
In195 O202 2.326 . S
In195 O203 2.266 . S
In195 O204 2.326 . S
In195 O206 2.294 . S
In195 O207 2.326 . S
O196 In195 2.294 . S
O196 C205 1.240 . S
O197 In195 2.326 . S
O197 C205 1.252 . S
C198 O201 1.252 . S
C198 O202 1.260 . S
C199 O206 1.240 . S
C199 O207 1.252 . S
C200 O203 1.252 . S
C200 O204 1.260 . S
O201 In195 2.266 . S
O201 C198 1.252 . S
O202 In195 2.326 . S
O202 C198 1.260 . S
O203 In195 2.266 . S
O203 C200 1.252 . S
O204 In195 2.326 . S
O204 C200 1.260 . S
C205 O196 1.240 . S
C205 O197 1.252 . S
O206 In195 2.294 . S
O206 C199 1.240 . S
O207 In195 2.326 . S
O207 C199 1.252 . S
In208 O209 2.294 . S
In208 O210 2.326 . S
In208 O214 2.266 . S
In208 O215 2.326 . S
In208 O216 2.266 . S
In208 O217 2.326 . S
In208 O219 2.294 . S
In208 O220 2.326 . S
O209 In208 2.294 . S
O209 C218 1.240 . S
O210 In208 2.326 . S
O210 C218 1.252 . S
C211 O214 1.252 . S
C211 O215 1.260 . S
C212 O219 1.240 . S
C212 O220 1.252 . S
C213 O216 1.252 . S
C213 O217 1.260 . S
O214 In208 2.266 . S
O214 C211 1.252 . S
O215 In208 2.326 . S
O215 C211 1.260 . S
O216 In208 2.266 . S
O216 C213 1.252 . S
O217 In208 2.326 . S
O217 C213 1.260 . S
C218 O209 1.240 . S
C218 O210 1.252 . S
O219 In208 2.294 . S
O219 C212 1.240 . S
O220 In208 2.326 . S
O220 C212 1.252 . S
In221 O222 2.294 . S
In221 O223 2.326 . S
In221 O227 2.266 . S
In221 O228 2.326 . S
In221 O229 2.266 . S
In221 O230 2.326 . S
In221 O232 2.294 . S
In221 O233 2.326 . S
O222 In221 2.294 . S
O222 C231 1.240 . S
O223 In221 2.326 . S
O223 C231 1.252 . S
C224 O227 1.252 . S
C224 O228 1.260 . S
C225 O232 1.240 . S
C225 O233 1.252 . S
C226 O229 1.252 . S
C226 O230 1.260 . S
O227 In221 2.266 . S
O227 C224 1.252 . S
O228 In221 2.326 . S
O228 C224 1.260 . S
O229 In221 2.266 . S
O229 C226 1.252 . S
O230 In221 2.326 . S
O230 C226 1.260 . S
C231 O222 1.240 . S
C231 O223 1.252 . S
O232 In221 2.294 . S
O232 C225 1.240 . S
O233 In221 2.326 . S
O233 C225 1.252 . S
In234 O235 2.294 . S
In234 O236 2.326 . S
In234 O240 2.266 . S
In234 O241 2.326 . S
In234 O242 2.266 . S
In234 O243 2.326 . S
In234 O245 2.294 . S
In234 O246 2.326 . S
O235 In234 2.294 . S
O235 C244 1.240 . S
O236 In234 2.326 . S
O236 C244 1.252 . S
C237 O240 1.252 . S
C237 O241 1.260 . S
C238 O245 1.240 . S
C238 O246 1.252 . S
C239 O242 1.252 . S
C239 O243 1.260 . S
O240 In234 2.266 . S
O240 C237 1.252 . S
O241 In234 2.326 . S
O241 C237 1.260 . S
O242 In234 2.266 . S
O242 C239 1.252 . S
O243 In234 2.326 . S
O243 C239 1.260 . S
C244 O235 1.240 . S
C244 O236 1.252 . S
O245 In234 2.294 . S
O245 C238 1.240 . S
O246 In234 2.326 . S
O246 C238 1.252 . S
In247 O248 2.294 . S
In247 O249 2.326 . S
In247 O253 2.266 . S
In247 O254 2.326 . S
In247 O255 2.266 . S
In247 O256 2.326 . S
In247 O258 2.294 . S
In247 O259 2.326 . S
O248 In247 2.294 . S
O248 C257 1.240 . S
O249 In247 2.326 . S
O249 C257 1.252 . S
C250 O253 1.252 . S
C250 O254 1.260 . S
C251 O258 1.240 . S
C251 O259 1.252 . S
C252 O255 1.252 . S
C252 O256 1.260 . S
O253 In247 2.266 . S
O253 C250 1.252 . S
O254 In247 2.326 . S
O254 C250 1.260 . S
O255 In247 2.266 . S
O255 C252 1.252 . S
O256 In247 2.326 . S
O256 C252 1.260 . S
C257 O248 1.240 . S
C257 O249 1.252 . S
O258 In247 2.294 . S
O258 C251 1.240 . S
O259 In247 2.326 . S
O259 C251 1.252 . S
In260 O261 2.294 . S
In260 O262 2.326 . S
In260 O266 2.266 . S
In260 O267 2.326 . S
In260 O268 2.266 . S
In260 O269 2.326 . S
In260 O271 2.294 . S
In260 O272 2.326 . S
O261 In260 2.294 . S
O261 C270 1.240 . S
O262 In260 2.326 . S
O262 C270 1.252 . S
C263 O266 1.252 . S
C263 O267 1.260 . S
C264 O271 1.240 . S
C264 O272 1.252 . S
C265 O268 1.252 . S
C265 O269 1.260 . S
O266 In260 2.266 . S
O266 C263 1.252 . S
O267 In260 2.326 . S
O267 C263 1.260 . S
O268 In260 2.266 . S
O268 C265 1.252 . S
O269 In260 2.326 . S
O269 C265 1.260 . S
C270 O261 1.240 . S
C270 O262 1.252 . S
O271 In260 2.294 . S
O271 C264 1.240 . S
O272 In260 2.326 . S
O272 C264 1.252 . S
In273 O274 2.294 . S
In273 O275 2.326 . S
In273 O279 2.266 . S
In273 O280 2.326 . S
In273 O281 2.266 . S
In273 O282 2.326 . S
In273 O284 2.294 . S
In273 O285 2.326 . S
O274 In273 2.294 . S
O274 C283 1.240 . S
O275 In273 2.326 . S
O275 C283 1.252 . S
C276 O279 1.252 . S
C276 O280 1.260 . S
C277 O284 1.240 . S
C277 O285 1.252 . S
C278 O281 1.252 . S
C278 O282 1.260 . S
O279 In273 2.266 . S
O279 C276 1.252 . S
O280 In273 2.326 . S
O280 C276 1.260 . S
O281 In273 2.266 . S
O281 C278 1.252 . S
O282 In273 2.326 . S
O282 C278 1.260 . S
C283 O274 1.240 . S
C283 O275 1.252 . S
O284 In273 2.294 . S
O284 C277 1.240 . S
O285 In273 2.326 . S
O285 C277 1.252 . S
In286 O287 2.294 . S
In286 O288 2.326 . S
In286 O292 2.266 . S
In286 O293 2.326 . S
In286 O294 2.266 . S
In286 O295 2.326 . S
In286 O297 2.294 . S
In286 O298 2.326 . S
O287 In286 2.294 . S
O287 C296 1.240 . S
O288 In286 2.326 . S
O288 C296 1.252 . S
C289 O292 1.252 . S
C289 O293 1.260 . S
C290 O297 1.240 . S
C290 O298 1.252 . S
C291 O294 1.252 . S
C291 O295 1.260 . S
O292 In286 2.266 . S
O292 C289 1.252 . S
O293 In286 2.326 . S
O293 C289 1.260 . S
O294 In286 2.266 . S
O294 C291 1.252 . S
O295 In286 2.326 . S
O295 C291 1.260 . S
C296 O287 1.240 . S
C296 O288 1.252 . S
O297 In286 2.294 . S
O297 C290 1.240 . S
O298 In286 2.326 . S
O298 C290 1.252 . S
In299 O300 2.294 . S
In299 O301 2.326 . S
In299 O305 2.266 . S
In299 O306 2.326 . S
In299 O307 2.266 . S
In299 O308 2.326 . S
In299 O310 2.294 . S
In299 O311 2.326 . S
O300 In299 2.294 . S
O300 C309 1.240 . S
O301 In299 2.326 . S
O301 C309 1.252 . S
C302 O305 1.252 . S
C302 O306 1.260 . S
C303 O310 1.240 . S
C303 O311 1.252 . S
C304 O307 1.252 . S
C304 O308 1.260 . S
O305 In299 2.266 . S
O305 C302 1.252 . S
O306 In299 2.326 . S
O306 C302 1.260 . S
O307 In299 2.266 . S
O307 C304 1.252 . S
O308 In299 2.326 . S
O308 C304 1.260 . S
C309 O300 1.240 . S
C309 O301 1.252 . S
O310 In299 2.294 . S
O310 C303 1.240 . S
O311 In299 2.326 . S
O311 C303 1.252 . S
C312 C313 1.349 . S
C312 C314 1.327 . S
C312 H337 0.950 . S
C313 C312 1.349 . S
C313 C329 1.349 . S
C314 C312 1.327 . S
C314 C333 1.429 . S
C314 H338 0.950 . S
C315 C332 1.574 . S
C315 C334 1.368 . S
C315 H339 0.949 . S
H316 C320 0.949 . S
C317 C318 1.349 . S
C317 C319 1.327 . S
C317 H340 0.950 . S
C318 C317 1.349 . S
C318 C330 1.349 . S
C319 C317 1.327 . S
C319 C335 1.429 . S
C319 H341 0.950 . S
C320 H316 0.949 . S
C320 C328 1.574 . S
C320 C336 1.368 . S
H321 C329 0.950 . S
H322 C327 0.950 . S
H323 C328 0.949 . S
H324 C330 0.950 . S
H325 C331 0.950 . S
H326 C332 0.949 . S
C327 H322 0.950 . S
C327 C329 1.327 . S
C327 C333 1.429 . S
C328 C320 1.574 . S
C328 H323 0.949 . S
C328 C334 1.368 . S
C329 C313 1.349 . S
C329 H321 0.950 . S
C329 C327 1.327 . S
C330 C318 1.349 . S
C330 H324 0.950 . S
C330 C331 1.327 . S
C331 H325 0.950 . S
C331 C330 1.327 . S
C331 C335 1.429 . S
C332 C315 1.574 . S
C332 H326 0.949 . S
C332 C336 1.368 . S
C333 C314 1.429 . S
C333 C327 1.429 . S
C333 C334 1.523 . S
C334 C315 1.368 . S
C334 C328 1.368 . S
C334 C333 1.523 . S
C335 C319 1.429 . S
C335 C331 1.429 . S
C335 C336 1.523 . S
C336 C320 1.368 . S
C336 C332 1.368 . S
C336 C335 1.523 . S
H337 C312 0.950 . S
H338 C314 0.950 . S
H339 C315 0.949 . S
H340 C317 0.950 . S
H341 C319 0.950 . S
C342 C343 1.349 . S
C342 C344 1.327 . S
C342 H367 0.950 . S
C343 C342 1.349 . S
C343 C359 1.349 . S
C344 C342 1.327 . S
C344 C363 1.429 . S
C344 H368 0.950 . S
C345 C362 1.574 . S
C345 C364 1.368 . S
C345 H369 0.949 . S
H346 C350 0.949 . S
C347 C348 1.349 . S
C347 C349 1.327 . S
C347 H370 0.950 . S
C348 C347 1.349 . S
C348 C360 1.349 . S
C349 C347 1.327 . S
C349 C365 1.429 . S
C349 H371 0.950 . S
C350 H346 0.949 . S
C350 C358 1.574 . S
C350 C366 1.368 . S
H351 C359 0.950 . S
H352 C357 0.950 . S
H353 C358 0.949 . S
H354 C360 0.950 . S
H355 C361 0.950 . S
H356 C362 0.949 . S
C357 H352 0.950 . S
C357 C359 1.327 . S
C357 C363 1.429 . S
C358 C350 1.574 . S
C358 H353 0.949 . S
C358 C364 1.368 . S
C359 C343 1.349 . S
C359 H351 0.950 . S
C359 C357 1.327 . S
C360 C348 1.349 . S
C360 H354 0.950 . S
C360 C361 1.327 . S
C361 H355 0.950 . S
C361 C360 1.327 . S
C361 C365 1.429 . S
C362 C345 1.574 . S
C362 H356 0.949 . S
C362 C366 1.368 . S
C363 C344 1.429 . S
C363 C357 1.429 . S
C363 C364 1.523 . S
C364 C345 1.368 . S
C364 C358 1.368 . S
C364 C363 1.523 . S
C365 C349 1.429 . S
C365 C361 1.429 . S
C365 C366 1.523 . S
C366 C350 1.368 . S
C366 C362 1.368 . S
C366 C365 1.523 . S
H367 C342 0.950 . S
H368 C344 0.950 . S
H369 C345 0.949 . S
H370 C347 0.950 . S
H371 C349 0.950 . S
C372 C373 1.349 . S
C372 C374 1.327 . S
C372 H397 0.950 . S
C373 C372 1.349 . S
C373 C389 1.349 . S
C374 C372 1.327 . S
C374 C393 1.429 . S
C374 H398 0.950 . S
C375 C392 1.574 . S
C375 C394 1.368 . S
C375 H399 0.949 . S
H376 C380 0.949 . S
C377 C378 1.349 . S
C377 C379 1.327 . S
C377 H400 0.950 . S
C378 C377 1.349 . S
C378 C390 1.349 . S
C379 C377 1.327 . S
C379 C395 1.429 . S
C379 H401 0.950 . S
C380 H376 0.949 . S
C380 C388 1.574 . S
C380 C396 1.368 . S
H381 C389 0.950 . S
H382 C387 0.950 . S
H383 C388 0.949 . S
H384 C390 0.950 . S
H385 C391 0.950 . S
H386 C392 0.949 . S
C387 H382 0.950 . S
C387 C389 1.327 . S
C387 C393 1.429 . S
C388 C380 1.574 . S
C388 H383 0.949 . S
C388 C394 1.368 . S
C389 C373 1.349 . S
C389 H381 0.950 . S
C389 C387 1.327 . S
C390 C378 1.349 . S
C390 H384 0.950 . S
C390 C391 1.327 . S
C391 H385 0.950 . S
C391 C390 1.327 . S
C391 C395 1.429 . S
C392 C375 1.574 . S
C392 H386 0.949 . S
C392 C396 1.368 . S
C393 C374 1.429 . S
C393 C387 1.429 . S
C393 C394 1.523 . S
C394 C375 1.368 . S
C394 C388 1.368 . S
C394 C393 1.523 . S
C395 C379 1.429 . S
C395 C391 1.429 . S
C395 C396 1.523 . S
C396 C380 1.368 . S
C396 C392 1.368 . S
C396 C395 1.523 . S
H397 C372 0.950 . S
H398 C374 0.950 . S
H399 C375 0.949 . S
H400 C377 0.950 . S
H401 C379 0.950 . S
C402 C403 1.349 . S
C402 C404 1.327 . S
C402 H427 0.950 . S
C403 C402 1.349 . S
C403 C419 1.349 . S
C404 C402 1.327 . S
C404 C423 1.429 . S
C404 H428 0.950 . S
C405 C422 1.574 . S
C405 C424 1.368 . S
C405 H429 0.949 . S
H406 C410 0.949 . S
C407 C408 1.349 . S
C407 C409 1.327 . S
C407 H430 0.950 . S
C408 C407 1.349 . S
C408 C420 1.349 . S
C409 C407 1.327 . S
C409 C425 1.429 . S
C409 H431 0.950 . S
C410 H406 0.949 . S
C410 C418 1.574 . S
C410 C426 1.368 . S
H411 C419 0.950 . S
H412 C417 0.950 . S
H413 C418 0.949 . S
H414 C420 0.950 . S
H415 C421 0.950 . S
H416 C422 0.949 . S
C417 H412 0.950 . S
C417 C419 1.327 . S
C417 C423 1.429 . S
C418 C410 1.574 . S
C418 H413 0.949 . S
C418 C424 1.368 . S
C419 C403 1.349 . S
C419 H411 0.950 . S
C419 C417 1.327 . S
C420 C408 1.349 . S
C420 H414 0.950 . S
C420 C421 1.327 . S
C421 H415 0.950 . S
C421 C420 1.327 . S
C421 C425 1.429 . S
C422 C405 1.574 . S
C422 H416 0.949 . S
C422 C426 1.368 . S
C423 C404 1.429 . S
C423 C417 1.429 . S
C423 C424 1.523 . S
C424 C405 1.368 . S
C424 C418 1.368 . S
C424 C423 1.523 . S
C425 C409 1.429 . S
C425 C421 1.429 . S
C425 C426 1.523 . S
C426 C410 1.368 . S
C426 C422 1.368 . S
C426 C425 1.523 . S
H427 C402 0.950 . S
H428 C404 0.950 . S
H429 C405 0.949 . S
H430 C407 0.950 . S
H431 C409 0.950 . S
C432 C433 1.349 . S
C432 C434 1.327 . S
C432 H457 0.950 . S
C433 C432 1.349 . S
C433 C449 1.349 . S
C434 C432 1.327 . S
C434 C453 1.429 . S
C434 H458 0.950 . S
C435 C452 1.574 . S
C435 C454 1.368 . S
C435 H459 0.949 . S
H436 C440 0.949 . S
C437 C438 1.349 . S
C437 C439 1.327 . S
C437 H460 0.950 . S
C438 C437 1.349 . S
C438 C450 1.349 . S
C439 C437 1.327 . S
C439 C455 1.429 . S
C439 H461 0.950 . S
C440 H436 0.949 . S
C440 C448 1.574 . S
C440 C456 1.368 . S
H441 C449 0.950 . S
H442 C447 0.950 . S
H443 C448 0.949 . S
H444 C450 0.950 . S
H445 C451 0.950 . S
H446 C452 0.949 . S
C447 H442 0.950 . S
C447 C449 1.327 . S
C447 C453 1.429 . S
C448 C440 1.574 . S
C448 H443 0.949 . S
C448 C454 1.368 . S
C449 C433 1.349 . S
C449 H441 0.950 . S
C449 C447 1.327 . S
C450 C438 1.349 . S
C450 H444 0.950 . S
C450 C451 1.327 . S
C451 H445 0.950 . S
C451 C450 1.327 . S
C451 C455 1.429 . S
C452 C435 1.574 . S
C452 H446 0.949 . S
C452 C456 1.368 . S
C453 C434 1.429 . S
C453 C447 1.429 . S
C453 C454 1.523 . S
C454 C435 1.368 . S
C454 C448 1.368 . S
C454 C453 1.523 . S
C455 C439 1.429 . S
C455 C451 1.429 . S
C455 C456 1.523 . S
C456 C440 1.368 . S
C456 C452 1.368 . S
C456 C455 1.523 . S
H457 C432 0.950 . S
H458 C434 0.950 . S
H459 C435 0.949 . S
H460 C437 0.950 . S
H461 C439 0.950 . S
C462 C463 1.349 . S
C462 C464 1.327 . S
C462 H487 0.950 . S
C463 C462 1.349 . S
C463 C479 1.349 . S
C464 C462 1.327 . S
C464 C483 1.429 . S
C464 H488 0.950 . S
C465 C482 1.574 . S
C465 C484 1.368 . S
C465 H489 0.949 . S
H466 C470 0.949 . S
C467 C468 1.349 . S
C467 C469 1.327 . S
C467 H490 0.950 . S
C468 C467 1.349 . S
C468 C480 1.349 . S
C469 C467 1.327 . S
C469 C485 1.429 . S
C469 H491 0.950 . S
C470 H466 0.949 . S
C470 C478 1.574 . S
C470 C486 1.368 . S
H471 C479 0.950 . S
H472 C477 0.950 . S
H473 C478 0.949 . S
H474 C480 0.950 . S
H475 C481 0.950 . S
H476 C482 0.949 . S
C477 H472 0.950 . S
C477 C479 1.327 . S
C477 C483 1.429 . S
C478 C470 1.574 . S
C478 H473 0.949 . S
C478 C484 1.368 . S
C479 C463 1.349 . S
C479 H471 0.950 . S
C479 C477 1.327 . S
C480 C468 1.349 . S
C480 H474 0.950 . S
C480 C481 1.327 . S
C481 H475 0.950 . S
C481 C480 1.327 . S
C481 C485 1.429 . S
C482 C465 1.574 . S
C482 H476 0.949 . S
C482 C486 1.368 . S
C483 C464 1.429 . S
C483 C477 1.429 . S
C483 C484 1.523 . S
C484 C465 1.368 . S
C484 C478 1.368 . S
C484 C483 1.523 . S
C485 C469 1.429 . S
C485 C481 1.429 . S
C485 C486 1.523 . S
C486 C470 1.368 . S
C486 C482 1.368 . S
C486 C485 1.523 . S
H487 C462 0.950 . S
H488 C464 0.950 . S
H489 C465 0.949 . S
H490 C467 0.950 . S
H491 C469 0.950 . S
C492 C493 1.349 . S
C492 C494 1.327 . S
C492 H517 0.950 . S
C493 C492 1.349 . S
C493 C509 1.349 . S
C494 C492 1.327 . S
C494 C513 1.429 . S
C494 H518 0.950 . S
C495 C512 1.574 . S
C495 C514 1.368 . S
C495 H519 0.949 . S
H496 C500 0.949 . S
C497 C498 1.349 . S
C497 C499 1.327 . S
C497 H520 0.950 . S
C498 C497 1.349 . S
C498 C510 1.349 . S
C499 C497 1.327 . S
C499 C515 1.429 . S
C499 H521 0.950 . S
C500 H496 0.949 . S
C500 C508 1.574 . S
C500 C516 1.368 . S
H501 C509 0.950 . S
H502 C507 0.950 . S
H503 C508 0.949 . S
H504 C510 0.950 . S
H505 C511 0.950 . S
H506 C512 0.949 . S
C507 H502 0.950 . S
C507 C509 1.327 . S
C507 C513 1.429 . S
C508 C500 1.574 . S
C508 H503 0.949 . S
C508 C514 1.368 . S
C509 C493 1.349 . S
C509 H501 0.950 . S
C509 C507 1.327 . S
C510 C498 1.349 . S
C510 H504 0.950 . S
C510 C511 1.327 . S
C511 H505 0.950 . S
C511 C510 1.327 . S
C511 C515 1.429 . S
C512 C495 1.574 . S
C512 H506 0.949 . S
C512 C516 1.368 . S
C513 C494 1.429 . S
C513 C507 1.429 . S
C513 C514 1.523 . S
C514 C495 1.368 . S
C514 C508 1.368 . S
C514 C513 1.523 . S
C515 C499 1.429 . S
C515 C511 1.429 . S
C515 C516 1.523 . S
C516 C500 1.368 . S
C516 C512 1.368 . S
C516 C515 1.523 . S
H517 C492 0.950 . S
H518 C494 0.950 . S
H519 C495 0.949 . S
H520 C497 0.950 . S
H521 C499 0.950 . S
C522 C523 1.349 . S
C522 C524 1.327 . S
C522 H547 0.950 . S
C523 C522 1.349 . S
C523 C539 1.349 . S
C524 C522 1.327 . S
C524 C543 1.429 . S
C524 H548 0.950 . S
C525 C542 1.574 . S
C525 C544 1.368 . S
C525 H549 0.949 . S
H526 C530 0.949 . S
C527 C528 1.349 . S
C527 C529 1.327 . S
C527 H550 0.950 . S
C528 C527 1.349 . S
C528 C540 1.349 . S
C529 C527 1.327 . S
C529 C545 1.429 . S
C529 H551 0.950 . S
C530 H526 0.949 . S
C530 C538 1.574 . S
C530 C546 1.368 . S
H531 C539 0.950 . S
H532 C537 0.950 . S
H533 C538 0.949 . S
H534 C540 0.950 . S
H535 C541 0.950 . S
H536 C542 0.949 . S
C537 H532 0.950 . S
C537 C539 1.327 . S
C537 C543 1.429 . S
C538 C530 1.574 . S
C538 H533 0.949 . S
C538 C544 1.368 . S
C539 C523 1.349 . S
C539 H531 0.950 . S
C539 C537 1.327 . S
C540 C528 1.349 . S
C540 H534 0.950 . S
C540 C541 1.327 . S
C541 H535 0.950 . S
C541 C540 1.327 . S
C541 C545 1.429 . S
C542 C525 1.574 . S
C542 H536 0.949 . S
C542 C546 1.368 . S
C543 C524 1.429 . S
C543 C537 1.429 . S
C543 C544 1.523 . S
C544 C525 1.368 . S
C544 C538 1.368 . S
C544 C543 1.523 . S
C545 C529 1.429 . S
C545 C541 1.429 . S
C545 C546 1.523 . S
C546 C530 1.368 . S
C546 C542 1.368 . S
C546 C545 1.523 . S
H547 C522 0.950 . S
H548 C524 0.950 . S
H549 C525 0.949 . S
H550 C527 0.950 . S
H551 C529 0.950 . S
C552 C553 1.349 . S
C552 C554 1.327 . S
C552 H577 0.950 . S
C553 C552 1.349 . S
C553 C569 1.349 . S
C554 C552 1.327 . S
C554 C573 1.429 . S
C554 H578 0.950 . S
C555 C572 1.574 . S
C555 C574 1.368 . S
C555 H579 0.949 . S
H556 C560 0.949 . S
C557 C558 1.349 . S
C557 C559 1.327 . S
C557 H580 0.950 . S
C558 C557 1.349 . S
C558 C570 1.349 . S
C559 C557 1.327 . S
C559 C575 1.429 . S
C559 H581 0.950 . S
C560 H556 0.949 . S
C560 C568 1.574 . S
C560 C576 1.368 . S
H561 C569 0.950 . S
H562 C567 0.950 . S
H563 C568 0.949 . S
H564 C570 0.950 . S
H565 C571 0.950 . S
H566 C572 0.949 . S
C567 H562 0.950 . S
C567 C569 1.327 . S
C567 C573 1.429 . S
C568 C560 1.574 . S
C568 H563 0.949 . S
C568 C574 1.368 . S
C569 C553 1.349 . S
C569 H561 0.950 . S
C569 C567 1.327 . S
C570 C558 1.349 . S
C570 H564 0.950 . S
C570 C571 1.327 . S
C571 H565 0.950 . S
C571 C570 1.327 . S
C571 C575 1.429 . S
C572 C555 1.574 . S
C572 H566 0.949 . S
C572 C576 1.368 . S
C573 C554 1.429 . S
C573 C567 1.429 . S
C573 C574 1.523 . S
C574 C555 1.368 . S
C574 C568 1.368 . S
C574 C573 1.523 . S
C575 C559 1.429 . S
C575 C571 1.429 . S
C575 C576 1.523 . S
C576 C560 1.368 . S
C576 C572 1.368 . S
C576 C575 1.523 . S
H577 C552 0.950 . S
H578 C554 0.950 . S
H579 C555 0.949 . S
H580 C557 0.950 . S
H581 C559 0.950 . S
C582 C583 1.349 . S
C582 C584 1.327 . S
C582 H607 0.950 . S
C583 C582 1.349 . S
C583 C599 1.349 . S
C584 C582 1.327 . S
C584 C603 1.429 . S
C584 H608 0.950 . S
C585 C602 1.574 . S
C585 C604 1.368 . S
C585 H609 0.949 . S
H586 C590 0.949 . S
C587 C588 1.349 . S
C587 C589 1.327 . S
C587 H610 0.950 . S
C588 C587 1.349 . S
C588 C600 1.349 . S
C589 C587 1.327 . S
C589 C605 1.429 . S
C589 H611 0.950 . S
C590 H586 0.949 . S
C590 C598 1.574 . S
C590 C606 1.368 . S
H591 C599 0.950 . S
H592 C597 0.950 . S
H593 C598 0.949 . S
H594 C600 0.950 . S
H595 C601 0.950 . S
H596 C602 0.949 . S
C597 H592 0.950 . S
C597 C599 1.327 . S
C597 C603 1.429 . S
C598 C590 1.574 . S
C598 H593 0.949 . S
C598 C604 1.368 . S
C599 C583 1.349 . S
C599 H591 0.950 . S
C599 C597 1.327 . S
C600 C588 1.349 . S
C600 H594 0.950 . S
C600 C601 1.327 . S
C601 H595 0.950 . S
C601 C600 1.327 . S
C601 C605 1.429 . S
C602 C585 1.574 . S
C602 H596 0.949 . S
C602 C606 1.368 . S
C603 C584 1.429 . S
C603 C597 1.429 . S
C603 C604 1.523 . S
C604 C585 1.368 . S
C604 C598 1.368 . S
C604 C603 1.523 . S
C605 C589 1.429 . S
C605 C601 1.429 . S
C605 C606 1.523 . S
C606 C590 1.368 . S
C606 C602 1.368 . S
C606 C605 1.523 . S
H607 C582 0.950 . S
H608 C584 0.950 . S
H609 C585 0.949 . S
H610 C587 0.950 . S
H611 C589 0.950 . S
C612 C613 1.349 . S
C612 C614 1.327 . S
C612 H637 0.950 . S
C613 C612 1.349 . S
C613 C629 1.349 . S
C614 C612 1.327 . S
C614 C633 1.429 . S
C614 H638 0.950 . S
C615 C632 1.574 . S
C615 C634 1.368 . S
C615 H639 0.949 . S
H616 C620 0.949 . S
C617 C618 1.349 . S
C617 C619 1.327 . S
C617 H640 0.950 . S
C618 C617 1.349 . S
C618 C630 1.349 . S
C619 C617 1.327 . S
C619 C635 1.429 . S
C619 H641 0.950 . S
C620 H616 0.949 . S
C620 C628 1.574 . S
C620 C636 1.368 . S
H621 C629 0.950 . S
H622 C627 0.950 . S
H623 C628 0.949 . S
H624 C630 0.950 . S
H625 C631 0.950 . S
H626 C632 0.949 . S
C627 H622 0.950 . S
C627 C629 1.327 . S
C627 C633 1.429 . S
C628 C620 1.574 . S
C628 H623 0.949 . S
C628 C634 1.368 . S
C629 C613 1.349 . S
C629 H621 0.950 . S
C629 C627 1.327 . S
C630 C618 1.349 . S
C630 H624 0.950 . S
C630 C631 1.327 . S
C631 H625 0.950 . S
C631 C630 1.327 . S
C631 C635 1.429 . S
C632 C615 1.574 . S
C632 H626 0.949 . S
C632 C636 1.368 . S
C633 C614 1.429 . S
C633 C627 1.429 . S
C633 C634 1.523 . S
C634 C615 1.368 . S
C634 C628 1.368 . S
C634 C633 1.523 . S
C635 C619 1.429 . S
C635 C631 1.429 . S
C635 C636 1.523 . S
C636 C620 1.368 . S
C636 C632 1.368 . S
C636 C635 1.523 . S
H637 C612 0.950 . S
H638 C614 0.950 . S
H639 C615 0.949 . S
H640 C617 0.950 . S
H641 C619 0.950 . S
C642 C643 1.349 . S
C642 C644 1.327 . S
C642 H667 0.950 . S
C643 C642 1.349 . S
C643 C659 1.349 . S
C644 C642 1.327 . S
C644 C663 1.429 . S
C644 H668 0.950 . S
C645 C662 1.574 . S
C645 C664 1.368 . S
C645 H669 0.949 . S
H646 C650 0.949 . S
C647 C648 1.349 . S
C647 C649 1.327 . S
C647 H670 0.950 . S
C648 C647 1.349 . S
C648 C660 1.349 . S
C649 C647 1.327 . S
C649 C665 1.429 . S
C649 H671 0.950 . S
C650 H646 0.949 . S
C650 C658 1.574 . S
C650 C666 1.368 . S
H651 C659 0.950 . S
H652 C657 0.950 . S
H653 C658 0.949 . S
H654 C660 0.950 . S
H655 C661 0.950 . S
H656 C662 0.949 . S
C657 H652 0.950 . S
C657 C659 1.327 . S
C657 C663 1.429 . S
C658 C650 1.574 . S
C658 H653 0.949 . S
C658 C664 1.368 . S
C659 C643 1.349 . S
C659 H651 0.950 . S
C659 C657 1.327 . S
C660 C648 1.349 . S
C660 H654 0.950 . S
C660 C661 1.327 . S
C661 H655 0.950 . S
C661 C660 1.327 . S
C661 C665 1.429 . S
C662 C645 1.574 . S
C662 H656 0.949 . S
C662 C666 1.368 . S
C663 C644 1.429 . S
C663 C657 1.429 . S
C663 C664 1.523 . S
C664 C645 1.368 . S
C664 C658 1.368 . S
C664 C663 1.523 . S
C665 C649 1.429 . S
C665 C661 1.429 . S
C665 C666 1.523 . S
C666 C650 1.368 . S
C666 C662 1.368 . S
C666 C665 1.523 . S
H667 C642 0.950 . S
H668 C644 0.950 . S
H669 C645 0.949 . S
H670 C647 0.950 . S
H671 C649 0.950 . S
C672 C673 1.349 . S
C672 C674 1.327 . S
C672 H697 0.950 . S
C673 C672 1.349 . S
C673 C689 1.349 . S
C674 C672 1.327 . S
C674 C693 1.429 . S
C674 H698 0.950 . S
C675 C692 1.574 . S
C675 C694 1.368 . S
C675 H699 0.949 . S
H676 C680 0.949 . S
C677 C678 1.349 . S
C677 C679 1.327 . S
C677 H700 0.950 . S
C678 C677 1.349 . S
C678 C690 1.349 . S
C679 C677 1.327 . S
C679 C695 1.429 . S
C679 H701 0.950 . S
C680 H676 0.949 . S
C680 C688 1.574 . S
C680 C696 1.368 . S
H681 C689 0.950 . S
H682 C687 0.950 . S
H683 C688 0.949 . S
H684 C690 0.950 . S
H685 C691 0.950 . S
H686 C692 0.949 . S
C687 H682 0.950 . S
C687 C689 1.327 . S
C687 C693 1.429 . S
C688 C680 1.574 . S
C688 H683 0.949 . S
C688 C694 1.368 . S
C689 C673 1.349 . S
C689 H681 0.950 . S
C689 C687 1.327 . S
C690 C678 1.349 . S
C690 H684 0.950 . S
C690 C691 1.327 . S
C691 H685 0.950 . S
C691 C690 1.327 . S
C691 C695 1.429 . S
C692 C675 1.574 . S
C692 H686 0.949 . S
C692 C696 1.368 . S
C693 C674 1.429 . S
C693 C687 1.429 . S
C693 C694 1.523 . S
C694 C675 1.368 . S
C694 C688 1.368 . S
C694 C693 1.523 . S
C695 C679 1.429 . S
C695 C691 1.429 . S
C695 C696 1.523 . S
C696 C680 1.368 . S
C696 C692 1.368 . S
C696 C695 1.523 . S
H697 C672 0.950 . S
H698 C674 0.950 . S
H699 C675 0.949 . S
H700 C677 0.950 . S
H701 C679 0.950 . S
C702 C703 1.349 . S
C702 C704 1.327 . S
C702 H727 0.950 . S
C703 C702 1.349 . S
C703 C719 1.349 . S
C704 C702 1.327 . S
C704 C723 1.429 . S
C704 H728 0.950 . S
C705 C722 1.574 . S
C705 C724 1.368 . S
C705 H729 0.949 . S
H706 C710 0.949 . S
C707 C708 1.349 . S
C707 C709 1.327 . S
C707 H730 0.950 . S
C708 C707 1.349 . S
C708 C720 1.349 . S
C709 C707 1.327 . S
C709 C725 1.429 . S
C709 H731 0.950 . S
C710 H706 0.949 . S
C710 C718 1.574 . S
C710 C726 1.368 . S
H711 C719 0.950 . S
H712 C717 0.950 . S
H713 C718 0.949 . S
H714 C720 0.950 . S
H715 C721 0.950 . S
H716 C722 0.949 . S
C717 H712 0.950 . S
C717 C719 1.327 . S
C717 C723 1.429 . S
C718 C710 1.574 . S
C718 H713 0.949 . S
C718 C724 1.368 . S
C719 C703 1.349 . S
C719 H711 0.950 . S
C719 C717 1.327 . S
C720 C708 1.349 . S
C720 H714 0.950 . S
C720 C721 1.327 . S
C721 H715 0.950 . S
C721 C720 1.327 . S
C721 C725 1.429 . S
C722 C705 1.574 . S
C722 H716 0.949 . S
C722 C726 1.368 . S
C723 C704 1.429 . S
C723 C717 1.429 . S
C723 C724 1.523 . S
C724 C705 1.368 . S
C724 C718 1.368 . S
C724 C723 1.523 . S
C725 C709 1.429 . S
C725 C721 1.429 . S
C725 C726 1.523 . S
C726 C710 1.368 . S
C726 C722 1.368 . S
C726 C725 1.523 . S
H727 C702 0.950 . S
H728 C704 0.950 . S
H729 C705 0.949 . S
H730 C707 0.950 . S
H731 C709 0.950 . S
C732 C733 1.349 . S
C732 C734 1.327 . S
C732 H757 0.950 . S
C733 C732 1.349 . S
C733 C749 1.349 . S
C734 C732 1.327 . S
C734 C753 1.429 . S
C734 H758 0.950 . S
C735 C752 1.574 . S
C735 C754 1.368 . S
C735 H759 0.949 . S
H736 C740 0.949 . S
C737 C738 1.349 . S
C737 C739 1.327 . S
C737 H760 0.950 . S
C738 C737 1.349 . S
C738 C750 1.349 . S
C739 C737 1.327 . S
C739 C755 1.429 . S
C739 H761 0.950 . S
C740 H736 0.949 . S
C740 C748 1.574 . S
C740 C756 1.368 . S
H741 C749 0.950 . S
H742 C747 0.950 . S
H743 C748 0.949 . S
H744 C750 0.950 . S
H745 C751 0.950 . S
H746 C752 0.949 . S
C747 H742 0.950 . S
C747 C749 1.327 . S
C747 C753 1.429 . S
C748 C740 1.574 . S
C748 H743 0.949 . S
C748 C754 1.368 . S
C749 C733 1.349 . S
C749 H741 0.950 . S
C749 C747 1.327 . S
C750 C738 1.349 . S
C750 H744 0.950 . S
C750 C751 1.327 . S
C751 H745 0.950 . S
C751 C750 1.327 . S
C751 C755 1.429 . S
C752 C735 1.574 . S
C752 H746 0.949 . S
C752 C756 1.368 . S
C753 C734 1.429 . S
C753 C747 1.429 . S
C753 C754 1.523 . S
C754 C735 1.368 . S
C754 C748 1.368 . S
C754 C753 1.523 . S
C755 C739 1.429 . S
C755 C751 1.429 . S
C755 C756 1.523 . S
C756 C740 1.368 . S
C756 C752 1.368 . S
C756 C755 1.523 . S
H757 C732 0.950 . S
H758 C734 0.950 . S
H759 C735 0.949 . S
H760 C737 0.950 . S
H761 C739 0.950 . S
C762 C763 1.349 . S
C762 C764 1.327 . S
C762 H787 0.950 . S
C763 C762 1.349 . S
C763 C779 1.349 . S
C764 C762 1.327 . S
C764 C783 1.429 . S
C764 H788 0.950 . S
C765 C782 1.574 . S
C765 C784 1.368 . S
C765 H789 0.949 . S
H766 C770 0.949 . S
C767 C768 1.349 . S
C767 C769 1.327 . S
C767 H790 0.950 . S
C768 C767 1.349 . S
C768 C780 1.349 . S
C769 C767 1.327 . S
C769 C785 1.429 . S
C769 H791 0.950 . S
C770 H766 0.949 . S
C770 C778 1.574 . S
C770 C786 1.368 . S
H771 C779 0.950 . S
H772 C777 0.950 . S
H773 C778 0.949 . S
H774 C780 0.950 . S
H775 C781 0.950 . S
H776 C782 0.949 . S
C777 H772 0.950 . S
C777 C779 1.327 . S
C777 C783 1.429 . S
C778 C770 1.574 . S
C778 H773 0.949 . S
C778 C784 1.368 . S
C779 C763 1.349 . S
C779 H771 0.950 . S
C779 C777 1.327 . S
C780 C768 1.349 . S
C780 H774 0.950 . S
C780 C781 1.327 . S
C781 H775 0.950 . S
C781 C780 1.327 . S
C781 C785 1.429 . S
C782 C765 1.574 . S
C782 H776 0.949 . S
C782 C786 1.368 . S
C783 C764 1.429 . S
C783 C777 1.429 . S
C783 C784 1.523 . S
C784 C765 1.368 . S
C784 C778 1.368 . S
C784 C783 1.523 . S
C785 C769 1.429 . S
C785 C781 1.429 . S
C785 C786 1.523 . S
C786 C770 1.368 . S
C786 C782 1.368 . S
C786 C785 1.523 . S
H787 C762 0.950 . S
H788 C764 0.950 . S
H789 C765 0.949 . S
H790 C767 0.950 . S
H791 C769 0.950 . S
C792 C793 1.349 . S
C792 C794 1.327 . S
C792 H817 0.950 . S
C793 C792 1.349 . S
C793 C809 1.349 . S
C794 C792 1.327 . S
C794 C813 1.429 . S
C794 H818 0.950 . S
C795 C812 1.574 . S
C795 C814 1.368 . S
C795 H819 0.949 . S
H796 C800 0.949 . S
C797 C798 1.349 . S
C797 C799 1.327 . S
C797 H820 0.950 . S
C798 C797 1.349 . S
C798 C810 1.349 . S
C799 C797 1.327 . S
C799 C815 1.429 . S
C799 H821 0.950 . S
C800 H796 0.949 . S
C800 C808 1.574 . S
C800 C816 1.368 . S
H801 C809 0.950 . S
H802 C807 0.950 . S
H803 C808 0.949 . S
H804 C810 0.950 . S
H805 C811 0.950 . S
H806 C812 0.949 . S
C807 H802 0.950 . S
C807 C809 1.327 . S
C807 C813 1.429 . S
C808 C800 1.574 . S
C808 H803 0.949 . S
C808 C814 1.368 . S
C809 C793 1.349 . S
C809 H801 0.950 . S
C809 C807 1.327 . S
C810 C798 1.349 . S
C810 H804 0.950 . S
C810 C811 1.327 . S
C811 H805 0.950 . S
C811 C810 1.327 . S
C811 C815 1.429 . S
C812 C795 1.574 . S
C812 H806 0.949 . S
C812 C816 1.368 . S
C813 C794 1.429 . S
C813 C807 1.429 . S
C813 C814 1.523 . S
C814 C795 1.368 . S
C814 C808 1.368 . S
C814 C813 1.523 . S
C815 C799 1.429 . S
C815 C811 1.429 . S
C815 C816 1.523 . S
C816 C800 1.368 . S
C816 C812 1.368 . S
C816 C815 1.523 . S
H817 C792 0.950 . S
H818 C794 0.950 . S
H819 C795 0.949 . S
H820 C797 0.950 . S
H821 C799 0.950 . S
C822 C823 1.349 . S
C822 C824 1.327 . S
C822 H847 0.950 . S
C823 C822 1.349 . S
C823 C839 1.349 . S
C824 C822 1.327 . S
C824 C843 1.429 . S
C824 H848 0.950 . S
C825 C842 1.574 . S
C825 C844 1.368 . S
C825 H849 0.949 . S
H826 C830 0.949 . S
C827 C828 1.349 . S
C827 C829 1.327 . S
C827 H850 0.950 . S
C828 C827 1.349 . S
C828 C840 1.349 . S
C829 C827 1.327 . S
C829 C845 1.429 . S
C829 H851 0.950 . S
C830 H826 0.949 . S
C830 C838 1.574 . S
C830 C846 1.368 . S
H831 C839 0.950 . S
H832 C837 0.950 . S
H833 C838 0.949 . S
H834 C840 0.950 . S
H835 C841 0.950 . S
H836 C842 0.949 . S
C837 H832 0.950 . S
C837 C839 1.327 . S
C837 C843 1.429 . S
C838 C830 1.574 . S
C838 H833 0.949 . S
C838 C844 1.368 . S
C839 C823 1.349 . S
C839 H831 0.950 . S
C839 C837 1.327 . S
C840 C828 1.349 . S
C840 H834 0.950 . S
C840 C841 1.327 . S
C841 H835 0.950 . S
C841 C840 1.327 . S
C841 C845 1.429 . S
C842 C825 1.574 . S
C842 H836 0.949 . S
C842 C846 1.368 . S
C843 C824 1.429 . S
C843 C837 1.429 . S
C843 C844 1.523 . S
C844 C825 1.368 . S
C844 C838 1.368 . S
C844 C843 1.523 . S
C845 C829 1.429 . S
C845 C841 1.429 . S
C845 C846 1.523 . S
C846 C830 1.368 . S
C846 C842 1.368 . S
C846 C845 1.523 . S
H847 C822 0.950 . S
H848 C824 0.950 . S
H849 C825 0.949 . S
H850 C827 0.950 . S
H851 C829 0.950 . S
C852 C853 1.349 . S
C852 C854 1.327 . S
C852 H877 0.950 . S
C853 C852 1.349 . S
C853 C869 1.349 . S
C854 C852 1.327 . S
C854 C873 1.429 . S
C854 H878 0.950 . S
C855 C872 1.574 . S
C855 C874 1.368 . S
C855 H879 0.949 . S
H856 C860 0.949 . S
C857 C858 1.349 . S
C857 C859 1.327 . S
C857 H880 0.950 . S
C858 C857 1.349 . S
C858 C870 1.349 . S
C859 C857 1.327 . S
C859 C875 1.429 . S
C859 H881 0.950 . S
C860 H856 0.949 . S
C860 C868 1.574 . S
C860 C876 1.368 . S
H861 C869 0.950 . S
H862 C867 0.950 . S
H863 C868 0.949 . S
H864 C870 0.950 . S
H865 C871 0.950 . S
H866 C872 0.949 . S
C867 H862 0.950 . S
C867 C869 1.327 . S
C867 C873 1.429 . S
C868 C860 1.574 . S
C868 H863 0.949 . S
C868 C874 1.368 . S
C869 C853 1.349 . S
C869 H861 0.950 . S
C869 C867 1.327 . S
C870 C858 1.349 . S
C870 H864 0.950 . S
C870 C871 1.327 . S
C871 H865 0.950 . S
C871 C870 1.327 . S
C871 C875 1.429 . S
C872 C855 1.574 . S
C872 H866 0.949 . S
C872 C876 1.368 . S
C873 C854 1.429 . S
C873 C867 1.429 . S
C873 C874 1.523 . S
C874 C855 1.368 . S
C874 C868 1.368 . S
C874 C873 1.523 . S
C875 C859 1.429 . S
C875 C871 1.429 . S
C875 C876 1.523 . S
C876 C860 1.368 . S
C876 C872 1.368 . S
C876 C875 1.523 . S
H877 C852 0.950 . S
H878 C854 0.950 . S
H879 C855 0.949 . S
H880 C857 0.950 . S
H881 C859 0.950 . S
C882 C883 1.349 . S
C882 C884 1.327 . S
C882 H907 0.950 . S
C883 C882 1.349 . S
C883 C899 1.349 . S
C884 C882 1.327 . S
C884 C903 1.429 . S
C884 H908 0.950 . S
C885 C902 1.574 . S
C885 C904 1.368 . S
C885 H909 0.949 . S
H886 C890 0.949 . S
C887 C888 1.349 . S
C887 C889 1.327 . S
C887 H910 0.950 . S
C888 C887 1.349 . S
C888 C900 1.349 . S
C889 C887 1.327 . S
C889 C905 1.429 . S
C889 H911 0.950 . S
C890 H886 0.949 . S
C890 C898 1.574 . S
C890 C906 1.368 . S
H891 C899 0.950 . S
H892 C897 0.950 . S
H893 C898 0.949 . S
H894 C900 0.950 . S
H895 C901 0.950 . S
H896 C902 0.949 . S
C897 H892 0.950 . S
C897 C899 1.327 . S
C897 C903 1.429 . S
C898 C890 1.574 . S
C898 H893 0.949 . S
C898 C904 1.368 . S
C899 C883 1.349 . S
C899 H891 0.950 . S
C899 C897 1.327 . S
C900 C888 1.349 . S
C900 H894 0.950 . S
C900 C901 1.327 . S
C901 H895 0.950 . S
C901 C900 1.327 . S
C901 C905 1.429 . S
C902 C885 1.574 . S
C902 H896 0.949 . S
C902 C906 1.368 . S
C903 C884 1.429 . S
C903 C897 1.429 . S
C903 C904 1.523 . S
C904 C885 1.368 . S
C904 C898 1.368 . S
C904 C903 1.523 . S
C905 C889 1.429 . S
C905 C901 1.429 . S
C905 C906 1.523 . S
C906 C890 1.368 . S
C906 C902 1.368 . S
C906 C905 1.523 . S
H907 C882 0.950 . S
H908 C884 0.950 . S
H909 C885 0.949 . S
H910 C887 0.950 . S
H911 C889 0.950 . S
C912 C913 1.349 . S
C912 C914 1.327 . S
C912 H937 0.950 . S
C913 C912 1.349 . S
C913 C929 1.349 . S
C914 C912 1.327 . S
C914 C933 1.429 . S
C914 H938 0.950 . S
C915 C932 1.574 . S
C915 C934 1.368 . S
C915 H939 0.949 . S
H916 C920 0.949 . S
C917 C918 1.349 . S
C917 C919 1.327 . S
C917 H940 0.950 . S
C918 C917 1.349 . S
C918 C930 1.349 . S
C919 C917 1.327 . S
C919 C935 1.429 . S
C919 H941 0.950 . S
C920 H916 0.949 . S
C920 C928 1.574 . S
C920 C936 1.368 . S
H921 C929 0.950 . S
H922 C927 0.950 . S
H923 C928 0.949 . S
H924 C930 0.950 . S
H925 C931 0.950 . S
H926 C932 0.949 . S
C927 H922 0.950 . S
C927 C929 1.327 . S
C927 C933 1.429 . S
C928 C920 1.574 . S
C928 H923 0.949 . S
C928 C934 1.368 . S
C929 C913 1.349 . S
C929 H921 0.950 . S
C929 C927 1.327 . S
C930 C918 1.349 . S
C930 H924 0.950 . S
C930 C931 1.327 . S
C931 H925 0.950 . S
C931 C930 1.327 . S
C931 C935 1.429 . S
C932 C915 1.574 . S
C932 H926 0.949 . S
C932 C936 1.368 . S
C933 C914 1.429 . S
C933 C927 1.429 . S
C933 C934 1.523 . S
C934 C915 1.368 . S
C934 C928 1.368 . S
C934 C933 1.523 . S
C935 C919 1.429 . S
C935 C931 1.429 . S
C935 C936 1.523 . S
C936 C920 1.368 . S
C936 C932 1.368 . S
C936 C935 1.523 . S
H937 C912 0.950 . S
H938 C914 0.950 . S
H939 C915 0.949 . S
H940 C917 0.950 . S
H941 C919 0.950 . S
C942 C943 1.349 . S
C942 C944 1.327 . S
C942 H967 0.950 . S
C943 C942 1.349 . S
C943 C959 1.349 . S
C944 C942 1.327 . S
C944 C963 1.429 . S
C944 H968 0.950 . S
C945 C962 1.574 . S
C945 C964 1.368 . S
C945 H969 0.949 . S
H946 C950 0.949 . S
C947 C948 1.349 . S
C947 C949 1.327 . S
C947 H970 0.950 . S
C948 C947 1.349 . S
C948 C960 1.349 . S
C949 C947 1.327 . S
C949 C965 1.429 . S
C949 H971 0.950 . S
C950 H946 0.949 . S
C950 C958 1.574 . S
C950 C966 1.368 . S
H951 C959 0.950 . S
H952 C957 0.950 . S
H953 C958 0.949 . S
H954 C960 0.950 . S
H955 C961 0.950 . S
H956 C962 0.949 . S
C957 H952 0.950 . S
C957 C959 1.327 . S
C957 C963 1.429 . S
C958 C950 1.574 . S
C958 H953 0.949 . S
C958 C964 1.368 . S
C959 C943 1.349 . S
C959 H951 0.950 . S
C959 C957 1.327 . S
C960 C948 1.349 . S
C960 H954 0.950 . S
C960 C961 1.327 . S
C961 H955 0.950 . S
C961 C960 1.327 . S
C961 C965 1.429 . S
C962 C945 1.574 . S
C962 H956 0.949 . S
C962 C966 1.368 . S
C963 C944 1.429 . S
C963 C957 1.429 . S
C963 C964 1.523 . S
C964 C945 1.368 . S
C964 C958 1.368 . S
C964 C963 1.523 . S
C965 C949 1.429 . S
C965 C961 1.429 . S
C965 C966 1.523 . S
C966 C950 1.368 . S
C966 C962 1.368 . S
C966 C965 1.523 . S
H967 C942 0.950 . S
H968 C944 0.950 . S
H969 C945 0.949 . S
H970 C947 0.950 . S
H971 C949 0.950 . S
C972 C973 1.349 . S
C972 C974 1.327 . S
C972 H997 0.950 . S
C973 C972 1.349 . S
C973 C989 1.349 . S
C974 C972 1.327 . S
C974 C993 1.429 . S
C974 H998 0.950 . S
C975 C992 1.574 . S
C975 C994 1.368 . S
C975 H999 0.949 . S
H976 C980 0.949 . S
C977 C978 1.349 . S
C977 C979 1.327 . S
C977 H1000 0.950 . S
C978 C977 1.349 . S
C978 C990 1.349 . S
C979 C977 1.327 . S
C979 C995 1.429 . S
C979 H1001 0.950 . S
C980 H976 0.949 . S
C980 C988 1.574 . S
C980 C996 1.368 . S
H981 C989 0.950 . S
H982 C987 0.950 . S
H983 C988 0.949 . S
H984 C990 0.950 . S
H985 C991 0.950 . S
H986 C992 0.949 . S
C987 H982 0.950 . S
C987 C989 1.327 . S
C987 C993 1.429 . S
C988 C980 1.574 . S
C988 H983 0.949 . S
C988 C994 1.368 . S
C989 C973 1.349 . S
C989 H981 0.950 . S
C989 C987 1.327 . S
C990 C978 1.349 . S
C990 H984 0.950 . S
C990 C991 1.327 . S
C991 H985 0.950 . S
C991 C990 1.327 . S
C991 C995 1.429 . S
C992 C975 1.574 . S
C992 H986 0.949 . S
C992 C996 1.368 . S
C993 C974 1.429 . S
C993 C987 1.429 . S
C993 C994 1.523 . S
C994 C975 1.368 . S
C994 C988 1.368 . S
C994 C993 1.523 . S
C995 C979 1.429 . S
C995 C991 1.429 . S
C995 C996 1.523 . S
C996 C980 1.368 . S
C996 C992 1.368 . S
C996 C995 1.523 . S
H997 C972 0.950 . S
H998 C974 0.950 . S
H999 C975 0.949 . S
H1000 C977 0.950 . S
H1001 C979 0.950 . S
C1002 C1003 1.349 . S
C1002 C1004 1.327 . S
C1002 H1027 0.950 . S
C1003 C1002 1.349 . S
C1003 C1019 1.349 . S
C1004 C1002 1.327 . S
C1004 C1023 1.429 . S
C1004 H1028 0.950 . S
C1005 C1022 1.574 . S
C1005 C1024 1.368 . S
C1005 H1029 0.949 . S
H1006 C1010 0.949 . S
C1007 C1008 1.349 . S
C1007 C1009 1.327 . S
C1007 H1030 0.950 . S
C1008 C1007 1.349 . S
C1008 C1020 1.349 . S
C1009 C1007 1.327 . S
C1009 C1025 1.429 . S
C1009 H1031 0.950 . S
C1010 H1006 0.949 . S
C1010 C1018 1.574 . S
C1010 C1026 1.368 . S
H1011 C1019 0.950 . S
H1012 C1017 0.950 . S
H1013 C1018 0.949 . S
H1014 C1020 0.950 . S
H1015 C1021 0.950 . S
H1016 C1022 0.949 . S
C1017 H1012 0.950 . S
C1017 C1019 1.327 . S
C1017 C1023 1.429 . S
C1018 C1010 1.574 . S
C1018 H1013 0.949 . S
C1018 C1024 1.368 . S
C1019 C1003 1.349 . S
C1019 H1011 0.950 . S
C1019 C1017 1.327 . S
C1020 C1008 1.349 . S
C1020 H1014 0.950 . S
C1020 C1021 1.327 . S
C1021 H1015 0.950 . S
C1021 C1020 1.327 . S
C1021 C1025 1.429 . S
C1022 C1005 1.574 . S
C1022 H1016 0.949 . S
C1022 C1026 1.368 . S
C1023 C1004 1.429 . S
C1023 C1017 1.429 . S
C1023 C1024 1.523 . S
C1024 C1005 1.368 . S
C1024 C1018 1.368 . S
C1024 C1023 1.523 . S
C1025 C1009 1.429 . S
C1025 C1021 1.429 . S
C1025 C1026 1.523 . S
C1026 C1010 1.368 . S
C1026 C1022 1.368 . S
C1026 C1025 1.523 . S
H1027 C1002 0.950 . S
H1028 C1004 0.950 . S
H1029 C1005 0.949 . S
H1030 C1007 0.950 . S
H1031 C1009 0.950 . S
C1032 C1033 1.349 . S
C1032 C1034 1.327 . S
C1032 H1057 0.950 . S
C1033 C1032 1.349 . S
C1033 C1049 1.349 . S
C1034 C1032 1.327 . S
C1034 C1053 1.429 . S
C1034 H1058 0.950 . S
C1035 C1052 1.574 1_455 S
C1035 C1054 1.368 . S
C1035 H1059 0.949 . S
H1036 C1040 0.949 . S
C1037 C1038 1.349 . S
C1037 C1039 1.327 . S
C1037 H1060 0.950 . S
C1038 C1037 1.349 . S
C1038 C1050 1.349 . S
C1039 C1037 1.327 . S
C1039 C1055 1.429 . S
C1039 H1061 0.950 . S
C1040 H1036 0.949 . S
C1040 C1048 1.574 1_655 S
C1040 C1056 1.368 . S
H1041 C1049 0.950 . S
H1042 C1047 0.950 . S
H1043 C1048 0.949 . S
H1044 C1050 0.950 . S
H1045 C1051 0.950 . S
H1046 C1052 0.949 . S
C1047 H1042 0.950 . S
C1047 C1049 1.327 . S
C1047 C1053 1.429 . S
C1048 C1040 1.574 1_455 S
C1048 H1043 0.949 . S
C1048 C1054 1.368 . S
C1049 C1033 1.349 . S
C1049 H1041 0.950 . S
C1049 C1047 1.327 . S
C1050 C1038 1.349 . S
C1050 H1044 0.950 . S
C1050 C1051 1.327 . S
C1051 H1045 0.950 . S
C1051 C1050 1.327 . S
C1051 C1055 1.429 . S
C1052 C1035 1.574 1_655 S
C1052 H1046 0.949 . S
C1052 C1056 1.368 . S
C1053 C1034 1.429 . S
C1053 C1047 1.429 . S
C1053 C1054 1.523 . S
C1054 C1035 1.368 . S
C1054 C1048 1.368 . S
C1054 C1053 1.523 . S
C1055 C1039 1.429 . S
C1055 C1051 1.429 . S
C1055 C1056 1.523 . S
C1056 C1040 1.368 . S
C1056 C1052 1.368 . S
C1056 C1055 1.523 . S
H1057 C1032 0.950 . S
H1058 C1034 0.950 . S
H1059 C1035 0.949 . S
H1060 C1037 0.950 . S
H1061 C1039 0.950 . S
C1062 C1063 1.349 . S
C1062 C1064 1.327 . S
C1062 H1087 0.950 . S
C1063 C1062 1.349 . S
C1063 C1079 1.349 . S
C1064 C1062 1.327 . S
C1064 C1083 1.429 . S
C1064 H1088 0.950 . S
C1065 C1082 1.574 1_545 S
C1065 C1084 1.368 . S
C1065 H1089 0.949 . S
H1066 C1070 0.949 . S
C1067 C1068 1.349 . S
C1067 C1069 1.327 . S
C1067 H1090 0.950 . S
C1068 C1067 1.349 . S
C1068 C1080 1.349 . S
C1069 C1067 1.327 . S
C1069 C1085 1.429 . S
C1069 H1091 0.950 . S
C1070 H1066 0.949 . S
C1070 C1078 1.574 1_565 S
C1070 C1086 1.368 . S
H1071 C1079 0.950 . S
H1072 C1077 0.950 . S
H1073 C1078 0.949 . S
H1074 C1080 0.950 . S
H1075 C1081 0.950 . S
H1076 C1082 0.949 . S
C1077 H1072 0.950 . S
C1077 C1079 1.327 . S
C1077 C1083 1.429 . S
C1078 C1070 1.574 1_545 S
C1078 H1073 0.949 . S
C1078 C1084 1.368 . S
C1079 C1063 1.349 . S
C1079 H1071 0.950 . S
C1079 C1077 1.327 . S
C1080 C1068 1.349 . S
C1080 H1074 0.950 . S
C1080 C1081 1.327 . S
C1081 H1075 0.950 . S
C1081 C1080 1.327 . S
C1081 C1085 1.429 . S
C1082 C1065 1.574 1_565 S
C1082 H1076 0.949 . S
C1082 C1086 1.368 . S
C1083 C1064 1.429 . S
C1083 C1077 1.429 . S
C1083 C1084 1.523 . S
C1084 C1065 1.368 . S
C1084 C1078 1.368 . S
C1084 C1083 1.523 . S
C1085 C1069 1.429 . S
C1085 C1081 1.429 . S
C1085 C1086 1.523 . S
C1086 C1070 1.368 . S
C1086 C1082 1.368 . S
C1086 C1085 1.523 . S
H1087 C1062 0.950 . S
H1088 C1064 0.950 . S
H1089 C1065 0.949 . S
H1090 C1067 0.950 . S
H1091 C1069 0.950 . S
C1092 C1093 1.349 . S
C1092 C1094 1.327 . S
C1092 H1117 0.950 . S
C1093 C1092 1.349 . S
C1093 C1109 1.349 . S
C1094 C1092 1.327 . S
C1094 C1113 1.429 . S
C1094 H1118 0.950 . S
C1095 C1112 1.574 1_655 S
C1095 C1114 1.368 . S
C1095 H1119 0.949 . S
H1096 C1100 0.949 . S
C1097 C1098 1.349 . S
C1097 C1099 1.327 . S
C1097 H1120 0.950 . S
C1098 C1097 1.349 . S
C1098 C1110 1.349 . S
C1099 C1097 1.327 . S
C1099 C1115 1.429 . S
C1099 H1121 0.950 . S
C1100 H1096 0.949 . S
C1100 C1108 1.574 1_455 S
C1100 C1116 1.368 . S
H1101 C1109 0.950 . S
H1102 C1107 0.950 . S
H1103 C1108 0.949 . S
H1104 C1110 0.950 . S
H1105 C1111 0.950 . S
H1106 C1112 0.949 . S
C1107 H1102 0.950 . S
C1107 C1109 1.327 . S
C1107 C1113 1.429 . S
C1108 C1100 1.574 1_655 S
C1108 H1103 0.949 . S
C1108 C1114 1.368 . S
C1109 C1093 1.349 . S
C1109 H1101 0.950 . S
C1109 C1107 1.327 . S
C1110 C1098 1.349 . S
C1110 H1104 0.950 . S
C1110 C1111 1.327 . S
C1111 H1105 0.950 . S
C1111 C1110 1.327 . S
C1111 C1115 1.429 . S
C1112 C1095 1.574 1_455 S
C1112 H1106 0.949 . S
C1112 C1116 1.368 . S
C1113 C1094 1.429 . S
C1113 C1107 1.429 . S
C1113 C1114 1.523 . S
C1114 C1095 1.368 . S
C1114 C1108 1.368 . S
C1114 C1113 1.523 . S
C1115 C1099 1.429 . S
C1115 C1111 1.429 . S
C1115 C1116 1.523 . S
C1116 C1100 1.368 . S
C1116 C1112 1.368 . S
C1116 C1115 1.523 . S
H1117 C1092 0.950 . S
H1118 C1094 0.950 . S
H1119 C1095 0.949 . S
H1120 C1097 0.950 . S
H1121 C1099 0.950 . S
C1122 C1123 1.349 . S
C1122 C1124 1.327 . S
C1122 H1147 0.950 . S
C1123 C1122 1.349 . S
C1123 C1139 1.349 . S
C1124 C1122 1.327 . S
C1124 C1143 1.429 . S
C1124 H1148 0.950 . S
C1125 C1142 1.574 1_545 S
C1125 C1144 1.368 . S
C1125 H1149 0.949 . S
H1126 C1130 0.949 . S
C1127 C1128 1.349 . S
C1127 C1129 1.327 . S
C1127 H1150 0.950 . S
C1128 C1127 1.349 . S
C1128 C1140 1.349 . S
C1129 C1127 1.327 . S
C1129 C1145 1.429 . S
C1129 H1151 0.950 . S
C1130 H1126 0.949 . S
C1130 C1138 1.574 1_565 S
C1130 C1146 1.368 . S
H1131 C1139 0.950 . S
H1132 C1137 0.950 . S
H1133 C1138 0.949 . S
H1134 C1140 0.950 . S
H1135 C1141 0.950 . S
H1136 C1142 0.949 . S
C1137 H1132 0.950 . S
C1137 C1139 1.327 . S
C1137 C1143 1.429 . S
C1138 C1130 1.574 1_545 S
C1138 H1133 0.949 . S
C1138 C1144 1.368 . S
C1139 C1123 1.349 . S
C1139 H1131 0.950 . S
C1139 C1137 1.327 . S
C1140 C1128 1.349 . S
C1140 H1134 0.950 . S
C1140 C1141 1.327 . S
C1141 H1135 0.950 . S
C1141 C1140 1.327 . S
C1141 C1145 1.429 . S
C1142 C1125 1.574 1_565 S
C1142 H1136 0.949 . S
C1142 C1146 1.368 . S
C1143 C1124 1.429 . S
C1143 C1137 1.429 . S
C1143 C1144 1.523 . S
C1144 C1125 1.368 . S
C1144 C1138 1.368 . S
C1144 C1143 1.523 . S
C1145 C1129 1.429 . S
C1145 C1141 1.429 . S
C1145 C1146 1.523 . S
C1146 C1130 1.368 . S
C1146 C1142 1.368 . S
C1146 C1145 1.523 . S
H1147 C1122 0.950 . S
H1148 C1124 0.950 . S
H1149 C1125 0.949 . S
H1150 C1127 0.950 . S
H1151 C1129 0.950 . S
C1152 C1153 1.349 . S
C1152 C1154 1.327 . S
C1152 H1177 0.950 . S
C1153 C1152 1.349 . S
C1153 C1169 1.349 . S
C1154 C1152 1.327 . S
C1154 C1173 1.429 . S
C1154 H1178 0.950 . S
C1155 C1172 1.574 1_565 S
C1155 C1174 1.368 . S
C1155 H1179 0.949 . S
H1156 C1160 0.949 . S
C1157 C1158 1.349 . S
C1157 C1159 1.327 . S
C1157 H1180 0.950 . S
C1158 C1157 1.349 . S
C1158 C1170 1.349 . S
C1159 C1157 1.327 . S
C1159 C1175 1.429 . S
C1159 H1181 0.950 . S
C1160 H1156 0.949 . S
C1160 C1168 1.574 1_545 S
C1160 C1176 1.368 . S
H1161 C1169 0.950 . S
H1162 C1167 0.950 . S
H1163 C1168 0.949 . S
H1164 C1170 0.950 . S
H1165 C1171 0.950 . S
H1166 C1172 0.949 . S
C1167 H1162 0.950 . S
C1167 C1169 1.327 . S
C1167 C1173 1.429 . S
C1168 C1160 1.574 1_565 S
C1168 H1163 0.949 . S
C1168 C1174 1.368 . S
C1169 C1153 1.349 . S
C1169 H1161 0.950 . S
C1169 C1167 1.327 . S
C1170 C1158 1.349 . S
C1170 H1164 0.950 . S
C1170 C1171 1.327 . S
C1171 H1165 0.950 . S
C1171 C1170 1.327 . S
C1171 C1175 1.429 . S
C1172 C1155 1.574 1_545 S
C1172 H1166 0.949 . S
C1172 C1176 1.368 . S
C1173 C1154 1.429 . S
C1173 C1167 1.429 . S
C1173 C1174 1.523 . S
C1174 C1155 1.368 . S
C1174 C1168 1.368 . S
C1174 C1173 1.523 . S
C1175 C1159 1.429 . S
C1175 C1171 1.429 . S
C1175 C1176 1.523 . S
C1176 C1160 1.368 . S
C1176 C1172 1.368 . S
C1176 C1175 1.523 . S
H1177 C1152 0.950 . S
H1178 C1154 0.950 . S
H1179 C1155 0.949 . S
H1180 C1157 0.950 . S
H1181 C1159 0.950 . S
C1182 C1183 1.349 . S
C1182 C1184 1.327 . S
C1182 H1207 0.950 . S
C1183 C1182 1.349 . S
C1183 C1199 1.349 . S
C1184 C1182 1.327 . S
C1184 C1203 1.429 . S
C1184 H1208 0.950 . S
C1185 C1202 1.574 1_655 S
C1185 C1204 1.368 . S
C1185 H1209 0.949 . S
H1186 C1190 0.949 . S
C1187 C1188 1.349 . S
C1187 C1189 1.327 . S
C1187 H1210 0.950 . S
C1188 C1187 1.349 . S
C1188 C1200 1.349 . S
C1189 C1187 1.327 . S
C1189 C1205 1.429 . S
C1189 H1211 0.950 . S
C1190 H1186 0.949 . S
C1190 C1198 1.574 1_455 S
C1190 C1206 1.368 . S
H1191 C1199 0.950 . S
H1192 C1197 0.950 . S
H1193 C1198 0.949 . S
H1194 C1200 0.950 . S
H1195 C1201 0.950 . S
H1196 C1202 0.949 . S
C1197 H1192 0.950 . S
C1197 C1199 1.327 . S
C1197 C1203 1.429 . S
C1198 C1190 1.574 1_655 S
C1198 H1193 0.949 . S
C1198 C1204 1.368 . S
C1199 C1183 1.349 . S
C1199 H1191 0.950 . S
C1199 C1197 1.327 . S
C1200 C1188 1.349 . S
C1200 H1194 0.950 . S
C1200 C1201 1.327 . S
C1201 H1195 0.950 . S
C1201 C1200 1.327 . S
C1201 C1205 1.429 . S
C1202 C1185 1.574 1_455 S
C1202 H1196 0.949 . S
C1202 C1206 1.368 . S
C1203 C1184 1.429 . S
C1203 C1197 1.429 . S
C1203 C1204 1.523 . S
C1204 C1185 1.368 . S
C1204 C1198 1.368 . S
C1204 C1203 1.523 . S
C1205 C1189 1.429 . S
C1205 C1201 1.429 . S
C1205 C1206 1.523 . S
C1206 C1190 1.368 . S
C1206 C1202 1.368 . S
C1206 C1205 1.523 . S
H1207 C1182 0.950 . S
H1208 C1184 0.950 . S
H1209 C1185 0.949 . S
H1210 C1187 0.950 . S
H1211 C1189 0.950 . S
C1212 C1213 1.349 . S
C1212 C1214 1.327 . S
C1212 H1237 0.950 . S
C1213 C1212 1.349 . S
C1213 C1229 1.349 . S
C1214 C1212 1.327 . S
C1214 C1233 1.429 . S
C1214 H1238 0.950 . S
C1215 C1232 1.574 1_565 S
C1215 C1234 1.368 . S
C1215 H1239 0.949 . S
H1216 C1220 0.949 . S
C1217 C1218 1.349 . S
C1217 C1219 1.327 . S
C1217 H1240 0.950 . S
C1218 C1217 1.349 . S
C1218 C1230 1.349 . S
C1219 C1217 1.327 . S
C1219 C1235 1.429 . S
C1219 H1241 0.950 . S
C1220 H1216 0.949 . S
C1220 C1228 1.574 1_545 S
C1220 C1236 1.368 . S
H1221 C1229 0.950 . S
H1222 C1227 0.950 . S
H1223 C1228 0.949 . S
H1224 C1230 0.950 . S
H1225 C1231 0.950 . S
H1226 C1232 0.949 . S
C1227 H1222 0.950 . S
C1227 C1229 1.327 . S
C1227 C1233 1.429 . S
C1228 C1220 1.574 1_565 S
C1228 H1223 0.949 . S
C1228 C1234 1.368 . S
C1229 C1213 1.349 . S
C1229 H1221 0.950 . S
C1229 C1227 1.327 . S
C1230 C1218 1.349 . S
C1230 H1224 0.950 . S
C1230 C1231 1.327 . S
C1231 H1225 0.950 . S
C1231 C1230 1.327 . S
C1231 C1235 1.429 . S
C1232 C1215 1.574 1_545 S
C1232 H1226 0.949 . S
C1232 C1236 1.368 . S
C1233 C1214 1.429 . S
C1233 C1227 1.429 . S
C1233 C1234 1.523 . S
C1234 C1215 1.368 . S
C1234 C1228 1.368 . S
C1234 C1233 1.523 . S
C1235 C1219 1.429 . S
C1235 C1231 1.429 . S
C1235 C1236 1.523 . S
C1236 C1220 1.368 . S
C1236 C1232 1.368 . S
C1236 C1235 1.523 . S
H1237 C1212 0.950 . S
H1238 C1214 0.950 . S
H1239 C1215 0.949 . S
H1240 C1217 0.950 . S
H1241 C1219 0.950 . S
C1242 C1243 1.349 . S
C1242 C1244 1.327 . S
C1242 H1267 0.950 . S
C1243 C1242 1.349 . S
C1243 C1259 1.349 . S
C1244 C1242 1.327 . S
C1244 C1263 1.429 . S
C1244 H1268 0.950 . S
C1245 C1262 1.574 1_655 S
C1245 C1264 1.368 . S
C1245 H1269 0.949 . S
H1246 C1250 0.949 . S
C1247 C1248 1.349 . S
C1247 C1249 1.327 . S
C1247 H1270 0.950 . S
C1248 C1247 1.349 . S
C1248 C1260 1.349 . S
C1249 C1247 1.327 . S
C1249 C1265 1.429 . S
C1249 H1271 0.950 . S
C1250 H1246 0.949 . S
C1250 C1258 1.574 1_455 S
C1250 C1266 1.368 . S
H1251 C1259 0.950 . S
H1252 C1257 0.950 . S
H1253 C1258 0.949 . S
H1254 C1260 0.950 . S
H1255 C1261 0.950 . S
H1256 C1262 0.949 . S
C1257 H1252 0.950 . S
C1257 C1259 1.327 . S
C1257 C1263 1.429 . S
C1258 C1250 1.574 1_655 S
C1258 H1253 0.949 . S
C1258 C1264 1.368 . S
C1259 C1243 1.349 . S
C1259 H1251 0.950 . S
C1259 C1257 1.327 . S
C1260 C1248 1.349 . S
C1260 H1254 0.950 . S
C1260 C1261 1.327 . S
C1261 H1255 0.950 . S
C1261 C1260 1.327 . S
C1261 C1265 1.429 . S
C1262 C1245 1.574 1_455 S
C1262 H1256 0.949 . S
C1262 C1266 1.368 . S
C1263 C1244 1.429 . S
C1263 C1257 1.429 . S
C1263 C1264 1.523 . S
C1264 C1245 1.368 . S
C1264 C1258 1.368 . S
C1264 C1263 1.523 . S
C1265 C1249 1.429 . S
C1265 C1261 1.429 . S
C1265 C1266 1.523 . S
C1266 C1250 1.368 . S
C1266 C1262 1.368 . S
C1266 C1265 1.523 . S
H1267 C1242 0.950 . S
H1268 C1244 0.950 . S
H1269 C1245 0.949 . S
H1270 C1247 0.950 . S
H1271 C1249 0.950 . S
C1272 C1273 1.349 . S
C1272 C1274 1.327 . S
C1272 H1297 0.950 . S
C1273 C1272 1.349 . S
C1273 C1289 1.349 . S
C1274 C1272 1.327 . S
C1274 C1293 1.429 . S
C1274 H1298 0.950 . S
C1275 C1292 1.574 1_556 S
C1275 C1294 1.368 . S
C1275 H1299 0.949 . S
H1276 C1280 0.949 . S
C1277 C1278 1.349 . S
C1277 C1279 1.327 . S
C1277 H1300 0.950 . S
C1278 C1277 1.349 . S
C1278 C1290 1.349 . S
C1279 C1277 1.327 . S
C1279 C1295 1.429 . S
C1279 H1301 0.950 . S
C1280 H1276 0.949 . S
C1280 C1288 1.574 1_554 S
C1280 C1296 1.368 . S
H1281 C1289 0.950 . S
H1282 C1287 0.950 . S
H1283 C1288 0.949 . S
H1284 C1290 0.950 . S
H1285 C1291 0.950 . S
H1286 C1292 0.949 . S
C1287 H1282 0.950 . S
C1287 C1289 1.327 . S
C1287 C1293 1.429 . S
C1288 C1280 1.574 1_556 S
C1288 H1283 0.949 . S
C1288 C1294 1.368 . S
C1289 C1273 1.349 . S
C1289 H1281 0.950 . S
C1289 C1287 1.327 . S
C1290 C1278 1.349 . S
C1290 H1284 0.950 . S
C1290 C1291 1.327 . S
C1291 H1285 0.950 . S
C1291 C1290 1.327 . S
C1291 C1295 1.429 . S
C1292 C1275 1.574 1_554 S
C1292 H1286 0.949 . S
C1292 C1296 1.368 . S
C1293 C1274 1.429 . S
C1293 C1287 1.429 . S
C1293 C1294 1.523 . S
C1294 C1275 1.368 . S
C1294 C1288 1.368 . S
C1294 C1293 1.523 . S
C1295 C1279 1.429 . S
C1295 C1291 1.429 . S
C1295 C1296 1.523 . S
C1296 C1280 1.368 . S
C1296 C1292 1.368 . S
C1296 C1295 1.523 . S
H1297 C1272 0.950 . S
H1298 C1274 0.950 . S
H1299 C1275 0.949 . S
H1300 C1277 0.950 . S
H1301 C1279 0.950 . S
C1302 C1303 1.349 . S
C1302 C1304 1.327 . S
C1302 H1327 0.950 . S
C1303 C1302 1.349 . S
C1303 C1319 1.349 . S
C1304 C1302 1.327 . S
C1304 C1323 1.429 . S
C1304 H1328 0.950 . S
C1305 C1322 1.574 1_556 S
C1305 C1324 1.368 . S
C1305 H1329 0.949 . S
H1306 C1310 0.949 . S
C1307 C1308 1.349 . S
C1307 C1309 1.327 . S
C1307 H1330 0.950 . S
C1308 C1307 1.349 . S
C1308 C1320 1.349 . S
C1309 C1307 1.327 . S
C1309 C1325 1.429 . S
C1309 H1331 0.950 . S
C1310 H1306 0.949 . S
C1310 C1318 1.574 1_554 S
C1310 C1326 1.368 . S
H1311 C1319 0.950 . S
H1312 C1317 0.950 . S
H1313 C1318 0.949 . S
H1314 C1320 0.950 . S
H1315 C1321 0.950 . S
H1316 C1322 0.949 . S
C1317 H1312 0.950 . S
C1317 C1319 1.327 . S
C1317 C1323 1.429 . S
C1318 C1310 1.574 1_556 S
C1318 H1313 0.949 . S
C1318 C1324 1.368 . S
C1319 C1303 1.349 . S
C1319 H1311 0.950 . S
C1319 C1317 1.327 . S
C1320 C1308 1.349 . S
C1320 H1314 0.950 . S
C1320 C1321 1.327 . S
C1321 H1315 0.950 . S
C1321 C1320 1.327 . S
C1321 C1325 1.429 . S
C1322 C1305 1.574 1_554 S
C1322 H1316 0.949 . S
C1322 C1326 1.368 . S
C1323 C1304 1.429 . S
C1323 C1317 1.429 . S
C1323 C1324 1.523 . S
C1324 C1305 1.368 . S
C1324 C1318 1.368 . S
C1324 C1323 1.523 . S
C1325 C1309 1.429 . S
C1325 C1321 1.429 . S
C1325 C1326 1.523 . S
C1326 C1310 1.368 . S
C1326 C1322 1.368 . S
C1326 C1325 1.523 . S
H1327 C1302 0.950 . S
H1328 C1304 0.950 . S
H1329 C1305 0.949 . S
H1330 C1307 0.950 . S
H1331 C1309 0.950 . S
C1332 C1333 1.349 . S
C1332 C1334 1.327 . S
C1332 H1357 0.950 . S
C1333 C1332 1.349 . S
C1333 C1349 1.349 . S
C1334 C1332 1.327 . S
C1334 C1353 1.429 . S
C1334 H1358 0.950 . S
C1335 C1352 1.574 1_556 S
C1335 C1354 1.368 . S
C1335 H1359 0.949 . S
H1336 C1340 0.949 . S
C1337 C1338 1.349 . S
C1337 C1339 1.327 . S
C1337 H1360 0.950 . S
C1338 C1337 1.349 . S
C1338 C1350 1.349 . S
C1339 C1337 1.327 . S
C1339 C1355 1.429 . S
C1339 H1361 0.950 . S
C1340 H1336 0.949 . S
C1340 C1348 1.574 1_554 S
C1340 C1356 1.368 . S
H1341 C1349 0.950 . S
H1342 C1347 0.950 . S
H1343 C1348 0.949 . S
H1344 C1350 0.950 . S
H1345 C1351 0.950 . S
H1346 C1352 0.949 . S
C1347 H1342 0.950 . S
C1347 C1349 1.327 . S
C1347 C1353 1.429 . S
C1348 C1340 1.574 1_556 S
C1348 H1343 0.949 . S
C1348 C1354 1.368 . S
C1349 C1333 1.349 . S
C1349 H1341 0.950 . S
C1349 C1347 1.327 . S
C1350 C1338 1.349 . S
C1350 H1344 0.950 . S
C1350 C1351 1.327 . S
C1351 H1345 0.950 . S
C1351 C1350 1.327 . S
C1351 C1355 1.429 . S
C1352 C1335 1.574 1_554 S
C1352 H1346 0.949 . S
C1352 C1356 1.368 . S
C1353 C1334 1.429 . S
C1353 C1347 1.429 . S
C1353 C1354 1.523 . S
C1354 C1335 1.368 . S
C1354 C1348 1.368 . S
C1354 C1353 1.523 . S
C1355 C1339 1.429 . S
C1355 C1351 1.429 . S
C1355 C1356 1.523 . S
C1356 C1340 1.368 . S
C1356 C1352 1.368 . S
C1356 C1355 1.523 . S
H1357 C1332 0.950 . S
H1358 C1334 0.950 . S
H1359 C1335 0.949 . S
H1360 C1337 0.950 . S
H1361 C1339 0.950 . S
C1362 C1363 1.349 . S
C1362 C1364 1.327 . S
C1362 H1387 0.950 . S
C1363 C1362 1.349 . S
C1363 C1379 1.349 . S
C1364 C1362 1.327 . S
C1364 C1383 1.429 . S
C1364 H1388 0.950 . S
C1365 C1382 1.574 1_556 S
C1365 C1384 1.368 . S
C1365 H1389 0.949 . S
H1366 C1370 0.949 . S
C1367 C1368 1.349 . S
C1367 C1369 1.327 . S
C1367 H1390 0.950 . S
C1368 C1367 1.349 . S
C1368 C1380 1.349 . S
C1369 C1367 1.327 . S
C1369 C1385 1.429 . S
C1369 H1391 0.950 . S
C1370 H1366 0.949 . S
C1370 C1378 1.574 1_554 S
C1370 C1386 1.368 . S
H1371 C1379 0.950 . S
H1372 C1377 0.950 . S
H1373 C1378 0.949 . S
H1374 C1380 0.950 . S
H1375 C1381 0.950 . S
H1376 C1382 0.949 . S
C1377 H1372 0.950 . S
C1377 C1379 1.327 . S
C1377 C1383 1.429 . S
C1378 C1370 1.574 1_556 S
C1378 H1373 0.949 . S
C1378 C1384 1.368 . S
C1379 C1363 1.349 . S
C1379 H1371 0.950 . S
C1379 C1377 1.327 . S
C1380 C1368 1.349 . S
C1380 H1374 0.950 . S
C1380 C1381 1.327 . S
C1381 H1375 0.950 . S
C1381 C1380 1.327 . S
C1381 C1385 1.429 . S
C1382 C1365 1.574 1_554 S
C1382 H1376 0.949 . S
C1382 C1386 1.368 . S
C1383 C1364 1.429 . S
C1383 C1377 1.429 . S
C1383 C1384 1.523 . S
C1384 C1365 1.368 . S
C1384 C1378 1.368 . S
C1384 C1383 1.523 . S
C1385 C1369 1.429 . S
C1385 C1381 1.429 . S
C1385 C1386 1.523 . S
C1386 C1370 1.368 . S
C1386 C1382 1.368 . S
C1386 C1385 1.523 . S
H1387 C1362 0.950 . S
H1388 C1364 0.950 . S
H1389 C1365 0.949 . S
H1390 C1367 0.950 . S
H1391 C1369 0.950 . S
C1392 C1393 1.349 . S
C1392 C1394 1.327 . S
C1392 H1417 0.950 . S
C1393 C1392 1.349 . S
C1393 C1409 1.349 . S
C1394 C1392 1.327 . S
C1394 C1413 1.429 . S
C1394 H1418 0.950 . S
C1395 C1412 1.574 . S
C1395 C1414 1.368 . S
C1395 H1419 0.949 . S
H1396 C1400 0.949 . S
C1397 C1398 1.349 . S
C1397 C1399 1.327 . S
C1397 H1420 0.950 . S
C1398 C1397 1.349 . S
C1398 C1410 1.349 . S
C1399 C1397 1.327 . S
C1399 C1415 1.429 . S
C1399 H1421 0.950 . S
C1400 H1396 0.949 . S
C1400 C1408 1.574 . S
C1400 C1416 1.368 . S
H1401 C1409 0.950 . S
H1402 C1407 0.950 . S
H1403 C1408 0.949 . S
H1404 C1410 0.950 . S
H1405 C1411 0.950 . S
H1406 C1412 0.949 . S
C1407 H1402 0.950 . S
C1407 C1409 1.327 . S
C1407 C1413 1.429 . S
C1408 C1400 1.574 . S
C1408 H1403 0.949 . S
C1408 C1414 1.368 . S
C1409 C1393 1.349 . S
C1409 H1401 0.950 . S
C1409 C1407 1.327 . S
C1410 C1398 1.349 . S
C1410 H1404 0.950 . S
C1410 C1411 1.327 . S
C1411 H1405 0.950 . S
C1411 C1410 1.327 . S
C1411 C1415 1.429 . S
C1412 C1395 1.574 . S
C1412 H1406 0.949 . S
C1412 C1416 1.368 . S
C1413 C1394 1.429 . S
C1413 C1407 1.429 . S
C1413 C1414 1.523 . S
C1414 C1395 1.368 . S
C1414 C1408 1.368 . S
C1414 C1413 1.523 . S
C1415 C1399 1.429 . S
C1415 C1411 1.429 . S
C1415 C1416 1.523 . S
C1416 C1400 1.368 . S
C1416 C1412 1.368 . S
C1416 C1415 1.523 . S
H1417 C1392 0.950 . S
H1418 C1394 0.950 . S
H1419 C1395 0.949 . S
H1420 C1397 0.950 . S
H1421 C1399 0.950 . S
C1422 C1423 1.349 . S
C1422 C1424 1.327 . S
C1422 H1447 0.950 . S
C1423 C1422 1.349 . S
C1423 C1439 1.349 . S
C1424 C1422 1.327 . S
C1424 C1443 1.429 . S
C1424 H1448 0.950 . S
C1425 C1442 1.574 . S
C1425 C1444 1.368 . S
C1425 H1449 0.949 . S
H1426 C1430 0.949 . S
C1427 C1428 1.349 . S
C1427 C1429 1.327 . S
C1427 H1450 0.950 . S
C1428 C1427 1.349 . S
C1428 C1440 1.349 . S
C1429 C1427 1.327 . S
C1429 C1445 1.429 . S
C1429 H1451 0.950 . S
C1430 H1426 0.949 . S
C1430 C1438 1.574 . S
C1430 C1446 1.368 . S
H1431 C1439 0.950 . S
H1432 C1437 0.950 . S
H1433 C1438 0.949 . S
H1434 C1440 0.950 . S
H1435 C1441 0.950 . S
H1436 C1442 0.949 . S
C1437 H1432 0.950 . S
C1437 C1439 1.327 . S
C1437 C1443 1.429 . S
C1438 C1430 1.574 . S
C1438 H1433 0.949 . S
C1438 C1444 1.368 . S
C1439 C1423 1.349 . S
C1439 H1431 0.950 . S
C1439 C1437 1.327 . S
C1440 C1428 1.349 . S
C1440 H1434 0.950 . S
C1440 C1441 1.327 . S
C1441 H1435 0.950 . S
C1441 C1440 1.327 . S
C1441 C1445 1.429 . S
C1442 C1425 1.574 . S
C1442 H1436 0.949 . S
C1442 C1446 1.368 . S
C1443 C1424 1.429 . S
C1443 C1437 1.429 . S
C1443 C1444 1.523 . S
C1444 C1425 1.368 . S
C1444 C1438 1.368 . S
C1444 C1443 1.523 . S
C1445 C1429 1.429 . S
C1445 C1441 1.429 . S
C1445 C1446 1.523 . S
C1446 C1430 1.368 . S
C1446 C1442 1.368 . S
C1446 C1445 1.523 . S
H1447 C1422 0.950 . S
H1448 C1424 0.950 . S
H1449 C1425 0.949 . S
H1450 C1427 0.950 . S
H1451 C1429 0.950 . S
C1452 C1453 1.349 . S
C1452 C1454 1.327 . S
C1452 H1477 0.950 . S
C1453 C1452 1.349 . S
C1453 C1469 1.349 . S
C1454 C1452 1.327 . S
C1454 C1473 1.429 . S
C1454 H1478 0.950 . S
C1455 C1472 1.574 . S
C1455 C1474 1.368 . S
C1455 H1479 0.949 . S
H1456 C1460 0.949 . S
C1457 C1458 1.349 . S
C1457 C1459 1.327 . S
C1457 H1480 0.950 . S
C1458 C1457 1.349 . S
C1458 C1470 1.349 . S
C1459 C1457 1.327 . S
C1459 C1475 1.429 . S
C1459 H1481 0.950 . S
C1460 H1456 0.949 . S
C1460 C1468 1.574 . S
C1460 C1476 1.368 . S
H1461 C1469 0.950 . S
H1462 C1467 0.950 . S
H1463 C1468 0.949 . S
H1464 C1470 0.950 . S
H1465 C1471 0.950 . S
H1466 C1472 0.949 . S
C1467 H1462 0.950 . S
C1467 C1469 1.327 . S
C1467 C1473 1.429 . S
C1468 C1460 1.574 . S
C1468 H1463 0.949 . S
C1468 C1474 1.368 . S
C1469 C1453 1.349 . S
C1469 H1461 0.950 . S
C1469 C1467 1.327 . S
C1470 C1458 1.349 . S
C1470 H1464 0.950 . S
C1470 C1471 1.327 . S
C1471 H1465 0.950 . S
C1471 C1470 1.327 . S
C1471 C1475 1.429 . S
C1472 C1455 1.574 . S
C1472 H1466 0.949 . S
C1472 C1476 1.368 . S
C1473 C1454 1.429 . S
C1473 C1467 1.429 . S
C1473 C1474 1.523 . S
C1474 C1455 1.368 . S
C1474 C1468 1.368 . S
C1474 C1473 1.523 . S
C1475 C1459 1.429 . S
C1475 C1471 1.429 . S
C1475 C1476 1.523 . S
C1476 C1460 1.368 . S
C1476 C1472 1.368 . S
C1476 C1475 1.523 . S
H1477 C1452 0.950 . S
H1478 C1454 0.950 . S
H1479 C1455 0.949 . S
H1480 C1457 0.950 . S
H1481 C1459 0.950 . S
C1482 C1483 1.349 . S
C1482 C1484 1.327 . S
C1482 H1507 0.950 . S
C1483 C1482 1.349 . S
C1483 C1499 1.349 . S
C1484 C1482 1.327 . S
C1484 C1503 1.429 . S
C1484 H1508 0.950 . S
C1485 C1502 1.574 . S
C1485 C1504 1.368 . S
C1485 H1509 0.949 . S
H1486 C1490 0.949 . S
C1487 C1488 1.349 . S
C1487 C1489 1.327 . S
C1487 H1510 0.950 . S
C1488 C1487 1.349 . S
C1488 C1500 1.349 . S
C1489 C1487 1.327 . S
C1489 C1505 1.429 . S
C1489 H1511 0.950 . S
C1490 H1486 0.949 . S
C1490 C1498 1.574 . S
C1490 C1506 1.368 . S
H1491 C1499 0.950 . S
H1492 C1497 0.950 . S
H1493 C1498 0.949 . S
H1494 C1500 0.950 . S
H1495 C1501 0.950 . S
H1496 C1502 0.949 . S
C1497 H1492 0.950 . S
C1497 C1499 1.327 . S
C1497 C1503 1.429 . S
C1498 C1490 1.574 . S
C1498 H1493 0.949 . S
C1498 C1504 1.368 . S
C1499 C1483 1.349 . S
C1499 H1491 0.950 . S
C1499 C1497 1.327 . S
C1500 C1488 1.349 . S
C1500 H1494 0.950 . S
C1500 C1501 1.327 . S
C1501 H1495 0.950 . S
C1501 C1500 1.327 . S
C1501 C1505 1.429 . S
C1502 C1485 1.574 . S
C1502 H1496 0.949 . S
C1502 C1506 1.368 . S
C1503 C1484 1.429 . S
C1503 C1497 1.429 . S
C1503 C1504 1.523 . S
C1504 C1485 1.368 . S
C1504 C1498 1.368 . S
C1504 C1503 1.523 . S
C1505 C1489 1.429 . S
C1505 C1501 1.429 . S
C1505 C1506 1.523 . S
C1506 C1490 1.368 . S
C1506 C1502 1.368 . S
C1506 C1505 1.523 . S
H1507 C1482 0.950 . S
H1508 C1484 0.950 . S
H1509 C1485 0.949 . S
H1510 C1487 0.950 . S
H1511 C1489 0.950 . S
C1512 C1513 1.349 . S
C1512 C1514 1.327 . S
C1512 H1537 0.950 . S
C1513 C1512 1.349 . S
C1513 C1529 1.349 . S
C1514 C1512 1.327 . S
C1514 C1533 1.429 . S
C1514 H1538 0.950 . S
C1515 C1532 1.574 . S
C1515 C1534 1.368 . S
C1515 H1539 0.949 . S
H1516 C1520 0.949 . S
C1517 C1518 1.349 . S
C1517 C1519 1.327 . S
C1517 H1540 0.950 . S
C1518 C1517 1.349 . S
C1518 C1530 1.349 . S
C1519 C1517 1.327 . S
C1519 C1535 1.429 . S
C1519 H1541 0.950 . S
C1520 H1516 0.949 . S
C1520 C1528 1.574 . S
C1520 C1536 1.368 . S
H1521 C1529 0.950 . S
H1522 C1527 0.950 . S
H1523 C1528 0.949 . S
H1524 C1530 0.950 . S
H1525 C1531 0.950 . S
H1526 C1532 0.949 . S
C1527 H1522 0.950 . S
C1527 C1529 1.327 . S
C1527 C1533 1.429 . S
C1528 C1520 1.574 . S
C1528 H1523 0.949 . S
C1528 C1534 1.368 . S
C1529 C1513 1.349 . S
C1529 H1521 0.950 . S
C1529 C1527 1.327 . S
C1530 C1518 1.349 . S
C1530 H1524 0.950 . S
C1530 C1531 1.327 . S
C1531 H1525 0.950 . S
C1531 C1530 1.327 . S
C1531 C1535 1.429 . S
C1532 C1515 1.574 . S
C1532 H1526 0.949 . S
C1532 C1536 1.368 . S
C1533 C1514 1.429 . S
C1533 C1527 1.429 . S
C1533 C1534 1.523 . S
C1534 C1515 1.368 . S
C1534 C1528 1.368 . S
C1534 C1533 1.523 . S
C1535 C1519 1.429 . S
C1535 C1531 1.429 . S
C1535 C1536 1.523 . S
C1536 C1520 1.368 . S
C1536 C1532 1.368 . S
C1536 C1535 1.523 . S
H1537 C1512 0.950 . S
H1538 C1514 0.950 . S
H1539 C1515 0.949 . S
H1540 C1517 0.950 . S
H1541 C1519 0.950 . S
C1542 C1543 1.349 . S
C1542 C1544 1.327 . S
C1542 H1567 0.950 . S
C1543 C1542 1.349 . S
C1543 C1559 1.349 . S
C1544 C1542 1.327 . S
C1544 C1563 1.429 . S
C1544 H1568 0.950 . S
C1545 C1562 1.574 . S
C1545 C1564 1.368 . S
C1545 H1569 0.949 . S
H1546 C1550 0.949 . S
C1547 C1548 1.349 . S
C1547 C1549 1.327 . S
C1547 H1570 0.950 . S
C1548 C1547 1.349 . S
C1548 C1560 1.349 . S
C1549 C1547 1.327 . S
C1549 C1565 1.429 . S
C1549 H1571 0.950 . S
C1550 H1546 0.949 . S
C1550 C1558 1.574 . S
C1550 C1566 1.368 . S
H1551 C1559 0.950 . S
H1552 C1557 0.950 . S
H1553 C1558 0.949 . S
H1554 C1560 0.950 . S
H1555 C1561 0.950 . S
H1556 C1562 0.949 . S
C1557 H1552 0.950 . S
C1557 C1559 1.327 . S
C1557 C1563 1.429 . S
C1558 C1550 1.574 . S
C1558 H1553 0.949 . S
C1558 C1564 1.368 . S
C1559 C1543 1.349 . S
C1559 H1551 0.950 . S
C1559 C1557 1.327 . S
C1560 C1548 1.349 . S
C1560 H1554 0.950 . S
C1560 C1561 1.327 . S
C1561 H1555 0.950 . S
C1561 C1560 1.327 . S
C1561 C1565 1.429 . S
C1562 C1545 1.574 . S
C1562 H1556 0.949 . S
C1562 C1566 1.368 . S
C1563 C1544 1.429 . S
C1563 C1557 1.429 . S
C1563 C1564 1.523 . S
C1564 C1545 1.368 . S
C1564 C1558 1.368 . S
C1564 C1563 1.523 . S
C1565 C1549 1.429 . S
C1565 C1561 1.429 . S
C1565 C1566 1.523 . S
C1566 C1550 1.368 . S
C1566 C1562 1.368 . S
C1566 C1565 1.523 . S
H1567 C1542 0.950 . S
H1568 C1544 0.950 . S
H1569 C1545 0.949 . S
H1570 C1547 0.950 . S
H1571 C1549 0.950 . S
C1572 C1573 1.349 . S
C1572 C1574 1.327 . S
C1572 H1597 0.950 . S
C1573 C1572 1.349 . S
C1573 C1589 1.349 . S
C1574 C1572 1.327 . S
C1574 C1593 1.429 . S
C1574 H1598 0.950 . S
C1575 C1592 1.574 . S
C1575 C1594 1.368 . S
C1575 H1599 0.949 . S
H1576 C1580 0.949 . S
C1577 C1578 1.349 . S
C1577 C1579 1.327 . S
C1577 H1600 0.950 . S
C1578 C1577 1.349 . S
C1578 C1590 1.349 . S
C1579 C1577 1.327 . S
C1579 C1595 1.429 . S
C1579 H1601 0.950 . S
C1580 H1576 0.949 . S
C1580 C1588 1.574 . S
C1580 C1596 1.368 . S
H1581 C1589 0.950 . S
H1582 C1587 0.950 . S
H1583 C1588 0.949 . S
H1584 C1590 0.950 . S
H1585 C1591 0.950 . S
H1586 C1592 0.949 . S
C1587 H1582 0.950 . S
C1587 C1589 1.327 . S
C1587 C1593 1.429 . S
C1588 C1580 1.574 . S
C1588 H1583 0.949 . S
C1588 C1594 1.368 . S
C1589 C1573 1.349 . S
C1589 H1581 0.950 . S
C1589 C1587 1.327 . S
C1590 C1578 1.349 . S
C1590 H1584 0.950 . S
C1590 C1591 1.327 . S
C1591 H1585 0.950 . S
C1591 C1590 1.327 . S
C1591 C1595 1.429 . S
C1592 C1575 1.574 . S
C1592 H1586 0.949 . S
C1592 C1596 1.368 . S
C1593 C1574 1.429 . S
C1593 C1587 1.429 . S
C1593 C1594 1.523 . S
C1594 C1575 1.368 . S
C1594 C1588 1.368 . S
C1594 C1593 1.523 . S
C1595 C1579 1.429 . S
C1595 C1591 1.429 . S
C1595 C1596 1.523 . S
C1596 C1580 1.368 . S
C1596 C1592 1.368 . S
C1596 C1595 1.523 . S
H1597 C1572 0.950 . S
H1598 C1574 0.950 . S
H1599 C1575 0.949 . S
H1600 C1577 0.950 . S
H1601 C1579 0.950 . S
C1602 C1603 1.349 . S
C1602 C1604 1.327 . S
C1602 H1627 0.950 . S
C1603 C1602 1.349 . S
C1603 C1619 1.349 . S
C1604 C1602 1.327 . S
C1604 C1623 1.429 . S
C1604 H1628 0.950 . S
C1605 C1622 1.574 . S
C1605 C1624 1.368 . S
C1605 H1629 0.949 . S
H1606 C1610 0.949 . S
C1607 C1608 1.349 . S
C1607 C1609 1.327 . S
C1607 H1630 0.950 . S
C1608 C1607 1.349 . S
C1608 C1620 1.349 . S
C1609 C1607 1.327 . S
C1609 C1625 1.429 . S
C1609 H1631 0.950 . S
C1610 H1606 0.949 . S
C1610 C1618 1.574 . S
C1610 C1626 1.368 . S
H1611 C1619 0.950 . S
H1612 C1617 0.950 . S
H1613 C1618 0.949 . S
H1614 C1620 0.950 . S
H1615 C1621 0.950 . S
H1616 C1622 0.949 . S
C1617 H1612 0.950 . S
C1617 C1619 1.327 . S
C1617 C1623 1.429 . S
C1618 C1610 1.574 . S
C1618 H1613 0.949 . S
C1618 C1624 1.368 . S
C1619 C1603 1.349 . S
C1619 H1611 0.950 . S
C1619 C1617 1.327 . S
C1620 C1608 1.349 . S
C1620 H1614 0.950 . S
C1620 C1621 1.327 . S
C1621 H1615 0.950 . S
C1621 C1620 1.327 . S
C1621 C1625 1.429 . S
C1622 C1605 1.574 . S
C1622 H1616 0.949 . S
C1622 C1626 1.368 . S
C1623 C1604 1.429 . S
C1623 C1617 1.429 . S
C1623 C1624 1.523 . S
C1624 C1605 1.368 . S
C1624 C1618 1.368 . S
C1624 C1623 1.523 . S
C1625 C1609 1.429 . S
C1625 C1621 1.429 . S
C1625 C1626 1.523 . S
C1626 C1610 1.368 . S
C1626 C1622 1.368 . S
C1626 C1625 1.523 . S
H1627 C1602 0.950 . S
H1628 C1604 0.950 . S
H1629 C1605 0.949 . S
H1630 C1607 0.950 . S
H1631 C1609 0.950 . S
C1632 C1633 1.349 . S
C1632 C1634 1.327 . S
C1632 H1657 0.950 . S
C1633 C1632 1.349 . S
C1633 C1649 1.349 . S
C1634 C1632 1.327 . S
C1634 C1653 1.429 . S
C1634 H1658 0.950 . S
C1635 C1652 1.574 . S
C1635 C1654 1.368 . S
C1635 H1659 0.949 . S
H1636 C1640 0.949 . S
C1637 C1638 1.349 . S
C1637 C1639 1.327 . S
C1637 H1660 0.950 . S
C1638 C1637 1.349 . S
C1638 C1650 1.349 . S
C1639 C1637 1.327 . S
C1639 C1655 1.429 . S
C1639 H1661 0.950 . S
C1640 H1636 0.949 . S
C1640 C1648 1.574 . S
C1640 C1656 1.368 . S
H1641 C1649 0.950 . S
H1642 C1647 0.950 . S
H1643 C1648 0.949 . S
H1644 C1650 0.950 . S
H1645 C1651 0.950 . S
H1646 C1652 0.949 . S
C1647 H1642 0.950 . S
C1647 C1649 1.327 . S
C1647 C1653 1.429 . S
C1648 C1640 1.574 . S
C1648 H1643 0.949 . S
C1648 C1654 1.368 . S
C1649 C1633 1.349 . S
C1649 H1641 0.950 . S
C1649 C1647 1.327 . S
C1650 C1638 1.349 . S
C1650 H1644 0.950 . S
C1650 C1651 1.327 . S
C1651 H1645 0.950 . S
C1651 C1650 1.327 . S
C1651 C1655 1.429 . S
C1652 C1635 1.574 . S
C1652 H1646 0.949 . S
C1652 C1656 1.368 . S
C1653 C1634 1.429 . S
C1653 C1647 1.429 . S
C1653 C1654 1.523 . S
C1654 C1635 1.368 . S
C1654 C1648 1.368 . S
C1654 C1653 1.523 . S
C1655 C1639 1.429 . S
C1655 C1651 1.429 . S
C1655 C1656 1.523 . S
C1656 C1640 1.368 . S
C1656 C1652 1.368 . S
C1656 C1655 1.523 . S
H1657 C1632 0.950 . S
H1658 C1634 0.950 . S
H1659 C1635 0.949 . S
H1660 C1637 0.950 . S
H1661 C1639 0.950 . S
C1662 C1663 1.349 . S
C1662 C1664 1.327 . S
C1662 H1687 0.950 . S
C1663 C1662 1.349 . S
C1663 C1679 1.349 . S
C1664 C1662 1.327 . S
C1664 C1683 1.429 . S
C1664 H1688 0.950 . S
C1665 C1682 1.574 . S
C1665 C1684 1.368 . S
C1665 H1689 0.949 . S
H1666 C1670 0.949 . S
C1667 C1668 1.349 . S
C1667 C1669 1.327 . S
C1667 H1690 0.950 . S
C1668 C1667 1.349 . S
C1668 C1680 1.349 . S
C1669 C1667 1.327 . S
C1669 C1685 1.429 . S
C1669 H1691 0.950 . S
C1670 H1666 0.949 . S
C1670 C1678 1.574 . S
C1670 C1686 1.368 . S
H1671 C1679 0.950 . S
H1672 C1677 0.950 . S
H1673 C1678 0.949 . S
H1674 C1680 0.950 . S
H1675 C1681 0.950 . S
H1676 C1682 0.949 . S
C1677 H1672 0.950 . S
C1677 C1679 1.327 . S
C1677 C1683 1.429 . S
C1678 C1670 1.574 . S
C1678 H1673 0.949 . S
C1678 C1684 1.368 . S
C1679 C1663 1.349 . S
C1679 H1671 0.950 . S
C1679 C1677 1.327 . S
C1680 C1668 1.349 . S
C1680 H1674 0.950 . S
C1680 C1681 1.327 . S
C1681 H1675 0.950 . S
C1681 C1680 1.327 . S
C1681 C1685 1.429 . S
C1682 C1665 1.574 . S
C1682 H1676 0.949 . S
C1682 C1686 1.368 . S
C1683 C1664 1.429 . S
C1683 C1677 1.429 . S
C1683 C1684 1.523 . S
C1684 C1665 1.368 . S
C1684 C1678 1.368 . S
C1684 C1683 1.523 . S
C1685 C1669 1.429 . S
C1685 C1681 1.429 . S
C1685 C1686 1.523 . S
C1686 C1670 1.368 . S
C1686 C1682 1.368 . S
C1686 C1685 1.523 . S
H1687 C1662 0.950 . S
H1688 C1664 0.950 . S
H1689 C1665 0.949 . S
H1690 C1667 0.950 . S
H1691 C1669 0.950 . S
C1692 C1693 1.349 . S
C1692 C1694 1.327 . S
C1692 H1717 0.950 . S
C1693 C1692 1.349 . S
C1693 C1709 1.349 . S
C1694 C1692 1.327 . S
C1694 C1713 1.429 . S
C1694 H1718 0.950 . S
C1695 C1712 1.574 . S
C1695 C1714 1.368 . S
C1695 H1719 0.949 . S
H1696 C1700 0.949 . S
C1697 C1698 1.349 . S
C1697 C1699 1.327 . S
C1697 H1720 0.950 . S
C1698 C1697 1.349 . S
C1698 C1710 1.349 . S
C1699 C1697 1.327 . S
C1699 C1715 1.429 . S
C1699 H1721 0.950 . S
C1700 H1696 0.949 . S
C1700 C1708 1.574 . S
C1700 C1716 1.368 . S
H1701 C1709 0.950 . S
H1702 C1707 0.950 . S
H1703 C1708 0.949 . S
H1704 C1710 0.950 . S
H1705 C1711 0.950 . S
H1706 C1712 0.949 . S
C1707 H1702 0.950 . S
C1707 C1709 1.327 . S
C1707 C1713 1.429 . S
C1708 C1700 1.574 . S
C1708 H1703 0.949 . S
C1708 C1714 1.368 . S
C1709 C1693 1.349 . S
C1709 H1701 0.950 . S
C1709 C1707 1.327 . S
C1710 C1698 1.349 . S
C1710 H1704 0.950 . S
C1710 C1711 1.327 . S
C1711 H1705 0.950 . S
C1711 C1710 1.327 . S
C1711 C1715 1.429 . S
C1712 C1695 1.574 . S
C1712 H1706 0.949 . S
C1712 C1716 1.368 . S
C1713 C1694 1.429 . S
C1713 C1707 1.429 . S
C1713 C1714 1.523 . S
C1714 C1695 1.368 . S
C1714 C1708 1.368 . S
C1714 C1713 1.523 . S
C1715 C1699 1.429 . S
C1715 C1711 1.429 . S
C1715 C1716 1.523 . S
C1716 C1700 1.368 . S
C1716 C1712 1.368 . S
C1716 C1715 1.523 . S
H1717 C1692 0.950 . S
H1718 C1694 0.950 . S
H1719 C1695 0.949 . S
H1720 C1697 0.950 . S
H1721 C1699 0.950 . S
C1722 C1723 1.349 . S
C1722 C1724 1.327 . S
C1722 H1747 0.950 . S
C1723 C1722 1.349 . S
C1723 C1739 1.349 . S
C1724 C1722 1.327 . S
C1724 C1743 1.429 . S
C1724 H1748 0.950 . S
C1725 C1742 1.574 . S
C1725 C1744 1.368 . S
C1725 H1749 0.949 . S
H1726 C1730 0.949 . S
C1727 C1728 1.349 . S
C1727 C1729 1.327 . S
C1727 H1750 0.950 . S
C1728 C1727 1.349 . S
C1728 C1740 1.349 . S
C1729 C1727 1.327 . S
C1729 C1745 1.429 . S
C1729 H1751 0.950 . S
C1730 H1726 0.949 . S
C1730 C1738 1.574 . S
C1730 C1746 1.368 . S
H1731 C1739 0.950 . S
H1732 C1737 0.950 . S
H1733 C1738 0.949 . S
H1734 C1740 0.950 . S
H1735 C1741 0.950 . S
H1736 C1742 0.949 . S
C1737 H1732 0.950 . S
C1737 C1739 1.327 . S
C1737 C1743 1.429 . S
C1738 C1730 1.574 . S
C1738 H1733 0.949 . S
C1738 C1744 1.368 . S
C1739 C1723 1.349 . S
C1739 H1731 0.950 . S
C1739 C1737 1.327 . S
C1740 C1728 1.349 . S
C1740 H1734 0.950 . S
C1740 C1741 1.327 . S
C1741 H1735 0.950 . S
C1741 C1740 1.327 . S
C1741 C1745 1.429 . S
C1742 C1725 1.574 . S
C1742 H1736 0.949 . S
C1742 C1746 1.368 . S
C1743 C1724 1.429 . S
C1743 C1737 1.429 . S
C1743 C1744 1.523 . S
C1744 C1725 1.368 . S
C1744 C1738 1.368 . S
C1744 C1743 1.523 . S
C1745 C1729 1.429 . S
C1745 C1741 1.429 . S
C1745 C1746 1.523 . S
C1746 C1730 1.368 . S
C1746 C1742 1.368 . S
C1746 C1745 1.523 . S
H1747 C1722 0.950 . S
H1748 C1724 0.950 . S
H1749 C1725 0.949 . S
H1750 C1727 0.950 . S
H1751 C1729 0.950 . S
C313 C153 1.423 . S
C318 C3 1.432 . S
C343 C16 1.432 . S
C348 C108 1.423 . S
C373 C31 1.432 . S
C378 C121 1.423 . S
C403 C42 1.432 . S
C408 C134 1.423 . S
C433 C173 1.423 . S
C438 C55 1.432 . S
C463 C68 1.432 . S
C468 C186 1.423 . S
C493 C199 1.423 . S
C498 C81 1.432 . S
C523 C160 1.423 . S
C528 C96 1.432 . S
C553 C75 1.423 . S
C558 C109 1.432 . S
C583 C88 1.423 . S
C588 C122 1.432 . S
C613 C135 1.432 . S
C618 C95 1.423 . S
C643 C62 1.423 . S
C648 C146 1.432 . S
C673 C49 1.423 . S
C678 C161 1.432 . S
C703 C174 1.432 . S
C708 C10 1.423 . S
C733 C187 1.432 . S
C738 C23 1.423 . S
C763 C200 1.432 . S
C768 C30 1.423 . S
C793 C213 1.432 . S
C798 C309 1.423 . S
C823 C264 1.423 . S
C828 C224 1.432 . S
C853 C239 1.432 . S
C858 C231 1.423 . S
C883 C250 1.432 . S
C888 C238 1.423 . S
C913 C257 1.423 . S
C918 C265 1.432 . S
C943 C278 1.432 . S
C948 C290 1.423 . S
C973 C212 1.423 . S
C978 C291 1.432 . S
C1003 C277 1.423 . S
C1008 C302 1.432 . S
C1033 C5 1.644 . S
C1038 C83 1.644 . S
C1063 C18 1.644 . S
C1068 C94 1.644 . S
C1093 C29 1.644 . S
C1098 C57 1.644 . S
C1123 C70 1.644 . S
C1128 C44 1.644 . S
C1153 C133 1.644 . S
C1158 C107 1.644 . S
C1183 C120 1.644 . S
C1188 C148 1.644 . S
C1213 C159 1.644 . S
C1218 C185 1.644 . S
C1243 C198 1.644 . S
C1248 C172 1.644 . S
C1273 C226 1.644 . S
C1278 C211 1.644 . S
C1303 C237 1.644 . S
C1308 C304 1.644 . S
C1333 C252 1.644 . S
C1338 C276 1.644 . S
C1363 C263 1.644 . S
C1368 C289 1.644 . S
C1393 C4 0.853 . S
C1398 C69 0.853 . S
C1423 C17 0.853 . S
C1428 C82 0.853 . S
C1453 C36 0.853 . S
C1458 C101 0.853 . S
C1483 C56 0.853 . S
C1488 C43 0.853 . S
C1513 C114 0.853 . S
C1518 C303 0.853 . S
C1543 C127 0.853 . S
C1548 C283 0.853 . S
C1573 C296 0.853 . S
C1578 C140 0.853 . S
C1603 C147 0.853 . S
C1608 C218 0.853 . S
C1633 C270 0.853 . S
C1638 C166 0.853 . S
C1663 C225 0.853 . S
C1668 C179 0.853 . S
C1693 C192 0.853 . S
C1698 C244 0.853 . S
C1723 C251 0.853 . S
C1728 C205 0.853 . S
