# Generated by pormake.
# Topology wiv, (6)-cn, num edge types: 1
# Building blocks:
#     Node 0, Type 0, BuildingBlock: BETFAJ_clean_sbu_0, # of connection points: 6
#     Node 1, Type 0, BuildingBlock: BETFAJ_clean_sbu_0, # of connection points: 6
#     Node 2, Type 0, BuildingBlock: BETFAJ_clean_sbu_0, # of connection points: 6
#     Node 3, Type 0, BuildingBlock: BETFAJ_clean_sbu_0, # of connection points: 6
#     Node 4, Type 0, BuildingBlock: BETFAJ_clean_sbu_0, # of connection points: 6
#     Node 5, Type 0, BuildingBlock: BETFAJ_clean_sbu_0, # of connection points: 6
#     Node 6, Type 0, BuildingBlock: BETFAJ_clean_sbu_0, # of connection points: 6
#     Node 7, Type 0, BuildingBlock: BETFAJ_clean_sbu_0, # of connection points: 6
#     Node 8, Type 0, BuildingBlock: BETFAJ_clean_sbu_0, # of connection points: 6
#     Node 9, Type 0, BuildingBlock: BETFAJ_clean_sbu_0, # of connection points: 6
#     Node 10, Type 0, BuildingBlock: BETFAJ_clean_sbu_0, # of connection points: 6
#     Node 11, Type 0, BuildingBlock: BETFAJ_clean_sbu_0, # of connection points: 6
#     Node 12, Type 0, BuildingBlock: BETFAJ_clean_sbu_0, # of connection points: 6
#     Node 13, Type 0, BuildingBlock: BETFAJ_clean_sbu_0, # of connection points: 6
#     Node 14, Type 0, BuildingBlock: BETFAJ_clean_sbu_0, # of connection points: 6
#     Node 15, Type 0, BuildingBlock: BETFAJ_clean_sbu_0, # of connection points: 6
#     Edge 16, Type (0, 0), BuildingBlock: TEMPAE_clean_linker_10, # of connection points: 2
#     Edge 17, Type (0, 0), BuildingBlock: TEMPAE_clean_linker_10, # of connection points: 2
#     Edge 18, Type (0, 0), BuildingBlock: TEMPAE_clean_linker_10, # of connection points: 2
#     Edge 19, Type (0, 0), BuildingBlock: TEMPAE_clean_linker_10, # of connection points: 2
#     Edge 20, Type (0, 0), BuildingBlock: TEMPAE_clean_linker_10, # of connection points: 2
#     Edge 21, Type (0, 0), BuildingBlock: TEMPAE_clean_linker_10, # of connection points: 2
#     Edge 22, Type (0, 0), BuildingBlock: TEMPAE_clean_linker_10, # of connection points: 2
#     Edge 23, Type (0, 0), BuildingBlock: TEMPAE_clean_linker_10, # of connection points: 2
#     Edge 24, Type (0, 0), BuildingBlock: TEMPAE_clean_linker_10, # of connection points: 2
#     Edge 25, Type (0, 0), BuildingBlock: TEMPAE_clean_linker_10, # of connection points: 2
#     Edge 26, Type (0, 0), BuildingBlock: TEMPAE_clean_linker_10, # of connection points: 2
#     Edge 27, Type (0, 0), BuildingBlock: TEMPAE_clean_linker_10, # of connection points: 2
#     Edge 28, Type (0, 0), BuildingBlock: TEMPAE_clean_linker_10, # of connection points: 2
#     Edge 29, Type (0, 0), BuildingBlock: TEMPAE_clean_linker_10, # of connection points: 2
#     Edge 30, Type (0, 0), BuildingBlock: TEMPAE_clean_linker_10, # of connection points: 2
#     Edge 31, Type (0, 0), BuildingBlock: TEMPAE_clean_linker_10, # of connection points: 2
#     Edge 32, Type (0, 0), BuildingBlock: TEMPAE_clean_linker_10, # of connection points: 2
#     Edge 33, Type (0, 0), BuildingBlock: TEMPAE_clean_linker_10, # of connection points: 2
#     Edge 34, Type (0, 0), BuildingBlock: TEMPAE_clean_linker_10, # of connection points: 2
#     Edge 35, Type (0, 0), BuildingBlock: TEMPAE_clean_linker_10, # of connection points: 2
#     Edge 36, Type (0, 0), BuildingBlock: TEMPAE_clean_linker_10, # of connection points: 2
#     Edge 37, Type (0, 0), BuildingBlock: TEMPAE_clean_linker_10, # of connection points: 2
#     Edge 38, Type (0, 0), BuildingBlock: TEMPAE_clean_linker_10, # of connection points: 2
#     Edge 39, Type (0, 0), BuildingBlock: TEMPAE_clean_linker_10, # of connection points: 2
#     Edge 40, Type (0, 0), BuildingBlock: TEMPAE_clean_linker_10, # of connection points: 2
#     Edge 41, Type (0, 0), BuildingBlock: TEMPAE_clean_linker_10, # of connection points: 2
#     Edge 42, Type (0, 0), BuildingBlock: TEMPAE_clean_linker_10, # of connection points: 2
#     Edge 43, Type (0, 0), BuildingBlock: TEMPAE_clean_linker_10, # of connection points: 2
#     Edge 44, Type (0, 0), BuildingBlock: TEMPAE_clean_linker_10, # of connection points: 2
#     Edge 45, Type (0, 0), BuildingBlock: TEMPAE_clean_linker_10, # of connection points: 2
#     Edge 46, Type (0, 0), BuildingBlock: TEMPAE_clean_linker_10, # of connection points: 2
#     Edge 47, Type (0, 0), BuildingBlock: TEMPAE_clean_linker_10, # of connection points: 2
#     Edge 48, Type (0, 0), BuildingBlock: TEMPAE_clean_linker_10, # of connection points: 2
#     Edge 49, Type (0, 0), BuildingBlock: TEMPAE_clean_linker_10, # of connection points: 2
#     Edge 50, Type (0, 0), BuildingBlock: TEMPAE_clean_linker_10, # of connection points: 2
#     Edge 51, Type (0, 0), BuildingBlock: TEMPAE_clean_linker_10, # of connection points: 2
#     Edge 52, Type (0, 0), BuildingBlock: TEMPAE_clean_linker_10, # of connection points: 2
#     Edge 53, Type (0, 0), BuildingBlock: TEMPAE_clean_linker_10, # of connection points: 2
#     Edge 54, Type (0, 0), BuildingBlock: TEMPAE_clean_linker_10, # of connection points: 2
#     Edge 55, Type (0, 0), BuildingBlock: TEMPAE_clean_linker_10, # of connection points: 2
#     Edge 56, Type (0, 0), BuildingBlock: TEMPAE_clean_linker_10, # of connection points: 2
#     Edge 57, Type (0, 0), BuildingBlock: TEMPAE_clean_linker_10, # of connection points: 2
#     Edge 58, Type (0, 0), BuildingBlock: TEMPAE_clean_linker_10, # of connection points: 2
#     Edge 59, Type (0, 0), BuildingBlock: TEMPAE_clean_linker_10, # of connection points: 2
#     Edge 60, Type (0, 0), BuildingBlock: TEMPAE_clean_linker_10, # of connection points: 2
#     Edge 61, Type (0, 0), BuildingBlock: TEMPAE_clean_linker_10, # of connection points: 2
#     Edge 62, Type (0, 0), BuildingBlock: TEMPAE_clean_linker_10, # of connection points: 2
#     Edge 63, Type (0, 0), BuildingBlock: TEMPAE_clean_linker_10, # of connection points: 2
# Relax obj value: 0.125
# Max RMSD: 0.181
# Mean RMSD: 0.181
data_MOF--net-wiv--node1-BETFAJ_clean_sbu_0--edge1-TEMPAE_clean_linker_10
_symmetry_space_group_name_H-M    P1
_symmetry_Int_Tables_number       1
_symmetry_cell_setting            triclinic
loop_
_symmetry_equiv_pos_as_xyz
'x, y, z'
_cell_length_a     52.025994
_cell_length_b     51.995806
_cell_length_c     25.198804
_cell_angle_alpha  90.000237
_cell_angle_beta   90.055249
_cell_angle_gamma 89.962172
loop_
_atom_site_label
_atom_site_type_symbol
_atom_site_fract_x
_atom_site_fract_y
_atom_site_fract_z
_atom_type_partial_charge
Sm0 Sm 0.34095 0.10285 0.17024 0.0
Sm1 Sm 0.37762 0.11233 0.07198 0.0
C2 C 0.32239 0.08013 0.25613 0.0
C3 C 0.32503 0.08471 0.31369 0.0
C4 C 0.31837 0.06539 0.34997 0.0
C5 C 0.32244 0.06896 0.40449 0.0
C6 C 0.33342 0.0919 0.42382 0.0
C7 C 0.33994 0.11126 0.3871 0.0
C8 C 0.33585 0.10767 0.33264 0.0
C9 C 0.34734 0.15527 0.1593 0.0
C10 C 0.40307 0.11882 0.18739 0.0
C11 C 0.39628 0.12639 0.9786 0.0
C12 C 0.38828 0.12251 0.92274 0.0
C13 C 0.39199 0.1422 0.88545 0.0
C14 C 0.38441 0.13885 0.8325 0.0
C15 C 0.37309 0.11566 0.81565 0.0
C16 C 0.36914 0.09606 0.85327 0.0
C17 C 0.37651 0.0995 0.90632 0.0
C18 C 0.37772 0.06367 0.1152 0.0
C19 C 0.31535 0.10043 0.05022 0.0
O20 O 0.34345 0.07269 0.23225 0.0
O21 O 0.30945 0.09732 0.22884 0.0
O22 O 0.35718 0.13817 0.12984 0.0
O23 O 0.33285 0.1446 0.19488 0.0
O24 O 0.38225 0.10702 0.20592 0.0
O25 O 0.40477 0.12645 0.13739 0.0
O26 O 0.38153 0.1413 1.00736 0.0
O27 O 0.40423 0.106 1.00442 0.0
O28 O 0.35816 0.07765 0.10756 0.0
O29 O 0.39825 0.07486 0.09691 0.0
O30 O 0.33863 0.10474 0.03139 0.0
O31 O 0.31066 0.09867 0.10202 0.0
H32 H 0.3104 0.04736 0.33605 0.0
H33 H 0.31756 0.05347 0.43138 0.0
H34 H 0.34819 0.12925 0.40044 0.0
H35 H 0.34143 0.12272 0.30522 0.0
H36 H 0.40085 0.16016 0.89727 0.0
H37 H 0.38786 0.15426 0.80447 0.0
H38 H 0.36014 0.07812 0.84176 0.0
H39 H 0.37303 0.08415 0.93447 0.0
Sm40 Sm 0.11188 0.62626 0.97262 0.0
Sm41 Sm 0.10362 0.66363 0.87507 0.0
C42 C 0.12446 0.60639 0.06588 0.0
C43 C 0.12227 0.61485 0.12189 0.0
C44 C 0.1287 0.64001 0.13757 0.0
C45 C 0.12595 0.64772 0.1906 0.0
C46 C 0.11652 0.63052 0.22919 0.0
C47 C 0.10985 0.60544 0.21298 0.0
C48 C 0.11277 0.59772 0.16009 0.0
C49 C 0.06357 0.62699 0.92789 0.0
C50 C 0.10169 0.68872 0.99544 0.0
C51 C 0.08187 0.68292 0.78867 0.0
C52 C 0.08511 0.67981 0.73025 0.0
C53 C 0.07439 0.65853 0.70366 0.0
C54 C 0.07752 0.65545 0.64888 0.0
C55 C 0.09139 0.67357 0.61894 0.0
C56 C 0.10196 0.69496 0.6454 0.0
C57 C 0.09877 0.69809 0.70033 0.0
C58 C 0.15585 0.65637 0.88734 0.0
C59 C 0.11823 0.60111 0.85727 0.0
O60 O 0.14082 0.61874 0.03565 0.0
O61 O 0.10285 0.60112 0.04161 0.0
O62 O 0.07763 0.64643 0.93638 0.0
O63 O 0.07456 0.6062 0.94558 0.0
O64 O 0.10601 0.66532 1.01361 0.0
O65 O 0.0996 0.6937 0.94378 0.0
O66 O 0.07286 0.663 0.81445 0.0
O67 O 0.10001 0.695 0.81496 0.0
O68 O 0.13847 0.64656 0.9161 0.0
O69 O 0.14559 0.67114 0.8517 0.0
O70 O 0.10704 0.62232 0.83875 0.0
O71 O 0.12563 0.59906 0.90733 0.0
H72 H 0.13586 0.65377 0.1089 0.0
H73 H 0.13152 0.66709 0.20137 0.0
H74 H 0.10198 0.59178 0.24101 0.0
H75 H 0.10739 0.57833 0.1489 0.0
H76 H 0.06366 0.64405 0.72517 0.0
H77 H 0.06938 0.63857 0.63013 0.0
H78 H 0.11249 0.70946 0.62355 0.0
H79 H 0.10703 0.71483 0.71938 0.0
Sm80 Sm 0.65799 0.89939 0.16752 0.0
Sm81 Sm 0.62184 0.89183 0.07673 0.0
C82 C 0.67824 0.91465 0.25914 0.0
C83 C 0.67208 0.91156 0.31606 0.0
C84 C 0.67844 0.93116 0.35195 0.0
C85 C 0.67257 0.9287 0.40597 0.0
C86 C 0.66017 0.90652 0.42538 0.0
C87 C 0.65352 0.88704 0.38897 0.0
C88 C 0.65934 0.88957 0.3349 0.0
C89 C 0.6548 0.84861 0.13658 0.0
C90 C 0.59563 0.88658 0.19047 0.0
C91 C 0.60058 0.87979 0.98415 0.0
C92 C 0.60763 0.88267 0.92744 0.0
C93 C 0.60386 0.86209 0.89226 0.0
C94 C 0.61027 0.86449 0.83846 0.0
C95 C 0.62047 0.88764 0.81856 0.0
C96 C 0.62445 0.90817 0.85404 0.0
C97 C 0.61824 0.90567 0.90791 0.0
C98 C 0.62345 0.94136 0.11658 0.0
C99 C 0.6836 0.90151 0.05082 0.0
O100 O 0.66222 0.92862 0.23151 0.0
O101 O 0.68591 0.89415 0.23356 0.0
O102 O 0.63591 0.8639 0.13973 0.0
O103 O 0.67598 0.86003 0.15037 0.0
O104 O 0.61759 0.89642 0.20797 0.0
O105 O 0.59302 0.87957 0.14041 0.0
O106 O 0.61427 0.86355 1.01201 0.0
O107 O 0.59521 0.90084 1.01034 0.0
O108 O 0.64272 0.92718 0.10772 0.0
O109 O 0.60251 0.92989 0.10172 0.0
O110 O 0.66157 0.89123 0.03612 0.0
O111 O 0.68676 0.90993 0.10006 0.0
H112 H 0.68792 0.94846 0.33814 0.0
H113 H 0.67752 0.94434 0.43244 0.0
H114 H 0.64414 0.86962 0.40231 0.0
H115 H 0.65394 0.8743 0.30784 0.0
H116 H 0.59581 0.84414 0.90638 0.0
H117 H 0.60679 0.84837 0.8122 0.0
H118 H 0.63261 0.92611 0.84022 0.0
H119 H 0.62171 0.92178 0.93422 0.0
Sm120 Sm 0.89275 0.38085 0.96854 0.0
Sm121 Sm 0.89768 0.34481 0.87689 0.0
C122 C 0.88129 0.40256 0.06079 0.0
C123 C 0.88442 0.39579 0.11739 0.0
C124 C 0.86614 0.40413 0.15444 0.0
C125 C 0.86863 0.39768 0.20816 0.0
C126 C 0.88956 0.38283 0.22596 0.0
C127 C 0.9078 0.37436 0.18861 0.0
C128 C 0.90518 0.38065 0.1348 0.0
C129 C 0.9412 0.37912 0.92419 0.0
C130 C 0.90248 0.31877 0.99367 0.0
C131 C 0.91113 0.32374 0.78493 0.0
C132 C 0.90948 0.33067 0.72821 0.0
C133 C 0.9274 0.32056 0.69233 0.0
C134 C 0.92594 0.32665 0.63828 0.0
C135 C 0.90647 0.34301 0.61893 0.0
C136 C 0.88877 0.35345 0.65537 0.0
C137 C 0.8903 0.34738 0.70945 0.0
C138 C 0.84782 0.34852 0.91269 0.0
C139 C 0.88571 0.40745 0.85514 0.0
O140 O 0.86497 0.38858 0.03377 0.0
O141 O 0.90227 0.40768 0.03423 0.0
O142 O 0.92715 0.3598 0.93372 0.0
O143 O 0.93026 0.4001 0.94069 0.0
O144 O 0.89581 0.34165 1.01142 0.0
O145 O 0.90663 0.31468 0.94251 0.0
O146 O 0.92679 0.33749 0.81389 0.0
O147 O 0.88947 0.31878 0.80908 0.0
O148 O 0.8632 0.36729 0.90809 0.0
O149 O 0.8588 0.3272 0.89826 0.0
O150 O 0.89453 0.38528 0.83638 0.0
O151 O 0.88005 0.41005 0.90589 0.0
H152 H 0.84991 0.41569 0.14181 0.0
H153 H 0.85436 0.40465 0.23594 0.0
H154 H 0.92393 0.36259 0.20092 0.0
H155 H 0.91935 0.37366 0.1068 0.0
H156 H 0.94253 0.30787 0.70611 0.0
H157 H 0.9402 0.31866 0.61169 0.0
H158 H 0.87341 0.36594 0.64202 0.0
H159 H 0.87637 0.35558 0.73656 0.0
Sm160 Sm 0.3445 0.39885 0.1354 0.0
Sm161 Sm 0.38109 0.39423 0.22629 0.0
C162 C 0.32259 0.41136 0.04348 0.0
C163 C 0.32924 0.41083 0.98639 0.0
C164 C 0.3544 0.41566 0.96872 0.0
C165 C 0.36035 0.41444 0.91451 0.0
C166 C 0.34124 0.40849 0.8768 0.0
C167 C 0.31605 0.40388 0.89477 0.0
C168 C 0.31015 0.40499 0.94895 0.0
C169 C 0.34827 0.34911 0.17227 0.0
C170 C 0.40711 0.38719 0.11253 0.0
C171 C 0.40302 0.38388 0.31903 0.0
C172 C 0.39589 0.3867 0.37567 0.0
C173 C 0.37062 0.38225 0.39326 0.0
C174 C 0.36425 0.38518 0.44697 0.0
C175 C 0.38295 0.39275 0.48423 0.0
C176 C 0.40816 0.39738 0.46633 0.0
C177 C 0.41454 0.39435 0.41268 0.0
C178 C 0.37956 0.44229 0.18026 0.0
C179 C 0.3191 0.40389 0.25257 0.0
O180 O 0.33496 0.42776 0.07339 0.0
O181 O 0.3194 0.3891 0.06654 0.0
O182 O 0.36704 0.36441 0.16688 0.0
O183 O 0.32687 0.36023 0.15883 0.0
O184 O 0.38483 0.39606 0.09439 0.0
O185 O 0.41004 0.38145 0.16321 0.0
O186 O 0.39029 0.36683 0.29125 0.0
O187 O 0.40714 0.40518 0.29281 0.0
O188 O 0.36015 0.42857 0.19095 0.0
O189 O 0.40052 0.43126 0.19654 0.0
O190 O 0.3421 0.39721 0.26955 0.0
O191 O 0.31461 0.4079 0.20148 0.0
H192 H 0.36945 0.42036 0.99678 0.0
H193 H 0.37987 0.41841 0.90207 0.0
H194 H 0.30093 0.39895 0.86701 0.0
H195 H 0.29064 0.40113 0.96167 0.0
H196 H 0.35576 0.37653 0.36557 0.0
H197 H 0.34458 0.3818 0.45923 0.0
H198 H 0.42308 0.40299 0.49399 0.0
H199 H 0.43411 0.39795 0.40007 0.0
Sm200 Sm 0.39455 0.62304 0.82182 0.0
Sm201 Sm 0.39945 0.6599 0.912 0.0
C202 C 0.38497 0.59982 0.72992 0.0
C203 C 0.38607 0.60616 0.6725 0.0
C204 C 0.37331 0.62774 0.65142 0.0
C205 C 0.37494 0.63345 0.59714 0.0
C206 C 0.38944 0.61784 0.56271 0.0
C207 C 0.40197 0.59614 0.58386 0.0
C208 C 0.40028 0.59039 0.63807 0.0
C209 C 0.4429 0.62511 0.86715 0.0
C210 C 0.40289 0.68502 0.79463 0.0
C211 C 0.41165 0.68115 1.0046 0.0
C212 C 0.40971 0.67406 0.06163 0.0
C213 C 0.42227 0.65224 0.08231 0.0
C214 C 0.42017 0.64598 0.13627 0.0
C215 C 0.40537 0.66128 0.17078 0.0
C216 C 0.39283 0.68304 0.14996 0.0
C217 C 0.39506 0.68939 0.09613 0.0
C218 C 0.34958 0.65572 0.87618 0.0
C219 C 0.38797 0.5973 0.93566 0.0
O220 O 0.36723 0.61107 0.75854 0.0
O221 O 0.40697 0.59808 0.75471 0.0
O222 O 0.42898 0.64436 0.85619 0.0
O223 O 0.43179 0.604 0.8521 0.0
O224 O 0.39397 0.66243 0.77959 0.0
O225 O 0.40965 0.68896 0.84474 0.0
O226 O 0.42798 0.66831 0.97539 0.0
O227 O 0.39011 0.68588 0.97972 0.0
O228 O 0.36499 0.63701 0.88175 0.0
O229 O 0.36063 0.67725 0.88891 0.0
O230 O 0.39703 0.61957 0.95337 0.0
O231 O 0.38191 0.59432 0.8852 0.0
H232 H 0.36208 0.64025 0.67678 0.0
H233 H 0.36456 0.64992 0.58192 0.0
H234 H 0.41344 0.5838 0.5586 0.0
H235 H 0.41026 0.57363 0.65323 0.0
H236 H 0.43366 0.63991 0.05686 0.0
H237 H 0.42986 0.62894 0.15084 0.0
H238 H 0.38153 0.69541 0.17549 0.0
H239 H 0.3853 0.70637 0.0814 0.0
Sm240 Sm 0.66296 0.60231 0.12211 0.0
Sm241 Sm 0.62605 0.6105 0.22047 0.0
C242 C 0.68216 0.58056 0.03588 0.0
C243 C 0.6781 0.58413 0.97814 0.0
C244 C 0.65321 0.58727 0.95732 0.0
C245 C 0.64943 0.5908 0.90287 0.0
C246 C 0.67044 0.59133 0.86775 0.0
C247 C 0.69536 0.58809 0.88867 0.0
C248 C 0.69913 0.58454 0.94332 0.0
C249 C 0.65594 0.65457 0.1355 0.0
C250 C 0.60059 0.61751 0.10514 0.0
C251 C 0.60624 0.62327 0.31371 0.0
C252 C 0.6144 0.62076 0.3697 0.0
C253 C 0.64052 0.62114 0.38402 0.0
C254 C 0.64795 0.61769 0.43701 0.0
C255 C 0.62939 0.6138 0.47684 0.0
C256 C 0.60324 0.61361 0.46226 0.0
C257 C 0.59586 0.61701 0.40927 0.0
C258 C 0.6266 0.56222 0.17552 0.0
C259 C 0.68877 0.60042 0.2416 0.0
O260 O 0.66269 0.57113 0.06243 0.0
O261 O 0.69397 0.59915 0.06125 0.0
O262 O 0.64626 0.63701 0.16395 0.0
O263 O 0.67041 0.64446 0.09919 0.0
O264 O 0.62166 0.60629 0.08612 0.0
O265 O 0.5987 0.62456 0.15546 0.0
O266 O 0.61926 0.63932 0.28402 0.0
O267 O 0.6007 0.60179 0.28921 0.0
O268 O 0.64603 0.57629 0.18388 0.0
O269 O 0.60588 0.57319 0.19347 0.0
O270 O 0.6654 0.60429 0.26041 0.0
O271 O 0.69346 0.59865 0.18984 0.0
H272 H 0.63659 0.58693 0.98309 0.0
H273 H 0.62996 0.5928 0.88821 0.0
H274 H 0.712 0.58864 0.8629 0.0
H275 H 0.7185 0.58221 0.95843 0.0
H276 H 0.65525 0.62394 0.35429 0.0
H277 H 0.66825 0.61766 0.44661 0.0
H278 H 0.58841 0.61105 0.49192 0.0
H279 H 0.57562 0.61662 0.39914 0.0
Sm280 Sm 0.61049 0.3797 0.82327 0.0
Sm281 Sm 0.60144 0.34212 0.9204 0.0
C282 C 0.62335 0.39958 0.73008 0.0
C283 C 0.61996 0.39186 0.67388 0.0
C284 C 0.6397 0.39629 0.63712 0.0
C285 C 0.63676 0.3891 0.58382 0.0
C286 C 0.61392 0.37738 0.56603 0.0
C287 C 0.59423 0.3728 0.60314 0.0
C288 C 0.59726 0.37984 0.65647 0.0
C289 C 0.56186 0.37903 0.86677 0.0
C290 C 0.59973 0.31717 0.79985 0.0
C291 C 0.57939 0.3235 1.00698 0.0
C292 C 0.58425 0.32651 0.0644 0.0
C293 C 0.56599 0.3181 0.10141 0.0
C294 C 0.56963 0.32259 0.15579 0.0
C295 C 0.59158 0.33574 0.17425 0.0
C296 C 0.60991 0.34397 0.13679 0.0
C297 C 0.60626 0.33945 0.08248 0.0
C298 C 0.65383 0.34869 0.90856 0.0
C299 C 0.61735 0.4043 0.93875 0.0
O300 O 0.6391 0.38556 0.75853 0.0
O301 O 0.60257 0.40614 0.75606 0.0
O302 O 0.57595 0.35961 0.85848 0.0
O303 O 0.57295 0.39978 0.84937 0.0
O304 O 0.60537 0.34048 0.78258 0.0
O305 O 0.59625 0.31232 0.85129 0.0
O306 O 0.57157 0.34438 0.98285 0.0
O307 O 0.59659 0.31067 0.97956 0.0
O308 O 0.63654 0.35878 0.87995 0.0
O309 O 0.64338 0.3338 0.94371 0.0
O310 O 0.60548 0.38339 0.95672 0.0
O311 O 0.62506 0.40625 0.88891 0.0
H312 H 0.6574 0.40544 0.64962 0.0
H313 H 0.65222 0.39315 0.55633 0.0
H314 H 0.57656 0.36346 0.59108 0.0
H315 H 0.58184 0.37583 0.68412 0.0
H316 H 0.54868 0.30846 0.08819 0.0
H317 H 0.55492 0.31633 0.18325 0.0
H318 H 0.62715 0.35391 0.14942 0.0
H319 H 0.62046 0.34636 0.05448 0.0
Sm320 Sm 0.84597 0.60983 0.65751 0.0
Sm321 Sm 0.8829 0.61214 0.56809 0.0
C322 C 0.82362 0.59938 0.74985 0.0
C323 C 0.83029 0.6007 0.8072 0.0
C324 C 0.8363 0.57812 0.83534 0.0
C325 C 0.84223 0.57906 0.88955 0.0
C326 C 0.84218 0.60261 0.91713 0.0
C327 C 0.83612 0.62518 0.88891 0.0
C328 C 0.83024 0.62425 0.83471 0.0
C329 C 0.8522 0.6591 0.6186 0.0
C330 C 0.90875 0.61925 0.68189 0.0
C331 C 0.90532 0.62142 0.47557 0.0
C332 C 0.89822 0.6186 0.41861 0.0
C333 C 0.88829 0.63965 0.3901 0.0
C334 C 0.88141 0.63712 0.33661 0.0
C335 C 0.88446 0.61351 0.31004 0.0
C336 C 0.89453 0.59249 0.33846 0.0
C337 C 0.90136 0.595 0.392 0.0
C338 C 0.87976 0.56449 0.61553 0.0
C339 C 0.82084 0.60401 0.54064 0.0
O340 O 0.83562 0.58212 0.72138 0.0
O341 O 0.8205 0.62108 0.72443 0.0
O342 O 0.87007 0.643 0.62629 0.0
O343 O 0.83013 0.649 0.6305 0.0
O344 O 0.88613 0.61129 0.69978 0.0
O345 O 0.91202 0.62451 0.63113 0.0
O346 O 0.89303 0.63901 0.50277 0.0
O347 O 0.90913 0.60033 0.50284 0.0
O348 O 0.86075 0.5787 0.60405 0.0
O349 O 0.90108 0.57475 0.5992 0.0
O350 O 0.844 0.61002 0.52364 0.0
O351 O 0.81617 0.60054 0.59173 0.0
H352 H 0.8364 0.55966 0.8154 0.0
H353 H 0.84709 0.56132 0.90974 0.0
H354 H 0.8355 0.6436 0.90892 0.0
H355 H 0.8255 0.64202 0.81453 0.0
H356 H 0.88587 0.65818 0.40911 0.0
H357 H 0.8741 0.65382 0.3158 0.0
H358 H 0.89693 0.57397 0.31943 0.0
H359 H 0.90904 0.57839 0.41252 0.0
Sm360 Sm 0.60815 0.12253 0.47438 0.0
Sm361 Sm 0.60449 0.15929 0.38459 0.0
C362 C 0.61584 0.09976 0.56757 0.0
C363 C 0.61506 0.10746 0.62417 0.0
C364 C 0.62194 0.13238 0.64054 0.0
C365 C 0.62024 0.13947 0.69414 0.0
C366 C 0.61151 0.12182 0.73252 0.0
C367 C 0.6047 0.09688 0.71584 0.0
C368 C 0.60646 0.08982 0.66232 0.0
C369 C 0.56012 0.12526 0.42754 0.0
C370 C 0.60115 0.18413 0.5012 0.0
C371 C 0.59334 0.18188 0.29261 0.0
C372 C 0.59547 0.17573 0.23535 0.0
C373 C 0.59078 0.15078 0.21616 0.0
C374 C 0.59276 0.14536 0.16183 0.0
C375 C 0.59938 0.16478 0.12534 0.0
C376 C 0.60404 0.18975 0.14481 0.0
C377 C 0.60213 0.19512 0.19918 0.0
C378 C 0.65409 0.15381 0.42246 0.0
C379 C 0.61522 0.09646 0.36103 0.0
O380 O 0.63442 0.10916 0.53847 0.0
O381 O 0.5938 0.0995 0.54272 0.0
O382 O 0.57414 0.14433 0.43915 0.0
O383 O 0.57098 0.104 0.44256 0.0
O384 O 0.61146 0.1621 0.51554 0.0
O385 O 0.59287 0.18757 0.45203 0.0
O386 O 0.5768 0.16849 0.32015 0.0
O387 O 0.61479 0.18587 0.31834 0.0
O388 O 0.6383 0.13569 0.41504 0.0
O389 O 0.64356 0.17577 0.41081 0.0
O390 O 0.6067 0.11892 0.34303 0.0
O391 O 0.6207 0.09332 0.41177 0.0
H392 H 0.62848 0.14645 0.61192 0.0
H393 H 0.62535 0.15891 0.7054 0.0
H394 H 0.59822 0.0827 0.7443 0.0
H395 H 0.601 0.07052 0.65065 0.0
H396 H 0.58544 0.13547 0.24311 0.0
H397 H 0.5887 0.12601 0.14831 0.0
H398 H 0.60948 0.20511 0.11806 0.0
H399 H 0.60587 0.2145 0.21302 0.0
Sm400 Sm 0.16257 0.40258 0.67337 0.0
Sm401 Sm 0.12572 0.3946 0.57551 0.0
C402 C 0.18177 0.42454 0.75957 0.0
C403 C 0.17897 0.42132 0.81801 0.0
C404 C 0.15987 0.435 0.84571 0.0
C405 C 0.15676 0.43186 0.90045 0.0
C406 C 0.17274 0.41504 0.92924 0.0
C407 C 0.19207 0.40158 0.90169 0.0
C408 C 0.1952 0.40475 0.84678 0.0
C409 C 0.15613 0.35029 0.66011 0.0
C410 C 0.10026 0.38734 0.69052 0.0
C411 C 0.10556 0.3826 0.48219 0.0
C412 C 0.11379 0.38481 0.42604 0.0
C413 C 0.13775 0.37547 0.40873 0.0
C414 C 0.14528 0.37826 0.35564 0.0
C415 C 0.12914 0.39064 0.31864 0.0
C416 C 0.10528 0.40016 0.33643 0.0
C417 C 0.0977 0.39717 0.38934 0.0
C418 C 0.12623 0.44279 0.62098 0.0
C419 C 0.18824 0.40453 0.55366 0.0
O420 O 0.16157 0.43325 0.7342 0.0
O421 O 0.194 0.40656 0.7331 0.0
O422 O 0.14605 0.36767 0.63157 0.0
O423 O 0.17084 0.36063 0.69578 0.0
O424 O 0.12137 0.39842 0.70967 0.0
O425 O 0.09837 0.38041 0.64015 0.0
O426 O 0.11771 0.36595 0.51218 0.0
O427 O 0.10068 0.40424 0.50672 0.0
O428 O 0.14568 0.42882 0.61205 0.0
O429 O 0.10546 0.43169 0.60367 0.0
O430 O 0.16496 0.40032 0.53464 0.0
O431 O 0.19284 0.40666 0.60541 0.0
H432 H 0.14708 0.44802 0.825 0.0
H433 H 0.14146 0.44231 0.92005 0.0
H434 H 0.20495 0.38874 0.92264 0.0
H435 H 0.2103 0.39413 0.8269 0.0
H436 H 0.15072 0.36603 0.43616 0.0
H437 H 0.16365 0.37043 0.34354 0.0
H438 H 0.09252 0.41028 0.30964 0.0
H439 H 0.07926 0.40476 0.40177 0.0
Sm440 Sm 0.39171 0.88278 0.47528 0.0
Sm441 Sm 0.39912 0.84663 0.38489 0.0
C442 C 0.38006 0.90394 0.56807 0.0
C443 C 0.38299 0.89661 0.62484 0.0
C444 C 0.3611 0.89249 0.65634 0.0
C445 C 0.36352 0.88554 0.70988 0.0
C446 C 0.38792 0.88273 0.73337 0.0
C447 C 0.40982 0.88681 0.70174 0.0
C448 C 0.40741 0.89361 0.64817 0.0
C449 C 0.44137 0.88048 0.43657 0.0
C450 C 0.40085 0.82123 0.50155 0.0
C451 C 0.41393 0.82572 0.29366 0.0
C452 C 0.41053 0.83096 0.23626 0.0
C453 C 0.43203 0.83071 0.20268 0.0
C454 C 0.42941 0.83594 0.1484 0.0
C455 C 0.40515 0.84148 0.12627 0.0
C456 C 0.38363 0.8418 0.1602 0.0
C457 C 0.38629 0.8367 0.21456 0.0
C458 C 0.34823 0.85106 0.41484 0.0
C459 C 0.38732 0.90929 0.36175 0.0
O460 O 0.36358 0.89066 0.54 0.0
O461 O 0.401 0.90933 0.54163 0.0
O462 O 0.42692 0.8614 0.44501 0.0
O463 O 0.4301 0.90157 0.45117 0.0
O464 O 0.38959 0.84289 0.51544 0.0
O465 O 0.41027 0.81843 0.45306 0.0
O466 O 0.42784 0.84228 0.32005 0.0
O467 O 0.39385 0.81788 0.32039 0.0
O468 O 0.36398 0.86948 0.41118 0.0
O469 O 0.3593 0.82945 0.40265 0.0
O470 O 0.39714 0.88725 0.34448 0.0
O471 O 0.37989 0.91181 0.41157 0.0
H472 H 0.34205 0.89473 0.63956 0.0
H473 H 0.34625 0.88283 0.73315 0.0
H474 H 0.42891 0.8845 0.7183 0.0
H475 H 0.42473 0.89647 0.62511 0.0
H476 H 0.45095 0.82658 0.21854 0.0
H477 H 0.4465 0.83597 0.12391 0.0
H478 H 0.3646 0.84571 0.14469 0.0
H479 H 0.36937 0.83724 0.23955 0.0
Sm480 Sm 0.84556 0.90025 0.64287 0.0
Sm481 Sm 0.88264 0.89757 0.73208 0.0
C482 C 0.82305 0.91033 0.55034 0.0
C483 C 0.82972 0.90881 0.49307 0.0
C484 C 0.85059 0.92255 0.47163 0.0
C485 C 0.85627 0.92102 0.41732 0.0
C486 C 0.84134 0.90564 0.38317 0.0
C487 C 0.82056 0.89187 0.4048 0.0
C488 C 0.81478 0.89351 0.459 0.0
C489 C 0.85186 0.85084 0.68118 0.0
C490 C 0.90837 0.89089 0.61855 0.0
C491 C 0.90604 0.89042 0.82474 0.0
C492 C 0.89878 0.89106 0.88164 0.0
C493 C 0.87613 0.87939 0.90019 0.0
C494 C 0.86939 0.88084 0.954 0.0
C495 C 0.88516 0.89395 0.99055 0.0
C496 C 0.9078 0.90562 0.97164 0.0
C497 C 0.9145 0.90417 0.9179 0.0
C498 C 0.8795 0.94522 0.68397 0.0
C499 C 0.82067 0.90342 0.75962 0.0
O500 O 0.83481 0.9277 0.57894 0.0
O501 O 0.82019 0.88858 0.57561 0.0
O502 O 0.86977 0.86688 0.67356 0.0
O503 O 0.82975 0.86108 0.66991 0.0
O504 O 0.88576 0.89914 0.60094 0.0
O505 O 0.9117 0.88524 0.66913 0.0
O506 O 0.89697 0.87159 0.79578 0.0
O507 O 0.90574 0.91246 0.79988 0.0
O508 O 0.86051 0.93121 0.69624 0.0
O509 O 0.90082 0.93464 0.69935 0.0
O510 O 0.84334 0.89457 0.77417 0.0
O511 O 0.81667 0.91076 0.70996 0.0
H512 H 0.86258 0.93447 0.49674 0.0
H513 H 0.87259 0.93166 0.40218 0.0
H514 H 0.80846 0.88009 0.37964 0.0
H515 H 0.79852 0.88284 0.47432 0.0
H516 H 0.86364 0.86913 0.87315 0.0
H517 H 0.85197 0.87137 0.96706 0.0
H518 H 0.92023 0.91624 0.99827 0.0
H519 H 0.93196 0.91349 0.90454 0.0
Sm520 Sm 0.89428 0.12369 0.31909 0.0
Sm521 Sm 0.89423 0.16095 0.40819 0.0
C522 C 0.88734 0.10056 0.22628 0.0
C523 C 0.88919 0.10784 0.16944 0.0
C524 C 0.87704 0.13003 0.14952 0.0
C525 C 0.87883 0.13638 0.09558 0.0
C526 C 0.893 0.12085 0.06041 0.0
C527 C 0.90543 0.09889 0.08061 0.0
C528 C 0.90346 0.09242 0.13445 0.0
C529 C 0.94069 0.12703 0.37125 0.0
C530 C 0.9011 0.18607 0.29162 0.0
C531 C 0.90204 0.18406 0.50095 0.0
C532 C 0.9021 0.17692 0.55787 0.0
C533 C 0.91333 0.1539 0.57589 0.0
C534 C 0.91296 0.14758 0.63 0.0
C535 C 0.9013 0.16408 0.6673 0.0
C536 C 0.88996 0.18701 0.64882 0.0
C537 C 0.89041 0.19334 0.59482 0.0
C538 C 0.84602 0.15409 0.36433 0.0
C539 C 0.88569 0.09807 0.43269 0.0
O540 O 0.8686 0.11075 0.25388 0.0
O541 O 0.90892 0.09938 0.25279 0.0
O542 O 0.92675 0.14606 0.35842 0.0
O543 O 0.93082 0.10563 0.3542 0.0
O544 O 0.89626 0.16259 0.2746 0.0
O545 O 0.90327 0.19106 0.34291 0.0
O546 O 0.9206 0.17498 0.47138 0.0
O547 O 0.87979 0.18371 0.47694 0.0
O548 O 0.86207 0.13642 0.37417 0.0
O549 O 0.85577 0.17635 0.37619 0.0
O550 O 0.89304 0.12089 0.45073 0.0
O551 O 0.88144 0.09446 0.3816 0.0
H552 H 0.86614 0.14251 0.17556 0.0
H553 H 0.86932 0.15362 0.08146 0.0
H554 H 0.91633 0.08642 0.05456 0.0
H555 H 0.91304 0.07526 0.14878 0.0
H556 H 0.92241 0.1408 0.54821 0.0
H557 H 0.9221 0.12989 0.64264 0.0
H558 H 0.88038 0.19998 0.67601 0.0
H559 H 0.88147 0.21109 0.58184 0.0
Sm560 Sm 0.16104 0.10418 0.62549 0.0
Sm561 Sm 0.1237 0.11248 0.72288 0.0
C562 C 0.17997 0.08229 0.53892 0.0
C563 C 0.17694 0.08551 0.48049 0.0
C564 C 0.15561 0.07494 0.45385 0.0
C565 C 0.15263 0.07802 0.39902 0.0
C566 C 0.17093 0.09165 0.36908 0.0
C567 C 0.1924 0.10202 0.3956 0.0
C568 C 0.19541 0.09891 0.45058 0.0
C569 C 0.15545 0.1565 0.64011 0.0
C570 C 0.09895 0.12067 0.60752 0.0
C571 C 0.10363 0.12457 0.81617 0.0
C572 C 0.11212 0.12253 0.87216 0.0
C573 C 0.13734 0.12879 0.8876 0.0
C574 C 0.14511 0.1261 0.94061 0.0
C575 C 0.12791 0.1169 0.97938 0.0
C576 C 0.10275 0.11045 0.96344 0.0
C577 C 0.09496 0.11331 0.91057 0.0
C578 C 0.12333 0.06467 0.67574 0.0
C579 C 0.18593 0.10107 0.74601 0.0
O580 O 0.15994 0.07355 0.56466 0.0
O581 O 0.19225 0.10031 0.56519 0.0
O582 O 0.14494 0.1391 0.66782 0.0
O583 O 0.1702 0.14614 0.60455 0.0
O584 O 0.12001 0.10939 0.58858 0.0
O585 O 0.0969 0.12741 0.65796 0.0
O586 O 0.11562 0.14121 0.78597 0.0
O587 O 0.09889 0.10283 0.79192 0.0
O588 O 0.14304 0.0781 0.68561 0.0
O589 O 0.10273 0.07607 0.69318 0.0
O590 O 0.16261 0.1057 0.76427 0.0
O591 O 0.19087 0.09911 0.69433 0.0
H592 H 0.14102 0.06436 0.47533 0.0
H593 H 0.13569 0.07003 0.38023 0.0
H594 H 0.20705 0.11233 0.37377 0.0
H595 H 0.21221 0.10702 0.46968 0.0
H596 H 0.1511 0.13574 0.85874 0.0
H597 H 0.16454 0.13152 0.95124 0.0
H598 H 0.08907 0.10279 0.99168 0.0
H599 H 0.07552 0.10807 0.89954 0.0
Sm600 Sm 0.10933 0.88053 0.32126 0.0
Sm601 Sm 0.10465 0.84598 0.416 0.0
C602 C 0.11879 0.90026 0.22592 0.0
C603 C 0.11697 0.89126 0.16977 0.0
C604 C 0.13836 0.88057 0.14364 0.0
C605 C 0.1366 0.87258 0.09052 0.0
C606 C 0.11345 0.87522 0.06198 0.0
C607 C 0.09205 0.88576 0.08833 0.0
C608 C 0.09381 0.89374 0.14129 0.0
C609 C 0.0619 0.88151 0.3704 0.0
C610 C 0.10048 0.8192 0.29769 0.0
C611 C 0.09085 0.81883 0.50028 0.0
C612 C 0.09402 0.82177 0.55871 0.0
C613 C 0.0723 0.82565 0.59088 0.0
C614 C 0.0749 0.8298 0.6456 0.0
C615 C 0.09932 0.83004 0.66982 0.0
C616 C 0.12103 0.82576 0.6376 0.0
C617 C 0.11844 0.82173 0.5828 0.0
C618 C 0.15435 0.86205 0.40006 0.0
C619 C 0.11395 0.90812 0.43433 0.0
O620 O 0.13672 0.89024 0.25604 0.0
O621 O 0.09717 0.90351 0.25137 0.0
O622 O 0.07497 0.86157 0.36056 0.0
O623 O 0.0736 0.90194 0.35316 0.0
O624 O 0.09915 0.84281 0.27925 0.0
O625 O 0.1042 0.81466 0.34899 0.0
O626 O 0.07572 0.83558 0.47719 0.0
O627 O 0.11134 0.81353 0.47201 0.0
O628 O 0.13919 0.85517 0.36303 0.0
O629 O 0.14332 0.86012 0.44591 0.0
O630 O 0.10222 0.88717 0.45217 0.0
O631 O 0.12283 0.90909 0.38519 0.0
H632 H 0.15657 0.87855 0.1641 0.0
H633 H 0.15358 0.86485 0.07148 0.0
H634 H 0.0738 0.88777 0.06807 0.0
H635 H 0.07692 0.90194 0.15985 0.0
H636 H 0.05325 0.82589 0.57349 0.0
H637 H 0.05773 0.83339 0.66871 0.0
H638 H 0.14012 0.82543 0.65473 0.0
H639 H 0.13562 0.81883 0.55933 0.0
C640 C 0.38781 0.92802 0.26949 0.0
C641 C 0.38443 0.93141 0.32435 0.0
C642 C 0.38565 0.94883 0.23392 0.0
C643 C 0.38032 0.97384 0.25353 0.0
C644 C 0.37667 0.97735 0.30881 0.0
C645 C 0.37862 0.95614 0.3434 0.0
C646 C 0.38929 0.94407 0.1753 0.0
C647 C 0.37123 0.00367 0.33163 0.0
C648 C 0.4015 0.03165 0.17093 0.0
C649 C 0.37824 0.04017 0.14889 0.0
C650 C 0.40242 0.01017 0.20487 0.0
C651 C 0.37955 0.99649 0.2166 0.0
C652 C 0.35603 0.00477 0.19368 0.0
C653 C 0.35564 0.02657 0.16034 0.0
C654 C 0.42785 1.00237 0.22892 0.0
C655 C 0.33125 0.9907 0.20467 0.0
H656 H 0.39214 0.90902 0.25416 0.0
H657 H 0.37602 0.95907 0.38563 0.0
H658 H 0.37245 0.9514 0.15285 0.0
H659 H 0.40641 0.9547 0.16098 0.0
H660 H 0.39186 0.92333 0.16603 0.0
H661 H 0.36818 0.00313 0.37524 0.0
H662 H 0.38754 0.01675 0.32301 0.0
H663 H 0.3539 0.01209 0.31269 0.0
H664 H 0.41903 0.04215 0.16251 0.0
H665 H 0.33761 0.03304 0.14335 0.0
H666 H 0.4325 0.98226 0.21777 0.0
H667 H 0.4266 0.00307 0.27285 0.0
H668 H 0.44387 0.015 0.21594 0.0
H669 H 0.33334 0.97006 0.19436 0.0
H670 H 0.31481 0.99881 0.18197 0.0
H671 H 0.32669 0.99175 0.2476 0.0
C672 C 0.92742 0.6191 0.77436 0.0
C673 C 0.93086 0.62208 0.7194 0.0
C674 C 0.94829 0.62099 0.8099 0.0
C675 C 0.97339 0.62573 0.79022 0.0
C676 C 0.97693 0.62904 0.73486 0.0
C677 C 0.9557 0.62728 0.70029 0.0
C678 C 0.94352 0.61757 0.86856 0.0
C679 C 0.0033 0.63397 0.71197 0.0
C680 C 0.02662 0.64967 0.88306 0.0
C681 C 0.03999 0.62688 0.89434 0.0
C682 C 0.00475 0.64959 0.84986 0.0
C683 C 0.99608 0.62618 0.82711 0.0
C684 C 0.00947 0.60311 0.8388 0.0
C685 C 0.03109 0.60372 0.87242 0.0
C686 C 0.99105 0.67461 0.83879 0.0
C687 C 1.00121 0.57775 0.81508 0.0
H688 H 0.90838 0.61518 0.78976 0.0
H689 H 0.95869 0.6296 0.65801 0.0
H690 H 0.95391 0.60031 0.8831 0.0
H691 H 0.95109 0.63436 0.8908 0.0
H692 H 0.92277 0.61534 0.87787 0.0
H693 H 0.00285 0.63651 0.6682 0.0
H694 H 0.01176 0.65147 0.73008 0.0
H695 H 0.01627 0.61767 0.72153 0.0
H696 H 0.03335 0.66761 0.9 0.0
H697 H 0.04136 0.58603 0.88075 0.0
H698 H 0.97045 0.67291 0.8496 0.0
H699 H 0.99191 0.67901 0.79576 0.0
H700 H 0.99955 0.69097 0.86104 0.0
H701 H 0.98101 0.57355 0.82616 0.0
H702 H 0.01351 0.56151 0.82837 0.0
H703 H 1.00199 0.57886 0.77114 0.0
C704 C 0.64674 0.97758 0.16272 0.0
C705 C 0.62367 0.96529 0.14904 0.0
C706 C 0.64684 0.99957 0.19559 0.0
C707 C 0.62332 0.00941 0.21567 0.0
C708 C 0.59999 0.99714 0.20146 0.0
C709 C 0.60045 0.97541 0.1682 0.0
C710 C 0.67213 0.0121 0.20934 0.0
C711 C 0.57448 0.00667 0.22228 0.0
C712 C 0.62247 0.04937 0.34294 0.0
C713 C 0.61852 0.07441 0.3236 0.0
C714 C 0.62458 0.0282 0.30831 0.0
C715 C 0.62295 0.03204 0.2527 0.0
C716 C 0.61963 0.05735 0.23285 0.0
C717 C 0.61732 0.07815 0.26844 0.0
C718 C 0.62789 1.00158 0.33138 0.0
C719 C 0.61808 0.06245 0.17395 0.0
H720 H 0.66475 0.96989 0.14803 0.0
H721 H 0.58252 0.966 0.15806 0.0
H722 H 0.67155 0.03284 0.19895 0.0
H723 H 0.67554 0.01078 0.25271 0.0
H724 H 0.68857 0.003 0.18842 0.0
H725 H 0.55804 0.9952 0.20707 0.0
H726 H 0.57438 0.0058 0.26628 0.0
H727 H 0.57157 0.02707 0.21088 0.0
H728 H 0.62341 0.04617 0.38539 0.0
H729 H 0.61456 0.09737 0.2529 0.0
H730 H 0.64519 0.99221 0.31441 0.0
H731 H 0.61111 0.98948 0.3207 0.0
H732 H 0.62978 1.00189 0.37529 0.0
H733 H 0.63481 0.05372 0.15343 0.0
H734 H 0.61755 0.08334 0.1647 0.0
H735 H 0.60051 0.05338 0.15746 0.0
C736 C 0.97821 0.35582 0.88072 0.0
C737 C 0.9652 0.37882 0.89196 0.0
C738 C 1.00071 0.3557 0.84938 0.0
C739 C 0.01023 0.37909 0.82798 0.0
C740 C 0.99702 0.40232 0.83915 0.0
C741 C 0.9749 0.40192 0.87125 0.0
C742 C 0.01429 0.33055 0.83911 0.0
C743 C 0.00605 0.42765 0.81653 0.0
C744 C 0.07988 0.3865 0.7814 0.0
C745 C 0.07756 0.38372 0.72614 0.0
C746 C 0.05836 0.3842 0.81508 0.0
C747 C 0.03369 0.37942 0.79316 0.0
C748 C 0.03127 0.37631 0.73748 0.0
C749 C 0.05317 0.37829 0.70483 0.0
C750 C 0.06197 0.38728 0.87418 0.0
C751 C 0.00537 0.37162 0.71213 0.0
H752 H 0.97085 0.3379 0.89659 0.0
H753 H 0.96488 0.41977 0.87938 0.0
H754 H 0.01433 0.32636 0.79595 0.0
H755 H 0.03465 0.33192 0.85197 0.0
H756 H 0.00509 0.31421 0.86017 0.0
H757 H 0.99355 0.44397 0.82853 0.0
H758 H 0.02596 0.4317 0.82989 0.0
H759 H 0.00639 0.42661 0.77255 0.0
H760 H 0.09857 0.39057 0.79849 0.0
H761 H 0.05101 0.37623 0.66228 0.0
H762 H 0.05376 0.37048 0.89536 0.0
H763 H 0.05151 0.4046 0.88814 0.0
H764 H 0.08254 0.38924 0.88537 0.0
H765 H 0.99615 0.35443 0.72987 0.0
H766 H 0.00678 0.36876 0.66854 0.0
H767 H 0.99253 0.38825 0.71988 0.0
C768 C 0.35648 0.47887 0.13472 0.0
C769 C 0.37939 0.46591 0.14687 0.0
C770 C 0.35653 0.50091 0.10199 0.0
C771 C 0.38 0.51 0.08028 0.0
C772 C 0.40315 0.49691 0.09256 0.0
C773 C 0.40257 0.47522 0.12589 0.0
C774 C 0.33146 0.51439 0.09039 0.0
C775 C 0.42855 0.50554 0.06976 0.0
C776 C 0.37964 0.55042 0.95369 0.0
C777 C 0.3848 0.57524 0.97304 0.0
C778 C 0.37761 0.52918 0.98814 0.0
C779 C 0.38047 0.53274 0.0436 0.0
C780 C 0.38513 0.55784 0.06352 0.0
C781 C 0.3874 0.57869 0.02808 0.0
C782 C 0.37304 0.50278 0.96497 0.0
C783 C 0.38806 0.56262 0.1223 0.0
H784 H 0.33852 0.4718 0.15085 0.0
H785 H 0.42035 0.46523 0.13477 0.0
H786 H 0.33286 0.53496 0.10174 0.0
H787 H 0.32739 0.51371 0.0472 0.0
H788 H 0.31505 0.50559 0.1119 0.0
H789 H 0.44483 0.49334 0.08325 0.0
H790 H 0.42774 0.50495 0.02577 0.0
H791 H 0.43249 0.52574 0.08138 0.0
H792 H 0.37768 0.54743 0.91132 0.0
H793 H 0.39128 0.59774 0.04361 0.0
H794 H 0.35575 0.49393 0.98309 0.0
H795 H 0.38959 0.49007 0.97424 0.0
H796 H 0.37041 0.5033 0.92123 0.0
H797 H 0.3711 0.55503 0.14388 0.0
H798 H 0.39021 0.58339 0.13171 0.0
H799 H 0.40519 0.55225 0.13748 0.0
C800 C 0.55341 0.62607 0.09023 0.0
C801 C 0.57797 0.62124 0.06926 0.0
C802 C 0.53164 0.62811 0.0571 0.0
C803 C 0.53439 0.6256 1.00136 0.0
C804 C 0.55924 0.62147 0.97984 0.0
C805 C 0.58062 0.6192 1.01395 0.0
C806 C 0.50555 0.6322 0.08196 0.0
C807 C 0.56321 0.61897 0.92073 0.0
C808 C 0.47651 0.60263 0.92103 0.0
C809 C 0.46664 0.62566 0.90025 0.0
C810 C 0.4984 0.60241 0.95387 0.0
C811 C 0.51112 0.62578 0.96597 0.0
C812 C 0.50139 0.64912 0.94467 0.0
C813 C 0.4792 0.6488 0.91233 0.0
C814 C 0.50774 0.5771 0.97614 0.0
C815 C 0.51442 0.67444 0.95611 0.0
H816 H 0.55102 0.6276 0.13283 0.0
H817 H 0.59946 0.61576 0.99713 0.0
H818 H 0.49604 0.64928 0.06432 0.0
H819 H 0.49307 0.61537 0.07364 0.0
H820 H 0.50672 0.63489 0.12563 0.0
H821 H 0.58387 0.6176 0.90997 0.0
H822 H 0.55325 0.60151 0.90596 0.0
H823 H 0.55467 0.63573 0.8999 0.0
H824 H 0.46685 0.58466 0.91223 0.0
H825 H 0.47169 0.66667 0.89644 0.0
H826 H 0.50776 0.57787 1.02015 0.0
H827 H 0.52781 0.57348 0.96333 0.0
H828 H 0.49563 0.56064 0.96331 0.0
H829 H 0.51427 0.67823 0.99943 0.0
H830 H 0.50493 0.69079 0.93553 0.0
H831 H 0.53483 0.67358 0.94351 0.0
C832 C 0.64919 0.52456 0.1332 0.0
C833 C 0.62648 0.53831 0.14304 0.0
C834 C 0.64903 0.50214 0.10161 0.0
C835 C 0.62567 0.4934 0.07876 0.0
C836 C 0.60272 0.50727 0.08877 0.0
C837 C 0.60338 0.52936 0.12103 0.0
C838 C 0.6739 0.48787 0.09247 0.0
C839 C 0.57744 0.499 0.06471 0.0
C840 C 0.62708 0.45113 0.95468 0.0
C841 C 0.62093 0.42674 0.97508 0.0
C842 C 0.62907 0.47282 0.98798 0.0
C843 C 0.62517 0.47015 0.04338 0.0
C844 C 0.61964 0.44546 0.06443 0.0
C845 C 0.61739 0.42416 0.0301 0.0
C846 C 0.63465 0.49876 0.96359 0.0
C847 C 0.61571 0.44158 0.12324 0.0
H848 H 0.66708 0.53133 0.15024 0.0
H849 H 0.58577 0.53995 0.12823 0.0
H850 H 0.67179 0.46749 0.10479 0.0
H851 H 0.67864 0.4879 0.04957 0.0
H852 H 0.69021 0.49651 0.11465 0.0
H853 H 0.56132 0.51185 0.07628 0.0
H854 H 0.57895 0.49891 1.02078 0.0
H855 H 0.57276 0.47911 0.07729 0.0
H856 H 0.62975 0.45347 0.91231 0.0
H857 H 0.61278 0.40544 0.04646 0.0
H858 H 0.6518 0.5075 0.98255 0.0
H859 H 0.61824 0.51195 0.97074 0.0
H860 H 0.63805 0.49753 0.92015 0.0
H861 H 0.63234 0.44939 0.14562 0.0
H862 H 0.61325 0.42098 0.1338 0.0
H863 H 0.59841 0.45229 0.13642 0.0
C864 C 0.42581 0.38644 1.02019 0.0
C865 C 0.42927 0.38405 0.07528 0.0
C866 C 0.44668 0.38446 0.98478 0.0
C867 C 0.47184 0.38021 1.00471 0.0
C868 C 0.47542 0.3774 0.06021 0.0
C869 C 0.45415 0.37925 0.09467 0.0
C870 C 0.44183 0.38729 0.92598 0.0
C871 C 0.50185 0.37301 0.08337 0.0
C872 C 0.5253 0.35626 0.91252 0.0
C873 C 0.53829 0.37914 0.90031 0.0
C874 C 0.50352 0.3563 0.94588 0.0
C875 C 0.49453 0.37977 0.96786 0.0
C876 C 0.50752 0.40294 0.95521 0.0
C877 C 0.52907 0.40235 0.92147 0.0
C878 C 0.49025 0.33119 0.95795 0.0
C879 C 0.49889 0.42837 0.97802 0.0
H880 H 0.40672 0.38992 1.00454 0.0
H881 H 0.45717 0.3774 0.13706 0.0
H882 H 0.45139 0.40495 0.91116 0.0
H883 H 0.45021 0.37077 0.90416 0.0
H884 H 0.42101 0.38852 0.91646 0.0
H885 H 0.50137 0.37039 0.12711 0.0
H886 H 0.51082 0.35576 0.06524 0.0
H887 H 0.51442 0.38964 0.07408 0.0
H888 H 0.53227 0.33827 0.89622 0.0
H889 H 0.53904 0.42011 0.91242 0.0
H890 H 0.46958 0.3325 0.94731 0.0
H891 H 0.49133 0.32715 1.00112 0.0
H892 H 0.49893 0.31477 0.93617 0.0
H893 H 0.47864 0.43222 0.96669 0.0
H894 H 0.51097 0.44466 0.96423 0.0
H895 H 0.49967 0.42763 1.022 0.0
C896 C 0.88396 0.42677 0.76333 0.0
C897 C 0.88235 0.42986 0.81862 0.0
C898 C 0.8817 0.44797 0.7287 0.0
C899 C 0.87814 0.47304 0.74968 0.0
C900 C 0.87615 0.47622 0.80541 0.0
C901 C 0.8781 0.45465 0.83904 0.0
C902 C 0.8836 0.44355 0.66962 0.0
C903 C 0.87269 0.50255 0.82971 0.0
C904 C 0.90177 0.53023 0.66829 0.0
C905 C 0.87882 0.54071 0.64845 0.0
C906 C 0.90175 0.50829 0.70097 0.0
C907 C 0.8782 0.49613 0.71382 0.0
C908 C 0.85493 0.50644 0.69336 0.0
C909 C 0.8555 0.5287 0.66123 0.0
C910 C 0.927 0.49838 0.72244 0.0
C911 C 0.82943 0.49399 0.70558 0.0
H912 H 0.88708 0.40775 0.74697 0.0
H913 H 0.87688 0.45736 0.8816 0.0
H914 H 0.86688 0.45235 0.64913 0.0
H915 H 0.90115 0.45299 0.654 0.0
H916 H 0.8844 0.42277 0.65938 0.0
H917 H 0.8707 0.50176 0.87357 0.0
H918 H 0.88944 0.51485 0.81983 0.0
H919 H 0.85539 0.51202 0.81295 0.0
H920 H 0.91989 0.53946 0.65895 0.0
H921 H 0.8377 0.53668 0.64604 0.0
H922 H 0.92999 0.47816 0.70982 0.0
H923 H 0.92663 0.49856 0.76647 0.0
H924 H 0.94363 0.51002 0.70882 0.0
H925 H 0.82985 0.47343 0.69378 0.0
H926 H 0.81321 0.5036 0.68483 0.0
H927 H 0.82579 0.49464 0.74892 0.0
C928 C 0.52694 0.10326 0.37179 0.0
C929 C 0.53657 0.12611 0.39383 0.0
C930 C 0.50516 0.10328 0.33861 0.0
C931 C 0.49227 0.12669 0.32753 0.0
C932 C 0.50178 0.14985 0.35005 0.0
C933 C 0.52392 0.14931 0.38258 0.0
C934 C 0.49612 0.07818 0.31495 0.0
C935 C 0.48854 0.17519 0.33983 0.0
C936 C 0.45008 0.12803 0.20303 0.0
C937 C 0.42559 0.12253 0.22356 0.0
C938 C 0.47178 0.12996 0.23639 0.0
C939 C 0.46902 0.12673 0.29199 0.0
C940 C 0.44421 0.12198 0.31312 0.0
C941 C 0.42291 0.11974 0.27875 0.0
C942 C 0.49784 0.13464 0.21189 0.0
C943 C 0.44019 0.11877 0.37207 0.0
H944 H 0.53668 0.08525 0.3799 0.0
H945 H 0.53125 0.16704 0.39942 0.0
H946 H 0.47611 0.07416 0.32766 0.0
H947 H 0.49603 0.07953 0.271 0.0
H948 H 0.50845 0.06169 0.32679 0.0
H949 H 0.49788 0.19137 0.3612 0.0
H950 H 0.48863 0.17949 0.29671 0.0
H951 H 0.46813 0.17403 0.35241 0.0
H952 H 0.45249 0.13012 0.16053 0.0
H953 H 0.40411 0.11567 0.29525 0.0
H954 H 0.51051 0.11784 0.21938 0.0
H955 H 0.50712 0.1516 0.23048 0.0
H956 H 0.49668 0.13786 0.16837 0.0
H957 H 0.45027 0.10122 0.38603 0.0
H958 H 0.41952 0.11713 0.38265 0.0
H959 H 0.44856 0.13534 0.39377 0.0
C960 C 0.11716 0.58073 0.76639 0.0
C961 C 0.12142 0.57846 0.82126 0.0
C962 C 0.11913 0.55926 0.73242 0.0
C963 C 0.12516 0.53472 0.75368 0.0
C964 C 0.12971 0.53236 0.80895 0.0
C965 C 0.12797 0.5542 0.84187 0.0
C966 C 0.11444 0.5628 0.67375 0.0
C967 C 0.13588 0.5066 0.83357 0.0
C968 C 0.10325 0.47524 0.67698 0.0
C969 C 0.1262 0.46657 0.6539 0.0
C970 C 0.10269 0.49725 0.70951 0.0
C971 C 0.12559 0.51134 0.71864 0.0
C972 C 0.14881 0.50284 0.69484 0.0
C973 C 0.14887 0.48047 0.66308 0.0
C974 C 0.0776 0.50522 0.73471 0.0
C975 C 0.1736 0.51736 0.70296 0.0
H976 H 0.11219 0.59932 0.74983 0.0
H977 H 0.13121 0.55208 0.88413 0.0
H978 H 0.13105 0.55536 0.65081 0.0
H979 H 0.09731 0.55158 0.66146 0.0
H980 H 0.11129 0.58329 0.66298 0.0
H981 H 0.13909 0.50794 0.87707 0.0
H982 H 0.11989 0.49295 0.82614 0.0
H983 H 0.15336 0.49836 0.81497 0.0
H984 H 0.08567 0.46451 0.67037 0.0
H985 H 0.16665 0.4739 0.64528 0.0
H986 H 0.07246 0.52501 0.72212 0.0
H987 H 0.07964 0.50546 0.77855 0.0
H988 H 0.06154 0.49211 0.72406 0.0
H989 H 0.17116 0.53768 0.69046 0.0
H990 H 0.1898 0.50881 0.68032 0.0
H991 H 0.17874 0.5175 0.74569 0.0
C992 C 0.54868 0.87892 0.20886 0.0
C993 C 0.57365 0.88346 0.22795 0.0
C994 C 0.52756 0.87718 0.24363 0.0
C995 C 0.53141 0.87968 0.29911 0.0
C996 C 0.55667 0.88356 0.31873 0.0
C997 C 0.57739 0.88561 0.283 0.0
C998 C 0.50097 0.87338 0.22081 0.0
C999 C 0.5618 0.88593 0.37752 0.0
C1000 C 0.475 0.90301 0.38306 0.0
C1001 C 0.4651 0.87997 0.40364 0.0
C1002 C 0.49652 0.90314 0.34931 0.0
C1003 C 0.50884 0.87967 0.3362 0.0
C1004 C 0.49923 0.85635 0.35769 0.0
C1005 C 0.47738 0.85676 0.39086 0.0
C1006 C 0.50576 0.92841 0.32682 0.0
C1007 C 0.51188 0.83095 0.34525 0.0
H1008 H 0.5455 0.87731 0.16648 0.0
H1009 H 0.59658 0.88893 0.29833 0.0
H1010 H 0.49165 0.8564 0.23919 0.0
H1011 H 0.48883 0.89035 0.23007 0.0
H1012 H 0.50127 0.87066 0.17709 0.0
H1013 H 0.58267 0.88715 0.38665 0.0
H1014 H 0.55223 0.90342 0.39322 0.0
H1015 H 0.55359 0.86918 0.39887 0.0
H1016 H 0.46555 0.92103 0.39244 0.0
H1017 H 0.46983 0.8389 0.4066 0.0
H1018 H 0.50491 0.92784 0.28283 0.0
H1019 H 0.52611 0.9317 0.33809 0.0
H1020 H 0.49412 0.94498 0.3409 0.0
H1021 H 0.51047 0.82696 0.3021 0.0
H1022 H 0.50294 0.81472 0.36719 0.0
H1023 H 0.53262 0.83176 0.35541 0.0
C1024 C 0.90163 0.97813 0.62798 0.0
C1025 C 0.87865 0.96836 0.64911 0.0
C1026 C 0.90172 0.99939 0.59347 0.0
C1027 C 0.87826 0.01159 0.5799 0.0
C1028 C 0.85496 1.002 0.60154 0.0
C1029 C 0.85542 0.98042 0.63565 0.0
C1030 C 0.927 0.00859 0.57097 0.0
C1031 C 0.82955 0.01448 0.5885 0.0
C1032 C 0.8842 0.08007 0.52562 0.0
C1033 C 0.8825 0.07614 0.47055 0.0
C1034 C 0.88205 0.05943 0.56165 0.0
C1035 C 0.87832 0.03407 0.54241 0.0
C1036 C 0.87623 0.03002 0.48691 0.0
C1037 C 0.87822 0.05104 0.45181 0.0
C1038 C 0.88423 0.06476 0.62039 0.0
C1039 C 0.87257 0.00333 0.46445 0.0
H1040 H 0.91968 0.96886 0.63784 0.0
H1041 H 0.8376 0.97301 0.65179 0.0
H1042 H 0.92648 0.00759 0.527 0.0
H1043 H 0.93024 0.02899 0.58194 0.0
H1044 H 0.94356 0.99701 0.58534 0.0
H1045 H 0.81325 0.00527 0.60964 0.0
H1046 H 0.83012 0.03517 0.59923 0.0
H1047 H 0.82593 0.01334 0.54517 0.0
H1048 H 0.88738 0.09932 0.54075 0.0
H1049 H 0.8769 0.04767 0.40946 0.0
H1050 H 0.90165 0.05525 0.63651 0.0
H1051 H 0.86742 0.05662 0.64162 0.0
H1052 H 0.88541 0.08567 0.62919 0.0
H1053 H 0.88944 0.99119 0.47449 0.0
H1054 H 0.87018 0.00347 0.42064 0.0
H1055 H 0.85546 0.99409 0.48244 0.0
C1056 C 0.05197 0.13017 0.59278 0.0
C1057 C 0.07634 0.12455 0.57167 0.0
C1058 C 0.0301 0.13217 0.56 0.0
C1059 C 0.03253 0.12887 0.50439 0.0
C1060 C 0.05719 0.12398 0.48263 0.0
C1061 C 0.0787 0.12167 0.51645 0.0
C1062 C 0.00419 0.13692 0.58519 0.0
C1063 C 0.06081 0.12066 0.42361 0.0
C1064 C 0.97411 0.10528 0.42667 0.0
C1065 C 0.96425 0.12809 0.40482 0.0
C1066 C 0.99611 0.10535 0.45913 0.0
C1067 C 0.00905 0.12879 0.46959 0.0
C1068 C 0.99928 0.15192 0.44737 0.0
C1069 C 0.97687 0.15134 0.41565 0.0
C1070 C 0.00539 0.08028 0.48266 0.0
C1071 C 0.01258 0.17728 0.45695 0.0
H1072 H 0.04978 0.13231 0.63531 0.0
H1073 H 0.09738 0.11744 0.49952 0.0
H1074 H 0.99478 0.15385 0.56673 0.0
H1075 H 0.99148 0.12012 0.5782 0.0
H1076 H 0.00563 0.14023 0.62864 0.0
H1077 H 0.0814 0.11887 0.41249 0.0
H1078 H 0.05056 0.10315 0.41003 0.0
H1079 H 0.05238 0.13725 0.40205 0.0
H1080 H 0.96437 0.08724 0.41892 0.0
H1081 H 0.96937 0.16902 0.39893 0.0
H1082 H 0.00584 0.08171 0.52659 0.0
H1083 H 0.02528 0.07623 0.46928 0.0
H1084 H 0.99297 0.06378 0.47139 0.0
H1085 H 0.01288 0.18162 0.50004 0.0
H1086 H 0.00301 0.19343 0.43588 0.0
H1087 H 0.03286 0.1761 0.44356 0.0
C1088 C 0.12391 0.95505 0.44964 0.0
C1089 C 0.1166 0.93097 0.46993 0.0
C1090 C 0.12577 0.97686 0.48272 0.0
C1091 C 0.12052 0.9746 0.53775 0.0
C1092 C 0.11357 0.95025 0.55859 0.0
C1093 C 0.11153 0.92885 0.52451 0.0
C1094 C 0.1329 1.00246 0.45858 0.0
C1095 C 0.10809 0.9468 0.61698 0.0
C1096 C 0.14513 0.0269 0.63212 0.0
C1097 C 0.12286 0.04148 0.64109 0.0
C1098 C 0.14468 0.0051 0.59876 0.0
C1099 C 0.12147 0.99781 0.57323 0.0
C1100 C 0.09899 0.01263 0.58201 0.0
C1101 C 0.09991 0.03408 0.61607 0.0
C1102 C 0.16904 0.98981 0.59098 0.0
C1103 C 0.07392 0.00591 0.55516 0.0
H1104 H 0.1278 0.957 0.40759 0.0
H1105 H 0.10601 0.91038 0.54082 0.0
H1106 H 0.11703 0.01643 0.46457 0.0
H1107 H 0.15014 0.01042 0.47865 0.0
H1108 H 0.13692 1.00099 0.41539 0.0
H1109 H 0.10408 0.92643 0.62743 0.0
H1110 H 0.12471 0.95355 0.64082 0.0
H1111 H 0.09126 0.95865 0.6285 0.0
H1112 H 0.1629 0.03251 0.65139 0.0
H1113 H 0.08266 0.04535 0.62248 0.0
H1114 H 0.17435 0.98959 0.54835 0.0
H1115 H 0.1659 0.96955 0.60322 0.0
H1116 H 0.18542 0.99775 0.61406 0.0
H1117 H 0.07651 0.00572 0.51146 0.0
H1118 H 0.05832 0.0197 0.5651 0.0
H1119 H 0.06775 0.98633 0.56711 0.0
C1120 C 0.02529 0.85954 0.41721 0.0
C1121 C 0.03859 0.88217 0.40451 0.0
C1122 C 0.00359 0.86006 0.45067 0.0
C1123 C 0.99513 0.88374 0.47256 0.0
C1124 C 0.00855 0.90663 0.45977 0.0
C1125 C 0.02995 0.90558 0.42569 0.0
C1126 C 0.98979 0.83524 0.46286 0.0
C1127 C 1.00056 0.93223 0.48277 0.0
C1128 C 0.92673 0.89122 0.526 0.0
C1129 C 0.93037 0.88824 0.58091 0.0
C1130 C 0.94747 0.88932 0.49027 0.0
C1131 C 0.97263 0.8846 0.50974 0.0
C1132 C 0.9764 0.88143 0.56508 0.0
C1133 C 0.95528 0.88316 0.59984 0.0
C1134 C 0.94247 0.89254 0.43162 0.0
C1135 C 0.00287 0.87665 0.58773 0.0
H1136 H 0.03186 0.84139 0.40094 0.0
H1137 H 0.04024 0.92313 0.41638 0.0
H1138 H 0.99086 0.83116 0.50602 0.0
H1139 H 0.96914 0.837 0.45238 0.0
H1140 H 0.99807 0.81863 0.44101 0.0
H1141 H 0.01296 0.94826 0.46889 0.0
H1142 H 0.98037 0.93654 0.47173 0.0
H1143 H 1.00145 0.93143 0.52674 0.0
H1144 H 0.90762 0.89507 0.51078 0.0
H1145 H 0.95842 0.88091 0.6421 0.0
H1146 H 0.94956 0.87544 0.40971 0.0
H1147 H 0.95315 0.90945 0.41644 0.0
H1148 H 0.92172 0.89519 0.42261 0.0
H1149 H 0.01139 0.85915 0.56973 0.0
H1150 H 0.00257 0.87421 0.63153 0.0
H1151 H 0.01571 0.89299 0.57787 0.0
C1152 C 0.36011 0.19661 0.11334 0.0
C1153 C 0.35267 0.18329 0.15914 0.0
C1154 C 0.36217 0.22373 0.1137 0.0
C1155 C 0.35714 0.23763 0.16117 0.0
C1156 C 0.35105 0.22395 0.20802 0.0
C1157 C 0.34867 0.19711 0.20625 0.0
C1158 C 0.36849 0.23757 0.06278 0.0
C1159 C 0.34594 0.23773 0.25974 0.0
C1160 C 0.37483 0.30861 0.17825 0.0
C1161 C 0.35093 0.32062 0.17077 0.0
C1162 C 0.37739 0.28166 0.17403 0.0
C1163 C 0.35562 0.2664 0.16139 0.0
C1164 C 0.33156 0.27856 0.15325 0.0
C1165 C 0.32949 0.30538 0.1585 0.0
C1166 C 0.40327 0.26946 0.18395 0.0
C1167 C 0.30783 0.26319 0.13954 0.0
H1168 H 0.36322 0.186 0.07689 0.0
H1169 H 0.34324 0.18689 0.24204 0.0
H1170 H 0.35138 0.2485 0.04913 0.0
H1171 H 0.38416 0.25167 0.06938 0.0
H1172 H 0.37436 0.22409 0.03079 0.0
H1173 H 0.34405 0.22421 0.29364 0.0
H1174 H 0.36167 0.25147 0.26859 0.0
H1175 H 0.32789 0.249 0.25647 0.0
H1176 H 0.39151 0.32027 0.18751 0.0
H1177 H 0.31096 0.31445 0.15231 0.0
H1178 H 0.40884 0.25728 0.1497 0.0
H1179 H 0.40217 0.25672 0.2192 0.0
H1180 H 0.41856 0.284 0.19081 0.0
H1181 H 0.3116 0.2508 0.10455 0.0
H1182 H 0.29101 0.27566 0.13073 0.0
H1183 H 0.30279 0.25036 0.17312 0.0
C1184 C 0.30574 0.67446 0.88889 0.0
C1185 C 0.32112 0.65293 0.87785 0.0
C1186 C 0.27894 0.67232 0.89409 0.0
C1187 C 0.26693 0.64809 0.88724 0.0
C1188 C 0.28233 0.62623 0.87596 0.0
C1189 C 0.30925 0.62888 0.87168 0.0
C1190 C 0.26341 0.69616 0.90627 0.0
C1191 C 0.27032 0.60015 0.86751 0.0
C1192 C 0.19702 0.64396 0.93456 0.0
C1193 C 0.18382 0.65076 0.88814 0.0
C1194 C 0.22415 0.64199 0.93471 0.0
C1195 C 0.23816 0.64644 0.88717 0.0
C1196 C 0.2246 0.65181 0.83977 0.0
C1197 C 0.19776 0.65414 0.84101 0.0
C1198 C 0.23786 0.63643 0.9862 0.0
C1199 C 0.2385 0.65629 0.78797 0.0
H1200 H 0.31468 0.69311 0.89405 0.0
H1201 H 0.32101 0.61214 0.8634 0.0
H1202 H 0.25063 0.70071 0.87226 0.0
H1203 H 0.25096 0.69279 0.94131 0.0
H1204 H 0.27576 0.71315 0.91425 0.0
H1205 H 0.28496 0.58483 0.86187 0.0
H1206 H 0.25806 0.59502 0.9019 0.0
H1207 H 0.2577 0.60068 0.832 0.0
H1208 H 0.18633 0.64138 0.97105 0.0
H1209 H 0.18763 0.65909 0.80479 0.0
H1210 H 0.24854 0.65381 0.99909 0.0
H1211 H 0.25214 0.62081 0.98071 0.0
H1212 H 0.22433 0.63083 1.01826 0.0
H1213 H 0.24964 0.67445 0.79031 0.0
H1214 H 0.22508 0.65765 0.75377 0.0
H1215 H 0.25236 0.64051 0.78027 0.0
C1216 C 0.67369 0.80483 0.14981 0.0
C1217 C 0.65227 0.82012 0.13745 0.0
C1218 C 0.67176 0.77792 0.15317 0.0
C1219 C 0.64788 0.76576 0.14319 0.0
C1220 C 0.6261 0.78109 0.13085 0.0
C1221 C 0.62853 0.80809 0.12836 0.0
C1222 C 0.69549 0.76247 0.16657 0.0
C1223 C 0.60039 0.76892 0.11918 0.0
C1224 C 0.65523 0.69742 0.09241 0.0
C1225 C 0.65079 0.68262 0.13805 0.0
C1226 C 0.65299 0.72429 0.09306 0.0
C1227 C 0.64657 0.73699 0.14091 0.0
C1228 C 0.64118 0.72211 0.18691 0.0
C1229 C 0.64313 0.695 0.18483 0.0
C1230 C 0.65852 0.73915 0.04282 0.0
C1231 C 0.63449 0.73488 0.23882 0.0
H1232 H 0.69209 0.81393 0.15721 0.0
H1233 H 0.61187 0.81978 0.11899 0.0
H1234 H 0.69151 0.74936 0.20033 0.0
H1235 H 0.70096 0.75034 0.13216 0.0
H1236 H 0.71211 0.77487 0.17708 0.0
H1237 H 0.585 0.78348 0.11344 0.0
H1238 H 0.60179 0.75704 0.08272 0.0
H1239 H 0.59477 0.7559 0.15205 0.0
H1240 H 0.66087 0.68795 0.05589 0.0
H1241 H 0.63971 0.68364 0.22018 0.0
H1242 H 0.67641 0.75049 0.04787 0.0
H1243 H 0.64274 0.75294 0.03445 0.0
H1244 H 0.66089 0.72635 1.00787 0.0
H1245 H 0.65144 0.74561 0.25382 0.0
H1246 H 0.62851 0.72075 0.26948 0.0
H1247 H 0.61877 0.74903 0.23302 0.0
C1248 C 0.80391 0.33005 0.89953 0.0
C1249 C 0.81934 0.35132 0.91222 0.0
C1250 C 0.77705 0.33224 0.8957 0.0
C1251 C 0.76505 0.35621 0.90569 0.0
C1252 C 0.7805 0.3778 0.91869 0.0
C1253 C 0.80747 0.37514 0.92148 0.0
C1254 C 0.76148 0.3087 0.88153 0.0
C1255 C 0.76849 0.40359 0.93054 0.0
C1256 C 0.69474 0.36166 0.86128 0.0
C1257 C 0.6819 0.35374 0.90732 0.0
C1258 C 0.72186 0.36352 0.86041 0.0
C1259 C 0.73628 0.3578 0.9069 0.0
C1260 C 0.72311 0.35118 0.95406 0.0
C1261 C 0.69625 0.349 0.95349 0.0
C1262 C 0.73513 0.3704 0.80917 0.0
C1263 C 0.73746 0.34533 1.00481 0.0
H1264 H 0.81286 0.31158 0.89199 0.0
H1265 H 0.81927 0.39168 0.93111 0.0
H1266 H 0.74906 0.30325 0.91546 0.0
H1267 H 0.74868 0.31293 0.84738 0.0
H1268 H 0.7738 0.29197 0.87123 0.0
H1269 H 0.78313 0.41877 0.93742 0.0
H1270 H 0.7559 0.4096 0.89723 0.0
H1271 H 0.7562 0.40207 0.96637 0.0
H1272 H 0.68373 0.36533 0.82553 0.0
H1273 H 0.68641 0.34318 0.98946 0.0
H1274 H 0.74588 0.35344 0.79425 0.0
H1275 H 0.74931 0.38599 0.81586 0.0
H1276 H 0.72131 0.37665 0.77808 0.0
H1277 H 0.74863 0.3273 1.00002 0.0
H1278 H 0.72433 0.34301 0.03922 0.0
H1279 H 0.75134 0.36091 1.01388 0.0
C1280 C 0.84022 0.70431 0.59561 0.0
C1281 C 0.85605 0.68724 0.62354 0.0
C1282 C 0.84168 0.73104 0.60432 0.0
C1283 C 0.85856 0.74086 0.64369 0.0
C1284 C 0.87473 0.72359 0.67174 0.0
C1285 C 0.87361 0.69706 0.66065 0.0
C1286 C 0.82476 0.74872 0.57207 0.0
C1287 C 0.89233 0.73297 0.71528 0.0
C1288 C 0.87465 0.81261 0.64317 0.0
C1289 C 0.85562 0.82264 0.67673 0.0
C1290 C 0.87597 0.78606 0.63226 0.0
C1291 C 0.85841 0.76899 0.65694 0.0
C1292 C 0.83996 0.77901 0.69289 0.0
C1293 C 0.83845 0.80574 0.70144 0.0
C1294 C 0.89536 0.77646 0.59236 0.0
C1295 C 0.82146 0.76153 0.72161 0.0
H1296 H 0.82656 0.69671 0.56713 0.0
H1297 H 0.88554 0.68383 0.68304 0.0
H1298 H 0.81007 0.75766 0.59809 0.0
H1299 H 0.83637 0.76451 0.55472 0.0
H1300 H 0.81473 0.73841 0.53946 0.0
H1301 H 0.90426 0.71725 0.73221 0.0
H1302 H 0.90525 0.74824 0.70012 0.0
H1303 H 0.8807 0.74158 0.74764 0.0
H1304 H 0.88771 0.82568 0.62327 0.0
H1305 H 0.82368 0.81348 0.72724 0.0
H1306 H 0.88516 0.76795 0.55787 0.0
H1307 H 0.90739 0.76106 0.61001 0.0
H1308 H 0.90816 0.79204 0.57785 0.0
H1309 H 0.80793 0.75277 0.69279 0.0
H1310 H 0.81011 0.77196 0.75213 0.0
H1311 H 0.83207 0.7456 0.74115 0.0
C1312 C 0.80101 0.1662 0.34002 0.0
C1313 C 0.81786 0.15012 0.36794 0.0
C1314 C 0.77425 0.16479 0.34794 0.0
C1315 C 0.76414 0.14766 0.38648 0.0
C1316 C 0.78116 0.13119 0.41443 0.0
C1317 C 0.80775 0.13231 0.40415 0.0
C1318 C 0.75683 0.18204 0.31581 0.0
C1319 C 0.77146 0.11329 0.4571 0.0
C1320 C 0.69905 0.1674 0.4435 0.0
C1321 C 0.68229 0.15034 0.41798 0.0
C1322 C 0.72579 0.16598 0.43535 0.0
C1323 C 0.73596 0.1478 0.39897 0.0
C1324 C 0.71901 0.13042 0.37332 0.0
C1325 C 0.69246 0.13161 0.38386 0.0
C1326 C 0.74312 0.18426 0.46511 0.0
C1327 C 0.72878 0.11134 0.33292 0.0
H1328 H 0.80883 0.18008 0.31225 0.0
H1329 H 0.82078 0.12018 0.42657 0.0
H1330 H 0.74108 0.17062 0.29771 0.0
H1331 H 0.74784 0.19659 0.34208 0.0
H1332 H 0.76736 0.19224 0.28377 0.0
H1333 H 0.78702 0.10115 0.47402 0.0
H1334 H 0.76272 0.12471 0.48963 0.0
H1335 H 0.75624 0.10054 0.44108 0.0
H1336 H 0.69119 0.18193 0.46972 0.0
H1337 H 0.67948 0.11866 0.36333 0.0
H1338 H 0.7521 0.19795 0.43693 0.0
H1339 H 0.75889 0.17347 0.48478 0.0
H1340 H 0.73255 0.19545 0.49565 0.0
H1341 H 0.73759 0.12182 0.29914 0.0
H1342 H 0.71324 0.09877 0.31736 0.0
H1343 H 0.74397 0.09905 0.35057 0.0
C1344 C 0.16607 0.30608 0.69125 0.0
C1345 C 0.15207 0.32204 0.65672 0.0
C1346 C 0.16345 0.27925 0.69004 0.0
C1347 C 0.14628 0.26777 0.65352 0.0
C1348 C 0.13147 0.28378 0.61943 0.0
C1349 C 0.13461 0.31077 0.62132 0.0
C1350 C 0.17991 0.26314 0.72668 0.0
C1351 C 0.11281 0.27232 0.5802 0.0
C1352 C 0.16663 0.20073 0.61119 0.0
C1353 C 0.15177 0.18479 0.64401 0.0
C1354 C 0.16421 0.22758 0.61253 0.0
C1355 C 0.14631 0.2391 0.64745 0.0
C1356 C 0.1307 0.22312 0.67992 0.0
C1357 C 0.13367 0.19609 0.67798 0.0
C1358 C 0.18155 0.24365 0.57769 0.0
C1359 C 0.11126 0.23463 0.71739 0.0
H1360 H 0.17949 0.31454 0.71898 0.0
H1361 H 0.12352 0.32304 0.59489 0.0
H1362 H 0.16778 0.24955 0.74952 0.0
H1363 H 0.1936 0.2515 0.70294 0.0
H1364 H 0.19108 0.27505 0.75511 0.0
H1365 H 0.10085 0.28726 0.5605 0.0
H1366 H 0.12353 0.2616 0.54924 0.0
H1367 H 0.09997 0.25838 0.60036 0.0
H1368 H 0.1806 0.19221 0.58457 0.0
H1369 H 0.12193 0.18388 0.703 0.0
H1370 H 0.19466 0.25527 0.60284 0.0
H1371 H 0.16999 0.25724 0.55357 0.0
H1372 H 0.19339 0.23171 0.55049 0.0
H1373 H 0.12133 0.24541 0.7492 0.0
H1374 H 0.09893 0.21973 0.73609 0.0
H1375 H 0.09882 0.24853 0.69599 0.0
C1376 C 0.30367 0.83304 0.41722 0.0
C1377 C 0.31991 0.85437 0.4116 0.0
C1378 C 0.27687 0.83543 0.41151 0.0
C1379 C 0.26596 0.85969 0.399 0.0
C1380 C 0.28233 0.88126 0.39271 0.0
C1381 C 0.30906 0.8784 0.39959 0.0
C1382 C 0.26018 0.81202 0.41972 0.0
C1383 C 0.2716 0.90739 0.37882 0.0
C1384 C 0.19628 0.85881 0.34944 0.0
C1385 C 0.18281 0.86408 0.39636 0.0
C1386 C 0.22344 0.85819 0.34904 0.0
C1387 C 0.23734 0.86273 0.39671 0.0
C1388 C 0.22372 0.86892 0.44356 0.0
C1389 C 0.19678 0.8697 0.44266 0.0
C1390 C 0.23725 0.85197 0.29803 0.0
C1391 C 0.23754 0.87374 0.49538 0.0
H1392 H 0.31195 0.81442 0.42638 0.0
H1393 H 0.32152 0.89493 0.39459 0.0
H1394 H 0.24691 0.81535 0.45349 0.0
H1395 H 0.24818 0.80856 0.38401 0.0
H1396 H 0.27164 0.79444 0.42798 0.0
H1397 H 0.28696 0.92183 0.37187 0.0
H1398 H 0.25949 0.90603 0.34265 0.0
H1399 H 0.25909 0.91436 0.41142 0.0
H1400 H 0.18564 0.85453 0.31351 0.0
H1401 H 0.18657 0.87404 0.47907 0.0
H1402 H 0.24694 0.83304 0.30171 0.0
H1403 H 0.25238 0.8665 0.29013 0.0
H1404 H 0.22396 0.85128 0.26354 0.0
H1405 H 0.24808 0.85614 0.50756 0.0
H1406 H 0.22418 0.87923 0.52783 0.0
H1407 H 0.25195 0.88927 0.49051 0.0
C1408 C 0.22908 0.11257 0.78626 0.0
C1409 C 0.20652 0.0978 0.78705 0.0
C1410 C 0.24625 0.11267 0.83001 0.0
C1411 C 0.24127 0.09698 0.87516 0.0
C1412 C 0.21896 0.0813 0.87496 0.0
C1413 C 0.20172 0.08234 0.83171 0.0
C1414 C 0.26924 0.13034 0.82876 0.0
C1415 C 0.21315 0.06346 0.92066 0.0
C1416 C 0.29894 0.08169 0.96508 0.0
C1417 C 0.2945 0.09725 1.00975 0.0
C1418 C 0.28149 0.08081 0.92219 0.0
C1419 C 0.25936 0.09677 0.92231 0.0
C1420 C 0.25465 0.11243 0.96763 0.0
C1421 C 0.27203 0.11219 1.01103 0.0
C1422 C 0.28697 0.06289 0.87643 0.0
C1423 C 0.23186 0.13037 0.9693 0.0
H1424 H 0.23264 0.12504 0.75259 0.0
H1425 H 0.18421 0.07105 0.83294 0.0
H1426 H 0.26861 0.14356 0.86334 0.0
H1427 H 0.28724 0.11904 0.83198 0.0
H1428 H 0.27003 0.14197 0.79182 0.0
H1429 H 0.19625 0.05101 0.91263 0.0
H1430 H 0.23004 0.05102 0.92895 0.0
H1431 H 0.20928 0.07477 0.95708 0.0
H1432 H 0.31635 0.07024 0.96351 0.0
H1433 H 0.26873 0.12471 0.04473 0.0
H1434 H 0.29173 0.0742 0.84046 0.0
H1435 H 0.2697 0.05121 0.86713 0.0
H1436 H 0.30328 0.04971 0.88495 0.0
H1437 H 0.23354 0.14473 0.9369 0.0
H1438 H 0.23034 0.1407 1.00776 0.0
H1439 H 0.21378 0.11959 0.96252 0.0
C1440 C 0.08585 0.70334 0.08427 0.0
C1441 C 0.09872 0.70925 0.03674 0.0
C1442 C 0.08515 0.72065 0.12729 0.0
C1443 C 0.09833 0.74444 0.12398 0.0
C1444 C 0.11129 0.75065 0.07589 0.0
C1445 C 0.11101 0.73318 0.03265 0.0
C1446 C 0.07007 0.71348 0.17629 0.0
C1447 C 0.12618 0.77542 0.07071 0.0
C1448 C 0.08032 0.80035 0.21615 0.0
C1449 C 0.09817 0.798 0.25777 0.0
C1450 C 0.07976 0.78282 0.17344 0.0
C1451 C 0.09822 0.76279 0.17059 0.0
C1452 C 0.11623 0.76017 0.21281 0.0
C1453 C 0.11574 0.77752 0.25619 0.0
C1454 C 0.05946 0.78593 0.13108 0.0
C1455 C 0.1366 0.7395 0.21131 0.0
H1456 H 0.07631 0.68489 0.08793 0.0
H1457 H 0.1214 0.73775 0.9966 0.0
H1458 H 0.08259 0.71404 0.21188 0.0
H1459 H 0.05446 0.7277 0.18266 0.0
H1460 H 0.06141 0.69401 0.17328 0.0
H1461 H 0.113 0.7921 0.07423 0.0
H1462 H 0.14042 0.77696 0.10339 0.0
H1463 H 0.13645 0.77681 0.0322 0.0
H1464 H 0.06676 0.8162 0.21682 0.0
H1465 H 0.12993 0.77583 0.28752 0.0
H1466 H 0.04929 0.76743 0.1246 0.0
H1467 H 0.06858 0.79137 0.09297 0.0
H1468 H 0.04507 0.80089 0.14153 0.0
H1469 H 0.1275 0.72022 0.21105 0.0
H1470 H 0.14988 0.74062 0.24577 0.0
H1471 H 0.14797 0.74123 0.17422 0.0
C1472 C 0.72587 0.91934 1.01483 0.0
C1473 C 0.70447 0.90306 1.00964 0.0
C1474 C 0.74459 0.92118 0.97407 0.0
C1475 C 0.74224 0.90606 0.92724 0.0
C1476 C 0.7208 0.88945 0.92227 0.0
C1477 C 0.70227 0.88833 0.96293 0.0
C1478 C 0.76688 0.93941 0.98106 0.0
C1479 C 0.71758 0.87238 0.87419 0.0
C1480 C 0.77867 0.92085 0.79749 0.0
C1481 C 0.79994 0.90429 0.80113 0.0
C1482 C 0.76019 0.92226 0.83878 0.0
C1483 C 0.76265 0.90639 0.88452 0.0
C1484 C 0.78397 0.8895 0.88793 0.0
C1485 C 0.80226 0.88882 0.84674 0.0
C1486 C 0.73807 0.94085 0.8336 0.0
C1487 C 0.78738 0.87177 0.93491 0.0
H1488 H 0.72779 0.93095 0.05032 0.0
H1489 H 0.686 0.87553 0.95812 0.0
H1490 H 0.78508 0.92836 0.98399 0.0
H1491 H 0.76851 0.95221 0.94598 0.0
H1492 H 0.76489 0.95145 1.01725 0.0
H1493 H 0.69979 0.86061 0.87607 0.0
H1494 H 0.71694 0.88421 0.83759 0.0
H1495 H 0.73432 0.85926 0.87069 0.0
H1496 H 0.77671 0.93308 0.76289 0.0
H1497 H 0.81838 0.87574 0.8501 0.0
H1498 H 0.73731 0.95358 0.86892 0.0
H1499 H 0.71965 0.93015 0.83205 0.0
H1500 H 0.73961 0.95296 0.79742 0.0
H1501 H 0.78949 0.8832 0.9718 0.0
H1502 H 0.80449 0.85914 0.9308 0.0
H1503 H 0.7701 0.85948 0.93966 0.0
C1504 C 0.88944 0.27592 0.03222 0.0
C1505 C 0.90523 0.29777 0.03375 0.0
C1506 C 0.88904 0.25811 0.07475 0.0
C1507 C 0.90549 0.26166 0.1193 0.0
C1508 C 0.92215 0.28327 0.11982 0.0
C1509 C 0.92134 0.30128 0.07788 0.0
C1510 C 0.87027 0.23601 0.07291 0.0
C1511 C 0.94078 0.28754 0.16492 0.0
C1512 C 0.89011 0.22981 0.25374 0.0
C1513 C 0.90395 0.20669 0.25062 0.0
C1514 C 0.89018 0.24768 0.21128 0.0
C1515 C 0.90525 0.24289 0.16522 0.0
C1516 C 0.92002 0.21996 0.16305 0.0
C1517 C 0.9187 0.20199 0.20497 0.0
C1518 C 0.87336 0.27127 0.21493 0.0
C1519 C 0.93723 0.21429 0.11629 0.0
H1520 H 0.87647 0.27343 0.99891 0.0
H1521 H 0.93335 0.3183 0.07965 0.0
H1522 H 0.88071 0.21744 0.07455 0.0
H1523 H 0.85746 0.23679 0.10809 0.0
H1524 H 0.85823 0.23631 0.03648 0.0
H1525 H 0.9542 0.30368 0.15688 0.0
H1526 H 0.93009 0.29189 0.20187 0.0
H1527 H 0.95217 0.26982 0.17218 0.0
H1528 H 0.87827 0.23336 0.28835 0.0
H1529 H 0.92936 0.18411 0.20209 0.0
H1530 H 0.85982 0.27172 0.18087 0.0
H1531 H 0.88527 0.2889 0.21259 0.0
H1532 H 0.86211 0.27185 0.25236 0.0
H1533 H 0.92543 0.21104 0.08027 0.0
H1534 H 0.9494 0.19702 0.12294 0.0
H1535 H 0.94992 0.23099 0.10821 0.0
C1536 C 0.27469 0.39474 0.28933 0.0
C1537 C 0.29861 0.40701 0.29376 0.0
C1538 C 0.25705 0.39456 0.33221 0.0
C1539 C 0.26304 0.40766 0.38026 0.0
C1540 C 0.28681 0.42092 0.38382 0.0
C1541 C 0.3044 0.41992 0.34128 0.0
C1542 C 0.23253 0.37928 0.32694 0.0
C1543 C 0.29385 0.43606 0.43283 0.0
C1544 C 0.20655 0.42484 0.47181 0.0
C1545 C 0.20927 0.40718 0.51363 0.0
C1546 C 0.22418 0.42566 0.42926 0.0
C1547 C 0.2446 0.40758 0.42674 0.0
C1548 C 0.24738 0.38961 0.46894 0.0
C1549 C 0.22997 0.38989 0.51216 0.0
C1550 C 0.22077 0.44579 0.38668 0.0
C1551 C 0.26819 0.36938 0.46745 0.0
H1552 H 0.27029 0.38421 0.25332 0.0
H1553 H 0.32292 0.42929 0.34524 0.0
H1554 H 0.23302 0.36287 0.35511 0.0
H1555 H 0.21566 0.39124 0.33755 0.0
H1556 H 0.22975 0.37165 0.28616 0.0
H1557 H 0.31159 0.44762 0.42713 0.0
H1558 H 0.2779 0.4492 0.44391 0.0
H1559 H 0.29701 0.42279 0.46665 0.0
H1560 H 0.1904 0.43803 0.47227 0.0
H1561 H 0.23181 0.37575 0.54354 0.0
H1562 H 0.21564 0.43645 0.34855 0.0
H1563 H 0.23907 0.45633 0.3804 0.0
H1564 H 0.20548 0.45989 0.39679 0.0
H1565 H 0.26635 0.35782 0.43061 0.0
H1566 H 0.26733 0.35624 0.50216 0.0
H1567 H 0.28739 0.37861 0.46663 0.0
C1568 C 0.39707 0.70014 0.70035 0.0
C1569 C 0.40474 0.7057 0.75279 0.0
C1570 C 0.3978 0.71875 0.65975 0.0
C1571 C 0.40668 0.74391 0.67082 0.0
C1572 C 0.41489 0.74972 0.72337 0.0
C1573 C 0.41376 0.73064 0.76366 0.0
C1574 C 0.38845 0.71155 0.60495 0.0
C1575 C 0.42471 0.77618 0.73714 0.0
C1576 C 0.42421 0.78472 0.54828 0.0
C1577 C 0.40241 0.80041 0.54258 0.0
C1578 C 0.42634 0.76699 0.59084 0.0
C1579 C 0.40587 0.76421 0.62781 0.0
C1580 C 0.38367 0.77974 0.62139 0.0
C1581 C 0.38242 0.79779 0.57969 0.0
C1582 C 0.45063 0.7514 0.59661 0.0
C1583 C 0.36094 0.77707 0.65821 0.0
H1584 H 0.39012 0.68108 0.69072 0.0
H1585 H 0.41984 0.73532 0.80365 0.0
H1586 H 0.37213 0.72412 0.59336 0.0
H1587 H 0.40395 0.7145 0.57541 0.0
H1588 H 0.38206 0.69125 0.60271 0.0
H1589 H 0.43213 0.77724 0.77844 0.0
H1590 H 0.4403 0.78177 0.70941 0.0
H1591 H 0.40904 0.79048 0.7326 0.0
H1592 H 0.43996 0.7869 0.52051 0.0
H1593 H 0.36549 0.80982 0.57578 0.0
H1594 H 0.44626 0.73065 0.59192 0.0
H1595 H 0.45876 0.75404 0.63698 0.0
H1596 H 0.46542 0.75686 0.56691 0.0
H1597 H 0.35353 0.75708 0.65679 0.0
H1598 H 0.34504 0.79042 0.64781 0.0
H1599 H 0.36694 0.78092 0.6997 0.0
C1600 C 0.73374 0.60989 0.27571 0.0
C1601 C 0.70976 0.59793 0.28207 0.0
C1602 C 0.75185 0.61063 0.31779 0.0
C1603 C 0.74624 0.59844 0.36703 0.0
C1604 C 0.72244 0.58547 0.3726 0.0
C1605 C 0.70447 0.58576 0.33068 0.0
C1606 C 0.77658 0.62532 0.31021 0.0
C1607 C 0.71572 0.57142 0.42317 0.0
C1608 C 0.80272 0.58252 0.45981 0.0
C1609 C 0.8002 0.60108 0.49991 0.0
C1610 C 0.78509 0.5811 0.41723 0.0
C1611 C 0.76496 0.59943 0.41296 0.0
C1612 C 0.76249 0.61838 0.45337 0.0
C1613 C 0.77987 0.61873 0.49662 0.0
C1614 C 0.78805 0.5599 0.37677 0.0
C1615 C 0.74189 0.63877 0.45012 0.0
H1616 H 0.73785 0.61973 0.23876 0.0
H1617 H 0.68599 0.57649 0.33615 0.0
H1618 H 0.77801 0.64077 0.34047 0.0
H1619 H 0.79331 0.6124 0.31601 0.0
H1620 H 0.77795 0.63413 0.27015 0.0
H1621 H 0.69763 0.56023 0.41942 0.0
H1622 H 0.7315 0.5581 0.43439 0.0
H1623 H 0.71339 0.58538 0.45608 0.0
H1624 H 0.8186 0.56904 0.46178 0.0
H1625 H 0.77821 0.63351 0.52678 0.0
H1626 H 0.7926 0.56823 0.33739 0.0
H1627 H 0.76972 0.54917 0.37269 0.0
H1628 H 0.80352 0.54612 0.38762 0.0
H1629 H 0.74344 0.64922 0.41184 0.0
H1630 H 0.74325 0.65289 0.48309 0.0
H1631 H 0.7226 0.62975 0.45127 0.0
C1632 C 0.57616 0.21523 0.55842 0.0
C1633 C 0.59977 0.20484 0.54217 0.0
C1634 C 0.5746 0.23206 0.60253 0.0
C1635 C 0.59727 0.23937 0.63027 0.0
C1636 C 0.62118 0.2292 0.6131 0.0
C1637 C 0.62204 0.21175 0.57022 0.0
C1638 C 0.54862 0.24173 0.62001 0.0
C1639 C 0.646 0.23692 0.63977 0.0
C1640 C 0.59849 0.30372 0.70388 0.0
C1641 C 0.59751 0.29657 0.75787 0.0
C1642 C 0.59805 0.28546 0.66265 0.0
C1643 C 0.59634 0.25893 0.67471 0.0
C1644 C 0.5948 0.25139 0.72896 0.0
C1645 C 0.59542 0.27023 0.7698 0.0
C1646 C 0.60002 0.29467 0.6059 0.0
C1647 C 0.59283 0.22336 0.74388 0.0
H1648 H 0.55879 0.20942 0.5379 0.0
H1649 H 0.6403 0.20348 0.55836 0.0
H1650 H 0.5455 0.23699 0.66246 0.0
H1651 H 0.5478 0.26297 0.61632 0.0
H1652 H 0.53271 0.23331 0.59627 0.0
H1653 H 0.66302 0.2276 0.62138 0.0
H1654 H 0.64844 0.25809 0.63748 0.0
H1655 H 0.64542 0.23168 0.68241 0.0
H1656 H 0.59995 0.32386 0.69334 0.0
H1657 H 0.59466 0.26429 0.81099 0.0
H1658 H 0.58285 0.28852 0.58312 0.0
H1659 H 0.61706 0.2859 0.58654 0.0
H1660 H 0.6017 0.31591 0.60301 0.0
H1661 H 0.57643 0.21433 0.72275 0.0
H1662 H 0.59024 0.22059 0.78727 0.0
H1663 H 0.61048 0.21305 0.73139 0.0
C1664 C 0.32059 0.08714 0.51988 0.0
C1665 C 0.33847 0.09545 0.48183 0.0
C1666 C 0.32525 0.09023 0.57456 0.0
C1667 C 0.3484 0.1019 0.59189 0.0
C1668 C 0.3665 0.11037 0.55372 0.0
C1669 C 0.36134 0.10705 0.49934 0.0
C1670 C 0.30538 0.08102 0.61383 0.0
C1671 C 0.39146 0.1228 0.57035 0.0
C1672 C 0.35282 0.13106 0.73063 0.0
C1673 C 0.3659 0.11179 0.75885 0.0
C1674 C 0.34659 0.12791 0.67665 0.0
C1675 C 0.35385 0.10506 0.64988 0.0
C1676 C 0.36685 0.08545 0.67831 0.0
C1677 C 0.37259 0.08899 0.73241 0.0
C1678 C 0.33241 0.14915 0.64812 0.0
C1679 C 0.37512 0.06088 0.65134 0.0
H1680 H 0.30273 0.07845 0.50688 0.0
H1681 H 0.37548 0.11318 0.47045 0.0
H1682 H 0.31394 0.06633 0.64046 0.0
H1683 H 0.29899 0.09726 0.63917 0.0
H1684 H 0.28828 0.07255 0.59403 0.0
H1685 H 0.40344 0.1285 0.53583 0.0
H1686 H 0.38749 0.14016 0.59461 0.0
H1687 H 0.40268 0.10933 0.59547 0.0
H1688 H 0.34731 0.14859 0.75095 0.0
H1689 H 0.3829 0.07412 0.75379 0.0
H1690 H 0.31447 0.14154 0.63025 0.0
H1691 H 0.3444 0.15668 0.61523 0.0
H1692 H 0.32739 0.16535 0.67493 0.0
H1693 H 0.35823 0.05118 0.6334 0.0
H1694 H 0.38462 0.0473 0.67918 0.0
H1695 H 0.38868 0.06534 0.61865 0.0
C1696 C 0.07473 0.66076 0.52884 0.0
C1697 C 0.095 0.66987 0.56053 0.0
C1698 C 0.07816 0.65587 0.47439 0.0
C1699 C 0.10246 0.66018 0.4507 0.0
C1700 C 0.12283 0.66999 0.48211 0.0
C1701 C 0.11887 0.6747 0.53653 0.0
C1702 C 0.05587 0.64554 0.44245 0.0
C1703 C 0.14904 0.67488 0.45852 0.0
C1704 C 0.11858 0.62103 0.32726 0.0
C1705 C 0.11362 0.63854 0.28601 0.0
C1706 C 0.11517 0.62789 0.38075 0.0
C1707 C 0.10689 0.65306 0.39386 0.0
C1708 C 0.10236 0.67106 0.35264 0.0
C1709 C 0.10563 0.66356 0.29935 0.0
C1710 C 0.12022 0.60807 0.42332 0.0
C1711 C 0.09371 0.69815 0.36474 0.0
H1712 H 0.05609 0.65737 0.54669 0.0
H1713 H 0.13473 0.68151 0.56063 0.0
H1714 H 0.05227 0.65801 0.4075 0.0
H1715 H 0.06063 0.62607 0.42729 0.0
H1716 H 0.03792 0.64428 0.46615 0.0
H1717 H 0.16238 0.68402 0.48733 0.0
H1718 H 0.15759 0.65645 0.44509 0.0
H1719 H 0.14734 0.68748 0.42316 0.0
H1720 H 0.12532 0.60185 0.31781 0.0
H1721 H 0.10142 0.67723 0.26808 0.0
H1722 H 0.10246 0.60471 0.44666 0.0
H1723 H 0.13508 0.61522 0.45125 0.0
H1724 H 0.12677 0.5894 0.40667 0.0
H1725 H 0.07452 0.69772 0.38386 0.0
H1726 H 0.09252 0.71027 0.32849 0.0
H1727 H 0.10717 0.70734 0.39315 0.0
C1728 C 0.63122 0.8925 0.50033 0.0
C1729 C 0.65435 0.90371 0.48329 0.0
C1730 C 0.6256 0.88967 0.55466 0.0
C1731 C 0.64345 0.89834 0.59322 0.0
C1732 C 0.6668 0.90971 0.57637 0.0
C1733 C 0.67198 0.91219 0.5218 0.0
C1734 C 0.60048 0.87746 0.57081 0.0
C1735 C 0.68638 0.91923 0.61604 0.0
C1736 C 0.61948 0.91277 0.73321 0.0
C1737 C 0.62662 0.89046 0.76095 0.0
C1738 C 0.62476 0.91555 0.67874 0.0
C1739 C 0.63768 0.89562 0.65116 0.0
C1740 C 0.6451 0.87313 0.67902 0.0
C1741 C 0.63941 0.87078 0.73341 0.0
C1742 C 0.61637 0.93979 0.65062 0.0
C1743 C 0.65912 0.85152 0.65137 0.0
H1744 H 0.61726 0.88621 0.47114 0.0
H1745 H 0.69008 0.9205 0.50931 0.0
H1746 H 0.60421 0.86025 0.59569 0.0
H1747 H 0.58914 0.89114 0.59518 0.0
H1748 H 0.5887 0.87158 0.53605 0.0
H1749 H 0.70355 0.9277 0.59658 0.0
H1750 H 0.67759 0.93399 0.64213 0.0
H1751 H 0.69271 0.90314 0.64186 0.0
H1752 H 0.60934 0.92795 0.75398 0.0
H1753 H 0.64526 0.85361 0.75463 0.0
H1754 H 0.60311 0.93492 0.61762 0.0
H1755 H 0.63329 0.94953 0.63293 0.0
H1756 H 0.60653 0.95349 0.67766 0.0
H1757 H 0.64728 0.84408 0.6181 0.0
H1758 H 0.66365 0.83534 0.67861 0.0
H1759 H 0.67733 0.85878 0.6341 0.0
C1760 C 0.91621 0.37911 0.3089 0.0
C1761 C 0.89239 0.3764 0.28335 0.0
C1762 C 0.91898 0.37379 0.36334 0.0
C1763 C 0.89747 0.3653 0.393 0.0
C1764 C 0.87344 0.36223 0.36726 0.0
C1765 C 0.87117 0.36792 0.31289 0.0
C1766 C 0.9449 0.37747 0.38926 0.0
C1767 C 0.8501 0.35294 0.39719 0.0
C1768 C 0.9089 0.32957 0.523 0.0
C1769 C 0.90445 0.34886 0.56097 0.0
C1770 C 0.90686 0.33468 0.46836 0.0
C1771 C 0.90006 0.35968 0.45095 0.0
C1772 C 0.89557 0.37925 0.48896 0.0
C1773 C 0.89786 0.37364 0.54338 0.0
C1774 C 0.91178 0.31324 0.42922 0.0
C1775 C 0.88832 0.40617 0.47214 0.0
H1776 H 0.93263 0.3859 0.28646 0.0
H1777 H 0.85278 0.36548 0.29328 0.0
H1778 H 0.94337 0.39181 0.4217 0.0
H1779 H 0.95143 0.35914 0.40735 0.0
H1780 H 0.95974 0.38408 0.36068 0.0
H1781 H 0.83287 0.35132 0.37131 0.0
H1782 H 0.85405 0.33386 0.41513 0.0
H1783 H 0.84567 0.36638 0.43015 0.0
H1784 H 0.9136 0.31027 0.53602 0.0
H1785 H 0.89473 0.38879 0.5722 0.0
H1786 H 0.92742 0.31879 0.40162 0.0
H1787 H 0.89432 0.30983 0.4049 0.0
H1788 H 0.91721 0.29496 0.44909 0.0
H1789 H 0.90351 0.41429 0.44622 0.0
H1790 H 0.88553 0.41924 0.50655 0.0
H1791 H 0.87028 0.40571 0.44864 0.0
C1792 C 0.38539 0.41667 0.57097 0.0
C1793 C 0.37633 0.39559 0.54161 0.0
C1794 C 0.37968 0.41936 0.62527 0.0
C1795 C 0.36471 0.40039 0.6512 0.0
C1796 C 0.35543 0.37911 0.62174 0.0
C1797 C 0.36123 0.37703 0.56737 0.0
C1798 C 0.38966 0.44253 0.6549 0.0
C1799 C 0.33958 0.35835 0.64783 0.0
C1800 C 0.37005 0.39452 0.80183 0.0
C1801 C 0.34752 0.40685 0.81903 0.0
C1802 C 0.37586 0.39228 0.74748 0.0
C1803 C 0.35886 0.40276 0.70916 0.0
C1804 C 0.33622 0.41544 0.72627 0.0
C1805 C 0.3308 0.41726 0.78085 0.0
C1806 C 0.40009 0.37843 0.73103 0.0
C1807 C 0.3177 0.42712 0.68689 0.0
H1808 H 0.39678 0.43128 0.55127 0.0
H1809 H 0.35437 0.36055 0.54518 0.0
H1810 H 0.3734 0.45331 0.67271 0.0
H1811 H 0.40231 0.43627 0.68794 0.0
H1812 H 0.40068 0.45577 0.62886 0.0
H1813 H 0.33376 0.34307 0.61945 0.0
H1814 H 0.3507 0.34939 0.68056 0.0
H1815 H 0.32201 0.36683 0.66557 0.0
H1816 H 0.38293 0.38614 0.83091 0.0
H1817 H 0.31354 0.42712 0.79371 0.0
H1818 H 0.4124 0.3914 0.70709 0.0
H1819 H 0.39515 0.36171 0.70564 0.0
H1820 H 0.41138 0.37148 0.76564 0.0
H1821 H 0.32778 0.44158 0.6621 0.0
H1822 H 0.30109 0.43658 0.70657 0.0
H1823 H 0.31031 0.41204 0.65975 0.0
C1824 C 0.42473 0.64729 0.25782 0.0
C1825 C 0.40304 0.65467 0.2283 0.0
C1826 C 0.42284 0.64144 0.31224 0.0
C1827 C 0.39864 0.64274 0.33788 0.0
C1828 C 0.37665 0.64999 0.3082 0.0
C1829 C 0.37913 0.65596 0.25396 0.0
C1830 C 0.44682 0.63405 0.34241 0.0
C1831 C 0.35043 0.65134 0.3337 0.0
C1832 C 0.38951 0.60495 0.46637 0.0
C1833 C 0.39163 0.62425 0.50508 0.0
C1834 C 0.39166 0.6107 0.41197 0.0
C1835 C 0.39627 0.63637 0.39564 0.0
C1836 C 0.39852 0.65593 0.43455 0.0
C1837 C 0.39607 0.64967 0.48866 0.0
C1838 C 0.38886 0.58929 0.3719 0.0
C1839 C 0.40367 0.6835 0.41907 0.0
H1840 H 0.44332 0.64651 0.23851 0.0
H1841 H 0.36222 0.66134 0.23137 0.0
H1842 H 0.44991 0.6476 0.37583 0.0
H1843 H 0.44452 0.61457 0.35974 0.0
H1844 H 0.46421 0.63411 0.31686 0.0
H1845 H 0.33522 0.65716 0.30514 0.0
H1846 H 0.34531 0.63233 0.35063 0.0
H1847 H 0.35069 0.66533 0.36694 0.0
H1848 H 0.3858 0.58531 0.47861 0.0
H1849 H 0.39808 0.66465 0.51828 0.0
H1850 H 0.40657 0.58776 0.34762 0.0
H1851 H 0.37277 0.59364 0.34439 0.0
H1852 H 0.38518 0.57038 0.39095 0.0
H1853 H 0.42191 0.68471 0.39643 0.0
H1854 H 0.40502 0.69642 0.45408 0.0
H1855 H 0.38813 0.69062 0.39272 0.0
C1856 C 0.68009 0.58087 0.77211 0.0
C1857 C 0.6662 0.59521 0.80964 0.0
C1858 C 0.67552 0.58373 0.71736 0.0
C1859 C 0.65661 0.60136 0.69954 0.0
C1860 C 0.64284 0.61619 0.73716 0.0
C1861 C 0.64781 0.61296 0.79158 0.0
C1862 C 0.69059 0.56752 0.67861 0.0
C1863 C 0.62261 0.63529 0.71993 0.0
C1864 C 0.65681 0.62485 0.55612 0.0
C1865 C 0.63715 0.60997 0.53338 0.0
C1866 C 0.66365 0.62199 0.60985 0.0
C1867 C 0.65057 0.60377 0.64175 0.0
C1868 C 0.63107 0.58836 0.61878 0.0
C1869 C 0.62462 0.59164 0.56502 0.0
C1870 C 0.68452 0.63882 0.63274 0.0
C1871 C 0.61678 0.56856 0.65118 0.0
H1872 H 0.69414 0.56692 0.78558 0.0
H1873 H 0.63728 0.62446 0.82012 0.0
H1874 H 0.67733 0.55471 0.65646 0.0
H1875 H 0.70027 0.57999 0.64905 0.0
H1876 H 0.70534 0.55548 0.69863 0.0
H1877 H 0.61407 0.64581 0.75401 0.0
H1878 H 0.63107 0.64948 0.69211 0.0
H1879 H 0.60699 0.62518 0.69839 0.0
H1880 H 0.66648 0.63921 0.53222 0.0
H1881 H 0.60975 0.57971 0.54765 0.0
H1882 H 0.6996 0.62679 0.65159 0.0
H1883 H 0.67636 0.65135 0.66414 0.0
H1884 H 0.69367 0.65119 0.60217 0.0
H1885 H 0.63056 0.55484 0.6693 0.0
H1886 H 0.60269 0.55757 0.62705 0.0
H1887 H 0.60637 0.57816 0.6841 0.0
C1888 C 0.63068 0.35887 0.48027 0.0
C1889 C 0.61053 0.37028 0.50892 0.0
C1890 C 0.62788 0.35259 0.42621 0.0
C1891 C 0.6044 0.35792 0.39983 0.0
C1892 C 0.58393 0.36924 0.42863 0.0
C1893 C 0.58721 0.37522 0.48269 0.0
C1894 C 0.65013 0.34036 0.39723 0.0
C1895 C 0.55861 0.37535 0.40213 0.0
C1896 C 0.60472 0.36514 0.24906 0.0
C1897 C 0.59511 0.34126 0.23212 0.0
C1898 C 0.60794 0.37073 0.30331 0.0
C1899 C 0.60137 0.35205 0.34194 0.0
C1900 C 0.59172 0.3279 0.32519 0.0
C1901 C 0.5887 0.32281 0.27064 0.0
C1902 C 0.61821 0.39676 0.3193 0.0
C1903 C 0.58455 0.3074 0.36494 0.0
H1904 H 0.64864 0.35464 0.50028 0.0
H1905 H 0.57163 0.38428 0.50423 0.0
H1906 H 0.64411 0.32167 0.38 0.0
H1907 H 0.6562 0.35285 0.36381 0.0
H1908 H 0.66695 0.33704 0.42356 0.0
H1909 H 0.54443 0.38373 0.43019 0.0
H1910 H 0.56171 0.38917 0.36921 0.0
H1911 H 0.55028 0.35765 0.38458 0.0
H1912 H 0.60936 0.3797 0.21985 0.0
H1913 H 0.58158 0.30419 0.25811 0.0
H1914 H 0.63596 0.39441 0.34327 0.0
H1915 H 0.60394 0.40686 0.34451 0.0
H1916 H 0.62266 0.40908 0.28448 0.0
H1917 H 0.60145 0.3025 0.38987 0.0
H1918 H 0.57747 0.28956 0.34557 0.0
H1919 H 0.56937 0.31472 0.39189 0.0
C1920 C 0.8632 0.62372 0.99595 0.0
C1921 C 0.8482 0.60366 0.97512 0.0
C1922 C 0.86874 0.62518 0.05051 0.0
C1923 C 0.85918 0.60607 0.08534 0.0
C1924 C 0.84412 0.58571 0.06462 0.0
C1925 C 0.83879 0.58477 1.0099 0.0
C1926 C 0.88489 0.6472 0.07087 0.0
C1927 C 0.83359 0.56492 0.10032 0.0
C1928 C 0.89358 0.5974 0.21777 0.0
C1929 C 0.87754 0.61098 0.25273 0.0
C1930 C 0.88768 0.5954 0.16346 0.0
C1931 C 0.86518 0.60729 0.14333 0.0
C1932 C 0.84873 0.62076 0.17849 0.0
C1933 C 0.85509 0.62242 0.23266 0.0
C1934 C 0.90571 0.5808 0.12745 0.0
C1935 C 0.82449 0.6336 0.15881 0.0
H1936 H 0.8709 0.6382 0.96944 0.0
H1937 H 0.8269 0.56939 0.99444 0.0
H1938 H 0.87407 0.65811 0.10141 0.0
H1939 H 0.90252 0.63965 0.09014 0.0
H1940 H 0.89061 0.66067 0.03877 0.0
H1941 H 0.8223 0.55034 0.07806 0.0
H1942 H 0.84959 0.55505 0.12117 0.0
H1943 H 0.82107 0.57357 0.13116 0.0
H1944 H 0.9111 0.58873 0.2327 0.0
H1945 H 0.84235 0.6326 0.25945 0.0
H1946 H 0.91358 0.59393 0.0968 0.0
H1947 H 0.89512 0.56535 0.10639 0.0
H1948 H 0.922 0.57201 0.14948 0.0
H1949 H 0.82935 0.64824 0.12839 0.0
H1950 H 0.81363 0.64312 0.19127 0.0
H1951 H 0.81181 0.61922 0.13956 0.0
C1952 C 0.58821 0.12163 0.82008 0.0
C1953 C 0.6095 0.12926 0.7897 0.0
C1954 C 0.58632 0.12786 0.87427 0.0
C1955 C 0.60627 0.142 0.89909 0.0
C1956 C 0.62768 0.15001 0.86856 0.0
C1957 C 0.629 0.14363 0.81432 0.0
C1958 C 0.563 0.11919 0.90507 0.0
C1959 C 0.64942 0.16501 0.8934 0.0
C1960 C 0.59165 0.17641 0.02947 0.0
C1961 C 0.60134 0.15906 0.06729 0.0
C1962 C 0.59322 0.17119 0.97475 0.0
C1963 C 0.60484 0.14806 0.95711 0.0
C1964 C 0.61478 0.13054 0.99503 0.0
C1965 C 0.61287 0.13621 0.0495 0.0
C1966 C 0.5822 0.19032 0.93578 0.0
C1967 C 0.62747 0.10576 0.97805 0.0
H1968 H 0.57284 0.11089 0.80132 0.0
H1969 H 0.64564 0.14942 0.7914 0.0
H1970 H 0.56897 0.1063 0.93793 0.0
H1971 H 0.5533 0.13605 0.9232 0.0
H1972 H 0.54891 0.10882 0.87976 0.0
H1973 H 0.66454 0.17014 0.86417 0.0
H1974 H 0.64193 0.18296 0.91152 0.0
H1975 H 0.65833 0.15355 0.92569 0.0
H1976 H 0.5824 0.19395 0.04271 0.0
H1977 H 0.62073 0.12283 0.07825 0.0
H1978 H 0.56673 0.18111 0.91216 0.0
H1979 H 0.59727 0.1966 0.9075 0.0
H1980 H 0.57417 0.20759 0.95576 0.0
H1981 H 0.61369 0.09388 0.95506 0.0
H1982 H 0.63448 0.09429 1.01235 0.0
H1983 H 0.64398 0.10997 0.95159 0.0
C1984 C 0.11869 0.39167 0.22095 0.0
C1985 C 0.137 0.39362 0.26179 0.0
C1986 C 0.12555 0.39504 0.16747 0.0
C1987 C 0.15148 0.40011 0.15398 0.0
C1988 C 0.17018 0.40171 0.19478 0.0
C1989 C 0.1627 0.39861 0.24808 0.0
C1990 C 0.10495 0.39333 0.12534 0.0
C1991 C 0.19807 0.40682 0.18216 0.0
C1992 C 0.17039 0.38677 1.01037 0.0
C1993 C 0.16888 0.41137 0.98754 0.0
C1994 C 0.16547 0.38291 0.06471 0.0
C1995 C 0.15877 0.40412 0.09718 0.0
C1996 C 0.15778 0.42907 0.07467 0.0
C1997 C 0.16288 0.43239 1.0203 0.0
C1998 C 0.1668 0.35601 0.08708 0.0
C1999 C 0.15077 0.45223 0.1078 0.0
H2000 H 0.09889 0.38731 0.23069 0.0
H2001 H 0.177 0.40056 0.27909 0.0
H2002 H 0.10402 0.41163 0.10276 0.0
H2003 H 0.10972 0.37787 0.09666 0.0
H2004 H 0.08566 0.38937 0.14233 0.0
H2005 H 0.21025 0.40757 0.21839 0.0
H2006 H 0.20558 0.39154 0.15564 0.0
H2007 H 0.19997 0.42534 0.16066 0.0
H2008 H 0.17474 0.37035 0.98544 0.0
H2009 H 0.16209 0.45153 1.00337 0.0
H2010 H 0.14745 0.34995 0.10064 0.0
H2011 H 0.17969 0.35555 0.12217 0.0
H2012 H 0.17385 0.34183 0.0575 0.0
H2013 H 0.13094 0.45002 0.12333 0.0
H2014 H 0.15181 0.47044 0.08485 0.0
H2015 H 0.1638 0.45373 0.14252 0.0
C2016 C 0.3853 0.86602 0.05014 0.0
C2017 C 0.40234 0.84694 0.06819 0.0
C2018 C 0.38257 0.87143 0.9957 0.0
C2019 C 0.39735 0.85761 0.95806 0.0
C2020 C 0.41454 0.83831 0.9759 0.0
C2021 C 0.41676 0.83317 0.03055 0.0
C2022 C 0.36398 0.89212 0.97848 0.0
C2023 C 0.43069 0.82313 0.9372 0.0
C2024 C 0.37485 0.85704 0.81377 0.0
C2025 C 0.39055 0.87595 0.79077 0.0
C2026 C 0.37697 0.85073 0.86794 0.0
C2027 C 0.39517 0.86369 0.90016 0.0
C2028 C 0.41116 0.8827 0.87711 0.0
C2029 C 0.40868 0.88856 0.82285 0.0
C2030 C 0.35966 0.83024 0.89075 0.0
C2031 C 0.4308 0.897 0.90992 0.0
H2032 H 0.37434 0.87708 0.07869 0.0
H2033 H 0.42968 0.81811 0.04377 0.0
H2034 H 0.37449 0.90764 0.9575 0.0
H2035 H 0.34978 0.88406 0.95014 0.0
H2036 H 0.35345 0.90071 1.01249 0.0
H2037 H 0.443 0.80864 0.95733 0.0
H2038 H 0.41813 0.81309 0.90827 0.0
H2039 H 0.44322 0.83635 0.9143 0.0
H2040 H 0.36103 0.84694 0.78922 0.0
H2041 H 0.42069 0.90341 0.80567 0.0
H2042 H 0.3478 0.83849 0.92314 0.0
H2043 H 0.3714 0.81458 0.9083 0.0
H2044 H 0.34665 0.82181 0.8604 0.0
H2045 H 0.42107 0.90757 0.94245 0.0
H2046 H 0.44203 0.91095 0.88593 0.0
H2047 H 0.44432 0.88319 0.92858 0.0
C2048 C 0.85362 0.92612 0.29615 0.0
C2049 C 0.84732 0.90397 0.32523 0.0
C2050 C 0.85914 0.92481 0.24151 0.0
C2051 C 0.85854 0.90074 0.21513 0.0
C2052 C 0.85218 0.87832 0.24425 0.0
C2053 C 0.8466 0.88021 0.29876 0.0
C2054 C 0.86566 0.94921 0.21201 0.0
C2055 C 0.85153 0.85224 0.21792 0.0
C2056 C 0.85256 0.89928 0.06396 0.0
C2057 C 0.87817 0.89546 0.04811 0.0
C2058 C 0.84587 0.90102 0.11801 0.0
C2059 C 0.86523 0.89891 0.15743 0.0
C2060 C 0.89107 0.89496 0.14172 0.0
C2061 C 0.8972 0.89326 0.08746 0.0
C2062 C 0.81809 0.90528 0.13289 0.0
C2063 C 0.91231 0.89249 0.18229 0.0
H2064 H 0.85392 0.9446 0.31602 0.0
H2065 H 0.84205 0.86294 0.32094 0.0
H2066 H 0.88527 0.94774 0.19504 0.0
H2067 H 0.85215 0.95195 0.17838 0.0
H2068 H 0.8648 0.96647 0.23795 0.0
H2069 H 0.8458 0.83673 0.24581 0.0
H2070 H 0.83783 0.85247 0.18416 0.0
H2071 H 0.87076 0.84757 0.20157 0.0
H2072 H 0.83772 0.90134 0.03404 0.0
H2073 H 0.91696 0.88988 0.07588 0.0
H2074 H 0.81619 0.92333 0.15601 0.0
H2075 H 0.81132 0.88935 0.15862 0.0
H2076 H 0.80534 0.90647 0.09757 0.0
H2077 H 0.91312 0.91006 0.20723 0.0
H2078 H 0.93143 0.88954 0.16367 0.0
H2079 H 0.90832 0.87605 0.20911 0.0
C2080 C 0.91815 0.12614 0.9758 0.0
C2081 C 0.89458 0.12736 1.00278 0.0
C2082 C 0.91985 0.13203 0.92139 0.0
C2083 C 0.89741 0.13906 0.89293 0.0
C2084 C 0.87356 0.14025 0.91995 0.0
C2085 C 0.87246 0.13454 0.97449 0.0
C2086 C 0.94571 0.13081 0.89437 0.0
C2087 C 0.84914 0.14746 0.89115 0.0
C2088 C 0.90415 0.17672 0.76377 0.0
C2089 C 0.90083 0.15749 0.72516 0.0
C2090 C 0.90315 0.17099 0.8183 0.0
C2091 C 0.89889 0.14534 0.83502 0.0
C2092 C 0.8958 0.12577 0.79637 0.0
C2093 C 0.89676 0.13207 0.74207 0.0
C2094 C 0.90662 0.19245 0.85807 0.0
C2095 C 0.8912 0.09818 0.81239 0.0
H2096 H 0.93537 0.12089 0.99748 0.0
H2097 H 0.85414 0.13525 0.99488 0.0
H2098 H 0.94506 0.11682 0.86114 0.0
H2099 H 0.95051 0.14984 0.87715 0.0
H2100 H 0.96134 0.12508 0.92204 0.0
H2101 H 0.8321 0.14733 0.9177 0.0
H2102 H 0.85108 0.16693 0.87359 0.0
H2103 H 0.84566 0.13386 0.858 0.0
H2104 H 0.90776 0.19635 0.75138 0.0
H2105 H 0.89383 0.11709 0.71281 0.0
H2106 H 0.92316 0.18815 0.88444 0.0
H2107 H 0.88932 0.19397 0.88359 0.0
H2108 H 0.90993 0.21135 0.8387 0.0
H2109 H 0.90714 0.09133 0.83804 0.0
H2110 H 0.8896 0.08516 0.77759 0.0
H2111 H 0.87324 0.0968 0.83594 0.0
C2112 C 0.1609 0.1055 0.0493 0.0
C2113 C 0.13603 0.11398 0.03613 0.0
C2114 C 0.16846 0.1022 0.10256 0.0
C2115 C 0.15067 0.10718 0.14388 0.0
C2116 C 0.12567 0.11597 0.13092 0.0
C2117 C 0.11874 0.11941 0.07745 0.0
C2118 C 0.19539 0.09301 0.1145 0.0
C2119 C 0.10607 0.12154 0.1736 0.0
C2120 C 0.15784 0.07506 0.27908 0.0
C2121 C 0.16734 0.09521 0.31061 0.0
C2122 C 0.153 0.07849 0.22461 0.0
C2123 C 0.15781 0.10268 0.2007 0.0
C2124 C 0.16806 0.1229 0.23191 0.0
C2125 C 0.17267 0.11894 0.28637 0.0
C2126 C 0.14217 0.05638 0.19288 0.0
C2127 C 0.17351 0.14896 0.20805 0.0
H2128 H 0.17437 0.10091 1.01794 0.0
H2129 H 0.09969 0.1265 0.06808 0.0
H2130 H 0.20487 0.10622 0.143 0.0
H2131 H 0.19461 0.07376 0.13343 0.0
H2132 H 0.20743 0.09168 0.07819 0.0
H2133 H 0.08753 0.12849 0.15704 0.0
H2134 H 0.10237 0.10388 0.1971 0.0
H2135 H 0.11362 0.13627 0.20136 0.0
H2136 H 0.15408 0.05651 0.29708 0.0
H2137 H 0.17978 0.13473 0.31032 0.0
H2138 H 0.1545 0.05246 0.15791 0.0
H2139 H 0.12279 0.06152 0.17777 0.0
H2140 H 0.14056 0.03848 0.21673 0.0
H2141 H 0.18596 0.14692 0.17258 0.0
H2142 H 0.18304 0.16213 0.23667 0.0
H2143 H 0.15526 0.15794 0.19475 0.0
C2144 C 0.12241 0.85048 0.74729 0.0
C2145 C 0.10213 0.83524 0.72811 0.0
C2146 C 0.12492 0.85609 0.80172 0.0
C2147 C 0.10663 0.84643 0.83826 0.0
C2148 C 0.08627 0.83081 0.81936 0.0
C2149 C 0.08431 0.82537 0.76474 0.0
C2150 C 0.14698 0.87275 0.82004 0.0
C2151 C 0.06631 0.82013 0.85679 0.0
C2152 C 0.12373 0.84516 0.98596 0.0
C2153 C 0.11166 0.86758 1.00473 0.0
C2154 C 0.12224 0.83799 0.93209 0.0
C2155 C 0.10825 0.85351 0.89587 0.0
C2156 C 0.09594 0.87606 0.91461 0.0
C2157 C 0.09785 0.88283 0.96853 0.0
C2158 C 0.13559 0.81377 0.91397 0.0
C2159 C 0.0808 0.89317 0.87757 0.0
H2160 H 0.13611 0.85856 0.71956 0.0
H2161 H 0.06879 0.81324 0.75074 0.0
H2162 H 0.13943 0.89078 0.83768 0.0
H2163 H 0.1581 0.86269 0.8514 0.0
H2164 H 0.16023 0.87782 0.78711 0.0
H2165 H 0.05203 0.8078 0.83613 0.0
H2166 H 0.07573 0.80863 0.88839 0.0
H2167 H 0.05597 0.83615 0.87655 0.0
H2168 H 0.13414 0.83302 1.01355 0.0
H2169 H 0.08878 0.90038 0.9822 0.0
H2170 H 0.14892 0.81817 0.88084 0.0
H2171 H 0.1212 0.79986 0.89876 0.0
H2172 H 0.14666 0.80444 0.94642 0.0
H2173 H 0.09354 0.90062 0.84581 0.0
H2174 H 0.07195 0.90977 0.89846 0.0
H2175 H 0.06534 0.88193 0.85801 0.0
loop_
_geom_bond_atom_site_label_1
_geom_bond_atom_site_label_2
_geom_bond_distance
_geom_bond_site_symmetry_2
_ccdc_geom_bond_type
Sm0 C2 2.846 . S
Sm0 O20 2.543 . S
Sm0 O21 2.450 . S
Sm0 O22 2.681 . S
Sm0 O23 2.464 . S
Sm0 O24 2.396 . S
Sm0 O28 2.386 . S
Sm0 O31 2.408 . S
Sm1 C11 2.846 1_554 S
Sm1 O22 2.386 . S
Sm1 O25 2.408 . S
Sm1 O26 2.543 1_554 S
Sm1 O27 2.450 1_554 S
Sm1 O28 2.681 . S
Sm1 O29 2.464 . S
Sm1 O30 2.396 . S
C2 Sm0 2.846 . S
C2 C3 1.506 . S
C2 O20 1.261 . S
C2 O21 1.242 . S
C3 C2 1.506 . S
C3 C4 1.358 . S
C3 C8 1.382 . S
C4 C3 1.358 . S
C4 C5 1.385 . S
C4 H32 0.930 . S
C5 C4 1.385 . S
C5 C6 1.395 . S
C5 H33 0.929 . S
C6 C5 1.395 . S
C6 C7 1.335 . S
C7 C6 1.335 . S
C7 C8 1.398 . S
C7 H34 0.930 . S
C8 C3 1.382 . S
C8 C7 1.398 . S
C8 H35 0.929 . S
C9 O22 1.271 . S
C9 O23 1.251 . S
C10 O24 1.252 . S
C10 O25 1.272 . S
C11 Sm1 2.846 1_556 S
C11 C12 1.506 . S
C11 O26 1.261 . S
C11 O27 1.242 . S
C12 C11 1.506 . S
C12 C13 1.358 . S
C12 C17 1.382 . S
C13 C12 1.358 . S
C13 C14 1.385 . S
C13 H36 0.930 . S
C14 C13 1.385 . S
C14 C15 1.395 . S
C14 H37 0.929 . S
C15 C14 1.395 . S
C15 C16 1.335 . S
C16 C15 1.335 . S
C16 C17 1.398 . S
C16 H38 0.930 . S
C17 C12 1.382 . S
C17 C16 1.398 . S
C17 H39 0.929 . S
C18 O28 1.271 . S
C18 O29 1.251 . S
C19 O30 1.252 . S
C19 O31 1.272 . S
O20 Sm0 2.543 . S
O20 C2 1.261 . S
O21 Sm0 2.450 . S
O21 C2 1.242 . S
O22 Sm0 2.681 . S
O22 Sm1 2.386 . S
O22 C9 1.271 . S
O23 Sm0 2.464 . S
O23 C9 1.251 . S
O24 Sm0 2.396 . S
O24 C10 1.252 . S
O25 Sm1 2.408 . S
O25 C10 1.272 . S
O26 Sm1 2.543 1_556 S
O26 C11 1.261 . S
O27 Sm1 2.450 1_556 S
O27 C11 1.242 . S
O28 Sm0 2.386 . S
O28 Sm1 2.681 . S
O28 C18 1.271 . S
O29 Sm1 2.464 . S
O29 C18 1.251 . S
O30 Sm1 2.396 . S
O30 C19 1.252 . S
O31 Sm0 2.408 . S
O31 C19 1.272 . S
H32 C4 0.930 . S
H33 C5 0.929 . S
H34 C7 0.930 . S
H35 C8 0.929 . S
H36 C13 0.930 . S
H37 C14 0.929 . S
H38 C16 0.930 . S
H39 C17 0.929 . S
Sm40 C42 2.846 1_556 S
Sm40 O60 2.543 1_556 S
Sm40 O61 2.450 1_556 S
Sm40 O62 2.681 . S
Sm40 O63 2.464 . S
Sm40 O64 2.396 . S
Sm40 O68 2.386 . S
Sm40 O71 2.408 . S
Sm41 C51 2.846 . S
Sm41 O62 2.386 . S
Sm41 O65 2.408 . S
Sm41 O66 2.543 . S
Sm41 O67 2.450 . S
Sm41 O68 2.681 . S
Sm41 O69 2.464 . S
Sm41 O70 2.396 . S
C42 Sm40 2.846 1_554 S
C42 C43 1.506 . S
C42 O60 1.261 . S
C42 O61 1.242 . S
C43 C42 1.506 . S
C43 C44 1.358 . S
C43 C48 1.382 . S
C44 C43 1.358 . S
C44 C45 1.385 . S
C44 H72 0.930 . S
C45 C44 1.385 . S
C45 C46 1.395 . S
C45 H73 0.929 . S
C46 C45 1.395 . S
C46 C47 1.335 . S
C47 C46 1.335 . S
C47 C48 1.398 . S
C47 H74 0.930 . S
C48 C43 1.382 . S
C48 C47 1.398 . S
C48 H75 0.929 . S
C49 O62 1.271 . S
C49 O63 1.251 . S
C50 O64 1.252 . S
C50 O65 1.272 . S
C51 Sm41 2.846 . S
C51 C52 1.506 . S
C51 O66 1.261 . S
C51 O67 1.242 . S
C52 C51 1.506 . S
C52 C53 1.358 . S
C52 C57 1.382 . S
C53 C52 1.358 . S
C53 C54 1.385 . S
C53 H76 0.930 . S
C54 C53 1.385 . S
C54 C55 1.395 . S
C54 H77 0.929 . S
C55 C54 1.395 . S
C55 C56 1.335 . S
C56 C55 1.335 . S
C56 C57 1.398 . S
C56 H78 0.930 . S
C57 C52 1.382 . S
C57 C56 1.398 . S
C57 H79 0.929 . S
C58 O68 1.271 . S
C58 O69 1.251 . S
C59 O70 1.252 . S
C59 O71 1.272 . S
O60 Sm40 2.543 1_554 S
O60 C42 1.261 . S
O61 Sm40 2.450 1_554 S
O61 C42 1.242 . S
O62 Sm40 2.681 . S
O62 Sm41 2.386 . S
O62 C49 1.271 . S
O63 Sm40 2.464 . S
O63 C49 1.251 . S
O64 Sm40 2.396 . S
O64 C50 1.252 . S
O65 Sm41 2.408 . S
O65 C50 1.272 . S
O66 Sm41 2.543 . S
O66 C51 1.261 . S
O67 Sm41 2.450 . S
O67 C51 1.242 . S
O68 Sm40 2.386 . S
O68 Sm41 2.681 . S
O68 C58 1.271 . S
O69 Sm41 2.464 . S
O69 C58 1.251 . S
O70 Sm41 2.396 . S
O70 C59 1.252 . S
O71 Sm40 2.408 . S
O71 C59 1.272 . S
H72 C44 0.930 . S
H73 C45 0.929 . S
H74 C47 0.930 . S
H75 C48 0.929 . S
H76 C53 0.930 . S
H77 C54 0.929 . S
H78 C56 0.930 . S
H79 C57 0.929 . S
Sm80 C82 2.846 . S
Sm80 O100 2.543 . S
Sm80 O101 2.450 . S
Sm80 O102 2.681 . S
Sm80 O103 2.464 . S
Sm80 O104 2.396 . S
Sm80 O108 2.386 . S
Sm80 O111 2.408 . S
Sm81 C91 2.846 1_554 S
Sm81 O102 2.386 . S
Sm81 O105 2.408 . S
Sm81 O106 2.543 1_554 S
Sm81 O107 2.450 1_554 S
Sm81 O108 2.681 . S
Sm81 O109 2.464 . S
Sm81 O110 2.396 . S
C82 Sm80 2.846 . S
C82 C83 1.506 . S
C82 O100 1.261 . S
C82 O101 1.242 . S
C83 C82 1.506 . S
C83 C84 1.358 . S
C83 C88 1.382 . S
C84 C83 1.358 . S
C84 C85 1.385 . S
C84 H112 0.930 . S
C85 C84 1.385 . S
C85 C86 1.395 . S
C85 H113 0.929 . S
C86 C85 1.395 . S
C86 C87 1.335 . S
C87 C86 1.335 . S
C87 C88 1.398 . S
C87 H114 0.930 . S
C88 C83 1.382 . S
C88 C87 1.398 . S
C88 H115 0.929 . S
C89 O102 1.271 . S
C89 O103 1.251 . S
C90 O104 1.252 . S
C90 O105 1.272 . S
C91 Sm81 2.846 1_556 S
C91 C92 1.506 . S
C91 O106 1.261 . S
C91 O107 1.242 . S
C92 C91 1.506 . S
C92 C93 1.358 . S
C92 C97 1.382 . S
C93 C92 1.358 . S
C93 C94 1.385 . S
C93 H116 0.930 . S
C94 C93 1.385 . S
C94 C95 1.395 . S
C94 H117 0.929 . S
C95 C94 1.395 . S
C95 C96 1.335 . S
C96 C95 1.335 . S
C96 C97 1.398 . S
C96 H118 0.930 . S
C97 C92 1.382 . S
C97 C96 1.398 . S
C97 H119 0.929 . S
C98 O108 1.271 . S
C98 O109 1.251 . S
C99 O110 1.252 . S
C99 O111 1.272 . S
O100 Sm80 2.543 . S
O100 C82 1.261 . S
O101 Sm80 2.450 . S
O101 C82 1.242 . S
O102 Sm80 2.681 . S
O102 Sm81 2.386 . S
O102 C89 1.271 . S
O103 Sm80 2.464 . S
O103 C89 1.251 . S
O104 Sm80 2.396 . S
O104 C90 1.252 . S
O105 Sm81 2.408 . S
O105 C90 1.272 . S
O106 Sm81 2.543 1_556 S
O106 C91 1.261 . S
O107 Sm81 2.450 1_556 S
O107 C91 1.242 . S
O108 Sm80 2.386 . S
O108 Sm81 2.681 . S
O108 C98 1.271 . S
O109 Sm81 2.464 . S
O109 C98 1.251 . S
O110 Sm81 2.396 . S
O110 C99 1.252 . S
O111 Sm80 2.408 . S
O111 C99 1.272 . S
H112 C84 0.930 . S
H113 C85 0.929 . S
H114 C87 0.930 . S
H115 C88 0.929 . S
H116 C93 0.930 . S
H117 C94 0.929 . S
H118 C96 0.930 . S
H119 C97 0.929 . S
Sm120 C122 2.846 1_556 S
Sm120 O140 2.543 1_556 S
Sm120 O141 2.450 1_556 S
Sm120 O142 2.681 . S
Sm120 O143 2.464 . S
Sm120 O144 2.396 . S
Sm120 O148 2.386 . S
Sm120 O151 2.408 . S
Sm121 C131 2.846 . S
Sm121 O142 2.386 . S
Sm121 O145 2.408 . S
Sm121 O146 2.543 . S
Sm121 O147 2.450 . S
Sm121 O148 2.681 . S
Sm121 O149 2.464 . S
Sm121 O150 2.396 . S
C122 Sm120 2.846 1_554 S
C122 C123 1.506 . S
C122 O140 1.261 . S
C122 O141 1.242 . S
C123 C122 1.506 . S
C123 C124 1.358 . S
C123 C128 1.382 . S
C124 C123 1.358 . S
C124 C125 1.385 . S
C124 H152 0.930 . S
C125 C124 1.385 . S
C125 C126 1.395 . S
C125 H153 0.929 . S
C126 C125 1.395 . S
C126 C127 1.335 . S
C127 C126 1.335 . S
C127 C128 1.398 . S
C127 H154 0.930 . S
C128 C123 1.382 . S
C128 C127 1.398 . S
C128 H155 0.929 . S
C129 O142 1.271 . S
C129 O143 1.251 . S
C130 O144 1.252 . S
C130 O145 1.272 . S
C131 Sm121 2.846 . S
C131 C132 1.506 . S
C131 O146 1.261 . S
C131 O147 1.242 . S
C132 C131 1.506 . S
C132 C133 1.358 . S
C132 C137 1.382 . S
C133 C132 1.358 . S
C133 C134 1.385 . S
C133 H156 0.930 . S
C134 C133 1.385 . S
C134 C135 1.395 . S
C134 H157 0.929 . S
C135 C134 1.395 . S
C135 C136 1.335 . S
C136 C135 1.335 . S
C136 C137 1.398 . S
C136 H158 0.930 . S
C137 C132 1.382 . S
C137 C136 1.398 . S
C137 H159 0.929 . S
C138 O148 1.271 . S
C138 O149 1.251 . S
C139 O150 1.252 . S
C139 O151 1.272 . S
O140 Sm120 2.543 1_554 S
O140 C122 1.261 . S
O141 Sm120 2.450 1_554 S
O141 C122 1.242 . S
O142 Sm120 2.681 . S
O142 Sm121 2.386 . S
O142 C129 1.271 . S
O143 Sm120 2.464 . S
O143 C129 1.251 . S
O144 Sm120 2.396 . S
O144 C130 1.252 . S
O145 Sm121 2.408 . S
O145 C130 1.272 . S
O146 Sm121 2.543 . S
O146 C131 1.261 . S
O147 Sm121 2.450 . S
O147 C131 1.242 . S
O148 Sm120 2.386 . S
O148 Sm121 2.681 . S
O148 C138 1.271 . S
O149 Sm121 2.464 . S
O149 C138 1.251 . S
O150 Sm121 2.396 . S
O150 C139 1.252 . S
O151 Sm120 2.408 . S
O151 C139 1.272 . S
H152 C124 0.930 . S
H153 C125 0.929 . S
H154 C127 0.930 . S
H155 C128 0.929 . S
H156 C133 0.930 . S
H157 C134 0.929 . S
H158 C136 0.930 . S
H159 C137 0.929 . S
Sm160 C162 2.846 1_554 S
Sm160 O180 2.543 1_554 S
Sm160 O181 2.450 1_554 S
Sm160 O182 2.681 . S
Sm160 O183 2.464 . S
Sm160 O184 2.396 . S
Sm160 O188 2.386 . S
Sm160 O191 2.408 . S
Sm161 C171 2.846 . S
Sm161 O182 2.386 . S
Sm161 O185 2.408 . S
Sm161 O186 2.543 . S
Sm161 O187 2.450 . S
Sm161 O188 2.681 . S
Sm161 O189 2.464 . S
Sm161 O190 2.396 . S
C162 Sm160 2.846 1_556 S
C162 C163 1.506 . S
C162 O180 1.261 . S
C162 O181 1.242 . S
C163 C162 1.506 . S
C163 C164 1.358 . S
C163 C168 1.382 . S
C164 C163 1.358 . S
C164 C165 1.385 . S
C164 H192 0.930 . S
C165 C164 1.385 . S
C165 C166 1.395 . S
C165 H193 0.929 . S
C166 C165 1.395 . S
C166 C167 1.335 . S
C167 C166 1.335 . S
C167 C168 1.398 . S
C167 H194 0.930 . S
C168 C163 1.382 . S
C168 C167 1.398 . S
C168 H195 0.929 . S
C169 O182 1.271 . S
C169 O183 1.251 . S
C170 O184 1.252 . S
C170 O185 1.272 . S
C171 Sm161 2.846 . S
C171 C172 1.506 . S
C171 O186 1.261 . S
C171 O187 1.242 . S
C172 C171 1.506 . S
C172 C173 1.358 . S
C172 C177 1.382 . S
C173 C172 1.358 . S
C173 C174 1.385 . S
C173 H196 0.930 . S
C174 C173 1.385 . S
C174 C175 1.395 . S
C174 H197 0.929 . S
C175 C174 1.395 . S
C175 C176 1.335 . S
C176 C175 1.335 . S
C176 C177 1.398 . S
C176 H198 0.930 . S
C177 C172 1.382 . S
C177 C176 1.398 . S
C177 H199 0.929 . S
C178 O188 1.271 . S
C178 O189 1.251 . S
C179 O190 1.252 . S
C179 O191 1.272 . S
O180 Sm160 2.543 1_556 S
O180 C162 1.261 . S
O181 Sm160 2.450 1_556 S
O181 C162 1.242 . S
O182 Sm160 2.681 . S
O182 Sm161 2.386 . S
O182 C169 1.271 . S
O183 Sm160 2.464 . S
O183 C169 1.251 . S
O184 Sm160 2.396 . S
O184 C170 1.252 . S
O185 Sm161 2.408 . S
O185 C170 1.272 . S
O186 Sm161 2.543 . S
O186 C171 1.261 . S
O187 Sm161 2.450 . S
O187 C171 1.242 . S
O188 Sm160 2.386 . S
O188 Sm161 2.681 . S
O188 C178 1.271 . S
O189 Sm161 2.464 . S
O189 C178 1.251 . S
O190 Sm161 2.396 . S
O190 C179 1.252 . S
O191 Sm160 2.408 . S
O191 C179 1.272 . S
H192 C164 0.930 . S
H193 C165 0.929 . S
H194 C167 0.930 . S
H195 C168 0.929 . S
H196 C173 0.930 . S
H197 C174 0.929 . S
H198 C176 0.930 . S
H199 C177 0.929 . S
Sm200 C202 2.846 . S
Sm200 O220 2.543 . S
Sm200 O221 2.450 . S
Sm200 O222 2.681 . S
Sm200 O223 2.464 . S
Sm200 O224 2.396 . S
Sm200 O228 2.386 . S
Sm200 O231 2.408 . S
Sm201 C211 2.846 1_556 S
Sm201 O222 2.386 . S
Sm201 O225 2.408 . S
Sm201 O226 2.543 1_556 S
Sm201 O227 2.450 1_556 S
Sm201 O228 2.681 . S
Sm201 O229 2.464 . S
Sm201 O230 2.396 . S
C202 Sm200 2.846 . S
C202 C203 1.506 . S
C202 O220 1.261 . S
C202 O221 1.242 . S
C203 C202 1.506 . S
C203 C204 1.358 . S
C203 C208 1.382 . S
C204 C203 1.358 . S
C204 C205 1.385 . S
C204 H232 0.930 . S
C205 C204 1.385 . S
C205 C206 1.395 . S
C205 H233 0.929 . S
C206 C205 1.395 . S
C206 C207 1.335 . S
C207 C206 1.335 . S
C207 C208 1.398 . S
C207 H234 0.930 . S
C208 C203 1.382 . S
C208 C207 1.398 . S
C208 H235 0.929 . S
C209 O222 1.271 . S
C209 O223 1.251 . S
C210 O224 1.252 . S
C210 O225 1.272 . S
C211 Sm201 2.846 1_554 S
C211 C212 1.506 . S
C211 O226 1.261 . S
C211 O227 1.242 . S
C212 C211 1.506 . S
C212 C213 1.358 . S
C212 C217 1.382 . S
C213 C212 1.358 . S
C213 C214 1.385 . S
C213 H236 0.930 . S
C214 C213 1.385 . S
C214 C215 1.395 . S
C214 H237 0.929 . S
C215 C214 1.395 . S
C215 C216 1.335 . S
C216 C215 1.335 . S
C216 C217 1.398 . S
C216 H238 0.930 . S
C217 C212 1.382 . S
C217 C216 1.398 . S
C217 H239 0.929 . S
C218 O228 1.271 . S
C218 O229 1.251 . S
C219 O230 1.252 . S
C219 O231 1.272 . S
O220 Sm200 2.543 . S
O220 C202 1.261 . S
O221 Sm200 2.450 . S
O221 C202 1.242 . S
O222 Sm200 2.681 . S
O222 Sm201 2.386 . S
O222 C209 1.271 . S
O223 Sm200 2.464 . S
O223 C209 1.251 . S
O224 Sm200 2.396 . S
O224 C210 1.252 . S
O225 Sm201 2.408 . S
O225 C210 1.272 . S
O226 Sm201 2.543 1_554 S
O226 C211 1.261 . S
O227 Sm201 2.450 1_554 S
O227 C211 1.242 . S
O228 Sm200 2.386 . S
O228 Sm201 2.681 . S
O228 C218 1.271 . S
O229 Sm201 2.464 . S
O229 C218 1.251 . S
O230 Sm201 2.396 . S
O230 C219 1.252 . S
O231 Sm200 2.408 . S
O231 C219 1.272 . S
H232 C204 0.930 . S
H233 C205 0.929 . S
H234 C207 0.930 . S
H235 C208 0.929 . S
H236 C213 0.930 . S
H237 C214 0.929 . S
H238 C216 0.930 . S
H239 C217 0.929 . S
Sm240 C242 2.846 1_554 S
Sm240 O260 2.543 1_554 S
Sm240 O261 2.450 1_554 S
Sm240 O262 2.681 . S
Sm240 O263 2.464 . S
Sm240 O264 2.396 . S
Sm240 O268 2.386 . S
Sm240 O271 2.408 . S
Sm241 C251 2.846 . S
Sm241 O262 2.386 . S
Sm241 O265 2.408 . S
Sm241 O266 2.543 . S
Sm241 O267 2.450 . S
Sm241 O268 2.681 . S
Sm241 O269 2.464 . S
Sm241 O270 2.396 . S
C242 Sm240 2.846 1_556 S
C242 C243 1.506 . S
C242 O260 1.261 . S
C242 O261 1.242 . S
C243 C242 1.506 . S
C243 C244 1.358 . S
C243 C248 1.382 . S
C244 C243 1.358 . S
C244 C245 1.385 . S
C244 H272 0.930 . S
C245 C244 1.385 . S
C245 C246 1.395 . S
C245 H273 0.929 . S
C246 C245 1.395 . S
C246 C247 1.335 . S
C247 C246 1.335 . S
C247 C248 1.398 . S
C247 H274 0.930 . S
C248 C243 1.382 . S
C248 C247 1.398 . S
C248 H275 0.929 . S
C249 O262 1.271 . S
C249 O263 1.251 . S
C250 O264 1.252 . S
C250 O265 1.272 . S
C251 Sm241 2.846 . S
C251 C252 1.506 . S
C251 O266 1.261 . S
C251 O267 1.242 . S
C252 C251 1.506 . S
C252 C253 1.358 . S
C252 C257 1.382 . S
C253 C252 1.358 . S
C253 C254 1.385 . S
C253 H276 0.930 . S
C254 C253 1.385 . S
C254 C255 1.395 . S
C254 H277 0.929 . S
C255 C254 1.395 . S
C255 C256 1.335 . S
C256 C255 1.335 . S
C256 C257 1.398 . S
C256 H278 0.930 . S
C257 C252 1.382 . S
C257 C256 1.398 . S
C257 H279 0.929 . S
C258 O268 1.271 . S
C258 O269 1.251 . S
C259 O270 1.252 . S
C259 O271 1.272 . S
O260 Sm240 2.543 1_556 S
O260 C242 1.261 . S
O261 Sm240 2.450 1_556 S
O261 C242 1.242 . S
O262 Sm240 2.681 . S
O262 Sm241 2.386 . S
O262 C249 1.271 . S
O263 Sm240 2.464 . S
O263 C249 1.251 . S
O264 Sm240 2.396 . S
O264 C250 1.252 . S
O265 Sm241 2.408 . S
O265 C250 1.272 . S
O266 Sm241 2.543 . S
O266 C251 1.261 . S
O267 Sm241 2.450 . S
O267 C251 1.242 . S
O268 Sm240 2.386 . S
O268 Sm241 2.681 . S
O268 C258 1.271 . S
O269 Sm241 2.464 . S
O269 C258 1.251 . S
O270 Sm241 2.396 . S
O270 C259 1.252 . S
O271 Sm240 2.408 . S
O271 C259 1.272 . S
H272 C244 0.930 . S
H273 C245 0.929 . S
H274 C247 0.930 . S
H275 C248 0.929 . S
H276 C253 0.930 . S
H277 C254 0.929 . S
H278 C256 0.930 . S
H279 C257 0.929 . S
Sm280 C282 2.846 . S
Sm280 O300 2.543 . S
Sm280 O301 2.450 . S
Sm280 O302 2.681 . S
Sm280 O303 2.464 . S
Sm280 O304 2.396 . S
Sm280 O308 2.386 . S
Sm280 O311 2.408 . S
Sm281 C291 2.846 1_556 S
Sm281 O302 2.386 . S
Sm281 O305 2.408 . S
Sm281 O306 2.543 1_556 S
Sm281 O307 2.450 1_556 S
Sm281 O308 2.681 . S
Sm281 O309 2.464 . S
Sm281 O310 2.396 . S
C282 Sm280 2.846 . S
C282 C283 1.506 . S
C282 O300 1.261 . S
C282 O301 1.242 . S
C283 C282 1.506 . S
C283 C284 1.358 . S
C283 C288 1.382 . S
C284 C283 1.358 . S
C284 C285 1.385 . S
C284 H312 0.930 . S
C285 C284 1.385 . S
C285 C286 1.395 . S
C285 H313 0.929 . S
C286 C285 1.395 . S
C286 C287 1.335 . S
C287 C286 1.335 . S
C287 C288 1.398 . S
C287 H314 0.930 . S
C288 C283 1.382 . S
C288 C287 1.398 . S
C288 H315 0.929 . S
C289 O302 1.271 . S
C289 O303 1.251 . S
C290 O304 1.252 . S
C290 O305 1.272 . S
C291 Sm281 2.846 1_554 S
C291 C292 1.506 . S
C291 O306 1.261 . S
C291 O307 1.242 . S
C292 C291 1.506 . S
C292 C293 1.358 . S
C292 C297 1.382 . S
C293 C292 1.358 . S
C293 C294 1.385 . S
C293 H316 0.930 . S
C294 C293 1.385 . S
C294 C295 1.395 . S
C294 H317 0.929 . S
C295 C294 1.395 . S
C295 C296 1.335 . S
C296 C295 1.335 . S
C296 C297 1.398 . S
C296 H318 0.930 . S
C297 C292 1.382 . S
C297 C296 1.398 . S
C297 H319 0.929 . S
C298 O308 1.271 . S
C298 O309 1.251 . S
C299 O310 1.252 . S
C299 O311 1.272 . S
O300 Sm280 2.543 . S
O300 C282 1.261 . S
O301 Sm280 2.450 . S
O301 C282 1.242 . S
O302 Sm280 2.681 . S
O302 Sm281 2.386 . S
O302 C289 1.271 . S
O303 Sm280 2.464 . S
O303 C289 1.251 . S
O304 Sm280 2.396 . S
O304 C290 1.252 . S
O305 Sm281 2.408 . S
O305 C290 1.272 . S
O306 Sm281 2.543 1_554 S
O306 C291 1.261 . S
O307 Sm281 2.450 1_554 S
O307 C291 1.242 . S
O308 Sm280 2.386 . S
O308 Sm281 2.681 . S
O308 C298 1.271 . S
O309 Sm281 2.464 . S
O309 C298 1.251 . S
O310 Sm281 2.396 . S
O310 C299 1.252 . S
O311 Sm280 2.408 . S
O311 C299 1.272 . S
H312 C284 0.930 . S
H313 C285 0.929 . S
H314 C287 0.930 . S
H315 C288 0.929 . S
H316 C293 0.930 . S
H317 C294 0.929 . S
H318 C296 0.930 . S
H319 C297 0.929 . S
Sm320 C322 2.846 . S
Sm320 O340 2.543 . S
Sm320 O341 2.450 . S
Sm320 O342 2.681 . S
Sm320 O343 2.464 . S
Sm320 O344 2.396 . S
Sm320 O348 2.386 . S
Sm320 O351 2.408 . S
Sm321 C331 2.846 . S
Sm321 O342 2.386 . S
Sm321 O345 2.408 . S
Sm321 O346 2.543 . S
Sm321 O347 2.450 . S
Sm321 O348 2.681 . S
Sm321 O349 2.464 . S
Sm321 O350 2.396 . S
C322 Sm320 2.846 . S
C322 C323 1.506 . S
C322 O340 1.261 . S
C322 O341 1.242 . S
C323 C322 1.506 . S
C323 C324 1.358 . S
C323 C328 1.382 . S
C324 C323 1.358 . S
C324 C325 1.385 . S
C324 H352 0.930 . S
C325 C324 1.385 . S
C325 C326 1.395 . S
C325 H353 0.929 . S
C326 C325 1.395 . S
C326 C327 1.335 . S
C327 C326 1.335 . S
C327 C328 1.398 . S
C327 H354 0.930 . S
C328 C323 1.382 . S
C328 C327 1.398 . S
C328 H355 0.929 . S
C329 O342 1.271 . S
C329 O343 1.251 . S
C330 O344 1.252 . S
C330 O345 1.272 . S
C331 Sm321 2.846 . S
C331 C332 1.506 . S
C331 O346 1.261 . S
C331 O347 1.242 . S
C332 C331 1.506 . S
C332 C333 1.358 . S
C332 C337 1.382 . S
C333 C332 1.358 . S
C333 C334 1.385 . S
C333 H356 0.930 . S
C334 C333 1.385 . S
C334 C335 1.395 . S
C334 H357 0.929 . S
C335 C334 1.395 . S
C335 C336 1.335 . S
C336 C335 1.335 . S
C336 C337 1.398 . S
C336 H358 0.930 . S
C337 C332 1.382 . S
C337 C336 1.398 . S
C337 H359 0.929 . S
C338 O348 1.271 . S
C338 O349 1.251 . S
C339 O350 1.252 . S
C339 O351 1.272 . S
O340 Sm320 2.543 . S
O340 C322 1.261 . S
O341 Sm320 2.450 . S
O341 C322 1.242 . S
O342 Sm320 2.681 . S
O342 Sm321 2.386 . S
O342 C329 1.271 . S
O343 Sm320 2.464 . S
O343 C329 1.251 . S
O344 Sm320 2.396 . S
O344 C330 1.252 . S
O345 Sm321 2.408 . S
O345 C330 1.272 . S
O346 Sm321 2.543 . S
O346 C331 1.261 . S
O347 Sm321 2.450 . S
O347 C331 1.242 . S
O348 Sm320 2.386 . S
O348 Sm321 2.681 . S
O348 C338 1.271 . S
O349 Sm321 2.464 . S
O349 C338 1.251 . S
O350 Sm321 2.396 . S
O350 C339 1.252 . S
O351 Sm320 2.408 . S
O351 C339 1.272 . S
H352 C324 0.930 . S
H353 C325 0.929 . S
H354 C327 0.930 . S
H355 C328 0.929 . S
H356 C333 0.930 . S
H357 C334 0.929 . S
H358 C336 0.930 . S
H359 C337 0.929 . S
Sm360 C362 2.846 . S
Sm360 O380 2.543 . S
Sm360 O381 2.450 . S
Sm360 O382 2.681 . S
Sm360 O383 2.464 . S
Sm360 O384 2.396 . S
Sm360 O388 2.386 . S
Sm360 O391 2.408 . S
Sm361 C371 2.846 . S
Sm361 O382 2.386 . S
Sm361 O385 2.408 . S
Sm361 O386 2.543 . S
Sm361 O387 2.450 . S
Sm361 O388 2.681 . S
Sm361 O389 2.464 . S
Sm361 O390 2.396 . S
C362 Sm360 2.846 . S
C362 C363 1.506 . S
C362 O380 1.261 . S
C362 O381 1.242 . S
C363 C362 1.506 . S
C363 C364 1.358 . S
C363 C368 1.382 . S
C364 C363 1.358 . S
C364 C365 1.385 . S
C364 H392 0.930 . S
C365 C364 1.385 . S
C365 C366 1.395 . S
C365 H393 0.929 . S
C366 C365 1.395 . S
C366 C367 1.335 . S
C367 C366 1.335 . S
C367 C368 1.398 . S
C367 H394 0.930 . S
C368 C363 1.382 . S
C368 C367 1.398 . S
C368 H395 0.929 . S
C369 O382 1.271 . S
C369 O383 1.251 . S
C370 O384 1.252 . S
C370 O385 1.272 . S
C371 Sm361 2.846 . S
C371 C372 1.506 . S
C371 O386 1.261 . S
C371 O387 1.242 . S
C372 C371 1.506 . S
C372 C373 1.358 . S
C372 C377 1.382 . S
C373 C372 1.358 . S
C373 C374 1.385 . S
C373 H396 0.930 . S
C374 C373 1.385 . S
C374 C375 1.395 . S
C374 H397 0.929 . S
C375 C374 1.395 . S
C375 C376 1.335 . S
C376 C375 1.335 . S
C376 C377 1.398 . S
C376 H398 0.930 . S
C377 C372 1.382 . S
C377 C376 1.398 . S
C377 H399 0.929 . S
C378 O388 1.271 . S
C378 O389 1.251 . S
C379 O390 1.252 . S
C379 O391 1.272 . S
O380 Sm360 2.543 . S
O380 C362 1.261 . S
O381 Sm360 2.450 . S
O381 C362 1.242 . S
O382 Sm360 2.681 . S
O382 Sm361 2.386 . S
O382 C369 1.271 . S
O383 Sm360 2.464 . S
O383 C369 1.251 . S
O384 Sm360 2.396 . S
O384 C370 1.252 . S
O385 Sm361 2.408 . S
O385 C370 1.272 . S
O386 Sm361 2.543 . S
O386 C371 1.261 . S
O387 Sm361 2.450 . S
O387 C371 1.242 . S
O388 Sm360 2.386 . S
O388 Sm361 2.681 . S
O388 C378 1.271 . S
O389 Sm361 2.464 . S
O389 C378 1.251 . S
O390 Sm361 2.396 . S
O390 C379 1.252 . S
O391 Sm360 2.408 . S
O391 C379 1.272 . S
H392 C364 0.930 . S
H393 C365 0.929 . S
H394 C367 0.930 . S
H395 C368 0.929 . S
H396 C373 0.930 . S
H397 C374 0.929 . S
H398 C376 0.930 . S
H399 C377 0.929 . S
Sm400 C402 2.846 . S
Sm400 O420 2.543 . S
Sm400 O421 2.450 . S
Sm400 O422 2.681 . S
Sm400 O423 2.464 . S
Sm400 O424 2.396 . S
Sm400 O428 2.386 . S
Sm400 O431 2.408 . S
Sm401 C411 2.846 . S
Sm401 O422 2.386 . S
Sm401 O425 2.408 . S
Sm401 O426 2.543 . S
Sm401 O427 2.450 . S
Sm401 O428 2.681 . S
Sm401 O429 2.464 . S
Sm401 O430 2.396 . S
C402 Sm400 2.846 . S
C402 C403 1.506 . S
C402 O420 1.261 . S
C402 O421 1.242 . S
C403 C402 1.506 . S
C403 C404 1.358 . S
C403 C408 1.382 . S
C404 C403 1.358 . S
C404 C405 1.385 . S
C404 H432 0.930 . S
C405 C404 1.385 . S
C405 C406 1.395 . S
C405 H433 0.929 . S
C406 C405 1.395 . S
C406 C407 1.335 . S
C407 C406 1.335 . S
C407 C408 1.398 . S
C407 H434 0.930 . S
C408 C403 1.382 . S
C408 C407 1.398 . S
C408 H435 0.929 . S
C409 O422 1.271 . S
C409 O423 1.251 . S
C410 O424 1.252 . S
C410 O425 1.272 . S
C411 Sm401 2.846 . S
C411 C412 1.506 . S
C411 O426 1.261 . S
C411 O427 1.242 . S
C412 C411 1.506 . S
C412 C413 1.358 . S
C412 C417 1.382 . S
C413 C412 1.358 . S
C413 C414 1.385 . S
C413 H436 0.930 . S
C414 C413 1.385 . S
C414 C415 1.395 . S
C414 H437 0.929 . S
C415 C414 1.395 . S
C415 C416 1.335 . S
C416 C415 1.335 . S
C416 C417 1.398 . S
C416 H438 0.930 . S
C417 C412 1.382 . S
C417 C416 1.398 . S
C417 H439 0.929 . S
C418 O428 1.271 . S
C418 O429 1.251 . S
C419 O430 1.252 . S
C419 O431 1.272 . S
O420 Sm400 2.543 . S
O420 C402 1.261 . S
O421 Sm400 2.450 . S
O421 C402 1.242 . S
O422 Sm400 2.681 . S
O422 Sm401 2.386 . S
O422 C409 1.271 . S
O423 Sm400 2.464 . S
O423 C409 1.251 . S
O424 Sm400 2.396 . S
O424 C410 1.252 . S
O425 Sm401 2.408 . S
O425 C410 1.272 . S
O426 Sm401 2.543 . S
O426 C411 1.261 . S
O427 Sm401 2.450 . S
O427 C411 1.242 . S
O428 Sm400 2.386 . S
O428 Sm401 2.681 . S
O428 C418 1.271 . S
O429 Sm401 2.464 . S
O429 C418 1.251 . S
O430 Sm401 2.396 . S
O430 C419 1.252 . S
O431 Sm400 2.408 . S
O431 C419 1.272 . S
H432 C404 0.930 . S
H433 C405 0.929 . S
H434 C407 0.930 . S
H435 C408 0.929 . S
H436 C413 0.930 . S
H437 C414 0.929 . S
H438 C416 0.930 . S
H439 C417 0.929 . S
Sm440 C442 2.846 . S
Sm440 O460 2.543 . S
Sm440 O461 2.450 . S
Sm440 O462 2.681 . S
Sm440 O463 2.464 . S
Sm440 O464 2.396 . S
Sm440 O468 2.386 . S
Sm440 O471 2.408 . S
Sm441 C451 2.846 . S
Sm441 O462 2.386 . S
Sm441 O465 2.408 . S
Sm441 O466 2.543 . S
Sm441 O467 2.450 . S
Sm441 O468 2.681 . S
Sm441 O469 2.464 . S
Sm441 O470 2.396 . S
C442 Sm440 2.846 . S
C442 C443 1.506 . S
C442 O460 1.261 . S
C442 O461 1.242 . S
C443 C442 1.506 . S
C443 C444 1.358 . S
C443 C448 1.382 . S
C444 C443 1.358 . S
C444 C445 1.385 . S
C444 H472 0.930 . S
C445 C444 1.385 . S
C445 C446 1.395 . S
C445 H473 0.929 . S
C446 C445 1.395 . S
C446 C447 1.335 . S
C447 C446 1.335 . S
C447 C448 1.398 . S
C447 H474 0.930 . S
C448 C443 1.382 . S
C448 C447 1.398 . S
C448 H475 0.929 . S
C449 O462 1.271 . S
C449 O463 1.251 . S
C450 O464 1.252 . S
C450 O465 1.272 . S
C451 Sm441 2.846 . S
C451 C452 1.506 . S
C451 O466 1.261 . S
C451 O467 1.242 . S
C452 C451 1.506 . S
C452 C453 1.358 . S
C452 C457 1.382 . S
C453 C452 1.358 . S
C453 C454 1.385 . S
C453 H476 0.930 . S
C454 C453 1.385 . S
C454 C455 1.395 . S
C454 H477 0.929 . S
C455 C454 1.395 . S
C455 C456 1.335 . S
C456 C455 1.335 . S
C456 C457 1.398 . S
C456 H478 0.930 . S
C457 C452 1.382 . S
C457 C456 1.398 . S
C457 H479 0.929 . S
C458 O468 1.271 . S
C458 O469 1.251 . S
C459 O470 1.252 . S
C459 O471 1.272 . S
O460 Sm440 2.543 . S
O460 C442 1.261 . S
O461 Sm440 2.450 . S
O461 C442 1.242 . S
O462 Sm440 2.681 . S
O462 Sm441 2.386 . S
O462 C449 1.271 . S
O463 Sm440 2.464 . S
O463 C449 1.251 . S
O464 Sm440 2.396 . S
O464 C450 1.252 . S
O465 Sm441 2.408 . S
O465 C450 1.272 . S
O466 Sm441 2.543 . S
O466 C451 1.261 . S
O467 Sm441 2.450 . S
O467 C451 1.242 . S
O468 Sm440 2.386 . S
O468 Sm441 2.681 . S
O468 C458 1.271 . S
O469 Sm441 2.464 . S
O469 C458 1.251 . S
O470 Sm441 2.396 . S
O470 C459 1.252 . S
O471 Sm440 2.408 . S
O471 C459 1.272 . S
H472 C444 0.930 . S
H473 C445 0.929 . S
H474 C447 0.930 . S
H475 C448 0.929 . S
H476 C453 0.930 . S
H477 C454 0.929 . S
H478 C456 0.930 . S
H479 C457 0.929 . S
Sm480 C482 2.846 . S
Sm480 O500 2.543 . S
Sm480 O501 2.450 . S
Sm480 O502 2.681 . S
Sm480 O503 2.464 . S
Sm480 O504 2.396 . S
Sm480 O508 2.386 . S
Sm480 O511 2.408 . S
Sm481 C491 2.846 . S
Sm481 O502 2.386 . S
Sm481 O505 2.408 . S
Sm481 O506 2.543 . S
Sm481 O507 2.450 . S
Sm481 O508 2.681 . S
Sm481 O509 2.464 . S
Sm481 O510 2.396 . S
C482 Sm480 2.846 . S
C482 C483 1.506 . S
C482 O500 1.261 . S
C482 O501 1.242 . S
C483 C482 1.506 . S
C483 C484 1.358 . S
C483 C488 1.382 . S
C484 C483 1.358 . S
C484 C485 1.385 . S
C484 H512 0.930 . S
C485 C484 1.385 . S
C485 C486 1.395 . S
C485 H513 0.929 . S
C486 C485 1.395 . S
C486 C487 1.335 . S
C487 C486 1.335 . S
C487 C488 1.398 . S
C487 H514 0.930 . S
C488 C483 1.382 . S
C488 C487 1.398 . S
C488 H515 0.929 . S
C489 O502 1.271 . S
C489 O503 1.251 . S
C490 O504 1.252 . S
C490 O505 1.272 . S
C491 Sm481 2.846 . S
C491 C492 1.506 . S
C491 O506 1.261 . S
C491 O507 1.242 . S
C492 C491 1.506 . S
C492 C493 1.358 . S
C492 C497 1.382 . S
C493 C492 1.358 . S
C493 C494 1.385 . S
C493 H516 0.930 . S
C494 C493 1.385 . S
C494 C495 1.395 . S
C494 H517 0.929 . S
C495 C494 1.395 . S
C495 C496 1.335 . S
C496 C495 1.335 . S
C496 C497 1.398 . S
C496 H518 0.930 . S
C497 C492 1.382 . S
C497 C496 1.398 . S
C497 H519 0.929 . S
C498 O508 1.271 . S
C498 O509 1.251 . S
C499 O510 1.252 . S
C499 O511 1.272 . S
O500 Sm480 2.543 . S
O500 C482 1.261 . S
O501 Sm480 2.450 . S
O501 C482 1.242 . S
O502 Sm480 2.681 . S
O502 Sm481 2.386 . S
O502 C489 1.271 . S
O503 Sm480 2.464 . S
O503 C489 1.251 . S
O504 Sm480 2.396 . S
O504 C490 1.252 . S
O505 Sm481 2.408 . S
O505 C490 1.272 . S
O506 Sm481 2.543 . S
O506 C491 1.261 . S
O507 Sm481 2.450 . S
O507 C491 1.242 . S
O508 Sm480 2.386 . S
O508 Sm481 2.681 . S
O508 C498 1.271 . S
O509 Sm481 2.464 . S
O509 C498 1.251 . S
O510 Sm481 2.396 . S
O510 C499 1.252 . S
O511 Sm480 2.408 . S
O511 C499 1.272 . S
H512 C484 0.930 . S
H513 C485 0.929 . S
H514 C487 0.930 . S
H515 C488 0.929 . S
H516 C493 0.930 . S
H517 C494 0.929 . S
H518 C496 0.930 . S
H519 C497 0.929 . S
Sm520 C522 2.846 . S
Sm520 O540 2.543 . S
Sm520 O541 2.450 . S
Sm520 O542 2.681 . S
Sm520 O543 2.464 . S
Sm520 O544 2.396 . S
Sm520 O548 2.386 . S
Sm520 O551 2.408 . S
Sm521 C531 2.846 . S
Sm521 O542 2.386 . S
Sm521 O545 2.408 . S
Sm521 O546 2.543 . S
Sm521 O547 2.450 . S
Sm521 O548 2.681 . S
Sm521 O549 2.464 . S
Sm521 O550 2.396 . S
C522 Sm520 2.846 . S
C522 C523 1.506 . S
C522 O540 1.261 . S
C522 O541 1.242 . S
C523 C522 1.506 . S
C523 C524 1.358 . S
C523 C528 1.382 . S
C524 C523 1.358 . S
C524 C525 1.385 . S
C524 H552 0.930 . S
C525 C524 1.385 . S
C525 C526 1.395 . S
C525 H553 0.929 . S
C526 C525 1.395 . S
C526 C527 1.335 . S
C527 C526 1.335 . S
C527 C528 1.398 . S
C527 H554 0.930 . S
C528 C523 1.382 . S
C528 C527 1.398 . S
C528 H555 0.929 . S
C529 O542 1.271 . S
C529 O543 1.251 . S
C530 O544 1.252 . S
C530 O545 1.272 . S
C531 Sm521 2.846 . S
C531 C532 1.506 . S
C531 O546 1.261 . S
C531 O547 1.242 . S
C532 C531 1.506 . S
C532 C533 1.358 . S
C532 C537 1.382 . S
C533 C532 1.358 . S
C533 C534 1.385 . S
C533 H556 0.930 . S
C534 C533 1.385 . S
C534 C535 1.395 . S
C534 H557 0.929 . S
C535 C534 1.395 . S
C535 C536 1.335 . S
C536 C535 1.335 . S
C536 C537 1.398 . S
C536 H558 0.930 . S
C537 C532 1.382 . S
C537 C536 1.398 . S
C537 H559 0.929 . S
C538 O548 1.271 . S
C538 O549 1.251 . S
C539 O550 1.252 . S
C539 O551 1.272 . S
O540 Sm520 2.543 . S
O540 C522 1.261 . S
O541 Sm520 2.450 . S
O541 C522 1.242 . S
O542 Sm520 2.681 . S
O542 Sm521 2.386 . S
O542 C529 1.271 . S
O543 Sm520 2.464 . S
O543 C529 1.251 . S
O544 Sm520 2.396 . S
O544 C530 1.252 . S
O545 Sm521 2.408 . S
O545 C530 1.272 . S
O546 Sm521 2.543 . S
O546 C531 1.261 . S
O547 Sm521 2.450 . S
O547 C531 1.242 . S
O548 Sm520 2.386 . S
O548 Sm521 2.681 . S
O548 C538 1.271 . S
O549 Sm521 2.464 . S
O549 C538 1.251 . S
O550 Sm521 2.396 . S
O550 C539 1.252 . S
O551 Sm520 2.408 . S
O551 C539 1.272 . S
H552 C524 0.930 . S
H553 C525 0.929 . S
H554 C527 0.930 . S
H555 C528 0.929 . S
H556 C533 0.930 . S
H557 C534 0.929 . S
H558 C536 0.930 . S
H559 C537 0.929 . S
Sm560 C562 2.846 . S
Sm560 O580 2.543 . S
Sm560 O581 2.450 . S
Sm560 O582 2.681 . S
Sm560 O583 2.464 . S
Sm560 O584 2.396 . S
Sm560 O588 2.386 . S
Sm560 O591 2.408 . S
Sm561 C571 2.846 . S
Sm561 O582 2.386 . S
Sm561 O585 2.408 . S
Sm561 O586 2.543 . S
Sm561 O587 2.450 . S
Sm561 O588 2.681 . S
Sm561 O589 2.464 . S
Sm561 O590 2.396 . S
C562 Sm560 2.846 . S
C562 C563 1.506 . S
C562 O580 1.261 . S
C562 O581 1.242 . S
C563 C562 1.506 . S
C563 C564 1.358 . S
C563 C568 1.382 . S
C564 C563 1.358 . S
C564 C565 1.385 . S
C564 H592 0.930 . S
C565 C564 1.385 . S
C565 C566 1.395 . S
C565 H593 0.929 . S
C566 C565 1.395 . S
C566 C567 1.335 . S
C567 C566 1.335 . S
C567 C568 1.398 . S
C567 H594 0.930 . S
C568 C563 1.382 . S
C568 C567 1.398 . S
C568 H595 0.929 . S
C569 O582 1.271 . S
C569 O583 1.251 . S
C570 O584 1.252 . S
C570 O585 1.272 . S
C571 Sm561 2.846 . S
C571 C572 1.506 . S
C571 O586 1.261 . S
C571 O587 1.242 . S
C572 C571 1.506 . S
C572 C573 1.358 . S
C572 C577 1.382 . S
C573 C572 1.358 . S
C573 C574 1.385 . S
C573 H596 0.930 . S
C574 C573 1.385 . S
C574 C575 1.395 . S
C574 H597 0.929 . S
C575 C574 1.395 . S
C575 C576 1.335 . S
C576 C575 1.335 . S
C576 C577 1.398 . S
C576 H598 0.930 . S
C577 C572 1.382 . S
C577 C576 1.398 . S
C577 H599 0.929 . S
C578 O588 1.271 . S
C578 O589 1.251 . S
C579 O590 1.252 . S
C579 O591 1.272 . S
O580 Sm560 2.543 . S
O580 C562 1.261 . S
O581 Sm560 2.450 . S
O581 C562 1.242 . S
O582 Sm560 2.681 . S
O582 Sm561 2.386 . S
O582 C569 1.271 . S
O583 Sm560 2.464 . S
O583 C569 1.251 . S
O584 Sm560 2.396 . S
O584 C570 1.252 . S
O585 Sm561 2.408 . S
O585 C570 1.272 . S
O586 Sm561 2.543 . S
O586 C571 1.261 . S
O587 Sm561 2.450 . S
O587 C571 1.242 . S
O588 Sm560 2.386 . S
O588 Sm561 2.681 . S
O588 C578 1.271 . S
O589 Sm561 2.464 . S
O589 C578 1.251 . S
O590 Sm561 2.396 . S
O590 C579 1.252 . S
O591 Sm560 2.408 . S
O591 C579 1.272 . S
H592 C564 0.930 . S
H593 C565 0.929 . S
H594 C567 0.930 . S
H595 C568 0.929 . S
H596 C573 0.930 . S
H597 C574 0.929 . S
H598 C576 0.930 . S
H599 C577 0.929 . S
Sm600 C602 2.846 . S
Sm600 O620 2.543 . S
Sm600 O621 2.450 . S
Sm600 O622 2.681 . S
Sm600 O623 2.464 . S
Sm600 O624 2.396 . S
Sm600 O628 2.386 . S
Sm600 O631 2.408 . S
Sm601 C611 2.846 . S
Sm601 O622 2.386 . S
Sm601 O625 2.408 . S
Sm601 O626 2.543 . S
Sm601 O627 2.450 . S
Sm601 O628 2.681 . S
Sm601 O629 2.464 . S
Sm601 O630 2.396 . S
C602 Sm600 2.846 . S
C602 C603 1.506 . S
C602 O620 1.261 . S
C602 O621 1.242 . S
C603 C602 1.506 . S
C603 C604 1.358 . S
C603 C608 1.382 . S
C604 C603 1.358 . S
C604 C605 1.385 . S
C604 H632 0.930 . S
C605 C604 1.385 . S
C605 C606 1.395 . S
C605 H633 0.929 . S
C606 C605 1.395 . S
C606 C607 1.335 . S
C607 C606 1.335 . S
C607 C608 1.398 . S
C607 H634 0.930 . S
C608 C603 1.382 . S
C608 C607 1.398 . S
C608 H635 0.929 . S
C609 O622 1.271 . S
C609 O623 1.251 . S
C610 O624 1.252 . S
C610 O625 1.272 . S
C611 Sm601 2.846 . S
C611 C612 1.506 . S
C611 O626 1.261 . S
C611 O627 1.242 . S
C612 C611 1.506 . S
C612 C613 1.358 . S
C612 C617 1.382 . S
C613 C612 1.358 . S
C613 C614 1.385 . S
C613 H636 0.930 . S
C614 C613 1.385 . S
C614 C615 1.395 . S
C614 H637 0.929 . S
C615 C614 1.395 . S
C615 C616 1.335 . S
C616 C615 1.335 . S
C616 C617 1.398 . S
C616 H638 0.930 . S
C617 C612 1.382 . S
C617 C616 1.398 . S
C617 H639 0.929 . S
C618 O628 1.271 . S
C618 O629 1.251 . S
C619 O630 1.252 . S
C619 O631 1.272 . S
O620 Sm600 2.543 . S
O620 C602 1.261 . S
O621 Sm600 2.450 . S
O621 C602 1.242 . S
O622 Sm600 2.681 . S
O622 Sm601 2.386 . S
O622 C609 1.271 . S
O623 Sm600 2.464 . S
O623 C609 1.251 . S
O624 Sm600 2.396 . S
O624 C610 1.252 . S
O625 Sm601 2.408 . S
O625 C610 1.272 . S
O626 Sm601 2.543 . S
O626 C611 1.261 . S
O627 Sm601 2.450 . S
O627 C611 1.242 . S
O628 Sm600 2.386 . S
O628 Sm601 2.681 . S
O628 C618 1.271 . S
O629 Sm601 2.464 . S
O629 C618 1.251 . S
O630 Sm601 2.396 . S
O630 C619 1.252 . S
O631 Sm600 2.408 . S
O631 C619 1.272 . S
H632 C604 0.930 . S
H633 C605 0.929 . S
H634 C607 0.930 . S
H635 C608 0.929 . S
H636 C613 0.930 . S
H637 C614 0.929 . S
H638 C616 0.930 . S
H639 C617 0.929 . S
C640 C641 1.391 . S
C640 C642 1.394 . S
C640 H656 0.931 . S
C641 C640 1.391 . S
C641 C645 1.376 . S
C642 C640 1.394 . S
C642 C643 1.369 . S
C642 C646 1.531 . S
C643 C642 1.369 . S
C643 C644 1.410 . S
C643 C651 1.503 . S
C644 C643 1.410 . S
C644 C645 1.392 . S
C644 C647 1.511 . S
C645 C641 1.376 . S
C645 C644 1.392 . S
C645 H657 0.929 . S
C646 C642 1.531 . S
C646 H658 0.960 . S
C646 H659 0.962 . S
C646 H660 0.960 . S
C647 C644 1.511 . S
C647 H661 0.961 . S
C647 H662 0.961 . S
C647 H663 0.961 . S
C648 C649 1.370 . S
C648 C650 1.363 1_545 S
C648 H664 0.931 . S
C649 C648 1.370 . S
C649 C653 1.408 . S
C650 C648 1.363 1_565 S
C650 C651 1.370 . S
C650 C654 1.524 . S
C651 C643 1.503 . S
C651 C650 1.370 . S
C651 C652 1.403 1_565 S
C652 C651 1.403 1_545 S
C652 C653 1.404 . S
C652 C655 1.539 1_545 S
C653 C649 1.408 . S
C653 C652 1.404 . S
C653 H665 0.930 . S
C654 C650 1.524 . S
C654 H666 0.956 . S
C654 H667 0.961 . S
C654 H668 0.961 . S
C655 C652 1.539 1_565 S
C655 H669 0.958 . S
C655 H670 0.961 1_565 S
C655 H671 0.960 . S
H656 C640 0.931 . S
H657 C645 0.929 . S
H658 C646 0.960 . S
H659 C646 0.962 . S
H660 C646 0.960 . S
H661 C647 0.961 . S
H662 C647 0.961 . S
H663 C647 0.961 . S
H664 C648 0.931 . S
H665 C653 0.930 . S
H666 C654 0.956 . S
H667 C654 0.961 . S
H668 C654 0.961 . S
H669 C655 0.958 . S
H670 C655 0.961 1_545 S
H671 C655 0.960 . S
C672 C673 1.391 . S
C672 C674 1.394 . S
C672 H688 0.931 . S
C673 C672 1.391 . S
C673 C677 1.376 . S
C674 C672 1.394 . S
C674 C675 1.369 . S
C674 C678 1.531 . S
C675 C674 1.369 . S
C675 C676 1.410 . S
C675 C683 1.503 . S
C676 C675 1.410 . S
C676 C677 1.392 . S
C676 C679 1.511 . S
C677 C673 1.376 . S
C677 C676 1.392 . S
C677 H689 0.929 . S
C678 C674 1.531 . S
C678 H690 0.960 . S
C678 H691 0.962 . S
C678 H692 0.960 . S
C679 C676 1.511 . S
C679 H693 0.961 . S
C679 H694 0.961 . S
C679 H695 0.961 . S
C680 C681 1.370 . S
C680 C682 1.363 1_455 S
C680 H696 0.931 . S
C681 C680 1.370 . S
C681 C685 1.408 . S
C682 C680 1.363 1_655 S
C682 C683 1.370 . S
C682 C686 1.524 . S
C683 C675 1.503 . S
C683 C682 1.370 . S
C683 C684 1.403 1_655 S
C684 C683 1.403 1_455 S
C684 C685 1.404 . S
C684 C687 1.539 . S
C685 C681 1.408 . S
C685 C684 1.404 . S
C685 H697 0.930 . S
C686 C682 1.524 . S
C686 H698 0.956 . S
C686 H699 0.961 . S
C686 H700 0.961 . S
C687 C684 1.539 . S
C687 H701 0.958 1_455 S
C687 H702 0.961 . S
C687 H703 0.960 1_455 S
H688 C672 0.931 . S
H689 C677 0.929 . S
H690 C678 0.960 . S
H691 C678 0.962 . S
H692 C678 0.960 . S
H693 C679 0.961 . S
H694 C679 0.961 . S
H695 C679 0.961 . S
H696 C680 0.931 . S
H697 C685 0.930 . S
H698 C686 0.956 . S
H699 C686 0.961 . S
H700 C686 0.961 . S
H701 C687 0.958 1_655 S
H702 C687 0.961 . S
H703 C687 0.960 1_655 S
C704 C705 1.391 . S
C704 C706 1.394 1_565 S
C704 H720 0.931 . S
C705 C704 1.391 . S
C705 C709 1.376 . S
C706 C704 1.394 1_545 S
C706 C707 1.369 . S
C706 C710 1.531 . S
C707 C706 1.369 . S
C707 C708 1.410 1_545 S
C707 C715 1.503 . S
C708 C707 1.410 1_565 S
C708 C709 1.392 . S
C708 C711 1.511 . S
C709 C705 1.376 . S
C709 C708 1.392 . S
C709 H721 0.929 . S
C710 C706 1.531 . S
C710 H722 0.960 . S
C710 H723 0.962 . S
C710 H724 0.960 . S
C711 C708 1.511 . S
C711 H725 0.961 . S
C711 H726 0.961 1_565 S
C711 H727 0.961 . S
C712 C713 1.370 . S
C712 C714 1.363 . S
C712 H728 0.931 . S
C713 C712 1.370 . S
C713 C717 1.408 . S
C714 C712 1.363 . S
C714 C715 1.370 . S
C714 C718 1.524 . S
C715 C707 1.503 . S
C715 C714 1.370 . S
C715 C716 1.403 . S
C716 C715 1.403 . S
C716 C717 1.404 . S
C716 C719 1.539 . S
C717 C713 1.408 . S
C717 C716 1.404 . S
C717 H729 0.930 . S
C718 C714 1.524 . S
C718 H730 0.956 . S
C718 H731 0.961 . S
C718 H732 0.961 . S
C719 C716 1.539 . S
C719 H733 0.958 . S
C719 H734 0.961 . S
C719 H735 0.960 . S
H720 C704 0.931 . S
H721 C709 0.929 . S
H722 C710 0.960 . S
H723 C710 0.962 . S
H724 C710 0.960 . S
H725 C711 0.961 . S
H726 C711 0.961 1_545 S
H727 C711 0.961 . S
H728 C712 0.931 . S
H729 C717 0.930 . S
H730 C718 0.956 . S
H731 C718 0.961 . S
H732 C718 0.961 . S
H733 C719 0.958 . S
H734 C719 0.961 . S
H735 C719 0.960 . S
C736 C737 1.391 . S
C736 C738 1.394 1_655 S
C736 H752 0.931 . S
C737 C736 1.391 . S
C737 C741 1.376 . S
C738 C736 1.394 1_455 S
C738 C739 1.369 . S
C738 C742 1.531 . S
C739 C738 1.369 . S
C739 C740 1.410 1_455 S
C739 C747 1.503 . S
C740 C739 1.410 1_655 S
C740 C741 1.392 . S
C740 C743 1.511 1_655 S
C741 C737 1.376 . S
C741 C740 1.392 . S
C741 H753 0.929 . S
C742 C738 1.531 . S
C742 H754 0.960 . S
C742 H755 0.962 . S
C742 H756 0.960 . S
C743 C740 1.511 1_455 S
C743 H757 0.961 1_455 S
C743 H758 0.961 . S
C743 H759 0.961 1_455 S
C744 C745 1.370 . S
C744 C746 1.363 . S
C744 H760 0.931 . S
C745 C744 1.370 . S
C745 C749 1.408 . S
C746 C744 1.363 . S
C746 C747 1.370 . S
C746 C750 1.524 . S
C747 C739 1.503 . S
C747 C746 1.370 . S
C747 C748 1.403 . S
C748 C747 1.403 . S
C748 C749 1.404 . S
C748 C751 1.539 . S
C749 C745 1.408 . S
C749 C748 1.404 . S
C749 H761 0.930 . S
C750 C746 1.524 . S
C750 H762 0.956 . S
C750 H763 0.961 . S
C750 H764 0.961 . S
C751 C748 1.539 . S
C751 H765 0.958 . S
C751 H766 0.961 . S
C751 H767 0.960 . S
H752 C736 0.931 . S
H753 C741 0.929 . S
H754 C742 0.960 . S
H755 C742 0.962 . S
H756 C742 0.960 . S
H757 C743 0.961 1_655 S
H758 C743 0.961 . S
H759 C743 0.961 1_655 S
H760 C744 0.931 . S
H761 C749 0.930 . S
H762 C750 0.956 . S
H763 C750 0.961 . S
H764 C750 0.961 . S
H765 C751 0.958 . S
H766 C751 0.961 . S
H767 C751 0.960 . S
C768 C769 1.391 . S
C768 C770 1.394 . S
C768 H784 0.931 . S
C769 C768 1.391 . S
C769 C773 1.376 . S
C770 C768 1.394 . S
C770 C771 1.369 . S
C770 C774 1.531 . S
C771 C770 1.369 . S
C771 C772 1.410 . S
C771 C779 1.503 . S
C772 C771 1.410 . S
C772 C773 1.392 . S
C772 C775 1.511 . S
C773 C769 1.376 . S
C773 C772 1.392 . S
C773 H785 0.929 . S
C774 C770 1.531 . S
C774 H786 0.960 . S
C774 H787 0.962 . S
C774 H788 0.960 . S
C775 C772 1.511 . S
C775 H789 0.961 . S
C775 H790 0.961 . S
C775 H791 0.961 . S
C776 C777 1.370 . S
C776 C778 1.363 . S
C776 H792 0.931 . S
C777 C776 1.370 . S
C777 C781 1.408 1_556 S
C778 C776 1.363 . S
C778 C779 1.370 1_556 S
C778 C782 1.524 . S
C779 C771 1.503 . S
C779 C778 1.370 1_554 S
C779 C780 1.403 . S
C780 C779 1.403 . S
C780 C781 1.404 . S
C780 C783 1.539 . S
C781 C777 1.408 1_554 S
C781 C780 1.404 . S
C781 H793 0.930 . S
C782 C778 1.524 . S
C782 H794 0.956 . S
C782 H795 0.961 . S
C782 H796 0.961 . S
C783 C780 1.539 . S
C783 H797 0.958 . S
C783 H798 0.961 . S
C783 H799 0.960 . S
H784 C768 0.931 . S
H785 C773 0.929 . S
H786 C774 0.960 . S
H787 C774 0.962 . S
H788 C774 0.960 . S
H789 C775 0.961 . S
H790 C775 0.961 . S
H791 C775 0.961 . S
H792 C776 0.931 . S
H793 C781 0.930 . S
H794 C782 0.956 . S
H795 C782 0.961 . S
H796 C782 0.961 . S
H797 C783 0.958 . S
H798 C783 0.961 . S
H799 C783 0.960 . S
C800 C801 1.391 . S
C800 C802 1.394 . S
C800 H816 0.931 . S
C801 C800 1.391 . S
C801 C805 1.376 1_554 S
C802 C800 1.394 . S
C802 C803 1.369 1_554 S
C802 C806 1.531 . S
C803 C802 1.369 1_556 S
C803 C804 1.410 . S
C803 C811 1.503 . S
C804 C803 1.410 . S
C804 C805 1.392 . S
C804 C807 1.511 . S
C805 C801 1.376 1_556 S
C805 C804 1.392 . S
C805 H817 0.929 . S
C806 C802 1.531 . S
C806 H818 0.960 . S
C806 H819 0.962 . S
C806 H820 0.960 . S
C807 C804 1.511 . S
C807 H821 0.961 . S
C807 H822 0.961 . S
C807 H823 0.961 . S
C808 C809 1.370 . S
C808 C810 1.363 . S
C808 H824 0.931 . S
C809 C808 1.370 . S
C809 C813 1.408 . S
C810 C808 1.363 . S
C810 C811 1.370 . S
C810 C814 1.524 . S
C811 C803 1.503 . S
C811 C810 1.370 . S
C811 C812 1.403 . S
C812 C811 1.403 . S
C812 C813 1.404 . S
C812 C815 1.539 . S
C813 C809 1.408 . S
C813 C812 1.404 . S
C813 H825 0.930 . S
C814 C810 1.524 . S
C814 H826 0.956 1_556 S
C814 H827 0.961 . S
C814 H828 0.961 . S
C815 C812 1.539 . S
C815 H829 0.958 . S
C815 H830 0.961 . S
C815 H831 0.960 . S
H816 C800 0.931 . S
H817 C805 0.929 . S
H818 C806 0.960 . S
H819 C806 0.962 . S
H820 C806 0.960 . S
H821 C807 0.961 . S
H822 C807 0.961 . S
H823 C807 0.961 . S
H824 C808 0.931 . S
H825 C813 0.930 . S
H826 C814 0.956 1_554 S
H827 C814 0.961 . S
H828 C814 0.961 . S
H829 C815 0.958 . S
H830 C815 0.961 . S
H831 C815 0.960 . S
C832 C833 1.391 . S
C832 C834 1.394 . S
C832 H848 0.931 . S
C833 C832 1.391 . S
C833 C837 1.376 . S
C834 C832 1.394 . S
C834 C835 1.369 . S
C834 C838 1.531 . S
C835 C834 1.369 . S
C835 C836 1.410 . S
C835 C843 1.503 . S
C836 C835 1.410 . S
C836 C837 1.392 . S
C836 C839 1.511 . S
C837 C833 1.376 . S
C837 C836 1.392 . S
C837 H849 0.929 . S
C838 C834 1.531 . S
C838 H850 0.960 . S
C838 H851 0.962 . S
C838 H852 0.960 . S
C839 C836 1.511 . S
C839 H853 0.961 . S
C839 H854 0.961 . S
C839 H855 0.961 . S
C840 C841 1.370 . S
C840 C842 1.363 . S
C840 H856 0.931 . S
C841 C840 1.370 . S
C841 C845 1.408 1_556 S
C842 C840 1.363 . S
C842 C843 1.370 1_556 S
C842 C846 1.524 . S
C843 C835 1.503 . S
C843 C842 1.370 1_554 S
C843 C844 1.403 . S
C844 C843 1.403 . S
C844 C845 1.404 . S
C844 C847 1.539 . S
C845 C841 1.408 1_554 S
C845 C844 1.404 . S
C845 H857 0.930 . S
C846 C842 1.524 . S
C846 H858 0.956 . S
C846 H859 0.961 . S
C846 H860 0.961 . S
C847 C844 1.539 . S
C847 H861 0.958 . S
C847 H862 0.961 . S
C847 H863 0.960 . S
H848 C832 0.931 . S
H849 C837 0.929 . S
H850 C838 0.960 . S
H851 C838 0.962 . S
H852 C838 0.960 . S
H853 C839 0.961 . S
H854 C839 0.961 . S
H855 C839 0.961 . S
H856 C840 0.931 . S
H857 C845 0.930 . S
H858 C846 0.956 . S
H859 C846 0.961 . S
H860 C846 0.961 . S
H861 C847 0.958 . S
H862 C847 0.961 . S
H863 C847 0.960 . S
C864 C865 1.391 1_556 S
C864 C866 1.394 . S
C864 H880 0.931 . S
C865 C864 1.391 1_554 S
C865 C869 1.376 . S
C866 C864 1.394 . S
C866 C867 1.369 . S
C866 C870 1.531 . S
C867 C866 1.369 . S
C867 C868 1.410 1_556 S
C867 C875 1.503 . S
C868 C867 1.410 1_554 S
C868 C869 1.392 . S
C868 C871 1.511 . S
C869 C865 1.376 . S
C869 C868 1.392 . S
C869 H881 0.929 . S
C870 C866 1.531 . S
C870 H882 0.960 . S
C870 H883 0.962 . S
C870 H884 0.960 . S
C871 C868 1.511 . S
C871 H885 0.961 . S
C871 H886 0.961 . S
C871 H887 0.961 . S
C872 C873 1.370 . S
C872 C874 1.363 . S
C872 H888 0.931 . S
C873 C872 1.370 . S
C873 C877 1.408 . S
C874 C872 1.363 . S
C874 C875 1.370 . S
C874 C878 1.524 . S
C875 C867 1.503 . S
C875 C874 1.370 . S
C875 C876 1.403 . S
C876 C875 1.403 . S
C876 C877 1.404 . S
C876 C879 1.539 . S
C877 C873 1.408 . S
C877 C876 1.404 . S
C877 H889 0.930 . S
C878 C874 1.524 . S
C878 H890 0.956 . S
C878 H891 0.961 1_556 S
C878 H892 0.961 . S
C879 C876 1.539 . S
C879 H893 0.958 . S
C879 H894 0.961 . S
C879 H895 0.960 . S
H880 C864 0.931 . S
H881 C869 0.929 . S
H882 C870 0.960 . S
H883 C870 0.962 . S
H884 C870 0.960 . S
H885 C871 0.961 . S
H886 C871 0.961 . S
H887 C871 0.961 . S
H888 C872 0.931 . S
H889 C877 0.930 . S
H890 C878 0.956 . S
H891 C878 0.961 1_554 S
H892 C878 0.961 . S
H893 C879 0.958 . S
H894 C879 0.961 . S
H895 C879 0.960 . S
C896 C897 1.391 . S
C896 C898 1.394 . S
C896 H912 0.931 . S
C897 C896 1.391 . S
C897 C901 1.376 . S
C898 C896 1.394 . S
C898 C899 1.369 . S
C898 C902 1.531 . S
C899 C898 1.369 . S
C899 C900 1.410 . S
C899 C907 1.503 . S
C900 C899 1.410 . S
C900 C901 1.392 . S
C900 C903 1.511 . S
C901 C897 1.376 . S
C901 C900 1.392 . S
C901 H913 0.929 . S
C902 C898 1.531 . S
C902 H914 0.960 . S
C902 H915 0.962 . S
C902 H916 0.960 . S
C903 C900 1.511 . S
C903 H917 0.961 . S
C903 H918 0.961 . S
C903 H919 0.961 . S
C904 C905 1.370 . S
C904 C906 1.363 . S
C904 H920 0.931 . S
C905 C904 1.370 . S
C905 C909 1.408 . S
C906 C904 1.363 . S
C906 C907 1.370 . S
C906 C910 1.524 . S
C907 C899 1.503 . S
C907 C906 1.370 . S
C907 C908 1.403 . S
C908 C907 1.403 . S
C908 C909 1.404 . S
C908 C911 1.539 . S
C909 C905 1.408 . S
C909 C908 1.404 . S
C909 H921 0.930 . S
C910 C906 1.524 . S
C910 H922 0.956 . S
C910 H923 0.961 . S
C910 H924 0.961 . S
C911 C908 1.539 . S
C911 H925 0.958 . S
C911 H926 0.961 . S
C911 H927 0.960 . S
H912 C896 0.931 . S
H913 C901 0.929 . S
H914 C902 0.960 . S
H915 C902 0.962 . S
H916 C902 0.960 . S
H917 C903 0.961 . S
H918 C903 0.961 . S
H919 C903 0.961 . S
H920 C904 0.931 . S
H921 C909 0.930 . S
H922 C910 0.956 . S
H923 C910 0.961 . S
H924 C910 0.961 . S
H925 C911 0.958 . S
H926 C911 0.961 . S
H927 C911 0.960 . S
C928 C929 1.391 . S
C928 C930 1.394 . S
C928 H944 0.931 . S
C929 C928 1.391 . S
C929 C933 1.376 . S
C930 C928 1.394 . S
C930 C931 1.369 . S
C930 C934 1.531 . S
C931 C930 1.369 . S
C931 C932 1.410 . S
C931 C939 1.503 . S
C932 C931 1.410 . S
C932 C933 1.392 . S
C932 C935 1.511 . S
C933 C929 1.376 . S
C933 C932 1.392 . S
C933 H945 0.929 . S
C934 C930 1.531 . S
C934 H946 0.960 . S
C934 H947 0.962 . S
C934 H948 0.960 . S
C935 C932 1.511 . S
C935 H949 0.961 . S
C935 H950 0.961 . S
C935 H951 0.961 . S
C936 C937 1.370 . S
C936 C938 1.363 . S
C936 H952 0.931 . S
C937 C936 1.370 . S
C937 C941 1.408 . S
C938 C936 1.363 . S
C938 C939 1.370 . S
C938 C942 1.524 . S
C939 C931 1.503 . S
C939 C938 1.370 . S
C939 C940 1.403 . S
C940 C939 1.403 . S
C940 C941 1.404 . S
C940 C943 1.539 . S
C941 C937 1.408 . S
C941 C940 1.404 . S
C941 H953 0.930 . S
C942 C938 1.524 . S
C942 H954 0.956 . S
C942 H955 0.961 . S
C942 H956 0.961 . S
C943 C940 1.539 . S
C943 H957 0.958 . S
C943 H958 0.961 . S
C943 H959 0.960 . S
H944 C928 0.931 . S
H945 C933 0.929 . S
H946 C934 0.960 . S
H947 C934 0.962 . S
H948 C934 0.960 . S
H949 C935 0.961 . S
H950 C935 0.961 . S
H951 C935 0.961 . S
H952 C936 0.931 . S
H953 C941 0.930 . S
H954 C942 0.956 . S
H955 C942 0.961 . S
H956 C942 0.961 . S
H957 C943 0.958 . S
H958 C943 0.961 . S
H959 C943 0.960 . S
C960 C961 1.391 . S
C960 C962 1.394 . S
C960 H976 0.931 . S
C961 C960 1.391 . S
C961 C965 1.376 . S
C962 C960 1.394 . S
C962 C963 1.369 . S
C962 C966 1.531 . S
C963 C962 1.369 . S
C963 C964 1.410 . S
C963 C971 1.503 . S
C964 C963 1.410 . S
C964 C965 1.392 . S
C964 C967 1.511 . S
C965 C961 1.376 . S
C965 C964 1.392 . S
C965 H977 0.929 . S
C966 C962 1.531 . S
C966 H978 0.960 . S
C966 H979 0.962 . S
C966 H980 0.960 . S
C967 C964 1.511 . S
C967 H981 0.961 . S
C967 H982 0.961 . S
C967 H983 0.961 . S
C968 C969 1.370 . S
C968 C970 1.363 . S
C968 H984 0.931 . S
C969 C968 1.370 . S
C969 C973 1.408 . S
C970 C968 1.363 . S
C970 C971 1.370 . S
C970 C974 1.524 . S
C971 C963 1.503 . S
C971 C970 1.370 . S
C971 C972 1.403 . S
C972 C971 1.403 . S
C972 C973 1.404 . S
C972 C975 1.539 . S
C973 C969 1.408 . S
C973 C972 1.404 . S
C973 H985 0.930 . S
C974 C970 1.524 . S
C974 H986 0.956 . S
C974 H987 0.961 . S
C974 H988 0.961 . S
C975 C972 1.539 . S
C975 H989 0.958 . S
C975 H990 0.961 . S
C975 H991 0.960 . S
H976 C960 0.931 . S
H977 C965 0.929 . S
H978 C966 0.960 . S
H979 C966 0.962 . S
H980 C966 0.960 . S
H981 C967 0.961 . S
H982 C967 0.961 . S
H983 C967 0.961 . S
H984 C968 0.931 . S
H985 C973 0.930 . S
H986 C974 0.956 . S
H987 C974 0.961 . S
H988 C974 0.961 . S
H989 C975 0.958 . S
H990 C975 0.961 . S
H991 C975 0.960 . S
C992 C993 1.391 . S
C992 C994 1.394 . S
C992 H1008 0.931 . S
C993 C992 1.391 . S
C993 C997 1.376 . S
C994 C992 1.394 . S
C994 C995 1.369 . S
C994 C998 1.531 . S
C995 C994 1.369 . S
C995 C996 1.410 . S
C995 C1003 1.503 . S
C996 C995 1.410 . S
C996 C997 1.392 . S
C996 C999 1.511 . S
C997 C993 1.376 . S
C997 C996 1.392 . S
C997 H1009 0.929 . S
C998 C994 1.531 . S
C998 H1010 0.960 . S
C998 H1011 0.962 . S
C998 H1012 0.960 . S
C999 C996 1.511 . S
C999 H1013 0.961 . S
C999 H1014 0.961 . S
C999 H1015 0.961 . S
C1000 C1001 1.370 . S
C1000 C1002 1.363 . S
C1000 H1016 0.931 . S
C1001 C1000 1.370 . S
C1001 C1005 1.408 . S
C1002 C1000 1.363 . S
C1002 C1003 1.370 . S
C1002 C1006 1.524 . S
C1003 C995 1.503 . S
C1003 C1002 1.370 . S
C1003 C1004 1.403 . S
C1004 C1003 1.403 . S
C1004 C1005 1.404 . S
C1004 C1007 1.539 . S
C1005 C1001 1.408 . S
C1005 C1004 1.404 . S
C1005 H1017 0.930 . S
C1006 C1002 1.524 . S
C1006 H1018 0.956 . S
C1006 H1019 0.961 . S
C1006 H1020 0.961 . S
C1007 C1004 1.539 . S
C1007 H1021 0.958 . S
C1007 H1022 0.961 . S
C1007 H1023 0.960 . S
H1008 C992 0.931 . S
H1009 C997 0.929 . S
H1010 C998 0.960 . S
H1011 C998 0.962 . S
H1012 C998 0.960 . S
H1013 C999 0.961 . S
H1014 C999 0.961 . S
H1015 C999 0.961 . S
H1016 C1000 0.931 . S
H1017 C1005 0.930 . S
H1018 C1006 0.956 . S
H1019 C1006 0.961 . S
H1020 C1006 0.961 . S
H1021 C1007 0.958 . S
H1022 C1007 0.961 . S
H1023 C1007 0.960 . S
C1024 C1025 1.391 . S
C1024 C1026 1.394 . S
C1024 H1040 0.931 . S
C1025 C1024 1.391 . S
C1025 C1029 1.376 . S
C1026 C1024 1.394 . S
C1026 C1027 1.369 1_565 S
C1026 C1030 1.531 1_565 S
C1027 C1026 1.369 1_545 S
C1027 C1028 1.410 . S
C1027 C1035 1.503 . S
C1028 C1027 1.410 . S
C1028 C1029 1.392 1_545 S
C1028 C1031 1.511 . S
C1029 C1025 1.376 . S
C1029 C1028 1.392 1_565 S
C1029 H1041 0.929 . S
C1030 C1026 1.531 1_545 S
C1030 H1042 0.960 . S
C1030 H1043 0.962 . S
C1030 H1044 0.960 1_545 S
C1031 C1028 1.511 . S
C1031 H1045 0.961 . S
C1031 H1046 0.961 . S
C1031 H1047 0.961 . S
C1032 C1033 1.370 . S
C1032 C1034 1.363 . S
C1032 H1048 0.931 . S
C1033 C1032 1.370 . S
C1033 C1037 1.408 . S
C1034 C1032 1.363 . S
C1034 C1035 1.370 . S
C1034 C1038 1.524 . S
C1035 C1027 1.503 . S
C1035 C1034 1.370 . S
C1035 C1036 1.403 . S
C1036 C1035 1.403 . S
C1036 C1037 1.404 . S
C1036 C1039 1.539 . S
C1037 C1033 1.408 . S
C1037 C1036 1.404 . S
C1037 H1049 0.930 . S
C1038 C1034 1.524 . S
C1038 H1050 0.956 . S
C1038 H1051 0.961 . S
C1038 H1052 0.961 . S
C1039 C1036 1.539 . S
C1039 H1053 0.958 . S
C1039 H1054 0.961 . S
C1039 H1055 0.960 . S
H1040 C1024 0.931 . S
H1041 C1029 0.929 . S
H1042 C1030 0.960 . S
H1043 C1030 0.962 . S
H1044 C1030 0.960 1_565 S
H1045 C1031 0.961 . S
H1046 C1031 0.961 . S
H1047 C1031 0.961 . S
H1048 C1032 0.931 . S
H1049 C1037 0.930 . S
H1050 C1038 0.956 . S
H1051 C1038 0.961 . S
H1052 C1038 0.961 . S
H1053 C1039 0.958 . S
H1054 C1039 0.961 . S
H1055 C1039 0.960 . S
C1056 C1057 1.391 . S
C1056 C1058 1.394 . S
C1056 H1072 0.931 . S
C1057 C1056 1.391 . S
C1057 C1061 1.376 . S
C1058 C1056 1.394 . S
C1058 C1059 1.369 . S
C1058 C1062 1.531 . S
C1059 C1058 1.369 . S
C1059 C1060 1.410 . S
C1059 C1067 1.503 . S
C1060 C1059 1.410 . S
C1060 C1061 1.392 . S
C1060 C1063 1.511 . S
C1061 C1057 1.376 . S
C1061 C1060 1.392 . S
C1061 H1073 0.929 . S
C1062 C1058 1.531 . S
C1062 H1074 0.960 . S
C1062 H1075 0.962 . S
C1062 H1076 0.960 . S
C1063 C1060 1.511 . S
C1063 H1077 0.961 . S
C1063 H1078 0.961 . S
C1063 H1079 0.961 . S
C1064 C1065 1.370 . S
C1064 C1066 1.363 . S
C1064 H1080 0.931 . S
C1065 C1064 1.370 . S
C1065 C1069 1.408 . S
C1066 C1064 1.363 . S
C1066 C1067 1.370 1_655 S
C1066 C1070 1.524 . S
C1067 C1059 1.503 . S
C1067 C1066 1.370 1_455 S
C1067 C1068 1.403 . S
C1068 C1067 1.403 . S
C1068 C1069 1.404 1_455 S
C1068 C1071 1.539 . S
C1069 C1065 1.408 . S
C1069 C1068 1.404 1_655 S
C1069 H1081 0.930 . S
C1070 C1066 1.524 . S
C1070 H1082 0.956 1_655 S
C1070 H1083 0.961 1_655 S
C1070 H1084 0.961 . S
C1071 C1068 1.539 . S
C1071 H1085 0.958 . S
C1071 H1086 0.961 . S
C1071 H1087 0.960 . S
H1072 C1056 0.931 . S
H1073 C1061 0.929 . S
H1074 C1062 0.960 . S
H1075 C1062 0.962 . S
H1076 C1062 0.960 . S
H1077 C1063 0.961 . S
H1078 C1063 0.961 . S
H1079 C1063 0.961 . S
H1080 C1064 0.931 . S
H1081 C1069 0.930 . S
H1082 C1070 0.956 1_455 S
H1083 C1070 0.961 1_455 S
H1084 C1070 0.961 . S
H1085 C1071 0.958 . S
H1086 C1071 0.961 . S
H1087 C1071 0.960 . S
C1088 C1089 1.391 . S
C1088 C1090 1.394 . S
C1088 H1104 0.931 . S
C1089 C1088 1.391 . S
C1089 C1093 1.376 . S
C1090 C1088 1.394 . S
C1090 C1091 1.369 . S
C1090 C1094 1.531 . S
C1091 C1090 1.369 . S
C1091 C1092 1.410 . S
C1091 C1099 1.503 . S
C1092 C1091 1.410 . S
C1092 C1093 1.392 . S
C1092 C1095 1.511 . S
C1093 C1089 1.376 . S
C1093 C1092 1.392 . S
C1093 H1105 0.929 . S
C1094 C1090 1.531 . S
C1094 H1106 0.960 . S
C1094 H1107 0.962 . S
C1094 H1108 0.960 . S
C1095 C1092 1.511 . S
C1095 H1109 0.961 . S
C1095 H1110 0.961 . S
C1095 H1111 0.961 . S
C1096 C1097 1.370 . S
C1096 C1098 1.363 1_545 S
C1096 H1112 0.931 . S
C1097 C1096 1.370 . S
C1097 C1101 1.408 . S
C1098 C1096 1.363 1_565 S
C1098 C1099 1.370 . S
C1098 C1102 1.524 . S
C1099 C1091 1.503 . S
C1099 C1098 1.370 . S
C1099 C1100 1.403 1_565 S
C1100 C1099 1.403 1_545 S
C1100 C1101 1.404 . S
C1100 C1103 1.539 . S
C1101 C1097 1.408 . S
C1101 C1100 1.404 . S
C1101 H1113 0.930 . S
C1102 C1098 1.524 . S
C1102 H1114 0.956 . S
C1102 H1115 0.961 . S
C1102 H1116 0.961 . S
C1103 C1100 1.539 . S
C1103 H1117 0.958 . S
C1103 H1118 0.961 . S
C1103 H1119 0.960 1_545 S
H1104 C1088 0.931 . S
H1105 C1093 0.929 . S
H1106 C1094 0.960 . S
H1107 C1094 0.962 . S
H1108 C1094 0.960 . S
H1109 C1095 0.961 . S
H1110 C1095 0.961 . S
H1111 C1095 0.961 . S
H1112 C1096 0.931 . S
H1113 C1101 0.930 . S
H1114 C1102 0.956 . S
H1115 C1102 0.961 . S
H1116 C1102 0.961 . S
H1117 C1103 0.958 . S
H1118 C1103 0.961 . S
H1119 C1103 0.960 1_565 S
C1120 C1121 1.391 . S
C1120 C1122 1.394 1_455 S
C1120 H1136 0.931 . S
C1121 C1120 1.391 . S
C1121 C1125 1.376 . S
C1122 C1120 1.394 1_655 S
C1122 C1123 1.369 . S
C1122 C1126 1.531 . S
C1123 C1122 1.369 . S
C1123 C1124 1.410 1_655 S
C1123 C1131 1.503 . S
C1124 C1123 1.410 1_455 S
C1124 C1125 1.392 . S
C1124 C1127 1.511 . S
C1125 C1121 1.376 . S
C1125 C1124 1.392 . S
C1125 H1137 0.929 . S
C1126 C1122 1.531 . S
C1126 H1138 0.960 . S
C1126 H1139 0.962 . S
C1126 H1140 0.960 . S
C1127 C1124 1.511 . S
C1127 H1141 0.961 . S
C1127 H1142 0.961 1_455 S
C1127 H1143 0.961 . S
C1128 C1129 1.370 . S
C1128 C1130 1.363 . S
C1128 H1144 0.931 . S
C1129 C1128 1.370 . S
C1129 C1133 1.408 . S
C1130 C1128 1.363 . S
C1130 C1131 1.370 . S
C1130 C1134 1.524 . S
C1131 C1123 1.503 . S
C1131 C1130 1.370 . S
C1131 C1132 1.403 . S
C1132 C1131 1.403 . S
C1132 C1133 1.404 . S
C1132 C1135 1.539 . S
C1133 C1129 1.408 . S
C1133 C1132 1.404 . S
C1133 H1145 0.930 . S
C1134 C1130 1.524 . S
C1134 H1146 0.956 . S
C1134 H1147 0.961 . S
C1134 H1148 0.961 . S
C1135 C1132 1.539 . S
C1135 H1149 0.958 . S
C1135 H1150 0.961 . S
C1135 H1151 0.960 . S
H1136 C1120 0.931 . S
H1137 C1125 0.929 . S
H1138 C1126 0.960 . S
H1139 C1126 0.962 . S
H1140 C1126 0.960 . S
H1141 C1127 0.961 . S
H1142 C1127 0.961 1_655 S
H1143 C1127 0.961 . S
H1144 C1128 0.931 . S
H1145 C1133 0.930 . S
H1146 C1134 0.956 . S
H1147 C1134 0.961 . S
H1148 C1134 0.961 . S
H1149 C1135 0.958 . S
H1150 C1135 0.961 . S
H1151 C1135 0.960 . S
C1152 C1153 1.391 . S
C1152 C1154 1.394 . S
C1152 H1168 0.931 . S
C1153 C1152 1.391 . S
C1153 C1157 1.376 . S
C1154 C1152 1.394 . S
C1154 C1155 1.369 . S
C1154 C1158 1.531 . S
C1155 C1154 1.369 . S
C1155 C1156 1.410 . S
C1155 C1163 1.503 . S
C1156 C1155 1.410 . S
C1156 C1157 1.392 . S
C1156 C1159 1.511 . S
C1157 C1153 1.376 . S
C1157 C1156 1.392 . S
C1157 H1169 0.929 . S
C1158 C1154 1.531 . S
C1158 H1170 0.960 . S
C1158 H1171 0.962 . S
C1158 H1172 0.960 . S
C1159 C1156 1.511 . S
C1159 H1173 0.961 . S
C1159 H1174 0.961 . S
C1159 H1175 0.961 . S
C1160 C1161 1.370 . S
C1160 C1162 1.363 . S
C1160 H1176 0.931 . S
C1161 C1160 1.370 . S
C1161 C1165 1.408 . S
C1162 C1160 1.363 . S
C1162 C1163 1.370 . S
C1162 C1166 1.524 . S
C1163 C1155 1.503 . S
C1163 C1162 1.370 . S
C1163 C1164 1.403 . S
C1164 C1163 1.403 . S
C1164 C1165 1.404 . S
C1164 C1167 1.539 . S
C1165 C1161 1.408 . S
C1165 C1164 1.404 . S
C1165 H1177 0.930 . S
C1166 C1162 1.524 . S
C1166 H1178 0.956 . S
C1166 H1179 0.961 . S
C1166 H1180 0.961 . S
C1167 C1164 1.539 . S
C1167 H1181 0.958 . S
C1167 H1182 0.961 . S
C1167 H1183 0.960 . S
H1168 C1152 0.931 . S
H1169 C1157 0.929 . S
H1170 C1158 0.960 . S
H1171 C1158 0.962 . S
H1172 C1158 0.960 . S
H1173 C1159 0.961 . S
H1174 C1159 0.961 . S
H1175 C1159 0.961 . S
H1176 C1160 0.931 . S
H1177 C1165 0.930 . S
H1178 C1166 0.956 . S
H1179 C1166 0.961 . S
H1180 C1166 0.961 . S
H1181 C1167 0.958 . S
H1182 C1167 0.961 . S
H1183 C1167 0.960 . S
C1184 C1185 1.391 . S
C1184 C1186 1.394 . S
C1184 H1200 0.931 . S
C1185 C1184 1.391 . S
C1185 C1189 1.376 . S
C1186 C1184 1.394 . S
C1186 C1187 1.369 . S
C1186 C1190 1.531 . S
C1187 C1186 1.369 . S
C1187 C1188 1.410 . S
C1187 C1195 1.503 . S
C1188 C1187 1.410 . S
C1188 C1189 1.392 . S
C1188 C1191 1.511 . S
C1189 C1185 1.376 . S
C1189 C1188 1.392 . S
C1189 H1201 0.929 . S
C1190 C1186 1.531 . S
C1190 H1202 0.960 . S
C1190 H1203 0.962 . S
C1190 H1204 0.960 . S
C1191 C1188 1.511 . S
C1191 H1205 0.961 . S
C1191 H1206 0.961 . S
C1191 H1207 0.961 . S
C1192 C1193 1.370 . S
C1192 C1194 1.363 . S
C1192 H1208 0.931 . S
C1193 C1192 1.370 . S
C1193 C1197 1.408 . S
C1194 C1192 1.363 . S
C1194 C1195 1.370 . S
C1194 C1198 1.524 . S
C1195 C1187 1.503 . S
C1195 C1194 1.370 . S
C1195 C1196 1.403 . S
C1196 C1195 1.403 . S
C1196 C1197 1.404 . S
C1196 C1199 1.539 . S
C1197 C1193 1.408 . S
C1197 C1196 1.404 . S
C1197 H1209 0.930 . S
C1198 C1194 1.524 . S
C1198 H1210 0.956 . S
C1198 H1211 0.961 . S
C1198 H1212 0.961 . S
C1199 C1196 1.539 . S
C1199 H1213 0.958 . S
C1199 H1214 0.961 . S
C1199 H1215 0.960 . S
H1200 C1184 0.931 . S
H1201 C1189 0.929 . S
H1202 C1190 0.960 . S
H1203 C1190 0.962 . S
H1204 C1190 0.960 . S
H1205 C1191 0.961 . S
H1206 C1191 0.961 . S
H1207 C1191 0.961 . S
H1208 C1192 0.931 . S
H1209 C1197 0.930 . S
H1210 C1198 0.956 . S
H1211 C1198 0.961 . S
H1212 C1198 0.961 . S
H1213 C1199 0.958 . S
H1214 C1199 0.961 . S
H1215 C1199 0.960 . S
C1216 C1217 1.391 . S
C1216 C1218 1.394 . S
C1216 H1232 0.931 . S
C1217 C1216 1.391 . S
C1217 C1221 1.376 . S
C1218 C1216 1.394 . S
C1218 C1219 1.369 . S
C1218 C1222 1.531 . S
C1219 C1218 1.369 . S
C1219 C1220 1.410 . S
C1219 C1227 1.503 . S
C1220 C1219 1.410 . S
C1220 C1221 1.392 . S
C1220 C1223 1.511 . S
C1221 C1217 1.376 . S
C1221 C1220 1.392 . S
C1221 H1233 0.929 . S
C1222 C1218 1.531 . S
C1222 H1234 0.960 . S
C1222 H1235 0.962 . S
C1222 H1236 0.960 . S
C1223 C1220 1.511 . S
C1223 H1237 0.961 . S
C1223 H1238 0.961 . S
C1223 H1239 0.961 . S
C1224 C1225 1.370 . S
C1224 C1226 1.363 . S
C1224 H1240 0.931 . S
C1225 C1224 1.370 . S
C1225 C1229 1.408 . S
C1226 C1224 1.363 . S
C1226 C1227 1.370 . S
C1226 C1230 1.524 . S
C1227 C1219 1.503 . S
C1227 C1226 1.370 . S
C1227 C1228 1.403 . S
C1228 C1227 1.403 . S
C1228 C1229 1.404 . S
C1228 C1231 1.539 . S
C1229 C1225 1.408 . S
C1229 C1228 1.404 . S
C1229 H1241 0.930 . S
C1230 C1226 1.524 . S
C1230 H1242 0.956 . S
C1230 H1243 0.961 . S
C1230 H1244 0.961 . S
C1231 C1228 1.539 . S
C1231 H1245 0.958 . S
C1231 H1246 0.961 . S
C1231 H1247 0.960 . S
H1232 C1216 0.931 . S
H1233 C1221 0.929 . S
H1234 C1222 0.960 . S
H1235 C1222 0.962 . S
H1236 C1222 0.960 . S
H1237 C1223 0.961 . S
H1238 C1223 0.961 . S
H1239 C1223 0.961 . S
H1240 C1224 0.931 . S
H1241 C1229 0.930 . S
H1242 C1230 0.956 . S
H1243 C1230 0.961 . S
H1244 C1230 0.961 . S
H1245 C1231 0.958 . S
H1246 C1231 0.961 . S
H1247 C1231 0.960 . S
C1248 C1249 1.391 . S
C1248 C1250 1.394 . S
C1248 H1264 0.931 . S
C1249 C1248 1.391 . S
C1249 C1253 1.376 . S
C1250 C1248 1.394 . S
C1250 C1251 1.369 . S
C1250 C1254 1.531 . S
C1251 C1250 1.369 . S
C1251 C1252 1.410 . S
C1251 C1259 1.503 . S
C1252 C1251 1.410 . S
C1252 C1253 1.392 . S
C1252 C1255 1.511 . S
C1253 C1249 1.376 . S
C1253 C1252 1.392 . S
C1253 H1265 0.929 . S
C1254 C1250 1.531 . S
C1254 H1266 0.960 . S
C1254 H1267 0.962 . S
C1254 H1268 0.960 . S
C1255 C1252 1.511 . S
C1255 H1269 0.961 . S
C1255 H1270 0.961 . S
C1255 H1271 0.961 . S
C1256 C1257 1.370 . S
C1256 C1258 1.363 . S
C1256 H1272 0.931 . S
C1257 C1256 1.370 . S
C1257 C1261 1.408 . S
C1258 C1256 1.363 . S
C1258 C1259 1.370 . S
C1258 C1262 1.524 . S
C1259 C1251 1.503 . S
C1259 C1258 1.370 . S
C1259 C1260 1.403 . S
C1260 C1259 1.403 . S
C1260 C1261 1.404 . S
C1260 C1263 1.539 . S
C1261 C1257 1.408 . S
C1261 C1260 1.404 . S
C1261 H1273 0.930 . S
C1262 C1258 1.524 . S
C1262 H1274 0.956 . S
C1262 H1275 0.961 . S
C1262 H1276 0.961 . S
C1263 C1260 1.539 . S
C1263 H1277 0.958 . S
C1263 H1278 0.961 . S
C1263 H1279 0.960 . S
H1264 C1248 0.931 . S
H1265 C1253 0.929 . S
H1266 C1254 0.960 . S
H1267 C1254 0.962 . S
H1268 C1254 0.960 . S
H1269 C1255 0.961 . S
H1270 C1255 0.961 . S
H1271 C1255 0.961 . S
H1272 C1256 0.931 . S
H1273 C1261 0.930 . S
H1274 C1262 0.956 . S
H1275 C1262 0.961 . S
H1276 C1262 0.961 . S
H1277 C1263 0.958 . S
H1278 C1263 0.961 . S
H1279 C1263 0.960 . S
C1280 C1281 1.391 . S
C1280 C1282 1.394 . S
C1280 H1296 0.931 . S
C1281 C1280 1.391 . S
C1281 C1285 1.376 . S
C1282 C1280 1.394 . S
C1282 C1283 1.369 . S
C1282 C1286 1.531 . S
C1283 C1282 1.369 . S
C1283 C1284 1.410 . S
C1283 C1291 1.503 . S
C1284 C1283 1.410 . S
C1284 C1285 1.392 . S
C1284 C1287 1.511 . S
C1285 C1281 1.376 . S
C1285 C1284 1.392 . S
C1285 H1297 0.929 . S
C1286 C1282 1.531 . S
C1286 H1298 0.960 . S
C1286 H1299 0.962 . S
C1286 H1300 0.960 . S
C1287 C1284 1.511 . S
C1287 H1301 0.961 . S
C1287 H1302 0.961 . S
C1287 H1303 0.961 . S
C1288 C1289 1.370 . S
C1288 C1290 1.363 . S
C1288 H1304 0.931 . S
C1289 C1288 1.370 . S
C1289 C1293 1.408 . S
C1290 C1288 1.363 . S
C1290 C1291 1.370 . S
C1290 C1294 1.524 . S
C1291 C1283 1.503 . S
C1291 C1290 1.370 . S
C1291 C1292 1.403 . S
C1292 C1291 1.403 . S
C1292 C1293 1.404 . S
C1292 C1295 1.539 . S
C1293 C1289 1.408 . S
C1293 C1292 1.404 . S
C1293 H1305 0.930 . S
C1294 C1290 1.524 . S
C1294 H1306 0.956 . S
C1294 H1307 0.961 . S
C1294 H1308 0.961 . S
C1295 C1292 1.539 . S
C1295 H1309 0.958 . S
C1295 H1310 0.961 . S
C1295 H1311 0.960 . S
H1296 C1280 0.931 . S
H1297 C1285 0.929 . S
H1298 C1286 0.960 . S
H1299 C1286 0.962 . S
H1300 C1286 0.960 . S
H1301 C1287 0.961 . S
H1302 C1287 0.961 . S
H1303 C1287 0.961 . S
H1304 C1288 0.931 . S
H1305 C1293 0.930 . S
H1306 C1294 0.956 . S
H1307 C1294 0.961 . S
H1308 C1294 0.961 . S
H1309 C1295 0.958 . S
H1310 C1295 0.961 . S
H1311 C1295 0.960 . S
C1312 C1313 1.391 . S
C1312 C1314 1.394 . S
C1312 H1328 0.931 . S
C1313 C1312 1.391 . S
C1313 C1317 1.376 . S
C1314 C1312 1.394 . S
C1314 C1315 1.369 . S
C1314 C1318 1.531 . S
C1315 C1314 1.369 . S
C1315 C1316 1.410 . S
C1315 C1323 1.503 . S
C1316 C1315 1.410 . S
C1316 C1317 1.392 . S
C1316 C1319 1.511 . S
C1317 C1313 1.376 . S
C1317 C1316 1.392 . S
C1317 H1329 0.929 . S
C1318 C1314 1.531 . S
C1318 H1330 0.960 . S
C1318 H1331 0.962 . S
C1318 H1332 0.960 . S
C1319 C1316 1.511 . S
C1319 H1333 0.961 . S
C1319 H1334 0.961 . S
C1319 H1335 0.961 . S
C1320 C1321 1.370 . S
C1320 C1322 1.363 . S
C1320 H1336 0.931 . S
C1321 C1320 1.370 . S
C1321 C1325 1.408 . S
C1322 C1320 1.363 . S
C1322 C1323 1.370 . S
C1322 C1326 1.524 . S
C1323 C1315 1.503 . S
C1323 C1322 1.370 . S
C1323 C1324 1.403 . S
C1324 C1323 1.403 . S
C1324 C1325 1.404 . S
C1324 C1327 1.539 . S
C1325 C1321 1.408 . S
C1325 C1324 1.404 . S
C1325 H1337 0.930 . S
C1326 C1322 1.524 . S
C1326 H1338 0.956 . S
C1326 H1339 0.961 . S
C1326 H1340 0.961 . S
C1327 C1324 1.539 . S
C1327 H1341 0.958 . S
C1327 H1342 0.961 . S
C1327 H1343 0.960 . S
H1328 C1312 0.931 . S
H1329 C1317 0.929 . S
H1330 C1318 0.960 . S
H1331 C1318 0.962 . S
H1332 C1318 0.960 . S
H1333 C1319 0.961 . S
H1334 C1319 0.961 . S
H1335 C1319 0.961 . S
H1336 C1320 0.931 . S
H1337 C1325 0.930 . S
H1338 C1326 0.956 . S
H1339 C1326 0.961 . S
H1340 C1326 0.961 . S
H1341 C1327 0.958 . S
H1342 C1327 0.961 . S
H1343 C1327 0.960 . S
C1344 C1345 1.391 . S
C1344 C1346 1.394 . S
C1344 H1360 0.931 . S
C1345 C1344 1.391 . S
C1345 C1349 1.376 . S
C1346 C1344 1.394 . S
C1346 C1347 1.369 . S
C1346 C1350 1.531 . S
C1347 C1346 1.369 . S
C1347 C1348 1.410 . S
C1347 C1355 1.503 . S
C1348 C1347 1.410 . S
C1348 C1349 1.392 . S
C1348 C1351 1.511 . S
C1349 C1345 1.376 . S
C1349 C1348 1.392 . S
C1349 H1361 0.929 . S
C1350 C1346 1.531 . S
C1350 H1362 0.960 . S
C1350 H1363 0.962 . S
C1350 H1364 0.960 . S
C1351 C1348 1.511 . S
C1351 H1365 0.961 . S
C1351 H1366 0.961 . S
C1351 H1367 0.961 . S
C1352 C1353 1.370 . S
C1352 C1354 1.363 . S
C1352 H1368 0.931 . S
C1353 C1352 1.370 . S
C1353 C1357 1.408 . S
C1354 C1352 1.363 . S
C1354 C1355 1.370 . S
C1354 C1358 1.524 . S
C1355 C1347 1.503 . S
C1355 C1354 1.370 . S
C1355 C1356 1.403 . S
C1356 C1355 1.403 . S
C1356 C1357 1.404 . S
C1356 C1359 1.539 . S
C1357 C1353 1.408 . S
C1357 C1356 1.404 . S
C1357 H1369 0.930 . S
C1358 C1354 1.524 . S
C1358 H1370 0.956 . S
C1358 H1371 0.961 . S
C1358 H1372 0.961 . S
C1359 C1356 1.539 . S
C1359 H1373 0.958 . S
C1359 H1374 0.961 . S
C1359 H1375 0.960 . S
H1360 C1344 0.931 . S
H1361 C1349 0.929 . S
H1362 C1350 0.960 . S
H1363 C1350 0.962 . S
H1364 C1350 0.960 . S
H1365 C1351 0.961 . S
H1366 C1351 0.961 . S
H1367 C1351 0.961 . S
H1368 C1352 0.931 . S
H1369 C1357 0.930 . S
H1370 C1358 0.956 . S
H1371 C1358 0.961 . S
H1372 C1358 0.961 . S
H1373 C1359 0.958 . S
H1374 C1359 0.961 . S
H1375 C1359 0.960 . S
C1376 C1377 1.391 . S
C1376 C1378 1.394 . S
C1376 H1392 0.931 . S
C1377 C1376 1.391 . S
C1377 C1381 1.376 . S
C1378 C1376 1.394 . S
C1378 C1379 1.369 . S
C1378 C1382 1.531 . S
C1379 C1378 1.369 . S
C1379 C1380 1.410 . S
C1379 C1387 1.503 . S
C1380 C1379 1.410 . S
C1380 C1381 1.392 . S
C1380 C1383 1.511 . S
C1381 C1377 1.376 . S
C1381 C1380 1.392 . S
C1381 H1393 0.929 . S
C1382 C1378 1.531 . S
C1382 H1394 0.960 . S
C1382 H1395 0.962 . S
C1382 H1396 0.960 . S
C1383 C1380 1.511 . S
C1383 H1397 0.961 . S
C1383 H1398 0.961 . S
C1383 H1399 0.961 . S
C1384 C1385 1.370 . S
C1384 C1386 1.363 . S
C1384 H1400 0.931 . S
C1385 C1384 1.370 . S
C1385 C1389 1.408 . S
C1386 C1384 1.363 . S
C1386 C1387 1.370 . S
C1386 C1390 1.524 . S
C1387 C1379 1.503 . S
C1387 C1386 1.370 . S
C1387 C1388 1.403 . S
C1388 C1387 1.403 . S
C1388 C1389 1.404 . S
C1388 C1391 1.539 . S
C1389 C1385 1.408 . S
C1389 C1388 1.404 . S
C1389 H1401 0.930 . S
C1390 C1386 1.524 . S
C1390 H1402 0.956 . S
C1390 H1403 0.961 . S
C1390 H1404 0.961 . S
C1391 C1388 1.539 . S
C1391 H1405 0.958 . S
C1391 H1406 0.961 . S
C1391 H1407 0.960 . S
H1392 C1376 0.931 . S
H1393 C1381 0.929 . S
H1394 C1382 0.960 . S
H1395 C1382 0.962 . S
H1396 C1382 0.960 . S
H1397 C1383 0.961 . S
H1398 C1383 0.961 . S
H1399 C1383 0.961 . S
H1400 C1384 0.931 . S
H1401 C1389 0.930 . S
H1402 C1390 0.956 . S
H1403 C1390 0.961 . S
H1404 C1390 0.961 . S
H1405 C1391 0.958 . S
H1406 C1391 0.961 . S
H1407 C1391 0.960 . S
C1408 C1409 1.391 . S
C1408 C1410 1.394 . S
C1408 H1424 0.931 . S
C1409 C1408 1.391 . S
C1409 C1413 1.376 . S
C1410 C1408 1.394 . S
C1410 C1411 1.369 . S
C1410 C1414 1.531 . S
C1411 C1410 1.369 . S
C1411 C1412 1.410 . S
C1411 C1419 1.503 . S
C1412 C1411 1.410 . S
C1412 C1413 1.392 . S
C1412 C1415 1.511 . S
C1413 C1409 1.376 . S
C1413 C1412 1.392 . S
C1413 H1425 0.929 . S
C1414 C1410 1.531 . S
C1414 H1426 0.960 . S
C1414 H1427 0.962 . S
C1414 H1428 0.960 . S
C1415 C1412 1.511 . S
C1415 H1429 0.961 . S
C1415 H1430 0.961 . S
C1415 H1431 0.961 . S
C1416 C1417 1.370 . S
C1416 C1418 1.363 . S
C1416 H1432 0.931 . S
C1417 C1416 1.370 . S
C1417 C1421 1.408 . S
C1418 C1416 1.363 . S
C1418 C1419 1.370 . S
C1418 C1422 1.524 . S
C1419 C1411 1.503 . S
C1419 C1418 1.370 . S
C1419 C1420 1.403 . S
C1420 C1419 1.403 . S
C1420 C1421 1.404 . S
C1420 C1423 1.539 . S
C1421 C1417 1.408 . S
C1421 C1420 1.404 . S
C1421 H1433 0.930 1_556 S
C1422 C1418 1.524 . S
C1422 H1434 0.956 . S
C1422 H1435 0.961 . S
C1422 H1436 0.961 . S
C1423 C1420 1.539 . S
C1423 H1437 0.958 . S
C1423 H1438 0.961 . S
C1423 H1439 0.960 . S
H1424 C1408 0.931 . S
H1425 C1413 0.929 . S
H1426 C1414 0.960 . S
H1427 C1414 0.962 . S
H1428 C1414 0.960 . S
H1429 C1415 0.961 . S
H1430 C1415 0.961 . S
H1431 C1415 0.961 . S
H1432 C1416 0.931 . S
H1433 C1421 0.930 1_554 S
H1434 C1422 0.956 . S
H1435 C1422 0.961 . S
H1436 C1422 0.961 . S
H1437 C1423 0.958 . S
H1438 C1423 0.961 . S
H1439 C1423 0.960 . S
C1440 C1441 1.391 . S
C1440 C1442 1.394 . S
C1440 H1456 0.931 . S
C1441 C1440 1.391 . S
C1441 C1445 1.376 . S
C1442 C1440 1.394 . S
C1442 C1443 1.369 . S
C1442 C1446 1.531 . S
C1443 C1442 1.369 . S
C1443 C1444 1.410 . S
C1443 C1451 1.503 . S
C1444 C1443 1.410 . S
C1444 C1445 1.392 . S
C1444 C1447 1.511 . S
C1445 C1441 1.376 . S
C1445 C1444 1.392 . S
C1445 H1457 0.929 1_554 S
C1446 C1442 1.531 . S
C1446 H1458 0.960 . S
C1446 H1459 0.962 . S
C1446 H1460 0.960 . S
C1447 C1444 1.511 . S
C1447 H1461 0.961 . S
C1447 H1462 0.961 . S
C1447 H1463 0.961 . S
C1448 C1449 1.370 . S
C1448 C1450 1.363 . S
C1448 H1464 0.931 . S
C1449 C1448 1.370 . S
C1449 C1453 1.408 . S
C1450 C1448 1.363 . S
C1450 C1451 1.370 . S
C1450 C1454 1.524 . S
C1451 C1443 1.503 . S
C1451 C1450 1.370 . S
C1451 C1452 1.403 . S
C1452 C1451 1.403 . S
C1452 C1453 1.404 . S
C1452 C1455 1.539 . S
C1453 C1449 1.408 . S
C1453 C1452 1.404 . S
C1453 H1465 0.930 . S
C1454 C1450 1.524 . S
C1454 H1466 0.956 . S
C1454 H1467 0.961 . S
C1454 H1468 0.961 . S
C1455 C1452 1.539 . S
C1455 H1469 0.958 . S
C1455 H1470 0.961 . S
C1455 H1471 0.960 . S
H1456 C1440 0.931 . S
H1457 C1445 0.929 1_556 S
H1458 C1446 0.960 . S
H1459 C1446 0.962 . S
H1460 C1446 0.960 . S
H1461 C1447 0.961 . S
H1462 C1447 0.961 . S
H1463 C1447 0.961 . S
H1464 C1448 0.931 . S
H1465 C1453 0.930 . S
H1466 C1454 0.956 . S
H1467 C1454 0.961 . S
H1468 C1454 0.961 . S
H1469 C1455 0.958 . S
H1470 C1455 0.961 . S
H1471 C1455 0.960 . S
C1472 C1473 1.391 . S
C1472 C1474 1.394 . S
C1472 H1488 0.934 . S
C1473 C1472 1.391 . S
C1473 C1477 1.376 . S
C1474 C1472 1.394 . S
C1474 C1475 1.369 . S
C1474 C1478 1.531 . S
C1475 C1474 1.369 . S
C1475 C1476 1.410 . S
C1475 C1483 1.503 . S
C1476 C1475 1.410 . S
C1476 C1477 1.392 . S
C1476 C1479 1.511 . S
C1477 C1473 1.376 . S
C1477 C1476 1.392 . S
C1477 H1489 0.929 . S
C1478 C1474 1.531 . S
C1478 H1490 0.960 . S
C1478 H1491 0.962 . S
C1478 H1492 0.960 . S
C1479 C1476 1.511 . S
C1479 H1493 0.961 . S
C1479 H1494 0.961 . S
C1479 H1495 0.961 . S
C1480 C1481 1.370 . S
C1480 C1482 1.363 . S
C1480 H1496 0.931 . S
C1481 C1480 1.370 . S
C1481 C1485 1.408 . S
C1482 C1480 1.363 . S
C1482 C1483 1.370 . S
C1482 C1486 1.524 . S
C1483 C1475 1.503 . S
C1483 C1482 1.370 . S
C1483 C1484 1.403 . S
C1484 C1483 1.403 . S
C1484 C1485 1.404 . S
C1484 C1487 1.539 . S
C1485 C1481 1.408 . S
C1485 C1484 1.404 . S
C1485 H1497 0.930 . S
C1486 C1482 1.524 . S
C1486 H1498 0.956 . S
C1486 H1499 0.961 . S
C1486 H1500 0.961 . S
C1487 C1484 1.539 . S
C1487 H1501 0.958 . S
C1487 H1502 0.961 . S
C1487 H1503 0.960 . S
H1488 C1472 0.934 . S
H1489 C1477 0.929 . S
H1490 C1478 0.960 . S
H1491 C1478 0.962 . S
H1492 C1478 0.960 . S
H1493 C1479 0.961 . S
H1494 C1479 0.961 . S
H1495 C1479 0.961 . S
H1496 C1480 0.931 . S
H1497 C1485 0.930 . S
H1498 C1486 0.956 . S
H1499 C1486 0.961 . S
H1500 C1486 0.961 . S
H1501 C1487 0.958 . S
H1502 C1487 0.961 . S
H1503 C1487 0.960 . S
C1504 C1505 1.391 . S
C1504 C1506 1.394 . S
C1504 H1520 0.931 1_554 S
C1505 C1504 1.391 . S
C1505 C1509 1.376 . S
C1506 C1504 1.394 . S
C1506 C1507 1.369 . S
C1506 C1510 1.531 . S
C1507 C1506 1.369 . S
C1507 C1508 1.410 . S
C1507 C1515 1.503 . S
C1508 C1507 1.410 . S
C1508 C1509 1.392 . S
C1508 C1511 1.511 . S
C1509 C1505 1.376 . S
C1509 C1508 1.392 . S
C1509 H1521 0.929 . S
C1510 C1506 1.531 . S
C1510 H1522 0.960 . S
C1510 H1523 0.962 . S
C1510 H1524 0.960 . S
C1511 C1508 1.511 . S
C1511 H1525 0.961 . S
C1511 H1526 0.961 . S
C1511 H1527 0.961 . S
C1512 C1513 1.370 . S
C1512 C1514 1.363 . S
C1512 H1528 0.931 . S
C1513 C1512 1.370 . S
C1513 C1517 1.408 . S
C1514 C1512 1.363 . S
C1514 C1515 1.370 . S
C1514 C1518 1.524 . S
C1515 C1507 1.503 . S
C1515 C1514 1.370 . S
C1515 C1516 1.403 . S
C1516 C1515 1.403 . S
C1516 C1517 1.404 . S
C1516 C1519 1.539 . S
C1517 C1513 1.408 . S
C1517 C1516 1.404 . S
C1517 H1529 0.930 . S
C1518 C1514 1.524 . S
C1518 H1530 0.956 . S
C1518 H1531 0.961 . S
C1518 H1532 0.961 . S
C1519 C1516 1.539 . S
C1519 H1533 0.958 . S
C1519 H1534 0.961 . S
C1519 H1535 0.960 . S
H1520 C1504 0.931 1_556 S
H1521 C1509 0.929 . S
H1522 C1510 0.960 . S
H1523 C1510 0.962 . S
H1524 C1510 0.960 . S
H1525 C1511 0.961 . S
H1526 C1511 0.961 . S
H1527 C1511 0.961 . S
H1528 C1512 0.931 . S
H1529 C1517 0.930 . S
H1530 C1518 0.956 . S
H1531 C1518 0.961 . S
H1532 C1518 0.961 . S
H1533 C1519 0.958 . S
H1534 C1519 0.961 . S
H1535 C1519 0.960 . S
C1536 C1537 1.391 . S
C1536 C1538 1.394 . S
C1536 H1552 0.931 . S
C1537 C1536 1.391 . S
C1537 C1541 1.376 . S
C1538 C1536 1.394 . S
C1538 C1539 1.369 . S
C1538 C1542 1.531 . S
C1539 C1538 1.369 . S
C1539 C1540 1.410 . S
C1539 C1547 1.503 . S
C1540 C1539 1.410 . S
C1540 C1541 1.392 . S
C1540 C1543 1.511 . S
C1541 C1537 1.376 . S
C1541 C1540 1.392 . S
C1541 H1553 0.929 . S
C1542 C1538 1.531 . S
C1542 H1554 0.960 . S
C1542 H1555 0.962 . S
C1542 H1556 0.960 . S
C1543 C1540 1.511 . S
C1543 H1557 0.961 . S
C1543 H1558 0.961 . S
C1543 H1559 0.961 . S
C1544 C1545 1.370 . S
C1544 C1546 1.363 . S
C1544 H1560 0.931 . S
C1545 C1544 1.370 . S
C1545 C1549 1.408 . S
C1546 C1544 1.363 . S
C1546 C1547 1.370 . S
C1546 C1550 1.524 . S
C1547 C1539 1.503 . S
C1547 C1546 1.370 . S
C1547 C1548 1.403 . S
C1548 C1547 1.403 . S
C1548 C1549 1.404 . S
C1548 C1551 1.539 . S
C1549 C1545 1.408 . S
C1549 C1548 1.404 . S
C1549 H1561 0.930 . S
C1550 C1546 1.524 . S
C1550 H1562 0.956 . S
C1550 H1563 0.961 . S
C1550 H1564 0.961 . S
C1551 C1548 1.539 . S
C1551 H1565 0.958 . S
C1551 H1566 0.961 . S
C1551 H1567 0.960 . S
H1552 C1536 0.931 . S
H1553 C1541 0.929 . S
H1554 C1542 0.960 . S
H1555 C1542 0.962 . S
H1556 C1542 0.960 . S
H1557 C1543 0.961 . S
H1558 C1543 0.961 . S
H1559 C1543 0.961 . S
H1560 C1544 0.931 . S
H1561 C1549 0.930 . S
H1562 C1550 0.956 . S
H1563 C1550 0.961 . S
H1564 C1550 0.961 . S
H1565 C1551 0.958 . S
H1566 C1551 0.961 . S
H1567 C1551 0.960 . S
C1568 C1569 1.391 . S
C1568 C1570 1.394 . S
C1568 H1584 0.931 . S
C1569 C1568 1.391 . S
C1569 C1573 1.376 . S
C1570 C1568 1.394 . S
C1570 C1571 1.369 . S
C1570 C1574 1.531 . S
C1571 C1570 1.369 . S
C1571 C1572 1.410 . S
C1571 C1579 1.503 . S
C1572 C1571 1.410 . S
C1572 C1573 1.392 . S
C1572 C1575 1.511 . S
C1573 C1569 1.376 . S
C1573 C1572 1.392 . S
C1573 H1585 0.929 . S
C1574 C1570 1.531 . S
C1574 H1586 0.960 . S
C1574 H1587 0.962 . S
C1574 H1588 0.960 . S
C1575 C1572 1.511 . S
C1575 H1589 0.961 . S
C1575 H1590 0.961 . S
C1575 H1591 0.961 . S
C1576 C1577 1.370 . S
C1576 C1578 1.363 . S
C1576 H1592 0.931 . S
C1577 C1576 1.370 . S
C1577 C1581 1.408 . S
C1578 C1576 1.363 . S
C1578 C1579 1.370 . S
C1578 C1582 1.524 . S
C1579 C1571 1.503 . S
C1579 C1578 1.370 . S
C1579 C1580 1.403 . S
C1580 C1579 1.403 . S
C1580 C1581 1.404 . S
C1580 C1583 1.539 . S
C1581 C1577 1.408 . S
C1581 C1580 1.404 . S
C1581 H1593 0.930 . S
C1582 C1578 1.524 . S
C1582 H1594 0.956 . S
C1582 H1595 0.961 . S
C1582 H1596 0.961 . S
C1583 C1580 1.539 . S
C1583 H1597 0.958 . S
C1583 H1598 0.961 . S
C1583 H1599 0.960 . S
H1584 C1568 0.931 . S
H1585 C1573 0.929 . S
H1586 C1574 0.960 . S
H1587 C1574 0.962 . S
H1588 C1574 0.960 . S
H1589 C1575 0.961 . S
H1590 C1575 0.961 . S
H1591 C1575 0.961 . S
H1592 C1576 0.931 . S
H1593 C1581 0.930 . S
H1594 C1582 0.956 . S
H1595 C1582 0.961 . S
H1596 C1582 0.961 . S
H1597 C1583 0.958 . S
H1598 C1583 0.961 . S
H1599 C1583 0.960 . S
C1600 C1601 1.391 . S
C1600 C1602 1.394 . S
C1600 H1616 0.931 . S
C1601 C1600 1.391 . S
C1601 C1605 1.376 . S
C1602 C1600 1.394 . S
C1602 C1603 1.369 . S
C1602 C1606 1.531 . S
C1603 C1602 1.369 . S
C1603 C1604 1.410 . S
C1603 C1611 1.503 . S
C1604 C1603 1.410 . S
C1604 C1605 1.392 . S
C1604 C1607 1.511 . S
C1605 C1601 1.376 . S
C1605 C1604 1.392 . S
C1605 H1617 0.929 . S
C1606 C1602 1.531 . S
C1606 H1618 0.960 . S
C1606 H1619 0.962 . S
C1606 H1620 0.960 . S
C1607 C1604 1.511 . S
C1607 H1621 0.961 . S
C1607 H1622 0.961 . S
C1607 H1623 0.961 . S
C1608 C1609 1.370 . S
C1608 C1610 1.363 . S
C1608 H1624 0.931 . S
C1609 C1608 1.370 . S
C1609 C1613 1.408 . S
C1610 C1608 1.363 . S
C1610 C1611 1.370 . S
C1610 C1614 1.524 . S
C1611 C1603 1.503 . S
C1611 C1610 1.370 . S
C1611 C1612 1.403 . S
C1612 C1611 1.403 . S
C1612 C1613 1.404 . S
C1612 C1615 1.539 . S
C1613 C1609 1.408 . S
C1613 C1612 1.404 . S
C1613 H1625 0.930 . S
C1614 C1610 1.524 . S
C1614 H1626 0.956 . S
C1614 H1627 0.961 . S
C1614 H1628 0.961 . S
C1615 C1612 1.539 . S
C1615 H1629 0.958 . S
C1615 H1630 0.961 . S
C1615 H1631 0.960 . S
H1616 C1600 0.931 . S
H1617 C1605 0.929 . S
H1618 C1606 0.960 . S
H1619 C1606 0.962 . S
H1620 C1606 0.960 . S
H1621 C1607 0.961 . S
H1622 C1607 0.961 . S
H1623 C1607 0.961 . S
H1624 C1608 0.931 . S
H1625 C1613 0.930 . S
H1626 C1614 0.956 . S
H1627 C1614 0.961 . S
H1628 C1614 0.961 . S
H1629 C1615 0.958 . S
H1630 C1615 0.961 . S
H1631 C1615 0.960 . S
C1632 C1633 1.391 . S
C1632 C1634 1.394 . S
C1632 H1648 0.931 . S
C1633 C1632 1.391 . S
C1633 C1637 1.376 . S
C1634 C1632 1.394 . S
C1634 C1635 1.369 . S
C1634 C1638 1.531 . S
C1635 C1634 1.369 . S
C1635 C1636 1.410 . S
C1635 C1643 1.503 . S
C1636 C1635 1.410 . S
C1636 C1637 1.392 . S
C1636 C1639 1.511 . S
C1637 C1633 1.376 . S
C1637 C1636 1.392 . S
C1637 H1649 0.929 . S
C1638 C1634 1.531 . S
C1638 H1650 0.960 . S
C1638 H1651 0.962 . S
C1638 H1652 0.960 . S
C1639 C1636 1.511 . S
C1639 H1653 0.961 . S
C1639 H1654 0.961 . S
C1639 H1655 0.961 . S
C1640 C1641 1.370 . S
C1640 C1642 1.363 . S
C1640 H1656 0.931 . S
C1641 C1640 1.370 . S
C1641 C1645 1.408 . S
C1642 C1640 1.363 . S
C1642 C1643 1.370 . S
C1642 C1646 1.524 . S
C1643 C1635 1.503 . S
C1643 C1642 1.370 . S
C1643 C1644 1.403 . S
C1644 C1643 1.403 . S
C1644 C1645 1.404 . S
C1644 C1647 1.539 . S
C1645 C1641 1.408 . S
C1645 C1644 1.404 . S
C1645 H1657 0.930 . S
C1646 C1642 1.524 . S
C1646 H1658 0.956 . S
C1646 H1659 0.961 . S
C1646 H1660 0.961 . S
C1647 C1644 1.539 . S
C1647 H1661 0.958 . S
C1647 H1662 0.961 . S
C1647 H1663 0.960 . S
H1648 C1632 0.931 . S
H1649 C1637 0.929 . S
H1650 C1638 0.960 . S
H1651 C1638 0.962 . S
H1652 C1638 0.960 . S
H1653 C1639 0.961 . S
H1654 C1639 0.961 . S
H1655 C1639 0.961 . S
H1656 C1640 0.931 . S
H1657 C1645 0.930 . S
H1658 C1646 0.956 . S
H1659 C1646 0.961 . S
H1660 C1646 0.961 . S
H1661 C1647 0.958 . S
H1662 C1647 0.961 . S
H1663 C1647 0.960 . S
C1664 C1665 1.391 . S
C1664 C1666 1.394 . S
C1664 H1680 0.931 . S
C1665 C1664 1.391 . S
C1665 C1669 1.376 . S
C1666 C1664 1.394 . S
C1666 C1667 1.369 . S
C1666 C1670 1.531 . S
C1667 C1666 1.369 . S
C1667 C1668 1.410 . S
C1667 C1675 1.503 . S
C1668 C1667 1.410 . S
C1668 C1669 1.392 . S
C1668 C1671 1.511 . S
C1669 C1665 1.376 . S
C1669 C1668 1.392 . S
C1669 H1681 0.929 . S
C1670 C1666 1.531 . S
C1670 H1682 0.960 . S
C1670 H1683 0.962 . S
C1670 H1684 0.960 . S
C1671 C1668 1.511 . S
C1671 H1685 0.961 . S
C1671 H1686 0.961 . S
C1671 H1687 0.961 . S
C1672 C1673 1.370 . S
C1672 C1674 1.363 . S
C1672 H1688 0.931 . S
C1673 C1672 1.370 . S
C1673 C1677 1.408 . S
C1674 C1672 1.363 . S
C1674 C1675 1.370 . S
C1674 C1678 1.524 . S
C1675 C1667 1.503 . S
C1675 C1674 1.370 . S
C1675 C1676 1.403 . S
C1676 C1675 1.403 . S
C1676 C1677 1.404 . S
C1676 C1679 1.539 . S
C1677 C1673 1.408 . S
C1677 C1676 1.404 . S
C1677 H1689 0.930 . S
C1678 C1674 1.524 . S
C1678 H1690 0.956 . S
C1678 H1691 0.961 . S
C1678 H1692 0.961 . S
C1679 C1676 1.539 . S
C1679 H1693 0.958 . S
C1679 H1694 0.961 . S
C1679 H1695 0.960 . S
H1680 C1664 0.931 . S
H1681 C1669 0.929 . S
H1682 C1670 0.960 . S
H1683 C1670 0.962 . S
H1684 C1670 0.960 . S
H1685 C1671 0.961 . S
H1686 C1671 0.961 . S
H1687 C1671 0.961 . S
H1688 C1672 0.931 . S
H1689 C1677 0.930 . S
H1690 C1678 0.956 . S
H1691 C1678 0.961 . S
H1692 C1678 0.961 . S
H1693 C1679 0.958 . S
H1694 C1679 0.961 . S
H1695 C1679 0.960 . S
C1696 C1697 1.391 . S
C1696 C1698 1.394 . S
C1696 H1712 0.931 . S
C1697 C1696 1.391 . S
C1697 C1701 1.376 . S
C1698 C1696 1.394 . S
C1698 C1699 1.369 . S
C1698 C1702 1.531 . S
C1699 C1698 1.369 . S
C1699 C1700 1.410 . S
C1699 C1707 1.503 . S
C1700 C1699 1.410 . S
C1700 C1701 1.392 . S
C1700 C1703 1.511 . S
C1701 C1697 1.376 . S
C1701 C1700 1.392 . S
C1701 H1713 0.929 . S
C1702 C1698 1.531 . S
C1702 H1714 0.960 . S
C1702 H1715 0.962 . S
C1702 H1716 0.960 . S
C1703 C1700 1.511 . S
C1703 H1717 0.961 . S
C1703 H1718 0.961 . S
C1703 H1719 0.961 . S
C1704 C1705 1.370 . S
C1704 C1706 1.363 . S
C1704 H1720 0.931 . S
C1705 C1704 1.370 . S
C1705 C1709 1.408 . S
C1706 C1704 1.363 . S
C1706 C1707 1.370 . S
C1706 C1710 1.524 . S
C1707 C1699 1.503 . S
C1707 C1706 1.370 . S
C1707 C1708 1.403 . S
C1708 C1707 1.403 . S
C1708 C1709 1.404 . S
C1708 C1711 1.539 . S
C1709 C1705 1.408 . S
C1709 C1708 1.404 . S
C1709 H1721 0.930 . S
C1710 C1706 1.524 . S
C1710 H1722 0.956 . S
C1710 H1723 0.961 . S
C1710 H1724 0.961 . S
C1711 C1708 1.539 . S
C1711 H1725 0.958 . S
C1711 H1726 0.961 . S
C1711 H1727 0.960 . S
H1712 C1696 0.931 . S
H1713 C1701 0.929 . S
H1714 C1702 0.960 . S
H1715 C1702 0.962 . S
H1716 C1702 0.960 . S
H1717 C1703 0.961 . S
H1718 C1703 0.961 . S
H1719 C1703 0.961 . S
H1720 C1704 0.931 . S
H1721 C1709 0.930 . S
H1722 C1710 0.956 . S
H1723 C1710 0.961 . S
H1724 C1710 0.961 . S
H1725 C1711 0.958 . S
H1726 C1711 0.961 . S
H1727 C1711 0.960 . S
C1728 C1729 1.391 . S
C1728 C1730 1.394 . S
C1728 H1744 0.931 . S
C1729 C1728 1.391 . S
C1729 C1733 1.376 . S
C1730 C1728 1.394 . S
C1730 C1731 1.369 . S
C1730 C1734 1.531 . S
C1731 C1730 1.369 . S
C1731 C1732 1.410 . S
C1731 C1739 1.503 . S
C1732 C1731 1.410 . S
C1732 C1733 1.392 . S
C1732 C1735 1.511 . S
C1733 C1729 1.376 . S
C1733 C1732 1.392 . S
C1733 H1745 0.929 . S
C1734 C1730 1.531 . S
C1734 H1746 0.960 . S
C1734 H1747 0.962 . S
C1734 H1748 0.960 . S
C1735 C1732 1.511 . S
C1735 H1749 0.961 . S
C1735 H1750 0.961 . S
C1735 H1751 0.961 . S
C1736 C1737 1.370 . S
C1736 C1738 1.363 . S
C1736 H1752 0.931 . S
C1737 C1736 1.370 . S
C1737 C1741 1.408 . S
C1738 C1736 1.363 . S
C1738 C1739 1.370 . S
C1738 C1742 1.524 . S
C1739 C1731 1.503 . S
C1739 C1738 1.370 . S
C1739 C1740 1.403 . S
C1740 C1739 1.403 . S
C1740 C1741 1.404 . S
C1740 C1743 1.539 . S
C1741 C1737 1.408 . S
C1741 C1740 1.404 . S
C1741 H1753 0.930 . S
C1742 C1738 1.524 . S
C1742 H1754 0.956 . S
C1742 H1755 0.961 . S
C1742 H1756 0.961 . S
C1743 C1740 1.539 . S
C1743 H1757 0.958 . S
C1743 H1758 0.961 . S
C1743 H1759 0.960 . S
H1744 C1728 0.931 . S
H1745 C1733 0.929 . S
H1746 C1734 0.960 . S
H1747 C1734 0.962 . S
H1748 C1734 0.960 . S
H1749 C1735 0.961 . S
H1750 C1735 0.961 . S
H1751 C1735 0.961 . S
H1752 C1736 0.931 . S
H1753 C1741 0.930 . S
H1754 C1742 0.956 . S
H1755 C1742 0.961 . S
H1756 C1742 0.961 . S
H1757 C1743 0.958 . S
H1758 C1743 0.961 . S
H1759 C1743 0.960 . S
C1760 C1761 1.391 . S
C1760 C1762 1.394 . S
C1760 H1776 0.931 . S
C1761 C1760 1.391 . S
C1761 C1765 1.376 . S
C1762 C1760 1.394 . S
C1762 C1763 1.369 . S
C1762 C1766 1.531 . S
C1763 C1762 1.369 . S
C1763 C1764 1.410 . S
C1763 C1771 1.503 . S
C1764 C1763 1.410 . S
C1764 C1765 1.392 . S
C1764 C1767 1.511 . S
C1765 C1761 1.376 . S
C1765 C1764 1.392 . S
C1765 H1777 0.929 . S
C1766 C1762 1.531 . S
C1766 H1778 0.960 . S
C1766 H1779 0.962 . S
C1766 H1780 0.960 . S
C1767 C1764 1.511 . S
C1767 H1781 0.961 . S
C1767 H1782 0.961 . S
C1767 H1783 0.961 . S
C1768 C1769 1.370 . S
C1768 C1770 1.363 . S
C1768 H1784 0.931 . S
C1769 C1768 1.370 . S
C1769 C1773 1.408 . S
C1770 C1768 1.363 . S
C1770 C1771 1.370 . S
C1770 C1774 1.524 . S
C1771 C1763 1.503 . S
C1771 C1770 1.370 . S
C1771 C1772 1.403 . S
C1772 C1771 1.403 . S
C1772 C1773 1.404 . S
C1772 C1775 1.539 . S
C1773 C1769 1.408 . S
C1773 C1772 1.404 . S
C1773 H1785 0.930 . S
C1774 C1770 1.524 . S
C1774 H1786 0.956 . S
C1774 H1787 0.961 . S
C1774 H1788 0.961 . S
C1775 C1772 1.539 . S
C1775 H1789 0.958 . S
C1775 H1790 0.961 . S
C1775 H1791 0.960 . S
H1776 C1760 0.931 . S
H1777 C1765 0.929 . S
H1778 C1766 0.960 . S
H1779 C1766 0.962 . S
H1780 C1766 0.960 . S
H1781 C1767 0.961 . S
H1782 C1767 0.961 . S
H1783 C1767 0.961 . S
H1784 C1768 0.931 . S
H1785 C1773 0.930 . S
H1786 C1774 0.956 . S
H1787 C1774 0.961 . S
H1788 C1774 0.961 . S
H1789 C1775 0.958 . S
H1790 C1775 0.961 . S
H1791 C1775 0.960 . S
C1792 C1793 1.391 . S
C1792 C1794 1.394 . S
C1792 H1808 0.931 . S
C1793 C1792 1.391 . S
C1793 C1797 1.376 . S
C1794 C1792 1.394 . S
C1794 C1795 1.369 . S
C1794 C1798 1.531 . S
C1795 C1794 1.369 . S
C1795 C1796 1.410 . S
C1795 C1803 1.503 . S
C1796 C1795 1.410 . S
C1796 C1797 1.392 . S
C1796 C1799 1.511 . S
C1797 C1793 1.376 . S
C1797 C1796 1.392 . S
C1797 H1809 0.929 . S
C1798 C1794 1.531 . S
C1798 H1810 0.960 . S
C1798 H1811 0.962 . S
C1798 H1812 0.960 . S
C1799 C1796 1.511 . S
C1799 H1813 0.961 . S
C1799 H1814 0.961 . S
C1799 H1815 0.961 . S
C1800 C1801 1.370 . S
C1800 C1802 1.363 . S
C1800 H1816 0.931 . S
C1801 C1800 1.370 . S
C1801 C1805 1.408 . S
C1802 C1800 1.363 . S
C1802 C1803 1.370 . S
C1802 C1806 1.524 . S
C1803 C1795 1.503 . S
C1803 C1802 1.370 . S
C1803 C1804 1.403 . S
C1804 C1803 1.403 . S
C1804 C1805 1.404 . S
C1804 C1807 1.539 . S
C1805 C1801 1.408 . S
C1805 C1804 1.404 . S
C1805 H1817 0.930 . S
C1806 C1802 1.524 . S
C1806 H1818 0.956 . S
C1806 H1819 0.961 . S
C1806 H1820 0.961 . S
C1807 C1804 1.539 . S
C1807 H1821 0.958 . S
C1807 H1822 0.961 . S
C1807 H1823 0.960 . S
H1808 C1792 0.931 . S
H1809 C1797 0.929 . S
H1810 C1798 0.960 . S
H1811 C1798 0.962 . S
H1812 C1798 0.960 . S
H1813 C1799 0.961 . S
H1814 C1799 0.961 . S
H1815 C1799 0.961 . S
H1816 C1800 0.931 . S
H1817 C1805 0.930 . S
H1818 C1806 0.956 . S
H1819 C1806 0.961 . S
H1820 C1806 0.961 . S
H1821 C1807 0.958 . S
H1822 C1807 0.961 . S
H1823 C1807 0.960 . S
C1824 C1825 1.391 . S
C1824 C1826 1.394 . S
C1824 H1840 0.931 . S
C1825 C1824 1.391 . S
C1825 C1829 1.376 . S
C1826 C1824 1.394 . S
C1826 C1827 1.369 . S
C1826 C1830 1.531 . S
C1827 C1826 1.369 . S
C1827 C1828 1.410 . S
C1827 C1835 1.503 . S
C1828 C1827 1.410 . S
C1828 C1829 1.392 . S
C1828 C1831 1.511 . S
C1829 C1825 1.376 . S
C1829 C1828 1.392 . S
C1829 H1841 0.929 . S
C1830 C1826 1.531 . S
C1830 H1842 0.960 . S
C1830 H1843 0.962 . S
C1830 H1844 0.960 . S
C1831 C1828 1.511 . S
C1831 H1845 0.961 . S
C1831 H1846 0.961 . S
C1831 H1847 0.961 . S
C1832 C1833 1.370 . S
C1832 C1834 1.363 . S
C1832 H1848 0.931 . S
C1833 C1832 1.370 . S
C1833 C1837 1.408 . S
C1834 C1832 1.363 . S
C1834 C1835 1.370 . S
C1834 C1838 1.524 . S
C1835 C1827 1.503 . S
C1835 C1834 1.370 . S
C1835 C1836 1.403 . S
C1836 C1835 1.403 . S
C1836 C1837 1.404 . S
C1836 C1839 1.539 . S
C1837 C1833 1.408 . S
C1837 C1836 1.404 . S
C1837 H1849 0.930 . S
C1838 C1834 1.524 . S
C1838 H1850 0.956 . S
C1838 H1851 0.961 . S
C1838 H1852 0.961 . S
C1839 C1836 1.539 . S
C1839 H1853 0.958 . S
C1839 H1854 0.961 . S
C1839 H1855 0.960 . S
H1840 C1824 0.931 . S
H1841 C1829 0.929 . S
H1842 C1830 0.960 . S
H1843 C1830 0.962 . S
H1844 C1830 0.960 . S
H1845 C1831 0.961 . S
H1846 C1831 0.961 . S
H1847 C1831 0.961 . S
H1848 C1832 0.931 . S
H1849 C1837 0.930 . S
H1850 C1838 0.956 . S
H1851 C1838 0.961 . S
H1852 C1838 0.961 . S
H1853 C1839 0.958 . S
H1854 C1839 0.961 . S
H1855 C1839 0.960 . S
C1856 C1857 1.391 . S
C1856 C1858 1.394 . S
C1856 H1872 0.931 . S
C1857 C1856 1.391 . S
C1857 C1861 1.376 . S
C1858 C1856 1.394 . S
C1858 C1859 1.369 . S
C1858 C1862 1.531 . S
C1859 C1858 1.369 . S
C1859 C1860 1.410 . S
C1859 C1867 1.503 . S
C1860 C1859 1.410 . S
C1860 C1861 1.392 . S
C1860 C1863 1.511 . S
C1861 C1857 1.376 . S
C1861 C1860 1.392 . S
C1861 H1873 0.929 . S
C1862 C1858 1.531 . S
C1862 H1874 0.960 . S
C1862 H1875 0.962 . S
C1862 H1876 0.960 . S
C1863 C1860 1.511 . S
C1863 H1877 0.961 . S
C1863 H1878 0.961 . S
C1863 H1879 0.961 . S
C1864 C1865 1.370 . S
C1864 C1866 1.363 . S
C1864 H1880 0.931 . S
C1865 C1864 1.370 . S
C1865 C1869 1.408 . S
C1866 C1864 1.363 . S
C1866 C1867 1.370 . S
C1866 C1870 1.524 . S
C1867 C1859 1.503 . S
C1867 C1866 1.370 . S
C1867 C1868 1.403 . S
C1868 C1867 1.403 . S
C1868 C1869 1.404 . S
C1868 C1871 1.539 . S
C1869 C1865 1.408 . S
C1869 C1868 1.404 . S
C1869 H1881 0.930 . S
C1870 C1866 1.524 . S
C1870 H1882 0.956 . S
C1870 H1883 0.961 . S
C1870 H1884 0.961 . S
C1871 C1868 1.539 . S
C1871 H1885 0.958 . S
C1871 H1886 0.961 . S
C1871 H1887 0.960 . S
H1872 C1856 0.931 . S
H1873 C1861 0.929 . S
H1874 C1862 0.960 . S
H1875 C1862 0.962 . S
H1876 C1862 0.960 . S
H1877 C1863 0.961 . S
H1878 C1863 0.961 . S
H1879 C1863 0.961 . S
H1880 C1864 0.931 . S
H1881 C1869 0.930 . S
H1882 C1870 0.956 . S
H1883 C1870 0.961 . S
H1884 C1870 0.961 . S
H1885 C1871 0.958 . S
H1886 C1871 0.961 . S
H1887 C1871 0.960 . S
C1888 C1889 1.391 . S
C1888 C1890 1.394 . S
C1888 H1904 0.931 . S
C1889 C1888 1.391 . S
C1889 C1893 1.376 . S
C1890 C1888 1.394 . S
C1890 C1891 1.369 . S
C1890 C1894 1.531 . S
C1891 C1890 1.369 . S
C1891 C1892 1.410 . S
C1891 C1899 1.503 . S
C1892 C1891 1.410 . S
C1892 C1893 1.392 . S
C1892 C1895 1.511 . S
C1893 C1889 1.376 . S
C1893 C1892 1.392 . S
C1893 H1905 0.929 . S
C1894 C1890 1.531 . S
C1894 H1906 0.960 . S
C1894 H1907 0.962 . S
C1894 H1908 0.960 . S
C1895 C1892 1.511 . S
C1895 H1909 0.961 . S
C1895 H1910 0.961 . S
C1895 H1911 0.961 . S
C1896 C1897 1.370 . S
C1896 C1898 1.363 . S
C1896 H1912 0.931 . S
C1897 C1896 1.370 . S
C1897 C1901 1.408 . S
C1898 C1896 1.363 . S
C1898 C1899 1.370 . S
C1898 C1902 1.524 . S
C1899 C1891 1.503 . S
C1899 C1898 1.370 . S
C1899 C1900 1.403 . S
C1900 C1899 1.403 . S
C1900 C1901 1.404 . S
C1900 C1903 1.539 . S
C1901 C1897 1.408 . S
C1901 C1900 1.404 . S
C1901 H1913 0.930 . S
C1902 C1898 1.524 . S
C1902 H1914 0.956 . S
C1902 H1915 0.961 . S
C1902 H1916 0.961 . S
C1903 C1900 1.539 . S
C1903 H1917 0.958 . S
C1903 H1918 0.961 . S
C1903 H1919 0.960 . S
H1904 C1888 0.931 . S
H1905 C1893 0.929 . S
H1906 C1894 0.960 . S
H1907 C1894 0.962 . S
H1908 C1894 0.960 . S
H1909 C1895 0.961 . S
H1910 C1895 0.961 . S
H1911 C1895 0.961 . S
H1912 C1896 0.931 . S
H1913 C1901 0.930 . S
H1914 C1902 0.956 . S
H1915 C1902 0.961 . S
H1916 C1902 0.961 . S
H1917 C1903 0.958 . S
H1918 C1903 0.961 . S
H1919 C1903 0.960 . S
C1920 C1921 1.391 1_554 S
C1920 C1922 1.394 . S
C1920 H1936 0.931 . S
C1921 C1920 1.391 1_556 S
C1921 C1925 1.376 1_556 S
C1922 C1920 1.394 . S
C1922 C1923 1.369 . S
C1922 C1926 1.531 . S
C1923 C1922 1.369 . S
C1923 C1924 1.410 . S
C1923 C1931 1.503 . S
C1924 C1923 1.410 . S
C1924 C1925 1.392 . S
C1924 C1927 1.511 . S
C1925 C1921 1.376 1_554 S
C1925 C1924 1.392 . S
C1925 H1937 0.935 . S
C1926 C1922 1.531 . S
C1926 H1938 0.960 . S
C1926 H1939 0.962 . S
C1926 H1940 0.960 . S
C1927 C1924 1.511 . S
C1927 H1941 0.961 . S
C1927 H1942 0.961 . S
C1927 H1943 0.961 . S
C1928 C1929 1.370 . S
C1928 C1930 1.363 . S
C1928 H1944 0.931 . S
C1929 C1928 1.370 . S
C1929 C1933 1.408 . S
C1930 C1928 1.363 . S
C1930 C1931 1.370 . S
C1930 C1934 1.524 . S
C1931 C1923 1.503 . S
C1931 C1930 1.370 . S
C1931 C1932 1.403 . S
C1932 C1931 1.403 . S
C1932 C1933 1.404 . S
C1932 C1935 1.539 . S
C1933 C1929 1.408 . S
C1933 C1932 1.404 . S
C1933 H1945 0.930 . S
C1934 C1930 1.524 . S
C1934 H1946 0.956 . S
C1934 H1947 0.961 . S
C1934 H1948 0.961 . S
C1935 C1932 1.539 . S
C1935 H1949 0.958 . S
C1935 H1950 0.961 . S
C1935 H1951 0.960 . S
H1936 C1920 0.931 . S
H1937 C1925 0.935 . S
H1938 C1926 0.960 . S
H1939 C1926 0.962 . S
H1940 C1926 0.960 . S
H1941 C1927 0.961 . S
H1942 C1927 0.961 . S
H1943 C1927 0.961 . S
H1944 C1928 0.931 . S
H1945 C1933 0.930 . S
H1946 C1934 0.956 . S
H1947 C1934 0.961 . S
H1948 C1934 0.961 . S
H1949 C1935 0.958 . S
H1950 C1935 0.961 . S
H1951 C1935 0.960 . S
C1952 C1953 1.391 . S
C1952 C1954 1.394 . S
C1952 H1968 0.931 . S
C1953 C1952 1.391 . S
C1953 C1957 1.376 . S
C1954 C1952 1.394 . S
C1954 C1955 1.369 . S
C1954 C1958 1.531 . S
C1955 C1954 1.369 . S
C1955 C1956 1.410 . S
C1955 C1963 1.503 . S
C1956 C1955 1.410 . S
C1956 C1957 1.392 . S
C1956 C1959 1.511 . S
C1957 C1953 1.376 . S
C1957 C1956 1.392 . S
C1957 H1969 0.929 . S
C1958 C1954 1.531 . S
C1958 H1970 0.960 . S
C1958 H1971 0.962 . S
C1958 H1972 0.960 . S
C1959 C1956 1.511 . S
C1959 H1973 0.961 . S
C1959 H1974 0.961 . S
C1959 H1975 0.961 . S
C1960 C1961 1.370 1_556 S
C1960 C1962 1.363 . S
C1960 H1976 0.931 . S
C1961 C1960 1.370 1_554 S
C1961 C1965 1.408 1_554 S
C1962 C1960 1.363 . S
C1962 C1963 1.370 . S
C1962 C1966 1.524 . S
C1963 C1955 1.503 . S
C1963 C1962 1.370 . S
C1963 C1964 1.403 . S
C1964 C1963 1.403 . S
C1964 C1965 1.404 . S
C1964 C1967 1.539 . S
C1965 C1961 1.408 1_556 S
C1965 C1964 1.404 . S
C1965 H1977 0.930 1_556 S
C1966 C1962 1.524 . S
C1966 H1978 0.956 . S
C1966 H1979 0.961 . S
C1966 H1980 0.961 . S
C1967 C1964 1.539 . S
C1967 H1981 0.958 . S
C1967 H1982 0.961 . S
C1967 H1983 0.960 . S
H1968 C1952 0.931 . S
H1969 C1957 0.929 . S
H1970 C1958 0.960 . S
H1971 C1958 0.962 . S
H1972 C1958 0.960 . S
H1973 C1959 0.961 . S
H1974 C1959 0.961 . S
H1975 C1959 0.961 . S
H1976 C1960 0.931 . S
H1977 C1965 0.930 1_554 S
H1978 C1966 0.956 . S
H1979 C1966 0.961 . S
H1980 C1966 0.961 . S
H1981 C1967 0.958 . S
H1982 C1967 0.961 . S
H1983 C1967 0.960 . S
C1984 C1985 1.391 . S
C1984 C1986 1.394 . S
C1984 H2000 0.931 . S
C1985 C1984 1.391 . S
C1985 C1989 1.376 . S
C1986 C1984 1.394 . S
C1986 C1987 1.369 . S
C1986 C1990 1.531 . S
C1987 C1986 1.369 . S
C1987 C1988 1.410 . S
C1987 C1995 1.503 . S
C1988 C1987 1.410 . S
C1988 C1989 1.392 . S
C1988 C1991 1.511 . S
C1989 C1985 1.376 . S
C1989 C1988 1.392 . S
C1989 H2001 0.929 . S
C1990 C1986 1.531 . S
C1990 H2002 0.960 . S
C1990 H2003 0.962 . S
C1990 H2004 0.960 . S
C1991 C1988 1.511 . S
C1991 H2005 0.961 . S
C1991 H2006 0.961 . S
C1991 H2007 0.961 . S
C1992 C1993 1.370 1_554 S
C1992 C1994 1.363 . S
C1992 H2008 0.931 . S
C1993 C1992 1.370 1_556 S
C1993 C1997 1.408 1_556 S
C1994 C1992 1.363 . S
C1994 C1995 1.370 . S
C1994 C1998 1.524 . S
C1995 C1987 1.503 . S
C1995 C1994 1.370 . S
C1995 C1996 1.403 . S
C1996 C1995 1.403 . S
C1996 C1997 1.404 . S
C1996 C1999 1.539 . S
C1997 C1993 1.408 1_554 S
C1997 C1996 1.404 . S
C1997 H2009 0.930 1_554 S
C1998 C1994 1.524 . S
C1998 H2010 0.956 . S
C1998 H2011 0.961 . S
C1998 H2012 0.961 . S
C1999 C1996 1.539 . S
C1999 H2013 0.958 . S
C1999 H2014 0.961 . S
C1999 H2015 0.960 . S
H2000 C1984 0.931 . S
H2001 C1989 0.929 . S
H2002 C1990 0.960 . S
H2003 C1990 0.962 . S
H2004 C1990 0.960 . S
H2005 C1991 0.961 . S
H2006 C1991 0.961 . S
H2007 C1991 0.961 . S
H2008 C1992 0.931 . S
H2009 C1997 0.930 1_556 S
H2010 C1998 0.956 . S
H2011 C1998 0.961 . S
H2012 C1998 0.961 . S
H2013 C1999 0.958 . S
H2014 C1999 0.961 . S
H2015 C1999 0.960 . S
C2016 C2017 1.391 1_556 S
C2016 C2018 1.394 . S
C2016 H2032 0.931 . S
C2017 C2016 1.391 1_554 S
C2017 C2021 1.376 1_554 S
C2018 C2016 1.394 . S
C2018 C2019 1.369 . S
C2018 C2022 1.531 . S
C2019 C2018 1.369 . S
C2019 C2020 1.410 . S
C2019 C2027 1.503 . S
C2020 C2019 1.410 . S
C2020 C2021 1.392 . S
C2020 C2023 1.511 . S
C2021 C2017 1.376 1_556 S
C2021 C2020 1.392 . S
C2021 H2033 0.920 1_556 S
C2022 C2018 1.531 . S
C2022 H2034 0.960 . S
C2022 H2035 0.962 . S
C2022 H2036 0.960 . S
C2023 C2020 1.511 . S
C2023 H2037 0.961 . S
C2023 H2038 0.961 . S
C2023 H2039 0.961 . S
C2024 C2025 1.370 . S
C2024 C2026 1.363 . S
C2024 H2040 0.931 . S
C2025 C2024 1.370 . S
C2025 C2029 1.408 . S
C2026 C2024 1.363 . S
C2026 C2027 1.370 . S
C2026 C2030 1.524 . S
C2027 C2019 1.503 . S
C2027 C2026 1.370 . S
C2027 C2028 1.403 . S
C2028 C2027 1.403 . S
C2028 C2029 1.404 . S
C2028 C2031 1.539 . S
C2029 C2025 1.408 . S
C2029 C2028 1.404 . S
C2029 H2041 0.930 . S
C2030 C2026 1.524 . S
C2030 H2042 0.956 . S
C2030 H2043 0.961 . S
C2030 H2044 0.961 . S
C2031 C2028 1.539 . S
C2031 H2045 0.958 . S
C2031 H2046 0.961 . S
C2031 H2047 0.960 . S
H2032 C2016 0.931 . S
H2033 C2021 0.920 1_554 S
H2034 C2022 0.960 . S
H2035 C2022 0.962 . S
H2036 C2022 0.960 . S
H2037 C2023 0.961 . S
H2038 C2023 0.961 . S
H2039 C2023 0.961 . S
H2040 C2024 0.931 . S
H2041 C2029 0.930 . S
H2042 C2030 0.956 . S
H2043 C2030 0.961 . S
H2044 C2030 0.961 . S
H2045 C2031 0.958 . S
H2046 C2031 0.961 . S
H2047 C2031 0.960 . S
C2048 C2049 1.391 . S
C2048 C2050 1.394 . S
C2048 H2064 0.931 . S
C2049 C2048 1.391 . S
C2049 C2053 1.376 . S
C2050 C2048 1.394 . S
C2050 C2051 1.369 . S
C2050 C2054 1.531 . S
C2051 C2050 1.369 . S
C2051 C2052 1.410 . S
C2051 C2059 1.503 . S
C2052 C2051 1.410 . S
C2052 C2053 1.392 . S
C2052 C2055 1.511 . S
C2053 C2049 1.376 . S
C2053 C2052 1.392 . S
C2053 H2065 0.929 . S
C2054 C2050 1.531 . S
C2054 H2066 0.960 . S
C2054 H2067 0.962 . S
C2054 H2068 0.960 . S
C2055 C2052 1.511 . S
C2055 H2069 0.961 . S
C2055 H2070 0.961 . S
C2055 H2071 0.961 . S
C2056 C2057 1.370 1_554 S
C2056 C2058 1.363 . S
C2056 H2072 0.931 1_554 S
C2057 C2056 1.370 1_556 S
C2057 C2061 1.408 1_556 S
C2058 C2056 1.363 . S
C2058 C2059 1.370 . S
C2058 C2062 1.524 . S
C2059 C2051 1.503 . S
C2059 C2058 1.370 . S
C2059 C2060 1.403 . S
C2060 C2059 1.403 . S
C2060 C2061 1.404 . S
C2060 C2063 1.539 . S
C2061 C2057 1.408 1_554 S
C2061 C2060 1.404 . S
C2061 H2073 0.937 . S
C2062 C2058 1.524 . S
C2062 H2074 0.956 . S
C2062 H2075 0.961 . S
C2062 H2076 0.961 . S
C2063 C2060 1.539 . S
C2063 H2077 0.958 . S
C2063 H2078 0.961 . S
C2063 H2079 0.960 . S
H2064 C2048 0.931 . S
H2065 C2053 0.929 . S
H2066 C2054 0.960 . S
H2067 C2054 0.962 . S
H2068 C2054 0.960 . S
H2069 C2055 0.961 . S
H2070 C2055 0.961 . S
H2071 C2055 0.961 . S
H2072 C2056 0.931 1_556 S
H2073 C2061 0.937 . S
H2074 C2062 0.956 . S
H2075 C2062 0.961 . S
H2076 C2062 0.961 . S
H2077 C2063 0.958 . S
H2078 C2063 0.961 . S
H2079 C2063 0.960 . S
C2080 C2081 1.391 1_556 S
C2080 C2082 1.394 . S
C2080 H2096 0.931 . S
C2081 C2080 1.391 1_554 S
C2081 C2085 1.376 1_554 S
C2082 C2080 1.394 . S
C2082 C2083 1.369 . S
C2082 C2086 1.531 . S
C2083 C2082 1.369 . S
C2083 C2084 1.410 . S
C2083 C2091 1.503 . S
C2084 C2083 1.410 . S
C2084 C2085 1.392 . S
C2084 C2087 1.511 . S
C2085 C2081 1.376 1_556 S
C2085 C2084 1.392 . S
C2085 H2097 0.929 1_556 S
C2086 C2082 1.531 . S
C2086 H2098 0.960 . S
C2086 H2099 0.962 . S
C2086 H2100 0.960 . S
C2087 C2084 1.511 . S
C2087 H2101 0.961 . S
C2087 H2102 0.961 . S
C2087 H2103 0.961 . S
C2088 C2089 1.370 . S
C2088 C2090 1.363 . S
C2088 H2104 0.931 . S
C2089 C2088 1.370 . S
C2089 C2093 1.408 . S
C2090 C2088 1.363 . S
C2090 C2091 1.370 . S
C2090 C2094 1.524 . S
C2091 C2083 1.503 . S
C2091 C2090 1.370 . S
C2091 C2092 1.403 . S
C2092 C2091 1.403 . S
C2092 C2093 1.404 . S
C2092 C2095 1.539 . S
C2093 C2089 1.408 . S
C2093 C2092 1.404 . S
C2093 H2105 0.930 . S
C2094 C2090 1.524 . S
C2094 H2106 0.956 . S
C2094 H2107 0.961 . S
C2094 H2108 0.961 . S
C2095 C2092 1.539 . S
C2095 H2109 0.958 . S
C2095 H2110 0.961 . S
C2095 H2111 0.960 . S
H2096 C2080 0.931 . S
H2097 C2085 0.929 1_554 S
H2098 C2086 0.960 . S
H2099 C2086 0.962 . S
H2100 C2086 0.960 . S
H2101 C2087 0.961 . S
H2102 C2087 0.961 . S
H2103 C2087 0.961 . S
H2104 C2088 0.931 . S
H2105 C2093 0.930 . S
H2106 C2094 0.956 . S
H2107 C2094 0.961 . S
H2108 C2094 0.961 . S
H2109 C2095 0.958 . S
H2110 C2095 0.961 . S
H2111 C2095 0.960 . S
C2112 C2113 1.391 1_554 S
C2112 C2114 1.394 . S
C2112 H2128 0.931 1_554 S
C2113 C2112 1.391 1_556 S
C2113 C2117 1.376 1_556 S
C2114 C2112 1.394 . S
C2114 C2115 1.369 . S
C2114 C2118 1.531 . S
C2115 C2114 1.369 . S
C2115 C2116 1.410 . S
C2115 C2123 1.503 . S
C2116 C2115 1.410 . S
C2116 C2117 1.392 . S
C2116 C2119 1.511 . S
C2117 C2113 1.376 1_554 S
C2117 C2116 1.392 . S
C2117 H2129 0.929 . S
C2118 C2114 1.531 . S
C2118 H2130 0.960 . S
C2118 H2131 0.962 . S
C2118 H2132 0.960 . S
C2119 C2116 1.511 . S
C2119 H2133 0.961 . S
C2119 H2134 0.961 . S
C2119 H2135 0.961 . S
C2120 C2121 1.370 . S
C2120 C2122 1.363 . S
C2120 H2136 0.931 . S
C2121 C2120 1.370 . S
C2121 C2125 1.408 . S
C2122 C2120 1.363 . S
C2122 C2123 1.370 . S
C2122 C2126 1.524 . S
C2123 C2115 1.503 . S
C2123 C2122 1.370 . S
C2123 C2124 1.403 . S
C2124 C2123 1.403 . S
C2124 C2125 1.404 . S
C2124 C2127 1.539 . S
C2125 C2121 1.408 . S
C2125 C2124 1.404 . S
C2125 H2137 0.930 . S
C2126 C2122 1.524 . S
C2126 H2138 0.956 . S
C2126 H2139 0.961 . S
C2126 H2140 0.961 . S
C2127 C2124 1.539 . S
C2127 H2141 0.958 . S
C2127 H2142 0.961 . S
C2127 H2143 0.960 . S
H2128 C2112 0.931 1_556 S
H2129 C2117 0.929 . S
H2130 C2118 0.960 . S
H2131 C2118 0.962 . S
H2132 C2118 0.960 . S
H2133 C2119 0.961 . S
H2134 C2119 0.961 . S
H2135 C2119 0.961 . S
H2136 C2120 0.931 . S
H2137 C2125 0.930 . S
H2138 C2126 0.956 . S
H2139 C2126 0.961 . S
H2140 C2126 0.961 . S
H2141 C2127 0.958 . S
H2142 C2127 0.961 . S
H2143 C2127 0.960 . S
C2144 C2145 1.391 . S
C2144 C2146 1.394 . S
C2144 H2160 0.931 . S
C2145 C2144 1.391 . S
C2145 C2149 1.376 . S
C2146 C2144 1.394 . S
C2146 C2147 1.369 . S
C2146 C2150 1.531 . S
C2147 C2146 1.369 . S
C2147 C2148 1.410 . S
C2147 C2155 1.503 . S
C2148 C2147 1.410 . S
C2148 C2149 1.392 . S
C2148 C2151 1.511 . S
C2149 C2145 1.376 . S
C2149 C2148 1.392 . S
C2149 H2161 0.929 . S
C2150 C2146 1.531 . S
C2150 H2162 0.960 . S
C2150 H2163 0.962 . S
C2150 H2164 0.960 . S
C2151 C2148 1.511 . S
C2151 H2165 0.961 . S
C2151 H2166 0.961 . S
C2151 H2167 0.961 . S
C2152 C2153 1.370 1_556 S
C2152 C2154 1.363 . S
C2152 H2168 0.931 1_556 S
C2153 C2152 1.370 1_554 S
C2153 C2157 1.408 1_554 S
C2154 C2152 1.363 . S
C2154 C2155 1.370 . S
C2154 C2158 1.524 . S
C2155 C2147 1.503 . S
C2155 C2154 1.370 . S
C2155 C2156 1.403 . S
C2156 C2155 1.403 . S
C2156 C2157 1.404 . S
C2156 C2159 1.539 . S
C2157 C2153 1.408 1_556 S
C2157 C2156 1.404 . S
C2157 H2169 0.930 . S
C2158 C2154 1.524 . S
C2158 H2170 0.956 . S
C2158 H2171 0.961 . S
C2158 H2172 0.961 . S
C2159 C2156 1.539 . S
C2159 H2173 0.958 . S
C2159 H2174 0.961 . S
C2159 H2175 0.960 . S
H2160 C2144 0.931 . S
H2161 C2149 0.929 . S
H2162 C2150 0.960 . S
H2163 C2150 0.962 . S
H2164 C2150 0.960 . S
H2165 C2151 0.961 . S
H2166 C2151 0.961 . S
H2167 C2151 0.961 . S
H2168 C2152 0.931 1_554 S
H2169 C2157 0.930 . S
H2170 C2158 0.956 . S
H2171 C2158 0.961 . S
H2172 C2158 0.961 . S
H2173 C2159 0.958 . S
H2174 C2159 0.961 . S
H2175 C2159 0.960 . S
C641 C459 1.693 . S
C649 C18 1.728 . S
C673 C330 1.727 . S
C681 C49 1.714 . S
C705 C98 1.697 . S
C713 C379 1.728 . S
C737 C129 1.723 . S
C745 C410 1.713 . S
C769 C178 1.710 . S
C777 C219 1.727 . S
C801 C250 1.707 . S
C809 C209 1.726 . S
C833 C258 1.712 . S
C841 C299 1.726 . S
C865 C170 1.732 . S
C873 C289 1.712 . S
C897 C139 1.711 . S
C905 C338 1.727 . S
C929 C369 1.696 . S
C937 C10 1.726 . S
C961 C59 1.731 . S
C969 C418 1.719 . S
C993 C90 1.693 . S
C1001 C449 1.729 . S
C1025 C498 1.723 . S
C1033 C539 1.711 . S
C1057 C570 1.721 . S
C1065 C529 1.721 . S
C1089 C619 1.714 . S
C1097 C578 1.716 . S
C1121 C609 1.737 . S
C1129 C490 1.710 . S
C1153 C9 1.208 . S
C1161 C169 1.152 . S
C1185 C218 1.174 . S
C1193 C58 1.156 . S
C1217 C89 1.156 . S
C1225 C249 1.187 . S
C1249 C138 1.169 . S
C1257 C298 1.157 . S
C1281 C329 1.143 . S
C1289 C489 1.173 . S
C1313 C538 1.211 . S
C1321 C378 1.169 . S
C1345 C409 1.149 . S
C1353 C569 1.189 . S
C1377 C458 1.187 . S
C1385 C618 1.153 . S
C1409 C579 2.283 . S
C1417 C19 2.298 1_556 S
C1441 C50 2.289 1_554 S
C1449 C610 2.295 . S
C1473 C99 2.302 1_556 S
C1481 C499 2.289 . S
C1505 C130 2.293 1_554 S
C1513 C530 2.288 . S
C1537 C179 2.287 . S
C1545 C419 2.298 . S
C1569 C210 2.283 . S
C1577 C450 2.297 . S
C1601 C259 2.286 . S
C1609 C339 2.298 . S
C1633 C370 2.276 . S
C1641 C290 2.299 . S
C1665 C6 1.067 . S
C1673 C15 1.085 . S
C1697 C55 1.084 . S
C1705 C46 1.078 . S
C1729 C86 1.090 . S
C1737 C95 1.076 . S
C1761 C126 1.072 . S
C1769 C135 1.084 . S
C1793 C175 1.079 . S
C1801 C166 1.082 . S
C1825 C215 1.085 . S
C1833 C206 1.077 . S
C1857 C246 1.065 . S
C1865 C255 1.086 . S
C1889 C286 1.085 . S
C1897 C295 1.077 . S
C1921 C326 1.088 . S
C1929 C335 1.077 . S
C1953 C366 1.075 . S
C1961 C375 1.083 . S
C1985 C415 1.090 . S
C1993 C406 1.077 . S
C2017 C455 1.068 . S
C2025 C446 1.086 . S
C2049 C486 1.073 . S
C2057 C495 1.082 . S
C2081 C526 1.086 . S
C2089 C535 1.078 . S
C2113 C575 1.066 . S
C2121 C566 1.086 . S
C2145 C615 1.070 . S
C2153 C606 1.085 . S
