# Generated by pormake.
# Topology snz, (6)-cn, num edge types: 1
# Building blocks:
#     Node 0, Type 0, BuildingBlock: HISSIN_clean_sbu_0, # of connection points: 6
#     Node 1, Type 0, BuildingBlock: HISSIN_clean_sbu_0, # of connection points: 6
#     Node 2, Type 0, BuildingBlock: HISSIN_clean_sbu_0, # of connection points: 6
#     Node 3, Type 0, BuildingBlock: HISSIN_clean_sbu_0, # of connection points: 6
#     Node 4, Type 0, BuildingBlock: HISSIN_clean_sbu_0, # of connection points: 6
#     Node 5, Type 0, BuildingBlock: HISSIN_clean_sbu_0, # of connection points: 6
#     Node 6, Type 0, BuildingBlock: HISSIN_clean_sbu_0, # of connection points: 6
#     Node 7, Type 0, BuildingBlock: HISSIN_clean_sbu_0, # of connection points: 6
#     Node 8, Type 0, BuildingBlock: HISSIN_clean_sbu_0, # of connection points: 6
#     Edge 9, Type (0, 0), BuildingBlock: KIFKEQ_clean_linker_1, # of connection points: 2
#     Edge 10, Type (0, 0), BuildingBlock: KIFKEQ_clean_linker_1, # of connection points: 2
#     Edge 11, Type (0, 0), BuildingBlock: KIFKEQ_clean_linker_1, # of connection points: 2
#     Edge 12, Type (0, 0), BuildingBlock: KIFKEQ_clean_linker_1, # of connection points: 2
#     Edge 13, Type (0, 0), BuildingBlock: KIFKEQ_clean_linker_1, # of connection points: 2
#     Edge 14, Type (0, 0), BuildingBlock: KIFKEQ_clean_linker_1, # of connection points: 2
#     Edge 15, Type (0, 0), BuildingBlock: KIFKEQ_clean_linker_1, # of connection points: 2
#     Edge 16, Type (0, 0), BuildingBlock: KIFKEQ_clean_linker_1, # of connection points: 2
#     Edge 17, Type (0, 0), BuildingBlock: KIFKEQ_clean_linker_1, # of connection points: 2
#     Edge 18, Type (0, 0), BuildingBlock: KIFKEQ_clean_linker_1, # of connection points: 2
#     Edge 19, Type (0, 0), BuildingBlock: KIFKEQ_clean_linker_1, # of connection points: 2
#     Edge 20, Type (0, 0), BuildingBlock: KIFKEQ_clean_linker_1, # of connection points: 2
#     Edge 21, Type (0, 0), BuildingBlock: KIFKEQ_clean_linker_1, # of connection points: 2
#     Edge 22, Type (0, 0), BuildingBlock: KIFKEQ_clean_linker_1, # of connection points: 2
#     Edge 23, Type (0, 0), BuildingBlock: KIFKEQ_clean_linker_1, # of connection points: 2
#     Edge 24, Type (0, 0), BuildingBlock: KIFKEQ_clean_linker_1, # of connection points: 2
#     Edge 25, Type (0, 0), BuildingBlock: KIFKEQ_clean_linker_1, # of connection points: 2
#     Edge 26, Type (0, 0), BuildingBlock: KIFKEQ_clean_linker_1, # of connection points: 2
#     Edge 27, Type (0, 0), BuildingBlock: KIFKEQ_clean_linker_1, # of connection points: 2
#     Edge 28, Type (0, 0), BuildingBlock: KIFKEQ_clean_linker_1, # of connection points: 2
#     Edge 29, Type (0, 0), BuildingBlock: KIFKEQ_clean_linker_1, # of connection points: 2
#     Edge 30, Type (0, 0), BuildingBlock: KIFKEQ_clean_linker_1, # of connection points: 2
#     Edge 31, Type (0, 0), BuildingBlock: KIFKEQ_clean_linker_1, # of connection points: 2
#     Edge 32, Type (0, 0), BuildingBlock: KIFKEQ_clean_linker_1, # of connection points: 2
#     Edge 33, Type (0, 0), BuildingBlock: KIFKEQ_clean_linker_1, # of connection points: 2
#     Edge 34, Type (0, 0), BuildingBlock: KIFKEQ_clean_linker_1, # of connection points: 2
#     Edge 35, Type (0, 0), BuildingBlock: KIFKEQ_clean_linker_1, # of connection points: 2
# Relax obj value: 0.388
# Max RMSD: 0.227
# Mean RMSD: 0.149
data_MOF--net-snz--node1-HISSIN_clean_sbu_0--edge1-KIFKEQ_clean_linker_1
_symmetry_space_group_name_H-M    P1
_symmetry_Int_Tables_number       1
_symmetry_cell_setting            triclinic
loop_
_symmetry_equiv_pos_as_xyz
'x, y, z'
_cell_length_a     69.010197
_cell_length_b     55.164165
_cell_length_c     16.231232
_cell_angle_alpha  96.504443
_cell_angle_beta   97.238638
_cell_angle_gamma 120.62672
loop_
_atom_site_label
_atom_site_type_symbol
_atom_site_fract_x
_atom_site_fract_y
_atom_site_fract_z
_atom_type_partial_charge
Eu0 Eu 0.13736 0.509 0.28909 0.0
Eu1 Eu 0.09216 0.51429 0.26643 0.0
C2 C 0.11367 0.50891 0.45255 0.0
C3 C 0.17961 0.48536 0.35967 0.0
C4 C 0.16384 0.45598 0.35552 0.0
C5 C 0.20925 0.4818 0.44587 0.0
C6 C 0.1708 0.43959 0.39549 0.0
C7 C 0.2023 0.49811 0.40559 0.0
C8 C 0.19366 0.45223 0.44091 0.0
C9 C 0.17292 0.50305 0.31642 0.0
O10 O 0.12101 0.55971 0.26966 0.0
O11 O 0.15197 0.55729 0.32666 0.0
C12 C 0.14288 0.57241 0.30638 0.0
O13 O 0.13493 0.51862 0.15471 0.0
O14 O 0.07376 0.53333 0.315 0.0
O15 O 0.05744 0.50022 0.2002 0.0
O16 O 0.09843 0.51086 0.1305 0.0
C17 C 0.11685 0.51493 0.10209 0.0
O18 O 0.10738 0.46431 0.22238 0.0
O19 O 0.07739 0.46659 0.25918 0.0
O20 O 0.10277 0.51917 0.4105 0.0
O21 O 0.15654 0.48997 0.2482 0.0
O22 O 0.171 0.52189 0.36474 0.0
O23 O 0.12445 0.49881 0.41252 0.0
C24 C 0.04719 0.53515 0.21388 0.0
C25 C 0.05625 0.54951 0.14923 0.0
C26 C 1.02082 0.55198 0.20851 0.0
C27 C 0.04745 0.56484 0.1138 0.0
C28 C 0.02958 0.53666 0.24364 0.0
C29 C 0.02949 0.56606 0.14267 0.0
C30 C 0.05593 0.51875 0.25201 0.0
C31 C 0.08549 0.45169 0.22579 0.0
H32 H 0.14618 0.44562 0.32081 0.0
H33 H 0.22685 0.49247 0.48141 0.0
H34 H 0.15835 0.41686 0.3893 0.0
H35 H 0.21472 0.52077 0.41015 0.0
H36 H 0.06998 0.54868 0.12587 0.0
H37 H 1.00729 0.5529 0.23327 0.0
H38 H 0.05437 0.57523 1.06272 0.0
H39 H 1.02257 0.52593 0.29414 0.0
Eu40 Eu 0.63989 0.52953 1.07384 0.0
Eu41 Eu 0.59209 0.52955 1.05431 0.0
C42 C 0.61645 0.53205 0.88775 0.0
C43 C 0.70093 0.5446 1.06332 0.0
C44 C 0.70968 0.57124 1.03866 0.0
C45 C 0.73515 0.54481 1.03963 0.0
C46 C 0.73108 0.58458 1.0147 0.0
C47 C 0.71387 0.53159 1.06375 0.0
C48 C 0.74406 0.57144 1.01443 0.0
C49 C 0.67848 0.52993 0.08904 0.0
O50 O 0.58212 0.48461 1.06929 0.0
O51 O 0.61069 0.4827 1.01859 0.0
C52 C 0.58984 0.46952 1.0344 0.0
O53 O 0.62943 0.52169 0.20309 0.0
O54 O 0.55526 0.50705 0.99757 0.0
O55 O 0.57162 0.54752 0.08743 0.0
O56 O 0.60365 0.53626 0.19802 0.0
C57 C 0.6167 0.52897 0.24143 0.0
O58 O 0.65218 0.57718 0.10489 0.0
O59 O 0.61879 0.57677 1.06481 0.0
O60 O 0.59754 0.52549 0.91659 0.0
O61 O 0.67469 0.54526 0.14416 0.0
O62 O 0.66027 0.5127 1.02909 0.0
O63 O 0.63543 0.53834 0.9402 0.0
C64 C 0.5344 0.51138 0.09636 0.0
C65 C 0.53946 0.50316 0.17091 0.0
C66 C 0.4956 0.49384 0.11851 0.0
C67 C 0.52283 0.49065 0.21935 0.0
C68 C 0.51235 0.50655 1.07027 0.0
C69 C 0.50069 0.48588 0.19394 0.0
C70 C 0.55212 0.52472 1.04607 0.0
C71 C 0.6413 0.59082 0.09265 0.0
H72 H 0.69995 0.58165 1.03763 0.0
H73 H 0.74475 0.53423 1.04152 0.0
H74 H 0.73725 0.60491 0.9949 0.0
H75 H 0.7075 0.51111 1.0829 0.0
H76 H 0.55631 0.5064 0.1917 0.0
H77 H 0.47879 0.49066 0.0975 0.0
H78 H 0.52723 0.4844 0.27627 0.0
H79 H 0.50811 0.51268 1.0128 0.0
Eu80 Eu 0.58888 0.06413 0.87298 0.0
Eu81 Eu 0.64084 0.12204 0.91701 0.0
C82 C 0.61564 0.09587 1.07364 0.0
C83 C 0.52952 1.00816 0.9004 0.0
C84 C 0.53561 0.01971 0.98786 0.0
C85 C 0.49061 0.97414 0.91471 0.0
C86 C 0.5194 1.00835 1.03861 0.0
C87 C 0.5069 0.98545 0.86409 0.0
C88 C 0.49668 0.98528 1.00285 0.0
C89 C 0.54686 0.01922 0.84758 0.0
O90 O 0.64504 0.08513 0.93834 0.0
O91 O 0.61176 0.04682 0.85457 0.0
C92 C 0.63253 0.05788 0.90052 0.0
O93 O 0.59468 0.07647 0.74274 0.0
O94 O 0.67508 0.14979 1.00157 0.0
O95 O 0.66903 0.15824 0.87784 0.0
O96 O 0.63411 0.10393 0.77432 0.0
C97 C 0.61441 0.09027 0.71744 0.0
O98 O 0.58523 0.10094 0.92434 0.0
O99 O 0.61613 0.13791 0.8878 0.0
O100 O 0.63017 0.11936 1.04752 0.0
O101 O 0.55171 0.04333 0.82512 0.0
O102 O 0.56535 0.01878 0.8726 0.0
O103 O 0.60078 0.07177 1.0174 0.0
C104 C 0.70632 0.16579 0.92984 0.0
C105 C 0.70818 0.15526 0.84988 0.0
C106 C 0.7462 0.18023 0.98575 0.0
C107 C 0.72881 0.15736 0.838 0.0
C108 C 0.72562 0.17827 0.99747 0.0
C109 C 0.74821 0.16988 0.90573 0.0
C110 C 0.68455 0.16379 0.94416 0.0
C111 C 0.59526 0.12629 0.90416 0.0
H112 H 0.55301 0.03729 1.01708 0.0
H113 H 0.47322 0.95675 0.8846 0.0
H114 H 0.52484 1.01728 0.1062 0.0
H115 H 0.50186 0.97634 0.79662 0.0
H116 H 0.69366 0.14528 0.79632 0.0
H117 H 0.7607 0.19034 1.03939 0.0
H118 H 0.72941 0.14874 0.7757 0.0
H119 H 0.7248 0.18661 1.0598 0.0
Eu120 Eu 0.7869 0.86884 0.29749 0.0
Eu121 Eu 0.74251 0.87611 0.27539 0.0
C122 C 0.76294 0.8697 0.46264 0.0
C123 C 0.83042 0.84485 0.34132 0.0
C124 C 0.82289 0.83177 0.40972 0.0
C125 C 0.85447 0.82474 0.33405 0.0
C126 C 0.83131 0.81545 0.44063 0.0
C127 C 0.84611 0.84108 0.30346 0.0
C128 C 0.84731 0.81189 0.4034 0.0
C129 C 0.82211 0.86228 0.30753 0.0
O130 O 0.77306 0.92126 0.33599 0.0
O131 O 0.80318 0.91693 0.31049 0.0
C132 C 0.79518 0.93276 0.33771 0.0
O133 O 0.7763 0.86469 0.15365 0.0
O134 O 0.72392 0.89608 0.31711 0.0
O135 O 0.70885 0.86355 0.20184 0.0
O136 O 0.7552 0.88585 0.15168 0.0
C137 C 0.76576 0.87541 0.11176 0.0
O138 O 0.75743 0.82426 0.29765 0.0
O139 O 0.72741 0.82761 0.23553 0.0
O140 O 0.74523 0.86711 0.41062 0.0
O141 O 0.80417 0.84876 0.24481 0.0
O142 O 0.82121 0.88073 0.36214 0.0
O143 O 0.78096 0.87251 0.43371 0.0
C144 C 0.70036 0.90023 0.20718 0.0
C145 C 0.70995 0.91215 0.13967 0.0
C146 C 0.67672 0.92112 0.1932 0.0
C147 C 0.70285 0.92832 0.09889 0.0
C148 C 0.68378 0.90495 0.2337 0.0
C149 C 0.68605 0.93295 0.12488 0.0
C150 C 0.70717 0.88262 0.25016 0.0
C151 C 0.73581 0.81199 0.25845 0.0
H152 H 0.81066 0.83433 0.43945 0.0
H153 H 0.86644 0.82204 0.30294 0.0
H154 H 0.82561 0.80609 0.49465 0.0
H155 H 0.85193 0.85081 0.25006 0.0
H156 H 0.72281 0.90881 0.11814 0.0
H157 H 0.6641 0.92463 0.21624 0.0
H158 H 0.71029 0.93681 1.04615 0.0
H159 H 0.67625 0.89608 0.28594 0.0
Eu160 Eu 0.28817 0.85453 0.51292 0.0
Eu161 Eu 0.24019 0.85464 0.48994 0.0
C162 C 0.26417 0.85657 0.32483 0.0
C163 C 0.34586 0.87228 0.46876 0.0
C164 C 0.34355 0.88761 0.40888 0.0
C165 C 0.38219 0.88284 0.43318 0.0
C166 C 0.36031 0.90026 0.36102 0.0
C167 C 0.36531 0.87004 0.48079 0.0
C168 C 0.37988 0.89805 0.37237 0.0
C169 C 0.32775 0.85826 0.51704 0.0
O170 O 0.22772 0.80734 0.48361 0.0
O171 O 0.2606 0.80701 0.47498 0.0
C172 C 0.23826 0.79335 0.47127 0.0
O173 O 0.27855 0.84665 0.64245 0.0
O174 O 0.20508 0.83845 0.42277 0.0
O175 O 0.22008 0.87176 0.5365 0.0
O176 O 0.25026 0.85735 0.63306 0.0
C177 C 0.26438 0.85179 0.67819 0.0
O178 O 0.29866 0.90005 0.5673 0.0
O179 O 0.26874 0.90141 0.49488 0.0
O180 O 0.2453 0.85042 0.35273 0.0
O181 O 0.32491 0.87543 0.56893 0.0
O182 O 0.30811 0.83649 0.47295 0.0
O183 O 0.28295 0.86269 0.37817 0.0
C184 C 0.1794 0.83845 0.50836 0.0
C185 C 0.16662 0.80834 0.49982 0.0
C186 C 0.14923 0.84046 0.56667 0.0
C187 C 0.14524 0.79443 0.52354 0.0
C188 C 0.17052 0.85432 0.54245 0.0
C189 C 0.13618 0.81029 0.55694 0.0
C190 C 0.20142 0.85359 0.47917 0.0
C191 C 0.28995 0.91477 0.54077 0.0
H192 H 0.32867 0.88962 0.39867 0.0
H193 H 0.39715 0.88101 0.44456 0.0
H194 H 0.35768 0.91136 0.31405 0.0
H195 H 0.36741 0.85835 0.52687 0.0
H196 H 0.17305 0.79547 0.47417 0.0
H197 H 0.14274 0.85338 0.59122 0.0
H198 H 0.13585 0.77123 0.51616 0.0
H199 H 0.17994 0.87751 0.54932 0.0
Eu200 Eu 0.23829 0.26254 0.64525 0.0
Eu201 Eu 0.29037 0.3204 0.68877 0.0
C202 C 0.26488 0.29436 0.84459 0.0
C203 C 0.17292 0.21842 0.63189 0.0
C204 C 0.1718 0.2432 0.64922 0.0
C205 C 0.13228 0.18929 0.63861 0.0
C206 C 0.15112 0.24104 0.66078 0.0
C207 C 0.15293 0.19149 0.62681 0.0
C208 C 0.13095 0.21402 0.65575 0.0
C209 C 0.19464 0.22037 0.6184 0.0
O210 O 0.29357 0.28345 0.63588 0.0
O211 O 0.26312 0.24687 0.67518 0.0
C212 C 0.28388 0.2584 0.65785 0.0
O213 O 0.24883 0.2653 0.51446 0.0
O214 O 0.3275 0.34088 0.73646 0.0
O215 O 0.31412 0.36563 0.6884 0.0
O216 O 0.2783 0.31285 0.54453 0.0
C217 C 0.26339 0.28877 0.4883 0.0
O218 O 0.23407 0.29953 0.62512 0.0
O219 O 0.26763 0.33781 0.70784 0.0
O220 O 0.2846 0.30806 0.81912 0.0
O221 O 0.20419 0.23432 0.56101 0.0
O222 O 0.21006 0.22669 0.68593 0.0
O223 O 0.24515 0.28077 0.78787 0.0
C224 C 0.34978 0.3756 0.66015 0.0
C225 C 0.34348 0.36409 0.57257 0.0
C226 C 0.38886 0.40871 0.64536 0.0
C227 C 0.35968 0.37506 0.52153 0.0
C228 C 0.37259 0.39784 0.69626 0.0
C229 C 0.38256 0.39762 0.55721 0.0
C230 C 0.33251 0.36495 0.71337 0.0
C231 C 0.24677 0.3268 0.66279 0.0
H232 H 0.18695 0.26429 0.65395 0.0
H233 H 0.11721 0.16806 0.63296 0.0
H234 H 0.15107 0.26066 0.67494 0.0
H235 H 0.15325 0.17202 0.61328 0.0
H236 H 0.32598 0.34675 0.54358 0.0
H237 H 0.40626 0.42625 0.67476 0.0
H238 H 0.35431 0.36576 0.45416 0.0
H239 H 0.37776 0.40701 0.76371 0.0
Eu240 Eu 0.44104 0.19447 0.68078 0.0
Eu241 Eu 0.43732 0.18828 0.87241 0.0
C242 C 0.40485 0.1326 0.72041 0.0
C243 C 0.41327 0.17225 0.45913 0.0
C244 C 0.39388 0.15478 0.49168 0.0
C245 C 0.39139 0.1449 0.3175 0.0
C246 C 0.37365 0.13202 0.43815 0.0
C247 C 0.41176 0.16765 0.37147 0.0
C248 C 0.37239 0.1263 0.35072 0.0
C249 C 0.4353 0.19275 0.51897 0.0
O250 O 0.45703 0.16838 0.82679 0.0
O251 O 0.47407 0.19666 0.73514 0.0
C252 C 0.47412 0.18016 0.78736 0.0
O253 O 0.46561 0.241 0.75176 0.0
O254 O 0.41935 0.17752 0.97656 0.0
O255 O 0.45402 0.18604 0.99243 0.0
O256 O 0.46556 0.23559 0.89058 0.0
C257 C 0.47322 0.25184 0.83421 0.0
O258 O 0.40807 0.19186 0.70048 0.0
O259 O 0.4163 0.20855 0.84294 0.0
O260 O 0.40608 0.14661 0.79379 0.0
O261 O 0.43491 0.21185 0.57298 0.0
O262 O 0.44517 0.1808 0.55607 0.0
O263 O 0.41974 0.146 0.67369 0.0
C264 C 0.42622 0.14519 1.03458 0.0
C265 C 0.4207 0.13849 0.11215 0.0
C266 C 0.40727 0.09412 0.97252 0.0
C267 C 0.408 0.10971 0.11928 0.0
C268 C 0.42034 0.12292 0.96597 0.0
C269 C 0.40034 0.08725 1.04844 0.0
C270 C 0.43491 0.17442 1.01993 0.0
C271 C 0.40398 0.20306 0.76681 0.0
H272 H 0.3947 0.15778 0.5592 0.0
H273 H 0.39109 0.14075 0.25038 0.0
H274 H 0.35939 0.11811 0.46558 0.0
H275 H 0.42656 0.18071 0.34523 0.0
H276 H 0.42496 0.15534 0.16545 0.0
H277 H 0.40138 0.07729 0.91698 0.0
H278 H 0.40247 0.10504 0.17821 0.0
H279 H 0.42457 0.12775 0.90551 0.0
Eu280 Eu 0.94024 0.17668 0.85777 0.0
Eu281 Eu 0.93822 0.20791 0.70357 0.0
C282 C 0.97148 0.24678 0.88506 0.0
C283 C 0.91435 0.1247 0.99371 0.0
C284 C 0.89434 0.10958 0.9286 0.0
C285 C 0.89073 0.10766 0.09725 0.0
C286 C 0.87258 0.09469 0.94816 0.0
C287 C 0.91245 0.12245 1.07756 0.0
C288 C 0.87048 0.09499 1.03323 0.0
C289 C 0.93596 0.14751 0.97662 0.0
O290 O 0.96738 0.20006 0.69176 0.0
O291 O 0.97502 0.1922 0.82484 0.0
C292 C 0.98063 0.19726 0.75129 0.0
O293 O 0.92451 0.14181 0.73825 0.0
O294 O 0.93546 0.24186 0.65708 0.0
O295 O 0.93647 0.20997 0.56967 0.0
O296 O 0.90887 0.16105 0.6569 0.0
C297 C 0.90952 0.13863 0.67296 0.0
O298 O 0.9045 0.16992 0.8358 0.0
O299 O 0.91322 0.20926 0.77968 0.0
O300 O 0.96873 0.24387 0.80217 0.0
O301 O 0.94115 0.1417 0.9055 0.0
O302 O 0.93856 0.17287 0.98923 0.0
O303 O 0.95944 0.22456 0.91957 0.0
C304 C 0.91028 0.22294 0.52269 0.0
C305 C 0.90951 0.22397 0.43683 0.0
C306 C 0.86838 0.19671 0.49471 0.0
C307 C 0.88832 0.21024 0.37949 0.0
C308 C 0.88962 0.21028 0.55195 0.0
C309 C 0.86744 0.19511 0.40707 0.0
C310 C 0.9319 0.23024 0.57774 0.0
C311 C 0.89937 0.18862 0.81522 0.0
H312 H 0.8954 0.1112 0.86321 0.0
H313 H 0.88998 0.10878 0.1637 0.0
H314 H 0.85743 0.08487 0.89725 0.0
H315 H 0.92766 0.13422 0.12863 0.0
H316 H 0.92525 0.23346 0.41308 0.0
H317 H 0.85274 0.18574 0.51849 0.0
H318 H 0.88853 0.20929 0.31265 0.0
H319 H 0.88982 0.20915 0.61822 0.0
Eu320 Eu 0.92598 0.66021 0.68384 0.0
Eu321 Eu 0.94765 0.71392 0.846 0.0
C322 C 0.91732 0.7108 0.67623 0.0
C323 C 0.8823 0.60966 0.49403 0.0
C324 C 0.8822 0.60918 0.40751 0.0
C325 C 0.84832 0.61314 0.47516 0.0
C326 C 0.8663 0.61276 0.35669 0.0
C327 C 0.86427 0.60967 0.52601 0.0
C328 C 0.8503 0.61695 0.39185 0.0
C329 C 0.90373 0.61764 0.55287 0.0
O330 O 0.91587 0.67764 0.87686 0.0
O331 O 0.89608 0.65524 0.74051 0.0
C332 C 0.89635 0.66024 0.82183 0.0
O333 O 0.93962 0.64679 0.79127 0.0
O334 O 0.95813 0.75865 0.8903 0.0
O335 O 0.95908 0.73328 0.98133 0.0
O336 O 0.96592 0.69095 0.87828 0.0
C337 C 0.95744 0.66319 0.85481 0.0
O338 O 0.96435 0.68481 0.68834 0.0
O339 O 0.9736 0.72883 0.76154 0.0
O340 O 0.91965 0.71393 0.7585 0.0
O341 O 0.92161 0.64255 0.55076 0.0
O342 O 0.90212 0.61426 0.63054 0.0
O343 O 0.92426 0.6959 0.63507 0.0
C344 C 0.94167 0.75919 1.00786 0.0
C345 C 0.91827 0.74086 0.96865 0.0
C346 C 0.93069 0.77315 0.13233 0.0
C347 C 0.90125 0.73723 1.01263 0.0
C348 C 0.94784 0.77632 0.08849 0.0
C349 C 0.90722 0.75204 0.09713 0.0
C350 C 0.95861 0.75601 0.96934 0.0
C351 C 0.97874 0.71287 0.71356 0.0
H352 H 0.8959 0.60918 0.38143 0.0
H353 H 0.83593 0.61572 0.50365 0.0
H354 H 0.86844 0.61562 0.29285 0.0
H355 H 0.86375 0.60984 0.59243 0.0
H356 H 0.9131 0.72738 0.90639 0.0
H357 H 0.936 0.78576 0.19611 0.0
H358 H 0.88363 0.72064 0.98251 0.0
H359 H 0.96583 0.79076 0.11955 0.0
H360 H 0.08319 0.509 0.9729 0.0
H361 H 0.15028 0.51987 1.0122 0.0
H362 H 0.08229 0.507 0.82147 0.0
H363 H 0.14969 0.51845 0.86058 0.0
H364 H 0.13553 0.49155 0.56723 0.0
H365 H 0.13643 0.49299 0.71907 0.0
H366 H 0.09406 0.52955 0.70898 0.0
H367 H 0.09286 0.52754 0.55739 0.0
C368 C 0.09794 0.51119 0.94981 0.0
C369 C 0.11684 0.51469 1.00721 0.0
C370 C 0.0975 0.5102 0.86165 0.0
C371 C 0.11592 0.51257 0.82559 0.0
C372 C 0.13486 0.5161 0.88328 0.0
C373 C 0.13532 0.51718 0.97164 0.0
C374 C 0.12628 0.49982 0.59699 0.0
C375 C 0.11403 0.50929 0.54765 0.0
C376 C 0.12694 0.50089 0.68546 0.0
C377 C 0.11532 0.51141 0.72946 0.0
C378 C 0.10304 0.52081 0.67964 0.0
C379 C 0.10244 0.5198 0.5914 0.0
H380 H 0.65195 0.54381 0.80303 0.0
H381 H 0.58093 0.5196 0.75383 0.0
H382 H 0.65212 0.54302 0.65245 0.0
H383 H 0.58084 0.51818 0.60266 0.0
H384 H 0.59104 0.54045 0.33973 0.0
H385 H 0.59107 0.54146 0.49022 0.0
H386 H 0.64209 0.51805 0.51244 0.0
H387 H 0.64232 0.51766 0.36153 0.0
C388 C 0.63624 0.53823 0.76039 0.0
C389 C 0.61644 0.53188 0.79296 0.0
C390 C 0.63627 0.53754 0.67257 0.0
C391 C 0.61649 0.53048 0.61221 0.0
C392 C 0.59669 0.52418 0.6451 0.0
C393 C 0.59667 0.52484 0.733 0.0
C394 C 0.60235 0.53549 0.37622 0.0
C395 C 0.61672 0.52901 0.33617 0.0
C396 C 0.60225 0.53587 0.46381 0.0
C397 C 0.61656 0.52984 0.51666 0.0
C398 C 0.63093 0.5233 0.47637 0.0
C399 C 0.63098 0.52285 0.38848 0.0
H400 H 0.65159 0.11954 0.64073 0.0
H401 H 0.57771 0.0628 0.57603 0.0
H402 H 0.65206 0.12136 0.49107 0.0
H403 H 0.57805 0.06481 0.42639 0.0
H404 H 0.58582 0.05252 0.14862 0.0
H405 H 0.58562 0.0512 0.29805 0.0
H406 H 0.64519 0.13778 0.36846 0.0
H407 H 0.64545 0.1389 0.21787 0.0
C408 C 0.63532 0.10733 0.59491 0.0
C409 C 0.61461 0.09088 0.62284 0.0
C410 C 0.63557 0.10857 0.50784 0.0
C411 C 0.61511 0.09328 0.44349 0.0
C412 C 0.59439 0.07674 0.47168 0.0
C413 C 0.59415 0.07565 0.55884 0.0
C414 C 0.59895 0.07147 0.19542 0.0
C415 C 0.61565 0.09588 0.16862 0.0
C416 C 0.59875 0.07076 0.2826 0.0
C417 C 0.61535 0.09435 0.34853 0.0
C418 C 0.63212 0.11881 0.32168 0.0
C419 C 0.63221 0.11959 0.23412 0.0
H420 H 0.79602 0.87408 0.5912 0.0
H421 H 0.73004 0.86633 0.5531 0.0
H422 H 0.79686 0.87603 0.74257 0.0
H423 H 0.73055 0.86767 0.70462 0.0
H424 H 0.74487 0.89404 0.99793 0.0
H425 H 0.74409 0.89274 0.84625 0.0
H426 H 0.78466 0.8537 0.85481 0.0
H427 H 0.78577 0.85562 1.00632 0.0
C428 C 0.7815 0.87257 0.61454 0.0
C429 C 0.76293 0.86996 0.5575 0.0
C430 C 0.7819 0.87353 0.70267 0.0
C431 C 0.76376 0.87199 0.73903 0.0
C432 C 0.74516 0.86935 0.6817 0.0
C433 C 0.74474 0.86834 0.59339 0.0
C434 C 0.75374 0.88525 0.96787 0.0
C435 C 0.76547 0.87507 1.01675 0.0
C436 C 0.75315 0.88426 0.87947 0.0
C437 C 0.7643 0.87309 0.83509 0.0
C438 C 0.77606 0.86296 0.88446 0.0
C439 C 0.77661 0.86391 0.97265 0.0
H440 H 0.23804 0.86234 0.77514 0.0
H441 H 0.29076 0.842 0.79983 0.0
H442 H 0.23827 0.864 0.92587 0.0
H443 H 0.29068 0.84293 0.95093 0.0
H444 H 0.30001 0.86882 0.24113 0.0
H445 H 0.30023 0.86774 0.09041 0.0
H446 H 0.22862 0.84154 1.03921 0.0
H447 H 0.22868 0.84337 0.19025 0.0
C448 C 0.24967 0.85798 0.81227 0.0
C449 C 0.26436 0.85197 0.77293 0.0
C450 C 0.24971 0.85875 0.90005 0.0
C451 C 0.26445 0.85356 0.95377 0.0
C452 C 0.27917 0.84752 0.9142 0.0
C453 C 0.27912 0.84674 0.82617 0.0
C454 C 0.28425 0.86291 0.1981 0.0
C455 C 0.26434 0.85631 0.23018 0.0
C456 C 0.2843 0.86204 0.11022 0.0
C457 C 0.26444 0.8545 1.04942 0.0
C458 C 0.24455 0.84795 1.0819 0.0
C459 C 0.24451 0.84884 0.16978 0.0
H460 H 0.30158 0.32176 0.98611 0.0
H461 H 0.22769 0.26513 0.9212 0.0
H462 H 0.30118 0.31974 0.13576 0.0
H463 H 0.22717 0.26329 1.07079 0.0
H464 H 0.2336 0.24574 0.34398 0.0
H465 H 0.23396 0.24684 0.19342 0.0
H466 H 0.29355 0.3334 0.264 0.0
H467 H 0.29325 0.3321 0.41338 0.0
C468 C 0.28513 0.30893 1.00325 0.0
C469 C 0.26468 0.29374 0.9392 0.0
C470 C 0.28485 0.30784 0.09041 0.0
C471 C 0.26411 0.29133 0.11851 0.0
C472 C 0.24368 0.27606 1.05409 0.0
C473 C 0.24395 0.27731 0.96705 0.0
C474 C 0.24686 0.26505 0.32778 0.0
C475 C 0.2634 0.28876 0.39332 0.0
C476 C 0.24701 0.26581 0.24024 0.0
C477 C 0.26382 0.29026 0.21345 0.0
C478 C 0.2804 0.31385 0.27941 0.0
C479 C 0.28014 0.31315 0.36656 0.0
H480 H 0.34859 0.11707 0.19059 0.0
H481 H 0.3526 0.07248 0.38765 0.0
H482 H 0.33208 0.07341 1.08551 0.0
H483 H 0.33564 0.02824 0.28226 0.0
H484 H 0.3582 0.05513 0.93962 0.0
H485 H 0.32383 0.03062 0.99678 0.0
H486 H 0.3641 0.02842 0.21774 0.0
H487 H 0.39834 0.05298 0.16151 0.0
C488 C 0.34505 0.09754 0.2117 0.0
C489 C 0.35334 0.09862 0.29617 0.0
C490 C 0.33528 0.07208 0.15134 0.0
C491 C 0.33479 0.04785 0.17453 0.0
C492 C 0.33731 0.04707 0.2615 0.0
C493 C 0.34714 0.07259 0.3222 0.0
C494 C 0.35949 0.0478 0.99809 0.0
C495 C 0.38116 0.05811 1.05009 0.0
C496 C 0.33966 0.03359 1.03106 0.0
C497 C 0.34227 0.0323 0.11764 0.0
C498 C 0.36202 0.03247 0.15451 0.0
C499 C 0.38193 0.04667 0.1224 0.0
H500 H 0.8518 0.19825 0.24632 0.0
H501 H 0.83372 0.14124 0.42328 0.0
H502 H 0.83173 0.15737 0.12978 0.0
H503 H 0.81154 0.10015 0.30654 0.0
H504 H 0.83797 0.10497 0.957 0.0
H505 H 0.81433 0.11594 1.03206 0.0
H506 H 0.83076 0.0833 0.24282 0.0
H507 H 0.8525 0.07012 0.16461 0.0
C508 C 0.84264 0.17695 0.26044 0.0
C509 C 0.84602 0.17305 0.34384 0.0
C510 C 0.8307 0.15313 0.19301 0.0
C511 C 0.82168 0.12505 0.2084 0.0
C512 C 0.81983 0.12143 0.29212 0.0
C513 C 0.83239 0.14524 0.35968 0.0
C514 C 0.83553 0.09867 1.01745 0.0
C515 C 0.84849 0.08852 1.05763 0.0
C516 C 0.82213 0.10538 1.0613 0.0
C517 C 0.82236 0.1032 0.14697 0.0
C518 C 0.83091 0.08687 0.17869 0.0
C519 C 0.84378 0.07947 0.13401 0.0
H520 H 0.84819 0.66203 0.46798 0.0
H521 H 0.8321 0.60856 0.22254 0.0
H522 H 0.85076 0.70006 0.3997 0.0
H523 H 0.83535 0.64725 0.15475 0.0
H524 H 0.91532 0.75058 0.26538 0.0
H525 H 0.88811 0.7181 0.33788 0.0
H526 H 0.83222 0.69272 0.12804 0.0
H527 H 0.85961 0.72652 1.05396 0.0
C528 C 0.84382 0.65758 0.39926 0.0
C529 C 0.84086 0.63262 0.3507 0.0
C530 C 0.84533 0.67957 0.36019 0.0
C531 C 0.84407 0.67694 0.2724 0.0
C532 C 0.83665 0.64997 0.22271 0.0
C533 C 0.83507 0.62788 0.26171 0.0
C534 C 0.89724 0.73967 0.23564 0.0
C535 C 0.88998 0.74081 0.15202 0.0
C536 C 0.88148 0.72098 0.27822 0.0
C537 C 0.85805 0.70297 0.23888 0.0
C538 C 0.85024 0.70633 0.15953 0.0
C539 C 0.86604 0.72551 0.11702 0.0
H540 H 0.20324 0.3111 0.58583 0.0
H541 H 0.27089 0.38594 0.69801 0.0
H542 H 0.19041 0.34204 0.53934 0.0
H543 H 0.2579 0.41695 0.65214 0.0
H544 H 0.23524 0.45611 0.4514 0.0
H545 H 0.24764 0.4271 0.51541 0.0
H546 H 0.18193 0.37887 0.58568 0.0
H547 H 0.16957 0.40822 0.52268 0.0
C548 C 0.21531 0.33419 0.60184 0.0
C549 C 0.23817 0.34597 0.64546 0.0
C550 C 0.20789 0.35197 0.57536 0.0
C551 C 0.22316 0.38201 0.5913 0.0
C552 C 0.24577 0.39387 0.63768 0.0
C553 C 0.25316 0.37609 0.6647 0.0
C554 C 0.22351 0.43967 0.48165 0.0
C555 C 0.20135 0.43464 0.48166 0.0
C556 C 0.23066 0.42298 0.51845 0.0
C557 C 0.21583 0.40065 0.55599 0.0
C558 C 0.19372 0.39567 0.55652 0.0
C559 C 0.1866 0.41248 0.52006 0.0
H560 H 0.6885 0.62841 0.13192 0.0
H561 H 0.62504 0.62735 0.1023 0.0
H562 H 0.71044 0.68081 0.17005 0.0
H563 H 0.6469 0.67973 0.14358 0.0
H564 H 0.69272 0.77683 0.15196 0.0
H565 H 0.67021 0.72434 0.10958 0.0
H566 H 0.72261 0.72088 0.27456 0.0
H567 H 0.74534 0.77316 0.314 0.0
C568 C 0.67915 0.63929 0.13379 0.0
C569 C 0.65485 0.62329 0.11367 0.0
C570 C 0.69181 0.6696 0.15658 0.0
C571 C 0.6807 0.68513 0.161 0.0
C572 C 0.65635 0.66903 0.14012 0.0
C573 C 0.64369 0.63872 0.11665 0.0
C574 C 0.6994 0.76487 0.17953 0.0
C575 C 0.721 0.77957 0.23651 0.0
C576 C 0.68638 0.73453 0.15536 0.0
C577 C 0.6944 0.71775 0.18776 0.0
C578 C 0.71584 0.7326 0.2461 0.0
C579 C 0.7289 0.76286 0.26963 0.0
H580 H 0.49086 1.01349 0.13916 0.0
H581 H 0.46359 0.92841 0.99072 0.0
H582 H 0.46364 0.99275 0.23044 0.0
H583 H 0.43556 0.90784 1.07916 0.0
H584 H 0.40384 0.87648 0.30398 0.0
H585 H 0.43239 0.89788 0.21782 0.0
H586 H 0.4237 0.97037 0.2323 0.0
H587 H 0.3961 0.94973 0.32218 0.0
C588 C 0.47907 0.99035 0.12585 0.0
C589 C 0.47953 0.97268 1.05739 0.0
C590 C 0.46322 0.97846 0.17769 0.0
C591 C 0.44732 0.94856 0.16239 0.0
C592 C 0.44771 0.93091 0.09372 0.0
C593 C 0.46361 0.94278 1.04208 0.0
C594 C 0.40825 0.89719 0.28991 0.0
C595 C 0.39758 0.91131 0.32028 0.0
C596 C 0.42442 0.9093 0.23936 0.0
C597 C 0.43035 0.93585 0.21751 0.0
C598 C 0.4198 0.95006 0.24838 0.0
C599 C 0.40369 0.938 0.29916 0.0
H600 H 0.59368 0.15871 0.78791 0.0
H601 H 0.56435 0.1239 0.99701 0.0
H602 H 0.56529 0.17247 0.75744 0.0
H603 H 0.53702 0.13886 0.97062 0.0
H604 H 0.47336 0.13679 0.85651 0.0
H605 H 0.50345 0.1265 0.88468 0.0
H606 H 0.54867 0.19958 0.78325 0.0
H607 H 0.5177 0.20889 0.75093 0.0
C608 C 0.58162 0.15476 0.829 0.0
C609 C 0.58139 0.14015 0.89499 0.0
C610 C 0.56517 0.1626 0.81145 0.0
C611 C 0.54813 0.15637 0.86004 0.0
C612 C 0.549 0.14325 0.92909 0.0
C613 C 0.56506 0.13499 0.94541 0.0
C614 C 0.48967 0.15069 0.83978 0.0
C615 C 0.49292 0.17375 0.80137 0.0
C616 C 0.50725 0.14497 0.85699 0.0
C617 C 0.5291 0.1624 0.83817 0.0
C618 C 0.53225 0.18535 0.79858 0.0
C619 C 0.51442 0.19083 0.78011 0.0
H620 H 1.00601 0.29377 0.83983 0.0
H621 H 0.97586 0.26649 1.05503 0.0
H622 H 0.03341 0.34173 0.92645 0.0
H623 H 1.00337 0.31486 0.14202 0.0
H624 H 0.03978 0.41572 0.23204 0.0
H625 H 1.01277 0.36594 0.15477 0.0
H626 H 0.06717 0.3669 1.04732 0.0
H627 H 0.09414 0.41641 0.12457 0.0
C628 C 1.00519 0.29792 0.90574 0.0
C629 C 0.98858 0.27601 0.94002 0.0
C630 C 1.02108 0.32552 0.95577 0.0
C631 C 1.02077 0.33238 1.04166 0.0
C632 C 1.0041 0.31053 1.0761 0.0
C633 C 0.98838 0.28268 1.02623 0.0
C634 C 0.04609 0.40525 0.1927 0.0
C635 C 0.06929 0.42036 0.18492 0.0
C636 C 0.03056 0.37658 0.14845 0.0
C637 C 0.03764 0.36226 0.09401 0.0
C638 C 0.06093 0.37721 0.08762 0.0
C639 C 0.0765 0.40567 0.13264 0.0
H640 H 0.88918 0.67312 0.9794 0.0
H641 H 0.85317 0.61848 0.73055 0.0
H642 H 0.8527 0.65256 1.02612 0.0
H643 H 0.81679 0.59795 0.77723 0.0
H644 H 0.76021 0.54501 0.91575 0.0
H645 H 0.79699 0.56659 0.87206 0.0
H646 H 0.81569 0.65047 1.00377 0.0
H647 H 0.77907 0.6287 1.05021 0.0
C648 C 0.87352 0.65666 0.93465 0.0
C649 C 0.8742 0.64738 0.85118 0.0
C650 C 0.85254 0.64499 0.96137 0.0
C651 C 0.83173 0.62343 0.90567 0.0
C652 C 0.83247 0.61419 0.82228 0.0
C653 C 0.85337 0.62608 0.79532 0.0
C654 C 0.77221 0.56803 0.93625 0.0
C655 C 0.76658 0.58504 0.98678 0.0
C656 C 0.79326 0.58047 0.91032 0.0
C657 C 0.80937 0.61032 0.93422 0.0
C658 C 0.80381 0.62739 0.98489 0.0
C659 C 0.78268 0.61493 1.01069 0.0
H660 H 0.99638 0.68952 0.98236 0.0
H661 H 0.94325 0.60631 0.82847 0.0
H662 H 1.01417 0.66682 1.05445 0.0
H663 H 0.96118 0.58395 0.8992 0.0
H664 H 0.98402 0.54847 0.10191 0.0
H665 H 0.96713 0.57302 1.03737 0.0
H666 H 0.0349 0.64216 1.02595 0.0
H667 H 0.05198 0.61802 0.09379 0.0
C668 C 0.98849 0.66644 0.96387 0.0
C669 C 0.96833 0.64976 0.89977 0.0
C670 C 0.99877 0.65348 1.0048 0.0
C671 C 0.98904 0.62357 0.98275 0.0
C672 C 0.96892 0.60697 0.91865 0.0
C673 C 0.95871 0.61988 0.87771 0.0
C674 C 0.99538 0.56908 0.0867 0.0
C675 C 1.01936 0.58128 0.10315 0.0
C676 C 0.98566 0.58301 1.04879 0.0
C677 C 0.99965 0.60948 1.0261 0.0
C678 C 1.02367 0.62189 1.04326 0.0
C679 C 0.03342 0.6079 1.0812 0.0
H680 H 0.54915 0.43497 1.08241 0.0
H681 H 0.59417 0.43036 0.9281 0.0
H682 H 0.52205 0.38315 1.03564 0.0
H683 H 0.56688 0.37826 0.88088 0.0
H684 H 0.49928 0.29145 0.74225 0.0
H685 H 0.52796 0.34295 0.79213 0.0
H686 H 0.51659 0.33619 1.04604 0.0
H687 H 0.488 0.28475 0.99636 0.0
C688 C 0.55343 0.42293 1.03891 0.0
C689 C 0.57407 0.43719 1.00953 0.0
C690 C 0.53782 0.39299 1.01217 0.0
C691 C 0.54205 0.37614 0.95404 0.0
C692 C 0.56278 0.39035 0.92496 0.0
C693 C 0.5786 0.42032 0.95269 0.0
C694 C 0.50287 0.30085 0.80881 0.0
C695 C 0.49108 0.28358 0.86489 0.0
C696 C 0.51952 0.33051 0.83767 0.0
C697 C 0.52478 0.3441 0.92345 0.0
C698 C 0.51298 0.3268 0.97944 0.0
C699 C 0.49656 0.2971 0.95085 0.0
H700 H 0.86734 0.15049 0.89542 0.0
H701 H 0.88131 0.22077 0.76937 0.0
H702 H 0.83123 0.14571 0.91702 0.0
H703 H 0.84545 0.21627 0.79198 0.0
H704 H 0.76863 0.18237 0.7679 0.0
H705 H 0.80439 0.18629 0.74682 0.0
H706 H 0.81467 0.16777 0.9943 0.0
H707 H 0.77849 0.16296 1.01429 0.0
C708 C 0.86281 0.16503 0.87252 0.0
C709 C 0.87742 0.18603 0.83043 0.0
C710 C 0.84206 0.16239 0.88542 0.0
C711 C 0.83514 0.18052 0.85623 0.0
C712 C 0.84984 0.20156 0.8144 0.0
C713 C 0.87061 0.2043 0.80188 0.0
C714 C 0.77833 0.17883 0.81768 0.0
C715 C 0.7704 0.17231 0.89291 0.0
C716 C 0.79912 0.18144 0.80596 0.0
C717 C 0.81274 0.1775 0.86886 0.0
C718 C 0.80473 0.17076 0.94389 0.0
C719 C 0.78399 0.16831 0.95581 0.0
H720 H 0.67491 0.07383 0.99072 0.0
H721 H 0.61002 0.99884 0.85313 0.0
H722 H 0.68775 0.04301 1.03687 0.0
H723 H 0.6232 0.96785 0.89766 0.0
H724 H 0.64235 0.92309 0.08708 0.0
H725 H 0.63012 0.95248 1.02457 0.0
H726 H 0.69968 1.01047 0.99785 0.0
H727 H 0.71215 0.98181 1.06424 0.0
C728 C 0.66348 0.05074 0.96899 0.0
C729 C 0.64133 0.0389 0.91842 0.0
C730 C 0.67094 0.03299 0.99523 0.0
C731 C 0.65651 1.00281 0.97163 0.0
C732 C 0.63466 0.99096 0.91836 0.0
C733 C 0.62717 1.00877 0.89208 0.0
C734 C 0.65511 0.94222 1.06849 0.0
C735 C 0.67832 0.95012 1.08166 0.0
C736 C 0.648 0.9589 1.03133 0.0
C737 C 0.66386 0.98398 1.00597 0.0
C738 C 0.68699 0.99154 1.01742 0.0
C739 C 0.69411 0.97486 1.05473 0.0
H740 H 0.19163 0.75599 0.45996 0.0
H741 H 0.25331 0.75662 0.43311 0.0
H742 H 0.16923 0.70347 0.4215 0.0
H743 H 0.23089 0.70427 0.39246 0.0
H744 H 0.18803 0.60789 0.39541 0.0
H745 H 0.21067 0.66035 0.43742 0.0
H746 H 0.15344 0.66331 0.30863 0.0
H747 H 0.13068 0.61094 0.26877 0.0
C748 C 0.20048 0.74502 0.44584 0.0
C749 C 0.22443 0.7609 0.4501 0.0
C750 C 0.18753 0.7147 0.42293 0.0
C751 C 0.19803 0.69913 0.40318 0.0
C752 C 0.22203 0.7151 0.40814 0.0
C753 C 0.23497 0.74537 0.4312 0.0
C754 C 0.18027 0.61968 0.37566 0.0
C755 C 0.15739 0.60483 0.32841 0.0
C756 C 0.19335 0.64999 0.3996 0.0
C757 C 0.18407 0.66657 0.37704 0.0
C758 C 0.16125 0.65163 0.32896 0.0
C759 C 0.14817 0.62137 0.30524 0.0
H760 H 0.45473 0.44421 0.13972 0.0
H761 H 0.50687 0.49791 0.36687 0.0
H762 H 0.4262 0.42223 0.22601 0.0
H763 H 0.47837 0.47638 0.45314 0.0
H764 H 0.42762 0.4125 0.58921 0.0
H765 H 0.45577 0.4331 0.50087 0.0
H766 H 0.40445 0.43147 0.31374 0.0
H767 H 0.37625 0.41041 0.40161 0.0
C768 C 0.46005 0.45153 0.20806 0.0
C769 C 0.48311 0.47278 0.24633 0.0
C770 C 0.44368 0.43895 0.25766 0.0
C771 C 0.44991 0.44742 0.34684 0.0
C772 C 0.47297 0.46885 0.3849 0.0
C773 C 0.48934 0.48129 0.33536 0.0
C774 C 0.42239 0.41666 0.52936 0.0
C775 C 0.39968 0.40982 0.5026 0.0
C776 C 0.43855 0.42855 0.47866 0.0
C777 C 0.43249 0.43411 0.40003 0.0
C778 C 0.40971 0.42711 0.37314 0.0
C779 C 0.39351 0.41506 0.42365 0.0
H780 H 0.92471 0.73034 0.52904 0.0
H781 H 0.88467 0.72001 0.721 0.0
H782 H 0.90776 0.75441 0.45965 0.0
H783 H 0.86702 0.74286 0.64986 0.0
H784 H 0.82455 0.76135 0.45916 0.0
H785 H 0.84071 0.73524 0.51945 0.0
H786 H 0.9079 0.79885 0.48481 0.0
H787 H 0.89183 0.82499 0.42502 0.0
C788 C 0.91198 0.73276 0.55537 0.0
C789 C 0.906 0.72338 0.63027 0.0
C790 C 0.90226 0.74649 0.51568 0.0
C791 C 0.88573 0.75007 0.54831 0.0
C792 C 0.8794 0.74002 0.62224 0.0
C793 C 0.88961 0.7271 0.66328 0.0
C794 C 0.84279 0.76985 0.46484 0.0
C795 C 0.8569 0.79536 0.43762 0.0
C796 C 0.85204 0.75487 0.49926 0.0
C797 C 0.87561 0.76504 0.50727 0.0
C798 C 0.88962 0.79022 0.47854 0.0
C799 C 0.88039 0.80522 0.44428 0.0
H800 H 0.38943 0.09834 0.55941 0.0
H801 H 0.37848 0.09497 0.81488 0.0
H802 H 0.36028 0.0466 0.51418 0.0
H803 H 0.34993 0.04341 0.77022 0.0
H804 H 0.32464 0.94701 0.68059 0.0
H805 H 0.35083 0.99909 0.72091 0.0
H806 H 0.31651 1.00881 0.49769 0.0
H807 H 0.28968 0.95612 0.45779 0.0
C808 C 0.38089 0.08665 0.60609 0.0
C809 C 0.38664 0.10104 0.69127 0.0
C810 C 0.36402 0.05694 0.57992 0.0
C811 C 0.35271 0.04058 0.63846 0.0
C812 C 0.35835 0.05509 0.72333 0.0
C813 C 0.3748 0.08481 0.74903 0.0
C814 C 0.32245 0.96013 0.64007 0.0
C815 C 0.30486 0.94711 0.56585 0.0
C816 C 0.33752 0.99016 0.66354 0.0
C817 C 0.33592 1.00841 0.61284 0.0
C818 C 0.31836 0.9955 0.53826 0.0
C819 C 0.30285 0.96528 0.51564 0.0
H820 H 0.99995 0.20939 0.61036 0.0
H821 H 1.01156 0.19116 0.85721 0.0
H822 H 0.03561 0.21324 0.58626 0.0
H823 H 0.04723 0.19546 0.83383 0.0
H824 H 0.09838 0.17658 0.73593 0.0
H825 H 0.06241 0.17224 0.75562 0.0
H826 H 0.07711 0.24223 0.62738 0.0
H827 H 0.11276 0.2459 0.60496 0.0
C828 C 1.01007 0.20626 0.65971 0.0
C829 C 1.00261 0.19987 0.73577 0.0
C830 C 0.03071 0.20865 0.64606 0.0
C831 C 0.04455 0.20462 0.70786 0.0
C832 C 0.03704 0.19829 0.78389 0.0
C833 C 1.01651 0.19599 0.79761 0.0
C834 C 0.09392 0.19091 0.71098 0.0
C835 C 0.10875 0.2116 0.66861 0.0
C836 C 0.07328 0.18864 0.72328 0.0
C837 C 0.06661 0.20692 0.69351 0.0
C838 C 0.08137 0.22753 0.65071 0.0
C839 C 0.10208 0.22988 0.6387 0.0
H840 H 0.37826 0.19762 0.61529 0.0
H841 H 0.38556 0.221 0.88539 0.0
H842 H 0.34768 0.20729 0.58843 0.0
H843 H 0.35459 0.23084 0.85793 0.0
H844 H 0.28385 0.2235 0.76854 0.0
H845 H 0.31175 0.20862 0.79768 0.0
H846 H 0.34465 0.24958 0.60157 0.0
H847 H 0.31715 0.26432 0.57313 0.0
C848 C 0.37337 0.2048 0.66939 0.0
C849 C 0.38472 0.20865 0.75282 0.0
C850 C 0.35574 0.21047 0.65372 0.0
C851 C 0.34855 0.22005 0.72075 0.0
C852 C 0.35947 0.22331 0.80449 0.0
C853 C 0.37738 0.21785 0.82031 0.0
C854 C 0.29674 0.22876 0.73054 0.0
C855 C 0.298 0.24491 0.66781 0.0
C856 C 0.31298 0.22058 0.74804 0.0
C857 C 0.33064 0.22788 0.70222 0.0
C858 C 0.33129 0.24322 0.63784 0.0
C859 C 0.31542 0.25172 0.62142 0.0
H860 H 0.84258 0.96245 0.37481 0.0
H861 H 0.78603 0.97451 0.39233 0.0
H862 H 0.86982 1.01208 0.45017 0.0
H863 H 0.81342 0.02433 0.46818 0.0
H864 H 0.87214 0.12127 0.54332 0.0
H865 H 0.84474 0.07278 0.45746 0.0
H866 H 0.8816 0.04051 0.59376 0.0
H867 H 0.90886 0.08869 0.67899 0.0
C868 C 0.83588 0.9757 0.39389 0.0
C869 C 0.81192 0.96414 0.37705 0.0
C870 C 0.85159 1.00425 0.43799 0.0
C871 C 0.84397 0.02243 0.46633 0.0
C872 C 0.82006 1.0112 0.44716 0.0
C873 C 0.80428 0.98248 0.40369 0.0
C874 C 0.87447 0.10386 0.55482 0.0
C875 C 0.8929 0.10916 0.61837 0.0
C876 C 0.85862 0.07593 0.50575 0.0
C877 C 0.86086 0.05247 0.51803 0.0
C878 C 0.87939 0.05791 0.58122 0.0
C879 C 0.89504 0.08569 0.63069 0.0
H880 H 1.01074 0.77063 0.73546 0.0
H881 H 0.99872 0.68702 0.63598 0.0
H882 H 0.04817 0.79362 0.69682 0.0
H883 H 0.03651 0.70998 0.59978 0.0
H884 H 0.09637 0.76031 0.47042 0.0
H885 H 0.05855 0.73691 0.50651 0.0
H886 H 0.08593 0.80312 0.73373 0.0
H887 H 0.12358 0.82671 0.69657 0.0
C888 C 1.0161 0.75709 0.70572 0.0
C889 C 1.00158 0.7269 0.6889 0.0
C890 C 0.03774 0.77033 0.684 0.0
C891 C 0.04564 0.75379 0.64531 0.0
C892 C 0.03104 0.72355 0.62828 0.0
C893 C 1.00932 0.71032 0.64951 0.0
C894 C 0.09437 0.76975 0.52845 0.0
C895 C 0.11311 0.79548 0.5804 0.0
C896 C 0.07262 0.75628 0.54935 0.0
C897 C 0.06895 0.76803 0.62315 0.0
C898 C 0.08781 0.79363 0.6755 0.0
C899 C 0.10951 0.80718 0.6543 0.0
loop_
_geom_bond_atom_site_label_1
_geom_bond_atom_site_label_2
_geom_bond_distance
_geom_bond_site_symmetry_2
_ccdc_geom_bond_type
Eu0 C9 2.828 . S
Eu0 O11 2.392 . S
Eu0 O13 2.418 1_554 S
Eu0 O18 2.373 . S
Eu0 O21 2.488 . S
Eu0 O22 2.471 . S
Eu0 O23 2.349 . S
Eu1 O10 2.373 . S
Eu1 O14 2.488 1_455 S
Eu1 O15 2.471 1_554 S
Eu1 O16 2.349 1_554 S
Eu1 O19 2.392 . S
Eu1 O20 2.418 . S
Eu1 C30 2.828 1_455 S
C2 O20 1.244 . S
C2 O23 1.265 . S
C3 C4 1.379 . S
C3 C7 1.373 . S
C3 C9 1.505 . S
C4 C3 1.379 . S
C4 C6 1.369 . S
C4 H32 0.930 . S
C5 C7 1.383 . S
C5 C8 1.382 . S
C5 H33 0.930 . S
C6 C4 1.369 . S
C6 C8 1.392 . S
C6 H34 0.930 . S
C7 C3 1.373 . S
C7 C5 1.383 . S
C7 H35 0.931 . S
C8 C5 1.382 . S
C8 C6 1.392 . S
C9 Eu0 2.828 . S
C9 C3 1.505 . S
C9 O21 1.249 . S
C9 O22 1.244 . S
O10 Eu1 2.373 . S
O10 C12 1.258 . S
O11 Eu0 2.392 . S
O11 C12 1.242 . S
C12 O10 1.258 . S
C12 O11 1.242 . S
O13 Eu0 2.418 1_556 S
O13 C17 1.244 . S
O14 Eu1 2.488 1_655 S
O14 C30 1.249 . S
O15 Eu1 2.471 1_556 S
O15 C30 1.244 1_456 S
O16 Eu1 2.349 1_556 S
O16 C17 1.265 . S
C17 O13 1.244 . S
C17 O16 1.265 . S
O18 Eu0 2.373 . S
O18 C31 1.258 . S
O19 Eu1 2.392 . S
O19 C31 1.242 . S
O20 Eu1 2.418 . S
O20 C2 1.244 . S
O21 Eu0 2.488 . S
O21 C9 1.249 . S
O22 Eu0 2.471 . S
O22 C9 1.244 . S
O23 Eu0 2.349 . S
O23 C2 1.265 . S
C24 C25 1.379 1_554 S
C24 C28 1.373 . S
C24 C30 1.505 . S
C25 C24 1.379 1_556 S
C25 C27 1.369 . S
C25 H36 0.930 1_655 S
C26 C28 1.383 . S
C26 C29 1.382 1_554 S
C26 H37 0.930 . S
C27 C25 1.369 . S
C27 C29 1.392 . S
C27 H38 0.930 . S
C28 C24 1.373 . S
C28 C26 1.383 . S
C28 H39 0.931 . S
C29 C26 1.382 1_556 S
C29 C27 1.392 . S
C30 Eu1 2.828 1_655 S
C30 O14 1.249 . S
C30 O15 1.244 1_654 S
C30 C24 1.505 . S
C31 O18 1.258 . S
C31 O19 1.242 . S
H32 C4 0.930 . S
H33 C5 0.930 . S
H34 C6 0.930 . S
H35 C7 0.931 . S
H36 C25 0.930 1_455 S
H37 C26 0.930 . S
H38 C27 0.930 . S
H39 C28 0.931 . S
Eu40 C49 2.828 . S
Eu40 O51 2.392 . S
Eu40 O53 2.418 . S
Eu40 O58 2.373 . S
Eu40 O61 2.488 . S
Eu40 O62 2.471 . S
Eu40 O63 2.349 . S
Eu41 O50 2.373 . S
Eu41 O54 2.488 . S
Eu41 O55 2.471 . S
Eu41 O56 2.349 . S
Eu41 O59 2.392 . S
Eu41 O60 2.418 1_554 S
Eu41 C70 2.828 . S
C42 O60 1.244 . S
C42 O63 1.265 1_556 S
C43 C44 1.379 . S
C43 C47 1.373 . S
C43 C49 1.505 . S
C44 C43 1.379 . S
C44 C46 1.369 . S
C44 H72 0.930 . S
C45 C47 1.383 . S
C45 C48 1.382 . S
C45 H73 0.930 . S
C46 C44 1.369 . S
C46 C48 1.392 . S
C46 H74 0.930 . S
C47 C43 1.373 . S
C47 C45 1.383 . S
C47 H75 0.931 . S
C48 C45 1.382 . S
C48 C46 1.392 . S
C49 Eu40 2.828 . S
C49 C43 1.505 . S
C49 O61 1.249 . S
C49 O62 1.244 . S
O50 Eu41 2.373 . S
O50 C52 1.258 . S
O51 Eu40 2.392 . S
O51 C52 1.242 . S
C52 O50 1.258 . S
C52 O51 1.242 . S
O53 Eu40 2.418 . S
O53 C57 1.244 . S
O54 Eu41 2.488 . S
O54 C70 1.249 . S
O55 Eu41 2.471 . S
O55 C70 1.244 . S
O56 Eu41 2.349 . S
O56 C57 1.265 . S
C57 O53 1.244 . S
C57 O56 1.265 . S
O58 Eu40 2.373 . S
O58 C71 1.258 . S
O59 Eu41 2.392 . S
O59 C71 1.242 . S
O60 Eu41 2.418 1_556 S
O60 C42 1.244 . S
O61 Eu40 2.488 . S
O61 C49 1.249 . S
O62 Eu40 2.471 . S
O62 C49 1.244 . S
O63 Eu40 2.349 . S
O63 C42 1.265 1_554 S
C64 C65 1.379 . S
C64 C68 1.373 . S
C64 C70 1.505 . S
C65 C64 1.379 . S
C65 C67 1.369 . S
C65 H76 0.930 . S
C66 C68 1.383 . S
C66 C69 1.382 . S
C66 H77 0.930 . S
C67 C65 1.369 . S
C67 C69 1.392 . S
C67 H78 0.930 . S
C68 C64 1.373 . S
C68 C66 1.383 . S
C68 H79 0.931 . S
C69 C66 1.382 . S
C69 C67 1.392 . S
C70 Eu41 2.828 . S
C70 O54 1.249 . S
C70 O55 1.244 . S
C70 C64 1.505 . S
C71 O58 1.258 . S
C71 O59 1.242 . S
H72 C44 0.930 . S
H73 C45 0.930 . S
H74 C46 0.930 . S
H75 C47 0.931 . S
H76 C65 0.930 . S
H77 C66 0.930 . S
H78 C67 0.930 . S
H79 C68 0.931 . S
Eu80 C89 2.828 . S
Eu80 O91 2.392 . S
Eu80 O93 2.418 1_554 S
Eu80 O98 2.373 . S
Eu80 O101 2.488 . S
Eu80 O102 2.471 . S
Eu80 O103 2.349 . S
Eu81 O90 2.373 . S
Eu81 O94 2.488 . S
Eu81 O95 2.471 . S
Eu81 O96 2.349 . S
Eu81 O99 2.392 . S
Eu81 O100 2.418 . S
Eu81 C110 2.828 . S
C82 O100 1.244 . S
C82 O103 1.265 . S
C83 C84 1.379 . S
C83 C87 1.373 . S
C83 C89 1.505 . S
C84 C83 1.379 . S
C84 C86 1.369 . S
C84 H112 0.930 . S
C85 C87 1.383 . S
C85 C88 1.382 . S
C85 H113 0.930 1_545 S
C86 C84 1.369 . S
C86 C88 1.392 . S
C86 H114 0.930 . S
C87 C83 1.373 . S
C87 C85 1.383 . S
C87 H115 0.931 . S
C88 C85 1.382 . S
C88 C86 1.392 . S
C89 Eu80 2.828 . S
C89 C83 1.505 . S
C89 O101 1.249 . S
C89 O102 1.244 . S
O90 Eu81 2.373 . S
O90 C92 1.258 . S
O91 Eu80 2.392 . S
O91 C92 1.242 . S
C92 O90 1.258 . S
C92 O91 1.242 . S
O93 Eu80 2.418 1_556 S
O93 C97 1.244 . S
O94 Eu81 2.488 . S
O94 C110 1.249 . S
O95 Eu81 2.471 . S
O95 C110 1.244 . S
O96 Eu81 2.349 . S
O96 C97 1.265 1_554 S
C97 O93 1.244 . S
C97 O96 1.265 1_556 S
O98 Eu80 2.373 . S
O98 C111 1.258 . S
O99 Eu81 2.392 . S
O99 C111 1.242 . S
O100 Eu81 2.418 . S
O100 C82 1.244 . S
O101 Eu80 2.488 . S
O101 C89 1.249 . S
O102 Eu80 2.471 . S
O102 C89 1.244 . S
O103 Eu80 2.349 . S
O103 C82 1.265 . S
C104 C105 1.379 . S
C104 C108 1.373 . S
C104 C110 1.505 . S
C105 C104 1.379 . S
C105 C107 1.369 . S
C105 H116 0.930 . S
C106 C108 1.383 . S
C106 C109 1.382 . S
C106 H117 0.930 . S
C107 C105 1.369 . S
C107 C109 1.392 . S
C107 H118 0.930 . S
C108 C104 1.373 . S
C108 C106 1.383 . S
C108 H119 0.931 . S
C109 C106 1.382 . S
C109 C107 1.392 . S
C110 Eu81 2.828 . S
C110 O94 1.249 . S
C110 O95 1.244 . S
C110 C104 1.505 . S
C111 O98 1.258 . S
C111 O99 1.242 . S
H112 C84 0.930 . S
H113 C85 0.930 1_565 S
H114 C86 0.930 . S
H115 C87 0.931 . S
H116 C105 0.930 . S
H117 C106 0.930 . S
H118 C107 0.930 . S
H119 C108 0.931 . S
Eu120 C129 2.828 . S
Eu120 O131 2.392 . S
Eu120 O133 2.418 . S
Eu120 O138 2.373 . S
Eu120 O141 2.488 . S
Eu120 O142 2.471 . S
Eu120 O143 2.349 . S
Eu121 O130 2.373 . S
Eu121 O134 2.488 . S
Eu121 O135 2.471 . S
Eu121 O136 2.349 . S
Eu121 O139 2.392 . S
Eu121 O140 2.418 . S
Eu121 C150 2.828 . S
C122 O140 1.244 . S
C122 O143 1.265 . S
C123 C124 1.379 . S
C123 C127 1.373 . S
C123 C129 1.505 . S
C124 C123 1.379 . S
C124 C126 1.369 . S
C124 H152 0.930 . S
C125 C127 1.383 . S
C125 C128 1.382 . S
C125 H153 0.930 . S
C126 C124 1.369 . S
C126 C128 1.392 . S
C126 H154 0.930 . S
C127 C123 1.373 . S
C127 C125 1.383 . S
C127 H155 0.931 . S
C128 C125 1.382 . S
C128 C126 1.392 . S
C129 Eu120 2.828 . S
C129 C123 1.505 . S
C129 O141 1.249 . S
C129 O142 1.244 . S
O130 Eu121 2.373 . S
O130 C132 1.258 . S
O131 Eu120 2.392 . S
O131 C132 1.242 . S
C132 O130 1.258 . S
C132 O131 1.242 . S
O133 Eu120 2.418 . S
O133 C137 1.244 . S
O134 Eu121 2.488 . S
O134 C150 1.249 . S
O135 Eu121 2.471 . S
O135 C150 1.244 . S
O136 Eu121 2.349 . S
O136 C137 1.265 . S
C137 O133 1.244 . S
C137 O136 1.265 . S
O138 Eu120 2.373 . S
O138 C151 1.258 . S
O139 Eu121 2.392 . S
O139 C151 1.242 . S
O140 Eu121 2.418 . S
O140 C122 1.244 . S
O141 Eu120 2.488 . S
O141 C129 1.249 . S
O142 Eu120 2.471 . S
O142 C129 1.244 . S
O143 Eu120 2.349 . S
O143 C122 1.265 . S
C144 C145 1.379 . S
C144 C148 1.373 . S
C144 C150 1.505 . S
C145 C144 1.379 . S
C145 C147 1.369 . S
C145 H156 0.930 . S
C146 C148 1.383 . S
C146 C149 1.382 . S
C146 H157 0.930 . S
C147 C145 1.369 . S
C147 C149 1.392 . S
C147 H158 0.930 . S
C148 C144 1.373 . S
C148 C146 1.383 . S
C148 H159 0.931 . S
C149 C146 1.382 . S
C149 C147 1.392 . S
C150 Eu121 2.828 . S
C150 O134 1.249 . S
C150 O135 1.244 . S
C150 C144 1.505 . S
C151 O138 1.258 . S
C151 O139 1.242 . S
H152 C124 0.930 . S
H153 C125 0.930 . S
H154 C126 0.930 . S
H155 C127 0.931 . S
H156 C145 0.930 . S
H157 C146 0.930 . S
H158 C147 0.930 . S
H159 C148 0.931 . S
Eu160 C169 2.828 . S
Eu160 O171 2.392 . S
Eu160 O173 2.418 . S
Eu160 O178 2.373 . S
Eu160 O181 2.488 . S
Eu160 O182 2.471 . S
Eu160 O183 2.349 . S
Eu161 O170 2.373 . S
Eu161 O174 2.488 . S
Eu161 O175 2.471 . S
Eu161 O176 2.349 . S
Eu161 O179 2.392 . S
Eu161 O180 2.418 . S
Eu161 C190 2.828 . S
C162 O180 1.244 . S
C162 O183 1.265 . S
C163 C164 1.379 . S
C163 C167 1.373 . S
C163 C169 1.505 . S
C164 C163 1.379 . S
C164 C166 1.369 . S
C164 H192 0.930 . S
C165 C167 1.383 . S
C165 C168 1.382 . S
C165 H193 0.930 . S
C166 C164 1.369 . S
C166 C168 1.392 . S
C166 H194 0.930 . S
C167 C163 1.373 . S
C167 C165 1.383 . S
C167 H195 0.931 . S
C168 C165 1.382 . S
C168 C166 1.392 . S
C169 Eu160 2.828 . S
C169 C163 1.505 . S
C169 O181 1.249 . S
C169 O182 1.244 . S
O170 Eu161 2.373 . S
O170 C172 1.258 . S
O171 Eu160 2.392 . S
O171 C172 1.242 . S
C172 O170 1.258 . S
C172 O171 1.242 . S
O173 Eu160 2.418 . S
O173 C177 1.244 . S
O174 Eu161 2.488 . S
O174 C190 1.249 . S
O175 Eu161 2.471 . S
O175 C190 1.244 . S
O176 Eu161 2.349 . S
O176 C177 1.265 . S
C177 O173 1.244 . S
C177 O176 1.265 . S
O178 Eu160 2.373 . S
O178 C191 1.258 . S
O179 Eu161 2.392 . S
O179 C191 1.242 . S
O180 Eu161 2.418 . S
O180 C162 1.244 . S
O181 Eu160 2.488 . S
O181 C169 1.249 . S
O182 Eu160 2.471 . S
O182 C169 1.244 . S
O183 Eu160 2.349 . S
O183 C162 1.265 . S
C184 C185 1.379 . S
C184 C188 1.373 . S
C184 C190 1.505 . S
C185 C184 1.379 . S
C185 C187 1.369 . S
C185 H196 0.930 . S
C186 C188 1.383 . S
C186 C189 1.382 . S
C186 H197 0.930 . S
C187 C185 1.369 . S
C187 C189 1.392 . S
C187 H198 0.930 . S
C188 C184 1.373 . S
C188 C186 1.383 . S
C188 H199 0.931 . S
C189 C186 1.382 . S
C189 C187 1.392 . S
C190 Eu161 2.828 . S
C190 O174 1.249 . S
C190 O175 1.244 . S
C190 C184 1.505 . S
C191 O178 1.258 . S
C191 O179 1.242 . S
H192 C164 0.930 . S
H193 C165 0.930 . S
H194 C166 0.930 . S
H195 C167 0.931 . S
H196 C185 0.930 . S
H197 C186 0.930 . S
H198 C187 0.930 . S
H199 C188 0.931 . S
Eu200 C209 2.828 . S
Eu200 O211 2.392 . S
Eu200 O213 2.418 . S
Eu200 O218 2.373 . S
Eu200 O221 2.488 . S
Eu200 O222 2.471 . S
Eu200 O223 2.349 . S
Eu201 O210 2.373 . S
Eu201 O214 2.488 . S
Eu201 O215 2.471 . S
Eu201 O216 2.349 . S
Eu201 O219 2.392 . S
Eu201 O220 2.418 . S
Eu201 C230 2.828 . S
C202 O220 1.244 . S
C202 O223 1.265 . S
C203 C204 1.379 . S
C203 C207 1.373 . S
C203 C209 1.505 . S
C204 C203 1.379 . S
C204 C206 1.369 . S
C204 H232 0.930 . S
C205 C207 1.383 . S
C205 C208 1.382 . S
C205 H233 0.930 . S
C206 C204 1.369 . S
C206 C208 1.392 . S
C206 H234 0.930 . S
C207 C203 1.373 . S
C207 C205 1.383 . S
C207 H235 0.931 . S
C208 C205 1.382 . S
C208 C206 1.392 . S
C209 Eu200 2.828 . S
C209 C203 1.505 . S
C209 O221 1.249 . S
C209 O222 1.244 . S
O210 Eu201 2.373 . S
O210 C212 1.258 . S
O211 Eu200 2.392 . S
O211 C212 1.242 . S
C212 O210 1.258 . S
C212 O211 1.242 . S
O213 Eu200 2.418 . S
O213 C217 1.244 . S
O214 Eu201 2.488 . S
O214 C230 1.249 . S
O215 Eu201 2.471 . S
O215 C230 1.244 . S
O216 Eu201 2.349 . S
O216 C217 1.265 . S
C217 O213 1.244 . S
C217 O216 1.265 . S
O218 Eu200 2.373 . S
O218 C231 1.258 . S
O219 Eu201 2.392 . S
O219 C231 1.242 . S
O220 Eu201 2.418 . S
O220 C202 1.244 . S
O221 Eu200 2.488 . S
O221 C209 1.249 . S
O222 Eu200 2.471 . S
O222 C209 1.244 . S
O223 Eu200 2.349 . S
O223 C202 1.265 . S
C224 C225 1.379 . S
C224 C228 1.373 . S
C224 C230 1.505 . S
C225 C224 1.379 . S
C225 C227 1.369 . S
C225 H236 0.930 . S
C226 C228 1.383 . S
C226 C229 1.382 . S
C226 H237 0.930 . S
C227 C225 1.369 . S
C227 C229 1.392 . S
C227 H238 0.930 . S
C228 C224 1.373 . S
C228 C226 1.383 . S
C228 H239 0.931 . S
C229 C226 1.382 . S
C229 C227 1.392 . S
C230 Eu201 2.828 . S
C230 O214 1.249 . S
C230 O215 1.244 . S
C230 C224 1.505 . S
C231 O218 1.258 . S
C231 O219 1.242 . S
H232 C204 0.930 . S
H233 C205 0.930 . S
H234 C206 0.930 . S
H235 C207 0.931 . S
H236 C225 0.930 . S
H237 C226 0.930 . S
H238 C227 0.930 . S
H239 C228 0.931 . S
Eu240 C249 2.828 . S
Eu240 O251 2.392 . S
Eu240 O253 2.418 . S
Eu240 O258 2.373 . S
Eu240 O261 2.488 . S
Eu240 O262 2.471 . S
Eu240 O263 2.349 . S
Eu241 O250 2.373 . S
Eu241 O254 2.488 . S
Eu241 O255 2.471 . S
Eu241 O256 2.349 . S
Eu241 O259 2.392 . S
Eu241 O260 2.418 . S
Eu241 C270 2.828 . S
C242 O260 1.244 . S
C242 O263 1.265 . S
C243 C244 1.379 . S
C243 C247 1.373 . S
C243 C249 1.505 . S
C244 C243 1.379 . S
C244 C246 1.369 . S
C244 H272 0.930 . S
C245 C247 1.383 . S
C245 C248 1.382 . S
C245 H273 0.930 . S
C246 C244 1.369 . S
C246 C248 1.392 . S
C246 H274 0.930 . S
C247 C243 1.373 . S
C247 C245 1.383 . S
C247 H275 0.931 . S
C248 C245 1.382 . S
C248 C246 1.392 . S
C249 Eu240 2.828 . S
C249 C243 1.505 . S
C249 O261 1.249 . S
C249 O262 1.244 . S
O250 Eu241 2.373 . S
O250 C252 1.258 . S
O251 Eu240 2.392 . S
O251 C252 1.242 . S
C252 O250 1.258 . S
C252 O251 1.242 . S
O253 Eu240 2.418 . S
O253 C257 1.244 . S
O254 Eu241 2.488 . S
O254 C270 1.249 . S
O255 Eu241 2.471 . S
O255 C270 1.244 . S
O256 Eu241 2.349 . S
O256 C257 1.265 . S
C257 O253 1.244 . S
C257 O256 1.265 . S
O258 Eu240 2.373 . S
O258 C271 1.258 . S
O259 Eu241 2.392 . S
O259 C271 1.242 . S
O260 Eu241 2.418 . S
O260 C242 1.244 . S
O261 Eu240 2.488 . S
O261 C249 1.249 . S
O262 Eu240 2.471 . S
O262 C249 1.244 . S
O263 Eu240 2.349 . S
O263 C242 1.265 . S
C264 C265 1.379 1_556 S
C264 C268 1.373 1_556 S
C264 C270 1.505 . S
C265 C264 1.379 1_554 S
C265 C267 1.369 . S
C265 H276 0.930 . S
C266 C268 1.383 . S
C266 C269 1.382 . S
C266 H277 0.930 . S
C267 C265 1.369 . S
C267 C269 1.392 . S
C267 H278 0.930 . S
C268 C264 1.373 1_554 S
C268 C266 1.383 . S
C268 H279 0.931 1_554 S
C269 C266 1.382 . S
C269 C267 1.392 . S
C270 Eu241 2.828 . S
C270 O254 1.249 . S
C270 O255 1.244 . S
C270 C264 1.505 . S
C271 O258 1.258 . S
C271 O259 1.242 . S
H272 C244 0.930 . S
H273 C245 0.930 . S
H274 C246 0.930 . S
H275 C247 0.931 . S
H276 C265 0.930 . S
H277 C266 0.930 . S
H278 C267 0.930 . S
H279 C268 0.931 1_556 S
Eu280 C289 2.828 . S
Eu280 O291 2.392 . S
Eu280 O293 2.418 . S
Eu280 O298 2.373 . S
Eu280 O301 2.488 . S
Eu280 O302 2.471 . S
Eu280 O303 2.349 . S
Eu281 O290 2.373 . S
Eu281 O294 2.488 . S
Eu281 O295 2.471 . S
Eu281 O296 2.349 . S
Eu281 O299 2.392 . S
Eu281 O300 2.418 . S
Eu281 C310 2.828 . S
C282 O300 1.244 . S
C282 O303 1.265 . S
C283 C284 1.379 1_556 S
C283 C287 1.373 1_556 S
C283 C289 1.505 . S
C284 C283 1.379 1_554 S
C284 C286 1.369 . S
C284 H312 0.930 . S
C285 C287 1.383 . S
C285 C288 1.382 . S
C285 H313 0.930 . S
C286 C284 1.369 . S
C286 C288 1.392 . S
C286 H314 0.930 . S
C287 C283 1.373 1_554 S
C287 C285 1.383 . S
C287 H315 0.931 1_554 S
C288 C285 1.382 . S
C288 C286 1.392 . S
C289 Eu280 2.828 . S
C289 C283 1.505 . S
C289 O301 1.249 . S
C289 O302 1.244 . S
O290 Eu281 2.373 . S
O290 C292 1.258 . S
O291 Eu280 2.392 . S
O291 C292 1.242 . S
C292 O290 1.258 . S
C292 O291 1.242 . S
O293 Eu280 2.418 . S
O293 C297 1.244 . S
O294 Eu281 2.488 . S
O294 C310 1.249 . S
O295 Eu281 2.471 . S
O295 C310 1.244 . S
O296 Eu281 2.349 . S
O296 C297 1.265 . S
C297 O293 1.244 . S
C297 O296 1.265 . S
O298 Eu280 2.373 . S
O298 C311 1.258 . S
O299 Eu281 2.392 . S
O299 C311 1.242 . S
O300 Eu281 2.418 . S
O300 C282 1.244 . S
O301 Eu280 2.488 . S
O301 C289 1.249 . S
O302 Eu280 2.471 . S
O302 C289 1.244 . S
O303 Eu280 2.349 . S
O303 C282 1.265 . S
C304 C305 1.379 . S
C304 C308 1.373 . S
C304 C310 1.505 . S
C305 C304 1.379 . S
C305 C307 1.369 . S
C305 H316 0.930 . S
C306 C308 1.383 . S
C306 C309 1.382 . S
C306 H317 0.930 . S
C307 C305 1.369 . S
C307 C309 1.392 . S
C307 H318 0.930 . S
C308 C304 1.373 . S
C308 C306 1.383 . S
C308 H319 0.931 . S
C309 C306 1.382 . S
C309 C307 1.392 . S
C310 Eu281 2.828 . S
C310 O294 1.249 . S
C310 O295 1.244 . S
C310 C304 1.505 . S
C311 O298 1.258 . S
C311 O299 1.242 . S
H312 C284 0.930 . S
H313 C285 0.930 . S
H314 C286 0.930 . S
H315 C287 0.931 1_556 S
H316 C305 0.930 . S
H317 C306 0.930 . S
H318 C307 0.930 . S
H319 C308 0.931 . S
Eu320 C329 2.828 . S
Eu320 O331 2.392 . S
Eu320 O333 2.418 . S
Eu320 O338 2.373 . S
Eu320 O341 2.488 . S
Eu320 O342 2.471 . S
Eu320 O343 2.349 . S
Eu321 O330 2.373 . S
Eu321 O334 2.488 . S
Eu321 O335 2.471 . S
Eu321 O336 2.349 . S
Eu321 O339 2.392 . S
Eu321 O340 2.418 . S
Eu321 C350 2.828 . S
C322 O340 1.244 . S
C322 O343 1.265 . S
C323 C324 1.379 . S
C323 C327 1.373 . S
C323 C329 1.505 . S
C324 C323 1.379 . S
C324 C326 1.369 . S
C324 H352 0.930 . S
C325 C327 1.383 . S
C325 C328 1.382 . S
C325 H353 0.930 . S
C326 C324 1.369 . S
C326 C328 1.392 . S
C326 H354 0.930 . S
C327 C323 1.373 . S
C327 C325 1.383 . S
C327 H355 0.931 . S
C328 C325 1.382 . S
C328 C326 1.392 . S
C329 Eu320 2.828 . S
C329 C323 1.505 . S
C329 O341 1.249 . S
C329 O342 1.244 . S
O330 Eu321 2.373 . S
O330 C332 1.258 . S
O331 Eu320 2.392 . S
O331 C332 1.242 . S
C332 O330 1.258 . S
C332 O331 1.242 . S
O333 Eu320 2.418 . S
O333 C337 1.244 . S
O334 Eu321 2.488 . S
O334 C350 1.249 . S
O335 Eu321 2.471 . S
O335 C350 1.244 . S
O336 Eu321 2.349 . S
O336 C337 1.265 . S
C337 O333 1.244 . S
C337 O336 1.265 . S
O338 Eu320 2.373 . S
O338 C351 1.258 . S
O339 Eu321 2.392 . S
O339 C351 1.242 . S
O340 Eu321 2.418 . S
O340 C322 1.244 . S
O341 Eu320 2.488 . S
O341 C329 1.249 . S
O342 Eu320 2.471 . S
O342 C329 1.244 . S
O343 Eu320 2.349 . S
O343 C322 1.265 . S
C344 C345 1.379 . S
C344 C348 1.373 . S
C344 C350 1.505 1_554 S
C345 C344 1.379 . S
C345 C347 1.369 . S
C345 H356 0.930 . S
C346 C348 1.383 . S
C346 C349 1.382 . S
C346 H357 0.930 . S
C347 C345 1.369 . S
C347 C349 1.392 . S
C347 H358 0.930 . S
C348 C344 1.373 . S
C348 C346 1.383 . S
C348 H359 0.931 . S
C349 C346 1.382 . S
C349 C347 1.392 . S
C350 Eu321 2.828 . S
C350 O334 1.249 . S
C350 O335 1.244 . S
C350 C344 1.505 1_556 S
C351 O338 1.258 . S
C351 O339 1.242 . S
H352 C324 0.930 . S
H353 C325 0.930 . S
H354 C326 0.930 . S
H355 C327 0.931 . S
H356 C345 0.930 . S
H357 C346 0.930 . S
H358 C347 0.930 . S
H359 C348 0.931 . S
H360 C368 0.950 . S
H361 C373 0.950 . S
H362 C370 0.950 . S
H363 C372 0.950 . S
H364 C374 0.950 . S
H365 C376 0.950 . S
H366 C378 0.950 . S
H367 C379 0.950 . S
C368 H360 0.950 . S
C368 C369 1.386 . S
C368 C370 1.391 . S
C369 C368 1.386 . S
C369 C373 1.393 . S
C370 H362 0.950 . S
C370 C368 1.391 . S
C370 C371 1.400 . S
C371 C370 1.400 . S
C371 C372 1.398 . S
C371 C377 1.491 . S
C372 H363 0.950 . S
C372 C371 1.398 . S
C372 C373 1.391 . S
C373 H361 0.950 . S
C373 C369 1.393 . S
C373 C372 1.391 . S
C374 H364 0.950 . S
C374 C375 1.386 . S
C374 C376 1.391 . S
C375 C374 1.386 . S
C375 C379 1.393 . S
C376 H365 0.950 . S
C376 C374 1.391 . S
C376 C377 1.400 . S
C377 C371 1.491 . S
C377 C376 1.400 . S
C377 C378 1.398 . S
C378 H366 0.950 . S
C378 C377 1.398 . S
C378 C379 1.391 . S
C379 H367 0.950 . S
C379 C375 1.393 . S
C379 C378 1.391 . S
H380 C388 0.950 . S
H381 C393 0.950 . S
H382 C390 0.950 . S
H383 C392 0.950 . S
H384 C394 0.950 . S
H385 C396 0.950 . S
H386 C398 0.950 . S
H387 C399 0.950 . S
C388 H380 0.950 . S
C388 C389 1.386 . S
C388 C390 1.391 . S
C389 C388 1.386 . S
C389 C393 1.393 . S
C390 H382 0.950 . S
C390 C388 1.391 . S
C390 C391 1.400 . S
C391 C390 1.400 . S
C391 C392 1.398 . S
C391 C397 1.491 . S
C392 H383 0.950 . S
C392 C391 1.398 . S
C392 C393 1.391 . S
C393 H381 0.950 . S
C393 C389 1.393 . S
C393 C392 1.391 . S
C394 H384 0.950 . S
C394 C395 1.386 . S
C394 C396 1.391 . S
C395 C394 1.386 . S
C395 C399 1.393 . S
C396 H385 0.950 . S
C396 C394 1.391 . S
C396 C397 1.400 . S
C397 C391 1.491 . S
C397 C396 1.400 . S
C397 C398 1.398 . S
C398 H386 0.950 . S
C398 C397 1.398 . S
C398 C399 1.391 . S
C399 H387 0.950 . S
C399 C395 1.393 . S
C399 C398 1.391 . S
H400 C408 0.950 . S
H401 C413 0.950 . S
H402 C410 0.950 . S
H403 C412 0.950 . S
H404 C414 0.950 . S
H405 C416 0.950 . S
H406 C418 0.950 . S
H407 C419 0.950 . S
C408 H400 0.950 . S
C408 C409 1.386 . S
C408 C410 1.391 . S
C409 C408 1.386 . S
C409 C413 1.393 . S
C410 H402 0.950 . S
C410 C408 1.391 . S
C410 C411 1.400 . S
C411 C410 1.400 . S
C411 C412 1.398 . S
C411 C417 1.491 . S
C412 H403 0.950 . S
C412 C411 1.398 . S
C412 C413 1.391 . S
C413 H401 0.950 . S
C413 C409 1.393 . S
C413 C412 1.391 . S
C414 H404 0.950 . S
C414 C415 1.386 . S
C414 C416 1.391 . S
C415 C414 1.386 . S
C415 C419 1.393 . S
C416 H405 0.950 . S
C416 C414 1.391 . S
C416 C417 1.400 . S
C417 C411 1.491 . S
C417 C416 1.400 . S
C417 C418 1.398 . S
C418 H406 0.950 . S
C418 C417 1.398 . S
C418 C419 1.391 . S
C419 H407 0.950 . S
C419 C415 1.393 . S
C419 C418 1.391 . S
H420 C428 0.950 . S
H421 C433 0.950 . S
H422 C430 0.950 . S
H423 C432 0.950 . S
H424 C434 0.950 . S
H425 C436 0.950 . S
H426 C438 0.950 . S
H427 C439 0.950 1_554 S
C428 H420 0.950 . S
C428 C429 1.386 . S
C428 C430 1.391 . S
C429 C428 1.386 . S
C429 C433 1.393 . S
C430 H422 0.950 . S
C430 C428 1.391 . S
C430 C431 1.400 . S
C431 C430 1.400 . S
C431 C432 1.398 . S
C431 C437 1.491 . S
C432 H423 0.950 . S
C432 C431 1.398 . S
C432 C433 1.391 . S
C433 H421 0.950 . S
C433 C429 1.393 . S
C433 C432 1.391 . S
C434 H424 0.950 . S
C434 C435 1.386 1_556 S
C434 C436 1.391 . S
C435 C434 1.386 1_554 S
C435 C439 1.393 1_554 S
C436 H425 0.950 . S
C436 C434 1.391 . S
C436 C437 1.400 . S
C437 C431 1.491 . S
C437 C436 1.400 . S
C437 C438 1.398 . S
C438 H426 0.950 . S
C438 C437 1.398 . S
C438 C439 1.391 . S
C439 H427 0.950 1_556 S
C439 C435 1.393 1_556 S
C439 C438 1.391 . S
H440 C448 0.950 . S
H441 C453 0.950 . S
H442 C450 0.950 . S
H443 C452 0.950 . S
H444 C454 0.950 . S
H445 C456 0.950 . S
H446 C458 0.950 . S
H447 C459 0.950 . S
C448 H440 0.950 . S
C448 C449 1.386 . S
C448 C450 1.391 . S
C449 C448 1.386 . S
C449 C453 1.393 . S
C450 H442 0.950 . S
C450 C448 1.391 . S
C450 C451 1.400 . S
C451 C450 1.400 . S
C451 C452 1.398 . S
C451 C457 1.491 . S
C452 H443 0.950 . S
C452 C451 1.398 . S
C452 C453 1.391 . S
C453 H441 0.950 . S
C453 C449 1.393 . S
C453 C452 1.391 . S
C454 H444 0.950 . S
C454 C455 1.386 . S
C454 C456 1.391 . S
C455 C454 1.386 . S
C455 C459 1.393 . S
C456 H445 0.950 . S
C456 C454 1.391 . S
C456 C457 1.400 . S
C457 C451 1.491 . S
C457 C456 1.400 . S
C457 C458 1.398 . S
C458 H446 0.950 . S
C458 C457 1.398 . S
C458 C459 1.391 . S
C459 H447 0.950 . S
C459 C455 1.393 . S
C459 C458 1.391 . S
H460 C468 0.950 . S
H461 C473 0.950 . S
H462 C470 0.950 . S
H463 C472 0.950 . S
H464 C474 0.950 . S
H465 C476 0.950 . S
H466 C478 0.950 . S
H467 C479 0.950 . S
C468 H460 0.950 . S
C468 C469 1.386 . S
C468 C470 1.391 . S
C469 C468 1.386 . S
C469 C473 1.393 . S
C470 H462 0.950 . S
C470 C468 1.391 . S
C470 C471 1.400 . S
C471 C470 1.400 . S
C471 C472 1.398 . S
C471 C477 1.491 . S
C472 H463 0.950 . S
C472 C471 1.398 . S
C472 C473 1.391 . S
C473 H461 0.950 . S
C473 C469 1.393 . S
C473 C472 1.391 . S
C474 H464 0.950 . S
C474 C475 1.386 . S
C474 C476 1.391 . S
C475 C474 1.386 . S
C475 C479 1.393 . S
C476 H465 0.950 . S
C476 C474 1.391 . S
C476 C477 1.400 . S
C477 C471 1.491 . S
C477 C476 1.400 . S
C477 C478 1.398 . S
C478 H466 0.950 . S
C478 C477 1.398 . S
C478 C479 1.391 . S
C479 H467 0.950 . S
C479 C475 1.393 . S
C479 C478 1.391 . S
H480 C488 0.950 . S
H481 C493 0.950 . S
H482 C490 0.950 . S
H483 C492 0.950 . S
H484 C494 0.950 . S
H485 C496 0.950 . S
H486 C498 0.950 . S
H487 C499 0.950 . S
C488 H480 0.950 . S
C488 C489 1.386 . S
C488 C490 1.391 . S
C489 C488 1.386 . S
C489 C493 1.393 . S
C490 H482 0.950 . S
C490 C488 1.391 . S
C490 C491 1.400 . S
C491 C490 1.400 . S
C491 C492 1.398 . S
C491 C497 1.491 . S
C492 H483 0.950 . S
C492 C491 1.398 . S
C492 C493 1.391 . S
C493 H481 0.950 . S
C493 C489 1.393 . S
C493 C492 1.391 . S
C494 H484 0.950 . S
C494 C495 1.386 . S
C494 C496 1.391 . S
C495 C494 1.386 . S
C495 C499 1.393 . S
C496 H485 0.950 . S
C496 C494 1.391 . S
C496 C497 1.400 . S
C497 C491 1.491 . S
C497 C496 1.400 . S
C497 C498 1.398 . S
C498 H486 0.950 . S
C498 C497 1.398 . S
C498 C499 1.391 . S
C499 H487 0.950 . S
C499 C495 1.393 . S
C499 C498 1.391 . S
H500 C508 0.950 . S
H501 C513 0.950 . S
H502 C510 0.950 . S
H503 C512 0.950 . S
H504 C514 0.950 . S
H505 C516 0.950 . S
H506 C518 0.950 . S
H507 C519 0.950 . S
C508 H500 0.950 . S
C508 C509 1.386 . S
C508 C510 1.391 . S
C509 C508 1.386 . S
C509 C513 1.393 . S
C510 H502 0.950 . S
C510 C508 1.391 . S
C510 C511 1.400 . S
C511 C510 1.400 . S
C511 C512 1.398 . S
C511 C517 1.491 . S
C512 H503 0.950 . S
C512 C511 1.398 . S
C512 C513 1.391 . S
C513 H501 0.950 . S
C513 C509 1.393 . S
C513 C512 1.391 . S
C514 H504 0.950 . S
C514 C515 1.386 . S
C514 C516 1.391 . S
C515 C514 1.386 . S
C515 C519 1.393 . S
C516 H505 0.950 . S
C516 C514 1.391 . S
C516 C517 1.400 . S
C517 C511 1.491 . S
C517 C516 1.400 . S
C517 C518 1.398 . S
C518 H506 0.950 . S
C518 C517 1.398 . S
C518 C519 1.391 . S
C519 H507 0.950 . S
C519 C515 1.393 . S
C519 C518 1.391 . S
H520 C528 0.950 . S
H521 C533 0.950 . S
H522 C530 0.950 . S
H523 C532 0.950 . S
H524 C534 0.950 . S
H525 C536 0.950 . S
H526 C538 0.950 . S
H527 C539 0.950 . S
C528 H520 0.950 . S
C528 C529 1.386 . S
C528 C530 1.391 . S
C529 C528 1.386 . S
C529 C533 1.393 . S
C530 H522 0.950 . S
C530 C528 1.391 . S
C530 C531 1.400 . S
C531 C530 1.400 . S
C531 C532 1.398 . S
C531 C537 1.491 . S
C532 H523 0.950 . S
C532 C531 1.398 . S
C532 C533 1.391 . S
C533 H521 0.950 . S
C533 C529 1.393 . S
C533 C532 1.391 . S
C534 H524 0.950 . S
C534 C535 1.386 . S
C534 C536 1.391 . S
C535 C534 1.386 . S
C535 C539 1.393 . S
C536 H525 0.950 . S
C536 C534 1.391 . S
C536 C537 1.400 . S
C537 C531 1.491 . S
C537 C536 1.400 . S
C537 C538 1.398 . S
C538 H526 0.950 . S
C538 C537 1.398 . S
C538 C539 1.391 . S
C539 H527 0.950 . S
C539 C535 1.393 . S
C539 C538 1.391 . S
H540 C548 0.950 . S
H541 C553 0.950 . S
H542 C550 0.950 . S
H543 C552 0.950 . S
H544 C554 0.950 . S
H545 C556 0.950 . S
H546 C558 0.950 . S
H547 C559 0.950 . S
C548 H540 0.950 . S
C548 C549 1.386 . S
C548 C550 1.391 . S
C549 C548 1.386 . S
C549 C553 1.393 . S
C550 H542 0.950 . S
C550 C548 1.391 . S
C550 C551 1.400 . S
C551 C550 1.400 . S
C551 C552 1.398 . S
C551 C557 1.491 . S
C552 H543 0.950 . S
C552 C551 1.398 . S
C552 C553 1.391 . S
C553 H541 0.950 . S
C553 C549 1.393 . S
C553 C552 1.391 . S
C554 H544 0.950 . S
C554 C555 1.386 . S
C554 C556 1.391 . S
C555 C554 1.386 . S
C555 C559 1.393 . S
C556 H545 0.950 . S
C556 C554 1.391 . S
C556 C557 1.400 . S
C557 C551 1.491 . S
C557 C556 1.400 . S
C557 C558 1.398 . S
C558 H546 0.950 . S
C558 C557 1.398 . S
C558 C559 1.391 . S
C559 H547 0.950 . S
C559 C555 1.393 . S
C559 C558 1.391 . S
H560 C568 0.950 . S
H561 C573 0.950 . S
H562 C570 0.950 . S
H563 C572 0.950 . S
H564 C574 0.950 . S
H565 C576 0.950 . S
H566 C578 0.950 . S
H567 C579 0.950 . S
C568 H560 0.950 . S
C568 C569 1.386 . S
C568 C570 1.391 . S
C569 C568 1.386 . S
C569 C573 1.393 . S
C570 H562 0.950 . S
C570 C568 1.391 . S
C570 C571 1.400 . S
C571 C570 1.400 . S
C571 C572 1.398 . S
C571 C577 1.491 . S
C572 H563 0.950 . S
C572 C571 1.398 . S
C572 C573 1.391 . S
C573 H561 0.950 . S
C573 C569 1.393 . S
C573 C572 1.391 . S
C574 H564 0.950 . S
C574 C575 1.386 . S
C574 C576 1.391 . S
C575 C574 1.386 . S
C575 C579 1.393 . S
C576 H565 0.950 . S
C576 C574 1.391 . S
C576 C577 1.400 . S
C577 C571 1.491 . S
C577 C576 1.400 . S
C577 C578 1.398 . S
C578 H566 0.950 . S
C578 C577 1.398 . S
C578 C579 1.391 . S
C579 H567 0.950 . S
C579 C575 1.393 . S
C579 C578 1.391 . S
H580 C588 0.950 . S
H581 C593 0.950 . S
H582 C590 0.950 . S
H583 C592 0.950 . S
H584 C594 0.950 . S
H585 C596 0.950 . S
H586 C598 0.950 1_545 S
H587 C599 0.950 . S
C588 H580 0.950 . S
C588 C589 1.386 . S
C588 C590 1.391 . S
C589 C588 1.386 . S
C589 C593 1.393 1_545 S
C590 H582 0.950 . S
C590 C588 1.391 . S
C590 C591 1.400 1_545 S
C591 C590 1.400 1_565 S
C591 C592 1.398 . S
C591 C597 1.491 . S
C592 H583 0.950 . S
C592 C591 1.398 . S
C592 C593 1.391 . S
C593 H581 0.950 . S
C593 C589 1.393 1_565 S
C593 C592 1.391 . S
C594 H584 0.950 . S
C594 C595 1.386 . S
C594 C596 1.391 . S
C595 C594 1.386 . S
C595 C599 1.393 . S
C596 H585 0.950 . S
C596 C594 1.391 . S
C596 C597 1.400 . S
C597 C591 1.491 . S
C597 C596 1.400 . S
C597 C598 1.398 . S
C598 H586 0.950 1_565 S
C598 C597 1.398 . S
C598 C599 1.391 . S
C599 H587 0.950 . S
C599 C595 1.393 . S
C599 C598 1.391 . S
H600 C608 0.950 . S
H601 C613 0.950 . S
H602 C610 0.950 . S
H603 C612 0.950 . S
H604 C614 0.950 . S
H605 C616 0.950 1_554 S
H606 C618 0.950 . S
H607 C619 0.950 . S
C608 H600 0.950 . S
C608 C609 1.386 1_556 S
C608 C610 1.391 . S
C609 C608 1.386 1_554 S
C609 C613 1.393 . S
C610 H602 0.950 . S
C610 C608 1.391 . S
C610 C611 1.400 . S
C611 C610 1.400 . S
C611 C612 1.398 1_556 S
C611 C617 1.491 . S
C612 H603 0.950 . S
C612 C611 1.398 1_554 S
C612 C613 1.391 . S
C613 H601 0.950 . S
C613 C609 1.393 . S
C613 C612 1.391 . S
C614 H604 0.950 . S
C614 C615 1.386 . S
C614 C616 1.391 . S
C615 C614 1.386 . S
C615 C619 1.393 . S
C616 H605 0.950 1_556 S
C616 C614 1.391 . S
C616 C617 1.400 . S
C617 C611 1.491 . S
C617 C616 1.400 . S
C617 C618 1.398 . S
C618 H606 0.950 . S
C618 C617 1.398 . S
C618 C619 1.391 . S
C619 H607 0.950 . S
C619 C615 1.393 . S
C619 C618 1.391 . S
H620 C628 0.950 . S
H621 C633 0.950 . S
H622 C630 0.950 . S
H623 C632 0.950 . S
H624 C634 0.950 . S
H625 C636 0.950 1_554 S
H626 C638 0.950 . S
H627 C639 0.950 . S
C628 H620 0.950 . S
C628 C629 1.386 . S
C628 C630 1.391 . S
C629 C628 1.386 . S
C629 C633 1.393 . S
C630 H622 0.950 . S
C630 C628 1.391 . S
C630 C631 1.400 . S
C631 C630 1.400 . S
C631 C632 1.398 . S
C631 C637 1.491 . S
C632 H623 0.950 . S
C632 C631 1.398 . S
C632 C633 1.391 . S
C633 H621 0.950 . S
C633 C629 1.393 . S
C633 C632 1.391 . S
C634 H624 0.950 . S
C634 C635 1.386 1_654 S
C634 C636 1.391 1_554 S
C635 C634 1.386 1_456 S
C635 C639 1.393 . S
C636 H625 0.950 1_556 S
C636 C634 1.391 1_556 S
C636 C637 1.400 . S
C637 C631 1.491 . S
C637 C636 1.400 . S
C637 C638 1.398 . S
C638 H626 0.950 . S
C638 C637 1.398 . S
C638 C639 1.391 1_655 S
C639 H627 0.950 . S
C639 C635 1.393 . S
C639 C638 1.391 1_455 S
H640 C648 0.950 . S
H641 C653 0.950 . S
H642 C650 0.950 . S
H643 C652 0.950 . S
H644 C654 0.950 . S
H645 C656 0.950 . S
H646 C658 0.950 . S
H647 C659 0.950 . S
C648 H640 0.950 . S
C648 C649 1.386 . S
C648 C650 1.391 . S
C649 C648 1.386 . S
C649 C653 1.393 . S
C650 H642 0.950 . S
C650 C648 1.391 . S
C650 C651 1.400 . S
C651 C650 1.400 . S
C651 C652 1.398 . S
C651 C657 1.491 . S
C652 H643 0.950 . S
C652 C651 1.398 . S
C652 C653 1.391 . S
C653 H641 0.950 . S
C653 C649 1.393 . S
C653 C652 1.391 . S
C654 H644 0.950 . S
C654 C655 1.386 . S
C654 C656 1.391 1_554 S
C655 C654 1.386 . S
C655 C659 1.393 . S
C656 H645 0.950 . S
C656 C654 1.391 1_556 S
C656 C657 1.400 . S
C657 C651 1.491 . S
C657 C656 1.400 . S
C657 C658 1.398 . S
C658 H646 0.950 . S
C658 C657 1.398 . S
C658 C659 1.391 1_556 S
C659 H647 0.950 . S
C659 C655 1.393 . S
C659 C658 1.391 1_554 S
H660 C668 0.950 . S
H661 C673 0.950 . S
H662 C670 0.950 . S
H663 C672 0.950 . S
H664 C674 0.950 . S
H665 C676 0.950 . S
H666 C678 0.950 . S
H667 C679 0.950 . S
C668 H660 0.950 . S
C668 C669 1.386 . S
C668 C670 1.391 . S
C669 C668 1.386 . S
C669 C673 1.393 . S
C670 H662 0.950 . S
C670 C668 1.391 . S
C670 C671 1.400 . S
C671 C670 1.400 . S
C671 C672 1.398 . S
C671 C677 1.491 . S
C672 H663 0.950 . S
C672 C671 1.398 . S
C672 C673 1.391 . S
C673 H661 0.950 . S
C673 C669 1.393 . S
C673 C672 1.391 . S
C674 H664 0.950 . S
C674 C675 1.386 . S
C674 C676 1.391 . S
C675 C674 1.386 . S
C675 C679 1.393 . S
C676 H665 0.950 . S
C676 C674 1.391 . S
C676 C677 1.400 . S
C677 C671 1.491 . S
C677 C676 1.400 . S
C677 C678 1.398 . S
C678 H666 0.950 . S
C678 C677 1.398 . S
C678 C679 1.391 . S
C679 H667 0.950 . S
C679 C675 1.393 . S
C679 C678 1.391 . S
H680 C688 0.950 . S
H681 C693 0.950 . S
H682 C690 0.950 . S
H683 C692 0.950 . S
H684 C694 0.950 . S
H685 C696 0.950 . S
H686 C698 0.950 . S
H687 C699 0.950 . S
C688 H680 0.950 . S
C688 C689 1.386 . S
C688 C690 1.391 1_554 S
C689 C688 1.386 . S
C689 C693 1.393 1_554 S
C690 H682 0.950 . S
C690 C688 1.391 1_556 S
C690 C691 1.400 . S
C691 C690 1.400 . S
C691 C692 1.398 . S
C691 C697 1.491 . S
C692 H683 0.950 . S
C692 C691 1.398 . S
C692 C693 1.391 . S
C693 H681 0.950 . S
C693 C689 1.393 1_556 S
C693 C692 1.391 . S
C694 H684 0.950 . S
C694 C695 1.386 . S
C694 C696 1.391 . S
C695 C694 1.386 . S
C695 C699 1.393 . S
C696 H685 0.950 . S
C696 C694 1.391 . S
C696 C697 1.400 . S
C697 C691 1.491 . S
C697 C696 1.400 . S
C697 C698 1.398 . S
C698 H686 0.950 . S
C698 C697 1.398 . S
C698 C699 1.391 . S
C699 H687 0.950 . S
C699 C695 1.393 . S
C699 C698 1.391 . S
H700 C708 0.950 . S
H701 C713 0.950 . S
H702 C710 0.950 . S
H703 C712 0.950 . S
H704 C714 0.950 . S
H705 C716 0.950 . S
H706 C718 0.950 . S
H707 C719 0.950 . S
C708 H700 0.950 . S
C708 C709 1.386 . S
C708 C710 1.391 . S
C709 C708 1.386 . S
C709 C713 1.393 . S
C710 H702 0.950 . S
C710 C708 1.391 . S
C710 C711 1.400 . S
C711 C710 1.400 . S
C711 C712 1.398 . S
C711 C717 1.491 . S
C712 H703 0.950 . S
C712 C711 1.398 . S
C712 C713 1.391 . S
C713 H701 0.950 . S
C713 C709 1.393 . S
C713 C712 1.391 . S
C714 H704 0.950 . S
C714 C715 1.375 1_556 S
C714 C716 1.401 . S
C715 C714 1.375 1_554 S
C715 C719 1.393 . S
C716 H705 0.950 . S
C716 C714 1.401 . S
C716 C717 1.400 . S
C717 C711 1.491 . S
C717 C716 1.400 . S
C717 C718 1.398 1_556 S
C718 H706 0.950 . S
C718 C717 1.398 1_554 S
C718 C719 1.391 . S
C719 H707 0.950 . S
C719 C715 1.393 . S
C719 C718 1.391 . S
H720 C728 0.950 . S
H721 C733 0.950 . S
H722 C730 0.950 . S
H723 C732 0.950 1_565 S
H724 C734 0.950 . S
H725 C736 0.950 . S
H726 C738 0.950 . S
H727 C739 0.950 . S
C728 H720 0.950 . S
C728 C729 1.386 . S
C728 C730 1.391 . S
C729 C728 1.386 . S
C729 C733 1.393 . S
C730 H722 0.950 . S
C730 C728 1.391 . S
C730 C731 1.400 . S
C731 C730 1.400 . S
C731 C732 1.398 . S
C731 C737 1.491 . S
C732 H723 0.950 1_545 S
C732 C731 1.398 . S
C732 C733 1.391 . S
C733 H721 0.950 . S
C733 C729 1.393 . S
C733 C732 1.391 . S
C734 H724 0.950 . S
C734 C735 1.386 . S
C734 C736 1.391 . S
C735 C734 1.386 . S
C735 C739 1.393 1_565 S
C736 H725 0.950 . S
C736 C734 1.391 . S
C736 C737 1.400 1_565 S
C737 C731 1.491 . S
C737 C736 1.400 1_545 S
C737 C738 1.398 . S
C738 H726 0.950 . S
C738 C737 1.398 . S
C738 C739 1.391 . S
C739 H727 0.950 . S
C739 C735 1.393 1_545 S
C739 C738 1.391 . S
H740 C748 0.950 . S
H741 C753 0.950 . S
H742 C750 0.950 . S
H743 C752 0.950 . S
H744 C754 0.950 . S
H745 C756 0.950 . S
H746 C758 0.950 . S
H747 C759 0.950 . S
C748 H740 0.950 . S
C748 C749 1.386 . S
C748 C750 1.391 . S
C749 C748 1.386 . S
C749 C753 1.393 . S
C750 H742 0.950 . S
C750 C748 1.391 . S
C750 C751 1.400 . S
C751 C750 1.400 . S
C751 C752 1.398 . S
C751 C757 1.491 . S
C752 H743 0.950 . S
C752 C751 1.398 . S
C752 C753 1.391 . S
C753 H741 0.950 . S
C753 C749 1.393 . S
C753 C752 1.391 . S
C754 H744 0.950 . S
C754 C755 1.386 . S
C754 C756 1.391 . S
C755 C754 1.386 . S
C755 C759 1.393 . S
C756 H745 0.950 . S
C756 C754 1.391 . S
C756 C757 1.400 . S
C757 C751 1.491 . S
C757 C756 1.400 . S
C757 C758 1.398 . S
C758 H746 0.950 . S
C758 C757 1.398 . S
C758 C759 1.391 . S
C759 H747 0.950 . S
C759 C755 1.393 . S
C759 C758 1.391 . S
H760 C768 0.950 . S
H761 C773 0.950 . S
H762 C770 0.950 . S
H763 C772 0.950 . S
H764 C774 0.950 . S
H765 C776 0.950 . S
H766 C778 0.950 . S
H767 C779 0.950 . S
C768 H760 0.950 . S
C768 C769 1.386 . S
C768 C770 1.391 . S
C769 C768 1.386 . S
C769 C773 1.393 . S
C770 H762 0.950 . S
C770 C768 1.391 . S
C770 C771 1.400 . S
C771 C770 1.400 . S
C771 C772 1.398 . S
C771 C777 1.491 . S
C772 H763 0.950 . S
C772 C771 1.398 . S
C772 C773 1.391 . S
C773 H761 0.950 . S
C773 C769 1.393 . S
C773 C772 1.391 . S
C774 H764 0.950 . S
C774 C775 1.386 . S
C774 C776 1.391 . S
C775 C774 1.386 . S
C775 C779 1.393 . S
C776 H765 0.950 . S
C776 C774 1.391 . S
C776 C777 1.400 . S
C777 C771 1.491 . S
C777 C776 1.400 . S
C777 C778 1.398 . S
C778 H766 0.950 . S
C778 C777 1.398 . S
C778 C779 1.391 . S
C779 H767 0.950 . S
C779 C775 1.393 . S
C779 C778 1.391 . S
H780 C788 0.950 . S
H781 C793 0.950 . S
H782 C790 0.950 . S
H783 C792 0.950 . S
H784 C794 0.950 . S
H785 C796 0.950 . S
H786 C798 0.950 . S
H787 C799 0.950 . S
C788 H780 0.950 . S
C788 C789 1.386 . S
C788 C790 1.391 . S
C789 C788 1.386 . S
C789 C793 1.393 . S
C790 H782 0.950 . S
C790 C788 1.391 . S
C790 C791 1.400 . S
C791 C790 1.400 . S
C791 C792 1.398 . S
C791 C797 1.491 . S
C792 H783 0.950 . S
C792 C791 1.398 . S
C792 C793 1.391 . S
C793 H781 0.950 . S
C793 C789 1.393 . S
C793 C792 1.391 . S
C794 H784 0.950 . S
C794 C795 1.386 . S
C794 C796 1.391 . S
C795 C794 1.386 . S
C795 C799 1.393 . S
C796 H785 0.950 . S
C796 C794 1.391 . S
C796 C797 1.400 . S
C797 C791 1.491 . S
C797 C796 1.400 . S
C797 C798 1.398 . S
C798 H786 0.950 . S
C798 C797 1.398 . S
C798 C799 1.391 . S
C799 H787 0.950 . S
C799 C795 1.393 . S
C799 C798 1.391 . S
H800 C808 0.950 . S
H801 C813 0.950 . S
H802 C810 0.950 . S
H803 C812 0.950 . S
H804 C814 0.950 . S
H805 C816 0.950 . S
H806 C818 0.950 1_545 S
H807 C819 0.950 . S
C808 H800 0.950 . S
C808 C809 1.386 . S
C808 C810 1.391 . S
C809 C808 1.386 . S
C809 C813 1.393 . S
C810 H802 0.950 . S
C810 C808 1.391 . S
C810 C811 1.400 . S
C811 C810 1.400 . S
C811 C812 1.398 . S
C811 C817 1.491 1_545 S
C812 H803 0.950 . S
C812 C811 1.398 . S
C812 C813 1.391 . S
C813 H801 0.950 . S
C813 C809 1.393 . S
C813 C812 1.391 . S
C814 H804 0.950 . S
C814 C815 1.386 . S
C814 C816 1.391 . S
C815 C814 1.386 . S
C815 C819 1.393 . S
C816 H805 0.950 . S
C816 C814 1.391 . S
C816 C817 1.400 . S
C817 C811 1.491 1_565 S
C817 C816 1.400 . S
C817 C818 1.398 . S
C818 H806 0.950 1_565 S
C818 C817 1.398 . S
C818 C819 1.391 . S
C819 H807 0.950 . S
C819 C815 1.393 . S
C819 C818 1.391 . S
H820 C828 0.950 . S
H821 C833 0.950 . S
H822 C830 0.950 . S
H823 C832 0.950 . S
H824 C834 0.950 . S
H825 C836 0.949 . S
H826 C838 0.950 . S
H827 C839 0.950 . S
C828 H820 0.950 . S
C828 C829 1.386 . S
C828 C830 1.391 . S
C829 C828 1.386 . S
C829 C833 1.393 . S
C830 H822 0.950 . S
C830 C828 1.391 . S
C830 C831 1.400 . S
C831 C830 1.400 . S
C831 C832 1.398 . S
C831 C837 1.491 1_655 S
C832 H823 0.950 . S
C832 C831 1.398 . S
C832 C833 1.391 . S
C833 H821 0.950 . S
C833 C829 1.393 . S
C833 C832 1.391 . S
C834 H824 0.950 . S
C834 C835 1.386 . S
C834 C836 1.391 . S
C835 C834 1.386 . S
C835 C839 1.393 . S
C836 H825 0.949 . S
C836 C834 1.391 . S
C836 C837 1.400 . S
C837 C831 1.491 1_455 S
C837 C836 1.400 . S
C837 C838 1.398 . S
C838 H826 0.950 . S
C838 C837 1.398 . S
C838 C839 1.391 . S
C839 H827 0.950 . S
C839 C835 1.393 . S
C839 C838 1.391 . S
H840 C848 0.950 . S
H841 C853 0.950 . S
H842 C850 0.950 . S
H843 C852 0.950 . S
H844 C854 0.950 . S
H845 C856 0.950 . S
H846 C858 0.950 . S
H847 C859 0.950 . S
C848 H840 0.950 . S
C848 C849 1.386 . S
C848 C850 1.391 . S
C849 C848 1.386 . S
C849 C853 1.393 . S
C850 H842 0.950 . S
C850 C848 1.391 . S
C850 C851 1.400 . S
C851 C850 1.400 . S
C851 C852 1.398 . S
C851 C857 1.491 . S
C852 H843 0.950 . S
C852 C851 1.398 . S
C852 C853 1.391 . S
C853 H841 0.950 . S
C853 C849 1.393 . S
C853 C852 1.391 . S
C854 H844 0.950 . S
C854 C855 1.386 . S
C854 C856 1.391 . S
C855 C854 1.386 . S
C855 C859 1.393 . S
C856 H845 0.950 . S
C856 C854 1.391 . S
C856 C857 1.400 . S
C857 C851 1.491 . S
C857 C856 1.400 . S
C857 C858 1.398 . S
C858 H846 0.950 . S
C858 C857 1.398 . S
C858 C859 1.391 . S
C859 H847 0.950 . S
C859 C855 1.393 . S
C859 C858 1.391 . S
H860 C868 0.950 . S
H861 C873 0.950 . S
H862 C870 0.950 1_545 S
H863 C872 0.950 . S
H864 C874 0.950 . S
H865 C876 0.950 . S
H866 C878 0.950 . S
H867 C879 0.950 . S
C868 H860 0.950 . S
C868 C869 1.386 . S
C868 C870 1.391 . S
C869 C868 1.386 . S
C869 C873 1.393 . S
C870 H862 0.950 1_565 S
C870 C868 1.391 . S
C870 C871 1.400 1_565 S
C871 C870 1.400 1_545 S
C871 C872 1.398 1_545 S
C871 C877 1.491 . S
C872 H863 0.950 . S
C872 C871 1.398 1_565 S
C872 C873 1.391 . S
C873 H861 0.950 . S
C873 C869 1.393 . S
C873 C872 1.391 . S
C874 H864 0.950 . S
C874 C875 1.386 . S
C874 C876 1.391 . S
C875 C874 1.386 . S
C875 C879 1.393 . S
C876 H865 0.950 . S
C876 C874 1.391 . S
C876 C877 1.400 . S
C877 C871 1.491 . S
C877 C876 1.400 . S
C877 C878 1.398 . S
C878 H866 0.950 . S
C878 C877 1.398 . S
C878 C879 1.391 . S
C879 H867 0.950 . S
C879 C875 1.393 . S
C879 C878 1.391 . S
H880 C888 0.950 . S
H881 C893 0.950 . S
H882 C890 0.950 . S
H883 C892 0.950 1_455 S
H884 C894 0.950 . S
H885 C896 0.950 . S
H886 C898 0.950 . S
H887 C899 0.950 . S
C888 H880 0.950 . S
C888 C889 1.386 . S
C888 C890 1.391 . S
C889 C888 1.386 . S
C889 C893 1.393 . S
C890 H882 0.950 . S
C890 C888 1.391 . S
C890 C891 1.400 . S
C891 C890 1.400 . S
C891 C892 1.398 . S
C891 C897 1.478 1_655 S
C892 H883 0.950 1_655 S
C892 C891 1.398 . S
C892 C893 1.391 . S
C893 H881 0.950 . S
C893 C889 1.393 . S
C893 C892 1.391 . S
C894 H884 0.950 . S
C894 C895 1.386 . S
C894 C896 1.391 . S
C895 C894 1.386 . S
C895 C899 1.393 . S
C896 H885 0.950 . S
C896 C894 1.391 . S
C896 C897 1.421 . S
C897 C891 1.478 1_455 S
C897 C896 1.421 . S
C897 C898 1.391 1_455 S
C898 H886 0.950 . S
C898 C897 1.391 1_655 S
C898 C899 1.391 1_655 S
C899 H887 0.950 . S
C899 C895 1.393 . S
C899 C898 1.391 1_455 S
C369 C17 3.416 . S
C375 C2 3.416 . S
C389 C42 3.481 . S
C395 C57 3.481 . S
C409 C97 3.511 . S
C415 C82 3.511 . S
C429 C122 3.415 . S
C435 C137 3.415 . S
C449 C177 3.482 . S
C455 C162 3.482 1_556 S
C469 C202 3.511 . S
C475 C217 3.511 1_556 S
C489 C248 2.585 . S
C495 C269 2.585 . S
C509 C309 2.826 . S
C515 C288 2.826 . S
C529 C328 2.104 . S
C535 C349 2.104 . S
C549 C231 1.702 . S
C555 C8 1.700 . S
C569 C71 2.650 . S
C575 C151 2.666 . S
C589 C88 1.130 . S
C595 C168 1.140 . S
C609 C111 2.976 . S
C615 C252 3.030 . S
C629 C282 1.255 . S
C635 C31 1.253 1_556 S
C649 C332 1.793 . S
C655 C48 1.720 . S
C669 C337 0.849 . S
C675 C29 0.824 . S
C689 C52 2.231 . S
C695 C257 2.235 . S
C709 C311 2.682 . S
C715 C109 2.600 . S
C729 C92 1.701 . S
C735 C149 1.697 . S
C749 C172 2.649 . S
C755 C12 2.667 . S
C769 C69 1.138 . S
C775 C229 1.110 . S
C789 C322 0.851 . S
C795 C128 0.817 . S
C809 C242 2.240 . S
C815 C191 2.240 . S
C829 C292 2.685 . S
C835 C208 2.605 . S
C849 C271 3.030 . S
C855 C212 2.974 . S
C869 C132 1.260 . S
C875 C297 1.251 . S
C889 C351 1.793 . S
C895 C189 1.720 . S
