# Generated by pormake.
# Topology uoq, (4)-cn, num edge types: 1
# Building blocks:
#     Node 0, Type 0, BuildingBlock: AZAVOO_clean_sbu_0, # of connection points: 4
#     Node 1, Type 0, BuildingBlock: AZAVOO_clean_sbu_0, # of connection points: 4
#     Node 2, Type 0, BuildingBlock: AZAVOO_clean_sbu_0, # of connection points: 4
#     Node 3, Type 0, BuildingBlock: AZAVOO_clean_sbu_0, # of connection points: 4
#     Node 4, Type 0, BuildingBlock: AZAVOO_clean_sbu_0, # of connection points: 4
#     Node 5, Type 0, BuildingBlock: AZAVOO_clean_sbu_0, # of connection points: 4
#     Node 6, Type 0, BuildingBlock: AZAVOO_clean_sbu_0, # of connection points: 4
#     Node 7, Type 0, BuildingBlock: AZAVOO_clean_sbu_0, # of connection points: 4
#     Node 8, Type 0, BuildingBlock: AZAVOO_clean_sbu_0, # of connection points: 4
#     Node 9, Type 0, BuildingBlock: AZAVOO_clean_sbu_0, # of connection points: 4
#     Node 10, Type 0, BuildingBlock: AZAVOO_clean_sbu_0, # of connection points: 4
#     Node 11, Type 0, BuildingBlock: AZAVOO_clean_sbu_0, # of connection points: 4
#     Edge 12, Type (0, 0), BuildingBlock: EZIPEK_clean_linker_0, # of connection points: 2
#     Edge 13, Type (0, 0), BuildingBlock: EZIPEK_clean_linker_0, # of connection points: 2
#     Edge 14, Type (0, 0), BuildingBlock: EZIPEK_clean_linker_0, # of connection points: 2
#     Edge 15, Type (0, 0), BuildingBlock: EZIPEK_clean_linker_0, # of connection points: 2
#     Edge 16, Type (0, 0), BuildingBlock: EZIPEK_clean_linker_0, # of connection points: 2
#     Edge 17, Type (0, 0), BuildingBlock: EZIPEK_clean_linker_0, # of connection points: 2
#     Edge 18, Type (0, 0), BuildingBlock: EZIPEK_clean_linker_0, # of connection points: 2
#     Edge 19, Type (0, 0), BuildingBlock: EZIPEK_clean_linker_0, # of connection points: 2
#     Edge 20, Type (0, 0), BuildingBlock: EZIPEK_clean_linker_0, # of connection points: 2
#     Edge 21, Type (0, 0), BuildingBlock: EZIPEK_clean_linker_0, # of connection points: 2
#     Edge 22, Type (0, 0), BuildingBlock: EZIPEK_clean_linker_0, # of connection points: 2
#     Edge 23, Type (0, 0), BuildingBlock: EZIPEK_clean_linker_0, # of connection points: 2
#     Edge 24, Type (0, 0), BuildingBlock: EZIPEK_clean_linker_0, # of connection points: 2
#     Edge 25, Type (0, 0), BuildingBlock: EZIPEK_clean_linker_0, # of connection points: 2
#     Edge 26, Type (0, 0), BuildingBlock: EZIPEK_clean_linker_0, # of connection points: 2
#     Edge 27, Type (0, 0), BuildingBlock: EZIPEK_clean_linker_0, # of connection points: 2
#     Edge 28, Type (0, 0), BuildingBlock: EZIPEK_clean_linker_0, # of connection points: 2
#     Edge 29, Type (0, 0), BuildingBlock: EZIPEK_clean_linker_0, # of connection points: 2
#     Edge 30, Type (0, 0), BuildingBlock: EZIPEK_clean_linker_0, # of connection points: 2
#     Edge 31, Type (0, 0), BuildingBlock: EZIPEK_clean_linker_0, # of connection points: 2
#     Edge 32, Type (0, 0), BuildingBlock: EZIPEK_clean_linker_0, # of connection points: 2
#     Edge 33, Type (0, 0), BuildingBlock: EZIPEK_clean_linker_0, # of connection points: 2
#     Edge 34, Type (0, 0), BuildingBlock: EZIPEK_clean_linker_0, # of connection points: 2
#     Edge 35, Type (0, 0), BuildingBlock: EZIPEK_clean_linker_0, # of connection points: 2
# Relax obj value: 0.083
# Max RMSD: 0.081
# Mean RMSD: 0.081
data_MOF--net-uoq--node1-AZAVOO_clean_sbu_0--edge1-EZIPEK_clean_linker_0
_symmetry_space_group_name_H-M    P1
_symmetry_Int_Tables_number       1
_symmetry_cell_setting            triclinic
loop_
_symmetry_equiv_pos_as_xyz
'x, y, z'
_cell_length_a     42.753093
_cell_length_b     42.759127
_cell_length_c     17.532964
_cell_angle_alpha  89.986734
_cell_angle_beta   89.979064
_cell_angle_gamma 120.04093
loop_
_atom_site_label
_atom_site_type_symbol
_atom_site_fract_x
_atom_site_fract_y
_atom_site_fract_z
_atom_type_partial_charge
Mg0 Mg 0.30662 0.43514 0.23701 0.0
O1 O 0.2713 0.43491 0.33458 0.0
O2 O 0.29919 0.43836 0.44495 0.0
Mg3 Mg 0.35441 0.44505 0.41641 0.0
C4 C 0.27245 0.4356 0.40718 0.0
C5 C 0.26654 0.4244 0.08664 0.0
O6 O 0.30021 0.43829 0.064 0.0
O7 O 0.29223 0.37747 0.26595 0.0
O8 O 0.32538 0.38699 0.37076 0.0
O9 O 0.3342 0.4951 0.2289 0.0
O10 O 0.35342 0.46588 0.30175 0.0
C11 C 0.30374 0.36582 0.31983 0.0
C12 C 0.35731 0.49616 0.278 0.0
O13 O 0.25901 0.417 0.1567 0.0
Mg14 Mg 0.85665 0.31372 0.59789 0.0
O15 O 0.82105 0.28046 0.6973 0.0
O16 O 0.84853 0.30751 0.80638 0.0
Mg17 Mg 0.89904 0.36092 0.77532 0.0
C18 C 0.82266 0.28178 0.7699 0.0
C19 C 0.82916 0.27219 0.44691 0.0
O20 O 0.85409 0.30412 0.42249 0.0
O21 O 0.89689 0.29507 0.62533 0.0
O22 O 0.92384 0.32794 0.72876 0.0
O23 O 0.82832 0.3454 0.59091 0.0
O24 O 0.87676 0.36114 0.66183 0.0
C25 C 0.92062 0.30508 0.6779 0.0
C26 C 0.85198 0.36772 0.63888 0.0
O27 O 0.82433 0.26638 0.51813 0.0
Mg28 Mg 0.55439 0.87595 0.90013 0.0
O29 O 0.54892 0.83475 0.99088 0.0
O30 O 0.54481 0.85611 0.10499 0.0
Mg31 Mg 0.54679 0.90984 0.088 0.0
C32 C 0.54592 0.83222 0.06341 0.0
C33 C 0.54606 0.81479 0.79477 0.0
O34 O 0.51533 0.79909 0.83218 0.0
O35 O 0.6131 0.91267 0.93638 0.0
O36 O 0.60542 0.93384 0.04692 0.0
O37 O 0.49414 0.85118 0.88884 0.0
O38 O 0.52762 0.89383 0.9712 0.0
C39 C 0.62598 0.93276 0.99521 0.0
C40 C 0.49608 0.87193 0.94451 0.0
O41 O 0.5696 0.84725 0.81026 0.0
Mg42 Mg 0.68944 0.56351 0.25576 0.0
O43 O 0.72417 0.56293 0.35377 0.0
O44 O 0.69534 0.55783 0.46364 0.0
Mg45 Mg 0.64033 0.55168 0.43414 0.0
C46 C 0.72244 0.56121 0.42627 0.0
C47 C 0.73132 0.5694 0.11083 0.0
O48 O 0.69755 0.54796 0.09052 0.0
O49 O 0.70327 0.62082 0.2869 0.0
O50 O 0.66946 0.6102 0.39106 0.0
O51 O 0.66182 0.50353 0.2455 0.0
O52 O 0.64185 0.53204 0.3183 0.0
C53 C 0.69135 0.63192 0.34109 0.0
C54 C 0.63803 0.50196 0.29337 0.0
O55 O 0.73807 0.58295 0.17732 0.0
Mg56 Mg 0.13909 0.68702 0.59442 0.0
O57 O 0.17589 0.71957 0.69288 0.0
O58 O 0.14987 0.69179 0.80249 0.0
Mg59 Mg 0.09892 0.63862 0.77237 0.0
C60 C 0.17526 0.71775 0.76545 0.0
C61 C 0.16116 0.73382 0.44687 0.0
O62 O 0.13036 0.70644 0.42374 0.0
O63 O 0.09922 0.70561 0.62704 0.0
O64 O 0.07371 0.67191 0.73049 0.0
O65 O 0.167 0.65509 0.5826 0.0
O66 O 0.11944 0.63914 0.65665 0.0
C67 C 0.07615 0.69509 0.68118 0.0
C68 C 0.1438 0.63256 0.63103 0.0
O69 O 0.17116 0.73485 0.51545 0.0
Mg70 Mg 0.44338 0.12466 0.8962 0.0
O71 O 0.44879 0.16446 0.99043 0.0
O72 O 0.45252 0.14125 0.10252 0.0
Mg73 Mg 0.4502 0.08766 0.08066 0.0
C74 C 0.45162 0.16586 0.06305 0.0
C75 C 0.44262 0.15841 0.74332 0.0
O76 O 0.46106 0.14215 0.72802 0.0
O77 O 0.38449 0.08756 0.93065 0.0
O78 O 0.39175 0.06454 0.03908 0.0
O79 O 0.50355 0.14958 0.88512 0.0
O80 O 0.46978 0.10553 0.96471 0.0
C81 C 0.37141 0.06649 0.98805 0.0
C82 C 0.50142 0.12793 0.93907 0.0
O83 O 0.4292 0.15527 0.80949 0.0
Mg84 Mg 0.54362 0.68374 0.4089 0.0
O85 O 0.54226 0.7176 0.30892 0.0
O86 O 0.54159 0.68958 0.20041 0.0
Mg87 Mg 0.53877 0.63625 0.23176 0.0
C88 C 0.5421 0.71576 0.23626 0.0
C89 C 0.54589 0.72202 0.55716 0.0
O90 O 0.52607 0.68765 0.57478 0.0
O91 O 0.60251 0.70195 0.38213 0.0
O92 O 0.59655 0.66929 0.27835 0.0
O93 O 0.48339 0.65231 0.41507 0.0
O94 O 0.51593 0.63625 0.34474 0.0
C95 C 0.61623 0.69205 0.32936 0.0
C96 C 0.48457 0.62979 0.36746 0.0
O97 O 0.55927 0.73076 0.49056 0.0
Mg98 Mg 0.8736 0.56469 0.76669 0.0
O99 O 0.83836 0.56447 0.6689 0.0
O100 O 0.86232 0.55994 0.55873 0.0
Mg101 Mg 0.91032 0.55244 0.58795 0.0
C102 C 0.83862 0.56327 0.59631 0.0
C103 C 0.84264 0.57437 0.91531 0.0
O104 O 0.86022 0.55804 0.93731 0.0
O105 O 0.91749 0.62195 0.73506 0.0
O106 O 0.94034 0.61095 0.63085 0.0
O107 O 0.84038 0.50481 0.77747 0.0
O108 O 0.88856 0.53261 0.70338 0.0
C109 C 0.94044 0.63282 0.68068 0.0
C110 C 0.86194 0.50277 0.72852 0.0
O111 O 0.84475 0.58401 0.84614 0.0
Mg112 Mg 0.31534 0.87648 0.10248 0.0
O113 O 0.28521 0.83757 0.0048 0.0
O114 O 0.3151 0.86117 0.89565 0.0
Mg115 Mg 0.36565 0.91451 0.92443 0.0
C116 C 0.28865 0.83635 0.93276 0.0
C117 C 0.27121 0.83751 0.24602 0.0
O118 O 0.30431 0.85006 0.27105 0.0
O119 O 0.29517 0.91396 0.06133 0.0
O120 O 0.3291 0.93739 0.95719 0.0
O121 O 0.34945 0.85082 0.12063 0.0
O122 O 0.3634 0.8964 0.04229 0.0
C123 C 0.30514 0.93524 0.00398 0.0
C124 C 0.37091 0.873 0.06937 0.0
O125 O 0.26612 0.84465 0.17841 0.0
Mg126 Mg 0.44845 0.31342 0.40694 0.0
O127 O 0.45244 0.27964 0.30996 0.0
O128 O 0.45608 0.30792 0.19987 0.0
Mg129 Mg 0.45819 0.36123 0.2274 0.0
C130 C 0.45448 0.2816 0.23734 0.0
C131 C 0.45247 0.25575 0.50556 0.0
O132 O 0.48424 0.27123 0.47231 0.0
O133 O 0.39047 0.29525 0.37213 0.0
O134 O 0.39917 0.32809 0.26722 0.0
O135 O 0.50846 0.34512 0.42039 0.0
O136 O 0.47784 0.36098 0.3436 0.0
C137 C 0.37816 0.30518 0.31667 0.0
C138 C 0.50853 0.36758 0.37082 0.0
O139 O 0.43016 0.26619 0.48958 0.0
Mg140 Mg 0.12312 0.43466 0.74838 0.0
O141 O 0.15803 0.43487 0.64993 0.0
O142 O 0.13395 0.43969 0.54034 0.0
Mg143 Mg 0.08557 0.44652 0.57076 0.0
C144 C 0.15773 0.43633 0.57742 0.0
C145 C 0.1607 0.42987 0.89102 0.0
O146 O 0.15028 0.45298 0.91005 0.0
O147 O 0.07921 0.37748 0.71773 0.0
O148 O 0.0558 0.38799 0.61393 0.0
O149 O 0.1563 0.49453 0.7584 0.0
O150 O 0.10751 0.46662 0.68617 0.0
C151 C 0.05603 0.36632 0.66389 0.0
C152 C 0.13425 0.49652 0.71077 0.0
O153 O 0.15204 0.41479 0.82609 0.0
Mg154 Mg 0.68034 0.12217 0.10563 0.0
O155 O 0.71177 0.16147 0.00905 0.0
O156 O 0.68349 0.13777 0.89849 0.0
Mg157 Mg 0.63281 0.08418 0.92482 0.0
C158 C 0.70931 0.1627 0.9367 0.0
C159 C 0.72131 0.16642 0.24549 0.0
O160 O 0.688 0.15859 0.25963 0.0
O161 O 0.7016 0.08511 0.06759 0.0
O162 O 0.66915 0.0617 0.96171 0.0
O163 O 0.64566 0.14737 0.12001 0.0
O164 O 0.63317 0.10209 0.042 0.0
C165 C 0.6925 0.06391 0.01025 0.0
C166 C 0.62508 0.12529 0.06774 0.0
O167 O 0.72802 0.15433 0.18528 0.0
C168 C 0.30251 0.31374 0.38618 0.0
C169 C 0.29794 0.32846 0.31756 0.0
C170 C 0.32501 0.29952 0.24543 0.0
C171 C 0.33943 0.2954 0.31498 0.0
N172 N 0.32436 0.27683 0.44576 0.0
N173 N 0.28449 0.31644 0.18405 0.0
C174 C 0.32198 0.29486 0.38394 0.0
C175 C 0.302 0.31461 0.24735 0.0
N176 N 0.29026 0.32012 0.45289 0.0
N177 N 0.33516 0.29085 0.17861 0.0
H178 H 0.26555 0.32499 0.18722 0.0
H179 H 0.28563 0.306 0.13119 0.0
H180 H 0.35063 0.27814 0.17828 0.0
H181 H 0.32868 0.29632 0.12492 0.0
H182 H 0.29573 0.3135 0.50646 0.0
H183 H 0.27475 0.33278 0.45329 0.0
H184 H 0.31132 0.2746 0.49732 0.0
H185 H 0.33609 0.26057 0.44194 0.0
C186 C 0.96544 0.29608 0.60296 0.0
C187 C 0.94964 0.29546 0.67426 0.0
C188 C 0.00745 0.31403 0.73625 0.0
C189 C 0.0242 0.32902 0.66556 0.0
N190 N 0.02132 0.32237 0.52954 0.0
N191 N 0.95178 0.28941 0.8099 0.0
C192 C 0.00377 0.31518 0.59784 0.0
C193 C 0.9694 0.29882 0.7416 0.0
N194 N 0.94402 0.27895 0.5417 0.0
N195 N 0.0278 0.31473 0.79677 0.0
H196 H 0.92362 0.27669 0.81272 0.0
H197 H 0.96473 0.29443 0.86246 0.0
H198 H 0.05521 0.32329 0.79076 0.0
H199 H 0.01702 0.30327 0.84957 0.0
H200 H 0.95396 0.27763 0.48834 0.0
H201 H 0.9161 0.26251 0.54725 0.0
H202 H 0.00837 0.31638 0.47687 0.0
H203 H 0.04948 0.33496 0.5269 0.0
C204 C 0.67921 0.97771 0.06967 0.0
C205 C 0.66491 0.96111 0.99837 0.0
C206 C 0.69967 0.01888 0.93435 0.0
C207 C 0.70298 0.0356 0.0059 0.0
N208 N 0.71708 0.03401 0.13788 0.0
N209 N 0.67967 0.96243 0.86573 0.0
C210 C 0.70039 0.016 0.07276 0.0
C211 C 0.68174 0.98055 0.93116 0.0
N212 N 0.67008 0.95679 0.13359 0.0
N213 N 0.71102 0.03977 0.87034 0.0
H214 H 0.66844 0.93441 0.86541 0.0
H215 H 0.69214 0.9751 0.81487 0.0
H216 H 0.72483 0.06796 0.87411 0.0
H217 H 0.70649 0.02949 0.81513 0.0
H218 H 0.67663 0.96703 0.18875 0.0
H219 H 0.65542 0.92863 0.12986 0.0
H220 H 0.71688 0.02127 0.1886 0.0
H221 H 0.73423 0.06197 0.13804 0.0
C222 C 0.6902 0.68281 0.40778 0.0
C223 C 0.69674 0.66916 0.33972 0.0
C224 C 0.67132 0.69885 0.26472 0.0
C225 C 0.65495 0.70186 0.33249 0.0
N226 N 0.66603 0.71819 0.46513 0.0
N227 N 0.71394 0.68344 0.2082 0.0
C228 C 0.67046 0.70139 0.40345 0.0
C229 C 0.69449 0.68401 0.26927 0.0
N230 N 0.70101 0.67581 0.47569 0.0
N231 N 0.66283 0.7083 0.19681 0.0
H232 H 0.73296 0.67508 0.21362 0.0
H233 H 0.71423 0.69473 0.15544 0.0
H234 H 0.64719 0.7208 0.19462 0.0
H235 H 0.67078 0.70358 0.14396 0.0
H236 H 0.69417 0.68164 0.52864 0.0
H237 H 0.71685 0.66351 0.47767 0.0
H238 H 0.67746 0.71955 0.5183 0.0
H239 H 0.65423 0.73434 0.46017 0.0
C240 C 0.99108 0.68399 0.61105 0.0
C241 C 0.97218 0.67019 0.68057 0.0
C242 C 0.0286 0.70103 0.75111 0.0
C243 C 0.04694 0.70448 0.68154 0.0
N244 N 0.04946 0.72034 0.54916 0.0
N245 N 0.9713 0.68428 0.81305 0.0
C246 C 0.02948 0.7034 0.61228 0.0
C247 C 0.9904 0.68534 0.74988 0.0
N248 N 0.97203 0.6764 0.54466 0.0
N249 N 0.04774 0.71078 0.81755 0.0
H250 H 0.94371 0.67537 0.81027 0.0
H251 H 0.98314 0.69577 0.86512 0.0
H252 H 0.07595 0.72375 0.81738 0.0
H253 H 0.036 0.70579 0.87146 0.0
H254 H 0.98379 0.68233 0.49073 0.0
H255 H 0.94382 0.66352 0.54488 0.0
H256 H 0.03829 0.72133 0.49711 0.0
H257 H 0.07746 0.73692 0.55192 0.0
C258 C 0.29653 0.98318 0.06402 0.0
C259 C 0.29479 0.96359 0.99775 0.0
C260 C 0.31652 0.01856 0.92238 0.0
C261 C 0.3325 0.0381 0.98994 0.0
N262 N 0.32627 0.04234 0.1248 0.0
N263 N 0.28843 0.95933 0.86183 0.0
C264 C 0.31764 0.02147 0.06094 0.0
C265 C 0.29886 0.98024 0.9258 0.0
N266 N 0.2791 0.96519 0.12866 0.0
N267 N 0.31921 0.03658 0.85639 0.0
H268 H 0.27474 0.93115 0.8657 0.0
H269 H 0.29359 0.9696 0.80656 0.0
H270 H 0.33026 0.06457 0.85569 0.0
H271 H 0.30737 0.02382 0.80521 0.0
H272 H 0.2786 0.97798 0.17877 0.0
H273 H 0.26198 0.93722 0.12876 0.0
H274 H 0.31942 0.03206 0.1799 0.0
H275 H 0.34093 0.0705 0.12107 0.0
C276 C 0.22192 0.45891 0.94995 0.0
C277 C 0.18804 0.4273 0.938 0.0
C278 C 0.20731 0.39243 0.01643 0.0
C279 C 0.23946 0.42494 0.03498 0.0
N280 N 0.27376 0.49023 0.03244 0.0
N281 N 0.14638 0.36458 0.96535 0.0
C282 C 0.24586 0.4585 0.00521 0.0
C283 C 0.18015 0.3941 0.97246 0.0
N284 N 0.23186 0.48904 0.90653 0.0
N285 N 0.20323 0.36 0.03907 0.0
H286 H 0.12603 0.36482 0.93299 0.0
H287 H 0.13769 0.34072 0.99577 0.0
H288 H 0.22256 0.35791 0.07151 0.0
H289 H 0.18218 0.33516 0.02083 0.0
H290 H 0.25779 0.5115 0.90731 0.0
H291 H 0.21549 0.49024 0.86387 0.0
H292 H 0.27716 0.51545 0.01864 0.0
H293 H 0.29141 0.49144 0.07488 0.0
C294 C 0.78045 0.25422 0.34933 0.0
C295 C 0.80303 0.24538 0.39256 0.0
C296 C 0.77202 0.18407 0.33921 0.0
C297 C 0.7511 0.19383 0.29267 0.0
N298 N 0.74116 0.24024 0.23994 0.0
N299 N 0.82473 0.20433 0.42037 0.0
C300 C 0.75707 0.22955 0.29368 0.0
C301 C 0.80009 0.21095 0.38515 0.0
N302 N 0.77987 0.28534 0.36413 0.0
N303 N 0.76418 0.14892 0.34153 0.0
H304 H 0.84556 0.22342 0.45443 0.0
H305 H 0.82637 0.18115 0.41108 0.0
H306 H 0.74421 0.12873 0.3077 0.0
H307 H 0.77565 0.13922 0.38053 0.0
H308 H 0.76101 0.29112 0.34033 0.0
H309 H 0.79587 0.3039 0.40574 0.0
H310 H 0.74758 0.26699 0.23278 0.0
H311 H 0.72419 0.22306 0.19742 0.0
C312 C 0.54181 0.79928 0.65642 0.0
C313 C 0.55167 0.79532 0.73145 0.0
C314 C 0.566 0.74968 0.68653 0.0
C315 C 0.55111 0.74982 0.61424 0.0
N316 N 0.52091 0.7719 0.53227 0.0
N317 N 0.57137 0.76584 0.82052 0.0
C318 C 0.53843 0.77423 0.59914 0.0
C319 C 0.56346 0.77037 0.74722 0.0
N320 N 0.53548 0.82689 0.64007 0.0
N321 N 0.58348 0.73055 0.69637 0.0
H322 H 0.57134 0.78169 0.86576 0.0
H323 H 0.5759 0.74508 0.83734 0.0
H324 H 0.58652 0.71578 0.65253 0.0
H325 H 0.59789 0.73201 0.74538 0.0
H326 H 0.532 0.8336 0.58485 0.0
H327 H 0.53681 0.84518 0.68113 0.0
H328 H 0.50738 0.78604 0.52188 0.0
H329 H 0.51713 0.75356 0.48916 0.0
C330 C 0.78761 0.60523 0.03208 0.0
C331 C 0.76082 0.57164 0.06273 0.0
C332 C 0.78578 0.54017 0.99072 0.0
C333 C 0.81456 0.57391 0.96548 0.0
N334 N 0.84592 0.63898 0.96927 0.0
N335 N 0.73956 0.50843 0.08577 0.0
C336 C 0.81634 0.60664 0.98804 0.0
C337 C 0.76138 0.53947 0.04624 0.0
N338 N 0.78491 0.63544 0.04294 0.0
N339 N 0.78062 0.50869 0.95907 0.0
H340 H 0.7219 0.50689 0.12859 0.0
H341 H 0.7417 0.48527 0.08171 0.0
H342 H 0.79706 0.50783 0.91614 0.0
H343 H 0.75781 0.48366 0.9696 0.0
H344 H 0.8013 0.65989 0.01537 0.0
H345 H 0.7644 0.63537 0.07534 0.0
H346 H 0.85065 0.66369 0.99062 0.0
H347 H 0.86727 0.64091 0.93677 0.0
C348 C 0.19927 0.7977 0.40122 0.0
C349 C 0.18681 0.76034 0.39122 0.0
C350 C 0.22499 0.77382 0.27762 0.0
C351 C 0.2404 0.81126 0.29279 0.0
N352 N 0.24479 0.85952 0.37131 0.0
N353 N 0.19221 0.71303 0.32797 0.0
C354 C 0.22824 0.82342 0.35527 0.0
C355 C 0.20052 0.74835 0.33107 0.0
N356 N 0.18262 0.80842 0.45309 0.0
N357 N 0.23395 0.76254 0.21242 0.0
H358 H 0.17529 0.6935 0.36711 0.0
H359 H 0.20471 0.70362 0.29092 0.0
H360 H 0.2531 0.78021 0.17348 0.0
H361 H 0.22036 0.73583 0.1938 0.0
H362 H 0.18794 0.8349 0.45808 0.0
H363 H 0.16112 0.79021 0.48706 0.0
H364 H 0.24015 0.86991 0.42099 0.0
H365 H 0.2649 0.87918 0.33674 0.0
C366 C 0.45654 0.22019 0.70064 0.0
C367 C 0.44055 0.18261 0.68554 0.0
C368 C 0.4301 0.19265 0.55237 0.0
C369 C 0.44498 0.22991 0.56838 0.0
N370 N 0.46512 0.27819 0.66002 0.0
N371 N 0.40537 0.13191 0.60274 0.0
C372 C 0.45569 0.2433 0.64345 0.0
C373 C 0.42529 0.16848 0.61296 0.0
N374 N 0.47471 0.23427 0.76749 0.0
N375 N 0.42148 0.18059 0.47895 0.0
H376 H 0.40086 0.11351 0.64637 0.0
H377 H 0.39064 0.11981 0.55351 0.0
H378 H 0.42334 0.19736 0.43381 0.0
H379 H 0.41454 0.15458 0.46191 0.0
H380 H 0.49046 0.26188 0.7778 0.0
H381 H 0.47682 0.21862 0.81056 0.0
H382 H 0.46935 0.28838 0.71533 0.0
H383 H 0.46563 0.29616 0.6191 0.0
C384 C 0.21675 0.46886 0.50937 0.0
C385 C 0.18713 0.43579 0.53477 0.0
C386 C 0.21463 0.40246 0.48043 0.0
C387 C 0.24251 0.43527 0.44928 0.0
N388 N 0.26717 0.49867 0.42213 0.0
N389 N 0.15507 0.37071 0.53849 0.0
C390 C 0.24265 0.46818 0.46002 0.0
C391 C 0.18527 0.40239 0.51873 0.0
N392 N 0.22094 0.50092 0.53505 0.0
N393 N 0.21655 0.37158 0.47415 0.0
H394 H 0.13341 0.36979 0.56796 0.0
H395 H 0.1503 0.34538 0.52138 0.0
H396 H 0.237 0.37044 0.44397 0.0
H397 H 0.19927 0.34767 0.50262 0.0
H398 H 0.2439 0.52584 0.52466 0.0
H399 H 0.20311 0.50241 0.57341 0.0
H400 H 0.26607 0.52246 0.42138 0.0
H401 H 0.2868 0.49935 0.38577 0.0
C402 C 0.80047 0.22517 0.8457 0.0
C403 C 0.7938 0.25169 0.81347 0.0
C404 C 0.73113 0.21889 0.85854 0.0
C405 C 0.73842 0.19354 0.8949 0.0
N406 N 0.78011 0.17327 0.92908 0.0
N407 N 0.75511 0.27703 0.79558 0.0
C408 C 0.77321 0.19701 0.89055 0.0
C409 C 0.75971 0.24941 0.82145 0.0
N410 N 0.83235 0.22611 0.8305 0.0
N411 N 0.69679 0.21354 0.8588 0.0
H412 H 0.7752 0.29937 0.76653 0.0
H413 H 0.73242 0.27924 0.80713 0.0
H414 H 0.67549 0.19247 0.88829 0.0
H415 H 0.68867 0.22856 0.8262 0.0
H416 H 0.83752 0.20552 0.84482 0.0
H417 H 0.85305 0.2465 0.79834 0.0
H418 H 0.80587 0.17686 0.93624 0.0
H419 H 0.76026 0.15061 0.95771 0.0
C420 C 0.5769 0.8079 0.14485 0.0
C421 C 0.54607 0.80162 0.10211 0.0
C422 C 0.51202 0.74007 0.15212 0.0
C423 C 0.54336 0.74556 0.19139 0.0
N424 N 0.60718 0.78213 0.21647 0.0
N425 N 0.48707 0.76002 0.05194 0.0
C426 C 0.57629 0.77881 0.18546 0.0
C427 C 0.51452 0.76708 0.1014 0.0
N428 N 0.60668 0.84173 0.14682 0.0
N429 N 0.47949 0.70981 0.16623 0.0
H430 H 0.48805 0.77926 0.01414 0.0
H431 H 0.46497 0.73431 0.0433 0.0
H432 H 0.47645 0.69017 0.2054 0.0
H433 H 0.45501 0.70591 0.14522 0.0
H434 H 0.6282 0.84926 0.18419 0.0
H435 H 0.60918 0.86303 0.1133 0.0
H436 H 0.6328 0.80423 0.20713 0.0
H437 H 0.60765 0.7615 0.24732 0.0
C438 C 0.74879 0.52929 0.49712 0.0
C439 C 0.75259 0.56203 0.46866 0.0
C440 C 0.8141 0.59561 0.51978 0.0
C441 C 0.80887 0.56329 0.5541 0.0
N442 N 0.76954 0.50059 0.58682 0.0
N443 N 0.78658 0.62696 0.45899 0.0
C444 C 0.77564 0.53048 0.54635 0.0
C445 C 0.78468 0.59543 0.48151 0.0
N446 N 0.72031 0.49695 0.47431 0.0
N447 N 0.84726 0.62625 0.52316 0.0
H448 H 0.76572 0.62771 0.42968 0.0
H449 H 0.80763 0.65245 0.47375 0.0
H450 H 0.86896 0.62764 0.55334 0.0
H451 H 0.85402 0.6496 0.49234 0.0
H452 H 0.71799 0.47208 0.48695 0.0
H453 H 0.70081 0.49505 0.43599 0.0
H454 H 0.74443 0.4771 0.58978 0.0
H455 H 0.7887 0.50021 0.62296 0.0
C456 C 0.23802 0.74956 0.81804 0.0
C457 C 0.2043 0.74791 0.80842 0.0
C458 C 0.22535 0.80325 0.88328 0.0
C459 C 0.25971 0.80588 0.88993 0.0
N460 N 0.30068 0.7845 0.85796 0.0
N461 N 0.16661 0.77467 0.82167 0.0
C462 C 0.26664 0.7799 0.85549 0.0
C463 C 0.19808 0.77509 0.83855 0.0
N464 N 0.24225 0.72157 0.79315 0.0
N465 N 0.21884 0.82774 0.9197 0.0
H466 H 0.14584 0.75421 0.78979 0.0
H467 H 0.16182 0.79567 0.83436 0.0
H468 H 0.2388 0.85042 0.94805 0.0
H469 H 0.19329 0.82485 0.92532 0.0
H470 H 0.26455 0.71887 0.80581 0.0
H471 H 0.22222 0.69951 0.76337 0.0
H472 H 0.30867 0.76893 0.82703 0.0
H473 H 0.32192 0.80547 0.88772 0.0
C474 C 0.42077 0.18931 0.14752 0.0
C475 C 0.45163 0.19599 0.10428 0.0
C476 C 0.48533 0.25735 0.1555 0.0
C477 C 0.45379 0.25163 0.19421 0.0
N478 N 0.38999 0.21449 0.21923 0.0
N479 N 0.51088 0.23795 0.05558 0.0
C480 C 0.42106 0.21817 0.18836 0.0
C481 C 0.48316 0.23057 0.10452 0.0
N482 N 0.39121 0.15533 0.1495 0.0
N483 N 0.51774 0.28764 0.17029 0.0
H484 H 0.51024 0.21886 0.01783 0.0
H485 H 0.53296 0.26373 0.04746 0.0
H486 H 0.52049 0.30706 0.20977 0.0
H487 H 0.54235 0.29174 0.14968 0.0
H488 H 0.36974 0.14755 0.18721 0.0
H489 H 0.38888 0.13417 0.11583 0.0
H490 H 0.36449 0.19224 0.20973 0.0
H491 H 0.3892 0.23494 0.2501 0.0
C492 C 0.41392 0.5536 0.2447 0.0
C493 C 0.38892 0.53107 0.30098 0.0
C494 C 0.428 0.57196 0.40097 0.0
C495 C 0.45109 0.59635 0.34428 0.0
N496 N 0.46096 0.61383 0.21197 0.0
N497 N 0.36801 0.5233 0.43089 0.0
C498 C 0.44263 0.58813 0.266 0.0
C499 C 0.39476 0.54152 0.3787 0.0
N500 N 0.41122 0.54159 0.17139 0.0
N501 N 0.43841 0.57678 0.47578 0.0
H502 H 0.34287 0.502 0.41537 0.0
H503 H 0.36937 0.53183 0.48707 0.0
H504 H 0.46305 0.598 0.49471 0.0
H505 H 0.42419 0.55768 0.51795 0.0
H506 H 0.43104 0.55547 0.13028 0.0
H507 H 0.39102 0.5162 0.15329 0.0
H508 H 0.45363 0.61068 0.15462 0.0
H509 H 0.48097 0.63976 0.2264 0.0
C510 C 0.85756 0.44355 0.76208 0.0
C511 C 0.85721 0.46722 0.70566 0.0
C512 C 0.85527 0.42636 0.60553 0.0
C513 C 0.85219 0.40118 0.662 0.0
N514 N 0.84102 0.38209 0.79324 0.0
N515 N 0.84571 0.47601 0.57524 0.0
C516 C 0.85065 0.40869 0.74017 0.0
C517 C 0.85322 0.45717 0.62772 0.0
N518 N 0.86592 0.45473 0.83607 0.0
N519 N 0.86164 0.42181 0.53107 0.0
H520 H 0.84171 0.49715 0.59096 0.0
H521 H 0.83919 0.46793 0.51864 0.0
H522 H 0.86427 0.40013 0.51217 0.0
H523 H 0.86782 0.44144 0.48939 0.0
H524 H 0.8702 0.43981 0.87755 0.0
H525 H 0.87205 0.48035 0.85458 0.0
H526 H 0.83617 0.38502 0.85031 0.0
H527 H 0.83384 0.35582 0.7781 0.0
C528 C 0.43158 0.8381 0.99319 0.0
C529 C 0.46349 0.87128 0.97636 0.0
C530 C 0.43629 0.90428 0.03354 0.0
C531 C 0.40284 0.87159 0.04068 0.0
N532 N 0.36687 0.80786 0.012 0.0
N533 N 0.49179 0.9362 0.96229 0.0
C534 C 0.39991 0.83854 0.01643 0.0
C535 C 0.46465 0.90449 0.99143 0.0
N536 N 0.43166 0.80624 0.99001 0.0
N537 N 0.44159 0.93501 0.06911 0.0
H538 H 0.51189 0.93757 0.92643 0.0
H539 H 0.4918 0.96054 0.9661 0.0
H540 H 0.42218 0.93574 0.10392 0.0
H541 H 0.46668 0.95861 0.07119 0.0
H542 H 0.41024 0.78187 0.00955 0.0
H543 H 0.45439 0.80467 0.9752 0.0
H544 H 0.36302 0.78408 0.98701 0.0
H545 H 0.34277 0.80709 0.0257 0.0
C546 C 0.58262 0.44429 0.2547 0.0
C547 C 0.60576 0.46684 0.31346 0.0
C548 C 0.56349 0.42565 0.40944 0.0
C549 C 0.54249 0.40121 0.35084 0.0
N550 N 0.53695 0.38395 0.21864 0.0
N551 N 0.62208 0.47455 0.44643 0.0
C552 C 0.55344 0.4096 0.27366 0.0
C553 C 0.59729 0.45627 0.39082 0.0
N554 N 0.58734 0.45649 0.18115 0.0
N555 N 0.55056 0.4207 0.48242 0.0
H556 H 0.64749 0.49617 0.43401 0.0
H557 H 0.61891 0.46588 0.50291 0.0
H558 H 0.52542 0.39933 0.49854 0.0
H559 H 0.56318 0.43985 0.52535 0.0
H560 H 0.56888 0.4425 0.13782 0.0
H561 H 0.60763 0.48215 0.16466 0.0
H562 H 0.54614 0.38726 0.16255 0.0
H563 H 0.5165 0.35797 0.23151 0.0
C564 C 0.13833 0.5735 0.59326 0.0
C565 C 0.14339 0.59871 0.65131 0.0
C566 C 0.13949 0.55569 0.74832 0.0
C567 C 0.13824 0.53204 0.68994 0.0
N568 N 0.14532 0.52295 0.55685 0.0
N569 N 0.15739 0.61719 0.78243 0.0
C570 C 0.14013 0.5422 0.61232 0.0
C571 C 0.14645 0.59079 0.72847 0.0
N572 N 0.13033 0.57853 0.52038 0.0
N573 N 0.1324 0.54422 0.82238 0.0
H574 H 0.16428 0.64354 0.7687 0.0
H575 H 0.16346 0.61397 0.83842 0.0
H576 H 0.12587 0.51829 0.83949 0.0
H577 H 0.12937 0.5592 0.86563 0.0
H578 H 0.12257 0.55893 0.47802 0.0
H579 H 0.12798 0.60069 0.50383 0.0
H580 H 0.15057 0.53116 0.50006 0.0
H581 H 0.14843 0.50098 0.56961 0.0
C582 C 0.59709 0.16024 0.01283 0.0
C583 C 0.59371 0.12689 0.03629 0.0
C584 C 0.53253 0.09477 0.98379 0.0
C585 C 0.5339 0.12819 0.97034 0.0
N586 N 0.56599 0.19314 0.98659 0.0
N587 N 0.55448 0.06314 0.06105 0.0
C588 C 0.56577 0.16112 0.98882 0.0
C589 C 0.56034 0.09434 0.02675 0.0
N590 N 0.63027 0.19082 0.01 0.0
N591 N 0.5057 0.0635 0.95251 0.0
H592 H 0.57336 0.06186 0.09659 0.0
H593 H 0.52933 0.03956 0.06132 0.0
H594 H 0.48609 0.06271 0.91597 0.0
H595 H 0.50558 0.03908 0.95527 0.0
H596 H 0.6345 0.21488 0.98569 0.0
H597 H 0.65417 0.19129 0.02408 0.0
H598 H 0.58729 0.2172 0.0076 0.0
H599 H 0.54362 0.19514 0.97089 0.0
loop_
_geom_bond_atom_site_label_1
_geom_bond_atom_site_label_2
_geom_bond_distance
_geom_bond_site_symmetry_2
_ccdc_geom_bond_type
Mg0 O1 2.028 . S
Mg0 O7 1.986 . S
Mg0 O9 2.114 . S
Mg0 O10 2.251 . S
Mg0 O13 2.010 . S
O1 Mg0 2.028 . S
O1 C4 1.250 . S
O2 Mg3 2.028 . S
O2 C4 1.248 . S
Mg3 O2 2.028 . S
Mg3 O8 2.032 . S
Mg3 O10 2.079 . S
C4 O1 1.250 . S
C4 O2 1.248 . S
C5 O6 1.264 . S
C5 O13 1.249 . S
O6 C5 1.264 . S
O7 Mg0 1.986 . S
O7 C11 1.246 . S
O8 Mg3 2.032 . S
O8 C11 1.259 . S
O9 Mg0 2.114 . S
O9 C12 1.252 . S
O10 Mg0 2.251 . S
O10 Mg3 2.079 . S
O10 C12 1.273 . S
C11 O7 1.246 . S
C11 O8 1.259 . S
C12 O9 1.252 . S
C12 O10 1.273 . S
O13 Mg0 2.010 . S
O13 C5 1.249 . S
Mg14 O15 2.028 . S
Mg14 O21 1.986 . S
Mg14 O23 2.114 . S
Mg14 O24 2.251 . S
Mg14 O27 2.010 . S
O15 Mg14 2.028 . S
O15 C18 1.250 . S
O16 Mg17 2.028 . S
O16 C18 1.248 . S
Mg17 O16 2.028 . S
Mg17 O22 2.032 . S
Mg17 O24 2.079 . S
C18 O15 1.250 . S
C18 O16 1.248 . S
C19 O20 1.264 . S
C19 O27 1.249 . S
O20 C19 1.264 . S
O21 Mg14 1.986 . S
O21 C25 1.246 . S
O22 Mg17 2.032 . S
O22 C25 1.259 . S
O23 Mg14 2.114 . S
O23 C26 1.252 . S
O24 Mg14 2.251 . S
O24 Mg17 2.079 . S
O24 C26 1.273 . S
C25 O21 1.246 . S
C25 O22 1.259 . S
C26 O23 1.252 . S
C26 O24 1.273 . S
O27 Mg14 2.010 . S
O27 C19 1.249 . S
Mg28 O29 2.028 . S
Mg28 O35 1.986 . S
Mg28 O37 2.114 . S
Mg28 O38 2.251 1_556 S
Mg28 O41 2.010 . S
O29 Mg28 2.028 . S
O29 C32 1.250 1_556 S
O30 Mg31 2.028 . S
O30 C32 1.248 . S
Mg31 O30 2.028 . S
Mg31 O36 2.032 . S
Mg31 O38 2.079 . S
C32 O29 1.250 1_554 S
C32 O30 1.248 . S
C33 O34 1.264 . S
C33 O41 1.249 . S
O34 C33 1.264 . S
O35 Mg28 1.986 . S
O35 C39 1.246 . S
O36 Mg31 2.032 . S
O36 C39 1.259 1_554 S
O37 Mg28 2.114 . S
O37 C40 1.252 . S
O38 Mg28 2.251 1_554 S
O38 Mg31 2.079 . S
O38 C40 1.273 1_554 S
C39 O35 1.246 . S
C39 O36 1.259 1_556 S
C40 O37 1.252 . S
C40 O38 1.273 1_556 S
O41 Mg28 2.010 . S
O41 C33 1.249 . S
Mg42 O43 2.028 . S
Mg42 O49 1.986 . S
Mg42 O51 2.114 . S
Mg42 O52 2.251 . S
Mg42 O55 2.010 . S
O43 Mg42 2.028 . S
O43 C46 1.250 . S
O44 Mg45 2.028 . S
O44 C46 1.248 . S
Mg45 O44 2.028 . S
Mg45 O50 2.032 . S
Mg45 O52 2.079 . S
C46 O43 1.250 . S
C46 O44 1.248 . S
C47 O48 1.264 . S
C47 O55 1.249 . S
O48 C47 1.264 . S
O49 Mg42 1.986 . S
O49 C53 1.246 . S
O50 Mg45 2.032 . S
O50 C53 1.259 . S
O51 Mg42 2.114 . S
O51 C54 1.252 . S
O52 Mg42 2.251 . S
O52 Mg45 2.079 . S
O52 C54 1.273 . S
C53 O49 1.246 . S
C53 O50 1.259 . S
C54 O51 1.252 . S
C54 O52 1.273 . S
O55 Mg42 2.010 . S
O55 C47 1.249 . S
Mg56 O57 2.028 . S
Mg56 O63 1.986 . S
Mg56 O65 2.114 . S
Mg56 O66 2.251 . S
Mg56 O69 2.010 . S
O57 Mg56 2.028 . S
O57 C60 1.250 . S
O58 Mg59 2.028 . S
O58 C60 1.248 . S
Mg59 O58 2.028 . S
Mg59 O64 2.032 . S
Mg59 O66 2.079 . S
C60 O57 1.250 . S
C60 O58 1.248 . S
C61 O62 1.264 . S
C61 O69 1.249 . S
O62 C61 1.264 . S
O63 Mg56 1.986 . S
O63 C67 1.246 . S
O64 Mg59 2.032 . S
O64 C67 1.259 . S
O65 Mg56 2.114 . S
O65 C68 1.252 . S
O66 Mg56 2.251 . S
O66 Mg59 2.079 . S
O66 C68 1.273 . S
C67 O63 1.246 . S
C67 O64 1.259 . S
C68 O65 1.252 . S
C68 O66 1.273 . S
O69 Mg56 2.010 . S
O69 C61 1.249 . S
Mg70 O71 2.028 . S
Mg70 O77 1.986 . S
Mg70 O79 2.114 . S
Mg70 O80 2.251 1_556 S
Mg70 O83 2.010 . S
O71 Mg70 2.028 . S
O71 C74 1.250 1_556 S
O72 Mg73 2.028 . S
O72 C74 1.248 . S
Mg73 O72 2.028 . S
Mg73 O78 2.032 . S
Mg73 O80 2.079 . S
C74 O71 1.250 1_554 S
C74 O72 1.248 . S
C75 O76 1.264 . S
C75 O83 1.249 . S
O76 C75 1.264 . S
O77 Mg70 1.986 . S
O77 C81 1.246 . S
O78 Mg73 2.032 . S
O78 C81 1.259 1_554 S
O79 Mg70 2.114 . S
O79 C82 1.252 . S
O80 Mg70 2.251 1_554 S
O80 Mg73 2.079 . S
O80 C82 1.273 1_554 S
C81 O77 1.246 . S
C81 O78 1.259 1_556 S
C82 O79 1.252 . S
C82 O80 1.273 1_556 S
O83 Mg70 2.010 . S
O83 C75 1.249 . S
Mg84 O85 2.028 . S
Mg84 O91 1.986 . S
Mg84 O93 2.114 . S
Mg84 O94 2.251 . S
Mg84 O97 2.010 . S
O85 Mg84 2.028 . S
O85 C88 1.250 . S
O86 Mg87 2.028 . S
O86 C88 1.248 . S
Mg87 O86 2.028 . S
Mg87 O92 2.032 . S
Mg87 O94 2.079 . S
C88 O85 1.250 . S
C88 O86 1.248 . S
C89 O90 1.264 . S
C89 O97 1.249 . S
O90 C89 1.264 . S
O91 Mg84 1.986 . S
O91 C95 1.246 . S
O92 Mg87 2.032 . S
O92 C95 1.259 . S
O93 Mg84 2.114 . S
O93 C96 1.252 . S
O94 Mg84 2.251 . S
O94 Mg87 2.079 . S
O94 C96 1.273 . S
C95 O91 1.246 . S
C95 O92 1.259 . S
C96 O93 1.252 . S
C96 O94 1.273 . S
O97 Mg84 2.010 . S
O97 C89 1.249 . S
Mg98 O99 2.028 . S
Mg98 O105 1.986 . S
Mg98 O107 2.114 . S
Mg98 O108 2.251 . S
Mg98 O111 2.010 . S
O99 Mg98 2.028 . S
O99 C102 1.250 . S
O100 Mg101 2.028 . S
O100 C102 1.248 . S
Mg101 O100 2.028 . S
Mg101 O106 2.032 . S
Mg101 O108 2.079 . S
C102 O99 1.250 . S
C102 O100 1.248 . S
C103 O104 1.264 . S
C103 O111 1.249 . S
O104 C103 1.264 . S
O105 Mg98 1.986 . S
O105 C109 1.246 . S
O106 Mg101 2.032 . S
O106 C109 1.259 . S
O107 Mg98 2.114 . S
O107 C110 1.252 . S
O108 Mg98 2.251 . S
O108 Mg101 2.079 . S
O108 C110 1.273 . S
C109 O105 1.246 . S
C109 O106 1.259 . S
C110 O107 1.252 . S
C110 O108 1.273 . S
O111 Mg98 2.010 . S
O111 C103 1.249 . S
Mg112 O113 2.028 . S
Mg112 O119 1.986 . S
Mg112 O121 2.114 . S
Mg112 O122 2.251 1_554 S
Mg112 O125 2.010 . S
O113 Mg112 2.028 . S
O113 C116 1.250 1_554 S
O114 Mg115 2.028 . S
O114 C116 1.248 . S
Mg115 O114 2.028 . S
Mg115 O120 2.032 . S
Mg115 O122 2.079 . S
C116 O113 1.250 1_556 S
C116 O114 1.248 . S
C117 O118 1.264 . S
C117 O125 1.249 . S
O118 C117 1.264 . S
O119 Mg112 1.986 . S
O119 C123 1.246 . S
O120 Mg115 2.032 . S
O120 C123 1.259 1_556 S
O121 Mg112 2.114 . S
O121 C124 1.252 . S
O122 Mg112 2.251 1_556 S
O122 Mg115 2.079 . S
O122 C124 1.273 1_556 S
C123 O119 1.246 . S
C123 O120 1.259 1_554 S
C124 O121 1.252 . S
C124 O122 1.273 1_554 S
O125 Mg112 2.010 . S
O125 C117 1.249 . S
Mg126 O127 2.028 . S
Mg126 O133 1.986 . S
Mg126 O135 2.114 . S
Mg126 O136 2.251 . S
Mg126 O139 2.010 . S
O127 Mg126 2.028 . S
O127 C130 1.250 . S
O128 Mg129 2.028 . S
O128 C130 1.248 . S
Mg129 O128 2.028 . S
Mg129 O134 2.032 . S
Mg129 O136 2.079 . S
C130 O127 1.250 . S
C130 O128 1.248 . S
C131 O132 1.264 . S
C131 O139 1.249 . S
O132 C131 1.264 . S
O133 Mg126 1.986 . S
O133 C137 1.246 . S
O134 Mg129 2.032 . S
O134 C137 1.259 . S
O135 Mg126 2.114 . S
O135 C138 1.252 . S
O136 Mg126 2.251 . S
O136 Mg129 2.079 . S
O136 C138 1.273 . S
C137 O133 1.246 . S
C137 O134 1.259 . S
C138 O135 1.252 . S
C138 O136 1.273 . S
O139 Mg126 2.010 . S
O139 C131 1.249 . S
Mg140 O141 2.028 . S
Mg140 O147 1.986 . S
Mg140 O149 2.114 . S
Mg140 O150 2.251 . S
Mg140 O153 2.010 . S
O141 Mg140 2.028 . S
O141 C144 1.250 . S
O142 Mg143 2.028 . S
O142 C144 1.248 . S
Mg143 O142 2.028 . S
Mg143 O148 2.032 . S
Mg143 O150 2.079 . S
C144 O141 1.250 . S
C144 O142 1.248 . S
C145 O146 1.264 . S
C145 O153 1.249 . S
O146 C145 1.264 . S
O147 Mg140 1.986 . S
O147 C151 1.246 . S
O148 Mg143 2.032 . S
O148 C151 1.259 . S
O149 Mg140 2.114 . S
O149 C152 1.252 . S
O150 Mg140 2.251 . S
O150 Mg143 2.079 . S
O150 C152 1.273 . S
C151 O147 1.246 . S
C151 O148 1.259 . S
C152 O149 1.252 . S
C152 O150 1.273 . S
O153 Mg140 2.010 . S
O153 C145 1.249 . S
Mg154 O155 2.028 . S
Mg154 O161 1.986 . S
Mg154 O163 2.114 . S
Mg154 O164 2.251 1_554 S
Mg154 O167 2.010 . S
O155 Mg154 2.028 . S
O155 C158 1.250 1_554 S
O156 Mg157 2.028 . S
O156 C158 1.248 . S
Mg157 O156 2.028 . S
Mg157 O162 2.032 . S
Mg157 O164 2.079 . S
C158 O155 1.250 1_556 S
C158 O156 1.248 . S
C159 O160 1.264 . S
C159 O167 1.249 . S
O160 C159 1.264 . S
O161 Mg154 1.986 . S
O161 C165 1.246 . S
O162 Mg157 2.032 . S
O162 C165 1.259 1_556 S
O163 Mg154 2.114 . S
O163 C166 1.252 . S
O164 Mg154 2.251 1_556 S
O164 Mg157 2.079 . S
O164 C166 1.273 1_556 S
C165 O161 1.246 . S
C165 O162 1.259 1_554 S
C166 O163 1.252 . S
C166 O164 1.273 1_554 S
O167 Mg154 2.010 . S
O167 C159 1.249 . S
C168 C169 1.363 . S
C168 C174 1.379 . S
C168 N176 1.356 . S
C169 C168 1.363 . S
C169 C175 1.363 . S
C170 C171 1.363 . S
C170 C175 1.379 . S
C170 N177 1.356 . S
C171 C170 1.363 . S
C171 C174 1.363 . S
N172 C174 1.356 . S
N172 H184 0.984 . S
N172 H185 0.985 . S
N173 C175 1.356 . S
N173 H178 0.984 . S
N173 H179 0.985 . S
C174 C168 1.379 . S
C174 C171 1.363 . S
C174 N172 1.356 . S
C175 C169 1.363 . S
C175 C170 1.379 . S
C175 N173 1.356 . S
N176 C168 1.356 . S
N176 H182 0.984 . S
N176 H183 0.984 . S
N177 C170 1.356 . S
N177 H180 0.984 . S
N177 H181 0.985 . S
H178 N173 0.984 . S
H179 N173 0.985 . S
H180 N177 0.984 . S
H181 N177 0.985 . S
H182 N176 0.984 . S
H183 N176 0.984 . S
H184 N172 0.984 . S
H185 N172 0.985 . S
C186 C187 1.363 . S
C186 C192 1.379 1_655 S
C186 N194 1.356 . S
C187 C186 1.363 . S
C187 C193 1.363 . S
C188 C189 1.363 . S
C188 C193 1.379 1_455 S
C188 N195 1.356 . S
C189 C188 1.363 . S
C189 C192 1.363 . S
N190 C192 1.356 . S
N190 H202 0.984 . S
N190 H203 0.985 . S
N191 C193 1.356 . S
N191 H196 0.984 . S
N191 H197 0.985 . S
C192 C186 1.379 1_455 S
C192 C189 1.363 . S
C192 N190 1.356 . S
C193 C187 1.363 . S
C193 C188 1.379 1_655 S
C193 N191 1.356 . S
N194 C186 1.356 . S
N194 H200 0.984 . S
N194 H201 0.984 . S
N195 C188 1.356 . S
N195 H198 0.984 . S
N195 H199 0.985 . S
H196 N191 0.984 . S
H197 N191 0.985 . S
H198 N195 0.984 . S
H199 N195 0.985 . S
H200 N194 0.984 . S
H201 N194 0.984 . S
H202 N190 0.984 . S
H203 N190 0.985 . S
C204 C205 1.363 1_554 S
C204 C210 1.379 1_565 S
C204 N212 1.356 . S
C205 C204 1.363 1_556 S
C205 C211 1.363 . S
C206 C207 1.363 1_556 S
C206 C211 1.379 1_545 S
C206 N213 1.356 . S
C207 C206 1.363 1_554 S
C207 C210 1.363 . S
N208 C210 1.356 . S
N208 H220 0.984 . S
N208 H221 0.985 . S
N209 C211 1.356 . S
N209 H214 0.984 . S
N209 H215 0.985 . S
C210 C204 1.379 1_545 S
C210 C207 1.363 . S
C210 N208 1.356 . S
C211 C205 1.363 . S
C211 C206 1.379 1_565 S
C211 N209 1.356 . S
N212 C204 1.356 . S
N212 H218 0.984 . S
N212 H219 0.984 . S
N213 C206 1.356 . S
N213 H216 0.984 . S
N213 H217 0.985 . S
H214 N209 0.984 . S
H215 N209 0.985 . S
H216 N213 0.984 . S
H217 N213 0.985 . S
H218 N212 0.984 . S
H219 N212 0.984 . S
H220 N208 0.984 . S
H221 N208 0.985 . S
C222 C223 1.363 . S
C222 C228 1.379 . S
C222 N230 1.356 . S
C223 C222 1.363 . S
C223 C229 1.363 . S
C224 C225 1.363 . S
C224 C229 1.379 . S
C224 N231 1.356 . S
C225 C224 1.363 . S
C225 C228 1.363 . S
N226 C228 1.356 . S
N226 H238 0.984 . S
N226 H239 0.985 . S
N227 C229 1.356 . S
N227 H232 0.984 . S
N227 H233 0.985 . S
C228 C222 1.379 . S
C228 C225 1.363 . S
C228 N226 1.356 . S
C229 C223 1.363 . S
C229 C224 1.379 . S
C229 N227 1.356 . S
N230 C222 1.356 . S
N230 H236 0.984 . S
N230 H237 0.984 . S
N231 C224 1.356 . S
N231 H234 0.984 . S
N231 H235 0.985 . S
H232 N227 0.984 . S
H233 N227 0.985 . S
H234 N231 0.984 . S
H235 N231 0.985 . S
H236 N230 0.984 . S
H237 N230 0.984 . S
H238 N226 0.984 . S
H239 N226 0.985 . S
C240 C241 1.363 . S
C240 C246 1.379 1_655 S
C240 N248 1.356 . S
C241 C240 1.363 . S
C241 C247 1.363 . S
C242 C243 1.363 . S
C242 C247 1.379 1_455 S
C242 N249 1.356 . S
C243 C242 1.363 . S
C243 C246 1.363 . S
N244 C246 1.356 . S
N244 H256 0.984 . S
N244 H257 0.985 . S
N245 C247 1.356 . S
N245 H250 0.984 . S
N245 H251 0.985 . S
C246 C240 1.379 1_455 S
C246 C243 1.363 . S
C246 N244 1.356 . S
C247 C241 1.363 . S
C247 C242 1.379 1_655 S
C247 N245 1.356 . S
N248 C240 1.356 . S
N248 H254 0.984 . S
N248 H255 0.984 . S
N249 C242 1.356 . S
N249 H252 0.984 . S
N249 H253 0.985 . S
H250 N245 0.984 . S
H251 N245 0.985 . S
H252 N249 0.984 . S
H253 N249 0.985 . S
H254 N248 0.984 . S
H255 N248 0.984 . S
H256 N244 0.984 . S
H257 N244 0.985 . S
C258 C259 1.363 . S
C258 C264 1.379 1_565 S
C258 N266 1.356 . S
C259 C258 1.363 . S
C259 C265 1.363 1_554 S
C260 C261 1.363 . S
C260 C265 1.379 1_545 S
C260 N267 1.356 . S
C261 C260 1.363 . S
C261 C264 1.363 1_556 S
N262 C264 1.356 . S
N262 H274 0.984 . S
N262 H275 0.985 . S
N263 C265 1.356 . S
N263 H268 0.984 . S
N263 H269 0.985 . S
C264 C258 1.379 1_545 S
C264 C261 1.363 1_554 S
C264 N262 1.356 . S
C265 C259 1.363 1_556 S
C265 C260 1.379 1_565 S
C265 N263 1.356 . S
N266 C258 1.356 . S
N266 H272 0.984 . S
N266 H273 0.984 . S
N267 C260 1.356 . S
N267 H270 0.984 . S
N267 H271 0.985 . S
H268 N263 0.984 . S
H269 N263 0.985 . S
H270 N267 0.984 . S
H271 N267 0.985 . S
H272 N266 0.984 . S
H273 N266 0.984 . S
H274 N262 0.984 . S
H275 N262 0.985 . S
C276 C277 1.363 . S
C276 C282 1.379 1_556 S
C276 N284 1.356 . S
C277 C276 1.363 . S
C277 C283 1.363 . S
C278 C279 1.363 . S
C278 C283 1.379 1_554 S
C278 N285 1.356 . S
C279 C278 1.363 . S
C279 C282 1.363 . S
N280 C282 1.356 . S
N280 H292 0.984 . S
N280 H293 0.985 . S
N281 C283 1.356 . S
N281 H286 0.984 . S
N281 H287 0.985 . S
C282 C276 1.379 1_554 S
C282 C279 1.363 . S
C282 N280 1.356 . S
C283 C277 1.363 . S
C283 C278 1.379 1_556 S
C283 N281 1.356 . S
N284 C276 1.356 . S
N284 H290 0.984 . S
N284 H291 0.984 . S
N285 C278 1.356 . S
N285 H288 0.984 . S
N285 H289 0.985 . S
H286 N281 0.984 . S
H287 N281 0.985 . S
H288 N285 0.984 . S
H289 N285 0.985 . S
H290 N284 0.984 . S
H291 N284 0.984 . S
H292 N280 0.984 . S
H293 N280 0.985 . S
C294 C295 1.363 . S
C294 C300 1.379 . S
C294 N302 1.356 . S
C295 C294 1.363 . S
C295 C301 1.363 . S
C296 C297 1.363 . S
C296 C301 1.379 . S
C296 N303 1.356 . S
C297 C296 1.363 . S
C297 C300 1.363 . S
N298 C300 1.356 . S
N298 H310 0.984 . S
N298 H311 0.985 . S
N299 C301 1.356 . S
N299 H304 0.984 . S
N299 H305 0.985 . S
C300 C294 1.379 . S
C300 C297 1.363 . S
C300 N298 1.356 . S
C301 C295 1.363 . S
C301 C296 1.379 . S
C301 N299 1.356 . S
N302 C294 1.356 . S
N302 H308 0.984 . S
N302 H309 0.984 . S
N303 C296 1.356 . S
N303 H306 0.984 . S
N303 H307 0.985 . S
H304 N299 0.984 . S
H305 N299 0.985 . S
H306 N303 0.984 . S
H307 N303 0.985 . S
H308 N302 0.984 . S
H309 N302 0.984 . S
H310 N298 0.984 . S
H311 N298 0.985 . S
C312 C313 1.363 . S
C312 C318 1.379 . S
C312 N320 1.356 . S
C313 C312 1.363 . S
C313 C319 1.363 . S
C314 C315 1.363 . S
C314 C319 1.379 . S
C314 N321 1.356 . S
C315 C314 1.363 . S
C315 C318 1.363 . S
N316 C318 1.356 . S
N316 H328 0.984 . S
N316 H329 0.985 . S
N317 C319 1.356 . S
N317 H322 0.984 . S
N317 H323 0.985 . S
C318 C312 1.379 . S
C318 C315 1.363 . S
C318 N316 1.356 . S
C319 C313 1.363 . S
C319 C314 1.379 . S
C319 N317 1.356 . S
N320 C312 1.356 . S
N320 H326 0.984 . S
N320 H327 0.984 . S
N321 C314 1.356 . S
N321 H324 0.984 . S
N321 H325 0.985 . S
H322 N317 0.984 . S
H323 N317 0.985 . S
H324 N321 0.984 . S
H325 N321 0.985 . S
H326 N320 0.984 . S
H327 N320 0.984 . S
H328 N316 0.984 . S
H329 N316 0.985 . S
C330 C331 1.363 . S
C330 C336 1.379 1_554 S
C330 N338 1.356 . S
C331 C330 1.363 . S
C331 C337 1.363 . S
C332 C333 1.363 . S
C332 C337 1.379 1_556 S
C332 N339 1.356 . S
C333 C332 1.363 . S
C333 C336 1.363 . S
N334 C336 1.356 . S
N334 H346 0.984 . S
N334 H347 0.985 . S
N335 C337 1.356 . S
N335 H340 0.984 . S
N335 H341 0.985 . S
C336 C330 1.379 1_556 S
C336 C333 1.363 . S
C336 N334 1.356 . S
C337 C331 1.363 . S
C337 C332 1.379 1_554 S
C337 N335 1.356 . S
N338 C330 1.356 . S
N338 H344 0.984 . S
N338 H345 0.984 . S
N339 C332 1.356 . S
N339 H342 0.984 . S
N339 H343 0.985 . S
H340 N335 0.984 . S
H341 N335 0.985 . S
H342 N339 0.984 . S
H343 N339 0.985 . S
H344 N338 0.984 . S
H345 N338 0.984 . S
H346 N334 0.984 . S
H347 N334 0.985 . S
C348 C349 1.363 . S
C348 C354 1.379 . S
C348 N356 1.356 . S
C349 C348 1.363 . S
C349 C355 1.363 . S
C350 C351 1.363 . S
C350 C355 1.379 . S
C350 N357 1.356 . S
C351 C350 1.363 . S
C351 C354 1.363 . S
N352 C354 1.356 . S
N352 H364 0.984 . S
N352 H365 0.985 . S
N353 C355 1.356 . S
N353 H358 0.984 . S
N353 H359 0.985 . S
C354 C348 1.379 . S
C354 C351 1.363 . S
C354 N352 1.356 . S
C355 C349 1.363 . S
C355 C350 1.379 . S
C355 N353 1.356 . S
N356 C348 1.356 . S
N356 H362 0.984 . S
N356 H363 0.984 . S
N357 C350 1.356 . S
N357 H360 0.984 . S
N357 H361 0.985 . S
H358 N353 0.984 . S
H359 N353 0.985 . S
H360 N357 0.984 . S
H361 N357 0.985 . S
H362 N356 0.984 . S
H363 N356 0.984 . S
H364 N352 0.984 . S
H365 N352 0.985 . S
C366 C367 1.363 . S
C366 C372 1.379 . S
C366 N374 1.356 . S
C367 C366 1.363 . S
C367 C373 1.363 . S
C368 C369 1.363 . S
C368 C373 1.379 . S
C368 N375 1.356 . S
C369 C368 1.363 . S
C369 C372 1.363 . S
N370 C372 1.356 . S
N370 H382 0.984 . S
N370 H383 0.985 . S
N371 C373 1.356 . S
N371 H376 0.984 . S
N371 H377 0.985 . S
C372 C366 1.379 . S
C372 C369 1.363 . S
C372 N370 1.356 . S
C373 C367 1.363 . S
C373 C368 1.379 . S
C373 N371 1.356 . S
N374 C366 1.356 . S
N374 H380 0.984 . S
N374 H381 0.984 . S
N375 C368 1.356 . S
N375 H378 0.984 . S
N375 H379 0.985 . S
H376 N371 0.984 . S
H377 N371 0.985 . S
H378 N375 0.984 . S
H379 N375 0.985 . S
H380 N374 0.984 . S
H381 N374 0.984 . S
H382 N370 0.984 . S
H383 N370 0.985 . S
C384 C385 1.363 . S
C384 C390 1.379 . S
C384 N392 1.356 . S
C385 C384 1.363 . S
C385 C391 1.363 . S
C386 C387 1.363 . S
C386 C391 1.379 . S
C386 N393 1.356 . S
C387 C386 1.363 . S
C387 C390 1.363 . S
N388 C390 1.356 . S
N388 H400 0.984 . S
N388 H401 0.985 . S
N389 C391 1.356 . S
N389 H394 0.984 . S
N389 H395 0.985 . S
C390 C384 1.379 . S
C390 C387 1.363 . S
C390 N388 1.356 . S
C391 C385 1.363 . S
C391 C386 1.379 . S
C391 N389 1.356 . S
N392 C384 1.356 . S
N392 H398 0.984 . S
N392 H399 0.984 . S
N393 C386 1.356 . S
N393 H396 0.984 . S
N393 H397 0.985 . S
H394 N389 0.984 . S
H395 N389 0.985 . S
H396 N393 0.984 . S
H397 N393 0.985 . S
H398 N392 0.984 . S
H399 N392 0.984 . S
H400 N388 0.984 . S
H401 N388 0.985 . S
C402 C403 1.363 . S
C402 C408 1.379 . S
C402 N410 1.356 . S
C403 C402 1.363 . S
C403 C409 1.363 . S
C404 C405 1.363 . S
C404 C409 1.379 . S
C404 N411 1.356 . S
C405 C404 1.363 . S
C405 C408 1.363 . S
N406 C408 1.356 . S
N406 H418 0.984 . S
N406 H419 0.985 . S
N407 C409 1.356 . S
N407 H412 0.984 . S
N407 H413 0.985 . S
C408 C402 1.379 . S
C408 C405 1.363 . S
C408 N406 1.356 . S
C409 C403 1.363 . S
C409 C404 1.379 . S
C409 N407 1.356 . S
N410 C402 1.356 . S
N410 H416 0.984 . S
N410 H417 0.984 . S
N411 C404 1.356 . S
N411 H414 0.984 1_556 S
N411 H415 0.985 1_556 S
H412 N407 0.984 . S
H413 N407 0.985 . S
H414 N411 0.984 1_554 S
H415 N411 0.985 1_554 S
H416 N410 0.984 . S
H417 N410 0.984 . S
H418 N406 0.984 . S
H419 N406 0.985 . S
C420 C421 1.363 . S
C420 C426 1.379 . S
C420 N428 1.356 . S
C421 C420 1.363 . S
C421 C427 1.363 . S
C422 C423 1.363 . S
C422 C427 1.379 . S
C422 N429 1.356 . S
C423 C422 1.363 . S
C423 C426 1.363 . S
N424 C426 1.356 . S
N424 H436 0.984 . S
N424 H437 0.985 . S
N425 C427 1.356 . S
N425 H430 0.976 1_554 S
N425 H431 0.985 . S
C426 C420 1.379 . S
C426 C423 1.363 . S
C426 N424 1.356 . S
C427 C421 1.363 . S
C427 C422 1.379 . S
C427 N425 1.356 . S
N428 C420 1.356 . S
N428 H434 0.984 . S
N428 H435 0.984 . S
N429 C422 1.356 . S
N429 H432 0.984 . S
N429 H433 0.985 . S
H430 N425 0.976 1_556 S
H431 N425 0.985 . S
H432 N429 0.984 . S
H433 N429 0.985 . S
H434 N428 0.984 . S
H435 N428 0.984 . S
H436 N424 0.984 . S
H437 N424 0.985 . S
C438 C439 1.363 . S
C438 C444 1.379 . S
C438 N446 1.356 . S
C439 C438 1.363 . S
C439 C445 1.363 . S
C440 C441 1.363 . S
C440 C445 1.379 . S
C440 N447 1.356 . S
C441 C440 1.363 . S
C441 C444 1.363 . S
N442 C444 1.356 . S
N442 H454 0.984 . S
N442 H455 0.985 . S
N443 C445 1.356 . S
N443 H448 0.984 . S
N443 H449 0.985 . S
C444 C438 1.379 . S
C444 C441 1.363 . S
C444 N442 1.356 . S
C445 C439 1.363 . S
C445 C440 1.379 . S
C445 N443 1.356 . S
N446 C438 1.356 . S
N446 H452 0.984 . S
N446 H453 0.984 . S
N447 C440 1.356 . S
N447 H450 0.984 . S
N447 H451 0.985 . S
H448 N443 0.984 . S
H449 N443 0.985 . S
H450 N447 0.984 . S
H451 N447 0.985 . S
H452 N446 0.984 . S
H453 N446 0.984 . S
H454 N442 0.984 . S
H455 N442 0.985 . S
C456 C457 1.363 . S
C456 C462 1.379 . S
C456 N464 1.356 . S
C457 C456 1.363 . S
C457 C463 1.363 . S
C458 C459 1.363 . S
C458 C463 1.379 . S
C458 N465 1.356 . S
C459 C458 1.363 . S
C459 C462 1.363 . S
N460 C462 1.356 . S
N460 H472 0.984 1_556 S
N460 H473 0.985 1_556 S
N461 C463 1.356 . S
N461 H466 0.984 . S
N461 H467 0.985 . S
C462 C456 1.379 . S
C462 C459 1.363 . S
C462 N460 1.356 . S
C463 C457 1.363 . S
C463 C458 1.379 . S
C463 N461 1.356 . S
N464 C456 1.356 . S
N464 H470 0.984 . S
N464 H471 0.984 . S
N465 C458 1.356 . S
N465 H468 0.984 . S
N465 H469 0.985 . S
H466 N461 0.984 . S
H467 N461 0.985 . S
H468 N465 0.984 . S
H469 N465 0.985 . S
H470 N464 0.984 . S
H471 N464 0.984 . S
H472 N460 0.984 1_554 S
H473 N460 0.985 1_554 S
C474 C475 1.363 . S
C474 C480 1.379 . S
C474 N482 1.356 . S
C475 C474 1.363 . S
C475 C481 1.363 . S
C476 C477 1.363 . S
C476 C481 1.379 . S
C476 N483 1.356 . S
C477 C476 1.363 . S
C477 C480 1.363 . S
N478 C480 1.356 . S
N478 H490 0.984 . S
N478 H491 0.985 . S
N479 C481 1.356 . S
N479 H484 0.984 1_554 S
N479 H485 0.985 . S
C480 C474 1.379 . S
C480 C477 1.363 . S
C480 N478 1.356 . S
C481 C475 1.363 . S
C481 C476 1.379 . S
C481 N479 1.356 . S
N482 C474 1.356 . S
N482 H488 0.984 . S
N482 H489 0.984 . S
N483 C476 1.356 . S
N483 H486 0.984 . S
N483 H487 0.985 . S
H484 N479 0.984 1_556 S
H485 N479 0.985 . S
H486 N483 0.984 . S
H487 N483 0.985 . S
H488 N482 0.984 . S
H489 N482 0.984 . S
H490 N478 0.984 . S
H491 N478 0.985 . S
C492 C493 1.363 . S
C492 C498 1.379 . S
C492 N500 1.356 . S
C493 C492 1.363 . S
C493 C499 1.363 . S
C494 C495 1.363 . S
C494 C499 1.379 . S
C494 N501 1.356 . S
C495 C494 1.363 . S
C495 C498 1.363 . S
N496 C498 1.356 . S
N496 H508 0.984 . S
N496 H509 0.985 . S
N497 C499 1.356 . S
N497 H502 0.984 . S
N497 H503 0.985 . S
C498 C492 1.379 . S
C498 C495 1.363 . S
C498 N496 1.356 . S
C499 C493 1.363 . S
C499 C494 1.379 . S
C499 N497 1.356 . S
N500 C492 1.356 . S
N500 H506 0.984 . S
N500 H507 0.984 . S
N501 C494 1.356 . S
N501 H504 0.984 . S
N501 H505 0.985 . S
H502 N497 0.984 . S
H503 N497 0.985 . S
H504 N501 0.984 . S
H505 N501 0.985 . S
H506 N500 0.984 . S
H507 N500 0.984 . S
H508 N496 0.984 . S
H509 N496 0.985 . S
C510 C511 1.363 . S
C510 C516 1.379 . S
C510 N518 1.356 . S
C511 C510 1.363 . S
C511 C517 1.363 . S
C512 C513 1.363 . S
C512 C517 1.379 . S
C512 N519 1.356 . S
C513 C512 1.363 . S
C513 C516 1.363 . S
N514 C516 1.356 . S
N514 H526 0.984 . S
N514 H527 0.985 . S
N515 C517 1.356 . S
N515 H520 0.984 . S
N515 H521 0.985 . S
C516 C510 1.379 . S
C516 C513 1.363 . S
C516 N514 1.356 . S
C517 C511 1.363 . S
C517 C512 1.379 . S
C517 N515 1.356 . S
N518 C510 1.356 . S
N518 H524 0.984 . S
N518 H525 0.984 . S
N519 C512 1.356 . S
N519 H522 0.984 . S
N519 H523 0.985 . S
H520 N515 0.984 . S
H521 N515 0.985 . S
H522 N519 0.984 . S
H523 N519 0.985 . S
H524 N518 0.984 . S
H525 N518 0.984 . S
H526 N514 0.984 . S
H527 N514 0.985 . S
C528 C529 1.363 . S
C528 C534 1.379 . S
C528 N536 1.356 . S
C529 C528 1.363 . S
C529 C535 1.363 1_556 S
C530 C531 1.363 . S
C530 C535 1.379 . S
C530 N537 1.356 . S
C531 C530 1.363 . S
C531 C534 1.363 1_554 S
N532 C534 1.356 . S
N532 H544 0.984 . S
N532 H545 0.985 . S
N533 C535 1.356 . S
N533 H538 0.984 . S
N533 H539 0.985 . S
C534 C528 1.379 . S
C534 C531 1.363 1_556 S
C534 N532 1.356 . S
C535 C529 1.363 1_554 S
C535 C530 1.379 . S
C535 N533 1.356 . S
N536 C528 1.356 . S
N536 H542 0.984 . S
N536 H543 0.984 . S
N537 C530 1.356 . S
N537 H540 0.984 . S
N537 H541 0.985 . S
H538 N533 0.984 . S
H539 N533 0.985 . S
H540 N537 0.984 . S
H541 N537 0.985 . S
H542 N536 0.984 . S
H543 N536 0.984 . S
H544 N532 0.984 . S
H545 N532 0.985 . S
C546 C547 1.363 . S
C546 C552 1.379 . S
C546 N554 1.356 . S
C547 C546 1.363 . S
C547 C553 1.363 . S
C548 C549 1.363 . S
C548 C553 1.379 . S
C548 N555 1.356 . S
C549 C548 1.363 . S
C549 C552 1.363 . S
N550 C552 1.356 . S
N550 H562 0.984 . S
N550 H563 0.985 . S
N551 C553 1.356 . S
N551 H556 0.984 . S
N551 H557 0.985 . S
C552 C546 1.379 . S
C552 C549 1.363 . S
C552 N550 1.356 . S
C553 C547 1.363 . S
C553 C548 1.379 . S
C553 N551 1.356 . S
N554 C546 1.356 . S
N554 H560 0.984 . S
N554 H561 0.984 . S
N555 C548 1.356 . S
N555 H558 0.984 . S
N555 H559 0.985 . S
H556 N551 0.984 . S
H557 N551 0.985 . S
H558 N555 0.984 . S
H559 N555 0.985 . S
H560 N554 0.984 . S
H561 N554 0.984 . S
H562 N550 0.984 . S
H563 N550 0.985 . S
C564 C565 1.363 . S
C564 C570 1.379 . S
C564 N572 1.356 . S
C565 C564 1.363 . S
C565 C571 1.363 . S
C566 C567 1.363 . S
C566 C571 1.379 . S
C566 N573 1.356 . S
C567 C566 1.363 . S
C567 C570 1.363 . S
N568 C570 1.356 . S
N568 H580 0.984 . S
N568 H581 0.985 . S
N569 C571 1.356 . S
N569 H574 0.984 . S
N569 H575 0.985 . S
C570 C564 1.379 . S
C570 C567 1.363 . S
C570 N568 1.356 . S
C571 C565 1.363 . S
C571 C566 1.379 . S
C571 N569 1.356 . S
N572 C564 1.356 . S
N572 H578 0.984 . S
N572 H579 0.984 . S
N573 C566 1.356 . S
N573 H576 0.984 . S
N573 H577 0.985 . S
H574 N569 0.984 . S
H575 N569 0.985 . S
H576 N573 0.984 . S
H577 N573 0.985 . S
H578 N572 0.984 . S
H579 N572 0.984 . S
H580 N568 0.984 . S
H581 N568 0.985 . S
C582 C583 1.363 . S
C582 C588 1.379 . S
C582 N590 1.356 . S
C583 C582 1.363 . S
C583 C589 1.363 1_554 S
C584 C585 1.363 . S
C584 C589 1.379 . S
C584 N591 1.356 . S
C585 C584 1.363 . S
C585 C588 1.363 1_556 S
N586 C588 1.356 . S
N586 H598 0.984 . S
N586 H599 0.985 . S
N587 C589 1.356 . S
N587 H592 0.984 . S
N587 H593 0.985 . S
C588 C582 1.379 . S
C588 C585 1.363 1_554 S
C588 N586 1.356 . S
C589 C583 1.363 1_556 S
C589 C584 1.379 . S
C589 N587 1.356 . S
N590 C582 1.356 . S
N590 H596 0.984 . S
N590 H597 0.984 . S
N591 C584 1.356 . S
N591 H594 0.984 . S
N591 H595 0.985 . S
H592 N587 0.984 . S
H593 N587 0.985 . S
H594 N591 0.984 . S
H595 N591 0.985 . S
H596 N590 0.984 . S
H597 N590 0.984 . S
H598 N586 0.984 . S
H599 N586 0.985 . S
C169 C11 1.397 . S
C171 C137 1.397 . S
C187 C25 1.397 . S
C189 C151 1.397 . S
C205 C39 1.397 . S
C207 C165 1.397 . S
C223 C53 1.397 . S
C225 C95 1.397 . S
C241 C109 1.397 . S
C243 C67 1.397 . S
C259 C123 1.397 . S
C261 C81 1.397 . S
C277 C145 1.247 . S
C279 C5 1.247 . S
C295 C19 1.247 . S
C297 C159 1.247 . S
C313 C33 1.247 . S
C315 C89 1.247 . S
C331 C47 1.247 . S
C333 C103 1.247 . S
C349 C61 1.247 . S
C351 C117 1.247 . S
C367 C75 1.247 . S
C369 C131 1.247 . S
C385 C144 1.177 . S
C387 C4 1.177 . S
C403 C18 1.177 . S
C405 C158 1.177 . S
C421 C32 1.177 . S
C423 C88 1.177 . S
C439 C46 1.177 . S
C441 C102 1.177 . S
C457 C60 1.177 . S
C459 C116 1.177 . S
C475 C74 1.177 . S
C477 C130 1.177 . S
C493 C12 1.554 . S
C495 C96 1.554 . S
C511 C110 1.554 . S
C513 C26 1.554 . S
C529 C40 1.554 . S
C531 C124 1.554 . S
C547 C54 1.554 . S
C549 C138 1.554 . S
C565 C68 1.554 . S
C567 C152 1.554 . S
C583 C166 1.554 . S
C585 C82 1.554 . S
