# Generated by pormake.
# Topology whz, (6)-cn, num edge types: 1
# Building blocks:
#     Node 0, Type 0, BuildingBlock: KUMBUR_clean_sbu_1, # of connection points: 6
#     Node 1, Type 0, BuildingBlock: KUMBUR_clean_sbu_1, # of connection points: 6
#     Node 2, Type 0, BuildingBlock: KUMBUR_clean_sbu_1, # of connection points: 6
#     Node 3, Type 0, BuildingBlock: KUMBUR_clean_sbu_1, # of connection points: 6
#     Node 4, Type 0, BuildingBlock: KUMBUR_clean_sbu_1, # of connection points: 6
#     Node 5, Type 0, BuildingBlock: KUMBUR_clean_sbu_1, # of connection points: 6
#     Node 6, Type 0, BuildingBlock: KUMBUR_clean_sbu_1, # of connection points: 6
#     Node 7, Type 0, BuildingBlock: KUMBUR_clean_sbu_1, # of connection points: 6
#     Node 8, Type 0, BuildingBlock: KUMBUR_clean_sbu_1, # of connection points: 6
#     Node 9, Type 0, BuildingBlock: KUMBUR_clean_sbu_1, # of connection points: 6
#     Node 10, Type 0, BuildingBlock: KUMBUR_clean_sbu_1, # of connection points: 6
#     Node 11, Type 0, BuildingBlock: KUMBUR_clean_sbu_1, # of connection points: 6
#     Node 12, Type 0, BuildingBlock: KUMBUR_clean_sbu_1, # of connection points: 6
#     Node 13, Type 0, BuildingBlock: KUMBUR_clean_sbu_1, # of connection points: 6
#     Node 14, Type 0, BuildingBlock: KUMBUR_clean_sbu_1, # of connection points: 6
#     Node 15, Type 0, BuildingBlock: KUMBUR_clean_sbu_1, # of connection points: 6
#     Edge 16, Type (0, 0), BuildingBlock: XIVTED_clean_linker_0, # of connection points: 2
#     Edge 17, Type (0, 0), BuildingBlock: XIVTED_clean_linker_0, # of connection points: 2
#     Edge 18, Type (0, 0), BuildingBlock: XIVTED_clean_linker_0, # of connection points: 2
#     Edge 19, Type (0, 0), BuildingBlock: XIVTED_clean_linker_0, # of connection points: 2
#     Edge 20, Type (0, 0), BuildingBlock: XIVTED_clean_linker_0, # of connection points: 2
#     Edge 21, Type (0, 0), BuildingBlock: XIVTED_clean_linker_0, # of connection points: 2
#     Edge 22, Type (0, 0), BuildingBlock: XIVTED_clean_linker_0, # of connection points: 2
#     Edge 23, Type (0, 0), BuildingBlock: XIVTED_clean_linker_0, # of connection points: 2
#     Edge 24, Type (0, 0), BuildingBlock: XIVTED_clean_linker_0, # of connection points: 2
#     Edge 25, Type (0, 0), BuildingBlock: XIVTED_clean_linker_0, # of connection points: 2
#     Edge 26, Type (0, 0), BuildingBlock: XIVTED_clean_linker_0, # of connection points: 2
#     Edge 27, Type (0, 0), BuildingBlock: XIVTED_clean_linker_0, # of connection points: 2
#     Edge 28, Type (0, 0), BuildingBlock: XIVTED_clean_linker_0, # of connection points: 2
#     Edge 29, Type (0, 0), BuildingBlock: XIVTED_clean_linker_0, # of connection points: 2
#     Edge 30, Type (0, 0), BuildingBlock: XIVTED_clean_linker_0, # of connection points: 2
#     Edge 31, Type (0, 0), BuildingBlock: XIVTED_clean_linker_0, # of connection points: 2
#     Edge 32, Type (0, 0), BuildingBlock: XIVTED_clean_linker_0, # of connection points: 2
#     Edge 33, Type (0, 0), BuildingBlock: XIVTED_clean_linker_0, # of connection points: 2
#     Edge 34, Type (0, 0), BuildingBlock: XIVTED_clean_linker_0, # of connection points: 2
#     Edge 35, Type (0, 0), BuildingBlock: XIVTED_clean_linker_0, # of connection points: 2
#     Edge 36, Type (0, 0), BuildingBlock: XIVTED_clean_linker_0, # of connection points: 2
#     Edge 37, Type (0, 0), BuildingBlock: XIVTED_clean_linker_0, # of connection points: 2
#     Edge 38, Type (0, 0), BuildingBlock: XIVTED_clean_linker_0, # of connection points: 2
#     Edge 39, Type (0, 0), BuildingBlock: XIVTED_clean_linker_0, # of connection points: 2
#     Edge 40, Type (0, 0), BuildingBlock: XIVTED_clean_linker_0, # of connection points: 2
#     Edge 41, Type (0, 0), BuildingBlock: XIVTED_clean_linker_0, # of connection points: 2
#     Edge 42, Type (0, 0), BuildingBlock: XIVTED_clean_linker_0, # of connection points: 2
#     Edge 43, Type (0, 0), BuildingBlock: XIVTED_clean_linker_0, # of connection points: 2
#     Edge 44, Type (0, 0), BuildingBlock: XIVTED_clean_linker_0, # of connection points: 2
#     Edge 45, Type (0, 0), BuildingBlock: XIVTED_clean_linker_0, # of connection points: 2
#     Edge 46, Type (0, 0), BuildingBlock: XIVTED_clean_linker_0, # of connection points: 2
#     Edge 47, Type (0, 0), BuildingBlock: XIVTED_clean_linker_0, # of connection points: 2
#     Edge 48, Type (0, 0), BuildingBlock: XIVTED_clean_linker_0, # of connection points: 2
#     Edge 49, Type (0, 0), BuildingBlock: XIVTED_clean_linker_0, # of connection points: 2
#     Edge 50, Type (0, 0), BuildingBlock: XIVTED_clean_linker_0, # of connection points: 2
#     Edge 51, Type (0, 0), BuildingBlock: XIVTED_clean_linker_0, # of connection points: 2
#     Edge 52, Type (0, 0), BuildingBlock: XIVTED_clean_linker_0, # of connection points: 2
#     Edge 53, Type (0, 0), BuildingBlock: XIVTED_clean_linker_0, # of connection points: 2
#     Edge 54, Type (0, 0), BuildingBlock: XIVTED_clean_linker_0, # of connection points: 2
#     Edge 55, Type (0, 0), BuildingBlock: XIVTED_clean_linker_0, # of connection points: 2
#     Edge 56, Type (0, 0), BuildingBlock: XIVTED_clean_linker_0, # of connection points: 2
#     Edge 57, Type (0, 0), BuildingBlock: XIVTED_clean_linker_0, # of connection points: 2
#     Edge 58, Type (0, 0), BuildingBlock: XIVTED_clean_linker_0, # of connection points: 2
#     Edge 59, Type (0, 0), BuildingBlock: XIVTED_clean_linker_0, # of connection points: 2
#     Edge 60, Type (0, 0), BuildingBlock: XIVTED_clean_linker_0, # of connection points: 2
#     Edge 61, Type (0, 0), BuildingBlock: XIVTED_clean_linker_0, # of connection points: 2
#     Edge 62, Type (0, 0), BuildingBlock: XIVTED_clean_linker_0, # of connection points: 2
#     Edge 63, Type (0, 0), BuildingBlock: XIVTED_clean_linker_0, # of connection points: 2
# Relax obj value: 0.432
# Max RMSD: 0.279
# Mean RMSD: 0.276
data_MOF--net-whz--node1-KUMBUR_clean_sbu_1--edge1-XIVTED_clean_linker_0
_symmetry_space_group_name_H-M    P1
_symmetry_Int_Tables_number       1
_symmetry_cell_setting            triclinic
loop_
_symmetry_equiv_pos_as_xyz
'x, y, z'
_cell_length_a     33.261563
_cell_length_b     33.120613
_cell_length_c     73.066963
_cell_angle_alpha  89.959646
_cell_angle_beta   90.379988
_cell_angle_gamma 90.433711
loop_
_atom_site_label
_atom_site_type_symbol
_atom_site_fract_x
_atom_site_fract_y
_atom_site_fract_z
_atom_type_partial_charge
Tb0 Tb 0.27298 0.19959 0.21372 0.0
C1 C 0.39637 0.11631 0.16318 0.0
N2 N 0.37136 0.14624 0.15791 0.0
C3 C 0.42625 0.17966 0.14276 0.0
C4 C 0.43784 0.11779 0.15939 0.0
C5 C 0.3852 0.17628 0.14666 0.0
C6 C 0.4529 0.15083 0.14958 0.0
C7 C 0.40269 0.0476 0.17384 0.0
C8 C 0.3792 0.08192 0.17019 0.0
C9 C 0.44461 0.04992 0.17168 0.0
C10 C 0.46221 0.08507 0.16444 0.0
Tb11 Tb 0.30545 0.14041 0.16701 0.0
N12 N 0.33866 0.0807 0.17131 0.0
C13 C 0.38306 0.01151 0.17847 0.0
C14 C 0.31917 0.04471 0.17414 0.0
C15 C 0.34104 0.00986 0.17824 0.0
H16 H 0.36481 0.19874 0.14137 0.0
H17 H 0.3255 0.98178 0.18115 0.0
H18 H 0.18041 0.23173 0.20688 0.0
H19 H 0.39428 0.27597 0.24923 0.0
H20 H 0.28667 0.04341 0.174 0.0
H21 H 0.39996 0.9844 0.18141 0.0
H22 H 0.35342 0.21694 0.23936 0.0
H23 H 0.43727 0.20448 0.13451 0.0
H24 H 0.46337 0.02411 0.17468 0.0
H25 H 0.49427 0.08582 0.16193 0.0
H26 H 0.14579 0.29716 0.20295 0.0
H27 H 0.48459 0.15324 0.14639 0.0
H28 H 0.372 0.34519 0.24147 0.0
N29 N 0.23768 0.25864 0.21179 0.0
C30 C 0.25823 0.29331 0.21492 0.0
C31 C 0.17757 0.29655 0.2062 0.0
C32 C 0.23998 0.33132 0.21301 0.0
C33 C 0.19723 0.25959 0.20842 0.0
C34 C 0.19928 0.33265 0.20807 0.0
N35 N 0.30991 0.25245 0.2254 0.0
C36 C 0.34371 0.24709 0.23585 0.0
C37 C 0.31788 0.32466 0.22758 0.0
C38 C 0.2962 0.29005 0.22205 0.0
C39 C 0.3543 0.31941 0.23697 0.0
C40 C 0.36688 0.2804 0.24144 0.0
H41 H 0.18402 0.36122 0.20641 0.0
H42 H 0.24922 0.396 0.21545 0.0
H43 H 0.31776 0.39015 0.22829 0.0
O44 O 0.25206 0.20667 0.2407 0.0
O45 O 0.24331 0.20988 0.1874 0.0
O46 O 0.28933 0.20554 0.16447 0.0
O47 O 0.25049 0.14878 0.22776 0.0
O48 O 0.33718 0.20305 0.20518 0.0
O49 O 0.33709 0.19798 0.17366 0.0
O50 O 0.25553 0.14249 0.1488 0.0
O51 O 0.30507 0.10916 0.1946 0.0
O52 O 0.32481 0.16031 0.21317 0.0
O53 O 0.30925 0.11308 0.14095 0.0
O54 O 0.25536 0.11396 0.18281 0.0
O55 O 0.22752 0.17007 0.19601 0.0
C56 C 0.26034 0.22513 0.17288 0.0
C57 C 0.25822 0.14848 0.25961 0.0
C58 C 0.30259 0.14452 0.28634 0.0
C59 C 0.28175 0.10957 0.29199 0.0
C60 C 0.23822 0.1134 0.26542 0.0
C61 C 0.24991 0.09414 0.28154 0.0
C62 C 0.29043 0.16387 0.27003 0.0
C63 C 0.3541 0.20989 0.1891 0.0
C64 C 0.24437 0.16841 0.24274 0.0
C65 C 0.26239 0.36638 0.21709 0.0
C66 C 0.3014 0.36304 0.2244 0.0
C67 C 0.32102 0.12173 0.21029 0.0
C68 C 0.27362 0.146 0.11718 0.0
C69 C 0.26241 0.14684 0.08361 0.0
C70 C 0.27939 0.18577 0.08312 0.0
C71 C 0.2895 0.18525 0.11599 0.0
C72 C 0.25941 0.12687 0.10085 0.0
C73 C 0.29245 0.20481 0.09914 0.0
C74 C 0.22555 0.13157 0.19144 0.0
C75 C 0.27423 0.12511 0.13536 0.0
H76 H 0.2903 0.09373 0.30436 0.0
H77 H 0.21339 0.10101 0.2575 0.0
H78 H 0.2343 0.06707 0.28595 0.0
H79 H 0.30516 0.19147 0.26568 0.0
H80 H 0.28191 0.20188 0.07026 0.0
H81 H 0.3 0.20079 0.12814 0.0
H82 H 0.24677 0.09667 0.1015 0.0
H83 H 0.30504 0.23501 0.09848 0.0
Tb84 Tb 0.5728 0.5208 0.458 0.0
C85 C 0.67002 0.65548 0.40853 0.0
N86 N 0.63845 0.63114 0.40436 0.0
C87 C 0.60874 0.68443 0.38669 0.0
C88 C 0.67155 0.696 0.40268 0.0
C89 C 0.60912 0.64426 0.39266 0.0
C90 C 0.63972 0.7107 0.39204 0.0
C91 C 0.73809 0.66077 0.42003 0.0
C92 C 0.70262 0.6382 0.41695 0.0
C93 C 0.73897 0.70203 0.41551 0.0
C94 C 0.70569 0.71965 0.4068 0.0
Tb95 Tb 0.63963 0.56698 0.41611 0.0
N96 N 0.70078 0.5981 0.42038 0.0
C97 C 0.77204 0.6407 0.4267 0.0
C98 C 0.73468 0.57781 0.42555 0.0
C99 C 0.77051 0.59886 0.42916 0.0
H100 H 0.58518 0.62404 0.38847 0.0
H101 H 0.79694 0.5828 0.43374 0.0
H102 H 0.55347 0.42842 0.44283 0.0
H103 H 0.48165 0.61971 0.49875 0.0
H104 H 0.73387 0.54547 0.42735 0.0
H105 H 0.79993 0.65688 0.42928 0.0
H106 H 0.54494 0.59277 0.48618 0.0
H107 H 0.58464 0.69504 0.37795 0.0
H108 H 0.76576 0.72009 0.41796 0.0
H109 H 0.70732 0.75103 0.40265 0.0
H110 H 0.49423 0.38468 0.43754 0.0
H111 H 0.63965 0.74167 0.38725 0.0
H112 H 0.41675 0.58616 0.49133 0.0
N113 N 0.51962 0.47752 0.45316 0.0
C114 C 0.48292 0.49032 0.45841 0.0
C115 C 0.49054 0.41447 0.44334 0.0
C116 C 0.44818 0.46624 0.45592 0.0
C117 C 0.52409 0.43946 0.4463 0.0
C118 C 0.4523 0.4281 0.44797 0.0
N119 N 0.51585 0.54623 0.47097 0.0
C120 C 0.51668 0.57829 0.48274 0.0
C121 C 0.44414 0.5399 0.47471 0.0
C122 C 0.48093 0.52632 0.46761 0.0
C123 C 0.44436 0.57463 0.48561 0.0
C124 C 0.48093 0.59355 0.48988 0.0
H125 H 0.42638 0.40866 0.44576 0.0
H126 H 0.38373 0.46267 0.46008 0.0
H127 H 0.38018 0.52746 0.47654 0.0
O128 O 0.62423 0.50397 0.47326 0.0
O129 O 0.56944 0.50063 0.42982 0.0
O130 O 0.57435 0.55565 0.41167 0.0
O131 O 0.56527 0.49336 0.48366 0.0
O132 O 0.55616 0.58432 0.45077 0.0
O133 O 0.58822 0.60577 0.42373 0.0
O134 O 0.63419 0.51538 0.39915 0.0
O135 O 0.66519 0.56859 0.44474 0.0
O136 O 0.60744 0.57626 0.46073 0.0
O137 O 0.66818 0.56663 0.39033 0.0
O138 O 0.66484 0.51744 0.43266 0.0
O139 O 0.6075 0.48227 0.43945 0.0
C140 C 0.55404 0.52386 0.41731 0.0
C141 C 0.61471 0.44436 0.49061 0.0
C142 C 0.59596 0.37836 0.50303 0.0
C143 C 0.6361 0.36598 0.50182 0.0
C144 C 0.65488 0.43169 0.48969 0.0
C145 C 0.66532 0.39251 0.49501 0.0
C146 C 0.58556 0.41734 0.49717 0.0
C147 C 0.56169 0.61048 0.43708 0.0
C148 C 0.60335 0.48622 0.48582 0.0
C149 C 0.41089 0.48048 0.46202 0.0
C150 C 0.40886 0.51737 0.47138 0.0
C151 C 0.64659 0.57767 0.4602 0.0
C152 C 0.63182 0.5312 0.36732 0.0
C153 C 0.62824 0.5157 0.33426 0.0
C154 C 0.58911 0.53136 0.33389 0.0
C155 C 0.59256 0.54628 0.3662 0.0
C156 C 0.64994 0.51601 0.35112 0.0
C157 C 0.57158 0.54654 0.34966 0.0
C158 C 0.64686 0.48377 0.43771 0.0
C159 C 0.65301 0.53198 0.38543 0.0
H160 H 0.64493 0.33635 0.50658 0.0
H161 H 0.6782 0.45202 0.48488 0.0
H162 H 0.69631 0.38297 0.4942 0.0
H163 H 0.55487 0.42749 0.49877 0.0
H164 H 0.57183 0.53161 0.32126 0.0
H165 H 0.5778 0.5579 0.37814 0.0
H166 H 0.68008 0.50389 0.35171 0.0
H167 H 0.54133 0.55833 0.3491 0.0
Tb168 Tb 0.23498 0.82374 0.70905 0.0
C169 C 0.11486 0.92141 0.65409 0.0
N170 N 0.1373 0.88831 0.65089 0.0
C171 C 0.08395 0.86007 0.63256 0.0
C172 C 0.07521 0.92458 0.64737 0.0
C173 C 0.12336 0.85878 0.63939 0.0
C174 C 0.05944 0.89276 0.63689 0.0
C175 C 0.11309 0.99058 0.66449 0.0
C176 C 0.13345 0.95374 0.6624 0.0
C177 C 0.07253 0.9932 0.6591 0.0
C178 C 0.05359 0.96019 0.65052 0.0
Tb179 Tb 0.20006 0.88705 0.66391 0.0
N180 N 0.17289 0.95016 0.66669 0.0
C181 C 0.13471 0.02404 0.67104 0.0
C182 C 0.19488 0.98348 0.6717 0.0
C183 C 0.17599 0.02063 0.67435 0.0
H184 H 0.14219 0.83339 0.63611 0.0
H185 H 0.1933 0.04663 0.67884 0.0
H186 H 0.32251 0.78726 0.69565 0.0
H187 H 0.12381 0.75958 0.75392 0.0
H188 H 0.22685 0.98116 0.67415 0.0
H189 H 0.12024 0.05294 0.67288 0.0
H190 H 0.15995 0.81448 0.73773 0.0
H191 H 0.07255 0.83589 0.62398 0.0
H192 H 0.05613 0.02107 0.66079 0.0
H193 H 0.02287 0.9631 0.6457 0.0
H194 H 0.35511 0.72075 0.69337 0.0
H195 H 0.02908 0.89393 0.63146 0.0
H196 H 0.14625 0.68878 0.75059 0.0
N197 N 0.2691 0.76392 0.70766 0.0
C198 C 0.25053 0.731 0.71472 0.0
C199 C 0.32556 0.72316 0.69937 0.0
C200 C 0.26807 0.69246 0.714 0.0
C201 C 0.30691 0.76081 0.70062 0.0
C202 C 0.30584 0.68869 0.70589 0.0
N203 N 0.20151 0.775 0.72516 0.0
C204 C 0.16989 0.78365 0.73628 0.0
C205 C 0.19585 0.70447 0.73282 0.0
C206 C 0.21521 0.73681 0.72388 0.0
C207 C 0.16202 0.71274 0.74345 0.0
C208 C 0.14934 0.75265 0.7454 0.0
H209 H 0.32037 0.6596 0.70497 0.0
H210 H 0.26061 0.6294 0.72134 0.0
H211 H 0.19723 0.63998 0.73796 0.0
O212 O 0.26485 0.82077 0.73461 0.0
O213 O 0.25609 0.81247 0.68156 0.0
O214 O 0.20565 0.8204 0.66098 0.0
O215 O 0.25613 0.87746 0.72122 0.0
O216 O 0.17093 0.81191 0.70106 0.0
O217 O 0.15562 0.83997 0.67219 0.0
O218 O 0.25091 0.8761 0.64741 0.0
O219 O 0.2003 0.9155 0.69192 0.0
O220 O 0.18268 0.86226 0.71004 0.0
O221 O 0.20444 0.91516 0.63797 0.0
O222 O 0.2511 0.90993 0.68042 0.0
O223 O 0.27747 0.84973 0.68924 0.0
C224 C 0.2326 0.79731 0.66899 0.0
C225 C 0.25758 0.87943 0.75304 0.0
C226 C 0.21416 0.88503 0.77972 0.0
C227 C 0.23535 0.92015 0.78498 0.0
C228 C 0.27787 0.91479 0.75838 0.0
C229 C 0.26681 0.93497 0.7743 0.0
C230 C 0.22582 0.8647 0.76371 0.0
C231 C 0.14683 0.81688 0.68655 0.0
C232 C 0.26898 0.85977 0.73584 0.0
C233 C 0.24793 0.65941 0.72194 0.0
C234 C 0.21184 0.66542 0.73138 0.0
C235 C 0.18361 0.90102 0.70701 0.0
C236 C 0.23699 0.8762 0.61527 0.0
C237 C 0.25107 0.87386 0.58196 0.0
C238 C 0.2341 0.83477 0.58161 0.0
C239 C 0.22103 0.83697 0.61409 0.0
C240 C 0.25185 0.89492 0.59901 0.0
C241 C 0.21939 0.81667 0.59745 0.0
C242 C 0.28174 0.88877 0.68642 0.0
C243 C 0.23734 0.89682 0.6335 0.0
H244 H 0.22728 0.9366 0.79719 0.0
H245 H 0.30214 0.92688 0.75016 0.0
H246 H 0.28255 0.9623 0.77834 0.0
H247 H 0.21087 0.83698 0.75972 0.0
H248 H 0.23195 0.81796 0.56893 0.0
H249 H 0.20968 0.82181 0.62611 0.0
H250 H 0.26451 0.92511 0.59969 0.0
H251 H 0.20666 0.78652 0.59681 0.0
Tb252 Tb 0.88559 0.4523 0.91663 0.0
C253 C 0.94078 0.5273 0.99769 0.0
N254 N 0.95271 0.53222 0.98018 0.0
C255 C 0.96545 0.60252 0.98575 0.0
C256 C 0.93951 0.56003 1.00996 0.0
C257 C 0.96639 0.56885 0.97418 0.0
C258 C 0.95137 0.59822 1.00366 0.0
C259 C 0.92349 0.48108 1.02204 0.0
C260 C 0.93309 0.48869 1.00359 0.0
C261 C 0.91995 0.51367 1.03422 0.0
C262 C 0.92803 0.55314 1.02819 0.0
Tb263 Tb 0.95159 0.47663 0.96181 0.0
N264 N 0.93834 0.45832 0.99149 0.0
C265 C 0.91933 0.44096 1.02776 0.0
C266 C 0.93731 0.4191 0.99734 0.0
C267 C 0.92672 0.40982 1.01538 0.0
H268 H 0.97722 0.57213 0.96034 0.0
H269 H 0.92455 0.37866 1.01974 0.0
H270 H 0.7939 0.48915 0.92285 0.0
H271 H 0.92391 0.30714 0.88798 0.0
H272 H 0.94396 0.39475 0.98806 0.0
H273 H 0.91179 0.43372 1.0418 0.0
H274 H 0.93162 0.38077 0.89293 0.0
H275 H 0.97553 0.63172 0.98086 0.0
H276 H 0.91231 0.50854 1.04844 0.0
H277 H 0.92651 0.5779 1.03784 0.0
H278 H 0.72597 0.46247 0.92944 0.0
H279 H 0.95089 0.62424 1.01263 0.0
H280 H 0.86433 0.27107 0.90015 0.0
N281 N 0.82053 0.4311 0.92102 0.0
C282 C 0.81398 0.39071 0.92056 0.0
C283 C 0.75053 0.4419 0.92709 0.0
C284 C 0.77575 0.374 0.92414 0.0
C285 C 0.78896 0.45694 0.92319 0.0
C286 C 0.74404 0.4002 0.92792 0.0
N287 N 0.87926 0.3852 0.90932 0.0
C288 C 0.90615 0.36493 0.89873 0.0
C289 C 0.83827 0.3251 0.91162 0.0
C290 C 0.84474 0.3667 0.91454 0.0
C291 C 0.86806 0.30311 0.90268 0.0
C292 C 0.90165 0.32338 0.89574 0.0
H293 H 0.71417 0.38862 0.93075 0.0
H294 H 0.74103 0.31845 0.92579 0.0
H295 H 0.79591 0.27549 0.91471 0.0
O296 O 0.88914 0.50097 0.89786 0.0
O297 O 0.93983 0.41566 0.92332 0.0
O298 O 0.94103 0.41253 0.95463 0.0
O299 O 0.8664 0.44399 0.88915 0.0
O300 O 0.9506 0.46721 0.9153 0.0
O301 O 0.95144 0.51423 0.93745 0.0
O302 O 1.00817 0.48327 0.97429 0.0
O303 O 0.90677 0.52481 0.9557 0.0
O304 O 0.86729 0.50924 0.92972 0.0
O305 O 1.00315 0.45644 0.94779 0.0
O306 O 0.90345 0.43285 0.96341 0.0
O307 O 0.85405 0.45406 0.94403 0.0
C308 C 0.94713 0.39547 0.93859 0.0
C309 C 0.84564 0.50108 0.87168 0.0
C310 C 0.82411 0.52289 0.84071 0.0
C311 C 0.78936 0.53924 0.8486 0.0
C312 C 0.81072 0.51802 0.8789 0.0
C313 C 0.78291 0.53698 0.86745 0.0
C314 C 0.85255 0.50401 0.85249 0.0
C315 C 0.9652 0.50122 0.92195 0.0
C316 C 0.87489 0.48055 0.88406 0.0
C317 C 0.77002 0.33201 0.92284 0.0
C318 C 0.8013 0.30754 0.91656 0.0
C319 C 0.87699 0.53255 0.94389 0.0
C320 C 0.04586 0.42438 0.96914 0.0
C321 C 0.05932 0.3813 0.99556 0.0
C322 C 0.06746 0.34885 0.98391 0.0
C323 C 0.05541 0.39204 0.95752 0.0
C324 C 0.04958 0.41894 0.98808 0.0
C325 C 0.06642 0.35458 0.96491 0.0
C326 C 0.86609 0.44198 0.96047 0.0
C327 C 0.02595 0.4612 0.9621 0.0
H328 H 0.76725 0.55447 0.84017 0.0
H329 H 0.805 0.51674 0.89343 0.0
H330 H 0.75613 0.5501 0.87323 0.0
H331 H 0.87955 0.49118 0.84676 0.0
H332 H 0.07417 0.31933 0.98947 0.0
H333 H 0.05273 0.39518 0.9428 0.0
H334 H 0.04185 0.44333 0.99728 0.0
H335 H 0.0727 0.32955 0.95588 0.0
Tb336 Tb 0.70865 0.89002 0.94434 0.0
C337 C 0.76501 0.735 0.89545 0.0
N338 N 0.78214 0.76957 0.90167 0.0
C339 C 0.84205 0.73325 0.90958 0.0
C340 C 0.78508 0.69774 0.89652 0.0
C341 C 0.82092 0.76949 0.90799 0.0
C342 C 0.82384 0.69707 0.90405 0.0
C343 C 0.71057 0.70364 0.87853 0.0
C344 C 0.7286 0.73785 0.88668 0.0
C345 C 0.72905 0.6658 0.88045 0.0
C346 C 0.76632 0.66285 0.88946 0.0
Tb347 Tb 0.74446 0.82717 0.89956 0.0
N348 N 0.71266 0.77505 0.88476 0.0
C349 C 0.67559 0.70895 0.86806 0.0
C350 C 0.68034 0.7809 0.87345 0.0
C351 C 0.66078 0.7479 0.86527 0.0
H352 H 0.83546 0.7973 0.91208 0.0
H353 H 0.63447 0.75254 0.85675 0.0
H354 H 0.65108 0.83568 0.97182 0.0
H355 H 0.69846 0.04931 0.92903 0.0
H356 H 0.66912 0.81108 0.87117 0.0
H357 H 0.66071 0.68348 0.86156 0.0
H358 H 0.73342 0.9848 0.93444 0.0
H359 H 0.87241 0.73327 0.915 0.0
H360 H 0.71551 0.63898 0.87447 0.0
H361 H 0.78095 0.63377 0.89035 0.0
H362 H 0.58102 0.83665 0.983 0.0
H363 H 0.84033 0.66908 0.90518 0.0
H364 H 0.62497 0.05374 0.93377 0.0
N365 N 0.6453 0.88991 0.95652 0.0
C366 C 0.62211 0.92232 0.95284 0.0
C367 C 0.59208 0.86086 0.97439 0.0
C368 C 0.58216 0.92461 0.95901 0.0
C369 C 0.63175 0.86045 0.96811 0.0
C370 C 0.56685 0.89269 0.96949 0.0
N371 N 0.67993 0.95239 0.94104 0.0
C372 C 0.70129 0.98627 0.93633 0.0
C373 C 0.61903 0.99128 0.94219 0.0
C374 C 0.64021 0.95499 0.94468 0.0
C375 C 0.64009 0.02524 0.9359 0.0
C376 C 0.68159 0.02289 0.93328 0.0
H377 H 0.53628 0.89319 0.97451 0.0
H378 H 0.5288 0.96179 0.95979 0.0
H379 H 0.56117 0.02035 0.94494 0.0
O380 O 0.75864 0.87947 0.96178 0.0
O381 O 0.71016 0.9186 0.91634 0.0
O382 O 0.69174 0.86551 0.8986 0.0
O383 O 0.71187 0.91905 0.97008 0.0
O384 O 0.75933 0.91427 0.92827 0.0
O385 O 0.78825 0.85586 0.91839 0.0
O386 O 0.76433 0.87993 0.88597 0.0
O387 O 0.76746 0.81722 0.92701 0.0
O388 O 0.71655 0.82354 0.94717 0.0
O389 O 0.76919 0.82211 0.87331 0.0
O390 O 0.68062 0.81419 0.90732 0.0
O391 O 0.66541 0.84185 0.9361 0.0
C392 C 0.694 0.90441 0.90099 0.0
C393 C 0.74192 0.88013 0.9936 0.0
C394 C 0.74817 0.88047 1.02743 0.0
C395 C 0.73117 0.84149 1.02765 0.0
C396 C 0.72591 0.84088 0.99461 0.0
C397 C 0.72048 0.82191 1.01144 0.0
C398 C 0.75371 0.8998 1.01017 0.0
C399 C 0.79064 0.89486 0.92189 0.0
C400 C 0.74418 0.90043 0.97533 0.0
C401 C 0.55976 0.95958 0.9554 0.0
C402 C 0.5782 0.99293 0.94696 0.0
C403 C 0.74499 0.80166 0.93972 0.0
C404 C 0.82236 0.86885 0.86836 0.0
C405 C 0.88822 0.8457 0.85827 0.0
C406 C 0.90276 0.88556 0.859 0.0
C407 C 0.83728 0.90864 0.86891 0.0
C408 C 0.84821 0.83767 0.86322 0.0
C409 C 0.8774 0.91679 0.86445 0.0
C410 C 0.65676 0.81857 0.92179 0.0
C411 C 0.77975 0.85993 0.87259 0.0
H412 H 0.72693 0.82561 1.04047 0.0
H413 H 0.7173 0.82477 0.98233 0.0
H414 H 0.70789 0.79169 1.01192 0.0
H415 H 0.76643 0.92998 1.00967 0.0
H416 H 0.93327 0.89259 0.85492 0.0
H417 H 0.81798 0.93336 0.87279 0.0
H418 H 0.83653 0.80713 0.86205 0.0
H419 H 0.88869 0.94751 0.86494 0.0
Tb420 Tb 0.37571 0.45221 0.69388 0.0
C421 C 0.53125 0.51482 0.64752 0.0
N422 N 0.49572 0.53048 0.65282 0.0
C423 C 0.52883 0.59281 0.66072 0.0
C424 C 0.56742 0.53702 0.64911 0.0
C425 C 0.49375 0.56955 0.65872 0.0
C426 C 0.56594 0.57629 0.6561 0.0
C427 C 0.56629 0.46075 0.6324 0.0
C428 C 0.53069 0.47748 0.63934 0.0
C429 C 0.60293 0.48159 0.6348 0.0
C430 C 0.6035 0.51971 0.64317 0.0
Tb431 Tb 0.44024 0.48965 0.65004 0.0
N432 N 0.49463 0.45884 0.63711 0.0
C433 C 0.5637 0.42436 0.62272 0.0
C434 C 0.49165 0.42435 0.62687 0.0
C435 C 0.52611 0.40636 0.61973 0.0
H436 H 0.46518 0.58271 0.66215 0.0
H437 H 0.52365 0.37854 0.61203 0.0
H438 H 0.43643 0.40089 0.7211 0.0
H439 H 0.21729 0.43192 0.67988 0.0
H440 H 0.46277 0.40974 0.6249 0.0
H441 H 0.59033 0.41047 0.61714 0.0
H442 H 0.28107 0.47024 0.68224 0.0
H443 H 0.52722 0.62343 0.66579 0.0
H444 H 0.63074 0.46906 0.62976 0.0
H445 H 0.63174 0.536 0.64451 0.0
H446 H 0.4376 0.334 0.73614 0.0
H447 H 0.59306 0.59436 0.65761 0.0
H448 H 0.21428 0.36055 0.68993 0.0
N449 N 0.37911 0.39145 0.70871 0.0
C450 C 0.34648 0.36695 0.70734 0.0
C451 C 0.41182 0.3428 0.72799 0.0
C452 C 0.34562 0.32858 0.71566 0.0
C453 C 0.41098 0.38074 0.71955 0.0
C454 C 0.37923 0.31631 0.7258 0.0
N455 N 0.31442 0.42046 0.69255 0.0
C456 C 0.28029 0.43896 0.68641 0.0
C457 C 0.27696 0.35912 0.69809 0.0
C458 C 0.31282 0.382 0.69881 0.0
C459 C 0.24247 0.37707 0.69075 0.0
C460 C 0.24404 0.41738 0.68512 0.0
H461 H 0.37982 0.28704 0.73243 0.0
H462 H 0.30953 0.27478 0.7203 0.0
H463 H 0.24927 0.30155 0.70482 0.0
O464 O 0.38765 0.5044 0.70978 0.0
O465 O 0.34807 0.45134 0.66568 0.0
O466 O 0.4023 0.43585 0.64814 0.0
O467 O 0.34659 0.45922 0.71932 0.0
O468 O 0.35027 0.50021 0.67654 0.0
O469 O 0.4079 0.53259 0.6676 0.0
O470 O 0.44808 0.51817 0.62455 0.0
O471 O 0.44591 0.51353 0.67746 0.0
O472 O 0.44172 0.46098 0.69695 0.0
O473 O 0.38904 0.50615 0.63464 0.0
O474 O 0.45757 0.42777 0.65972 0.0
O475 O 0.4185 0.40601 0.68465 0.0
C476 C 0.36337 0.43627 0.65042 0.0
C477 C 0.38672 0.49166 0.74201 0.0
C478 C 0.38672 0.50148 0.77563 0.0
C479 C 0.42608 0.48627 0.77622 0.0
C480 C 0.42622 0.47735 0.74338 0.0
C481 C 0.44556 0.47457 0.76029 0.0
C482 C 0.36705 0.5043 0.75828 0.0
C483 C 0.36871 0.53262 0.67024 0.0
C484 C 0.36638 0.49188 0.72367 0.0
C485 C 0.31072 0.30457 0.71418 0.0
C486 C 0.27641 0.31982 0.70538 0.0
C487 C 0.46222 0.49146 0.69015 0.0
C488 C 0.39705 0.5051 0.60279 0.0
C489 C 0.40328 0.45682 0.57771 0.0
C490 C 0.37855 0.48178 0.56686 0.0
C491 C 0.37219 0.52921 0.59189 0.0
C492 C 0.41103 0.4684 0.59594 0.0
C493 C 0.36263 0.51729 0.57405 0.0
C494 C 0.44716 0.40055 0.67238 0.0
C495 C 0.40978 0.51936 0.62096 0.0
H496 H 0.44237 0.48427 0.78907 0.0
H497 H 0.44239 0.46817 0.73134 0.0
H498 H 0.47602 0.46338 0.76104 0.0
H499 H 0.33665 0.5157 0.75747 0.0
H500 H 0.37228 0.47473 0.55267 0.0
H501 H 0.36071 0.55749 0.59706 0.0
H502 H 0.42873 0.44951 0.60481 0.0
H503 H 0.34371 0.53621 0.56558 0.0
Tb504 Tb 0.81842 0.13277 0.44602 0.0
C505 C 0.76221 0.28797 0.39581 0.0
N506 N 0.7451 0.25464 0.40323 0.0
C507 C 0.6879 0.29386 0.41204 0.0
C508 C 0.74353 0.32596 0.39657 0.0
C509 C 0.70766 0.25679 0.41076 0.0
C510 C 0.70611 0.32873 0.40509 0.0
C511 C 0.81494 0.31573 0.37693 0.0
C512 C 0.79711 0.28304 0.38625 0.0
C513 C 0.7979 0.3543 0.37841 0.0
C514 C 0.76219 0.35943 0.38826 0.0
Tb515 Tb 0.78098 0.19583 0.40161 0.0
N516 N 0.8118 0.24526 0.38493 0.0
C517 C 0.84831 0.30821 0.36589 0.0
C518 C 0.84285 0.23725 0.37341 0.0
C519 C 0.86194 0.26862 0.3639 0.0
H520 H 0.69309 0.23006 0.41605 0.0
H521 H 0.88707 0.26223 0.35505 0.0
H522 H 0.87689 0.1863 0.47357 0.0
H523 H 0.82387 0.97332 0.43064 0.0
H524 H 0.85341 0.20665 0.3719 0.0
H525 H 0.86293 0.33244 0.35844 0.0
H526 H 0.79101 0.03915 0.43522 0.0
H527 H 0.65865 0.2955 0.41838 0.0
H528 H 0.81134 0.38002 0.37154 0.0
H529 H 0.74863 0.38904 0.38887 0.0
H530 H 0.94584 0.18254 0.48632 0.0
H531 H 0.69069 0.35736 0.406 0.0
H532 H 0.89659 0.96598 0.4372 0.0
N533 N 0.88101 0.13084 0.45917 0.0
C534 C 0.90303 0.09734 0.45618 0.0
C535 C 0.93428 0.15841 0.47775 0.0
C536 C 0.94241 0.0936 0.46317 0.0
C537 C 0.89519 0.16037 0.4706 0.0
C538 C 0.95834 0.12522 0.47371 0.0
N539 N 0.84504 0.06941 0.44317 0.0
C540 C 0.82284 0.03641 0.4379 0.0
C541 C 0.90421 0.02817 0.44575 0.0
C542 C 0.88428 0.06528 0.44774 0.0
C543 C 0.88242 0.99505 0.43897 0.0
C544 C 0.84134 0.99905 0.43532 0.0
H545 H 0.98848 0.12359 0.47937 0.0
H546 H 0.99411 0.0543 0.46522 0.0
H547 H 0.9606 0.99685 0.44986 0.0
O548 O 0.76844 0.14541 0.46286 0.0
O549 O 0.81725 0.10476 0.41801 0.0
O550 O 0.83394 0.15831 0.4 0.0
O551 O 0.81287 0.10317 0.47152 0.0
O552 O 0.76685 0.11089 0.42962 0.0
O553 O 0.73756 0.17016 0.42119 0.0
O554 O 0.75143 0.19724 0.37595 0.0
O555 O 0.76193 0.20673 0.42938 0.0
O556 O 0.81353 0.19922 0.44931 0.0
O557 O 0.75985 0.14137 0.39015 0.0
O558 O 0.84512 0.2094 0.40926 0.0
O559 O 0.8635 0.17889 0.43728 0.0
C560 C 0.8339 0.11951 0.40298 0.0
C561 C 0.78266 0.14161 0.49495 0.0
C562 C 0.77172 0.13928 0.5284 0.0
C563 C 0.79212 0.17642 0.52993 0.0
C564 C 0.80178 0.1792 0.49714 0.0
C565 C 0.80664 0.19626 0.51445 0.0
C566 C 0.7669 0.12185 0.5107 0.0
C567 C 0.73454 0.13146 0.42517 0.0
C568 C 0.78101 0.12285 0.47636 0.0
C569 C 0.96361 0.05766 0.46019 0.0
C570 C 0.94452 0.02495 0.45145 0.0
C571 C 0.78626 0.22219 0.44151 0.0
C572 C 0.75929 0.13722 0.35833 0.0
C573 C 0.80037 0.13188 0.33085 0.0
C574 C 0.78208 0.09433 0.32705 0.0
C575 C 0.74175 0.0996 0.35435 0.0
C576 C 0.78851 0.15325 0.34658 0.0
C577 C 0.75309 0.07833 0.33877 0.0
C578 C 0.87074 0.20339 0.42319 0.0
C579 C 0.74749 0.15813 0.3752 0.0
H580 H 0.79605 0.19066 0.54317 0.0
H581 H 0.81317 0.19545 0.48542 0.0
H582 H 0.82173 0.22517 0.51589 0.0
H583 H 0.75157 0.09305 0.50925 0.0
H584 H 0.79052 0.07695 0.31515 0.0
H585 H 0.71943 0.08656 0.36338 0.0
H586 H 0.80125 0.18269 0.34948 0.0
H587 H 0.73953 0.04922 0.33582 0.0
Tb588 Tb 0.05988 0.55738 0.14792 0.0
C589 C 0.21688 0.60371 0.18325 0.0
N590 N 0.19947 0.56677 0.18528 0.0
C591 C 0.26126 0.53483 0.17702 0.0
C592 C 0.25697 0.60771 0.17737 0.0
C593 C 0.22143 0.5324 0.18296 0.0
C594 C 0.27895 0.57264 0.17396 0.0
C595 C 0.2127 0.67605 0.1873 0.0
C596 C 0.19464 0.63739 0.18775 0.0
C597 C 0.25196 0.68054 0.18057 0.0
C598 C 0.27402 0.64642 0.17556 0.0
Tb599 Tb 0.13293 0.56656 0.19292 0.0
N600 N 0.15689 0.63178 0.19436 0.0
C601 C 0.19169 0.70858 0.19468 0.0
C602 C 0.13915 0.6623 0.20392 0.0
C603 C 0.15528 0.70142 0.20354 0.0
H604 H 0.2079 0.50318 0.18544 0.0
H605 H 0.14005 0.72581 0.21042 0.0
H606 H 0.02049 0.46856 0.15823 0.0
H607 H 0.11174 0.6182 0.08366 0.0
H608 H 0.1124 0.65665 0.21184 0.0
H609 H 0.20447 0.73877 0.19464 0.0
H610 H 0.08692 0.62197 0.11547 0.0
H611 H 0.27829 0.50756 0.17482 0.0
H612 H 0.26609 0.71008 0.17986 0.0
H613 H 0.30467 0.6502 0.17089 0.0
H614 H 0.01576 0.4006 0.14412 0.0
H615 H 0.30985 0.57442 0.16941 0.0
H616 H 0.1181 0.55185 0.06843 0.0
N617 N 0.05535 0.49327 0.1367 0.0
C618 C 0.06931 0.48812 0.11942 0.0
C619 C 0.03145 0.42481 0.13715 0.0
C620 C 0.06724 0.4502 0.11076 0.0
C621 C 0.03431 0.46308 0.14518 0.0
C622 C 0.04871 0.41811 0.12003 0.0
N623 N 0.08116 0.55831 0.11836 0.0
C624 C 0.09019 0.59285 0.10899 0.0
C625 C 0.09651 0.51816 0.09185 0.0
C626 C 0.08329 0.52173 0.11005 0.0
C627 C 0.10764 0.55329 0.08242 0.0
C628 C 0.10398 0.59082 0.09096 0.0
H629 H 0.04621 0.38853 0.11378 0.0
H630 H 0.08131 0.41703 0.08609 0.0
H631 H 0.10714 0.4765 0.06955 0.0
O632 O 0.99895 0.55409 0.15524 0.0
O633 O 0.10099 0.50578 0.15327 0.0
O634 O 0.13064 0.50466 0.18263 0.0
O635 O 0.01661 0.58086 0.12971 0.0
O636 O 0.11117 0.59799 0.14676 0.0
O637 O 0.15791 0.56454 0.16408 0.0
O638 O 0.11595 0.5726 0.22076 0.0
O639 O 0.08468 0.61298 0.18861 0.0
O640 O 0.07547 0.61862 0.15713 0.0
O641 O 0.17179 0.54657 0.21404 0.0
O642 O 0.08179 0.52313 0.19535 0.0
O643 O 0.04174 0.55703 0.17613 0.0
C644 C 0.12265 0.4887 0.16643 0.0
C645 C 0.95845 0.53898 0.12989 0.0
C646 C 0.94688 0.48757 0.10643 0.0
C647 C 0.91038 0.47705 0.11481 0.0
C648 C 0.92182 0.52832 0.13806 0.0
C649 C 0.89778 0.49772 0.13044 0.0
C650 C 0.97021 0.51902 0.11392 0.0
C651 C 0.14778 0.58491 0.1491 0.0
C652 C 0.98678 0.56661 0.1393 0.0
C653 C 0.08218 0.44604 0.09293 0.0
C654 C 0.09687 0.47994 0.0835 0.0
C655 C 0.07321 0.63369 0.17385 0.0
C656 C 0.14019 0.52088 0.24062 0.0
C657 C 0.1395 0.49245 0.27202 0.0
C658 C 0.12579 0.45567 0.26452 0.0
C659 C 0.12664 0.48349 0.2339 0.0
C660 C 0.14713 0.52524 0.25983 0.0
C661 C 0.1196 0.45128 0.24574 0.0
C662 C 0.04669 0.52707 0.18726 0.0
C663 C 0.1474 0.55439 0.22728 0.0
H664 H 0.89167 0.45303 0.10929 0.0
H665 H 0.91239 0.54288 0.15058 0.0
H666 H 0.8697 0.48941 0.13689 0.0
H667 H 0.99871 0.52668 0.10776 0.0
H668 H 0.12006 0.42987 0.27328 0.0
H669 H 0.12169 0.47902 0.21939 0.0
H670 H 0.15769 0.55388 0.26524 0.0
H671 H 0.10925 0.4226 0.24031 0.0
Tb672 Tb 0.77373 0.69639 0.71162 0.0
C673 C 0.89743 0.60127 0.65741 0.0
N674 N 0.87353 0.63336 0.65415 0.0
C675 C 0.92493 0.66339 0.63554 0.0
C676 C 0.93689 0.59958 0.65058 0.0
C677 C 0.88581 0.66323 0.6425 0.0
C678 C 0.95091 0.63179 0.63991 0.0
C679 C 0.90251 0.53255 0.66819 0.0
C680 C 0.88055 0.56845 0.66595 0.0
C681 C 0.94289 0.53144 0.66265 0.0
C682 C 0.96008 0.56496 0.65382 0.0
Tb683 Tb 0.8112 0.63235 0.66727 0.0
N684 N 0.84118 0.57054 0.67037 0.0
C685 C 0.88261 0.49845 0.67507 0.0
C686 C 0.82089 0.53654 0.67578 0.0
C687 C 0.84142 0.50029 0.67859 0.0
H688 H 0.86587 0.68779 0.63918 0.0
H689 H 0.82542 0.47377 0.68335 0.0
H690 H 0.68211 0.72143 0.69802 0.0
H691 H 0.88348 0.78062 0.7512 0.0
H692 H 0.78899 0.53754 0.67837 0.0
H693 H 0.89836 0.47024 0.67702 0.0
H694 H 0.85196 0.7195 0.7379 0.0
H695 H 0.93499 0.68785 0.62683 0.0
H696 H 0.9605 0.50431 0.66444 0.0
H697 H 0.99068 0.56318 0.64891 0.0
H698 H 0.64226 0.78338 0.6942 0.0
H699 H 0.98106 0.63174 0.63438 0.0
H700 H 0.85203 0.84738 0.74649 0.0
N701 N 0.73368 0.75214 0.70861 0.0
C702 C 0.74899 0.78781 0.71451 0.0
C703 C 0.67236 0.78512 0.69987 0.0
C704 C 0.72706 0.82394 0.713 0.0
C705 C 0.69518 0.75006 0.70197 0.0
C706 C 0.68853 0.82234 0.70523 0.0
N707 N 0.80404 0.75135 0.72519 0.0
C708 C 0.838 0.74847 0.73575 0.0
C709 C 0.80223 0.82313 0.73062 0.0
C710 C 0.78574 0.78742 0.72311 0.0
C711 C 0.83828 0.82068 0.74051 0.0
C712 C 0.85603 0.78306 0.74324 0.0
H713 H 0.67074 0.84943 0.70371 0.0
H714 H 0.72762 0.88822 0.71866 0.0
H715 H 0.79373 0.88754 0.73408 0.0
O716 O 0.74508 0.70249 0.73705 0.0
O717 O 0.75165 0.7035 0.68387 0.0
O718 O 0.8031 0.69856 0.6641 0.0
O719 O 0.75566 0.64396 0.72591 0.0
O720 O 0.8375 0.7097 0.7037 0.0
O721 O 0.85419 0.68055 0.67538 0.0
O722 O 0.75975 0.64215 0.65068 0.0
O723 O 0.81132 0.60516 0.69554 0.0
O724 O 0.82724 0.65915 0.71361 0.0
O725 O 0.80655 0.60335 0.64156 0.0
O726 O 0.76197 0.60712 0.68386 0.0
O727 O 0.73135 0.66515 0.69301 0.0
C728 C 0.77426 0.71992 0.67145 0.0
C729 C 0.75679 0.64958 0.7579 0.0
C730 C 0.80557 0.65329 0.78305 0.0
C731 C 0.77958 0.62897 0.79364 0.0
C732 C 0.73169 0.62515 0.76855 0.0
C733 C 0.74337 0.61445 0.78627 0.0
C734 C 0.7942 0.66191 0.76485 0.0
C735 C 0.86203 0.70456 0.6895 0.0
C736 C 0.7429 0.66381 0.73991 0.0
C737 C 0.74386 0.86007 0.71975 0.0
C738 C 0.78149 0.85968 0.72853 0.0
C739 C 0.82689 0.62019 0.71088 0.0
C740 C 0.77397 0.64212 0.61865 0.0
C741 C 0.76446 0.64215 0.58499 0.0
C742 C 0.77975 0.68185 0.58462 0.0
C743 C 0.78853 0.6819 0.6175 0.0
C744 C 0.7614 0.62231 0.60225 0.0
C745 C 0.79144 0.70145 0.60068 0.0
C746 C 0.73019 0.62589 0.69011 0.0
C747 C 0.77356 0.62155 0.63688 0.0
H748 H 0.78629 0.62193 0.80778 0.0
H749 H 0.70285 0.61493 0.76328 0.0
H750 H 0.72372 0.59584 0.79456 0.0
H751 H 0.81379 0.67896 0.75603 0.0
H752 H 0.78192 0.69828 0.57184 0.0
H753 H 0.79788 0.69807 0.62964 0.0
H754 H 0.74994 0.59164 0.6029 0.0
H755 H 0.80279 0.73214 0.60009 0.0
Tb756 Tb 0.08205 0.02182 0.95436 0.0
C757 C 0.17174 0.16142 0.90399 0.0
N758 N 0.1405 0.13614 0.90055 0.0
C759 C 0.10826 0.18769 0.88274 0.0
C760 C 0.17194 0.20158 0.89762 0.0
C761 C 0.10987 0.14797 0.88927 0.0
C762 C 0.13911 0.21488 0.88723 0.0
C763 C 0.24003 0.16927 0.91492 0.0
C764 C 0.2051 0.14553 0.91237 0.0
C765 C 0.2397 0.21017 0.90976 0.0
C766 C 0.20566 0.22632 0.90108 0.0
Tb767 Tb 0.14387 0.07277 0.91291 0.0
N768 N 0.20439 0.10568 0.91646 0.0
C769 C 0.27462 0.15069 0.92179 0.0
C770 C 0.23888 0.08683 0.92198 0.0
C771 C 0.2742 0.10913 0.92507 0.0
H772 H 0.08587 0.12712 0.88587 0.0
H773 H 0.30111 0.09419 0.92986 0.0
H774 H 0.06545 0.93023 0.93822 0.0
H775 H 0.99103 0.11521 0.99788 0.0
H776 H 0.23918 0.05469 0.92437 0.0
H777 H 0.30211 0.16782 0.92399 0.0
H778 H 0.05397 0.09177 0.98368 0.0
H779 H 0.08326 0.19726 0.87428 0.0
H780 H 0.26607 0.22909 0.91178 0.0
H781 H 0.20628 0.25744 0.89651 0.0
H782 H 1.00808 0.88322 0.93432 0.0
H783 H 0.13801 0.24552 0.88205 0.0
H784 H 0.92741 0.07764 0.99246 0.0
N785 N 0.03053 0.9763 0.95052 0.0
C786 C 0.9941 0.9866 0.95706 0.0
C787 C 1.00365 0.91234 0.94067 0.0
C788 C 0.96047 0.96074 0.95529 0.0
C789 C 0.03607 0.93916 0.94284 0.0
C790 C 0.96556 0.92331 0.94679 0.0
N791 N 0.0257 0.04363 0.96921 0.0
C792 C 0.02617 0.07582 0.9809 0.0
C793 C 0.95505 0.03326 0.9749 0.0
C794 C 0.99151 0.02193 0.96671 0.0
C795 C 0.95477 0.06781 0.98591 0.0
C796 C 0.99064 0.08898 0.98906 0.0
H797 H 0.94056 0.90242 0.94523 0.0
H798 H 0.89695 0.95352 0.96109 0.0
H799 H 0.89218 0.01729 0.97833 0.0
O800 O 0.08156 0.98398 0.97743 0.0
O801 O 0.0781 1.00376 0.92595 0.0
O802 O 0.07829 0.06053 0.90918 0.0
O803 O 0.13642 0.01145 0.96874 0.0
O804 O 0.06083 0.08499 0.94792 0.0
O805 O 0.0933 0.11132 0.92184 0.0
O806 O 0.13828 0.02081 0.89618 0.0
O807 O 0.16942 0.07584 0.94163 0.0
O808 O 0.11219 0.07953 0.95867 0.0
O809 O 0.17044 0.07271 0.88667 0.0
O810 O 0.1731 0.024 0.9286 0.0
O811 O 0.11692 0.98739 0.93448 0.0
C812 C 0.05996 0.02718 0.91433 0.0
C813 C 0.12707 1.00605 1.00023 0.0
C814 C 0.10197 0.03665 1.02802 0.0
C815 C 0.13952 0.03169 1.03648 0.0
C816 C 0.16514 1.00231 1.00842 0.0
C817 C 0.17133 0.01527 1.0265 0.0
C818 C 0.09618 0.02403 1.01 0.0
C819 C 0.06638 0.11367 0.93519 0.0
C820 C 0.11898 0.99141 0.9816 0.0
C821 C 0.92336 0.97263 0.96255 0.0
C822 C 0.92064 1.00894 0.97234 0.0
C823 C 0.1508 0.0861 0.95698 0.0
C824 C 0.13346 0.03562 0.8643 0.0
C825 C 0.12807 0.01849 0.83142 0.0
C826 C 0.08839 0.0327 0.8315 0.0
C827 C 0.09364 0.04928 0.86361 0.0
C828 C 0.15094 0.02034 0.84796 0.0
C829 C 0.07148 0.04801 0.8474 0.0
C830 C 0.15626 0.98978 0.93357 0.0
C831 C 0.15578 0.03757 0.88213 0.0
H832 H 0.14401 0.03999 1.05068 0.0
H833 H 0.18975 0.98904 1.00095 0.0
H834 H 0.20055 0.01188 1.03289 0.0
H835 H 0.06645 0.02608 1.00398 0.0
H836 H 0.07022 0.03178 0.81914 0.0
H837 H 0.0793 0.0609 0.87565 0.0
H838 H 0.18151 0.0093 0.84819 0.0
H839 H 0.0408 0.0587 0.84719 0.0
Tb840 Tb 0.72536 0.32606 0.21108 0.0
C841 C 0.61696 0.42463 0.15112 0.0
N842 N 0.6391 0.39062 0.14997 0.0
C843 C 0.59001 0.36138 0.1296 0.0
C844 C 0.57947 0.4279 0.14218 0.0
C845 C 0.62716 0.35981 0.13868 0.0
C846 C 0.56569 0.3953 0.13163 0.0
C847 C 0.61386 0.49472 0.16017 0.0
C848 C 0.63391 0.45742 0.15985 0.0
C849 C 0.5752 0.4976 0.1524 0.0
C850 C 0.55804 0.46421 0.14338 0.0
Tb851 Tb 0.69866 0.39022 0.16581 0.0
N852 N 0.67177 0.4536 0.16652 0.0
C853 C 0.63405 0.5283 0.1675 0.0
C854 C 0.69269 0.48685 0.17245 0.0
C855 C 0.6739 0.52446 0.1734 0.0
H856 H 0.64566 0.33336 0.13725 0.0
H857 H 0.69025 0.55049 0.17855 0.0
H858 H 0.81521 0.28884 0.20237 0.0
H859 H 0.60478 0.26468 0.25149 0.0
H860 H 0.72366 0.48418 0.17682 0.0
H861 H 0.61973 0.55754 0.16803 0.0
H862 H 0.64513 0.3189 0.23683 0.0
H863 H 0.58014 0.33642 0.12109 0.0
H864 H 0.55904 0.52588 0.15267 0.0
H865 H 0.52891 0.46725 0.13681 0.0
H866 H 0.84796 0.22215 0.20257 0.0
H867 H 0.53705 0.39658 0.12451 0.0
H868 H 0.62652 0.19347 0.24918 0.0
N869 N 0.75873 0.26595 0.21128 0.0
C870 C 0.73821 0.23344 0.2176 0.0
C871 C 0.81689 0.22482 0.20667 0.0
C872 C 0.75562 0.19482 0.21815 0.0
C873 C 0.79817 0.26254 0.20647 0.0
C874 C 0.79533 0.19068 0.2123 0.0
N875 N 0.68782 0.27835 0.22581 0.0
C876 C 0.65454 0.28781 0.23575 0.0
C877 C 0.67966 0.20807 0.23345 0.0
C878 C 0.70112 0.23991 0.22516 0.0
C879 C 0.644 0.21706 0.24263 0.0
C880 C 0.63173 0.25724 0.24403 0.0
H881 H 0.81 0.16159 0.21267 0.0
H882 H 0.74612 0.13216 0.22572 0.0
H883 H 0.67932 0.14377 0.23911 0.0
O884 O 0.74552 0.37844 0.22502 0.0
O885 O 0.75165 0.31477 0.1847 0.0
O886 O 0.70348 0.32357 0.16305 0.0
O887 O 0.74709 0.32051 0.23795 0.0
O888 O 0.66436 0.31082 0.20009 0.0
O889 O 0.64861 0.34897 0.17385 0.0
O890 O 0.75089 0.37625 0.15076 0.0
O891 O 0.69763 0.41967 0.19352 0.0
O892 O 0.67463 0.36675 0.21013 0.0
O893 O 0.70899 0.4192 0.1404 0.0
O894 O 0.74779 0.41117 0.18404 0.0
O895 O 0.77375 0.35116 0.19394 0.0
C896 C 0.73035 0.30061 0.17116 0.0
C897 C 0.80256 0.36417 0.24324 0.0
C898 C 0.86662 0.33677 0.25375 0.0
C899 C 0.88443 0.37509 0.25227 0.0
C900 C 0.8208 0.40243 0.24162 0.0
C901 C 0.86159 0.40771 0.246 0.0
C902 C 0.82593 0.33159 0.24918 0.0
C903 C 0.6398 0.32114 0.18638 0.0
C904 C 0.75956 0.35779 0.23866 0.0
C905 C 0.73351 0.16222 0.22537 0.0
C906 C 0.69549 0.16884 0.233 0.0
C907 C 0.67859 0.40557 0.20805 0.0
C908 C 0.74155 0.3784 0.11832 0.0
C909 C 0.7584 0.37671 0.08534 0.0
C910 C 0.74137 0.33774 0.08446 0.0
C911 C 0.72547 0.33928 0.11666 0.0
C912 C 0.75789 0.39743 0.10244 0.0
C913 C 0.72512 0.31937 0.0999 0.0
C914 C 0.77845 0.38972 0.18997 0.0
C915 C 0.74088 0.39841 0.13669 0.0
H916 H 0.91563 0.37976 0.25609 0.0
H917 H 0.80359 0.42815 0.23695 0.0
H918 H 0.8754 0.43726 0.24472 0.0
H919 H 0.81221 0.30201 0.25087 0.0
H920 H 0.74077 0.32119 0.07167 0.0
H921 H 0.71322 0.32378 0.1284 0.0
H922 H 0.77084 0.42745 0.10348 0.0
H923 H 0.71243 0.28926 0.0989 0.0
Tb924 Tb 0.38174 0.95202 0.41396 0.0
C925 C 0.42836 0.03848 0.48859 0.0
N926 N 0.4482 0.03558 0.4725 0.0
C927 C 0.46927 0.10492 0.47518 0.0
C928 C 0.42577 0.07552 0.498 0.0
C929 C 0.47126 0.06734 0.46651 0.0
C930 C 0.44547 0.10932 0.49072 0.0
C931 C 0.39945 1.00384 0.5146 0.0
C932 C 0.41594 1.00317 0.49688 0.0
C933 C 0.39307 0.04104 0.52328 0.0
C934 C 0.40641 0.07689 0.51502 0.0
Tb935 Tb 0.45153 0.97238 0.4598 0.0
N936 N 0.42471 0.96791 0.48849 0.0
C937 C 0.39225 0.96708 0.5235 0.0
C938 C 0.42003 0.93205 0.49754 0.0
C939 C 0.40325 0.93105 0.51504 0.0
H940 H 0.4902 0.06374 0.45467 0.0
H941 H 0.39884 0.90251 0.522 0.0
H942 H 0.29256 0.9212 0.43072 0.0
H943 H 0.47759 0.88486 0.36366 0.0
H944 H 0.42889 0.90409 0.49113 0.0
H945 H 0.3796 0.96626 0.53712 0.0
H946 H 0.45376 0.93921 0.38418 0.0
H947 H 0.48635 0.13032 0.46997 0.0
H948 H 0.37991 0.04224 0.53679 0.0
H949 H 0.40362 0.10513 0.52236 0.0
H950 H 0.25418 0.85778 0.43246 0.0
H951 H 0.4445 0.13826 0.4976 0.0
H952 H 0.44426 0.81774 0.36411 0.0
N953 N 0.34162 0.8955 0.41614 0.0
C954 C 0.35452 0.86266 0.40673 0.0
C955 C 0.28267 0.85857 0.42539 0.0
C956 C 0.33239 0.82618 0.40662 0.0
C957 C 0.30515 0.8944 0.4247 0.0
C958 C 0.29659 0.82415 0.41652 0.0
N959 N 0.40869 0.90244 0.39637 0.0
C960 C 0.43945 0.90981 0.38448 0.0
C961 C 0.40109 0.83474 0.38474 0.0
C962 C 0.38857 0.86657 0.39606 0.0
C963 C 0.43384 0.84137 0.37312 0.0
C964 C 0.45279 0.87922 0.37285 0.0
H965 H 0.27873 0.79666 0.41682 0.0
H966 H 0.32934 0.76519 0.39591 0.0
H967 H 0.38935 0.77282 0.37662 0.0
O968 O 0.38439 0.98715 0.38959 0.0
O969 O 0.42988 0.9075 0.42147 0.0
O970 O 0.43983 0.90847 0.45305 0.0
O971 O 0.32997 0.958 0.39728 0.0
O972 O 0.43304 0.99492 0.41102 0.0
O973 O 0.47197 0.96465 0.43214 0.0
O974 O 0.51304 0.98281 0.45443 0.0
O975 O 0.42015 0.02477 0.44697 0.0
O976 O 0.36258 1.00059 0.43223 0.0
O977 O 0.49491 0.9502 0.47823 0.0
O978 O 0.39977 0.93169 0.46092 0.0
O979 O 0.35063 0.95488 0.44138 0.0
C980 C 0.44005 0.88953 0.43708 0.0
C981 C 0.34277 0.96201 0.36512 0.0
C982 C 0.33624 0.97086 0.3314 0.0
C983 C 0.33144 0.92873 0.32988 0.0
C984 C 0.33598 0.92048 0.36265 0.0
C985 C 0.33115 0.90403 0.34527 0.0
C986 C 0.34293 0.98745 0.34926 0.0
C987 C 0.46769 0.99197 0.41961 0.0
C988 C 0.34813 0.9778 0.38431 0.0
C989 C 0.34584 0.79352 0.39608 0.0
C990 C 0.37999 0.79787 0.38507 0.0
C991 C 0.38339 0.02972 0.44028 0.0
C992 C 0.54673 0.99853 0.48177 0.0
C993 C 0.54668 0.04518 0.50767 0.0
C994 C 0.58321 0.0618 0.50158 0.0
C995 C 0.58324 0.01529 0.47585 0.0
C996 C 0.52913 0.01337 0.49775 0.0
C997 C 0.60149 0.04663 0.48582 0.0
C998 C 0.36247 0.94178 0.45779 0.0
C999 C 0.5242 0.96939 0.47032 0.0
H1000 H 0.3276 0.91457 0.31662 0.0
H1001 H 0.33381 0.90042 0.37421 0.0
H1002 H 0.32661 0.8718 0.34374 0.0
H1003 H 0.34707 0.01972 0.35086 0.0
H1004 H 0.59768 0.08624 0.50901 0.0
H1005 H 0.59706 1.00482 0.46335 0.0
H1006 H 0.50049 1.00123 0.50209 0.0
H1007 H 0.62958 0.05962 0.48115 0.0
Tb1008 Tb 0.20507 0.38337 0.44307 0.0
C1009 C 0.25564 0.24079 0.38802 0.0
N1010 N 0.27447 0.27525 0.39318 0.0
C1011 C 0.33634 0.23905 0.39676 0.0
C1012 C 0.27576 0.20353 0.38771 0.0
C1013 C 0.31491 0.27529 0.39664 0.0
C1014 C 0.31646 0.20281 0.39266 0.0
C1015 C 0.19743 0.21027 0.37364 0.0
C1016 C 0.21745 0.24408 0.38115 0.0
C1017 C 0.21592 0.17226 0.37447 0.0
C1018 C 0.25514 0.16888 0.38151 0.0
Tb1019 Tb 0.23646 0.3327 0.39436 0.0
N1020 N 0.20178 0.28153 0.38006 0.0
C1021 C 0.16054 0.21621 0.36474 0.0
C1022 C 0.1675 0.28802 0.37009 0.0
C1023 C 0.14587 0.25542 0.36267 0.0
H1024 H 0.33045 0.30319 0.39976 0.0
H1025 H 0.11806 0.26058 0.35529 0.0
H1026 H 0.1425 0.32502 0.46667 0.0
H1027 H 0.19719 0.54554 0.43636 0.0
H1028 H 0.15628 0.31838 0.36836 0.0
H1029 H 0.14407 0.19106 0.35879 0.0
H1030 H 0.23117 0.47995 0.44022 0.0
H1031 H 0.36813 0.23911 0.40003 0.0
H1032 H 0.2009 0.14571 0.369 0.0
H1033 H 0.26981 0.13979 0.38137 0.0
H1034 H 0.06969 0.32276 0.47356 0.0
H1035 H 0.33312 0.17483 0.39264 0.0
H1036 H 0.12282 0.54873 0.43672 0.0
N1037 N 0.1391 0.38054 0.45214 0.0
C1038 C 0.11644 0.41337 0.44853 0.0
C1039 C 0.0823 0.34826 0.46625 0.0
C1040 C 0.07509 0.41417 0.45256 0.0
C1041 C 0.12339 0.34946 0.4622 0.0
C1042 C 0.05775 0.3803 0.46092 0.0
N1043 N 0.17663 0.4462 0.44188 0.0
C1044 C 0.19875 0.48104 0.44038 0.0
C1045 C 0.11534 0.48452 0.44133 0.0
C1046 C 0.13614 0.44785 0.44318 0.0
C1047 C 0.1376 0.51987 0.43824 0.0
C1048 C 0.17958 0.51821 0.43813 0.0
H1049 H 0.02607 0.3796 0.46427 0.0
H1050 H 0.0213 0.4508 0.452 0.0
H1051 H 0.05668 0.51262 0.44203 0.0
O1052 O 0.25685 0.38047 0.46008 0.0
O1053 O 0.20179 0.41903 0.4167 0.0
O1054 O 0.18325 0.3697 0.39678 0.0
O1055 O 0.20035 0.39796 0.47111 0.0
O1056 O 0.2547 0.41261 0.42807 0.0
O1057 O 0.28187 0.35872 0.41307 0.0
O1058 O 0.25484 0.3878 0.38245 0.0
O1059 O 0.26656 0.31728 0.41999 0.0
O1060 O 0.22041 0.31768 0.44291 0.0
O1061 O 0.25556 0.3332 0.367 0.0
O1062 O 0.17289 0.32365 0.40315 0.0
O1063 O 0.17194 0.32752 0.43486 0.0
C1064 C 0.18521 0.40783 0.40095 0.0
C1065 C 0.25819 0.42046 0.48749 0.0
C1066 C 0.27751 0.44127 0.51891 0.0
C1067 C 0.29422 0.47679 0.51147 0.0
C1068 C 0.2754 0.45611 0.48069 0.0
C1069 C 0.29329 0.48396 0.49261 0.0
C1070 C 0.25969 0.41289 0.50667 0.0
C1071 C 0.28401 0.39652 0.41859 0.0
C1072 C 0.23793 0.39145 0.47481 0.0
C1073 C 0.05326 0.44968 0.4493 0.0
C1074 C 0.07342 0.48489 0.44365 0.0
C1075 C 0.24929 0.29944 0.43382 0.0
C1076 C 0.3095 0.37937 0.36272 0.0
C1077 C 0.37576 0.35539 0.35382 0.0
C1078 C 0.39001 0.39528 0.35319 0.0
C1079 C 0.32419 0.41925 0.36226 0.0
C1080 C 0.33572 0.34774 0.35871 0.0
C1081 C 0.36434 0.42706 0.35765 0.0
C1082 C 0.1557 0.31599 0.41913 0.0
C1083 C 0.2673 0.3707 0.36768 0.0
H1084 H 0.3087 0.49894 0.52026 0.0
H1085 H 0.27497 0.46243 0.46616 0.0
H1086 H 0.30653 0.51138 0.48719 0.0
H1087 H 0.24646 0.38538 0.51205 0.0
H1088 H 0.4206 0.40177 0.34906 0.0
H1089 H 0.30467 0.44425 0.3655 0.0
H1090 H 0.32467 0.31685 0.35871 0.0
H1091 H 0.37541 0.45786 0.35729 0.0
Tb1092 Tb 0.87261 0.95431 0.19725 0.0
C1093 C 0.01672 0.04441 0.15616 0.0
N1094 N 0.97715 0.05057 0.15916 0.0
C1095 C 0.99118 0.11988 0.16676 0.0
C1096 C 0.04554 0.07521 0.15904 0.0
C1097 C 0.96382 0.08837 0.16345 0.0
C1098 C 0.03234 0.11312 0.1648 0.0
C1099 C 0.06822 1.00036 0.14461 0.0
C1100 C 0.02772 1.00802 0.14887 0.0
C1101 C 0.09763 0.02993 0.14842 0.0
C1102 C 0.08624 0.06749 0.15549 0.0
Tb1103 Tb 0.93401 0.99783 0.15296 0.0
N1104 N 0.99814 0.98126 0.1447 0.0
C1105 C 0.07756 0.96395 0.13598 0.0
C1106 C 1.00677 0.9469 0.1352 0.0
C1107 C 0.04658 0.93731 0.13104 0.0
H1108 H 0.93197 0.09382 0.16466 0.0
H1109 H 0.05327 0.90965 0.12384 0.0
H1110 H 0.9118 0.86677 0.21156 0.0
H1111 H 0.71867 0.99313 0.18213 0.0
H1112 H 0.98283 0.92681 0.13083 0.0
H1113 H 0.10831 0.9568 0.1325 0.0
H1114 H 0.78936 1.00691 0.19073 0.0
H1115 H 0.98049 0.14939 0.17069 0.0
H1116 H 0.12898 0.02458 0.1454 0.0
H1117 H 0.10897 0.09057 0.15781 0.0
H1118 H 0.89361 0.79465 0.21004 0.0
H1119 H 0.05351 0.13758 0.16725 0.0
H1120 H 0.69509 0.92264 0.17792 0.0
N1121 N 0.85817 0.88657 0.19841 0.0
C1122 C 0.82034 0.87588 0.19306 0.0
C1123 C 0.87295 0.81713 0.20491 0.0
C1124 C 0.80787 0.83511 0.19268 0.0
C1125 C 0.88363 0.85805 0.2053 0.0
C1126 C 0.83514 0.80551 0.19826 0.0
N1127 N 0.80624 0.9451 0.19011 0.0
C1128 C 0.77963 0.97617 0.18852 0.0
C1129 C 0.75307 0.89678 0.18444 0.0
C1130 C 0.79321 0.90617 0.18909 0.0
C1131 C 0.72624 0.92856 0.1815 0.0
C1132 C 0.73946 0.96841 0.18383 0.0
H1133 H 0.82676 0.77384 0.19818 0.0
H1134 H 0.75823 0.79419 0.18684 0.0
H1135 H 0.71025 0.84825 0.17957 0.0
O1136 O 0.86224 0.99554 0.21882 0.0
O1137 O 0.8451 0.94926 0.16873 0.0
O1138 O 0.90211 0.94083 0.15281 0.0
O1139 O 0.85809 0.9323 0.22356 0.0
O1140 O 0.86466 0.01849 0.19033 0.0
O1141 O 0.87304 0.01836 0.15909 0.0
O1142 O 0.93399 0.99236 0.12405 0.0
O1143 O 0.93893 0.02161 0.18059 0.0
O1144 O 0.93718 0.96991 0.20092 0.0
O1145 O 0.90576 0.04232 0.13732 0.0
O1146 O 0.94858 0.93423 0.16121 0.0
O1147 O 0.92959 0.92166 0.19166 0.0
C1148 C 0.86322 0.93854 0.15337 0.0
C1149 C 0.88284 0.9722 0.2481 0.0
C1150 C 0.8923 0.99377 0.28017 0.0
C1151 C 0.93247 0.98116 0.2792 0.0
C1152 C 0.92307 0.95977 0.2478 0.0
C1153 C 0.94757 0.96419 0.26322 0.0
C1154 C 0.86725 0.98901 0.26448 0.0
C1155 C 0.85973 0.03502 0.1741 0.0
C1156 C 0.85795 0.96766 0.2312 0.0
C1157 C 0.76827 0.82537 0.18737 0.0
C1158 C 0.74092 0.85615 0.18326 0.0
C1159 C 0.95572 1.00144 0.19382 0.0
C1160 C 0.87681 0.02161 0.10947 0.0
C1161 C 0.85274 0.02757 0.07812 0.0
C1162 C 0.81293 0.02832 0.08412 0.0
C1163 C 0.83675 0.02263 0.11554 0.0
C1164 C 0.88429 0.02344 0.09081 0.0
C1165 C 0.80501 0.02543 0.10288 0.0
C1166 C 0.95005 0.91251 0.17666 0.0
C1167 C 0.91168 0.02407 0.12195 0.0
H1168 H 0.95234 0.98447 0.29093 0.0
H1169 H 0.93563 0.94654 0.23558 0.0
H1170 H 0.97858 0.95456 0.26276 0.0
H1171 H 0.83632 0.99895 0.2649 0.0
H1172 H 0.78838 0.03173 0.07444 0.0
H1173 H 0.82992 0.02179 0.12996 0.0
H1174 H 0.91522 0.02389 0.08612 0.0
H1175 H 0.7743 0.0262 0.10766 0.0
Tb1176 Tb 0.31942 0.63432 0.94342 0.0
C1177 C 0.2587 0.7945 0.89814 0.0
N1178 N 0.24263 0.75909 0.90387 0.0
C1179 C 0.18202 0.79326 0.91225 0.0
C1180 C 0.23767 0.83111 0.8997 0.0
C1181 C 0.20414 0.75776 0.91027 0.0
C1182 C 0.19902 0.83021 0.90712 0.0
C1183 C 0.3119 0.82855 0.88177 0.0
C1184 C 0.2949 0.79323 0.88931 0.0
C1185 C 0.29255 0.86571 0.88427 0.0
C1186 C 0.25536 0.86698 0.8932 0.0
Tb1187 Tb 0.28089 0.70236 0.90034 0.0
N1188 N 0.31158 0.75659 0.88671 0.0
C1189 C 0.34671 0.82503 0.87125 0.0
C1190 C 0.34365 0.7526 0.87527 0.0
C1191 C 0.36228 0.78676 0.86774 0.0
H1192 H 0.19048 0.72937 0.91398 0.0
H1193 H 0.38843 0.7835 0.85914 0.0
H1194 H 0.37858 0.68674 0.97125 0.0
H1195 H 0.3241 0.4752 0.9275 0.0
H1196 H 0.35547 0.72302 0.87236 0.0
H1197 H 0.36083 0.85141 0.86522 0.0
H1198 H 0.2915 0.54097 0.93262 0.0
H1199 H 0.15181 0.79205 0.91765 0.0
H1200 H 0.3053 0.89332 0.87877 0.0
H1201 H 0.23998 0.89555 0.89448 0.0
H1202 H 0.4482 0.68295 0.98322 0.0
H1203 H 0.18176 0.85764 0.90854 0.0
H1204 H 0.39709 0.46772 0.93335 0.0
N1205 N 0.38239 0.632 0.95625 0.0
C1206 C 0.40437 0.59867 0.95285 0.0
C1207 C 0.43637 0.6591 0.97457 0.0
C1208 C 0.44403 0.59479 0.95947 0.0
C1209 C 0.39693 0.66111 0.96783 0.0
C1210 C 0.46035 0.62614 0.97007 0.0
N1211 N 0.34588 0.57104 0.9402 0.0
C1212 C 0.32344 0.53817 0.935 0.0
C1213 C 0.40513 0.52975 0.94208 0.0
C1214 C 0.38529 0.56681 0.94441 0.0
C1215 C 0.38302 0.49676 0.93537 0.0
C1216 C 0.34179 0.50083 0.93212 0.0
H1217 H 0.49073 0.62442 0.97543 0.0
H1218 H 0.49583 0.5555 0.96086 0.0
H1219 H 0.46168 0.49837 0.94553 0.0
O1220 O 0.26822 0.64432 0.95988 0.0
O1221 O 0.31934 0.60722 0.91505 0.0
O1222 O 0.33277 0.6635 0.89841 0.0
O1223 O 0.31484 0.60534 0.96915 0.0
O1224 O 0.26879 0.61223 0.92642 0.0
O1225 O 0.23893 0.67199 0.91917 0.0
O1226 O 0.25894 0.65123 0.886 0.0
O1227 O 0.2609 0.70932 0.92823 0.0
O1228 O 0.31388 0.70079 0.94733 0.0
O1229 O 0.25504 0.71014 0.87431 0.0
O1230 O 0.34562 0.71374 0.90778 0.0
O1231 O 0.36361 0.68188 0.93548 0.0
C1232 C 0.33051 0.62431 0.89942 0.0
C1233 C 0.28169 0.64328 0.99204 0.0
C1234 C 0.2647 0.64597 1.02502 0.0
C1235 C 0.28406 0.68386 1.02591 0.0
C1236 C 0.29997 0.6814 0.99372 0.0
C1237 C 0.30139 0.70126 1.01048 0.0
C1238 C 0.26414 0.62524 1.0079 0.0
C1239 C 0.23671 0.63261 0.92151 0.0
C1240 C 0.28171 0.62322 0.97368 0.0
C1241 C 0.46512 0.55896 0.95612 0.0
C1242 C 0.44567 0.52643 0.94739 0.0
C1243 C 0.28516 0.72374 0.94064 0.0
C1244 C 0.19997 0.66575 0.8691 0.0
C1245 C 0.13562 0.69143 0.85798 0.0
C1246 C 0.11814 0.65319 0.86043 0.0
C1247 C 0.18207 0.62754 0.87153 0.0
C1248 C 0.17635 0.69742 0.86242 0.0
C1249 C 0.14128 0.62149 0.86739 0.0
C1250 C 0.37109 0.70698 0.92167 0.0
C1251 C 0.24317 0.67277 0.8731 0.0
H1252 H 0.28565 0.70038 1.0387 0.0
H1253 H 0.31321 0.69608 0.98201 0.0
H1254 H 0.31584 0.73058 1.0115 0.0
H1255 H 0.24949 0.59601 1.00684 0.0
H1256 H 0.08697 0.6478 0.85673 0.0
H1257 H 0.19957 0.60237 0.87657 0.0
H1258 H 0.19007 0.7267 0.85991 0.0
H1259 H 0.12776 0.59197 0.86931 0.0
Tb1260 Tb 0.55839 0.03441 0.65307 0.0
C1261 C 0.69622 0.13583 0.68931 0.0
N1262 N 0.69284 0.09509 0.689 0.0
C1263 C 0.76246 0.08981 0.68093 0.0
C1264 C 0.73251 0.15549 0.68477 0.0
C1265 C 0.72585 0.0718 0.68577 0.0
C1266 C 0.76564 0.13188 0.68011 0.0
C1267 C 0.66733 0.19952 0.69826 0.0
C1268 C 0.66421 0.15741 0.69584 0.0
C1269 C 0.70236 0.21984 0.69257 0.0
C1270 C 0.73495 0.19782 0.68583 0.0
Tb1271 Tb 0.63041 0.06875 0.69495 0.0
N1272 N 0.63164 0.13639 0.70165 0.0
C1273 C 0.63614 0.21945 0.7072 0.0
C1274 C 0.60311 0.15504 0.71197 0.0
C1275 C 0.60433 0.19694 0.71448 0.0
H1276 H 0.7235 0.0393 0.68622 0.0
H1277 H 0.58085 0.21178 0.72207 0.0
H1278 H 0.54523 0.93694 0.65812 0.0
H1279 H 0.54974 0.12717 0.59236 0.0
H1280 H 0.57874 0.13765 0.71785 0.0
H1281 H 0.63728 0.25181 0.70931 0.0
H1282 H 0.54601 0.113 0.62543 0.0
H1283 H 0.78818 0.07125 0.67783 0.0
H1284 H 0.70518 0.25228 0.69406 0.0
H1285 H 0.76239 0.21362 0.68217 0.0
H1286 H 0.54593 0.87553 0.63873 0.0
H1287 H 0.7941 0.14577 0.67651 0.0
H1288 H 0.5605 0.07137 0.57044 0.0
N1289 N 0.55691 0.97678 0.63598 0.0
C1290 C 0.56112 0.9808 0.61768 0.0
C1291 C 0.55047 0.90498 0.63263 0.0
C1292 C 0.56138 0.94699 0.60602 0.0
C1293 C 0.55009 0.93969 0.64356 0.0
C1294 C 0.55676 0.90859 0.61379 0.0
N1295 N 0.55778 0.0502 0.62252 0.0
C1296 C 0.5517 0.08847 0.6161 0.0
C1297 C 0.56274 0.02555 0.59158 0.0
C1298 C 0.56169 0.01919 0.61064 0.0
C1299 C 0.55958 0.06507 0.58499 0.0
C1300 C 0.55343 0.09661 0.59731 0.0
H1301 H 0.55677 0.88174 0.60532 0.0
H1302 H 0.56518 0.92728 0.57778 0.0
H1303 H 0.56642 0.99633 0.56509 0.0
O1304 O 0.49907 0.01785 0.64617 0.0
O1305 O 0.60844 0.99136 0.65808 0.0
O1306 O 0.65209 0.01322 0.68165 0.0
O1307 O 0.51059 0.05745 0.66868 0.0
O1308 O 0.60428 0.07832 0.64602 0.0
O1309 O 0.65726 0.06911 0.66643 0.0
O1310 O 0.63379 0.02035 0.71391 0.0
O1311 O 0.57337 0.09958 0.68821 0.0
O1312 O 0.56713 0.09997 0.65716 0.0
O1313 O 0.65099 0.07985 0.72197 0.0
O1314 O 0.56697 0.05075 0.69923 0.0
O1315 O 0.56874 1.0019 0.67846 0.0
C1316 C 0.64153 0.98781 0.66837 0.0
C1317 C 0.45454 0.07228 0.6504 0.0
C1318 C 0.42709 0.10818 0.6241 0.0
C1319 C 0.40663 0.13434 0.63577 0.0
C1320 C 0.43344 0.09816 0.66208 0.0
C1321 C 0.40951 0.12896 0.65476 0.0
C1322 C 0.45065 0.07728 0.63145 0.0
C1323 C 0.64291 0.0776 0.64977 0.0
C1324 C 0.48333 0.04271 0.65783 0.0
C1325 C 0.56455 0.95284 0.58701 0.0
C1326 C 0.56527 0.99214 0.57979 0.0
C1327 C 0.56643 0.11931 0.67288 0.0
C1328 C 0.67791 0.02611 0.73986 0.0
C1329 C 0.70071 1.00557 0.77086 0.0
C1330 C 0.73855 0.99689 0.76336 0.0
C1331 C 0.71597 0.01685 0.73304 0.0
C1332 C 0.67019 0.02 0.75883 0.0
C1333 C 0.74594 1.00231 0.7447 0.0
C1334 C 0.55371 0.01546 0.69357 0.0
C1335 C 0.64647 0.04279 0.7274 0.0
H1336 H 0.38863 0.15864 0.63025 0.0
H1337 H 0.43618 0.09509 0.6768 0.0
H1338 H 0.39366 0.14908 0.66383 0.0
H1339 H 0.46708 0.05793 0.6222 0.0
H1340 H 0.7625 0.98516 0.77191 0.0
H1341 H 0.72253 0.02092 0.71867 0.0
H1342 H 0.64081 0.02709 0.76422 0.0
H1343 H 0.77521 0.99516 0.73924 0.0
H1344 H 0.30708 0.14605 0.32385 0.0
H1345 H 0.3973 0.28675 0.37193 0.0
H1346 H 0.37154 0.18492 0.27573 0.0
H1347 H 0.40449 0.34553 0.31947 0.0
H1348 H 0.40185 0.22124 0.35675 0.0
H1349 H 0.35076 0.18756 0.34249 0.0
C1350 C 0.3313 0.16223 0.31718 0.0
C1351 C 0.33469 0.16273 0.29804 0.0
C1352 C 0.40341 0.24842 0.34855 0.0
C1353 C 0.38534 0.21126 0.31956 0.0
C1354 C 0.40166 0.2858 0.35726 0.0
C1355 C 0.39918 0.32123 0.34681 0.0
C1356 C 0.40162 0.24694 0.32933 0.0
C1357 C 0.40548 0.31868 0.32793 0.0
C1358 C 0.35666 0.18606 0.32796 0.0
C1359 C 0.36666 0.18485 0.29036 0.0
N1360 N 0.40503 0.28197 0.31967 0.0
N1361 N 0.38997 0.20917 0.30108 0.0
H1362 H 0.37902 0.40677 0.54916 0.0
H1363 H 0.60408 0.34637 0.53715 0.0
H1364 H 0.47737 0.42649 0.58715 0.0
H1365 H 0.51862 0.35916 0.49297 0.0
H1366 H 0.54855 0.34054 0.55862 0.0
H1367 H 0.42091 0.35956 0.53239 0.0
C1368 C 0.40884 0.40066 0.55434 0.0
C1369 C 0.42453 0.42161 0.56957 0.0
C1370 C 0.54184 0.34304 0.54413 0.0
C1371 C 0.47237 0.3667 0.55055 0.0
C1372 C 0.5736 0.34589 0.53183 0.0
C1373 C 0.56576 0.35493 0.51342 0.0
C1374 C 0.50241 0.34991 0.53789 0.0
C1375 C 0.52572 0.35357 0.50724 0.0
C1376 C 0.43261 0.37327 0.54481 0.0
C1377 C 0.46328 0.41125 0.57571 0.0
N1378 N 0.49537 0.35274 0.51956 0.0
N1379 N 0.48594 0.38512 0.56604 0.0
H1380 H 0.14404 0.84653 0.76893 0.0
H1381 H 0.10206 0.68953 0.82401 0.0
H1382 H 0.20913 0.8855 0.81721 0.0
H1383 H 0.12438 0.76855 0.86979 0.0
H1384 H 0.09962 0.74782 0.80385 0.0
H1385 H 0.09884 0.80728 0.78834 0.0
C1386 C 0.14877 0.84704 0.7836 0.0
C1387 C 0.18162 0.86806 0.79135 0.0
C1388 C 0.10296 0.75299 0.81839 0.0
C1389 C 0.12995 0.82319 0.81363 0.0
C1390 C 0.10413 0.71944 0.82996 0.0
C1391 C 0.11453 0.72439 0.84843 0.0
C1392 C 0.11273 0.79138 0.82549 0.0
C1393 C 0.11711 0.76366 0.85549 0.0
C1394 C 0.1228 0.82468 0.79468 0.0
C1395 C 0.18482 0.86932 0.81049 0.0
N1396 N 0.11768 0.79566 0.8439 0.0
N1397 N 0.15981 0.84659 0.82092 0.0
H1398 H 1.0037 0.33638 1.01387 0.0
H1399 H 0.98402 0.51847 0.07631 0.0
H1400 H 0.10239 0.41956 1.02198 0.0
H1401 H 0.94583 0.4054 0.10029 0.0
H1402 H 0.01873 0.48127 1.05255 0.0
H1403 H 0.97707 0.35571 1.04393 0.0
C1404 C 0.0209 0.35701 1.02242 0.0
C1405 C 0.05505 0.37675 1.0155 0.0
C1406 C 1.00284 0.46463 0.06307 0.0
C1407 C 0.02377 0.40036 1.04893 0.0
C1408 C 0.98288 0.48578 0.07658 0.0
C1409 C 0.96255 0.46501 0.09051 0.0
C1410 C 1.00212 0.42235 0.06324 0.0
C1411 C 0.96109 0.42257 0.08978 0.0
C1412 C 1.00539 0.36844 1.03938 0.0
C1413 C 0.07585 0.4039 1.02687 0.0
N1414 N 0.98069 0.40243 0.0763 0.0
N1415 N 0.05911 0.41602 1.04278 0.0
H1416 H 0.90021 0.76798 0.86997 0.0
H1417 H 0.84168 0.72526 0.77317 0.0
H1418 H 0.92578 0.84899 0.8253 0.0
H1419 H 0.85263 0.62868 0.81268 0.0
H1420 H 0.89128 0.76334 0.7897 0.0
H1421 H 0.90433 0.71098 0.84897 0.0
C1422 C 0.90863 0.77358 0.85588 0.0
C1423 C 0.91082 0.81323 0.84913 0.0
C1424 C 0.88371 0.7334 0.79462 0.0
C1425 C 0.91445 0.74858 0.825 0.0
C1426 C 0.85524 0.71102 0.78493 0.0
C1427 C 0.84173 0.67335 0.79146 0.0
C1428 C 0.89761 0.71929 0.81159 0.0
C1429 C 0.86048 0.65807 0.80733 0.0
C1430 C 0.91076 0.74101 0.84384 0.0
C1431 C 0.92267 0.8189 0.83094 0.0
N1432 N 0.88646 0.68159 0.81716 0.0
N1433 N 0.92261 0.78697 0.81932 0.0
H1434 H 0.88201 0.26348 0.23853 0.0
H1435 H 0.80073 0.127 0.29338 0.0
H1436 H 0.8955 0.33132 0.28849 0.0
H1437 H 0.86737 0.17849 0.33873 0.0
H1438 H 0.83995 0.16739 0.27251 0.0
H1439 H 0.88657 0.20082 0.25607 0.0
C1440 C 0.88753 0.26504 0.25315 0.0
C1441 C 0.88747 0.30234 0.26222 0.0
C1442 C 0.84728 0.16907 0.28693 0.0
C1443 C 0.88961 0.23129 0.28245 0.0
C1444 C 0.82449 0.14589 0.29898 0.0
C1445 C 0.82976 0.15014 0.31795 0.0
C1446 C 0.87531 0.19724 0.29387 0.0
C1447 C 0.86101 0.17547 0.32425 0.0
C1448 C 0.88924 0.22932 0.26322 0.0
C1449 C 0.89491 0.303 0.28109 0.0
N1450 N 0.88184 0.19889 0.31227 0.0
N1451 N 0.89446 0.26789 0.2907 0.0
H1452 H 0.86434 0.09986 0.06152 0.0
H1453 H 0.06455 0.99086 1.05298 0.0
H1454 H 0.87206 0.97196 1.05245 0.0
H1455 H 0.05532 0.10329 1.02361 0.0
H1456 H 0.99188 0.99115 0.05752 0.0
H1457 H 0.92997 0.10889 1.0471 0.0
C1458 C 0.87851 0.07395 0.0553 0.0
C1459 C 0.86427 0.03482 0.05908 0.0
C1460 C 1.00589 0.01609 1.0503 0.0
C1461 C 0.9388 0.04465 1.04336 0.0
C1462 C 0.04736 0.01659 1.04828 0.0
C1463 C 0.06561 0.04721 1.03806 0.0
C1464 C 0.98281 0.04677 1.04229 0.0
C1465 C 0.04201 0.07947 1.03178 0.0
C1466 C 0.91643 0.07905 1.04752 0.0
C1467 C 0.88304 1.00245 1.05041 0.0
N1468 N 1.00145 0.07838 1.03391 0.0
N1469 N 0.92071 1.00767 1.04384 0.0
H1470 H 0.5379 0.12434 0.51868 0.0
H1471 H 0.39137 0.05886 0.59946 0.0
H1472 H 0.5062 1.00201 0.53362 0.0
H1473 H 0.46602 0.16524 0.60394 0.0
H1474 H 0.41489 0.04918 0.56818 0.0
H1475 H 0.49756 0.14881 0.54449 0.0
C1476 C 0.52276 0.10267 0.52739 0.0
C1477 C 0.52536 0.06104 0.52391 0.0
C1478 C 0.42508 0.07546 0.57577 0.0
C1479 C 0.47811 0.08886 0.55267 0.0
C1480 C 0.41122 0.08127 0.59346 0.0
C1481 C 0.42689 0.11283 0.60411 0.0
C1482 C 0.45494 0.10128 0.56881 0.0
C1483 C 0.45314 0.14075 0.59597 0.0
C1484 C 0.49937 0.11669 0.54188 0.0
C1485 C 0.50452 0.03437 0.53547 0.0
N1486 N 0.4671 0.1339 0.5788 0.0
N1487 N 0.48169 0.04874 0.54922 0.0
H1488 H 0.23107 0.07377 0.96792 0.0
H1489 H 0.18435 0.13304 0.07284 0.0
H1490 H 0.11896 0.12257 0.98681 0.0
H1491 H 0.30577 0.12471 1.05331 0.0
H1492 H 0.15962 0.11916 1.04171 0.0
H1493 H 0.25957 0.08438 0.999 0.0
C1494 C 0.2126 0.08717 0.97841 0.0
C1495 C 0.17234 0.09708 0.97455 0.0
C1496 C 0.19174 0.11957 1.04423 0.0
C1497 C 0.20442 0.10826 1.01035 0.0
C1498 C 0.20581 0.12702 0.06212 0.0
C1499 C 0.2472 0.12936 0.06585 0.0
C1500 C 0.21909 0.11375 1.02981 0.0
C1501 C 0.2736 0.12254 1.05114 0.0
C1502 C 0.22877 0.0929 0.99622 0.0
C1503 C 0.14989 0.11386 0.98897 0.0
N1504 N 0.25921 0.11496 1.03386 0.0
N1505 N 0.16596 0.11849 1.00603 0.0
H1506 H 0.69123 0.54094 0.31208 0.0
H1507 H 0.61552 0.39577 0.23041 0.0
H1508 H 0.59748 0.45112 0.3161 0.0
H1509 H 0.72276 0.46824 0.22459 0.0
H1510 H 0.60706 0.42169 0.26121 0.0
H1511 H 0.70421 0.51841 0.28035 0.0
C1512 C 0.67416 0.51581 0.30648 0.0
C1513 C 0.64352 0.49753 0.31688 0.0
C1514 C 0.63234 0.43249 0.25328 0.0
C1515 C 0.65715 0.47261 0.28042 0.0
C1516 C 0.63692 0.41797 0.23551 0.0
C1517 C 0.6697 0.42998 0.22474 0.0
C1518 C 0.66084 0.45943 0.26076 0.0
C1519 C 0.69664 0.45862 0.23226 0.0
C1520 C 0.68122 0.50331 0.28829 0.0
C1521 C 0.62161 0.46585 0.30872 0.0
N1522 N 0.69182 0.47215 0.24987 0.0
N1523 N 0.62866 0.45472 0.29111 0.0
H1524 H 0.24143 0.94988 0.56592 0.0
H1525 H 0.32013 0.99783 0.47768 0.0
H1526 H 0.29834 0.83517 0.55708 0.0
H1527 H 0.34499 0.8708 0.4745 0.0
H1528 H 0.29138 0.98738 0.50826 0.0
H1529 H 0.26125 0.97063 0.53487 0.0
C1530 C 0.25864 0.92929 0.55761 0.0
C1531 C 0.26783 0.8905 0.56427 0.0
C1532 C 0.30182 0.96144 0.50075 0.0
C1533 C 0.29039 0.91379 0.52829 0.0
C1534 C 0.31783 0.96743 0.48308 0.0
C1535 C 0.33403 0.93496 0.47325 0.0
C1536 C 0.30235 0.9226 0.50876 0.0
C1537 C 0.33206 0.89655 0.48136 0.0
C1538 C 0.26979 0.94105 0.53971 0.0
C1539 C 0.28987 0.86511 0.55262 0.0
N1540 N 0.31697 0.89159 0.49854 0.0
N1541 N 0.29995 0.87702 0.53538 0.0
H1542 H 0.88494 0.63067 0.73685 0.0
H1543 H 0.76956 0.50579 0.81333 0.0
H1544 H 0.78311 0.55461 0.72393 0.0
H1545 H 0.89049 0.55007 0.82135 0.0
H1546 H 0.77459 0.52143 0.78064 0.0
H1547 H 0.88872 0.59995 0.7673 0.0
C1548 C 0.86397 0.60666 0.74025 0.0
C1549 C 0.83396 0.59494 0.72762 0.0
C1550 C 0.80031 0.52719 0.78944 0.0
C1551 C 0.83723 0.56035 0.76304 0.0
C1552 C 0.79745 0.51835 0.80819 0.0
C1553 C 0.82962 0.52669 0.82029 0.0
C1554 C 0.83533 0.54549 0.78254 0.0
C1555 C 0.86498 0.54283 0.81265 0.0
C1556 C 0.86607 0.58921 0.75773 0.0
C1557 C 0.80715 0.5642 0.73303 0.0
N1558 N 0.86663 0.55229 0.79442 0.0
N1559 N 0.80896 0.54856 0.75039 0.0
H1560 H 0.89812 0.91669 0.12141 0.0
H1561 H 0.70365 0.88932 0.0588 0.0
H1562 H 0.78086 0.94146 0.14357 0.0
H1563 H 0.82247 0.91061 1.03764 0.0
H1564 H 0.72847 0.90565 0.08975 0.0
H1565 H 0.86872 0.9096 0.0913 0.0
C1566 C 0.86595 0.92066 0.12008 0.0
C1567 C 0.84225 0.93052 0.13536 0.0
C1568 C 0.74896 0.90738 0.07832 0.0
C1569 C 0.80771 0.92113 0.10004 0.0
C1570 C 0.73483 0.8982 0.06059 0.0
C1571 C 0.76097 0.89864 1.04545 0.0
C1572 C 0.78987 0.91623 0.08114 0.0
C1573 C 0.80106 0.91016 1.04874 0.0
C1574 C 0.84916 0.91658 0.10264 0.0
C1575 C 0.80054 0.93413 0.13234 0.0
N1576 N 0.81429 0.91782 0.06616 0.0
N1577 N 0.78458 0.92929 0.11505 0.0
H1578 H 0.33629 0.54092 0.89262 0.0
H1579 H 0.34819 0.5731 0.78302 0.0
H1580 H 0.33357 0.65613 0.86506 0.0
H1581 H 0.38504 0.46236 0.80894 0.0
H1582 H 0.33039 0.59997 0.81319 0.0
H1583 H 0.34396 0.50793 0.86242 0.0
C1584 C 0.33713 0.5593 0.88037 0.0
C1585 C 0.33451 0.6016 0.88164 0.0
C1586 C 0.34198 0.56958 0.81229 0.0
C1587 C 0.34256 0.56402 0.84698 0.0
C1588 C 0.35173 0.55407 0.79498 0.0
C1589 C 0.36841 0.51546 0.79332 0.0
C1590 C 0.34856 0.54632 0.82822 0.0
C1591 C 0.37268 0.49247 0.80951 0.0
C1592 C 0.3415 0.54047 0.86311 0.0
C1593 C 0.33582 0.62361 0.86509 0.0
N1594 N 0.36311 0.50823 0.8262 0.0
N1595 N 0.33954 0.60474 0.84868 0.0
H1596 H 0.6926 0.12496 0.53679 0.0
H1597 H 0.71989 0.05064 0.64048 0.0
H1598 H 0.8119 0.11518 0.55952 0.0
H1599 H 0.62528 0.12966 0.62229 0.0
H1600 H 0.75337 0.0607 0.61052 0.0
H1601 H 0.66473 0.10946 0.56713 0.0
C1602 C 0.71293 0.11841 0.54803 0.0
C1603 C 0.75464 0.12108 0.54553 0.0
C1604 C 0.7253 0.07583 0.61323 0.0
C1605 C 0.72296 0.1037 0.58048 0.0
C1606 C 0.70647 0.0705 0.63041 0.0
C1607 C 0.66929 0.08883 0.63393 0.0
C1608 C 0.70635 0.09893 0.59945 0.0
C1609 C 0.65324 0.11393 0.62015 0.0
C1610 C 0.69706 0.11006 0.56542 0.0
C1611 C 0.77954 0.11314 0.56081 0.0
N1612 N 0.67133 0.11763 0.6036 0.0
N1613 N 0.76342 0.10481 0.57759 0.0
H1614 H 0.11506 0.40969 0.38238 0.0
H1615 H 0.20664 0.51443 0.29293 0.0
H1616 H 0.2316 0.467 0.38365 0.0
H1617 H 0.08415 0.47317 0.29804 0.0
H1618 H 0.21624 0.50362 0.32619 0.0
H1619 H 0.10239 0.43915 0.35234 0.0
C1620 C 0.13758 0.42963 0.37655 0.0
C1621 C 0.17419 0.43621 0.38579 0.0
C1622 C 0.18707 0.49764 0.32007 0.0
C1623 C 0.16072 0.4689 0.35044 0.0
C1624 C 0.18149 0.50412 0.30107 0.0
C1625 C 0.14449 0.49468 0.29254 0.0
C1626 C 0.15544 0.48151 0.33066 0.0
C1627 C 0.11325 0.48073 0.30388 0.0
C1628 C 0.13054 0.44615 0.35919 0.0
C1629 C 0.20264 0.46158 0.37722 0.0
N1630 N 0.11954 0.4743 0.3221 0.0
N1631 N 0.19565 0.47636 0.35993 0.0
H1632 H 0.69353 0.60176 0.57706 0.0
H1633 H 0.72881 0.58895 0.46781 0.0
H1634 H 0.80384 0.64137 0.55192 0.0
H1635 H 0.61347 0.58002 0.49423 0.0
H1636 H 0.76033 0.59918 0.49825 0.0
H1637 H 0.66759 0.58263 0.54671 0.0
C1638 C 0.71264 0.60569 0.56524 0.0
C1639 C 0.75087 0.62349 0.56717 0.0
C1640 C 0.7281 0.59484 0.49728 0.0
C1641 C 0.72108 0.60209 0.53207 0.0
C1642 C 0.7101 0.58903 0.47987 0.0
C1643 C 0.6682 0.58383 0.4782 0.0
C1644 C 0.70415 0.59485 0.51318 0.0
C1645 C 0.64571 0.58421 0.49452 0.0
C1646 C 0.69767 0.59517 0.54783 0.0
C1647 C 0.774 0.62818 0.55114 0.0
N1648 N 0.66381 0.58942 0.5111 0.0
N1649 N 0.75877 0.61783 0.53436 0.0
H1650 H 0.18847 0.04557 0.80827 0.0
H1651 H 0.12117 0.8886 0.72956 0.0
H1652 H 0.09869 0.95219 0.81397 0.0
H1653 H 0.22224 0.96882 0.722 0.0
H1654 H 0.10965 0.91806 0.75949 0.0
H1655 H 0.20076 0.02241 0.77659 0.0
C1656 C 0.17207 0.01965 0.80303 0.0
C1657 C 0.14287 1.00043 0.81392 0.0
C1658 C 0.13413 0.92984 0.75133 0.0
C1659 C 0.15558 0.9748 0.77748 0.0
C1660 C 0.14049 0.91321 0.73406 0.0
C1661 C 0.17247 0.92644 0.72307 0.0
C1662 C 0.16017 0.95995 0.75812 0.0
C1663 C 0.19677 0.95815 0.72984 0.0
C1664 C 0.1786 1.00687 0.78485 0.0
C1665 C 0.12175 0.96767 0.8062 0.0
N1666 N 0.19038 0.97358 0.74701 0.0
N1667 N 0.12838 0.95616 0.78861 0.0
H1668 H 0.81595 0.34112 0.06478 0.0
H1669 H 0.82321 0.49691 0.98092 0.0
H1670 H 0.74307 0.44799 0.06608 0.0
H1671 H 0.85212 0.37079 0.97729 0.0
H1672 H 0.7978 0.48531 1.01228 0.0
H1673 H 0.83732 0.35855 1.03388 0.0
C1674 C 0.80486 0.36871 0.05865 0.0
C1675 C 0.77748 0.39296 0.06816 0.0
C1676 C 0.80873 0.46003 1.00442 0.0
C1677 C 0.80147 0.41297 1.03214 0.0
C1678 C 0.82255 0.46649 0.98638 0.0
C1679 C 0.83856 0.43446 0.97616 0.0
C1680 C 0.81182 0.42143 1.01242 0.0
C1681 C 0.83899 0.39613 0.98439 0.0
C1682 C 0.8168 0.37847 1.04086 0.0
C1683 C 0.76438 0.42849 0.05938 0.0
N1684 N 0.82631 0.39084 1.00192 0.0
N1685 N 0.77627 0.43732 1.04184 0.0
H1686 H 0.37353 0.13432 0.23842 0.0
H1687 H 0.28145 0.96239 0.30339 0.0
H1688 H 0.28299 0.04951 0.22017 0.0
H1689 H 0.38399 0.03514 0.31907 0.0
H1690 H 0.28142 0.99436 0.2733 0.0
H1691 H 0.37869 0.09808 0.26746 0.0
C1692 C 0.35509 0.10758 0.24038 0.0
C1693 C 0.32788 0.09496 0.22662 0.0
C1694 C 0.30409 1.00333 0.28322 0.0
C1695 C 0.33314 0.05339 0.26047 0.0
C1696 C 0.30408 0.98519 0.30056 0.0
C1697 C 0.33313 0.9955 0.31398 0.0
C1698 C 0.33308 0.03279 0.27895 0.0
C1699 C 0.36092 0.02607 0.30937 0.0
C1700 C 0.35806 0.08691 0.25709 0.0
C1701 C 0.3047 0.0602 0.23018 0.0
N1702 N 0.36025 0.04346 0.29231 0.0
N1703 N 0.30754 0.041 0.24678 0.0
H1704 H 0.2993 0.481 0.63717 0.0
H1705 H 0.30094 0.37313 0.53807 0.0
H1706 H 0.37384 0.37944 0.62402 0.0
H1707 H 0.26031 0.49487 0.54655 0.0
H1708 H 0.31394 0.36729 0.57116 0.0
H1709 H 0.27131 0.47881 0.60582 0.0
C1710 C 0.30876 0.45739 0.62793 0.0
C1711 C 0.33877 0.43014 0.63336 0.0
C1712 C 0.30157 0.39508 0.56582 0.0
C1713 C 0.30693 0.42749 0.59734 0.0
C1714 C 0.2939 0.39834 0.54689 0.0
C1715 C 0.27986 0.43469 0.53933 0.0
C1716 C 0.29455 0.42815 0.57747 0.0
C1717 C 0.27169 0.46642 0.55161 0.0
C1718 C 0.29313 0.45643 0.60995 0.0
C1719 C 0.35059 0.40087 0.62053 0.0
N1720 N 0.27919 0.46246 0.56993 0.0
N1721 N 0.33479 0.40035 0.60324 0.0
H1722 H 0.92054 0.06336 0.29522 0.0
H1723 H 0.80187 0.04577 0.39087 0.0
H1724 H 0.83561 0.96729 0.30527 0.0
H1725 H 0.88989 0.13716 0.37758 0.0
H1726 H 0.81419 0.01378 0.36082 0.0
H1727 H 0.90824 0.0898 0.32581 0.0
C1728 C 0.89875 0.04816 0.30383 0.0
C1729 C 0.8788 0.01331 0.29755 0.0
C1730 C 0.83115 0.04052 0.36465 0.0
C1731 C 0.86524 0.0428 0.33323 0.0
C1732 C 0.8244 0.05854 0.38189 0.0
C1733 C 0.84493 0.09422 0.38684 0.0
C1734 C 0.85858 0.05836 0.35233 0.0
C1735 C 0.87319 0.10982 0.37442 0.0
C1736 C 0.892 0.063 0.32144 0.0
C1737 C 0.8512 0.9946 0.30945 0.0
N1738 N 0.87891 0.09207 0.35788 0.0
N1739 N 0.84535 0.00943 0.32674 0.0
H1740 H 0.18782 0.5277 0.12837 0.0
H1741 H 0.21106 0.6862 1.04602 0.0
H1742 H 0.16602 0.65526 0.13238 0.0
H1743 H 0.27317 0.57269 1.04383 0.0
H1744 H 0.18775 0.66965 0.07666 0.0
H1745 H 0.21613 0.53863 0.09746 0.0
C1746 C 0.19045 0.55814 0.12308 0.0
C1747 C 0.17527 0.59077 0.13319 0.0
C1748 C 0.20634 0.64808 0.06957 0.0
C1749 C 0.20586 0.60329 0.09751 0.0
C1750 C 0.21943 0.65741 1.0519 0.0
C1751 C 0.2444 0.631 1.04219 0.0
C1752 C 0.21793 0.61176 0.07798 0.0
C1753 C 0.25384 0.59395 1.05068 0.0
C1754 C 0.20604 0.5643 0.10531 0.0
C1755 C 0.17789 0.62932 0.12526 0.0
N1756 N 0.24081 0.5855 0.06809 0.0
N1757 N 0.19236 0.63436 0.108 0.0
H1758 H 0.63629 0.96876 0.78824 0.0
H1759 H 0.73816 0.97121 0.88911 0.0
H1760 H 0.75069 0.02542 0.79984 0.0
H1761 H 0.64022 0.89252 0.87335 0.0
H1762 H 0.73683 1.00097 0.8581 0.0
H1763 H 0.63087 0.9503 0.82075 0.0
C1764 C 0.65998 0.97793 0.79762 0.0
C1765 C 0.69412 0.9985 0.79108 0.0
C1766 C 0.71519 0.97764 0.86154 0.0
C1767 C 0.68822 0.97721 0.82862 0.0
C1768 C 0.71565 0.96099 0.87935 0.0
C1769 C 0.68911 0.92939 0.88396 0.0
C1770 C 0.68761 0.96306 0.84827 0.0
C1771 C 0.66121 0.91684 0.87048 0.0
C1772 C 0.65704 0.96709 0.81622 0.0
C1773 C 0.724 0.00911 0.80408 0.0
N1774 N 0.66127 0.93349 0.8534 0.0
N1775 N 0.72042 0.99833 0.82206 0.0
H1776 H 0.38728 0.26069 0.16336 0.0
H1777 H 0.61145 0.25351 0.20455 0.0
H1778 H 0.41596 0.19923 0.2137 0.0
H1779 H 0.57188 0.34781 0.16813 0.0
H1780 H 0.54232 0.22737 0.2056 0.0
H1781 H 0.45661 0.28693 0.16226 0.0
C1782 C 0.40816 0.25268 0.17418 0.0
C1783 C 0.39567 0.22756 0.1886 0.0
C1784 C 0.54881 0.25372 0.19731 0.0
C1785 C 0.47552 0.25735 0.18738 0.0
C1786 C 0.58841 0.26883 0.19675 0.0
C1787 C 0.59807 0.30312 0.18621 0.0
C1788 C 0.5183 0.2725 0.18703 0.0
C1789 C 0.56654 0.32092 0.17614 0.0
C1790 C 0.44775 0.26778 0.17358 0.0
C1791 C 0.4241 0.21857 0.20234 0.0
N1792 N 0.52838 0.30541 0.17675 0.0
N1793 N 0.4626 0.23309 0.20131 0.0
H1794 H 0.53401 0.65332 0.40756 0.0
H1795 H 0.44362 0.83634 0.46584 0.0
H1796 H 0.5361 0.6558 0.46647 0.0
H1797 H 0.47202 0.84569 0.40856 0.0
H1798 H 0.46994 0.76748 0.46604 0.0
H1799 H 0.5036 0.72029 0.40731 0.0
C1800 C 0.5284 0.66805 0.42047 0.0
C1801 C 0.53862 0.64905 0.43704 0.0
C1802 C 0.47009 0.78444 0.45336 0.0
C1803 C 0.50232 0.72577 0.43691 0.0
C1804 C 0.45506 0.82389 0.45321 0.0
C1805 C 0.45482 0.84693 0.43701 0.0
C1806 C 0.48503 0.76748 0.43718 0.0
C1807 C 0.47022 0.82887 0.42117 0.0
C1808 C 0.51064 0.70625 0.42032 0.0
C1809 C 0.52868 0.66901 0.45336 0.0
N1810 N 0.48456 0.79037 0.42163 0.0
N1811 N 0.51129 0.70625 0.45288 0.0
H1812 H 0.9116 0.72046 0.71922 0.0
H1813 H 0.09955 0.79039 0.65788 0.0
H1814 H 0.90601 0.7336 0.66063 0.0
H1815 H 0.09912 0.80142 0.71659 0.0
H1816 H 0.03 0.76597 0.65879 0.0
H1817 H 0.98052 0.74757 0.7189 0.0
C1818 C 0.92453 0.7295 0.7063 0.0
C1819 C 0.90271 0.72439 0.6899 0.0
C1820 C 0.04504 0.77369 0.67151 0.0
C1821 C 0.98253 0.75453 0.68936 0.0
C1822 C 0.08483 0.78799 0.67098 0.0
C1823 C 0.10547 0.79854 0.68714 0.0
C1824 C 0.02535 0.76939 0.6884 0.0
C1825 C 0.08491 0.79322 0.70377 0.0
C1826 C 0.96419 0.7446 0.7061 0.0
C1827 C 0.9218 0.73586 0.67355 0.0
N1828 N 0.04616 0.77914 0.70397 0.0
N1829 N 0.9604 0.7501 0.67369 0.0
H1830 H 0.98849 0.35775 0.91073 0.0
H1831 H 0.04037 0.1549 0.96597 0.0
H1832 H 0.94716 0.3377 0.96578 0.0
H1833 H 0.04052 0.16239 0.90717 0.0
H1834 H 0.01079 0.22277 0.96717 0.0
H1835 H 0.0139 0.2885 0.91007 0.0
C1836 C 0.98419 0.33872 0.92261 0.0
C1837 C 0.96438 0.35359 0.93811 0.0
C1838 C 0.01725 0.20948 0.95399 0.0
C1839 C 0.99515 0.27401 0.93774 0.0
C1840 C 0.0338 0.17041 0.95329 0.0
C1841 C 0.04365 0.15269 0.93641 0.0
C1842 C 0.01077 0.23139 0.9377 0.0
C1843 C 0.03493 0.17505 0.9205 0.0
C1844 C 0.99905 0.29911 0.92228 0.0
C1845 C 0.96171 0.32769 0.95341 0.0
N1846 N 0.01948 0.21303 0.92152 0.0
N1847 N 0.97683 0.28942 0.95284 0.0
H1848 H 0.61284 0.7891 0.95062 0.0
H1849 H 0.41732 0.72585 0.89147 0.0
H1850 H 0.60672 0.80344 0.89211 0.0
H1851 H 0.41972 0.73098 0.95034 0.0
H1852 H 0.4866 0.75199 0.891 0.0
H1853 H 0.5434 0.76436 0.95046 0.0
C1854 C 0.59685 0.78737 0.93772 0.0
C1855 C 0.6158 0.79917 0.92141 0.0
C1856 C 0.47198 0.7474 0.90404 0.0
C1857 C 0.53568 0.7696 0.921 0.0
C1858 C 0.43211 0.73281 0.90432 0.0
C1859 C 0.41234 0.72575 0.921 0.0
C1860 C 0.49264 0.75496 0.92058 0.0
C1861 C 0.43379 0.73472 0.93717 0.0
C1862 C 0.5571 0.77288 0.93761 0.0
C1863 C 0.59371 0.79451 0.90503 0.0
N1864 N 0.47252 0.7486 0.93656 0.0
N1865 N 0.55496 0.78029 0.90524 0.0
H1866 H 0.51948 0.37716 0.65687 0.0
H1867 H 0.51304 0.1519 0.69721 0.0
H1868 H 0.41937 0.32982 0.68753 0.0
H1869 H 0.5811 0.18154 0.64903 0.0
H1870 H 0.48526 0.22044 0.69709 0.0
H1871 H 0.5489 0.30917 0.65657 0.0
C1872 C 0.50349 0.35265 0.66344 0.0
C1873 C 0.46666 0.35972 0.67221 0.0
C1874 C 0.50636 0.21205 0.68656 0.0
C1875 C 0.501 0.28174 0.67246 0.0
C1876 C 0.52237 0.17295 0.68668 0.0
C1877 C 0.54965 0.16102 0.67318 0.0
C1878 C 0.51803 0.23987 0.67298 0.0
C1879 C 0.56018 0.18949 0.65971 0.0
C1880 C 0.52049 0.31382 0.66338 0.0
C1881 C 0.4481 0.32653 0.68091 0.0
N1882 N 0.54468 0.2276 0.66002 0.0
N1883 N 0.46546 0.28938 0.68091 0.0
H1884 H 0.1199 0.27077 0.44632 0.0
H1885 H 0.91343 0.22671 0.39255 0.0
H1886 H 0.09741 0.31699 0.3921 0.0
H1887 H 0.92301 0.22345 0.45129 0.0
H1888 H 0.98222 0.25356 0.39109 0.0
H1889 H 0.05043 0.24562 0.44739 0.0
C1890 C 0.10036 0.27589 0.43466 0.0
C1891 C 0.11458 0.29696 0.41927 0.0
C1892 C 0.96926 0.24692 0.40432 0.0
C1893 C 0.03482 0.26677 0.42014 0.0
C1894 C 0.92965 0.2319 0.40518 0.0
C1895 C 0.91197 0.22224 0.4221 0.0
C1896 C 0.99195 0.25198 0.42048 0.0
C1897 C 0.93541 0.22899 0.43793 0.0
C1898 C 0.06065 0.26128 0.43525 0.0
C1899 C 0.08803 0.30102 0.40429 0.0
N1900 N 0.974 0.24305 0.43674 0.0
N1901 N 0.04962 0.28616 0.4051 0.0
H1902 H 0.0451 0.67444 0.20454 0.0
H1903 H 0.96929 0.8657 0.14704 0.0
H1904 H 0.06444 0.68956 0.14659 0.0
H1905 H 0.98139 0.86928 0.2058 0.0
H1906 H 1.0013 0.79966 0.14691 0.0
H1907 H 0.0186 0.74358 0.20576 0.0
C1908 C 0.04434 0.69228 0.19213 0.0
C1909 C 0.05762 0.67592 0.17549 0.0
C1910 C 0.99714 0.81487 0.15986 0.0
C1911 C 0.02611 0.75491 0.1767 0.0
C1912 C 0.9791 0.85295 0.15993 0.0
C1913 C 0.97235 0.87339 0.17645 0.0
C1914 C 1.00832 0.79642 0.17647 0.0
C1915 C 0.98512 0.85445 0.19274 0.0
C1916 C 0.02895 0.73175 0.19282 0.0
C1917 C 0.05465 0.70046 0.15978 0.0
N1918 N 1.00213 0.81702 0.19236 0.0
N1919 N 0.03917 0.73832 0.16077 0.0
H1920 H 0.18162 0.23497 0.16472 0.0
H1921 H 0.19798 0.47547 0.15375 0.0
H1922 H 0.2951 0.29834 0.16439 0.0
H1923 H 0.09077 0.41282 0.17083 0.0
H1924 H 0.2326 0.41044 0.15115 0.0
H1925 H 0.14687 0.29888 0.15958 0.0
C1926 C 0.19929 0.26231 0.16298 0.0
C1927 C 0.2413 0.26137 0.16481 0.0
C1928 C 0.20139 0.41083 0.15526 0.0
C1929 C 0.20158 0.33503 0.15949 0.0
C1930 C 0.18164 0.44788 0.15674 0.0
C1931 C 0.14158 0.44937 0.16256 0.0
C1932 C 0.18073 0.37487 0.15943 0.0
C1933 C 0.12163 0.41287 0.16621 0.0
C1934 C 0.1794 0.29885 0.16025 0.0
C1935 C 0.26272 0.29772 0.16277 0.0
N1936 N 0.14141 0.37713 0.16461 0.0
N1937 N 0.2426 0.3332 0.16044 0.0
H1938 H 0.3024 0.47474 0.42898 0.0
H1939 H 0.53157 0.45813 0.39801 0.0
H1940 H 0.35247 0.37191 0.40126 0.0
H1941 H 0.484 0.56448 0.42352 0.0
H1942 H 0.46349 0.43051 0.39522 0.0
H1943 H 0.36585 0.5114 0.42434 0.0
C1944 C 0.32656 0.45984 0.42186 0.0
C1945 C 0.32195 0.41987 0.41565 0.0
C1946 C 0.46758 0.46034 0.40103 0.0
C1947 C 0.39476 0.46195 0.41017 0.0
C1948 C 0.50645 0.47628 0.40241 0.0
C1949 C 0.5132 0.51386 0.41069 0.0
C1950 C 0.43513 0.48166 0.40845 0.0
C1951 C 0.47984 0.53575 0.41668 0.0
C1952 C 0.36276 0.48093 0.41913 0.0
C1953 C 0.35447 0.40238 0.40648 0.0
N1954 N 0.44223 0.51905 0.41572 0.0
N1955 N 0.38935 0.42337 0.40412 0.0
H1956 H 0.19394 0.726 0.67564 0.0
H1957 H 0.39422 0.60278 0.65386 0.0
H1958 H 0.29758 0.77705 0.64907 0.0
H1959 H 0.28974 0.54846 0.67878 0.0
H1960 H 0.35642 0.66493 0.64929 0.0
H1961 H 0.2243 0.65874 0.67338 0.0
C1962 C 0.22223 0.72269 0.66855 0.0
C1963 C 0.24288 0.75685 0.6621 0.0
C1964 C 0.34159 0.63938 0.65567 0.0
C1965 C 0.27874 0.68047 0.66019 0.0
C1966 C 0.36331 0.60383 0.65838 0.0
C1967 C 0.3454 0.57025 0.66689 0.0
C1968 C 0.30148 0.64174 0.66153 0.0
C1969 C 0.30496 0.57351 0.67222 0.0
C1970 C 0.23989 0.68441 0.66751 0.0
C1971 C 0.28034 0.75128 0.65382 0.0
N1972 N 0.28451 0.60862 0.66958 0.0
N1973 N 0.29721 0.714 0.65327 0.0
H1974 H 0.98295 0.58037 0.92011 0.0
H1975 H 0.22094 0.55068 0.91915 0.0
H1976 H 0.03593 0.46363 0.91165 0.0
H1977 H 0.16215 0.66623 0.91778 0.0
H1978 H 0.15501 0.51745 0.91538 0.0
H1979 H 0.04909 0.61172 0.91744 0.0
C1980 C 1.00857 0.5614 0.91726 0.0
C1981 C 1.00388 0.5194 0.916 0.0
C1982 C 0.15668 0.5501 0.91579 0.0
C1983 C 0.08057 0.55506 0.9136 0.0
C1984 C 0.1943 0.56912 0.91806 0.0
C1985 C 0.1973 0.61148 0.91893 0.0
C1986 C 0.12171 0.57357 0.91452 0.0
C1987 C 0.16165 0.63367 0.91723 0.0
C1988 C 0.04649 0.5793 0.91587 0.0
C1989 C 0.03819 0.4962 0.9125 0.0
N1990 N 0.12559 0.61453 0.91524 0.0
N1991 N 0.07526 0.51428 0.91172 0.0
H1992 H 0.70719 0.73068 0.93126 0.0
H1993 H 0.88564 0.59225 0.97019 0.0
H1994 H 0.80875 0.77962 0.96077 0.0
H1995 H 0.81404 0.56076 0.92278 0.0
H1996 H 0.84921 0.65606 0.97234 0.0
H1997 H 0.73626 0.66281 0.93421 0.0
C1998 C 0.73474 0.72684 0.93905 0.0
C1999 C 0.75516 0.76058 0.94618 0.0
C2000 C 0.84142 0.635 0.96153 0.0
C2001 C 0.78919 0.68335 0.94919 0.0
C2002 C 0.86243 0.59853 0.96021 0.0
C2003 C 0.85367 0.57087 0.9461 0.0
C2004 C 0.8106 0.64378 0.94892 0.0
C2005 C 0.82226 0.58081 0.93388 0.0
C2006 C 0.75165 0.68824 0.94049 0.0
C2007 C 0.79168 0.75421 0.95545 0.0
N2008 N 0.80196 0.61622 0.93559 0.0
N2009 N 0.80758 0.71646 0.95665 0.0
H2010 H 0.66103 0.65237 0.70625 0.0
H2011 H 0.53298 0.45097 0.68547 0.0
H2012 H 0.71198 0.54686 0.68106 0.0
H2013 H 0.48362 0.56033 0.70742 0.0
H2014 H 0.6008 0.481 0.68792 0.0
H2015 H 0.59791 0.61556 0.71023 0.0
C2016 C 0.65903 0.62145 0.70153 0.0
C2017 C 0.69196 0.60299 0.69311 0.0
C2018 C 0.57527 0.498 0.6927 0.0
C2019 C 0.61929 0.56011 0.69784 0.0
C2020 C 0.53666 0.48061 0.69154 0.0
C2021 C 0.50288 0.50301 0.69659 0.0
C2022 C 0.57991 0.53808 0.69888 0.0
C2023 C 0.50903 0.5419 0.70367 0.0
C2024 C 0.62289 0.60028 0.7039 0.0
C2025 C 0.68745 0.56249 0.68756 0.0
N2026 N 0.54662 0.55827 0.70448 0.0
N2027 N 0.65179 0.54254 0.68991 0.0
H2028 H 0.82452 0.29327 0.43399 0.0
H2029 H 0.61965 0.40923 0.44845 0.0
H2030 H 0.72264 0.24267 0.46211 0.0
H2031 H 0.72889 0.47291 0.43457 0.0
H2032 H 0.65841 0.34843 0.45377 0.0
H2033 H 0.7933 0.36028 0.43559 0.0
C2034 C 0.79653 0.29671 0.44132 0.0
C2035 C 0.77647 0.26273 0.44832 0.0
C2036 C 0.67408 0.37571 0.44967 0.0
C2037 C 0.73968 0.33855 0.4494 0.0
C2038 C 0.65179 0.41056 0.44645 0.0
C2039 C 0.6708 0.44653 0.44097 0.0
C2040 C 0.71594 0.37633 0.44727 0.0
C2041 C 0.71281 0.44601 0.43879 0.0
C2042 C 0.77843 0.3348 0.442 0.0
C2043 C 0.73938 0.26834 0.4569 0.0
N2044 N 0.73393 0.41144 0.44182 0.0
N2045 N 0.72195 0.30533 0.45697 0.0
H2046 H 0.85063 0.35337 0.19826 0.0
H2047 H 0.97469 0.56126 0.19363 0.0
H2048 H 0.79885 0.46994 0.18713 0.0
H2049 H 0.03367 0.44588 0.19488 0.0
H2050 H 0.90999 0.52745 0.19656 0.0
H2051 H 0.91694 0.38561 0.20139 0.0
C2052 C 0.85308 0.38572 0.19647 0.0
C2053 C 0.8189 0.40888 0.19224 0.0
C2054 C 0.93693 0.50931 0.19643 0.0
C2055 C 0.89498 0.44602 0.196 0.0
C2056 C 0.97406 0.52866 0.1949 0.0
C2057 C 0.00971 0.50636 0.19384 0.0
C2058 C 0.93492 0.46701 0.19689 0.0
C2059 C 1.00694 0.46422 0.19573 0.0
C2060 C 0.89105 0.40408 0.19829 0.0
C2061 C 0.82416 0.45071 0.19024 0.0
N2062 N 0.97006 0.44579 0.19688 0.0
N2063 N 0.86131 0.4678 0.19211 0.0
H2064 H 0.71018 0.74061 0.65052 0.0
H2065 H 0.7096 0.96525 0.68759 0.0
H2066 H 0.81136 0.79166 0.67956 0.0
H2067 H 0.63244 0.92602 0.64325 0.0
H2068 H 0.74802 0.90303 0.68449 0.0
H2069 H 0.68186 0.80835 0.6471 0.0
C2070 C 0.72711 0.7664 0.65559 0.0
C2071 C 0.76357 0.76075 0.66493 0.0
C2072 C 0.72265 0.90806 0.67545 0.0
C2073 C 0.73049 0.8383 0.66188 0.0
C2074 C 0.70059 0.94375 0.67717 0.0
C2075 C 0.66691 0.95101 0.66588 0.0
C2076 C 0.71065 0.87869 0.66262 0.0
C2077 C 0.65725 0.92165 0.65261 0.0
C2078 C 0.71079 0.80504 0.65379 0.0
C2079 C 0.78367 0.79495 0.67184 0.0
N2080 N 0.67853 0.88671 0.65154 0.0
N2081 N 0.76659 0.8322 0.67043 0.0
H2082 H 0.86217 0.8645 0.90964 0.0
H2083 H 0.9903 0.06782 0.92227 0.0
H2084 H 0.80766 0.9761 0.92651 0.0
H2085 H 0.03477 0.95999 0.89683 0.0
H2086 H 0.92221 0.03793 0.92218 0.0
H2087 H 0.92487 0.90072 0.90412 0.0
C2088 C 0.86327 0.89663 0.91224 0.0
C2089 C 0.82927 0.91705 0.91862 0.0
C2090 C 0.94663 0.02131 0.9161 0.0
C2091 C 0.90174 0.9593 0.91214 0.0
C2092 C 0.9854 0.03862 0.91594 0.0
C2093 C 0.01803 0.01655 0.90926 0.0
C2094 C 0.94072 0.98157 0.90967 0.0
C2095 C 0.0103 0.97819 0.90187 0.0
C2096 C 0.89921 0.91748 0.90895 0.0
C2097 C 0.83294 0.95894 0.9216 0.0
N2098 N 0.97269 0.96184 0.90242 0.0
N2099 N 0.86848 0.97861 0.91843 0.0
H2100 H 0.78803 0.04543 0.15635 0.0
H2101 H 0.80403 0.28362 0.15874 0.0
H2102 H 0.87889 0.10931 0.18734 0.0
H2103 H 0.68823 0.22923 0.16877 0.0
H2104 H 0.83394 0.21641 0.15785 0.0
H2105 H 0.75236 0.10977 0.15144 0.0
C2106 C 0.80034 0.07304 0.16211 0.0
C2107 C 0.83626 0.07237 0.17231 0.0
C2108 C 0.80178 0.21913 0.15967 0.0
C2109 C 0.79691 0.14543 0.16612 0.0
C2110 C 0.78459 0.25733 0.15989 0.0
C2111 C 0.74354 0.26182 0.16355 0.0
C2112 C 0.77774 0.18506 0.16301 0.0
C2113 C 0.71983 0.22687 0.1655 0.0
C2114 C 0.78009 0.10949 0.1593 0.0
C2115 C 0.85119 0.10868 0.17948 0.0
N2116 N 0.73737 0.18972 0.16539 0.0
N2117 N 0.8318 0.14388 0.17599 0.0
H2118 H 0.53726 0.95872 0.40889 0.0
H2119 H 0.71672 0.05137 0.43074 0.0
H2120 H 0.48267 0.07394 0.419 0.0
H2121 H 0.66189 0.16333 0.41417 0.0
H2122 H 0.65227 0.01723 0.42656 0.0
H2123 H 0.6032 0.99126 0.40837 0.0
C2124 C 0.53922 0.99119 0.41059 0.0
C2125 C 0.50449 0.01373 0.41385 0.0
C2126 C 0.65432 0.04909 0.42341 0.0
C2127 C 0.58049 0.05113 0.41459 0.0
C2128 C 0.69125 0.06878 0.42603 0.0
C2129 C 0.69509 0.11035 0.4227 0.0
C2130 C 0.62063 0.07093 0.41727 0.0
C2131 C 0.66056 0.13125 0.41685 0.0
C2132 C 0.57703 0.00968 0.41074 0.0
C2133 C 0.50871 0.05561 0.41617 0.0
N2134 N 0.62483 0.1114 0.4144 0.0
N2135 N 0.54614 0.07297 0.4167 0.0
H2136 H 0.32803 0.2855 0.44069 0.0
H2137 H 0.30261 0.04462 0.44169 0.0
H2138 H 0.21258 0.22588 0.43993 0.0
H2139 H 0.41735 0.10593 0.44276 0.0
H2140 H 0.26899 0.10999 0.44325 0.0
H2141 H 0.36071 0.22012 0.44443 0.0
C2142 C 0.30949 0.25858 0.44181 0.0
C2143 C 0.2675 0.26116 0.44027 0.0
C2144 C 0.30153 0.1092 0.44335 0.0
C2145 C 0.30489 0.18563 0.44397 0.0
C2146 C 0.32085 0.07182 0.4424 0.0
C2147 C 0.36308 0.06954 0.44229 0.0
C2148 C 0.32445 0.14496 0.44409 0.0
C2149 C 0.3849 0.10595 0.44329 0.0
C2150 C 0.32821 0.22115 0.44379 0.0
C2151 C 0.24498 0.22528 0.44142 0.0
N2152 N 0.36539 0.14202 0.44405 0.0
N2153 N 0.26396 0.18895 0.44301 0.0
H2154 H 0.97586 0.0735 0.20859 0.0
H2155 H 0.20812 0.05159 0.1839 0.0
H2156 H 0.02709 0.96094 0.19133 0.0
H2157 H 0.15593 0.15905 0.20682 0.0
H2158 H 0.14427 0.01574 0.18884 0.0
H2159 H 0.04337 0.10254 0.21131 0.0
C2160 C 1.00159 0.05453 0.20596 0.0
C2161 C 0.99606 0.01467 0.20002 0.0
C2162 C 0.14696 0.04706 0.19294 0.0
C2163 C 0.07364 0.04818 0.20223 0.0
C2164 C 0.18337 0.06768 0.19001 0.0
C2165 C 0.18747 0.10868 0.19474 0.0
C2166 C 0.11421 0.06757 0.20056 0.0
C2167 C 0.15431 0.12767 0.20276 0.0
C2168 C 0.04018 0.07118 0.20734 0.0
C2169 C 0.03025 0.9916 0.1963 0.0
N2170 N 0.11919 0.10713 0.20526 0.0
N2171 N 0.06762 1.00889 0.19716 0.0
H2172 H 0.23637 0.9754 0.92616 0.0
H2173 H 0.22211 0.74653 0.96104 0.0
H2174 H 0.13246 0.92153 0.95168 0.0
H2175 H 0.3261 0.79395 0.93341 0.0
H2176 H 0.19463 0.81458 0.96276 0.0
H2177 H 0.2743 0.91345 0.93266 0.0
C2178 C 0.2216 0.95078 0.93326 0.0
C2179 C 0.18091 0.95363 0.93816 0.0
C2180 C 0.224 0.81055 0.95676 0.0
C2181 C 0.22432 0.88276 0.94584 0.0
C2182 C 0.23995 0.77169 0.95604 0.0
C2183 C 0.27677 0.76478 0.94744 0.0
C2184 C 0.24457 0.8429 0.94845 0.0
C2185 C 0.29806 0.79823 0.94058 0.0
C2186 C 0.24332 0.91543 0.937 0.0
C2187 C 0.16346 0.92065 0.94733 0.0
N2188 N 0.2814 0.83581 0.94098 0.0
N2189 N 0.18511 0.88677 0.95078 0.0
H2190 H 0.35232 0.8524 0.69581 0.0
H2191 H 0.48477 0.05475 0.70521 0.0
H2192 H 0.30117 0.97022 0.68705 0.0
H2193 H 0.53221 0.93702 0.69321 0.0
H2194 H 0.41648 0.02495 0.70586 0.0
H2195 H 0.41727 0.8839 0.70191 0.0
C2196 C 0.35459 0.88495 0.69521 0.0
C2197 C 0.3211 0.90853 0.69066 0.0
C2198 C 0.44202 1.00566 0.70341 0.0
C2199 C 0.39607 0.94514 0.69783 0.0
C2200 C 0.48097 0.02252 0.70328 0.0
C2201 C 0.5141 0.99833 0.69892 0.0
C2202 C 0.43661 0.96424 0.69974 0.0
C2203 C 0.50746 0.95683 0.69639 0.0
C2204 C 0.39186 0.90298 0.69872 0.0
C2205 C 0.32623 0.95076 0.69028 0.0
N2206 N 0.46964 0.94122 0.69674 0.0
N2207 N 0.36306 0.96775 0.69375 0.0
loop_
_geom_bond_atom_site_label_1
_geom_bond_atom_site_label_2
_geom_bond_distance
_geom_bond_site_symmetry_2
_ccdc_geom_bond_type
Tb0 N29 2.617 . S
Tb0 N35 2.572 . S
Tb0 O44 2.465 . S
Tb0 O45 2.387 . S
Tb0 O47 2.428 . S
Tb0 O48 2.308 . S
Tb0 O52 2.349 . S
Tb0 O55 2.393 . S
Tb0 C64 2.802 . S
C1 N2 1.379 . S
C1 C4 1.416 . S
C1 C8 1.424 . S
N2 C1 1.379 . S
N2 C5 1.334 . S
N2 Tb11 2.617 . S
C3 C5 1.390 . S
C3 C6 1.339 . S
C3 H23 0.930 . S
C4 C1 1.416 . S
C4 C6 1.416 . S
C4 C10 1.448 1_545 S
C5 N2 1.334 . S
C5 C3 1.390 . S
C5 H16 0.930 . S
C6 C3 1.339 . S
C6 C4 1.416 . S
C6 H27 0.930 . S
C7 C8 1.413 1_565 S
C7 C9 1.427 . S
C7 C13 1.416 . S
C8 C1 1.424 . S
C8 C7 1.413 1_545 S
C8 N12 1.361 . S
C9 C7 1.427 . S
C9 C10 1.328 . S
C9 H24 0.929 . S
C10 C4 1.448 1_565 S
C10 C9 1.328 . S
C10 H25 0.930 . S
Tb11 N2 2.617 . S
Tb11 N12 2.572 . S
Tb11 O46 2.349 . S
Tb11 O49 2.393 . S
Tb11 O50 2.465 . S
Tb11 O51 2.387 . S
Tb11 O53 2.428 . S
Tb11 O54 2.308 . S
Tb11 C75 2.802 . S
N12 C8 1.361 . S
N12 Tb11 2.572 . S
N12 C14 1.340 . S
C13 C7 1.416 . S
C13 C15 1.332 . S
C13 H21 0.931 . S
C14 N12 1.340 . S
C14 C15 1.407 1_545 S
C14 H20 0.930 . S
C15 C13 1.332 . S
C15 C14 1.407 1_565 S
C15 H17 0.929 . S
H16 C5 0.930 . S
H17 C15 0.929 . S
H18 C33 0.930 . S
H19 C40 0.929 . S
H20 C14 0.930 . S
H21 C13 0.931 . S
H22 C36 0.930 . S
H23 C3 0.930 . S
H24 C9 0.929 . S
H25 C10 0.930 . S
H26 C31 0.930 . S
H27 C6 0.930 . S
H28 C39 0.931 . S
N29 Tb0 2.617 . S
N29 C30 1.379 . S
N29 C33 1.334 . S
C30 N29 1.379 . S
C30 C32 1.416 . S
C30 C38 1.424 . S
C31 H26 0.930 . S
C31 C33 1.390 . S
C31 C34 1.339 . S
C32 C30 1.416 . S
C32 C34 1.416 . S
C32 C65 1.448 . S
C33 H18 0.930 . S
C33 N29 1.334 . S
C33 C31 1.390 . S
C34 C31 1.339 . S
C34 C32 1.416 . S
C34 H41 0.930 . S
N35 Tb0 2.572 . S
N35 C36 1.340 . S
N35 C38 1.361 . S
C36 H22 0.930 . S
C36 N35 1.340 . S
C36 C40 1.407 . S
C37 C38 1.413 . S
C37 C39 1.416 . S
C37 C66 1.427 . S
C38 C30 1.424 . S
C38 N35 1.361 . S
C38 C37 1.413 . S
C39 H28 0.931 . S
C39 C37 1.416 . S
C39 C40 1.332 . S
C40 H19 0.929 . S
C40 C36 1.407 . S
C40 C39 1.332 . S
H41 C34 0.930 . S
H42 C65 0.930 . S
H43 C66 0.929 . S
O44 Tb0 2.465 . S
O44 C64 1.264 . S
O45 Tb0 2.387 . S
O45 C56 1.264 . S
O46 Tb11 2.349 . S
O46 C56 1.243 . S
O47 Tb0 2.428 . S
O47 C64 1.256 . S
O48 Tb0 2.308 . S
O48 C63 1.266 . S
O49 Tb11 2.393 . S
O49 C63 1.248 . S
O50 Tb11 2.465 . S
O50 C75 1.264 . S
O51 Tb11 2.387 . S
O51 C67 1.264 . S
O52 Tb0 2.349 . S
O52 C67 1.243 . S
O53 Tb11 2.428 . S
O53 C75 1.256 . S
O54 Tb11 2.308 . S
O54 C74 1.266 . S
O55 Tb0 2.393 . S
O55 C74 1.248 . S
C56 O45 1.264 . S
C56 O46 1.243 . S
C57 C60 1.399 . S
C57 C62 1.383 . S
C57 C64 1.496 . S
C58 C59 1.399 . S
C58 C62 1.389 . S
C59 C58 1.399 . S
C59 C61 1.380 . S
C59 H76 0.929 . S
C60 C57 1.399 . S
C60 C61 1.392 . S
C60 H77 0.929 . S
C61 C59 1.380 . S
C61 C60 1.392 . S
C61 H78 0.929 . S
C62 C57 1.383 . S
C62 C58 1.389 . S
C62 H79 0.931 . S
C63 O48 1.266 . S
C63 O49 1.248 . S
C64 Tb0 2.802 . S
C64 O44 1.264 . S
C64 O47 1.256 . S
C64 C57 1.496 . S
C65 C32 1.448 . S
C65 H42 0.930 . S
C65 C66 1.328 . S
C66 C37 1.427 . S
C66 H43 0.929 . S
C66 C65 1.328 . S
C67 O51 1.264 . S
C67 O52 1.243 . S
C68 C71 1.399 . S
C68 C72 1.383 . S
C68 C75 1.496 . S
C69 C70 1.399 . S
C69 C72 1.389 . S
C70 C69 1.399 . S
C70 C73 1.380 . S
C70 H80 0.929 . S
C71 C68 1.399 . S
C71 C73 1.392 . S
C71 H81 0.929 . S
C72 C68 1.383 . S
C72 C69 1.389 . S
C72 H82 0.931 . S
C73 C70 1.380 . S
C73 C71 1.392 . S
C73 H83 0.929 . S
C74 O54 1.266 . S
C74 O55 1.248 . S
C75 Tb11 2.802 . S
C75 O50 1.264 . S
C75 O53 1.256 . S
C75 C68 1.496 . S
H76 C59 0.929 . S
H77 C60 0.929 . S
H78 C61 0.929 . S
H79 C62 0.931 . S
H80 C70 0.929 . S
H81 C71 0.929 . S
H82 C72 0.931 . S
H83 C73 0.929 . S
Tb84 N113 2.617 . S
Tb84 N119 2.572 . S
Tb84 O128 2.465 . S
Tb84 O129 2.387 . S
Tb84 O131 2.428 . S
Tb84 O132 2.308 . S
Tb84 O136 2.349 . S
Tb84 O139 2.393 . S
Tb84 C148 2.802 . S
C85 N86 1.379 . S
C85 C88 1.416 . S
C85 C92 1.424 . S
N86 C85 1.379 . S
N86 C89 1.334 . S
N86 Tb95 2.617 . S
C87 C89 1.390 . S
C87 C90 1.339 . S
C87 H107 0.930 . S
C88 C85 1.416 . S
C88 C90 1.416 . S
C88 C94 1.448 . S
C89 N86 1.334 . S
C89 C87 1.390 . S
C89 H100 0.930 . S
C90 C87 1.339 . S
C90 C88 1.416 . S
C90 H111 0.930 . S
C91 C92 1.413 . S
C91 C93 1.427 . S
C91 C97 1.416 . S
C92 C85 1.424 . S
C92 C91 1.413 . S
C92 N96 1.361 . S
C93 C91 1.427 . S
C93 C94 1.328 . S
C93 H108 0.929 . S
C94 C88 1.448 . S
C94 C93 1.328 . S
C94 H109 0.930 . S
Tb95 N86 2.617 . S
Tb95 N96 2.572 . S
Tb95 O130 2.349 . S
Tb95 O133 2.393 . S
Tb95 O134 2.465 . S
Tb95 O135 2.387 . S
Tb95 O137 2.428 . S
Tb95 O138 2.308 . S
Tb95 C159 2.802 . S
N96 C92 1.361 . S
N96 Tb95 2.572 . S
N96 C98 1.340 . S
C97 C91 1.416 . S
C97 C99 1.332 . S
C97 H105 0.931 . S
C98 N96 1.340 . S
C98 C99 1.407 . S
C98 H104 0.930 . S
C99 C97 1.332 . S
C99 C98 1.407 . S
C99 H101 0.929 . S
H100 C89 0.930 . S
H101 C99 0.929 . S
H102 C117 0.930 . S
H103 C124 0.929 . S
H104 C98 0.930 . S
H105 C97 0.931 . S
H106 C120 0.930 . S
H107 C87 0.930 . S
H108 C93 0.929 . S
H109 C94 0.930 . S
H110 C115 0.930 . S
H111 C90 0.930 . S
H112 C123 0.931 . S
N113 Tb84 2.617 . S
N113 C114 1.379 . S
N113 C117 1.334 . S
C114 N113 1.379 . S
C114 C116 1.416 . S
C114 C122 1.424 . S
C115 H110 0.930 . S
C115 C117 1.390 . S
C115 C118 1.339 . S
C116 C114 1.416 . S
C116 C118 1.416 . S
C116 C149 1.448 . S
C117 H102 0.930 . S
C117 N113 1.334 . S
C117 C115 1.390 . S
C118 C115 1.339 . S
C118 C116 1.416 . S
C118 H125 0.930 . S
N119 Tb84 2.572 . S
N119 C120 1.340 . S
N119 C122 1.361 . S
C120 H106 0.930 . S
C120 N119 1.340 . S
C120 C124 1.407 . S
C121 C122 1.413 . S
C121 C123 1.416 . S
C121 C150 1.427 . S
C122 C114 1.424 . S
C122 N119 1.361 . S
C122 C121 1.413 . S
C123 H112 0.931 . S
C123 C121 1.416 . S
C123 C124 1.332 . S
C124 H103 0.929 . S
C124 C120 1.407 . S
C124 C123 1.332 . S
H125 C118 0.930 . S
H126 C149 0.930 . S
H127 C150 0.929 . S
O128 Tb84 2.465 . S
O128 C148 1.264 . S
O129 Tb84 2.387 . S
O129 C140 1.264 . S
O130 Tb95 2.349 . S
O130 C140 1.243 . S
O131 Tb84 2.428 . S
O131 C148 1.256 . S
O132 Tb84 2.308 . S
O132 C147 1.266 . S
O133 Tb95 2.393 . S
O133 C147 1.248 . S
O134 Tb95 2.465 . S
O134 C159 1.264 . S
O135 Tb95 2.387 . S
O135 C151 1.264 . S
O136 Tb84 2.349 . S
O136 C151 1.243 . S
O137 Tb95 2.428 . S
O137 C159 1.256 . S
O138 Tb95 2.308 . S
O138 C158 1.266 . S
O139 Tb84 2.393 . S
O139 C158 1.248 . S
C140 O129 1.264 . S
C140 O130 1.243 . S
C141 C144 1.399 . S
C141 C146 1.383 . S
C141 C148 1.496 . S
C142 C143 1.399 . S
C142 C146 1.389 . S
C143 C142 1.399 . S
C143 C145 1.380 . S
C143 H160 0.929 . S
C144 C141 1.399 . S
C144 C145 1.392 . S
C144 H161 0.929 . S
C145 C143 1.380 . S
C145 C144 1.392 . S
C145 H162 0.929 . S
C146 C141 1.383 . S
C146 C142 1.389 . S
C146 H163 0.931 . S
C147 O132 1.266 . S
C147 O133 1.248 . S
C148 Tb84 2.802 . S
C148 O128 1.264 . S
C148 O131 1.256 . S
C148 C141 1.496 . S
C149 C116 1.448 . S
C149 H126 0.930 . S
C149 C150 1.328 . S
C150 C121 1.427 . S
C150 H127 0.929 . S
C150 C149 1.328 . S
C151 O135 1.264 . S
C151 O136 1.243 . S
C152 C155 1.399 . S
C152 C156 1.383 . S
C152 C159 1.496 . S
C153 C154 1.399 . S
C153 C156 1.389 . S
C154 C153 1.399 . S
C154 C157 1.380 . S
C154 H164 0.929 . S
C155 C152 1.399 . S
C155 C157 1.392 . S
C155 H165 0.929 . S
C156 C152 1.383 . S
C156 C153 1.389 . S
C156 H166 0.931 . S
C157 C154 1.380 . S
C157 C155 1.392 . S
C157 H167 0.929 . S
C158 O138 1.266 . S
C158 O139 1.248 . S
C159 Tb95 2.802 . S
C159 O134 1.264 . S
C159 O137 1.256 . S
C159 C152 1.496 . S
H160 C143 0.929 . S
H161 C144 0.929 . S
H162 C145 0.929 . S
H163 C146 0.931 . S
H164 C154 0.929 . S
H165 C155 0.929 . S
H166 C156 0.931 . S
H167 C157 0.929 . S
Tb168 N197 2.617 . S
Tb168 N203 2.572 . S
Tb168 O212 2.465 . S
Tb168 O213 2.387 . S
Tb168 O215 2.428 . S
Tb168 O216 2.308 . S
Tb168 O220 2.349 . S
Tb168 O223 2.393 . S
Tb168 C232 2.802 . S
C169 N170 1.379 . S
C169 C172 1.416 . S
C169 C176 1.424 . S
N170 C169 1.379 . S
N170 C173 1.334 . S
N170 Tb179 2.617 . S
C171 C173 1.390 . S
C171 C174 1.339 . S
C171 H191 0.930 . S
C172 C169 1.416 . S
C172 C174 1.416 . S
C172 C178 1.448 1_565 S
C173 N170 1.334 . S
C173 C171 1.390 . S
C173 H184 0.930 . S
C174 C171 1.339 . S
C174 C172 1.416 . S
C174 H195 0.930 . S
C175 C176 1.413 1_545 S
C175 C177 1.427 . S
C175 C181 1.416 . S
C176 C169 1.424 . S
C176 C175 1.413 1_565 S
C176 N180 1.361 . S
C177 C175 1.427 . S
C177 C178 1.328 . S
C177 H192 0.929 . S
C178 C172 1.448 1_545 S
C178 C177 1.328 . S
C178 H193 0.930 . S
Tb179 N170 2.617 . S
Tb179 N180 2.572 . S
Tb179 O214 2.349 . S
Tb179 O217 2.393 . S
Tb179 O218 2.465 . S
Tb179 O219 2.387 . S
Tb179 O221 2.428 . S
Tb179 O222 2.308 . S
Tb179 C243 2.802 . S
N180 C176 1.361 . S
N180 Tb179 2.572 . S
N180 C182 1.340 . S
C181 C175 1.416 . S
C181 C183 1.332 . S
C181 H189 0.931 . S
C182 N180 1.340 . S
C182 C183 1.407 1_565 S
C182 H188 0.930 . S
C183 C181 1.332 . S
C183 C182 1.407 1_545 S
C183 H185 0.929 . S
H184 C173 0.930 . S
H185 C183 0.929 . S
H186 C201 0.930 . S
H187 C208 0.929 . S
H188 C182 0.930 . S
H189 C181 0.931 . S
H190 C204 0.930 . S
H191 C171 0.930 . S
H192 C177 0.929 . S
H193 C178 0.930 . S
H194 C199 0.930 . S
H195 C174 0.930 . S
H196 C207 0.931 . S
N197 Tb168 2.617 . S
N197 C198 1.379 . S
N197 C201 1.334 . S
C198 N197 1.379 . S
C198 C200 1.416 . S
C198 C206 1.424 . S
C199 H194 0.930 . S
C199 C201 1.390 . S
C199 C202 1.339 . S
C200 C198 1.416 . S
C200 C202 1.416 . S
C200 C233 1.448 . S
C201 H186 0.930 . S
C201 N197 1.334 . S
C201 C199 1.390 . S
C202 C199 1.339 . S
C202 C200 1.416 . S
C202 H209 0.930 . S
N203 Tb168 2.572 . S
N203 C204 1.340 . S
N203 C206 1.361 . S
C204 H190 0.930 . S
C204 N203 1.340 . S
C204 C208 1.407 . S
C205 C206 1.413 . S
C205 C207 1.416 . S
C205 C234 1.427 . S
C206 C198 1.424 . S
C206 N203 1.361 . S
C206 C205 1.413 . S
C207 H196 0.931 . S
C207 C205 1.416 . S
C207 C208 1.332 . S
C208 H187 0.929 . S
C208 C204 1.407 . S
C208 C207 1.332 . S
H209 C202 0.930 . S
H210 C233 0.930 . S
H211 C234 0.929 . S
O212 Tb168 2.465 . S
O212 C232 1.264 . S
O213 Tb168 2.387 . S
O213 C224 1.264 . S
O214 Tb179 2.349 . S
O214 C224 1.243 . S
O215 Tb168 2.428 . S
O215 C232 1.256 . S
O216 Tb168 2.308 . S
O216 C231 1.266 . S
O217 Tb179 2.393 . S
O217 C231 1.248 . S
O218 Tb179 2.465 . S
O218 C243 1.264 . S
O219 Tb179 2.387 . S
O219 C235 1.264 . S
O220 Tb168 2.349 . S
O220 C235 1.243 . S
O221 Tb179 2.428 . S
O221 C243 1.256 . S
O222 Tb179 2.308 . S
O222 C242 1.266 . S
O223 Tb168 2.393 . S
O223 C242 1.248 . S
C224 O213 1.264 . S
C224 O214 1.243 . S
C225 C228 1.399 . S
C225 C230 1.383 . S
C225 C232 1.496 . S
C226 C227 1.399 . S
C226 C230 1.389 . S
C227 C226 1.399 . S
C227 C229 1.380 . S
C227 H244 0.929 . S
C228 C225 1.399 . S
C228 C229 1.392 . S
C228 H245 0.929 . S
C229 C227 1.380 . S
C229 C228 1.392 . S
C229 H246 0.929 . S
C230 C225 1.383 . S
C230 C226 1.389 . S
C230 H247 0.931 . S
C231 O216 1.266 . S
C231 O217 1.248 . S
C232 Tb168 2.802 . S
C232 O212 1.264 . S
C232 O215 1.256 . S
C232 C225 1.496 . S
C233 C200 1.448 . S
C233 H210 0.930 . S
C233 C234 1.328 . S
C234 C205 1.427 . S
C234 H211 0.929 . S
C234 C233 1.328 . S
C235 O219 1.264 . S
C235 O220 1.243 . S
C236 C239 1.399 . S
C236 C240 1.383 . S
C236 C243 1.496 . S
C237 C238 1.399 . S
C237 C240 1.389 . S
C238 C237 1.399 . S
C238 C241 1.380 . S
C238 H248 0.929 . S
C239 C236 1.399 . S
C239 C241 1.392 . S
C239 H249 0.929 . S
C240 C236 1.383 . S
C240 C237 1.389 . S
C240 H250 0.931 . S
C241 C238 1.380 . S
C241 C239 1.392 . S
C241 H251 0.929 . S
C242 O222 1.266 . S
C242 O223 1.248 . S
C243 Tb179 2.802 . S
C243 O218 1.264 . S
C243 O221 1.256 . S
C243 C236 1.496 . S
H244 C227 0.929 . S
H245 C228 0.929 . S
H246 C229 0.929 . S
H247 C230 0.931 . S
H248 C238 0.929 . S
H249 C239 0.929 . S
H250 C240 0.931 . S
H251 C241 0.929 . S
Tb252 N281 2.617 . S
Tb252 N287 2.572 . S
Tb252 O296 2.465 . S
Tb252 O297 2.387 . S
Tb252 O299 2.428 . S
Tb252 O300 2.308 . S
Tb252 O304 2.349 . S
Tb252 O307 2.393 . S
Tb252 C316 2.802 . S
C253 N254 1.379 . S
C253 C256 1.416 . S
C253 C260 1.424 . S
N254 C253 1.379 . S
N254 C257 1.334 . S
N254 Tb263 2.617 . S
C255 C257 1.390 1_455 S
C255 C258 1.339 1_455 S
C255 H275 0.930 . S
C256 C253 1.416 . S
C256 C258 1.416 . S
C256 C262 1.448 . S
C257 N254 1.334 . S
C257 C255 1.390 1_655 S
C257 H268 0.930 1_655 S
C258 C255 1.339 1_655 S
C258 C256 1.416 . S
C258 H279 0.930 1_655 S
C259 C260 1.413 . S
C259 C261 1.427 . S
C259 C265 1.416 . S
C260 C253 1.424 . S
C260 C259 1.413 . S
C260 N264 1.361 . S
C261 C259 1.427 . S
C261 C262 1.328 . S
C261 H276 0.929 . S
C262 C256 1.448 . S
C262 C261 1.328 . S
C262 H277 0.930 . S
Tb263 N254 2.617 . S
Tb263 N264 2.572 . S
Tb263 O298 2.349 . S
Tb263 O301 2.393 . S
Tb263 O302 2.465 . S
Tb263 O303 2.387 . S
Tb263 O305 2.428 . S
Tb263 O306 2.308 . S
Tb263 C327 2.802 . S
N264 C260 1.361 . S
N264 Tb263 2.572 . S
N264 C266 1.340 . S
C265 C259 1.416 . S
C265 C267 1.332 . S
C265 H273 0.931 . S
C266 N264 1.340 . S
C266 C267 1.407 . S
C266 H272 0.930 . S
C267 C265 1.332 . S
C267 C266 1.407 . S
C267 H269 0.929 . S
H268 C257 0.930 1_455 S
H269 C267 0.929 . S
H270 C285 0.930 . S
H271 C292 0.929 . S
H272 C266 0.930 . S
H273 C265 0.931 . S
H274 C288 0.930 . S
H275 C255 0.930 . S
H276 C261 0.929 . S
H277 C262 0.930 . S
H278 C283 0.930 . S
H279 C258 0.930 1_455 S
H280 C291 0.931 . S
N281 Tb252 2.617 . S
N281 C282 1.379 . S
N281 C285 1.334 . S
C282 N281 1.379 . S
C282 C284 1.416 . S
C282 C290 1.424 . S
C283 H278 0.930 . S
C283 C285 1.390 . S
C283 C286 1.339 . S
C284 C282 1.416 . S
C284 C286 1.416 . S
C284 C317 1.448 . S
C285 H270 0.930 . S
C285 N281 1.334 . S
C285 C283 1.390 . S
C286 C283 1.339 . S
C286 C284 1.416 . S
C286 H293 0.930 . S
N287 Tb252 2.572 . S
N287 C288 1.340 . S
N287 C290 1.361 . S
C288 H274 0.930 . S
C288 N287 1.340 . S
C288 C292 1.407 . S
C289 C290 1.413 . S
C289 C291 1.416 . S
C289 C318 1.427 . S
C290 C282 1.424 . S
C290 N287 1.361 . S
C290 C289 1.413 . S
C291 H280 0.931 . S
C291 C289 1.416 . S
C291 C292 1.332 . S
C292 H271 0.929 . S
C292 C288 1.407 . S
C292 C291 1.332 . S
H293 C286 0.930 . S
H294 C317 0.930 . S
H295 C318 0.929 . S
O296 Tb252 2.465 . S
O296 C316 1.264 . S
O297 Tb252 2.387 . S
O297 C308 1.264 . S
O298 Tb263 2.349 . S
O298 C308 1.243 . S
O299 Tb252 2.428 . S
O299 C316 1.256 . S
O300 Tb252 2.308 . S
O300 C315 1.266 . S
O301 Tb263 2.393 . S
O301 C315 1.248 . S
O302 Tb263 2.465 . S
O302 C327 1.264 . S
O303 Tb263 2.387 . S
O303 C319 1.264 . S
O304 Tb252 2.349 . S
O304 C319 1.243 . S
O305 Tb263 2.428 . S
O305 C327 1.256 . S
O306 Tb263 2.308 . S
O306 C326 1.266 . S
O307 Tb252 2.393 . S
O307 C326 1.248 . S
C308 O297 1.264 . S
C308 O298 1.243 . S
C309 C312 1.399 . S
C309 C314 1.383 . S
C309 C316 1.496 . S
C310 C311 1.399 . S
C310 C314 1.389 . S
C311 C310 1.399 . S
C311 C313 1.380 . S
C311 H328 0.929 . S
C312 C309 1.399 . S
C312 C313 1.392 . S
C312 H329 0.929 . S
C313 C311 1.380 . S
C313 C312 1.392 . S
C313 H330 0.929 . S
C314 C309 1.383 . S
C314 C310 1.389 . S
C314 H331 0.931 . S
C315 O300 1.266 . S
C315 O301 1.248 . S
C316 Tb252 2.802 . S
C316 O296 1.264 . S
C316 O299 1.256 . S
C316 C309 1.496 . S
C317 C284 1.448 . S
C317 H294 0.930 . S
C317 C318 1.328 . S
C318 C289 1.427 . S
C318 H295 0.929 . S
C318 C317 1.328 . S
C319 O303 1.264 . S
C319 O304 1.243 . S
C320 C323 1.399 1_655 S
C320 C324 1.383 . S
C320 C327 1.496 . S
C321 C322 1.399 1_655 S
C321 C324 1.389 . S
C322 C321 1.399 1_455 S
C322 C325 1.380 . S
C322 H332 0.929 . S
C323 C320 1.399 1_455 S
C323 C325 1.392 . S
C323 H333 0.929 . S
C324 C320 1.383 . S
C324 C321 1.389 . S
C324 H334 0.931 . S
C325 C322 1.380 . S
C325 C323 1.392 . S
C325 H335 0.929 . S
C326 O306 1.266 . S
C326 O307 1.248 . S
C327 Tb263 2.802 . S
C327 O302 1.264 . S
C327 O305 1.256 . S
C327 C320 1.496 . S
H328 C311 0.929 . S
H329 C312 0.929 . S
H330 C313 0.929 . S
H331 C314 0.931 . S
H332 C322 0.929 . S
H333 C323 0.929 . S
H334 C324 0.931 . S
H335 C325 0.929 . S
Tb336 N365 2.617 . S
Tb336 N371 2.572 . S
Tb336 O380 2.465 . S
Tb336 O381 2.387 . S
Tb336 O383 2.428 . S
Tb336 O384 2.308 . S
Tb336 O388 2.349 . S
Tb336 O391 2.393 . S
Tb336 C400 2.802 . S
C337 N338 1.379 . S
C337 C340 1.416 . S
C337 C344 1.424 . S
N338 C337 1.379 . S
N338 C341 1.334 . S
N338 Tb347 2.617 . S
C339 C341 1.390 . S
C339 C342 1.339 . S
C339 H359 0.930 . S
C340 C337 1.416 . S
C340 C342 1.416 . S
C340 C346 1.448 . S
C341 N338 1.334 . S
C341 C339 1.390 . S
C341 H352 0.930 . S
C342 C339 1.339 . S
C342 C340 1.416 . S
C342 H363 0.930 . S
C343 C344 1.413 . S
C343 C345 1.427 . S
C343 C349 1.416 . S
C344 C337 1.424 . S
C344 C343 1.413 . S
C344 N348 1.361 . S
C345 C343 1.427 . S
C345 C346 1.328 . S
C345 H360 0.929 . S
C346 C340 1.448 . S
C346 C345 1.328 . S
C346 H361 0.930 . S
Tb347 N338 2.617 . S
Tb347 N348 2.572 . S
Tb347 O382 2.349 . S
Tb347 O385 2.393 . S
Tb347 O386 2.465 . S
Tb347 O387 2.387 . S
Tb347 O389 2.428 . S
Tb347 O390 2.308 . S
Tb347 C411 2.802 . S
N348 C344 1.361 . S
N348 Tb347 2.572 . S
N348 C350 1.340 . S
C349 C343 1.416 . S
C349 C351 1.332 . S
C349 H357 0.931 . S
C350 N348 1.340 . S
C350 C351 1.407 . S
C350 H356 0.930 . S
C351 C349 1.332 . S
C351 C350 1.407 . S
C351 H353 0.929 . S
H352 C341 0.930 . S
H353 C351 0.929 . S
H354 C369 0.930 . S
H355 C376 0.929 . S
H356 C350 0.930 . S
H357 C349 0.931 . S
H358 C372 0.930 . S
H359 C339 0.930 . S
H360 C345 0.929 . S
H361 C346 0.930 . S
H362 C367 0.930 . S
H363 C342 0.930 . S
H364 C375 0.931 . S
N365 Tb336 2.617 . S
N365 C366 1.379 . S
N365 C369 1.334 . S
C366 N365 1.379 . S
C366 C368 1.416 . S
C366 C374 1.424 . S
C367 H362 0.930 . S
C367 C369 1.390 . S
C367 C370 1.339 . S
C368 C366 1.416 . S
C368 C370 1.416 . S
C368 C401 1.448 1_565 S
C369 H354 0.930 . S
C369 N365 1.334 . S
C369 C367 1.390 . S
C370 C367 1.339 . S
C370 C368 1.416 . S
C370 H377 0.930 . S
N371 Tb336 2.572 . S
N371 C372 1.340 . S
N371 C374 1.361 . S
C372 H358 0.930 . S
C372 N371 1.340 . S
C372 C376 1.407 1_565 S
C373 C374 1.413 1_545 S
C373 C375 1.416 . S
C373 C402 1.427 . S
C374 C366 1.424 . S
C374 N371 1.361 . S
C374 C373 1.413 1_565 S
C375 H364 0.931 . S
C375 C373 1.416 . S
C375 C376 1.332 . S
C376 H355 0.929 . S
C376 C372 1.407 1_545 S
C376 C375 1.332 . S
H377 C370 0.930 . S
H378 C401 0.930 . S
H379 C402 0.929 . S
O380 Tb336 2.465 . S
O380 C400 1.264 . S
O381 Tb336 2.387 . S
O381 C392 1.264 . S
O382 Tb347 2.349 . S
O382 C392 1.243 . S
O383 Tb336 2.428 . S
O383 C400 1.256 . S
O384 Tb336 2.308 . S
O384 C399 1.266 . S
O385 Tb347 2.393 . S
O385 C399 1.248 . S
O386 Tb347 2.465 . S
O386 C411 1.264 . S
O387 Tb347 2.387 . S
O387 C403 1.264 . S
O388 Tb336 2.349 . S
O388 C403 1.243 . S
O389 Tb347 2.428 . S
O389 C411 1.256 . S
O390 Tb347 2.308 . S
O390 C410 1.266 . S
O391 Tb336 2.393 . S
O391 C410 1.248 . S
C392 O381 1.264 . S
C392 O382 1.243 . S
C393 C396 1.399 . S
C393 C398 1.383 . S
C393 C400 1.496 . S
C394 C395 1.399 . S
C394 C398 1.389 . S
C395 C394 1.399 . S
C395 C397 1.380 . S
C395 H412 0.929 . S
C396 C393 1.399 . S
C396 C397 1.392 . S
C396 H413 0.929 . S
C397 C395 1.380 . S
C397 C396 1.392 . S
C397 H414 0.929 . S
C398 C393 1.383 . S
C398 C394 1.389 . S
C398 H415 0.931 . S
C399 O384 1.266 . S
C399 O385 1.248 . S
C400 Tb336 2.802 . S
C400 O380 1.264 . S
C400 O383 1.256 . S
C400 C393 1.496 . S
C401 C368 1.448 1_545 S
C401 H378 0.930 . S
C401 C402 1.328 . S
C402 C373 1.427 . S
C402 H379 0.929 . S
C402 C401 1.328 . S
C403 O387 1.264 . S
C403 O388 1.243 . S
C404 C407 1.399 . S
C404 C408 1.383 . S
C404 C411 1.496 . S
C405 C406 1.399 . S
C405 C408 1.389 . S
C406 C405 1.399 . S
C406 C409 1.380 . S
C406 H416 0.929 . S
C407 C404 1.399 . S
C407 C409 1.392 . S
C407 H417 0.929 . S
C408 C404 1.383 . S
C408 C405 1.389 . S
C408 H418 0.931 . S
C409 C406 1.380 . S
C409 C407 1.392 . S
C409 H419 0.929 . S
C410 O390 1.266 . S
C410 O391 1.248 . S
C411 Tb347 2.802 . S
C411 O386 1.264 . S
C411 O389 1.256 . S
C411 C404 1.496 . S
H412 C395 0.929 . S
H413 C396 0.929 . S
H414 C397 0.929 . S
H415 C398 0.931 . S
H416 C406 0.929 . S
H417 C407 0.929 . S
H418 C408 0.931 . S
H419 C409 0.929 . S
Tb420 N449 2.617 . S
Tb420 N455 2.572 . S
Tb420 O464 2.465 . S
Tb420 O465 2.387 . S
Tb420 O467 2.428 . S
Tb420 O468 2.308 . S
Tb420 O472 2.349 . S
Tb420 O475 2.393 . S
Tb420 C484 2.802 . S
C421 N422 1.379 . S
C421 C424 1.416 . S
C421 C428 1.424 . S
N422 C421 1.379 . S
N422 C425 1.334 . S
N422 Tb431 2.617 . S
C423 C425 1.390 . S
C423 C426 1.339 . S
C423 H443 0.930 . S
C424 C421 1.416 . S
C424 C426 1.416 . S
C424 C430 1.448 . S
C425 N422 1.334 . S
C425 C423 1.390 . S
C425 H436 0.930 . S
C426 C423 1.339 . S
C426 C424 1.416 . S
C426 H447 0.930 . S
C427 C428 1.413 . S
C427 C429 1.427 . S
C427 C433 1.416 . S
C428 C421 1.424 . S
C428 C427 1.413 . S
C428 N432 1.361 . S
C429 C427 1.427 . S
C429 C430 1.328 . S
C429 H444 0.929 . S
C430 C424 1.448 . S
C430 C429 1.328 . S
C430 H445 0.930 . S
Tb431 N422 2.617 . S
Tb431 N432 2.572 . S
Tb431 O466 2.349 . S
Tb431 O469 2.393 . S
Tb431 O470 2.465 . S
Tb431 O471 2.387 . S
Tb431 O473 2.428 . S
Tb431 O474 2.308 . S
Tb431 C495 2.802 . S
N432 C428 1.361 . S
N432 Tb431 2.572 . S
N432 C434 1.340 . S
C433 C427 1.416 . S
C433 C435 1.332 . S
C433 H441 0.931 . S
C434 N432 1.340 . S
C434 C435 1.407 . S
C434 H440 0.930 . S
C435 C433 1.332 . S
C435 C434 1.407 . S
C435 H437 0.929 . S
H436 C425 0.930 . S
H437 C435 0.929 . S
H438 C453 0.930 . S
H439 C460 0.929 . S
H440 C434 0.930 . S
H441 C433 0.931 . S
H442 C456 0.930 . S
H443 C423 0.930 . S
H444 C429 0.929 . S
H445 C430 0.930 . S
H446 C451 0.930 . S
H447 C426 0.930 . S
H448 C459 0.931 . S
N449 Tb420 2.617 . S
N449 C450 1.379 . S
N449 C453 1.334 . S
C450 N449 1.379 . S
C450 C452 1.416 . S
C450 C458 1.424 . S
C451 H446 0.930 . S
C451 C453 1.390 . S
C451 C454 1.339 . S
C452 C450 1.416 . S
C452 C454 1.416 . S
C452 C485 1.448 . S
C453 H438 0.930 . S
C453 N449 1.334 . S
C453 C451 1.390 . S
C454 C451 1.339 . S
C454 C452 1.416 . S
C454 H461 0.930 . S
N455 Tb420 2.572 . S
N455 C456 1.340 . S
N455 C458 1.361 . S
C456 H442 0.930 . S
C456 N455 1.340 . S
C456 C460 1.407 . S
C457 C458 1.413 . S
C457 C459 1.416 . S
C457 C486 1.427 . S
C458 C450 1.424 . S
C458 N455 1.361 . S
C458 C457 1.413 . S
C459 H448 0.931 . S
C459 C457 1.416 . S
C459 C460 1.332 . S
C460 H439 0.929 . S
C460 C456 1.407 . S
C460 C459 1.332 . S
H461 C454 0.930 . S
H462 C485 0.930 . S
H463 C486 0.929 . S
O464 Tb420 2.465 . S
O464 C484 1.264 . S
O465 Tb420 2.387 . S
O465 C476 1.264 . S
O466 Tb431 2.349 . S
O466 C476 1.243 . S
O467 Tb420 2.428 . S
O467 C484 1.256 . S
O468 Tb420 2.308 . S
O468 C483 1.266 . S
O469 Tb431 2.393 . S
O469 C483 1.248 . S
O470 Tb431 2.465 . S
O470 C495 1.264 . S
O471 Tb431 2.387 . S
O471 C487 1.264 . S
O472 Tb420 2.349 . S
O472 C487 1.243 . S
O473 Tb431 2.428 . S
O473 C495 1.256 . S
O474 Tb431 2.308 . S
O474 C494 1.266 . S
O475 Tb420 2.393 . S
O475 C494 1.248 . S
C476 O465 1.264 . S
C476 O466 1.243 . S
C477 C480 1.399 . S
C477 C482 1.383 . S
C477 C484 1.496 . S
C478 C479 1.399 . S
C478 C482 1.389 . S
C479 C478 1.399 . S
C479 C481 1.380 . S
C479 H496 0.929 . S
C480 C477 1.399 . S
C480 C481 1.392 . S
C480 H497 0.929 . S
C481 C479 1.380 . S
C481 C480 1.392 . S
C481 H498 0.929 . S
C482 C477 1.383 . S
C482 C478 1.389 . S
C482 H499 0.931 . S
C483 O468 1.266 . S
C483 O469 1.248 . S
C484 Tb420 2.802 . S
C484 O464 1.264 . S
C484 O467 1.256 . S
C484 C477 1.496 . S
C485 C452 1.448 . S
C485 H462 0.930 . S
C485 C486 1.328 . S
C486 C457 1.427 . S
C486 H463 0.929 . S
C486 C485 1.328 . S
C487 O471 1.264 . S
C487 O472 1.243 . S
C488 C491 1.399 . S
C488 C492 1.383 . S
C488 C495 1.496 . S
C489 C490 1.399 . S
C489 C492 1.389 . S
C490 C489 1.399 . S
C490 C493 1.380 . S
C490 H500 0.929 . S
C491 C488 1.399 . S
C491 C493 1.392 . S
C491 H501 0.929 . S
C492 C488 1.383 . S
C492 C489 1.389 . S
C492 H502 0.931 . S
C493 C490 1.380 . S
C493 C491 1.392 . S
C493 H503 0.929 . S
C494 O474 1.266 . S
C494 O475 1.248 . S
C495 Tb431 2.802 . S
C495 O470 1.264 . S
C495 O473 1.256 . S
C495 C488 1.496 . S
H496 C479 0.929 . S
H497 C480 0.929 . S
H498 C481 0.929 . S
H499 C482 0.931 . S
H500 C490 0.929 . S
H501 C491 0.929 . S
H502 C492 0.931 . S
H503 C493 0.929 . S
Tb504 N533 2.617 . S
Tb504 N539 2.572 . S
Tb504 O548 2.465 . S
Tb504 O549 2.387 . S
Tb504 O551 2.428 . S
Tb504 O552 2.308 . S
Tb504 O556 2.349 . S
Tb504 O559 2.393 . S
Tb504 C568 2.802 . S
C505 N506 1.379 . S
C505 C508 1.416 . S
C505 C512 1.424 . S
N506 C505 1.379 . S
N506 C509 1.334 . S
N506 Tb515 2.617 . S
C507 C509 1.390 . S
C507 C510 1.339 . S
C507 H527 0.930 . S
C508 C505 1.416 . S
C508 C510 1.416 . S
C508 C514 1.448 . S
C509 N506 1.334 . S
C509 C507 1.390 . S
C509 H520 0.930 . S
C510 C507 1.339 . S
C510 C508 1.416 . S
C510 H531 0.930 . S
C511 C512 1.413 . S
C511 C513 1.427 . S
C511 C517 1.416 . S
C512 C505 1.424 . S
C512 C511 1.413 . S
C512 N516 1.361 . S
C513 C511 1.427 . S
C513 C514 1.328 . S
C513 H528 0.929 . S
C514 C508 1.448 . S
C514 C513 1.328 . S
C514 H529 0.930 . S
Tb515 N506 2.617 . S
Tb515 N516 2.572 . S
Tb515 O550 2.349 . S
Tb515 O553 2.393 . S
Tb515 O554 2.465 . S
Tb515 O555 2.387 . S
Tb515 O557 2.428 . S
Tb515 O558 2.308 . S
Tb515 C579 2.802 . S
N516 C512 1.361 . S
N516 Tb515 2.572 . S
N516 C518 1.340 . S
C517 C511 1.416 . S
C517 C519 1.332 . S
C517 H525 0.931 . S
C518 N516 1.340 . S
C518 C519 1.407 . S
C518 H524 0.930 . S
C519 C517 1.332 . S
C519 C518 1.407 . S
C519 H521 0.929 . S
H520 C509 0.930 . S
H521 C519 0.929 . S
H522 C537 0.930 . S
H523 C544 0.929 . S
H524 C518 0.930 . S
H525 C517 0.931 . S
H526 C540 0.930 . S
H527 C507 0.930 . S
H528 C513 0.929 . S
H529 C514 0.930 . S
H530 C535 0.930 . S
H531 C510 0.930 . S
H532 C543 0.931 . S
N533 Tb504 2.617 . S
N533 C534 1.379 . S
N533 C537 1.334 . S
C534 N533 1.379 . S
C534 C536 1.416 . S
C534 C542 1.424 . S
C535 H530 0.930 . S
C535 C537 1.390 . S
C535 C538 1.339 . S
C536 C534 1.416 . S
C536 C538 1.416 . S
C536 C569 1.448 1_545 S
C537 H522 0.930 . S
C537 N533 1.334 . S
C537 C535 1.390 . S
C538 C535 1.339 . S
C538 C536 1.416 . S
C538 H545 0.930 . S
N539 Tb504 2.572 . S
N539 C540 1.340 . S
N539 C542 1.361 . S
C540 H526 0.930 . S
C540 N539 1.340 . S
C540 C544 1.407 1_545 S
C541 C542 1.413 1_565 S
C541 C543 1.416 . S
C541 C570 1.427 . S
C542 C534 1.424 . S
C542 N539 1.361 . S
C542 C541 1.413 1_545 S
C543 H532 0.931 . S
C543 C541 1.416 . S
C543 C544 1.332 . S
C544 H523 0.929 . S
C544 C540 1.407 1_565 S
C544 C543 1.332 . S
H545 C538 0.930 . S
H546 C569 0.930 . S
H547 C570 0.929 . S
O548 Tb504 2.465 . S
O548 C568 1.264 . S
O549 Tb504 2.387 . S
O549 C560 1.264 . S
O550 Tb515 2.349 . S
O550 C560 1.243 . S
O551 Tb504 2.428 . S
O551 C568 1.256 . S
O552 Tb504 2.308 . S
O552 C567 1.266 . S
O553 Tb515 2.393 . S
O553 C567 1.248 . S
O554 Tb515 2.465 . S
O554 C579 1.264 . S
O555 Tb515 2.387 . S
O555 C571 1.264 . S
O556 Tb504 2.349 . S
O556 C571 1.243 . S
O557 Tb515 2.428 . S
O557 C579 1.256 . S
O558 Tb515 2.308 . S
O558 C578 1.266 . S
O559 Tb504 2.393 . S
O559 C578 1.248 . S
C560 O549 1.264 . S
C560 O550 1.243 . S
C561 C564 1.399 . S
C561 C566 1.383 . S
C561 C568 1.496 . S
C562 C563 1.399 . S
C562 C566 1.389 . S
C563 C562 1.399 . S
C563 C565 1.380 . S
C563 H580 0.929 . S
C564 C561 1.399 . S
C564 C565 1.392 . S
C564 H581 0.929 . S
C565 C563 1.380 . S
C565 C564 1.392 . S
C565 H582 0.929 . S
C566 C561 1.383 . S
C566 C562 1.389 . S
C566 H583 0.931 . S
C567 O552 1.266 . S
C567 O553 1.248 . S
C568 Tb504 2.802 . S
C568 O548 1.264 . S
C568 O551 1.256 . S
C568 C561 1.496 . S
C569 C536 1.448 1_565 S
C569 H546 0.930 . S
C569 C570 1.328 . S
C570 C541 1.427 . S
C570 H547 0.929 . S
C570 C569 1.328 . S
C571 O555 1.264 . S
C571 O556 1.243 . S
C572 C575 1.399 . S
C572 C576 1.383 . S
C572 C579 1.496 . S
C573 C574 1.399 . S
C573 C576 1.389 . S
C574 C573 1.399 . S
C574 C577 1.380 . S
C574 H584 0.929 . S
C575 C572 1.399 . S
C575 C577 1.392 . S
C575 H585 0.929 . S
C576 C572 1.383 . S
C576 C573 1.389 . S
C576 H586 0.931 . S
C577 C574 1.380 . S
C577 C575 1.392 . S
C577 H587 0.929 . S
C578 O558 1.266 . S
C578 O559 1.248 . S
C579 Tb515 2.802 . S
C579 O554 1.264 . S
C579 O557 1.256 . S
C579 C572 1.496 . S
H580 C563 0.929 . S
H581 C564 0.929 . S
H582 C565 0.929 . S
H583 C566 0.931 . S
H584 C574 0.929 . S
H585 C575 0.929 . S
H586 C576 0.931 . S
H587 C577 0.929 . S
Tb588 N617 2.617 . S
Tb588 N623 2.572 . S
Tb588 O632 2.465 . S
Tb588 O633 2.387 . S
Tb588 O635 2.428 . S
Tb588 O636 2.308 . S
Tb588 O640 2.349 . S
Tb588 O643 2.393 . S
Tb588 C652 2.802 . S
C589 N590 1.379 . S
C589 C592 1.416 . S
C589 C596 1.424 . S
N590 C589 1.379 . S
N590 C593 1.334 . S
N590 Tb599 2.617 . S
C591 C593 1.390 . S
C591 C594 1.339 . S
C591 H611 0.930 . S
C592 C589 1.416 . S
C592 C594 1.416 . S
C592 C598 1.448 . S
C593 N590 1.334 . S
C593 C591 1.390 . S
C593 H604 0.930 . S
C594 C591 1.339 . S
C594 C592 1.416 . S
C594 H615 0.930 . S
C595 C596 1.413 . S
C595 C597 1.427 . S
C595 C601 1.416 . S
C596 C589 1.424 . S
C596 C595 1.413 . S
C596 N600 1.361 . S
C597 C595 1.427 . S
C597 C598 1.328 . S
C597 H612 0.929 . S
C598 C592 1.448 . S
C598 C597 1.328 . S
C598 H613 0.930 . S
Tb599 N590 2.617 . S
Tb599 N600 2.572 . S
Tb599 O634 2.349 . S
Tb599 O637 2.393 . S
Tb599 O638 2.465 . S
Tb599 O639 2.387 . S
Tb599 O641 2.428 . S
Tb599 O642 2.308 . S
Tb599 C663 2.802 . S
N600 C596 1.361 . S
N600 Tb599 2.572 . S
N600 C602 1.340 . S
C601 C595 1.416 . S
C601 C603 1.332 . S
C601 H609 0.931 . S
C602 N600 1.340 . S
C602 C603 1.407 . S
C602 H608 0.930 . S
C603 C601 1.332 . S
C603 C602 1.407 . S
C603 H605 0.929 . S
H604 C593 0.930 . S
H605 C603 0.929 . S
H606 C621 0.930 1_655 S
H607 C628 0.929 . S
H608 C602 0.930 . S
H609 C601 0.931 . S
H610 C624 0.930 . S
H611 C591 0.930 . S
H612 C597 0.929 . S
H613 C598 0.930 . S
H614 C619 0.930 . S
H615 C594 0.930 . S
H616 C627 0.931 . S
N617 Tb588 2.617 . S
N617 C618 1.379 . S
N617 C621 1.334 . S
C618 N617 1.379 . S
C618 C620 1.416 . S
C618 C626 1.424 . S
C619 H614 0.930 . S
C619 C621 1.390 1_655 S
C619 C622 1.339 1_655 S
C620 C618 1.416 . S
C620 C622 1.416 . S
C620 C653 1.448 . S
C621 H606 0.930 1_455 S
C621 N617 1.334 . S
C621 C619 1.390 1_455 S
C622 C619 1.339 1_455 S
C622 C620 1.416 . S
C622 H629 0.930 1_455 S
N623 Tb588 2.572 . S
N623 C624 1.340 . S
N623 C626 1.361 . S
C624 H610 0.930 . S
C624 N623 1.340 . S
C624 C628 1.407 . S
C625 C626 1.413 . S
C625 C627 1.416 . S
C625 C654 1.427 . S
C626 C618 1.424 . S
C626 N623 1.361 . S
C626 C625 1.413 . S
C627 H616 0.931 . S
C627 C625 1.416 . S
C627 C628 1.332 . S
C628 H607 0.929 . S
C628 C624 1.407 . S
C628 C627 1.332 . S
H629 C622 0.930 1_655 S
H630 C653 0.930 . S
H631 C654 0.929 . S
O632 Tb588 2.465 . S
O632 C652 1.264 . S
O633 Tb588 2.387 . S
O633 C644 1.264 . S
O634 Tb599 2.349 . S
O634 C644 1.243 . S
O635 Tb588 2.428 . S
O635 C652 1.256 . S
O636 Tb588 2.308 . S
O636 C651 1.266 . S
O637 Tb599 2.393 . S
O637 C651 1.248 . S
O638 Tb599 2.465 . S
O638 C663 1.264 . S
O639 Tb599 2.387 . S
O639 C655 1.264 . S
O640 Tb588 2.349 . S
O640 C655 1.243 . S
O641 Tb599 2.428 . S
O641 C663 1.256 . S
O642 Tb599 2.308 . S
O642 C662 1.266 . S
O643 Tb588 2.393 . S
O643 C662 1.248 . S
C644 O633 1.264 . S
C644 O634 1.243 . S
C645 C648 1.399 1_455 S
C645 C650 1.383 . S
C645 C652 1.496 . S
C646 C647 1.399 1_455 S
C646 C650 1.389 . S
C647 C646 1.399 1_655 S
C647 C649 1.380 . S
C647 H664 0.929 . S
C648 C645 1.399 1_655 S
C648 C649 1.392 . S
C648 H665 0.929 . S
C649 C647 1.380 . S
C649 C648 1.392 . S
C649 H666 0.929 . S
C650 C645 1.383 . S
C650 C646 1.389 . S
C650 H667 0.931 . S
C651 O636 1.266 . S
C651 O637 1.248 . S
C652 Tb588 2.802 . S
C652 O632 1.264 . S
C652 O635 1.256 . S
C652 C645 1.496 . S
C653 C620 1.448 . S
C653 H630 0.930 . S
C653 C654 1.328 . S
C654 C625 1.427 . S
C654 H631 0.929 . S
C654 C653 1.328 . S
C655 O639 1.264 . S
C655 O640 1.243 . S
C656 C659 1.399 . S
C656 C660 1.383 . S
C656 C663 1.496 . S
C657 C658 1.399 . S
C657 C660 1.389 . S
C658 C657 1.399 . S
C658 C661 1.380 . S
C658 H668 0.929 . S
C659 C656 1.399 . S
C659 C661 1.392 . S
C659 H669 0.929 . S
C660 C656 1.383 . S
C660 C657 1.389 . S
C660 H670 0.931 . S
C661 C658 1.380 . S
C661 C659 1.392 . S
C661 H671 0.929 . S
C662 O642 1.266 . S
C662 O643 1.248 . S
C663 Tb599 2.802 . S
C663 O638 1.264 . S
C663 O641 1.256 . S
C663 C656 1.496 . S
H664 C647 0.929 . S
H665 C648 0.929 . S
H666 C649 0.929 . S
H667 C650 0.931 . S
H668 C658 0.929 . S
H669 C659 0.929 . S
H670 C660 0.931 . S
H671 C661 0.929 . S
Tb672 N701 2.617 . S
Tb672 N707 2.572 . S
Tb672 O716 2.465 . S
Tb672 O717 2.387 . S
Tb672 O719 2.428 . S
Tb672 O720 2.308 . S
Tb672 O724 2.349 . S
Tb672 O727 2.393 . S
Tb672 C736 2.802 . S
C673 N674 1.379 . S
C673 C676 1.416 . S
C673 C680 1.424 . S
N674 C673 1.379 . S
N674 C677 1.334 . S
N674 Tb683 2.617 . S
C675 C677 1.390 . S
C675 C678 1.339 . S
C675 H695 0.930 . S
C676 C673 1.416 . S
C676 C678 1.416 . S
C676 C682 1.448 . S
C677 N674 1.334 . S
C677 C675 1.390 . S
C677 H688 0.930 . S
C678 C675 1.339 . S
C678 C676 1.416 . S
C678 H699 0.930 . S
C679 C680 1.413 . S
C679 C681 1.427 . S
C679 C685 1.416 . S
C680 C673 1.424 . S
C680 C679 1.413 . S
C680 N684 1.361 . S
C681 C679 1.427 . S
C681 C682 1.328 . S
C681 H696 0.929 . S
C682 C676 1.448 . S
C682 C681 1.328 . S
C682 H697 0.930 . S
Tb683 N674 2.617 . S
Tb683 N684 2.572 . S
Tb683 O718 2.349 . S
Tb683 O721 2.393 . S
Tb683 O722 2.465 . S
Tb683 O723 2.387 . S
Tb683 O725 2.428 . S
Tb683 O726 2.308 . S
Tb683 C747 2.802 . S
N684 C680 1.361 . S
N684 Tb683 2.572 . S
N684 C686 1.340 . S
C685 C679 1.416 . S
C685 C687 1.332 . S
C685 H693 0.931 . S
C686 N684 1.340 . S
C686 C687 1.407 . S
C686 H692 0.930 . S
C687 C685 1.332 . S
C687 C686 1.407 . S
C687 H689 0.929 . S
H688 C677 0.930 . S
H689 C687 0.929 . S
H690 C705 0.930 . S
H691 C712 0.929 . S
H692 C686 0.930 . S
H693 C685 0.931 . S
H694 C708 0.930 . S
H695 C675 0.930 . S
H696 C681 0.929 . S
H697 C682 0.930 . S
H698 C703 0.930 . S
H699 C678 0.930 . S
H700 C711 0.931 . S
N701 Tb672 2.617 . S
N701 C702 1.379 . S
N701 C705 1.334 . S
C702 N701 1.379 . S
C702 C704 1.416 . S
C702 C710 1.424 . S
C703 H698 0.930 . S
C703 C705 1.390 . S
C703 C706 1.339 . S
C704 C702 1.416 . S
C704 C706 1.416 . S
C704 C737 1.448 . S
C705 H690 0.930 . S
C705 N701 1.334 . S
C705 C703 1.390 . S
C706 C703 1.339 . S
C706 C704 1.416 . S
C706 H713 0.930 . S
N707 Tb672 2.572 . S
N707 C708 1.340 . S
N707 C710 1.361 . S
C708 H694 0.930 . S
C708 N707 1.340 . S
C708 C712 1.407 . S
C709 C710 1.413 . S
C709 C711 1.416 . S
C709 C738 1.427 . S
C710 C702 1.424 . S
C710 N707 1.361 . S
C710 C709 1.413 . S
C711 H700 0.931 . S
C711 C709 1.416 . S
C711 C712 1.332 . S
C712 H691 0.929 . S
C712 C708 1.407 . S
C712 C711 1.332 . S
H713 C706 0.930 . S
H714 C737 0.930 . S
H715 C738 0.929 . S
O716 Tb672 2.465 . S
O716 C736 1.264 . S
O717 Tb672 2.387 . S
O717 C728 1.264 . S
O718 Tb683 2.349 . S
O718 C728 1.243 . S
O719 Tb672 2.428 . S
O719 C736 1.256 . S
O720 Tb672 2.308 . S
O720 C735 1.266 . S
O721 Tb683 2.393 . S
O721 C735 1.248 . S
O722 Tb683 2.465 . S
O722 C747 1.264 . S
O723 Tb683 2.387 . S
O723 C739 1.264 . S
O724 Tb672 2.349 . S
O724 C739 1.243 . S
O725 Tb683 2.428 . S
O725 C747 1.256 . S
O726 Tb683 2.308 . S
O726 C746 1.266 . S
O727 Tb672 2.393 . S
O727 C746 1.248 . S
C728 O717 1.264 . S
C728 O718 1.243 . S
C729 C732 1.399 . S
C729 C734 1.383 . S
C729 C736 1.496 . S
C730 C731 1.399 . S
C730 C734 1.389 . S
C731 C730 1.399 . S
C731 C733 1.380 . S
C731 H748 0.929 . S
C732 C729 1.399 . S
C732 C733 1.392 . S
C732 H749 0.929 . S
C733 C731 1.380 . S
C733 C732 1.392 . S
C733 H750 0.929 . S
C734 C729 1.383 . S
C734 C730 1.389 . S
C734 H751 0.931 . S
C735 O720 1.266 . S
C735 O721 1.248 . S
C736 Tb672 2.802 . S
C736 O716 1.264 . S
C736 O719 1.256 . S
C736 C729 1.496 . S
C737 C704 1.448 . S
C737 H714 0.930 . S
C737 C738 1.328 . S
C738 C709 1.427 . S
C738 H715 0.929 . S
C738 C737 1.328 . S
C739 O723 1.264 . S
C739 O724 1.243 . S
C740 C743 1.399 . S
C740 C744 1.383 . S
C740 C747 1.496 . S
C741 C742 1.399 . S
C741 C744 1.389 . S
C742 C741 1.399 . S
C742 C745 1.380 . S
C742 H752 0.929 . S
C743 C740 1.399 . S
C743 C745 1.392 . S
C743 H753 0.929 . S
C744 C740 1.383 . S
C744 C741 1.389 . S
C744 H754 0.931 . S
C745 C742 1.380 . S
C745 C743 1.392 . S
C745 H755 0.929 . S
C746 O726 1.266 . S
C746 O727 1.248 . S
C747 Tb683 2.802 . S
C747 O722 1.264 . S
C747 O725 1.256 . S
C747 C740 1.496 . S
H748 C731 0.929 . S
H749 C732 0.929 . S
H750 C733 0.929 . S
H751 C734 0.931 . S
H752 C742 0.929 . S
H753 C743 0.929 . S
H754 C744 0.931 . S
H755 C745 0.929 . S
Tb756 N785 2.617 1_545 S
Tb756 N791 2.572 1_545 S
Tb756 O800 2.465 . S
Tb756 O801 2.387 1_545 S
Tb756 O803 2.428 1_545 S
Tb756 O804 2.308 . S
Tb756 O808 2.349 . S
Tb756 O811 2.393 1_545 S
Tb756 C820 2.802 . S
C757 N758 1.379 . S
C757 C760 1.416 . S
C757 C764 1.424 . S
N758 C757 1.379 . S
N758 C761 1.334 . S
N758 Tb767 2.617 . S
C759 C761 1.390 . S
C759 C762 1.339 . S
C759 H779 0.930 . S
C760 C757 1.416 . S
C760 C762 1.416 . S
C760 C766 1.448 . S
C761 N758 1.334 . S
C761 C759 1.390 . S
C761 H772 0.930 . S
C762 C759 1.339 . S
C762 C760 1.416 . S
C762 H783 0.930 . S
C763 C764 1.413 . S
C763 C765 1.427 . S
C763 C769 1.416 . S
C764 C757 1.424 . S
C764 C763 1.413 . S
C764 N768 1.361 . S
C765 C763 1.427 . S
C765 C766 1.328 . S
C765 H780 0.929 . S
C766 C760 1.448 . S
C766 C765 1.328 . S
C766 H781 0.930 . S
Tb767 N758 2.617 . S
Tb767 N768 2.572 . S
Tb767 O802 2.349 . S
Tb767 O805 2.393 . S
Tb767 O806 2.465 . S
Tb767 O807 2.387 . S
Tb767 O809 2.428 . S
Tb767 O810 2.308 1_545 S
Tb767 C831 2.802 . S
N768 C764 1.361 . S
N768 Tb767 2.572 . S
N768 C770 1.340 . S
C769 C763 1.416 . S
C769 C771 1.332 . S
C769 H777 0.931 . S
C770 N768 1.340 . S
C770 C771 1.407 . S
C770 H776 0.930 . S
C771 C769 1.332 . S
C771 C770 1.407 . S
C771 H773 0.929 . S
H772 C761 0.930 . S
H773 C771 0.929 . S
H774 C789 0.930 . S
H775 C796 0.929 . S
H776 C770 0.930 . S
H777 C769 0.931 . S
H778 C792 0.930 . S
H779 C759 0.930 . S
H780 C765 0.929 . S
H781 C766 0.930 . S
H782 C787 0.930 . S
H783 C762 0.930 . S
H784 C795 0.931 . S
N785 Tb756 2.617 1_565 S
N785 C786 1.379 . S
N785 C789 1.334 . S
C786 N785 1.379 . S
C786 C788 1.416 1_455 S
C786 C794 1.424 1_455 S
C787 H782 0.930 . S
C787 C789 1.390 . S
C787 C790 1.339 . S
C788 C786 1.416 1_655 S
C788 C790 1.416 1_655 S
C788 C821 1.448 . S
C789 H774 0.930 . S
C789 N785 1.334 . S
C789 C787 1.390 . S
C790 C787 1.339 . S
C790 C788 1.416 1_455 S
C790 H797 0.930 . S
N791 Tb756 2.572 1_565 S
N791 C792 1.340 1_465 S
N791 C794 1.361 1_455 S
C792 H778 0.930 . S
C792 N791 1.340 1_645 S
C792 C796 1.407 . S
C793 C794 1.413 . S
C793 C795 1.416 . S
C793 C822 1.427 . S
C794 C786 1.424 1_655 S
C794 N791 1.361 1_655 S
C794 C793 1.413 . S
C795 H784 0.931 . S
C795 C793 1.416 . S
C795 C796 1.332 1_565 S
C796 H775 0.929 . S
C796 C792 1.407 . S
C796 C795 1.332 1_545 S
H797 C790 0.930 . S
H798 C821 0.930 . S
H799 C822 0.929 . S
O800 Tb756 2.465 . S
O800 C820 1.264 . S
O801 Tb756 2.387 1_565 S
O801 C812 1.264 1_565 S
O802 Tb767 2.349 . S
O802 C812 1.243 . S
O803 Tb756 2.428 1_565 S
O803 C820 1.256 1_565 S
O804 Tb756 2.308 . S
O804 C819 1.266 . S
O805 Tb767 2.393 . S
O805 C819 1.248 . S
O806 Tb767 2.465 . S
O806 C831 1.264 . S
O807 Tb767 2.387 . S
O807 C823 1.264 . S
O808 Tb756 2.349 . S
O808 C823 1.243 . S
O809 Tb767 2.428 . S
O809 C831 1.256 . S
O810 Tb767 2.308 1_565 S
O810 C830 1.266 . S
O811 Tb756 2.393 1_565 S
O811 C830 1.248 . S
C812 O801 1.264 1_545 S
C812 O802 1.243 . S
C813 C816 1.399 1_545 S
C813 C818 1.383 . S
C813 C820 1.496 . S
C814 C815 1.399 . S
C814 C818 1.389 . S
C815 C814 1.399 . S
C815 C817 1.380 1_545 S
C815 H832 0.929 1_556 S
C816 C813 1.399 1_565 S
C816 C817 1.392 . S
C816 H833 0.929 . S
C817 C815 1.380 1_565 S
C817 C816 1.392 . S
C817 H834 0.929 . S
C818 C813 1.383 . S
C818 C814 1.389 . S
C818 H835 0.931 . S
C819 O804 1.266 . S
C819 O805 1.248 . S
C820 Tb756 2.802 . S
C820 O800 1.264 . S
C820 O803 1.256 1_545 S
C820 C813 1.496 . S
C821 C788 1.448 . S
C821 H798 0.930 . S
C821 C822 1.328 . S
C822 C793 1.427 . S
C822 H799 0.929 . S
C822 C821 1.328 . S
C823 O807 1.264 . S
C823 O808 1.243 . S
C824 C827 1.399 . S
C824 C828 1.383 . S
C824 C831 1.496 . S
C825 C826 1.399 . S
C825 C828 1.389 . S
C826 C825 1.399 . S
C826 C829 1.380 . S
C826 H836 0.929 . S
C827 C824 1.399 . S
C827 C829 1.392 . S
C827 H837 0.929 . S
C828 C824 1.383 . S
C828 C825 1.389 . S
C828 H838 0.931 1_545 S
C829 C826 1.380 . S
C829 C827 1.392 . S
C829 H839 0.929 . S
C830 O810 1.266 . S
C830 O811 1.248 . S
C831 Tb767 2.802 . S
C831 O806 1.264 . S
C831 O809 1.256 . S
C831 C824 1.496 . S
H832 C815 0.929 1_554 S
H833 C816 0.929 . S
H834 C817 0.929 . S
H835 C818 0.931 . S
H836 C826 0.929 . S
H837 C827 0.929 . S
H838 C828 0.931 1_565 S
H839 C829 0.929 . S
Tb840 N869 2.617 . S
Tb840 N875 2.572 . S
Tb840 O884 2.465 . S
Tb840 O885 2.387 . S
Tb840 O887 2.428 . S
Tb840 O888 2.308 . S
Tb840 O892 2.349 . S
Tb840 O895 2.393 . S
Tb840 C904 2.802 . S
C841 N842 1.379 . S
C841 C844 1.416 . S
C841 C848 1.424 . S
N842 C841 1.379 . S
N842 C845 1.334 . S
N842 Tb851 2.617 . S
C843 C845 1.390 . S
C843 C846 1.339 . S
C843 H863 0.930 . S
C844 C841 1.416 . S
C844 C846 1.416 . S
C844 C850 1.448 . S
C845 N842 1.334 . S
C845 C843 1.390 . S
C845 H856 0.930 . S
C846 C843 1.339 . S
C846 C844 1.416 . S
C846 H867 0.930 . S
C847 C848 1.413 . S
C847 C849 1.427 . S
C847 C853 1.416 . S
C848 C841 1.424 . S
C848 C847 1.413 . S
C848 N852 1.361 . S
C849 C847 1.427 . S
C849 C850 1.328 . S
C849 H864 0.929 . S
C850 C844 1.448 . S
C850 C849 1.328 . S
C850 H865 0.930 . S
Tb851 N842 2.617 . S
Tb851 N852 2.572 . S
Tb851 O886 2.349 . S
Tb851 O889 2.393 . S
Tb851 O890 2.465 . S
Tb851 O891 2.387 . S
Tb851 O893 2.428 . S
Tb851 O894 2.308 . S
Tb851 C915 2.802 . S
N852 C848 1.361 . S
N852 Tb851 2.572 . S
N852 C854 1.340 . S
C853 C847 1.416 . S
C853 C855 1.332 . S
C853 H861 0.931 . S
C854 N852 1.340 . S
C854 C855 1.407 . S
C854 H860 0.930 . S
C855 C853 1.332 . S
C855 C854 1.407 . S
C855 H857 0.929 . S
H856 C845 0.930 . S
H857 C855 0.929 . S
H858 C873 0.930 . S
H859 C880 0.929 . S
H860 C854 0.930 . S
H861 C853 0.931 . S
H862 C876 0.930 . S
H863 C843 0.930 . S
H864 C849 0.929 . S
H865 C850 0.930 . S
H866 C871 0.930 . S
H867 C846 0.930 . S
H868 C879 0.931 . S
N869 Tb840 2.617 . S
N869 C870 1.379 . S
N869 C873 1.334 . S
C870 N869 1.379 . S
C870 C872 1.416 . S
C870 C878 1.424 . S
C871 H866 0.930 . S
C871 C873 1.390 . S
C871 C874 1.339 . S
C872 C870 1.416 . S
C872 C874 1.416 . S
C872 C905 1.448 . S
C873 H858 0.930 . S
C873 N869 1.334 . S
C873 C871 1.390 . S
C874 C871 1.339 . S
C874 C872 1.416 . S
C874 H881 0.930 . S
N875 Tb840 2.572 . S
N875 C876 1.340 . S
N875 C878 1.361 . S
C876 H862 0.930 . S
C876 N875 1.340 . S
C876 C880 1.407 . S
C877 C878 1.413 . S
C877 C879 1.416 . S
C877 C906 1.427 . S
C878 C870 1.424 . S
C878 N875 1.361 . S
C878 C877 1.413 . S
C879 H868 0.931 . S
C879 C877 1.416 . S
C879 C880 1.332 . S
C880 H859 0.929 . S
C880 C876 1.407 . S
C880 C879 1.332 . S
H881 C874 0.930 . S
H882 C905 0.930 . S
H883 C906 0.929 . S
O884 Tb840 2.465 . S
O884 C904 1.264 . S
O885 Tb840 2.387 . S
O885 C896 1.264 . S
O886 Tb851 2.349 . S
O886 C896 1.243 . S
O887 Tb840 2.428 . S
O887 C904 1.256 . S
O888 Tb840 2.308 . S
O888 C903 1.266 . S
O889 Tb851 2.393 . S
O889 C903 1.248 . S
O890 Tb851 2.465 . S
O890 C915 1.264 . S
O891 Tb851 2.387 . S
O891 C907 1.264 . S
O892 Tb840 2.349 . S
O892 C907 1.243 . S
O893 Tb851 2.428 . S
O893 C915 1.256 . S
O894 Tb851 2.308 . S
O894 C914 1.266 . S
O895 Tb840 2.393 . S
O895 C914 1.248 . S
C896 O885 1.264 . S
C896 O886 1.243 . S
C897 C900 1.399 . S
C897 C902 1.383 . S
C897 C904 1.496 . S
C898 C899 1.399 . S
C898 C902 1.389 . S
C899 C898 1.399 . S
C899 C901 1.380 . S
C899 H916 0.929 . S
C900 C897 1.399 . S
C900 C901 1.392 . S
C900 H917 0.929 . S
C901 C899 1.380 . S
C901 C900 1.392 . S
C901 H918 0.929 . S
C902 C897 1.383 . S
C902 C898 1.389 . S
C902 H919 0.931 . S
C903 O888 1.266 . S
C903 O889 1.248 . S
C904 Tb840 2.802 . S
C904 O884 1.264 . S
C904 O887 1.256 . S
C904 C897 1.496 . S
C905 C872 1.448 . S
C905 H882 0.930 . S
C905 C906 1.328 . S
C906 C877 1.427 . S
C906 H883 0.929 . S
C906 C905 1.328 . S
C907 O891 1.264 . S
C907 O892 1.243 . S
C908 C911 1.399 . S
C908 C912 1.383 . S
C908 C915 1.496 . S
C909 C910 1.399 . S
C909 C912 1.389 . S
C910 C909 1.399 . S
C910 C913 1.380 . S
C910 H920 0.929 . S
C911 C908 1.399 . S
C911 C913 1.392 . S
C911 H921 0.929 . S
C912 C908 1.383 . S
C912 C909 1.389 . S
C912 H922 0.931 . S
C913 C910 1.380 . S
C913 C911 1.392 . S
C913 H923 0.929 . S
C914 O894 1.266 . S
C914 O895 1.248 . S
C915 Tb851 2.802 . S
C915 O890 1.264 . S
C915 O893 1.256 . S
C915 C908 1.496 . S
H916 C899 0.929 . S
H917 C900 0.929 . S
H918 C901 0.929 . S
H919 C902 0.931 . S
H920 C910 0.929 . S
H921 C911 0.929 . S
H922 C912 0.931 . S
H923 C913 0.929 . S
Tb924 N953 2.617 . S
Tb924 N959 2.572 . S
Tb924 O968 2.465 . S
Tb924 O969 2.387 . S
Tb924 O971 2.428 . S
Tb924 O972 2.308 . S
Tb924 O976 2.349 1_565 S
Tb924 O979 2.393 . S
Tb924 C988 2.802 . S
C925 N926 1.379 . S
C925 C928 1.416 . S
C925 C932 1.424 . S
N926 C925 1.379 . S
N926 C929 1.334 . S
N926 Tb935 2.617 1_545 S
C927 C929 1.390 . S
C927 C930 1.339 . S
C927 H947 0.930 . S
C928 C925 1.416 . S
C928 C930 1.416 . S
C928 C934 1.448 . S
C929 N926 1.334 . S
C929 C927 1.390 . S
C929 H940 0.930 . S
C930 C927 1.339 . S
C930 C928 1.416 . S
C930 H951 0.930 . S
C931 C932 1.413 . S
C931 C933 1.427 . S
C931 C937 1.416 . S
C932 C925 1.424 . S
C932 C931 1.413 . S
C932 N936 1.361 . S
C933 C931 1.427 . S
C933 C934 1.328 . S
C933 H948 0.929 . S
C934 C928 1.448 . S
C934 C933 1.328 . S
C934 H949 0.930 . S
Tb935 N926 2.617 1_565 S
Tb935 N936 2.572 1_565 S
Tb935 O970 2.349 . S
Tb935 O973 2.393 . S
Tb935 O974 2.465 . S
Tb935 O975 2.387 1_565 S
Tb935 O977 2.428 . S
Tb935 O978 2.308 . S
Tb935 C999 2.802 . S
N936 C932 1.361 . S
N936 Tb935 2.572 1_545 S
N936 C938 1.340 . S
C937 C931 1.416 . S
C937 C939 1.332 . S
C937 H945 0.931 . S
C938 N936 1.340 . S
C938 C939 1.407 . S
C938 H944 0.930 . S
C939 C937 1.332 . S
C939 C938 1.407 . S
C939 H941 0.929 . S
H940 C929 0.930 . S
H941 C939 0.929 . S
H942 C957 0.930 . S
H943 C964 0.929 . S
H944 C938 0.930 . S
H945 C937 0.931 . S
H946 C960 0.930 . S
H947 C927 0.930 . S
H948 C933 0.929 . S
H949 C934 0.930 . S
H950 C955 0.930 . S
H951 C930 0.930 . S
H952 C963 0.931 . S
N953 Tb924 2.617 . S
N953 C954 1.379 . S
N953 C957 1.334 . S
C954 N953 1.379 . S
C954 C956 1.416 . S
C954 C962 1.424 . S
C955 H950 0.930 . S
C955 C957 1.390 . S
C955 C958 1.339 . S
C956 C954 1.416 . S
C956 C958 1.416 . S
C956 C989 1.448 . S
C957 H942 0.930 . S
C957 N953 1.334 . S
C957 C955 1.390 . S
C958 C955 1.339 . S
C958 C956 1.416 . S
C958 H965 0.930 . S
N959 Tb924 2.572 . S
N959 C960 1.340 . S
N959 C962 1.361 . S
C960 H946 0.930 . S
C960 N959 1.340 . S
C960 C964 1.407 . S
C961 C962 1.413 . S
C961 C963 1.416 . S
C961 C990 1.427 . S
C962 C954 1.424 . S
C962 N959 1.361 . S
C962 C961 1.413 . S
C963 H952 0.931 . S
C963 C961 1.416 . S
C963 C964 1.332 . S
C964 H943 0.929 . S
C964 C960 1.407 . S
C964 C963 1.332 . S
H965 C958 0.930 . S
H966 C989 0.930 . S
H967 C990 0.929 . S
O968 Tb924 2.465 . S
O968 C988 1.264 . S
O969 Tb924 2.387 . S
O969 C980 1.264 . S
O970 Tb935 2.349 . S
O970 C980 1.243 . S
O971 Tb924 2.428 . S
O971 C988 1.256 . S
O972 Tb924 2.308 . S
O972 C987 1.266 . S
O973 Tb935 2.393 . S
O973 C987 1.253 . S
O974 Tb935 2.465 . S
O974 C999 1.264 . S
O975 Tb935 2.387 1_545 S
O975 C991 1.264 . S
O976 Tb924 2.349 1_545 S
O976 C991 1.243 . S
O977 Tb935 2.428 . S
O977 C999 1.256 . S
O978 Tb935 2.308 . S
O978 C998 1.266 . S
O979 Tb924 2.393 . S
O979 C998 1.248 . S
C980 O969 1.264 . S
C980 O970 1.243 . S
C981 C984 1.399 . S
C981 C986 1.383 . S
C981 C988 1.496 . S
C982 C983 1.399 1_545 S
C982 C986 1.389 1_545 S
C983 C982 1.399 1_565 S
C983 C985 1.380 . S
C983 H1000 0.929 . S
C984 C981 1.399 . S
C984 C985 1.392 . S
C984 H1001 0.929 . S
C985 C983 1.380 . S
C985 C984 1.392 . S
C985 H1002 0.929 . S
C986 C981 1.383 . S
C986 C982 1.389 1_565 S
C986 H1003 0.933 . S
C987 O972 1.266 . S
C987 O973 1.253 . S
C988 Tb924 2.802 . S
C988 O968 1.264 . S
C988 O971 1.256 . S
C988 C981 1.496 . S
C989 C956 1.448 . S
C989 H966 0.930 . S
C989 C990 1.328 . S
C990 C961 1.427 . S
C990 H967 0.929 . S
C990 C989 1.328 . S
C991 O975 1.264 . S
C991 O976 1.243 . S
C992 C995 1.399 . S
C992 C996 1.383 . S
C992 C999 1.496 . S
C993 C994 1.399 . S
C993 C996 1.389 . S
C994 C993 1.399 . S
C994 C997 1.380 . S
C994 H1004 0.929 . S
C995 C992 1.399 . S
C995 C997 1.392 . S
C995 H1005 0.929 . S
C996 C992 1.383 . S
C996 C993 1.389 . S
C996 H1006 0.931 . S
C997 C994 1.380 . S
C997 C995 1.392 . S
C997 H1007 0.929 . S
C998 O978 1.266 . S
C998 O979 1.248 . S
C999 Tb935 2.802 . S
C999 O974 1.264 . S
C999 O977 1.256 . S
C999 C992 1.496 . S
H1000 C983 0.929 . S
H1001 C984 0.929 . S
H1002 C985 0.929 . S
H1003 C986 0.933 . S
H1004 C994 0.929 . S
H1005 C995 0.929 . S
H1006 C996 0.931 . S
H1007 C997 0.929 . S
Tb1008 N1037 2.617 . S
Tb1008 N1043 2.572 . S
Tb1008 O1052 2.465 . S
Tb1008 O1053 2.387 . S
Tb1008 O1055 2.428 . S
Tb1008 O1056 2.308 . S
Tb1008 O1060 2.349 . S
Tb1008 O1063 2.393 . S
Tb1008 C1072 2.802 . S
C1009 N1010 1.379 . S
C1009 C1012 1.416 . S
C1009 C1016 1.424 . S
N1010 C1009 1.379 . S
N1010 C1013 1.334 . S
N1010 Tb1019 2.617 . S
C1011 C1013 1.390 . S
C1011 C1014 1.339 . S
C1011 H1031 0.930 . S
C1012 C1009 1.416 . S
C1012 C1014 1.416 . S
C1012 C1018 1.448 . S
C1013 N1010 1.334 . S
C1013 C1011 1.390 . S
C1013 H1024 0.930 . S
C1014 C1011 1.339 . S
C1014 C1012 1.416 . S
C1014 H1035 0.930 . S
C1015 C1016 1.413 . S
C1015 C1017 1.427 . S
C1015 C1021 1.416 . S
C1016 C1009 1.424 . S
C1016 C1015 1.413 . S
C1016 N1020 1.361 . S
C1017 C1015 1.427 . S
C1017 C1018 1.328 . S
C1017 H1032 0.929 . S
C1018 C1012 1.448 . S
C1018 C1017 1.328 . S
C1018 H1033 0.930 . S
Tb1019 N1010 2.617 . S
Tb1019 N1020 2.572 . S
Tb1019 O1054 2.349 . S
Tb1019 O1057 2.393 . S
Tb1019 O1058 2.465 . S
Tb1019 O1059 2.387 . S
Tb1019 O1061 2.428 . S
Tb1019 O1062 2.308 . S
Tb1019 C1083 2.802 . S
N1020 C1016 1.361 . S
N1020 Tb1019 2.572 . S
N1020 C1022 1.340 . S
C1021 C1015 1.416 . S
C1021 C1023 1.332 . S
C1021 H1029 0.931 . S
C1022 N1020 1.340 . S
C1022 C1023 1.407 . S
C1022 H1028 0.930 . S
C1023 C1021 1.332 . S
C1023 C1022 1.407 . S
C1023 H1025 0.929 . S
H1024 C1013 0.930 . S
H1025 C1023 0.929 . S
H1026 C1041 0.930 . S
H1027 C1048 0.929 . S
H1028 C1022 0.930 . S
H1029 C1021 0.931 . S
H1030 C1044 0.930 . S
H1031 C1011 0.930 . S
H1032 C1017 0.929 . S
H1033 C1018 0.930 . S
H1034 C1039 0.930 . S
H1035 C1014 0.930 . S
H1036 C1047 0.931 . S
N1037 Tb1008 2.617 . S
N1037 C1038 1.379 . S
N1037 C1041 1.334 . S
C1038 N1037 1.379 . S
C1038 C1040 1.416 . S
C1038 C1046 1.424 . S
C1039 H1034 0.930 . S
C1039 C1041 1.390 . S
C1039 C1042 1.339 . S
C1040 C1038 1.416 . S
C1040 C1042 1.416 . S
C1040 C1073 1.448 . S
C1041 H1026 0.930 . S
C1041 N1037 1.334 . S
C1041 C1039 1.390 . S
C1042 C1039 1.339 . S
C1042 C1040 1.416 . S
C1042 H1049 0.930 . S
N1043 Tb1008 2.572 . S
N1043 C1044 1.340 . S
N1043 C1046 1.361 . S
C1044 H1030 0.930 . S
C1044 N1043 1.340 . S
C1044 C1048 1.407 . S
C1045 C1046 1.413 . S
C1045 C1047 1.416 . S
C1045 C1074 1.427 . S
C1046 C1038 1.424 . S
C1046 N1043 1.361 . S
C1046 C1045 1.413 . S
C1047 H1036 0.931 . S
C1047 C1045 1.416 . S
C1047 C1048 1.332 . S
C1048 H1027 0.929 . S
C1048 C1044 1.407 . S
C1048 C1047 1.332 . S
H1049 C1042 0.930 . S
H1050 C1073 0.930 . S
H1051 C1074 0.929 . S
O1052 Tb1008 2.465 . S
O1052 C1072 1.264 . S
O1053 Tb1008 2.387 . S
O1053 C1064 1.264 . S
O1054 Tb1019 2.349 . S
O1054 C1064 1.243 . S
O1055 Tb1008 2.428 . S
O1055 C1072 1.256 . S
O1056 Tb1008 2.308 . S
O1056 C1071 1.266 . S
O1057 Tb1019 2.393 . S
O1057 C1071 1.248 . S
O1058 Tb1019 2.465 . S
O1058 C1083 1.264 . S
O1059 Tb1019 2.387 . S
O1059 C1075 1.264 . S
O1060 Tb1008 2.349 . S
O1060 C1075 1.243 . S
O1061 Tb1019 2.428 . S
O1061 C1083 1.256 . S
O1062 Tb1019 2.308 . S
O1062 C1082 1.266 . S
O1063 Tb1008 2.393 . S
O1063 C1082 1.248 . S
C1064 O1053 1.264 . S
C1064 O1054 1.243 . S
C1065 C1068 1.399 . S
C1065 C1070 1.383 . S
C1065 C1072 1.496 . S
C1066 C1067 1.399 . S
C1066 C1070 1.389 . S
C1067 C1066 1.399 . S
C1067 C1069 1.380 . S
C1067 H1084 0.929 . S
C1068 C1065 1.399 . S
C1068 C1069 1.392 . S
C1068 H1085 0.929 . S
C1069 C1067 1.380 . S
C1069 C1068 1.392 . S
C1069 H1086 0.929 . S
C1070 C1065 1.383 . S
C1070 C1066 1.389 . S
C1070 H1087 0.931 . S
C1071 O1056 1.266 . S
C1071 O1057 1.248 . S
C1072 Tb1008 2.802 . S
C1072 O1052 1.264 . S
C1072 O1055 1.256 . S
C1072 C1065 1.496 . S
C1073 C1040 1.448 . S
C1073 H1050 0.930 . S
C1073 C1074 1.328 . S
C1074 C1045 1.427 . S
C1074 H1051 0.929 . S
C1074 C1073 1.328 . S
C1075 O1059 1.264 . S
C1075 O1060 1.243 . S
C1076 C1079 1.399 . S
C1076 C1080 1.383 . S
C1076 C1083 1.496 . S
C1077 C1078 1.399 . S
C1077 C1080 1.389 . S
C1078 C1077 1.399 . S
C1078 C1081 1.380 . S
C1078 H1088 0.929 . S
C1079 C1076 1.399 . S
C1079 C1081 1.392 . S
C1079 H1089 0.929 . S
C1080 C1076 1.383 . S
C1080 C1077 1.389 . S
C1080 H1090 0.931 . S
C1081 C1078 1.380 . S
C1081 C1079 1.392 . S
C1081 H1091 0.929 . S
C1082 O1062 1.266 . S
C1082 O1063 1.248 . S
C1083 Tb1019 2.802 . S
C1083 O1058 1.264 . S
C1083 O1061 1.256 . S
C1083 C1076 1.496 . S
H1084 C1067 0.929 . S
H1085 C1068 0.929 . S
H1086 C1069 0.929 . S
H1087 C1070 0.931 . S
H1088 C1078 0.929 . S
H1089 C1079 0.929 . S
H1090 C1080 0.931 . S
H1091 C1081 0.929 . S
Tb1092 N1121 2.617 . S
Tb1092 N1127 2.572 . S
Tb1092 O1136 2.465 . S
Tb1092 O1137 2.387 . S
Tb1092 O1139 2.428 . S
Tb1092 O1140 2.308 1_565 S
Tb1092 O1144 2.349 . S
Tb1092 O1147 2.393 . S
Tb1092 C1156 2.802 . S
C1093 N1094 1.379 . S
C1093 C1096 1.416 1_655 S
C1093 C1100 1.424 1_655 S
N1094 C1093 1.379 . S
N1094 C1097 1.334 . S
N1094 Tb1103 2.617 1_545 S
C1095 C1097 1.390 . S
C1095 C1098 1.339 . S
C1095 H1115 0.930 . S
C1096 C1093 1.416 1_455 S
C1096 C1098 1.416 1_455 S
C1096 C1102 1.448 . S
C1097 N1094 1.334 . S
C1097 C1095 1.390 . S
C1097 H1108 0.930 . S
C1098 C1095 1.339 . S
C1098 C1096 1.416 1_655 S
C1098 H1119 0.930 . S
C1099 C1100 1.413 . S
C1099 C1101 1.427 . S
C1099 C1105 1.416 . S
C1100 C1093 1.424 1_455 S
C1100 C1099 1.413 . S
C1100 N1104 1.361 1_455 S
C1101 C1099 1.427 . S
C1101 C1102 1.328 . S
C1101 H1116 0.929 . S
C1102 C1096 1.448 . S
C1102 C1101 1.328 . S
C1102 H1117 0.930 . S
Tb1103 N1094 2.617 1_565 S
Tb1103 N1104 2.572 1_565 S
Tb1103 O1138 2.349 . S
Tb1103 O1141 2.393 1_565 S
Tb1103 O1142 2.465 . S
Tb1103 O1143 2.387 1_565 S
Tb1103 O1145 2.428 1_565 S
Tb1103 O1146 2.308 . S
Tb1103 C1167 2.802 . S
N1104 C1100 1.361 1_655 S
N1104 Tb1103 2.572 1_545 S
N1104 C1106 1.340 1_645 S
C1105 C1099 1.416 . S
C1105 C1107 1.332 1_545 S
C1105 H1113 0.931 . S
C1106 N1104 1.340 1_465 S
C1106 C1107 1.407 . S
C1106 H1112 0.930 . S
C1107 C1105 1.332 1_565 S
C1107 C1106 1.407 . S
C1107 H1109 0.929 . S
H1108 C1097 0.930 . S
H1109 C1107 0.929 . S
H1110 C1125 0.930 . S
H1111 C1132 0.929 . S
H1112 C1106 0.930 . S
H1113 C1105 0.931 . S
H1114 C1128 0.930 . S
H1115 C1095 0.930 . S
H1116 C1101 0.929 . S
H1117 C1102 0.930 . S
H1118 C1123 0.930 . S
H1119 C1098 0.930 . S
H1120 C1131 0.931 . S
N1121 Tb1092 2.617 . S
N1121 C1122 1.379 . S
N1121 C1125 1.334 . S
C1122 N1121 1.379 . S
C1122 C1124 1.416 . S
C1122 C1130 1.424 . S
C1123 H1118 0.930 . S
C1123 C1125 1.390 . S
C1123 C1126 1.339 . S
C1124 C1122 1.416 . S
C1124 C1126 1.416 . S
C1124 C1157 1.448 . S
C1125 H1110 0.930 . S
C1125 N1121 1.334 . S
C1125 C1123 1.390 . S
C1126 C1123 1.339 . S
C1126 C1124 1.416 . S
C1126 H1133 0.930 . S
N1127 Tb1092 2.572 . S
N1127 C1128 1.340 . S
N1127 C1130 1.361 . S
C1128 H1114 0.930 . S
C1128 N1127 1.340 . S
C1128 C1132 1.407 . S
C1129 C1130 1.413 . S
C1129 C1131 1.416 . S
C1129 C1158 1.427 . S
C1130 C1122 1.424 . S
C1130 N1127 1.361 . S
C1130 C1129 1.413 . S
C1131 H1120 0.931 . S
C1131 C1129 1.416 . S
C1131 C1132 1.332 . S
C1132 H1111 0.929 . S
C1132 C1128 1.407 . S
C1132 C1131 1.332 . S
H1133 C1126 0.930 . S
H1134 C1157 0.930 . S
H1135 C1158 0.929 . S
O1136 Tb1092 2.465 . S
O1136 C1156 1.264 . S
O1137 Tb1092 2.387 . S
O1137 C1148 1.264 . S
O1138 Tb1103 2.349 . S
O1138 C1148 1.243 . S
O1139 Tb1092 2.428 . S
O1139 C1156 1.256 . S
O1140 Tb1092 2.308 1_545 S
O1140 C1155 1.266 . S
O1141 Tb1103 2.393 1_545 S
O1141 C1155 1.248 . S
O1142 Tb1103 2.465 . S
O1142 C1167 1.264 . S
O1143 Tb1103 2.387 1_545 S
O1143 C1159 1.264 1_545 S
O1144 Tb1092 2.349 . S
O1144 C1159 1.243 . S
O1145 Tb1103 2.428 1_545 S
O1145 C1167 1.256 1_545 S
O1146 Tb1103 2.308 . S
O1146 C1166 1.266 . S
O1147 Tb1092 2.393 . S
O1147 C1166 1.248 . S
C1148 O1137 1.264 . S
C1148 O1138 1.243 . S
C1149 C1152 1.399 . S
C1149 C1154 1.383 . S
C1149 C1156 1.496 . S
C1150 C1151 1.399 . S
C1150 C1154 1.389 . S
C1151 C1150 1.399 . S
C1151 C1153 1.380 . S
C1151 H1168 0.929 . S
C1152 C1149 1.399 . S
C1152 C1153 1.392 . S
C1152 H1169 0.929 . S
C1153 C1151 1.380 . S
C1153 C1152 1.392 . S
C1153 H1170 0.929 . S
C1154 C1149 1.383 . S
C1154 C1150 1.389 . S
C1154 H1171 0.931 1_565 S
C1155 O1140 1.266 . S
C1155 O1141 1.248 . S
C1156 Tb1092 2.802 . S
C1156 O1136 1.264 . S
C1156 O1139 1.256 . S
C1156 C1149 1.496 . S
C1157 C1124 1.448 . S
C1157 H1134 0.930 . S
C1157 C1158 1.328 . S
C1158 C1129 1.427 . S
C1158 H1135 0.929 . S
C1158 C1157 1.328 . S
C1159 O1143 1.264 1_565 S
C1159 O1144 1.243 . S
C1160 C1163 1.399 1_565 S
C1160 C1164 1.383 . S
C1160 C1167 1.496 . S
C1161 C1162 1.399 . S
C1161 C1164 1.389 . S
C1162 C1161 1.399 . S
C1162 C1165 1.380 1_565 S
C1162 H1172 0.929 1_554 S
C1163 C1160 1.399 1_545 S
C1163 C1165 1.392 . S
C1163 H1173 0.929 . S
C1164 C1160 1.383 . S
C1164 C1161 1.389 . S
C1164 H1174 0.931 . S
C1165 C1162 1.380 1_545 S
C1165 C1163 1.392 . S
C1165 H1175 0.929 . S
C1166 O1146 1.266 . S
C1166 O1147 1.248 . S
C1167 Tb1103 2.802 . S
C1167 O1142 1.264 . S
C1167 O1145 1.256 1_565 S
C1167 C1160 1.496 . S
H1168 C1151 0.929 . S
H1169 C1152 0.929 . S
H1170 C1153 0.929 . S
H1171 C1154 0.931 1_545 S
H1172 C1162 0.929 1_556 S
H1173 C1163 0.929 . S
H1174 C1164 0.931 . S
H1175 C1165 0.929 . S
Tb1176 N1205 2.617 . S
Tb1176 N1211 2.572 . S
Tb1176 O1220 2.465 . S
Tb1176 O1221 2.387 . S
Tb1176 O1223 2.428 . S
Tb1176 O1224 2.308 . S
Tb1176 O1228 2.349 . S
Tb1176 O1231 2.393 . S
Tb1176 C1240 2.802 . S
C1177 N1178 1.379 . S
C1177 C1180 1.416 . S
C1177 C1184 1.424 . S
N1178 C1177 1.379 . S
N1178 C1181 1.334 . S
N1178 Tb1187 2.617 . S
C1179 C1181 1.390 . S
C1179 C1182 1.339 . S
C1179 H1199 0.930 . S
C1180 C1177 1.416 . S
C1180 C1182 1.416 . S
C1180 C1186 1.448 . S
C1181 N1178 1.334 . S
C1181 C1179 1.390 . S
C1181 H1192 0.930 . S
C1182 C1179 1.339 . S
C1182 C1180 1.416 . S
C1182 H1203 0.930 . S
C1183 C1184 1.413 . S
C1183 C1185 1.427 . S
C1183 C1189 1.416 . S
C1184 C1177 1.424 . S
C1184 C1183 1.413 . S
C1184 N1188 1.361 . S
C1185 C1183 1.427 . S
C1185 C1186 1.328 . S
C1185 H1200 0.929 . S
C1186 C1180 1.448 . S
C1186 C1185 1.328 . S
C1186 H1201 0.930 . S
Tb1187 N1178 2.617 . S
Tb1187 N1188 2.572 . S
Tb1187 O1222 2.349 . S
Tb1187 O1225 2.393 . S
Tb1187 O1226 2.465 . S
Tb1187 O1227 2.387 . S
Tb1187 O1229 2.428 . S
Tb1187 O1230 2.308 . S
Tb1187 C1251 2.802 . S
N1188 C1184 1.361 . S
N1188 Tb1187 2.572 . S
N1188 C1190 1.340 . S
C1189 C1183 1.416 . S
C1189 C1191 1.332 . S
C1189 H1197 0.931 . S
C1190 N1188 1.340 . S
C1190 C1191 1.407 . S
C1190 H1196 0.930 . S
C1191 C1189 1.332 . S
C1191 C1190 1.407 . S
C1191 H1193 0.929 . S
H1192 C1181 0.930 . S
H1193 C1191 0.929 . S
H1194 C1209 0.930 . S
H1195 C1216 0.929 . S
H1196 C1190 0.930 . S
H1197 C1189 0.931 . S
H1198 C1212 0.930 . S
H1199 C1179 0.930 . S
H1200 C1185 0.929 . S
H1201 C1186 0.930 . S
H1202 C1207 0.930 . S
H1203 C1182 0.930 . S
H1204 C1215 0.931 . S
N1205 Tb1176 2.617 . S
N1205 C1206 1.379 . S
N1205 C1209 1.334 . S
C1206 N1205 1.379 . S
C1206 C1208 1.416 . S
C1206 C1214 1.424 . S
C1207 H1202 0.930 . S
C1207 C1209 1.390 . S
C1207 C1210 1.339 . S
C1208 C1206 1.416 . S
C1208 C1210 1.416 . S
C1208 C1241 1.448 . S
C1209 H1194 0.930 . S
C1209 N1205 1.334 . S
C1209 C1207 1.390 . S
C1210 C1207 1.339 . S
C1210 C1208 1.416 . S
C1210 H1217 0.930 . S
N1211 Tb1176 2.572 . S
N1211 C1212 1.340 . S
N1211 C1214 1.361 . S
C1212 H1198 0.930 . S
C1212 N1211 1.340 . S
C1212 C1216 1.407 . S
C1213 C1214 1.413 . S
C1213 C1215 1.416 . S
C1213 C1242 1.427 . S
C1214 C1206 1.424 . S
C1214 N1211 1.361 . S
C1214 C1213 1.413 . S
C1215 H1204 0.931 . S
C1215 C1213 1.416 . S
C1215 C1216 1.332 . S
C1216 H1195 0.929 . S
C1216 C1212 1.407 . S
C1216 C1215 1.332 . S
H1217 C1210 0.930 . S
H1218 C1241 0.930 . S
H1219 C1242 0.929 . S
O1220 Tb1176 2.465 . S
O1220 C1240 1.264 . S
O1221 Tb1176 2.387 . S
O1221 C1232 1.264 . S
O1222 Tb1187 2.349 . S
O1222 C1232 1.243 . S
O1223 Tb1176 2.428 . S
O1223 C1240 1.256 . S
O1224 Tb1176 2.308 . S
O1224 C1239 1.266 . S
O1225 Tb1187 2.393 . S
O1225 C1239 1.248 . S
O1226 Tb1187 2.465 . S
O1226 C1251 1.264 . S
O1227 Tb1187 2.387 . S
O1227 C1243 1.264 . S
O1228 Tb1176 2.349 . S
O1228 C1243 1.243 . S
O1229 Tb1187 2.428 . S
O1229 C1251 1.256 . S
O1230 Tb1187 2.308 . S
O1230 C1250 1.266 . S
O1231 Tb1176 2.393 . S
O1231 C1250 1.248 . S
C1232 O1221 1.264 . S
C1232 O1222 1.243 . S
C1233 C1236 1.399 . S
C1233 C1238 1.383 . S
C1233 C1240 1.496 . S
C1234 C1235 1.399 . S
C1234 C1238 1.389 . S
C1235 C1234 1.399 . S
C1235 C1237 1.380 . S
C1235 H1252 0.929 . S
C1236 C1233 1.399 . S
C1236 C1237 1.392 . S
C1236 H1253 0.929 . S
C1237 C1235 1.380 . S
C1237 C1236 1.392 . S
C1237 H1254 0.929 . S
C1238 C1233 1.383 . S
C1238 C1234 1.389 . S
C1238 H1255 0.931 . S
C1239 O1224 1.266 . S
C1239 O1225 1.248 . S
C1240 Tb1176 2.802 . S
C1240 O1220 1.264 . S
C1240 O1223 1.256 . S
C1240 C1233 1.496 . S
C1241 C1208 1.448 . S
C1241 H1218 0.930 . S
C1241 C1242 1.328 . S
C1242 C1213 1.427 . S
C1242 H1219 0.929 . S
C1242 C1241 1.328 . S
C1243 O1227 1.264 . S
C1243 O1228 1.243 . S
C1244 C1247 1.399 . S
C1244 C1248 1.383 . S
C1244 C1251 1.496 . S
C1245 C1246 1.399 . S
C1245 C1248 1.389 . S
C1246 C1245 1.399 . S
C1246 C1249 1.380 . S
C1246 H1256 0.929 . S
C1247 C1244 1.399 . S
C1247 C1249 1.392 . S
C1247 H1257 0.929 . S
C1248 C1244 1.383 . S
C1248 C1245 1.389 . S
C1248 H1258 0.931 . S
C1249 C1246 1.380 . S
C1249 C1247 1.392 . S
C1249 H1259 0.929 . S
C1250 O1230 1.266 . S
C1250 O1231 1.248 . S
C1251 Tb1187 2.802 . S
C1251 O1226 1.264 . S
C1251 O1229 1.256 . S
C1251 C1244 1.496 . S
H1252 C1235 0.929 . S
H1253 C1236 0.929 . S
H1254 C1237 0.929 . S
H1255 C1238 0.931 . S
H1256 C1246 0.929 . S
H1257 C1247 0.929 . S
H1258 C1248 0.931 . S
H1259 C1249 0.929 . S
Tb1260 N1289 2.617 1_545 S
Tb1260 N1295 2.572 1_545 S
Tb1260 O1304 2.465 . S
Tb1260 O1305 2.387 1_545 S
Tb1260 O1307 2.428 . S
Tb1260 O1308 2.308 . S
Tb1260 O1312 2.349 . S
Tb1260 O1315 2.393 . S
Tb1260 C1324 2.802 . S
C1261 N1262 1.379 . S
C1261 C1264 1.416 . S
C1261 C1268 1.424 . S
N1262 C1261 1.379 . S
N1262 C1265 1.334 . S
N1262 Tb1271 2.617 . S
C1263 C1265 1.390 . S
C1263 C1266 1.339 . S
C1263 H1283 0.930 . S
C1264 C1261 1.416 . S
C1264 C1266 1.416 . S
C1264 C1270 1.448 . S
C1265 N1262 1.334 . S
C1265 C1263 1.390 . S
C1265 H1276 0.930 . S
C1266 C1263 1.339 . S
C1266 C1264 1.416 . S
C1266 H1287 0.930 . S
C1267 C1268 1.413 . S
C1267 C1269 1.427 . S
C1267 C1273 1.416 . S
C1268 C1261 1.424 . S
C1268 C1267 1.413 . S
C1268 N1272 1.361 . S
C1269 C1267 1.427 . S
C1269 C1270 1.328 . S
C1269 H1284 0.929 . S
C1270 C1264 1.448 . S
C1270 C1269 1.328 . S
C1270 H1285 0.930 . S
Tb1271 N1262 2.617 . S
Tb1271 N1272 2.572 . S
Tb1271 O1306 2.349 1_545 S
Tb1271 O1309 2.393 . S
Tb1271 O1310 2.465 . S
Tb1271 O1311 2.387 . S
Tb1271 O1313 2.428 . S
Tb1271 O1314 2.308 . S
Tb1271 C1335 2.802 . S
N1272 C1268 1.361 . S
N1272 Tb1271 2.572 . S
N1272 C1274 1.340 . S
C1273 C1267 1.416 . S
C1273 C1275 1.332 . S
C1273 H1281 0.931 . S
C1274 N1272 1.340 . S
C1274 C1275 1.407 . S
C1274 H1280 0.930 . S
C1275 C1273 1.332 . S
C1275 C1274 1.407 . S
C1275 H1277 0.929 . S
H1276 C1265 0.930 . S
H1277 C1275 0.929 . S
H1278 C1293 0.930 . S
H1279 C1300 0.929 . S
H1280 C1274 0.930 . S
H1281 C1273 0.931 . S
H1282 C1296 0.930 . S
H1283 C1263 0.930 . S
H1284 C1269 0.929 . S
H1285 C1270 0.930 . S
H1286 C1291 0.930 . S
H1287 C1266 0.930 . S
H1288 C1299 0.931 . S
N1289 Tb1260 2.617 1_565 S
N1289 C1290 1.379 . S
N1289 C1293 1.334 . S
C1290 N1289 1.379 . S
C1290 C1292 1.416 . S
C1290 C1298 1.424 . S
C1291 H1286 0.930 . S
C1291 C1293 1.390 . S
C1291 C1294 1.339 . S
C1292 C1290 1.416 . S
C1292 C1294 1.416 . S
C1292 C1325 1.448 . S
C1293 H1278 0.930 . S
C1293 N1289 1.334 . S
C1293 C1291 1.390 . S
C1294 C1291 1.339 . S
C1294 C1292 1.416 . S
C1294 H1301 0.930 . S
N1295 Tb1260 2.572 1_565 S
N1295 C1296 1.340 . S
N1295 C1298 1.361 . S
C1296 H1282 0.930 . S
C1296 N1295 1.340 . S
C1296 C1300 1.407 . S
C1297 C1298 1.413 . S
C1297 C1299 1.416 . S
C1297 C1326 1.427 . S
C1298 C1290 1.424 . S
C1298 N1295 1.361 . S
C1298 C1297 1.413 . S
C1299 H1288 0.931 . S
C1299 C1297 1.416 . S
C1299 C1300 1.332 . S
C1300 H1279 0.929 . S
C1300 C1296 1.407 . S
C1300 C1299 1.332 . S
H1301 C1294 0.930 . S
H1302 C1325 0.930 . S
H1303 C1326 0.929 . S
O1304 Tb1260 2.465 . S
O1304 C1324 1.264 . S
O1305 Tb1260 2.387 1_565 S
O1305 C1316 1.264 . S
O1306 Tb1271 2.349 1_565 S
O1306 C1316 1.243 . S
O1307 Tb1260 2.428 . S
O1307 C1324 1.256 . S
O1308 Tb1260 2.308 . S
O1308 C1323 1.266 . S
O1309 Tb1271 2.393 . S
O1309 C1323 1.248 . S
O1310 Tb1271 2.465 . S
O1310 C1335 1.264 . S
O1311 Tb1271 2.387 . S
O1311 C1327 1.264 . S
O1312 Tb1260 2.349 . S
O1312 C1327 1.243 . S
O1313 Tb1271 2.428 . S
O1313 C1335 1.256 . S
O1314 Tb1271 2.308 . S
O1314 C1334 1.266 . S
O1315 Tb1260 2.393 . S
O1315 C1334 1.253 . S
C1316 O1305 1.264 . S
C1316 O1306 1.243 . S
C1317 C1320 1.399 . S
C1317 C1322 1.383 . S
C1317 C1324 1.496 . S
C1318 C1319 1.399 . S
C1318 C1322 1.389 . S
C1319 C1318 1.399 . S
C1319 C1321 1.380 . S
C1319 H1336 0.929 . S
C1320 C1317 1.399 . S
C1320 C1321 1.392 . S
C1320 H1337 0.929 . S
C1321 C1319 1.380 . S
C1321 C1320 1.392 . S
C1321 H1338 0.929 . S
C1322 C1317 1.383 . S
C1322 C1318 1.389 . S
C1322 H1339 0.931 . S
C1323 O1308 1.266 . S
C1323 O1309 1.248 . S
C1324 Tb1260 2.802 . S
C1324 O1304 1.264 . S
C1324 O1307 1.256 . S
C1324 C1317 1.496 . S
C1325 C1292 1.448 . S
C1325 H1302 0.930 . S
C1325 C1326 1.328 . S
C1326 C1297 1.427 . S
C1326 H1303 0.929 . S
C1326 C1325 1.328 . S
C1327 O1311 1.264 . S
C1327 O1312 1.243 . S
C1328 C1331 1.399 . S
C1328 C1332 1.383 . S
C1328 C1335 1.496 . S
C1329 C1330 1.399 1_565 S
C1329 C1332 1.389 1_565 S
C1330 C1329 1.399 1_545 S
C1330 C1333 1.380 . S
C1330 H1340 0.929 . S
C1331 C1328 1.399 . S
C1331 C1333 1.392 . S
C1331 H1341 0.929 . S
C1332 C1328 1.383 . S
C1332 C1329 1.389 1_545 S
C1332 H1342 0.933 . S
C1333 C1330 1.380 . S
C1333 C1331 1.392 . S
C1333 H1343 0.929 . S
C1334 O1314 1.266 . S
C1334 O1315 1.253 . S
C1335 Tb1271 2.802 . S
C1335 O1310 1.264 . S
C1335 O1313 1.256 . S
C1335 C1328 1.496 . S
H1336 C1319 0.929 . S
H1337 C1320 0.929 . S
H1338 C1321 0.929 . S
H1339 C1322 0.931 . S
H1340 C1330 0.929 . S
H1341 C1331 0.929 . S
H1342 C1332 0.933 . S
H1343 C1333 0.929 . S
H1344 C1350 0.930 . S
H1345 C1354 0.930 . S
H1346 C1359 0.929 . S
H1347 C1357 0.929 . S
H1348 C1352 0.929 . S
H1349 C1358 0.929 . S
C1350 H1344 0.930 . S
C1350 C1351 1.367 . S
C1350 C1358 1.378 . S
C1351 C1350 1.367 . S
C1351 C1359 1.433 . S
C1352 H1348 0.929 . S
C1352 C1354 1.378 . S
C1352 C1356 1.350 . S
C1353 C1356 1.463 . S
C1353 C1358 1.350 . S
C1353 N1361 1.427 . S
C1354 H1345 0.930 . S
C1354 C1352 1.378 . S
C1354 C1355 1.367 . S
C1355 C1354 1.367 . S
C1355 C1357 1.433 . S
C1356 C1352 1.350 . S
C1356 C1353 1.463 . S
C1356 N1360 1.427 . S
C1357 H1347 0.929 . S
C1357 C1355 1.433 . S
C1357 N1360 1.384 . S
C1358 H1349 0.929 . S
C1358 C1350 1.378 . S
C1358 C1353 1.350 . S
C1359 H1346 0.929 . S
C1359 C1351 1.433 . S
C1359 N1361 1.384 . S
N1360 C1356 1.427 . S
N1360 C1357 1.384 . S
N1361 C1353 1.427 . S
N1361 C1359 1.384 . S
H1362 C1368 0.930 . S
H1363 C1372 0.930 . S
H1364 C1377 0.929 . S
H1365 C1375 0.929 . S
H1366 C1370 0.929 . S
H1367 C1376 0.929 . S
C1368 H1362 0.930 . S
C1368 C1369 1.367 . S
C1368 C1376 1.378 . S
C1369 C1368 1.367 . S
C1369 C1377 1.433 . S
C1370 H1366 0.929 . S
C1370 C1372 1.378 . S
C1370 C1374 1.350 . S
C1371 C1374 1.463 . S
C1371 C1376 1.350 . S
C1371 N1379 1.427 . S
C1372 H1363 0.930 . S
C1372 C1370 1.378 . S
C1372 C1373 1.367 . S
C1373 C1372 1.367 . S
C1373 C1375 1.433 . S
C1374 C1370 1.350 . S
C1374 C1371 1.463 . S
C1374 N1378 1.427 . S
C1375 H1365 0.929 . S
C1375 C1373 1.433 . S
C1375 N1378 1.384 . S
C1376 H1367 0.929 . S
C1376 C1368 1.378 . S
C1376 C1371 1.350 . S
C1377 H1364 0.929 . S
C1377 C1369 1.433 . S
C1377 N1379 1.384 . S
N1378 C1374 1.427 . S
N1378 C1375 1.384 . S
N1379 C1371 1.427 . S
N1379 C1377 1.384 . S
H1380 C1386 0.930 . S
H1381 C1390 0.930 . S
H1382 C1395 0.929 . S
H1383 C1393 0.929 . S
H1384 C1388 0.929 . S
H1385 C1394 0.929 . S
C1386 H1380 0.930 . S
C1386 C1387 1.367 . S
C1386 C1394 1.378 . S
C1387 C1386 1.367 . S
C1387 C1395 1.433 . S
C1388 H1384 0.929 . S
C1388 C1390 1.378 . S
C1388 C1392 1.350 . S
C1389 C1392 1.463 . S
C1389 C1394 1.350 . S
C1389 N1397 1.427 . S
C1390 H1381 0.930 . S
C1390 C1388 1.378 . S
C1390 C1391 1.367 . S
C1391 C1390 1.367 . S
C1391 C1393 1.433 . S
C1392 C1388 1.350 . S
C1392 C1389 1.463 . S
C1392 N1396 1.427 . S
C1393 H1383 0.929 . S
C1393 C1391 1.433 . S
C1393 N1396 1.384 . S
C1394 H1385 0.929 . S
C1394 C1386 1.378 . S
C1394 C1389 1.350 . S
C1395 H1382 0.929 . S
C1395 C1387 1.433 . S
C1395 N1397 1.384 . S
N1396 C1392 1.427 . S
N1396 C1393 1.384 . S
N1397 C1389 1.427 . S
N1397 C1395 1.384 . S
H1398 C1404 0.930 . S
H1399 C1408 0.930 . S
H1400 C1413 0.924 1_554 S
H1401 C1411 0.924 1_556 S
H1402 C1406 0.929 . S
H1403 C1412 0.929 . S
C1404 H1398 0.930 . S
C1404 C1405 1.367 . S
C1404 C1412 1.378 . S
C1405 C1404 1.367 . S
C1405 C1413 1.433 . S
C1406 H1402 0.929 . S
C1406 C1408 1.378 . S
C1406 C1410 1.350 . S
C1407 C1410 1.463 1_656 S
C1407 C1412 1.350 . S
C1407 N1415 1.427 1_656 S
C1408 H1399 0.930 . S
C1408 C1406 1.378 . S
C1408 C1409 1.367 . S
C1409 C1408 1.367 . S
C1409 C1411 1.433 . S
C1410 C1406 1.350 . S
C1410 C1407 1.463 1_454 S
C1410 N1414 1.427 1_454 S
C1411 H1401 0.924 1_554 S
C1411 C1409 1.433 . S
C1411 N1414 1.384 1_454 S
C1412 H1403 0.929 . S
C1412 C1404 1.378 . S
C1412 C1407 1.350 . S
C1413 H1400 0.924 1_556 S
C1413 C1405 1.433 . S
C1413 N1415 1.384 1_656 S
N1414 C1410 1.427 1_656 S
N1414 C1411 1.384 1_656 S
N1415 C1407 1.427 1_454 S
N1415 C1413 1.384 1_454 S
H1416 C1422 0.930 . S
H1417 C1426 0.930 . S
H1418 C1431 0.929 . S
H1419 C1429 0.929 . S
H1420 C1424 0.929 . S
H1421 C1430 0.929 . S
C1422 H1416 0.930 . S
C1422 C1423 1.367 . S
C1422 C1430 1.378 . S
C1423 C1422 1.367 . S
C1423 C1431 1.433 . S
C1424 H1420 0.929 . S
C1424 C1426 1.378 . S
C1424 C1428 1.350 . S
C1425 C1428 1.463 . S
C1425 C1430 1.350 . S
C1425 N1433 1.427 . S
C1426 H1417 0.930 . S
C1426 C1424 1.378 . S
C1426 C1427 1.367 . S
C1427 C1426 1.367 . S
C1427 C1429 1.433 . S
C1428 C1424 1.350 . S
C1428 C1425 1.463 . S
C1428 N1432 1.427 . S
C1429 H1419 0.929 . S
C1429 C1427 1.433 . S
C1429 N1432 1.384 . S
C1430 H1421 0.929 . S
C1430 C1422 1.378 . S
C1430 C1425 1.350 . S
C1431 H1418 0.929 . S
C1431 C1423 1.433 . S
C1431 N1433 1.384 . S
N1432 C1428 1.427 . S
N1432 C1429 1.384 . S
N1433 C1425 1.427 . S
N1433 C1431 1.384 . S
H1434 C1440 0.930 . S
H1435 C1444 0.930 . S
H1436 C1449 0.929 . S
H1437 C1447 0.929 . S
H1438 C1442 0.929 . S
H1439 C1448 0.929 . S
C1440 H1434 0.930 . S
C1440 C1441 1.367 . S
C1440 C1448 1.378 . S
C1441 C1440 1.367 . S
C1441 C1449 1.433 . S
C1442 H1438 0.929 . S
C1442 C1444 1.378 . S
C1442 C1446 1.350 . S
C1443 C1446 1.463 . S
C1443 C1448 1.350 . S
C1443 N1451 1.427 . S
C1444 H1435 0.930 . S
C1444 C1442 1.378 . S
C1444 C1445 1.367 . S
C1445 C1444 1.367 . S
C1445 C1447 1.433 . S
C1446 C1442 1.350 . S
C1446 C1443 1.463 . S
C1446 N1450 1.427 . S
C1447 H1437 0.929 . S
C1447 C1445 1.433 . S
C1447 N1450 1.384 . S
C1448 H1439 0.929 . S
C1448 C1440 1.378 . S
C1448 C1443 1.350 . S
C1449 H1436 0.929 . S
C1449 C1441 1.433 . S
C1449 N1451 1.384 . S
N1450 C1446 1.427 . S
N1450 C1447 1.384 . S
N1451 C1443 1.427 . S
N1451 C1449 1.384 . S
H1452 C1458 0.925 1_556 S
H1453 C1462 0.925 1_554 S
H1454 C1467 0.929 . S
H1455 C1465 0.929 . S
H1456 C1460 0.929 . S
H1457 C1466 0.929 . S
C1458 H1452 0.925 1_554 S
C1458 C1459 1.377 . S
C1458 C1466 1.374 1_554 S
C1459 C1458 1.377 . S
C1459 C1467 1.433 . S
C1460 H1456 0.929 . S
C1460 C1462 1.374 1_554 S
C1460 C1464 1.350 1_554 S
C1461 C1464 1.463 1_664 S
C1461 C1466 1.350 1_554 S
C1461 N1469 1.427 1_655 S
C1462 H1453 0.925 1_556 S
C1462 C1460 1.374 1_556 S
C1462 C1463 1.377 . S
C1463 C1462 1.377 . S
C1463 C1465 1.433 . S
C1464 C1460 1.350 1_556 S
C1464 C1461 1.463 1_446 S
C1464 N1468 1.427 1_455 S
C1465 H1455 0.929 . S
C1465 C1463 1.433 . S
C1465 N1468 1.384 1_455 S
C1466 H1457 0.929 . S
C1466 C1458 1.374 1_556 S
C1466 C1461 1.350 1_556 S
C1467 H1454 0.929 . S
C1467 C1459 1.433 . S
C1467 N1469 1.384 1_655 S
N1468 C1464 1.427 1_655 S
N1468 C1465 1.384 1_655 S
N1469 C1461 1.427 1_455 S
N1469 C1467 1.384 1_455 S
H1470 C1476 0.930 . S
H1471 C1480 0.930 . S
H1472 C1485 0.929 . S
H1473 C1483 0.929 . S
H1474 C1478 0.929 . S
H1475 C1484 0.929 . S
C1476 H1470 0.930 . S
C1476 C1477 1.367 . S
C1476 C1484 1.378 . S
C1477 C1476 1.367 . S
C1477 C1485 1.433 . S
C1478 H1474 0.929 . S
C1478 C1480 1.378 . S
C1478 C1482 1.350 . S
C1479 C1482 1.463 1_565 S
C1479 C1484 1.350 . S
C1479 N1487 1.427 . S
C1480 H1471 0.930 . S
C1480 C1478 1.378 . S
C1480 C1481 1.367 . S
C1481 C1480 1.367 . S
C1481 C1483 1.433 . S
C1482 C1478 1.350 . S
C1482 C1479 1.463 1_545 S
C1482 N1486 1.427 . S
C1483 H1473 0.929 . S
C1483 C1481 1.433 . S
C1483 N1486 1.384 . S
C1484 H1475 0.929 . S
C1484 C1476 1.378 . S
C1484 C1479 1.350 . S
C1485 H1472 0.929 . S
C1485 C1477 1.433 . S
C1485 N1487 1.384 . S
N1486 C1482 1.427 . S
N1486 C1483 1.384 . S
N1487 C1479 1.427 . S
N1487 C1485 1.384 . S
H1488 C1494 0.930 . S
H1489 C1498 0.930 . S
H1490 C1503 0.929 . S
H1491 C1501 0.929 . S
H1492 C1496 0.929 . S
H1493 C1502 0.929 . S
C1494 H1488 0.930 . S
C1494 C1495 1.367 . S
C1494 C1502 1.378 . S
C1495 C1494 1.367 . S
C1495 C1503 1.433 . S
C1496 H1492 0.929 . S
C1496 C1498 1.378 1_556 S
C1496 C1500 1.350 . S
C1497 C1500 1.463 . S
C1497 C1502 1.350 . S
C1497 N1505 1.427 . S
C1498 H1489 0.930 . S
C1498 C1496 1.378 1_554 S
C1498 C1499 1.367 . S
C1499 C1498 1.367 . S
C1499 C1501 1.433 . S
C1500 C1496 1.350 . S
C1500 C1497 1.463 . S
C1500 N1504 1.427 . S
C1501 H1491 0.929 . S
C1501 C1499 1.433 . S
C1501 N1504 1.384 1_554 S
C1502 H1493 0.929 . S
C1502 C1494 1.378 . S
C1502 C1497 1.350 . S
C1503 H1490 0.929 . S
C1503 C1495 1.433 . S
C1503 N1505 1.384 . S
N1504 C1500 1.427 . S
N1504 C1501 1.384 1_556 S
N1505 C1497 1.427 . S
N1505 C1503 1.384 . S
H1506 C1512 0.930 . S
H1507 C1516 0.930 . S
H1508 C1521 0.929 . S
H1509 C1519 0.929 . S
H1510 C1514 0.929 . S
H1511 C1520 0.929 . S
C1512 H1506 0.930 . S
C1512 C1513 1.367 . S
C1512 C1520 1.378 . S
C1513 C1512 1.367 . S
C1513 C1521 1.433 . S
C1514 H1510 0.929 . S
C1514 C1516 1.378 . S
C1514 C1518 1.350 . S
C1515 C1518 1.463 . S
C1515 C1520 1.350 . S
C1515 N1523 1.427 . S
C1516 H1507 0.930 . S
C1516 C1514 1.378 . S
C1516 C1517 1.367 . S
C1517 C1516 1.367 . S
C1517 C1519 1.433 . S
C1518 C1514 1.350 . S
C1518 C1515 1.463 . S
C1518 N1522 1.427 . S
C1519 H1509 0.929 . S
C1519 C1517 1.433 . S
C1519 N1522 1.384 . S
C1520 H1511 0.929 . S
C1520 C1512 1.378 . S
C1520 C1515 1.350 . S
C1521 H1508 0.929 . S
C1521 C1513 1.433 . S
C1521 N1523 1.384 . S
N1522 C1518 1.427 . S
N1522 C1519 1.384 . S
N1523 C1515 1.427 . S
N1523 C1521 1.384 . S
H1524 C1530 0.930 . S
H1525 C1534 0.930 . S
H1526 C1539 0.929 . S
H1527 C1537 0.929 . S
H1528 C1532 0.929 . S
H1529 C1538 0.929 . S
C1530 H1524 0.930 . S
C1530 C1531 1.367 . S
C1530 C1538 1.378 . S
C1531 C1530 1.367 . S
C1531 C1539 1.433 . S
C1532 H1528 0.929 . S
C1532 C1534 1.378 . S
C1532 C1536 1.350 . S
C1533 C1536 1.463 . S
C1533 C1538 1.350 . S
C1533 N1541 1.427 . S
C1534 H1525 0.930 . S
C1534 C1532 1.378 . S
C1534 C1535 1.367 . S
C1535 C1534 1.367 . S
C1535 C1537 1.433 . S
C1536 C1532 1.350 . S
C1536 C1533 1.463 . S
C1536 N1540 1.427 . S
C1537 H1527 0.929 . S
C1537 C1535 1.433 . S
C1537 N1540 1.384 . S
C1538 H1529 0.929 . S
C1538 C1530 1.378 . S
C1538 C1533 1.350 . S
C1539 H1526 0.929 . S
C1539 C1531 1.433 . S
C1539 N1541 1.384 . S
N1540 C1536 1.427 . S
N1540 C1537 1.384 . S
N1541 C1533 1.427 . S
N1541 C1539 1.384 . S
H1542 C1548 0.930 . S
H1543 C1552 0.930 . S
H1544 C1557 0.929 . S
H1545 C1555 0.929 . S
H1546 C1550 0.929 . S
H1547 C1556 0.929 . S
C1548 H1542 0.930 . S
C1548 C1549 1.367 . S
C1548 C1556 1.378 . S
C1549 C1548 1.367 . S
C1549 C1557 1.433 . S
C1550 H1546 0.929 . S
C1550 C1552 1.378 . S
C1550 C1554 1.350 . S
C1551 C1554 1.463 . S
C1551 C1556 1.350 . S
C1551 N1559 1.427 . S
C1552 H1543 0.930 . S
C1552 C1550 1.378 . S
C1552 C1553 1.367 . S
C1553 C1552 1.367 . S
C1553 C1555 1.433 . S
C1554 C1550 1.350 . S
C1554 C1551 1.463 . S
C1554 N1558 1.427 . S
C1555 H1545 0.929 . S
C1555 C1553 1.433 . S
C1555 N1558 1.384 . S
C1556 H1547 0.929 . S
C1556 C1548 1.378 . S
C1556 C1551 1.350 . S
C1557 H1544 0.929 . S
C1557 C1549 1.433 . S
C1557 N1559 1.384 . S
N1558 C1554 1.427 . S
N1558 C1555 1.384 . S
N1559 C1551 1.427 . S
N1559 C1557 1.384 . S
H1560 C1566 0.930 . S
H1561 C1570 0.930 1_545 S
H1562 C1575 0.929 1_545 S
H1563 C1573 0.929 . S
H1564 C1568 0.929 1_545 S
H1565 C1574 0.929 . S
C1566 H1560 0.930 . S
C1566 C1567 1.367 . S
C1566 C1574 1.378 . S
C1567 C1566 1.367 . S
C1567 C1575 1.433 . S
C1568 H1564 0.929 1_565 S
C1568 C1570 1.378 1_554 S
C1568 C1572 1.350 . S
C1569 C1572 1.463 . S
C1569 C1574 1.350 . S
C1569 N1577 1.427 . S
C1570 H1561 0.930 1_565 S
C1570 C1568 1.378 1_556 S
C1570 C1571 1.367 . S
C1571 C1570 1.367 . S
C1571 C1573 1.433 . S
C1572 C1568 1.350 . S
C1572 C1569 1.463 . S
C1572 N1576 1.427 . S
C1573 H1563 0.929 . S
C1573 C1571 1.433 . S
C1573 N1576 1.384 1_556 S
C1574 H1565 0.929 . S
C1574 C1566 1.378 . S
C1574 C1569 1.350 . S
C1575 H1562 0.929 1_565 S
C1575 C1567 1.433 . S
C1575 N1577 1.384 . S
N1576 C1572 1.427 . S
N1576 C1573 1.384 1_554 S
N1577 C1569 1.427 . S
N1577 C1575 1.384 . S
H1578 C1584 0.930 . S
H1579 C1588 0.930 . S
H1580 C1593 0.929 . S
H1581 C1591 0.929 . S
H1582 C1586 0.929 . S
H1583 C1592 0.929 . S
C1584 H1578 0.930 . S
C1584 C1585 1.367 . S
C1584 C1592 1.378 . S
C1585 C1584 1.367 . S
C1585 C1593 1.433 . S
C1586 H1582 0.929 . S
C1586 C1588 1.378 . S
C1586 C1590 1.350 . S
C1587 C1590 1.463 . S
C1587 C1592 1.350 . S
C1587 N1595 1.427 . S
C1588 H1579 0.930 . S
C1588 C1586 1.378 . S
C1588 C1589 1.367 . S
C1589 C1588 1.367 . S
C1589 C1591 1.433 . S
C1590 C1586 1.350 . S
C1590 C1587 1.463 . S
C1590 N1594 1.427 . S
C1591 H1581 0.929 . S
C1591 C1589 1.433 . S
C1591 N1594 1.384 . S
C1592 H1583 0.929 . S
C1592 C1584 1.378 . S
C1592 C1587 1.350 . S
C1593 H1580 0.929 . S
C1593 C1585 1.433 . S
C1593 N1595 1.384 . S
N1594 C1590 1.427 . S
N1594 C1591 1.384 . S
N1595 C1587 1.427 . S
N1595 C1593 1.384 . S
H1596 C1602 0.930 . S
H1597 C1606 0.930 1_565 S
H1598 C1611 0.929 1_565 S
H1599 C1609 0.929 . S
H1600 C1604 0.929 1_565 S
H1601 C1610 0.929 . S
C1602 H1596 0.930 . S
C1602 C1603 1.367 . S
C1602 C1610 1.378 . S
C1603 C1602 1.367 . S
C1603 C1611 1.433 . S
C1604 H1600 0.929 1_545 S
C1604 C1606 1.378 . S
C1604 C1608 1.350 . S
C1605 C1608 1.463 . S
C1605 C1610 1.350 . S
C1605 N1613 1.427 . S
C1606 H1597 0.930 1_545 S
C1606 C1604 1.378 . S
C1606 C1607 1.367 . S
C1607 C1606 1.367 . S
C1607 C1609 1.433 . S
C1608 C1604 1.350 . S
C1608 C1605 1.463 . S
C1608 N1612 1.427 . S
C1609 H1599 0.929 . S
C1609 C1607 1.433 . S
C1609 N1612 1.384 . S
C1610 H1601 0.929 . S
C1610 C1602 1.378 . S
C1610 C1605 1.350 . S
C1611 H1598 0.929 1_545 S
C1611 C1603 1.433 . S
C1611 N1613 1.384 . S
N1612 C1608 1.427 . S
N1612 C1609 1.384 . S
N1613 C1605 1.427 . S
N1613 C1611 1.384 . S
H1614 C1620 0.930 . S
H1615 C1624 0.930 . S
H1616 C1629 0.929 . S
H1617 C1627 0.929 . S
H1618 C1622 0.929 . S
H1619 C1628 0.929 . S
C1620 H1614 0.930 . S
C1620 C1621 1.367 . S
C1620 C1628 1.378 . S
C1621 C1620 1.367 . S
C1621 C1629 1.433 . S
C1622 H1618 0.929 . S
C1622 C1624 1.378 . S
C1622 C1626 1.350 . S
C1623 C1626 1.463 . S
C1623 C1628 1.350 . S
C1623 N1631 1.427 . S
C1624 H1615 0.930 . S
C1624 C1622 1.378 . S
C1624 C1625 1.367 . S
C1625 C1624 1.367 . S
C1625 C1627 1.433 . S
C1626 C1622 1.350 . S
C1626 C1623 1.463 . S
C1626 N1630 1.427 . S
C1627 H1617 0.929 . S
C1627 C1625 1.433 . S
C1627 N1630 1.384 . S
C1628 H1619 0.929 . S
C1628 C1620 1.378 . S
C1628 C1623 1.350 . S
C1629 H1616 0.929 . S
C1629 C1621 1.433 . S
C1629 N1631 1.384 . S
N1630 C1626 1.427 . S
N1630 C1627 1.384 . S
N1631 C1623 1.427 . S
N1631 C1629 1.384 . S
H1632 C1638 0.930 . S
H1633 C1642 0.930 . S
H1634 C1647 0.929 . S
H1635 C1645 0.929 . S
H1636 C1640 0.929 . S
H1637 C1646 0.929 . S
C1638 H1632 0.930 . S
C1638 C1639 1.367 . S
C1638 C1646 1.378 . S
C1639 C1638 1.367 . S
C1639 C1647 1.433 . S
C1640 H1636 0.929 . S
C1640 C1642 1.378 . S
C1640 C1644 1.350 . S
C1641 C1644 1.463 . S
C1641 C1646 1.350 . S
C1641 N1649 1.427 . S
C1642 H1633 0.930 . S
C1642 C1640 1.378 . S
C1642 C1643 1.367 . S
C1643 C1642 1.367 . S
C1643 C1645 1.433 . S
C1644 C1640 1.350 . S
C1644 C1641 1.463 . S
C1644 N1648 1.427 . S
C1645 H1635 0.929 . S
C1645 C1643 1.433 . S
C1645 N1648 1.384 . S
C1646 H1637 0.929 . S
C1646 C1638 1.378 . S
C1646 C1641 1.350 . S
C1647 H1634 0.929 . S
C1647 C1639 1.433 . S
C1647 N1649 1.384 . S
N1648 C1644 1.427 . S
N1648 C1645 1.384 . S
N1649 C1641 1.427 . S
N1649 C1647 1.384 . S
H1650 C1656 0.930 . S
H1651 C1660 0.930 . S
H1652 C1665 0.929 . S
H1653 C1663 0.929 . S
H1654 C1658 0.929 . S
H1655 C1664 0.929 . S
C1656 H1650 0.930 . S
C1656 C1657 1.367 1_545 S
C1656 C1664 1.378 . S
C1657 C1656 1.367 1_565 S
C1657 C1665 1.433 . S
C1658 H1654 0.929 . S
C1658 C1660 1.378 . S
C1658 C1662 1.350 . S
C1659 C1662 1.463 . S
C1659 C1664 1.350 1_565 S
C1659 N1667 1.427 . S
C1660 H1651 0.930 . S
C1660 C1658 1.378 . S
C1660 C1661 1.367 . S
C1661 C1660 1.367 . S
C1661 C1663 1.433 . S
C1662 C1658 1.350 . S
C1662 C1659 1.463 . S
C1662 N1666 1.427 . S
C1663 H1653 0.929 . S
C1663 C1661 1.433 . S
C1663 N1666 1.384 . S
C1664 H1655 0.929 . S
C1664 C1656 1.378 . S
C1664 C1659 1.350 1_545 S
C1665 H1652 0.929 . S
C1665 C1657 1.433 . S
C1665 N1667 1.384 . S
N1666 C1662 1.427 . S
N1666 C1663 1.384 . S
N1667 C1659 1.427 . S
N1667 C1665 1.384 . S
H1668 C1674 0.930 . S
H1669 C1678 0.930 . S
H1670 C1683 0.929 . S
H1671 C1681 0.929 . S
H1672 C1676 0.929 . S
H1673 C1682 0.929 . S
C1674 H1668 0.930 . S
C1674 C1675 1.367 . S
C1674 C1682 1.378 1_554 S
C1675 C1674 1.367 . S
C1675 C1683 1.433 . S
C1676 H1672 0.929 . S
C1676 C1678 1.378 . S
C1676 C1680 1.350 . S
C1677 C1680 1.463 . S
C1677 C1682 1.350 . S
C1677 N1685 1.427 . S
C1678 H1669 0.930 . S
C1678 C1676 1.378 . S
C1678 C1679 1.367 . S
C1679 C1678 1.367 . S
C1679 C1681 1.433 . S
C1680 C1676 1.350 . S
C1680 C1677 1.463 . S
C1680 N1684 1.427 . S
C1681 H1671 0.929 . S
C1681 C1679 1.433 . S
C1681 N1684 1.384 . S
C1682 H1673 0.929 . S
C1682 C1674 1.378 1_556 S
C1682 C1677 1.350 . S
C1683 H1670 0.929 . S
C1683 C1675 1.433 . S
C1683 N1685 1.384 1_554 S
N1684 C1680 1.427 . S
N1684 C1681 1.384 . S
N1685 C1677 1.427 . S
N1685 C1683 1.384 1_556 S
H1686 C1692 0.930 . S
H1687 C1696 0.930 . S
H1688 C1701 0.929 . S
H1689 C1699 0.929 1_565 S
H1690 C1694 0.929 . S
H1691 C1700 0.929 . S
C1692 H1686 0.930 . S
C1692 C1693 1.367 . S
C1692 C1700 1.378 . S
C1693 C1692 1.367 . S
C1693 C1701 1.433 . S
C1694 H1690 0.929 . S
C1694 C1696 1.378 . S
C1694 C1698 1.350 . S
C1695 C1698 1.463 . S
C1695 C1700 1.350 . S
C1695 N1703 1.427 . S
C1696 H1687 0.930 . S
C1696 C1694 1.378 . S
C1696 C1697 1.367 . S
C1697 C1696 1.367 . S
C1697 C1699 1.433 . S
C1698 C1694 1.350 . S
C1698 C1695 1.463 . S
C1698 N1702 1.427 . S
C1699 H1689 0.929 1_545 S
C1699 C1697 1.433 . S
C1699 N1702 1.384 . S
C1700 H1691 0.929 . S
C1700 C1692 1.378 . S
C1700 C1695 1.350 . S
C1701 H1688 0.929 . S
C1701 C1693 1.433 . S
C1701 N1703 1.384 . S
N1702 C1698 1.427 . S
N1702 C1699 1.384 . S
N1703 C1695 1.427 . S
N1703 C1701 1.384 . S
H1704 C1710 0.930 . S
H1705 C1714 0.930 . S
H1706 C1719 0.929 . S
H1707 C1717 0.929 . S
H1708 C1712 0.929 . S
H1709 C1718 0.929 . S
C1710 H1704 0.930 . S
C1710 C1711 1.367 . S
C1710 C1718 1.378 . S
C1711 C1710 1.367 . S
C1711 C1719 1.433 . S
C1712 H1708 0.929 . S
C1712 C1714 1.378 . S
C1712 C1716 1.350 . S
C1713 C1716 1.463 . S
C1713 C1718 1.350 . S
C1713 N1721 1.427 . S
C1714 H1705 0.930 . S
C1714 C1712 1.378 . S
C1714 C1715 1.367 . S
C1715 C1714 1.367 . S
C1715 C1717 1.433 . S
C1716 C1712 1.350 . S
C1716 C1713 1.463 . S
C1716 N1720 1.427 . S
C1717 H1707 0.929 . S
C1717 C1715 1.433 . S
C1717 N1720 1.384 . S
C1718 H1709 0.929 . S
C1718 C1710 1.378 . S
C1718 C1713 1.350 . S
C1719 H1706 0.929 . S
C1719 C1711 1.433 . S
C1719 N1721 1.384 . S
N1720 C1716 1.427 . S
N1720 C1717 1.384 . S
N1721 C1713 1.427 . S
N1721 C1719 1.384 . S
H1722 C1728 0.930 . S
H1723 C1732 0.930 . S
H1724 C1737 0.929 . S
H1725 C1735 0.938 . S
H1726 C1730 0.929 . S
H1727 C1736 0.929 . S
C1728 H1722 0.930 . S
C1728 C1729 1.367 1_565 S
C1728 C1736 1.378 . S
C1729 C1728 1.367 1_545 S
C1729 C1737 1.433 . S
C1730 H1726 0.929 . S
C1730 C1732 1.378 . S
C1730 C1734 1.350 . S
C1731 C1734 1.463 . S
C1731 C1736 1.350 1_545 S
C1731 N1739 1.427 . S
C1732 H1723 0.930 . S
C1732 C1730 1.378 . S
C1732 C1733 1.367 . S
C1733 C1732 1.367 . S
C1733 C1735 1.433 . S
C1734 C1730 1.350 . S
C1734 C1731 1.463 . S
C1734 N1738 1.427 . S
C1735 H1725 0.938 . S
C1735 C1733 1.433 . S
C1735 N1738 1.384 . S
C1736 H1727 0.929 . S
C1736 C1728 1.378 . S
C1736 C1731 1.350 1_565 S
C1737 H1724 0.929 . S
C1737 C1729 1.433 . S
C1737 N1739 1.384 . S
N1738 C1734 1.427 . S
N1738 C1735 1.384 . S
N1739 C1731 1.427 . S
N1739 C1737 1.384 . S
H1740 C1746 0.930 . S
H1741 C1750 0.930 . S
H1742 C1755 0.929 . S
H1743 C1753 0.929 . S
H1744 C1748 0.929 . S
H1745 C1754 0.929 . S
C1746 H1740 0.930 . S
C1746 C1747 1.367 . S
C1746 C1754 1.378 . S
C1747 C1746 1.367 . S
C1747 C1755 1.433 . S
C1748 H1744 0.929 . S
C1748 C1750 1.378 1_554 S
C1748 C1752 1.350 . S
C1749 C1752 1.463 . S
C1749 C1754 1.350 . S
C1749 N1757 1.427 . S
C1750 H1741 0.930 . S
C1750 C1748 1.378 1_556 S
C1750 C1751 1.367 . S
C1751 C1750 1.367 . S
C1751 C1753 1.433 . S
C1752 C1748 1.350 . S
C1752 C1749 1.463 . S
C1752 N1756 1.427 . S
C1753 H1743 0.929 . S
C1753 C1751 1.433 . S
C1753 N1756 1.384 1_556 S
C1754 H1745 0.929 . S
C1754 C1746 1.378 . S
C1754 C1749 1.350 . S
C1755 H1742 0.929 . S
C1755 C1747 1.433 . S
C1755 N1757 1.384 . S
N1756 C1752 1.427 . S
N1756 C1753 1.384 1_554 S
N1757 C1749 1.427 . S
N1757 C1755 1.384 . S
H1758 C1764 0.930 . S
H1759 C1768 0.930 . S
H1760 C1773 0.929 . S
H1761 C1771 0.929 . S
H1762 C1766 0.929 . S
H1763 C1772 0.929 . S
C1764 H1758 0.930 . S
C1764 C1765 1.367 . S
C1764 C1772 1.378 . S
C1765 C1764 1.367 . S
C1765 C1773 1.433 . S
C1766 H1762 0.929 . S
C1766 C1768 1.378 . S
C1766 C1770 1.350 . S
C1767 C1770 1.463 . S
C1767 C1772 1.350 . S
C1767 N1775 1.427 . S
C1768 H1759 0.930 . S
C1768 C1766 1.378 . S
C1768 C1769 1.367 . S
C1769 C1768 1.367 . S
C1769 C1771 1.433 . S
C1770 C1766 1.350 . S
C1770 C1767 1.463 . S
C1770 N1774 1.427 . S
C1771 H1761 0.929 . S
C1771 C1769 1.433 . S
C1771 N1774 1.384 . S
C1772 H1763 0.929 . S
C1772 C1764 1.378 . S
C1772 C1767 1.350 . S
C1773 H1760 0.929 . S
C1773 C1765 1.433 . S
C1773 N1775 1.384 . S
N1774 C1770 1.427 . S
N1774 C1771 1.384 . S
N1775 C1767 1.427 . S
N1775 C1773 1.384 . S
H1776 C1782 0.930 . S
H1777 C1786 0.930 . S
H1778 C1791 0.929 . S
H1779 C1789 0.929 . S
H1780 C1784 0.929 . S
H1781 C1790 0.929 . S
C1782 H1776 0.930 . S
C1782 C1783 1.367 . S
C1782 C1790 1.378 . S
C1783 C1782 1.367 . S
C1783 C1791 1.433 . S
C1784 H1780 0.929 . S
C1784 C1786 1.378 . S
C1784 C1788 1.350 . S
C1785 C1788 1.463 . S
C1785 C1790 1.350 . S
C1785 N1793 1.427 . S
C1786 H1777 0.930 . S
C1786 C1784 1.378 . S
C1786 C1787 1.367 . S
C1787 C1786 1.367 . S
C1787 C1789 1.433 . S
C1788 C1784 1.350 . S
C1788 C1785 1.463 . S
C1788 N1792 1.427 . S
C1789 H1779 0.929 . S
C1789 C1787 1.433 . S
C1789 N1792 1.384 . S
C1790 H1781 0.929 . S
C1790 C1782 1.378 . S
C1790 C1785 1.350 . S
C1791 H1778 0.929 . S
C1791 C1783 1.433 . S
C1791 N1793 1.384 . S
N1792 C1788 1.427 . S
N1792 C1789 1.384 . S
N1793 C1785 1.427 . S
N1793 C1791 1.384 . S
H1794 C1800 0.930 . S
H1795 C1804 0.930 . S
H1796 C1809 0.929 . S
H1797 C1807 0.929 . S
H1798 C1802 0.929 . S
H1799 C1808 0.929 . S
C1800 H1794 0.930 . S
C1800 C1801 1.367 . S
C1800 C1808 1.378 . S
C1801 C1800 1.367 . S
C1801 C1809 1.433 . S
C1802 H1798 0.929 . S
C1802 C1804 1.378 . S
C1802 C1806 1.350 . S
C1803 C1806 1.463 . S
C1803 C1808 1.350 . S
C1803 N1811 1.427 . S
C1804 H1795 0.930 . S
C1804 C1802 1.378 . S
C1804 C1805 1.367 . S
C1805 C1804 1.367 . S
C1805 C1807 1.433 . S
C1806 C1802 1.350 . S
C1806 C1803 1.463 . S
C1806 N1810 1.427 . S
C1807 H1797 0.929 . S
C1807 C1805 1.433 . S
C1807 N1810 1.384 . S
C1808 H1799 0.929 . S
C1808 C1800 1.378 . S
C1808 C1803 1.350 . S
C1809 H1796 0.929 . S
C1809 C1801 1.433 . S
C1809 N1811 1.384 . S
N1810 C1806 1.427 . S
N1810 C1807 1.384 . S
N1811 C1803 1.427 . S
N1811 C1809 1.384 . S
H1812 C1818 0.930 . S
H1813 C1822 0.930 . S
H1814 C1827 0.929 . S
H1815 C1825 0.929 . S
H1816 C1820 0.929 . S
H1817 C1826 0.929 . S
C1818 H1812 0.930 . S
C1818 C1819 1.367 . S
C1818 C1826 1.378 . S
C1819 C1818 1.367 . S
C1819 C1827 1.433 . S
C1820 H1816 0.929 . S
C1820 C1822 1.378 . S
C1820 C1824 1.350 . S
C1821 C1824 1.463 1_655 S
C1821 C1826 1.350 . S
C1821 N1829 1.427 . S
C1822 H1813 0.930 . S
C1822 C1820 1.378 . S
C1822 C1823 1.367 . S
C1823 C1822 1.367 . S
C1823 C1825 1.433 . S
C1824 C1820 1.350 . S
C1824 C1821 1.463 1_455 S
C1824 N1828 1.427 . S
C1825 H1815 0.929 . S
C1825 C1823 1.433 . S
C1825 N1828 1.384 . S
C1826 H1817 0.929 . S
C1826 C1818 1.378 . S
C1826 C1821 1.350 . S
C1827 H1814 0.929 . S
C1827 C1819 1.433 . S
C1827 N1829 1.384 . S
N1828 C1824 1.427 . S
N1828 C1825 1.384 . S
N1829 C1821 1.427 . S
N1829 C1827 1.384 . S
H1830 C1836 0.930 . S
H1831 C1840 0.930 . S
H1832 C1845 0.929 . S
H1833 C1843 0.929 . S
H1834 C1838 0.929 . S
H1835 C1844 0.929 . S
C1836 H1830 0.930 . S
C1836 C1837 1.367 . S
C1836 C1844 1.378 1_655 S
C1837 C1836 1.367 . S
C1837 C1845 1.433 . S
C1838 H1834 0.929 . S
C1838 C1840 1.377 1_655 S
C1838 C1842 1.350 1_655 S
C1839 C1842 1.463 1_655 S
C1839 C1844 1.350 1_655 S
C1839 N1847 1.427 . S
C1840 H1831 0.930 . S
C1840 C1838 1.377 1_455 S
C1840 C1841 1.367 . S
C1841 C1840 1.367 . S
C1841 C1843 1.433 . S
C1842 C1838 1.350 1_455 S
C1842 C1839 1.463 1_455 S
C1842 N1846 1.427 . S
C1843 H1833 0.929 . S
C1843 C1841 1.433 . S
C1843 N1846 1.384 . S
C1844 H1835 0.929 . S
C1844 C1836 1.378 1_455 S
C1844 C1839 1.350 1_455 S
C1845 H1832 0.929 . S
C1845 C1837 1.433 . S
C1845 N1847 1.384 . S
N1846 C1842 1.427 . S
N1846 C1843 1.384 . S
N1847 C1839 1.427 . S
N1847 C1845 1.384 . S
H1848 C1854 0.930 . S
H1849 C1858 0.930 . S
H1850 C1863 0.929 . S
H1851 C1861 0.929 . S
H1852 C1856 0.929 . S
H1853 C1862 0.929 . S
C1854 H1848 0.930 . S
C1854 C1855 1.367 . S
C1854 C1862 1.378 . S
C1855 C1854 1.367 . S
C1855 C1863 1.433 . S
C1856 H1852 0.929 . S
C1856 C1858 1.378 . S
C1856 C1860 1.350 . S
C1857 C1860 1.463 . S
C1857 C1862 1.350 . S
C1857 N1865 1.427 . S
C1858 H1849 0.930 . S
C1858 C1856 1.378 . S
C1858 C1859 1.367 . S
C1859 C1858 1.367 . S
C1859 C1861 1.433 . S
C1860 C1856 1.350 . S
C1860 C1857 1.463 . S
C1860 N1864 1.427 . S
C1861 H1851 0.929 . S
C1861 C1859 1.433 . S
C1861 N1864 1.384 . S
C1862 H1853 0.929 . S
C1862 C1854 1.378 . S
C1862 C1857 1.350 . S
C1863 H1850 0.929 . S
C1863 C1855 1.433 . S
C1863 N1865 1.384 . S
N1864 C1860 1.427 . S
N1864 C1861 1.384 . S
N1865 C1857 1.427 . S
N1865 C1863 1.384 . S
H1866 C1872 0.930 . S
H1867 C1876 0.930 . S
H1868 C1881 0.929 . S
H1869 C1879 0.929 . S
H1870 C1874 0.929 . S
H1871 C1880 0.929 . S
C1872 H1866 0.930 . S
C1872 C1873 1.367 . S
C1872 C1880 1.378 . S
C1873 C1872 1.367 . S
C1873 C1881 1.433 . S
C1874 H1870 0.929 . S
C1874 C1876 1.378 . S
C1874 C1878 1.350 . S
C1875 C1878 1.463 . S
C1875 C1880 1.350 . S
C1875 N1883 1.427 . S
C1876 H1867 0.930 . S
C1876 C1874 1.378 . S
C1876 C1877 1.367 . S
C1877 C1876 1.367 . S
C1877 C1879 1.433 . S
C1878 C1874 1.350 . S
C1878 C1875 1.463 . S
C1878 N1882 1.427 . S
C1879 H1869 0.929 . S
C1879 C1877 1.433 . S
C1879 N1882 1.384 . S
C1880 H1871 0.929 . S
C1880 C1872 1.378 . S
C1880 C1875 1.350 . S
C1881 H1868 0.929 . S
C1881 C1873 1.433 . S
C1881 N1883 1.384 . S
N1882 C1878 1.427 . S
N1882 C1879 1.384 . S
N1883 C1875 1.427 . S
N1883 C1881 1.384 . S
H1884 C1890 0.930 . S
H1885 C1894 0.930 . S
H1886 C1899 0.929 . S
H1887 C1897 0.929 . S
H1888 C1892 0.929 . S
H1889 C1898 0.929 . S
C1890 H1884 0.930 . S
C1890 C1891 1.367 . S
C1890 C1898 1.378 . S
C1891 C1890 1.367 . S
C1891 C1899 1.433 . S
C1892 H1888 0.929 . S
C1892 C1894 1.378 . S
C1892 C1896 1.350 . S
C1893 C1896 1.463 1_455 S
C1893 C1898 1.350 . S
C1893 N1901 1.427 . S
C1894 H1885 0.930 . S
C1894 C1892 1.378 . S
C1894 C1895 1.367 . S
C1895 C1894 1.367 . S
C1895 C1897 1.433 . S
C1896 C1892 1.350 . S
C1896 C1893 1.463 1_655 S
C1896 N1900 1.427 . S
C1897 H1887 0.929 . S
C1897 C1895 1.433 . S
C1897 N1900 1.384 . S
C1898 H1889 0.929 . S
C1898 C1890 1.378 . S
C1898 C1893 1.350 . S
C1899 H1886 0.929 . S
C1899 C1891 1.433 . S
C1899 N1901 1.384 . S
N1900 C1896 1.427 . S
N1900 C1897 1.384 . S
N1901 C1893 1.427 . S
N1901 C1899 1.384 . S
H1902 C1908 0.930 . S
H1903 C1912 0.930 . S
H1904 C1917 0.929 . S
H1905 C1915 0.929 . S
H1906 C1910 0.929 . S
H1907 C1916 0.929 . S
C1908 H1902 0.930 . S
C1908 C1909 1.367 . S
C1908 C1916 1.378 . S
C1909 C1908 1.367 . S
C1909 C1917 1.433 . S
C1910 H1906 0.929 . S
C1910 C1912 1.378 . S
C1910 C1914 1.350 . S
C1911 C1914 1.463 1_455 S
C1911 C1916 1.350 . S
C1911 N1919 1.427 . S
C1912 H1903 0.930 . S
C1912 C1910 1.378 . S
C1912 C1913 1.367 . S
C1913 C1912 1.367 . S
C1913 C1915 1.433 . S
C1914 C1910 1.350 . S
C1914 C1911 1.463 1_655 S
C1914 N1918 1.427 . S
C1915 H1905 0.929 . S
C1915 C1913 1.433 . S
C1915 N1918 1.384 . S
C1916 H1907 0.929 . S
C1916 C1908 1.378 . S
C1916 C1911 1.350 . S
C1917 H1904 0.929 . S
C1917 C1909 1.433 . S
C1917 N1919 1.384 . S
N1918 C1914 1.427 . S
N1918 C1915 1.384 . S
N1919 C1911 1.427 . S
N1919 C1917 1.384 . S
H1920 C1926 0.930 . S
H1921 C1930 0.930 . S
H1922 C1935 0.929 . S
H1923 C1933 0.929 . S
H1924 C1928 0.929 . S
H1925 C1934 0.929 . S
C1926 H1920 0.930 . S
C1926 C1927 1.367 . S
C1926 C1934 1.378 . S
C1927 C1926 1.367 . S
C1927 C1935 1.433 . S
C1928 H1924 0.929 . S
C1928 C1930 1.378 . S
C1928 C1932 1.350 . S
C1929 C1932 1.463 . S
C1929 C1934 1.350 . S
C1929 N1937 1.427 . S
C1930 H1921 0.930 . S
C1930 C1928 1.378 . S
C1930 C1931 1.367 . S
C1931 C1930 1.367 . S
C1931 C1933 1.433 . S
C1932 C1928 1.350 . S
C1932 C1929 1.463 . S
C1932 N1936 1.427 . S
C1933 H1923 0.929 . S
C1933 C1931 1.433 . S
C1933 N1936 1.384 . S
C1934 H1925 0.929 . S
C1934 C1926 1.378 . S
C1934 C1929 1.350 . S
C1935 H1922 0.929 . S
C1935 C1927 1.433 . S
C1935 N1937 1.384 . S
N1936 C1932 1.427 . S
N1936 C1933 1.384 . S
N1937 C1929 1.427 . S
N1937 C1935 1.384 . S
H1938 C1944 0.930 . S
H1939 C1948 0.930 . S
H1940 C1953 0.929 . S
H1941 C1951 0.929 . S
H1942 C1946 0.929 . S
H1943 C1952 0.929 . S
C1944 H1938 0.930 . S
C1944 C1945 1.367 . S
C1944 C1952 1.378 . S
C1945 C1944 1.367 . S
C1945 C1953 1.433 . S
C1946 H1942 0.929 . S
C1946 C1948 1.378 . S
C1946 C1950 1.350 . S
C1947 C1950 1.463 . S
C1947 C1952 1.350 . S
C1947 N1955 1.427 . S
C1948 H1939 0.930 . S
C1948 C1946 1.378 . S
C1948 C1949 1.367 . S
C1949 C1948 1.367 . S
C1949 C1951 1.433 . S
C1950 C1946 1.350 . S
C1950 C1947 1.463 . S
C1950 N1954 1.427 . S
C1951 H1941 0.929 . S
C1951 C1949 1.433 . S
C1951 N1954 1.384 . S
C1952 H1943 0.929 . S
C1952 C1944 1.378 . S
C1952 C1947 1.350 . S
C1953 H1940 0.929 . S
C1953 C1945 1.433 . S
C1953 N1955 1.384 . S
N1954 C1950 1.427 . S
N1954 C1951 1.384 . S
N1955 C1947 1.427 . S
N1955 C1953 1.384 . S
H1956 C1962 0.930 . S
H1957 C1966 0.930 . S
H1958 C1971 0.929 . S
H1959 C1969 0.929 . S
H1960 C1964 0.929 . S
H1961 C1970 0.929 . S
C1962 H1956 0.930 . S
C1962 C1963 1.367 . S
C1962 C1970 1.378 . S
C1963 C1962 1.367 . S
C1963 C1971 1.433 . S
C1964 H1960 0.929 . S
C1964 C1966 1.378 . S
C1964 C1968 1.350 . S
C1965 C1968 1.463 . S
C1965 C1970 1.350 . S
C1965 N1973 1.427 . S
C1966 H1957 0.930 . S
C1966 C1964 1.378 . S
C1966 C1967 1.367 . S
C1967 C1966 1.367 . S
C1967 C1969 1.433 . S
C1968 C1964 1.350 . S
C1968 C1965 1.463 . S
C1968 N1972 1.427 . S
C1969 H1959 0.929 . S
C1969 C1967 1.433 . S
C1969 N1972 1.384 . S
C1970 H1961 0.929 . S
C1970 C1962 1.378 . S
C1970 C1965 1.350 . S
C1971 H1958 0.929 . S
C1971 C1963 1.433 . S
C1971 N1973 1.384 . S
N1972 C1968 1.427 . S
N1972 C1969 1.384 . S
N1973 C1965 1.427 . S
N1973 C1971 1.384 . S
H1974 C1980 0.930 . S
H1975 C1984 0.930 . S
H1976 C1989 0.935 . S
H1977 C1987 0.929 . S
H1978 C1982 0.929 . S
H1979 C1988 0.929 . S
C1980 H1974 0.930 . S
C1980 C1981 1.367 . S
C1980 C1988 1.378 1_655 S
C1981 C1980 1.367 . S
C1981 C1989 1.442 . S
C1982 H1978 0.929 . S
C1982 C1984 1.378 . S
C1982 C1986 1.350 . S
C1983 C1986 1.463 . S
C1983 C1988 1.350 . S
C1983 N1991 1.427 . S
C1984 H1975 0.930 . S
C1984 C1982 1.378 . S
C1984 C1985 1.367 . S
C1985 C1984 1.367 . S
C1985 C1987 1.433 . S
C1986 C1982 1.350 . S
C1986 C1983 1.463 . S
C1986 N1990 1.427 . S
C1987 H1977 0.929 . S
C1987 C1985 1.433 . S
C1987 N1990 1.384 . S
C1988 H1979 0.929 . S
C1988 C1980 1.378 1_455 S
C1988 C1983 1.350 . S
C1989 H1976 0.935 . S
C1989 C1981 1.442 . S
C1989 N1991 1.369 1_655 S
N1990 C1986 1.427 . S
N1990 C1987 1.384 . S
N1991 C1983 1.427 . S
N1991 C1989 1.369 1_455 S
H1992 C1998 0.930 . S
H1993 C2002 0.930 . S
H1994 C2007 0.929 . S
H1995 C2005 0.929 . S
H1996 C2000 0.929 . S
H1997 C2006 0.929 . S
C1998 H1992 0.930 . S
C1998 C1999 1.367 . S
C1998 C2006 1.378 . S
C1999 C1998 1.367 . S
C1999 C2007 1.433 . S
C2000 H1996 0.929 . S
C2000 C2002 1.378 . S
C2000 C2004 1.350 . S
C2001 C2004 1.463 . S
C2001 C2006 1.350 . S
C2001 N2009 1.427 . S
C2002 H1993 0.930 . S
C2002 C2000 1.378 . S
C2002 C2003 1.367 . S
C2003 C2002 1.367 . S
C2003 C2005 1.433 . S
C2004 C2000 1.350 . S
C2004 C2001 1.463 . S
C2004 N2008 1.427 . S
C2005 H1995 0.929 . S
C2005 C2003 1.433 . S
C2005 N2008 1.384 . S
C2006 H1997 0.929 . S
C2006 C1998 1.378 . S
C2006 C2001 1.350 . S
C2007 H1994 0.929 . S
C2007 C1999 1.433 . S
C2007 N2009 1.384 . S
N2008 C2004 1.427 . S
N2008 C2005 1.384 . S
N2009 C2001 1.427 . S
N2009 C2007 1.384 . S
H2010 C2016 0.930 . S
H2011 C2020 0.930 . S
H2012 C2025 0.929 . S
H2013 C2023 0.929 . S
H2014 C2018 0.929 . S
H2015 C2024 0.929 . S
C2016 H2010 0.930 . S
C2016 C2017 1.367 . S
C2016 C2024 1.378 . S
C2017 C2016 1.367 . S
C2017 C2025 1.433 . S
C2018 H2014 0.929 . S
C2018 C2020 1.378 . S
C2018 C2022 1.350 . S
C2019 C2022 1.463 . S
C2019 C2024 1.350 . S
C2019 N2027 1.427 . S
C2020 H2011 0.930 . S
C2020 C2018 1.378 . S
C2020 C2021 1.367 . S
C2021 C2020 1.367 . S
C2021 C2023 1.433 . S
C2022 C2018 1.350 . S
C2022 C2019 1.463 . S
C2022 N2026 1.427 . S
C2023 H2013 0.929 . S
C2023 C2021 1.433 . S
C2023 N2026 1.384 . S
C2024 H2015 0.929 . S
C2024 C2016 1.378 . S
C2024 C2019 1.350 . S
C2025 H2012 0.929 . S
C2025 C2017 1.433 . S
C2025 N2027 1.384 . S
N2026 C2022 1.427 . S
N2026 C2023 1.384 . S
N2027 C2019 1.427 . S
N2027 C2025 1.384 . S
H2028 C2034 0.930 . S
H2029 C2038 0.930 . S
H2030 C2043 0.929 . S
H2031 C2041 0.929 . S
H2032 C2036 0.929 . S
H2033 C2042 0.929 . S
C2034 H2028 0.930 . S
C2034 C2035 1.367 . S
C2034 C2042 1.378 . S
C2035 C2034 1.367 . S
C2035 C2043 1.433 . S
C2036 H2032 0.929 . S
C2036 C2038 1.378 . S
C2036 C2040 1.350 . S
C2037 C2040 1.463 . S
C2037 C2042 1.350 . S
C2037 N2045 1.427 . S
C2038 H2029 0.930 . S
C2038 C2036 1.378 . S
C2038 C2039 1.367 . S
C2039 C2038 1.367 . S
C2039 C2041 1.433 . S
C2040 C2036 1.350 . S
C2040 C2037 1.463 . S
C2040 N2044 1.427 . S
C2041 H2031 0.929 . S
C2041 C2039 1.433 . S
C2041 N2044 1.384 . S
C2042 H2033 0.929 . S
C2042 C2034 1.378 . S
C2042 C2037 1.350 . S
C2043 H2030 0.929 . S
C2043 C2035 1.433 . S
C2043 N2045 1.384 . S
N2044 C2040 1.427 . S
N2044 C2041 1.384 . S
N2045 C2037 1.427 . S
N2045 C2043 1.384 . S
H2046 C2052 0.930 . S
H2047 C2056 0.930 1_455 S
H2048 C2061 0.929 . S
H2049 C2059 0.929 . S
H2050 C2054 0.929 . S
H2051 C2060 0.929 . S
C2052 H2046 0.930 . S
C2052 C2053 1.367 . S
C2052 C2060 1.378 . S
C2053 C2052 1.367 . S
C2053 C2061 1.433 . S
C2054 H2050 0.929 . S
C2054 C2056 1.378 . S
C2054 C2058 1.350 . S
C2055 C2058 1.463 . S
C2055 C2060 1.350 . S
C2055 N2063 1.427 . S
C2056 H2047 0.930 1_655 S
C2056 C2054 1.378 . S
C2056 C2057 1.367 1_655 S
C2057 C2056 1.367 1_455 S
C2057 C2059 1.433 . S
C2058 C2054 1.350 . S
C2058 C2055 1.463 . S
C2058 N2062 1.427 . S
C2059 H2049 0.929 . S
C2059 C2057 1.433 . S
C2059 N2062 1.384 1_455 S
C2060 H2051 0.929 . S
C2060 C2052 1.378 . S
C2060 C2055 1.350 . S
C2061 H2048 0.929 . S
C2061 C2053 1.433 . S
C2061 N2063 1.384 . S
N2062 C2058 1.427 . S
N2062 C2059 1.384 1_655 S
N2063 C2055 1.427 . S
N2063 C2061 1.384 . S
H2064 C2070 0.930 . S
H2065 C2074 0.930 . S
H2066 C2079 0.929 . S
H2067 C2077 0.929 . S
H2068 C2072 0.929 . S
H2069 C2078 0.929 . S
C2070 H2064 0.930 . S
C2070 C2071 1.367 . S
C2070 C2078 1.378 . S
C2071 C2070 1.367 . S
C2071 C2079 1.433 . S
C2072 H2068 0.929 . S
C2072 C2074 1.378 . S
C2072 C2076 1.350 . S
C2073 C2076 1.463 . S
C2073 C2078 1.350 . S
C2073 N2081 1.427 . S
C2074 H2065 0.930 . S
C2074 C2072 1.378 . S
C2074 C2075 1.367 . S
C2075 C2074 1.367 . S
C2075 C2077 1.433 . S
C2076 C2072 1.350 . S
C2076 C2073 1.463 . S
C2076 N2080 1.427 . S
C2077 H2067 0.929 . S
C2077 C2075 1.433 . S
C2077 N2080 1.384 . S
C2078 H2069 0.929 . S
C2078 C2070 1.378 . S
C2078 C2073 1.350 . S
C2079 H2066 0.929 . S
C2079 C2071 1.433 . S
C2079 N2081 1.384 . S
N2080 C2076 1.427 . S
N2080 C2077 1.384 . S
N2081 C2073 1.427 . S
N2081 C2079 1.384 . S
H2082 C2088 0.930 . S
H2083 C2092 0.930 1_455 S
H2084 C2097 0.929 . S
H2085 C2095 0.929 . S
H2086 C2090 0.929 . S
H2087 C2096 0.929 . S
C2088 H2082 0.930 . S
C2088 C2089 1.367 . S
C2088 C2096 1.378 . S
C2089 C2088 1.367 . S
C2089 C2097 1.433 . S
C2090 H2086 0.929 . S
C2090 C2092 1.378 1_565 S
C2090 C2094 1.350 . S
C2091 C2094 1.463 . S
C2091 C2096 1.350 . S
C2091 N2099 1.427 . S
C2092 H2083 0.930 1_655 S
C2092 C2090 1.378 1_545 S
C2092 C2093 1.367 1_645 S
C2093 C2092 1.367 1_465 S
C2093 C2095 1.433 . S
C2094 C2090 1.350 . S
C2094 C2091 1.463 . S
C2094 N2098 1.427 . S
C2095 H2085 0.929 . S
C2095 C2093 1.433 . S
C2095 N2098 1.384 1_455 S
C2096 H2087 0.929 . S
C2096 C2088 1.378 . S
C2096 C2091 1.350 . S
C2097 H2084 0.929 . S
C2097 C2089 1.433 . S
C2097 N2099 1.384 . S
N2098 C2094 1.427 . S
N2098 C2095 1.384 1_655 S
N2099 C2091 1.427 . S
N2099 C2097 1.384 . S
H2100 C2106 0.930 . S
H2101 C2110 0.930 . S
H2102 C2115 0.929 . S
H2103 C2113 0.929 . S
H2104 C2108 0.929 . S
H2105 C2114 0.929 . S
C2106 H2100 0.930 . S
C2106 C2107 1.367 . S
C2106 C2114 1.378 . S
C2107 C2106 1.367 . S
C2107 C2115 1.433 . S
C2108 H2104 0.929 . S
C2108 C2110 1.378 . S
C2108 C2112 1.350 . S
C2109 C2112 1.463 . S
C2109 C2114 1.350 . S
C2109 N2117 1.427 . S
C2110 H2101 0.930 . S
C2110 C2108 1.378 . S
C2110 C2111 1.367 . S
C2111 C2110 1.367 . S
C2111 C2113 1.433 . S
C2112 C2108 1.350 . S
C2112 C2109 1.463 . S
C2112 N2116 1.427 . S
C2113 H2103 0.929 . S
C2113 C2111 1.433 . S
C2113 N2116 1.384 . S
C2114 H2105 0.929 . S
C2114 C2106 1.378 . S
C2114 C2109 1.350 . S
C2115 H2102 0.929 . S
C2115 C2107 1.433 . S
C2115 N2117 1.384 . S
N2116 C2112 1.427 . S
N2116 C2113 1.384 . S
N2117 C2109 1.427 . S
N2117 C2115 1.384 . S
H2118 C2124 0.930 1_565 S
H2119 C2128 0.930 . S
H2120 C2133 0.929 . S
H2121 C2131 0.929 . S
H2122 C2126 0.929 . S
H2123 C2132 0.929 . S
C2124 H2118 0.930 1_545 S
C2124 C2125 1.367 . S
C2124 C2132 1.378 . S
C2125 C2124 1.367 . S
C2125 C2133 1.433 . S
C2126 H2122 0.929 . S
C2126 C2128 1.378 . S
C2126 C2130 1.350 . S
C2127 C2130 1.463 . S
C2127 C2132 1.350 . S
C2127 N2135 1.427 . S
C2128 H2119 0.930 . S
C2128 C2126 1.378 . S
C2128 C2129 1.367 . S
C2129 C2128 1.367 . S
C2129 C2131 1.433 . S
C2130 C2126 1.350 . S
C2130 C2127 1.463 . S
C2130 N2134 1.427 . S
C2131 H2121 0.929 . S
C2131 C2129 1.433 . S
C2131 N2134 1.384 . S
C2132 H2123 0.929 . S
C2132 C2124 1.378 . S
C2132 C2127 1.350 . S
C2133 H2120 0.929 . S
C2133 C2125 1.433 . S
C2133 N2135 1.384 . S
N2134 C2130 1.427 . S
N2134 C2131 1.384 . S
N2135 C2127 1.427 . S
N2135 C2133 1.384 . S
H2136 C2142 0.930 . S
H2137 C2146 0.930 . S
H2138 C2151 0.929 . S
H2139 C2149 0.929 . S
H2140 C2144 0.929 . S
H2141 C2150 0.929 . S
C2142 H2136 0.930 . S
C2142 C2143 1.367 . S
C2142 C2150 1.378 . S
C2143 C2142 1.367 . S
C2143 C2151 1.433 . S
C2144 H2140 0.929 . S
C2144 C2146 1.378 . S
C2144 C2148 1.350 . S
C2145 C2148 1.463 . S
C2145 C2150 1.350 . S
C2145 N2153 1.427 . S
C2146 H2137 0.930 . S
C2146 C2144 1.378 . S
C2146 C2147 1.367 . S
C2147 C2146 1.367 . S
C2147 C2149 1.433 . S
C2148 C2144 1.350 . S
C2148 C2145 1.463 . S
C2148 N2152 1.427 . S
C2149 H2139 0.929 . S
C2149 C2147 1.433 . S
C2149 N2152 1.384 . S
C2150 H2141 0.929 . S
C2150 C2142 1.378 . S
C2150 C2145 1.350 . S
C2151 H2138 0.929 . S
C2151 C2143 1.433 . S
C2151 N2153 1.384 . S
N2152 C2148 1.427 . S
N2152 C2149 1.384 . S
N2153 C2145 1.427 . S
N2153 C2151 1.384 . S
H2154 C2160 0.930 . S
H2155 C2164 0.930 . S
H2156 C2169 0.929 1_665 S
H2157 C2167 0.929 . S
H2158 C2162 0.929 . S
H2159 C2168 0.929 . S
C2160 H2154 0.930 . S
C2160 C2161 1.367 . S
C2160 C2168 1.378 1_655 S
C2161 C2160 1.367 . S
C2161 C2169 1.433 1_655 S
C2162 H2158 0.929 . S
C2162 C2164 1.378 . S
C2162 C2166 1.350 . S
C2163 C2166 1.463 . S
C2163 C2168 1.350 . S
C2163 N2171 1.427 . S
C2164 H2155 0.930 . S
C2164 C2162 1.378 . S
C2164 C2165 1.367 . S
C2165 C2164 1.367 . S
C2165 C2167 1.433 . S
C2166 C2162 1.350 . S
C2166 C2163 1.463 . S
C2166 N2170 1.427 . S
C2167 H2157 0.929 . S
C2167 C2165 1.433 . S
C2167 N2170 1.384 . S
C2168 H2159 0.929 . S
C2168 C2160 1.378 1_455 S
C2168 C2163 1.350 . S
C2169 H2156 0.929 1_445 S
C2169 C2161 1.433 1_455 S
C2169 N2171 1.384 . S
N2170 C2166 1.427 . S
N2170 C2167 1.384 . S
N2171 C2163 1.427 . S
N2171 C2169 1.384 . S
H2172 C2178 0.930 . S
H2173 C2182 0.930 . S
H2174 C2187 0.929 . S
H2175 C2185 0.929 . S
H2176 C2180 0.929 . S
H2177 C2186 0.929 . S
C2178 H2172 0.930 . S
C2178 C2179 1.367 . S
C2178 C2186 1.378 . S
C2179 C2178 1.367 . S
C2179 C2187 1.433 . S
C2180 H2176 0.929 . S
C2180 C2182 1.378 . S
C2180 C2184 1.350 . S
C2181 C2184 1.463 . S
C2181 C2186 1.350 . S
C2181 N2189 1.427 . S
C2182 H2173 0.930 . S
C2182 C2180 1.378 . S
C2182 C2183 1.367 . S
C2183 C2182 1.367 . S
C2183 C2185 1.433 . S
C2184 C2180 1.350 . S
C2184 C2181 1.463 . S
C2184 N2188 1.427 . S
C2185 H2175 0.929 . S
C2185 C2183 1.433 . S
C2185 N2188 1.384 . S
C2186 H2177 0.929 . S
C2186 C2178 1.378 . S
C2186 C2181 1.350 . S
C2187 H2174 0.929 . S
C2187 C2179 1.433 . S
C2187 N2189 1.384 . S
N2188 C2184 1.427 . S
N2188 C2185 1.384 . S
N2189 C2181 1.427 . S
N2189 C2187 1.384 . S
H2190 C2196 0.930 . S
H2191 C2200 0.930 . S
H2192 C2205 0.929 . S
H2193 C2203 0.929 . S
H2194 C2198 0.929 1_545 S
H2195 C2204 0.929 . S
C2196 H2190 0.930 . S
C2196 C2197 1.367 . S
C2196 C2204 1.378 . S
C2197 C2196 1.367 . S
C2197 C2205 1.433 . S
C2198 H2194 0.929 1_565 S
C2198 C2200 1.378 1_565 S
C2198 C2202 1.350 . S
C2199 C2202 1.463 . S
C2199 C2204 1.350 . S
C2199 N2207 1.427 . S
C2200 H2191 0.930 . S
C2200 C2198 1.378 1_545 S
C2200 C2201 1.367 1_545 S
C2201 C2200 1.367 1_565 S
C2201 C2203 1.433 . S
C2202 C2198 1.350 . S
C2202 C2199 1.463 . S
C2202 N2206 1.427 . S
C2203 H2193 0.929 . S
C2203 C2201 1.433 . S
C2203 N2206 1.384 . S
C2204 H2195 0.929 . S
C2204 C2196 1.378 . S
C2204 C2199 1.350 . S
C2205 H2192 0.929 . S
C2205 C2197 1.433 . S
C2205 N2207 1.384 . S
N2206 C2202 1.427 . S
N2206 C2203 1.384 . S
N2207 C2199 1.427 . S
N2207 C2205 1.384 . S
C1351 C58 1.236 . S
C1355 C1077 1.236 . S
C1369 C489 1.195 . S
C1373 C142 1.195 . S
C1387 C226 1.139 . S
C1391 C1245 1.139 . S
C1405 C321 1.102 . S
C1409 C646 1.102 . S
C1423 C405 1.223 . S
C1427 C730 1.223 . S
C1441 C898 1.162 . S
C1445 C573 1.162 . S
C1459 C1161 1.204 . S
C1463 C814 1.204 . S
C1477 C993 1.113 . S
C1481 C1318 1.113 . S
C1495 C823 2.258 . S
C1499 C69 2.148 . S
C1513 C153 2.159 . S
C1517 C907 2.267 . S
C1531 C237 2.132 . S
C1535 C998 2.305 . S
C1549 C739 2.292 . S
C1553 C310 2.341 . S
C1567 C1148 2.257 . S
C1571 C394 2.150 . S
C1585 C1232 2.277 . S
C1589 C478 2.170 . S
C1603 C562 2.122 . S
C1607 C1323 2.297 . S
C1621 C1064 2.282 . S
C1625 C657 2.337 . S
C1639 C741 2.136 . S
C1643 C151 2.248 . S
C1657 C825 2.159 1_565 S
C1661 C235 2.267 . S
C1675 C909 2.119 . S
C1679 C326 2.296 . S
C1693 C67 2.291 . S
C1697 C982 2.339 . S
C1711 C476 2.249 . S
C1715 C1066 2.136 . S
C1729 C1150 2.155 1_545 S
C1733 C560 2.265 . S
C1747 C651 2.296 . S
C1751 C1234 2.119 . S
C1765 C1329 2.345 . S
C1769 C392 2.285 . S
C1783 C63 2.353 . S
C1787 C903 2.356 . S
C1801 C147 2.368 . S
C1805 C980 2.423 . S
C1819 C735 2.358 . S
C1823 C231 2.350 . S
C1837 C308 2.422 . S
C1841 C819 2.373 . S
C1855 C410 2.350 . S
C1859 C1250 2.359 . S
C1873 C494 2.372 . S
C1877 C1327 2.423 . S
C1891 C1082 2.350 . S
C1895 C578 2.359 . S
C1909 C655 2.421 . S
C1913 C1166 2.374 . S
C1927 C56 1.466 . S
C1931 C644 1.575 . S
C1945 C1071 1.541 . S
C1949 C140 1.483 . S
C1963 C224 1.503 . S
C1967 C483 1.561 . S
C1981 C315 1.417 . S
C1985 C1239 1.578 . S
C1999 C403 1.485 . S
C2003 C319 1.575 . S
C2017 C746 1.540 . S
C2021 C487 1.485 . S
C2035 C571 1.519 . S
C2039 C158 1.571 . S
C2053 C914 1.577 . S
C2057 C662 1.416 . S
C2071 C728 1.485 . S
C2075 C1316 1.578 . S
C2089 C399 1.553 . S
C2093 C812 1.503 1_565 S
C2107 C1155 1.573 . S
C2111 C896 1.516 . S
C2125 C987 1.415 1_545 S
C2129 C567 1.577 . S
C2143 C1075 1.471 . S
C2147 C991 1.578 . S
C2161 C1159 1.484 1_545 S
C2165 C74 1.542 . S
C2179 C830 1.575 . S
C2183 C1243 1.519 . S
C2197 C242 1.565 . S
C2201 C1334 1.393 1_565 S
