# Generated by pormake.
# Topology wmn, (6)-cn, num edge types: 1
# Building blocks:
#     Node 0, Type 0, BuildingBlock: KUMJIN_clean_sbu_1, # of connection points: 6
#     Node 1, Type 0, BuildingBlock: KUMJIN_clean_sbu_1, # of connection points: 6
#     Node 2, Type 0, BuildingBlock: KUMJIN_clean_sbu_1, # of connection points: 6
#     Node 3, Type 0, BuildingBlock: KUMJIN_clean_sbu_1, # of connection points: 6
#     Node 4, Type 0, BuildingBlock: KUMJIN_clean_sbu_1, # of connection points: 6
#     Node 5, Type 0, BuildingBlock: KUMJIN_clean_sbu_1, # of connection points: 6
#     Node 6, Type 0, BuildingBlock: KUMJIN_clean_sbu_1, # of connection points: 6
#     Node 7, Type 0, BuildingBlock: KUMJIN_clean_sbu_1, # of connection points: 6
#     Node 8, Type 0, BuildingBlock: KUMJIN_clean_sbu_1, # of connection points: 6
#     Node 9, Type 0, BuildingBlock: KUMJIN_clean_sbu_1, # of connection points: 6
#     Node 10, Type 0, BuildingBlock: KUMJIN_clean_sbu_1, # of connection points: 6
#     Node 11, Type 0, BuildingBlock: KUMJIN_clean_sbu_1, # of connection points: 6
#     Edge 12, Type (0, 0), BuildingBlock: OJICUG_clean_linker_0, # of connection points: 2
#     Edge 13, Type (0, 0), BuildingBlock: OJICUG_clean_linker_0, # of connection points: 2
#     Edge 14, Type (0, 0), BuildingBlock: OJICUG_clean_linker_0, # of connection points: 2
#     Edge 15, Type (0, 0), BuildingBlock: OJICUG_clean_linker_0, # of connection points: 2
#     Edge 16, Type (0, 0), BuildingBlock: OJICUG_clean_linker_0, # of connection points: 2
#     Edge 17, Type (0, 0), BuildingBlock: OJICUG_clean_linker_0, # of connection points: 2
#     Edge 18, Type (0, 0), BuildingBlock: OJICUG_clean_linker_0, # of connection points: 2
#     Edge 19, Type (0, 0), BuildingBlock: OJICUG_clean_linker_0, # of connection points: 2
#     Edge 20, Type (0, 0), BuildingBlock: OJICUG_clean_linker_0, # of connection points: 2
#     Edge 21, Type (0, 0), BuildingBlock: OJICUG_clean_linker_0, # of connection points: 2
#     Edge 22, Type (0, 0), BuildingBlock: OJICUG_clean_linker_0, # of connection points: 2
#     Edge 23, Type (0, 0), BuildingBlock: OJICUG_clean_linker_0, # of connection points: 2
#     Edge 24, Type (0, 0), BuildingBlock: OJICUG_clean_linker_0, # of connection points: 2
#     Edge 25, Type (0, 0), BuildingBlock: OJICUG_clean_linker_0, # of connection points: 2
#     Edge 26, Type (0, 0), BuildingBlock: OJICUG_clean_linker_0, # of connection points: 2
#     Edge 27, Type (0, 0), BuildingBlock: OJICUG_clean_linker_0, # of connection points: 2
#     Edge 28, Type (0, 0), BuildingBlock: OJICUG_clean_linker_0, # of connection points: 2
#     Edge 29, Type (0, 0), BuildingBlock: OJICUG_clean_linker_0, # of connection points: 2
#     Edge 30, Type (0, 0), BuildingBlock: OJICUG_clean_linker_0, # of connection points: 2
#     Edge 31, Type (0, 0), BuildingBlock: OJICUG_clean_linker_0, # of connection points: 2
#     Edge 32, Type (0, 0), BuildingBlock: OJICUG_clean_linker_0, # of connection points: 2
#     Edge 33, Type (0, 0), BuildingBlock: OJICUG_clean_linker_0, # of connection points: 2
#     Edge 34, Type (0, 0), BuildingBlock: OJICUG_clean_linker_0, # of connection points: 2
#     Edge 35, Type (0, 0), BuildingBlock: OJICUG_clean_linker_0, # of connection points: 2
#     Edge 36, Type (0, 0), BuildingBlock: OJICUG_clean_linker_0, # of connection points: 2
#     Edge 37, Type (0, 0), BuildingBlock: OJICUG_clean_linker_0, # of connection points: 2
#     Edge 38, Type (0, 0), BuildingBlock: OJICUG_clean_linker_0, # of connection points: 2
#     Edge 39, Type (0, 0), BuildingBlock: OJICUG_clean_linker_0, # of connection points: 2
#     Edge 40, Type (0, 0), BuildingBlock: OJICUG_clean_linker_0, # of connection points: 2
#     Edge 41, Type (0, 0), BuildingBlock: OJICUG_clean_linker_0, # of connection points: 2
#     Edge 42, Type (0, 0), BuildingBlock: OJICUG_clean_linker_0, # of connection points: 2
#     Edge 43, Type (0, 0), BuildingBlock: OJICUG_clean_linker_0, # of connection points: 2
#     Edge 44, Type (0, 0), BuildingBlock: OJICUG_clean_linker_0, # of connection points: 2
#     Edge 45, Type (0, 0), BuildingBlock: OJICUG_clean_linker_0, # of connection points: 2
#     Edge 46, Type (0, 0), BuildingBlock: OJICUG_clean_linker_0, # of connection points: 2
#     Edge 47, Type (0, 0), BuildingBlock: OJICUG_clean_linker_0, # of connection points: 2
# Relax obj value: 0.145
# Max RMSD: 0.311
# Mean RMSD: 0.311
data_MOF--net-wmn--node1-KUMJIN_clean_sbu_1--edge1-OJICUG_clean_linker_0
_symmetry_space_group_name_H-M    P1
_symmetry_Int_Tables_number       1
_symmetry_cell_setting            triclinic
loop_
_symmetry_equiv_pos_as_xyz
'x, y, z'
_cell_length_a     47.40407
_cell_length_b     47.490969
_cell_length_c     17.126259
_cell_angle_alpha  90.082652
_cell_angle_beta   90.005778
_cell_angle_gamma 120.12751
loop_
_atom_site_label
_atom_site_type_symbol
_atom_site_fract_x
_atom_site_fract_y
_atom_site_fract_z
_atom_type_partial_charge
Eu0 Eu 0.12908 0.4111 0.08458 0.0
C1 C 0.08672 0.25429 0.09467 0.0
N2 N 0.10441 0.27887 0.1457 0.0
C3 C 0.08058 0.24261 0.25397 0.0
C4 C 0.06431 0.22281 0.12191 0.0
C5 C 0.10262 0.27337 0.22421 0.0
C6 C 0.06095 0.21735 0.20263 0.0
C7 C 0.07804 0.23385 0.96163 0.0
C8 C 0.0932 0.25988 0.01514 0.0
C9 C 0.05415 0.20297 0.9881 0.0
C10 C 0.04717 0.19751 0.068 0.0
Eu11 Eu 0.13902 0.3299 0.08914 0.0
N12 N 0.11674 0.28986 0.99112 0.0
C13 C 0.08882 0.23916 0.88405 0.0
C14 C 0.12923 0.29445 0.91751 0.0
C15 C 0.1152 0.26932 0.86273 0.0
H16 H 0.11749 0.29308 0.26378 0.0
H17 H 0.12497 0.27328 0.80453 0.0
H18 H 0.19019 0.46014 0.96039 0.0
H19 H 0.11432 0.42696 0.39498 0.0
H20 H 0.14961 0.31776 0.90094 0.0
H21 H 0.07802 0.21975 0.84122 0.0
H22 H 0.09814 0.40015 0.26639 0.0
H23 H 0.07865 0.23843 0.31636 0.0
H24 H 0.04192 0.18279 0.94766 0.0
H25 H 0.02954 0.17327 0.08779 0.0
H26 H 0.24373 0.50989 0.96715 0.0
H27 H 0.0441 0.19348 0.22574 0.0
H28 H 0.16744 0.47757 0.4108 0.0
N29 N 0.18107 0.45878 0.08265 0.0
C30 C 0.19113 0.47518 0.15175 0.0
C31 C 0.22938 0.50015 0.01968 0.0
C32 C 0.2215 0.50422 0.15768 0.0
C33 C 0.19913 0.47147 0.01645 0.0
C34 C 0.24078 0.51642 0.09069 0.0
N35 N 0.14178 0.43493 0.21001 0.0
C36 C 0.12137 0.42214 0.27243 0.0
C37 C 0.18108 0.4792 0.28949 0.0
C38 C 0.17091 0.46307 0.21694 0.0
C39 C 0.16045 0.46593 0.35407 0.0
C40 C 0.13045 0.43733 0.34541 0.0
H41 H 0.26421 0.53869 0.09286 0.0
H42 H 0.25489 0.54262 0.23541 0.0
H43 H 0.2197 0.52054 0.35083 0.0
O44 O 0.09535 0.42885 0.10963 0.0
O45 O 0.16589 0.40608 0.16528 0.0
O46 O 0.14103 0.35263 0.20513 0.0
O47 O 0.12203 0.44224 1.00157 0.0
O48 O 0.08758 0.36779 0.14641 0.0
O49 O 0.09676 0.32404 0.16604 0.0
O50 O 0.19127 0.35228 0.11032 0.0
O51 O 0.11562 0.3382 0.98343 0.0
O52 O 0.08888 0.36386 0.02978 0.0
O53 O 0.163 0.30052 0.08955 0.0
O54 O 0.17436 0.38047 0.04306 0.0
O55 O 0.15132 0.40379 0.97375 0.0
C56 C 0.16034 0.3837 0.21865 0.0
C57 C 0.10453 0.478 0.05142 0.0
C58 C 0.07962 0.51272 0.04545 0.0
C59 C 0.11021 0.53966 0.06457 0.0
C60 C 0.13454 0.50532 0.07062 0.0
C61 C 0.1373 0.53592 0.07705 0.0
C62 C 0.07712 0.48178 0.0389 0.0
C63 C 0.07945 0.33878 0.17505 0.0
C64 C 0.10125 0.44536 0.04532 0.0
C65 C 0.23158 0.52036 0.22984 0.0
C66 C 0.21149 0.50784 0.29555 0.0
C67 C 0.08949 0.34087 0.98777 0.0
C68 C 0.21409 0.32054 0.15357 0.0
C69 C 0.25594 0.30511 0.16514 0.0
C70 C 0.26179 0.3167 0.24224 0.0
C71 C 0.21998 0.33168 0.2309 0.0
C72 C 0.23209 0.30727 0.12095 0.0
C73 C 0.24399 0.33008 0.2746 0.0
C74 C 0.17165 0.39266 0.97699 0.0
C75 C 0.19176 0.32526 0.10309 0.0
H76 H 0.11342 0.56385 0.06881 0.0
H77 H 0.15585 0.50305 0.08051 0.0
H78 H 0.16063 0.55692 0.09155 0.0
H79 H 0.05382 0.46054 0.02513 0.0
H80 H 0.28085 0.31635 0.27636 0.0
H81 H 0.20648 0.34212 0.25684 0.0
H82 H 0.22801 0.29923 0.06058 0.0
H83 H 0.24914 0.33979 0.33327 0.0
Eu84 Eu 0.62103 0.72367 0.08511 0.0
C85 C 0.77983 0.83875 0.07445 0.0
N86 N 0.75674 0.82934 0.13068 0.0
C87 C 0.79595 0.83668 0.22874 0.0
C88 C 0.81195 0.84663 0.09294 0.0
C89 C 0.76447 0.82922 0.20746 0.0
C90 C 0.81973 0.84511 0.17109 0.0
C91 C 0.79596 0.85536 0.94054 0.0
C92 C 0.77192 0.84299 0.99938 0.0
C93 C 0.82752 0.8614 0.95742 0.0
C94 C 0.8355 0.85702 0.03353 0.0
Eu95 Eu 0.70391 0.81604 0.08998 0.0
N96 N 0.74139 0.83743 0.98541 0.0
C97 C 0.78796 0.86273 0.86766 0.0
C98 C 0.73399 0.84634 0.91603 0.0
C99 C 0.75704 0.85885 0.85599 0.0
H100 H 0.74601 0.82274 0.25194 0.0
H101 H 0.75097 0.86559 0.80103 0.0
H102 H 0.57146 0.72782 0.94764 0.0
H103 H 0.60007 0.69752 0.397 0.0
H104 H 0.71004 0.84319 0.90677 0.0
H105 H 0.8058 0.87253 0.82115 0.0
H106 H 0.63009 0.70868 0.27282 0.0
H107 H 0.80185 0.8361 0.28952 0.0
H108 H 0.84621 0.87051 0.91274 0.0
H109 H 0.86022 0.86279 0.04637 0.0
H110 H 0.51919 0.72681 0.9423 0.0
H111 H 0.84425 0.85138 0.18764 0.0
H112 H 0.5468 0.69523 0.40079 0.0
N113 N 0.57097 0.72294 0.07147 0.0
C114 C 0.55307 0.71672 0.13805 0.0
C115 C 0.52863 0.72436 0.99785 0.0
C116 C 0.52255 0.71519 0.13707 0.0
C117 C 0.55865 0.72553 1.00144 0.0
C118 C 0.51065 0.71951 0.06601 0.0
N119 N 0.59437 0.71276 0.20703 0.0
C120 C 0.60687 0.70756 0.27362 0.0
C121 C 0.54692 0.7049 0.2772 0.0
C122 C 0.56487 0.71115 0.20739 0.0
C123 C 0.55984 0.70001 0.34599 0.0
C124 C 0.58991 0.70129 0.34411 0.0
H125 H 0.48731 0.71846 0.06289 0.0
H126 H 0.48124 0.70784 0.20681 0.0
H127 H 0.50271 0.69917 0.32948 0.0
O128 O 0.60592 0.6729 0.11182 0.0
O129 O 0.62316 0.76363 0.16584 0.0
O130 O 0.67698 0.78978 0.19855 0.0
O131 O 0.59237 0.68449 1.00161 0.0
O132 O 0.66377 0.72655 0.15375 0.0
O133 O 0.71298 0.77646 0.14086 0.0
O134 O 0.70641 0.86199 0.05975 0.0
O135 O 0.69244 0.78635 0.97957 0.0
O136 O 0.6674 0.73311 0.02086 0.0
O137 O 0.71466 0.8534 0.17856 0.0
O138 O 0.65248 0.8031 0.05167 0.0
O139 O 0.628 0.75622 0.98139 0.0
C140 C 0.64729 0.7834 0.21196 0.0
C141 C 0.55824 0.63096 0.05132 0.0
C142 C 0.52603 0.57114 0.04532 0.0
C143 C 0.49778 0.57302 0.05998 0.0
C144 C 0.52967 0.63192 0.06606 0.0
C145 C 0.49967 0.60311 0.07033 0.0
C146 C 0.55634 0.60053 0.041 0.0
C147 C 0.69567 0.74569 0.16426 0.0
C148 C 0.59018 0.66137 0.04663 0.0
C149 C 0.50465 0.70896 0.20654 0.0
C150 C 0.51682 0.70392 0.27639 0.0
C151 C 0.68915 0.75729 0.97766 0.0
C152 C 0.74263 0.90806 0.1336 0.0
C153 C 0.76354 0.96676 0.12455 0.0
C154 C 0.79488 0.97223 0.14255 0.0
C155 C 0.77427 0.91425 0.14961 0.0
C156 C 0.7374 0.93437 0.12058 0.0
C157 C 0.80014 0.94617 0.15455 0.0
C158 C 0.63775 0.7874 0.98737 0.0
C159 C 0.71498 0.87438 0.12922 0.0
H160 H 0.47402 0.55121 0.06226 0.0
H161 H 0.53046 0.65488 0.07391 0.0
H162 H 0.4777 0.6041 0.08133 0.0
H163 H 0.57851 0.59982 0.03049 0.0
H164 H 0.81558 0.99667 0.14561 0.0
H165 H 0.77897 0.89448 0.15909 0.0
H166 H 0.71299 0.92957 0.10771 0.0
H167 H 0.82445 0.95075 0.16747 0.0
Eu168 Eu 0.30086 0.89734 0.08651 0.0
C169 C 0.1887 0.94631 0.07406 0.0
N170 N 0.19808 0.93316 0.13145 0.0
C171 C 0.18825 0.96398 0.22778 0.0
C172 C 0.1796 0.96973 0.09106 0.0
C173 C 0.19671 0.94058 0.20794 0.0
C174 C 0.18009 0.97896 0.1689 0.0
C175 C 0.17237 0.94459 0.93942 0.0
C176 C 0.18522 0.934 0.99943 0.0
C177 C 0.16483 0.96911 0.95498 0.0
C178 C 0.16862 0.98181 0.03061 0.0
Eu179 Eu 0.21095 0.89292 0.09476 0.0
N180 N 0.19175 0.90965 0.9871 0.0
C181 C 0.16591 0.92904 0.86678 0.0
C182 C 0.18392 0.89329 0.91768 0.0
C183 C 0.17126 0.90293 0.85628 0.0
H184 H 0.20262 0.92866 0.25359 0.0
H185 H 0.16528 0.88995 0.80142 0.0
H186 H 0.28687 0.83593 0.96287 0.0
H187 H 0.3297 0.91118 0.39893 0.0
H188 H 0.18776 0.87295 0.90969 0.0
H189 H 0.15564 0.93619 0.8196 0.0
H190 H 0.31975 0.92785 0.27096 0.0
H191 H 0.18783 0.97027 0.28837 0.0
H192 H 0.15518 0.97776 0.90948 0.0
H193 H 0.16181 1.00004 0.04235 0.0
H194 H 0.2827 0.78224 0.96914 0.0
H195 H 0.17293 0.99661 0.18426 0.0
H196 H 0.32724 0.85822 0.41359 0.0
N197 N 0.29574 0.84531 0.08471 0.0
C198 C 0.30227 0.83537 0.15363 0.0
C199 C 0.28783 0.79677 0.02159 0.0
C200 C 0.30057 0.80492 0.15935 0.0
C201 C 0.28969 0.82707 0.01857 0.0
C202 C 0.29302 0.78552 0.09234 0.0
N203 N 0.31115 0.88456 0.21291 0.0
C204 C 0.31841 0.90463 0.27604 0.0
C205 C 0.31585 0.84509 0.29179 0.0
C206 C 0.31022 0.85548 0.21928 0.0
C207 C 0.32285 0.8654 0.3569 0.0
C208 C 0.3242 0.89529 0.34891 0.0
H209 H 0.29154 0.76201 0.09439 0.0
H210 H 0.30516 0.77139 0.23682 0.0
H211 H 0.31823 0.80637 0.35266 0.0
O212 O 0.35318 0.92333 0.11257 0.0
O213 O 0.25841 0.85903 0.16098 0.0
O214 O 0.23626 0.88925 0.20171 0.0
O215 O 0.33693 0.90435 0.99698 0.0
O216 O 0.30186 0.93993 0.15116 0.0
O217 O 0.2509 0.93714 0.16098 0.0
O218 O 0.1646 0.84928 0.06564 0.0
O219 O 0.24341 0.91311 0.9888 0.0
O220 O 0.29641 0.9389 0.03166 0.0
O221 O 0.17279 0.86827 0.18244 0.0
O222 O 0.21996 0.8527 0.04957 0.0
O223 O 0.26762 0.87369 0.98147 0.0
C224 C 0.24109 0.86484 0.21161 0.0
C225 C 0.389 0.95237 0.0093 0.0
C226 C 0.44775 0.99068 0.99127 0.0
C227 C 0.43974 1.01165 0.95141 0.0
C228 C 0.38201 0.97402 0.96993 0.0
C229 C 0.40724 1.00337 0.94103 0.0
C230 C 0.42193 0.96077 0.01987 0.0
C231 C 0.28276 0.95126 0.17508 0.0
C232 C 0.36212 0.92165 0.04182 0.0
C233 C 0.30645 0.79475 0.23142 0.0
C234 C 0.31398 0.81471 0.2974 0.0
C235 C 0.27264 0.93879 0.99137 0.0
C236 C 0.11879 0.84368 0.13341 0.0
C237 C 0.05991 0.80935 0.11474 0.0
C238 C 0.05633 0.83652 0.13025 0.0
C239 C 0.1145 0.87039 0.14812 0.0
C240 C 0.09139 0.81319 0.11675 0.0
C241 C 0.08346 0.86674 0.14688 0.0
C242 C 0.23583 0.85378 0.9855 0.0
C243 C 0.15162 0.8474 0.13355 0.0
H244 H 0.45863 0.03442 0.92721 0.0
H245 H 0.35702 0.96827 0.96163 0.0
H246 H 0.40157 0.01983 0.91035 0.0
H247 H 0.42736 0.94431 0.05151 0.0
H248 H 0.03263 0.83464 0.12792 0.0
H249 H 0.135 0.89406 0.16112 0.0
H250 H 0.09466 0.79253 0.10555 0.0
H251 H 0.08044 0.88749 0.15836 0.0
Eu252 Eu 0.42027 0.12575 0.43224 0.0
C253 C 0.26022 0.07728 0.42075 0.0
N254 N 0.28597 0.0966 0.37439 0.0
C255 C 0.25242 0.07539 0.26022 0.0
C256 C 0.22953 0.05543 0.38818 0.0
C257 C 0.28243 0.0966 0.29517 0.0
C258 C 0.22597 0.05444 0.30689 0.0
C259 C 0.23703 0.06335 0.5508 0.0
C260 C 0.264 0.08103 0.50107 0.0
C261 C 0.20685 0.04023 0.51884 0.0
C262 C 0.20312 0.03624 0.43768 0.0
Eu263 Eu 0.33559 0.13131 0.43865 0.0
N264 N 0.29333 0.10381 0.53022 0.0
C265 C 0.24084 0.07051 0.63076 0.0
C266 C 0.2967 0.11223 0.60731 0.0
C267 C 0.27066 0.09546 0.65876 0.0
H268 H 0.30285 0.11292 0.25908 0.0
H269 H 0.27366 0.10182 0.71977 0.0
H270 H 0.47003 0.18855 0.55213 0.0
H271 H 0.43107 0.11 0.11923 0.0
H272 H 0.31971 0.13175 0.62908 0.0
H273 H 0.22069 0.05766 0.67094 0.0
H274 H 0.40701 0.09369 0.25016 0.0
H275 H 0.24971 0.07524 0.19744 0.0
H276 H 0.18597 0.02609 0.55621 0.0
H277 H 0.17944 0.01903 0.41373 0.0
H278 H 0.51828 0.24297 0.54076 0.0
H279 H 0.20267 0.03829 0.27988 0.0
H280 H 0.48007 0.16399 0.09915 0.0
N281 N 0.46679 0.17856 0.42994 0.0
C282 C 0.48186 0.1885 0.35929 0.0
C283 C 0.50802 0.22808 0.48912 0.0
C284 C 0.50998 0.21944 0.35067 0.0
C285 C 0.48017 0.19729 0.49501 0.0
C286 C 0.52279 0.23936 0.41658 0.0
N287 N 0.44162 0.1382 0.30418 0.0
C288 C 0.42823 0.11737 0.24252 0.0
C289 C 0.48359 0.17802 0.22072 0.0
C290 C 0.46904 0.1678 0.29488 0.0
C291 C 0.46963 0.15697 0.15704 0.0
C292 C 0.44192 0.12649 0.16808 0.0
H293 H 0.54438 0.26324 0.41233 0.0
H294 H 0.54604 0.25328 0.26927 0.0
H295 H 0.52278 0.21721 0.15556 0.0
O296 O 0.4442 0.09803 0.40116 0.0
O297 O 0.41329 0.16206 0.35572 0.0
O298 O 0.359 0.13456 0.32257 0.0
O299 O 0.45182 0.11939 0.51539 0.0
O300 O 0.37682 0.08383 0.37032 0.0
O301 O 0.32888 0.08726 0.36779 0.0
O302 O 0.31748 0.16177 0.48842 0.0
O303 O 0.34923 0.11023 0.54078 0.0
O304 O 0.37466 0.08419 0.48933 0.0
O305 O 0.34125 0.17425 0.37691 0.0
O306 O 0.38708 0.16859 0.47608 0.0
O307 O 0.41389 0.14864 0.54312 0.0
C308 C 0.38933 0.15577 0.30659 0.0
C309 C 0.45257 0.06988 0.50367 0.0
C310 C 0.47158 0.03076 0.52339 0.0
C311 C 0.44267 1.01072 0.56492 0.0
C312 C 0.424 0.04921 0.54497 0.0
C313 C 0.41918 0.0199 0.57546 0.0
C314 C 0.47637 0.0606 0.49303 0.0
C315 C 0.34609 0.07306 0.34931 0.0
C316 C 0.45706 0.10053 0.46962 0.0
C317 C 0.52453 0.22954 0.27689 0.0
C318 C 0.51134 0.20895 0.21213 0.0
C319 C 0.3521 0.08427 0.53422 0.0
C320 C 0.30137 0.1892 0.40079 0.0
C321 C 0.28057 0.22721 0.38935 0.0
C322 C 0.25604 0.20429 0.33903 0.0
C323 C 0.27509 0.16633 0.35649 0.0
C324 C 0.30366 0.21926 0.41913 0.0
C325 C 0.25267 0.1739 0.32581 0.0
C326 C 0.4013 0.16773 0.54074 0.0
C327 C 0.32596 0.18141 0.42932 0.0
H328 H 0.43831 0.98801 0.59035 0.0
H329 H 0.40536 0.05571 0.55363 0.0
H330 H 0.39709 1.00419 0.60755 0.0
H331 H 0.49823 0.07632 0.4601 0.0
H332 H 0.23875 0.20901 0.30957 0.0
H333 H 0.2719 0.14265 0.34515 0.0
H334 H 0.32307 0.23575 0.45756 0.0
H335 H 0.23239 0.15606 0.29173 0.0
Eu336 Eu 0.90561 0.29485 0.43587 0.0
C337 C 0.94973 0.17904 0.43331 0.0
N338 N 0.93462 0.18742 0.37865 0.0
C339 C 0.96233 0.17627 0.27669 0.0
C340 C 0.97279 0.16998 0.41189 0.0
C341 C 0.93961 0.18506 0.30098 0.0
C342 C 0.97934 0.16914 0.33247 0.0
C343 C 0.95428 0.16719 0.5687 0.0
C344 C 0.94064 0.1777 0.51043 0.0
C345 C 0.97835 0.15952 0.54831 0.0
C346 C 0.98766 0.161 0.47005 0.0
Eu347 Eu 0.8971 0.2027 0.42347 0.0
N348 N 0.91702 0.18483 0.52778 0.0
C349 C 0.94242 0.16355 0.64508 0.0
C350 C 0.90384 0.17922 0.60098 0.0
C351 C 0.91668 0.16907 0.66091 0.0
H352 H 0.92636 0.19053 0.25788 0.0
H353 H 0.90651 0.16528 0.71894 0.0
H354 H 0.84719 0.28294 0.56726 0.0
H355 H 0.91604 0.32696 0.12657 0.0
H356 H 0.88381 0.1833 0.61325 0.0
H357 H 0.9522 0.15548 0.69151 0.0
H358 H 0.93332 0.31412 0.25053 0.0
H359 H 0.9667 0.17502 0.21509 0.0
H360 H 0.9893 0.15163 0.59231 0.0
H361 H 1.00568 0.15426 0.45488 0.0
H362 H 0.79487 0.28199 0.56911 0.0
H363 H 0.99674 0.16209 0.31364 0.0
H364 H 0.86442 0.32791 0.1198 0.0
N365 N 0.8548 0.29252 0.44529 0.0
C366 C 0.84436 0.30029 0.37892 0.0
C367 C 0.80837 0.28681 0.51507 0.0
C368 C 0.81476 0.30061 0.37796 0.0
C369 C 0.83785 0.28681 0.51342 0.0
C370 C 0.79664 0.29348 0.44698 0.0
N371 N 0.8917 0.30731 0.31355 0.0
C372 C 0.91071 0.31428 0.24859 0.0
C373 C 0.85265 0.31542 0.24166 0.0
C374 C 0.86335 0.30807 0.3115 0.0
C375 C 0.87187 0.32223 0.17458 0.0
C376 C 0.90101 0.32167 0.17813 0.0
H377 H 0.77382 0.29354 0.44858 0.0
H378 H 0.78154 0.30848 0.30682 0.0
H379 H 0.8145 0.32112 0.1875 0.0
O380 O 0.93901 0.34666 0.4141 0.0
O381 O 0.86634 0.25438 0.35755 0.0
O382 O 0.89329 0.22835 0.31765 0.0
O383 O 0.91416 0.33169 0.52466 0.0
O384 O 0.94546 0.29277 0.36648 0.0
O385 O 0.94025 0.24104 0.35093 0.0
O386 O 0.85442 0.15719 0.46133 0.0
O387 O 0.92064 0.2356 0.52748 0.0
O388 O 0.94691 0.28852 0.48565 0.0
O389 O 0.86723 0.16424 0.33994 0.0
O390 O 0.85958 0.21525 0.47039 0.0
O391 O 0.88315 0.26208 0.5412 0.0
C392 C 0.87005 0.23508 0.30839 0.0
C393 C 0.9312 0.38575 0.48164 0.0
C394 C 0.95701 0.44533 0.49192 0.0
C395 C 0.92627 0.44229 0.47901 0.0
C396 C 0.90097 0.38358 0.46896 0.0
C397 C 0.89859 0.41171 0.46771 0.0
C398 C 0.95915 0.41666 0.49323 0.0
C399 C 0.95539 0.27307 0.33901 0.0
C400 C 0.93426 0.35624 0.48146 0.0
C401 C 0.80424 0.3082 0.30857 0.0
C402 C 0.82307 0.31549 0.24064 0.0
C403 C 0.94683 0.26433 0.52325 0.0
C404 C 0.84212 0.11027 0.38809 0.0
C405 C 0.80429 0.05148 0.39494 0.0
C406 C 0.83038 0.04632 0.37772 0.0
C407 C 0.86775 0.10434 0.37282 0.0
C408 C 0.81043 0.08377 0.39967 0.0
C409 C 0.86183 0.07255 0.36732 0.0
C410 C 0.86219 0.23068 0.53622 0.0
C411 C 0.84816 0.14389 0.39256 0.0
H412 H 0.92346 0.46356 0.47879 0.0
H413 H 0.87923 0.36022 0.4601 0.0
H414 H 0.87512 0.4098 0.45811 0.0
H415 H 0.98259 0.41834 0.50209 0.0
H416 H 0.8267 0.02197 0.37404 0.0
H417 H 0.89229 0.12417 0.36428 0.0
H418 H 0.79065 0.08833 0.41197 0.0
H419 H 0.88173 0.06822 0.35501 0.0
Eu420 Eu 0.73468 0.61435 0.43041 0.0
C421 C 0.84974 0.77424 0.42503 0.0
N422 N 0.84064 0.75208 0.36651 0.0
C423 C 0.84451 0.79188 0.27445 0.0
C424 C 0.8548 0.80574 0.41115 0.0
C425 C 0.84002 0.76111 0.29128 0.0
C426 C 0.85125 0.81409 0.33499 0.0
C427 C 0.87005 0.7901 0.55691 0.0
C428 C 0.85731 0.76657 0.49696 0.0
C429 C 0.87284 0.82066 0.54526 0.0
C430 C 0.86512 0.82844 0.47249 0.0
Eu431 Eu 0.83258 0.70029 0.40103 0.0
N432 N 0.8547 0.73696 0.5063 0.0
C433 C 0.88108 0.78277 0.62531 0.0
C434 C 0.8665 0.73007 0.57158 0.0
C435 C 0.87973 0.75283 0.63205 0.0
H436 H 0.83591 0.74441 0.24407 0.0
H437 H 0.88928 0.74749 0.68323 0.0
H438 H 0.75643 0.58099 0.58198 0.0
H439 H 0.67122 0.55334 0.16121 0.0
H440 H 0.86581 0.7071 0.57647 0.0
H441 H 0.89189 0.80055 0.67173 0.0
H442 H 0.6917 0.59602 0.26342 0.0
H443 H 0.84322 0.79852 0.21471 0.0
H444 H 0.88209 0.83884 0.59118 0.0
H445 H 0.86862 0.85256 0.46326 0.0
H446 H 0.76836 0.53711 0.6009 0.0
H447 H 0.85533 0.83816 0.32191 0.0
H448 H 0.68268 0.50808 0.17045 0.0
N449 N 0.7451 0.57127 0.46037 0.0
C450 C 0.73611 0.54799 0.40377 0.0
C451 C 0.76011 0.54035 0.54446 0.0
C452 C 0.74085 0.52112 0.41415 0.0
C453 C 0.75435 0.56612 0.53229 0.0
C454 C 0.75407 0.51818 0.48453 0.0
N455 N 0.7147 0.57505 0.32894 0.0
C456 C 0.69639 0.57602 0.26816 0.0
C457 C 0.70888 0.52486 0.27993 0.0
C458 C 0.71989 0.5495 0.33736 0.0
C459 C 0.69154 0.52659 0.21561 0.0
C460 C 0.68498 0.55208 0.21017 0.0
H461 H 0.75805 0.49791 0.49467 0.0
H462 H 0.73472 0.47665 0.36267 0.0
H463 H 0.70693 0.48006 0.2451 0.0
O464 O 0.68317 0.59908 0.41319 0.0
O465 O 0.75754 0.61325 0.3127 0.0
O466 O 0.79671 0.65071 0.3742 0.0
O467 O 0.69783 0.58826 0.5218 0.0
O468 O 0.74005 0.65705 0.35767 0.0
O469 O 0.79296 0.69771 0.31693 0.0
O470 O 0.87875 0.70121 0.41499 0.0
O471 O 0.80303 0.6976 0.50702 0.0
O472 O 0.74746 0.66555 0.47494 0.0
O473 O 0.86543 0.7109 0.30184 0.0
O474 O 0.82314 0.6541 0.46483 0.0
O475 O 0.77361 0.63183 0.52952 0.0
C476 C 0.78798 0.63438 0.30992 0.0
C477 C 0.64733 0.58854 0.5192 0.0
C478 C 0.58868 0.56746 0.5419 0.0
C479 C 0.59708 0.59561 0.58618 0.0
C480 C 0.65478 0.61629 0.5632 0.0
C481 C 0.62975 0.61967 0.59667 0.0
C482 C 0.61428 0.56416 0.5088 0.0
C483 C 0.76042 0.6836 0.31753 0.0
C484 C 0.67341 0.58516 0.48042 0.0
C485 C 0.73097 0.49722 0.35569 0.0
C486 C 0.71501 0.49907 0.28886 0.0
C487 C 0.77272 0.69168 0.50696 0.0
C488 C 0.92163 0.73907 0.33725 0.0
C489 C 0.98034 0.7617 0.35414 0.0
C490 C 0.98519 0.79284 0.33759 0.0
C491 C 0.92698 0.77046 0.32289 0.0
C492 C 0.94838 0.73482 0.35255 0.0
C493 C 0.95866 0.79708 0.32194 0.0
C494 C 0.80555 0.64247 0.52894 0.0
C495 C 0.88838 0.71095 0.34403 0.0
H496 H 0.57838 0.59893 0.61365 0.0
H497 H 0.67989 0.63539 0.57122 0.0
H498 H 0.6357 0.64115 0.63084 0.0
H499 H 0.60855 0.54299 0.47347 0.0
H500 H 1.00939 0.81409 0.33911 0.0
H501 H 0.90674 0.77449 0.31316 0.0
H502 H 0.94414 0.71062 0.36495 0.0
H503 H 0.96262 0.82122 0.31061 0.0
Eu504 Eu 0.89125 0.70198 0.89951 0.0
C505 C 0.84216 0.54881 0.89822 0.0
N506 N 0.85248 0.5726 0.95395 0.0
C507 C 0.80373 0.53939 0.02804 0.0
C508 C 0.81139 0.52015 0.90397 0.0
C509 C 0.83458 0.56706 0.02072 0.0
C510 C 0.79181 0.51612 0.96879 0.0
C511 C 0.85343 0.52743 0.78019 0.0
C512 C 0.86304 0.55208 0.83709 0.0
C513 C 0.82246 0.49949 0.78482 0.0
C514 C 0.8015 0.49587 0.84643 0.0
Eu515 Eu 0.90565 0.6182 0.93299 0.0
N516 N 0.89272 0.57967 0.83265 0.0
C517 C 0.87535 0.53155 0.72037 0.0
C518 C 0.91455 0.58354 0.77574 0.0
C519 C 0.90609 0.55963 0.71843 0.0
H520 H 0.84406 0.58295 0.0705 0.0
H521 H 0.92325 0.56287 0.67277 0.0
H522 H 0.9322 0.74708 0.74338 0.0
H523 H 0.88011 0.74741 0.18281 0.0
H524 H 0.93826 0.60538 0.77425 0.0
H525 H 0.86885 0.51311 0.67572 0.0
H526 H 0.86347 0.70789 0.07424 0.0
H527 H 0.78951 0.53562 0.08046 0.0
H528 H 0.81459 0.48035 0.74147 0.0
H529 H 0.77789 0.47387 0.84991 0.0
H530 H 0.97911 0.80158 0.71555 0.0
H531 H 0.76808 0.49448 0.97528 0.0
H532 H 0.93026 0.80109 0.17239 0.0
N533 N 0.93441 0.75444 0.8659 0.0
C534 C 0.94705 0.77647 0.9248 0.0
C535 C 0.97077 0.79472 0.775 0.0
C536 C 0.97351 0.80813 0.91182 0.0
C537 C 0.94442 0.76376 0.79096 0.0
C538 C 0.98593 0.81678 0.83608 0.0
N539 N 0.90458 0.73852 1.00484 0.0
C540 C 0.88565 0.73107 0.06992 0.0
C541 C 0.94192 0.79162 0.05686 0.0
C542 C 0.93144 0.76839 0.9963 0.0
C543 C 0.92342 0.78365 0.12524 0.0
C544 C 0.89496 0.75341 0.13127 0.0
H545 H 1.00609 0.84091 0.82371 0.0
H546 H 1.00619 0.85485 0.96517 0.0
H547 H 0.97842 0.84035 0.0925 0.0
O548 O 0.84495 0.70093 0.91187 0.0
O549 O 0.9183 0.70077 1.00659 0.0
O550 O 0.94309 0.67031 0.97374 0.0
O551 O 0.86861 0.71142 0.79946 0.0
O552 O 0.85491 0.65558 0.96349 0.0
O553 O 0.88289 0.63468 0.02993 0.0
O554 O 0.94694 0.60935 0.93061 0.0
O555 O 0.8799 0.6139 0.81553 0.0
O556 O 0.88016 0.65318 0.87254 0.0
O557 O 0.91438 0.59261 0.02815 0.0
O558 O 0.94166 0.6602 0.85627 0.0
O559 O 0.92937 0.70075 0.81647 0.0
C560 C 0.94325 0.69582 1.00648 0.0
C561 C 0.83971 0.73854 0.83444 0.0
C562 C 0.80308 0.76031 0.85179 0.0
C563 C 0.82933 0.79174 0.83662 0.0
C564 C 0.86572 0.77021 0.82177 0.0
C565 C 0.86038 0.79655 0.82161 0.0
C566 C 0.80845 0.73373 0.84916 0.0
C567 C 0.86119 0.64464 0.0282 0.0
C568 C 0.84522 0.71077 0.84097 0.0
C569 C 0.98553 0.83061 0.97368 0.0
C570 C 0.96969 0.82239 0.0461 0.0
C571 C 0.87096 0.63526 0.81054 0.0
C572 C 0.93817 0.56078 0.99086 0.0
C573 C 0.96633 0.52902 0.99529 0.0
C574 C 0.93616 0.50066 0.98119 0.0
C575 C 0.90863 0.53193 0.97702 0.0
C576 C 0.96706 0.55922 1.00026 0.0
C577 C 0.9077 0.50218 0.97214 0.0
C578 C 0.94768 0.68659 0.81592 0.0
C579 C 0.93886 0.59238 0.99433 0.0
H580 H 0.82614 0.81275 0.83883 0.0
H581 H 0.89021 0.77469 0.81271 0.0
H582 H 0.88054 0.8209 0.81148 0.0
H583 H 0.78851 0.70933 0.86058 0.0
H584 H 0.93437 0.47703 0.97847 0.0
H585 H 0.88615 0.53233 0.97037 0.0
H586 H 0.98998 0.58145 0.01044 0.0
H587 H 0.88471 0.4801 0.96168 0.0
Eu588 Eu 0.32875 0.20333 0.91561 0.0
C589 C 0.47999 0.2979 0.88279 0.0
N590 N 0.46094 0.28943 0.94787 0.0
C591 C 0.49985 0.28118 0.01846 0.0
C592 C 0.50954 0.29749 0.88293 0.0
C593 C 0.47076 0.28192 0.0157 0.0
C594 C 0.51924 0.28883 0.95173 0.0
C595 C 0.48866 0.31471 0.74667 0.0
C596 C 0.46978 0.30674 0.81534 0.0
C597 C 0.51805 0.31426 0.74685 0.0
C598 C 0.52848 0.30575 0.81475 0.0
Eu599 Eu 0.41343 0.29327 0.93725 0.0
N600 N 0.44087 0.30642 0.81614 0.0
C601 C 0.47731 0.32265 0.6795 0.0
C602 C 0.4299 0.31456 0.75114 0.0
C603 C 0.44784 0.3226 0.68182 0.0
H604 H 0.45664 0.27713 0.06839 0.0
H605 H 0.43898 0.32886 0.63023 0.0
H606 H 0.28785 0.19669 0.75166 0.0
H607 H 0.27956 0.14737 0.19695 0.0
H608 H 0.40742 0.31504 0.75216 0.0
H609 H 0.4911 0.32885 0.6256 0.0
H610 H 0.32213 0.17595 0.09704 0.0
H611 H 0.50745 0.275 0.07227 0.0
H612 H 0.53288 0.32036 0.69462 0.0
H613 H 0.55124 0.30554 0.81386 0.0
H614 H 0.23194 0.18165 0.71037 0.0
H615 H 0.5418 0.28828 0.95417 0.0
H616 H 0.22274 0.13405 0.17041 0.0
N617 N 0.27591 0.18916 0.87221 0.0
C618 C 0.25188 0.17767 0.92642 0.0
C619 C 0.23724 0.18067 0.77146 0.0
C620 C 0.21943 0.1678 0.90538 0.0
C621 C 0.26884 0.18937 0.79503 0.0
C622 C 0.21248 0.17027 0.82711 0.0
N623 N 0.29026 0.18025 0.01746 0.0
C624 C 0.29765 0.171 0.08629 0.0
C625 C 0.23412 0.15656 0.05666 0.0
C626 C 0.25919 0.17254 1.00124 0.0
C627 C 0.24168 0.14767 0.12802 0.0
C628 C 0.27359 0.15482 0.14281 0.0
H629 H 0.18787 0.16293 0.80868 0.0
H630 H 0.16973 0.14658 0.94716 0.0
H631 H 0.18253 0.1363 0.07964 0.0
O632 O 0.33237 0.15985 0.9385 0.0
O633 O 0.33164 0.23257 0.02311 0.0
O634 O 0.3657 0.28633 0.9867 0.0
O635 O 0.31413 0.16502 0.82779 0.0
O636 O 0.37655 0.21337 0.97199 0.0
O637 O 0.39965 0.26019 0.04288 0.0
O638 O 0.43219 0.3453 0.91986 0.0
O639 O 0.4128 0.25264 0.86188 0.0
O640 O 0.36136 0.23152 0.81663 0.0
O641 O 0.44304 0.32901 0.02717 0.0
O642 O 0.37356 0.29471 0.86633 0.0
O643 O 0.32637 0.24371 0.84681 0.0
C644 C 0.33972 0.26339 0.02294 0.0
C645 C 0.29076 0.11184 0.87972 0.0
C646 C 0.27039 0.05354 0.89519 0.0
C647 C 0.23841 0.04768 0.88559 0.0
C648 C 0.25848 0.10523 0.87207 0.0
C649 C 0.23256 0.07335 0.87457 0.0
C650 C 0.2966 0.08589 0.89214 0.0
C651 C 0.38826 0.22867 0.03851 0.0
C652 C 0.31827 0.14556 0.87354 0.0
C653 C 0.19475 0.1541 0.96203 0.0
C654 C 0.20204 0.14826 0.03746 0.0
C655 C 0.39014 0.23477 0.81069 0.0
C656 C 0.47982 0.38367 0.98666 0.0
C657 C 0.51334 0.44328 0.99655 0.0
C658 C 0.54123 0.44065 0.98304 0.0
C659 C 0.50802 0.38185 0.97334 0.0
C660 C 0.48258 0.4144 0.99833 0.0
C661 C 0.53851 0.41022 0.97162 0.0
C662 C 0.34396 0.27582 0.83726 0.0
C663 C 0.44721 0.35405 0.98662 0.0
H664 H 0.21777 0.02322 0.88802 0.0
H665 H 0.25323 0.12456 0.86219 0.0
H666 H 0.20781 0.06849 0.86778 0.0
H667 H 0.32145 0.09086 0.8984 0.0
H668 H 0.56528 0.46211 0.98237 0.0
H669 H 0.5065 0.35859 0.96423 0.0
H670 H 0.46069 0.41578 1.00752 0.0
H671 H 0.5602 0.40861 0.9615 0.0
Eu672 Eu 0.8234 0.12943 0.92596 0.0
C673 C 0.73024 0.18392 0.86088 0.0
N674 N 0.73713 0.17477 0.93046 0.0
C675 C 0.74483 0.22373 0.99071 0.0
C676 C 0.73167 0.21419 0.85332 0.0
C677 C 0.74329 0.1936 0.99553 0.0
C678 C 0.73927 0.2342 0.91923 0.0
C679 C 0.71642 0.17286 0.7231 0.0
C680 C 0.72234 0.16324 0.79633 0.0
C681 C 0.71799 0.20306 0.71566 0.0
C682 C 0.72549 0.22359 0.78053 0.0
Eu683 Eu 0.73239 0.1229 0.93183 0.0
N684 N 0.7217 0.13436 0.80447 0.0
C685 C 0.70939 0.15198 0.65915 0.0
C686 C 0.71431 0.11367 0.74255 0.0
C687 C 0.70825 0.12226 0.66901 0.0
H688 H 0.74644 0.18537 0.05177 0.0
H689 H 0.70264 0.10589 0.61995 0.0
H690 H 0.83559 0.09738 0.76545 0.0
H691 H 0.86623 0.12875 0.22071 0.0
H692 H 0.71289 0.09046 0.74918 0.0
H693 H 0.70478 0.15855 0.60196 0.0
H694 H 0.84567 0.14782 0.11226 0.0
H695 H 0.75003 0.23874 0.04231 0.0
H696 H 0.71351 0.21081 0.65982 0.0
H697 H 0.72657 0.2468 0.77372 0.0
H698 H 0.84999 0.05565 0.72877 0.0
H699 H 0.74053 0.25758 0.91577 0.0
H700 H 0.87476 0.08189 0.20103 0.0
N701 N 0.83792 0.09061 0.88731 0.0
C702 C 0.84595 0.07618 0.94431 0.0
C703 C 0.84872 0.06099 0.7897 0.0
C704 C 0.85467 0.05256 0.92643 0.0
C705 C 0.84056 0.08452 0.81056 0.0
C706 C 0.85523 0.04449 0.84801 0.0
N707 N 0.84206 0.11177 0.03299 0.0
C708 C 0.84927 0.12732 0.10347 0.0
C709 C 0.85987 0.07545 0.07987 0.0
C710 C 0.84833 0.0873 0.01975 0.0
C711 C 0.86555 0.09005 0.15359 0.0
C712 C 0.8608 0.11651 0.16496 0.0
H713 H 0.86183 0.02649 0.83182 0.0
H714 H 0.87055 0.02058 0.97452 0.0
H715 H 0.87545 0.04093 0.10904 0.0
O716 O 0.86892 0.17332 0.95889 0.0
O717 O 0.79032 0.108 0.03068 0.0
O718 O 0.73752 0.08159 0.98625 0.0
O719 O 0.86177 0.15654 0.84011 0.0
O720 O 0.81246 0.16836 0.97109 0.0
O721 O 0.76457 0.14642 0.0382 0.0
O722 O 0.68011 0.09628 0.9055 0.0
O723 O 0.77482 0.1618 0.85797 0.0
O724 O 0.79802 0.13238 0.81855 0.0
O725 O 0.69607 0.11578 0.0208 0.0
O726 O 0.73275 0.08079 0.86881 0.0
O727 O 0.78453 0.08557 0.85604 0.0
C728 C 0.76139 0.08192 0.02678 0.0
C729 C 0.91589 0.18348 0.88844 0.0
C730 C 0.97454 0.22185 0.89658 0.0
C731 C 0.98032 0.19614 0.88013 0.0
C732 C 0.92231 0.15812 0.87412 0.0
C733 C 0.95436 0.16453 0.86948 0.0
C734 C 0.94207 0.21526 0.90036 0.0
C735 C 0.79627 0.16665 0.03502 0.0
C736 C 0.88214 0.17727 0.89047 0.0
C737 C 0.86409 0.03902 0.98687 0.0
C738 C 0.86687 0.0506 0.06346 0.0
C739 C 0.79271 0.15643 0.80807 0.0
C740 C 0.64421 0.06747 0.00879 0.0
C741 C 0.5855 0.02913 0.0273 0.0
C742 C 0.59359 1.00821 0.06712 0.0
C743 C 0.6513 0.04588 0.04812 0.0
C744 C 0.61126 0.05902 0.99848 0.0
C745 C 0.62613 0.01654 0.07725 0.0
C746 C 0.75249 0.07054 0.84315 0.0
C747 C 0.671 0.09815 0.97593 0.0
H748 H 1.00494 0.20031 0.87718 0.0
H749 H 0.90265 0.13347 0.86543 0.0
H750 H 0.95912 0.14489 0.85768 0.0
H751 H 0.93714 0.23483 0.91187 0.0
H752 H 0.57475 0.98545 0.09146 0.0
H753 H 0.67631 0.05167 0.05618 0.0
H754 H 0.60576 0.07543 0.96684 0.0
H755 H 0.63186 1.00012 0.10791 0.0
Eu756 Eu 0.70337 0.88944 0.59435 0.0
C757 C 0.55362 0.83112 0.65123 0.0
N758 N 0.57048 0.84159 0.58288 0.0
C759 C 0.5298 0.79359 0.51746 0.0
C760 C 0.52461 0.80067 0.65546 0.0
C761 C 0.55845 0.82388 0.5159 0.0
C762 C 0.51295 0.7818 0.5876 0.0
C763 C 0.54911 0.83979 0.7897 0.0
C764 C 0.56555 0.85071 0.71775 0.0
C765 C 0.52035 0.80942 0.79382 0.0
C766 C 0.5081 0.78998 0.72695 0.0
Eu767 Eu 0.6178 0.89359 0.58725 0.0
N768 N 0.59395 0.87976 0.71282 0.0
C769 C 0.56227 0.85955 0.85576 0.0
C770 C 0.60672 0.89922 0.77696 0.0
C771 C 0.59116 0.88938 0.8493 0.0
H772 H 0.57041 0.83316 0.46061 0.0
H773 H 0.60152 0.90479 0.90011 0.0
H774 H 0.74485 0.92291 0.75846 0.0
H775 H 0.75127 0.89377 0.30286 0.0
H776 H 0.62897 0.92224 0.77312 0.0
H777 H 0.55039 0.85196 0.91206 0.0
H778 H 0.71025 0.87275 0.40838 0.0
H779 H 0.52054 0.77949 0.46435 0.0
H780 H 0.50742 0.80068 0.84862 0.0
H781 H 0.48585 0.76662 0.73119 0.0
H782 H 0.80013 0.96603 0.79883 0.0
H783 H 0.49074 0.75831 0.5885 0.0
H784 H 0.80593 0.94176 0.32669 0.0
N785 N 0.7557 0.92972 0.63722 0.0
C786 C 0.77888 0.94484 0.58181 0.0
C787 C 0.79443 0.96047 0.73755 0.0
C788 C 0.81077 0.96927 0.60194 0.0
C789 C 0.76324 0.93617 0.71462 0.0
C790 C 0.81818 0.97745 0.68083 0.0
N791 N 0.74108 0.90876 0.49011 0.0
C792 C 0.73401 0.8937 0.41902 0.0
C793 C 0.7956 0.94678 0.44742 0.0
C794 C 0.77138 0.93387 0.50574 0.0
C795 C 0.78794 0.93268 0.37296 0.0
C796 C 0.75716 0.90562 0.35919 0.0
H797 H 0.84241 0.99603 0.69865 0.0
H798 H 0.85909 1.00265 0.5574 0.0
H799 H 0.84589 0.98268 0.42208 0.0
O800 O 0.7077 0.84733 0.56068 0.0
O801 O 0.69137 0.90965 0.48805 0.0
O802 O 0.664 0.93501 0.53192 0.0
O803 O 0.7152 0.86295 0.68042 0.0
O804 O 0.65367 0.8495 0.55044 0.0
O805 O 0.62737 0.87038 0.48167 0.0
O806 O 0.59254 0.92048 0.61353 0.0
O807 O 0.62197 0.85568 0.66287 0.0
O808 O 0.67483 0.88565 0.70233 0.0
O809 O 0.58853 0.90056 0.49851 0.0
O810 O 0.65934 0.93604 0.65305 0.0
O811 O 0.70786 0.93379 0.65876 0.0
C812 C 0.6876 0.93513 0.49086 0.0
C813 C 0.7456 0.8395 0.63197 0.0
C814 C 0.76963 0.80477 0.61568 0.0
C815 C 0.80051 0.83183 0.63211 0.0
C816 C 0.77668 0.86611 0.64749 0.0
C817 C 0.8039 0.86219 0.64796 0.0
C818 C 0.74217 0.80888 0.61621 0.0
C819 C 0.63925 0.85061 0.48586 0.0
C820 C 0.71671 0.84344 0.62945 0.0
C821 C 0.83453 0.98362 0.54328 0.0
C822 C 0.827 0.97226 0.46621 0.0
C823 C 0.64535 0.8615 0.71297 0.0
C824 C 0.58662 0.94954 0.50926 0.0
C825 C 0.56796 0.98893 0.48907 0.0
C826 C 0.59716 1.00903 0.4486 0.0
C827 C 0.61551 0.9703 0.46912 0.0
C828 C 0.56287 0.95893 0.51913 0.0
C829 C 0.62064 0.99976 0.43891 0.0
C830 C 0.69012 0.94758 0.67481 0.0
C831 C 0.58168 0.91867 0.54295 0.0
H832 H 0.82225 0.82981 0.63103 0.0
H833 H 0.78 0.8899 0.65944 0.0
H834 H 0.8278 0.88285 0.66002 0.0
H835 H 0.71813 0.78835 0.60434 0.0
H836 H 0.60177 0.03185 0.42337 0.0
H837 H 0.63415 0.96375 0.46116 0.0
H838 H 0.54079 0.94315 0.55128 0.0
H839 H 0.64295 0.01553 0.40768 0.0
Eu840 Eu 0.13754 0.81887 0.58866 0.0
C841 C 0.18824 0.71984 0.63922 0.0
N842 N 0.17711 0.72636 0.57215 0.0
C843 C 0.2217 0.72855 0.50066 0.0
C844 C 0.21734 0.71854 0.63958 0.0
C845 C 0.19271 0.72949 0.50288 0.0
C846 C 0.23425 0.72338 0.56936 0.0
C847 C 0.18142 0.70739 0.77805 0.0
C848 C 0.17022 0.71382 0.70773 0.0
C849 C 0.21061 0.70658 0.77856 0.0
C850 C 0.22846 0.71205 0.70954 0.0
Eu851 Eu 0.12734 0.72637 0.58343 0.0
N852 N 0.14226 0.7153 0.70614 0.0
C853 C 0.16305 0.7022 0.84605 0.0
C854 C 0.12407 0.70988 0.77197 0.0
C855 C 0.13425 0.70342 0.84293 0.0
H856 H 0.18266 0.73201 0.4486 0.0
H857 H 0.11992 0.69946 0.89522 0.0
H858 H 0.10433 0.82667 0.75338 0.0
H859 H 0.1371 0.86737 0.30045 0.0
H860 H 0.10196 0.71097 0.77023 0.0
H861 H 0.17091 0.69728 0.90122 0.0
H862 H 0.15685 0.84558 0.40461 0.0
H863 H 0.23414 0.73142 0.44571 0.0
H864 H 0.21958 0.70168 0.83205 0.0
H865 H 0.25081 0.71108 0.71083 0.0
H866 H 0.06191 0.83968 0.79392 0.0
H867 H 0.25665 0.72251 0.56728 0.0
H868 H 0.08919 0.87394 0.3236 0.0
N869 N 0.09889 0.83277 0.63253 0.0
C870 C 0.08446 0.84173 0.57733 0.0
C871 C 0.06787 0.84015 0.73276 0.0
C872 C 0.06027 0.8494 0.59749 0.0
C873 C 0.09185 0.83291 0.70982 0.0
C874 C 0.05177 0.84811 0.67621 0.0
N875 N 0.12054 0.84006 0.48573 0.0
C876 C 0.13611 0.84869 0.41535 0.0
C877 C 0.08327 0.85746 0.44345 0.0
C878 C 0.0957 0.84557 0.50145 0.0
C879 C 0.09785 0.86453 0.36959 0.0
C880 C 0.12487 0.86083 0.35615 0.0
H881 H 0.03353 0.85416 0.694 0.0
H882 H 0.02735 0.86484 0.55312 0.0
H883 H 0.04759 0.872 0.41804 0.0
O884 O 0.1807 0.86477 0.55553 0.0
O885 O 0.11849 0.78887 0.4787 0.0
O886 O 0.09016 0.73561 0.51995 0.0
O887 O 0.16632 0.85603 0.6761 0.0
O888 O 0.17539 0.80526 0.54993 0.0
O889 O 0.15276 0.75864 0.47911 0.0
O890 O 0.09183 0.67536 0.60936 0.0
O891 O 0.16525 0.76636 0.66464 0.0
O892 O 0.13787 0.79267 0.69759 0.0
O893 O 0.11726 0.6875 0.49949 0.0
O894 O 0.08712 0.72922 0.6503 0.0
O895 O 0.08886 0.77962 0.64107 0.0
C896 C 0.09248 0.75986 0.47741 0.0
C897 C 0.19376 0.9109 0.63256 0.0
C898 C 0.2335 0.96929 0.62751 0.0
C899 C 0.20845 0.97569 0.64739 0.0
C900 C 0.16912 0.91801 0.65029 0.0
C901 C 0.17654 0.95025 0.658 0.0
C902 C 0.22586 0.9366 0.62039 0.0
C903 C 0.17419 0.78985 0.48509 0.0
C904 C 0.18638 0.87691 0.62551 0.0
C905 C 0.04629 0.85925 0.53899 0.0
C906 C 0.05779 0.8633 0.46206 0.0
C907 C 0.1609 0.78596 0.71123 0.0
C908 C 0.0983 0.63402 0.54863 0.0
C909 C 0.07135 0.57424 0.542 0.0
C910 C 0.10177 0.57673 0.55654 0.0
C911 C 0.12812 0.63556 0.56322 0.0
C912 C 0.06995 0.6033 0.53806 0.0
C913 C 0.12978 0.60709 0.56714 0.0
C914 C 0.07487 0.74861 0.66268 0.0
C915 C 0.09634 0.66412 0.54415 0.0
H916 H 0.21334 1.00042 0.65287 0.0
H917 H 0.14422 0.89868 0.65887 0.0
H918 H 0.15744 0.95558 0.67213 0.0
H919 H 0.24485 0.93113 0.60578 0.0
H920 H 0.10412 0.55521 0.5585 0.0
H921 H 0.15017 0.65872 0.57115 0.0
H922 H 0.04683 0.60211 0.5276 0.0
H923 H 0.15298 0.60855 0.57801 0.0
Eu924 Eu 0.2118 0.32658 0.60119 0.0
C925 C 0.30508 0.47712 0.64241 0.0
N926 N 0.29838 0.45924 0.57551 0.0
C927 C 0.29196 0.49931 0.50535 0.0
C928 C 0.30431 0.50644 0.64339 0.0
C929 C 0.29297 0.47041 0.50699 0.0
C930 C 0.29741 0.51728 0.57389 0.0
C931 C 0.31802 0.48337 0.78119 0.0
C932 C 0.31228 0.46588 0.71075 0.0
C933 C 0.3172 0.51251 0.78201 0.0
C934 C 0.31045 0.52403 0.71337 0.0
Eu935 Eu 0.30252 0.41192 0.58526 0.0
N936 N 0.31209 0.43707 0.70909 0.0
C937 C 0.32397 0.47081 0.84914 0.0
C938 C 0.31812 0.42485 0.775 0.0
C939 C 0.32401 0.44145 0.84599 0.0
H940 H 0.29006 0.45754 0.45294 0.0
H941 H 0.32854 0.43156 0.89829 0.0
H942 H 0.2102 0.28333 0.75719 0.0
H943 H 0.1592 0.28393 0.31286 0.0
H944 H 0.31818 0.40223 0.77345 0.0
H945 H 0.32841 0.48351 0.90439 0.0
H946 H 0.1846 0.3236 0.42067 0.0
H947 H 0.28732 0.5079 0.45101 0.0
H948 H 0.3216 0.52626 0.83561 0.0
H949 H 0.3099 0.54656 0.7151 0.0
H950 H 0.19668 0.22709 0.78901 0.0
H951 H 0.29664 0.53969 0.57231 0.0
H952 H 0.14635 0.22704 0.33034 0.0
N953 N 0.19893 0.27324 0.63657 0.0
C954 C 0.1861 0.2501 0.58022 0.0
C955 C 0.19382 0.23327 0.72987 0.0
C956 C 0.17756 0.21763 0.59579 0.0
C957 C 0.20161 0.26508 0.71158 0.0
C958 C 0.18214 0.20952 0.67142 0.0
N959 N 0.18724 0.28983 0.49658 0.0
C960 C 0.1791 0.29886 0.42852 0.0
C961 C 0.1648 0.23497 0.44888 0.0
C962 C 0.17965 0.25858 0.5082 0.0
C963 C 0.15759 0.24436 0.37761 0.0
C964 C 0.16462 0.27642 0.36763 0.0
H965 H 0.17583 0.18483 0.6857 0.0
H966 H 0.15734 0.16916 0.5468 0.0
H967 H 0.14631 0.18441 0.41778 0.0
O968 O 0.16728 0.32906 0.58449 0.0
O969 O 0.24294 0.33614 0.49364 0.0
O970 O 0.29706 0.36534 0.52961 0.0
O971 O 0.17508 0.31133 0.69325 0.0
O972 O 0.22083 0.37511 0.55101 0.0
O973 O 0.26835 0.40059 0.4813 0.0
O974 O 0.35471 0.43767 0.61312 0.0
O975 O 0.26077 0.40932 0.66038 0.0
O976 O 0.2403 0.35766 0.70176 0.0
O977 O 0.33938 0.44077 0.4969 0.0
O978 O 0.30435 0.37129 0.65248 0.0
O979 O 0.25314 0.32314 0.66132 0.0
C980 C 0.27244 0.34004 0.49482 0.0
C981 C 0.12082 0.28645 0.64558 0.0
C982 C 0.0626 0.2642 0.6229 0.0
C983 C 0.05742 0.23271 0.63432 0.0
C984 C 0.11509 0.25457 0.65517 0.0
C985 C 0.08353 0.22797 0.65058 0.0
C986 C 0.09433 0.29115 0.62952 0.0
C987 C 0.23667 0.38927 0.48641 0.0
C988 C 0.15432 0.31464 0.65013 0.0
C989 C 0.1638 0.19418 0.53621 0.0
C990 C 0.15743 0.20284 0.46284 0.0
C991 C 0.24293 0.38601 0.71001 0.0
C992 C 0.39189 0.44589 0.51161 0.0
C993 C 0.45113 0.46766 0.49728 0.0
C994 C 0.444 0.43956 0.45409 0.0
C995 C 0.38588 0.41814 0.4693 0.0
C996 C 0.42458 0.47063 0.52561 0.0
C997 C 0.41178 0.41513 0.44057 0.0
C998 C 0.28503 0.34065 0.67473 0.0
C999 C 0.36423 0.44874 0.54295 0.0
H1000 H 0.03314 0.21175 0.62949 0.0
H1001 H 0.13485 0.25015 0.66773 0.0
H1002 H 0.07935 0.20358 0.65889 0.0
H1003 H 0.0985 0.31551 0.61991 0.0
H1004 H 0.46336 0.43652 0.42965 0.0
H1005 H 0.36113 0.39876 0.45842 0.0
H1006 H 0.42922 0.4918 0.55954 0.0
H1007 H 0.40686 0.3937 0.40745 0.0
C1008 C 0.04615 0.53948 0.07724 0.0
C1009 C 0.05078 0.51724 0.03201 0.0
H1010 H 1.01632 0.5607 0.10144 0.0
C1011 C 0.02794 0.49993 0.97283 0.0
H1012 H 0.06289 0.55303 0.12405 0.0
C1013 C 1.00124 0.50443 0.95983 0.0
C1014 C 0.99636 0.52632 1.00571 0.0
H1015 H 0.03089 0.48313 0.93564 0.0
H1016 H 0.98437 0.49073 0.91334 0.0
C1017 C 0.01942 0.54401 0.06417 0.0
C1018 C 0.49779 0.48061 0.06572 0.0
C1019 C 0.51658 0.47605 0.00897 0.0
H1020 H 0.48661 0.51388 0.12323 0.0
C1021 C 0.53897 0.50327 0.9651 0.0
H1022 H 0.48073 0.46046 0.10164 0.0
C1023 C 0.54236 0.53405 0.97741 0.0
C1024 C 0.52346 0.53858 0.03396 0.0
H1025 H 0.55359 0.50071 0.92012 0.0
H1026 H 0.55934 0.55417 0.9413 0.0
C1027 C 0.50123 0.51138 0.07816 0.0
C1028 C 0.53996 0.04241 0.02429 0.0
C1029 C 0.55028 0.01945 0.01678 0.0
H1030 H 0.49996 0.05138 0.0246 0.0
C1031 C 0.52637 0.98678 1.00165 0.0
H1032 H 0.5574 0.06763 0.03725 0.0
C1033 C 0.49327 0.97736 0.99455 0.0
C1034 C 0.48296 1.00032 1.00201 0.0
H1035 H 0.53328 0.96839 0.99425 0.0
H1036 H 0.47583 0.95215 0.98156 0.0
C1037 C 0.50686 0.03299 0.0172 0.0
C1038 C 0.4866 0.98732 0.49872 0.0
C1039 C 0.49639 0.02026 0.51286 0.0
H1040 H 0.50107 0.95169 0.47985 0.0
C1041 C 0.52995 0.04267 0.51963 0.0
H1042 H 0.46102 0.96935 0.49194 0.0
C1043 C 0.55297 0.03245 0.51296 0.0
C1044 C 0.54317 0.99951 0.49893 0.0
H1045 H 0.53847 0.06808 0.5318 0.0
H1046 H 0.57853 0.05042 0.51987 0.0
C1047 C 0.50961 0.9771 0.492 0.0
C1048 C 1.01801 0.53648 0.4737 0.0
C1049 C 0.0416 0.54137 0.53023 0.0
H1050 H 0.97354 0.50264 0.41609 0.0
C1051 C 0.03705 0.51425 0.5739 0.0
H1052 H 0.02082 0.55652 0.43796 0.0
C1053 C 1.00996 0.48321 0.56104 0.0
C1054 C 0.98644 0.47832 0.50439 0.0
H1055 H 0.0543 0.517 0.61891 0.0
H1056 H 1.00717 0.46314 0.5966 0.0
C1057 C 0.99086 0.50545 0.46098 0.0
C1058 C 0.49621 0.52678 0.51003 0.0
C1059 C 0.48618 0.49341 0.51152 0.0
H1060 H 0.53594 0.576 0.51651 0.0
C1061 C 0.51032 0.48475 0.52377 0.0
H1062 H 0.47866 0.53459 0.49967 0.0
C1063 C 0.54332 0.50856 0.53289 0.0
C1064 C 0.55339 0.54191 0.53076 0.0
H1065 H 0.50373 0.45941 0.527 0.0
H1066 H 0.56091 0.50075 0.54293 0.0
C1067 C 0.52925 0.55062 0.51948 0.0
C1068 C 1.00172 0.32239 0.27715 0.0
C1069 C 0.98667 0.289 0.29485 0.0
H1070 H 0.04213 0.36394 0.22635 0.0
C1071 C 1.00268 0.27202 0.27306 0.0
H1072 H 0.9905 0.33659 0.29302 0.0
C1073 C 0.03288 0.28804 0.23469 0.0
C1074 C 0.04794 0.32149 0.21785 0.0
H1075 H 0.99222 0.24651 0.28634 0.0
H1076 H 0.04408 0.27406 0.21733 0.0
C1077 C 0.03173 0.3383 0.23907 0.0
C1078 C 0.69607 0.70448 0.25467 0.0
C1079 C 0.71304 0.73069 0.20328 0.0
H1080 H 0.69736 0.66981 0.33081 0.0
C1081 C 0.74587 0.74085 0.18672 0.0
H1082 H 0.67073 0.69563 0.26838 0.0
C1083 C 0.76116 0.72499 0.22084 0.0
C1084 C 0.74443 0.69941 0.27452 0.0
H1085 H 0.75946 0.76042 0.14566 0.0
H1086 H 0.78577 0.73245 0.20376 0.0
C1087 C 0.7115 0.68936 0.29018 0.0
C1088 C 0.29676 0.02758 0.28253 0.0
C1089 C 0.32973 0.04206 0.30413 0.0
H1090 H 0.25668 0.98887 0.2226 0.0
C1091 C 0.34701 0.02625 0.28299 0.0
H1092 H 0.28241 0.03849 0.29876 0.0
C1093 C 0.3318 0.99697 0.24129 0.0
C1094 C 0.29879 0.98251 0.21946 0.0
H1095 H 0.3724 0.03632 0.29886 0.0
H1096 H 0.3461 0.98574 0.22631 0.0
C1097 C 0.28168 0.9985 0.2399 0.0
C1098 C 0.03205 0.70597 0.74861 0.0
C1099 C 0.04232 0.73351 0.70123 0.0
H1100 H 0.99527 0.67023 0.82139 0.0
C1101 C 0.02044 0.74489 0.68801 0.0
H1102 H 0.04781 0.69604 0.75937 0.0
C1103 C 0.98916 0.72907 0.72191 0.0
C1104 C 0.97937 0.70223 0.77201 0.0
H1105 H 0.02714 0.76547 0.64983 0.0
H1106 H 0.97272 0.73768 0.70766 0.0
C1107 C 1.00139 0.69085 0.78388 0.0
C1108 C 0.2861 0.29021 0.71196 0.0
C1109 C 0.30049 0.32423 0.71505 0.0
H1110 H 0.28867 0.2485 0.74586 0.0
C1111 C 0.33013 0.34231 0.7553 0.0
H1112 H 0.26406 0.27562 0.67858 0.0
C1113 C 0.34434 0.32659 0.79406 0.0
C1114 C 0.32944 0.29239 0.79289 0.0
H1115 H 0.34224 0.3686 0.75779 0.0
H1116 H 0.36685 0.34136 0.82577 0.0
C1117 C 0.30038 0.27455 0.75037 0.0
C1118 C 0.70263 0.02106 0.79141 0.0
C1119 C 0.73682 0.03932 0.79882 0.0
H1120 H 0.66124 0.97837 0.74644 0.0
C1121 C 0.7554 0.02722 0.76384 0.0
H1122 H 0.68728 0.02946 0.81703 0.0
C1123 C 0.74033 0.9976 0.72346 0.0
C1124 C 0.70618 0.97907 0.71757 0.0
H1125 H 0.78158 0.0406 0.76676 0.0
H1126 H 0.75557 0.98967 0.6955 0.0
C1127 C 0.68756 0.99147 0.75106 0.0
C1128 C 0.21121 0.40935 0.7748 0.0
C1129 C 0.22749 0.3915 0.77889 0.0
H1130 H 0.17986 0.42318 0.83395 0.0
C1131 C 0.22654 0.37577 0.84884 0.0
H1132 H 0.21147 0.42155 0.7212 0.0
C1133 C 0.20917 0.3771 0.91289 0.0
C1134 C 0.19146 0.39351 0.9086 0.0
H1135 H 0.23899 0.36196 0.85383 0.0
H1136 H 0.20894 0.36428 0.9651 0.0
C1137 C 0.19298 0.41005 0.83903 0.0
C1138 C 0.64835 0.83942 0.92316 0.0
C1139 C 0.63588 0.80563 0.91861 0.0
H1140 H 0.66161 0.88354 0.86106 0.0
C1141 C 0.62296 0.78985 0.84673 0.0
H1142 H 0.65752 0.85233 0.97769 0.0
C1143 C 0.62403 0.80772 0.78036 0.0
C1144 C 0.63871 0.84172 0.78433 0.0
H1145 H 0.61283 0.76381 0.84108 0.0
H1146 H 0.61499 0.7952 0.72515 0.0
C1147 C 0.6504 0.85732 0.85649 0.0
C1148 C 0.2331 0.83533 0.84538 0.0
C1149 C 0.21742 0.83329 0.91684 0.0
H1150 H 0.22747 0.82113 0.72422 0.0
C1151 C 0.18339 0.81253 0.92102 0.0
H1152 H 0.25927 0.85079 0.83997 0.0
C1153 C 0.16528 0.79644 0.85447 0.0
C1154 C 0.18081 0.79949 0.78272 0.0
H1155 H 0.17043 0.80951 0.9751 0.0
H1156 H 0.13896 0.78193 0.85882 0.0
C1157 C 0.21497 0.81828 0.77912 0.0
C1158 C 0.3854 0.205 0.60473 0.0
C1159 C 0.40132 0.18684 0.60972 0.0
H1160 H 0.36951 0.23416 0.66417 0.0
C1161 C 0.41653 0.18712 0.68069 0.0
H1162 H 0.37419 0.2062 0.55083 0.0
C1163 C 0.41472 0.20431 0.74582 0.0
C1164 C 0.39714 0.22085 0.74111 0.0
H1165 H 0.42933 0.17369 0.68626 0.0
H1166 H 0.42574 0.20345 0.80051 0.0
C1167 C 0.38296 0.22135 0.66966 0.0
C1168 C 0.84474 0.22827 0.67682 0.0
C1169 C 0.84161 0.21261 0.60464 0.0
H1170 H 0.83081 0.22275 0.79807 0.0
C1171 C 0.81925 0.17903 0.59913 0.0
H1172 H 0.86148 0.25414 0.68316 0.0
C1173 C 0.80241 0.16116 0.66501 0.0
C1174 C 0.8065 0.17657 0.73746 0.0
H1175 H 0.81529 0.16623 0.54438 0.0
H1176 H 0.78656 0.13505 0.65967 0.0
C1177 C 0.82706 0.21042 0.74253 0.0
C1178 C 0.8267 0.64114 0.74441 0.0
C1179 C 0.85566 0.63988 0.73936 0.0
H1180 H 0.78791 0.6426 0.68244 0.0
C1181 C 0.86762 0.63895 0.66495 0.0
H1182 H 0.81635 0.64084 0.80099 0.0
C1183 C 0.85148 0.64001 0.59716 0.0
C1184 C 0.82233 0.64108 0.60182 0.0
H1185 H 0.88951 0.63729 0.65919 0.0
H1186 H 0.86161 0.63949 0.54087 0.0
C1187 C 0.81015 0.64163 0.67648 0.0
C1188 C 0.85578 0.64338 0.1753 0.0
C1189 C 0.84295 0.64304 0.1009 0.0
H1190 H 0.84863 0.64148 0.29974 0.0
C1191 C 0.81257 0.6416 0.09659 0.0
H1192 H 0.87913 0.6446 0.18094 0.0
C1193 C 0.79523 0.63987 0.16463 0.0
C1194 C 0.80817 0.64042 0.23877 0.0
H1195 H 0.80186 0.64121 0.04044 0.0
H1196 H 0.77149 0.63782 0.15928 0.0
C1197 C 0.8386 0.64214 0.2434 0.0
C1198 C 0.40733 0.20943 0.24168 0.0
C1199 C 0.39497 0.17575 0.23609 0.0
H1200 H 0.41425 0.25259 0.18414 0.0
C1201 C 0.38283 0.16019 0.16418 0.0
H1202 H 0.41634 0.22183 0.29703 0.0
C1203 C 0.38219 0.17772 0.09936 0.0
C1204 C 0.39252 0.21108 0.10556 0.0
H1205 H 0.37298 0.13416 0.15869 0.0
H1206 H 0.37244 0.16471 0.04519 0.0
C1207 C 0.40584 0.22691 0.17717 0.0
C1208 C 0.84771 0.20982 0.09869 0.0
C1209 C 0.81402 0.18758 0.10347 0.0
H1210 H 0.89168 0.24217 0.16019 0.0
C1211 C 0.79815 0.18462 0.1752 0.0
H1212 H 0.86072 0.21352 0.04437 0.0
C1213 C 0.81594 0.20211 0.24139 0.0
C1214 C 0.84991 0.22247 0.23712 0.0
H1215 H 0.77219 0.16796 0.18096 0.0
H1216 H 0.80348 0.19824 0.29676 0.0
C1217 C 0.86547 0.2266 0.1649 0.0
C1218 C 0.62546 0.81556 0.27928 0.0
C1219 C 0.64109 0.79712 0.28313 0.0
H1220 H 0.61317 0.8476 0.33992 0.0
C1221 C 0.65374 0.79437 0.35489 0.0
H1222 H 0.61566 0.81814 0.22434 0.0
C1223 C 0.65153 0.81033 0.42129 0.0
C1224 C 0.63788 0.83065 0.41695 0.0
H1225 H 0.66568 0.78006 0.35944 0.0
H1226 H 0.66133 0.80732 0.47554 0.0
C1227 C 0.62419 0.83249 0.3454 0.0
C1228 C 0.21585 0.84203 0.42149 0.0
C1229 C 0.19421 0.80829 0.41632 0.0
H1230 H 0.24713 0.88632 0.36022 0.0
C1231 C 0.19108 0.79274 0.344 0.0
H1232 H 0.21989 0.85473 0.47641 0.0
C1233 C 0.20797 0.81082 0.27784 0.0
C1234 C 0.22766 0.84479 0.28252 0.0
H1235 H 0.17494 0.76674 0.33792 0.0
H1236 H 0.20433 0.79849 0.22232 0.0
C1237 C 0.2318 0.86014 0.35508 0.0
C1238 C 0.21511 0.40587 0.28293 0.0
C1239 C 0.18111 0.39184 0.289 0.0
H1240 H 0.25943 0.41534 0.34002 0.0
C1241 C 0.16626 0.38027 0.36176 0.0
H1242 H 0.22704 0.41451 0.22702 0.0
C1243 C 0.18473 0.38143 0.42664 0.0
C1244 C 0.21839 0.39293 0.41977 0.0
H1245 H 0.14006 0.36926 0.3678 0.0
H1246 H 0.17216 0.37177 0.48131 0.0
C1247 C 0.23357 0.40609 0.34757 0.0
C1248 C 0.27893 0.26745 0.16103 0.0
C1249 C 0.27656 0.2934 0.12868 0.0
H1250 H 0.30025 0.23685 0.15183 0.0
C1251 C 0.29468 0.30889 0.06163 0.0
H1252 H 0.26512 0.25518 0.21276 0.0
C1253 C 0.31527 0.29913 0.02827 0.0
C1254 C 0.31769 0.27313 0.0601 0.0
H1255 H 0.29337 0.32903 0.03582 0.0
H1256 H 0.32911 0.31182 0.97685 0.0
C1257 C 0.29894 0.25701 0.12622 0.0
C1258 C 0.77536 0.05206 0.1253 0.0
C1259 C 0.75727 0.05124 0.05959 0.0
H1260 H 0.79126 0.02617 0.19809 0.0
C1261 C 0.73808 0.02143 0.02095 0.0
H1262 H 0.78953 0.07444 0.15771 0.0
C1263 C 0.73898 0.99358 0.04401 0.0
C1264 C 0.75888 0.99493 0.10666 0.0
H1265 H 0.72373 0.01999 0.97033 0.0
H1266 H 0.72539 0.97146 0.01018 0.0
C1267 C 0.77624 0.02431 0.14849 0.0
C1268 C 0.97252 0.73981 0.10477 0.0
C1269 C 0.97375 0.72159 0.04162 0.0
H1270 H 0.99878 0.78135 0.17831 0.0
C1271 C 1.004 0.73049 1.00746 0.0
H1272 H 0.94954 0.73317 0.1329 0.0
C1273 C 0.0323 0.75835 0.03309 0.0
C1274 C 0.03083 0.77762 0.09371 0.0
H1275 H 1.00554 0.71697 0.95822 0.0
H1276 H 0.05499 0.76561 1.00283 0.0
C1277 C 1.00073 0.76746 0.13062 0.0
C1278 C 0.30756 0.28482 0.44859 0.0
C1279 C 0.2805 0.2579 0.41269 0.0
H1280 H 0.32635 0.33166 0.50398 0.0
C1281 C 0.25231 0.26021 0.40093 0.0
H1282 H 0.33022 0.28509 0.45805 0.0
C1283 C 0.25126 0.28779 0.42252 0.0
C1284 C 0.27708 0.31356 0.46204 0.0
H1285 H 0.23013 0.24073 0.37635 0.0
H1286 H 0.22977 0.28868 0.40765 0.0
C1287 C 0.30565 0.31207 0.47407 0.0
C1288 C 0.72388 0.99572 0.49672 0.0
C1289 C 0.71378 0.96607 0.45795 0.0
H1290 H 0.76074 0.04589 0.50824 0.0
C1291 C 0.73128 0.96573 0.39227 0.0
H1292 H 0.71073 0.99679 0.54725 0.0
C1293 C 0.75976 0.99385 0.36937 0.0
C1294 C 0.77138 0.02306 0.41165 0.0
H1295 H 0.72342 0.94344 0.35978 0.0
H1296 H 0.77317 0.99239 0.31986 0.0
C1297 C 0.75252 0.02392 0.4741 0.0
C1298 C 0.03899 0.77595 0.34283 0.0
C1299 C 1.0083 0.7578 0.37869 0.0
H1300 H 0.08949 0.7897 0.34422 0.0
C1301 C 1.00506 0.73748 0.44192 0.0
H1302 H 0.04224 0.79136 0.29312 0.0
C1303 C 0.03215 0.73658 0.471 0.0
C1304 C 0.0631 0.75624 0.43805 0.0
H1305 H 0.9819 0.72343 0.47151 0.0
H1306 H 0.02912 0.7218 0.52187 0.0
C1307 C 0.06606 0.77508 0.37214 0.0
C1308 C 0.73036 0.77272 0.87129 0.0
C1309 C 0.71465 0.7537 0.93717 0.0
H1310 H 0.77045 0.78952 0.79186 0.0
C1311 C 0.72604 0.73408 0.96924 0.0
H1312 H 0.72148 0.78736 0.84413 0.0
C1313 C 0.75405 0.73525 0.93942 0.0
C1314 C 0.77102 0.75583 0.87641 0.0
H1315 H 0.71443 0.71921 0.02013 0.0
H1316 H 0.76331 0.72128 0.96843 0.0
C1317 C 0.75832 0.77387 0.8413 0.0
C1318 C 0.29677 0.02743 0.97102 0.0
C1319 C 0.27563 0.02569 0.9111 0.0
H1320 H 0.31267 1.00114 0.04324 0.0
C1321 C 0.25711 0.99603 0.87118 0.0
H1322 H 0.31126 0.04987 1.00315 0.0
C1323 C 0.25808 0.96833 0.89383 0.0
C1324 C 0.27718 0.96944 0.95762 0.0
H1325 H 0.24093 0.99389 0.82399 0.0
H1326 H 0.24299 0.94572 0.86302 0.0
C1327 C 0.29756 0.99952 0.99405 0.0
C1328 C 0.02933 0.30256 0.99768 0.0
C1329 C 0.05865 0.31388 0.95631 0.0
H1330 H 0.97982 0.26429 0.01193 0.0
C1331 C 0.05894 0.29681 0.88967 0.0
H1332 H 0.02831 0.31529 0.04911 0.0
C1333 C 0.03124 0.26757 0.86838 0.0
C1334 C 1.00248 0.25499 0.91281 0.0
H1335 H 0.08089 0.30564 0.85515 0.0
H1336 H 0.03259 0.25441 0.81813 0.0
C1337 C 1.00153 0.27334 0.97628 0.0
C1338 C 0.7456 0.75339 0.53489 0.0
C1339 C 0.76663 0.77288 0.59514 0.0
H1340 H 0.73071 0.7119 0.46033 0.0
C1341 C 0.78652 0.76274 0.63209 0.0
H1342 H 0.73017 0.76057 0.50457 0.0
C1343 C 0.78693 0.73508 0.60638 0.0
C1344 C 0.76736 0.71677 0.5433 0.0
H1345 H 0.80253 0.77671 0.67954 0.0
H1346 H 0.80342 0.72862 0.63425 0.0
C1347 C 0.74586 0.72548 0.50946 0.0
C1348 C 0.28072 0.0251 0.65738 0.0
C1349 C 0.26691 0.99687 0.61073 0.0
H1350 H 0.31964 0.07429 0.67195 0.0
C1351 C 0.28419 0.99633 0.54448 0.0
H1352 H 0.26846 0.02623 0.70956 0.0
C1353 C 0.31333 0.02415 0.52244 0.0
C1354 C 0.3256 0.05311 0.56586 0.0
H1355 H 0.27431 0.97501 0.50723 0.0
H1356 H 0.3252 0.02345 0.46912 0.0
C1357 C 0.30991 0.05275 0.63557 0.0
C1358 C 0.99425 0.25699 0.4974 0.0
C1359 C 0.97813 0.26758 0.54771 0.0
H1360 H 0.03351 0.24744 0.48242 0.0
C1361 C 0.99133 0.27948 0.622 0.0
H1362 H 0.98482 0.24785 0.43999 0.0
C1363 C 0.01987 0.27988 0.64604 0.0
C1364 C 0.03509 0.26798 0.59625 0.0
H1365 H 0.97922 0.28773 0.6618 0.0
H1366 H 0.02943 0.28846 0.70405 0.0
C1367 C 0.02223 0.25686 0.52158 0.0
loop_
_geom_bond_atom_site_label_1
_geom_bond_atom_site_label_2
_geom_bond_distance
_geom_bond_site_symmetry_2
_ccdc_geom_bond_type
Eu0 N29 2.600 . S
Eu0 N35 2.562 . S
Eu0 O44 2.462 . S
Eu0 O45 2.373 . S
Eu0 O47 2.432 . S
Eu0 O48 2.291 . S
Eu0 O52 2.335 . S
Eu0 O55 2.372 1_554 S
Eu0 C64 2.787 . S
C1 N2 1.365 . S
C1 C4 1.405 . S
C1 C8 1.448 . S
N2 C1 1.365 . S
N2 C5 1.319 . S
N2 Eu11 2.600 . S
C3 C5 1.397 . S
C3 C6 1.367 . S
C3 H23 0.931 . S
C4 C1 1.405 . S
C4 C6 1.403 . S
C4 C10 1.439 . S
C5 N2 1.319 . S
C5 C3 1.397 . S
C5 H16 0.930 . S
C6 C3 1.367 . S
C6 C4 1.403 . S
C6 H27 0.929 1_455 S
C7 C8 1.430 1_556 S
C7 C9 1.387 . S
C7 C13 1.404 . S
C8 C1 1.448 . S
C8 C7 1.430 1_554 S
C8 N12 1.351 . S
C9 C7 1.387 . S
C9 C10 1.374 1_556 S
C9 H24 0.931 . S
C10 C4 1.439 . S
C10 C9 1.374 1_554 S
C10 H25 0.931 1_455 S
Eu11 N2 2.600 . S
Eu11 N12 2.562 . S
Eu11 O46 2.335 . S
Eu11 O49 2.372 . S
Eu11 O50 2.462 . S
Eu11 O51 2.373 . S
Eu11 O53 2.432 . S
Eu11 O54 2.291 . S
Eu11 C75 2.787 . S
N12 C8 1.351 . S
N12 Eu11 2.562 . S
N12 C14 1.325 1_554 S
C13 C7 1.404 . S
C13 C15 1.366 . S
C13 H21 0.930 . S
C14 N12 1.325 1_556 S
C14 C15 1.416 . S
C14 H20 0.929 . S
C15 C13 1.366 . S
C15 C14 1.416 . S
C15 H17 0.930 . S
H16 C5 0.930 . S
H17 C15 0.930 . S
H18 C33 0.930 . S
H19 C40 0.930 . S
H20 C14 0.929 . S
H21 C13 0.930 . S
H22 C36 0.929 . S
H23 C3 0.931 . S
H24 C9 0.931 . S
H25 C10 0.931 1_655 S
H26 C31 0.931 . S
H27 C6 0.929 1_655 S
H28 C39 0.930 . S
N29 Eu0 2.600 . S
N29 C30 1.365 . S
N29 C33 1.319 1_554 S
C30 N29 1.365 . S
C30 C32 1.405 . S
C30 C38 1.448 . S
C31 H26 0.931 . S
C31 C33 1.397 . S
C31 C34 1.367 1_556 S
C32 C30 1.405 . S
C32 C34 1.403 . S
C32 C65 1.439 . S
C33 H18 0.930 . S
C33 N29 1.319 1_556 S
C33 C31 1.397 . S
C34 C31 1.367 1_554 S
C34 C32 1.403 . S
C34 H41 0.929 . S
N35 Eu0 2.562 . S
N35 C36 1.325 . S
N35 C38 1.351 . S
C36 H22 0.929 . S
C36 N35 1.325 . S
C36 C40 1.416 . S
C37 C38 1.430 . S
C37 C39 1.404 . S
C37 C66 1.387 . S
C38 C30 1.448 . S
C38 N35 1.351 . S
C38 C37 1.430 . S
C39 H28 0.930 . S
C39 C37 1.404 . S
C39 C40 1.366 . S
C40 H19 0.930 . S
C40 C36 1.416 . S
C40 C39 1.366 . S
H41 C34 0.929 . S
H42 C65 0.931 . S
H43 C66 0.931 . S
O44 Eu0 2.462 . S
O44 C64 1.252 . S
O45 Eu0 2.373 . S
O45 C56 1.249 . S
O46 Eu11 2.335 . S
O46 C56 1.264 . S
O47 Eu0 2.432 . S
O47 C64 1.268 . S
O48 Eu0 2.291 . S
O48 C63 1.255 . S
O49 Eu11 2.372 . S
O49 C63 1.257 . S
O50 Eu11 2.462 . S
O50 C75 1.252 . S
O51 Eu11 2.373 . S
O51 C67 1.249 . S
O52 Eu0 2.335 . S
O52 C67 1.264 . S
O53 Eu11 2.432 . S
O53 C75 1.268 . S
O54 Eu11 2.291 . S
O54 C74 1.255 1_554 S
O55 Eu0 2.372 1_556 S
O55 C74 1.257 . S
C56 O45 1.249 . S
C56 O46 1.264 . S
C57 C60 1.382 1_554 S
C57 C62 1.390 . S
C57 C64 1.506 . S
C58 C59 1.398 . S
C58 C62 1.392 . S
C59 C58 1.398 . S
C59 C61 1.372 1_554 S
C59 H76 0.931 1_554 S
C60 C57 1.382 1_556 S
C60 C61 1.390 . S
C60 H77 0.931 . S
C61 C59 1.372 1_556 S
C61 C60 1.390 . S
C61 H78 0.929 . S
C62 C57 1.390 . S
C62 C58 1.392 . S
C62 H79 0.930 . S
C63 O48 1.255 . S
C63 O49 1.257 . S
C64 Eu0 2.787 . S
C64 O44 1.252 . S
C64 O47 1.268 . S
C64 C57 1.506 . S
C65 C32 1.439 . S
C65 H42 0.931 . S
C65 C66 1.374 . S
C66 C37 1.387 . S
C66 H43 0.931 . S
C66 C65 1.374 . S
C67 O51 1.249 . S
C67 O52 1.264 . S
C68 C71 1.382 . S
C68 C72 1.390 . S
C68 C75 1.506 . S
C69 C70 1.398 . S
C69 C72 1.392 . S
C70 C69 1.398 . S
C70 C73 1.372 . S
C70 H80 0.931 . S
C71 C68 1.382 . S
C71 C73 1.390 . S
C71 H81 0.931 . S
C72 C68 1.390 . S
C72 C69 1.392 . S
C72 H82 0.930 . S
C73 C70 1.372 . S
C73 C71 1.390 . S
C73 H83 0.929 . S
C74 O54 1.255 1_556 S
C74 O55 1.257 . S
C75 Eu11 2.787 . S
C75 O50 1.252 . S
C75 O53 1.268 . S
C75 C68 1.506 . S
H76 C59 0.931 1_556 S
H77 C60 0.931 . S
H78 C61 0.929 . S
H79 C62 0.930 . S
H80 C70 0.931 . S
H81 C71 0.931 . S
H82 C72 0.930 . S
H83 C73 0.929 . S
Eu84 N113 2.600 . S
Eu84 N119 2.562 . S
Eu84 O128 2.462 . S
Eu84 O129 2.373 . S
Eu84 O131 2.432 . S
Eu84 O132 2.291 . S
Eu84 O136 2.335 . S
Eu84 O139 2.372 1_554 S
Eu84 C148 2.787 . S
C85 N86 1.365 . S
C85 C88 1.405 . S
C85 C92 1.448 . S
N86 C85 1.365 . S
N86 C89 1.319 . S
N86 Eu95 2.600 . S
C87 C89 1.397 . S
C87 C90 1.367 . S
C87 H107 0.931 . S
C88 C85 1.405 . S
C88 C90 1.403 . S
C88 C94 1.439 . S
C89 N86 1.319 . S
C89 C87 1.397 . S
C89 H100 0.930 . S
C90 C87 1.367 . S
C90 C88 1.403 . S
C90 H111 0.929 . S
C91 C92 1.430 1_556 S
C91 C93 1.387 . S
C91 C97 1.404 . S
C92 C85 1.448 . S
C92 C91 1.430 1_554 S
C92 N96 1.351 . S
C93 C91 1.387 . S
C93 C94 1.374 1_556 S
C93 H108 0.931 . S
C94 C88 1.439 . S
C94 C93 1.374 1_554 S
C94 H109 0.931 . S
Eu95 N86 2.600 . S
Eu95 N96 2.562 . S
Eu95 O130 2.335 . S
Eu95 O133 2.372 . S
Eu95 O134 2.462 . S
Eu95 O135 2.373 . S
Eu95 O137 2.432 . S
Eu95 O138 2.291 . S
Eu95 C159 2.787 . S
N96 C92 1.351 . S
N96 Eu95 2.562 . S
N96 C98 1.325 1_554 S
C97 C91 1.404 . S
C97 C99 1.366 . S
C97 H105 0.930 . S
C98 N96 1.325 1_556 S
C98 C99 1.416 . S
C98 H104 0.929 . S
C99 C97 1.366 . S
C99 C98 1.416 . S
C99 H101 0.930 . S
H100 C89 0.930 . S
H101 C99 0.930 . S
H102 C117 0.930 . S
H103 C124 0.930 . S
H104 C98 0.929 . S
H105 C97 0.930 . S
H106 C120 0.929 . S
H107 C87 0.931 . S
H108 C93 0.931 . S
H109 C94 0.931 . S
H110 C115 0.931 . S
H111 C90 0.929 . S
H112 C123 0.930 . S
N113 Eu84 2.600 . S
N113 C114 1.365 . S
N113 C117 1.319 1_554 S
C114 N113 1.365 . S
C114 C116 1.405 . S
C114 C122 1.448 . S
C115 H110 0.931 . S
C115 C117 1.397 . S
C115 C118 1.367 1_556 S
C116 C114 1.405 . S
C116 C118 1.403 . S
C116 C149 1.439 . S
C117 H102 0.930 . S
C117 N113 1.319 1_556 S
C117 C115 1.397 . S
C118 C115 1.367 1_554 S
C118 C116 1.403 . S
C118 H125 0.929 . S
N119 Eu84 2.562 . S
N119 C120 1.325 . S
N119 C122 1.351 . S
C120 H106 0.929 . S
C120 N119 1.325 . S
C120 C124 1.416 . S
C121 C122 1.430 . S
C121 C123 1.404 . S
C121 C150 1.387 . S
C122 C114 1.448 . S
C122 N119 1.351 . S
C122 C121 1.430 . S
C123 H112 0.930 . S
C123 C121 1.404 . S
C123 C124 1.366 . S
C124 H103 0.930 . S
C124 C120 1.416 . S
C124 C123 1.366 . S
H125 C118 0.929 . S
H126 C149 0.931 . S
H127 C150 0.931 . S
O128 Eu84 2.462 . S
O128 C148 1.252 . S
O129 Eu84 2.373 . S
O129 C140 1.249 . S
O130 Eu95 2.335 . S
O130 C140 1.264 . S
O131 Eu84 2.432 . S
O131 C148 1.268 . S
O132 Eu84 2.291 . S
O132 C147 1.255 . S
O133 Eu95 2.372 . S
O133 C147 1.257 . S
O134 Eu95 2.462 . S
O134 C159 1.252 . S
O135 Eu95 2.373 . S
O135 C151 1.249 . S
O136 Eu84 2.335 . S
O136 C151 1.264 . S
O137 Eu95 2.432 . S
O137 C159 1.268 . S
O138 Eu95 2.291 . S
O138 C158 1.255 1_554 S
O139 Eu84 2.372 1_556 S
O139 C158 1.257 . S
C140 O129 1.249 . S
C140 O130 1.264 . S
C141 C144 1.382 1_554 S
C141 C146 1.390 . S
C141 C148 1.506 . S
C142 C143 1.398 . S
C142 C146 1.392 . S
C143 C142 1.398 . S
C143 C145 1.372 1_554 S
C143 H160 0.931 1_554 S
C144 C141 1.382 1_556 S
C144 C145 1.390 . S
C144 H161 0.931 . S
C145 C143 1.372 1_556 S
C145 C144 1.390 . S
C145 H162 0.929 . S
C146 C141 1.390 . S
C146 C142 1.392 . S
C146 H163 0.930 . S
C147 O132 1.255 . S
C147 O133 1.257 . S
C148 Eu84 2.787 . S
C148 O128 1.252 . S
C148 O131 1.268 . S
C148 C141 1.506 . S
C149 C116 1.439 . S
C149 H126 0.931 . S
C149 C150 1.374 . S
C150 C121 1.387 . S
C150 H127 0.931 . S
C150 C149 1.374 . S
C151 O135 1.249 . S
C151 O136 1.264 . S
C152 C155 1.382 . S
C152 C156 1.390 . S
C152 C159 1.506 . S
C153 C154 1.398 . S
C153 C156 1.392 . S
C154 C153 1.398 . S
C154 C157 1.372 . S
C154 H164 0.931 . S
C155 C152 1.382 . S
C155 C157 1.390 . S
C155 H165 0.931 . S
C156 C152 1.390 . S
C156 C153 1.392 . S
C156 H166 0.930 . S
C157 C154 1.372 . S
C157 C155 1.390 . S
C157 H167 0.929 . S
C158 O138 1.255 1_556 S
C158 O139 1.257 . S
C159 Eu95 2.787 . S
C159 O134 1.252 . S
C159 O137 1.268 . S
C159 C152 1.506 . S
H160 C143 0.931 1_556 S
H161 C144 0.931 . S
H162 C145 0.929 . S
H163 C146 0.930 . S
H164 C154 0.931 . S
H165 C155 0.931 . S
H166 C156 0.930 . S
H167 C157 0.929 . S
Eu168 N197 2.600 . S
Eu168 N203 2.562 . S
Eu168 O212 2.462 . S
Eu168 O213 2.373 . S
Eu168 O215 2.432 . S
Eu168 O216 2.291 . S
Eu168 O220 2.335 . S
Eu168 O223 2.372 1_554 S
Eu168 C232 2.787 . S
C169 N170 1.365 . S
C169 C172 1.405 . S
C169 C176 1.448 . S
N170 C169 1.365 . S
N170 C173 1.319 . S
N170 Eu179 2.600 . S
C171 C173 1.397 . S
C171 C174 1.367 . S
C171 H191 0.931 . S
C172 C169 1.405 . S
C172 C174 1.403 . S
C172 C178 1.439 . S
C173 N170 1.319 . S
C173 C171 1.397 . S
C173 H184 0.930 . S
C174 C171 1.367 . S
C174 C172 1.403 . S
C174 H195 0.929 1_565 S
C175 C176 1.430 1_556 S
C175 C177 1.387 . S
C175 C181 1.404 . S
C176 C169 1.448 . S
C176 C175 1.430 1_554 S
C176 N180 1.351 . S
C177 C175 1.387 . S
C177 C178 1.374 1_556 S
C177 H192 0.931 . S
C178 C172 1.439 . S
C178 C177 1.374 1_554 S
C178 H193 0.931 1_565 S
Eu179 N170 2.600 . S
Eu179 N180 2.562 . S
Eu179 O214 2.335 . S
Eu179 O217 2.372 . S
Eu179 O218 2.462 . S
Eu179 O219 2.373 . S
Eu179 O221 2.432 . S
Eu179 O222 2.291 . S
Eu179 C243 2.787 . S
N180 C176 1.351 . S
N180 Eu179 2.562 . S
N180 C182 1.325 1_554 S
C181 C175 1.404 . S
C181 C183 1.366 . S
C181 H189 0.930 . S
C182 N180 1.325 1_556 S
C182 C183 1.416 . S
C182 H188 0.929 . S
C183 C181 1.366 . S
C183 C182 1.416 . S
C183 H185 0.930 . S
H184 C173 0.930 . S
H185 C183 0.930 . S
H186 C201 0.930 . S
H187 C208 0.930 . S
H188 C182 0.929 . S
H189 C181 0.930 . S
H190 C204 0.929 . S
H191 C171 0.931 . S
H192 C177 0.931 . S
H193 C178 0.931 1_545 S
H194 C199 0.931 . S
H195 C174 0.929 1_545 S
H196 C207 0.930 . S
N197 Eu168 2.600 . S
N197 C198 1.365 . S
N197 C201 1.319 1_554 S
C198 N197 1.365 . S
C198 C200 1.405 . S
C198 C206 1.448 . S
C199 H194 0.931 . S
C199 C201 1.397 . S
C199 C202 1.367 1_556 S
C200 C198 1.405 . S
C200 C202 1.403 . S
C200 C233 1.439 . S
C201 H186 0.930 . S
C201 N197 1.319 1_556 S
C201 C199 1.397 . S
C202 C199 1.367 1_554 S
C202 C200 1.403 . S
C202 H209 0.929 . S
N203 Eu168 2.562 . S
N203 C204 1.325 . S
N203 C206 1.351 . S
C204 H190 0.929 . S
C204 N203 1.325 . S
C204 C208 1.416 . S
C205 C206 1.430 . S
C205 C207 1.404 . S
C205 C234 1.387 . S
C206 C198 1.448 . S
C206 N203 1.351 . S
C206 C205 1.430 . S
C207 H196 0.930 . S
C207 C205 1.404 . S
C207 C208 1.366 . S
C208 H187 0.930 . S
C208 C204 1.416 . S
C208 C207 1.366 . S
H209 C202 0.929 . S
H210 C233 0.931 . S
H211 C234 0.931 . S
O212 Eu168 2.462 . S
O212 C232 1.252 . S
O213 Eu168 2.373 . S
O213 C224 1.249 . S
O214 Eu179 2.335 . S
O214 C224 1.264 . S
O215 Eu168 2.432 . S
O215 C232 1.268 . S
O216 Eu168 2.291 . S
O216 C231 1.255 . S
O217 Eu179 2.372 . S
O217 C231 1.257 . S
O218 Eu179 2.462 . S
O218 C243 1.252 . S
O219 Eu179 2.373 . S
O219 C235 1.249 . S
O220 Eu168 2.335 . S
O220 C235 1.264 . S
O221 Eu179 2.432 . S
O221 C243 1.268 . S
O222 Eu179 2.291 . S
O222 C242 1.255 1_554 S
O223 Eu168 2.372 1_556 S
O223 C242 1.257 . S
C224 O213 1.249 . S
C224 O214 1.264 . S
C225 C228 1.382 1_554 S
C225 C230 1.390 . S
C225 C232 1.506 . S
C226 C227 1.398 . S
C226 C230 1.392 . S
C227 C226 1.398 . S
C227 C229 1.372 1_554 S
C227 H244 0.931 1_554 S
C228 C225 1.382 1_556 S
C228 C229 1.390 . S
C228 H245 0.931 . S
C229 C227 1.372 1_556 S
C229 C228 1.390 . S
C229 H246 0.929 . S
C230 C225 1.390 . S
C230 C226 1.392 . S
C230 H247 0.930 . S
C231 O216 1.255 . S
C231 O217 1.257 . S
C232 Eu168 2.787 . S
C232 O212 1.252 . S
C232 O215 1.268 . S
C232 C225 1.506 . S
C233 C200 1.439 . S
C233 H210 0.931 . S
C233 C234 1.374 . S
C234 C205 1.387 . S
C234 H211 0.931 . S
C234 C233 1.374 . S
C235 O219 1.249 . S
C235 O220 1.264 . S
C236 C239 1.382 . S
C236 C240 1.390 . S
C236 C243 1.506 . S
C237 C238 1.398 . S
C237 C240 1.392 . S
C238 C237 1.398 . S
C238 C241 1.372 . S
C238 H248 0.931 . S
C239 C236 1.382 . S
C239 C241 1.390 . S
C239 H249 0.931 . S
C240 C236 1.390 . S
C240 C237 1.392 . S
C240 H250 0.930 . S
C241 C238 1.372 . S
C241 C239 1.390 . S
C241 H251 0.929 . S
C242 O222 1.255 1_556 S
C242 O223 1.257 . S
C243 Eu179 2.787 . S
C243 O218 1.252 . S
C243 O221 1.268 . S
C243 C236 1.506 . S
H244 C227 0.931 1_556 S
H245 C228 0.931 . S
H246 C229 0.929 . S
H247 C230 0.930 . S
H248 C238 0.931 . S
H249 C239 0.931 . S
H250 C240 0.930 . S
H251 C241 0.929 . S
Eu252 N281 2.600 . S
Eu252 N287 2.562 . S
Eu252 O296 2.462 . S
Eu252 O297 2.373 . S
Eu252 O299 2.432 . S
Eu252 O300 2.291 . S
Eu252 O304 2.335 . S
Eu252 O307 2.372 . S
Eu252 C316 2.787 . S
C253 N254 1.365 . S
C253 C256 1.405 . S
C253 C260 1.448 . S
N254 C253 1.365 . S
N254 C257 1.319 . S
N254 Eu263 2.600 . S
C255 C257 1.397 . S
C255 C258 1.367 . S
C255 H275 0.931 . S
C256 C253 1.405 . S
C256 C258 1.403 . S
C256 C262 1.439 . S
C257 N254 1.319 . S
C257 C255 1.397 . S
C257 H268 0.930 . S
C258 C255 1.367 . S
C258 C256 1.403 . S
C258 H279 0.929 1_545 S
C259 C260 1.430 . S
C259 C261 1.387 . S
C259 C265 1.404 . S
C260 C253 1.448 . S
C260 C259 1.430 . S
C260 N264 1.351 . S
C261 C259 1.387 . S
C261 C262 1.374 . S
C261 H276 0.931 . S
C262 C256 1.439 . S
C262 C261 1.374 . S
C262 H277 0.931 1_545 S
Eu263 N254 2.600 . S
Eu263 N264 2.562 . S
Eu263 O298 2.335 . S
Eu263 O301 2.372 . S
Eu263 O302 2.462 . S
Eu263 O303 2.373 . S
Eu263 O305 2.432 . S
Eu263 O306 2.291 . S
Eu263 C327 2.787 . S
N264 C260 1.351 . S
N264 Eu263 2.562 . S
N264 C266 1.325 . S
C265 C259 1.404 . S
C265 C267 1.366 . S
C265 H273 0.930 . S
C266 N264 1.325 . S
C266 C267 1.416 . S
C266 H272 0.929 . S
C267 C265 1.366 . S
C267 C266 1.416 . S
C267 H269 0.930 . S
H268 C257 0.930 . S
H269 C267 0.930 . S
H270 C285 0.930 . S
H271 C292 0.930 . S
H272 C266 0.929 . S
H273 C265 0.930 . S
H274 C288 0.929 . S
H275 C255 0.931 . S
H276 C261 0.931 . S
H277 C262 0.931 1_565 S
H278 C283 0.931 . S
H279 C258 0.929 1_565 S
H280 C291 0.930 . S
N281 Eu252 2.600 . S
N281 C282 1.365 . S
N281 C285 1.319 . S
C282 N281 1.365 . S
C282 C284 1.405 . S
C282 C290 1.448 . S
C283 H278 0.931 . S
C283 C285 1.397 . S
C283 C286 1.367 . S
C284 C282 1.405 . S
C284 C286 1.403 . S
C284 C317 1.439 . S
C285 H270 0.930 . S
C285 N281 1.319 . S
C285 C283 1.397 . S
C286 C283 1.367 . S
C286 C284 1.403 . S
C286 H293 0.929 . S
N287 Eu252 2.562 . S
N287 C288 1.325 . S
N287 C290 1.351 . S
C288 H274 0.929 . S
C288 N287 1.325 . S
C288 C292 1.416 . S
C289 C290 1.430 . S
C289 C291 1.404 . S
C289 C318 1.387 . S
C290 C282 1.448 . S
C290 N287 1.351 . S
C290 C289 1.430 . S
C291 H280 0.930 . S
C291 C289 1.404 . S
C291 C292 1.366 . S
C292 H271 0.930 . S
C292 C288 1.416 . S
C292 C291 1.366 . S
H293 C286 0.929 . S
H294 C317 0.931 . S
H295 C318 0.931 . S
O296 Eu252 2.462 . S
O296 C316 1.252 . S
O297 Eu252 2.373 . S
O297 C308 1.249 . S
O298 Eu263 2.335 . S
O298 C308 1.264 . S
O299 Eu252 2.432 . S
O299 C316 1.268 . S
O300 Eu252 2.291 . S
O300 C315 1.255 . S
O301 Eu263 2.372 . S
O301 C315 1.257 . S
O302 Eu263 2.462 . S
O302 C327 1.252 . S
O303 Eu263 2.373 . S
O303 C319 1.249 . S
O304 Eu252 2.335 . S
O304 C319 1.264 . S
O305 Eu263 2.432 . S
O305 C327 1.268 . S
O306 Eu263 2.291 . S
O306 C326 1.255 . S
O307 Eu252 2.372 . S
O307 C326 1.257 . S
C308 O297 1.249 . S
C308 O298 1.264 . S
C309 C312 1.382 . S
C309 C314 1.390 . S
C309 C316 1.506 . S
C310 C311 1.398 . S
C310 C314 1.392 . S
C311 C310 1.398 . S
C311 C313 1.372 . S
C311 H328 0.931 . S
C312 C309 1.382 . S
C312 C313 1.390 . S
C312 H329 0.931 . S
C313 C311 1.372 . S
C313 C312 1.390 . S
C313 H330 0.929 . S
C314 C309 1.390 . S
C314 C310 1.392 . S
C314 H331 0.930 . S
C315 O300 1.255 . S
C315 O301 1.257 . S
C316 Eu252 2.787 . S
C316 O296 1.252 . S
C316 O299 1.268 . S
C316 C309 1.506 . S
C317 C284 1.439 . S
C317 H294 0.931 . S
C317 C318 1.374 . S
C318 C289 1.387 . S
C318 H295 0.931 . S
C318 C317 1.374 . S
C319 O303 1.249 . S
C319 O304 1.264 . S
C320 C323 1.382 . S
C320 C324 1.390 . S
C320 C327 1.506 . S
C321 C322 1.398 . S
C321 C324 1.392 . S
C322 C321 1.398 . S
C322 C325 1.372 . S
C322 H332 0.931 . S
C323 C320 1.382 . S
C323 C325 1.390 . S
C323 H333 0.931 . S
C324 C320 1.390 . S
C324 C321 1.392 . S
C324 H334 0.930 . S
C325 C322 1.372 . S
C325 C323 1.390 . S
C325 H335 0.929 . S
C326 O306 1.255 . S
C326 O307 1.257 . S
C327 Eu263 2.787 . S
C327 O302 1.252 . S
C327 O305 1.268 . S
C327 C320 1.506 . S
H328 C311 0.931 . S
H329 C312 0.931 . S
H330 C313 0.929 . S
H331 C314 0.930 . S
H332 C322 0.931 . S
H333 C323 0.931 . S
H334 C324 0.930 . S
H335 C325 0.929 . S
Eu336 N365 2.600 . S
Eu336 N371 2.562 . S
Eu336 O380 2.462 . S
Eu336 O381 2.373 . S
Eu336 O383 2.432 . S
Eu336 O384 2.291 . S
Eu336 O388 2.335 . S
Eu336 O391 2.372 . S
Eu336 C400 2.787 . S
C337 N338 1.365 . S
C337 C340 1.405 . S
C337 C344 1.448 . S
N338 C337 1.365 . S
N338 C341 1.319 . S
N338 Eu347 2.600 . S
C339 C341 1.397 . S
C339 C342 1.367 . S
C339 H359 0.931 . S
C340 C337 1.405 . S
C340 C342 1.403 . S
C340 C346 1.439 . S
C341 N338 1.319 . S
C341 C339 1.397 . S
C341 H352 0.930 . S
C342 C339 1.367 . S
C342 C340 1.403 . S
C342 H363 0.929 1_655 S
C343 C344 1.430 . S
C343 C345 1.387 . S
C343 C349 1.404 . S
C344 C337 1.448 . S
C344 C343 1.430 . S
C344 N348 1.351 . S
C345 C343 1.387 . S
C345 C346 1.374 . S
C345 H360 0.931 . S
C346 C340 1.439 . S
C346 C345 1.374 . S
C346 H361 0.931 1_655 S
Eu347 N338 2.600 . S
Eu347 N348 2.562 . S
Eu347 O382 2.335 . S
Eu347 O385 2.372 . S
Eu347 O386 2.462 . S
Eu347 O387 2.373 . S
Eu347 O389 2.432 . S
Eu347 O390 2.291 . S
Eu347 C411 2.787 . S
N348 C344 1.351 . S
N348 Eu347 2.562 . S
N348 C350 1.325 . S
C349 C343 1.404 . S
C349 C351 1.366 . S
C349 H357 0.930 . S
C350 N348 1.325 . S
C350 C351 1.416 . S
C350 H356 0.929 . S
C351 C349 1.366 . S
C351 C350 1.416 . S
C351 H353 0.930 . S
H352 C341 0.930 . S
H353 C351 0.930 . S
H354 C369 0.930 . S
H355 C376 0.930 . S
H356 C350 0.929 . S
H357 C349 0.930 . S
H358 C372 0.929 . S
H359 C339 0.931 . S
H360 C345 0.931 . S
H361 C346 0.931 1_455 S
H362 C367 0.931 . S
H363 C342 0.929 1_455 S
H364 C375 0.930 . S
N365 Eu336 2.600 . S
N365 C366 1.365 . S
N365 C369 1.319 . S
C366 N365 1.365 . S
C366 C368 1.405 . S
C366 C374 1.448 . S
C367 H362 0.931 . S
C367 C369 1.397 . S
C367 C370 1.367 . S
C368 C366 1.405 . S
C368 C370 1.403 . S
C368 C401 1.439 . S
C369 H354 0.930 . S
C369 N365 1.319 . S
C369 C367 1.397 . S
C370 C367 1.367 . S
C370 C368 1.403 . S
C370 H377 0.929 . S
N371 Eu336 2.562 . S
N371 C372 1.325 . S
N371 C374 1.351 . S
C372 H358 0.929 . S
C372 N371 1.325 . S
C372 C376 1.416 . S
C373 C374 1.430 . S
C373 C375 1.404 . S
C373 C402 1.387 . S
C374 C366 1.448 . S
C374 N371 1.351 . S
C374 C373 1.430 . S
C375 H364 0.930 . S
C375 C373 1.404 . S
C375 C376 1.366 . S
C376 H355 0.930 . S
C376 C372 1.416 . S
C376 C375 1.366 . S
H377 C370 0.929 . S
H378 C401 0.931 . S
H379 C402 0.931 . S
O380 Eu336 2.462 . S
O380 C400 1.252 . S
O381 Eu336 2.373 . S
O381 C392 1.249 . S
O382 Eu347 2.335 . S
O382 C392 1.264 . S
O383 Eu336 2.432 . S
O383 C400 1.268 . S
O384 Eu336 2.291 . S
O384 C399 1.255 . S
O385 Eu347 2.372 . S
O385 C399 1.257 . S
O386 Eu347 2.462 . S
O386 C411 1.252 . S
O387 Eu347 2.373 . S
O387 C403 1.249 . S
O388 Eu336 2.335 . S
O388 C403 1.264 . S
O389 Eu347 2.432 . S
O389 C411 1.268 . S
O390 Eu347 2.291 . S
O390 C410 1.255 . S
O391 Eu336 2.372 . S
O391 C410 1.257 . S
C392 O381 1.249 . S
C392 O382 1.264 . S
C393 C396 1.382 . S
C393 C398 1.390 . S
C393 C400 1.506 . S
C394 C395 1.398 . S
C394 C398 1.392 . S
C395 C394 1.398 . S
C395 C397 1.372 . S
C395 H412 0.931 . S
C396 C393 1.382 . S
C396 C397 1.390 . S
C396 H413 0.931 . S
C397 C395 1.372 . S
C397 C396 1.390 . S
C397 H414 0.929 . S
C398 C393 1.390 . S
C398 C394 1.392 . S
C398 H415 0.930 . S
C399 O384 1.255 . S
C399 O385 1.257 . S
C400 Eu336 2.787 . S
C400 O380 1.252 . S
C400 O383 1.268 . S
C400 C393 1.506 . S
C401 C368 1.439 . S
C401 H378 0.931 . S
C401 C402 1.374 . S
C402 C373 1.387 . S
C402 H379 0.931 . S
C402 C401 1.374 . S
C403 O387 1.249 . S
C403 O388 1.264 . S
C404 C407 1.382 . S
C404 C408 1.390 . S
C404 C411 1.506 . S
C405 C406 1.398 . S
C405 C408 1.392 . S
C406 C405 1.398 . S
C406 C409 1.372 . S
C406 H416 0.931 . S
C407 C404 1.382 . S
C407 C409 1.390 . S
C407 H417 0.931 . S
C408 C404 1.390 . S
C408 C405 1.392 . S
C408 H418 0.930 . S
C409 C406 1.372 . S
C409 C407 1.390 . S
C409 H419 0.929 . S
C410 O390 1.255 . S
C410 O391 1.257 . S
C411 Eu347 2.787 . S
C411 O386 1.252 . S
C411 O389 1.268 . S
C411 C404 1.506 . S
H412 C395 0.931 . S
H413 C396 0.931 . S
H414 C397 0.929 . S
H415 C398 0.930 . S
H416 C406 0.931 . S
H417 C407 0.931 . S
H418 C408 0.930 . S
H419 C409 0.929 . S
Eu420 N449 2.600 . S
Eu420 N455 2.562 . S
Eu420 O464 2.462 . S
Eu420 O465 2.373 . S
Eu420 O467 2.432 . S
Eu420 O468 2.291 . S
Eu420 O472 2.335 . S
Eu420 O475 2.372 . S
Eu420 C484 2.787 . S
C421 N422 1.365 . S
C421 C424 1.405 . S
C421 C428 1.448 . S
N422 C421 1.365 . S
N422 C425 1.319 . S
N422 Eu431 2.600 . S
C423 C425 1.397 . S
C423 C426 1.367 . S
C423 H443 0.931 . S
C424 C421 1.405 . S
C424 C426 1.403 . S
C424 C430 1.439 . S
C425 N422 1.319 . S
C425 C423 1.397 . S
C425 H436 0.930 . S
C426 C423 1.367 . S
C426 C424 1.403 . S
C426 H447 0.929 . S
C427 C428 1.430 . S
C427 C429 1.387 . S
C427 C433 1.404 . S
C428 C421 1.448 . S
C428 C427 1.430 . S
C428 N432 1.351 . S
C429 C427 1.387 . S
C429 C430 1.374 . S
C429 H444 0.931 . S
C430 C424 1.439 . S
C430 C429 1.374 . S
C430 H445 0.931 . S
Eu431 N422 2.600 . S
Eu431 N432 2.562 . S
Eu431 O466 2.335 . S
Eu431 O469 2.372 . S
Eu431 O470 2.462 . S
Eu431 O471 2.373 . S
Eu431 O473 2.432 . S
Eu431 O474 2.291 . S
Eu431 C495 2.787 . S
N432 C428 1.351 . S
N432 Eu431 2.562 . S
N432 C434 1.325 . S
C433 C427 1.404 . S
C433 C435 1.366 . S
C433 H441 0.930 . S
C434 N432 1.325 . S
C434 C435 1.416 . S
C434 H440 0.929 . S
C435 C433 1.366 . S
C435 C434 1.416 . S
C435 H437 0.930 . S
H436 C425 0.930 . S
H437 C435 0.930 . S
H438 C453 0.930 . S
H439 C460 0.930 . S
H440 C434 0.929 . S
H441 C433 0.930 . S
H442 C456 0.929 . S
H443 C423 0.931 . S
H444 C429 0.931 . S
H445 C430 0.931 . S
H446 C451 0.931 . S
H447 C426 0.929 . S
H448 C459 0.930 . S
N449 Eu420 2.600 . S
N449 C450 1.365 . S
N449 C453 1.319 . S
C450 N449 1.365 . S
C450 C452 1.405 . S
C450 C458 1.448 . S
C451 H446 0.931 . S
C451 C453 1.397 . S
C451 C454 1.367 . S
C452 C450 1.405 . S
C452 C454 1.403 . S
C452 C485 1.439 . S
C453 H438 0.930 . S
C453 N449 1.319 . S
C453 C451 1.397 . S
C454 C451 1.367 . S
C454 C452 1.403 . S
C454 H461 0.929 . S
N455 Eu420 2.562 . S
N455 C456 1.325 . S
N455 C458 1.351 . S
C456 H442 0.929 . S
C456 N455 1.325 . S
C456 C460 1.416 . S
C457 C458 1.430 . S
C457 C459 1.404 . S
C457 C486 1.387 . S
C458 C450 1.448 . S
C458 N455 1.351 . S
C458 C457 1.430 . S
C459 H448 0.930 . S
C459 C457 1.404 . S
C459 C460 1.366 . S
C460 H439 0.930 . S
C460 C456 1.416 . S
C460 C459 1.366 . S
H461 C454 0.929 . S
H462 C485 0.931 . S
H463 C486 0.931 . S
O464 Eu420 2.462 . S
O464 C484 1.252 . S
O465 Eu420 2.373 . S
O465 C476 1.249 . S
O466 Eu431 2.335 . S
O466 C476 1.264 . S
O467 Eu420 2.432 . S
O467 C484 1.268 . S
O468 Eu420 2.291 . S
O468 C483 1.255 . S
O469 Eu431 2.372 . S
O469 C483 1.257 . S
O470 Eu431 2.462 . S
O470 C495 1.252 . S
O471 Eu431 2.373 . S
O471 C487 1.249 . S
O472 Eu420 2.335 . S
O472 C487 1.264 . S
O473 Eu431 2.432 . S
O473 C495 1.268 . S
O474 Eu431 2.291 . S
O474 C494 1.255 . S
O475 Eu420 2.372 . S
O475 C494 1.257 . S
C476 O465 1.249 . S
C476 O466 1.264 . S
C477 C480 1.382 . S
C477 C482 1.390 . S
C477 C484 1.506 . S
C478 C479 1.398 . S
C478 C482 1.392 . S
C479 C478 1.398 . S
C479 C481 1.372 . S
C479 H496 0.931 . S
C480 C477 1.382 . S
C480 C481 1.390 . S
C480 H497 0.931 . S
C481 C479 1.372 . S
C481 C480 1.390 . S
C481 H498 0.929 . S
C482 C477 1.390 . S
C482 C478 1.392 . S
C482 H499 0.930 . S
C483 O468 1.255 . S
C483 O469 1.257 . S
C484 Eu420 2.787 . S
C484 O464 1.252 . S
C484 O467 1.268 . S
C484 C477 1.506 . S
C485 C452 1.439 . S
C485 H462 0.931 . S
C485 C486 1.374 . S
C486 C457 1.387 . S
C486 H463 0.931 . S
C486 C485 1.374 . S
C487 O471 1.249 . S
C487 O472 1.264 . S
C488 C491 1.382 . S
C488 C492 1.390 . S
C488 C495 1.506 . S
C489 C490 1.398 . S
C489 C492 1.392 . S
C490 C489 1.398 . S
C490 C493 1.372 . S
C490 H500 0.931 . S
C491 C488 1.382 . S
C491 C493 1.390 . S
C491 H501 0.931 . S
C492 C488 1.390 . S
C492 C489 1.392 . S
C492 H502 0.930 . S
C493 C490 1.372 . S
C493 C491 1.390 . S
C493 H503 0.929 . S
C494 O474 1.255 . S
C494 O475 1.257 . S
C495 Eu431 2.787 . S
C495 O470 1.252 . S
C495 O473 1.268 . S
C495 C488 1.506 . S
H496 C479 0.931 . S
H497 C480 0.931 . S
H498 C481 0.929 . S
H499 C482 0.930 . S
H500 C490 0.931 . S
H501 C491 0.931 . S
H502 C492 0.930 . S
H503 C493 0.929 . S
Eu504 N533 2.600 . S
Eu504 N539 2.562 . S
Eu504 O548 2.462 . S
Eu504 O549 2.373 . S
Eu504 O551 2.432 . S
Eu504 O552 2.291 . S
Eu504 O556 2.335 . S
Eu504 O559 2.372 . S
Eu504 C568 2.787 . S
C505 N506 1.365 . S
C505 C508 1.405 . S
C505 C512 1.448 . S
N506 C505 1.365 . S
N506 C509 1.319 1_556 S
N506 Eu515 2.600 . S
C507 C509 1.397 . S
C507 C510 1.367 1_554 S
C507 H527 0.931 . S
C508 C505 1.405 . S
C508 C510 1.403 . S
C508 C514 1.439 . S
C509 N506 1.319 1_554 S
C509 C507 1.397 . S
C509 H520 0.930 . S
C510 C507 1.367 1_556 S
C510 C508 1.403 . S
C510 H531 0.929 . S
C511 C512 1.430 . S
C511 C513 1.387 . S
C511 C517 1.404 . S
C512 C505 1.448 . S
C512 C511 1.430 . S
C512 N516 1.351 . S
C513 C511 1.387 . S
C513 C514 1.374 . S
C513 H528 0.931 . S
C514 C508 1.439 . S
C514 C513 1.374 . S
C514 H529 0.931 . S
Eu515 N506 2.600 . S
Eu515 N516 2.562 . S
Eu515 O550 2.335 . S
Eu515 O553 2.372 1_556 S
Eu515 O554 2.462 . S
Eu515 O555 2.373 . S
Eu515 O557 2.432 . S
Eu515 O558 2.291 . S
Eu515 C579 2.787 . S
N516 C512 1.351 . S
N516 Eu515 2.562 . S
N516 C518 1.325 . S
C517 C511 1.404 . S
C517 C519 1.366 . S
C517 H525 0.930 . S
C518 N516 1.325 . S
C518 C519 1.416 . S
C518 H524 0.929 . S
C519 C517 1.366 . S
C519 C518 1.416 . S
C519 H521 0.930 . S
H520 C509 0.930 . S
H521 C519 0.930 . S
H522 C537 0.930 . S
H523 C544 0.930 . S
H524 C518 0.929 . S
H525 C517 0.930 . S
H526 C540 0.929 . S
H527 C507 0.931 . S
H528 C513 0.931 . S
H529 C514 0.931 . S
H530 C535 0.931 . S
H531 C510 0.929 . S
H532 C543 0.930 . S
N533 Eu504 2.600 . S
N533 C534 1.365 . S
N533 C537 1.319 . S
C534 N533 1.365 . S
C534 C536 1.405 . S
C534 C542 1.448 . S
C535 H530 0.931 . S
C535 C537 1.397 . S
C535 C538 1.367 . S
C536 C534 1.405 . S
C536 C538 1.403 . S
C536 C569 1.439 . S
C537 H522 0.930 . S
C537 N533 1.319 . S
C537 C535 1.397 . S
C538 C535 1.367 . S
C538 C536 1.403 . S
C538 H545 0.929 1_655 S
N539 Eu504 2.562 . S
N539 C540 1.325 1_556 S
N539 C542 1.351 . S
C540 H526 0.929 . S
C540 N539 1.325 1_554 S
C540 C544 1.416 . S
C541 C542 1.430 1_554 S
C541 C543 1.404 . S
C541 C570 1.387 . S
C542 C534 1.448 . S
C542 N539 1.351 . S
C542 C541 1.430 1_556 S
C543 H532 0.930 . S
C543 C541 1.404 . S
C543 C544 1.366 . S
C544 H523 0.930 . S
C544 C540 1.416 . S
C544 C543 1.366 . S
H545 C538 0.929 1_455 S
H546 C569 0.931 1_455 S
H547 C570 0.931 . S
O548 Eu504 2.462 . S
O548 C568 1.252 . S
O549 Eu504 2.373 . S
O549 C560 1.249 . S
O550 Eu515 2.335 . S
O550 C560 1.264 . S
O551 Eu504 2.432 . S
O551 C568 1.268 . S
O552 Eu504 2.291 . S
O552 C567 1.255 1_556 S
O553 Eu515 2.372 1_554 S
O553 C567 1.257 . S
O554 Eu515 2.462 . S
O554 C579 1.252 . S
O555 Eu515 2.373 . S
O555 C571 1.249 . S
O556 Eu504 2.335 . S
O556 C571 1.264 . S
O557 Eu515 2.432 . S
O557 C579 1.268 . S
O558 Eu515 2.291 . S
O558 C578 1.255 . S
O559 Eu504 2.372 . S
O559 C578 1.257 . S
C560 O549 1.249 . S
C560 O550 1.264 . S
C561 C564 1.382 . S
C561 C566 1.390 . S
C561 C568 1.506 . S
C562 C563 1.398 . S
C562 C566 1.392 . S
C563 C562 1.398 . S
C563 C565 1.372 . S
C563 H580 0.931 . S
C564 C561 1.382 . S
C564 C565 1.390 . S
C564 H581 0.931 . S
C565 C563 1.372 . S
C565 C564 1.390 . S
C565 H582 0.929 . S
C566 C561 1.390 . S
C566 C562 1.392 . S
C566 H583 0.930 . S
C567 O552 1.255 1_554 S
C567 O553 1.257 . S
C568 Eu504 2.787 . S
C568 O548 1.252 . S
C568 O551 1.268 . S
C568 C561 1.506 . S
C569 C536 1.439 . S
C569 H546 0.931 1_655 S
C569 C570 1.374 1_556 S
C570 C541 1.387 . S
C570 H547 0.931 . S
C570 C569 1.374 1_554 S
C571 O555 1.249 . S
C571 O556 1.264 . S
C572 C575 1.382 1_556 S
C572 C576 1.390 . S
C572 C579 1.506 . S
C573 C574 1.398 . S
C573 C576 1.392 . S
C574 C573 1.398 . S
C574 C577 1.372 1_556 S
C574 H584 0.931 1_556 S
C575 C572 1.382 1_554 S
C575 C577 1.390 . S
C575 H585 0.931 . S
C576 C572 1.390 . S
C576 C573 1.392 . S
C576 H586 0.930 . S
C577 C574 1.372 1_554 S
C577 C575 1.390 . S
C577 H587 0.929 . S
C578 O558 1.255 . S
C578 O559 1.257 . S
C579 Eu515 2.787 . S
C579 O554 1.252 . S
C579 O557 1.268 . S
C579 C572 1.506 . S
H580 C563 0.931 . S
H581 C564 0.931 . S
H582 C565 0.929 . S
H583 C566 0.930 . S
H584 C574 0.931 1_554 S
H585 C575 0.931 . S
H586 C576 0.930 . S
H587 C577 0.929 . S
Eu588 N617 2.600 . S
Eu588 N623 2.562 . S
Eu588 O632 2.462 . S
Eu588 O633 2.373 . S
Eu588 O635 2.432 . S
Eu588 O636 2.291 . S
Eu588 O640 2.335 . S
Eu588 O643 2.372 . S
Eu588 C652 2.787 . S
C589 N590 1.365 . S
C589 C592 1.405 . S
C589 C596 1.448 . S
N590 C589 1.365 . S
N590 C593 1.319 1_556 S
N590 Eu599 2.600 . S
C591 C593 1.397 . S
C591 C594 1.367 1_554 S
C591 H611 0.931 . S
C592 C589 1.405 . S
C592 C594 1.403 . S
C592 C598 1.439 . S
C593 N590 1.319 1_554 S
C593 C591 1.397 . S
C593 H604 0.930 . S
C594 C591 1.367 1_556 S
C594 C592 1.403 . S
C594 H615 0.929 . S
C595 C596 1.430 . S
C595 C597 1.387 . S
C595 C601 1.404 . S
C596 C589 1.448 . S
C596 C595 1.430 . S
C596 N600 1.351 . S
C597 C595 1.387 . S
C597 C598 1.374 . S
C597 H612 0.931 . S
C598 C592 1.439 . S
C598 C597 1.374 . S
C598 H613 0.931 . S
Eu599 N590 2.600 . S
Eu599 N600 2.562 . S
Eu599 O634 2.335 . S
Eu599 O637 2.372 1_556 S
Eu599 O638 2.462 . S
Eu599 O639 2.373 . S
Eu599 O641 2.432 . S
Eu599 O642 2.291 . S
Eu599 C663 2.787 . S
N600 C596 1.351 . S
N600 Eu599 2.562 . S
N600 C602 1.325 . S
C601 C595 1.404 . S
C601 C603 1.366 . S
C601 H609 0.930 . S
C602 N600 1.325 . S
C602 C603 1.416 . S
C602 H608 0.929 . S
C603 C601 1.366 . S
C603 C602 1.416 . S
C603 H605 0.930 . S
H604 C593 0.930 . S
H605 C603 0.930 . S
H606 C621 0.930 . S
H607 C628 0.930 . S
H608 C602 0.929 . S
H609 C601 0.930 . S
H610 C624 0.929 . S
H611 C591 0.931 . S
H612 C597 0.931 . S
H613 C598 0.931 . S
H614 C619 0.931 . S
H615 C594 0.929 . S
H616 C627 0.930 . S
N617 Eu588 2.600 . S
N617 C618 1.365 . S
N617 C621 1.319 . S
C618 N617 1.365 . S
C618 C620 1.405 . S
C618 C626 1.448 . S
C619 H614 0.931 . S
C619 C621 1.397 . S
C619 C622 1.367 . S
C620 C618 1.405 . S
C620 C622 1.403 . S
C620 C653 1.439 . S
C621 H606 0.930 . S
C621 N617 1.319 . S
C621 C619 1.397 . S
C622 C619 1.367 . S
C622 C620 1.403 . S
C622 H629 0.929 . S
N623 Eu588 2.562 . S
N623 C624 1.325 1_556 S
N623 C626 1.351 . S
C624 H610 0.929 . S
C624 N623 1.325 1_554 S
C624 C628 1.416 . S
C625 C626 1.430 1_554 S
C625 C627 1.404 . S
C625 C654 1.387 . S
C626 C618 1.448 . S
C626 N623 1.351 . S
C626 C625 1.430 1_556 S
C627 H616 0.930 . S
C627 C625 1.404 . S
C627 C628 1.366 . S
C628 H607 0.930 . S
C628 C624 1.416 . S
C628 C627 1.366 . S
H629 C622 0.929 . S
H630 C653 0.931 . S
H631 C654 0.931 . S
O632 Eu588 2.462 . S
O632 C652 1.252 . S
O633 Eu588 2.373 . S
O633 C644 1.249 . S
O634 Eu599 2.335 . S
O634 C644 1.264 . S
O635 Eu588 2.432 . S
O635 C652 1.268 . S
O636 Eu588 2.291 . S
O636 C651 1.255 1_556 S
O637 Eu599 2.372 1_554 S
O637 C651 1.257 . S
O638 Eu599 2.462 . S
O638 C663 1.252 . S
O639 Eu599 2.373 . S
O639 C655 1.249 . S
O640 Eu588 2.335 . S
O640 C655 1.264 . S
O641 Eu599 2.432 . S
O641 C663 1.268 . S
O642 Eu599 2.291 . S
O642 C662 1.255 . S
O643 Eu588 2.372 . S
O643 C662 1.257 . S
C644 O633 1.249 . S
C644 O634 1.264 . S
C645 C648 1.382 . S
C645 C650 1.390 . S
C645 C652 1.506 . S
C646 C647 1.398 . S
C646 C650 1.392 . S
C647 C646 1.398 . S
C647 C649 1.372 . S
C647 H664 0.931 . S
C648 C645 1.382 . S
C648 C649 1.390 . S
C648 H665 0.931 . S
C649 C647 1.372 . S
C649 C648 1.390 . S
C649 H666 0.929 . S
C650 C645 1.390 . S
C650 C646 1.392 . S
C650 H667 0.930 . S
C651 O636 1.255 1_554 S
C651 O637 1.257 . S
C652 Eu588 2.787 . S
C652 O632 1.252 . S
C652 O635 1.268 . S
C652 C645 1.506 . S
C653 C620 1.439 . S
C653 H630 0.931 . S
C653 C654 1.374 1_556 S
C654 C625 1.387 . S
C654 H631 0.931 . S
C654 C653 1.374 1_554 S
C655 O639 1.249 . S
C655 O640 1.264 . S
C656 C659 1.382 1_556 S
C656 C660 1.390 . S
C656 C663 1.506 . S
C657 C658 1.398 . S
C657 C660 1.392 . S
C658 C657 1.398 . S
C658 C661 1.372 1_556 S
C658 H668 0.931 1_556 S
C659 C656 1.382 1_554 S
C659 C661 1.390 . S
C659 H669 0.931 . S
C660 C656 1.390 . S
C660 C657 1.392 . S
C660 H670 0.930 . S
C661 C658 1.372 1_554 S
C661 C659 1.390 . S
C661 H671 0.929 . S
C662 O642 1.255 . S
C662 O643 1.257 . S
C663 Eu599 2.787 . S
C663 O638 1.252 . S
C663 O641 1.268 . S
C663 C656 1.506 . S
H664 C647 0.931 . S
H665 C648 0.931 . S
H666 C649 0.929 . S
H667 C650 0.930 . S
H668 C658 0.931 1_554 S
H669 C659 0.931 . S
H670 C660 0.930 . S
H671 C661 0.929 . S
Eu672 N701 2.600 . S
Eu672 N707 2.562 . S
Eu672 O716 2.462 . S
Eu672 O717 2.373 . S
Eu672 O719 2.432 . S
Eu672 O720 2.291 . S
Eu672 O724 2.335 . S
Eu672 O727 2.372 . S
Eu672 C736 2.787 . S
C673 N674 1.365 . S
C673 C676 1.405 . S
C673 C680 1.448 . S
N674 C673 1.365 . S
N674 C677 1.319 1_556 S
N674 Eu683 2.600 . S
C675 C677 1.397 . S
C675 C678 1.367 1_554 S
C675 H695 0.931 . S
C676 C673 1.405 . S
C676 C678 1.403 . S
C676 C682 1.439 . S
C677 N674 1.319 1_554 S
C677 C675 1.397 . S
C677 H688 0.930 . S
C678 C675 1.367 1_556 S
C678 C676 1.403 . S
C678 H699 0.929 . S
C679 C680 1.430 . S
C679 C681 1.387 . S
C679 C685 1.404 . S
C680 C673 1.448 . S
C680 C679 1.430 . S
C680 N684 1.351 . S
C681 C679 1.387 . S
C681 C682 1.374 . S
C681 H696 0.931 . S
C682 C676 1.439 . S
C682 C681 1.374 . S
C682 H697 0.931 . S
Eu683 N674 2.600 . S
Eu683 N684 2.562 . S
Eu683 O718 2.335 . S
Eu683 O721 2.372 1_556 S
Eu683 O722 2.462 . S
Eu683 O723 2.373 . S
Eu683 O725 2.432 . S
Eu683 O726 2.291 . S
Eu683 C747 2.787 . S
N684 C680 1.351 . S
N684 Eu683 2.562 . S
N684 C686 1.325 . S
C685 C679 1.404 . S
C685 C687 1.366 . S
C685 H693 0.930 . S
C686 N684 1.325 . S
C686 C687 1.416 . S
C686 H692 0.929 . S
C687 C685 1.366 . S
C687 C686 1.416 . S
C687 H689 0.930 . S
H688 C677 0.930 . S
H689 C687 0.930 . S
H690 C705 0.930 . S
H691 C712 0.930 . S
H692 C686 0.929 . S
H693 C685 0.930 . S
H694 C708 0.929 . S
H695 C675 0.931 . S
H696 C681 0.931 . S
H697 C682 0.931 . S
H698 C703 0.931 . S
H699 C678 0.929 . S
H700 C711 0.930 . S
N701 Eu672 2.600 . S
N701 C702 1.365 . S
N701 C705 1.319 . S
C702 N701 1.365 . S
C702 C704 1.405 . S
C702 C710 1.448 . S
C703 H698 0.931 . S
C703 C705 1.397 . S
C703 C706 1.367 . S
C704 C702 1.405 . S
C704 C706 1.403 . S
C704 C737 1.439 . S
C705 H690 0.930 . S
C705 N701 1.319 . S
C705 C703 1.397 . S
C706 C703 1.367 . S
C706 C704 1.403 . S
C706 H713 0.929 1_545 S
N707 Eu672 2.562 . S
N707 C708 1.325 1_556 S
N707 C710 1.351 . S
C708 H694 0.929 . S
C708 N707 1.325 1_554 S
C708 C712 1.416 . S
C709 C710 1.430 1_554 S
C709 C711 1.404 . S
C709 C738 1.387 . S
C710 C702 1.448 . S
C710 N707 1.351 . S
C710 C709 1.430 1_556 S
C711 H700 0.930 . S
C711 C709 1.404 . S
C711 C712 1.366 . S
C712 H691 0.930 . S
C712 C708 1.416 . S
C712 C711 1.366 . S
H713 C706 0.929 1_565 S
H714 C737 0.931 1_565 S
H715 C738 0.931 . S
O716 Eu672 2.462 . S
O716 C736 1.252 . S
O717 Eu672 2.373 . S
O717 C728 1.249 . S
O718 Eu683 2.335 . S
O718 C728 1.264 . S
O719 Eu672 2.432 . S
O719 C736 1.268 . S
O720 Eu672 2.291 . S
O720 C735 1.255 1_556 S
O721 Eu683 2.372 1_554 S
O721 C735 1.257 . S
O722 Eu683 2.462 . S
O722 C747 1.252 . S
O723 Eu683 2.373 . S
O723 C739 1.249 . S
O724 Eu672 2.335 . S
O724 C739 1.264 . S
O725 Eu683 2.432 . S
O725 C747 1.268 . S
O726 Eu683 2.291 . S
O726 C746 1.255 . S
O727 Eu672 2.372 . S
O727 C746 1.257 . S
C728 O717 1.249 . S
C728 O718 1.264 . S
C729 C732 1.382 . S
C729 C734 1.390 . S
C729 C736 1.506 . S
C730 C731 1.398 . S
C730 C734 1.392 . S
C731 C730 1.398 . S
C731 C733 1.372 . S
C731 H748 0.931 . S
C732 C729 1.382 . S
C732 C733 1.390 . S
C732 H749 0.931 . S
C733 C731 1.372 . S
C733 C732 1.390 . S
C733 H750 0.929 . S
C734 C729 1.390 . S
C734 C730 1.392 . S
C734 H751 0.930 . S
C735 O720 1.255 1_554 S
C735 O721 1.257 . S
C736 Eu672 2.787 . S
C736 O716 1.252 . S
C736 O719 1.268 . S
C736 C729 1.506 . S
C737 C704 1.439 . S
C737 H714 0.931 1_545 S
C737 C738 1.374 1_556 S
C738 C709 1.387 . S
C738 H715 0.931 . S
C738 C737 1.374 1_554 S
C739 O723 1.249 . S
C739 O724 1.264 . S
C740 C743 1.382 1_556 S
C740 C744 1.390 . S
C740 C747 1.506 . S
C741 C742 1.398 . S
C741 C744 1.392 . S
C742 C741 1.398 . S
C742 C745 1.372 1_556 S
C742 H752 0.931 1_556 S
C743 C740 1.382 1_554 S
C743 C745 1.390 . S
C743 H753 0.931 . S
C744 C740 1.390 . S
C744 C741 1.392 . S
C744 H754 0.930 . S
C745 C742 1.372 1_554 S
C745 C743 1.390 . S
C745 H755 0.929 . S
C746 O726 1.255 . S
C746 O727 1.257 . S
C747 Eu683 2.787 . S
C747 O722 1.252 . S
C747 O725 1.268 . S
C747 C740 1.506 . S
H748 C731 0.931 . S
H749 C732 0.931 . S
H750 C733 0.929 . S
H751 C734 0.930 . S
H752 C742 0.931 1_554 S
H753 C743 0.931 . S
H754 C744 0.930 . S
H755 C745 0.929 . S
Eu756 N785 2.600 . S
Eu756 N791 2.562 . S
Eu756 O800 2.462 . S
Eu756 O801 2.373 . S
Eu756 O803 2.432 . S
Eu756 O804 2.291 . S
Eu756 O808 2.335 . S
Eu756 O811 2.372 . S
Eu756 C820 2.787 . S
C757 N758 1.365 . S
C757 C760 1.405 . S
C757 C764 1.448 . S
N758 C757 1.365 . S
N758 C761 1.319 . S
N758 Eu767 2.600 . S
C759 C761 1.397 . S
C759 C762 1.367 . S
C759 H779 0.931 . S
C760 C757 1.405 . S
C760 C762 1.403 . S
C760 C766 1.439 . S
C761 N758 1.319 . S
C761 C759 1.397 . S
C761 H772 0.930 . S
C762 C759 1.367 . S
C762 C760 1.403 . S
C762 H783 0.929 . S
C763 C764 1.430 . S
C763 C765 1.387 . S
C763 C769 1.404 . S
C764 C757 1.448 . S
C764 C763 1.430 . S
C764 N768 1.351 . S
C765 C763 1.387 . S
C765 C766 1.374 . S
C765 H780 0.931 . S
C766 C760 1.439 . S
C766 C765 1.374 . S
C766 H781 0.931 . S
Eu767 N758 2.600 . S
Eu767 N768 2.562 . S
Eu767 O802 2.335 . S
Eu767 O805 2.372 . S
Eu767 O806 2.462 . S
Eu767 O807 2.373 . S
Eu767 O809 2.432 . S
Eu767 O810 2.291 . S
Eu767 C831 2.787 . S
N768 C764 1.351 . S
N768 Eu767 2.562 . S
N768 C770 1.325 . S
C769 C763 1.404 . S
C769 C771 1.366 . S
C769 H777 0.930 . S
C770 N768 1.325 . S
C770 C771 1.416 . S
C770 H776 0.929 . S
C771 C769 1.366 . S
C771 C770 1.416 . S
C771 H773 0.930 . S
H772 C761 0.930 . S
H773 C771 0.930 . S
H774 C789 0.930 . S
H775 C796 0.930 . S
H776 C770 0.929 . S
H777 C769 0.930 . S
H778 C792 0.929 . S
H779 C759 0.931 . S
H780 C765 0.931 . S
H781 C766 0.931 . S
H782 C787 0.931 . S
H783 C762 0.929 . S
H784 C795 0.930 . S
N785 Eu756 2.600 . S
N785 C786 1.365 . S
N785 C789 1.319 . S
C786 N785 1.365 . S
C786 C788 1.405 . S
C786 C794 1.448 . S
C787 H782 0.931 . S
C787 C789 1.397 . S
C787 C790 1.367 . S
C788 C786 1.405 . S
C788 C790 1.403 . S
C788 C821 1.439 . S
C789 H774 0.930 . S
C789 N785 1.319 . S
C789 C787 1.397 . S
C790 C787 1.367 . S
C790 C788 1.403 . S
C790 H797 0.929 1_565 S
N791 Eu756 2.562 . S
N791 C792 1.325 . S
N791 C794 1.351 . S
C792 H778 0.929 . S
C792 N791 1.325 . S
C792 C796 1.416 . S
C793 C794 1.430 . S
C793 C795 1.404 . S
C793 C822 1.387 . S
C794 C786 1.448 . S
C794 N791 1.351 . S
C794 C793 1.430 . S
C795 H784 0.930 . S
C795 C793 1.404 . S
C795 C796 1.366 . S
C796 H775 0.930 . S
C796 C792 1.416 . S
C796 C795 1.366 . S
H797 C790 0.929 1_545 S
H798 C821 0.931 1_545 S
H799 C822 0.931 . S
O800 Eu756 2.462 . S
O800 C820 1.252 . S
O801 Eu756 2.373 . S
O801 C812 1.249 . S
O802 Eu767 2.335 . S
O802 C812 1.264 . S
O803 Eu756 2.432 . S
O803 C820 1.268 . S
O804 Eu756 2.291 . S
O804 C819 1.255 . S
O805 Eu767 2.372 . S
O805 C819 1.257 . S
O806 Eu767 2.462 . S
O806 C831 1.252 . S
O807 Eu767 2.373 . S
O807 C823 1.249 . S
O808 Eu756 2.335 . S
O808 C823 1.264 . S
O809 Eu767 2.432 . S
O809 C831 1.268 . S
O810 Eu767 2.291 . S
O810 C830 1.255 . S
O811 Eu756 2.372 . S
O811 C830 1.257 . S
C812 O801 1.249 . S
C812 O802 1.264 . S
C813 C816 1.382 . S
C813 C818 1.390 . S
C813 C820 1.506 . S
C814 C815 1.398 . S
C814 C818 1.392 . S
C815 C814 1.398 . S
C815 C817 1.372 . S
C815 H832 0.931 . S
C816 C813 1.382 . S
C816 C817 1.390 . S
C816 H833 0.931 . S
C817 C815 1.372 . S
C817 C816 1.390 . S
C817 H834 0.929 . S
C818 C813 1.390 . S
C818 C814 1.392 . S
C818 H835 0.930 . S
C819 O804 1.255 . S
C819 O805 1.257 . S
C820 Eu756 2.787 . S
C820 O800 1.252 . S
C820 O803 1.268 . S
C820 C813 1.506 . S
C821 C788 1.439 . S
C821 H798 0.931 1_565 S
C821 C822 1.374 . S
C822 C793 1.387 . S
C822 H799 0.931 . S
C822 C821 1.374 . S
C823 O807 1.249 . S
C823 O808 1.264 . S
C824 C827 1.382 . S
C824 C828 1.390 . S
C824 C831 1.506 . S
C825 C826 1.398 . S
C825 C828 1.392 . S
C826 C825 1.398 . S
C826 C829 1.372 . S
C826 H836 0.931 . S
C827 C824 1.382 . S
C827 C829 1.390 . S
C827 H837 0.931 . S
C828 C824 1.390 . S
C828 C825 1.392 . S
C828 H838 0.930 . S
C829 C826 1.372 . S
C829 C827 1.390 . S
C829 H839 0.929 . S
C830 O810 1.255 . S
C830 O811 1.257 . S
C831 Eu767 2.787 . S
C831 O806 1.252 . S
C831 O809 1.268 . S
C831 C824 1.506 . S
H832 C815 0.931 . S
H833 C816 0.931 . S
H834 C817 0.929 . S
H835 C818 0.930 . S
H836 C826 0.931 . S
H837 C827 0.931 . S
H838 C828 0.930 . S
H839 C829 0.929 . S
Eu840 N869 2.600 . S
Eu840 N875 2.562 . S
Eu840 O884 2.462 . S
Eu840 O885 2.373 . S
Eu840 O887 2.432 . S
Eu840 O888 2.291 . S
Eu840 O892 2.335 . S
Eu840 O895 2.372 . S
Eu840 C904 2.787 . S
C841 N842 1.365 . S
C841 C844 1.405 . S
C841 C848 1.448 . S
N842 C841 1.365 . S
N842 C845 1.319 . S
N842 Eu851 2.600 . S
C843 C845 1.397 . S
C843 C846 1.367 . S
C843 H863 0.931 . S
C844 C841 1.405 . S
C844 C846 1.403 . S
C844 C850 1.439 . S
C845 N842 1.319 . S
C845 C843 1.397 . S
C845 H856 0.930 . S
C846 C843 1.367 . S
C846 C844 1.403 . S
C846 H867 0.929 . S
C847 C848 1.430 . S
C847 C849 1.387 . S
C847 C853 1.404 . S
C848 C841 1.448 . S
C848 C847 1.430 . S
C848 N852 1.351 . S
C849 C847 1.387 . S
C849 C850 1.374 . S
C849 H864 0.931 . S
C850 C844 1.439 . S
C850 C849 1.374 . S
C850 H865 0.931 . S
Eu851 N842 2.600 . S
Eu851 N852 2.562 . S
Eu851 O886 2.335 . S
Eu851 O889 2.372 . S
Eu851 O890 2.462 . S
Eu851 O891 2.373 . S
Eu851 O893 2.432 . S
Eu851 O894 2.291 . S
Eu851 C915 2.787 . S
N852 C848 1.351 . S
N852 Eu851 2.562 . S
N852 C854 1.325 . S
C853 C847 1.404 . S
C853 C855 1.366 . S
C853 H861 0.930 . S
C854 N852 1.325 . S
C854 C855 1.416 . S
C854 H860 0.929 . S
C855 C853 1.366 . S
C855 C854 1.416 . S
C855 H857 0.930 . S
H856 C845 0.930 . S
H857 C855 0.930 . S
H858 C873 0.930 . S
H859 C880 0.930 . S
H860 C854 0.929 . S
H861 C853 0.930 . S
H862 C876 0.929 . S
H863 C843 0.931 . S
H864 C849 0.931 . S
H865 C850 0.931 . S
H866 C871 0.931 . S
H867 C846 0.929 . S
H868 C879 0.930 . S
N869 Eu840 2.600 . S
N869 C870 1.365 . S
N869 C873 1.319 . S
C870 N869 1.365 . S
C870 C872 1.405 . S
C870 C878 1.448 . S
C871 H866 0.931 . S
C871 C873 1.397 . S
C871 C874 1.367 . S
C872 C870 1.405 . S
C872 C874 1.403 . S
C872 C905 1.439 . S
C873 H858 0.930 . S
C873 N869 1.319 . S
C873 C871 1.397 . S
C874 C871 1.367 . S
C874 C872 1.403 . S
C874 H881 0.929 1_455 S
N875 Eu840 2.562 . S
N875 C876 1.325 . S
N875 C878 1.351 . S
C876 H862 0.929 . S
C876 N875 1.325 . S
C876 C880 1.416 . S
C877 C878 1.430 . S
C877 C879 1.404 . S
C877 C906 1.387 . S
C878 C870 1.448 . S
C878 N875 1.351 . S
C878 C877 1.430 . S
C879 H868 0.930 . S
C879 C877 1.404 . S
C879 C880 1.366 . S
C880 H859 0.930 . S
C880 C876 1.416 . S
C880 C879 1.366 . S
H881 C874 0.929 1_655 S
H882 C905 0.931 1_655 S
H883 C906 0.931 . S
O884 Eu840 2.462 . S
O884 C904 1.252 . S
O885 Eu840 2.373 . S
O885 C896 1.249 . S
O886 Eu851 2.335 . S
O886 C896 1.264 . S
O887 Eu840 2.432 . S
O887 C904 1.268 . S
O888 Eu840 2.291 . S
O888 C903 1.255 . S
O889 Eu851 2.372 . S
O889 C903 1.257 . S
O890 Eu851 2.462 . S
O890 C915 1.252 . S
O891 Eu851 2.373 . S
O891 C907 1.249 . S
O892 Eu840 2.335 . S
O892 C907 1.264 . S
O893 Eu851 2.432 . S
O893 C915 1.268 . S
O894 Eu851 2.291 . S
O894 C914 1.255 . S
O895 Eu840 2.372 . S
O895 C914 1.257 . S
C896 O885 1.249 . S
C896 O886 1.264 . S
C897 C900 1.382 . S
C897 C902 1.390 . S
C897 C904 1.506 . S
C898 C899 1.398 . S
C898 C902 1.392 . S
C899 C898 1.398 . S
C899 C901 1.372 . S
C899 H916 0.931 . S
C900 C897 1.382 . S
C900 C901 1.390 . S
C900 H917 0.931 . S
C901 C899 1.372 . S
C901 C900 1.390 . S
C901 H918 0.929 . S
C902 C897 1.390 . S
C902 C898 1.392 . S
C902 H919 0.930 . S
C903 O888 1.255 . S
C903 O889 1.257 . S
C904 Eu840 2.787 . S
C904 O884 1.252 . S
C904 O887 1.268 . S
C904 C897 1.506 . S
C905 C872 1.439 . S
C905 H882 0.931 1_455 S
C905 C906 1.374 . S
C906 C877 1.387 . S
C906 H883 0.931 . S
C906 C905 1.374 . S
C907 O891 1.249 . S
C907 O892 1.264 . S
C908 C911 1.382 . S
C908 C912 1.390 . S
C908 C915 1.506 . S
C909 C910 1.398 . S
C909 C912 1.392 . S
C910 C909 1.398 . S
C910 C913 1.372 . S
C910 H920 0.931 . S
C911 C908 1.382 . S
C911 C913 1.390 . S
C911 H921 0.931 . S
C912 C908 1.390 . S
C912 C909 1.392 . S
C912 H922 0.930 . S
C913 C910 1.372 . S
C913 C911 1.390 . S
C913 H923 0.929 . S
C914 O894 1.255 . S
C914 O895 1.257 . S
C915 Eu851 2.787 . S
C915 O890 1.252 . S
C915 O893 1.268 . S
C915 C908 1.506 . S
H916 C899 0.931 . S
H917 C900 0.931 . S
H918 C901 0.929 . S
H919 C902 0.930 . S
H920 C910 0.931 . S
H921 C911 0.931 . S
H922 C912 0.930 . S
H923 C913 0.929 . S
Eu924 N953 2.600 . S
Eu924 N959 2.562 . S
Eu924 O968 2.462 . S
Eu924 O969 2.373 . S
Eu924 O971 2.432 . S
Eu924 O972 2.291 . S
Eu924 O976 2.335 . S
Eu924 O979 2.372 . S
Eu924 C988 2.787 . S
C925 N926 1.365 . S
C925 C928 1.405 . S
C925 C932 1.448 . S
N926 C925 1.365 . S
N926 C929 1.319 . S
N926 Eu935 2.600 . S
C927 C929 1.397 . S
C927 C930 1.367 . S
C927 H947 0.931 . S
C928 C925 1.405 . S
C928 C930 1.403 . S
C928 C934 1.439 . S
C929 N926 1.319 . S
C929 C927 1.397 . S
C929 H940 0.930 . S
C930 C927 1.367 . S
C930 C928 1.403 . S
C930 H951 0.929 . S
C931 C932 1.430 . S
C931 C933 1.387 . S
C931 C937 1.404 . S
C932 C925 1.448 . S
C932 C931 1.430 . S
C932 N936 1.351 . S
C933 C931 1.387 . S
C933 C934 1.374 . S
C933 H948 0.931 . S
C934 C928 1.439 . S
C934 C933 1.374 . S
C934 H949 0.931 . S
Eu935 N926 2.600 . S
Eu935 N936 2.562 . S
Eu935 O970 2.335 . S
Eu935 O973 2.372 . S
Eu935 O974 2.462 . S
Eu935 O975 2.373 . S
Eu935 O977 2.432 . S
Eu935 O978 2.291 . S
Eu935 C999 2.787 . S
N936 C932 1.351 . S
N936 Eu935 2.562 . S
N936 C938 1.325 . S
C937 C931 1.404 . S
C937 C939 1.366 . S
C937 H945 0.930 . S
C938 N936 1.325 . S
C938 C939 1.416 . S
C938 H944 0.929 . S
C939 C937 1.366 . S
C939 C938 1.416 . S
C939 H941 0.930 . S
H940 C929 0.930 . S
H941 C939 0.930 . S
H942 C957 0.930 . S
H943 C964 0.930 . S
H944 C938 0.929 . S
H945 C937 0.930 . S
H946 C960 0.929 . S
H947 C927 0.931 . S
H948 C933 0.931 . S
H949 C934 0.931 . S
H950 C955 0.931 . S
H951 C930 0.929 . S
H952 C963 0.930 . S
N953 Eu924 2.600 . S
N953 C954 1.365 . S
N953 C957 1.319 . S
C954 N953 1.365 . S
C954 C956 1.405 . S
C954 C962 1.448 . S
C955 H950 0.931 . S
C955 C957 1.397 . S
C955 C958 1.367 . S
C956 C954 1.405 . S
C956 C958 1.403 . S
C956 C989 1.439 . S
C957 H942 0.930 . S
C957 N953 1.319 . S
C957 C955 1.397 . S
C958 C955 1.367 . S
C958 C956 1.403 . S
C958 H965 0.929 . S
N959 Eu924 2.562 . S
N959 C960 1.325 . S
N959 C962 1.351 . S
C960 H946 0.929 . S
C960 N959 1.325 . S
C960 C964 1.416 . S
C961 C962 1.430 . S
C961 C963 1.404 . S
C961 C990 1.387 . S
C962 C954 1.448 . S
C962 N959 1.351 . S
C962 C961 1.430 . S
C963 H952 0.930 . S
C963 C961 1.404 . S
C963 C964 1.366 . S
C964 H943 0.930 . S
C964 C960 1.416 . S
C964 C963 1.366 . S
H965 C958 0.929 . S
H966 C989 0.931 . S
H967 C990 0.931 . S
O968 Eu924 2.462 . S
O968 C988 1.252 . S
O969 Eu924 2.373 . S
O969 C980 1.249 . S
O970 Eu935 2.335 . S
O970 C980 1.264 . S
O971 Eu924 2.432 . S
O971 C988 1.268 . S
O972 Eu924 2.291 . S
O972 C987 1.255 . S
O973 Eu935 2.372 . S
O973 C987 1.257 . S
O974 Eu935 2.462 . S
O974 C999 1.252 . S
O975 Eu935 2.373 . S
O975 C991 1.249 . S
O976 Eu924 2.335 . S
O976 C991 1.264 . S
O977 Eu935 2.432 . S
O977 C999 1.268 . S
O978 Eu935 2.291 . S
O978 C998 1.255 . S
O979 Eu924 2.372 . S
O979 C998 1.257 . S
C980 O969 1.249 . S
C980 O970 1.264 . S
C981 C984 1.382 . S
C981 C986 1.390 . S
C981 C988 1.506 . S
C982 C983 1.398 . S
C982 C986 1.392 . S
C983 C982 1.398 . S
C983 C985 1.372 . S
C983 H1000 0.931 . S
C984 C981 1.382 . S
C984 C985 1.390 . S
C984 H1001 0.931 . S
C985 C983 1.372 . S
C985 C984 1.390 . S
C985 H1002 0.929 . S
C986 C981 1.390 . S
C986 C982 1.392 . S
C986 H1003 0.930 . S
C987 O972 1.255 . S
C987 O973 1.257 . S
C988 Eu924 2.787 . S
C988 O968 1.252 . S
C988 O971 1.268 . S
C988 C981 1.506 . S
C989 C956 1.439 . S
C989 H966 0.931 . S
C989 C990 1.374 . S
C990 C961 1.387 . S
C990 H967 0.931 . S
C990 C989 1.374 . S
C991 O975 1.249 . S
C991 O976 1.264 . S
C992 C995 1.382 . S
C992 C996 1.390 . S
C992 C999 1.506 . S
C993 C994 1.398 . S
C993 C996 1.392 . S
C994 C993 1.398 . S
C994 C997 1.372 . S
C994 H1004 0.931 . S
C995 C992 1.382 . S
C995 C997 1.390 . S
C995 H1005 0.931 . S
C996 C992 1.390 . S
C996 C993 1.392 . S
C996 H1006 0.930 . S
C997 C994 1.372 . S
C997 C995 1.390 . S
C997 H1007 0.929 . S
C998 O978 1.255 . S
C998 O979 1.257 . S
C999 Eu935 2.787 . S
C999 O974 1.252 . S
C999 O977 1.268 . S
C999 C992 1.506 . S
H1000 C983 0.931 . S
H1001 C984 0.931 . S
H1002 C985 0.929 . S
H1003 C986 0.930 . S
H1004 C994 0.931 . S
H1005 C995 0.931 . S
H1006 C996 0.930 . S
H1007 C997 0.929 . S
C1008 C1009 1.376 . S
C1008 H1012 0.950 . S
C1008 C1017 1.390 . S
C1009 C1008 1.376 . S
C1009 C1011 1.383 1_454 S
H1010 C1017 0.950 . S
C1011 C1009 1.383 1_656 S
C1011 C1013 1.390 . S
C1011 H1015 0.950 . S
H1012 C1008 0.950 . S
C1013 C1011 1.390 . S
C1013 C1014 1.376 . S
C1013 H1016 0.950 . S
C1014 C1013 1.376 . S
C1014 C1017 1.383 1_656 S
H1015 C1011 0.950 . S
H1016 C1013 0.950 . S
C1017 C1008 1.390 . S
C1017 H1010 0.950 . S
C1017 C1014 1.383 1_454 S
C1018 C1019 1.387 1_554 S
C1018 H1022 0.950 . S
C1018 C1027 1.390 . S
C1019 C1018 1.387 1_556 S
C1019 C1021 1.387 . S
H1020 C1027 0.950 . S
C1021 C1019 1.387 . S
C1021 C1023 1.390 . S
C1021 H1025 0.950 . S
H1022 C1018 0.950 . S
C1023 C1021 1.390 . S
C1023 C1024 1.387 1_556 S
C1023 H1026 0.950 . S
C1024 C1023 1.387 1_554 S
C1024 C1027 1.387 . S
H1025 C1021 0.950 . S
H1026 C1023 0.950 . S
C1027 C1018 1.390 . S
C1027 H1020 0.950 . S
C1027 C1024 1.387 . S
C1028 C1029 1.387 . S
C1028 H1032 0.950 . S
C1028 C1037 1.390 1_556 S
C1029 C1028 1.387 . S
C1029 C1031 1.387 1_545 S
H1030 C1037 0.950 . S
C1031 C1029 1.387 1_565 S
C1031 C1033 1.390 1_556 S
C1031 H1035 0.950 . S
H1032 C1028 0.950 . S
C1033 C1031 1.390 1_554 S
C1033 C1034 1.387 . S
C1033 H1036 0.950 . S
C1034 C1033 1.387 . S
C1034 C1037 1.387 1_565 S
H1035 C1031 0.950 . S
H1036 C1033 0.950 . S
C1037 C1028 1.390 1_554 S
C1037 H1030 0.950 . S
C1037 C1034 1.387 1_545 S
C1038 C1039 1.387 1_565 S
C1038 H1042 0.950 . S
C1038 C1047 1.390 . S
C1039 C1038 1.387 1_545 S
C1039 C1041 1.387 . S
H1040 C1047 0.950 . S
C1041 C1039 1.387 . S
C1041 C1043 1.390 . S
C1041 H1045 0.950 . S
H1042 C1038 0.950 . S
C1043 C1041 1.390 . S
C1043 C1044 1.387 1_545 S
C1043 H1046 0.950 . S
C1044 C1043 1.387 1_565 S
C1044 C1047 1.387 . S
H1045 C1041 0.950 . S
H1046 C1043 0.950 . S
C1047 C1038 1.390 . S
C1047 H1040 0.950 . S
C1047 C1044 1.387 . S
C1048 C1049 1.383 1_655 S
C1048 H1052 0.950 . S
C1048 C1057 1.390 . S
C1049 C1048 1.383 1_455 S
C1049 C1051 1.408 . S
H1050 C1057 0.950 . S
C1051 C1049 1.408 . S
C1051 C1053 1.390 . S
C1051 H1055 0.950 . S
H1052 C1048 0.950 . S
C1053 C1051 1.390 . S
C1053 C1054 1.383 1_455 S
C1053 H1056 0.950 . S
C1054 C1053 1.383 1_655 S
C1054 C1057 1.408 . S
H1055 C1051 0.950 . S
H1056 C1053 0.950 . S
C1057 C1048 1.390 . S
C1057 H1050 0.950 . S
C1057 C1054 1.408 . S
C1058 C1059 1.387 . S
C1058 H1062 0.950 . S
C1058 C1067 1.390 . S
C1059 C1058 1.387 . S
C1059 C1061 1.387 . S
H1060 C1067 0.950 . S
C1061 C1059 1.387 . S
C1061 C1063 1.390 . S
C1061 H1065 0.950 . S
H1062 C1058 0.950 . S
C1063 C1061 1.390 . S
C1063 C1064 1.387 . S
C1063 H1066 0.950 . S
C1064 C1063 1.387 . S
C1064 C1067 1.387 . S
H1065 C1061 0.950 . S
H1066 C1063 0.950 . S
C1067 C1058 1.390 . S
C1067 H1060 0.950 . S
C1067 C1064 1.387 . S
C1068 C1069 1.387 . S
C1068 H1072 0.950 . S
C1068 C1077 1.390 1_655 S
C1069 C1068 1.387 . S
C1069 C1071 1.387 . S
H1070 C1077 0.950 . S
C1071 C1069 1.387 . S
C1071 C1073 1.390 1_655 S
C1071 H1075 0.950 . S
H1072 C1068 0.950 . S
C1073 C1071 1.390 1_455 S
C1073 C1074 1.387 . S
C1073 H1076 0.950 . S
C1074 C1073 1.387 . S
C1074 C1077 1.387 . S
H1075 C1071 0.950 . S
H1076 C1073 0.950 . S
C1077 C1068 1.390 1_455 S
C1077 H1070 0.950 . S
C1077 C1074 1.387 . S
C1078 C1079 1.387 . S
C1078 H1082 0.950 . S
C1078 C1087 1.390 . S
C1079 C1078 1.387 . S
C1079 C1081 1.387 . S
H1080 C1087 0.950 . S
C1081 C1079 1.387 . S
C1081 C1083 1.390 . S
C1081 H1085 0.950 . S
H1082 C1078 0.950 . S
C1083 C1081 1.390 . S
C1083 C1084 1.387 . S
C1083 H1086 0.950 . S
C1084 C1083 1.387 . S
C1084 C1087 1.387 . S
H1085 C1081 0.950 . S
H1086 C1083 0.950 . S
C1087 C1078 1.390 . S
C1087 H1080 0.950 . S
C1087 C1084 1.387 . S
C1088 C1089 1.387 . S
C1088 H1092 0.950 . S
C1088 C1097 1.390 1_545 S
C1089 C1088 1.387 . S
C1089 C1091 1.387 . S
H1090 C1097 0.950 . S
C1091 C1089 1.387 . S
C1091 C1093 1.390 1_545 S
C1091 H1095 0.950 . S
H1092 C1088 0.950 . S
C1093 C1091 1.390 1_565 S
C1093 C1094 1.387 . S
C1093 H1096 0.950 . S
C1094 C1093 1.387 . S
C1094 C1097 1.387 . S
H1095 C1091 0.950 . S
H1096 C1093 0.950 . S
C1097 C1088 1.390 1_565 S
C1097 H1090 0.950 . S
C1097 C1094 1.387 . S
C1098 C1099 1.387 . S
C1098 H1102 0.950 . S
C1098 C1107 1.390 1_455 S
C1099 C1098 1.387 . S
C1099 C1101 1.387 . S
H1100 C1107 0.950 . S
C1101 C1099 1.387 . S
C1101 C1103 1.390 1_455 S
C1101 H1105 0.950 . S
H1102 C1098 0.950 . S
C1103 C1101 1.390 1_655 S
C1103 C1104 1.387 . S
C1103 H1106 0.950 . S
C1104 C1103 1.387 . S
C1104 C1107 1.387 . S
H1105 C1101 0.950 . S
H1106 C1103 0.950 . S
C1107 C1098 1.390 1_655 S
C1107 H1100 0.950 . S
C1107 C1104 1.387 . S
C1108 C1109 1.387 . S
C1108 H1112 0.950 . S
C1108 C1117 1.390 . S
C1109 C1108 1.387 . S
C1109 C1111 1.387 . S
H1110 C1117 0.950 . S
C1111 C1109 1.387 . S
C1111 C1113 1.390 . S
C1111 H1115 0.950 . S
H1112 C1108 0.950 . S
C1113 C1111 1.390 . S
C1113 C1114 1.387 . S
C1113 H1116 0.950 . S
C1114 C1113 1.387 . S
C1114 C1117 1.387 . S
H1115 C1111 0.950 . S
H1116 C1113 0.950 . S
C1117 C1108 1.390 . S
C1117 H1110 0.950 . S
C1117 C1114 1.387 . S
C1118 C1119 1.387 . S
C1118 H1122 0.950 . S
C1118 C1127 1.390 1_545 S
C1119 C1118 1.387 . S
C1119 C1121 1.387 . S
H1120 C1127 0.950 . S
C1121 C1119 1.387 . S
C1121 C1123 1.390 1_545 S
C1121 H1125 0.950 . S
H1122 C1118 0.950 . S
C1123 C1121 1.390 1_565 S
C1123 C1124 1.387 . S
C1123 H1126 0.950 . S
C1124 C1123 1.387 . S
C1124 C1127 1.387 . S
H1125 C1121 0.950 . S
H1126 C1123 0.950 . S
C1127 C1118 1.390 1_565 S
C1127 H1120 0.950 . S
C1127 C1124 1.387 . S
C1128 C1129 1.387 . S
C1128 H1132 0.950 . S
C1128 C1137 1.390 . S
C1129 C1128 1.387 . S
C1129 C1131 1.387 . S
H1130 C1137 0.950 . S
C1131 C1129 1.387 . S
C1131 C1133 1.390 . S
C1131 H1135 0.950 . S
H1132 C1128 0.950 . S
C1133 C1131 1.390 . S
C1133 C1134 1.387 . S
C1133 H1136 0.950 . S
C1134 C1133 1.387 . S
C1134 C1137 1.387 . S
H1135 C1131 0.950 . S
H1136 C1133 0.950 . S
C1137 C1128 1.390 . S
C1137 H1130 0.950 . S
C1137 C1134 1.387 . S
C1138 C1139 1.387 . S
C1138 H1142 0.950 . S
C1138 C1147 1.390 . S
C1139 C1138 1.387 . S
C1139 C1141 1.387 . S
H1140 C1147 0.950 . S
C1141 C1139 1.387 . S
C1141 C1143 1.390 . S
C1141 H1145 0.950 . S
H1142 C1138 0.950 . S
C1143 C1141 1.390 . S
C1143 C1144 1.387 . S
C1143 H1146 0.950 . S
C1144 C1143 1.387 . S
C1144 C1147 1.387 . S
H1145 C1141 0.950 . S
H1146 C1143 0.950 . S
C1147 C1138 1.390 . S
C1147 H1140 0.950 . S
C1147 C1144 1.387 . S
C1148 C1149 1.387 . S
C1148 H1152 0.950 . S
C1148 C1157 1.390 . S
C1149 C1148 1.387 . S
C1149 C1151 1.387 . S
H1150 C1157 0.950 . S
C1151 C1149 1.387 . S
C1151 C1153 1.390 . S
C1151 H1155 0.950 . S
H1152 C1148 0.950 . S
C1153 C1151 1.390 . S
C1153 C1154 1.387 . S
C1153 H1156 0.950 . S
C1154 C1153 1.387 . S
C1154 C1157 1.387 . S
H1155 C1151 0.950 . S
H1156 C1153 0.950 . S
C1157 C1148 1.390 . S
C1157 H1150 0.950 . S
C1157 C1154 1.387 . S
C1158 C1159 1.387 . S
C1158 H1162 0.950 . S
C1158 C1167 1.390 . S
C1159 C1158 1.387 . S
C1159 C1161 1.387 . S
H1160 C1167 0.950 . S
C1161 C1159 1.387 . S
C1161 C1163 1.390 . S
C1161 H1165 0.950 . S
H1162 C1158 0.950 . S
C1163 C1161 1.390 . S
C1163 C1164 1.387 . S
C1163 H1166 0.950 . S
C1164 C1163 1.387 . S
C1164 C1167 1.387 . S
H1165 C1161 0.950 . S
H1166 C1163 0.950 . S
C1167 C1158 1.390 . S
C1167 H1160 0.950 . S
C1167 C1164 1.387 . S
C1168 C1169 1.387 . S
C1168 H1172 0.950 . S
C1168 C1177 1.390 . S
C1169 C1168 1.387 . S
C1169 C1171 1.387 . S
H1170 C1177 0.950 . S
C1171 C1169 1.387 . S
C1171 C1173 1.390 . S
C1171 H1175 0.950 . S
H1172 C1168 0.950 . S
C1173 C1171 1.390 . S
C1173 C1174 1.387 . S
C1173 H1176 0.950 . S
C1174 C1173 1.387 . S
C1174 C1177 1.387 . S
H1175 C1171 0.950 . S
H1176 C1173 0.950 . S
C1177 C1168 1.390 . S
C1177 H1170 0.950 . S
C1177 C1174 1.387 . S
C1178 C1179 1.387 . S
C1178 H1182 0.950 . S
C1178 C1187 1.390 . S
C1179 C1178 1.387 . S
C1179 C1181 1.387 . S
H1180 C1187 0.950 . S
C1181 C1179 1.387 . S
C1181 C1183 1.390 . S
C1181 H1185 0.950 . S
H1182 C1178 0.950 . S
C1183 C1181 1.390 . S
C1183 C1184 1.387 . S
C1183 H1186 0.950 . S
C1184 C1183 1.387 . S
C1184 C1187 1.387 . S
H1185 C1181 0.950 . S
H1186 C1183 0.950 . S
C1187 C1178 1.390 . S
C1187 H1180 0.950 . S
C1187 C1184 1.387 . S
C1188 C1189 1.387 . S
C1188 H1192 0.950 . S
C1188 C1197 1.390 . S
C1189 C1188 1.387 . S
C1189 C1191 1.387 . S
H1190 C1197 0.950 . S
C1191 C1189 1.387 . S
C1191 C1193 1.390 . S
C1191 H1195 0.950 . S
H1192 C1188 0.950 . S
C1193 C1191 1.390 . S
C1193 C1194 1.387 . S
C1193 H1196 0.950 . S
C1194 C1193 1.387 . S
C1194 C1197 1.387 . S
H1195 C1191 0.950 . S
H1196 C1193 0.950 . S
C1197 C1188 1.390 . S
C1197 H1190 0.950 . S
C1197 C1194 1.387 . S
C1198 C1199 1.387 . S
C1198 H1202 0.950 . S
C1198 C1207 1.390 . S
C1199 C1198 1.387 . S
C1199 C1201 1.387 . S
H1200 C1207 0.950 . S
C1201 C1199 1.387 . S
C1201 C1203 1.390 . S
C1201 H1205 0.950 . S
H1202 C1198 0.950 . S
C1203 C1201 1.390 . S
C1203 C1204 1.387 . S
C1203 H1206 0.950 . S
C1204 C1203 1.387 . S
C1204 C1207 1.387 . S
H1205 C1201 0.950 . S
H1206 C1203 0.950 . S
C1207 C1198 1.390 . S
C1207 H1200 0.950 . S
C1207 C1204 1.387 . S
C1208 C1209 1.387 . S
C1208 H1212 0.950 . S
C1208 C1217 1.390 . S
C1209 C1208 1.387 . S
C1209 C1211 1.387 . S
H1210 C1217 0.950 . S
C1211 C1209 1.387 . S
C1211 C1213 1.390 . S
C1211 H1215 0.950 . S
H1212 C1208 0.950 . S
C1213 C1211 1.390 . S
C1213 C1214 1.387 . S
C1213 H1216 0.950 . S
C1214 C1213 1.387 . S
C1214 C1217 1.387 . S
H1215 C1211 0.950 . S
H1216 C1213 0.950 . S
C1217 C1208 1.390 . S
C1217 H1210 0.950 . S
C1217 C1214 1.387 . S
C1218 C1219 1.387 . S
C1218 H1222 0.950 . S
C1218 C1227 1.390 . S
C1219 C1218 1.387 . S
C1219 C1221 1.387 . S
H1220 C1227 0.950 . S
C1221 C1219 1.387 . S
C1221 C1223 1.390 . S
C1221 H1225 0.950 . S
H1222 C1218 0.950 . S
C1223 C1221 1.390 . S
C1223 C1224 1.387 . S
C1223 H1226 0.950 . S
C1224 C1223 1.387 . S
C1224 C1227 1.387 . S
H1225 C1221 0.950 . S
H1226 C1223 0.950 . S
C1227 C1218 1.390 . S
C1227 H1220 0.950 . S
C1227 C1224 1.387 . S
C1228 C1229 1.387 . S
C1228 H1232 0.950 . S
C1228 C1237 1.390 . S
C1229 C1228 1.387 . S
C1229 C1231 1.387 . S
H1230 C1237 0.950 . S
C1231 C1229 1.387 . S
C1231 C1233 1.390 . S
C1231 H1235 0.950 . S
H1232 C1228 0.950 . S
C1233 C1231 1.390 . S
C1233 C1234 1.387 . S
C1233 H1236 0.950 . S
C1234 C1233 1.387 . S
C1234 C1237 1.387 . S
H1235 C1231 0.950 . S
H1236 C1233 0.950 . S
C1237 C1228 1.390 . S
C1237 H1230 0.950 . S
C1237 C1234 1.387 . S
C1238 C1239 1.387 . S
C1238 H1242 0.950 . S
C1238 C1247 1.390 . S
C1239 C1238 1.387 . S
C1239 C1241 1.387 . S
H1240 C1247 0.950 . S
C1241 C1239 1.387 . S
C1241 C1243 1.390 . S
C1241 H1245 0.950 . S
H1242 C1238 0.950 . S
C1243 C1241 1.390 . S
C1243 C1244 1.387 . S
C1243 H1246 0.950 . S
C1244 C1243 1.387 . S
C1244 C1247 1.387 . S
H1245 C1241 0.950 . S
H1246 C1243 0.950 . S
C1247 C1238 1.390 . S
C1247 H1240 0.950 . S
C1247 C1244 1.387 . S
C1248 C1249 1.387 . S
C1248 H1252 0.950 . S
C1248 C1257 1.390 . S
C1249 C1248 1.387 . S
C1249 C1251 1.387 . S
H1250 C1257 0.950 . S
C1251 C1249 1.387 . S
C1251 C1253 1.390 . S
C1251 H1255 0.950 . S
H1252 C1248 0.950 . S
C1253 C1251 1.390 . S
C1253 C1254 1.387 . S
C1253 H1256 0.950 . S
C1254 C1253 1.387 . S
C1254 C1257 1.387 . S
H1255 C1251 0.950 . S
H1256 C1253 0.950 . S
C1257 C1248 1.390 . S
C1257 H1250 0.950 . S
C1257 C1254 1.387 . S
C1258 C1259 1.387 . S
C1258 H1262 0.950 . S
C1258 C1267 1.389 . S
C1259 C1258 1.387 . S
C1259 C1261 1.387 1_554 S
H1260 C1267 0.950 1_565 S
C1261 C1259 1.387 1_556 S
C1261 C1263 1.390 1_546 S
C1261 H1265 0.950 . S
H1262 C1258 0.950 . S
C1263 C1261 1.390 1_564 S
C1263 C1264 1.387 . S
C1263 H1266 0.950 1_554 S
C1264 C1263 1.387 . S
C1264 C1267 1.388 1_565 S
H1265 C1261 0.950 . S
H1266 C1263 0.950 1_556 S
C1267 C1258 1.389 . S
C1267 H1260 0.950 1_545 S
C1267 C1264 1.388 1_545 S
C1268 C1269 1.387 . S
C1268 H1272 0.950 . S
C1268 C1277 1.386 1_655 S
C1269 C1268 1.387 . S
C1269 C1271 1.387 1_554 S
H1270 C1277 0.950 . S
C1271 C1269 1.387 1_556 S
C1271 C1273 1.390 1_656 S
C1271 H1275 0.950 . S
H1272 C1268 0.950 . S
C1273 C1271 1.390 1_454 S
C1273 C1274 1.387 . S
C1273 H1276 0.950 1_554 S
C1274 C1273 1.387 . S
C1274 C1277 1.392 . S
H1275 C1271 0.950 . S
H1276 C1273 0.950 1_556 S
C1277 C1268 1.386 1_455 S
C1277 H1270 0.950 . S
C1277 C1274 1.392 . S
C1278 C1279 1.387 . S
C1278 H1282 0.950 . S
C1278 C1287 1.390 . S
C1279 C1278 1.387 . S
C1279 C1281 1.387 . S
H1280 C1287 0.950 . S
C1281 C1279 1.387 . S
C1281 C1283 1.390 . S
C1281 H1285 0.950 . S
H1282 C1278 0.950 . S
C1283 C1281 1.390 . S
C1283 C1284 1.387 . S
C1283 H1286 0.950 . S
C1284 C1283 1.387 . S
C1284 C1287 1.387 . S
H1285 C1281 0.950 . S
H1286 C1283 0.950 . S
C1287 C1278 1.390 . S
C1287 H1280 0.950 . S
C1287 C1284 1.387 . S
C1288 C1289 1.408 . S
C1288 H1292 0.940 1_565 S
C1288 C1297 1.380 1_565 S
C1289 C1288 1.408 . S
C1289 C1291 1.387 . S
H1290 C1297 0.950 . S
C1291 C1289 1.387 . S
C1291 C1293 1.390 . S
C1291 H1295 0.950 . S
H1292 C1288 0.940 1_545 S
C1293 C1291 1.390 . S
C1293 C1294 1.387 1_565 S
C1293 H1296 0.950 . S
C1294 C1293 1.387 1_545 S
C1294 C1297 1.387 . S
H1295 C1291 0.950 . S
H1296 C1293 0.950 . S
C1297 C1288 1.380 1_545 S
C1297 H1290 0.950 . S
C1297 C1294 1.387 . S
C1298 C1299 1.387 1_455 S
C1298 H1302 0.950 . S
C1298 C1307 1.390 . S
C1299 C1298 1.387 1_655 S
C1299 C1301 1.387 . S
H1300 C1307 0.950 . S
C1301 C1299 1.387 . S
C1301 C1303 1.390 1_655 S
C1301 H1305 0.950 . S
H1302 C1298 0.950 . S
C1303 C1301 1.390 1_455 S
C1303 C1304 1.387 . S
C1303 H1306 0.939 . S
C1304 C1303 1.387 . S
C1304 C1307 1.387 . S
H1305 C1301 0.950 . S
H1306 C1303 0.939 . S
C1307 C1298 1.390 . S
C1307 H1300 0.950 . S
C1307 C1304 1.387 . S
C1308 C1309 1.387 . S
C1308 H1312 0.950 . S
C1308 C1317 1.390 . S
C1309 C1308 1.387 . S
C1309 C1311 1.387 . S
H1310 C1317 0.950 . S
C1311 C1309 1.387 . S
C1311 C1313 1.390 . S
C1311 H1315 0.950 . S
H1312 C1308 0.950 . S
C1313 C1311 1.390 . S
C1313 C1314 1.387 . S
C1313 H1316 0.950 . S
C1314 C1313 1.387 . S
C1314 C1317 1.387 . S
H1315 C1311 0.950 . S
H1316 C1313 0.950 . S
C1317 C1308 1.390 . S
C1317 H1310 0.950 . S
C1317 C1314 1.387 . S
C1318 C1319 1.387 . S
C1318 H1322 0.950 1_556 S
C1318 C1327 1.390 1_546 S
C1319 C1318 1.387 . S
C1319 C1321 1.387 1_545 S
H1320 C1327 0.950 . S
C1321 C1319 1.387 1_565 S
C1321 C1323 1.390 . S
C1321 H1325 0.947 1_565 S
H1322 C1318 0.950 1_554 S
C1323 C1321 1.390 . S
C1323 C1324 1.387 . S
C1323 H1326 0.950 . S
C1324 C1323 1.387 . S
C1324 C1327 1.387 1_556 S
H1325 C1321 0.947 1_545 S
H1326 C1323 0.950 . S
C1327 C1318 1.390 1_564 S
C1327 H1320 0.950 . S
C1327 C1324 1.387 1_554 S
C1328 C1329 1.387 1_554 S
C1328 H1332 0.950 . S
C1328 C1337 1.390 1_454 S
C1329 C1328 1.387 1_556 S
C1329 C1331 1.387 . S
H1330 C1337 0.950 1_554 S
C1331 C1329 1.387 . S
C1331 C1333 1.390 1_455 S
C1331 H1335 0.950 . S
H1332 C1328 0.950 . S
C1333 C1331 1.390 1_655 S
C1333 C1334 1.387 . S
C1333 H1336 0.950 . S
C1334 C1333 1.387 . S
C1334 C1337 1.387 . S
H1335 C1331 0.950 . S
H1336 C1333 0.950 . S
C1337 C1328 1.390 1_656 S
C1337 H1330 0.950 1_556 S
C1337 C1334 1.387 . S
C1338 C1339 1.387 . S
C1338 H1342 0.950 . S
C1338 C1347 1.390 . S
C1339 C1338 1.387 . S
C1339 C1341 1.387 . S
H1340 C1347 0.950 . S
C1341 C1339 1.387 . S
C1341 C1343 1.390 . S
C1341 H1345 0.950 . S
H1342 C1338 0.950 . S
C1343 C1341 1.390 . S
C1343 C1344 1.387 . S
C1343 H1346 0.950 . S
C1344 C1343 1.387 . S
C1344 C1347 1.387 . S
H1345 C1341 0.950 . S
H1346 C1343 0.950 . S
C1347 C1338 1.390 . S
C1347 H1340 0.950 . S
C1347 C1344 1.387 . S
C1348 C1349 1.387 1_545 S
C1348 H1352 0.950 . S
C1348 C1357 1.390 . S
C1349 C1348 1.387 1_565 S
C1349 C1351 1.387 . S
H1350 C1357 0.950 . S
C1351 C1349 1.387 . S
C1351 C1353 1.390 1_565 S
C1351 H1355 0.950 . S
H1352 C1348 0.950 . S
C1353 C1351 1.390 1_545 S
C1353 C1354 1.387 . S
C1353 H1356 0.950 . S
C1354 C1353 1.387 . S
C1354 C1357 1.387 . S
H1355 C1351 0.950 . S
H1356 C1353 0.950 . S
C1357 C1348 1.390 . S
C1357 H1350 0.950 . S
C1357 C1354 1.387 . S
C1358 C1359 1.387 . S
C1358 H1362 0.950 . S
C1358 C1367 1.390 . S
C1359 C1358 1.387 . S
C1359 C1361 1.387 . S
H1360 C1367 0.934 1_455 S
C1361 C1359 1.387 . S
C1361 C1363 1.390 1_655 S
C1361 H1365 0.950 . S
H1362 C1358 0.950 . S
C1363 C1361 1.390 1_455 S
C1363 C1364 1.387 . S
C1363 H1366 0.950 . S
C1364 C1363 1.387 . S
C1364 C1367 1.387 1_455 S
H1365 C1361 0.950 . S
H1366 C1363 0.950 . S
C1367 C1358 1.390 . S
C1367 H1360 0.934 1_655 S
C1367 C1364 1.387 1_655 S
C1009 C58 1.586 . S
C1014 C573 1.586 . S
C1019 C657 1.553 . S
C1024 C142 1.553 . S
C1029 C741 1.550 . S
C1034 C226 1.550 . S
C1039 C310 1.551 . S
C1044 C825 1.551 . S
C1049 C909 1.552 . S
C1054 C394 1.552 . S
C1059 C993 1.551 . S
C1064 C478 1.551 . S
C1069 C399 1.978 . S
C1074 C63 1.979 . S
C1079 C147 1.978 . S
C1084 C483 1.979 . S
C1089 C315 1.978 . S
C1094 C231 1.978 . S
C1099 C914 1.979 . S
C1104 C578 1.978 . S
C1109 C998 1.978 . S
C1114 C662 1.979 . S
C1119 C746 1.978 . S
C1124 C830 1.977 . S
C1129 C991 1.622 . S
C1134 C74 1.627 . S
C1139 C158 1.629 . S
C1144 C823 1.622 . S
C1149 C242 1.627 . S
C1154 C907 1.622 . S
C1159 C326 1.628 . S
C1164 C655 1.621 . S
C1169 C410 1.628 . S
C1174 C739 1.623 . S
C1179 C571 1.622 . S
C1184 C494 1.627 . S
C1189 C567 1.630 . S
C1194 C476 1.622 . S
C1199 C308 1.621 . S
C1204 C651 1.629 . S
C1209 C735 1.628 . S
C1214 C392 1.623 . S
C1219 C140 1.621 . S
C1224 C819 1.630 . S
C1229 C903 1.629 . S
C1234 C224 1.623 . S
C1239 C56 1.621 . S
C1244 C987 1.627 . S
C1249 C69 1.869 . S
C1254 C644 1.781 1_554 S
C1259 C728 1.781 1_554 S
C1264 C153 1.870 . S
C1269 C560 1.781 1_554 S
C1274 C237 1.870 . S
C1279 C321 1.870 . S
C1284 C980 1.783 . S
C1289 C812 1.784 . S
C1294 C405 1.870 . S
C1299 C489 1.869 . S
C1304 C896 1.781 . S
C1309 C151 1.783 1_556 S
C1314 C562 1.870 . S
C1319 C646 1.870 . S
C1324 C235 1.781 1_556 S
C1329 C67 1.781 1_556 S
C1334 C730 1.870 . S
C1339 C814 1.870 . S
C1344 C487 1.781 . S
C1349 C898 1.870 . S
C1354 C319 1.783 . S
C1359 C403 1.783 . S
C1364 C982 1.870 . S
