# Generated by pormake.
# Topology wjr, (5)-cn, num edge types: 1
# Building blocks:
#     Node 0, Type 0, BuildingBlock: BEQFEK_clean_sbu_0, # of connection points: 5
#     Node 1, Type 0, BuildingBlock: BEQFEK_clean_sbu_0, # of connection points: 5
#     Node 2, Type 0, BuildingBlock: BEQFEK_clean_sbu_0, # of connection points: 5
#     Node 3, Type 0, BuildingBlock: BEQFEK_clean_sbu_0, # of connection points: 5
#     Node 4, Type 0, BuildingBlock: BEQFEK_clean_sbu_0, # of connection points: 5
#     Node 5, Type 0, BuildingBlock: BEQFEK_clean_sbu_0, # of connection points: 5
#     Node 6, Type 0, BuildingBlock: BEQFEK_clean_sbu_0, # of connection points: 5
#     Node 7, Type 0, BuildingBlock: BEQFEK_clean_sbu_0, # of connection points: 5
#     Node 8, Type 0, BuildingBlock: BEQFEK_clean_sbu_0, # of connection points: 5
#     Node 9, Type 0, BuildingBlock: BEQFEK_clean_sbu_0, # of connection points: 5
#     Node 10, Type 0, BuildingBlock: BEQFEK_clean_sbu_0, # of connection points: 5
#     Node 11, Type 0, BuildingBlock: BEQFEK_clean_sbu_0, # of connection points: 5
#     Node 12, Type 0, BuildingBlock: BEQFEK_clean_sbu_0, # of connection points: 5
#     Node 13, Type 0, BuildingBlock: BEQFEK_clean_sbu_0, # of connection points: 5
#     Node 14, Type 0, BuildingBlock: BEQFEK_clean_sbu_0, # of connection points: 5
#     Node 15, Type 0, BuildingBlock: BEQFEK_clean_sbu_0, # of connection points: 5
#     Node 16, Type 0, BuildingBlock: BEQFEK_clean_sbu_0, # of connection points: 5
#     Node 17, Type 0, BuildingBlock: BEQFEK_clean_sbu_0, # of connection points: 5
#     Node 18, Type 0, BuildingBlock: BEQFEK_clean_sbu_0, # of connection points: 5
#     Node 19, Type 0, BuildingBlock: BEQFEK_clean_sbu_0, # of connection points: 5
#     Node 20, Type 0, BuildingBlock: BEQFEK_clean_sbu_0, # of connection points: 5
#     Node 21, Type 0, BuildingBlock: BEQFEK_clean_sbu_0, # of connection points: 5
#     Node 22, Type 0, BuildingBlock: BEQFEK_clean_sbu_0, # of connection points: 5
#     Node 23, Type 0, BuildingBlock: BEQFEK_clean_sbu_0, # of connection points: 5
#     Edge 24, Type (0, 0), BuildingBlock: XUDNAN_clean_linker_2, # of connection points: 2
#     Edge 25, Type (0, 0), BuildingBlock: XUDNAN_clean_linker_2, # of connection points: 2
#     Edge 26, Type (0, 0), BuildingBlock: XUDNAN_clean_linker_2, # of connection points: 2
#     Edge 27, Type (0, 0), BuildingBlock: XUDNAN_clean_linker_2, # of connection points: 2
#     Edge 28, Type (0, 0), BuildingBlock: XUDNAN_clean_linker_2, # of connection points: 2
#     Edge 29, Type (0, 0), BuildingBlock: XUDNAN_clean_linker_2, # of connection points: 2
#     Edge 30, Type (0, 0), BuildingBlock: XUDNAN_clean_linker_2, # of connection points: 2
#     Edge 31, Type (0, 0), BuildingBlock: XUDNAN_clean_linker_2, # of connection points: 2
#     Edge 32, Type (0, 0), BuildingBlock: XUDNAN_clean_linker_2, # of connection points: 2
#     Edge 33, Type (0, 0), BuildingBlock: XUDNAN_clean_linker_2, # of connection points: 2
#     Edge 34, Type (0, 0), BuildingBlock: XUDNAN_clean_linker_2, # of connection points: 2
#     Edge 35, Type (0, 0), BuildingBlock: XUDNAN_clean_linker_2, # of connection points: 2
#     Edge 36, Type (0, 0), BuildingBlock: XUDNAN_clean_linker_2, # of connection points: 2
#     Edge 37, Type (0, 0), BuildingBlock: XUDNAN_clean_linker_2, # of connection points: 2
#     Edge 38, Type (0, 0), BuildingBlock: XUDNAN_clean_linker_2, # of connection points: 2
#     Edge 39, Type (0, 0), BuildingBlock: XUDNAN_clean_linker_2, # of connection points: 2
#     Edge 40, Type (0, 0), BuildingBlock: XUDNAN_clean_linker_2, # of connection points: 2
#     Edge 41, Type (0, 0), BuildingBlock: XUDNAN_clean_linker_2, # of connection points: 2
#     Edge 42, Type (0, 0), BuildingBlock: XUDNAN_clean_linker_2, # of connection points: 2
#     Edge 43, Type (0, 0), BuildingBlock: XUDNAN_clean_linker_2, # of connection points: 2
#     Edge 44, Type (0, 0), BuildingBlock: XUDNAN_clean_linker_2, # of connection points: 2
#     Edge 45, Type (0, 0), BuildingBlock: XUDNAN_clean_linker_2, # of connection points: 2
#     Edge 46, Type (0, 0), BuildingBlock: XUDNAN_clean_linker_2, # of connection points: 2
#     Edge 47, Type (0, 0), BuildingBlock: XUDNAN_clean_linker_2, # of connection points: 2
#     Edge 48, Type (0, 0), BuildingBlock: XUDNAN_clean_linker_2, # of connection points: 2
#     Edge 49, Type (0, 0), BuildingBlock: XUDNAN_clean_linker_2, # of connection points: 2
#     Edge 50, Type (0, 0), BuildingBlock: XUDNAN_clean_linker_2, # of connection points: 2
#     Edge 51, Type (0, 0), BuildingBlock: XUDNAN_clean_linker_2, # of connection points: 2
#     Edge 52, Type (0, 0), BuildingBlock: XUDNAN_clean_linker_2, # of connection points: 2
#     Edge 53, Type (0, 0), BuildingBlock: XUDNAN_clean_linker_2, # of connection points: 2
#     Edge 54, Type (0, 0), BuildingBlock: XUDNAN_clean_linker_2, # of connection points: 2
#     Edge 55, Type (0, 0), BuildingBlock: XUDNAN_clean_linker_2, # of connection points: 2
#     Edge 56, Type (0, 0), BuildingBlock: XUDNAN_clean_linker_2, # of connection points: 2
#     Edge 57, Type (0, 0), BuildingBlock: XUDNAN_clean_linker_2, # of connection points: 2
#     Edge 58, Type (0, 0), BuildingBlock: XUDNAN_clean_linker_2, # of connection points: 2
#     Edge 59, Type (0, 0), BuildingBlock: XUDNAN_clean_linker_2, # of connection points: 2
#     Edge 60, Type (0, 0), BuildingBlock: XUDNAN_clean_linker_2, # of connection points: 2
#     Edge 61, Type (0, 0), BuildingBlock: XUDNAN_clean_linker_2, # of connection points: 2
#     Edge 62, Type (0, 0), BuildingBlock: XUDNAN_clean_linker_2, # of connection points: 2
#     Edge 63, Type (0, 0), BuildingBlock: XUDNAN_clean_linker_2, # of connection points: 2
#     Edge 64, Type (0, 0), BuildingBlock: XUDNAN_clean_linker_2, # of connection points: 2
#     Edge 65, Type (0, 0), BuildingBlock: XUDNAN_clean_linker_2, # of connection points: 2
#     Edge 66, Type (0, 0), BuildingBlock: XUDNAN_clean_linker_2, # of connection points: 2
#     Edge 67, Type (0, 0), BuildingBlock: XUDNAN_clean_linker_2, # of connection points: 2
#     Edge 68, Type (0, 0), BuildingBlock: XUDNAN_clean_linker_2, # of connection points: 2
#     Edge 69, Type (0, 0), BuildingBlock: XUDNAN_clean_linker_2, # of connection points: 2
#     Edge 70, Type (0, 0), BuildingBlock: XUDNAN_clean_linker_2, # of connection points: 2
#     Edge 71, Type (0, 0), BuildingBlock: XUDNAN_clean_linker_2, # of connection points: 2
#     Edge 72, Type (0, 0), BuildingBlock: XUDNAN_clean_linker_2, # of connection points: 2
#     Edge 73, Type (0, 0), BuildingBlock: XUDNAN_clean_linker_2, # of connection points: 2
#     Edge 74, Type (0, 0), BuildingBlock: XUDNAN_clean_linker_2, # of connection points: 2
#     Edge 75, Type (0, 0), BuildingBlock: XUDNAN_clean_linker_2, # of connection points: 2
#     Edge 76, Type (0, 0), BuildingBlock: XUDNAN_clean_linker_2, # of connection points: 2
#     Edge 77, Type (0, 0), BuildingBlock: XUDNAN_clean_linker_2, # of connection points: 2
#     Edge 78, Type (0, 0), BuildingBlock: XUDNAN_clean_linker_2, # of connection points: 2
#     Edge 79, Type (0, 0), BuildingBlock: XUDNAN_clean_linker_2, # of connection points: 2
#     Edge 80, Type (0, 0), BuildingBlock: XUDNAN_clean_linker_2, # of connection points: 2
#     Edge 81, Type (0, 0), BuildingBlock: XUDNAN_clean_linker_2, # of connection points: 2
#     Edge 82, Type (0, 0), BuildingBlock: XUDNAN_clean_linker_2, # of connection points: 2
#     Edge 83, Type (0, 0), BuildingBlock: XUDNAN_clean_linker_2, # of connection points: 2
# Relax obj value: 0.369
# Max RMSD: 0.180
# Mean RMSD: 0.180
data_MOF--net-wjr--node1-BEQFEK_clean_sbu_0--edge1-XUDNAN_clean_linker_2
_symmetry_space_group_name_H-M    P1
_symmetry_Int_Tables_number       1
_symmetry_cell_setting            triclinic
loop_
_symmetry_equiv_pos_as_xyz
'x, y, z'
_cell_length_a     70.425548
_cell_length_b     70.424853
_cell_length_c     48.845067
_cell_angle_alpha  89.996619
_cell_angle_beta   89.996635
_cell_angle_gamma 119.99875
loop_
_atom_site_label
_atom_site_type_symbol
_atom_site_fract_x
_atom_site_fract_y
_atom_site_fract_z
_atom_type_partial_charge
Co0 Co 0.46703 0.07911 0.157 0.0
Co1 Co 0.4571 0.11328 0.18412 0.0
C2 C 0.49707 0.11106 0.1993 0.0
O3 O 0.49203 0.09557 0.18227 0.0
O4 O 0.48503 0.11967 0.20232 0.0
C5 C 0.49267 0.06635 0.12519 0.0
O6 O 0.50756 0.08722 0.12715 0.0
C7 C 0.46233 0.1546 0.20538 0.0
C8 C 0.42813 0.14786 0.20499 0.0
C9 C 0.44933 0.16363 0.21197 0.0
N10 N 0.44934 0.13438 0.19528 0.0
N11 N 0.42894 0.13046 0.19505 0.0
C12 C 0.48677 0.16535 0.20687 0.0
H13 H 0.49297 0.15946 0.18988 0.0
H14 H 0.49453 0.18346 0.20573 0.0
H15 H 0.49143 0.16086 0.22651 0.0
C16 C 0.46279 0.09991 0.10658 0.0
N17 N 0.46277 0.09815 0.13399 0.0
N18 N 0.45926 0.11313 0.14515 0.0
C19 C 0.45733 0.12522 0.12501 0.0
C20 C 0.45965 0.1173 0.0999 0.0
C21 C 0.46411 0.08418 0.0871 0.0
H22 H 0.45573 0.06743 0.09588 0.0
H23 H 0.48157 0.08932 0.08346 0.0
H24 H 0.45639 0.08382 0.06715 0.0
O25 O 0.44044 0.06026 0.17847 0.0
O26 O 0.43351 0.08449 0.19825 0.0
H27 H 0.4372 0.13839 0.13745 0.0
H28 H 0.45662 0.15398 0.11079 0.0
C29 C 0.45409 0.14439 0.12981 0.0
H30 H 0.46573 0.1552 0.14569 0.0
H31 H 0.41554 0.11584 0.18825 0.0
O32 O 0.47391 0.05957 0.13584 0.0
C33 C 0.42891 0.06475 0.19436 0.0
Co34 Co 0.38345 0.46249 0.15935 0.0
Co35 Co 0.33914 0.45152 0.18709 0.0
C36 C 0.38045 0.49392 0.19849 0.0
O37 O 0.39124 0.48864 0.18224 0.0
O38 O 0.35988 0.48131 0.20223 0.0
C39 C 0.42602 0.48479 0.13306 0.0
O40 O 0.4276 0.50296 0.14263 0.0
C41 C 0.29863 0.45236 0.20139 0.0
C42 C 0.27553 0.4168 0.2058 0.0
C43 C 0.27681 0.43705 0.20621 0.0
N44 N 0.30971 0.44154 0.19803 0.0
N45 N 0.29585 0.42035 0.20113 0.0
C46 C 0.30839 0.47653 0.19762 0.0
H47 H 0.32337 0.48318 0.18477 0.0
H48 H 0.29631 0.48028 0.18816 0.0
H49 H 0.31298 0.48461 0.21796 0.0
C50 C 0.35754 0.45523 0.10933 0.0
N51 N 0.35934 0.45577 0.13675 0.0
N52 N 0.34049 0.45106 0.14789 0.0
C53 C 0.32593 0.44727 0.12761 0.0
C54 C 0.33625 0.44967 0.10252 0.0
C55 C 0.37643 0.46161 0.09024 0.0
H56 H 0.38152 0.44903 0.09113 0.0
H57 H 0.39051 0.47745 0.09695 0.0
H58 H 0.37235 0.46338 0.06882 0.0
O59 O 0.37763 0.43791 0.18366 0.0
O60 O 0.34682 0.43062 0.2045 0.0
H61 H 0.29461 0.4266 0.1459 0.0
H62 H 0.2932 0.43686 0.11259 0.0
C63 C 0.30249 0.44099 0.1321 0.0
H64 H 0.30181 0.45478 0.14206 0.0
H65 H 0.30013 0.40823 0.19903 0.0
O66 O 0.40865 0.46665 0.13731 0.0
C67 C 0.36265 0.42702 0.20103 0.0
Co68 Co 0.91729 0.39188 0.15674 0.0
Co69 Co 0.88317 0.34829 0.18494 0.0
C70 C 0.88375 0.39029 0.19644 0.0
O71 O 0.89985 0.40055 0.18012 0.0
O72 O 0.87531 0.36973 0.20043 0.0
C73 C 0.93329 0.43048 0.12246 0.0
O74 O 0.91302 0.42665 0.12232 0.0
C75 C 0.84218 0.31119 0.20623 0.0
C76 C 0.85052 0.28482 0.20607 0.0
C77 C 0.83401 0.28925 0.21272 0.0
N78 N 0.86264 0.31932 0.19644 0.0
N79 N 0.8675 0.30347 0.19638 0.0
C80 C 0.83043 0.32394 0.20751 0.0
H81 H 0.83603 0.33611 0.19064 0.0
H82 H 0.81242 0.31292 0.20604 0.0
H83 H 0.83431 0.33293 0.22724 0.0
C84 C 0.89793 0.36557 0.10689 0.0
N85 N 0.8991 0.36792 0.13424 0.0
N86 N 0.88417 0.34957 0.14573 0.0
C87 C 0.87261 0.33503 0.12577 0.0
C88 C 0.8809 0.34477 0.10049 0.0
C89 C 0.91392 0.38234 0.08734 0.0
H90 H 0.93055 0.39079 0.09645 0.0
H91 H 0.90887 0.39465 0.08303 0.0
H92 H 0.91456 0.37474 0.06772 0.0
O93 O 0.93591 0.38486 0.17938 0.0
O94 O 0.91192 0.35452 0.201 0.0
H95 H 0.8595 0.3019 0.13895 0.0
H96 H 0.84405 0.30531 0.11178 0.0
C97 C 0.85348 0.31265 0.13082 0.0
H98 H 0.84252 0.3136 0.14637 0.0
H99 H 0.88246 0.30542 0.18976 0.0
O100 O 0.93784 0.41754 0.13518 0.0
C101 C 0.93153 0.36955 0.19631 0.0
Co102 Co 0.53764 0.92574 0.15321 0.0
Co103 Co 0.54095 0.88769 0.18127 0.0
C104 C 0.50285 0.89364 0.19209 0.0
O105 O 0.51142 0.91077 0.17717 0.0
O106 O 0.51185 0.88192 0.19492 0.0
C107 C 0.51636 0.94456 0.12318 0.0
O108 O 0.4985 0.92602 0.12904 0.0
C109 C 0.53334 0.84532 0.20331 0.0
C110 C 0.5671 0.85075 0.20257 0.0
C111 C 0.54574 0.83554 0.20958 0.0
N112 N 0.54684 0.86533 0.19287 0.0
N113 N 0.56696 0.86843 0.19247 0.0
C114 C 0.50958 0.83685 0.2092 0.0
H115 H 0.50795 0.84872 0.22249 0.0
H116 H 0.50086 0.83553 0.18974 0.0
H117 H 0.50178 0.82075 0.21971 0.0
C118 C 0.54149 0.90424 0.10344 0.0
N119 N 0.54083 0.90577 0.13082 0.0
N120 N 0.5421 0.88953 0.14224 0.0
C121 C 0.54335 0.87691 0.12229 0.0
C122 C 0.54292 0.88581 0.09704 0.0
C123 C 0.54151 0.92062 0.08386 0.0
H124 H 0.5246 0.91782 0.08202 0.0
H125 H 0.54739 0.91928 0.06328 0.0
H126 H 0.55222 0.93745 0.09177 0.0
O127 O 0.56329 0.94227 0.17665 0.0
O128 O 0.56409 0.91534 0.1991 0.0
H129 H 0.55982 0.86006 0.13558 0.0
H130 H 0.54049 0.84645 0.10816 0.0
C131 C 0.54358 0.85608 0.12728 0.0
H132 H 0.53094 0.84604 0.14269 0.0
H133 H 0.58064 0.88275 0.18552 0.0
O134 O 0.53483 0.94751 0.131 0.0
C135 C 0.57145 0.93573 0.19503 0.0
Co136 Co 0.60966 0.529 0.15703 0.0
Co137 Co 0.65558 0.54439 0.18332 0.0
C138 C 0.61674 0.50282 0.20122 0.0
O139 O 0.60489 0.50615 0.18435 0.0
O140 O 0.63733 0.51618 0.2033 0.0
C141 C 0.56868 0.50004 0.12951 0.0
O142 O 0.57325 0.48435 0.13391 0.0
C143 C 0.69846 0.55378 0.20819 0.0
C144 C 0.71978 0.58594 0.18871 0.0
C145 C 0.72012 0.57089 0.20664 0.0
N146 N 0.68615 0.55859 0.19158 0.0
N147 N 0.69905 0.57788 0.18022 0.0
C148 C 0.68926 0.53428 0.22675 0.0
H149 H 0.67196 0.52887 0.23183 0.0
H150 H 0.68983 0.52063 0.21618 0.0
H151 H 0.6989 0.53814 0.24596 0.0
C152 C 0.63392 0.53344 0.10622 0.0
N153 N 0.63293 0.53461 0.13361 0.0
N154 N 0.6521 0.53996 0.14433 0.0
C155 C 0.66577 0.54156 0.12384 0.0
C156 C 0.65475 0.53781 0.09909 0.0
C157 C 0.61486 0.52722 0.08749 0.0
H158 H 0.60699 0.53705 0.09253 0.0
H159 H 0.60261 0.50968 0.0907 0.0
H160 H 0.61975 0.52958 0.06564 0.0
O161 O 0.61519 0.55585 0.17573 0.0
O162 O 0.64662 0.56566 0.19686 0.0
H163 H 0.6999 0.56461 0.12806 0.0
H164 H 0.69418 0.53997 0.1105 0.0
C165 C 0.6889 0.54658 0.12766 0.0
H166 H 0.69056 0.53954 0.14721 0.0
H167 H 0.69359 0.58564 0.16676 0.0
O168 O 0.58223 0.5195 0.13688 0.0
C169 C 0.63056 0.56856 0.19162 0.0
Co170 Co 0.08163 0.60997 0.15028 0.0
Co171 Co 0.11156 0.65424 0.18025 0.0
C172 C 0.11307 0.61272 0.1926 0.0
O173 O 0.09906 0.60182 0.1741 0.0
O174 O 0.119 0.63278 0.19717 0.0
C175 C 0.06411 0.56856 0.12151 0.0
O176 O 0.08076 0.56738 0.13167 0.0
C177 C 0.15241 0.69139 0.2012 0.0
C178 C 0.14315 0.71701 0.20493 0.0
C179 C 0.16037 0.71308 0.20878 0.0
N180 N 0.13152 0.68303 0.19297 0.0
N181 N 0.12608 0.6984 0.19527 0.0
C182 C 0.16355 0.67809 0.20365 0.0
H183 H 0.16326 0.67066 0.18351 0.0
H184 H 0.18061 0.68781 0.21117 0.0
H185 H 0.15429 0.66453 0.21831 0.0
C186 C 0.1023 0.63729 0.10179 0.0
N187 N 0.09966 0.6348 0.12904 0.0
N188 N 0.11266 0.65358 0.14118 0.0
C189 C 0.12424 0.66872 0.12181 0.0
C190 C 0.11813 0.65881 0.0962 0.0
C191 C 0.08881 0.61958 0.08159 0.0
H192 H 0.0936 0.60679 0.08239 0.0
H193 H 0.09081 0.62594 0.0604 0.0
H194 H 0.07124 0.61185 0.0872 0.0
O195 O 0.06164 0.61483 0.17344 0.0
O196 O 0.08183 0.64706 0.19349 0.0
H197 H 0.13361 0.70047 0.13768 0.0
H198 H 0.15001 0.70083 0.10895 0.0
C199 C 0.1414 0.69189 0.1278 0.0
H200 H 0.15354 0.69199 0.14232 0.0
H201 H 0.11068 0.69615 0.19029 0.0
O202 O 0.06219 0.58518 0.12667 0.0
C203 C 0.06335 0.62992 0.18929 0.0
Co204 Co 0.91669 0.53154 0.34336 0.0
Co205 Co 0.88489 0.54624 0.31884 0.0
C206 C 0.88004 0.50264 0.30504 0.0
O207 O 0.89598 0.50637 0.32078 0.0
O208 O 0.87363 0.51657 0.30157 0.0
C209 C 0.93467 0.50605 0.36785 0.0
O210 O 0.91798 0.48852 0.35719 0.0
C211 C 0.8507 0.55488 0.29471 0.0
C212 C 0.86033 0.58628 0.31555 0.0
C213 C 0.84546 0.57148 0.29695 0.0
N214 N 0.86771 0.55974 0.31154 0.0
N215 N 0.87337 0.57857 0.32372 0.0
C216 C 0.84126 0.53593 0.27528 0.0
H217 H 0.85346 0.53083 0.27061 0.0
H218 H 0.82675 0.5219 0.28489 0.0
H219 H 0.83604 0.54028 0.25596 0.0
C220 C 0.90053 0.53929 0.39497 0.0
N221 N 0.9014 0.53978 0.36749 0.0
N222 N 0.88658 0.5441 0.35776 0.0
C223 C 0.87511 0.54567 0.37901 0.0
C224 C 0.88365 0.54275 0.40328 0.0
C225 C 0.91607 0.53617 0.41279 0.0
H226 H 0.93289 0.54549 0.40427 0.0
H227 H 0.91109 0.51853 0.41319 0.0
H228 H 0.91634 0.5419 0.43401 0.0
O229 O 0.93574 0.55519 0.31861 0.0
O230 O 0.91413 0.56693 0.30202 0.0
H231 H 0.85949 0.56495 0.37657 0.0
H232 H 0.8435 0.53911 0.39358 0.0
C233 C 0.85487 0.54741 0.37624 0.0
H234 H 0.84636 0.53996 0.35673 0.0
H235 H 0.8864 0.58632 0.33744 0.0
O236 O 0.93645 0.5247 0.36417 0.0
C237 C 0.93272 0.5681 0.30354 0.0
Co238 Co 0.38725 0.92529 0.34798 0.0
Co239 Co 0.34511 0.88996 0.31827 0.0
C240 C 0.38835 0.89463 0.30528 0.0
O241 O 0.3976 0.91098 0.32147 0.0
O242 O 0.36757 0.88376 0.30253 0.0
C243 C 0.42794 0.94244 0.37705 0.0
O244 O 0.4279 0.92491 0.36775 0.0
C245 C 0.30921 0.84848 0.29655 0.0
C246 C 0.28245 0.85622 0.29417 0.0
C247 C 0.28743 0.83986 0.28889 0.0
N248 N 0.3167 0.869 0.30572 0.0
N249 N 0.30063 0.87352 0.30424 0.0
C250 C 0.32241 0.83718 0.29686 0.0
H251 H 0.33437 0.8435 0.31397 0.0
H252 H 0.31165 0.81918 0.299 0.0
H253 H 0.33169 0.84067 0.27739 0.0
C254 C 0.36137 0.90241 0.39673 0.0
N255 N 0.36381 0.90473 0.36944 0.0
N256 N 0.34582 0.88975 0.35737 0.0
C257 C 0.33133 0.87714 0.37683 0.0
C258 C 0.34067 0.88492 0.4024 0.0
C259 C 0.37901 0.91621 0.41682 0.0
H260 H 0.39372 0.91482 0.41249 0.0
H261 H 0.37398 0.91111 0.4383 0.0
H262 H 0.38359 0.93364 0.41427 0.0
O263 O 0.37855 0.94371 0.32773 0.0
O264 O 0.3506 0.91878 0.30328 0.0
H265 H 0.30006 0.85017 0.3901 0.0
H266 H 0.30994 0.84656 0.35736 0.0
C267 C 0.3088 0.85853 0.37103 0.0
H268 H 0.29925 0.86485 0.36022 0.0
H269 H 0.30212 0.88845 0.3101 0.0
O270 O 0.412 0.94538 0.37139 0.0
C271 C 0.36386 0.93866 0.30963 0.0
Co272 Co 0.47178 0.39167 0.35839 0.0
Co273 Co 0.46208 0.35043 0.3238 0.0
C274 C 0.50415 0.39305 0.31739 0.0
O275 O 0.4986 0.40192 0.33605 0.0
O276 O 0.49156 0.37326 0.30996 0.0
C277 C 0.49532 0.42878 0.39385 0.0
O278 O 0.51182 0.42534 0.38997 0.0
C279 C 0.46608 0.31297 0.30304 0.0
C280 C 0.43212 0.29095 0.28903 0.0
C281 C 0.45255 0.29268 0.29095 0.0
N282 N 0.45405 0.3226 0.3081 0.0
N283 N 0.43379 0.30931 0.29969 0.0
C284 C 0.49016 0.3235 0.30854 0.0
H285 H 0.49277 0.31714 0.3281 0.0
H286 H 0.49841 0.31959 0.29193 0.0
H287 H 0.49769 0.34148 0.31051 0.0
C288 C 0.46281 0.36121 0.40406 0.0
N289 N 0.46512 0.36587 0.37718 0.0
N290 N 0.46111 0.34829 0.36314 0.0
C291 C 0.45618 0.33176 0.38098 0.0
C292 C 0.45702 0.33944 0.40743 0.0
C293 C 0.46682 0.37767 0.426 0.0
H294 H 0.45622 0.38491 0.42242 0.0
H295 H 0.48413 0.39103 0.42492 0.0
H296 H 0.46376 0.37046 0.44681 0.0
O297 O 0.44656 0.38671 0.33563 0.0
O298 O 0.44008 0.35805 0.30997 0.0
H299 H 0.43636 0.30273 0.35764 0.0
H300 H 0.4444 0.2977 0.39084 0.0
C301 C 0.4498 0.30886 0.37289 0.0
H302 H 0.46403 0.30886 0.36321 0.0
H303 H 0.42108 0.31282 0.30115 0.0
O304 O 0.47679 0.41565 0.3834 0.0
C305 C 0.43572 0.37284 0.31706 0.0
Co306 Co 0.07846 0.46962 0.34709 0.0
Co307 Co 0.11059 0.4581 0.31731 0.0
C308 C 0.11236 0.50083 0.30748 0.0
O309 O 0.09704 0.49594 0.32473 0.0
O310 O 0.1194 0.48774 0.30188 0.0
C311 C 0.06291 0.49304 0.38088 0.0
O312 O 0.08318 0.50948 0.38075 0.0
C313 C 0.14775 0.45749 0.28966 0.0
C314 C 0.13725 0.42232 0.2938 0.0
C315 C 0.15319 0.44178 0.28235 0.0
N316 N 0.12932 0.44767 0.30479 0.0
N317 N 0.12334 0.42673 0.30745 0.0
C318 C 0.15837 0.48075 0.28011 0.0
H319 H 0.14748 0.48236 0.265 0.0
H320 H 0.16042 0.49159 0.29771 0.0
H321 H 0.1745 0.48604 0.27043 0.0
C322 C 0.09813 0.46189 0.39602 0.0
N323 N 0.09602 0.46245 0.36873 0.0
N324 N 0.11026 0.45834 0.35658 0.0
C325 C 0.12219 0.45534 0.37599 0.0
C326 C 0.11494 0.45761 0.40162 0.0
C327 C 0.08375 0.46464 0.41631 0.0
H328 H 0.06668 0.4567 0.40857 0.0
H329 H 0.08976 0.48237 0.41921 0.0
H330 H 0.08382 0.45733 0.43642 0.0
O331 O 0.05884 0.44508 0.3234 0.0
O332 O 0.0813 0.43667 0.30195 0.0
H333 H 0.13448 0.4344 0.36391 0.0
H334 H 0.15155 0.45512 0.38842 0.0
C335 C 0.14098 0.45171 0.37013 0.0
H336 H 0.15091 0.4624 0.35298 0.0
H337 H 0.10921 0.41527 0.31769 0.0
O338 O 0.0584 0.47526 0.36898 0.0
C339 C 0.06209 0.43344 0.30629 0.0
Co340 Co 0.60946 0.07632 0.35435 0.0
Co341 Co 0.65115 0.10864 0.32092 0.0
C342 C 0.60815 0.10684 0.31261 0.0
O343 O 0.59914 0.09241 0.3312 0.0
O344 O 0.62813 0.11446 0.30589 0.0
C345 C 0.5722 0.06323 0.3889 0.0
O346 O 0.57668 0.08357 0.38549 0.0
C347 C 0.68786 0.15102 0.3014 0.0
C348 C 0.71127 0.14073 0.28774 0.0
C349 C 0.7085 0.15882 0.28982 0.0
N350 N 0.67902 0.12937 0.30605 0.0
N351 N 0.69314 0.12339 0.29786 0.0
C352 C 0.67628 0.16362 0.30672 0.0
H353 H 0.65842 0.15253 0.30873 0.0
H354 H 0.6823 0.1728 0.32621 0.0
H355 H 0.67965 0.17558 0.29001 0.0
C356 C 0.63869 0.09851 0.40094 0.0
N357 N 0.63467 0.09587 0.37391 0.0
N358 N 0.65235 0.10987 0.36033 0.0
C359 C 0.66825 0.12209 0.37863 0.0
C360 C 0.66009 0.1152 0.40488 0.0
C361 C 0.62194 0.08576 0.42247 0.0
H362 H 0.61418 0.06797 0.41803 0.0
H363 H 0.60902 0.09035 0.42195 0.0
H364 H 0.62902 0.08904 0.44335 0.0
O365 O 0.61552 0.05657 0.33218 0.0
O366 O 0.64459 0.07919 0.30738 0.0
H367 H 0.69794 0.13282 0.35603 0.0
H368 H 0.70183 0.14527 0.38952 0.0
C369 C 0.69103 0.13941 0.37124 0.0
H370 H 0.69052 0.15345 0.36181 0.0
H371 H 0.69034 0.10739 0.29907 0.0
O372 O 0.58487 0.05719 0.37852 0.0
C373 C 0.62991 0.05989 0.3142 0.0
Co374 Co 0.52842 0.60745 0.34828 0.0
Co375 Co 0.53585 0.65007 0.31911 0.0
C376 C 0.4947 0.60712 0.31032 0.0
O377 O 0.50106 0.59741 0.32679 0.0
O378 O 0.50643 0.62752 0.30502 0.0
C379 C 0.50761 0.56787 0.38095 0.0
O380 O 0.48909 0.56721 0.3751 0.0
C381 C 0.52983 0.68621 0.29906 0.0
C382 C 0.56431 0.71248 0.29414 0.0
C383 C 0.54288 0.70788 0.29079 0.0
N384 N 0.54302 0.67847 0.3067 0.0
N385 N 0.56359 0.69425 0.30373 0.0
C386 C 0.50539 0.67339 0.30147 0.0
H387 H 0.50048 0.66119 0.31824 0.0
H388 H 0.49866 0.6844 0.30546 0.0
H389 H 0.49837 0.66441 0.28205 0.0
C390 C 0.53539 0.63445 0.39734 0.0
N391 N 0.53428 0.63183 0.37002 0.0
N392 N 0.53698 0.64981 0.35822 0.0
C393 C 0.53972 0.66447 0.37791 0.0
C394 C 0.53863 0.6551 0.40336 0.0
C395 C 0.53414 0.61768 0.41727 0.0
H396 H 0.54431 0.61078 0.40986 0.0
H397 H 0.5169 0.60417 0.41883 0.0
H398 H 0.54002 0.6248 0.4379 0.0
O399 O 0.55299 0.61417 0.32328 0.0
O400 O 0.55818 0.64423 0.30217 0.0
H401 H 0.5578 0.69686 0.36155 0.0
H402 H 0.5419 0.69474 0.39167 0.0
C403 C 0.54212 0.68646 0.37245 0.0
H404 H 0.5286 0.68452 0.35898 0.0
H405 H 0.57714 0.69253 0.30821 0.0
O406 O 0.52551 0.58335 0.37162 0.0
C407 C 0.56312 0.62932 0.30578 0.0
Co408 Co 0.5395 0.92662 0.84665 0.0
Co409 Co 0.54471 0.89008 0.81731 0.0
C410 C 0.50702 0.89646 0.80442 0.0
O411 O 0.51458 0.9129 0.82047 0.0
O412 O 0.51647 0.88517 0.80164 0.0
C413 C 0.5165 0.94323 0.87738 0.0
O414 O 0.49915 0.92454 0.87064 0.0
C415 C 0.53806 0.84697 0.79809 0.0
C416 C 0.57254 0.85578 0.79125 0.0
C417 C 0.55118 0.83856 0.78938 0.0
N418 N 0.55117 0.86818 0.80492 0.0
N419 N 0.57173 0.87324 0.80084 0.0
C420 C 0.51353 0.83532 0.79865 0.0
H421 H 0.50746 0.84704 0.79774 0.0
H422 H 0.50761 0.82594 0.81803 0.0
H423 H 0.5066 0.82363 0.78131 0.0
C424 C 0.54147 0.90342 0.89567 0.0
N425 N 0.54158 0.9057 0.86835 0.0
N426 N 0.54384 0.89017 0.8565 0.0
C427 C 0.54498 0.87726 0.87615 0.0
C428 C 0.54331 0.88515 0.90163 0.0
C429 C 0.54114 0.91938 0.91568 0.0
H430 H 0.52416 0.91639 0.91748 0.0
H431 H 0.54693 0.91781 0.93623 0.0
H432 H 0.55184 0.93637 0.90827 0.0
O433 O 0.56673 0.94419 0.82643 0.0
O434 O 0.56888 0.91863 0.80225 0.0
H435 H 0.56236 0.86224 0.8596 0.0
H436 H 0.54621 0.84857 0.88967 0.0
C437 C 0.54677 0.85734 0.87055 0.0
H438 H 0.5331 0.84608 0.85706 0.0
H439 H 0.58524 0.88874 0.80439 0.0
O440 O 0.53532 0.94719 0.86959 0.0
C441 C 0.57609 0.93866 0.8085 0.0
Co442 Co 0.60821 0.529 0.84617 0.0
Co443 Co 0.65264 0.54006 0.81878 0.0
C444 C 0.61079 0.49938 0.80382 0.0
O445 O 0.59999 0.50406 0.82077 0.0
O446 O 0.63143 0.51179 0.80095 0.0
C447 C 0.56857 0.50403 0.87709 0.0
O448 O 0.57223 0.48762 0.87382 0.0
C449 C 0.6902 0.53762 0.79575 0.0
C450 C 0.71766 0.57021 0.80726 0.0
C451 C 0.71293 0.55058 0.79504 0.0
N452 N 0.68206 0.54891 0.80857 0.0
N453 N 0.69854 0.56848 0.81499 0.0
C454 C 0.67621 0.51585 0.78235 0.0
H455 H 0.6623 0.51585 0.77181 0.0
H456 H 0.66951 0.50282 0.79821 0.0
H457 H 0.68544 0.51218 0.76688 0.0
C458 C 0.63319 0.53351 0.89656 0.0
N459 N 0.63158 0.53367 0.86913 0.0
N460 N 0.65021 0.53759 0.85798 0.0
C461 C 0.66412 0.53936 0.87824 0.0
C462 C 0.65385 0.53711 0.90328 0.0
C463 C 0.61484 0.52895 0.91584 0.0
H464 H 0.60756 0.53921 0.9103 0.0
H465 H 0.60199 0.51148 0.91394 0.0
H466 H 0.62023 0.53201 0.93748 0.0
O467 O 0.61576 0.55567 0.82525 0.0
O468 O 0.64674 0.56321 0.80431 0.0
H469 H 0.69784 0.56107 0.86908 0.0
H470 H 0.69333 0.53956 0.89246 0.0
C471 C 0.6869 0.54348 0.87389 0.0
H472 H 0.68717 0.53351 0.8565 0.0
H473 H 0.69673 0.58054 0.82511 0.0
O474 O 0.5821 0.52275 0.86748 0.0
C475 C 0.63147 0.56742 0.80916 0.0
Co476 Co 0.0784 0.60911 0.84912 0.0
Co477 Co 0.11226 0.65146 0.81805 0.0
C478 C 0.10964 0.60827 0.80813 0.0
O479 O 0.09465 0.59902 0.82603 0.0
O480 O 0.11794 0.62851 0.8023 0.0
C481 C 0.06548 0.57224 0.88393 0.0
O482 O 0.08628 0.57793 0.88213 0.0
C483 C 0.15466 0.68845 0.79851 0.0
C484 C 0.14436 0.71247 0.78788 0.0
C485 C 0.1623 0.70938 0.78798 0.0
N486 N 0.1332 0.6797 0.80441 0.0
N487 N 0.12724 0.69422 0.79808 0.0
C488 C 0.16721 0.67659 0.8017 0.0
H489 H 0.15606 0.6587 0.80332 0.0
H490 H 0.17707 0.68216 0.82075 0.0
H491 H 0.17856 0.68023 0.78418 0.0
C492 C 0.10028 0.63703 0.8972 0.0
N493 N 0.09792 0.63371 0.87001 0.0
N494 N 0.11254 0.65157 0.85727 0.0
C495 C 0.12472 0.66689 0.87619 0.0
C496 C 0.11745 0.65803 0.90207 0.0
C497 C 0.08558 0.62083 0.91819 0.0
H498 H 0.06845 0.61199 0.91064 0.0
H499 H 0.09102 0.60876 0.92204 0.0
H500 H 0.08612 0.62902 0.93783 0.0
O501 O 0.05938 0.61574 0.8261 0.0
O502 O 0.08335 0.64579 0.80409 0.0
H503 H 0.13705 0.69801 0.85662 0.0
H504 H 0.15077 0.69903 0.88841 0.0
C505 C 0.14319 0.68931 0.86962 0.0
H506 H 0.15585 0.68785 0.85786 0.0
H507 H 0.11136 0.69155 0.80048 0.0
O508 O 0.05886 0.58399 0.87227 0.0
C509 C 0.06366 0.63098 0.80896 0.0
Co510 Co 0.46261 0.07351 0.84935 0.0
Co511 Co 0.45558 0.1088 0.82035 0.0
C512 C 0.49388 0.10435 0.80621 0.0
O513 O 0.48682 0.08796 0.82229 0.0
O514 O 0.48404 0.11528 0.80381 0.0
C515 C 0.48807 0.06125 0.88207 0.0
O516 O 0.50284 0.08213 0.87982 0.0
C517 C 0.46089 0.15007 0.79856 0.0
C518 C 0.42651 0.14281 0.79794 0.0
C519 C 0.44775 0.15887 0.79162 0.0
N520 N 0.44793 0.12972 0.8083 0.0
N521 N 0.42742 0.12549 0.80789 0.0
C522 C 0.48538 0.16115 0.79786 0.0
H523 H 0.49137 0.15509 0.81487 0.0
H524 H 0.49286 0.17921 0.79952 0.0
H525 H 0.49057 0.15718 0.77825 0.0
C526 C 0.46009 0.09643 0.8987 0.0
N527 N 0.45994 0.09398 0.87138 0.0
N528 N 0.45715 0.10916 0.85944 0.0
C529 C 0.45583 0.12205 0.87896 0.0
C530 C 0.4578 0.11445 0.90446 0.0
C531 C 0.4607 0.08079 0.91899 0.0
H532 H 0.45195 0.06386 0.91076 0.0
H533 H 0.47801 0.08551 0.92303 0.0
H534 H 0.453 0.08115 0.93867 0.0
O535 O 0.43508 0.05482 0.83011 0.0
O536 O 0.43194 0.07979 0.80587 0.0
H537 H 0.43699 0.13617 0.86467 0.0
H538 H 0.45579 0.15142 0.89202 0.0
C539 C 0.45352 0.14166 0.87322 0.0
H540 H 0.46582 0.15216 0.85773 0.0
H541 H 0.41404 0.11073 0.81439 0.0
O542 O 0.46932 0.05423 0.87129 0.0
C543 C 0.42526 0.05989 0.81229 0.0
Co544 Co 0.38713 0.46693 0.85336 0.0
Co545 Co 0.34373 0.45527 0.82305 0.0
C546 C 0.38577 0.4968 0.81057 0.0
O547 O 0.39618 0.49213 0.82817 0.0
O548 O 0.36527 0.48416 0.80668 0.0
C549 C 0.42824 0.49087 0.88207 0.0
O550 O 0.42891 0.5085 0.87201 0.0
C551 C 0.30702 0.45921 0.80147 0.0
C552 C 0.28171 0.42441 0.79606 0.0
C553 C 0.28572 0.44562 0.79234 0.0
N554 N 0.31519 0.44658 0.8099 0.0
N555 N 0.29999 0.42581 0.80666 0.0
C556 C 0.31913 0.48367 0.80376 0.0
H557 H 0.33075 0.48894 0.82123 0.0
H558 H 0.30759 0.48992 0.80656 0.0
H559 H 0.32873 0.49082 0.78476 0.0
C560 C 0.35996 0.461 0.90172 0.0
N561 N 0.3627 0.46158 0.87446 0.0
N562 N 0.34408 0.4563 0.86222 0.0
C563 C 0.32875 0.45216 0.88157 0.0
C564 C 0.33832 0.45482 0.90725 0.0
C565 C 0.37805 0.46688 0.92197 0.0
H566 H 0.38318 0.45434 0.92128 0.0
H567 H 0.39235 0.48289 0.91627 0.0
H568 H 0.37306 0.4681 0.94312 0.0
O569 O 0.3809 0.44069 0.83209 0.0
O570 O 0.35085 0.43305 0.8088 0.0
H571 H 0.29804 0.42921 0.86367 0.0
H572 H 0.29559 0.44196 0.89456 0.0
C573 C 0.30523 0.4447 0.87554 0.0
H574 H 0.30422 0.45718 0.86274 0.0
H575 H 0.30215 0.41259 0.81155 0.0
O576 O 0.4118 0.47217 0.8771 0.0
C577 C 0.36613 0.42912 0.8148 0.0
Co578 Co 0.92765 0.38644 0.84841 0.0
Co579 Co 0.88972 0.34473 0.82094 0.0
C580 C 0.89553 0.38852 0.80893 0.0
O581 O 0.91269 0.39733 0.82381 0.0
O582 O 0.88383 0.36777 0.80656 0.0
C583 C 0.94554 0.42648 0.87832 0.0
O584 O 0.92689 0.42539 0.87199 0.0
C585 C 0.8469 0.30967 0.80099 0.0
C586 C 0.8534 0.28209 0.7978 0.0
C587 C 0.83747 0.2878 0.79339 0.0
N588 N 0.86745 0.31646 0.8096 0.0
N589 N 0.87117 0.29988 0.80775 0.0
C590 C 0.83757 0.32455 0.79794 0.0
H591 H 0.83917 0.3331 0.81761 0.0
H592 H 0.8202 0.31565 0.79136 0.0
H593 H 0.84724 0.33724 0.78239 0.0
C594 C 0.90592 0.36163 0.89852 0.0
N595 N 0.90763 0.3635 0.87112 0.0
N596 N 0.89149 0.34582 0.85987 0.0
C597 C 0.87882 0.33213 0.87993 0.0
C598 C 0.88753 0.34179 0.90508 0.0
C599 C 0.92196 0.37834 0.91806 0.0
H600 H 0.93892 0.38448 0.91059 0.0
H601 H 0.91898 0.39237 0.9192 0.0
H602 H 0.9204 0.37142 0.93888 0.0
O603 O 0.94436 0.37709 0.82552 0.0
O604 O 0.91738 0.34908 0.80351 0.0
H605 H 0.86209 0.29918 0.86519 0.0
H606 H 0.84909 0.30374 0.89439 0.0
C607 C 0.85809 0.31094 0.87504 0.0
H608 H 0.84742 0.31371 0.86084 0.0
H609 H 0.88601 0.30085 0.8129 0.0
O610 O 0.94906 0.41131 0.8706 0.0
C611 C 0.93777 0.36211 0.80748 0.0
Co612 Co 0.07705 0.46456 0.65173 0.0
Co613 Co 0.10985 0.45353 0.68057 0.0
C614 C 0.10809 0.49377 0.69547 0.0
O615 O 0.09288 0.48901 0.67809 0.0
O616 O 0.1165 0.48155 0.6986 0.0
C617 C 0.06515 0.49086 0.61957 0.0
O618 O 0.08592 0.50585 0.62223 0.0
C619 C 0.15069 0.45755 0.70212 0.0
C620 C 0.14281 0.42295 0.70176 0.0
C621 C 0.15919 0.444 0.70821 0.0
N622 N 0.13029 0.44502 0.69225 0.0
N623 N 0.12569 0.42439 0.6921 0.0
C624 C 0.16073 0.48159 0.70762 0.0
H625 H 0.15046 0.4841 0.72274 0.0
H626 H 0.16083 0.49012 0.68846 0.0
H627 H 0.17753 0.48895 0.71603 0.0
C628 C 0.09918 0.46095 0.60233 0.0
N629 N 0.09661 0.4605 0.62964 0.0
N630 N 0.11083 0.4562 0.64147 0.0
C631 C 0.12324 0.45415 0.62186 0.0
C632 C 0.11632 0.45725 0.59643 0.0
C633 C 0.08434 0.46311 0.58216 0.0
H634 H 0.0673 0.45474 0.59 0.0
H635 H 0.08988 0.48074 0.57915 0.0
H636 H 0.08456 0.45589 0.56206 0.0
O637 O 0.05729 0.4373 0.67133 0.0
O638 O 0.08046 0.43018 0.69379 0.0
H639 H 0.13508 0.43316 0.63546 0.0
H640 H 0.15142 0.45195 0.60864 0.0
C641 C 0.14175 0.45004 0.62741 0.0
H642 H 0.15269 0.46166 0.64322 0.0
H643 H 0.1108 0.41127 0.68549 0.0
O644 O 0.05828 0.47199 0.62987 0.0
C645 C 0.06102 0.4256 0.68785 0.0
Co646 Co 0.61253 0.07575 0.65276 0.0
Co647 Co 0.65418 0.11201 0.68202 0.0
C648 C 0.61076 0.10681 0.69435 0.0
O649 O 0.60202 0.09037 0.67832 0.0
O650 O 0.63147 0.11801 0.69745 0.0
C651 C 0.57473 0.06247 0.62027 0.0
O652 O 0.58018 0.08313 0.62318 0.0
C653 C 0.68938 0.15401 0.70347 0.0
C654 C 0.71679 0.14726 0.70597 0.0
C655 C 0.71124 0.16324 0.71101 0.0
N656 N 0.68239 0.13351 0.69455 0.0
N657 N 0.69883 0.12957 0.69613 0.0
C658 C 0.67565 0.16475 0.70305 0.0
H659 H 0.66617 0.1609 0.7224 0.0
H660 H 0.66385 0.15827 0.68577 0.0
H661 H 0.68603 0.18281 0.70109 0.0
C662 C 0.6391 0.09769 0.60356 0.0
N663 N 0.63612 0.09597 0.63085 0.0
N664 N 0.65362 0.1117 0.64295 0.0
C665 C 0.66819 0.12429 0.62358 0.0
C666 C 0.65953 0.11572 0.59799 0.0
C667 C 0.62218 0.08284 0.58332 0.0
H668 H 0.61504 0.06555 0.59 0.0
H669 H 0.60886 0.08687 0.58255 0.0
H670 H 0.62887 0.08466 0.56237 0.0
O671 O 0.62096 0.05764 0.67429 0.0
O672 O 0.6493 0.08343 0.69722 0.0
H673 H 0.70032 0.13802 0.64056 0.0
H674 H 0.69895 0.15217 0.61052 0.0
C675 C 0.69025 0.14363 0.62953 0.0
H676 H 0.68835 0.15524 0.64301 0.0
H677 H 0.69777 0.11479 0.69046 0.0
O678 O 0.587 0.05587 0.63045 0.0
C679 C 0.63595 0.06327 0.69216 0.0
Co680 Co 0.52994 0.60752 0.65424 0.0
Co681 Co 0.53904 0.65085 0.68305 0.0
C682 C 0.49801 0.60845 0.69429 0.0
O683 O 0.50366 0.59835 0.67749 0.0
O684 O 0.51003 0.62892 0.69887 0.0
C685 C 0.50646 0.56719 0.62402 0.0
O686 O 0.48883 0.56775 0.63148 0.0
C687 C 0.5343 0.68751 0.70384 0.0
C688 C 0.56898 0.71377 0.70634 0.0
C689 C 0.54776 0.70929 0.71133 0.0
N690 N 0.54705 0.67956 0.69509 0.0
N691 N 0.56774 0.69533 0.69661 0.0
C692 C 0.50978 0.67475 0.70317 0.0
H693 H 0.50407 0.66252 0.68636 0.0
H694 H 0.50293 0.68579 0.70027 0.0
H695 H 0.50363 0.66582 0.72281 0.0
C696 C 0.53572 0.63388 0.60486 0.0
N697 N 0.53534 0.63163 0.63222 0.0
N698 N 0.53874 0.64989 0.64391 0.0
C699 C 0.54123 0.66439 0.62413 0.0
C700 C 0.53925 0.65463 0.59873 0.0
C701 C 0.53371 0.61672 0.58506 0.0
H702 H 0.54367 0.60953 0.59225 0.0
H703 H 0.51632 0.60346 0.58403 0.0
H704 H 0.53931 0.62355 0.56425 0.0
O705 O 0.55535 0.61429 0.67772 0.0
O706 O 0.56163 0.64479 0.69864 0.0
H707 H 0.56065 0.69711 0.63901 0.0
H708 H 0.5432 0.69459 0.61043 0.0
C709 C 0.54434 0.68668 0.62952 0.0
H710 H 0.5317 0.68533 0.64418 0.0
H711 H 0.58103 0.69347 0.69106 0.0
O712 O 0.52521 0.58254 0.63129 0.0
C713 C 0.5662 0.62965 0.69471 0.0
Co714 Co 0.92651 0.53705 0.65505 0.0
Co715 Co 0.88922 0.54129 0.68352 0.0
C716 C 0.89518 0.50361 0.69613 0.0
O717 O 0.9121 0.51176 0.68079 0.0
O718 O 0.88343 0.51261 0.69852 0.0
C719 C 0.94433 0.51495 0.62437 0.0
O720 O 0.92582 0.49715 0.63051 0.0
C721 C 0.85052 0.538 0.71189 0.0
C722 C 0.85053 0.5671 0.69492 0.0
C723 C 0.83904 0.54936 0.71225 0.0
N724 N 0.86751 0.5483 0.69453 0.0
N725 N 0.86761 0.56585 0.68486 0.0
C726 C 0.84698 0.51916 0.72962 0.0
H727 H 0.86294 0.52056 0.73486 0.0
H728 H 0.83701 0.50359 0.71829 0.0
H729 H 0.83849 0.51876 0.74891 0.0
C730 C 0.90405 0.53918 0.6054 0.0
N731 N 0.90603 0.53931 0.63279 0.0
N732 N 0.88975 0.54045 0.6443 0.0
C733 C 0.8764 0.54036 0.62431 0.0
C734 C 0.88512 0.53967 0.5991 0.0
C735 C 0.92059 0.53966 0.58571 0.0
H736 H 0.93738 0.55052 0.59361 0.0
H737 H 0.91802 0.52286 0.58352 0.0
H738 H 0.91912 0.54565 0.56525 0.0
O739 O 0.94363 0.56388 0.67598 0.0
O740 O 0.91739 0.56499 0.69985 0.0
H741 H 0.85727 0.55581 0.63051 0.0
H742 H 0.84348 0.53067 0.61155 0.0
C743 C 0.85476 0.539 0.62896 0.0
H744 H 0.84713 0.52994 0.64812 0.0
H745 H 0.87933 0.57694 0.67124 0.0
O746 O 0.94763 0.53344 0.63259 0.0
C747 C 0.93756 0.57257 0.69417 0.0
Co748 Co 0.38773 0.92583 0.65273 0.0
Co749 Co 0.34608 0.88876 0.6813 0.0
C750 C 0.38987 0.89464 0.6937 0.0
O751 O 0.39858 0.91133 0.67804 0.0
O752 O 0.36913 0.88311 0.69648 0.0
C753 C 0.42821 0.94346 0.62404 0.0
O754 O 0.42733 0.92521 0.63198 0.0
C755 C 0.31082 0.84634 0.70184 0.0
C756 C 0.28343 0.8531 0.70473 0.0
C757 C 0.28893 0.83703 0.70932 0.0
N758 N 0.31786 0.86696 0.69339 0.0
N759 N 0.30143 0.8709 0.69519 0.0
C760 C 0.32457 0.83562 0.70108 0.0
H761 H 0.33666 0.84258 0.68415 0.0
H762 H 0.31421 0.81763 0.69836 0.0
H763 H 0.33371 0.83893 0.72063 0.0
C764 C 0.36222 0.90368 0.60324 0.0
N765 N 0.36456 0.90545 0.6306 0.0
N766 N 0.3469 0.88962 0.64228 0.0
C767 C 0.33272 0.87705 0.62255 0.0
C768 C 0.34192 0.88568 0.59715 0.0
C769 C 0.37976 0.91832 0.5835 0.0
H770 H 0.39462 0.91708 0.58725 0.0
H771 H 0.3748 0.91387 0.56187 0.0
H772 H 0.38408 0.93558 0.58709 0.0
O773 O 0.37865 0.9432 0.67479 0.0
O774 O 0.3505 0.91685 0.69733 0.0
H775 H 0.30194 0.84959 0.60877 0.0
H776 H 0.31239 0.84569 0.6409 0.0
C777 C 0.31059 0.85765 0.628 0.0
H778 H 0.30055 0.86305 0.63949 0.0
H779 H 0.30253 0.88577 0.6899 0.0
O780 O 0.41256 0.94676 0.63007 0.0
C781 C 0.36364 0.93712 0.69272 0.0
Co782 Co 0.46364 0.38631 0.65327 0.0
Co783 Co 0.45563 0.34398 0.68381 0.0
C784 C 0.4974 0.38637 0.69096 0.0
O785 O 0.4911 0.39587 0.67411 0.0
O786 O 0.48536 0.36622 0.69716 0.0
C787 C 0.48652 0.42389 0.61891 0.0
O788 O 0.5025 0.41945 0.62089 0.0
C789 C 0.46086 0.30747 0.70445 0.0
C790 C 0.4262 0.28202 0.71081 0.0
C791 C 0.44748 0.286 0.71317 0.0
N792 N 0.44796 0.31563 0.69701 0.0
N793 N 0.4273 0.30035 0.7009 0.0
C794 C 0.48537 0.32077 0.70518 0.0
H795 H 0.49041 0.33562 0.71781 0.0
H796 H 0.49168 0.32628 0.68414 0.0
H797 H 0.49288 0.31161 0.71406 0.0
C798 C 0.45452 0.35769 0.60498 0.0
N799 N 0.45654 0.3612 0.63217 0.0
N800 N 0.45383 0.34347 0.64469 0.0
C801 C 0.45028 0.32811 0.62566 0.0
C802 C 0.45045 0.33657 0.59988 0.0
C803 C 0.45836 0.37502 0.58437 0.0
H804 H 0.44876 0.38299 0.59009 0.0
H805 H 0.47598 0.38766 0.58454 0.0
H806 H 0.45401 0.36851 0.56329 0.0
O807 O 0.43968 0.38084 0.67888 0.0
O808 O 0.43415 0.35092 0.70069 0.0
H809 H 0.43183 0.29694 0.64513 0.0
H810 H 0.44429 0.29601 0.61328 0.0
C811 C 0.44662 0.30576 0.63209 0.0
H812 H 0.46083 0.30731 0.64378 0.0
H813 H 0.41394 0.3025 0.69688 0.0
O814 O 0.46824 0.41124 0.63029 0.0
C815 C 0.42963 0.3661 0.69689 0.0
H816 H 0.46667 0.02188 0.12334 0.0
H817 H 0.53164 0.07476 0.1022 0.0
H818 H 0.54268 0.04761 0.0902 0.0
H819 H 0.48315 0.99159 0.1578 0.0
H820 H 0.46137 0.96503 0.14723 0.0
H821 H 0.45693 0.98799 0.14766 0.0
H822 H 0.44582 0.98162 0.09645 0.0
H823 H 0.45013 0.95845 0.09587 0.0
H824 H 0.46418 0.98047 0.07165 0.0
H825 H 0.54876 0.01577 0.08951 0.0
H826 H 0.54943 0.98189 0.10029 0.0
H827 H 0.48044 0.94963 0.12163 0.0
C828 C 0.483 0.02777 0.11529 0.0
C829 C 0.49829 0.05042 0.11365 0.0
C830 C 0.51962 0.05747 0.10352 0.0
C831 C 0.526 0.04216 0.09651 0.0
C832 C 0.51077 0.01992 0.09947 0.0
C833 C 0.48961 0.01273 0.10836 0.0
C834 C 0.47731 0.98825 0.11343 0.0
C835 C 0.46924 0.98293 0.14329 0.0
C836 C 0.45823 0.97651 0.09313 0.0
C837 C 0.49527 0.98298 0.10763 0.0
C838 C 0.51429 0.00136 0.09899 0.0
C839 C 0.53382 0.00115 0.09555 0.0
C840 C 0.53407 0.98186 0.10185 0.0
C841 C 0.51494 0.96314 0.11163 0.0
C842 C 0.49517 0.96353 0.1136 0.0
H843 H 0.5522 0.52769 0.12775 0.0
H844 H 0.53564 0.4608 0.10976 0.0
H845 H 0.49754 0.45147 0.09969 0.0
H846 H 0.50718 0.5146 0.16497 0.0
H847 H 0.50362 0.53707 0.15405 0.0
H848 H 0.53036 0.53984 0.15324 0.0
H849 H 0.53385 0.54956 0.10161 0.0
H850 H 0.50703 0.54692 0.10228 0.0
H851 H 0.51296 0.53122 0.07812 0.0
H852 H 0.46054 0.44799 0.09927 0.0
H853 H 0.42749 0.45001 0.1105 0.0
H854 H 0.46817 0.51903 0.13018 0.0
C855 C 0.54078 0.51125 0.12078 0.0
C856 C 0.5469 0.49499 0.11936 0.0
C857 C 0.53133 0.47354 0.11082 0.0
C858 C 0.50969 0.46814 0.10492 0.0
C859 C 0.50401 0.48441 0.10753 0.0
C860 C 0.51917 0.50558 0.11515 0.0
C861 C 0.50841 0.51921 0.1204 0.0
C862 C 0.51264 0.52818 0.14991 0.0
C863 C 0.51602 0.53783 0.09934 0.0
C864 C 0.48463 0.50209 0.11604 0.0
C865 C 0.48248 0.48229 0.10789 0.0
C866 C 0.46203 0.4635 0.10512 0.0
C867 C 0.44335 0.46481 0.11166 0.0
C868 C 0.44528 0.4847 0.12126 0.0
C869 C 0.46616 0.5037 0.12254 0.0
H870 H 0.05489 0.52606 0.12345 0.0
H871 H 0.03083 0.56766 0.09183 0.0
H872 H 0.99577 0.53493 0.07973 0.0
H873 H 0.02264 0.47774 0.0743 0.0
H874 H 0.01804 0.45855 0.10143 0.0
H875 H 0.04309 0.48467 0.10053 0.0
H876 H 0.03545 0.49268 0.14985 0.0
H877 H 0.01038 0.46686 0.15082 0.0
H878 H 0.00995 0.49185 0.15718 0.0
H879 H 0.96118 0.49907 0.08114 0.0
H880 H 0.93043 0.46281 0.09446 0.0
H881 H 0.97696 0.4444 0.12463 0.0
C882 C 0.04262 0.52824 0.11282 0.0
C883 C 0.04555 0.54933 0.10853 0.0
C884 C 0.0289 0.55159 0.09528 0.0
C885 C 0.00896 0.53309 0.0882 0.0
C886 C 0.00604 0.51246 0.09418 0.0
C887 C 0.02257 0.50991 0.10579 0.0
C888 C 0.0143 0.48633 0.11393 0.0
C889 C 0.02516 0.47623 0.0965 0.0
C890 C 0.01771 0.48434 0.14476 0.0
C891 C 0.99027 0.47639 0.10689 0.0
C892 C 0.98588 0.49156 0.09492 0.0
C893 C 0.96446 0.48684 0.08976 0.0
C894 C 0.94709 0.46625 0.09752 0.0
C895 C 0.9513 0.45078 0.11051 0.0
C896 C 0.97319 0.45576 0.11439 0.0
H897 H 0.01918 0.46468 0.37463 0.0
H898 H 0.06556 0.52849 0.40793 0.0
H899 H 0.03514 0.53566 0.41665 0.0
H900 H 0.99089 0.48171 0.33702 0.0
H901 H 0.96413 0.45794 0.34163 0.0
H902 H 0.98815 0.45538 0.34455 0.0
H903 H 0.97635 0.43905 0.39322 0.0
H904 H 0.95205 0.44137 0.39041 0.0
H905 H 0.97052 0.45386 0.41883 0.0
H906 H 0.00149 0.53864 0.4137 0.0
H907 H 0.96769 0.53773 0.39856 0.0
H908 H 0.94331 0.47223 0.36606 0.0
C909 C 0.02289 0.47986 0.38469 0.0
C910 C 0.04473 0.49601 0.39073 0.0
C911 C 0.04893 0.51585 0.40328 0.0
C912 C 0.03174 0.52 0.40842 0.0
C913 C 0.01049 0.50408 0.40106 0.0
C914 C 0.006 0.48431 0.38964 0.0
C915 C 0.98249 0.4713 0.37983 0.0
C916 C 0.98138 0.46632 0.34894 0.0
C917 C 0.96959 0.45014 0.39658 0.0
C918 C 0.97479 0.48739 0.38601 0.0
C919 C 0.99099 0.50594 0.39891 0.0
C920 C 0.98853 0.52402 0.40416 0.0
C921 C 0.9693 0.52338 0.39533 0.0
C922 C 0.95288 0.50488 0.38115 0.0
C923 C 0.95541 0.48642 0.37726 0.0
H924 H 0.46875 0.9471 0.38014 0.0
H925 H 0.43115 0.97778 0.40441 0.0
H926 H 0.46504 0.01035 0.4201 0.0
H927 H 0.51333 0.97375 0.43512 0.0
H928 H 0.53394 0.97653 0.411 0.0
H929 H 0.50642 0.95354 0.4086 0.0
H930 H 0.50429 0.96372 0.35814 0.0
H931 H 0.5316 0.98667 0.36041 0.0
H932 H 0.50937 0.99088 0.35023 0.0
H933 H 0.50277 0.04202 0.4233 0.0
H934 H 0.54117 0.07001 0.41368 0.0
H935 H 0.55451 0.01885 0.38803 0.0
C936 C 0.46755 0.9603 0.38979 0.0
C937 C 0.44737 0.95993 0.39111 0.0
C938 C 0.44648 0.97774 0.40322 0.0
C939 C 0.46564 0.99625 0.41238 0.0
C940 C 0.48549 0.99659 0.40958 0.0
C941 C 0.48655 0.97894 0.39888 0.0
C942 C 0.51005 0.98461 0.39418 0.0
C943 C 0.5163 0.97132 0.41338 0.0
C944 C 0.51404 0.98129 0.36396 0.0
C945 C 0.52191 0.00861 0.402 0.0
C946 C 0.50754 0.01509 0.41154 0.0
C947 C 0.5143 0.03706 0.41662 0.0
C948 C 0.53612 0.05287 0.41099 0.0
C949 C 0.55082 0.0466 0.40019 0.0
C950 C 0.54377 0.02412 0.39673 0.0
H951 H 0.46604 0.44329 0.39673 0.0
H952 H 0.53327 0.4619 0.416 0.0
H953 H 0.54142 0.49964 0.42544 0.0
H954 H 0.47758 0.48592 0.35825 0.0
H955 H 0.45508 0.48979 0.36811 0.0
H956 H 0.4525 0.46325 0.37126 0.0
H957 H 0.44331 0.46208 0.4228 0.0
H958 H 0.44561 0.48868 0.41978 0.0
H959 H 0.46167 0.48417 0.44494 0.0
H960 H 0.54462 0.53608 0.42161 0.0
H961 H 0.54257 0.56812 0.40535 0.0
H962 H 0.47335 0.52627 0.38803 0.0
C963 C 0.48224 0.45506 0.40408 0.0
C964 C 0.49902 0.44968 0.40565 0.0
C965 C 0.52013 0.46564 0.41477 0.0
C966 C 0.52488 0.48711 0.42031 0.0
C967 C 0.50828 0.49223 0.41693 0.0
C968 C 0.48725 0.47655 0.4094 0.0
C969 C 0.47336 0.48682 0.40271 0.0
C970 C 0.46412 0.48111 0.37335 0.0
C971 C 0.4549 0.48004 0.42382 0.0
C972 C 0.49032 0.51084 0.4055 0.0
C973 C 0.51017 0.5136 0.41454 0.0
C974 C 0.52903 0.53417 0.41528 0.0
C975 C 0.52774 0.55225 0.40582 0.0
C976 C 0.50777 0.54961 0.39552 0.0
C977 C 0.48869 0.52879 0.39634 0.0
H978 H 0.46285 0.0167 0.88297 0.0
H979 H 0.52693 0.07024 0.90593 0.0
H980 H 0.53884 0.04361 0.91701 0.0
H981 H 0.46135 0.97426 0.93287 0.0
H982 H 0.44804 0.95295 0.90759 0.0
H983 H 0.44275 0.97549 0.90853 0.0
H984 H 0.45411 0.9838 0.85754 0.0
H985 H 0.45956 0.96151 0.85647 0.0
H986 H 0.48077 0.98872 0.84711 0.0
H987 H 0.5462 0.01271 0.91577 0.0
H988 H 0.54844 0.98013 0.90236 0.0
H989 H 0.47958 0.9465 0.88024 0.0
C990 C 0.47912 0.0228 0.89132 0.0
C991 C 0.49396 0.04552 0.89363 0.0
C992 C 0.51526 0.05289 0.90409 0.0
C993 C 0.52212 0.03786 0.91059 0.0
C994 C 0.50741 0.01558 0.9068 0.0
C995 C 0.48623 0.00805 0.8977 0.0
C996 C 0.47468 0.98377 0.89136 0.0
C997 C 0.45558 0.97086 0.91129 0.0
C998 C 0.46685 0.97921 0.86135 0.0
C999 C 0.49314 0.97912 0.89649 0.0
C1000 C 0.5117 0.99753 0.90607 0.0
C1001 C 0.53163 0.99803 0.909 0.0
C1002 C 0.53277 0.97949 0.90118 0.0
C1003 C 0.51414 0.96081 0.89039 0.0
C1004 C 0.49394 0.96038 0.889 0.0
H1005 H 0.47011 0.52543 0.88134 0.0
H1006 H 0.43054 0.45847 0.90994 0.0
H1007 H 0.46406 0.45732 0.92098 0.0
H1008 H 0.50545 0.51775 0.84599 0.0
H1009 H 0.5299 0.54342 0.85332 0.0
H1010 H 0.5036 0.54158 0.85515 0.0
H1011 H 0.51114 0.55545 0.90528 0.0
H1012 H 0.53775 0.55766 0.90352 0.0
H1013 H 0.51882 0.54163 0.93023 0.0
H1014 H 0.50042 0.46002 0.91795 0.0
H1015 H 0.53705 0.46729 0.90342 0.0
H1016 H 0.55326 0.53267 0.87766 0.0
C1017 C 0.46853 0.5109 0.89112 0.0
C1018 C 0.4478 0.49206 0.89476 0.0
C1019 C 0.44632 0.47312 0.90696 0.0
C1020 C 0.46527 0.47234 0.91344 0.0
C1021 C 0.48555 0.49074 0.90799 0.0
C1022 C 0.48732 0.50986 0.89758 0.0
C1023 C 0.51072 0.52611 0.88972 0.0
C1024 C 0.5125 0.53256 0.85925 0.0
C1025 C 0.52017 0.54642 0.90831 0.0
C1026 C 0.52146 0.51253 0.89536 0.0
C1027 C 0.50683 0.49238 0.9065 0.0
C1028 C 0.51225 0.476 0.91006 0.0
C1029 C 0.53303 0.4802 0.90157 0.0
C1030 C 0.548 0.50056 0.88955 0.0
C1031 C 0.5423 0.51707 0.88724 0.0
H1032 H 0.94975 0.46708 0.88042 0.0
H1033 H 0.98214 0.43086 0.90351 0.0
H1034 H 0.01499 0.46539 0.91712 0.0
H1035 H 0.99246 0.50729 0.84765 0.0
H1036 H 0.98815 0.52952 0.85749 0.0
H1037 H 0.96541 0.50202 0.85662 0.0
H1038 H 0.9566 0.50525 0.90737 0.0
H1039 H 0.97937 0.53296 0.90836 0.0
H1040 H 0.97764 0.51309 0.933 0.0
H1041 H 0.04627 0.50349 0.91913 0.0
H1042 H 0.07349 0.54195 0.90854 0.0
H1043 H 0.02095 0.55357 0.88393 0.0
C1044 C 0.96342 0.46635 0.88942 0.0
C1045 C 0.96341 0.44636 0.89109 0.0
C1046 C 0.98184 0.44606 0.90215 0.0
C1047 C 0.00051 0.46557 0.91011 0.0
C1048 C 0.00041 0.48519 0.90704 0.0
C1049 C 0.98225 0.48571 0.89717 0.0
C1050 C 0.98742 0.50898 0.89178 0.0
C1051 C 0.98312 0.51212 0.86161 0.0
C1052 C 0.97449 0.51545 0.9113 0.0
C1053 C 0.01164 0.52132 0.89846 0.0
C1054 C 0.01871 0.5074 0.90794 0.0
C1055 C 0.04086 0.51466 0.9124 0.0
C1056 C 0.05622 0.53652 0.90623 0.0
C1057 C 0.04933 0.55075 0.89544 0.0
C1058 C 0.02671 0.54318 0.89252 0.0
H1059 H 0.94886 0.4788 0.62003 0.0
H1060 H 0.98114 0.54816 0.60081 0.0
H1061 H 0.01454 0.5474 0.58764 0.0
H1062 H 0.99057 0.48039 0.6535 0.0
H1063 H 0.98704 0.45446 0.6422 0.0
H1064 H 0.964 0.45874 0.64269 0.0
H1065 H 0.95702 0.44885 0.59117 0.0
H1066 H 0.98006 0.44433 0.59054 0.0
H1067 H 0.97886 0.46331 0.56682 0.0
H1068 H 0.04625 0.54129 0.5866 0.0
H1069 H 0.07349 0.53014 0.59753 0.0
H1070 H 0.02075 0.46471 0.61717 0.0
C1071 C 0.96264 0.49359 0.61192 0.0
C1072 C 0.96244 0.5135 0.61135 0.0
C1073 C 0.98098 0.5327 0.60137 0.0
C1074 C -3e-05 0.5324 0.59367 0.0
C1075 C 8e-05 0.51273 0.5958 0.0
C1076 C 0.98178 0.49358 0.60437 0.0
C1077 C 0.9871 0.4755 0.60896 0.0
C1078 C 0.98188 0.46679 0.63858 0.0
C1079 C 0.97504 0.4569 0.58812 0.0
C1080 C 0.01151 0.48791 0.60354 0.0
C1081 C 0.01861 0.50919 0.59526 0.0
C1082 C 0.04084 0.5245 0.59232 0.0
C1083 C 0.05621 0.51805 0.59869 0.0
C1084 C 0.04923 0.49656 0.60816 0.0
C1085 C 0.02659 0.48117 0.60962 0.0
H1086 H 0.55555 0.01792 0.62072 0.0
H1087 H 0.54485 0.07088 0.59539 0.0
H1088 H 0.5064 0.04397 0.58434 0.0
H1089 H 0.51517 0.97466 0.5714 0.0
H1090 H 0.50702 0.95374 0.59725 0.0
H1091 H 0.53481 0.97637 0.59639 0.0
H1092 H 0.53118 0.98536 0.64691 0.0
H1093 H 0.50347 0.96299 0.6479 0.0
H1094 H 0.50925 0.99029 0.65635 0.0
H1095 H 0.46816 0.0129 0.58538 0.0
H1096 H 0.43327 0.9802 0.59835 0.0
H1097 H 0.4687 0.94733 0.62306 0.0
C1098 C 0.54537 0.02381 0.61185 0.0
C1099 C 0.55318 0.04647 0.60883 0.0
C1100 C 0.53921 0.05358 0.59777 0.0
C1101 C 0.51737 0.0384 0.59129 0.0
C1102 C 0.50987 0.0162 0.59574 0.0
C1103 C 0.52354 0.00889 0.6055 0.0
C1104 C 0.51085 0.98471 0.61237 0.0
C1105 C 0.51735 0.9716 0.5932 0.0
C1106 C 0.51387 0.98062 0.64267 0.0
C1107 C 0.48776 0.97986 0.60662 0.0
C1108 C 0.48757 0.99808 0.5964 0.0
C1109 C 0.46809 0.99835 0.59266 0.0
C1110 C 0.44837 0.97975 0.60023 0.0
C1111 C 0.44833 0.96123 0.61158 0.0
C1112 C 0.46821 0.96108 0.6139 0.0
H1113 H 0.45912 0.44079 0.61999 0.0
H1114 H 0.52349 0.45488 0.59261 0.0
H1115 H 0.53271 0.49266 0.58124 0.0
H1116 H 0.45286 0.47959 0.57085 0.0
H1117 H 0.43965 0.48679 0.5972 0.0
H1118 H 0.43597 0.45954 0.59611 0.0
H1119 H 0.44947 0.46387 0.64628 0.0
H1120 H 0.45336 0.49103 0.64749 0.0
H1121 H 0.47593 0.4867 0.65522 0.0
H1122 H 0.53786 0.53007 0.58263 0.0
H1123 H 0.53852 0.56404 0.59657 0.0
H1124 H 0.47084 0.52595 0.62308 0.0
C1125 C 0.47485 0.45155 0.61059 0.0
C1126 C 0.49058 0.4449 0.60712 0.0
C1127 C 0.51115 0.45961 0.59535 0.0
C1128 C 0.51649 0.48107 0.58868 0.0
C1129 C 0.50098 0.48746 0.59364 0.0
C1130 C 0.48045 0.47303 0.60404 0.0
C1131 C 0.46799 0.48468 0.61144 0.0
C1132 C 0.44793 0.47721 0.59278 0.0
C1133 C 0.46133 0.48138 0.6419 0.0
C1134 C 0.4853 0.50814 0.60544 0.0
C1135 C 0.50399 0.50934 0.59448 0.0
C1136 C 0.52314 0.52934 0.59047 0.0
C1137 C 0.5234 0.54853 0.5986 0.0
C1138 C 0.50468 0.54756 0.61076 0.0
C1139 C 0.4852 0.52718 0.61326 0.0
H1140 H 0.43408 0.2651 0.24784 0.0
H1141 H 0.48155 0.28116 0.31308 0.0
H1142 H 0.48837 0.25186 0.2973 0.0
H1143 H 0.41028 0.20799 0.25384 0.0
H1144 H 0.40557 0.20264 0.21767 0.0
H1145 H 0.40628 0.22645 0.23223 0.0
H1146 H 0.43679 0.25137 0.19798 0.0
H1147 H 0.43615 0.22759 0.18327 0.0
H1148 H 0.46157 0.24987 0.19609 0.0
H1149 H 0.48795 0.21892 0.27636 0.0
H1150 H 0.47971 0.18466 0.25268 0.0
H1151 H 0.432 0.18982 0.20181 0.0
C1152 C 0.44615 0.26267 0.25861 0.0
C1153 C 0.45777 0.27592 0.28119 0.0
C1154 C 0.47312 0.27194 0.29502 0.0
C1155 C 0.47694 0.25514 0.28637 0.0
C1156 C 0.4652 0.24241 0.26398 0.0
C1157 C 0.45008 0.24598 0.25033 0.0
C1158 C 0.43856 0.22919 0.22799 0.0
C1159 C 0.41371 0.21578 0.23326 0.0
C1160 C 0.44358 0.24017 0.19965 0.0
C1161 C 0.44927 0.21534 0.23151 0.0
C1162 C 0.46475 0.22334 0.25217 0.0
C1163 C 0.47615 0.21273 0.25983 0.0
C1164 C 0.47151 0.19339 0.24608 0.0
C1165 C 0.45562 0.18491 0.22494 0.0
C1166 C 0.44443 0.1961 0.21766 0.0
H1167 H 0.27155 0.46453 0.24118 0.0
H1168 H 0.23898 0.41573 0.17782 0.0
H1169 H 0.2048 0.41649 0.18593 0.0
H1170 H 0.22906 0.44195 0.28671 0.0
H1171 H 0.23237 0.46719 0.30044 0.0
H1172 H 0.25553 0.46658 0.286 0.0
H1173 H 0.26213 0.49786 0.25258 0.0
H1174 H 0.23898 0.49866 0.26707 0.0
H1175 H 0.24013 0.49481 0.23076 0.0
H1176 H 0.1733 0.41764 0.20536 0.0
H1177 H 0.14587 0.41919 0.23528 0.0
H1178 H 0.19783 0.46714 0.28676 0.0
C1179 C 0.2574 0.4547 0.22839 0.0
C1180 C 0.25782 0.44033 0.2086 0.0
C1181 C 0.23888 0.42696 0.1929 0.0
C1182 C 0.21948 0.42738 0.19727 0.0
C1183 C 0.21928 0.44121 0.2175 0.0
C1184 C 0.23772 0.45473 0.23279 0.0
C1185 C 0.23224 0.46584 0.25558 0.0
C1186 C 0.23761 0.46003 0.28384 0.0
C1187 C 0.24407 0.49078 0.25123 0.0
C1188 C 0.2077 0.45565 0.25145 0.0
C1189 C 0.20071 0.44181 0.22902 0.0
C1190 C 0.17859 0.42883 0.22254 0.0
C1191 C 0.16314 0.42974 0.23965 0.0
C1192 C 0.1699 0.44357 0.26284 0.0
C1193 C 0.19243 0.45697 0.26859 0.0
H1194 H 0.80983 0.24565 0.20199 0.0
H1195 H 0.8112 0.29675 0.25294 0.0
H1196 H 0.77743 0.26921 0.27625 0.0
H1197 H 0.74991 0.21215 0.19568 0.0
H1198 H 0.75032 0.18679 0.19735 0.0
H1199 H 0.7733 0.2109 0.18299 0.0
H1200 H 0.79931 0.20713 0.21731 0.0
H1201 H 0.77643 0.18312 0.23186 0.0
H1202 H 0.79382 0.20607 0.2535 0.0
H1203 H 0.74563 0.23547 0.297 0.0
H1204 H 0.71779 0.19858 0.31243 0.0
H1205 H 0.73683 0.16971 0.24714 0.0
C1206 C 0.8028 0.25109 0.21774 0.0
C1207 C 0.81281 0.27338 0.22522 0.0
C1208 C 0.80338 0.27987 0.24621 0.0
C1209 C 0.78431 0.2643 0.25975 0.0
C1210 C 0.77492 0.24239 0.25197 0.0
C1211 C 0.78379 0.23582 0.23132 0.0
C1212 C 0.77125 0.21119 0.22772 0.0
C1213 C 0.76056 0.20489 0.19924 0.0
C1214 C 0.78609 0.20131 0.23292 0.0
C1215 C 0.75422 0.20486 0.24998 0.0
C1216 C 0.7565 0.22305 0.26367 0.0
C1217 C 0.74333 0.22113 0.28599 0.0
C1218 C 0.72735 0.20005 0.29444 0.0
C1219 C 0.72459 0.18121 0.28046 0.0
C1220 C 0.73831 0.18379 0.25802 0.0
H1221 H 0.56682 0.82652 0.24938 0.0
H1222 H 0.51008 0.79581 0.19609 0.0
H1223 H 0.50069 0.7594 0.21464 0.0
H1224 H 0.58258 0.78726 0.24093 0.0
H1225 H 0.59171 0.7885 0.2757 0.0
H1226 H 0.59227 0.81207 0.26061 0.0
H1227 H 0.56841 0.8131 0.30038 0.0
H1228 H 0.56781 0.78951 0.31564 0.0
H1229 H 0.54252 0.789 0.30799 0.0
H1230 H 0.49988 0.72619 0.23584 0.0
H1231 H 0.50772 0.69919 0.25753 0.0
H1232 H 0.5648 0.75204 0.29725 0.0
C1233 C 0.55219 0.81214 0.24201 0.0
C1234 C 0.53882 0.81392 0.22189 0.0
C1235 C 0.52007 0.79479 0.21224 0.0
C1236 C 0.51472 0.77408 0.22252 0.0
C1237 C 0.52831 0.77288 0.24239 0.0
C1238 C 0.54662 0.79146 0.25208 0.0
C1239 C 0.5594 0.78577 0.27208 0.0
C1240 C 0.58287 0.79387 0.26169 0.0
C1241 C 0.55953 0.79489 0.30072 0.0
C1242 C 0.54579 0.76105 0.27159 0.0
C1243 C 0.5278 0.75387 0.2546 0.0
C1244 C 0.51363 0.73162 0.2497 0.0
C1245 C 0.51809 0.71637 0.26234 0.0
C1246 C 0.53654 0.72347 0.27969 0.0
C1247 C 0.55039 0.7461 0.28441 0.0
H1248 H 0.7311 0.53993 0.22424 0.0
H1249 H 0.7548 0.60994 0.22118 0.0
H1250 H 0.78932 0.6172 0.24265 0.0
H1251 H 0.75484 0.54085 0.29117 0.0
H1252 H 0.76152 0.52008 0.282 0.0
H1253 H 0.73843 0.52019 0.26628 0.0
H1254 H 0.75471 0.52114 0.21841 0.0
H1255 H 0.77801 0.52137 0.23399 0.0
H1256 H 0.78208 0.54273 0.21035 0.0
H1257 H 0.82127 0.61739 0.26316 0.0
H1258 H 0.84883 0.61046 0.28438 0.0
H1259 H 0.80429 0.54026 0.27737 0.0
C1260 C 0.74327 0.55674 0.2287 0.0
C1261 C 0.74003 0.57436 0.22132 0.0
C1262 C 0.75684 0.59616 0.22662 0.0
C1263 C 0.77654 0.60048 0.23884 0.0
C1264 C 0.77923 0.58284 0.24576 0.0
C1265 C 0.76307 0.56139 0.2412 0.0
C1266 C 0.77038 0.54557 0.25092 0.0
C1267 C 0.7554 0.5308 0.27397 0.0
C1268 C 0.77135 0.5319 0.22698 0.0
C1269 C 0.79317 0.56156 0.26152 0.0
C1270 C 0.79787 0.58294 0.25811 0.0
C1271 C 0.81779 0.60072 0.26605 0.0
C1272 C 0.83333 0.59657 0.27813 0.0
C1273 C 0.82893 0.57482 0.28228 0.0
C1274 C 0.80851 0.55707 0.27382 0.0
H1275 H 0.24358 0.81551 0.29759 0.0
H1276 H 0.29653 0.8166 0.25097 0.0
H1277 H 0.26993 0.78243 0.22754 0.0
H1278 H 0.21005 0.75563 0.30479 0.0
H1279 H 0.18474 0.75591 0.30093 0.0
H1280 H 0.2083 0.77911 0.31592 0.0
H1281 H 0.20566 0.80465 0.27977 0.0
H1282 H 0.18222 0.78155 0.26457 0.0
H1283 H 0.2059 0.79876 0.24389 0.0
H1284 H 0.23699 0.75025 0.20593 0.0
H1285 H 0.20052 0.72194 0.18918 0.0
H1286 H 0.1694 0.74182 0.25047 0.0
C1287 C 0.24962 0.80833 0.2828 0.0
C1288 C 0.27215 0.81839 0.27655 0.0
C1289 C 0.27943 0.80876 0.25677 0.0
C1290 C 0.26441 0.78946 0.24317 0.0
C1291 C 0.24224 0.78006 0.24966 0.0
C1292 C 0.2349 0.78911 0.26916 0.0
C1293 C 0.21017 0.77655 0.27142 0.0
C1294 C 0.20289 0.76618 0.29996 0.0
C1295 C 0.20043 0.79126 0.26449 0.0
C1296 C 0.20467 0.75928 0.24971 0.0
C1297 C 0.22336 0.76146 0.23746 0.0
C1298 C 0.22227 0.74804 0.21583 0.0
C1299 C 0.20152 0.7319 0.20661 0.0
C1300 C 0.18225 0.72926 0.2192 0.0
C1301 C 0.18392 0.74324 0.24086 0.0
H1302 H 0.57108 0.82855 0.74891 0.0
H1303 H 0.51773 0.79861 0.80744 0.0
H1304 H 0.50871 0.76191 0.79083 0.0
H1305 H 0.54463 0.78861 0.69373 0.0
H1306 H 0.56977 0.78955 0.68399 0.0
H1307 H 0.57054 0.81339 0.69872 0.0
H1308 H 0.59705 0.81466 0.73645 0.0
H1309 H 0.59637 0.79088 0.72186 0.0
H1310 H 0.5892 0.79074 0.75731 0.0
H1311 H 0.50755 0.72841 0.7702 0.0
H1312 H 0.51469 0.70114 0.74787 0.0
H1313 H 0.56878 0.75326 0.70295 0.0
C1314 C 0.55731 0.81427 0.758 0.0
C1315 C 0.54476 0.81644 0.77897 0.0
C1316 C 0.52708 0.79739 0.79065 0.0
C1317 C 0.52194 0.77646 0.7815 0.0
C1318 C 0.53467 0.77492 0.7607 0.0
C1319 C 0.55199 0.79335 0.74911 0.0
C1320 C 0.56394 0.78736 0.72821 0.0
C1321 C 0.5621 0.79519 0.69946 0.0
C1322 C 0.58806 0.79644 0.73647 0.0
C1323 C 0.55098 0.76265 0.73028 0.0
C1324 C 0.53403 0.75573 0.74891 0.0
C1325 C 0.5205 0.73361 0.75516 0.0
C1326 C 0.52455 0.7182 0.74216 0.0
C1327 C 0.54194 0.72503 0.72313 0.0
C1328 C 0.55518 0.74754 0.71713 0.0
H1329 H 0.82671 0.57871 0.7276 0.0
H1330 H 0.80449 0.50903 0.72824 0.0
H1331 H 0.77068 0.50192 0.75192 0.0
H1332 H 0.80363 0.58202 0.7922 0.0
H1333 H 0.79562 0.601 0.77943 0.0
H1334 H 0.81902 0.60075 0.76499 0.0
H1335 H 0.80177 0.59479 0.71663 0.0
H1336 H 0.77829 0.59497 0.73091 0.0
H1337 H 0.77463 0.57193 0.71077 0.0
H1338 H 0.73926 0.50264 0.77606 0.0
H1339 H 0.71157 0.5107 0.795 0.0
H1340 H 0.75258 0.57919 0.77299 0.0
C1341 C 0.81488 0.56195 0.73298 0.0
C1342 C 0.81879 0.54456 0.72712 0.0
C1343 C 0.80257 0.52282 0.73386 0.0
C1344 C 0.78311 0.51856 0.74699 0.0
C1345 C 0.77992 0.53616 0.75265 0.0
C1346 C 0.79527 0.55738 0.74555 0.0
C1347 C 0.78734 0.57324 0.75216 0.0
C1348 C 0.80229 0.59025 0.77347 0.0
C1349 C 0.78539 0.58438 0.72606 0.0
C1350 C 0.76507 0.5576 0.76405 0.0
C1351 C 0.76118 0.53633 0.76447 0.0
C1352 C 0.74192 0.51915 0.77528 0.0
C1353 C 0.72613 0.52384 0.78559 0.0
C1354 C 0.72945 0.5454 0.78429 0.0
C1355 C 0.74937 0.56247 0.77377 0.0
H1356 H 0.24534 0.81201 0.69968 0.0
H1357 H 0.29841 0.81353 0.74647 0.0
H1358 H 0.27204 0.77884 0.76914 0.0
H1359 H 0.20756 0.79449 0.75269 0.0
H1360 H 0.18401 0.77721 0.73186 0.0
H1361 H 0.20736 0.80047 0.71683 0.0
H1362 H 0.21044 0.77525 0.68058 0.0
H1363 H 0.18695 0.75187 0.69539 0.0
H1364 H 0.2124 0.75186 0.69162 0.0
H1365 H 0.23913 0.74629 0.79043 0.0
H1366 H 0.20281 0.71817 0.80739 0.0
H1367 H 0.17157 0.73788 0.74597 0.0
C1368 C 0.25147 0.80479 0.7143 0.0
C1369 C 0.27395 0.81516 0.72088 0.0
C1370 C 0.28136 0.80547 0.74043 0.0
C1371 C 0.26646 0.78587 0.75359 0.0
C1372 C 0.24431 0.7762 0.74684 0.0
C1373 C 0.23689 0.78528 0.72747 0.0
C1374 C 0.21218 0.77254 0.72507 0.0
C1375 C 0.2022 0.78705 0.73204 0.0
C1376 C 0.20508 0.76227 0.69647 0.0
C1377 C 0.20677 0.75523 0.74668 0.0
C1378 C 0.22547 0.75744 0.75889 0.0
C1379 C 0.22439 0.74404 0.78055 0.0
C1380 C 0.20365 0.72795 0.78989 0.0
C1381 C 0.18432 0.72537 0.77749 0.0
C1382 C 0.18604 0.73925 0.75564 0.0
H1383 H 0.42915 0.18387 0.8016 0.0
H1384 H 0.47917 0.18145 0.7524 0.0
H1385 H 0.48691 0.21581 0.72936 0.0
H1386 H 0.40758 0.20111 0.74922 0.0
H1387 H 0.40202 0.21866 0.77054 0.0
H1388 H 0.40224 0.19536 0.78526 0.0
H1389 H 0.43148 0.22067 0.82057 0.0
H1390 H 0.43128 0.24409 0.80602 0.0
H1391 H 0.45668 0.24384 0.80871 0.0
H1392 H 0.48647 0.24842 0.70855 0.0
H1393 H 0.47836 0.27694 0.69246 0.0
H1394 H 0.42892 0.25797 0.7557 0.0
C1395 C 0.44201 0.19079 0.78631 0.0
C1396 C 0.45394 0.18033 0.77926 0.0
C1397 C 0.47037 0.18962 0.75883 0.0
C1398 C 0.47475 0.20903 0.74546 0.0
C1399 C 0.46255 0.21888 0.75281 0.0
C1400 C 0.44659 0.21011 0.77287 0.0
C1401 C 0.43489 0.22306 0.77594 0.0
C1402 C 0.41023 0.20869 0.76986 0.0
C1403 C 0.43883 0.23354 0.80451 0.0
C1404 C 0.44638 0.2402 0.75401 0.0
C1405 C 0.4624 0.23766 0.741 0.0
C1406 C 0.47434 0.2509 0.71902 0.0
C1407 C 0.46977 0.26716 0.71017 0.0
C1408 C 0.45353 0.27005 0.72344 0.0
C1409 C 0.44171 0.25634 0.74554 0.0
H1410 H 0.16755 0.42235 0.74807 0.0
H1411 H 0.1995 0.47763 0.69263 0.0
H1412 H 0.23565 0.48616 0.71103 0.0
H1413 H 0.20516 0.44674 0.80574 0.0
H1414 H 0.2041 0.42139 0.81458 0.0
H1415 H 0.18078 0.42092 0.79871 0.0
H1416 H 0.18137 0.39598 0.76007 0.0
H1417 H 0.20464 0.39635 0.77581 0.0
H1418 H 0.20617 0.4048 0.74066 0.0
H1419 H 0.26831 0.48708 0.73352 0.0
H1420 H 0.29491 0.4797 0.75718 0.0
H1421 H 0.24141 0.42361 0.79763 0.0
C1422 C 0.18217 0.43642 0.7401 0.0
C1423 C 0.1808 0.4498 0.71963 0.0
C1424 C 0.20022 0.46776 0.70915 0.0
C1425 C 0.22079 0.4726 0.71931 0.0
C1426 C 0.22157 0.4592 0.73976 0.0
C1427 C 0.20276 0.44144 0.74997 0.0
C1428 C 0.20806 0.42884 0.77073 0.0
C1429 C 0.19899 0.42953 0.79912 0.0
C1430 C 0.19956 0.40509 0.76124 0.0
C1431 C 0.23282 0.44205 0.77028 0.0
C1432 C 0.24033 0.45962 0.7525 0.0
C1433 C 0.26263 0.47361 0.74787 0.0
C1434 C 0.27764 0.46943 0.76163 0.0
C1435 C 0.27023 0.45142 0.77979 0.0
C1436 C 0.24753 0.43766 0.78413 0.0
H1437 H 0.75471 0.18868 0.70104 0.0
H1438 H 0.7017 0.18603 0.74915 0.0
H1439 H 0.72801 0.22047 0.77238 0.0
H1440 H 0.79253 0.20515 0.75324 0.0
H1441 H 0.81602 0.22297 0.73263 0.0
H1442 H 0.79265 0.20011 0.71706 0.0
H1443 H 0.78948 0.22628 0.68239 0.0
H1444 H 0.81299 0.24927 0.69778 0.0
H1445 H 0.78752 0.24934 0.69481 0.0
H1446 H 0.76095 0.25281 0.7941 0.0
H1447 H 0.7975 0.28024 0.81194 0.0
H1448 H 0.82851 0.26129 0.74948 0.0
C1449 C 0.74858 0.19563 0.71604 0.0
C1450 C 0.72614 0.185 0.72288 0.0
C1451 C 0.71873 0.19431 0.74294 0.0
C1452 C 0.73359 0.21378 0.75637 0.0
C1453 C 0.75571 0.22372 0.74936 0.0
C1454 C 0.76313 0.21501 0.72949 0.0
C1455 C 0.78782 0.22779 0.72705 0.0
C1456 C 0.79783 0.21313 0.73286 0.0
C1457 C 0.79486 0.23883 0.69883 0.0
C1458 C 0.79326 0.24454 0.74942 0.0
C1459 C 0.77457 0.24221 0.76183 0.0
C1460 C 0.77568 0.25511 0.78412 0.0
C1461 C 0.79645 0.27071 0.79401 0.0
C1462 C 0.81568 0.27314 0.78159 0.0
C1463 C 0.814 0.25994 0.75902 0.0
H1464 H 0.41114 0.02049 0.18724 0.0
H1465 H 0.4081 0.06866 0.23963 0.0
H1466 H 0.38464 0.03935 0.27201 0.0
H1467 H 0.35378 0.97378 0.20297 0.0
H1468 H 0.36305 0.95412 0.2019 0.0
H1469 H 0.37579 0.97809 0.18031 0.0
H1470 H 0.41376 0.9883 0.20047 0.0
H1471 H 0.40119 0.96454 0.22214 0.0
H1472 H 0.41781 0.99134 0.23701 0.0
H1473 H 0.36928 0.00695 0.30311 0.0
H1474 H 0.36056 0.97318 0.32867 0.0
H1475 H 0.37087 0.94521 0.25518 0.0
C1476 C 0.40494 0.02479 0.20506 0.0
C1477 C 0.41148 0.04689 0.21088 0.0
C1478 C 0.40321 0.05185 0.2346 0.0
C1479 C 0.38984 0.03529 0.25313 0.0
C1480 C 0.38447 0.01378 0.24736 0.0
C1481 C 0.3914 0.00842 0.22359 0.0
C1482 C 0.38525 0.98451 0.22346 0.0
C1483 C 0.36846 0.97188 0.20081 0.0
C1484 C 0.40572 0.98205 0.22062 0.0
C1485 C 0.37497 0.97757 0.25156 0.0
C1486 C 0.37447 0.99464 0.26494 0.0
C1487 C 0.36876 0.99319 0.29253 0.0
C1488 C 0.36385 0.97402 0.3069 0.0
C1489 C 0.36436 0.9565 0.29352 0.0
C1490 C 0.36942 0.95807 0.26541 0.0
H1491 H 0.38881 0.40892 0.19368 0.0
H1492 H 0.34366 0.41229 0.25126 0.0
H1493 H 0.35415 0.39385 0.28612 0.0
H1494 H 0.381 0.35457 0.21863 0.0
H1495 H 0.40953 0.36343 0.21294 0.0
H1496 H 0.3957 0.37341 0.19122 0.0
H1497 H 0.42536 0.41335 0.20264 0.0
H1498 H 0.43911 0.40357 0.22458 0.0
H1499 H 0.43058 0.42199 0.23792 0.0
H1500 H 0.37511 0.38263 0.31708 0.0
H1501 H 0.40198 0.37523 0.34037 0.0
H1502 H 0.43145 0.37623 0.26219 0.0
C1503 C 0.3806 0.40514 0.21334 0.0
C1504 C 0.36541 0.41204 0.21975 0.0
C1505 C 0.35519 0.40699 0.24579 0.0
C1506 C 0.36108 0.39655 0.26575 0.0
C1507 C 0.37681 0.3908 0.25914 0.0
C1508 C 0.38605 0.39443 0.23334 0.0
C1509 C 0.40374 0.3882 0.23205 0.0
C1510 C 0.39709 0.36874 0.21256 0.0
C1511 C 0.426 0.40796 0.22383 0.0
C1512 C 0.40384 0.38159 0.26152 0.0
C1513 C 0.38812 0.38314 0.27681 0.0
C1514 C 0.38695 0.38061 0.30519 0.0
C1515 C 0.40228 0.37652 0.31825 0.0
C1516 C 0.41828 0.37466 0.30289 0.0
C1517 C 0.41882 0.37683 0.27417 0.0
H1518 H 0.01856 0.4195 0.31391 0.0
H1519 H 0.06325 0.41117 0.26073 0.0
H1520 H 0.03249 0.38831 0.22968 0.0
H1521 H 0.96953 0.36378 0.30208 0.0
H1522 H 0.9512 0.37469 0.30299 0.0
H1523 H 0.97593 0.38722 0.32322 0.0
H1524 H 0.98759 0.42471 0.3005 0.0
H1525 H 0.96305 0.41237 0.2802 0.0
H1526 H 0.98944 0.42699 0.26371 0.0
H1527 H 0.99871 0.37244 0.20056 0.0
H1528 H 0.9641 0.3634 0.17683 0.0
H1529 H 0.94091 0.3803 0.24976 0.0
C1530 C 0.02182 0.41241 0.29612 0.0
C1531 C 0.04335 0.41713 0.28977 0.0
C1532 C 0.04691 0.40768 0.26613 0.0
C1533 C 0.02951 0.39464 0.24838 0.0
C1534 C 0.00861 0.39089 0.25481 0.0
C1535 C 0.00465 0.39925 0.27834 0.0
C1536 C 0.98119 0.39453 0.2794 0.0
C1537 C 0.96873 0.37913 0.30335 0.0
C1538 C 0.98029 0.41592 0.28103 0.0
C1539 C 0.97282 0.38312 0.25215 0.0
C1540 C 0.98882 0.38096 0.23838 0.0
C1541 C 0.98582 0.37336 0.21147 0.0
C1542 C 0.96618 0.36825 0.19816 0.0
C1543 C 0.94977 0.3705 0.21191 0.0
C1544 C 0.95293 0.37759 0.23935 0.0
H1545 H 0.59504 0.98026 0.18846 0.0
H1546 H 0.58311 0.92838 0.2458 0.0
H1547 H 0.60292 0.95606 0.2816 0.0
H1548 H 0.6506 0.02262 0.21727 0.0
H1549 H 0.64471 0.04438 0.21094 0.0
H1550 H 0.63382 0.02094 0.18846 0.0
H1551 H 0.59464 0.01434 0.19674 0.0
H1552 H 0.6053 0.03748 0.2194 0.0
H1553 H 0.58439 0.01092 0.23128 0.0
H1554 H 0.61575 0.98795 0.31324 0.0
H1555 H 0.62419 0.02225 0.33719 0.0
H1556 H 0.63025 0.05403 0.2592 0.0
C1557 C 0.59729 0.97475 0.20826 0.0
C1558 C 0.58752 0.95214 0.21431 0.0
C1559 C 0.5906 0.94559 0.24058 0.0
C1560 C 0.60183 0.96122 0.26108 0.0
C1561 C 0.6103 0.98333 0.25482 0.0
C1562 C 0.60864 0.99014 0.22883 0.0
C1563 C 0.61717 0.01462 0.22805 0.0
C1564 C 0.63781 0.02633 0.21012 0.0
C1565 C 0.59931 0.01961 0.21831 0.0
C1566 C 0.62265 0.02031 0.25798 0.0
C1567 C 0.61875 0.00206 0.27305 0.0
C1568 C 0.61964 0.00252 0.30158 0.0
C1569 C 0.62434 0.02199 0.31502 0.0
C1570 C 0.62839 0.04078 0.29992 0.0
C1571 C 0.62805 0.04007 0.27107 0.0
H1572 H 0.58325 0.60498 0.31312 0.0
H1573 H 0.57914 0.65052 0.25691 0.0
H1574 H 0.60148 0.644 0.22338 0.0
H1575 H 0.64045 0.61851 0.2934 0.0
H1576 H 0.63356 0.59032 0.29723 0.0
H1577 H 0.62037 0.6013 0.31844 0.0
H1578 H 0.58236 0.57022 0.30235 0.0
H1579 H 0.59537 0.55923 0.2811 0.0
H1580 H 0.57635 0.56637 0.26623 0.0
H1581 H 0.61749 0.62698 0.19291 0.0
H1582 H 0.62853 0.60285 0.16934 0.0
H1583 H 0.62489 0.57053 0.24611 0.0
C1584 C 0.58756 0.61406 0.29407 0.0
C1585 C 0.57943 0.62826 0.28765 0.0
C1586 C 0.5853 0.63968 0.2624 0.0
C1587 C 0.598 0.63608 0.2432 0.0
C1588 C 0.60512 0.6214 0.24981 0.0
C1589 C 0.60046 0.61088 0.27487 0.0
C1590 C 0.60855 0.5946 0.27614 0.0
C1591 C 0.62682 0.60161 0.29757 0.0
C1592 C 0.58952 0.57123 0.28177 0.0
C1593 C 0.61745 0.59675 0.2474 0.0
C1594 C 0.61547 0.61241 0.23256 0.0
C1595 C 0.61987 0.61526 0.20454 0.0
C1596 C 0.62611 0.60153 0.19132 0.0
C1597 C 0.62822 0.58549 0.20622 0.0
C1598 C 0.6243 0.58339 0.23464 0.0
H1599 H 0.95123 0.55491 0.26577 0.0
H1600 H 0.95442 0.61313 0.29998 0.0
H1601 H 0.98763 0.63641 0.27188 0.0
H1602 H 0.00684 0.57313 0.26482 0.0
H1603 H 0.00656 0.56024 0.23282 0.0
H1604 H 0.98234 0.54877 0.25379 0.0
H1605 H 0.95995 0.55118 0.21317 0.0
H1606 H 0.9841 0.56254 0.19195 0.0
H1607 H 0.96927 0.57708 0.19617 0.0
H1608 H 0.02346 0.65266 0.24386 0.0
H1609 H 0.05596 0.66031 0.21586 0.0
H1610 H 0.02658 0.59082 0.19855 0.0
C1611 C 0.95873 0.57259 0.2669 0.0
C1612 C 0.95049 0.58239 0.28482 0.0
C1613 C 0.96057 0.60548 0.28606 0.0
C1614 C 0.97939 0.61873 0.27028 0.0
C1615 C 0.98745 0.60849 0.25309 0.0
C1616 C 0.97708 0.58589 0.25099 0.0
C1617 C 0.98902 0.57866 0.23176 0.0
C1618 C 0.99664 0.56437 0.2467 0.0
C1619 C 0.97473 0.56666 0.20678 0.0
C1620 C 0.00817 0.60065 0.22387 0.0
C1621 C 0.00716 0.61774 0.23633 0.0
C1622 C 0.02414 0.63941 0.23358 0.0
C1623 C 0.04256 0.6436 0.21773 0.0
C1624 C 0.04367 0.62621 0.20469 0.0
C1625 C 0.02607 0.60457 0.2077 0.0
H1626 H 0.57765 0.94413 0.75353 0.0
H1627 H 0.61291 0.97377 0.8284 0.0
H1628 H 0.63794 0.00759 0.80306 0.0
H1629 H 0.62537 0.97437 0.7033 0.0
H1630 H 0.6076 0.97723 0.67915 0.0
H1631 H 0.59689 0.95344 0.70102 0.0
H1632 H 0.56694 0.9616 0.7184 0.0
H1633 H 0.57762 0.98542 0.69691 0.0
H1634 H 0.575 0.98802 0.73323 0.0
H1635 H 0.65441 0.03997 0.77208 0.0
H1636 H 0.65954 0.06869 0.73913 0.0
H1637 H 0.61198 0.01878 0.68482 0.0
C1638 C 0.59142 0.95736 0.76414 0.0
C1639 C 0.59393 0.95626 0.79262 0.0
C1640 C 0.61121 0.97424 0.8064 0.0
C1641 C 0.62547 0.99347 0.79215 0.0
C1642 C 0.62203 0.99449 0.7642 0.0
C1643 C 0.60542 0.97687 0.75029 0.0
C1644 C 0.60257 0.98341 0.72169 0.0
C1645 C 0.60847 0.9714 0.70001 0.0
C1646 C 0.57916 0.97938 0.71734 0.0
C1647 C 0.61931 0.00766 0.72221 0.0
C1648 C 0.63085 0.0136 0.74656 0.0
C1649 C 0.6458 0.03544 0.75271 0.0
C1650 C 0.64859 0.05168 0.73385 0.0
C1651 C 0.63616 0.04602 0.70936 0.0
C1652 C 0.62187 0.02365 0.70323 0.0
H1653 H 0.62478 0.56799 0.75477 0.0
H1654 H 0.63298 0.60398 0.82977 0.0
H1655 H 0.62333 0.62881 0.80532 0.0
H1656 H 0.64139 0.61489 0.70464 0.0
H1657 H 0.62008 0.59732 0.68111 0.0
H1658 H 0.63306 0.58621 0.70248 0.0
H1659 H 0.595 0.55712 0.72109 0.0
H1660 H 0.58197 0.56819 0.70004 0.0
H1661 H 0.57747 0.56598 0.73651 0.0
H1662 H 0.60773 0.64606 0.77468 0.0
H1663 H 0.58498 0.65257 0.74184 0.0
H1664 H 0.58438 0.60349 0.68754 0.0
C1665 C 0.62555 0.5818 0.76558 0.0
C1666 C 0.63031 0.58472 0.79379 0.0
C1667 C 0.62994 0.60202 0.80792 0.0
C1668 C 0.62451 0.61616 0.79419 0.0
C1669 C 0.61919 0.61249 0.76644 0.0
C1670 C 0.61962 0.59568 0.75228 0.0
C1671 C 0.60974 0.59287 0.72399 0.0
C1672 C 0.62711 0.59814 0.70174 0.0
C1673 C 0.58987 0.56968 0.72022 0.0
C1674 C 0.60285 0.61007 0.72485 0.0
C1675 C 0.609 0.62164 0.74917 0.0
C1676 C 0.60313 0.63735 0.75539 0.0
C1677 C 0.59018 0.64094 0.73657 0.0
C1678 C 0.58287 0.62854 0.71209 0.0
C1679 C 0.58981 0.61333 0.70597 0.0
H1680 H 0.0195 0.60301 0.81533 0.0
H1681 H 0.06687 0.6569 0.76527 0.0
H1682 H 0.03721 0.65198 0.73412 0.0
H1683 H 0.99033 0.56926 0.76342 0.0
H1684 H 0.96365 0.55799 0.77901 0.0
H1685 H 0.98765 0.56848 0.80018 0.0
H1686 H 0.97699 0.59471 0.82401 0.0
H1687 H 0.95285 0.58425 0.80282 0.0
H1688 H 0.9722 0.61326 0.80365 0.0
H1689 H 0.00453 0.63633 0.70364 0.0
H1690 H 0.97088 0.61202 0.67746 0.0
H1691 H 0.94389 0.56991 0.74821 0.0
C1692 C 0.02356 0.61423 0.79828 0.0
C1693 C 0.04554 0.63034 0.79278 0.0
C1694 C 0.05017 0.64449 0.77004 0.0
C1695 C 0.0334 0.64187 0.75224 0.0
C1696 C 0.01201 0.62531 0.75773 0.0
C1697 C 0.00699 0.61194 0.78046 0.0
C1698 C 0.98317 0.59393 0.78022 0.0
C1699 C 0.9811 0.57108 0.78072 0.0
C1700 C 0.97056 0.59672 0.80409 0.0
C1701 C 0.9759 0.59848 0.75303 0.0
C1702 C 0.99271 0.61685 0.74052 0.0
C1703 C 0.99097 0.62244 0.7136 0.0
C1704 C 0.97185 0.60862 0.69889 0.0
C1705 C 0.95466 0.58969 0.71129 0.0
C1706 C 0.95645 0.58492 0.73886 0.0
H1707 H 0.42218 0.05508 0.75719 0.0
H1708 H 0.38978 0.02367 0.83289 0.0
H1709 H 0.36431 0.99014 0.80733 0.0
H1710 H 0.37311 0.02531 0.70915 0.0
H1711 H 0.39018 0.02319 0.68324 0.0
H1712 H 0.4014 0.04652 0.70591 0.0
H1713 H 0.43217 0.0385 0.72003 0.0
H1714 H 0.42102 0.01517 0.69765 0.0
H1715 H 0.42487 0.01184 0.73346 0.0
H1716 H 0.34692 0.95845 0.77535 0.0
H1717 H 0.34109 0.9305 0.74084 0.0
H1718 H 0.3866 0.98173 0.68622 0.0
C1719 C 0.40897 0.04149 0.76806 0.0
C1720 C 0.40737 0.04202 0.79677 0.0
C1721 C 0.3908 0.02361 0.81076 0.0
C1722 C 0.37627 0.00456 0.79639 0.0
C1723 C 0.37875 0.00415 0.7681 0.0
C1724 C 0.39474 0.02216 0.75405 0.0
C1725 C 0.39673 0.01628 0.72476 0.0
C1726 C 0.38994 0.02855 0.70457 0.0
C1727 C 0.42007 0.0207 0.71865 0.0
C1728 C 0.38021 0.99197 0.72493 0.0
C1729 C 0.3695 0.98543 0.74981 0.0
C1730 C 0.35489 0.96343 0.75561 0.0
C1731 C 0.35169 0.94765 0.73584 0.0
C1732 C 0.3634 0.9539 0.7108 0.0
C1733 C 0.37726 0.97642 0.70505 0.0
H1734 H 0.37217 0.4282 0.7602 0.0
H1735 H 0.36723 0.39396 0.83579 0.0
H1736 H 0.37723 0.36946 0.81113 0.0
H1737 H 0.35513 0.3809 0.71141 0.0
H1738 H 0.37548 0.39819 0.68668 0.0
H1739 H 0.363 0.40944 0.70868 0.0
H1740 H 0.4015 0.43924 0.72518 0.0
H1741 H 0.41405 0.42804 0.70343 0.0
H1742 H 0.41986 0.43102 0.73961 0.0
H1743 H 0.39193 0.35186 0.77971 0.0
H1744 H 0.41319 0.34457 0.74542 0.0
H1745 H 0.41139 0.39237 0.69096 0.0
C1746 C 0.3723 0.4149 0.77118 0.0
C1747 C 0.36831 0.41235 0.79958 0.0
C1748 C 0.36976 0.39567 0.81384 0.0
C1749 C 0.37537 0.38172 0.79999 0.0
C1750 C 0.3798 0.38497 0.77201 0.0
C1751 C 0.37846 0.40124 0.75777 0.0
C1752 C 0.38735 0.40361 0.72895 0.0
C1753 C 0.36915 0.39768 0.70767 0.0
C1754 C 0.40684 0.42685 0.72403 0.0
C1755 C 0.3946 0.38668 0.72951 0.0
C1756 C 0.38955 0.37569 0.75425 0.0
C1757 C 0.39572 0.36016 0.76013 0.0
C1758 C 0.4078 0.35613 0.74049 0.0
C1759 C 0.41399 0.36791 0.71548 0.0
C1760 C 0.40683 0.38301 0.7098 0.0
H1761 H 0.05573 0.4197 0.74273 0.0
H1762 H 0.02353 0.39302 0.66528 0.0
H1763 H 0.98939 0.36739 0.68973 0.0
H1764 H 0.02406 0.36838 0.78622 0.0
H1765 H 0.02288 0.38429 0.81439 0.0
H1766 H 0.04617 0.39601 0.79164 0.0
H1767 H 0.03998 0.42871 0.78206 0.0
H1768 H 0.01674 0.41711 0.8046 0.0
H1769 H 0.01365 0.42341 0.76968 0.0
H1770 H 0.95764 0.34901 0.72165 0.0
H1771 H 0.93015 0.34218 0.75731 0.0
H1772 H 0.98234 0.3829 0.81388 0.0
C1773 C 0.04175 0.4077 0.73112 0.0
C1774 C 0.04227 0.40774 0.70228 0.0
C1775 C 0.02343 0.39278 0.68746 0.0
C1776 C 0.00406 0.37815 0.70119 0.0
C1777 C 0.00375 0.37895 0.72972 0.0
C1778 C 0.02211 0.39344 0.74453 0.0
C1779 C 0.0165 0.39392 0.77438 0.0
C1780 C 0.02809 0.38512 0.79274 0.0
C1781 C 0.02203 0.41716 0.78317 0.0
C1782 C 0.99199 0.37829 0.77377 0.0
C1783 C 0.98506 0.36925 0.74806 0.0
C1784 C 0.96291 0.35569 0.74199 0.0
C1785 C 0.94739 0.35187 0.76242 0.0
C1786 C 0.95408 0.36201 0.7884 0.0
C1787 C 0.97671 0.37477 0.7943 0.0
H1788 H 0.53099 0.10291 0.19239 0.0
H1789 H 0.5059 0.13327 0.24796 0.0
H1790 H 0.53455 0.13913 0.28153 0.0
H1791 H 0.54177 0.07385 0.24048 0.0
H1792 H 0.56677 0.07776 0.22519 0.0
H1793 H 0.5462 0.07849 0.20415 0.0
H1794 H 0.57474 0.1171 0.18653 0.0
H1795 H 0.59551 0.11646 0.20742 0.0
H1796 H 0.59008 0.13879 0.21075 0.0
H1797 H 0.56159 0.13587 0.31183 0.0
H1798 H 0.58765 0.12709 0.33481 0.0
H1799 H 0.59719 0.10158 0.2586 0.0
C1800 C 0.53183 0.11126 0.21136 0.0
C1801 C 0.51617 0.11761 0.21756 0.0
C1802 C 0.51778 0.12839 0.24266 0.0
C1803 C 0.53398 0.13176 0.26189 0.0
C1804 C 0.54874 0.12468 0.25548 0.0
C1805 C 0.5481 0.11505 0.23058 0.0
C1806 C 0.56513 0.10792 0.22926 0.0
C1807 C 0.55431 0.08303 0.2245 0.0
C1808 C 0.58239 0.12085 0.20718 0.0
C1809 C 0.57487 0.11423 0.25771 0.0
C1810 C 0.56519 0.1239 0.27252 0.0
C1811 C 0.56976 0.12894 0.30022 0.0
C1812 C 0.5845 0.12389 0.31311 0.0
C1813 C 0.59471 0.11426 0.29818 0.0
C1814 C 0.59009 0.10965 0.2701 0.0
H1815 H 0.48999 0.5936 0.25761 0.0
H1816 H 0.45327 0.58959 0.33054 0.0
H1817 H 0.41864 0.56358 0.30698 0.0
H1818 H 0.44811 0.58683 0.20588 0.0
H1819 H 0.45431 0.56988 0.18429 0.0
H1820 H 0.47549 0.59088 0.20521 0.0
H1821 H 0.48306 0.56185 0.22729 0.0
H1822 H 0.46196 0.54084 0.20649 0.0
H1823 H 0.46082 0.53798 0.24322 0.0
H1824 H 0.38857 0.53554 0.27672 0.0
H1825 H 0.36609 0.50574 0.24426 0.0
H1826 H 0.42301 0.52689 0.19194 0.0
C1827 C 0.47453 0.58772 0.26819 0.0
C1828 C 0.474 0.59387 0.29551 0.0
C1829 C 0.45375 0.58529 0.30936 0.0
C1830 C 0.43408 0.57058 0.29612 0.0
C1831 C 0.43509 0.56452 0.26917 0.0
C1832 C 0.45484 0.57276 0.25542 0.0
C1833 C 0.45184 0.56173 0.22787 0.0
C1834 C 0.45779 0.57833 0.20443 0.0
C1835 C 0.4652 0.5499 0.22614 0.0
C1836 C 0.42743 0.5456 0.22854 0.0
C1837 C 0.41796 0.54776 0.25224 0.0
C1838 C 0.39578 0.53387 0.25797 0.0
C1839 C 0.38311 0.517 0.23935 0.0
C1840 C 0.39274 0.51392 0.2155 0.0
C1841 C 0.41508 0.52882 0.20986 0.0
H1842 H 0.89291 0.49981 0.25407 0.0
H1843 H 0.84943 0.46104 0.31955 0.0
H1844 H 0.84144 0.42696 0.29508 0.0
H1845 H 0.86304 0.46087 0.19576 0.0
H1846 H 0.88855 0.46692 0.17983 0.0
H1847 H 0.88686 0.48772 0.19944 0.0
H1848 H 0.91939 0.49265 0.22938 0.0
H1849 H 0.92099 0.47173 0.21021 0.0
H1850 H 0.91754 0.46923 0.24684 0.0
H1851 H 0.84257 0.39756 0.26672 0.0
H1852 H 0.85288 0.37547 0.23755 0.0
H1853 H 0.89684 0.43392 0.19147 0.0
C1854 C 0.88089 0.48409 0.26247 0.0
C1855 C 0.87108 0.48283 0.28805 0.0
C1856 C 0.85643 0.46215 0.29947 0.0
C1857 C 0.85191 0.44278 0.28576 0.0
C1858 C 0.86236 0.44451 0.26081 0.0
C1859 C 0.87646 0.46469 0.2492 0.0
C1860 C 0.88782 0.4623 0.2242 0.0
C1861 C 0.88116 0.4699 0.19827 0.0
C1862 C 0.91291 0.47471 0.22791 0.0
C1863 C 0.87854 0.43773 0.22408 0.0
C1864 C 0.8636 0.42768 0.24502 0.0
C1865 C 0.85398 0.40523 0.24998 0.0
C1866 C 0.85997 0.3928 0.23331 0.0
C1867 C 0.87566 0.4029 0.21214 0.0
C1868 C 0.88469 0.42561 0.20732 0.0
H1869 H 0.42727 0.92336 0.28198 0.0
H1870 H 0.38061 0.85392 0.28953 0.0
H1871 H 0.40486 0.84552 0.26133 0.0
H1872 H 0.44044 0.92082 0.2112 0.0
H1873 H 0.46874 0.94186 0.21504 0.0
H1874 H 0.44806 0.94201 0.23657 0.0
H1875 H 0.4695 0.94203 0.27975 0.0
H1876 H 0.49025 0.94189 0.25835 0.0
H1877 H 0.47655 0.92085 0.28386 0.0
H1878 H 0.43609 0.84523 0.23445 0.0
H1879 H 0.469 0.85308 0.20713 0.0
H1880 H 0.49247 0.92274 0.21383 0.0
C1881 C 0.42222 0.90637 0.27782 0.0
C1882 C 0.4023 0.88923 0.28821 0.0
C1883 C 0.39592 0.86724 0.28183 0.0
C1884 C 0.4096 0.86235 0.26591 0.0
C1885 C 0.42926 0.87971 0.25605 0.0
C1886 C 0.43531 0.90129 0.2614 0.0
C1887 C 0.45665 0.91704 0.24748 0.0
C1888 C 0.45326 0.93126 0.22632 0.0
C1889 C 0.47427 0.93128 0.26862 0.0
C1890 C 0.46194 0.90101 0.23373 0.0
C1891 C 0.44617 0.87953 0.23914 0.0
C1892 C 0.44834 0.86198 0.22975 0.0
C1893 C 0.46705 0.86656 0.21433 0.0
C1894 C 0.48301 0.88847 0.20803 0.0
C1895 C 0.48028 0.9058 0.21784 0.0
H1896 H 0.57716 0.46543 0.19433 0.0
H1897 H 0.63069 0.49859 0.25208 0.0
H1898 H 0.60892 0.47087 0.28721 0.0
H1899 H 0.5352 0.45361 0.23855 0.0
H1900 H 0.51621 0.42689 0.22501 0.0
H1901 H 0.5371 0.44717 0.20328 0.0
H1902 H 0.55122 0.42044 0.19197 0.0
H1903 H 0.53019 0.39992 0.21353 0.0
H1904 H 0.55857 0.40824 0.21943 0.0
H1905 H 0.57881 0.44414 0.31812 0.0
H1906 H 0.54409 0.4178 0.34104 0.0
H1907 H 0.51116 0.40003 0.26253 0.0
C1908 C 0.58456 0.4665 0.21414 0.0
C1909 C 0.60564 0.48416 0.22048 0.0
C1910 C 0.61468 0.4851 0.24668 0.0
C1911 C 0.60239 0.46945 0.26678 0.0
C1912 C 0.58132 0.4527 0.26015 0.0
C1913 C 0.57268 0.45084 0.23424 0.0
C1914 C 0.54918 0.43215 0.23279 0.0
C1915 C 0.53351 0.44046 0.22443 0.0
C1916 C 0.54718 0.41412 0.21327 0.0
C1917 C 0.54558 0.4244 0.26224 0.0
C1918 C 0.56434 0.43645 0.27771 0.0
C1919 C 0.56426 0.43411 0.30607 0.0
C1920 C 0.54451 0.4192 0.31893 0.0
C1921 C 0.52526 0.40658 0.30338 0.0
C1922 C 0.52591 0.40895 0.27467 0.0
H1923 H 0.10792 0.57171 0.18561 0.0
H1924 H 0.13492 0.62708 0.24144 0.0
H1925 H 0.14265 0.60562 0.27493 0.0
H1926 H 0.08024 0.53173 0.2334 0.0
H1927 H 0.08548 0.51138 0.21848 0.0
H1928 H 0.08531 0.5321 0.19717 0.0
H1929 H 0.12452 0.54384 0.18024 0.0
H1930 H 0.1248 0.52303 0.20147 0.0
H1931 H 0.14621 0.55123 0.20482 0.0
H1932 H 0.14103 0.57626 0.30536 0.0
H1933 H 0.13259 0.54181 0.32906 0.0
H1934 H 0.10899 0.5061 0.25294 0.0
C1935 C 0.11601 0.57955 0.20457 0.0
C1936 C 0.12087 0.60115 0.21081 0.0
C1937 C 0.13122 0.61068 0.23601 0.0
C1938 C 0.13567 0.59859 0.25522 0.0
C1939 C 0.13003 0.57712 0.24876 0.0
C1940 C 0.12076 0.56779 0.22385 0.0
C1941 C 0.11471 0.5439 0.22276 0.0
C1942 C 0.08997 0.52891 0.21767 0.0
C1943 C 0.12838 0.54029 0.20103 0.0
C1944 C 0.12111 0.54096 0.2514 0.0
C1945 C 0.13005 0.56037 0.26603 0.0
C1946 C 0.13475 0.56115 0.29389 0.0
C1947 C 0.12993 0.54158 0.30718 0.0
C1948 C 0.12085 0.52163 0.29252 0.0
C1949 C 0.11678 0.52139 0.26423 0.0
H1950 H 0.49648 0.92517 0.78157 0.0
H1951 H 0.4736 0.85574 0.78973 0.0
H1952 H 0.44036 0.84719 0.76279 0.0
H1953 H 0.44466 0.92279 0.7853 0.0
H1954 H 0.45147 0.94357 0.75957 0.0
H1955 H 0.47279 0.94391 0.78027 0.0
H1956 H 0.49331 0.94342 0.73642 0.0
H1957 H 0.47206 0.94312 0.71558 0.0
H1958 H 0.47918 0.92201 0.71147 0.0
H1959 H 0.40843 0.84669 0.73688 0.0
H1960 H 0.38309 0.85427 0.70978 0.0
H1961 H 0.42936 0.92399 0.71524 0.0
C1962 C 0.4844 0.90816 0.7778 0.0
C1963 C 0.48737 0.89107 0.78797 0.0
C1964 C 0.47151 0.86903 0.78214 0.0
C1965 C 0.4526 0.86406 0.76697 0.0
C1966 C 0.45011 0.88135 0.75729 0.0
C1967 C 0.46582 0.90296 0.76211 0.0
C1968 C 0.45996 0.9186 0.74839 0.0
C1969 C 0.45704 0.93306 0.76965 0.0
C1970 C 0.47715 0.93261 0.72668 0.0
C1971 C 0.43835 0.90246 0.73533 0.0
C1972 C 0.4327 0.88103 0.74096 0.0
C1973 C 0.41285 0.86339 0.73204 0.0
C1974 C 0.39855 0.86782 0.71676 0.0
C1975 C 0.40446 0.88966 0.71013 0.0
C1976 C 0.42462 0.9071 0.71958 0.0
H1977 H 0.50317 0.39667 0.74493 0.0
H1978 H 0.53812 0.40768 0.66838 0.0
H1979 H 0.5727 0.43453 0.69123 0.0
H1980 H 0.52853 0.45141 0.76275 0.0
H1981 H 0.52925 0.44742 0.79911 0.0
H1982 H 0.50845 0.42603 0.7784 0.0
H1983 H 0.52033 0.3988 0.79589 0.0
H1984 H 0.54117 0.42014 0.81681 0.0
H1985 H 0.54854 0.40563 0.79254 0.0
H1986 H 0.60253 0.46247 0.72135 0.0
H1987 H 0.62451 0.49157 0.75476 0.0
H1988 H 0.56934 0.4643 0.81088 0.0
C1989 C 0.51833 0.40419 0.73335 0.0
C1990 C 0.51834 0.39976 0.70521 0.0
C1991 C 0.53808 0.4106 0.69015 0.0
C1992 C 0.55772 0.4258 0.70297 0.0
C1993 C 0.55717 0.43019 0.73074 0.0
C1994 C 0.53793 0.4198 0.74571 0.0
C1995 C 0.54108 0.42957 0.77414 0.0
C1996 C 0.52594 0.43918 0.77885 0.0
C1997 C 0.53758 0.41251 0.79615 0.0
C1998 C 0.56492 0.44743 0.77259 0.0
C1999 C 0.57405 0.44717 0.74765 0.0
C2000 C 0.59561 0.46268 0.74106 0.0
C2001 C 0.60801 0.47913 0.76023 0.0
C2002 C 0.5987 0.48022 0.78549 0.0
C2003 C 0.57697 0.46388 0.79181 0.0
H2004 H 0.0994 0.52744 0.68923 0.0
H2005 H 0.13159 0.50328 0.74323 0.0
H2006 H 0.13924 0.53293 0.776 0.0
H2007 H 0.13628 0.58667 0.7043 0.0
H2008 H 0.11406 0.59239 0.70254 0.0
H2009 H 0.11331 0.57077 0.68196 0.0
H2010 H 0.07558 0.54316 0.70282 0.0
H2011 H 0.07622 0.56461 0.72346 0.0
H2012 H 0.0728 0.54003 0.73949 0.0
H2013 H 0.13843 0.56157 0.80578 0.0
H2014 H 0.1313 0.58872 0.82891 0.0
H2015 H 0.10181 0.59586 0.75474 0.0
C2016 C 0.10844 0.52862 0.7077 0.0
C2017 C 0.11493 0.51302 0.7136 0.0
C2018 C 0.12662 0.51511 0.73809 0.0
C2019 C 0.13102 0.53191 0.75687 0.0
C2020 C 0.12396 0.54671 0.75069 0.0
C2021 C 0.1132 0.54543 0.7265 0.0
C2022 C 0.1063 0.56265 0.72543 0.0
C2023 C 0.1182 0.5791 0.70218 0.0
C2024 C 0.08125 0.55197 0.72265 0.0
C2025 C 0.11416 0.57331 0.75321 0.0
C2026 C 0.12437 0.56392 0.76744 0.0
C2027 C 0.13103 0.56948 0.79457 0.0
C2028 C 0.12695 0.58487 0.80754 0.0
C2029 C 0.11664 0.59469 0.79324 0.0
C2030 C 0.11045 0.58908 0.76567 0.0
H2031 H 0.5045 0.07593 0.78286 0.0
H2032 H 0.52683 0.14524 0.79097 0.0
H2033 H 0.55999 0.15402 0.76363 0.0
H2034 H 0.55638 0.07873 0.78617 0.0
H2035 H 0.54961 0.05792 0.7605 0.0
H2036 H 0.52829 0.05747 0.78131 0.0
H2037 H 0.50752 0.05773 0.73761 0.0
H2038 H 0.52875 0.05812 0.71665 0.0
H2039 H 0.52145 0.07911 0.71255 0.0
H2040 H 0.59209 0.1547 0.73755 0.0
H2041 H 0.61748 0.14718 0.7104 0.0
H2042 H 0.57144 0.07745 0.71609 0.0
C2043 C 0.51643 0.09297 0.77897 0.0
C2044 C 0.51336 0.10996 0.78927 0.0
C2045 C 0.52901 0.13203 0.78329 0.0
C2046 C 0.54788 0.13713 0.76789 0.0
C2047 C 0.55049 0.11993 0.75816 0.0
C2048 C 0.53492 0.09828 0.76309 0.0
C2049 C 0.54086 0.08271 0.74935 0.0
C2050 C 0.54397 0.06837 0.77061 0.0
C2051 C 0.52362 0.06859 0.72776 0.0
C2052 C 0.56237 0.09891 0.73616 0.0
C2053 C 0.56791 0.12032 0.74174 0.0
C2054 C 0.58773 0.138 0.73274 0.0
C2055 C 0.60206 0.13362 0.71745 0.0
C2056 C 0.59621 0.11179 0.71086 0.0
C2057 C 0.57612 0.09432 0.72039 0.0
H2058 H 0.42911 0.52865 0.81475 0.0
H2059 H 0.37087 0.50857 0.76531 0.0
H2060 H 0.39283 0.538 0.73222 0.0
H2061 H 0.45481 0.58849 0.80102 0.0
H2062 H 0.48197 0.59198 0.80018 0.0
H2063 H 0.46114 0.57111 0.8216 0.0
H2064 H 0.46739 0.54173 0.7981 0.0
H2065 H 0.4881 0.5624 0.77654 0.0
H2066 H 0.46505 0.53879 0.76138 0.0
H2067 H 0.42208 0.56599 0.70125 0.0
H2068 H 0.45609 0.59182 0.67642 0.0
H2069 H 0.49481 0.59476 0.74681 0.0
C2070 C 0.42082 0.53071 0.7973 0.0
C2071 C 0.39821 0.51625 0.7927 0.0
C2072 C 0.38812 0.51947 0.76942 0.0
C2073 C 0.40047 0.53616 0.75047 0.0
C2074 C 0.42284 0.54972 0.75526 0.0
C2075 C 0.43287 0.54737 0.77831 0.0
C2076 C 0.45737 0.56317 0.77788 0.0
C2077 C 0.46422 0.57967 0.80158 0.0
C2078 C 0.47022 0.55077 0.7785 0.0
C2079 C 0.4597 0.57426 0.75053 0.0
C2080 C 0.43958 0.56636 0.73782 0.0
C2081 C 0.43784 0.57271 0.71129 0.0
C2082 C 0.45715 0.58734 0.69735 0.0
C2083 C 0.47779 0.59557 0.71012 0.0
C2084 C 0.47906 0.58916 0.73708 0.0
H2085 H 0.92419 0.4928 0.7174 0.0
H2086 H 0.85471 0.4707 0.71285 0.0
H2087 H 0.8467 0.43805 0.74075 0.0
H2088 H 0.92075 0.44028 0.71491 0.0
H2089 H 0.94247 0.44767 0.73943 0.0
H2090 H 0.94232 0.46843 0.71807 0.0
H2091 H 0.94394 0.49062 0.76126 0.0
H2092 H 0.94406 0.46991 0.78276 0.0
H2093 H 0.92345 0.47763 0.78758 0.0
H2094 H 0.84668 0.40671 0.76762 0.0
H2095 H 0.85484 0.38195 0.79509 0.0
H2096 H 0.92443 0.42725 0.78532 0.0
C2097 C 0.90726 0.48098 0.72206 0.0
C2098 C 0.89002 0.48402 0.71266 0.0
C2099 C 0.86813 0.46853 0.71975 0.0
C2100 C 0.86345 0.44996 0.73551 0.0
C2101 C 0.8809 0.44744 0.74445 0.0
C2102 C 0.90238 0.46277 0.73828 0.0
C2103 C 0.91831 0.45705 0.75148 0.0
C2104 C 0.93175 0.45312 0.72967 0.0
C2105 C 0.93332 0.47486 0.77199 0.0
C2106 C 0.90247 0.436 0.76591 0.0
C2107 C 0.88094 0.43047 0.76133 0.0
C2108 C 0.86349 0.41106 0.77162 0.0
C2109 C 0.86824 0.3971 0.78713 0.0
C2110 C 0.89023 0.40292 0.79264 0.0
C2111 C 0.90746 0.42263 0.78188 0.0
H2112 H 0.48945 0.12693 0.05961 0.0
H2113 H 0.42761 0.12357 0.07716 0.0
H2114 H 0.42345 0.12948 0.02797 0.0
H2115 H 0.50702 0.16678 1.00079 0.0
H2116 H 0.51814 0.1522 0.98271 0.0
H2117 H 0.51845 0.15282 0.01962 0.0
H2118 H 0.4978 0.11031 0.02069 0.0
H2119 H 0.49732 0.10954 0.98394 0.0
H2120 H 0.47203 0.09522 0.00289 0.0
H2121 H 0.42307 0.12895 0.97605 0.0
H2122 H 0.42637 0.12172 0.92705 0.0
H2123 H 0.48828 0.12505 0.94406 0.0
C2124 C 0.47539 0.12816 0.05314 0.0
C2125 C 0.45893 0.125 0.07198 0.0
C2126 C 0.44056 0.12635 0.06296 0.0
C2127 C 0.43808 0.12965 0.0351 0.0
C2128 C 0.45423 0.13176 0.01673 0.0
C2129 C 0.47266 0.13127 0.02552 0.0
C2130 C 0.48622 0.13097 0.00172 0.0
C2131 C 0.50879 0.15195 0.00118 0.0
C2132 C 0.48845 0.11029 0.00236 0.0
C2133 C 0.47213 0.13042 0.97807 0.0
C2134 C 0.45394 0.13129 0.98698 0.0
C2135 C 0.43752 0.12881 0.96882 0.0
C2136 C 0.43952 0.12477 0.94107 0.0
C2137 C 0.45766 0.12306 0.93199 0.0
C2138 C 0.4744 0.12659 0.95057 0.0
H2139 H 0.33715 0.42433 0.06139 0.0
H2140 H 0.31664 0.47136 0.08067 0.0
H2141 H 0.30801 0.47265 0.03172 0.0
H2142 H 0.36575 0.45009 0.00433 0.0
H2143 H 0.35915 0.42576 0.98498 0.0
H2144 H 0.35885 0.42487 0.02172 0.0
H2145 H 0.3186 0.39285 0.02097 0.0
H2146 H 0.31879 0.39361 0.98406 0.0
H2147 H 0.29809 0.39607 0.00284 0.0
H2148 H 0.30823 0.47379 0.9799 0.0
H2149 H 0.31763 0.47487 0.93074 0.0
H2150 H 0.33782 0.42699 0.94571 0.0
C2151 C 0.33013 0.43432 0.05533 0.0
C2152 C 0.32733 0.44759 0.0746 0.0
C2153 C 0.31853 0.46082 0.06612 0.0
C2154 C 0.31363 0.46165 0.0384 0.0
C2155 C 0.31741 0.44896 0.0196 0.0
C2156 C 0.32528 0.43537 0.02783 0.0
C2157 C 0.33065 0.42555 0.00358 0.0
C2158 C 0.35504 0.43196 0.00367 0.0
C2159 C 0.31563 0.40053 0.00282 0.0
C2160 C 0.32553 0.43645 0.98034 0.0
C2161 C 0.31754 0.44962 0.98985 0.0
C2162 C 0.31393 0.46311 0.9722 0.0
C2163 C 0.31922 0.4636 0.94434 0.0
C2164 C 0.32818 0.45083 0.93465 0.0
C2165 C 0.33062 0.43659 0.9527 0.0
H2166 H 0.87208 0.36412 0.05841 0.0
H2167 H 0.87502 0.30599 0.07973 0.0
H2168 H 0.87029 0.29508 0.03082 0.0
H2169 H 0.83401 0.34116 0.99811 0.0
H2170 H 0.84921 0.36657 0.9796 0.0
H2171 H 0.84755 0.36681 0.01643 0.0
H2172 H 0.89002 0.38852 0.01929 0.0
H2173 H 0.89182 0.38823 0.98264 0.0
H2174 H 0.90547 0.37745 0.00331 0.0
H2175 H 0.87175 0.29417 0.9789 0.0
H2176 H 0.87978 0.30365 0.92968 0.0
H2177 H 0.87712 0.36302 0.94306 0.0
C2178 C 0.87102 0.34874 0.05281 0.0
C2179 C 0.87374 0.33578 0.07265 0.0
C2180 C 0.87259 0.31591 0.06475 0.0
C2181 C 0.86997 0.30966 0.03704 0.0
C2182 C 0.86838 0.32341 0.01769 0.0
C2183 C 0.86869 0.34248 0.02536 0.0
C2184 C 0.86975 0.35602 1.00078 0.0
C2185 C 0.84888 0.35773 0.9986 0.0
C2186 C 0.89049 0.37889 0.00156 0.0
C2187 C 0.87087 0.34209 0.97802 0.0
C2188 C 0.86962 0.32312 0.98801 0.0
C2189 C 0.87226 0.30873 0.97084 0.0
C2190 C 0.87677 0.31418 0.94298 0.0
C2191 C 0.87887 0.33393 0.93283 0.0
C2192 C 0.8753 0.34768 0.95042 0.0
H2193 H 0.51322 0.87701 0.05682 0.0
H2194 H 0.57355 0.87731 0.07471 0.0
H2195 H 0.57703 0.87023 0.0257 0.0
H2196 H 0.49362 0.83541 0.99969 0.0
H2197 H 0.48314 0.85024 0.98088 0.0
H2198 H 0.48324 0.85064 0.01779 0.0
H2199 H 0.50525 0.89316 0.01705 0.0
H2200 H 0.5053 0.8929 0.98029 0.0
H2201 H 0.53087 0.90697 0.99869 0.0
H2202 H 0.5773 0.87027 0.97377 0.0
H2203 H 0.57407 0.877 0.92458 0.0
H2204 H 0.51305 0.87566 0.94121 0.0
C2205 C 0.52676 0.87485 0.05046 0.0
C2206 C 0.54307 0.87754 0.06929 0.0
C2207 C 0.56077 0.87498 0.06047 0.0
C2208 C 0.56285 0.87099 0.03272 0.0
C2209 C 0.54688 0.86929 0.01432 0.0
C2210 C 0.52901 0.87086 0.02299 0.0
C2211 C 0.51547 0.87107 0.99909 0.0
C2212 C 0.49251 0.85061 0.99939 0.0
C2213 C 0.51416 0.89228 0.99877 0.0
C2214 C 0.529 0.87038 0.97551 0.0
C2215 C 0.54691 0.86904 0.98457 0.0
C2216 C 0.56302 0.87071 0.96643 0.0
C2217 C 0.56105 0.87444 0.93855 0.0
C2218 C 0.54319 0.87657 0.92928 0.0
C2219 C 0.52667 0.87374 0.94785 0.0
H2220 H 0.65893 0.56611 0.05904 0.0
H2221 H 0.66754 0.51061 0.07618 0.0
H2222 H 0.6749 0.50829 0.02699 0.0
H2223 H 0.62877 0.54523 0.00139 0.0
H2224 H 0.63972 0.57068 0.9828 0.0
H2225 H 0.63995 0.57089 0.01957 0.0
H2226 H 0.682 0.59737 0.01945 0.0
H2227 H 0.6819 0.59735 0.98254 0.0
H2228 H 0.69951 0.59002 0.00089 0.0
H2229 H 0.67452 0.508 0.97535 0.0
H2230 H 0.66666 0.50995 0.92625 0.0
H2231 H 0.6589 0.56601 0.94306 0.0
C2232 C 0.66318 0.55402 0.05244 0.0
C2233 C 0.66304 0.53874 0.07113 0.0
C2234 C 0.66803 0.52269 0.06202 0.0
C2235 C 0.67218 0.52127 0.03418 0.0
C2236 C 0.67146 0.53617 0.01595 0.0
C2237 C 0.6673 0.5524 0.02481 0.0
C2238 C 0.66474 0.56468 0.00101 0.0
C2239 C 0.64195 0.56274 0.00122 0.0
C2240 C 0.68314 0.58879 0.00097 0.0
C2241 C 0.66715 0.55225 0.97731 0.0
C2242 C 0.67135 0.53606 0.98623 0.0
C2243 C 0.67184 0.52099 0.96809 0.0
C2244 C 0.66742 0.52221 0.94029 0.0
C2245 C 0.66251 0.5383 0.93111 0.0
C2246 C 0.66304 0.55384 0.94968 0.0
H2247 H 0.13263 0.64225 0.94148 0.0
H2248 H 0.11927 0.69465 0.92399 0.0
H2249 H 0.12535 0.70568 0.97288 0.0
H2250 H 0.10319 0.62516 0.99917 0.0
H2251 H 0.12091 0.61807 0.01769 0.0
H2252 H 0.12092 0.6179 0.98095 0.0
H2253 H 0.16283 0.64508 0.98048 0.0
H2254 H 0.16301 0.64522 0.0174 0.0
H2255 H 0.1738 0.67065 0.99881 0.0
H2256 H 0.12505 0.70561 0.02462 0.0
H2257 H 0.11906 0.69485 0.07358 0.0
H2258 H 0.13374 0.6432 0.0569 0.0
C2259 C 0.13193 0.65662 0.94786 0.0
C2260 C 0.12583 0.66786 0.9292 0.0
C2261 C 0.12438 0.68619 0.93807 0.0
C2262 C 0.12777 0.69249 0.96576 0.0
C2263 C 0.13287 0.68043 0.98404 0.0
C2264 C 0.13528 0.66306 0.97528 0.0
C2265 C 0.1379 0.65086 0.99912 0.0
C2266 C 0.11965 0.62658 0.99923 0.0
C2267 C 0.16075 0.6531 0.99894 0.0
C2268 C 0.13547 0.66332 0.02276 0.0
C2269 C 0.13293 0.68055 0.01379 0.0
C2270 C 0.12768 0.69259 0.03191 0.0
C2271 C 0.12436 0.68645 0.05965 0.0
C2272 C 0.12617 0.66838 0.06881 0.0
C2273 C 0.1326 0.6573 0.05033 0.0
H2274 H 0.87603 0.51231 0.44241 0.0
H2275 H 0.87494 0.57243 0.42807 0.0
H2276 H 0.86802 0.57445 0.47743 0.0
H2277 H 0.83609 0.49077 0.50084 0.0
H2278 H 0.85207 0.4809 0.51822 0.0
H2279 H 0.85169 0.48154 0.48133 0.0
H2280 H 0.89415 0.5049 0.48074 0.0
H2281 H 0.89465 0.50438 0.51748 0.0
H2282 H 0.90753 0.53026 0.49966 0.0
H2283 H 0.86753 0.5731 0.52912 0.0
H2284 H 0.87477 0.56922 0.57789 0.0
H2285 H 0.87767 0.51082 0.55809 0.0
C2286 C 0.87385 0.52563 0.44962 0.0
C2287 C 0.87605 0.54225 0.43163 0.0
C2288 C 0.87306 0.55942 0.4416 0.0
C2289 C 0.86915 0.56068 0.46957 0.0
C2290 C 0.86811 0.54452 0.4871 0.0
C2291 C 0.87026 0.52724 0.4774 0.0
C2292 C 0.87156 0.51367 0.50053 0.0
C2293 C 0.85166 0.49033 0.50021 0.0
C2294 C 0.89326 0.5133 0.49953 0.0
C2295 C 0.87079 0.52652 0.52483 0.0
C2296 C 0.86827 0.54398 0.51679 0.0
C2297 C 0.86905 0.55924 0.53566 0.0
C2298 C 0.87311 0.55692 0.56327 0.0
C2299 C 0.87668 0.53971 0.57148 0.0
C2300 C 0.87481 0.524 0.55219 0.0
H2301 H 0.33472 0.90836 0.44181 0.0
H2302 H 0.32713 0.84463 0.42494 0.0
H2303 H 0.31939 0.83484 0.47406 0.0
H2304 H 0.36492 0.91811 0.49867 0.0
H2305 H 0.35393 0.93246 0.51752 0.0
H2306 H 0.35324 0.93226 0.48078 0.0
H2307 H 0.31112 0.91617 0.48161 0.0
H2308 H 0.31167 0.9165 0.51852 0.0
H2309 H 0.29406 0.89136 0.50054 0.0
H2310 H 0.32012 0.83518 0.52572 0.0
H2311 H 0.32881 0.84547 0.57458 0.0
H2312 H 0.33575 0.90892 0.5575 0.0
C2313 C 0.3305 0.89202 0.44841 0.0
C2314 C 0.33122 0.8771 0.42985 0.0
C2315 C 0.32624 0.85607 0.43897 0.0
C2316 C 0.32189 0.85044 0.46679 0.0
C2317 C 0.32235 0.86598 0.48498 0.0
C2318 C 0.32626 0.88627 0.47602 0.0
C2319 C 0.32893 0.9012 0.49976 0.0
C2320 C 0.35159 0.92223 0.49913 0.0
C2321 C 0.31033 0.90662 0.50013 0.0
C2322 C 0.32699 0.8866 0.52353 0.0
C2323 C 0.3228 0.86619 0.51471 0.0
C2324 C 0.32279 0.85087 0.53289 0.0
C2325 C 0.3277 0.85679 0.56056 0.0
C2326 C 0.3327 0.87786 0.56958 0.0
C2327 C 0.33163 0.89259 0.55102 0.0
H2328 H 0.42542 0.33225 0.44413 0.0
H2329 H 0.4805 0.32236 0.43035 0.0
H2330 H 0.47961 0.31226 0.47914 0.0
H2331 H 0.44377 0.35996 0.50199 0.0
H2332 H 0.41789 0.34942 0.51948 0.0
H2333 H 0.41863 0.34946 0.48277 0.0
H2334 H 0.39151 0.30756 0.48195 0.0
H2335 H 0.39045 0.30739 0.51884 0.0
H2336 H 0.39773 0.28948 0.50114 0.0
H2337 H 0.47844 0.31233 0.53048 0.0
H2338 H 0.47643 0.32153 0.57895 0.0
H2339 H 0.42158 0.33063 0.55948 0.0
C2340 C 0.43653 0.32685 0.45124 0.0
C2341 C 0.45284 0.32774 0.43374 0.0
C2342 C 0.46766 0.32134 0.44355 0.0
C2343 C 0.46726 0.31564 0.4712 0.0
C2344 C 0.45173 0.31617 0.4885 0.0
C2345 C 0.43635 0.32126 0.47873 0.0
C2346 C 0.42364 0.32403 0.50186 0.0
C2347 C 0.42616 0.34708 0.50149 0.0
C2348 C 0.39939 0.30604 0.50089 0.0
C2349 C 0.43511 0.32105 0.52626 0.0
C2350 C 0.45098 0.31609 0.51822 0.0
C2351 C 0.46561 0.3155 0.53705 0.0
C2352 C 0.46437 0.32071 0.56451 0.0
C2353 C 0.44873 0.32656 0.57274 0.0
C2354 C 0.43344 0.32586 0.5536 0.0
H2355 H 0.12772 0.48825 0.44147 0.0
H2356 H 0.11971 0.42446 0.42363 0.0
H2357 H 0.12649 0.42019 0.47249 0.0
H2358 H 0.1691 0.50403 0.49866 0.0
H2359 H 0.15641 0.5168 0.51741 0.0
H2360 H 0.15612 0.5168 0.48049 0.0
H2361 H 0.11374 0.49866 0.48109 0.0
H2362 H 0.11387 0.4985 0.51783 0.0
H2363 H 0.09774 0.47325 0.49934 0.0
H2364 H 0.12685 0.42007 0.52437 0.0
H2365 H 0.12077 0.42416 0.57354 0.0
H2366 H 0.12871 0.48809 0.55693 0.0
C2367 C 0.12815 0.47372 0.44778 0.0
C2368 C 0.12333 0.4567 0.42902 0.0
C2369 C 0.12369 0.43777 0.4378 0.0
C2370 C 0.1275 0.43524 0.46547 0.0
C2371 C 0.13119 0.45195 0.48384 0.0
C2372 C 0.13181 0.47097 0.4752 0.0
C2373 C 0.13315 0.48522 0.49909 0.0
C2374 C 0.155 0.507 0.4989 0.0
C2375 C 0.11346 0.48911 0.49934 0.0
C2376 C 0.13213 0.47085 0.52266 0.0
C2377 C 0.13141 0.45189 0.5136 0.0
C2378 C 0.128 0.43511 0.53171 0.0
C2379 C 0.12463 0.43756 0.55957 0.0
C2380 C 0.12451 0.45652 0.56882 0.0
C2381 C 0.12905 0.47359 0.55029 0.0
H2382 H 0.66867 0.09317 0.44369 0.0
H2383 H 0.67366 0.1557 0.42629 0.0
H2384 H 0.68206 0.16621 0.47509 0.0
H2385 H 0.63919 0.08279 0.5003 0.0
H2386 H 0.65111 0.06949 0.5195 0.0
H2387 H 0.65187 0.06945 0.48279 0.0
H2388 H 0.69419 0.08727 0.48371 0.0
H2389 H 0.69357 0.08712 0.52062 0.0
H2390 H 0.71041 0.11238 0.50245 0.0
H2391 H 0.68097 0.16601 0.52648 0.0
H2392 H 0.67165 0.15556 0.57517 0.0
H2393 H 0.66795 0.09338 0.55922 0.0
C2394 C 0.67264 0.10948 0.45007 0.0
C2395 C 0.67085 0.1238 0.43151 0.0
C2396 C 0.67538 0.14475 0.44033 0.0
C2397 C 0.68011 0.15078 0.46798 0.0
C2398 C 0.6805 0.13574 0.48628 0.0
C2399 C 0.67726 0.11562 0.47754 0.0
C2400 C 0.67519 0.10107 0.50148 0.0
C2401 C 0.65303 0.07945 0.50097 0.0
C2402 C 0.6945 0.09671 0.5021 0.0
C2403 C 0.67644 0.11554 0.52508 0.0
C2404 C 0.67994 0.13566 0.51601 0.0
C2405 C 0.67891 0.1506 0.53388 0.0
C2406 C 0.67362 0.14458 0.56145 0.0
C2407 C 0.66928 0.12378 0.5707 0.0
C2408 C 0.67152 0.1095 0.55253 0.0
H2409 H 0.50868 0.63583 0.55891 0.0
H2410 H 0.57202 0.69248 0.57606 0.0
H2411 H 0.576 0.70305 0.52703 0.0
H2412 H 0.52409 0.6209 0.501 0.0
H2413 H 0.49867 0.61117 0.48269 0.0
H2414 H 0.49871 0.61112 0.51945 0.0
H2415 H 0.47976 0.63461 0.51993 0.0
H2416 H 0.47956 0.63466 0.48302 0.0
H2417 H 0.49196 0.66023 0.50152 0.0
H2418 H 0.57579 0.70326 0.47505 0.0
H2419 H 0.57145 0.69299 0.42589 0.0
H2420 H 0.50825 0.63622 0.4433 0.0
C2421 C 0.52303 0.65087 0.55241 0.0
C2422 C 0.53999 0.66348 0.57106 0.0
C2423 C 0.55874 0.68284 0.562 0.0
C2424 C 0.56111 0.6889 0.53422 0.0
C2425 C 0.54444 0.67552 0.516 0.0
C2426 C 0.52564 0.657 0.52488 0.0
C2427 C 0.51141 0.64376 0.50113 0.0
C2428 C 0.50804 0.62037 0.50108 0.0
C2429 C 0.48936 0.6433 0.50142 0.0
C2430 C 0.52551 0.65714 0.47739 0.0
C2431 C 0.54434 0.67562 0.48623 0.0
C2432 C 0.56085 0.68915 0.4679 0.0
C2433 C 0.55827 0.68328 0.44005 0.0
C2434 C 0.53945 0.66397 0.43102 0.0
C2435 C 0.52263 0.65124 0.44978 0.0
loop_
_geom_bond_atom_site_label_1
_geom_bond_atom_site_label_2
_geom_bond_distance
_geom_bond_site_symmetry_2
_ccdc_geom_bond_type
Co0 O3 1.970 . S
Co0 N17 1.989 . S
Co0 O25 1.967 . S
Co0 O32 1.920 . S
Co1 O4 1.966 . S
Co1 N10 2.022 . S
Co1 N18 1.993 . S
Co1 O26 1.941 . S
C2 O3 1.258 . S
C2 O4 1.263 . S
O3 Co0 1.970 . S
O3 C2 1.258 . S
O4 Co1 1.966 . S
O4 C2 1.263 . S
C5 O6 1.235 . S
C5 O32 1.289 . S
O6 C5 1.235 . S
C7 C9 1.400 . S
C7 N10 1.351 . S
C7 C12 1.501 . S
C8 C9 1.387 . S
C8 N11 1.341 . S
C9 C7 1.400 . S
C9 C8 1.387 . S
N10 Co1 2.022 . S
N10 C7 1.351 . S
N10 N11 1.365 . S
N11 C8 1.341 . S
N11 N10 1.365 . S
N11 H31 0.862 . S
C12 C7 1.501 . S
C12 H13 0.961 . S
C12 H14 0.961 . S
C12 H15 0.960 . S
H13 C12 0.961 . S
H14 C12 0.961 . S
H15 C12 0.960 . S
C16 N17 1.342 . S
C16 C20 1.401 . S
C16 C21 1.499 . S
N17 Co0 1.989 . S
N17 C16 1.342 . S
N17 N18 1.388 . S
N18 Co1 1.993 . S
N18 N17 1.388 . S
N18 C19 1.346 . S
C19 N18 1.346 . S
C19 C20 1.396 . S
C19 C29 1.510 . S
C20 C16 1.401 . S
C20 C19 1.396 . S
C21 C16 1.499 . S
C21 H22 0.959 . S
C21 H23 0.960 . S
C21 H24 0.961 . S
H22 C21 0.959 . S
H23 C21 0.960 . S
H24 C21 0.961 . S
O25 Co0 1.967 . S
O25 C33 1.258 . S
O26 Co1 1.941 . S
O26 C33 1.266 . S
H27 C29 0.959 . S
H28 C29 0.961 . S
C29 C19 1.510 . S
C29 H27 0.959 . S
C29 H28 0.961 . S
C29 H30 0.960 . S
H30 C29 0.960 . S
H31 N11 0.862 . S
O32 Co0 1.920 . S
O32 C5 1.289 . S
C33 O25 1.258 . S
C33 O26 1.266 . S
Co34 O37 1.970 . S
Co34 N51 1.989 . S
Co34 O59 1.967 . S
Co34 O66 1.920 . S
Co35 O38 1.966 . S
Co35 N44 2.022 . S
Co35 N52 1.993 . S
Co35 O60 1.941 . S
C36 O37 1.258 . S
C36 O38 1.263 . S
O37 Co34 1.970 . S
O37 C36 1.258 . S
O38 Co35 1.966 . S
O38 C36 1.263 . S
C39 O40 1.235 . S
C39 O66 1.289 . S
O40 C39 1.235 . S
C41 C43 1.400 . S
C41 N44 1.351 . S
C41 C46 1.501 . S
C42 C43 1.387 . S
C42 N45 1.341 . S
C43 C41 1.400 . S
C43 C42 1.387 . S
N44 Co35 2.022 . S
N44 C41 1.351 . S
N44 N45 1.365 . S
N45 C42 1.341 . S
N45 N44 1.365 . S
N45 H65 0.862 . S
C46 C41 1.501 . S
C46 H47 0.961 . S
C46 H48 0.961 . S
C46 H49 0.960 . S
H47 C46 0.961 . S
H48 C46 0.961 . S
H49 C46 0.960 . S
C50 N51 1.342 . S
C50 C54 1.401 . S
C50 C55 1.499 . S
N51 Co34 1.989 . S
N51 C50 1.342 . S
N51 N52 1.388 . S
N52 Co35 1.993 . S
N52 N51 1.388 . S
N52 C53 1.346 . S
C53 N52 1.346 . S
C53 C54 1.396 . S
C53 C63 1.510 . S
C54 C50 1.401 . S
C54 C53 1.396 . S
C55 C50 1.499 . S
C55 H56 0.959 . S
C55 H57 0.960 . S
C55 H58 0.961 . S
H56 C55 0.959 . S
H57 C55 0.960 . S
H58 C55 0.961 . S
O59 Co34 1.967 . S
O59 C67 1.258 . S
O60 Co35 1.941 . S
O60 C67 1.266 . S
H61 C63 0.959 . S
H62 C63 0.961 . S
C63 C53 1.510 . S
C63 H61 0.959 . S
C63 H62 0.961 . S
C63 H64 0.960 . S
H64 C63 0.960 . S
H65 N45 0.862 . S
O66 Co34 1.920 . S
O66 C39 1.289 . S
C67 O59 1.258 . S
C67 O60 1.266 . S
Co68 O71 1.970 . S
Co68 N85 1.989 . S
Co68 O93 1.967 . S
Co68 O100 1.920 . S
Co69 O72 1.966 . S
Co69 N78 2.022 . S
Co69 N86 1.993 . S
Co69 O94 1.941 . S
C70 O71 1.258 . S
C70 O72 1.263 . S
O71 Co68 1.970 . S
O71 C70 1.258 . S
O72 Co69 1.966 . S
O72 C70 1.263 . S
C73 O74 1.235 . S
C73 O100 1.289 . S
O74 C73 1.235 . S
C75 C77 1.400 . S
C75 N78 1.351 . S
C75 C80 1.501 . S
C76 C77 1.387 . S
C76 N79 1.341 . S
C77 C75 1.400 . S
C77 C76 1.387 . S
N78 Co69 2.022 . S
N78 C75 1.351 . S
N78 N79 1.365 . S
N79 C76 1.341 . S
N79 N78 1.365 . S
N79 H99 0.862 . S
C80 C75 1.501 . S
C80 H81 0.961 . S
C80 H82 0.961 . S
C80 H83 0.960 . S
H81 C80 0.961 . S
H82 C80 0.961 . S
H83 C80 0.960 . S
C84 N85 1.342 . S
C84 C88 1.401 . S
C84 C89 1.499 . S
N85 Co68 1.989 . S
N85 C84 1.342 . S
N85 N86 1.388 . S
N86 Co69 1.993 . S
N86 N85 1.388 . S
N86 C87 1.346 . S
C87 N86 1.346 . S
C87 C88 1.396 . S
C87 C97 1.510 . S
C88 C84 1.401 . S
C88 C87 1.396 . S
C89 C84 1.499 . S
C89 H90 0.959 . S
C89 H91 0.960 . S
C89 H92 0.961 . S
H90 C89 0.959 . S
H91 C89 0.960 . S
H92 C89 0.961 . S
O93 Co68 1.967 . S
O93 C101 1.258 . S
O94 Co69 1.941 . S
O94 C101 1.266 . S
H95 C97 0.959 . S
H96 C97 0.961 . S
C97 C87 1.510 . S
C97 H95 0.959 . S
C97 H96 0.961 . S
C97 H98 0.960 . S
H98 C97 0.960 . S
H99 N79 0.862 . S
O100 Co68 1.920 . S
O100 C73 1.289 . S
C101 O93 1.258 . S
C101 O94 1.266 . S
Co102 O105 1.970 . S
Co102 N119 1.989 . S
Co102 O127 1.967 . S
Co102 O134 1.920 . S
Co103 O106 1.966 . S
Co103 N112 2.022 . S
Co103 N120 1.993 . S
Co103 O128 1.941 . S
C104 O105 1.258 . S
C104 O106 1.263 . S
O105 Co102 1.970 . S
O105 C104 1.258 . S
O106 Co103 1.966 . S
O106 C104 1.263 . S
C107 O108 1.235 . S
C107 O134 1.289 . S
O108 C107 1.235 . S
C109 C111 1.400 . S
C109 N112 1.351 . S
C109 C114 1.501 . S
C110 C111 1.387 . S
C110 N113 1.341 . S
C111 C109 1.400 . S
C111 C110 1.387 . S
N112 Co103 2.022 . S
N112 C109 1.351 . S
N112 N113 1.365 . S
N113 C110 1.341 . S
N113 N112 1.365 . S
N113 H133 0.862 . S
C114 C109 1.501 . S
C114 H115 0.961 . S
C114 H116 0.961 . S
C114 H117 0.960 . S
H115 C114 0.961 . S
H116 C114 0.961 . S
H117 C114 0.960 . S
C118 N119 1.342 . S
C118 C122 1.401 . S
C118 C123 1.499 . S
N119 Co102 1.989 . S
N119 C118 1.342 . S
N119 N120 1.388 . S
N120 Co103 1.993 . S
N120 N119 1.388 . S
N120 C121 1.346 . S
C121 N120 1.346 . S
C121 C122 1.396 . S
C121 C131 1.510 . S
C122 C118 1.401 . S
C122 C121 1.396 . S
C123 C118 1.499 . S
C123 H124 0.959 . S
C123 H125 0.960 . S
C123 H126 0.961 . S
H124 C123 0.959 . S
H125 C123 0.960 . S
H126 C123 0.961 . S
O127 Co102 1.967 . S
O127 C135 1.258 . S
O128 Co103 1.941 . S
O128 C135 1.266 . S
H129 C131 0.959 . S
H130 C131 0.961 . S
C131 C121 1.510 . S
C131 H129 0.959 . S
C131 H130 0.961 . S
C131 H132 0.960 . S
H132 C131 0.960 . S
H133 N113 0.862 . S
O134 Co102 1.920 . S
O134 C107 1.289 . S
C135 O127 1.258 . S
C135 O128 1.266 . S
Co136 O139 1.970 . S
Co136 N153 1.989 . S
Co136 O161 1.967 . S
Co136 O168 1.920 . S
Co137 O140 1.966 . S
Co137 N146 2.022 . S
Co137 N154 1.993 . S
Co137 O162 1.941 . S
C138 O139 1.258 . S
C138 O140 1.263 . S
O139 Co136 1.970 . S
O139 C138 1.258 . S
O140 Co137 1.966 . S
O140 C138 1.263 . S
C141 O142 1.235 . S
C141 O168 1.289 . S
O142 C141 1.235 . S
C143 C145 1.400 . S
C143 N146 1.351 . S
C143 C148 1.501 . S
C144 C145 1.387 . S
C144 N147 1.341 . S
C145 C143 1.400 . S
C145 C144 1.387 . S
N146 Co137 2.022 . S
N146 C143 1.351 . S
N146 N147 1.365 . S
N147 C144 1.341 . S
N147 N146 1.365 . S
N147 H167 0.862 . S
C148 C143 1.501 . S
C148 H149 0.961 . S
C148 H150 0.961 . S
C148 H151 0.960 . S
H149 C148 0.961 . S
H150 C148 0.961 . S
H151 C148 0.960 . S
C152 N153 1.342 . S
C152 C156 1.401 . S
C152 C157 1.499 . S
N153 Co136 1.989 . S
N153 C152 1.342 . S
N153 N154 1.388 . S
N154 Co137 1.993 . S
N154 N153 1.388 . S
N154 C155 1.346 . S
C155 N154 1.346 . S
C155 C156 1.396 . S
C155 C165 1.510 . S
C156 C152 1.401 . S
C156 C155 1.396 . S
C157 C152 1.499 . S
C157 H158 0.959 . S
C157 H159 0.960 . S
C157 H160 0.961 . S
H158 C157 0.959 . S
H159 C157 0.960 . S
H160 C157 0.961 . S
O161 Co136 1.967 . S
O161 C169 1.258 . S
O162 Co137 1.941 . S
O162 C169 1.266 . S
H163 C165 0.959 . S
H164 C165 0.961 . S
C165 C155 1.510 . S
C165 H163 0.959 . S
C165 H164 0.961 . S
C165 H166 0.960 . S
H166 C165 0.960 . S
H167 N147 0.862 . S
O168 Co136 1.920 . S
O168 C141 1.289 . S
C169 O161 1.258 . S
C169 O162 1.266 . S
Co170 O173 1.970 . S
Co170 N187 1.989 . S
Co170 O195 1.967 . S
Co170 O202 1.920 . S
Co171 O174 1.966 . S
Co171 N180 2.022 . S
Co171 N188 1.993 . S
Co171 O196 1.941 . S
C172 O173 1.258 . S
C172 O174 1.263 . S
O173 Co170 1.970 . S
O173 C172 1.258 . S
O174 Co171 1.966 . S
O174 C172 1.263 . S
C175 O176 1.235 . S
C175 O202 1.289 . S
O176 C175 1.235 . S
C177 C179 1.400 . S
C177 N180 1.351 . S
C177 C182 1.501 . S
C178 C179 1.387 . S
C178 N181 1.341 . S
C179 C177 1.400 . S
C179 C178 1.387 . S
N180 Co171 2.022 . S
N180 C177 1.351 . S
N180 N181 1.365 . S
N181 C178 1.341 . S
N181 N180 1.365 . S
N181 H201 0.862 . S
C182 C177 1.501 . S
C182 H183 0.961 . S
C182 H184 0.961 . S
C182 H185 0.960 . S
H183 C182 0.961 . S
H184 C182 0.961 . S
H185 C182 0.960 . S
C186 N187 1.342 . S
C186 C190 1.401 . S
C186 C191 1.499 . S
N187 Co170 1.989 . S
N187 C186 1.342 . S
N187 N188 1.388 . S
N188 Co171 1.993 . S
N188 N187 1.388 . S
N188 C189 1.346 . S
C189 N188 1.346 . S
C189 C190 1.396 . S
C189 C199 1.510 . S
C190 C186 1.401 . S
C190 C189 1.396 . S
C191 C186 1.499 . S
C191 H192 0.959 . S
C191 H193 0.960 . S
C191 H194 0.961 . S
H192 C191 0.959 . S
H193 C191 0.960 . S
H194 C191 0.961 . S
O195 Co170 1.967 . S
O195 C203 1.258 . S
O196 Co171 1.941 . S
O196 C203 1.266 . S
H197 C199 0.959 . S
H198 C199 0.961 . S
C199 C189 1.510 . S
C199 H197 0.959 . S
C199 H198 0.961 . S
C199 H200 0.960 . S
H200 C199 0.960 . S
H201 N181 0.862 . S
O202 Co170 1.920 . S
O202 C175 1.289 . S
C203 O195 1.258 . S
C203 O196 1.266 . S
Co204 O207 1.970 . S
Co204 N221 1.989 . S
Co204 O229 1.967 . S
Co204 O236 1.920 . S
Co205 O208 1.966 . S
Co205 N214 2.022 . S
Co205 N222 1.993 . S
Co205 O230 1.941 . S
C206 O207 1.258 . S
C206 O208 1.263 . S
O207 Co204 1.970 . S
O207 C206 1.258 . S
O208 Co205 1.966 . S
O208 C206 1.263 . S
C209 O210 1.235 . S
C209 O236 1.289 . S
O210 C209 1.235 . S
C211 C213 1.400 . S
C211 N214 1.351 . S
C211 C216 1.501 . S
C212 C213 1.387 . S
C212 N215 1.341 . S
C213 C211 1.400 . S
C213 C212 1.387 . S
N214 Co205 2.022 . S
N214 C211 1.351 . S
N214 N215 1.365 . S
N215 C212 1.341 . S
N215 N214 1.365 . S
N215 H235 0.862 . S
C216 C211 1.501 . S
C216 H217 0.961 . S
C216 H218 0.961 . S
C216 H219 0.960 . S
H217 C216 0.961 . S
H218 C216 0.961 . S
H219 C216 0.960 . S
C220 N221 1.342 . S
C220 C224 1.401 . S
C220 C225 1.499 . S
N221 Co204 1.989 . S
N221 C220 1.342 . S
N221 N222 1.388 . S
N222 Co205 1.993 . S
N222 N221 1.388 . S
N222 C223 1.346 . S
C223 N222 1.346 . S
C223 C224 1.396 . S
C223 C233 1.510 . S
C224 C220 1.401 . S
C224 C223 1.396 . S
C225 C220 1.499 . S
C225 H226 0.959 . S
C225 H227 0.960 . S
C225 H228 0.961 . S
H226 C225 0.959 . S
H227 C225 0.960 . S
H228 C225 0.961 . S
O229 Co204 1.967 . S
O229 C237 1.258 . S
O230 Co205 1.941 . S
O230 C237 1.266 . S
H231 C233 0.959 . S
H232 C233 0.961 . S
C233 C223 1.510 . S
C233 H231 0.959 . S
C233 H232 0.961 . S
C233 H234 0.960 . S
H234 C233 0.960 . S
H235 N215 0.862 . S
O236 Co204 1.920 . S
O236 C209 1.289 . S
C237 O229 1.258 . S
C237 O230 1.266 . S
Co238 O241 1.970 . S
Co238 N255 1.989 . S
Co238 O263 1.967 . S
Co238 O270 1.920 . S
Co239 O242 1.966 . S
Co239 N248 2.022 . S
Co239 N256 1.993 . S
Co239 O264 1.941 . S
C240 O241 1.258 . S
C240 O242 1.263 . S
O241 Co238 1.970 . S
O241 C240 1.258 . S
O242 Co239 1.966 . S
O242 C240 1.263 . S
C243 O244 1.235 . S
C243 O270 1.289 . S
O244 C243 1.235 . S
C245 C247 1.400 . S
C245 N248 1.351 . S
C245 C250 1.501 . S
C246 C247 1.387 . S
C246 N249 1.341 . S
C247 C245 1.400 . S
C247 C246 1.387 . S
N248 Co239 2.022 . S
N248 C245 1.351 . S
N248 N249 1.365 . S
N249 C246 1.341 . S
N249 N248 1.365 . S
N249 H269 0.862 . S
C250 C245 1.501 . S
C250 H251 0.961 . S
C250 H252 0.961 . S
C250 H253 0.960 . S
H251 C250 0.961 . S
H252 C250 0.961 . S
H253 C250 0.960 . S
C254 N255 1.342 . S
C254 C258 1.401 . S
C254 C259 1.499 . S
N255 Co238 1.989 . S
N255 C254 1.342 . S
N255 N256 1.388 . S
N256 Co239 1.993 . S
N256 N255 1.388 . S
N256 C257 1.346 . S
C257 N256 1.346 . S
C257 C258 1.396 . S
C257 C267 1.510 . S
C258 C254 1.401 . S
C258 C257 1.396 . S
C259 C254 1.499 . S
C259 H260 0.959 . S
C259 H261 0.960 . S
C259 H262 0.961 . S
H260 C259 0.959 . S
H261 C259 0.960 . S
H262 C259 0.961 . S
O263 Co238 1.967 . S
O263 C271 1.258 . S
O264 Co239 1.941 . S
O264 C271 1.266 . S
H265 C267 0.959 . S
H266 C267 0.961 . S
C267 C257 1.510 . S
C267 H265 0.959 . S
C267 H266 0.961 . S
C267 H268 0.960 . S
H268 C267 0.960 . S
H269 N249 0.862 . S
O270 Co238 1.920 . S
O270 C243 1.289 . S
C271 O263 1.258 . S
C271 O264 1.266 . S
Co272 O275 1.970 . S
Co272 N289 1.989 . S
Co272 O297 1.967 . S
Co272 O304 1.920 . S
Co273 O276 1.966 . S
Co273 N282 2.022 . S
Co273 N290 1.993 . S
Co273 O298 1.941 . S
C274 O275 1.258 . S
C274 O276 1.263 . S
O275 Co272 1.970 . S
O275 C274 1.258 . S
O276 Co273 1.966 . S
O276 C274 1.263 . S
C277 O278 1.235 . S
C277 O304 1.289 . S
O278 C277 1.235 . S
C279 C281 1.400 . S
C279 N282 1.351 . S
C279 C284 1.501 . S
C280 C281 1.387 . S
C280 N283 1.341 . S
C281 C279 1.400 . S
C281 C280 1.387 . S
N282 Co273 2.022 . S
N282 C279 1.351 . S
N282 N283 1.365 . S
N283 C280 1.341 . S
N283 N282 1.365 . S
N283 H303 0.862 . S
C284 C279 1.501 . S
C284 H285 0.961 . S
C284 H286 0.961 . S
C284 H287 0.960 . S
H285 C284 0.961 . S
H286 C284 0.961 . S
H287 C284 0.960 . S
C288 N289 1.342 . S
C288 C292 1.401 . S
C288 C293 1.499 . S
N289 Co272 1.989 . S
N289 C288 1.342 . S
N289 N290 1.388 . S
N290 Co273 1.993 . S
N290 N289 1.388 . S
N290 C291 1.346 . S
C291 N290 1.346 . S
C291 C292 1.396 . S
C291 C301 1.510 . S
C292 C288 1.401 . S
C292 C291 1.396 . S
C293 C288 1.499 . S
C293 H294 0.959 . S
C293 H295 0.960 . S
C293 H296 0.961 . S
H294 C293 0.959 . S
H295 C293 0.960 . S
H296 C293 0.961 . S
O297 Co272 1.967 . S
O297 C305 1.258 . S
O298 Co273 1.941 . S
O298 C305 1.266 . S
H299 C301 0.959 . S
H300 C301 0.961 . S
C301 C291 1.510 . S
C301 H299 0.959 . S
C301 H300 0.961 . S
C301 H302 0.960 . S
H302 C301 0.960 . S
H303 N283 0.862 . S
O304 Co272 1.920 . S
O304 C277 1.289 . S
C305 O297 1.258 . S
C305 O298 1.266 . S
Co306 O309 1.970 . S
Co306 N323 1.989 . S
Co306 O331 1.967 . S
Co306 O338 1.920 . S
Co307 O310 1.966 . S
Co307 N316 2.022 . S
Co307 N324 1.993 . S
Co307 O332 1.941 . S
C308 O309 1.258 . S
C308 O310 1.263 . S
O309 Co306 1.970 . S
O309 C308 1.258 . S
O310 Co307 1.966 . S
O310 C308 1.263 . S
C311 O312 1.235 . S
C311 O338 1.289 . S
O312 C311 1.235 . S
C313 C315 1.400 . S
C313 N316 1.351 . S
C313 C318 1.501 . S
C314 C315 1.387 . S
C314 N317 1.341 . S
C315 C313 1.400 . S
C315 C314 1.387 . S
N316 Co307 2.022 . S
N316 C313 1.351 . S
N316 N317 1.365 . S
N317 C314 1.341 . S
N317 N316 1.365 . S
N317 H337 0.862 . S
C318 C313 1.501 . S
C318 H319 0.961 . S
C318 H320 0.961 . S
C318 H321 0.960 . S
H319 C318 0.961 . S
H320 C318 0.961 . S
H321 C318 0.960 . S
C322 N323 1.342 . S
C322 C326 1.401 . S
C322 C327 1.499 . S
N323 Co306 1.989 . S
N323 C322 1.342 . S
N323 N324 1.388 . S
N324 Co307 1.993 . S
N324 N323 1.388 . S
N324 C325 1.346 . S
C325 N324 1.346 . S
C325 C326 1.396 . S
C325 C335 1.510 . S
C326 C322 1.401 . S
C326 C325 1.396 . S
C327 C322 1.499 . S
C327 H328 0.959 . S
C327 H329 0.960 . S
C327 H330 0.961 . S
H328 C327 0.959 . S
H329 C327 0.960 . S
H330 C327 0.961 . S
O331 Co306 1.967 . S
O331 C339 1.258 . S
O332 Co307 1.941 . S
O332 C339 1.266 . S
H333 C335 0.959 . S
H334 C335 0.961 . S
C335 C325 1.510 . S
C335 H333 0.959 . S
C335 H334 0.961 . S
C335 H336 0.960 . S
H336 C335 0.960 . S
H337 N317 0.862 . S
O338 Co306 1.920 . S
O338 C311 1.289 . S
C339 O331 1.258 . S
C339 O332 1.266 . S
Co340 O343 1.970 . S
Co340 N357 1.989 . S
Co340 O365 1.967 . S
Co340 O372 1.920 . S
Co341 O344 1.966 . S
Co341 N350 2.022 . S
Co341 N358 1.993 . S
Co341 O366 1.941 . S
C342 O343 1.258 . S
C342 O344 1.263 . S
O343 Co340 1.970 . S
O343 C342 1.258 . S
O344 Co341 1.966 . S
O344 C342 1.263 . S
C345 O346 1.235 . S
C345 O372 1.289 . S
O346 C345 1.235 . S
C347 C349 1.400 . S
C347 N350 1.351 . S
C347 C352 1.501 . S
C348 C349 1.387 . S
C348 N351 1.341 . S
C349 C347 1.400 . S
C349 C348 1.387 . S
N350 Co341 2.022 . S
N350 C347 1.351 . S
N350 N351 1.365 . S
N351 C348 1.341 . S
N351 N350 1.365 . S
N351 H371 0.862 . S
C352 C347 1.501 . S
C352 H353 0.961 . S
C352 H354 0.961 . S
C352 H355 0.960 . S
H353 C352 0.961 . S
H354 C352 0.961 . S
H355 C352 0.960 . S
C356 N357 1.342 . S
C356 C360 1.401 . S
C356 C361 1.499 . S
N357 Co340 1.989 . S
N357 C356 1.342 . S
N357 N358 1.388 . S
N358 Co341 1.993 . S
N358 N357 1.388 . S
N358 C359 1.346 . S
C359 N358 1.346 . S
C359 C360 1.396 . S
C359 C369 1.510 . S
C360 C356 1.401 . S
C360 C359 1.396 . S
C361 C356 1.499 . S
C361 H362 0.959 . S
C361 H363 0.960 . S
C361 H364 0.961 . S
H362 C361 0.959 . S
H363 C361 0.960 . S
H364 C361 0.961 . S
O365 Co340 1.967 . S
O365 C373 1.258 . S
O366 Co341 1.941 . S
O366 C373 1.266 . S
H367 C369 0.959 . S
H368 C369 0.961 . S
C369 C359 1.510 . S
C369 H367 0.959 . S
C369 H368 0.961 . S
C369 H370 0.960 . S
H370 C369 0.960 . S
H371 N351 0.862 . S
O372 Co340 1.920 . S
O372 C345 1.289 . S
C373 O365 1.258 . S
C373 O366 1.266 . S
Co374 O377 1.970 . S
Co374 N391 1.989 . S
Co374 O399 1.967 . S
Co374 O406 1.920 . S
Co375 O378 1.966 . S
Co375 N384 2.022 . S
Co375 N392 1.993 . S
Co375 O400 1.941 . S
C376 O377 1.258 . S
C376 O378 1.263 . S
O377 Co374 1.970 . S
O377 C376 1.258 . S
O378 Co375 1.966 . S
O378 C376 1.263 . S
C379 O380 1.235 . S
C379 O406 1.289 . S
O380 C379 1.235 . S
C381 C383 1.400 . S
C381 N384 1.351 . S
C381 C386 1.501 . S
C382 C383 1.387 . S
C382 N385 1.341 . S
C383 C381 1.400 . S
C383 C382 1.387 . S
N384 Co375 2.022 . S
N384 C381 1.351 . S
N384 N385 1.365 . S
N385 C382 1.341 . S
N385 N384 1.365 . S
N385 H405 0.862 . S
C386 C381 1.501 . S
C386 H387 0.961 . S
C386 H388 0.961 . S
C386 H389 0.960 . S
H387 C386 0.961 . S
H388 C386 0.961 . S
H389 C386 0.960 . S
C390 N391 1.342 . S
C390 C394 1.401 . S
C390 C395 1.499 . S
N391 Co374 1.989 . S
N391 C390 1.342 . S
N391 N392 1.388 . S
N392 Co375 1.993 . S
N392 N391 1.388 . S
N392 C393 1.346 . S
C393 N392 1.346 . S
C393 C394 1.396 . S
C393 C403 1.510 . S
C394 C390 1.401 . S
C394 C393 1.396 . S
C395 C390 1.499 . S
C395 H396 0.959 . S
C395 H397 0.960 . S
C395 H398 0.961 . S
H396 C395 0.959 . S
H397 C395 0.960 . S
H398 C395 0.961 . S
O399 Co374 1.967 . S
O399 C407 1.258 . S
O400 Co375 1.941 . S
O400 C407 1.266 . S
H401 C403 0.959 . S
H402 C403 0.961 . S
C403 C393 1.510 . S
C403 H401 0.959 . S
C403 H402 0.961 . S
C403 H404 0.960 . S
H404 C403 0.960 . S
H405 N385 0.862 . S
O406 Co374 1.920 . S
O406 C379 1.289 . S
C407 O399 1.258 . S
C407 O400 1.266 . S
Co408 O411 1.970 . S
Co408 N425 1.989 . S
Co408 O433 1.967 . S
Co408 O440 1.920 . S
Co409 O412 1.966 . S
Co409 N418 2.022 . S
Co409 N426 1.993 . S
Co409 O434 1.941 . S
C410 O411 1.258 . S
C410 O412 1.263 . S
O411 Co408 1.970 . S
O411 C410 1.258 . S
O412 Co409 1.966 . S
O412 C410 1.263 . S
C413 O414 1.235 . S
C413 O440 1.289 . S
O414 C413 1.235 . S
C415 C417 1.400 . S
C415 N418 1.351 . S
C415 C420 1.501 . S
C416 C417 1.387 . S
C416 N419 1.341 . S
C417 C415 1.400 . S
C417 C416 1.387 . S
N418 Co409 2.022 . S
N418 C415 1.351 . S
N418 N419 1.365 . S
N419 C416 1.341 . S
N419 N418 1.365 . S
N419 H439 0.862 . S
C420 C415 1.501 . S
C420 H421 0.961 . S
C420 H422 0.961 . S
C420 H423 0.960 . S
H421 C420 0.961 . S
H422 C420 0.961 . S
H423 C420 0.960 . S
C424 N425 1.342 . S
C424 C428 1.401 . S
C424 C429 1.499 . S
N425 Co408 1.989 . S
N425 C424 1.342 . S
N425 N426 1.388 . S
N426 Co409 1.993 . S
N426 N425 1.388 . S
N426 C427 1.346 . S
C427 N426 1.346 . S
C427 C428 1.396 . S
C427 C437 1.510 . S
C428 C424 1.401 . S
C428 C427 1.396 . S
C429 C424 1.499 . S
C429 H430 0.959 . S
C429 H431 0.960 . S
C429 H432 0.961 . S
H430 C429 0.959 . S
H431 C429 0.960 . S
H432 C429 0.961 . S
O433 Co408 1.967 . S
O433 C441 1.258 . S
O434 Co409 1.941 . S
O434 C441 1.266 . S
H435 C437 0.959 . S
H436 C437 0.961 . S
C437 C427 1.510 . S
C437 H435 0.959 . S
C437 H436 0.961 . S
C437 H438 0.960 . S
H438 C437 0.960 . S
H439 N419 0.862 . S
O440 Co408 1.920 . S
O440 C413 1.289 . S
C441 O433 1.258 . S
C441 O434 1.266 . S
Co442 O445 1.970 . S
Co442 N459 1.989 . S
Co442 O467 1.967 . S
Co442 O474 1.920 . S
Co443 O446 1.966 . S
Co443 N452 2.022 . S
Co443 N460 1.993 . S
Co443 O468 1.941 . S
C444 O445 1.258 . S
C444 O446 1.263 . S
O445 Co442 1.970 . S
O445 C444 1.258 . S
O446 Co443 1.966 . S
O446 C444 1.263 . S
C447 O448 1.235 . S
C447 O474 1.289 . S
O448 C447 1.235 . S
C449 C451 1.400 . S
C449 N452 1.351 . S
C449 C454 1.501 . S
C450 C451 1.387 . S
C450 N453 1.341 . S
C451 C449 1.400 . S
C451 C450 1.387 . S
N452 Co443 2.022 . S
N452 C449 1.351 . S
N452 N453 1.365 . S
N453 C450 1.341 . S
N453 N452 1.365 . S
N453 H473 0.862 . S
C454 C449 1.501 . S
C454 H455 0.961 . S
C454 H456 0.961 . S
C454 H457 0.960 . S
H455 C454 0.961 . S
H456 C454 0.961 . S
H457 C454 0.960 . S
C458 N459 1.342 . S
C458 C462 1.401 . S
C458 C463 1.499 . S
N459 Co442 1.989 . S
N459 C458 1.342 . S
N459 N460 1.388 . S
N460 Co443 1.993 . S
N460 N459 1.388 . S
N460 C461 1.346 . S
C461 N460 1.346 . S
C461 C462 1.396 . S
C461 C471 1.510 . S
C462 C458 1.401 . S
C462 C461 1.396 . S
C463 C458 1.499 . S
C463 H464 0.959 . S
C463 H465 0.960 . S
C463 H466 0.961 . S
H464 C463 0.959 . S
H465 C463 0.960 . S
H466 C463 0.961 . S
O467 Co442 1.967 . S
O467 C475 1.258 . S
O468 Co443 1.941 . S
O468 C475 1.266 . S
H469 C471 0.959 . S
H470 C471 0.961 . S
C471 C461 1.510 . S
C471 H469 0.959 . S
C471 H470 0.961 . S
C471 H472 0.960 . S
H472 C471 0.960 . S
H473 N453 0.862 . S
O474 Co442 1.920 . S
O474 C447 1.289 . S
C475 O467 1.258 . S
C475 O468 1.266 . S
Co476 O479 1.970 . S
Co476 N493 1.989 . S
Co476 O501 1.967 . S
Co476 O508 1.920 . S
Co477 O480 1.966 . S
Co477 N486 2.022 . S
Co477 N494 1.993 . S
Co477 O502 1.941 . S
C478 O479 1.258 . S
C478 O480 1.263 . S
O479 Co476 1.970 . S
O479 C478 1.258 . S
O480 Co477 1.966 . S
O480 C478 1.263 . S
C481 O482 1.235 . S
C481 O508 1.289 . S
O482 C481 1.235 . S
C483 C485 1.400 . S
C483 N486 1.351 . S
C483 C488 1.501 . S
C484 C485 1.387 . S
C484 N487 1.341 . S
C485 C483 1.400 . S
C485 C484 1.387 . S
N486 Co477 2.022 . S
N486 C483 1.351 . S
N486 N487 1.365 . S
N487 C484 1.341 . S
N487 N486 1.365 . S
N487 H507 0.862 . S
C488 C483 1.501 . S
C488 H489 0.961 . S
C488 H490 0.961 . S
C488 H491 0.960 . S
H489 C488 0.961 . S
H490 C488 0.961 . S
H491 C488 0.960 . S
C492 N493 1.342 . S
C492 C496 1.401 . S
C492 C497 1.499 . S
N493 Co476 1.989 . S
N493 C492 1.342 . S
N493 N494 1.388 . S
N494 Co477 1.993 . S
N494 N493 1.388 . S
N494 C495 1.346 . S
C495 N494 1.346 . S
C495 C496 1.396 . S
C495 C505 1.510 . S
C496 C492 1.401 . S
C496 C495 1.396 . S
C497 C492 1.499 . S
C497 H498 0.959 . S
C497 H499 0.960 . S
C497 H500 0.961 . S
H498 C497 0.959 . S
H499 C497 0.960 . S
H500 C497 0.961 . S
O501 Co476 1.967 . S
O501 C509 1.258 . S
O502 Co477 1.941 . S
O502 C509 1.266 . S
H503 C505 0.959 . S
H504 C505 0.961 . S
C505 C495 1.510 . S
C505 H503 0.959 . S
C505 H504 0.961 . S
C505 H506 0.960 . S
H506 C505 0.960 . S
H507 N487 0.862 . S
O508 Co476 1.920 . S
O508 C481 1.289 . S
C509 O501 1.258 . S
C509 O502 1.266 . S
Co510 O513 1.970 . S
Co510 N527 1.989 . S
Co510 O535 1.967 . S
Co510 O542 1.920 . S
Co511 O514 1.966 . S
Co511 N520 2.022 . S
Co511 N528 1.993 . S
Co511 O536 1.941 . S
C512 O513 1.258 . S
C512 O514 1.263 . S
O513 Co510 1.970 . S
O513 C512 1.258 . S
O514 Co511 1.966 . S
O514 C512 1.263 . S
C515 O516 1.235 . S
C515 O542 1.289 . S
O516 C515 1.235 . S
C517 C519 1.400 . S
C517 N520 1.351 . S
C517 C522 1.501 . S
C518 C519 1.387 . S
C518 N521 1.341 . S
C519 C517 1.400 . S
C519 C518 1.387 . S
N520 Co511 2.022 . S
N520 C517 1.351 . S
N520 N521 1.365 . S
N521 C518 1.341 . S
N521 N520 1.365 . S
N521 H541 0.862 . S
C522 C517 1.501 . S
C522 H523 0.961 . S
C522 H524 0.961 . S
C522 H525 0.960 . S
H523 C522 0.961 . S
H524 C522 0.961 . S
H525 C522 0.960 . S
C526 N527 1.342 . S
C526 C530 1.401 . S
C526 C531 1.499 . S
N527 Co510 1.989 . S
N527 C526 1.342 . S
N527 N528 1.388 . S
N528 Co511 1.993 . S
N528 N527 1.388 . S
N528 C529 1.346 . S
C529 N528 1.346 . S
C529 C530 1.396 . S
C529 C539 1.510 . S
C530 C526 1.401 . S
C530 C529 1.396 . S
C531 C526 1.499 . S
C531 H532 0.959 . S
C531 H533 0.960 . S
C531 H534 0.961 . S
H532 C531 0.959 . S
H533 C531 0.960 . S
H534 C531 0.961 . S
O535 Co510 1.967 . S
O535 C543 1.258 . S
O536 Co511 1.941 . S
O536 C543 1.266 . S
H537 C539 0.959 . S
H538 C539 0.961 . S
C539 C529 1.510 . S
C539 H537 0.959 . S
C539 H538 0.961 . S
C539 H540 0.960 . S
H540 C539 0.960 . S
H541 N521 0.862 . S
O542 Co510 1.920 . S
O542 C515 1.289 . S
C543 O535 1.258 . S
C543 O536 1.266 . S
Co544 O547 1.970 . S
Co544 N561 1.989 . S
Co544 O569 1.967 . S
Co544 O576 1.920 . S
Co545 O548 1.966 . S
Co545 N554 2.022 . S
Co545 N562 1.993 . S
Co545 O570 1.941 . S
C546 O547 1.258 . S
C546 O548 1.263 . S
O547 Co544 1.970 . S
O547 C546 1.258 . S
O548 Co545 1.966 . S
O548 C546 1.263 . S
C549 O550 1.235 . S
C549 O576 1.289 . S
O550 C549 1.235 . S
C551 C553 1.400 . S
C551 N554 1.351 . S
C551 C556 1.501 . S
C552 C553 1.387 . S
C552 N555 1.341 . S
C553 C551 1.400 . S
C553 C552 1.387 . S
N554 Co545 2.022 . S
N554 C551 1.351 . S
N554 N555 1.365 . S
N555 C552 1.341 . S
N555 N554 1.365 . S
N555 H575 0.862 . S
C556 C551 1.501 . S
C556 H557 0.961 . S
C556 H558 0.961 . S
C556 H559 0.960 . S
H557 C556 0.961 . S
H558 C556 0.961 . S
H559 C556 0.960 . S
C560 N561 1.342 . S
C560 C564 1.401 . S
C560 C565 1.499 . S
N561 Co544 1.989 . S
N561 C560 1.342 . S
N561 N562 1.388 . S
N562 Co545 1.993 . S
N562 N561 1.388 . S
N562 C563 1.346 . S
C563 N562 1.346 . S
C563 C564 1.396 . S
C563 C573 1.510 . S
C564 C560 1.401 . S
C564 C563 1.396 . S
C565 C560 1.499 . S
C565 H566 0.959 . S
C565 H567 0.960 . S
C565 H568 0.961 . S
H566 C565 0.959 . S
H567 C565 0.960 . S
H568 C565 0.961 . S
O569 Co544 1.967 . S
O569 C577 1.258 . S
O570 Co545 1.941 . S
O570 C577 1.266 . S
H571 C573 0.959 . S
H572 C573 0.961 . S
C573 C563 1.510 . S
C573 H571 0.959 . S
C573 H572 0.961 . S
C573 H574 0.960 . S
H574 C573 0.960 . S
H575 N555 0.862 . S
O576 Co544 1.920 . S
O576 C549 1.289 . S
C577 O569 1.258 . S
C577 O570 1.266 . S
Co578 O581 1.970 . S
Co578 N595 1.989 . S
Co578 O603 1.967 . S
Co578 O610 1.920 . S
Co579 O582 1.966 . S
Co579 N588 2.022 . S
Co579 N596 1.993 . S
Co579 O604 1.941 . S
C580 O581 1.258 . S
C580 O582 1.263 . S
O581 Co578 1.970 . S
O581 C580 1.258 . S
O582 Co579 1.966 . S
O582 C580 1.263 . S
C583 O584 1.235 . S
C583 O610 1.289 . S
O584 C583 1.235 . S
C585 C587 1.400 . S
C585 N588 1.351 . S
C585 C590 1.501 . S
C586 C587 1.387 . S
C586 N589 1.341 . S
C587 C585 1.400 . S
C587 C586 1.387 . S
N588 Co579 2.022 . S
N588 C585 1.351 . S
N588 N589 1.365 . S
N589 C586 1.341 . S
N589 N588 1.365 . S
N589 H609 0.862 . S
C590 C585 1.501 . S
C590 H591 0.961 . S
C590 H592 0.961 . S
C590 H593 0.960 . S
H591 C590 0.961 . S
H592 C590 0.961 . S
H593 C590 0.960 . S
C594 N595 1.342 . S
C594 C598 1.401 . S
C594 C599 1.499 . S
N595 Co578 1.989 . S
N595 C594 1.342 . S
N595 N596 1.388 . S
N596 Co579 1.993 . S
N596 N595 1.388 . S
N596 C597 1.346 . S
C597 N596 1.346 . S
C597 C598 1.396 . S
C597 C607 1.510 . S
C598 C594 1.401 . S
C598 C597 1.396 . S
C599 C594 1.499 . S
C599 H600 0.959 . S
C599 H601 0.960 . S
C599 H602 0.961 . S
H600 C599 0.959 . S
H601 C599 0.960 . S
H602 C599 0.961 . S
O603 Co578 1.967 . S
O603 C611 1.258 . S
O604 Co579 1.941 . S
O604 C611 1.266 . S
H605 C607 0.959 . S
H606 C607 0.961 . S
C607 C597 1.510 . S
C607 H605 0.959 . S
C607 H606 0.961 . S
C607 H608 0.960 . S
H608 C607 0.960 . S
H609 N589 0.862 . S
O610 Co578 1.920 . S
O610 C583 1.289 . S
C611 O603 1.258 . S
C611 O604 1.266 . S
Co612 O615 1.970 . S
Co612 N629 1.989 . S
Co612 O637 1.967 . S
Co612 O644 1.920 . S
Co613 O616 1.966 . S
Co613 N622 2.022 . S
Co613 N630 1.993 . S
Co613 O638 1.941 . S
C614 O615 1.258 . S
C614 O616 1.263 . S
O615 Co612 1.970 . S
O615 C614 1.258 . S
O616 Co613 1.966 . S
O616 C614 1.263 . S
C617 O618 1.235 . S
C617 O644 1.289 . S
O618 C617 1.235 . S
C619 C621 1.400 . S
C619 N622 1.351 . S
C619 C624 1.501 . S
C620 C621 1.387 . S
C620 N623 1.341 . S
C621 C619 1.400 . S
C621 C620 1.387 . S
N622 Co613 2.022 . S
N622 C619 1.351 . S
N622 N623 1.365 . S
N623 C620 1.341 . S
N623 N622 1.365 . S
N623 H643 0.862 . S
C624 C619 1.501 . S
C624 H625 0.961 . S
C624 H626 0.961 . S
C624 H627 0.960 . S
H625 C624 0.961 . S
H626 C624 0.961 . S
H627 C624 0.960 . S
C628 N629 1.342 . S
C628 C632 1.401 . S
C628 C633 1.499 . S
N629 Co612 1.989 . S
N629 C628 1.342 . S
N629 N630 1.388 . S
N630 Co613 1.993 . S
N630 N629 1.388 . S
N630 C631 1.346 . S
C631 N630 1.346 . S
C631 C632 1.396 . S
C631 C641 1.510 . S
C632 C628 1.401 . S
C632 C631 1.396 . S
C633 C628 1.499 . S
C633 H634 0.959 . S
C633 H635 0.960 . S
C633 H636 0.961 . S
H634 C633 0.959 . S
H635 C633 0.960 . S
H636 C633 0.961 . S
O637 Co612 1.967 . S
O637 C645 1.258 . S
O638 Co613 1.941 . S
O638 C645 1.266 . S
H639 C641 0.959 . S
H640 C641 0.961 . S
C641 C631 1.510 . S
C641 H639 0.959 . S
C641 H640 0.961 . S
C641 H642 0.960 . S
H642 C641 0.960 . S
H643 N623 0.862 . S
O644 Co612 1.920 . S
O644 C617 1.289 . S
C645 O637 1.258 . S
C645 O638 1.266 . S
Co646 O649 1.970 . S
Co646 N663 1.989 . S
Co646 O671 1.967 . S
Co646 O678 1.920 . S
Co647 O650 1.966 . S
Co647 N656 2.022 . S
Co647 N664 1.993 . S
Co647 O672 1.941 . S
C648 O649 1.258 . S
C648 O650 1.263 . S
O649 Co646 1.970 . S
O649 C648 1.258 . S
O650 Co647 1.966 . S
O650 C648 1.263 . S
C651 O652 1.235 . S
C651 O678 1.289 . S
O652 C651 1.235 . S
C653 C655 1.400 . S
C653 N656 1.351 . S
C653 C658 1.501 . S
C654 C655 1.387 . S
C654 N657 1.341 . S
C655 C653 1.400 . S
C655 C654 1.387 . S
N656 Co647 2.022 . S
N656 C653 1.351 . S
N656 N657 1.365 . S
N657 C654 1.341 . S
N657 N656 1.365 . S
N657 H677 0.862 . S
C658 C653 1.501 . S
C658 H659 0.961 . S
C658 H660 0.961 . S
C658 H661 0.960 . S
H659 C658 0.961 . S
H660 C658 0.961 . S
H661 C658 0.960 . S
C662 N663 1.342 . S
C662 C666 1.401 . S
C662 C667 1.499 . S
N663 Co646 1.989 . S
N663 C662 1.342 . S
N663 N664 1.388 . S
N664 Co647 1.993 . S
N664 N663 1.388 . S
N664 C665 1.346 . S
C665 N664 1.346 . S
C665 C666 1.396 . S
C665 C675 1.510 . S
C666 C662 1.401 . S
C666 C665 1.396 . S
C667 C662 1.499 . S
C667 H668 0.959 . S
C667 H669 0.960 . S
C667 H670 0.961 . S
H668 C667 0.959 . S
H669 C667 0.960 . S
H670 C667 0.961 . S
O671 Co646 1.967 . S
O671 C679 1.258 . S
O672 Co647 1.941 . S
O672 C679 1.266 . S
H673 C675 0.959 . S
H674 C675 0.961 . S
C675 C665 1.510 . S
C675 H673 0.959 . S
C675 H674 0.961 . S
C675 H676 0.960 . S
H676 C675 0.960 . S
H677 N657 0.862 . S
O678 Co646 1.920 . S
O678 C651 1.289 . S
C679 O671 1.258 . S
C679 O672 1.266 . S
Co680 O683 1.970 . S
Co680 N697 1.989 . S
Co680 O705 1.967 . S
Co680 O712 1.920 . S
Co681 O684 1.966 . S
Co681 N690 2.022 . S
Co681 N698 1.993 . S
Co681 O706 1.941 . S
C682 O683 1.258 . S
C682 O684 1.263 . S
O683 Co680 1.970 . S
O683 C682 1.258 . S
O684 Co681 1.966 . S
O684 C682 1.263 . S
C685 O686 1.235 . S
C685 O712 1.289 . S
O686 C685 1.235 . S
C687 C689 1.400 . S
C687 N690 1.351 . S
C687 C692 1.501 . S
C688 C689 1.387 . S
C688 N691 1.341 . S
C689 C687 1.400 . S
C689 C688 1.387 . S
N690 Co681 2.022 . S
N690 C687 1.351 . S
N690 N691 1.365 . S
N691 C688 1.341 . S
N691 N690 1.365 . S
N691 H711 0.862 . S
C692 C687 1.501 . S
C692 H693 0.961 . S
C692 H694 0.961 . S
C692 H695 0.960 . S
H693 C692 0.961 . S
H694 C692 0.961 . S
H695 C692 0.960 . S
C696 N697 1.342 . S
C696 C700 1.401 . S
C696 C701 1.499 . S
N697 Co680 1.989 . S
N697 C696 1.342 . S
N697 N698 1.388 . S
N698 Co681 1.993 . S
N698 N697 1.388 . S
N698 C699 1.346 . S
C699 N698 1.346 . S
C699 C700 1.396 . S
C699 C709 1.510 . S
C700 C696 1.401 . S
C700 C699 1.396 . S
C701 C696 1.499 . S
C701 H702 0.959 . S
C701 H703 0.960 . S
C701 H704 0.961 . S
H702 C701 0.959 . S
H703 C701 0.960 . S
H704 C701 0.961 . S
O705 Co680 1.967 . S
O705 C713 1.258 . S
O706 Co681 1.941 . S
O706 C713 1.266 . S
H707 C709 0.959 . S
H708 C709 0.961 . S
C709 C699 1.510 . S
C709 H707 0.959 . S
C709 H708 0.961 . S
C709 H710 0.960 . S
H710 C709 0.960 . S
H711 N691 0.862 . S
O712 Co680 1.920 . S
O712 C685 1.289 . S
C713 O705 1.258 . S
C713 O706 1.266 . S
Co714 O717 1.970 . S
Co714 N731 1.989 . S
Co714 O739 1.967 . S
Co714 O746 1.920 . S
Co715 O718 1.966 . S
Co715 N724 2.022 . S
Co715 N732 1.993 . S
Co715 O740 1.941 . S
C716 O717 1.258 . S
C716 O718 1.263 . S
O717 Co714 1.970 . S
O717 C716 1.258 . S
O718 Co715 1.966 . S
O718 C716 1.263 . S
C719 O720 1.235 . S
C719 O746 1.289 . S
O720 C719 1.235 . S
C721 C723 1.400 . S
C721 N724 1.351 . S
C721 C726 1.501 . S
C722 C723 1.387 . S
C722 N725 1.341 . S
C723 C721 1.400 . S
C723 C722 1.387 . S
N724 Co715 2.022 . S
N724 C721 1.351 . S
N724 N725 1.365 . S
N725 C722 1.341 . S
N725 N724 1.365 . S
N725 H745 0.862 . S
C726 C721 1.501 . S
C726 H727 0.961 . S
C726 H728 0.961 . S
C726 H729 0.960 . S
H727 C726 0.961 . S
H728 C726 0.961 . S
H729 C726 0.960 . S
C730 N731 1.342 . S
C730 C734 1.401 . S
C730 C735 1.499 . S
N731 Co714 1.989 . S
N731 C730 1.342 . S
N731 N732 1.388 . S
N732 Co715 1.993 . S
N732 N731 1.388 . S
N732 C733 1.346 . S
C733 N732 1.346 . S
C733 C734 1.396 . S
C733 C743 1.510 . S
C734 C730 1.401 . S
C734 C733 1.396 . S
C735 C730 1.499 . S
C735 H736 0.959 . S
C735 H737 0.960 . S
C735 H738 0.961 . S
H736 C735 0.959 . S
H737 C735 0.960 . S
H738 C735 0.961 . S
O739 Co714 1.967 . S
O739 C747 1.258 . S
O740 Co715 1.941 . S
O740 C747 1.266 . S
H741 C743 0.959 . S
H742 C743 0.961 . S
C743 C733 1.510 . S
C743 H741 0.959 . S
C743 H742 0.961 . S
C743 H744 0.960 . S
H744 C743 0.960 . S
H745 N725 0.862 . S
O746 Co714 1.920 . S
O746 C719 1.289 . S
C747 O739 1.258 . S
C747 O740 1.266 . S
Co748 O751 1.970 . S
Co748 N765 1.989 . S
Co748 O773 1.967 . S
Co748 O780 1.920 . S
Co749 O752 1.966 . S
Co749 N758 2.022 . S
Co749 N766 1.993 . S
Co749 O774 1.941 . S
C750 O751 1.258 . S
C750 O752 1.263 . S
O751 Co748 1.970 . S
O751 C750 1.258 . S
O752 Co749 1.966 . S
O752 C750 1.263 . S
C753 O754 1.235 . S
C753 O780 1.289 . S
O754 C753 1.235 . S
C755 C757 1.400 . S
C755 N758 1.351 . S
C755 C760 1.501 . S
C756 C757 1.387 . S
C756 N759 1.341 . S
C757 C755 1.400 . S
C757 C756 1.387 . S
N758 Co749 2.022 . S
N758 C755 1.351 . S
N758 N759 1.365 . S
N759 C756 1.341 . S
N759 N758 1.365 . S
N759 H779 0.862 . S
C760 C755 1.501 . S
C760 H761 0.961 . S
C760 H762 0.961 . S
C760 H763 0.960 . S
H761 C760 0.961 . S
H762 C760 0.961 . S
H763 C760 0.960 . S
C764 N765 1.342 . S
C764 C768 1.401 . S
C764 C769 1.499 . S
N765 Co748 1.989 . S
N765 C764 1.342 . S
N765 N766 1.388 . S
N766 Co749 1.993 . S
N766 N765 1.388 . S
N766 C767 1.346 . S
C767 N766 1.346 . S
C767 C768 1.396 . S
C767 C777 1.510 . S
C768 C764 1.401 . S
C768 C767 1.396 . S
C769 C764 1.499 . S
C769 H770 0.959 . S
C769 H771 0.960 . S
C769 H772 0.961 . S
H770 C769 0.959 . S
H771 C769 0.960 . S
H772 C769 0.961 . S
O773 Co748 1.967 . S
O773 C781 1.258 . S
O774 Co749 1.941 . S
O774 C781 1.266 . S
H775 C777 0.959 . S
H776 C777 0.961 . S
C777 C767 1.510 . S
C777 H775 0.959 . S
C777 H776 0.961 . S
C777 H778 0.960 . S
H778 C777 0.960 . S
H779 N759 0.862 . S
O780 Co748 1.920 . S
O780 C753 1.289 . S
C781 O773 1.258 . S
C781 O774 1.266 . S
Co782 O785 1.970 . S
Co782 N799 1.989 . S
Co782 O807 1.967 . S
Co782 O814 1.920 . S
Co783 O786 1.966 . S
Co783 N792 2.022 . S
Co783 N800 1.993 . S
Co783 O808 1.941 . S
C784 O785 1.258 . S
C784 O786 1.263 . S
O785 Co782 1.970 . S
O785 C784 1.258 . S
O786 Co783 1.966 . S
O786 C784 1.263 . S
C787 O788 1.235 . S
C787 O814 1.289 . S
O788 C787 1.235 . S
C789 C791 1.400 . S
C789 N792 1.351 . S
C789 C794 1.501 . S
C790 C791 1.387 . S
C790 N793 1.341 . S
C791 C789 1.400 . S
C791 C790 1.387 . S
N792 Co783 2.022 . S
N792 C789 1.351 . S
N792 N793 1.365 . S
N793 C790 1.341 . S
N793 N792 1.365 . S
N793 H813 0.862 . S
C794 C789 1.501 . S
C794 H795 0.961 . S
C794 H796 0.961 . S
C794 H797 0.960 . S
H795 C794 0.961 . S
H796 C794 0.961 . S
H797 C794 0.960 . S
C798 N799 1.342 . S
C798 C802 1.401 . S
C798 C803 1.499 . S
N799 Co782 1.989 . S
N799 C798 1.342 . S
N799 N800 1.388 . S
N800 Co783 1.993 . S
N800 N799 1.388 . S
N800 C801 1.346 . S
C801 N800 1.346 . S
C801 C802 1.396 . S
C801 C811 1.510 . S
C802 C798 1.401 . S
C802 C801 1.396 . S
C803 C798 1.499 . S
C803 H804 0.959 . S
C803 H805 0.960 . S
C803 H806 0.961 . S
H804 C803 0.959 . S
H805 C803 0.960 . S
H806 C803 0.961 . S
O807 Co782 1.967 . S
O807 C815 1.258 . S
O808 Co783 1.941 . S
O808 C815 1.266 . S
H809 C811 0.959 . S
H810 C811 0.961 . S
C811 C801 1.510 . S
C811 H809 0.959 . S
C811 H810 0.961 . S
C811 H812 0.960 . S
H812 C811 0.960 . S
H813 N793 0.862 . S
O814 Co782 1.920 . S
O814 C787 1.289 . S
C815 O807 1.258 . S
C815 O808 1.266 . S
H816 C828 0.930 . S
H817 C830 0.930 . S
H818 C831 0.930 . S
H819 C835 0.959 . S
H820 C835 0.959 . S
H821 C835 0.961 . S
H822 C836 0.960 . S
H823 C836 0.961 1_565 S
H824 C836 0.959 . S
H825 C839 0.929 . S
H826 C840 0.931 . S
H827 C842 0.930 . S
C828 H816 0.930 . S
C828 C829 1.399 . S
C828 C833 1.399 . S
C829 C828 1.399 . S
C829 C830 1.376 . S
C830 H817 0.930 . S
C830 C829 1.376 . S
C830 C831 1.388 . S
C831 H818 0.930 . S
C831 C830 1.388 . S
C831 C832 1.390 . S
C832 C831 1.390 . S
C832 C833 1.394 . S
C832 C838 1.465 1_545 S
C833 C828 1.399 . S
C833 C832 1.394 . S
C833 C834 1.516 1_545 S
C834 C833 1.516 1_565 S
C834 C835 1.502 . S
C834 C836 1.561 1_565 S
C834 C837 1.526 . S
C835 H819 0.959 . S
C835 H820 0.959 . S
C835 H821 0.961 . S
C835 C834 1.502 . S
C836 H822 0.960 . S
C836 H823 0.961 1_545 S
C836 H824 0.959 . S
C836 C834 1.561 1_545 S
C837 C834 1.526 . S
C837 C838 1.396 . S
C837 C842 1.390 . S
C838 C832 1.465 1_565 S
C838 C837 1.396 . S
C838 C839 1.399 . S
C839 H825 0.929 . S
C839 C838 1.399 . S
C839 C840 1.385 . S
C840 H826 0.931 . S
C840 C839 1.385 . S
C840 C841 1.389 . S
C841 C840 1.389 . S
C841 C842 1.387 . S
C842 H827 0.930 . S
C842 C837 1.390 . S
C842 C841 1.387 . S
H843 C855 0.930 . S
H844 C857 0.930 . S
H845 C858 0.930 . S
H846 C862 0.959 . S
H847 C862 0.959 . S
H848 C862 0.961 . S
H849 C863 0.960 . S
H850 C863 0.961 . S
H851 C863 0.959 . S
H852 C866 0.929 . S
H853 C867 0.931 . S
H854 C869 0.930 . S
C855 H843 0.930 . S
C855 C856 1.399 . S
C855 C860 1.399 . S
C856 C855 1.399 . S
C856 C857 1.376 . S
C857 H844 0.930 . S
C857 C856 1.376 . S
C857 C858 1.388 . S
C858 H845 0.930 . S
C858 C857 1.388 . S
C858 C859 1.390 . S
C859 C858 1.390 . S
C859 C860 1.394 . S
C859 C865 1.465 . S
C860 C855 1.399 . S
C860 C859 1.394 . S
C860 C861 1.516 . S
C861 C860 1.516 . S
C861 C862 1.502 . S
C861 C863 1.561 . S
C861 C864 1.526 . S
C862 H846 0.959 . S
C862 H847 0.959 . S
C862 H848 0.961 . S
C862 C861 1.502 . S
C863 H849 0.960 . S
C863 H850 0.961 . S
C863 H851 0.959 . S
C863 C861 1.561 . S
C864 C861 1.526 . S
C864 C865 1.396 . S
C864 C869 1.390 . S
C865 C859 1.465 . S
C865 C864 1.396 . S
C865 C866 1.399 . S
C866 H852 0.929 . S
C866 C865 1.399 . S
C866 C867 1.385 . S
C867 H853 0.931 . S
C867 C866 1.385 . S
C867 C868 1.389 . S
C868 C867 1.389 . S
C868 C869 1.387 . S
C869 H854 0.930 . S
C869 C864 1.390 . S
C869 C868 1.387 . S
H870 C882 0.930 . S
H871 C884 0.930 . S
H872 C885 0.930 . S
H873 C889 0.959 . S
H874 C889 0.959 . S
H875 C889 0.961 . S
H876 C890 0.960 1_455 S
H877 C890 0.961 . S
H878 C890 0.959 . S
H879 C893 0.929 . S
H880 C894 0.931 . S
H881 C896 0.930 . S
C882 H870 0.930 . S
C882 C883 1.399 . S
C882 C887 1.399 . S
C883 C882 1.399 . S
C883 C884 1.376 . S
C884 H871 0.930 . S
C884 C883 1.376 . S
C884 C885 1.388 . S
C885 H872 0.930 . S
C885 C884 1.388 . S
C885 C886 1.390 . S
C886 C885 1.390 . S
C886 C887 1.394 . S
C886 C892 1.465 1_455 S
C887 C882 1.399 . S
C887 C886 1.394 . S
C887 C888 1.516 . S
C888 C887 1.516 . S
C888 C889 1.502 . S
C888 C890 1.561 1_455 S
C888 C891 1.526 1_455 S
C889 H873 0.959 . S
C889 H874 0.959 . S
C889 H875 0.961 . S
C889 C888 1.502 . S
C890 H876 0.960 1_655 S
C890 H877 0.961 . S
C890 H878 0.959 . S
C890 C888 1.561 1_655 S
C891 C888 1.526 1_655 S
C891 C892 1.396 . S
C891 C896 1.390 . S
C892 C886 1.465 1_655 S
C892 C891 1.396 . S
C892 C893 1.399 . S
C893 H879 0.929 . S
C893 C892 1.399 . S
C893 C894 1.385 . S
C894 H880 0.931 . S
C894 C893 1.385 . S
C894 C895 1.389 . S
C895 C894 1.389 . S
C895 C896 1.387 . S
C896 H881 0.930 . S
C896 C891 1.390 . S
C896 C895 1.387 . S
H897 C909 0.930 . S
H898 C911 0.930 . S
H899 C912 0.930 . S
H900 C916 0.959 . S
H901 C916 0.959 . S
H902 C916 0.961 . S
H903 C917 0.960 . S
H904 C917 0.961 1_655 S
H905 C917 0.959 . S
H906 C920 0.929 . S
H907 C921 0.931 . S
H908 C923 0.930 . S
C909 H897 0.930 . S
C909 C910 1.399 . S
C909 C914 1.399 . S
C910 C909 1.399 . S
C910 C911 1.376 . S
C911 H898 0.930 . S
C911 C910 1.376 . S
C911 C912 1.388 . S
C912 H899 0.930 . S
C912 C911 1.388 . S
C912 C913 1.390 . S
C913 C912 1.390 . S
C913 C914 1.394 . S
C913 C919 1.465 1_455 S
C914 C909 1.399 . S
C914 C913 1.394 . S
C914 C915 1.516 1_455 S
C915 C914 1.516 1_655 S
C915 C916 1.502 . S
C915 C917 1.561 1_655 S
C915 C918 1.526 . S
C916 H900 0.959 . S
C916 H901 0.959 . S
C916 H902 0.961 . S
C916 C915 1.502 . S
C917 H903 0.960 . S
C917 H904 0.961 1_455 S
C917 H905 0.959 . S
C917 C915 1.561 1_455 S
C918 C915 1.526 . S
C918 C919 1.396 . S
C918 C923 1.390 . S
C919 C913 1.465 1_655 S
C919 C918 1.396 . S
C919 C920 1.399 . S
C920 H906 0.929 . S
C920 C919 1.399 . S
C920 C921 1.385 . S
C921 H907 0.931 . S
C921 C920 1.385 . S
C921 C922 1.389 . S
C922 C921 1.389 . S
C922 C923 1.387 . S
C923 H908 0.930 . S
C923 C918 1.390 . S
C923 C922 1.387 . S
H924 C936 0.930 . S
H925 C938 0.930 . S
H926 C939 0.930 1_545 S
H927 C943 0.959 . S
H928 C943 0.959 . S
H929 C943 0.961 . S
H930 C944 0.960 . S
H931 C944 0.961 . S
H932 C944 0.959 . S
H933 C947 0.929 . S
H934 C948 0.931 . S
H935 C950 0.930 . S
C936 H924 0.930 . S
C936 C937 1.399 . S
C936 C941 1.399 . S
C937 C936 1.399 . S
C937 C938 1.376 . S
C938 H925 0.930 . S
C938 C937 1.376 . S
C938 C939 1.388 . S
C939 H926 0.930 1_565 S
C939 C938 1.388 . S
C939 C940 1.390 . S
C940 C939 1.390 . S
C940 C941 1.394 . S
C940 C946 1.465 1_565 S
C941 C936 1.399 . S
C941 C940 1.394 . S
C941 C942 1.516 . S
C942 C941 1.516 . S
C942 C943 1.502 . S
C942 C944 1.561 . S
C942 C945 1.526 1_565 S
C943 H927 0.959 . S
C943 H928 0.959 . S
C943 H929 0.961 . S
C943 C942 1.502 . S
C944 H930 0.960 . S
C944 H931 0.961 . S
C944 H932 0.959 . S
C944 C942 1.561 . S
C945 C942 1.526 1_545 S
C945 C946 1.396 . S
C945 C950 1.390 . S
C946 C940 1.465 1_545 S
C946 C945 1.396 . S
C946 C947 1.399 . S
C947 H933 0.929 . S
C947 C946 1.399 . S
C947 C948 1.385 . S
C948 H934 0.931 . S
C948 C947 1.385 . S
C948 C949 1.389 . S
C949 C948 1.389 . S
C949 C950 1.387 . S
C950 H935 0.930 . S
C950 C945 1.390 . S
C950 C949 1.387 . S
H951 C963 0.930 . S
H952 C965 0.930 . S
H953 C966 0.930 . S
H954 C970 0.959 . S
H955 C970 0.959 . S
H956 C970 0.961 . S
H957 C971 0.960 . S
H958 C971 0.961 . S
H959 C971 0.959 . S
H960 C974 0.929 . S
H961 C975 0.931 . S
H962 C977 0.930 . S
C963 H951 0.930 . S
C963 C964 1.399 . S
C963 C968 1.399 . S
C964 C963 1.399 . S
C964 C965 1.376 . S
C965 H952 0.930 . S
C965 C964 1.376 . S
C965 C966 1.388 . S
C966 H953 0.930 . S
C966 C965 1.388 . S
C966 C967 1.390 . S
C967 C966 1.390 . S
C967 C968 1.394 . S
C967 C973 1.465 . S
C968 C963 1.399 . S
C968 C967 1.394 . S
C968 C969 1.516 . S
C969 C968 1.516 . S
C969 C970 1.502 . S
C969 C971 1.561 . S
C969 C972 1.526 . S
C970 H954 0.959 . S
C970 H955 0.959 . S
C970 H956 0.961 . S
C970 C969 1.502 . S
C971 H957 0.960 . S
C971 H958 0.961 . S
C971 H959 0.959 . S
C971 C969 1.561 . S
C972 C969 1.526 . S
C972 C973 1.396 . S
C972 C977 1.390 . S
C973 C967 1.465 . S
C973 C972 1.396 . S
C973 C974 1.399 . S
C974 H960 0.929 . S
C974 C973 1.399 . S
C974 C975 1.385 . S
C975 H961 0.931 . S
C975 C974 1.385 . S
C975 C976 1.389 . S
C976 C975 1.389 . S
C976 C977 1.387 . S
C977 H962 0.930 . S
C977 C972 1.390 . S
C977 C976 1.387 . S
H978 C990 0.930 . S
H979 C992 0.930 . S
H980 C993 0.930 . S
H981 C997 0.959 . S
H982 C997 0.959 . S
H983 C997 0.961 . S
H984 C998 0.960 . S
H985 C998 0.961 . S
H986 C998 0.959 . S
H987 C1001 0.929 1_545 S
H988 C1002 0.931 . S
H989 C1004 0.930 . S
C990 H978 0.930 . S
C990 C991 1.399 . S
C990 C995 1.399 . S
C991 C990 1.399 . S
C991 C992 1.376 . S
C992 H979 0.930 . S
C992 C991 1.376 . S
C992 C993 1.388 . S
C993 H980 0.930 . S
C993 C992 1.388 . S
C993 C994 1.390 . S
C994 C993 1.390 . S
C994 C995 1.394 . S
C994 C1000 1.465 1_545 S
C995 C990 1.399 . S
C995 C994 1.394 . S
C995 C996 1.516 1_545 S
C996 C995 1.516 1_565 S
C996 C997 1.502 . S
C996 C998 1.561 . S
C996 C999 1.526 . S
C997 H981 0.959 . S
C997 H982 0.959 . S
C997 H983 0.961 . S
C997 C996 1.502 . S
C998 H984 0.960 . S
C998 H985 0.961 . S
C998 H986 0.959 . S
C998 C996 1.561 . S
C999 C996 1.526 . S
C999 C1000 1.396 . S
C999 C1004 1.390 . S
C1000 C994 1.465 1_565 S
C1000 C999 1.396 . S
C1000 C1001 1.399 . S
C1001 H987 0.929 1_565 S
C1001 C1000 1.399 . S
C1001 C1002 1.385 . S
C1002 H988 0.931 . S
C1002 C1001 1.385 . S
C1002 C1003 1.389 . S
C1003 C1002 1.389 . S
C1003 C1004 1.387 . S
C1004 H989 0.930 . S
C1004 C999 1.390 . S
C1004 C1003 1.387 . S
H1005 C1017 0.930 . S
H1006 C1019 0.930 . S
H1007 C1020 0.930 . S
H1008 C1024 0.959 . S
H1009 C1024 0.959 . S
H1010 C1024 0.961 . S
H1011 C1025 0.960 . S
H1012 C1025 0.961 . S
H1013 C1025 0.959 . S
H1014 C1028 0.929 . S
H1015 C1029 0.931 . S
H1016 C1031 0.930 . S
C1017 H1005 0.930 . S
C1017 C1018 1.399 . S
C1017 C1022 1.399 . S
C1018 C1017 1.399 . S
C1018 C1019 1.376 . S
C1019 H1006 0.930 . S
C1019 C1018 1.376 . S
C1019 C1020 1.388 . S
C1020 H1007 0.930 . S
C1020 C1019 1.388 . S
C1020 C1021 1.390 . S
C1021 C1020 1.390 . S
C1021 C1022 1.394 . S
C1021 C1027 1.465 . S
C1022 C1017 1.399 . S
C1022 C1021 1.394 . S
C1022 C1023 1.516 . S
C1023 C1022 1.516 . S
C1023 C1024 1.502 . S
C1023 C1025 1.561 . S
C1023 C1026 1.526 . S
C1024 H1008 0.959 . S
C1024 H1009 0.959 . S
C1024 H1010 0.961 . S
C1024 C1023 1.502 . S
C1025 H1011 0.960 . S
C1025 H1012 0.961 . S
C1025 H1013 0.959 . S
C1025 C1023 1.561 . S
C1026 C1023 1.526 . S
C1026 C1027 1.396 . S
C1026 C1031 1.390 . S
C1027 C1021 1.465 . S
C1027 C1026 1.396 . S
C1027 C1028 1.399 . S
C1028 H1014 0.929 . S
C1028 C1027 1.399 . S
C1028 C1029 1.385 . S
C1029 H1015 0.931 . S
C1029 C1028 1.385 . S
C1029 C1030 1.389 . S
C1030 C1029 1.389 . S
C1030 C1031 1.387 . S
C1031 H1016 0.930 . S
C1031 C1026 1.390 . S
C1031 C1030 1.387 . S
H1032 C1044 0.930 . S
H1033 C1046 0.930 . S
H1034 C1047 0.930 . S
H1035 C1051 0.959 . S
H1036 C1051 0.959 . S
H1037 C1051 0.961 . S
H1038 C1052 0.960 1_655 S
H1039 C1052 0.961 . S
H1040 C1052 0.959 . S
H1041 C1055 0.929 . S
H1042 C1056 0.931 . S
H1043 C1058 0.930 . S
C1044 H1032 0.930 . S
C1044 C1045 1.399 . S
C1044 C1049 1.399 . S
C1045 C1044 1.399 . S
C1045 C1046 1.376 . S
C1046 H1033 0.930 . S
C1046 C1045 1.376 . S
C1046 C1047 1.388 . S
C1047 H1034 0.930 . S
C1047 C1046 1.388 . S
C1047 C1048 1.390 . S
C1048 C1047 1.390 . S
C1048 C1049 1.394 . S
C1048 C1054 1.465 1_655 S
C1049 C1044 1.399 . S
C1049 C1048 1.394 . S
C1049 C1050 1.516 . S
C1050 C1049 1.516 . S
C1050 C1051 1.502 . S
C1050 C1052 1.561 1_655 S
C1050 C1053 1.526 1_655 S
C1051 H1035 0.959 . S
C1051 H1036 0.959 . S
C1051 H1037 0.961 . S
C1051 C1050 1.502 . S
C1052 H1038 0.960 1_455 S
C1052 H1039 0.961 . S
C1052 H1040 0.959 . S
C1052 C1050 1.561 1_455 S
C1053 C1050 1.526 1_455 S
C1053 C1054 1.396 . S
C1053 C1058 1.390 . S
C1054 C1048 1.465 1_455 S
C1054 C1053 1.396 . S
C1054 C1055 1.399 . S
C1055 H1041 0.929 . S
C1055 C1054 1.399 . S
C1055 C1056 1.385 . S
C1056 H1042 0.931 . S
C1056 C1055 1.385 . S
C1056 C1057 1.389 . S
C1057 C1056 1.389 . S
C1057 C1058 1.387 . S
C1058 H1043 0.930 . S
C1058 C1053 1.390 . S
C1058 C1057 1.387 . S
H1059 C1071 0.930 . S
H1060 C1073 0.930 . S
H1061 C1074 0.930 . S
H1062 C1078 0.959 . S
H1063 C1078 0.959 . S
H1064 C1078 0.961 . S
H1065 C1079 0.960 1_655 S
H1066 C1079 0.961 . S
H1067 C1079 0.959 . S
H1068 C1082 0.929 . S
H1069 C1083 0.931 . S
H1070 C1085 0.930 . S
C1071 H1059 0.930 . S
C1071 C1072 1.399 . S
C1071 C1076 1.399 . S
C1072 C1071 1.399 . S
C1072 C1073 1.376 . S
C1073 H1060 0.930 . S
C1073 C1072 1.376 . S
C1073 C1074 1.388 . S
C1074 H1061 0.930 . S
C1074 C1073 1.388 . S
C1074 C1075 1.390 . S
C1075 C1074 1.390 . S
C1075 C1076 1.394 . S
C1075 C1081 1.465 1_655 S
C1076 C1071 1.399 . S
C1076 C1075 1.394 . S
C1076 C1077 1.516 . S
C1077 C1076 1.516 . S
C1077 C1078 1.502 . S
C1077 C1079 1.561 1_655 S
C1077 C1080 1.526 1_655 S
C1078 H1062 0.959 . S
C1078 H1063 0.959 . S
C1078 H1064 0.961 . S
C1078 C1077 1.502 . S
C1079 H1065 0.960 1_455 S
C1079 H1066 0.961 . S
C1079 H1067 0.959 . S
C1079 C1077 1.561 1_455 S
C1080 C1077 1.526 1_455 S
C1080 C1081 1.396 . S
C1080 C1085 1.390 . S
C1081 C1075 1.465 1_455 S
C1081 C1080 1.396 . S
C1081 C1082 1.399 . S
C1082 H1068 0.929 . S
C1082 C1081 1.399 . S
C1082 C1083 1.385 . S
C1083 H1069 0.931 . S
C1083 C1082 1.385 . S
C1083 C1084 1.389 . S
C1084 C1083 1.389 . S
C1084 C1085 1.387 . S
C1085 H1070 0.930 . S
C1085 C1080 1.390 . S
C1085 C1084 1.387 . S
H1086 C1098 0.930 . S
H1087 C1100 0.930 . S
H1088 C1101 0.930 . S
H1089 C1105 0.959 . S
H1090 C1105 0.959 . S
H1091 C1105 0.961 . S
H1092 C1106 0.960 . S
H1093 C1106 0.961 1_565 S
H1094 C1106 0.959 . S
H1095 C1109 0.935 . S
H1096 C1110 0.931 . S
H1097 C1112 0.930 . S
C1098 H1086 0.930 . S
C1098 C1099 1.399 . S
C1098 C1103 1.399 . S
C1099 C1098 1.399 . S
C1099 C1100 1.376 . S
C1100 H1087 0.930 . S
C1100 C1099 1.376 . S
C1100 C1101 1.388 . S
C1101 H1088 0.930 . S
C1101 C1100 1.388 . S
C1101 C1102 1.390 . S
C1102 C1101 1.390 . S
C1102 C1103 1.394 . S
C1102 C1108 1.465 1_545 S
C1103 C1098 1.399 . S
C1103 C1102 1.394 . S
C1103 C1104 1.516 1_545 S
C1104 C1103 1.516 1_565 S
C1104 C1105 1.502 . S
C1104 C1106 1.561 1_565 S
C1104 C1107 1.526 . S
C1105 H1089 0.959 . S
C1105 H1090 0.959 . S
C1105 H1091 0.961 . S
C1105 C1104 1.502 . S
C1106 H1092 0.960 . S
C1106 H1093 0.961 1_545 S
C1106 H1094 0.959 . S
C1106 C1104 1.561 1_545 S
C1107 C1104 1.526 . S
C1107 C1108 1.396 . S
C1107 C1112 1.390 . S
C1108 C1102 1.465 1_565 S
C1108 C1107 1.396 . S
C1108 C1109 1.399 . S
C1109 H1095 0.935 . S
C1109 C1108 1.399 . S
C1109 C1110 1.385 . S
C1110 H1096 0.931 . S
C1110 C1109 1.385 . S
C1110 C1111 1.389 . S
C1111 C1110 1.389 . S
C1111 C1112 1.387 . S
C1112 H1097 0.930 . S
C1112 C1107 1.390 . S
C1112 C1111 1.387 . S
H1113 C1125 0.930 . S
H1114 C1127 0.930 . S
H1115 C1128 0.930 . S
H1116 C1132 0.959 . S
H1117 C1132 0.959 . S
H1118 C1132 0.961 . S
H1119 C1133 0.960 . S
H1120 C1133 0.961 . S
H1121 C1133 0.959 . S
H1122 C1136 0.929 . S
H1123 C1137 0.931 . S
H1124 C1139 0.930 . S
C1125 H1113 0.930 . S
C1125 C1126 1.399 . S
C1125 C1130 1.399 . S
C1126 C1125 1.399 . S
C1126 C1127 1.376 . S
C1127 H1114 0.930 . S
C1127 C1126 1.376 . S
C1127 C1128 1.388 . S
C1128 H1115 0.930 . S
C1128 C1127 1.388 . S
C1128 C1129 1.390 . S
C1129 C1128 1.390 . S
C1129 C1130 1.394 . S
C1129 C1135 1.465 . S
C1130 C1125 1.399 . S
C1130 C1129 1.394 . S
C1130 C1131 1.516 . S
C1131 C1130 1.516 . S
C1131 C1132 1.502 . S
C1131 C1133 1.561 . S
C1131 C1134 1.526 . S
C1132 H1116 0.959 . S
C1132 H1117 0.959 . S
C1132 H1118 0.961 . S
C1132 C1131 1.502 . S
C1133 H1119 0.960 . S
C1133 H1120 0.961 . S
C1133 H1121 0.959 . S
C1133 C1131 1.561 . S
C1134 C1131 1.526 . S
C1134 C1135 1.396 . S
C1134 C1139 1.390 . S
C1135 C1129 1.465 . S
C1135 C1134 1.396 . S
C1135 C1136 1.399 . S
C1136 H1122 0.929 . S
C1136 C1135 1.399 . S
C1136 C1137 1.385 . S
C1137 H1123 0.931 . S
C1137 C1136 1.385 . S
C1137 C1138 1.389 . S
C1138 C1137 1.389 . S
C1138 C1139 1.387 . S
C1139 H1124 0.930 . S
C1139 C1134 1.390 . S
C1139 C1138 1.387 . S
H1140 C1152 0.930 . S
H1141 C1154 0.930 . S
H1142 C1155 0.930 . S
H1143 C1159 0.959 . S
H1144 C1159 0.959 . S
H1145 C1159 0.961 . S
H1146 C1160 0.960 . S
H1147 C1160 0.961 . S
H1148 C1160 0.959 . S
H1149 C1163 0.929 . S
H1150 C1164 0.931 . S
H1151 C1166 0.930 . S
C1152 H1140 0.930 . S
C1152 C1153 1.399 . S
C1152 C1157 1.399 . S
C1153 C1152 1.399 . S
C1153 C1154 1.376 . S
C1154 H1141 0.930 . S
C1154 C1153 1.376 . S
C1154 C1155 1.388 . S
C1155 H1142 0.930 . S
C1155 C1154 1.388 . S
C1155 C1156 1.390 . S
C1156 C1155 1.390 . S
C1156 C1157 1.394 . S
C1156 C1162 1.465 . S
C1157 C1152 1.399 . S
C1157 C1156 1.394 . S
C1157 C1158 1.516 . S
C1158 C1157 1.516 . S
C1158 C1159 1.502 . S
C1158 C1160 1.561 . S
C1158 C1161 1.526 . S
C1159 H1143 0.959 . S
C1159 H1144 0.959 . S
C1159 H1145 0.961 . S
C1159 C1158 1.502 . S
C1160 H1146 0.960 . S
C1160 H1147 0.961 . S
C1160 H1148 0.959 . S
C1160 C1158 1.561 . S
C1161 C1158 1.526 . S
C1161 C1162 1.396 . S
C1161 C1166 1.390 . S
C1162 C1156 1.465 . S
C1162 C1161 1.396 . S
C1162 C1163 1.399 . S
C1163 H1149 0.929 . S
C1163 C1162 1.399 . S
C1163 C1164 1.385 . S
C1164 H1150 0.931 . S
C1164 C1163 1.385 . S
C1164 C1165 1.389 . S
C1165 C1164 1.389 . S
C1165 C1166 1.387 . S
C1166 H1151 0.930 . S
C1166 C1161 1.390 . S
C1166 C1165 1.387 . S
H1167 C1179 0.930 . S
H1168 C1181 0.930 . S
H1169 C1182 0.930 . S
H1170 C1186 0.959 . S
H1171 C1186 0.959 . S
H1172 C1186 0.961 . S
H1173 C1187 0.960 . S
H1174 C1187 0.961 . S
H1175 C1187 0.959 . S
H1176 C1190 0.929 . S
H1177 C1191 0.931 . S
H1178 C1193 0.930 . S
C1179 H1167 0.930 . S
C1179 C1180 1.399 . S
C1179 C1184 1.399 . S
C1180 C1179 1.399 . S
C1180 C1181 1.376 . S
C1181 H1168 0.930 . S
C1181 C1180 1.376 . S
C1181 C1182 1.388 . S
C1182 H1169 0.930 . S
C1182 C1181 1.388 . S
C1182 C1183 1.390 . S
C1183 C1182 1.390 . S
C1183 C1184 1.394 . S
C1183 C1189 1.465 . S
C1184 C1179 1.399 . S
C1184 C1183 1.394 . S
C1184 C1185 1.516 . S
C1185 C1184 1.516 . S
C1185 C1186 1.502 . S
C1185 C1187 1.561 . S
C1185 C1188 1.526 . S
C1186 H1170 0.959 . S
C1186 H1171 0.959 . S
C1186 H1172 0.961 . S
C1186 C1185 1.502 . S
C1187 H1173 0.960 . S
C1187 H1174 0.961 . S
C1187 H1175 0.959 . S
C1187 C1185 1.561 . S
C1188 C1185 1.526 . S
C1188 C1189 1.396 . S
C1188 C1193 1.390 . S
C1189 C1183 1.465 . S
C1189 C1188 1.396 . S
C1189 C1190 1.399 . S
C1190 H1176 0.929 . S
C1190 C1189 1.399 . S
C1190 C1191 1.385 . S
C1191 H1177 0.931 . S
C1191 C1190 1.385 . S
C1191 C1192 1.389 . S
C1192 C1191 1.389 . S
C1192 C1193 1.387 . S
C1193 H1178 0.930 . S
C1193 C1188 1.390 . S
C1193 C1192 1.387 . S
H1194 C1206 0.930 . S
H1195 C1208 0.930 . S
H1196 C1209 0.930 . S
H1197 C1213 0.959 . S
H1198 C1213 0.959 . S
H1199 C1213 0.961 . S
H1200 C1214 0.960 . S
H1201 C1214 0.961 . S
H1202 C1214 0.959 . S
H1203 C1217 0.929 . S
H1204 C1218 0.931 . S
H1205 C1220 0.930 . S
C1206 H1194 0.930 . S
C1206 C1207 1.399 . S
C1206 C1211 1.399 . S
C1207 C1206 1.399 . S
C1207 C1208 1.376 . S
C1208 H1195 0.930 . S
C1208 C1207 1.376 . S
C1208 C1209 1.388 . S
C1209 H1196 0.930 . S
C1209 C1208 1.388 . S
C1209 C1210 1.390 . S
C1210 C1209 1.390 . S
C1210 C1211 1.394 . S
C1210 C1216 1.465 . S
C1211 C1206 1.399 . S
C1211 C1210 1.394 . S
C1211 C1212 1.516 . S
C1212 C1211 1.516 . S
C1212 C1213 1.502 . S
C1212 C1214 1.561 . S
C1212 C1215 1.526 . S
C1213 H1197 0.959 . S
C1213 H1198 0.959 . S
C1213 H1199 0.961 . S
C1213 C1212 1.502 . S
C1214 H1200 0.960 . S
C1214 H1201 0.961 . S
C1214 H1202 0.959 . S
C1214 C1212 1.561 . S
C1215 C1212 1.526 . S
C1215 C1216 1.396 . S
C1215 C1220 1.390 . S
C1216 C1210 1.465 . S
C1216 C1215 1.396 . S
C1216 C1217 1.399 . S
C1217 H1203 0.929 . S
C1217 C1216 1.399 . S
C1217 C1218 1.385 . S
C1218 H1204 0.931 . S
C1218 C1217 1.385 . S
C1218 C1219 1.389 . S
C1219 C1218 1.389 . S
C1219 C1220 1.387 . S
C1220 H1205 0.930 . S
C1220 C1215 1.390 . S
C1220 C1219 1.387 . S
H1221 C1233 0.930 . S
H1222 C1235 0.930 . S
H1223 C1236 0.930 . S
H1224 C1240 0.959 . S
H1225 C1240 0.959 . S
H1226 C1240 0.961 . S
H1227 C1241 0.960 . S
H1228 C1241 0.961 . S
H1229 C1241 0.959 . S
H1230 C1244 0.929 . S
H1231 C1245 0.931 . S
H1232 C1247 0.930 . S
C1233 H1221 0.930 . S
C1233 C1234 1.399 . S
C1233 C1238 1.399 . S
C1234 C1233 1.399 . S
C1234 C1235 1.376 . S
C1235 H1222 0.930 . S
C1235 C1234 1.376 . S
C1235 C1236 1.388 . S
C1236 H1223 0.930 . S
C1236 C1235 1.388 . S
C1236 C1237 1.390 . S
C1237 C1236 1.390 . S
C1237 C1238 1.394 . S
C1237 C1243 1.465 . S
C1238 C1233 1.399 . S
C1238 C1237 1.394 . S
C1238 C1239 1.516 . S
C1239 C1238 1.516 . S
C1239 C1240 1.502 . S
C1239 C1241 1.561 . S
C1239 C1242 1.526 . S
C1240 H1224 0.959 . S
C1240 H1225 0.959 . S
C1240 H1226 0.961 . S
C1240 C1239 1.502 . S
C1241 H1227 0.960 . S
C1241 H1228 0.961 . S
C1241 H1229 0.959 . S
C1241 C1239 1.561 . S
C1242 C1239 1.526 . S
C1242 C1243 1.396 . S
C1242 C1247 1.390 . S
C1243 C1237 1.465 . S
C1243 C1242 1.396 . S
C1243 C1244 1.399 . S
C1244 H1230 0.929 . S
C1244 C1243 1.399 . S
C1244 C1245 1.385 . S
C1245 H1231 0.931 . S
C1245 C1244 1.385 . S
C1245 C1246 1.389 . S
C1246 C1245 1.389 . S
C1246 C1247 1.387 . S
C1247 H1232 0.930 . S
C1247 C1242 1.390 . S
C1247 C1246 1.387 . S
H1248 C1260 0.930 . S
H1249 C1262 0.930 . S
H1250 C1263 0.930 . S
H1251 C1267 0.959 . S
H1252 C1267 0.959 . S
H1253 C1267 0.961 . S
H1254 C1268 0.960 . S
H1255 C1268 0.961 . S
H1256 C1268 0.959 . S
H1257 C1271 0.929 . S
H1258 C1272 0.931 . S
H1259 C1274 0.930 . S
C1260 H1248 0.930 . S
C1260 C1261 1.399 . S
C1260 C1265 1.399 . S
C1261 C1260 1.399 . S
C1261 C1262 1.376 . S
C1262 H1249 0.930 . S
C1262 C1261 1.376 . S
C1262 C1263 1.388 . S
C1263 H1250 0.930 . S
C1263 C1262 1.388 . S
C1263 C1264 1.390 . S
C1264 C1263 1.390 . S
C1264 C1265 1.394 . S
C1264 C1270 1.465 . S
C1265 C1260 1.399 . S
C1265 C1264 1.394 . S
C1265 C1266 1.516 . S
C1266 C1265 1.516 . S
C1266 C1267 1.502 . S
C1266 C1268 1.561 . S
C1266 C1269 1.526 . S
C1267 H1251 0.959 . S
C1267 H1252 0.959 . S
C1267 H1253 0.961 . S
C1267 C1266 1.502 . S
C1268 H1254 0.960 . S
C1268 H1255 0.961 . S
C1268 H1256 0.959 . S
C1268 C1266 1.561 . S
C1269 C1266 1.526 . S
C1269 C1270 1.396 . S
C1269 C1274 1.390 . S
C1270 C1264 1.465 . S
C1270 C1269 1.396 . S
C1270 C1271 1.399 . S
C1271 H1257 0.929 . S
C1271 C1270 1.399 . S
C1271 C1272 1.385 . S
C1272 H1258 0.931 . S
C1272 C1271 1.385 . S
C1272 C1273 1.389 . S
C1273 C1272 1.389 . S
C1273 C1274 1.387 . S
C1274 H1259 0.930 . S
C1274 C1269 1.390 . S
C1274 C1273 1.387 . S
H1275 C1287 0.930 . S
H1276 C1289 0.930 . S
H1277 C1290 0.930 . S
H1278 C1294 0.959 . S
H1279 C1294 0.959 . S
H1280 C1294 0.961 . S
H1281 C1295 0.960 . S
H1282 C1295 0.961 . S
H1283 C1295 0.959 . S
H1284 C1298 0.929 . S
H1285 C1299 0.931 . S
H1286 C1301 0.930 . S
C1287 H1275 0.930 . S
C1287 C1288 1.399 . S
C1287 C1292 1.399 . S
C1288 C1287 1.399 . S
C1288 C1289 1.376 . S
C1289 H1276 0.930 . S
C1289 C1288 1.376 . S
C1289 C1290 1.388 . S
C1290 H1277 0.930 . S
C1290 C1289 1.388 . S
C1290 C1291 1.390 . S
C1291 C1290 1.390 . S
C1291 C1292 1.394 . S
C1291 C1297 1.465 . S
C1292 C1287 1.399 . S
C1292 C1291 1.394 . S
C1292 C1293 1.516 . S
C1293 C1292 1.516 . S
C1293 C1294 1.502 . S
C1293 C1295 1.561 . S
C1293 C1296 1.526 . S
C1294 H1278 0.959 . S
C1294 H1279 0.959 . S
C1294 H1280 0.961 . S
C1294 C1293 1.502 . S
C1295 H1281 0.960 . S
C1295 H1282 0.961 . S
C1295 H1283 0.959 . S
C1295 C1293 1.561 . S
C1296 C1293 1.526 . S
C1296 C1297 1.396 . S
C1296 C1301 1.390 . S
C1297 C1291 1.465 . S
C1297 C1296 1.396 . S
C1297 C1298 1.399 . S
C1298 H1284 0.929 . S
C1298 C1297 1.399 . S
C1298 C1299 1.385 . S
C1299 H1285 0.931 . S
C1299 C1298 1.385 . S
C1299 C1300 1.389 . S
C1300 C1299 1.389 . S
C1300 C1301 1.387 . S
C1301 H1286 0.930 . S
C1301 C1296 1.390 . S
C1301 C1300 1.387 . S
H1302 C1314 0.930 . S
H1303 C1316 0.930 . S
H1304 C1317 0.930 . S
H1305 C1321 0.959 . S
H1306 C1321 0.959 . S
H1307 C1321 0.961 . S
H1308 C1322 0.960 . S
H1309 C1322 0.961 . S
H1310 C1322 0.959 . S
H1311 C1325 0.929 . S
H1312 C1326 0.931 . S
H1313 C1328 0.930 . S
C1314 H1302 0.930 . S
C1314 C1315 1.399 . S
C1314 C1319 1.399 . S
C1315 C1314 1.399 . S
C1315 C1316 1.376 . S
C1316 H1303 0.930 . S
C1316 C1315 1.376 . S
C1316 C1317 1.388 . S
C1317 H1304 0.930 . S
C1317 C1316 1.388 . S
C1317 C1318 1.390 . S
C1318 C1317 1.390 . S
C1318 C1319 1.394 . S
C1318 C1324 1.465 . S
C1319 C1314 1.399 . S
C1319 C1318 1.394 . S
C1319 C1320 1.516 . S
C1320 C1319 1.516 . S
C1320 C1321 1.502 . S
C1320 C1322 1.561 . S
C1320 C1323 1.526 . S
C1321 H1305 0.959 . S
C1321 H1306 0.959 . S
C1321 H1307 0.961 . S
C1321 C1320 1.502 . S
C1322 H1308 0.960 . S
C1322 H1309 0.961 . S
C1322 H1310 0.959 . S
C1322 C1320 1.561 . S
C1323 C1320 1.526 . S
C1323 C1324 1.396 . S
C1323 C1328 1.390 . S
C1324 C1318 1.465 . S
C1324 C1323 1.396 . S
C1324 C1325 1.399 . S
C1325 H1311 0.929 . S
C1325 C1324 1.399 . S
C1325 C1326 1.385 . S
C1326 H1312 0.931 . S
C1326 C1325 1.385 . S
C1326 C1327 1.389 . S
C1327 C1326 1.389 . S
C1327 C1328 1.387 . S
C1328 H1313 0.930 . S
C1328 C1323 1.390 . S
C1328 C1327 1.387 . S
H1329 C1341 0.930 . S
H1330 C1343 0.930 . S
H1331 C1344 0.930 . S
H1332 C1348 0.959 . S
H1333 C1348 0.959 . S
H1334 C1348 0.961 . S
H1335 C1349 0.960 . S
H1336 C1349 0.961 . S
H1337 C1349 0.959 . S
H1338 C1352 0.929 . S
H1339 C1353 0.931 . S
H1340 C1355 0.930 . S
C1341 H1329 0.930 . S
C1341 C1342 1.399 . S
C1341 C1346 1.399 . S
C1342 C1341 1.399 . S
C1342 C1343 1.376 . S
C1343 H1330 0.930 . S
C1343 C1342 1.376 . S
C1343 C1344 1.388 . S
C1344 H1331 0.930 . S
C1344 C1343 1.388 . S
C1344 C1345 1.390 . S
C1345 C1344 1.390 . S
C1345 C1346 1.394 . S
C1345 C1351 1.465 . S
C1346 C1341 1.399 . S
C1346 C1345 1.394 . S
C1346 C1347 1.516 . S
C1347 C1346 1.516 . S
C1347 C1348 1.502 . S
C1347 C1349 1.561 . S
C1347 C1350 1.526 . S
C1348 H1332 0.959 . S
C1348 H1333 0.959 . S
C1348 H1334 0.961 . S
C1348 C1347 1.502 . S
C1349 H1335 0.960 . S
C1349 H1336 0.961 . S
C1349 H1337 0.959 . S
C1349 C1347 1.561 . S
C1350 C1347 1.526 . S
C1350 C1351 1.396 . S
C1350 C1355 1.390 . S
C1351 C1345 1.465 . S
C1351 C1350 1.396 . S
C1351 C1352 1.399 . S
C1352 H1338 0.929 . S
C1352 C1351 1.399 . S
C1352 C1353 1.385 . S
C1353 H1339 0.931 . S
C1353 C1352 1.385 . S
C1353 C1354 1.389 . S
C1354 C1353 1.389 . S
C1354 C1355 1.387 . S
C1355 H1340 0.930 . S
C1355 C1350 1.390 . S
C1355 C1354 1.387 . S
H1356 C1368 0.930 . S
H1357 C1370 0.930 . S
H1358 C1371 0.930 . S
H1359 C1375 0.959 . S
H1360 C1375 0.959 . S
H1361 C1375 0.961 . S
H1362 C1376 0.960 . S
H1363 C1376 0.961 . S
H1364 C1376 0.959 . S
H1365 C1379 0.929 . S
H1366 C1380 0.931 . S
H1367 C1382 0.930 . S
C1368 H1356 0.930 . S
C1368 C1369 1.399 . S
C1368 C1373 1.399 . S
C1369 C1368 1.399 . S
C1369 C1370 1.376 . S
C1370 H1357 0.930 . S
C1370 C1369 1.376 . S
C1370 C1371 1.388 . S
C1371 H1358 0.930 . S
C1371 C1370 1.388 . S
C1371 C1372 1.390 . S
C1372 C1371 1.390 . S
C1372 C1373 1.394 . S
C1372 C1378 1.465 . S
C1373 C1368 1.399 . S
C1373 C1372 1.394 . S
C1373 C1374 1.516 . S
C1374 C1373 1.516 . S
C1374 C1375 1.502 . S
C1374 C1376 1.561 . S
C1374 C1377 1.526 . S
C1375 H1359 0.959 . S
C1375 H1360 0.959 . S
C1375 H1361 0.961 . S
C1375 C1374 1.502 . S
C1376 H1362 0.960 . S
C1376 H1363 0.961 . S
C1376 H1364 0.959 . S
C1376 C1374 1.561 . S
C1377 C1374 1.526 . S
C1377 C1378 1.396 . S
C1377 C1382 1.390 . S
C1378 C1372 1.465 . S
C1378 C1377 1.396 . S
C1378 C1379 1.399 . S
C1379 H1365 0.929 . S
C1379 C1378 1.399 . S
C1379 C1380 1.385 . S
C1380 H1366 0.931 . S
C1380 C1379 1.385 . S
C1380 C1381 1.389 . S
C1381 C1380 1.389 . S
C1381 C1382 1.387 . S
C1382 H1367 0.930 . S
C1382 C1377 1.390 . S
C1382 C1381 1.387 . S
H1383 C1395 0.930 . S
H1384 C1397 0.930 . S
H1385 C1398 0.930 . S
H1386 C1402 0.959 . S
H1387 C1402 0.959 . S
H1388 C1402 0.961 . S
H1389 C1403 0.960 . S
H1390 C1403 0.961 . S
H1391 C1403 0.959 . S
H1392 C1406 0.929 . S
H1393 C1407 0.931 . S
H1394 C1409 0.930 . S
C1395 H1383 0.930 . S
C1395 C1396 1.399 . S
C1395 C1400 1.399 . S
C1396 C1395 1.399 . S
C1396 C1397 1.376 . S
C1397 H1384 0.930 . S
C1397 C1396 1.376 . S
C1397 C1398 1.388 . S
C1398 H1385 0.930 . S
C1398 C1397 1.388 . S
C1398 C1399 1.390 . S
C1399 C1398 1.390 . S
C1399 C1400 1.394 . S
C1399 C1405 1.465 . S
C1400 C1395 1.399 . S
C1400 C1399 1.394 . S
C1400 C1401 1.516 . S
C1401 C1400 1.516 . S
C1401 C1402 1.502 . S
C1401 C1403 1.561 . S
C1401 C1404 1.526 . S
C1402 H1386 0.959 . S
C1402 H1387 0.959 . S
C1402 H1388 0.961 . S
C1402 C1401 1.502 . S
C1403 H1389 0.960 . S
C1403 H1390 0.961 . S
C1403 H1391 0.959 . S
C1403 C1401 1.561 . S
C1404 C1401 1.526 . S
C1404 C1405 1.396 . S
C1404 C1409 1.390 . S
C1405 C1399 1.465 . S
C1405 C1404 1.396 . S
C1405 C1406 1.399 . S
C1406 H1392 0.929 . S
C1406 C1405 1.399 . S
C1406 C1407 1.385 . S
C1407 H1393 0.931 . S
C1407 C1406 1.385 . S
C1407 C1408 1.389 . S
C1408 C1407 1.389 . S
C1408 C1409 1.387 . S
C1409 H1394 0.930 . S
C1409 C1404 1.390 . S
C1409 C1408 1.387 . S
H1410 C1422 0.930 . S
H1411 C1424 0.930 . S
H1412 C1425 0.930 . S
H1413 C1429 0.959 . S
H1414 C1429 0.959 . S
H1415 C1429 0.961 . S
H1416 C1430 0.960 . S
H1417 C1430 0.961 . S
H1418 C1430 0.959 . S
H1419 C1433 0.929 . S
H1420 C1434 0.931 . S
H1421 C1436 0.930 . S
C1422 H1410 0.930 . S
C1422 C1423 1.399 . S
C1422 C1427 1.399 . S
C1423 C1422 1.399 . S
C1423 C1424 1.376 . S
C1424 H1411 0.930 . S
C1424 C1423 1.376 . S
C1424 C1425 1.388 . S
C1425 H1412 0.930 . S
C1425 C1424 1.388 . S
C1425 C1426 1.390 . S
C1426 C1425 1.390 . S
C1426 C1427 1.394 . S
C1426 C1432 1.465 . S
C1427 C1422 1.399 . S
C1427 C1426 1.394 . S
C1427 C1428 1.516 . S
C1428 C1427 1.516 . S
C1428 C1429 1.502 . S
C1428 C1430 1.561 . S
C1428 C1431 1.526 . S
C1429 H1413 0.959 . S
C1429 H1414 0.959 . S
C1429 H1415 0.961 . S
C1429 C1428 1.502 . S
C1430 H1416 0.960 . S
C1430 H1417 0.961 . S
C1430 H1418 0.959 . S
C1430 C1428 1.561 . S
C1431 C1428 1.526 . S
C1431 C1432 1.396 . S
C1431 C1436 1.390 . S
C1432 C1426 1.465 . S
C1432 C1431 1.396 . S
C1432 C1433 1.399 . S
C1433 H1419 0.929 . S
C1433 C1432 1.399 . S
C1433 C1434 1.385 . S
C1434 H1420 0.931 . S
C1434 C1433 1.385 . S
C1434 C1435 1.389 . S
C1435 C1434 1.389 . S
C1435 C1436 1.387 . S
C1436 H1421 0.930 . S
C1436 C1431 1.390 . S
C1436 C1435 1.387 . S
H1437 C1449 0.930 . S
H1438 C1451 0.930 . S
H1439 C1452 0.930 . S
H1440 C1456 0.959 . S
H1441 C1456 0.959 . S
H1442 C1456 0.961 . S
H1443 C1457 0.960 . S
H1444 C1457 0.961 . S
H1445 C1457 0.959 . S
H1446 C1460 0.929 . S
H1447 C1461 0.931 . S
H1448 C1463 0.930 . S
C1449 H1437 0.930 . S
C1449 C1450 1.399 . S
C1449 C1454 1.399 . S
C1450 C1449 1.399 . S
C1450 C1451 1.376 . S
C1451 H1438 0.930 . S
C1451 C1450 1.376 . S
C1451 C1452 1.388 . S
C1452 H1439 0.930 . S
C1452 C1451 1.388 . S
C1452 C1453 1.390 . S
C1453 C1452 1.390 . S
C1453 C1454 1.394 . S
C1453 C1459 1.465 . S
C1454 C1449 1.399 . S
C1454 C1453 1.394 . S
C1454 C1455 1.516 . S
C1455 C1454 1.516 . S
C1455 C1456 1.502 . S
C1455 C1457 1.561 . S
C1455 C1458 1.526 . S
C1456 H1440 0.959 . S
C1456 H1441 0.959 . S
C1456 H1442 0.961 . S
C1456 C1455 1.502 . S
C1457 H1443 0.960 . S
C1457 H1444 0.961 . S
C1457 H1445 0.959 . S
C1457 C1455 1.561 . S
C1458 C1455 1.526 . S
C1458 C1459 1.396 . S
C1458 C1463 1.390 . S
C1459 C1453 1.465 . S
C1459 C1458 1.396 . S
C1459 C1460 1.399 . S
C1460 H1446 0.929 . S
C1460 C1459 1.399 . S
C1460 C1461 1.385 . S
C1461 H1447 0.931 . S
C1461 C1460 1.385 . S
C1461 C1462 1.389 . S
C1462 C1461 1.389 . S
C1462 C1463 1.387 . S
C1463 H1448 0.930 . S
C1463 C1458 1.390 . S
C1463 C1462 1.387 . S
H1464 C1476 0.930 . S
H1465 C1478 0.930 . S
H1466 C1479 0.930 . S
H1467 C1483 0.959 . S
H1468 C1483 0.959 . S
H1469 C1483 0.961 . S
H1470 C1484 0.960 . S
H1471 C1484 0.961 . S
H1472 C1484 0.959 . S
H1473 C1487 0.912 1_545 S
H1474 C1488 0.931 . S
H1475 C1490 0.930 . S
C1476 H1464 0.930 . S
C1476 C1477 1.399 . S
C1476 C1481 1.399 . S
C1477 C1476 1.399 . S
C1477 C1478 1.376 . S
C1478 H1465 0.930 . S
C1478 C1477 1.376 . S
C1478 C1479 1.388 . S
C1479 H1466 0.930 . S
C1479 C1478 1.388 . S
C1479 C1480 1.390 . S
C1480 C1479 1.390 . S
C1480 C1481 1.394 . S
C1480 C1486 1.465 1_545 S
C1481 C1476 1.399 . S
C1481 C1480 1.394 . S
C1481 C1482 1.516 1_545 S
C1482 C1481 1.516 1_565 S
C1482 C1483 1.502 . S
C1482 C1484 1.561 . S
C1482 C1485 1.526 . S
C1483 H1467 0.959 . S
C1483 H1468 0.959 . S
C1483 H1469 0.961 . S
C1483 C1482 1.502 . S
C1484 H1470 0.960 . S
C1484 H1471 0.961 . S
C1484 H1472 0.959 . S
C1484 C1482 1.561 . S
C1485 C1482 1.526 . S
C1485 C1486 1.396 . S
C1485 C1490 1.390 . S
C1486 C1480 1.465 1_565 S
C1486 C1485 1.396 . S
C1486 C1487 1.399 . S
C1487 H1473 0.912 1_565 S
C1487 C1486 1.399 . S
C1487 C1488 1.385 . S
C1488 H1474 0.931 . S
C1488 C1487 1.385 . S
C1488 C1489 1.389 . S
C1489 C1488 1.389 . S
C1489 C1490 1.387 . S
C1490 H1475 0.930 . S
C1490 C1485 1.390 . S
C1490 C1489 1.387 . S
H1491 C1503 0.930 . S
H1492 C1505 0.930 . S
H1493 C1506 0.930 . S
H1494 C1510 0.959 . S
H1495 C1510 0.959 . S
H1496 C1510 0.961 . S
H1497 C1511 0.960 . S
H1498 C1511 0.961 . S
H1499 C1511 0.959 . S
H1500 C1514 0.929 . S
H1501 C1515 0.931 . S
H1502 C1517 0.930 . S
C1503 H1491 0.930 . S
C1503 C1504 1.399 . S
C1503 C1508 1.399 . S
C1504 C1503 1.399 . S
C1504 C1505 1.376 . S
C1505 H1492 0.930 . S
C1505 C1504 1.376 . S
C1505 C1506 1.388 . S
C1506 H1493 0.930 . S
C1506 C1505 1.388 . S
C1506 C1507 1.390 . S
C1507 C1506 1.390 . S
C1507 C1508 1.394 . S
C1507 C1513 1.465 . S
C1508 C1503 1.399 . S
C1508 C1507 1.394 . S
C1508 C1509 1.516 . S
C1509 C1508 1.516 . S
C1509 C1510 1.502 . S
C1509 C1511 1.561 . S
C1509 C1512 1.526 . S
C1510 H1494 0.959 . S
C1510 H1495 0.959 . S
C1510 H1496 0.961 . S
C1510 C1509 1.502 . S
C1511 H1497 0.960 . S
C1511 H1498 0.961 . S
C1511 H1499 0.959 . S
C1511 C1509 1.561 . S
C1512 C1509 1.526 . S
C1512 C1513 1.396 . S
C1512 C1517 1.390 . S
C1513 C1507 1.465 . S
C1513 C1512 1.396 . S
C1513 C1514 1.399 . S
C1514 H1500 0.929 . S
C1514 C1513 1.399 . S
C1514 C1515 1.385 . S
C1515 H1501 0.931 . S
C1515 C1514 1.385 . S
C1515 C1516 1.389 . S
C1516 C1515 1.389 . S
C1516 C1517 1.387 . S
C1517 H1502 0.930 . S
C1517 C1512 1.390 . S
C1517 C1516 1.387 . S
H1518 C1530 0.930 . S
H1519 C1532 0.930 . S
H1520 C1533 0.930 . S
H1521 C1537 0.959 . S
H1522 C1537 0.959 . S
H1523 C1537 0.961 . S
H1524 C1538 0.960 . S
H1525 C1538 0.961 . S
H1526 C1538 0.959 . S
H1527 C1541 0.907 1_455 S
H1528 C1542 0.931 . S
H1529 C1544 0.930 . S
C1530 H1518 0.930 . S
C1530 C1531 1.399 . S
C1530 C1535 1.399 . S
C1531 C1530 1.399 . S
C1531 C1532 1.376 . S
C1532 H1519 0.930 . S
C1532 C1531 1.376 . S
C1532 C1533 1.388 . S
C1533 H1520 0.930 . S
C1533 C1532 1.388 . S
C1533 C1534 1.390 . S
C1534 C1533 1.390 . S
C1534 C1535 1.394 . S
C1534 C1540 1.465 1_455 S
C1535 C1530 1.399 . S
C1535 C1534 1.394 . S
C1535 C1536 1.516 1_455 S
C1536 C1535 1.516 1_655 S
C1536 C1537 1.502 . S
C1536 C1538 1.561 . S
C1536 C1539 1.526 . S
C1537 H1521 0.959 . S
C1537 H1522 0.959 . S
C1537 H1523 0.961 . S
C1537 C1536 1.502 . S
C1538 H1524 0.960 . S
C1538 H1525 0.961 . S
C1538 H1526 0.959 . S
C1538 C1536 1.561 . S
C1539 C1536 1.526 . S
C1539 C1540 1.396 . S
C1539 C1544 1.390 . S
C1540 C1534 1.465 1_655 S
C1540 C1539 1.396 . S
C1540 C1541 1.399 . S
C1541 H1527 0.907 1_655 S
C1541 C1540 1.399 . S
C1541 C1542 1.385 . S
C1542 H1528 0.931 . S
C1542 C1541 1.385 . S
C1542 C1543 1.389 . S
C1543 C1542 1.389 . S
C1543 C1544 1.387 . S
C1544 H1529 0.930 . S
C1544 C1539 1.390 . S
C1544 C1543 1.387 . S
H1545 C1557 0.930 . S
H1546 C1559 0.930 . S
H1547 C1560 0.930 . S
H1548 C1564 0.959 . S
H1549 C1564 0.959 . S
H1550 C1564 0.961 . S
H1551 C1565 0.960 . S
H1552 C1565 0.961 . S
H1553 C1565 0.959 . S
H1554 C1568 0.945 . S
H1555 C1569 0.931 . S
H1556 C1571 0.930 . S
C1557 H1545 0.930 . S
C1557 C1558 1.399 . S
C1557 C1562 1.399 . S
C1558 C1557 1.399 . S
C1558 C1559 1.376 . S
C1559 H1546 0.930 . S
C1559 C1558 1.376 . S
C1559 C1560 1.388 . S
C1560 H1547 0.930 . S
C1560 C1559 1.388 . S
C1560 C1561 1.390 . S
C1561 C1560 1.390 . S
C1561 C1562 1.394 . S
C1561 C1567 1.465 1_565 S
C1562 C1557 1.399 . S
C1562 C1561 1.394 . S
C1562 C1563 1.516 1_565 S
C1563 C1562 1.516 1_545 S
C1563 C1564 1.502 . S
C1563 C1565 1.561 . S
C1563 C1566 1.526 . S
C1564 H1548 0.959 . S
C1564 H1549 0.959 . S
C1564 H1550 0.961 . S
C1564 C1563 1.502 . S
C1565 H1551 0.960 . S
C1565 H1552 0.961 . S
C1565 H1553 0.959 . S
C1565 C1563 1.561 . S
C1566 C1563 1.526 . S
C1566 C1567 1.396 . S
C1566 C1571 1.390 . S
C1567 C1561 1.465 1_545 S
C1567 C1566 1.396 . S
C1567 C1568 1.399 . S
C1568 H1554 0.945 . S
C1568 C1567 1.399 . S
C1568 C1569 1.385 . S
C1569 H1555 0.931 . S
C1569 C1568 1.385 . S
C1569 C1570 1.389 . S
C1570 C1569 1.389 . S
C1570 C1571 1.387 . S
C1571 H1556 0.930 . S
C1571 C1566 1.390 . S
C1571 C1570 1.387 . S
H1572 C1584 0.930 . S
H1573 C1586 0.930 . S
H1574 C1587 0.930 . S
H1575 C1591 0.959 . S
H1576 C1591 0.959 . S
H1577 C1591 0.961 . S
H1578 C1592 0.960 . S
H1579 C1592 0.961 . S
H1580 C1592 0.959 . S
H1581 C1595 0.929 . S
H1582 C1596 0.931 . S
H1583 C1598 0.930 . S
C1584 H1572 0.930 . S
C1584 C1585 1.399 . S
C1584 C1589 1.399 . S
C1585 C1584 1.399 . S
C1585 C1586 1.376 . S
C1586 H1573 0.930 . S
C1586 C1585 1.376 . S
C1586 C1587 1.388 . S
C1587 H1574 0.930 . S
C1587 C1586 1.388 . S
C1587 C1588 1.390 . S
C1588 C1587 1.390 . S
C1588 C1589 1.394 . S
C1588 C1594 1.465 . S
C1589 C1584 1.399 . S
C1589 C1588 1.394 . S
C1589 C1590 1.516 . S
C1590 C1589 1.516 . S
C1590 C1591 1.502 . S
C1590 C1592 1.561 . S
C1590 C1593 1.526 . S
C1591 H1575 0.959 . S
C1591 H1576 0.959 . S
C1591 H1577 0.961 . S
C1591 C1590 1.502 . S
C1592 H1578 0.960 . S
C1592 H1579 0.961 . S
C1592 H1580 0.959 . S
C1592 C1590 1.561 . S
C1593 C1590 1.526 . S
C1593 C1594 1.396 . S
C1593 C1598 1.390 . S
C1594 C1588 1.465 . S
C1594 C1593 1.396 . S
C1594 C1595 1.399 . S
C1595 H1581 0.929 . S
C1595 C1594 1.399 . S
C1595 C1596 1.385 . S
C1596 H1582 0.931 . S
C1596 C1595 1.385 . S
C1596 C1597 1.389 . S
C1597 C1596 1.389 . S
C1597 C1598 1.387 . S
C1598 H1583 0.930 . S
C1598 C1593 1.390 . S
C1598 C1597 1.387 . S
H1599 C1611 0.930 . S
H1600 C1613 0.930 . S
H1601 C1614 0.930 . S
H1602 C1618 0.959 1_455 S
H1603 C1618 0.990 . S
H1604 C1618 0.961 . S
H1605 C1619 0.960 . S
H1606 C1619 0.961 . S
H1607 C1619 0.959 . S
H1608 C1622 0.929 . S
H1609 C1623 0.931 . S
H1610 C1625 0.930 . S
C1611 H1599 0.930 . S
C1611 C1612 1.399 . S
C1611 C1616 1.399 . S
C1612 C1611 1.399 . S
C1612 C1613 1.376 . S
C1613 H1600 0.930 . S
C1613 C1612 1.376 . S
C1613 C1614 1.388 . S
C1614 H1601 0.930 . S
C1614 C1613 1.388 . S
C1614 C1615 1.390 . S
C1615 C1614 1.390 . S
C1615 C1616 1.394 . S
C1615 C1621 1.465 1_655 S
C1616 C1611 1.399 . S
C1616 C1615 1.394 . S
C1616 C1617 1.516 . S
C1617 C1616 1.516 . S
C1617 C1618 1.502 . S
C1617 C1619 1.561 . S
C1617 C1620 1.526 1_655 S
C1618 H1602 0.959 1_655 S
C1618 H1603 0.990 . S
C1618 H1604 0.961 . S
C1618 C1617 1.502 . S
C1619 H1605 0.960 . S
C1619 H1606 0.961 . S
C1619 H1607 0.959 . S
C1619 C1617 1.561 . S
C1620 C1617 1.526 1_455 S
C1620 C1621 1.396 . S
C1620 C1625 1.390 . S
C1621 C1615 1.465 1_455 S
C1621 C1620 1.396 . S
C1621 C1622 1.399 . S
C1622 H1608 0.929 . S
C1622 C1621 1.399 . S
C1622 C1623 1.385 . S
C1623 H1609 0.931 . S
C1623 C1622 1.385 . S
C1623 C1624 1.389 . S
C1624 C1623 1.389 . S
C1624 C1625 1.387 . S
C1625 H1610 0.930 . S
C1625 C1620 1.390 . S
C1625 C1624 1.387 . S
H1626 C1638 0.930 . S
H1627 C1640 0.930 . S
H1628 C1641 0.930 . S
H1629 C1645 0.959 . S
H1630 C1645 0.959 . S
H1631 C1645 0.961 . S
H1632 C1646 0.960 . S
H1633 C1646 0.961 . S
H1634 C1646 0.959 . S
H1635 C1649 0.929 . S
H1636 C1650 0.931 . S
H1637 C1652 0.930 . S
C1638 H1626 0.930 . S
C1638 C1639 1.399 . S
C1638 C1643 1.399 . S
C1639 C1638 1.399 . S
C1639 C1640 1.376 . S
C1640 H1627 0.930 . S
C1640 C1639 1.376 . S
C1640 C1641 1.388 . S
C1641 H1628 0.930 . S
C1641 C1640 1.388 . S
C1641 C1642 1.390 . S
C1642 C1641 1.390 . S
C1642 C1643 1.394 . S
C1642 C1648 1.465 1_565 S
C1643 C1638 1.399 . S
C1643 C1642 1.394 . S
C1643 C1644 1.516 . S
C1644 C1643 1.516 . S
C1644 C1645 1.502 . S
C1644 C1646 1.561 . S
C1644 C1647 1.526 1_565 S
C1645 H1629 0.959 . S
C1645 H1630 0.959 . S
C1645 H1631 0.961 . S
C1645 C1644 1.502 . S
C1646 H1632 0.960 . S
C1646 H1633 0.961 . S
C1646 H1634 0.959 . S
C1646 C1644 1.561 . S
C1647 C1644 1.526 1_545 S
C1647 C1648 1.396 . S
C1647 C1652 1.390 . S
C1648 C1642 1.465 1_545 S
C1648 C1647 1.396 . S
C1648 C1649 1.399 . S
C1649 H1635 0.929 . S
C1649 C1648 1.399 . S
C1649 C1650 1.385 . S
C1650 H1636 0.931 . S
C1650 C1649 1.385 . S
C1650 C1651 1.389 . S
C1651 C1650 1.389 . S
C1651 C1652 1.387 . S
C1652 H1637 0.930 . S
C1652 C1647 1.390 . S
C1652 C1651 1.387 . S
H1653 C1665 0.930 . S
H1654 C1667 0.930 . S
H1655 C1668 0.930 . S
H1656 C1672 0.959 . S
H1657 C1672 0.959 . S
H1658 C1672 0.961 . S
H1659 C1673 0.960 . S
H1660 C1673 0.961 . S
H1661 C1673 0.959 . S
H1662 C1676 0.929 . S
H1663 C1677 0.931 . S
H1664 C1679 0.930 . S
C1665 H1653 0.930 . S
C1665 C1666 1.399 . S
C1665 C1670 1.399 . S
C1666 C1665 1.399 . S
C1666 C1667 1.376 . S
C1667 H1654 0.930 . S
C1667 C1666 1.376 . S
C1667 C1668 1.388 . S
C1668 H1655 0.930 . S
C1668 C1667 1.388 . S
C1668 C1669 1.390 . S
C1669 C1668 1.390 . S
C1669 C1670 1.394 . S
C1669 C1675 1.465 . S
C1670 C1665 1.399 . S
C1670 C1669 1.394 . S
C1670 C1671 1.516 . S
C1671 C1670 1.516 . S
C1671 C1672 1.502 . S
C1671 C1673 1.561 . S
C1671 C1674 1.526 . S
C1672 H1656 0.959 . S
C1672 H1657 0.959 . S
C1672 H1658 0.961 . S
C1672 C1671 1.502 . S
C1673 H1659 0.960 . S
C1673 H1660 0.961 . S
C1673 H1661 0.959 . S
C1673 C1671 1.561 . S
C1674 C1671 1.526 . S
C1674 C1675 1.396 . S
C1674 C1679 1.390 . S
C1675 C1669 1.465 . S
C1675 C1674 1.396 . S
C1675 C1676 1.399 . S
C1676 H1662 0.929 . S
C1676 C1675 1.399 . S
C1676 C1677 1.385 . S
C1677 H1663 0.931 . S
C1677 C1676 1.385 . S
C1677 C1678 1.389 . S
C1678 C1677 1.389 . S
C1678 C1679 1.387 . S
C1679 H1664 0.930 . S
C1679 C1674 1.390 . S
C1679 C1678 1.387 . S
H1680 C1692 0.930 . S
H1681 C1694 0.930 . S
H1682 C1695 0.930 . S
H1683 C1699 0.959 . S
H1684 C1699 0.959 . S
H1685 C1699 0.961 . S
H1686 C1700 0.960 . S
H1687 C1700 0.961 . S
H1688 C1700 0.959 . S
H1689 C1703 0.929 1_455 S
H1690 C1704 0.931 . S
H1691 C1706 0.930 . S
C1692 H1680 0.930 . S
C1692 C1693 1.399 . S
C1692 C1697 1.399 . S
C1693 C1692 1.399 . S
C1693 C1694 1.376 . S
C1694 H1681 0.930 . S
C1694 C1693 1.376 . S
C1694 C1695 1.388 . S
C1695 H1682 0.930 . S
C1695 C1694 1.388 . S
C1695 C1696 1.390 . S
C1696 C1695 1.390 . S
C1696 C1697 1.394 . S
C1696 C1702 1.465 1_455 S
C1697 C1692 1.399 . S
C1697 C1696 1.394 . S
C1697 C1698 1.516 1_455 S
C1698 C1697 1.516 1_655 S
C1698 C1699 1.502 . S
C1698 C1700 1.561 . S
C1698 C1701 1.526 . S
C1699 H1683 0.959 . S
C1699 H1684 0.959 . S
C1699 H1685 0.961 . S
C1699 C1698 1.502 . S
C1700 H1686 0.960 . S
C1700 H1687 0.961 . S
C1700 H1688 0.959 . S
C1700 C1698 1.561 . S
C1701 C1698 1.526 . S
C1701 C1702 1.396 . S
C1701 C1706 1.390 . S
C1702 C1696 1.465 1_655 S
C1702 C1701 1.396 . S
C1702 C1703 1.399 . S
C1703 H1689 0.929 1_655 S
C1703 C1702 1.399 . S
C1703 C1704 1.385 . S
C1704 H1690 0.931 . S
C1704 C1703 1.385 . S
C1704 C1705 1.389 . S
C1705 C1704 1.389 . S
C1705 C1706 1.387 . S
C1706 H1691 0.930 . S
C1706 C1701 1.390 . S
C1706 C1705 1.387 . S
H1707 C1719 0.930 . S
H1708 C1721 0.930 . S
H1709 C1722 0.918 1_565 S
H1710 C1726 0.959 . S
H1711 C1726 0.959 . S
H1712 C1726 0.961 . S
H1713 C1727 0.960 . S
H1714 C1727 0.961 . S
H1715 C1727 0.959 . S
H1716 C1730 0.929 . S
H1717 C1731 0.931 . S
H1718 C1733 0.930 . S
C1719 H1707 0.930 . S
C1719 C1720 1.399 . S
C1719 C1724 1.399 . S
C1720 C1719 1.399 . S
C1720 C1721 1.376 . S
C1721 H1708 0.930 . S
C1721 C1720 1.376 . S
C1721 C1722 1.388 . S
C1722 H1709 0.918 1_545 S
C1722 C1721 1.388 . S
C1722 C1723 1.390 . S
C1723 C1722 1.390 . S
C1723 C1724 1.394 . S
C1723 C1729 1.465 1_545 S
C1724 C1719 1.399 . S
C1724 C1723 1.394 . S
C1724 C1725 1.516 . S
C1725 C1724 1.516 . S
C1725 C1726 1.502 . S
C1725 C1727 1.561 . S
C1725 C1728 1.526 1_545 S
C1726 H1710 0.959 . S
C1726 H1711 0.959 . S
C1726 H1712 0.961 . S
C1726 C1725 1.502 . S
C1727 H1713 0.960 . S
C1727 H1714 0.961 . S
C1727 H1715 0.959 . S
C1727 C1725 1.561 . S
C1728 C1725 1.526 1_565 S
C1728 C1729 1.396 . S
C1728 C1733 1.390 . S
C1729 C1723 1.465 1_565 S
C1729 C1728 1.396 . S
C1729 C1730 1.399 . S
C1730 H1716 0.929 . S
C1730 C1729 1.399 . S
C1730 C1731 1.385 . S
C1731 H1717 0.931 . S
C1731 C1730 1.385 . S
C1731 C1732 1.389 . S
C1732 C1731 1.389 . S
C1732 C1733 1.387 . S
C1733 H1718 0.930 . S
C1733 C1728 1.390 . S
C1733 C1732 1.387 . S
H1734 C1746 0.930 . S
H1735 C1748 0.930 . S
H1736 C1749 0.930 . S
H1737 C1753 0.959 . S
H1738 C1753 0.959 . S
H1739 C1753 0.961 . S
H1740 C1754 0.960 . S
H1741 C1754 0.961 . S
H1742 C1754 0.959 . S
H1743 C1757 0.929 . S
H1744 C1758 0.931 . S
H1745 C1760 0.930 . S
C1746 H1734 0.930 . S
C1746 C1747 1.399 . S
C1746 C1751 1.399 . S
C1747 C1746 1.399 . S
C1747 C1748 1.376 . S
C1748 H1735 0.930 . S
C1748 C1747 1.376 . S
C1748 C1749 1.388 . S
C1749 H1736 0.930 . S
C1749 C1748 1.388 . S
C1749 C1750 1.390 . S
C1750 C1749 1.390 . S
C1750 C1751 1.394 . S
C1750 C1756 1.465 . S
C1751 C1746 1.399 . S
C1751 C1750 1.394 . S
C1751 C1752 1.516 . S
C1752 C1751 1.516 . S
C1752 C1753 1.502 . S
C1752 C1754 1.561 . S
C1752 C1755 1.526 . S
C1753 H1737 0.959 . S
C1753 H1738 0.959 . S
C1753 H1739 0.961 . S
C1753 C1752 1.502 . S
C1754 H1740 0.960 . S
C1754 H1741 0.961 . S
C1754 H1742 0.959 . S
C1754 C1752 1.561 . S
C1755 C1752 1.526 . S
C1755 C1756 1.396 . S
C1755 C1760 1.390 . S
C1756 C1750 1.465 . S
C1756 C1755 1.396 . S
C1756 C1757 1.399 . S
C1757 H1743 0.929 . S
C1757 C1756 1.399 . S
C1757 C1758 1.385 . S
C1758 H1744 0.931 . S
C1758 C1757 1.385 . S
C1758 C1759 1.389 . S
C1759 C1758 1.389 . S
C1759 C1760 1.387 . S
C1760 H1745 0.930 . S
C1760 C1755 1.390 . S
C1760 C1759 1.387 . S
H1761 C1773 0.930 . S
H1762 C1775 0.930 . S
H1763 C1776 0.930 1_655 S
H1764 C1780 0.959 . S
H1765 C1780 0.959 . S
H1766 C1780 0.961 . S
H1767 C1781 0.960 . S
H1768 C1781 0.961 . S
H1769 C1781 0.959 . S
H1770 C1784 0.929 . S
H1771 C1785 0.931 . S
H1772 C1787 0.930 . S
C1773 H1761 0.930 . S
C1773 C1774 1.399 . S
C1773 C1778 1.399 . S
C1774 C1773 1.399 . S
C1774 C1775 1.376 . S
C1775 H1762 0.930 . S
C1775 C1774 1.376 . S
C1775 C1776 1.388 . S
C1776 H1763 0.930 1_455 S
C1776 C1775 1.388 . S
C1776 C1777 1.390 . S
C1777 C1776 1.390 . S
C1777 C1778 1.394 . S
C1777 C1783 1.465 1_455 S
C1778 C1773 1.399 . S
C1778 C1777 1.394 . S
C1778 C1779 1.516 . S
C1779 C1778 1.516 . S
C1779 C1780 1.502 . S
C1779 C1781 1.561 . S
C1779 C1782 1.526 1_455 S
C1780 H1764 0.959 . S
C1780 H1765 0.959 . S
C1780 H1766 0.961 . S
C1780 C1779 1.502 . S
C1781 H1767 0.960 . S
C1781 H1768 0.961 . S
C1781 H1769 0.959 . S
C1781 C1779 1.561 . S
C1782 C1779 1.526 1_655 S
C1782 C1783 1.396 . S
C1782 C1787 1.390 . S
C1783 C1777 1.465 1_655 S
C1783 C1782 1.396 . S
C1783 C1784 1.399 . S
C1784 H1770 0.929 . S
C1784 C1783 1.399 . S
C1784 C1785 1.385 . S
C1785 H1771 0.931 . S
C1785 C1784 1.385 . S
C1785 C1786 1.389 . S
C1786 C1785 1.389 . S
C1786 C1787 1.387 . S
C1787 H1772 0.930 . S
C1787 C1782 1.390 . S
C1787 C1786 1.387 . S
H1788 C1800 0.930 . S
H1789 C1802 0.930 . S
H1790 C1803 0.930 . S
H1791 C1807 0.959 . S
H1792 C1807 0.959 . S
H1793 C1807 0.961 . S
H1794 C1808 0.960 . S
H1795 C1808 0.961 . S
H1796 C1808 0.959 . S
H1797 C1811 0.929 . S
H1798 C1812 0.931 . S
H1799 C1814 0.930 . S
C1800 H1788 0.930 . S
C1800 C1801 1.399 . S
C1800 C1805 1.399 . S
C1801 C1800 1.399 . S
C1801 C1802 1.376 . S
C1802 H1789 0.930 . S
C1802 C1801 1.376 . S
C1802 C1803 1.388 . S
C1803 H1790 0.930 . S
C1803 C1802 1.388 . S
C1803 C1804 1.390 . S
C1804 C1803 1.390 . S
C1804 C1805 1.394 . S
C1804 C1810 1.465 . S
C1805 C1800 1.399 . S
C1805 C1804 1.394 . S
C1805 C1806 1.516 . S
C1806 C1805 1.516 . S
C1806 C1807 1.502 . S
C1806 C1808 1.561 . S
C1806 C1809 1.526 . S
C1807 H1791 0.959 . S
C1807 H1792 0.959 . S
C1807 H1793 0.961 . S
C1807 C1806 1.502 . S
C1808 H1794 0.960 . S
C1808 H1795 0.961 . S
C1808 H1796 0.959 . S
C1808 C1806 1.561 . S
C1809 C1806 1.526 . S
C1809 C1810 1.396 . S
C1809 C1814 1.390 . S
C1810 C1804 1.465 . S
C1810 C1809 1.396 . S
C1810 C1811 1.399 . S
C1811 H1797 0.929 . S
C1811 C1810 1.399 . S
C1811 C1812 1.385 . S
C1812 H1798 0.931 . S
C1812 C1811 1.385 . S
C1812 C1813 1.389 . S
C1813 C1812 1.389 . S
C1813 C1814 1.387 . S
C1814 H1799 0.930 . S
C1814 C1809 1.390 . S
C1814 C1813 1.387 . S
H1815 C1827 0.930 . S
H1816 C1829 0.930 . S
H1817 C1830 0.930 . S
H1818 C1834 0.959 . S
H1819 C1834 0.959 . S
H1820 C1834 0.961 . S
H1821 C1835 0.960 . S
H1822 C1835 0.961 . S
H1823 C1835 0.959 . S
H1824 C1838 0.929 . S
H1825 C1839 0.931 . S
H1826 C1841 0.930 . S
C1827 H1815 0.930 . S
C1827 C1828 1.399 . S
C1827 C1832 1.399 . S
C1828 C1827 1.399 . S
C1828 C1829 1.376 . S
C1829 H1816 0.930 . S
C1829 C1828 1.376 . S
C1829 C1830 1.388 . S
C1830 H1817 0.930 . S
C1830 C1829 1.388 . S
C1830 C1831 1.390 . S
C1831 C1830 1.390 . S
C1831 C1832 1.394 . S
C1831 C1837 1.465 . S
C1832 C1827 1.399 . S
C1832 C1831 1.394 . S
C1832 C1833 1.516 . S
C1833 C1832 1.516 . S
C1833 C1834 1.502 . S
C1833 C1835 1.561 . S
C1833 C1836 1.526 . S
C1834 H1818 0.959 . S
C1834 H1819 0.959 . S
C1834 H1820 0.961 . S
C1834 C1833 1.502 . S
C1835 H1821 0.960 . S
C1835 H1822 0.961 . S
C1835 H1823 0.959 . S
C1835 C1833 1.561 . S
C1836 C1833 1.526 . S
C1836 C1837 1.396 . S
C1836 C1841 1.390 . S
C1837 C1831 1.465 . S
C1837 C1836 1.396 . S
C1837 C1838 1.399 . S
C1838 H1824 0.929 . S
C1838 C1837 1.399 . S
C1838 C1839 1.385 . S
C1839 H1825 0.931 . S
C1839 C1838 1.385 . S
C1839 C1840 1.389 . S
C1840 C1839 1.389 . S
C1840 C1841 1.387 . S
C1841 H1826 0.930 . S
C1841 C1836 1.390 . S
C1841 C1840 1.387 . S
H1842 C1854 0.930 . S
H1843 C1856 0.930 . S
H1844 C1857 0.930 . S
H1845 C1861 0.959 . S
H1846 C1861 0.959 . S
H1847 C1861 0.961 . S
H1848 C1862 0.960 . S
H1849 C1862 0.961 . S
H1850 C1862 0.959 . S
H1851 C1865 0.929 . S
H1852 C1866 0.931 . S
H1853 C1868 0.930 . S
C1854 H1842 0.930 . S
C1854 C1855 1.399 . S
C1854 C1859 1.399 . S
C1855 C1854 1.399 . S
C1855 C1856 1.376 . S
C1856 H1843 0.930 . S
C1856 C1855 1.376 . S
C1856 C1857 1.388 . S
C1857 H1844 0.930 . S
C1857 C1856 1.388 . S
C1857 C1858 1.390 . S
C1858 C1857 1.390 . S
C1858 C1859 1.394 . S
C1858 C1864 1.465 . S
C1859 C1854 1.399 . S
C1859 C1858 1.394 . S
C1859 C1860 1.516 . S
C1860 C1859 1.516 . S
C1860 C1861 1.502 . S
C1860 C1862 1.561 . S
C1860 C1863 1.526 . S
C1861 H1845 0.959 . S
C1861 H1846 0.959 . S
C1861 H1847 0.961 . S
C1861 C1860 1.502 . S
C1862 H1848 0.960 . S
C1862 H1849 0.961 . S
C1862 H1850 0.959 . S
C1862 C1860 1.561 . S
C1863 C1860 1.526 . S
C1863 C1864 1.396 . S
C1863 C1868 1.390 . S
C1864 C1858 1.465 . S
C1864 C1863 1.396 . S
C1864 C1865 1.399 . S
C1865 H1851 0.929 . S
C1865 C1864 1.399 . S
C1865 C1866 1.385 . S
C1866 H1852 0.931 . S
C1866 C1865 1.385 . S
C1866 C1867 1.389 . S
C1867 C1866 1.389 . S
C1867 C1868 1.387 . S
C1868 H1853 0.930 . S
C1868 C1863 1.390 . S
C1868 C1867 1.387 . S
H1869 C1881 0.930 . S
H1870 C1883 0.930 . S
H1871 C1884 0.930 . S
H1872 C1888 0.959 . S
H1873 C1888 0.959 . S
H1874 C1888 0.961 . S
H1875 C1889 0.960 . S
H1876 C1889 0.961 . S
H1877 C1889 0.959 . S
H1878 C1892 0.929 . S
H1879 C1893 0.931 . S
H1880 C1895 0.930 . S
C1881 H1869 0.930 . S
C1881 C1882 1.399 . S
C1881 C1886 1.399 . S
C1882 C1881 1.399 . S
C1882 C1883 1.376 . S
C1883 H1870 0.930 . S
C1883 C1882 1.376 . S
C1883 C1884 1.388 . S
C1884 H1871 0.930 . S
C1884 C1883 1.388 . S
C1884 C1885 1.390 . S
C1885 C1884 1.390 . S
C1885 C1886 1.394 . S
C1885 C1891 1.465 . S
C1886 C1881 1.399 . S
C1886 C1885 1.394 . S
C1886 C1887 1.516 . S
C1887 C1886 1.516 . S
C1887 C1888 1.502 . S
C1887 C1889 1.561 . S
C1887 C1890 1.526 . S
C1888 H1872 0.959 . S
C1888 H1873 0.959 . S
C1888 H1874 0.961 . S
C1888 C1887 1.502 . S
C1889 H1875 0.960 . S
C1889 H1876 0.961 . S
C1889 H1877 0.959 . S
C1889 C1887 1.561 . S
C1890 C1887 1.526 . S
C1890 C1891 1.396 . S
C1890 C1895 1.390 . S
C1891 C1885 1.465 . S
C1891 C1890 1.396 . S
C1891 C1892 1.399 . S
C1892 H1878 0.929 . S
C1892 C1891 1.399 . S
C1892 C1893 1.385 . S
C1893 H1879 0.931 . S
C1893 C1892 1.385 . S
C1893 C1894 1.389 . S
C1894 C1893 1.389 . S
C1894 C1895 1.387 . S
C1895 H1880 0.930 . S
C1895 C1890 1.390 . S
C1895 C1894 1.387 . S
H1896 C1908 0.930 . S
H1897 C1910 0.930 . S
H1898 C1911 0.930 . S
H1899 C1915 0.959 . S
H1900 C1915 0.959 . S
H1901 C1915 0.961 . S
H1902 C1916 0.960 . S
H1903 C1916 0.961 . S
H1904 C1916 0.959 . S
H1905 C1919 0.929 . S
H1906 C1920 0.931 . S
H1907 C1922 0.930 . S
C1908 H1896 0.930 . S
C1908 C1909 1.399 . S
C1908 C1913 1.399 . S
C1909 C1908 1.399 . S
C1909 C1910 1.376 . S
C1910 H1897 0.930 . S
C1910 C1909 1.376 . S
C1910 C1911 1.388 . S
C1911 H1898 0.930 . S
C1911 C1910 1.388 . S
C1911 C1912 1.390 . S
C1912 C1911 1.390 . S
C1912 C1913 1.394 . S
C1912 C1918 1.465 . S
C1913 C1908 1.399 . S
C1913 C1912 1.394 . S
C1913 C1914 1.516 . S
C1914 C1913 1.516 . S
C1914 C1915 1.502 . S
C1914 C1916 1.561 . S
C1914 C1917 1.526 . S
C1915 H1899 0.959 . S
C1915 H1900 0.959 . S
C1915 H1901 0.961 . S
C1915 C1914 1.502 . S
C1916 H1902 0.960 . S
C1916 H1903 0.961 . S
C1916 H1904 0.959 . S
C1916 C1914 1.561 . S
C1917 C1914 1.526 . S
C1917 C1918 1.396 . S
C1917 C1922 1.390 . S
C1918 C1912 1.465 . S
C1918 C1917 1.396 . S
C1918 C1919 1.399 . S
C1919 H1905 0.929 . S
C1919 C1918 1.399 . S
C1919 C1920 1.385 . S
C1920 H1906 0.931 . S
C1920 C1919 1.385 . S
C1920 C1921 1.389 . S
C1921 C1920 1.389 . S
C1921 C1922 1.387 . S
C1922 H1907 0.930 . S
C1922 C1917 1.390 . S
C1922 C1921 1.387 . S
H1923 C1935 0.930 . S
H1924 C1937 0.930 . S
H1925 C1938 0.930 . S
H1926 C1942 0.959 . S
H1927 C1942 0.959 . S
H1928 C1942 0.961 . S
H1929 C1943 0.960 . S
H1930 C1943 0.961 . S
H1931 C1943 0.959 . S
H1932 C1946 0.929 . S
H1933 C1947 0.931 . S
H1934 C1949 0.930 . S
C1935 H1923 0.930 . S
C1935 C1936 1.399 . S
C1935 C1940 1.399 . S
C1936 C1935 1.399 . S
C1936 C1937 1.376 . S
C1937 H1924 0.930 . S
C1937 C1936 1.376 . S
C1937 C1938 1.388 . S
C1938 H1925 0.930 . S
C1938 C1937 1.388 . S
C1938 C1939 1.390 . S
C1939 C1938 1.390 . S
C1939 C1940 1.394 . S
C1939 C1945 1.465 . S
C1940 C1935 1.399 . S
C1940 C1939 1.394 . S
C1940 C1941 1.516 . S
C1941 C1940 1.516 . S
C1941 C1942 1.502 . S
C1941 C1943 1.561 . S
C1941 C1944 1.526 . S
C1942 H1926 0.959 . S
C1942 H1927 0.959 . S
C1942 H1928 0.961 . S
C1942 C1941 1.502 . S
C1943 H1929 0.960 . S
C1943 H1930 0.961 . S
C1943 H1931 0.959 . S
C1943 C1941 1.561 . S
C1944 C1941 1.526 . S
C1944 C1945 1.396 . S
C1944 C1949 1.390 . S
C1945 C1939 1.465 . S
C1945 C1944 1.396 . S
C1945 C1946 1.399 . S
C1946 H1932 0.929 . S
C1946 C1945 1.399 . S
C1946 C1947 1.385 . S
C1947 H1933 0.931 . S
C1947 C1946 1.385 . S
C1947 C1948 1.389 . S
C1948 C1947 1.389 . S
C1948 C1949 1.387 . S
C1949 H1934 0.930 . S
C1949 C1944 1.390 . S
C1949 C1948 1.387 . S
H1950 C1962 0.930 . S
H1951 C1964 0.930 . S
H1952 C1965 0.930 . S
H1953 C1969 0.959 . S
H1954 C1969 0.959 . S
H1955 C1969 0.961 . S
H1956 C1970 0.960 . S
H1957 C1970 0.961 . S
H1958 C1970 0.959 . S
H1959 C1973 0.929 . S
H1960 C1974 0.931 . S
H1961 C1976 0.930 . S
C1962 H1950 0.930 . S
C1962 C1963 1.399 . S
C1962 C1967 1.399 . S
C1963 C1962 1.399 . S
C1963 C1964 1.376 . S
C1964 H1951 0.930 . S
C1964 C1963 1.376 . S
C1964 C1965 1.388 . S
C1965 H1952 0.930 . S
C1965 C1964 1.388 . S
C1965 C1966 1.390 . S
C1966 C1965 1.390 . S
C1966 C1967 1.394 . S
C1966 C1972 1.465 . S
C1967 C1962 1.399 . S
C1967 C1966 1.394 . S
C1967 C1968 1.516 . S
C1968 C1967 1.516 . S
C1968 C1969 1.502 . S
C1968 C1970 1.561 . S
C1968 C1971 1.526 . S
C1969 H1953 0.959 . S
C1969 H1954 0.959 . S
C1969 H1955 0.961 . S
C1969 C1968 1.502 . S
C1970 H1956 0.960 . S
C1970 H1957 0.961 . S
C1970 H1958 0.959 . S
C1970 C1968 1.561 . S
C1971 C1968 1.526 . S
C1971 C1972 1.396 . S
C1971 C1976 1.390 . S
C1972 C1966 1.465 . S
C1972 C1971 1.396 . S
C1972 C1973 1.399 . S
C1973 H1959 0.929 . S
C1973 C1972 1.399 . S
C1973 C1974 1.385 . S
C1974 H1960 0.931 . S
C1974 C1973 1.385 . S
C1974 C1975 1.389 . S
C1975 C1974 1.389 . S
C1975 C1976 1.387 . S
C1976 H1961 0.930 . S
C1976 C1971 1.390 . S
C1976 C1975 1.387 . S
H1977 C1989 0.930 . S
H1978 C1991 0.930 . S
H1979 C1992 0.930 . S
H1980 C1996 0.959 . S
H1981 C1996 0.959 . S
H1982 C1996 0.961 . S
H1983 C1997 0.960 . S
H1984 C1997 0.961 . S
H1985 C1997 0.959 . S
H1986 C2000 0.929 . S
H1987 C2001 0.931 . S
H1988 C2003 0.930 . S
C1989 H1977 0.930 . S
C1989 C1990 1.399 . S
C1989 C1994 1.399 . S
C1990 C1989 1.399 . S
C1990 C1991 1.376 . S
C1991 H1978 0.930 . S
C1991 C1990 1.376 . S
C1991 C1992 1.388 . S
C1992 H1979 0.930 . S
C1992 C1991 1.388 . S
C1992 C1993 1.390 . S
C1993 C1992 1.390 . S
C1993 C1994 1.394 . S
C1993 C1999 1.465 . S
C1994 C1989 1.399 . S
C1994 C1993 1.394 . S
C1994 C1995 1.516 . S
C1995 C1994 1.516 . S
C1995 C1996 1.502 . S
C1995 C1997 1.561 . S
C1995 C1998 1.526 . S
C1996 H1980 0.959 . S
C1996 H1981 0.959 . S
C1996 H1982 0.961 . S
C1996 C1995 1.502 . S
C1997 H1983 0.960 . S
C1997 H1984 0.961 . S
C1997 H1985 0.959 . S
C1997 C1995 1.561 . S
C1998 C1995 1.526 . S
C1998 C1999 1.396 . S
C1998 C2003 1.390 . S
C1999 C1993 1.465 . S
C1999 C1998 1.396 . S
C1999 C2000 1.399 . S
C2000 H1986 0.929 . S
C2000 C1999 1.399 . S
C2000 C2001 1.385 . S
C2001 H1987 0.931 . S
C2001 C2000 1.385 . S
C2001 C2002 1.389 . S
C2002 C2001 1.389 . S
C2002 C2003 1.387 . S
C2003 H1988 0.930 . S
C2003 C1998 1.390 . S
C2003 C2002 1.387 . S
H2004 C2016 0.930 . S
H2005 C2018 0.930 . S
H2006 C2019 0.930 . S
H2007 C2023 0.959 . S
H2008 C2023 0.959 . S
H2009 C2023 0.961 . S
H2010 C2024 0.960 . S
H2011 C2024 0.961 . S
H2012 C2024 0.959 . S
H2013 C2027 0.929 . S
H2014 C2028 0.931 . S
H2015 C2030 0.930 . S
C2016 H2004 0.930 . S
C2016 C2017 1.399 . S
C2016 C2021 1.399 . S
C2017 C2016 1.399 . S
C2017 C2018 1.376 . S
C2018 H2005 0.930 . S
C2018 C2017 1.376 . S
C2018 C2019 1.388 . S
C2019 H2006 0.930 . S
C2019 C2018 1.388 . S
C2019 C2020 1.390 . S
C2020 C2019 1.390 . S
C2020 C2021 1.394 . S
C2020 C2026 1.465 . S
C2021 C2016 1.399 . S
C2021 C2020 1.394 . S
C2021 C2022 1.516 . S
C2022 C2021 1.516 . S
C2022 C2023 1.502 . S
C2022 C2024 1.561 . S
C2022 C2025 1.526 . S
C2023 H2007 0.959 . S
C2023 H2008 0.959 . S
C2023 H2009 0.961 . S
C2023 C2022 1.502 . S
C2024 H2010 0.960 . S
C2024 H2011 0.961 . S
C2024 H2012 0.959 . S
C2024 C2022 1.561 . S
C2025 C2022 1.526 . S
C2025 C2026 1.396 . S
C2025 C2030 1.390 . S
C2026 C2020 1.465 . S
C2026 C2025 1.396 . S
C2026 C2027 1.399 . S
C2027 H2013 0.929 . S
C2027 C2026 1.399 . S
C2027 C2028 1.385 . S
C2028 H2014 0.931 . S
C2028 C2027 1.385 . S
C2028 C2029 1.389 . S
C2029 C2028 1.389 . S
C2029 C2030 1.387 . S
C2030 H2015 0.930 . S
C2030 C2025 1.390 . S
C2030 C2029 1.387 . S
H2031 C2043 0.930 . S
H2032 C2045 0.930 . S
H2033 C2046 0.930 . S
H2034 C2050 0.959 . S
H2035 C2050 0.959 . S
H2036 C2050 0.961 . S
H2037 C2051 0.960 . S
H2038 C2051 0.961 . S
H2039 C2051 0.959 . S
H2040 C2054 0.929 . S
H2041 C2055 0.931 . S
H2042 C2057 0.930 . S
C2043 H2031 0.930 . S
C2043 C2044 1.399 . S
C2043 C2048 1.399 . S
C2044 C2043 1.399 . S
C2044 C2045 1.376 . S
C2045 H2032 0.930 . S
C2045 C2044 1.376 . S
C2045 C2046 1.388 . S
C2046 H2033 0.930 . S
C2046 C2045 1.388 . S
C2046 C2047 1.390 . S
C2047 C2046 1.390 . S
C2047 C2048 1.394 . S
C2047 C2053 1.465 . S
C2048 C2043 1.399 . S
C2048 C2047 1.394 . S
C2048 C2049 1.516 . S
C2049 C2048 1.516 . S
C2049 C2050 1.502 . S
C2049 C2051 1.561 . S
C2049 C2052 1.526 . S
C2050 H2034 0.959 . S
C2050 H2035 0.959 . S
C2050 H2036 0.961 . S
C2050 C2049 1.502 . S
C2051 H2037 0.960 . S
C2051 H2038 0.961 . S
C2051 H2039 0.959 . S
C2051 C2049 1.561 . S
C2052 C2049 1.526 . S
C2052 C2053 1.396 . S
C2052 C2057 1.390 . S
C2053 C2047 1.465 . S
C2053 C2052 1.396 . S
C2053 C2054 1.399 . S
C2054 H2040 0.929 . S
C2054 C2053 1.399 . S
C2054 C2055 1.385 . S
C2055 H2041 0.931 . S
C2055 C2054 1.385 . S
C2055 C2056 1.389 . S
C2056 C2055 1.389 . S
C2056 C2057 1.387 . S
C2057 H2042 0.930 . S
C2057 C2052 1.390 . S
C2057 C2056 1.387 . S
H2058 C2070 0.930 . S
H2059 C2072 0.930 . S
H2060 C2073 0.930 . S
H2061 C2077 0.959 . S
H2062 C2077 0.959 . S
H2063 C2077 0.961 . S
H2064 C2078 0.960 . S
H2065 C2078 0.961 . S
H2066 C2078 0.959 . S
H2067 C2081 0.929 . S
H2068 C2082 0.931 . S
H2069 C2084 0.930 . S
C2070 H2058 0.930 . S
C2070 C2071 1.399 . S
C2070 C2075 1.399 . S
C2071 C2070 1.399 . S
C2071 C2072 1.376 . S
C2072 H2059 0.930 . S
C2072 C2071 1.376 . S
C2072 C2073 1.388 . S
C2073 H2060 0.930 . S
C2073 C2072 1.388 . S
C2073 C2074 1.390 . S
C2074 C2073 1.390 . S
C2074 C2075 1.394 . S
C2074 C2080 1.465 . S
C2075 C2070 1.399 . S
C2075 C2074 1.394 . S
C2075 C2076 1.516 . S
C2076 C2075 1.516 . S
C2076 C2077 1.502 . S
C2076 C2078 1.561 . S
C2076 C2079 1.526 . S
C2077 H2061 0.959 . S
C2077 H2062 0.959 . S
C2077 H2063 0.961 . S
C2077 C2076 1.502 . S
C2078 H2064 0.960 . S
C2078 H2065 0.961 . S
C2078 H2066 0.959 . S
C2078 C2076 1.561 . S
C2079 C2076 1.526 . S
C2079 C2080 1.396 . S
C2079 C2084 1.390 . S
C2080 C2074 1.465 . S
C2080 C2079 1.396 . S
C2080 C2081 1.399 . S
C2081 H2067 0.929 . S
C2081 C2080 1.399 . S
C2081 C2082 1.385 . S
C2082 H2068 0.931 . S
C2082 C2081 1.385 . S
C2082 C2083 1.389 . S
C2083 C2082 1.389 . S
C2083 C2084 1.387 . S
C2084 H2069 0.930 . S
C2084 C2079 1.390 . S
C2084 C2083 1.387 . S
H2085 C2097 0.930 . S
H2086 C2099 0.930 . S
H2087 C2100 0.930 . S
H2088 C2104 0.959 . S
H2089 C2104 0.959 . S
H2090 C2104 0.961 . S
H2091 C2105 0.960 . S
H2092 C2105 0.961 . S
H2093 C2105 0.959 . S
H2094 C2108 0.929 . S
H2095 C2109 0.931 . S
H2096 C2111 0.930 . S
C2097 H2085 0.930 . S
C2097 C2098 1.399 . S
C2097 C2102 1.399 . S
C2098 C2097 1.399 . S
C2098 C2099 1.376 . S
C2099 H2086 0.930 . S
C2099 C2098 1.376 . S
C2099 C2100 1.388 . S
C2100 H2087 0.930 . S
C2100 C2099 1.388 . S
C2100 C2101 1.390 . S
C2101 C2100 1.390 . S
C2101 C2102 1.394 . S
C2101 C2107 1.465 . S
C2102 C2097 1.399 . S
C2102 C2101 1.394 . S
C2102 C2103 1.516 . S
C2103 C2102 1.516 . S
C2103 C2104 1.502 . S
C2103 C2105 1.561 . S
C2103 C2106 1.526 . S
C2104 H2088 0.959 . S
C2104 H2089 0.959 . S
C2104 H2090 0.961 . S
C2104 C2103 1.502 . S
C2105 H2091 0.960 . S
C2105 H2092 0.961 . S
C2105 H2093 0.959 . S
C2105 C2103 1.561 . S
C2106 C2103 1.526 . S
C2106 C2107 1.396 . S
C2106 C2111 1.390 . S
C2107 C2101 1.465 . S
C2107 C2106 1.396 . S
C2107 C2108 1.399 . S
C2108 H2094 0.929 . S
C2108 C2107 1.399 . S
C2108 C2109 1.385 . S
C2109 H2095 0.931 . S
C2109 C2108 1.385 . S
C2109 C2110 1.389 . S
C2110 C2109 1.389 . S
C2110 C2111 1.387 . S
C2111 H2096 0.930 . S
C2111 C2106 1.390 . S
C2111 C2110 1.387 . S
H2112 C2124 0.930 . S
H2113 C2126 0.930 . S
H2114 C2127 0.930 . S
H2115 C2131 0.962 . S
H2116 C2131 0.980 . S
H2117 C2131 0.939 1_554 S
H2118 C2132 0.957 1_554 S
H2119 C2132 0.964 . S
H2120 C2132 0.959 . S
H2121 C2135 0.929 . S
H2122 C2136 0.931 . S
H2123 C2138 0.930 . S
C2124 H2112 0.930 . S
C2124 C2125 1.399 . S
C2124 C2129 1.399 . S
C2125 C2124 1.399 . S
C2125 C2126 1.376 . S
C2126 H2113 0.930 . S
C2126 C2125 1.376 . S
C2126 C2127 1.388 . S
C2127 H2114 0.930 . S
C2127 C2126 1.388 . S
C2127 C2128 1.390 . S
C2128 C2127 1.390 . S
C2128 C2129 1.394 . S
C2128 C2134 1.465 1_554 S
C2129 C2124 1.399 . S
C2129 C2128 1.394 . S
C2129 C2130 1.516 1_554 S
C2130 C2129 1.516 1_556 S
C2130 C2131 1.502 . S
C2130 C2132 1.561 . S
C2130 C2133 1.526 . S
C2131 H2115 0.962 . S
C2131 H2116 0.980 . S
C2131 H2117 0.939 1_556 S
C2131 C2130 1.502 . S
C2132 H2118 0.957 1_556 S
C2132 H2119 0.964 . S
C2132 H2120 0.959 . S
C2132 C2130 1.561 . S
C2133 C2130 1.526 . S
C2133 C2134 1.396 . S
C2133 C2138 1.390 . S
C2134 C2128 1.465 1_556 S
C2134 C2133 1.396 . S
C2134 C2135 1.399 . S
C2135 H2121 0.929 . S
C2135 C2134 1.399 . S
C2135 C2136 1.385 . S
C2136 H2122 0.931 . S
C2136 C2135 1.385 . S
C2136 C2137 1.389 . S
C2137 C2136 1.389 . S
C2137 C2138 1.387 . S
C2138 H2123 0.930 . S
C2138 C2133 1.390 . S
C2138 C2137 1.387 . S
H2139 C2151 0.930 . S
H2140 C2153 0.930 . S
H2141 C2154 0.930 . S
H2142 C2158 0.962 . S
H2143 C2158 0.980 . S
H2144 C2158 0.939 1_554 S
H2145 C2159 0.957 1_554 S
H2146 C2159 0.964 . S
H2147 C2159 0.959 . S
H2148 C2162 0.929 . S
H2149 C2163 0.931 . S
H2150 C2165 0.930 . S
C2151 H2139 0.930 . S
C2151 C2152 1.399 . S
C2151 C2156 1.399 . S
C2152 C2151 1.399 . S
C2152 C2153 1.376 . S
C2153 H2140 0.930 . S
C2153 C2152 1.376 . S
C2153 C2154 1.388 . S
C2154 H2141 0.930 . S
C2154 C2153 1.388 . S
C2154 C2155 1.390 . S
C2155 C2154 1.390 . S
C2155 C2156 1.394 . S
C2155 C2161 1.465 1_554 S
C2156 C2151 1.399 . S
C2156 C2155 1.394 . S
C2156 C2157 1.516 1_554 S
C2157 C2156 1.516 1_556 S
C2157 C2158 1.502 . S
C2157 C2159 1.561 . S
C2157 C2160 1.526 . S
C2158 H2142 0.962 . S
C2158 H2143 0.980 . S
C2158 H2144 0.939 1_556 S
C2158 C2157 1.502 . S
C2159 H2145 0.957 1_556 S
C2159 H2146 0.964 . S
C2159 H2147 0.959 . S
C2159 C2157 1.561 . S
C2160 C2157 1.526 . S
C2160 C2161 1.396 . S
C2160 C2165 1.390 . S
C2161 C2155 1.465 1_556 S
C2161 C2160 1.396 . S
C2161 C2162 1.399 . S
C2162 H2148 0.929 . S
C2162 C2161 1.399 . S
C2162 C2163 1.385 . S
C2163 H2149 0.931 . S
C2163 C2162 1.385 . S
C2163 C2164 1.389 . S
C2164 C2163 1.389 . S
C2164 C2165 1.387 . S
C2165 H2150 0.930 . S
C2165 C2160 1.390 . S
C2165 C2164 1.387 . S
H2166 C2178 0.930 . S
H2167 C2180 0.930 . S
H2168 C2181 0.930 . S
H2169 C2185 0.962 . S
H2170 C2185 0.980 . S
H2171 C2185 0.939 1_554 S
H2172 C2186 0.957 1_554 S
H2173 C2186 0.964 . S
H2174 C2186 0.959 . S
H2175 C2189 0.929 . S
H2176 C2190 0.931 . S
H2177 C2192 0.930 . S
C2178 H2166 0.930 . S
C2178 C2179 1.399 . S
C2178 C2183 1.399 . S
C2179 C2178 1.399 . S
C2179 C2180 1.376 . S
C2180 H2167 0.930 . S
C2180 C2179 1.376 . S
C2180 C2181 1.388 . S
C2181 H2168 0.930 . S
C2181 C2180 1.388 . S
C2181 C2182 1.390 . S
C2182 C2181 1.390 . S
C2182 C2183 1.394 . S
C2182 C2188 1.465 1_554 S
C2183 C2178 1.399 . S
C2183 C2182 1.394 . S
C2183 C2184 1.516 1_554 S
C2184 C2183 1.516 1_556 S
C2184 C2185 1.502 . S
C2184 C2186 1.561 . S
C2184 C2187 1.526 . S
C2185 H2169 0.962 . S
C2185 H2170 0.980 . S
C2185 H2171 0.939 1_556 S
C2185 C2184 1.502 . S
C2186 H2172 0.957 1_556 S
C2186 H2173 0.964 . S
C2186 H2174 0.959 . S
C2186 C2184 1.561 . S
C2187 C2184 1.526 . S
C2187 C2188 1.396 . S
C2187 C2192 1.390 . S
C2188 C2182 1.465 1_556 S
C2188 C2187 1.396 . S
C2188 C2189 1.399 . S
C2189 H2175 0.929 . S
C2189 C2188 1.399 . S
C2189 C2190 1.385 . S
C2190 H2176 0.931 . S
C2190 C2189 1.385 . S
C2190 C2191 1.389 . S
C2191 C2190 1.389 . S
C2191 C2192 1.387 . S
C2192 H2177 0.930 . S
C2192 C2187 1.390 . S
C2192 C2191 1.387 . S
H2193 C2205 0.930 . S
H2194 C2207 0.930 . S
H2195 C2208 0.930 . S
H2196 C2212 0.962 . S
H2197 C2212 0.980 . S
H2198 C2212 0.939 1_554 S
H2199 C2213 0.957 1_554 S
H2200 C2213 0.964 . S
H2201 C2213 0.959 . S
H2202 C2216 0.929 . S
H2203 C2217 0.931 . S
H2204 C2219 0.930 . S
C2205 H2193 0.930 . S
C2205 C2206 1.399 . S
C2205 C2210 1.399 . S
C2206 C2205 1.399 . S
C2206 C2207 1.376 . S
C2207 H2194 0.930 . S
C2207 C2206 1.376 . S
C2207 C2208 1.388 . S
C2208 H2195 0.930 . S
C2208 C2207 1.388 . S
C2208 C2209 1.390 . S
C2209 C2208 1.390 . S
C2209 C2210 1.394 . S
C2209 C2215 1.465 1_554 S
C2210 C2205 1.399 . S
C2210 C2209 1.394 . S
C2210 C2211 1.516 1_554 S
C2211 C2210 1.516 1_556 S
C2211 C2212 1.502 . S
C2211 C2213 1.561 . S
C2211 C2214 1.526 . S
C2212 H2196 0.962 . S
C2212 H2197 0.980 . S
C2212 H2198 0.939 1_556 S
C2212 C2211 1.502 . S
C2213 H2199 0.957 1_556 S
C2213 H2200 0.964 . S
C2213 H2201 0.959 . S
C2213 C2211 1.561 . S
C2214 C2211 1.526 . S
C2214 C2215 1.396 . S
C2214 C2219 1.390 . S
C2215 C2209 1.465 1_556 S
C2215 C2214 1.396 . S
C2215 C2216 1.399 . S
C2216 H2202 0.929 . S
C2216 C2215 1.399 . S
C2216 C2217 1.385 . S
C2217 H2203 0.931 . S
C2217 C2216 1.385 . S
C2217 C2218 1.389 . S
C2218 C2217 1.389 . S
C2218 C2219 1.387 . S
C2219 H2204 0.930 . S
C2219 C2214 1.390 . S
C2219 C2218 1.387 . S
H2220 C2232 0.930 . S
H2221 C2234 0.930 . S
H2222 C2235 0.930 . S
H2223 C2239 0.962 . S
H2224 C2239 0.980 . S
H2225 C2239 0.939 1_554 S
H2226 C2240 0.957 1_554 S
H2227 C2240 0.964 . S
H2228 C2240 0.959 . S
H2229 C2243 0.929 . S
H2230 C2244 0.931 . S
H2231 C2246 0.930 . S
C2232 H2220 0.930 . S
C2232 C2233 1.399 . S
C2232 C2237 1.399 . S
C2233 C2232 1.399 . S
C2233 C2234 1.376 . S
C2234 H2221 0.930 . S
C2234 C2233 1.376 . S
C2234 C2235 1.388 . S
C2235 H2222 0.930 . S
C2235 C2234 1.388 . S
C2235 C2236 1.390 . S
C2236 C2235 1.390 . S
C2236 C2237 1.394 . S
C2236 C2242 1.465 1_554 S
C2237 C2232 1.399 . S
C2237 C2236 1.394 . S
C2237 C2238 1.516 1_554 S
C2238 C2237 1.516 1_556 S
C2238 C2239 1.502 . S
C2238 C2240 1.561 . S
C2238 C2241 1.526 . S
C2239 H2223 0.962 . S
C2239 H2224 0.980 . S
C2239 H2225 0.939 1_556 S
C2239 C2238 1.502 . S
C2240 H2226 0.957 1_556 S
C2240 H2227 0.964 . S
C2240 H2228 0.959 . S
C2240 C2238 1.561 . S
C2241 C2238 1.526 . S
C2241 C2242 1.396 . S
C2241 C2246 1.390 . S
C2242 C2236 1.465 1_556 S
C2242 C2241 1.396 . S
C2242 C2243 1.399 . S
C2243 H2229 0.929 . S
C2243 C2242 1.399 . S
C2243 C2244 1.385 . S
C2244 H2230 0.931 . S
C2244 C2243 1.385 . S
C2244 C2245 1.389 . S
C2245 C2244 1.389 . S
C2245 C2246 1.387 . S
C2246 H2231 0.930 . S
C2246 C2241 1.390 . S
C2246 C2245 1.387 . S
H2247 C2259 0.930 . S
H2248 C2261 0.930 . S
H2249 C2262 0.930 . S
H2250 C2266 0.962 . S
H2251 C2266 0.980 . S
H2252 C2266 0.939 1_556 S
H2253 C2267 0.957 1_556 S
H2254 C2267 0.964 . S
H2255 C2267 0.959 . S
H2256 C2270 0.929 . S
H2257 C2271 0.931 . S
H2258 C2273 0.930 . S
C2259 H2247 0.930 . S
C2259 C2260 1.399 . S
C2259 C2264 1.399 . S
C2260 C2259 1.399 . S
C2260 C2261 1.376 . S
C2261 H2248 0.930 . S
C2261 C2260 1.376 . S
C2261 C2262 1.388 . S
C2262 H2249 0.930 . S
C2262 C2261 1.388 . S
C2262 C2263 1.390 . S
C2263 C2262 1.390 . S
C2263 C2264 1.394 . S
C2263 C2269 1.465 1_556 S
C2264 C2259 1.399 . S
C2264 C2263 1.394 . S
C2264 C2265 1.516 1_556 S
C2265 C2264 1.516 1_554 S
C2265 C2266 1.502 . S
C2265 C2267 1.561 . S
C2265 C2268 1.526 . S
C2266 H2250 0.962 . S
C2266 H2251 0.980 . S
C2266 H2252 0.939 1_554 S
C2266 C2265 1.502 . S
C2267 H2253 0.957 1_554 S
C2267 H2254 0.964 . S
C2267 H2255 0.959 . S
C2267 C2265 1.561 . S
C2268 C2265 1.526 . S
C2268 C2269 1.396 . S
C2268 C2273 1.390 . S
C2269 C2263 1.465 1_554 S
C2269 C2268 1.396 . S
C2269 C2270 1.399 . S
C2270 H2256 0.929 . S
C2270 C2269 1.399 . S
C2270 C2271 1.385 . S
C2271 H2257 0.931 . S
C2271 C2270 1.385 . S
C2271 C2272 1.389 . S
C2272 C2271 1.389 . S
C2272 C2273 1.387 . S
C2273 H2258 0.930 . S
C2273 C2268 1.390 . S
C2273 C2272 1.387 . S
H2274 C2286 0.930 . S
H2275 C2288 0.930 . S
H2276 C2289 0.930 . S
H2277 C2293 0.959 . S
H2278 C2293 0.959 . S
H2279 C2293 0.961 . S
H2280 C2294 0.960 . S
H2281 C2294 0.961 . S
H2282 C2294 0.959 . S
H2283 C2297 0.929 . S
H2284 C2298 0.931 . S
H2285 C2300 0.930 . S
C2286 H2274 0.930 . S
C2286 C2287 1.399 . S
C2286 C2291 1.399 . S
C2287 C2286 1.399 . S
C2287 C2288 1.376 . S
C2288 H2275 0.930 . S
C2288 C2287 1.376 . S
C2288 C2289 1.388 . S
C2289 H2276 0.930 . S
C2289 C2288 1.388 . S
C2289 C2290 1.390 . S
C2290 C2289 1.390 . S
C2290 C2291 1.394 . S
C2290 C2296 1.465 . S
C2291 C2286 1.399 . S
C2291 C2290 1.394 . S
C2291 C2292 1.516 . S
C2292 C2291 1.516 . S
C2292 C2293 1.502 . S
C2292 C2294 1.561 . S
C2292 C2295 1.526 . S
C2293 H2277 0.959 . S
C2293 H2278 0.959 . S
C2293 H2279 0.961 . S
C2293 C2292 1.502 . S
C2294 H2280 0.960 . S
C2294 H2281 0.961 . S
C2294 H2282 0.959 . S
C2294 C2292 1.561 . S
C2295 C2292 1.526 . S
C2295 C2296 1.396 . S
C2295 C2300 1.390 . S
C2296 C2290 1.465 . S
C2296 C2295 1.396 . S
C2296 C2297 1.399 . S
C2297 H2283 0.929 . S
C2297 C2296 1.399 . S
C2297 C2298 1.385 . S
C2298 H2284 0.931 . S
C2298 C2297 1.385 . S
C2298 C2299 1.389 . S
C2299 C2298 1.389 . S
C2299 C2300 1.387 . S
C2300 H2285 0.930 . S
C2300 C2295 1.390 . S
C2300 C2299 1.387 . S
H2301 C2313 0.930 . S
H2302 C2315 0.930 . S
H2303 C2316 0.930 . S
H2304 C2320 0.959 . S
H2305 C2320 0.959 . S
H2306 C2320 0.961 . S
H2307 C2321 0.960 . S
H2308 C2321 0.961 . S
H2309 C2321 0.959 . S
H2310 C2324 0.929 . S
H2311 C2325 0.931 . S
H2312 C2327 0.930 . S
C2313 H2301 0.930 . S
C2313 C2314 1.399 . S
C2313 C2318 1.399 . S
C2314 C2313 1.399 . S
C2314 C2315 1.376 . S
C2315 H2302 0.930 . S
C2315 C2314 1.376 . S
C2315 C2316 1.388 . S
C2316 H2303 0.930 . S
C2316 C2315 1.388 . S
C2316 C2317 1.390 . S
C2317 C2316 1.390 . S
C2317 C2318 1.394 . S
C2317 C2323 1.465 . S
C2318 C2313 1.399 . S
C2318 C2317 1.394 . S
C2318 C2319 1.516 . S
C2319 C2318 1.516 . S
C2319 C2320 1.502 . S
C2319 C2321 1.561 . S
C2319 C2322 1.526 . S
C2320 H2304 0.959 . S
C2320 H2305 0.959 . S
C2320 H2306 0.961 . S
C2320 C2319 1.502 . S
C2321 H2307 0.960 . S
C2321 H2308 0.961 . S
C2321 H2309 0.959 . S
C2321 C2319 1.561 . S
C2322 C2319 1.526 . S
C2322 C2323 1.396 . S
C2322 C2327 1.390 . S
C2323 C2317 1.465 . S
C2323 C2322 1.396 . S
C2323 C2324 1.399 . S
C2324 H2310 0.929 . S
C2324 C2323 1.399 . S
C2324 C2325 1.385 . S
C2325 H2311 0.931 . S
C2325 C2324 1.385 . S
C2325 C2326 1.389 . S
C2326 C2325 1.389 . S
C2326 C2327 1.387 . S
C2327 H2312 0.930 . S
C2327 C2322 1.390 . S
C2327 C2326 1.387 . S
H2328 C2340 0.930 . S
H2329 C2342 0.930 . S
H2330 C2343 0.930 . S
H2331 C2347 0.959 . S
H2332 C2347 0.959 . S
H2333 C2347 0.961 . S
H2334 C2348 0.960 . S
H2335 C2348 0.961 . S
H2336 C2348 0.959 . S
H2337 C2351 0.929 . S
H2338 C2352 0.931 . S
H2339 C2354 0.930 . S
C2340 H2328 0.930 . S
C2340 C2341 1.399 . S
C2340 C2345 1.399 . S
C2341 C2340 1.399 . S
C2341 C2342 1.376 . S
C2342 H2329 0.930 . S
C2342 C2341 1.376 . S
C2342 C2343 1.388 . S
C2343 H2330 0.930 . S
C2343 C2342 1.388 . S
C2343 C2344 1.390 . S
C2344 C2343 1.390 . S
C2344 C2345 1.394 . S
C2344 C2350 1.465 . S
C2345 C2340 1.399 . S
C2345 C2344 1.394 . S
C2345 C2346 1.516 . S
C2346 C2345 1.516 . S
C2346 C2347 1.502 . S
C2346 C2348 1.561 . S
C2346 C2349 1.526 . S
C2347 H2331 0.959 . S
C2347 H2332 0.959 . S
C2347 H2333 0.961 . S
C2347 C2346 1.502 . S
C2348 H2334 0.960 . S
C2348 H2335 0.961 . S
C2348 H2336 0.959 . S
C2348 C2346 1.561 . S
C2349 C2346 1.526 . S
C2349 C2350 1.396 . S
C2349 C2354 1.390 . S
C2350 C2344 1.465 . S
C2350 C2349 1.396 . S
C2350 C2351 1.399 . S
C2351 H2337 0.929 . S
C2351 C2350 1.399 . S
C2351 C2352 1.385 . S
C2352 H2338 0.931 . S
C2352 C2351 1.385 . S
C2352 C2353 1.389 . S
C2353 C2352 1.389 . S
C2353 C2354 1.387 . S
C2354 H2339 0.930 . S
C2354 C2349 1.390 . S
C2354 C2353 1.387 . S
H2355 C2367 0.930 . S
H2356 C2369 0.930 . S
H2357 C2370 0.930 . S
H2358 C2374 0.959 . S
H2359 C2374 0.959 . S
H2360 C2374 0.961 . S
H2361 C2375 0.960 . S
H2362 C2375 0.961 . S
H2363 C2375 0.959 . S
H2364 C2378 0.929 . S
H2365 C2379 0.931 . S
H2366 C2381 0.930 . S
C2367 H2355 0.930 . S
C2367 C2368 1.399 . S
C2367 C2372 1.399 . S
C2368 C2367 1.399 . S
C2368 C2369 1.376 . S
C2369 H2356 0.930 . S
C2369 C2368 1.376 . S
C2369 C2370 1.388 . S
C2370 H2357 0.930 . S
C2370 C2369 1.388 . S
C2370 C2371 1.390 . S
C2371 C2370 1.390 . S
C2371 C2372 1.394 . S
C2371 C2377 1.465 . S
C2372 C2367 1.399 . S
C2372 C2371 1.394 . S
C2372 C2373 1.516 . S
C2373 C2372 1.516 . S
C2373 C2374 1.502 . S
C2373 C2375 1.561 . S
C2373 C2376 1.526 . S
C2374 H2358 0.959 . S
C2374 H2359 0.959 . S
C2374 H2360 0.961 . S
C2374 C2373 1.502 . S
C2375 H2361 0.960 . S
C2375 H2362 0.961 . S
C2375 H2363 0.959 . S
C2375 C2373 1.561 . S
C2376 C2373 1.526 . S
C2376 C2377 1.396 . S
C2376 C2381 1.390 . S
C2377 C2371 1.465 . S
C2377 C2376 1.396 . S
C2377 C2378 1.399 . S
C2378 H2364 0.929 . S
C2378 C2377 1.399 . S
C2378 C2379 1.385 . S
C2379 H2365 0.931 . S
C2379 C2378 1.385 . S
C2379 C2380 1.389 . S
C2380 C2379 1.389 . S
C2380 C2381 1.387 . S
C2381 H2366 0.930 . S
C2381 C2376 1.390 . S
C2381 C2380 1.387 . S
H2382 C2394 0.930 . S
H2383 C2396 0.930 . S
H2384 C2397 0.930 . S
H2385 C2401 0.959 . S
H2386 C2401 0.959 . S
H2387 C2401 0.961 . S
H2388 C2402 0.960 . S
H2389 C2402 0.961 . S
H2390 C2402 0.959 . S
H2391 C2405 0.929 . S
H2392 C2406 0.931 . S
H2393 C2408 0.930 . S
C2394 H2382 0.930 . S
C2394 C2395 1.399 . S
C2394 C2399 1.399 . S
C2395 C2394 1.399 . S
C2395 C2396 1.376 . S
C2396 H2383 0.930 . S
C2396 C2395 1.376 . S
C2396 C2397 1.388 . S
C2397 H2384 0.930 . S
C2397 C2396 1.388 . S
C2397 C2398 1.390 . S
C2398 C2397 1.390 . S
C2398 C2399 1.394 . S
C2398 C2404 1.465 . S
C2399 C2394 1.399 . S
C2399 C2398 1.394 . S
C2399 C2400 1.516 . S
C2400 C2399 1.516 . S
C2400 C2401 1.502 . S
C2400 C2402 1.561 . S
C2400 C2403 1.526 . S
C2401 H2385 0.959 . S
C2401 H2386 0.959 . S
C2401 H2387 0.961 . S
C2401 C2400 1.502 . S
C2402 H2388 0.960 . S
C2402 H2389 0.961 . S
C2402 H2390 0.959 . S
C2402 C2400 1.561 . S
C2403 C2400 1.526 . S
C2403 C2404 1.396 . S
C2403 C2408 1.390 . S
C2404 C2398 1.465 . S
C2404 C2403 1.396 . S
C2404 C2405 1.399 . S
C2405 H2391 0.929 . S
C2405 C2404 1.399 . S
C2405 C2406 1.385 . S
C2406 H2392 0.931 . S
C2406 C2405 1.385 . S
C2406 C2407 1.389 . S
C2407 C2406 1.389 . S
C2407 C2408 1.387 . S
C2408 H2393 0.930 . S
C2408 C2403 1.390 . S
C2408 C2407 1.387 . S
H2409 C2421 0.930 . S
H2410 C2423 0.930 . S
H2411 C2424 0.930 . S
H2412 C2428 0.959 . S
H2413 C2428 0.959 . S
H2414 C2428 0.961 . S
H2415 C2429 0.960 . S
H2416 C2429 0.961 . S
H2417 C2429 0.959 . S
H2418 C2432 0.929 . S
H2419 C2433 0.931 . S
H2420 C2435 0.930 . S
C2421 H2409 0.930 . S
C2421 C2422 1.399 . S
C2421 C2426 1.399 . S
C2422 C2421 1.399 . S
C2422 C2423 1.376 . S
C2423 H2410 0.930 . S
C2423 C2422 1.376 . S
C2423 C2424 1.388 . S
C2424 H2411 0.930 . S
C2424 C2423 1.388 . S
C2424 C2425 1.390 . S
C2425 C2424 1.390 . S
C2425 C2426 1.394 . S
C2425 C2431 1.465 . S
C2426 C2421 1.399 . S
C2426 C2425 1.394 . S
C2426 C2427 1.516 . S
C2427 C2426 1.516 . S
C2427 C2428 1.502 . S
C2427 C2429 1.561 . S
C2427 C2430 1.526 . S
C2428 H2412 0.959 . S
C2428 H2413 0.959 . S
C2428 H2414 0.961 . S
C2428 C2427 1.502 . S
C2429 H2415 0.960 . S
C2429 H2416 0.961 . S
C2429 H2417 0.959 . S
C2429 C2427 1.561 . S
C2430 C2427 1.526 . S
C2430 C2431 1.396 . S
C2430 C2435 1.390 . S
C2431 C2425 1.465 . S
C2431 C2430 1.396 . S
C2431 C2432 1.399 . S
C2432 H2418 0.929 . S
C2432 C2431 1.399 . S
C2432 C2433 1.385 . S
C2433 H2419 0.931 . S
C2433 C2432 1.385 . S
C2433 C2434 1.389 . S
C2434 C2433 1.389 . S
C2434 C2435 1.387 . S
C2435 H2420 0.930 . S
C2435 C2430 1.390 . S
C2435 C2434 1.387 . S
C829 C5 0.649 . S
C841 C107 0.678 . S
C856 C141 0.648 . S
C868 C39 0.668 . S
C883 C175 0.748 . S
C895 C73 0.724 . S
C910 C311 0.651 . S
C922 C209 0.684 . S
C937 C243 0.703 . S
C949 C345 0.661 . S
C964 C277 0.655 . S
C976 C379 0.694 . S
C991 C515 0.650 . S
C1003 C413 0.685 . S
C1018 C549 0.681 . S
C1030 C447 0.653 . S
C1045 C583 0.699 . S
C1057 C481 0.649 . S
C1072 C719 0.697 . S
C1084 C617 0.649 . S
C1099 C651 0.699 . S
C1111 C753 0.748 . S
C1126 C787 0.673 . S
C1138 C685 0.740 . S
C1153 C281 1.772 . S
C1165 C9 1.728 . S
C1180 C43 1.732 . S
C1192 C315 1.692 . S
C1207 C77 1.716 . S
C1219 C349 1.772 . S
C1234 C111 1.769 . S
C1246 C383 1.707 . S
C1261 C145 1.715 . S
C1273 C213 1.699 . S
C1288 C247 1.703 . S
C1300 C179 1.767 . S
C1315 C417 1.750 . S
C1327 C689 1.704 . S
C1342 C723 1.771 . S
C1354 C451 1.754 . S
C1369 C757 1.721 . S
C1381 C485 1.765 . S
C1396 C519 1.737 . S
C1408 C791 1.771 . S
C1423 C621 1.772 . S
C1435 C553 1.741 . S
C1450 C655 1.691 . S
C1462 C587 1.729 . S
C1477 C33 1.056 . S
C1489 C271 1.062 . S
C1504 C67 1.048 . S
C1516 C305 1.053 . S
C1531 C339 1.057 . S
C1543 C101 1.063 . S
C1558 C135 1.052 . S
C1570 C373 1.058 . S
C1585 C407 1.078 . S
C1597 C169 1.085 . S
C1612 C237 1.127 . S
C1624 C203 1.124 . S
C1639 C441 1.046 . S
C1651 C679 1.056 . S
C1666 C475 1.095 . S
C1678 C713 1.111 . S
C1693 C509 1.115 . S
C1705 C747 1.099 . S
C1720 C543 1.052 . S
C1732 C781 1.067 . S
C1747 C577 1.045 . S
C1759 C815 1.054 . S
C1774 C645 1.077 . S
C1786 C611 1.095 . S
C1801 C2 1.270 . S
C1813 C342 1.225 . S
C1828 C376 1.224 . S
C1840 C36 1.290 . S
C1855 C206 1.225 . S
C1867 C70 1.294 . S
C1882 C240 1.267 . S
C1894 C104 1.304 . S
C1909 C138 1.308 . S
C1921 C274 1.257 . S
C1936 C172 1.276 . S
C1948 C308 1.224 . S
C1963 C410 1.308 . S
C1975 C750 1.270 . S
C1990 C784 1.248 . S
C2002 C444 1.299 . S
C2017 C614 1.245 . S
C2029 C478 1.225 . S
C2044 C512 1.298 . S
C2056 C648 1.248 . S
C2071 C546 1.251 . S
C2083 C682 1.224 . S
C2098 C716 1.267 . S
C2110 C580 1.225 . S
C2125 C20 1.465 . S
C2137 C530 1.460 . S
C2152 C54 1.434 . S
C2164 C564 1.425 . S
C2179 C88 1.461 . S
C2191 C598 1.465 . S
C2206 C122 1.407 . S
C2218 C428 1.413 . S
C2233 C156 1.440 . S
C2245 C462 1.431 . S
C2260 C496 1.424 . S
C2272 C190 1.417 . S
C2287 C224 1.437 . S
C2299 C734 1.446 . S
C2314 C258 1.461 . S
C2326 C768 1.455 . S
C2341 C292 1.411 . S
C2353 C802 1.408 . S
C2368 C326 1.433 . S
C2380 C632 1.443 . S
C2395 C360 1.431 . S
C2407 C666 1.423 . S
C2422 C700 1.453 . S
C2434 C394 1.459 . S
