# Generated by pormake.
# Topology snz, (6)-cn, num edge types: 1
# Building blocks:
#     Node 0, Type 0, BuildingBlock: JUFBIX_clean_sbu_0, # of connection points: 6
#     Node 1, Type 0, BuildingBlock: JUFBIX_clean_sbu_0, # of connection points: 6
#     Node 2, Type 0, BuildingBlock: JUFBIX_clean_sbu_0, # of connection points: 6
#     Node 3, Type 0, BuildingBlock: JUFBIX_clean_sbu_0, # of connection points: 6
#     Node 4, Type 0, BuildingBlock: JUFBIX_clean_sbu_0, # of connection points: 6
#     Node 5, Type 0, BuildingBlock: JUFBIX_clean_sbu_0, # of connection points: 6
#     Node 6, Type 0, BuildingBlock: JUFBIX_clean_sbu_0, # of connection points: 6
#     Node 7, Type 0, BuildingBlock: JUFBIX_clean_sbu_0, # of connection points: 6
#     Node 8, Type 0, BuildingBlock: JUFBIX_clean_sbu_0, # of connection points: 6
#     Edge 9, Type (0, 0), BuildingBlock: UVAHIK_clean_linker_0, # of connection points: 2
#     Edge 10, Type (0, 0), BuildingBlock: UVAHIK_clean_linker_0, # of connection points: 2
#     Edge 11, Type (0, 0), BuildingBlock: UVAHIK_clean_linker_0, # of connection points: 2
#     Edge 12, Type (0, 0), BuildingBlock: UVAHIK_clean_linker_0, # of connection points: 2
#     Edge 13, Type (0, 0), BuildingBlock: UVAHIK_clean_linker_0, # of connection points: 2
#     Edge 14, Type (0, 0), BuildingBlock: UVAHIK_clean_linker_0, # of connection points: 2
#     Edge 15, Type (0, 0), BuildingBlock: UVAHIK_clean_linker_0, # of connection points: 2
#     Edge 16, Type (0, 0), BuildingBlock: UVAHIK_clean_linker_0, # of connection points: 2
#     Edge 17, Type (0, 0), BuildingBlock: UVAHIK_clean_linker_0, # of connection points: 2
#     Edge 18, Type (0, 0), BuildingBlock: UVAHIK_clean_linker_0, # of connection points: 2
#     Edge 19, Type (0, 0), BuildingBlock: UVAHIK_clean_linker_0, # of connection points: 2
#     Edge 20, Type (0, 0), BuildingBlock: UVAHIK_clean_linker_0, # of connection points: 2
#     Edge 21, Type (0, 0), BuildingBlock: UVAHIK_clean_linker_0, # of connection points: 2
#     Edge 22, Type (0, 0), BuildingBlock: UVAHIK_clean_linker_0, # of connection points: 2
#     Edge 23, Type (0, 0), BuildingBlock: UVAHIK_clean_linker_0, # of connection points: 2
#     Edge 24, Type (0, 0), BuildingBlock: UVAHIK_clean_linker_0, # of connection points: 2
#     Edge 25, Type (0, 0), BuildingBlock: UVAHIK_clean_linker_0, # of connection points: 2
#     Edge 26, Type (0, 0), BuildingBlock: UVAHIK_clean_linker_0, # of connection points: 2
#     Edge 27, Type (0, 0), BuildingBlock: UVAHIK_clean_linker_0, # of connection points: 2
#     Edge 28, Type (0, 0), BuildingBlock: UVAHIK_clean_linker_0, # of connection points: 2
#     Edge 29, Type (0, 0), BuildingBlock: UVAHIK_clean_linker_0, # of connection points: 2
#     Edge 30, Type (0, 0), BuildingBlock: UVAHIK_clean_linker_0, # of connection points: 2
#     Edge 31, Type (0, 0), BuildingBlock: UVAHIK_clean_linker_0, # of connection points: 2
#     Edge 32, Type (0, 0), BuildingBlock: UVAHIK_clean_linker_0, # of connection points: 2
#     Edge 33, Type (0, 0), BuildingBlock: UVAHIK_clean_linker_0, # of connection points: 2
#     Edge 34, Type (0, 0), BuildingBlock: UVAHIK_clean_linker_0, # of connection points: 2
#     Edge 35, Type (0, 0), BuildingBlock: UVAHIK_clean_linker_0, # of connection points: 2
# Relax obj value: 0.320
# Max RMSD: 0.262
# Mean RMSD: 0.226
data_MOF--net-snz--node1-JUFBIX_clean_sbu_0--edge1-UVAHIK_clean_linker_0
_symmetry_space_group_name_H-M    P1
_symmetry_Int_Tables_number       1
_symmetry_cell_setting            triclinic
loop_
_symmetry_equiv_pos_as_xyz
'x, y, z'
_cell_length_a     67.930957
_cell_length_b     72.868984
_cell_length_c     18.54959
_cell_angle_alpha  90.404659
_cell_angle_beta   90.978341
_cell_angle_gamma 119.84037
loop_
_atom_site_label
_atom_site_type_symbol
_atom_site_fract_x
_atom_site_fract_y
_atom_site_fract_z
_atom_type_partial_charge
Co0 Co 0.09665 0.54001 0.00791 0.0
C1 C 0.06771 0.5204 0.12271 0.0
Co2 Co 0.06668 0.50846 -0.01541 0.0
C3 C 0.13312 0.58427 0.00853 0.0
C4 C 0.13425 0.56651 0.09849 0.0
N5 N 0.12212 0.56489 0.03802 0.0
N6 N 0.15179 0.59772 0.04809 0.0
C7 C 0.15244 0.58656 0.10469 0.0
H8 H 0.12774 0.58833 0.9588 0.0
H9 H 0.13012 0.55385 0.1359 0.0
C10 C 0.09545 0.52795 0.86971 0.0
N11 N 0.04131 0.48293 0.95529 0.0
C12 C 0.0365 0.46294 0.96934 0.0
C13 C 0.02504 0.48057 0.90719 0.0
N14 N 0.01813 0.44832 0.93123 0.0
C15 C 0.01081 0.45942 0.89251 0.0
C16 C 0.06043 0.54389 0.96446 0.0
O17 O 0.10723 0.54333 0.91296 0.0
O18 O 0.07752 0.51191 0.89094 0.0
O19 O 0.05094 0.52377 0.9605 0.0
O20 O 0.08111 0.55459 -0.01519 0.0
O21 O 0.05603 0.50503 0.0794 0.0
H22 H 0.02408 0.49339 0.88155 0.0
H23 H 0.04698 0.45918 0.00373 0.0
O24 O 0.0856 0.53646 0.10154 0.0
O25 O 0.11233 0.52536 0.03138 0.0
O26 O 0.08308 0.49406 0.00867 0.0
C27 C 0.10374 0.50544 0.02866 0.0
H28 H 0.16497 0.59261 0.14833 0.0
H29 H 0.99659 0.4528 0.85451 0.0
Co30 Co 0.61277 0.50844 0.07092 0.0
C31 C 0.59979 0.51947 0.94486 0.0
Co32 Co 0.6141 0.53927 0.0763 0.0
C33 C 0.59629 0.46434 0.03717 0.0
C34 C 0.62955 0.47965 0.0859 0.0
N35 N 0.61259 0.48306 0.06485 0.0
N36 N 0.60243 0.44931 0.03973 0.0
C37 C 0.62342 0.459 0.07045 0.0
H38 H 0.58026 0.46193 0.0156 0.0
H39 H 0.64552 0.49152 0.11006 0.0
C40 C 0.62713 0.52826 0.20236 0.0
N41 N 0.61473 0.5648 0.08395 0.0
C42 C 0.63122 0.58254 0.11645 0.0
C43 C 0.5985 0.56941 0.06477 0.0
N44 N 0.62596 0.59814 0.11941 0.0
C45 C 0.60532 0.58985 0.0865 0.0
C46 C 0.57221 0.505 0.11229 0.0
O47 O 0.62306 0.51174 0.16709 0.0
O48 O 0.62392 0.54216 0.17253 0.0
O49 O 0.58338 0.52495 0.10523 0.0
O50 O 0.58205 0.49428 0.10147 0.0
O51 O 0.60428 0.5362 0.97976 0.0
H52 H 0.58249 0.55843 0.03853 0.0
H53 H 0.64665 0.5837 0.13835 0.0
O54 O 0.60246 0.50526 0.97511 0.0
O55 O 0.64338 0.5228 0.03936 0.0
O56 O 0.64477 0.55344 0.04697 0.0
C57 C 0.65441 0.54277 0.03278 0.0
H58 H 0.63395 0.45194 0.07973 0.0
H59 H 0.59542 0.59765 0.08 0.0
Co60 Co 0.63396 0.00945 0.16446 0.0
C61 C 0.64444 0.03586 0.28602 0.0
Co62 Co 0.63074 0.03804 0.15111 0.0
C63 C 0.65565 0.98607 0.20901 0.0
C64 C 0.62149 0.96527 0.1724 0.0
N65 N 0.63678 0.98588 0.18368 0.0
N66 N 0.65296 0.96646 0.21329 0.0
C67 C 0.63136 0.9533 0.19052 0.0
H68 H 0.67133 0.00049 0.22184 0.0
H69 H 0.60443 0.95936 0.1511 0.0
C70 C 0.62024 0.0116 0.02947 0.0
N71 N 0.62917 0.06215 0.12907 0.0
C72 C 0.61672 0.07038 0.15565 0.0
C73 C 0.64092 0.07511 0.07507 0.0
N74 N 0.62072 0.08814 0.12085 0.0
C75 C 0.63593 0.09105 0.07029 0.0
C76 C 0.6736 0.04374 0.12093 0.0
O77 O 0.62488 1.00003 0.06884 0.0
O78 O 0.622 0.02852 0.05544 0.0
O79 O 0.66154 0.05243 0.12584 0.0
O80 O 0.66491 0.0243 0.1356 0.0
O81 O 0.63929 0.04721 0.24714 0.0
H82 H 0.65188 0.07274 0.03928 0.0
H83 H 0.60474 0.06334 0.19858 0.0
O84 O 0.64317 0.01915 0.25965 0.0
O85 O 0.60258 0.99481 0.1926 0.0
O86 O 0.60015 0.02351 0.17666 0.0
C87 C 0.59086 0.00413 0.1934 0.0
H88 H 0.62321 0.93624 0.18662 0.0
H89 H 0.64213 0.10325 0.03006 0.0
Co90 Co 0.85575 0.89978 0.40346 0.0
C91 C 0.82674 0.88009 0.5178 0.0
Co92 Co 0.82572 0.86828 0.37958 0.0
C93 C 0.88619 0.94513 0.41893 0.0
C94 C 0.89756 0.92745 0.48119 0.0
N95 N 0.88122 0.92513 0.43342 0.0
N96 N 0.90476 0.95975 0.45617 0.0
C97 C 0.91204 0.94864 0.49499 0.0
H98 H 0.87604 0.94893 0.38318 0.0
H99 H 0.89836 0.91461 0.50723 0.0
C100 C 0.85493 0.88804 0.26536 0.0
N101 N 0.80008 0.84369 0.34795 0.0
C102 C 0.78878 0.82392 0.37447 0.0
C103 C 0.78806 0.843 0.28824 0.0
N104 N 0.77001 0.81124 0.33399 0.0
C105 C 0.76961 0.82322 0.27981 0.0
C106 C 0.81896 0.90319 0.35989 0.0
O107 O 0.86661 0.90335 0.30886 0.0
O108 O 0.83692 0.87204 0.28615 0.0
O109 O 0.81038 0.88328 0.3571 0.0
O110 O 0.83964 0.91453 0.37959 0.0
O111 O 0.81501 0.86472 0.4744 0.0
H112 H 0.79246 0.85614 0.25275 0.0
H113 H 0.79401 0.81901 0.42263 0.0
O114 O 0.84469 0.89617 0.49685 0.0
O115 O 0.87117 0.88412 0.42753 0.0
O116 O 0.84093 0.8534 0.40195 0.0
C117 C 0.86157 0.86398 0.42293 0.0
H118 H 0.92605 0.95527 0.53382 0.0
H119 H 0.75707 0.81787 0.23623 0.0
Co120 Co 0.30718 0.86221 0.33991 0.0
C121 C 0.29634 0.87836 0.21925 0.0
Co122 Co 0.30919 0.89323 0.35501 0.0
C123 C 0.29021 0.82101 0.27805 0.0
C124 C 0.32211 0.83145 0.33267 0.0
N125 N 0.30634 0.83707 0.31846 0.0
N126 N 0.2953 0.8056 0.26537 0.0
C127 C 0.31538 0.81211 0.30013 0.0
H128 H 0.27514 0.82089 0.25764 0.0
H129 H 0.3378 0.84109 0.3628 0.0
C130 C 0.31996 0.87716 0.47579 0.0
N131 N 0.30952 0.91833 0.37666 0.0
C132 C 0.32328 0.93819 0.35348 0.0
C133 C 0.29559 0.9203 0.42329 0.0
N134 N 0.31812 0.95221 0.38309 0.0
C135 C 0.3007 0.94099 0.42684 0.0
C136 C 0.26652 0.85761 0.38118 0.0
O137 O 0.31576 0.86135 0.43591 0.0
O138 O 0.31778 0.89221 0.45051 0.0
O139 O 0.27789 0.87766 0.37944 0.0
O140 O 0.27616 0.84708 0.36531 0.0
O141 O 0.30073 0.89423 0.25899 0.0
H142 H 0.28294 0.90766 0.45485 0.0
H143 H 0.33697 0.94236 0.31648 0.0
O144 O 0.29848 0.8633 0.24454 0.0
O145 O 0.33836 0.87746 0.31467 0.0
O146 O 0.34035 0.9082 0.3305 0.0
C147 C 0.34993 0.89756 0.31455 0.0
H148 H 0.32497 0.80389 0.30034 0.0
H149 H 0.29298 0.94749 0.46169 0.0
Co150 Co 0.28836 0.3682 0.22511 0.0
C151 C 0.29998 0.39419 0.34833 0.0
Co152 Co 0.28714 0.39786 0.21424 0.0
C153 C 0.30192 0.33564 0.22125 0.0
C154 C 0.27516 0.32918 0.29384 0.0
N155 N 0.28861 0.3433 0.2449 0.0
N156 N 0.29695 0.31721 0.25306 0.0
C157 C 0.2801 0.3132 0.29855 0.0
H158 H 0.31527 0.34363 0.18285 0.0
H159 H 0.26305 0.33074 0.32664 0.0
C160 C 0.27551 0.37182 0.09108 0.0
N161 N 0.28544 0.42209 0.19682 0.0
C162 C 0.26691 0.42245 0.17115 0.0
C163 C 0.30087 0.44251 0.21093 0.0
N164 N 0.2699 0.44219 0.16953 0.0
C165 C 0.29136 0.45491 0.19433 0.0
C166 C 0.32935 0.40156 0.18547 0.0
O167 O 0.28017 0.35993 0.12869 0.0
O168 O 0.27741 0.38863 0.11883 0.0
O169 O 0.31834 0.41155 0.18555 0.0
O170 O 0.31924 0.38209 0.20156 0.0
O171 O 0.29673 0.40674 0.30956 0.0
H172 H 0.31769 0.44796 0.23361 0.0
H173 H 0.25115 0.40828 0.15676 0.0
O174 O 0.29674 0.37678 0.32168 0.0
O175 O 0.25733 0.35457 0.24809 0.0
O176 O 0.25636 0.38401 0.24433 0.0
C177 C 0.24641 0.36431 0.25553 0.0
H178 H 0.27273 0.30023 0.33583 0.0
H179 H 0.29958 0.47192 0.2011 0.0
Co180 Co 0.47434 0.19957 0.69076 0.0
C181 C 0.43694 0.16491 0.62843 0.0
Co182 Co 0.44454 0.20405 0.67624 0.0
C183 C 0.50566 0.19242 0.77584 0.0
C184 C 0.51115 0.19126 0.66315 0.0
N185 N 0.49851 0.19495 0.71019 0.0
N186 N 0.52186 0.18697 0.77171 0.0
C187 C 0.5256 0.18643 0.70091 0.0
H188 H 0.49874 0.19393 0.82618 0.0
H189 H 0.50931 0.19112 0.6051 0.0
C190 C 0.48197 0.23884 0.73739 0.0
N191 N 0.42025 0.20862 0.65717 0.0
C192 C 0.41381 0.21252 0.59238 0.0
C193 C 0.40648 0.21057 0.70456 0.0
N194 N 0.39695 0.21707 0.59753 0.0
C195 C 0.39208 0.21568 0.66796 0.0
C196 C 0.44488 0.18796 0.80732 0.0
O197 O 0.4911 0.22731 0.73194 0.0
O198 O 0.46158 0.23166 0.71538 0.0
O199 O 0.43347 0.19386 0.76903 0.0
O200 O 0.46249 0.18885 0.78177 0.0
O201 O 0.42766 0.17624 0.6364 0.0
H202 H 0.40737 0.20923 0.76238 0.0
H203 H 0.42156 0.21249 0.54198 0.0
O204 O 0.45742 0.1721 0.64961 0.0
O205 O 0.48575 0.21016 0.59867 0.0
O206 O 0.45616 0.21431 0.58465 0.0
C207 C 0.47405 0.21561 0.55974 0.0
H208 H 0.53695 0.18166 0.67804 0.0
H209 H 0.37987 0.21922 0.69166 0.0
Co210 Co 0.9844 0.21087 0.71377 0.0
C211 C 0.96935 0.2378 0.76609 0.0
Co212 Co 0.94707 0.19684 0.71369 0.0
C213 C 0.02904 0.22904 0.65487 0.0
C214 C 0.03024 0.23428 0.76884 0.0
N215 N 0.01577 0.22413 0.71296 0.0
N216 N 0.05115 0.24232 0.67177 0.0
C217 C 0.05196 0.24543 0.74375 0.0
H218 H 0.02243 0.22377 0.60062 0.0
H219 H 0.02518 0.23475 0.82348 0.0
C220 C 0.96201 0.16994 0.66086 0.0
N221 N 0.91546 0.18371 0.71463 0.0
C222 C 0.90195 0.1755 0.7719 0.0
C223 C 0.90088 0.17896 0.65784 0.0
N224 N 0.87976 0.16583 0.75308 0.0
C225 C 0.87893 0.16809 0.68145 0.0
C226 C 0.96581 0.21673 0.58785 0.0
O227 O 0.98178 0.18544 0.67494 0.0
O228 O 0.94474 0.17178 0.67391 0.0
O229 O 0.94717 0.20669 0.62005 0.0
O230 O 0.98402 0.22032 0.61992 0.0
O231 O 0.94963 0.2221 0.75346 0.0
H232 H 0.90571 0.18252 0.6023 0.0
H233 H 0.90808 0.17634 0.82664 0.0
O234 O 0.98664 0.23609 0.75231 0.0
O235 O 0.98458 0.20141 0.80749 0.0
O236 O 0.94764 0.18722 0.80742 0.0
C237 C 0.96597 0.19111 0.83958 0.0
H238 H 0.0669 0.25621 0.77541 0.0
H239 H 0.86359 0.16159 0.64827 0.0
Co240 Co 0.94095 0.69009 0.69626 0.0
C241 C 0.9485 0.72954 0.65051 0.0
Co242 Co 0.97728 0.71537 0.69876 0.0
C243 C 0.89566 0.66011 0.74531 0.0
C244 C 0.89745 0.66067 0.63032 0.0
N245 N 0.91028 0.66921 0.6909 0.0
N246 N 0.87444 0.64631 0.72095 0.0
C247 C 0.87553 0.64653 0.64862 0.0
H248 H 0.90035 0.66361 0.80184 0.0
H249 H 0.90336 0.66486 0.57596 0.0
C250 C 0.96982 0.67596 0.74434 0.0
N251 N 0.00804 0.7363 0.70403 0.0
C252 C 0.0231 0.74403 0.6501 0.0
C253 C 0.02048 0.74627 0.76409 0.0
N254 N 0.04418 0.7583 0.6742 0.0
C255 C 0.04256 0.75984 0.74587 0.0
C256 C 0.95431 0.71194 0.82453 0.0
O257 O 0.94898 0.67011 0.73216 0.0
O258 O 0.98486 0.6951 0.73361 0.0
O259 O 0.97326 0.72196 0.79393 0.0
O260 O 0.93756 0.6971 0.7906 0.0
O261 O 0.9693 0.73535 0.66315 0.0
H262 H 0.01423 0.74353 0.81833 0.0
H263 H 0.01886 0.73926 0.59409 0.0
O264 O 0.9334 0.7104 0.66102 0.0
O265 O 0.94492 0.68338 0.60128 0.0
O266 O 0.98056 0.70837 0.60423 0.0
C267 C 0.96382 0.69344 0.57049 0.0
H268 H 0.86128 0.63778 0.61161 0.0
H269 H 0.05655 0.76944 0.78284 0.0
C270 C 0.09335 0.51006 0.75441 0.0
C271 C 0.10062 0.52901 0.79329 0.0
C272 C 0.09185 0.50978 0.67965 0.0
C273 C 0.07816 0.53705 0.54475 0.0
H274 H 0.08775 0.5014 0.41035 0.0
C275 C 0.06973 0.53824 0.23808 0.0
C276 C 0.06247 0.51931 0.19909 0.0
C277 C 0.07111 0.53847 0.31286 0.0
C278 C 0.08459 0.51108 0.44775 0.0
H279 H 0.11429 0.56285 0.78579 0.0
H280 H 0.11169 0.5624 0.65384 0.0
H281 H 0.10278 0.50617 0.53363 0.0
H282 H 0.04868 0.48545 0.20641 0.0
H283 H 0.05108 0.48581 0.33838 0.0
H284 H 0.05998 0.54198 0.45884 0.0
C285 C 0.10694 0.54777 0.68144 0.0
C286 C 0.09346 0.51403 0.51778 0.0
C287 C 0.10863 0.54807 0.75655 0.0
C288 C 0.05434 0.50022 0.23572 0.0
C289 C 0.05592 0.50047 0.31085 0.0
C290 C 0.06929 0.5341 0.47471 0.0
C291 C 0.09747 0.52844 0.64289 0.0
C292 C 0.09032 0.52705 0.56679 0.0
C293 C 0.06538 0.51977 0.34954 0.0
C294 C 0.07244 0.52109 0.42569 0.0
H295 H 0.08726 0.4952 0.78201 0.0
H296 H 0.08448 0.49467 0.65128 0.0
H297 H 0.07501 0.54673 0.58215 0.0
H298 H 0.07591 0.55312 0.21058 0.0
H299 H 0.07848 0.55356 0.34134 0.0
C300 C 0.598 0.53568 0.82962 0.0
C301 C 0.59476 0.5178 0.86736 0.0
C302 C 0.59947 0.53597 0.75495 0.0
C303 C 0.6205 0.51387 0.62373 0.0
H304 H 0.6015 0.54176 0.48472 0.0
C305 C 0.62924 0.51218 0.3175 0.0
C306 C 0.63238 0.53002 0.27969 0.0
C307 C 0.62801 0.51202 0.39224 0.0
C308 C 0.60723 0.53428 0.5235 0.0
H309 H 0.58715 0.48519 0.85702 0.0
H310 H 0.58951 0.48569 0.72618 0.0
H311 H 0.58666 0.53603 0.60625 0.0
H312 H 0.64009 0.56266 0.28971 0.0
H313 H 0.63815 0.56237 0.42065 0.0
H314 H 0.64105 0.51211 0.54094 0.0
C315 C 0.59159 0.49963 0.7545 0.0
C316 C 0.59854 0.5308 0.59246 0.0
C317 C 0.59019 0.49935 0.82913 0.0
C318 C 0.63711 0.54854 0.31774 0.0
C319 C 0.63595 0.54838 0.39241 0.0
C320 C 0.62919 0.51735 0.55476 0.0
C321 C 0.59755 0.51833 0.71754 0.0
C322 C 0.60508 0.52053 0.64293 0.0
C323 C 0.63006 0.52972 0.42957 0.0
C324 C 0.62264 0.52761 0.50427 0.0
H325 H 0.60129 0.55003 0.85788 0.0
H326 H 0.604 0.55056 0.7274 0.0
H327 H 0.62622 0.50638 0.6625 0.0
H328 H 0.62583 0.49779 0.28932 0.0
H329 H 0.62352 0.49746 0.41995 0.0
C330 C 0.60613 0.0175 0.91331 0.0
C331 C 0.61583 0.00738 0.952 0.0
C332 C 0.60752 0.01863 0.83873 0.0
C333 C 0.64782 0.02313 0.70734 0.0
H334 H 0.60425 0.02304 0.56944 0.0
C335 C 0.65881 0.03003 0.40182 0.0
C336 C 0.64887 0.04001 0.36353 0.0
C337 C 0.65735 0.02867 0.47636 0.0
C338 C 0.61668 0.0235 0.60788 0.0
H339 H 0.63223 0.98844 0.94363 0.0
H340 H 0.63462 0.99039 0.81231 0.0
H341 H 0.5922 0.01009 0.69074 0.0
H342 H 0.63204 0.05855 0.37268 0.0
H343 H 0.6296 0.05627 0.50389 0.0
H344 H 0.67232 0.03658 0.62453 0.0
C345 C 0.62628 0.99769 0.83997 0.0
C346 C 0.60971 0.01583 0.67673 0.0
C347 C 0.62475 0.99643 0.91478 0.0
C348 C 0.6397 0.05066 0.40118 0.0
C349 C 0.63813 0.04919 0.47594 0.0
C350 C 0.6548 0.0308 0.63849 0.0
C351 C 0.61869 0.00971 0.80201 0.0
C352 C 0.62523 0.0156 0.72696 0.0
C353 C 0.64589 0.03724 0.51344 0.0
C354 C 0.63929 0.03109 0.5883 0.0
H355 H 0.59892 0.02585 0.94102 0.0
H356 H 0.60153 0.02798 0.81069 0.0
H357 H 0.66025 0.02359 0.74581 0.0
H358 H 0.66625 0.02193 0.3738 0.0
H359 H 0.6635 0.01939 0.50403 0.0
C360 C 0.82786 0.89785 0.63225 0.0
C361 C 0.82156 0.87897 0.59414 0.0
C362 C 0.82986 0.89852 0.70695 0.0
C363 C 0.81995 0.86707 0.87015 0.0
H364 H 0.8793 0.91355 0.92837 0.0
C365 C 0.85419 0.87012 0.1517 0.0
C366 C 0.86033 0.88905 0.18925 0.0
C367 C 0.85249 0.86935 0.07693 0.0
C368 C 0.86269 0.90058 0.91284 0.0
H369 H 0.81012 0.84556 0.60294 0.0
H370 H 0.81387 0.84671 0.73447 0.0
H371 H 0.86582 0.91071 0.80389 0.0
H372 H 0.87181 0.92245 0.17953 0.0
H373 H 0.86856 0.92111 0.04788 0.0
H374 H 0.8168 0.85696 0.9791 0.0
C375 C 0.81714 0.86095 0.7067 0.0
C376 C 0.85488 0.89901 0.84197 0.0
C377 C 0.81492 0.86024 0.63166 0.0
C378 C 0.86713 0.90773 0.15124 0.0
C379 C 0.86519 0.90692 0.07612 0.0
C380 C 0.82776 0.86864 0.94102 0.0
C381 C 0.82582 0.88036 0.74432 0.0
C382 C 0.83341 0.8823 0.82017 0.0
C383 C 0.85665 0.88745 0.03893 0.0
C384 C 0.84921 0.88538 0.96288 0.0
H385 H 0.8328 0.91243 0.60398 0.0
H386 H 0.83598 0.91354 0.73508 0.0
H387 H 0.80332 0.85411 0.85465 0.0
H388 H 0.84914 0.85559 0.18038 0.0
H389 H 0.84647 0.8543 0.04918 0.0
C390 C 0.33468 0.89655 0.59147 0.0
C391 C 0.32448 0.87725 0.55299 0.0
C392 C 0.33328 0.89674 0.66599 0.0
C393 C 0.30576 0.89069 0.79703 0.0
H394 H 0.31034 0.85359 0.93647 0.0
C395 C 0.28086 0.85862 0.10453 0.0
C396 C 0.29141 0.87805 0.14228 0.0
C397 C 0.28174 0.85817 0.0299 0.0
C398 C 0.30862 0.86377 0.89763 0.0
H399 H 0.3072 0.8431 0.56139 0.0
H400 H 0.30445 0.84341 0.69228 0.0
H401 H 0.32313 0.85423 0.81403 0.0
H402 H 0.30873 0.91216 0.13265 0.0
H403 H 0.31057 0.91141 0.00153 0.0
H404 H 0.2913 0.90026 0.88068 0.0
C405 C 0.31355 0.85835 0.66496 0.0
C406 C 0.31613 0.86426 0.82805 0.0
C407 C 0.31512 0.85816 0.59022 0.0
C408 C 0.30056 0.89701 0.10437 0.0
C409 C 0.3016 0.89656 0.0295 0.0
C410 C 0.29825 0.8902 0.86661 0.0
C411 C 0.32151 0.87763 0.70265 0.0
C412 C 0.31484 0.87779 0.77739 0.0
C413 C 0.29332 0.87714 -0.00762 0.0
C414 C 0.29961 0.87672 0.91735 0.0
H415 H 0.34236 0.91148 0.56363 0.0
H416 H 0.34007 0.9118 0.69442 0.0
H417 H 0.30408 0.9009 0.75821 0.0
H418 H 0.27332 0.84378 0.13293 0.0
H419 H 0.27472 0.84302 0.00198 0.0
C420 C 0.29781 0.41076 0.463 0.0
C421 C 0.30466 0.39816 0.42571 0.0
C422 C 0.29647 0.40982 0.53783 0.0
C423 C 0.31007 0.38933 0.70075 0.0
H424 H 0.24859 0.37356 0.753 0.0
C425 C 0.27809 0.35581 0.97562 0.0
C426 C 0.27083 0.36799 0.01361 0.0
C427 C 0.2795 0.35706 0.90086 0.0
C428 C 0.26579 0.37795 0.73899 0.0
H429 H 0.31827 0.37693 0.43638 0.0
H430 H 0.31596 0.37531 0.56684 0.0
H431 H 0.26144 0.386 0.63175 0.0
H432 H 0.25645 0.38865 0.00397 0.0
H433 H 0.25902 0.39089 0.87368 0.0
H434 H 0.31442 0.38127 0.80793 0.0
C435 C 0.31143 0.38573 0.5388 0.0
C436 C 0.27324 0.38532 0.67022 0.0
C437 C 0.31262 0.38655 0.46419 0.0
C438 C 0.26247 0.37939 0.97571 0.0
C439 C 0.2638 0.38056 0.90115 0.0
C440 C 0.30263 0.38198 0.76952 0.0
C441 C 0.30219 0.39644 0.57564 0.0
C442 C 0.29542 0.39103 0.65064 0.0
C443 C 0.27351 0.37036 0.86375 0.0
C444 C 0.28041 0.37617 0.78903 0.0
H445 H 0.29173 0.41995 0.43429 0.0
H446 H 0.28964 0.41847 0.56566 0.0
H447 H 0.32725 0.39366 0.68666 0.0
H448 H 0.28442 0.34675 0.00377 0.0
H449 H 0.28663 0.34873 0.87259 0.0
C450 C 0.46728 0.22848 0.44377 0.0
C451 C 0.47813 0.21935 0.48232 0.0
C452 C 0.46485 0.22624 0.36904 0.0
C453 C 0.48197 0.20889 0.20592 0.0
H454 H 0.41929 0.1882 0.14541 0.0
C455 C 0.45173 0.17495 0.92295 0.0
C456 C 0.44085 0.18411 0.88477 0.0
C457 C 0.4541 0.17701 -0.00227 0.0
C458 C 0.43685 0.19404 0.16145 0.0
H459 H 0.497 0.2027 0.4729 0.0
H460 H 0.49276 0.19877 0.34199 0.0
H461 H 0.4312 0.19998 0.26993 0.0
H462 H 0.42186 0.20063 0.89492 0.0
H463 H 0.42603 0.20427 0.02586 0.0
H464 H 0.48763 0.20298 0.09744 0.0
C465 C 0.4861 0.20761 0.36948 0.0
C466 C 0.44374 0.20094 0.23251 0.0
C467 C 0.48862 0.20994 0.44442 0.0
C468 C 0.43029 0.19339 0.92307 0.0
C469 C 0.43275 0.19553 -0.00194 0.0
C470 C 0.47509 0.202 0.13486 0.0
C471 C 0.47319 0.21481 0.33166 0.0
C472 C 0.46638 0.20848 0.25537 0.0
C473 C 0.44568 0.1883 0.03555 0.0
C474 C 0.45245 0.19448 0.11196 0.0
H475 H 0.45929 0.23607 0.47174 0.0
H476 H 0.45537 0.23246 0.34093 0.0
H477 H 0.49953 0.21475 0.22197 0.0
H478 H 0.45978 0.16746 0.8947 0.0
H479 H 0.4636 0.17076 0.02555 0.0
C480 C 0.9867 0.23055 0.47437 0.0
C481 C 0.96599 0.22069 0.51032 0.0
C482 C 0.98695 0.2289 0.39966 0.0
C483 C 0.95149 0.21148 0.23311 0.0
H484 H 0.99187 0.19047 0.1802 0.0
C485 C 0.94529 0.17704 0.95335 0.0
C486 C 0.96593 0.1872 0.91712 0.0
C487 C 0.94511 0.1787 0.02808 0.0
C488 C 0.98058 0.19636 0.19429 0.0
H489 H 0.92932 0.20378 0.49618 0.0
H490 H 0.92979 0.20078 0.36579 0.0
H491 H 0.99283 0.20277 0.30349 0.0
H492 H 1.00263 0.20467 0.93073 0.0
H493 H 1.00227 0.2076 0.06122 0.0
H494 H 0.93921 0.20503 0.1239 0.0
C495 C 0.9458 0.20964 0.39519 0.0
C496 C 0.98127 0.20359 0.26445 0.0
C497 C 0.94554 0.21133 0.46994 0.0
C498 C 0.98645 0.19687 0.95722 0.0
C499 C 0.98625 0.19853 0.03199 0.0
C500 C 0.95078 0.20422 0.16297 0.0
C501 C 0.96652 0.21742 0.36 0.0
C502 C 0.96676 0.21125 0.28439 0.0
C503 C 0.96555 0.19044 0.06745 0.0
C504 C 0.9653 0.19658 0.14305 0.0
H505 H 1.00275 0.23822 0.50413 0.0
H506 H 1.00314 0.23552 0.37335 0.0
H507 H 0.94021 0.21739 0.24713 0.0
H508 H 0.92922 0.16909 0.92385 0.0
H509 H 0.92895 0.17187 0.05466 0.0
C510 C 0.98531 0.70361 0.45694 0.0
C511 C 0.96529 0.69022 0.49312 0.0
C512 C 0.98492 0.70482 0.38219 0.0
C513 C 0.95054 0.68145 0.21634 0.0
H514 H 0.97411 0.74021 0.16502 0.0
C515 C 0.93279 0.7016 0.93799 0.0
C516 C 0.95279 0.7151 0.90193 0.0
C517 C 0.93315 0.70034 0.01272 0.0
C518 C 0.96751 0.72377 0.17871 0.0
H519 H 0.93008 0.66547 0.47962 0.0
H520 H 0.9294 0.66776 0.34915 0.0
H521 H 0.97973 0.73159 0.28767 0.0
H522 H 0.9879 0.74002 0.91567 0.0
H523 H 0.98857 0.73764 0.04607 0.0
H524 H 0.93833 0.67364 0.10738 0.0
C525 C 0.94529 0.67744 0.37839 0.0
C526 C 0.97093 0.71884 0.2484 0.0
C527 C 0.94566 0.67621 0.45313 0.0
C528 C 0.97235 0.72917 0.94204 0.0
C529 C 0.97271 0.7279 0.01676 0.0
C530 C 0.94713 0.68639 0.14664 0.0
C531 C 0.96457 0.69259 0.34294 0.0
C532 C 0.96249 0.69765 0.26767 0.0
C533 C 0.95347 0.71264 0.0521 0.0
C534 C 0.95556 0.70758 0.12737 0.0
H535 H 1.00083 0.71427 0.48638 0.0
H536 H 1.00015 0.71625 0.35551 0.0
H537 H 0.94393 0.66502 0.23006 0.0
H538 H 0.91731 0.69087 0.90844 0.0
H539 H 0.91795 0.68884 0.0393 0.0
C540 C 0.23358 0.43434 0.10918 0.0
C541 C 0.25284 0.44792 0.15189 0.0
C542 C 0.21627 0.4391 0.0963 0.0
C543 C 0.19289 0.47165 0.16984 0.0
H544 H 0.1617 0.46014 0.98378 0.0
C545 C 0.13892 0.50875 0.08534 0.0
C546 C 0.11821 0.4962 0.04778 0.0
C547 C 0.15357 0.50099 0.10046 0.0
C548 C 0.17003 0.46315 0.03634 0.0
H549 H 0.26901 0.47751 0.21302 0.0
H550 H 0.23929 0.48612 0.18874 0.0
H551 H 0.19148 0.45104 0.00295 0.0
H552 H 0.09651 0.46548 -0.00255 0.0
H553 H 0.12246 0.45187 0.02344 0.0
H554 H 0.17182 0.48422 0.20259 0.0
C555 C 0.2373 0.4715 0.16651 0.0
C556 C 0.18712 0.45797 0.04738 0.0
C557 C 0.25457 0.4667 0.17963 0.0
C558 C 0.11232 0.4755 0.0266 0.0
C559 C 0.12722 0.46777 0.04106 0.0
C560 C 0.17593 0.47693 0.15865 0.0
C561 C 0.21777 0.45763 0.12548 0.0
C562 C 0.19899 0.4624 0.11404 0.0
C563 C 0.14805 0.4805 0.07798 0.0
C564 C 0.1645 0.473 0.09153 0.0
H565 H 0.23174 0.41992 0.08582 0.0
H566 H 0.20146 0.42799 0.06475 0.0
H567 H 0.20122 0.47482 0.22242 0.0
H568 H 0.14398 0.52476 0.10264 0.0
H569 H 0.16958 0.51129 0.12821 0.0
C570 C 0.63334 0.63465 0.14212 0.0
C571 C 0.63929 0.61891 0.15266 0.0
C572 C 0.6464 0.65479 0.17322 0.0
C573 C 0.69162 0.68558 0.31212 0.0
H574 H 0.70047 0.73277 0.19471 0.0
C575 C 0.76115 0.77455 0.35585 0.0
C576 C 0.7539 0.78919 0.34176 0.0
C577 C 0.74601 0.75282 0.34604 0.0
C578 C 0.69795 0.71974 0.22851 0.0
H579 H 0.66375 0.61236 0.20707 0.0
H580 H 0.68688 0.64755 0.25792 0.0
H581 H 0.67661 0.69692 0.1489 0.0
H582 H 0.72496 0.79282 0.31432 0.0
H583 H 0.69856 0.75505 0.29769 0.0
H584 H 0.71386 0.70886 0.39066 0.0
C585 C 0.67181 0.64415 0.22662 0.0
C586 C 0.68419 0.69916 0.20238 0.0
C587 C 0.6586 0.62392 0.19621 0.0
C588 C 0.73096 0.78178 0.32429 0.0
C589 C 0.71592 0.76023 0.31465 0.0
C590 C 0.70568 0.7063 0.338 0.0
C591 C 0.66599 0.6599 0.21502 0.0
C592 C 0.68068 0.68178 0.24393 0.0
C593 C 0.72353 0.74563 0.32218 0.0
C594 C 0.70877 0.72354 0.29657 0.0
H595 H 0.61874 0.63166 0.10918 0.0
H596 H 0.64113 0.66639 0.16422 0.0
H597 H 0.68914 0.67256 0.34584 0.0
H598 H 0.7788 0.77996 0.36908 0.0
H599 H 0.75227 0.74183 0.3522 0.0
C600 C 0.5547 0.00382 0.21877 0.0
C601 C 0.56644 0.99261 0.21076 0.0
C602 C 0.5314 0.99317 0.23069 0.0
C603 C 0.48347 0.94212 0.28894 0.0
H604 H 0.44734 0.96241 0.19031 0.0
C605 C 0.3853 0.89634 0.28775 0.0
C606 C 0.37448 0.90828 0.29895 0.0
C607 C 0.40863 0.90634 0.27621 0.0
C608 C 0.45721 0.95667 0.21878 0.0
H609 H 0.56292 0.96137 0.21033 0.0
H610 H 0.52204 0.94266 0.2303 0.0
H611 H 0.48814 0.98005 0.17264 0.0
H612 H 0.37972 0.94014 0.30597 0.0
H613 H 0.42048 0.9576 0.28567 0.0
H614 H 0.4524 0.91863 0.33466 0.0
C615 C 0.53096 0.95976 0.22815 0.0
C616 C 0.48062 0.9668 0.20877 0.0
C617 C 0.55439 0.97047 0.21649 0.0
C618 C 0.3875 0.93047 0.29735 0.0
C619 C 0.41085 0.94048 0.28544 0.0
C620 C 0.46 0.93193 0.29874 0.0
C621 C 0.51914 0.97099 0.23453 0.0
C622 C 0.4941 0.95976 0.24409 0.0
C623 C 0.42172 0.92853 0.27522 0.0
C624 C 0.44662 0.93915 0.26404 0.0
H625 H 0.56346 0.02091 0.2153 0.0
H626 H 0.523 0.00239 0.23697 0.0
H627 H 0.49333 0.93643 0.31769 0.0
H628 H 0.37579 0.87921 0.28858 0.0
H629 H 0.41642 0.89668 0.26756 0.0
C630 C 0.586 0.09045 0.13876 0.0
C631 C 0.6094 0.10031 0.12684 0.0
C632 C 0.57423 0.10146 0.12676 0.0
C633 C 0.58284 0.15495 0.07534 0.0
H634 H 0.52819 0.12111 0.95941 0.0
C635 C 0.55312 0.18444 0.83135 0.0
C636 C 0.53044 0.17978 0.8298 0.0
C637 C 0.56105 0.17641 0.88573 0.0
C638 C 0.54324 0.13071 -0.00741 0.0
H639 H 0.63925 0.1299 0.10134 0.0
H640 H 0.61902 0.14878 0.07804 0.0
H641 H 0.54476 0.10369 0.02853 0.0
H642 H 0.49825 0.16315 0.88354 0.0
H643 H 0.51199 0.14851 0.97741 0.0
H644 H 0.58213 0.18202 0.03367 0.0
C645 C 0.60945 0.13274 0.09709 0.0
C646 C 0.5527 0.12074 0.03284 0.0
C647 C 0.62112 0.12183 0.10961 0.0
C648 C 0.51588 0.16716 0.88404 0.0
C649 C 0.52367 0.15873 0.93744 0.0
C650 C 0.57364 0.1649 0.03375 0.0
C651 C 0.5857 0.12246 0.10236 0.0
C652 C 0.57308 0.13276 0.07287 0.0
C653 C 0.54628 0.16321 0.93846 0.0
C654 C 0.55413 0.15285 -0.0094 0.0
H655 H 0.57657 0.07387 0.15231 0.0
H656 H 0.55602 0.09316 0.13312 0.0
H657 H 0.59817 0.16474 0.107 0.0
H658 H 0.56461 0.19417 0.79019 0.0
H659 H 0.57852 0.17987 0.88513 0.0
C660 C 0.95362 0.26016 0.81381 0.0
C661 C 0.97238 0.25809 0.7949 0.0
C662 C 0.95669 0.27962 0.83871 0.0
C663 C 0.96704 0.32533 0.84245 0.0
H664 H 0.02034 0.3635 0.95757 0.0
C665 C 0.99976 0.41477 0.86066 0.0
C666 C 0.01007 0.42591 0.92524 0.0
C667 C 0.99313 0.39338 0.85293 0.0
C668 C 0.00517 0.35297 0.92635 0.0
H669 H 0.00911 0.27481 0.78814 0.0
H670 H 0.01438 0.30865 0.8298 0.0
H671 H 0.01248 0.32764 0.93208 0.0
H672 H 0.02081 0.42306 0.03321 0.0
H673 H 0.009 0.38556 0.02009 0.0
H674 H 0.95959 0.35058 0.8374 0.0
C675 C 0.99731 0.29523 0.82691 0.0
C676 C 1.00082 0.33246 0.91086 0.0
C677 C 0.99426 0.2758 0.8024 0.0
C678 C 0.01317 0.415 0.9825 0.0
C679 C 0.00642 0.39351 0.97489 0.0
C680 C 0.97132 0.3458 0.85826 0.0
C681 C 0.97858 0.29745 0.84502 0.0
C682 C 0.98196 0.31852 0.86745 0.0
C683 C 0.99652 0.38249 0.90968 0.0
C684 C 0.9907 0.36003 0.89915 0.0
H685 H 0.93655 0.24678 0.80904 0.0
H686 H 0.9419 0.28068 0.85303 0.0
H687 H 0.95243 0.31511 0.80849 0.0
H688 H 0.99748 0.42272 0.81495 0.0
H689 H 0.98601 0.38558 0.80142 0.0
C690 C 0.85071 0.64514 0.82213 0.0
C691 C 0.85422 0.63526 0.76237 0.0
C692 C 0.8301 0.63514 0.85805 0.0
C693 C 0.78067 0.58389 0.89459 0.0
H694 H 0.74761 0.61441 0.90746 0.0
C695 C 0.68632 0.54191 0.97045 0.0
C696 C 0.67807 0.5534 0.00796 0.0
C697 C 0.70847 0.55204 0.94512 0.0
C698 C 0.75671 0.60574 0.90587 0.0
H699 H 0.83948 0.60693 0.69514 0.0
H700 H 0.80362 0.58915 0.75918 0.0
H701 H 0.78558 0.63174 0.85837 0.0
H702 H 0.68671 0.58438 0.05016 0.0
H703 H 0.72564 0.6019 0.009 0.0
H704 H 0.75223 0.55804 0.94347 0.0
C705 C 0.8167 0.60471 0.77764 0.0
C706 C 0.77846 0.61569 0.87734 0.0
C707 C 0.83711 0.61489 0.74085 0.0
C708 C 0.69254 0.57515 0.02079 0.0
C709 C 0.71485 0.58522 -0.00333 0.0
C710 C 0.75909 0.57404 0.92441 0.0
C711 C 0.81286 0.6149 0.83575 0.0
C712 C 0.79051 0.60478 0.87063 0.0
C713 C 0.7231 0.57385 0.95787 0.0
C714 C 0.74664 0.58471 0.92959 0.0
H715 H 0.86357 0.66092 0.83934 0.0
H716 H 0.82755 0.64328 0.90289 0.0
H717 H 0.78973 0.5752 0.89049 0.0
H718 H 0.67548 0.52515 0.95925 0.0
H719 H 0.71391 0.54276 0.91425 0.0
C720 C 0.96165 0.64216 0.80467 0.0
C721 C 0.97674 0.66061 0.7683 0.0
C722 C 0.96847 0.62779 0.82712 0.0
C723 C 0.00613 0.60758 0.78451 0.0
H724 H 0.00619 0.59499 -0.01265 0.0
C725 C 0.02944 0.54595 0.89547 0.0
C726 C 0.04779 0.55493 0.94529 0.0
C727 C 0.01856 0.55719 0.87439 0.0
C728 C 0.00607 0.59824 0.9305 0.0
H729 H 0.01064 0.67825 0.72586 0.0
H730 H 0.02221 0.65281 0.76299 0.0
H731 H 0.99102 0.61773 0.94795 0.0
H732 H 0.06861 0.58235 0.0139 0.0
H733 H 0.04909 0.60159 0.97891 0.0
H734 H 0.02111 0.58806 0.76696 0.0
C735 C 0.00526 0.64966 0.77492 0.0
C736 C 0.99735 0.61116 0.90802 0.0
C737 C 0.99866 0.66425 0.75408 0.0
C738 C 0.05457 0.57505 0.9752 0.0
C739 C 0.04336 0.58602 0.95551 0.0
C740 C 0.01435 0.59427 0.80675 0.0
C741 C 0.99028 0.63135 0.81188 0.0
C742 C 0.99768 0.61624 0.83498 0.0
C743 C 0.02545 0.57733 0.90425 0.0
C744 C 0.01475 0.58977 0.88009 0.0
H745 H 0.94468 0.63897 0.81649 0.0
H746 H 0.95663 0.61377 0.85555 0.0
H747 H 0.00652 0.61125 0.72788 0.0
H748 H 0.02391 0.53052 0.87132 0.0
H749 H 1.00478 0.55017 0.83475 0.0
C750 C 0.59587 0.41268 0.03439 0.0
C751 C 0.58971 0.4277 0.01324 0.0
C752 C 0.58414 0.392 0.00686 0.0
C753 C 0.52981 0.35227 0.92681 0.0
H754 H 0.5642 0.32797 0.84589 0.0
C755 C 0.48632 0.27438 0.76228 0.0
C756 C 0.49469 0.26032 0.76969 0.0
C757 C 0.498 0.29459 0.79356 0.0
C758 C 0.55433 0.33435 0.86928 0.0
H759 H 0.56598 0.43231 0.94631 0.0
H760 H 0.54524 0.3961 0.90006 0.0
H761 H 0.58416 0.3635 0.89929 0.0
H762 H 0.52179 0.25631 0.81614 0.0
H763 H 0.54193 0.29145 0.87255 0.0
H764 H 0.49999 0.32311 0.89827 0.0
C765 C 0.55924 0.4005 0.93802 0.0
C766 C 0.56578 0.35473 0.8996 0.0
C767 C 0.57115 0.42128 0.96483 0.0
C768 C 0.51501 0.26687 0.80908 0.0
C769 C 0.52659 0.28705 0.84112 0.0
C770 C 0.51836 0.33181 0.89728 0.0
C771 C 0.56576 0.38574 0.95832 0.0
C772 C 0.55362 0.36393 0.9281 0.0
C773 C 0.51821 0.30115 0.83378 0.0
C774 C 0.53046 0.32266 0.86753 0.0
H775 H 0.60971 0.41677 0.0725 0.0
H776 H 0.5893 0.38081 0.02408 0.0
H777 H 0.52006 0.35892 0.94933 0.0
H778 H 0.47077 0.26985 0.73179 0.0
H779 H 0.49127 0.30515 0.78547 0.0
C780 C 0.86232 0.14092 0.85231 0.0
C781 C 0.86095 0.15389 0.79906 0.0
C782 C 0.84377 0.12878 0.89562 0.0
C783 C 0.79515 0.12712 0.97469 0.0
H784 H 0.76507 0.06585 0.96334 0.0
C785 C 0.70426 0.07624 0.06617 0.0
C786 C 0.69704 0.05619 0.09521 0.0
C787 C 0.7259 0.08802 0.03879 0.0
C788 C 0.77352 0.08292 0.96858 0.0
H789 H 0.83956 0.16474 0.74986 0.0
H790 H 0.80721 0.14396 0.82749 0.0
H791 H 0.80032 0.08702 0.89907 0.0
H792 H 0.70707 0.03292 0.11975 0.0
H793 H 0.74547 0.05392 0.0736 0.0
H794 H 0.76888 0.12335 0.04482 0.0
C795 C 0.82254 0.14303 0.83483 0.0
C796 C 0.79359 0.09499 0.93141 0.0
C797 C 0.8409 0.15478 0.79043 0.0
C798 C 0.71216 0.0483 0.09742 0.0
C799 C 0.73409 0.06029 0.07067 0.0
C800 C 0.7754 0.11513 0.01296 0.0
C801 C 0.82382 0.12985 0.88735 0.0
C802 C 0.80416 0.11714 0.93274 0.0
C803 C 0.74116 0.08028 0.0407 0.0
C804 C 0.7639 0.09286 0.00854 0.0
H805 H 0.87757 0.13985 0.85932 0.0
H806 H 0.84503 0.11869 0.93589 0.0
H807 H 0.80327 0.14423 0.9771 0.0
H808 H 0.69301 0.08276 0.06306 0.0
H809 H 0.73042 0.10303 0.01446 0.0
C810 C 0.66779 0.94146 0.21147 0.0
C811 C 0.67011 0.961 0.23308 0.0
C812 C 0.68468 0.93646 0.22855 0.0
C813 C 0.7455 0.96027 0.27621 0.0
H814 H 0.72767 0.90365 0.33966 0.0
C815 C 0.81013 0.93302 0.3634 0.0
C816 C 0.80429 0.91233 0.34222 0.0
C817 C 0.79474 0.94037 0.35194 0.0
C818 C 0.73298 0.91948 0.32127 0.0
H819 H 0.69215 0.99041 0.2914 0.0
H820 H 0.72167 0.98173 0.32015 0.0
H821 H 0.69878 0.91348 0.31716 0.0
H822 H 0.77831 0.8836 0.28877 0.0
H823 H 0.75204 0.89645 0.26762 0.0
H824 H 0.77976 0.96611 0.27935 0.0
C825 C 0.7068 0.97039 0.2893 0.0
C826 C 0.71638 0.92511 0.30848 0.0
C827 C 0.68982 0.97535 0.27266 0.0
C828 C 0.78326 0.89952 0.30682 0.0
C829 C 0.76806 0.90685 0.2951 0.0
C830 C 0.76218 0.95459 0.28872 0.0
C831 C 0.70442 0.95088 0.26744 0.0
C832 C 0.72238 0.94546 0.28483 0.0
C833 C 0.77331 0.92715 0.31892 0.0
C834 C 0.75606 0.93399 0.31025 0.0
H835 H 0.65315 0.93011 0.18001 0.0
H836 H 0.68246 0.92141 0.21 0.0
H837 H 0.75066 0.97606 0.25765 0.0
H838 H 0.82622 0.94325 0.39082 0.0
H839 H 0.79932 0.95611 0.37096 0.0
C840 C 0.28604 0.76935 0.22878 0.0
C841 C 0.2823 0.7866 0.22198 0.0
C842 C 0.27301 0.75077 0.18832 0.0
C843 C 0.21713 0.71943 0.1053 0.0
H844 H 0.24339 0.68815 0.01894 0.0
C845 C 0.16024 0.63323 0.00897 0.0
C846 C 0.1676 0.61968 0.03619 0.0
C847 C 0.17503 0.65516 0.00947 0.0
C848 C 0.23577 0.69669 0.04269 0.0
H849 H 0.26233 0.79786 0.1642 0.0
H850 H 0.23921 0.76519 0.0958 0.0
H851 H 0.2682 0.72404 0.06556 0.0
H852 H 0.19654 0.61807 0.07902 0.0
H853 H 0.22208 0.65599 0.08137 0.0
H854 H 0.18481 0.69175 0.08677 0.0
C855 C 0.25225 0.76616 0.13273 0.0
C856 C 0.24999 0.71722 0.06928 0.0
C857 C 0.26544 0.78485 0.17253 0.0
C858 C 0.19035 0.62822 0.05887 0.0
C859 C 0.20507 0.64999 0.05927 0.0
C860 C 0.20291 0.6988 0.07943 0.0
C861 C 0.25582 0.74891 0.14058 0.0
C862 C 0.24082 0.72852 0.10278 0.0
C863 C 0.19743 0.6638 0.03675 0.0
C864 C 0.2121 0.68693 0.05004 0.0
H865 H 0.29863 0.76992 0.26659 0.0
H866 H 0.2759 0.73757 0.19621 0.0
H867 H 0.20963 0.72777 0.13122 0.0
H868 H 0.14277 0.62701 -0.00882 0.0
H869 H 0.16871 0.66536 -0.00911 0.0
C870 C 0.53446 0.47222 0.12892 0.0
C871 C 0.5476 0.4944 0.12702 0.0
C872 C 0.5109 0.46229 0.13617 0.0
C873 C 0.46436 0.47206 0.19003 0.0
H874 H 0.42694 0.422 0.07194 0.0
C875 C 0.36665 0.43468 0.1661 0.0
C876 C 0.35399 0.41254 0.17113 0.0
C877 C 0.39024 0.44495 0.15851 0.0
C878 C 0.43714 0.43587 0.10569 0.0
H879 H 0.54628 0.52353 0.13289 0.0
H880 H 0.50533 0.50626 0.14483 0.0
H881 H 0.46816 0.43904 0.06693 0.0
H882 H 0.35617 0.3838 0.17024 0.0
H883 H 0.39709 0.40166 0.15705 0.0
H884 H 0.43329 0.46889 0.22855 0.0
C885 C 0.51318 0.49649 0.14157 0.0
C886 C 0.46079 0.4456 0.10305 0.0
C887 C 0.53671 0.50641 0.13442 0.0
C888 C 0.36536 0.40088 0.16649 0.0
C889 C 0.38886 0.41112 0.15856 0.0
C890 C 0.4407 0.46235 0.19253 0.0
C891 C 0.49992 0.4743 0.14163 0.0
C892 C 0.47472 0.46379 0.14534 0.0
C893 C 0.40164 0.43329 0.1553 0.0
C894 C 0.4268 0.4441 0.15057 0.0
H895 H 0.54231 0.4625 0.1234 0.0
H896 H 0.50126 0.44518 0.13719 0.0
H897 H 0.47454 0.48587 0.22403 0.0
H898 H 0.35842 0.44413 0.16957 0.0
H899 H 0.39957 0.46204 0.1553 0.0
C900 C 0.91983 0.74147 0.63882 0.0
C901 C 0.94176 0.74498 0.62583 0.0
C902 C 0.9135 0.7562 0.61731 0.0
C903 C 0.92278 0.79522 0.48413 0.0
H904 H 0.89831 0.81827 0.62284 0.0
C905 C 0.86724 0.83273 0.41181 0.0
C906 C 0.87397 0.85275 0.44252 0.0
C907 C 0.87805 0.82146 0.43236 0.0
C908 C 0.90526 0.81207 0.58371 0.0
H909 H 0.97413 0.76651 0.57908 0.0
H910 H 0.96266 0.79194 0.53892 0.0
H911 H 0.91204 0.79453 0.66324 0.0
H912 H 0.89735 0.87668 0.51874 0.0
H913 H 0.91577 0.85651 0.55675 0.0
H914 H 0.91503 0.81199 0.40408 0.0
C915 C 0.95059 0.77792 0.56688 0.0
C916 C 0.91299 0.79844 0.60669 0.0
C917 C 0.95713 0.76342 0.58998 0.0
C918 C 0.89189 0.86134 0.49392 0.0
C919 C 0.90235 0.8498 0.51584 0.0
C920 C 0.91456 0.80846 0.46087 0.0
C921 C 0.92876 0.77451 0.58089 0.0
C922 C 0.92171 0.78981 0.55706 0.0
C923 C 0.89547 0.82973 0.48529 0.0
C924 C 0.90564 0.81693 0.51042 0.0
H925 H 0.90764 0.72746 0.66661 0.0
H926 H 0.89652 0.75315 0.62831 0.0
H927 H 0.92934 0.78869 0.44483 0.0
H928 H 0.85352 0.82572 0.37192 0.0
H929 H 0.87234 0.80597 0.40836 0.0
C930 C 0.4017 0.13565 0.56944 0.0
C931 C 0.42443 0.14393 0.59229 0.0
C932 C 0.39008 0.11598 0.53404 0.0
C933 C 0.39856 0.07662 0.43324 0.0
H934 H 0.33833 0.03705 0.49891 0.0
C935 C 0.35408 0.98614 0.38325 0.0
C936 C 0.33028 0.97485 0.37885 0.0
C937 C 0.36565 0.00807 0.39489 0.0
C938 C 0.35493 0.048 0.47864 0.0
H939 H 0.45286 0.13817 0.59521 0.0
H940 H 0.43248 0.10377 0.53415 0.0
H941 H 0.35821 0.07281 0.54878 0.0
H942 H 0.29999 0.97754 0.37592 0.0
H943 H 0.32009 0.01588 0.39373 0.0
H944 H 0.39536 0.05159 0.36383 0.0
C945 C 0.42374 0.11259 0.5429 0.0
C946 C 0.36635 0.06851 0.50751 0.0
C947 C 0.43533 0.13221 0.57852 0.0
C948 C 0.31835 0.98596 0.38021 0.0
C949 C 0.32986 0.00784 0.39088 0.0
C950 C 0.38707 0.05607 0.40402 0.0
C951 C 0.40097 0.10424 0.52052 0.0
C952 C 0.38839 0.08296 0.48585 0.0
C953 C 0.35356 0.01904 0.40155 0.0
C954 C 0.3652 0.04145 0.42702 0.0
H955 H 0.39286 0.14435 0.57881 0.0
H956 H 0.37259 0.11001 0.51687 0.0
H957 H 0.41544 0.08753 0.41487 0.0
H958 H 0.3636 0.97785 0.38286 0.0
H959 H 0.38389 0.01617 0.40321 0.0
C960 C 0.09207 0.26295 0.6461 0.0
C961 C 0.0693 0.25381 0.62246 0.0
C962 C 0.10966 0.27557 0.60021 0.0
C963 C 0.12364 0.28683 0.40972 0.0
H964 H 0.17384 0.33934 0.48616 0.0
C965 C 0.21307 0.3637 0.31377 0.0
C966 C 0.22302 0.35282 0.28199 0.0
C967 C 0.19221 0.3525 0.34774 0.0
C968 C 0.15979 0.32488 0.46373 0.0
H969 H 0.04732 0.25072 0.53111 0.0
H970 H 0.07799 0.27235 0.45102 0.0
H971 H 0.14182 0.31763 0.56262 0.0
H972 H 0.21841 0.32176 0.25692 0.0
H973 H 0.18209 0.30234 0.31548 0.0
H974 H 0.14181 0.29395 0.31116 0.0
C975 C 0.08218 0.26967 0.50509 0.0
C976 C 0.14162 0.31233 0.50776 0.0
C977 C 0.06459 0.25716 0.55108 0.0
C978 C 0.2112 0.33059 0.28125 0.0
C979 C 0.19032 0.31944 0.3144 0.0
C980 C 0.14189 0.29932 0.36582 0.0
C981 C 0.10487 0.27922 0.52949 0.0
C982 C 0.12354 0.29303 0.48153 0.0
C983 C 0.18087 0.33027 0.34953 0.0
C984 C 0.16029 0.31832 0.39274 0.0
H985 H 0.09633 0.26045 0.70024 0.0
H986 H 0.12703 0.28241 0.62001 0.0
H987 H 0.10995 0.27201 0.38814 0.0
H988 H 0.22182 0.38084 0.31514 0.0
H989 H 0.18518 0.36121 0.37398 0.0
C990 C 0.36551 0.21942 0.53846 0.0
C991 C 0.38844 0.22488 0.54122 0.0
C992 C 0.35756 0.22794 0.48584 0.0
C993 C 0.37493 0.27523 0.38747 0.0
H994 H 0.32129 0.24178 0.26691 0.0
C995 C 0.33242 0.3158 0.24135 0.0
C996 C 0.30881 0.30547 0.24968 0.0
C997 C 0.34437 0.30503 0.25439 0.0
C998 C 0.33624 0.2514 0.30039 0.0
H999 H 0.42107 0.24346 0.49148 0.0
H1000 H 0.40727 0.25888 0.40073 0.0
H1001 H 0.3374 0.22418 0.33821 0.0
H1002 H 0.27896 0.27532 0.27009 0.0
H1003 H 0.29952 0.25687 0.29556 0.0
H1004 H 0.37294 0.30229 0.35508 0.0
C1005 C 0.39542 0.2477 0.43838 0.0
C1006 C 0.34548 0.24128 0.34081 0.0
C1007 C 0.40325 0.23883 0.48997 0.0
C1008 C 0.29722 0.28379 0.26479 0.0
C1009 C 0.30908 0.27312 0.27846 0.0
C1010 C 0.36542 0.28533 0.34834 0.0
C1011 C 0.37255 0.2424 0.43616 0.0
C1012 C 0.36456 0.25309 0.38597 0.0
C1013 C 0.33292 0.28378 0.27635 0.0
C1014 C 0.34552 0.2735 0.30595 0.0
H1015 H 0.35381 0.20865 0.57728 0.0
H1016 H 0.33987 0.2238 0.48551 0.0
H1017 H 0.38962 0.28464 0.4223 0.0
H1018 H 0.3418 0.33249 0.22946 0.0
H1019 H 0.36267 0.31363 0.25046 0.0
C1020 C 0.89834 0.99031 0.4529 0.0
C1021 C 0.91316 0.98221 0.46189 0.0
C1022 C 0.90601 0.0118 0.46504 0.0
C1023 C 0.951 0.05838 0.56424 0.0
H1024 H 0.92676 0.08819 0.45512 0.0
C1025 C 0.97704 0.14591 0.62529 0.0
C1026 C 0.95881 0.14983 0.62976 0.0
C1027 C 0.97356 0.12653 0.59787 0.0
C1028 C 0.93364 0.08005 0.48618 0.0
H1029 H 0.9479 0.99054 0.48732 0.0
H1030 H 0.9614 0.02812 0.50771 0.0
H1031 H 0.91712 0.05245 0.41789 0.0
H1032 H 0.92275 0.13664 0.60748 0.0
H1033 H 0.91676 0.10303 0.55977 0.0
H1034 H 0.96733 0.08597 0.63291 0.0
C1035 C 0.94371 0.01777 0.49281 0.0
C1036 C 0.92808 0.05955 0.46497 0.0
C1037 C 0.936 0.99624 0.48098 0.0
C1038 C 0.93717 0.13414 0.605 0.0
C1039 C 0.93375 0.11491 0.57709 0.0
C1040 C 0.95666 0.07894 0.5852 0.0
C1041 C 0.92872 0.02576 0.48613 0.0
C1042 C 0.93633 0.04829 0.50453 0.0
C1043 C 0.95184 0.1108 0.57363 0.0
C1044 C 0.94769 0.08984 0.54721 0.0
H1045 H 0.88057 0.97992 0.43936 0.0
H1046 H 0.89387 0.01728 0.46049 0.0
H1047 H 0.95743 0.05012 0.59661 0.0
H1048 H 0.99393 0.15769 0.64383 0.0
H1049 H 0.98786 0.12385 0.59544 0.0
C1050 C 0.08186 0.78901 0.6521 0.0
C1051 C 0.06465 0.7684 0.63355 0.0
C1052 C 0.10238 0.79838 0.61589 0.0
C1053 C 0.14044 0.78541 0.52299 0.0
H1054 H 0.16782 0.84265 0.45212 0.0
C1055 C 0.22806 0.82517 0.3883 0.0
C1056 C 0.24251 0.84686 0.40267 0.0
C1057 C 0.20539 0.81515 0.40925 0.0
C1058 C 0.1606 0.82675 0.47242 0.0
H1059 H 0.0553 0.74146 0.5624 0.0
H1060 H 0.09147 0.75775 0.49973 0.0
H1061 H 0.12997 0.82623 0.50225 0.0
H1062 H 0.2446 0.87498 0.45095 0.0
H1063 H 0.20562 0.85749 0.48997 0.0
H1064 H 0.17131 0.78613 0.49664 0.0
C1065 C 0.08893 0.76667 0.54191 0.0
C1066 C 0.13884 0.81733 0.50066 0.0
C1067 C 0.06822 0.75744 0.5773 0.0
C1068 C 0.23387 0.85829 0.43851 0.0
C1069 C 0.21137 0.84824 0.46041 0.0
C1070 C 0.16237 0.79495 0.49583 0.0
C1071 C 0.10624 0.78718 0.56121 0.0
C1072 C 0.12864 0.79664 0.52676 0.0
C1073 C 0.19677 0.82653 0.446 0.0
C1074 C 0.17287 0.81585 0.47087 0.0
H1075 H 0.07946 0.79781 0.69496 0.0
H1076 H 0.11551 0.81416 0.6321 0.0
H1077 H 0.13302 0.7695 0.54348 0.0
H1078 H 0.2342 0.81598 0.36027 0.0
H1079 H 0.19462 0.79851 0.39612 0.0
loop_
_geom_bond_atom_site_label_1
_geom_bond_atom_site_label_2
_geom_bond_distance
_geom_bond_site_symmetry_2
_ccdc_geom_bond_type
Co0 N5 2.057 . S
Co0 O17 2.021 1_554 S
Co0 O20 2.062 . S
Co0 O24 2.117 . S
Co0 O25 2.020 . S
C1 O21 1.259 . S
C1 O24 1.258 . S
Co2 N11 2.057 1_554 S
Co2 O18 2.117 1_554 S
Co2 O19 2.020 . S
Co2 O21 2.021 . S
Co2 O26 2.062 . S
C3 N5 1.316 . S
C3 N6 1.347 . S
C3 H8 0.931 1_554 S
C4 N5 1.375 . S
C4 C7 1.350 . S
C4 H9 0.930 . S
N5 Co0 2.057 . S
N5 C3 1.316 . S
N5 C4 1.375 . S
N6 C3 1.347 . S
N6 C7 1.373 . S
C7 C4 1.350 . S
C7 N6 1.373 . S
C7 H28 0.931 . S
H8 C3 0.931 1_556 S
H9 C4 0.930 . S
C10 O17 1.259 . S
C10 O18 1.258 . S
N11 Co2 2.057 1_556 S
N11 C12 1.316 1_556 S
N11 C13 1.375 . S
C12 N11 1.316 1_554 S
C12 N14 1.347 1_554 S
C12 H23 0.931 . S
C13 N11 1.375 . S
C13 C15 1.350 . S
C13 H22 0.930 . S
N14 C12 1.347 1_556 S
N14 C15 1.373 . S
C15 C13 1.350 . S
C15 N14 1.373 . S
C15 H29 0.931 . S
C16 O19 1.256 . S
C16 O20 1.255 . S
O17 Co0 2.021 1_556 S
O17 C10 1.259 . S
O18 Co2 2.117 1_556 S
O18 C10 1.258 . S
O19 Co2 2.020 . S
O19 C16 1.256 . S
O20 Co0 2.062 . S
O20 C16 1.255 . S
O21 C1 1.259 . S
O21 Co2 2.021 . S
H22 C13 0.930 . S
H23 C12 0.931 . S
O24 Co0 2.117 . S
O24 C1 1.258 . S
O25 Co0 2.020 . S
O25 C27 1.256 . S
O26 Co2 2.062 . S
O26 C27 1.255 . S
C27 O25 1.256 . S
C27 O26 1.255 . S
H28 C7 0.931 . S
H29 C15 0.931 . S
Co30 N35 2.057 . S
Co30 O47 2.021 . S
Co30 O50 2.062 . S
Co30 O54 2.117 1_554 S
Co30 O55 2.020 . S
C31 O51 1.259 . S
C31 O54 1.258 . S
Co32 N41 2.057 . S
Co32 O48 2.117 . S
Co32 O49 2.020 . S
Co32 O51 2.021 1_554 S
Co32 O56 2.062 . S
C33 N35 1.316 . S
C33 N36 1.347 . S
C33 H38 0.931 . S
C34 N35 1.375 1_556 S
C34 C37 1.350 . S
C34 H39 0.930 . S
N35 Co30 2.057 . S
N35 C33 1.316 . S
N35 C34 1.375 1_554 S
N36 C33 1.347 . S
N36 C37 1.373 1_554 S
C37 C34 1.350 . S
C37 N36 1.373 1_556 S
C37 H58 0.931 . S
H38 C33 0.931 . S
H39 C34 0.930 . S
C40 O47 1.259 . S
C40 O48 1.258 . S
N41 Co32 2.057 . S
N41 C42 1.316 . S
N41 C43 1.375 . S
C42 N41 1.316 . S
C42 N44 1.347 . S
C42 H53 0.931 . S
C43 N41 1.375 . S
C43 C45 1.350 . S
C43 H52 0.930 . S
N44 C42 1.347 . S
N44 C45 1.373 . S
C45 C43 1.350 . S
C45 N44 1.373 . S
C45 H59 0.931 . S
C46 O49 1.256 . S
C46 O50 1.255 . S
O47 Co30 2.021 . S
O47 C40 1.259 . S
O48 Co32 2.117 . S
O48 C40 1.258 . S
O49 Co32 2.020 . S
O49 C46 1.256 . S
O50 Co30 2.062 . S
O50 C46 1.255 . S
O51 C31 1.259 . S
O51 Co32 2.021 1_556 S
H52 C43 0.930 . S
H53 C42 0.931 . S
O54 Co30 2.117 1_556 S
O54 C31 1.258 . S
O55 Co30 2.020 . S
O55 C57 1.256 . S
O56 Co32 2.062 . S
O56 C57 1.255 . S
C57 O55 1.256 . S
C57 O56 1.255 . S
H58 C37 0.931 . S
H59 C45 0.931 . S
Co60 N65 2.057 1_545 S
Co60 O77 2.021 . S
Co60 O80 2.062 . S
Co60 O84 2.117 . S
Co60 O85 2.020 1_545 S
C61 O81 1.259 . S
C61 O84 1.258 . S
Co62 N71 2.057 . S
Co62 O78 2.117 . S
Co62 O79 2.020 . S
Co62 O81 2.021 . S
Co62 O86 2.062 . S
C63 N65 1.316 . S
C63 N66 1.347 . S
C63 H68 0.931 . S
C64 N65 1.375 . S
C64 C67 1.350 . S
C64 H69 0.930 . S
N65 Co60 2.057 1_565 S
N65 C63 1.316 . S
N65 C64 1.375 . S
N66 C63 1.347 . S
N66 C67 1.373 . S
C67 C64 1.350 . S
C67 N66 1.373 . S
C67 H88 0.931 . S
H68 C63 0.931 . S
H69 C64 0.930 . S
C70 O77 1.255 1_556 S
C70 O78 1.254 1_556 S
N71 Co62 2.057 . S
N71 C72 1.316 . S
N71 C73 1.375 . S
C72 N71 1.316 . S
C72 N74 1.347 . S
C72 H83 0.931 . S
C73 N71 1.375 . S
C73 C75 1.350 . S
C73 H82 0.930 1_554 S
N74 C72 1.347 . S
N74 C75 1.373 . S
C75 C73 1.350 . S
C75 N74 1.373 . S
C75 H89 0.931 1_554 S
C76 O79 1.256 . S
C76 O80 1.255 . S
O77 Co60 2.021 . S
O77 C70 1.255 1_554 S
O78 Co62 2.117 . S
O78 C70 1.254 1_554 S
O79 Co62 2.020 . S
O79 C76 1.256 . S
O80 Co60 2.062 . S
O80 C76 1.255 . S
O81 C61 1.259 . S
O81 Co62 2.021 . S
H82 C73 0.930 1_556 S
H83 C72 0.931 . S
O84 Co60 2.117 . S
O84 C61 1.258 . S
O85 Co60 2.020 1_565 S
O85 C87 1.256 . S
O86 Co62 2.062 . S
O86 C87 1.255 1_545 S
C87 O85 1.256 . S
C87 O86 1.255 1_565 S
H88 C67 0.931 . S
H89 C75 0.931 1_556 S
Co90 N95 2.057 . S
Co90 O107 2.021 . S
Co90 O110 2.062 . S
Co90 O114 2.117 . S
Co90 O115 2.020 . S
C91 O111 1.259 . S
C91 O114 1.258 . S
Co92 N101 2.057 . S
Co92 O108 2.117 . S
Co92 O109 2.020 . S
Co92 O111 2.021 . S
Co92 O116 2.062 . S
C93 N95 1.316 . S
C93 N96 1.347 . S
C93 H98 0.931 . S
C94 N95 1.375 . S
C94 C97 1.350 . S
C94 H99 0.930 . S
N95 Co90 2.057 . S
N95 C93 1.316 . S
N95 C94 1.375 . S
N96 C93 1.347 . S
N96 C97 1.373 . S
C97 C94 1.350 . S
C97 N96 1.373 . S
C97 H118 0.931 . S
H98 C93 0.931 . S
H99 C94 0.930 . S
C100 O107 1.259 . S
C100 O108 1.258 . S
N101 Co92 2.057 . S
N101 C102 1.316 . S
N101 C103 1.375 . S
C102 N101 1.316 . S
C102 N104 1.347 . S
C102 H113 0.931 . S
C103 N101 1.375 . S
C103 C105 1.350 . S
C103 H112 0.930 . S
N104 C102 1.347 . S
N104 C105 1.373 . S
C105 C103 1.350 . S
C105 N104 1.373 . S
C105 H119 0.931 . S
C106 O109 1.256 . S
C106 O110 1.255 . S
O107 Co90 2.021 . S
O107 C100 1.259 . S
O108 Co92 2.117 . S
O108 C100 1.258 . S
O109 Co92 2.020 . S
O109 C106 1.256 . S
O110 Co90 2.062 . S
O110 C106 1.255 . S
O111 C91 1.259 . S
O111 Co92 2.021 . S
H112 C103 0.930 . S
H113 C102 0.931 . S
O114 Co90 2.117 . S
O114 C91 1.258 . S
O115 Co90 2.020 . S
O115 C117 1.256 . S
O116 Co92 2.062 . S
O116 C117 1.255 . S
C117 O115 1.256 . S
C117 O116 1.255 . S
H118 C97 0.931 . S
H119 C105 0.931 . S
Co120 N125 2.057 . S
Co120 O137 2.021 . S
Co120 O140 2.062 . S
Co120 O144 2.117 . S
Co120 O145 2.020 . S
C121 O141 1.259 . S
C121 O144 1.258 . S
Co122 N131 2.057 . S
Co122 O138 2.117 . S
Co122 O139 2.020 . S
Co122 O141 2.021 . S
Co122 O146 2.062 . S
C123 N125 1.316 . S
C123 N126 1.347 . S
C123 H128 0.931 . S
C124 N125 1.375 . S
C124 C127 1.350 . S
C124 H129 0.930 . S
N125 Co120 2.057 . S
N125 C123 1.316 . S
N125 C124 1.375 . S
N126 C123 1.347 . S
N126 C127 1.373 . S
C127 C124 1.350 . S
C127 N126 1.373 . S
C127 H148 0.931 . S
H128 C123 0.931 . S
H129 C124 0.930 . S
C130 O137 1.259 . S
C130 O138 1.258 . S
N131 Co122 2.057 . S
N131 C132 1.316 . S
N131 C133 1.375 . S
C132 N131 1.316 . S
C132 N134 1.347 . S
C132 H143 0.931 . S
C133 N131 1.375 . S
C133 C135 1.350 . S
C133 H142 0.930 . S
N134 C132 1.347 . S
N134 C135 1.373 . S
C135 C133 1.350 . S
C135 N134 1.373 . S
C135 H149 0.931 . S
C136 O139 1.256 . S
C136 O140 1.255 . S
O137 Co120 2.021 . S
O137 C130 1.259 . S
O138 Co122 2.117 . S
O138 C130 1.258 . S
O139 Co122 2.020 . S
O139 C136 1.256 . S
O140 Co120 2.062 . S
O140 C136 1.255 . S
O141 C121 1.259 . S
O141 Co122 2.021 . S
H142 C133 0.930 . S
H143 C132 0.931 . S
O144 Co120 2.117 . S
O144 C121 1.258 . S
O145 Co120 2.020 . S
O145 C147 1.256 . S
O146 Co122 2.062 . S
O146 C147 1.255 . S
C147 O145 1.256 . S
C147 O146 1.255 . S
H148 C127 0.931 . S
H149 C135 0.931 . S
Co150 N155 2.057 . S
Co150 O167 2.021 . S
Co150 O170 2.062 . S
Co150 O174 2.117 . S
Co150 O175 2.020 . S
C151 O171 1.259 . S
C151 O174 1.258 . S
Co152 N161 2.057 . S
Co152 O168 2.117 . S
Co152 O169 2.020 . S
Co152 O171 2.021 . S
Co152 O176 2.062 . S
C153 N155 1.316 . S
C153 N156 1.347 . S
C153 H158 0.931 . S
C154 N155 1.375 . S
C154 C157 1.350 . S
C154 H159 0.930 . S
N155 Co150 2.057 . S
N155 C153 1.316 . S
N155 C154 1.375 . S
N156 C153 1.347 . S
N156 C157 1.373 . S
C157 C154 1.350 . S
C157 N156 1.373 . S
C157 H178 0.931 . S
H158 C153 0.931 . S
H159 C154 0.930 . S
C160 O167 1.259 . S
C160 O168 1.258 . S
N161 Co152 2.057 . S
N161 C162 1.316 . S
N161 C163 1.375 . S
C162 N161 1.316 . S
C162 N164 1.347 . S
C162 H173 0.931 . S
C163 N161 1.375 . S
C163 C165 1.350 . S
C163 H172 0.930 . S
N164 C162 1.347 . S
N164 C165 1.373 . S
C165 C163 1.350 . S
C165 N164 1.373 . S
C165 H179 0.931 . S
C166 O169 1.256 . S
C166 O170 1.255 . S
O167 Co150 2.021 . S
O167 C160 1.259 . S
O168 Co152 2.117 . S
O168 C160 1.258 . S
O169 Co152 2.020 . S
O169 C166 1.256 . S
O170 Co150 2.062 . S
O170 C166 1.255 . S
O171 C151 1.259 . S
O171 Co152 2.021 . S
H172 C163 0.930 . S
H173 C162 0.931 . S
O174 Co150 2.117 . S
O174 C151 1.258 . S
O175 Co150 2.020 . S
O175 C177 1.256 . S
O176 Co152 2.062 . S
O176 C177 1.255 . S
C177 O175 1.256 . S
C177 O176 1.255 . S
H178 C157 0.931 . S
H179 C165 0.931 . S
Co180 N185 2.057 . S
Co180 O197 2.021 . S
Co180 O200 2.062 . S
Co180 O204 2.117 . S
Co180 O205 2.020 . S
C181 O201 1.259 . S
C181 O204 1.258 . S
Co182 N191 2.057 . S
Co182 O198 2.117 . S
Co182 O199 2.020 . S
Co182 O201 2.021 . S
Co182 O206 2.062 . S
C183 N185 1.316 . S
C183 N186 1.347 . S
C183 H188 0.931 . S
C184 N185 1.375 . S
C184 C187 1.350 . S
C184 H189 0.930 . S
N185 Co180 2.057 . S
N185 C183 1.316 . S
N185 C184 1.375 . S
N186 C183 1.347 . S
N186 C187 1.373 . S
C187 C184 1.350 . S
C187 N186 1.373 . S
C187 H208 0.931 . S
H188 C183 0.931 . S
H189 C184 0.930 . S
C190 O197 1.259 . S
C190 O198 1.258 . S
N191 Co182 2.057 . S
N191 C192 1.316 . S
N191 C193 1.375 . S
C192 N191 1.316 . S
C192 N194 1.347 . S
C192 H203 0.931 . S
C193 N191 1.375 . S
C193 C195 1.350 . S
C193 H202 0.930 . S
N194 C192 1.347 . S
N194 C195 1.373 . S
C195 C193 1.350 . S
C195 N194 1.373 . S
C195 H209 0.931 . S
C196 O199 1.256 . S
C196 O200 1.255 . S
O197 Co180 2.021 . S
O197 C190 1.259 . S
O198 Co182 2.117 . S
O198 C190 1.258 . S
O199 Co182 2.020 . S
O199 C196 1.256 . S
O200 Co180 2.062 . S
O200 C196 1.255 . S
O201 C181 1.259 . S
O201 Co182 2.021 . S
H202 C193 0.930 . S
H203 C192 0.931 . S
O204 Co180 2.117 . S
O204 C181 1.258 . S
O205 Co180 2.020 . S
O205 C207 1.256 . S
O206 Co182 2.062 . S
O206 C207 1.255 . S
C207 O205 1.256 . S
C207 O206 1.255 . S
H208 C187 0.931 . S
H209 C195 0.931 . S
Co210 N215 2.057 1_655 S
Co210 O227 2.021 . S
Co210 O230 2.062 . S
Co210 O234 2.117 . S
Co210 O235 2.020 . S
C211 O231 1.259 . S
C211 O234 1.258 . S
Co212 N221 2.057 . S
Co212 O228 2.117 . S
Co212 O229 2.020 . S
Co212 O231 2.021 . S
Co212 O236 2.062 . S
C213 N215 1.316 . S
C213 N216 1.347 . S
C213 H218 0.931 . S
C214 N215 1.375 . S
C214 C217 1.350 . S
C214 H219 0.930 . S
N215 Co210 2.057 1_455 S
N215 C213 1.316 . S
N215 C214 1.375 . S
N216 C213 1.347 . S
N216 C217 1.373 . S
C217 C214 1.350 . S
C217 N216 1.373 . S
C217 H238 0.931 . S
H218 C213 0.931 . S
H219 C214 0.930 . S
C220 O227 1.259 . S
C220 O228 1.258 . S
N221 Co212 2.057 . S
N221 C222 1.316 . S
N221 C223 1.375 . S
C222 N221 1.316 . S
C222 N224 1.347 . S
C222 H233 0.931 . S
C223 N221 1.375 . S
C223 C225 1.350 . S
C223 H232 0.930 . S
N224 C222 1.347 . S
N224 C225 1.373 . S
C225 C223 1.350 . S
C225 N224 1.373 . S
C225 H239 0.931 . S
C226 O229 1.256 . S
C226 O230 1.255 . S
O227 Co210 2.021 . S
O227 C220 1.259 . S
O228 Co212 2.117 . S
O228 C220 1.258 . S
O229 Co212 2.020 . S
O229 C226 1.256 . S
O230 Co210 2.062 . S
O230 C226 1.255 . S
O231 C211 1.259 . S
O231 Co212 2.021 . S
H232 C223 0.930 . S
H233 C222 0.931 . S
O234 Co210 2.117 . S
O234 C211 1.258 . S
O235 Co210 2.020 . S
O235 C237 1.256 . S
O236 Co212 2.062 . S
O236 C237 1.255 . S
C237 O235 1.256 . S
C237 O236 1.255 . S
H238 C217 0.931 . S
H239 C225 0.931 . S
Co240 N245 2.057 . S
Co240 O257 2.021 . S
Co240 O260 2.062 . S
Co240 O264 2.117 . S
Co240 O265 2.020 . S
C241 O261 1.259 . S
C241 O264 1.258 . S
Co242 N251 2.057 1_655 S
Co242 O258 2.117 . S
Co242 O259 2.020 . S
Co242 O261 2.021 . S
Co242 O266 2.062 . S
C243 N245 1.316 . S
C243 N246 1.347 . S
C243 H248 0.931 . S
C244 N245 1.375 . S
C244 C247 1.350 . S
C244 H249 0.930 . S
N245 Co240 2.057 . S
N245 C243 1.316 . S
N245 C244 1.375 . S
N246 C243 1.347 . S
N246 C247 1.373 . S
C247 C244 1.350 . S
C247 N246 1.373 . S
C247 H268 0.931 . S
H248 C243 0.931 . S
H249 C244 0.930 . S
C250 O257 1.259 . S
C250 O258 1.258 . S
N251 Co242 2.057 1_455 S
N251 C252 1.316 . S
N251 C253 1.375 . S
C252 N251 1.316 . S
C252 N254 1.347 . S
C252 H263 0.931 . S
C253 N251 1.375 . S
C253 C255 1.350 . S
C253 H262 0.930 . S
N254 C252 1.347 . S
N254 C255 1.373 . S
C255 C253 1.350 . S
C255 N254 1.373 . S
C255 H269 0.931 . S
C256 O259 1.256 . S
C256 O260 1.255 . S
O257 Co240 2.021 . S
O257 C250 1.259 . S
O258 Co242 2.117 . S
O258 C250 1.258 . S
O259 Co242 2.020 . S
O259 C256 1.256 . S
O260 Co240 2.062 . S
O260 C256 1.255 . S
O261 C241 1.259 . S
O261 Co242 2.021 . S
H262 C253 0.930 . S
H263 C252 0.931 . S
O264 Co240 2.117 . S
O264 C241 1.258 . S
O265 Co240 2.020 . S
O265 C267 1.256 . S
O266 Co242 2.062 . S
O266 C267 1.255 . S
C267 O265 1.256 . S
C267 O266 1.255 . S
H268 C247 0.931 . S
H269 C255 0.931 . S
C270 C271 1.349 . S
C270 C272 1.327 . S
C270 H295 0.950 . S
C271 C270 1.349 . S
C271 C287 1.349 . S
C272 C270 1.327 . S
C272 C291 1.429 . S
C272 H296 0.950 . S
C273 C290 1.574 . S
C273 C292 1.368 . S
C273 H297 0.949 . S
H274 C278 0.949 . S
C275 C276 1.349 . S
C275 C277 1.327 . S
C275 H298 0.950 . S
C276 C275 1.349 . S
C276 C288 1.349 . S
C277 C275 1.327 . S
C277 C293 1.429 . S
C277 H299 0.950 . S
C278 H274 0.949 . S
C278 C286 1.574 . S
C278 C294 1.368 . S
H279 C287 0.950 . S
H280 C285 0.950 . S
H281 C286 0.949 . S
H282 C288 0.950 . S
H283 C289 0.950 . S
H284 C290 0.949 . S
C285 H280 0.950 . S
C285 C287 1.327 . S
C285 C291 1.429 . S
C286 C278 1.574 . S
C286 H281 0.949 . S
C286 C292 1.368 . S
C287 C271 1.349 . S
C287 H279 0.950 . S
C287 C285 1.327 . S
C288 C276 1.349 . S
C288 H282 0.950 . S
C288 C289 1.327 . S
C289 H283 0.950 . S
C289 C288 1.327 . S
C289 C293 1.429 . S
C290 C273 1.574 . S
C290 H284 0.949 . S
C290 C294 1.368 . S
C291 C272 1.429 . S
C291 C285 1.429 . S
C291 C292 1.523 . S
C292 C273 1.368 . S
C292 C286 1.368 . S
C292 C291 1.523 . S
C293 C277 1.429 . S
C293 C289 1.429 . S
C293 C294 1.523 . S
C294 C278 1.368 . S
C294 C290 1.368 . S
C294 C293 1.523 . S
H295 C270 0.950 . S
H296 C272 0.950 . S
H297 C273 0.949 . S
H298 C275 0.950 . S
H299 C277 0.950 . S
C300 C301 1.349 . S
C300 C302 1.327 . S
C300 H325 0.950 . S
C301 C300 1.349 . S
C301 C317 1.349 . S
C302 C300 1.327 . S
C302 C321 1.429 . S
C302 H326 0.950 . S
C303 C320 1.574 . S
C303 C322 1.368 . S
C303 H327 0.949 . S
H304 C308 0.949 . S
C305 C306 1.349 . S
C305 C307 1.327 . S
C305 H328 0.950 . S
C306 C305 1.349 . S
C306 C318 1.349 . S
C307 C305 1.327 . S
C307 C323 1.429 . S
C307 H329 0.950 . S
C308 H304 0.949 . S
C308 C316 1.574 . S
C308 C324 1.368 . S
H309 C317 0.950 . S
H310 C315 0.950 . S
H311 C316 0.949 . S
H312 C318 0.950 . S
H313 C319 0.950 . S
H314 C320 0.949 . S
C315 H310 0.950 . S
C315 C317 1.327 . S
C315 C321 1.429 . S
C316 C308 1.574 . S
C316 H311 0.949 . S
C316 C322 1.368 . S
C317 C301 1.349 . S
C317 H309 0.950 . S
C317 C315 1.327 . S
C318 C306 1.349 . S
C318 H312 0.950 . S
C318 C319 1.327 . S
C319 H313 0.950 . S
C319 C318 1.327 . S
C319 C323 1.429 . S
C320 C303 1.574 . S
C320 H314 0.949 . S
C320 C324 1.368 . S
C321 C302 1.429 . S
C321 C315 1.429 . S
C321 C322 1.523 . S
C322 C303 1.368 . S
C322 C316 1.368 . S
C322 C321 1.523 . S
C323 C307 1.429 . S
C323 C319 1.429 . S
C323 C324 1.523 . S
C324 C308 1.368 . S
C324 C320 1.368 . S
C324 C323 1.523 . S
H325 C300 0.950 . S
H326 C302 0.950 . S
H327 C303 0.949 . S
H328 C305 0.950 . S
H329 C307 0.950 . S
C330 C331 1.337 1_565 S
C330 C332 1.323 1_565 S
C330 H355 0.968 . S
C331 C330 1.337 1_545 S
C331 C347 1.349 . S
C332 C330 1.323 1_545 S
C332 C351 1.429 . S
C332 H356 0.950 1_545 S
C333 C350 1.574 . S
C333 C352 1.368 . S
C333 H357 0.949 . S
H334 C338 0.960 . S
C335 C336 1.349 . S
C335 C337 1.327 . S
C335 H358 0.950 . S
C336 C335 1.349 . S
C336 C348 1.349 . S
C337 C335 1.327 . S
C337 C353 1.429 . S
C337 H359 0.950 . S
C338 H334 0.960 . S
C338 C346 1.574 . S
C338 C354 1.368 . S
H339 C347 0.950 . S
H340 C345 0.950 . S
H341 C346 0.949 1_565 S
H342 C348 0.950 . S
H343 C349 0.950 . S
H344 C350 0.949 . S
C345 H340 0.950 . S
C345 C347 1.327 . S
C345 C351 1.429 . S
C346 C338 1.574 . S
C346 H341 0.949 1_545 S
C346 C352 1.368 . S
C347 C331 1.349 . S
C347 H339 0.950 . S
C347 C345 1.327 . S
C348 C336 1.349 . S
C348 H342 0.950 . S
C348 C349 1.327 . S
C349 H343 0.950 . S
C349 C348 1.327 . S
C349 C353 1.429 . S
C350 C333 1.574 . S
C350 H344 0.949 . S
C350 C354 1.368 . S
C351 C332 1.429 . S
C351 C345 1.429 . S
C351 C352 1.523 . S
C352 C333 1.368 . S
C352 C346 1.368 . S
C352 C351 1.523 . S
C353 C337 1.429 . S
C353 C349 1.429 . S
C353 C354 1.523 . S
C354 C338 1.368 . S
C354 C350 1.368 . S
C354 C353 1.523 . S
H355 C330 0.968 . S
H356 C332 0.950 1_565 S
H357 C333 0.949 . S
H358 C335 0.950 . S
H359 C337 0.950 . S
C360 C361 1.349 . S
C360 C362 1.327 . S
C360 H385 0.950 . S
C361 C360 1.349 . S
C361 C377 1.349 . S
C362 C360 1.327 . S
C362 C381 1.429 . S
C362 H386 0.950 . S
C363 C380 1.574 . S
C363 C382 1.368 . S
C363 H387 0.949 . S
H364 C368 0.949 . S
C365 C366 1.349 . S
C365 C367 1.327 . S
C365 H388 0.950 . S
C366 C365 1.349 . S
C366 C378 1.349 . S
C367 C365 1.327 . S
C367 C383 1.429 . S
C367 H389 0.950 . S
C368 H364 0.949 . S
C368 C376 1.574 . S
C368 C384 1.368 . S
H369 C377 0.950 . S
H370 C375 0.950 . S
H371 C376 0.949 . S
H372 C378 0.950 . S
H373 C379 0.950 . S
H374 C380 0.949 . S
C375 H370 0.950 . S
C375 C377 1.327 . S
C375 C381 1.429 . S
C376 C368 1.574 . S
C376 H371 0.949 . S
C376 C382 1.368 . S
C377 C361 1.349 . S
C377 H369 0.950 . S
C377 C375 1.327 . S
C378 C366 1.349 . S
C378 H372 0.950 . S
C378 C379 1.327 . S
C379 H373 0.950 . S
C379 C378 1.327 . S
C379 C383 1.429 . S
C380 C363 1.574 . S
C380 H374 0.949 . S
C380 C384 1.368 . S
C381 C362 1.429 . S
C381 C375 1.429 . S
C381 C382 1.523 . S
C382 C363 1.368 . S
C382 C376 1.368 . S
C382 C381 1.523 . S
C383 C367 1.429 . S
C383 C379 1.429 . S
C383 C384 1.523 1_554 S
C384 C368 1.368 . S
C384 C380 1.368 . S
C384 C383 1.523 1_556 S
H385 C360 0.950 . S
H386 C362 0.950 . S
H387 C363 0.949 . S
H388 C365 0.950 . S
H389 C367 0.950 . S
C390 C391 1.349 . S
C390 C392 1.327 . S
C390 H415 0.950 . S
C391 C390 1.349 . S
C391 C407 1.349 . S
C392 C390 1.327 . S
C392 C411 1.429 . S
C392 H416 0.950 . S
C393 C410 1.574 . S
C393 C412 1.368 . S
C393 H417 0.949 . S
H394 C398 0.949 . S
C395 C396 1.349 . S
C395 C397 1.327 . S
C395 H418 0.950 . S
C396 C395 1.349 . S
C396 C408 1.349 . S
C397 C395 1.327 . S
C397 C413 1.429 1_554 S
C397 H419 0.950 1_554 S
C398 H394 0.949 . S
C398 C406 1.574 . S
C398 C414 1.368 . S
H399 C407 0.950 . S
H400 C405 0.950 . S
H401 C406 0.949 . S
H402 C408 0.950 . S
H403 C409 0.950 . S
H404 C410 0.949 . S
C405 H400 0.950 . S
C405 C407 1.327 . S
C405 C411 1.429 . S
C406 C398 1.574 . S
C406 H401 0.949 . S
C406 C412 1.368 . S
C407 C391 1.349 . S
C407 H399 0.950 . S
C407 C405 1.327 . S
C408 C396 1.349 . S
C408 H402 0.950 . S
C408 C409 1.327 . S
C409 H403 0.950 . S
C409 C408 1.327 . S
C409 C413 1.429 1_554 S
C410 C393 1.574 . S
C410 H404 0.949 . S
C410 C414 1.368 . S
C411 C392 1.429 . S
C411 C405 1.429 . S
C411 C412 1.523 . S
C412 C393 1.368 . S
C412 C406 1.368 . S
C412 C411 1.523 . S
C413 C397 1.429 1_556 S
C413 C409 1.429 1_556 S
C413 C414 1.523 . S
C414 C398 1.368 . S
C414 C410 1.368 . S
C414 C413 1.523 . S
H415 C390 0.950 . S
H416 C392 0.950 . S
H417 C393 0.949 . S
H418 C395 0.950 . S
H419 C397 0.950 1_556 S
C420 C421 1.349 . S
C420 C422 1.327 . S
C420 H445 0.950 . S
C421 C420 1.349 . S
C421 C437 1.349 . S
C422 C420 1.327 . S
C422 C441 1.429 . S
C422 H446 0.950 . S
C423 C440 1.574 . S
C423 C442 1.368 . S
C423 H447 0.949 . S
H424 C428 0.949 . S
C425 C426 1.349 . S
C425 C427 1.327 1_554 S
C425 H448 0.950 . S
C426 C425 1.349 . S
C426 C438 1.349 . S
C427 C425 1.327 1_556 S
C427 C443 1.429 . S
C427 H449 0.950 . S
C428 H424 0.949 . S
C428 C436 1.574 . S
C428 C444 1.368 . S
H429 C437 0.950 . S
H430 C435 0.950 . S
H431 C436 0.949 . S
H432 C438 0.950 . S
H433 C439 0.950 . S
H434 C440 0.949 . S
C435 H430 0.950 . S
C435 C437 1.327 . S
C435 C441 1.429 . S
C436 C428 1.574 . S
C436 H431 0.949 . S
C436 C442 1.368 . S
C437 C421 1.349 . S
C437 H429 0.950 . S
C437 C435 1.327 . S
C438 C426 1.349 . S
C438 H432 0.950 . S
C438 C439 1.327 1_554 S
C439 H433 0.950 . S
C439 C438 1.327 1_556 S
C439 C443 1.429 . S
C440 C423 1.574 . S
C440 H434 0.949 . S
C440 C444 1.368 . S
C441 C422 1.429 . S
C441 C435 1.429 . S
C441 C442 1.523 . S
C442 C423 1.368 . S
C442 C436 1.368 . S
C442 C441 1.523 . S
C443 C427 1.429 . S
C443 C439 1.429 . S
C443 C444 1.523 . S
C444 C428 1.368 . S
C444 C440 1.368 . S
C444 C443 1.523 . S
H445 C420 0.950 . S
H446 C422 0.950 . S
H447 C423 0.949 . S
H448 C425 0.950 . S
H449 C427 0.950 . S
C450 C451 1.349 . S
C450 C452 1.327 . S
C450 H475 0.950 . S
C451 C450 1.349 . S
C451 C467 1.349 . S
C452 C450 1.327 . S
C452 C471 1.429 . S
C452 H476 0.950 . S
C453 C470 1.574 . S
C453 C472 1.368 . S
C453 H477 0.949 . S
H454 C458 0.949 . S
C455 C456 1.349 . S
C455 C457 1.327 1_556 S
C455 H478 0.950 . S
C456 C455 1.349 . S
C456 C468 1.349 . S
C457 C455 1.327 1_554 S
C457 C473 1.429 . S
C457 H479 0.950 . S
C458 H454 0.949 . S
C458 C466 1.574 . S
C458 C474 1.368 . S
H459 C467 0.950 . S
H460 C465 0.950 . S
H461 C466 0.949 . S
H462 C468 0.950 . S
H463 C469 0.950 . S
H464 C470 0.949 . S
C465 H460 0.950 . S
C465 C467 1.327 . S
C465 C471 1.429 . S
C466 C458 1.574 . S
C466 H461 0.949 . S
C466 C472 1.368 . S
C467 C451 1.349 . S
C467 H459 0.950 . S
C467 C465 1.327 . S
C468 C456 1.349 . S
C468 H462 0.950 . S
C468 C469 1.327 1_556 S
C469 H463 0.950 . S
C469 C468 1.327 1_554 S
C469 C473 1.429 . S
C470 C453 1.574 . S
C470 H464 0.949 . S
C470 C474 1.368 . S
C471 C452 1.429 . S
C471 C465 1.429 . S
C471 C472 1.523 . S
C472 C453 1.368 . S
C472 C466 1.368 . S
C472 C471 1.523 . S
C473 C457 1.429 . S
C473 C469 1.429 . S
C473 C474 1.523 . S
C474 C458 1.368 . S
C474 C470 1.368 . S
C474 C473 1.523 . S
H475 C450 0.950 . S
H476 C452 0.950 . S
H477 C453 0.949 . S
H478 C455 0.950 . S
H479 C457 0.950 . S
C480 C481 1.349 . S
C480 C482 1.327 . S
C480 H505 0.950 . S
C481 C480 1.349 . S
C481 C497 1.349 . S
C482 C480 1.327 . S
C482 C501 1.429 . S
C482 H506 0.950 . S
C483 C500 1.574 . S
C483 C502 1.368 . S
C483 H507 0.949 . S
H484 C488 0.949 . S
C485 C486 1.349 . S
C485 C487 1.327 1_556 S
C485 H508 0.950 . S
C486 C485 1.349 . S
C486 C498 1.349 . S
C487 C485 1.327 1_554 S
C487 C503 1.429 . S
C487 H509 0.950 . S
C488 H484 0.949 . S
C488 C496 1.574 . S
C488 C504 1.368 . S
H489 C497 0.950 . S
H490 C495 0.950 . S
H491 C496 0.949 . S
H492 C498 0.950 . S
H493 C499 0.950 . S
H494 C500 0.949 . S
C495 H490 0.950 . S
C495 C497 1.327 . S
C495 C501 1.429 . S
C496 C488 1.574 . S
C496 H491 0.949 . S
C496 C502 1.368 . S
C497 C481 1.349 . S
C497 H489 0.950 . S
C497 C495 1.327 . S
C498 C486 1.349 . S
C498 H492 0.950 . S
C498 C499 1.327 1_556 S
C499 H493 0.950 . S
C499 C498 1.327 1_554 S
C499 C503 1.429 . S
C500 C483 1.574 . S
C500 H494 0.949 . S
C500 C504 1.368 . S
C501 C482 1.429 . S
C501 C495 1.429 . S
C501 C502 1.523 . S
C502 C483 1.368 . S
C502 C496 1.368 . S
C502 C501 1.523 . S
C503 C487 1.429 . S
C503 C499 1.429 . S
C503 C504 1.523 . S
C504 C488 1.368 . S
C504 C500 1.368 . S
C504 C503 1.523 . S
H505 C480 0.950 . S
H506 C482 0.950 . S
H507 C483 0.949 . S
H508 C485 0.950 . S
H509 C487 0.950 . S
C510 C511 1.349 . S
C510 C512 1.327 . S
C510 H535 0.950 . S
C511 C510 1.349 . S
C511 C527 1.349 . S
C512 C510 1.327 . S
C512 C531 1.429 . S
C512 H536 0.950 . S
C513 C530 1.574 . S
C513 C532 1.368 . S
C513 H537 0.949 . S
H514 C518 0.949 . S
C515 C516 1.349 . S
C515 C517 1.327 1_556 S
C515 H538 0.950 . S
C516 C515 1.349 . S
C516 C528 1.349 . S
C517 C515 1.327 1_554 S
C517 C533 1.429 . S
C517 H539 0.950 . S
C518 H514 0.949 . S
C518 C526 1.574 . S
C518 C534 1.368 . S
H519 C527 0.950 . S
H520 C525 0.950 . S
H521 C526 0.949 . S
H522 C528 0.950 . S
H523 C529 0.950 . S
H524 C530 0.949 . S
C525 H520 0.950 . S
C525 C527 1.327 . S
C525 C531 1.429 . S
C526 C518 1.574 . S
C526 H521 0.949 . S
C526 C532 1.368 . S
C527 C511 1.349 . S
C527 H519 0.950 . S
C527 C525 1.327 . S
C528 C516 1.349 . S
C528 H522 0.950 . S
C528 C529 1.327 1_556 S
C529 H523 0.950 . S
C529 C528 1.327 1_554 S
C529 C533 1.429 . S
C530 C513 1.574 . S
C530 H524 0.949 . S
C530 C534 1.368 . S
C531 C512 1.429 . S
C531 C525 1.429 . S
C531 C532 1.523 . S
C532 C513 1.368 . S
C532 C526 1.368 . S
C532 C531 1.523 . S
C533 C517 1.429 . S
C533 C529 1.429 . S
C533 C534 1.523 . S
C534 C518 1.368 . S
C534 C530 1.368 . S
C534 C533 1.523 . S
H535 C510 0.950 . S
H536 C512 0.950 . S
H537 C513 0.949 . S
H538 C515 0.950 . S
H539 C517 0.950 . S
C540 C541 1.349 . S
C540 C542 1.327 . S
C540 H565 0.950 . S
C541 C540 1.349 . S
C541 C557 1.349 . S
C542 C540 1.327 . S
C542 C561 1.429 . S
C542 H566 0.950 . S
C543 C560 1.574 . S
C543 C562 1.368 . S
C543 H567 0.949 . S
H544 C548 0.949 . S
C545 C546 1.349 . S
C545 C547 1.327 . S
C545 H568 0.950 . S
C546 C545 1.349 . S
C546 C558 1.349 . S
C547 C545 1.327 . S
C547 C563 1.429 . S
C547 H569 0.950 . S
C548 H544 0.949 . S
C548 C556 1.574 . S
C548 C564 1.368 . S
H549 C557 0.950 . S
H550 C555 0.950 . S
H551 C556 0.949 . S
H552 C558 0.950 . S
H553 C559 0.950 . S
H554 C560 0.949 . S
C555 H550 0.950 . S
C555 C557 1.327 . S
C555 C561 1.429 . S
C556 C548 1.574 . S
C556 H551 0.949 . S
C556 C562 1.368 . S
C557 C541 1.349 . S
C557 H549 0.950 . S
C557 C555 1.327 . S
C558 C546 1.349 . S
C558 H552 0.950 . S
C558 C559 1.327 . S
C559 H553 0.950 . S
C559 C558 1.327 . S
C559 C563 1.429 . S
C560 C543 1.574 . S
C560 H554 0.949 . S
C560 C564 1.368 . S
C561 C542 1.429 . S
C561 C555 1.429 . S
C561 C562 1.523 . S
C562 C543 1.368 . S
C562 C556 1.368 . S
C562 C561 1.523 . S
C563 C547 1.429 . S
C563 C559 1.429 . S
C563 C564 1.523 . S
C564 C548 1.368 . S
C564 C560 1.368 . S
C564 C563 1.523 . S
H565 C540 0.950 . S
H566 C542 0.950 . S
H567 C543 0.949 . S
H568 C545 0.950 . S
H569 C547 0.950 . S
C570 C571 1.349 . S
C570 C572 1.327 . S
C570 H595 0.950 . S
C571 C570 1.349 . S
C571 C587 1.349 . S
C572 C570 1.327 . S
C572 C591 1.429 . S
C572 H596 0.950 . S
C573 C590 1.574 . S
C573 C592 1.368 . S
C573 H597 0.949 . S
H574 C578 0.949 . S
C575 C576 1.349 . S
C575 C577 1.327 . S
C575 H598 0.950 . S
C576 C575 1.349 . S
C576 C588 1.349 . S
C577 C575 1.327 . S
C577 C593 1.429 . S
C577 H599 0.950 . S
C578 H574 0.949 . S
C578 C586 1.574 . S
C578 C594 1.368 . S
H579 C587 0.950 . S
H580 C585 0.950 . S
H581 C586 0.949 . S
H582 C588 0.950 . S
H583 C589 0.950 . S
H584 C590 0.949 . S
C585 H580 0.950 . S
C585 C587 1.327 . S
C585 C591 1.429 . S
C586 C578 1.574 . S
C586 H581 0.949 . S
C586 C592 1.368 . S
C587 C571 1.349 . S
C587 H579 0.950 . S
C587 C585 1.327 . S
C588 C576 1.349 . S
C588 H582 0.950 . S
C588 C589 1.327 . S
C589 H583 0.950 . S
C589 C588 1.327 . S
C589 C593 1.429 . S
C590 C573 1.574 . S
C590 H584 0.949 . S
C590 C594 1.368 . S
C591 C572 1.429 . S
C591 C585 1.429 . S
C591 C592 1.523 . S
C592 C573 1.368 . S
C592 C586 1.368 . S
C592 C591 1.523 . S
C593 C577 1.429 . S
C593 C589 1.429 . S
C593 C594 1.523 . S
C594 C578 1.368 . S
C594 C590 1.368 . S
C594 C593 1.523 . S
H595 C570 0.950 . S
H596 C572 0.950 . S
H597 C573 0.949 . S
H598 C575 0.950 . S
H599 C577 0.950 . S
C600 C601 1.349 . S
C600 C602 1.327 . S
C600 H625 0.950 . S
C601 C600 1.349 . S
C601 C617 1.349 . S
C602 C600 1.327 . S
C602 C621 1.429 . S
C602 H626 0.950 . S
C603 C620 1.574 . S
C603 C622 1.368 . S
C603 H627 0.949 . S
H604 C608 0.949 . S
C605 C606 1.349 . S
C605 C607 1.327 . S
C605 H628 0.950 . S
C606 C605 1.349 . S
C606 C618 1.349 . S
C607 C605 1.327 . S
C607 C623 1.429 . S
C607 H629 0.950 . S
C608 H604 0.949 . S
C608 C616 1.574 . S
C608 C624 1.368 . S
H609 C617 0.950 . S
H610 C615 0.950 . S
H611 C616 0.949 . S
H612 C618 0.950 . S
H613 C619 0.950 . S
H614 C620 0.949 . S
C615 H610 0.950 . S
C615 C617 1.327 . S
C615 C621 1.429 . S
C616 C608 1.574 . S
C616 H611 0.949 . S
C616 C622 1.368 . S
C617 C601 1.349 . S
C617 H609 0.950 . S
C617 C615 1.327 . S
C618 C606 1.349 . S
C618 H612 0.950 . S
C618 C619 1.327 . S
C619 H613 0.950 . S
C619 C618 1.327 . S
C619 C623 1.429 . S
C620 C603 1.574 . S
C620 H614 0.949 . S
C620 C624 1.368 . S
C621 C602 1.429 . S
C621 C615 1.429 . S
C621 C622 1.523 . S
C622 C603 1.368 . S
C622 C616 1.368 . S
C622 C621 1.523 . S
C623 C607 1.429 . S
C623 C619 1.429 . S
C623 C624 1.523 . S
C624 C608 1.368 . S
C624 C620 1.368 . S
C624 C623 1.523 . S
H625 C600 0.950 . S
H626 C602 0.950 . S
H627 C603 0.949 . S
H628 C605 0.950 . S
H629 C607 0.950 . S
C630 C631 1.349 . S
C630 C632 1.327 . S
C630 H655 0.950 . S
C631 C630 1.349 . S
C631 C647 1.349 . S
C632 C630 1.327 . S
C632 C651 1.429 . S
C632 H656 0.950 . S
C633 C650 1.574 . S
C633 C652 1.368 . S
C633 H657 0.949 . S
H634 C638 0.949 . S
C635 C636 1.349 . S
C635 C637 1.327 . S
C635 H658 0.950 . S
C636 C635 1.349 . S
C636 C648 1.349 . S
C637 C635 1.327 . S
C637 C653 1.429 . S
C637 H659 0.950 . S
C638 H634 0.949 . S
C638 C646 1.574 . S
C638 C654 1.368 . S
H639 C647 0.950 . S
H640 C645 0.950 . S
H641 C646 0.949 . S
H642 C648 0.950 . S
H643 C649 0.950 . S
H644 C650 0.949 . S
C645 H640 0.950 . S
C645 C647 1.327 . S
C645 C651 1.429 . S
C646 C638 1.574 . S
C646 H641 0.949 . S
C646 C652 1.368 . S
C647 C631 1.349 . S
C647 H639 0.950 . S
C647 C645 1.327 . S
C648 C636 1.349 . S
C648 H642 0.950 . S
C648 C649 1.327 . S
C649 H643 0.950 . S
C649 C648 1.327 . S
C649 C653 1.429 . S
C650 C633 1.574 . S
C650 H644 0.949 . S
C650 C654 1.368 . S
C651 C632 1.429 . S
C651 C645 1.429 . S
C651 C652 1.523 1_554 S
C652 C633 1.368 . S
C652 C646 1.368 . S
C652 C651 1.523 1_556 S
C653 C637 1.429 . S
C653 C649 1.429 . S
C653 C654 1.523 . S
C654 C638 1.368 . S
C654 C650 1.368 . S
C654 C653 1.523 . S
H655 C630 0.950 . S
H656 C632 0.950 . S
H657 C633 0.949 . S
H658 C635 0.950 . S
H659 C637 0.950 . S
C660 C661 1.349 . S
C660 C662 1.327 . S
C660 H685 0.950 . S
C661 C660 1.349 . S
C661 C677 1.349 . S
C662 C660 1.327 . S
C662 C681 1.429 . S
C662 H686 0.950 . S
C663 C680 1.574 . S
C663 C682 1.368 . S
C663 H687 0.949 . S
H664 C668 0.949 1_554 S
C665 C666 1.349 . S
C665 C667 1.327 . S
C665 H688 0.950 . S
C666 C665 1.349 . S
C666 C678 1.349 1_556 S
C667 C665 1.327 . S
C667 C683 1.429 1_455 S
C667 H689 0.950 . S
C668 H664 0.949 1_556 S
C668 C676 1.574 . S
C668 C684 1.368 . S
H669 C677 0.950 . S
H670 C675 0.950 . S
H671 C676 0.949 . S
H672 C678 0.952 1_655 S
H673 C679 0.950 . S
H674 C680 0.949 1_455 S
C675 H670 0.950 . S
C675 C677 1.327 . S
C675 C681 1.429 . S
C676 C668 1.574 . S
C676 H671 0.949 . S
C676 C682 1.368 . S
C677 C661 1.349 . S
C677 H669 0.950 . S
C677 C675 1.327 . S
C678 C666 1.349 1_554 S
C678 H672 0.952 1_455 S
C678 C679 1.325 1_455 S
C679 H673 0.950 . S
C679 C678 1.325 1_655 S
C679 C683 1.429 1_554 S
C680 C663 1.574 . S
C680 H674 0.949 1_655 S
C680 C684 1.368 . S
C681 C662 1.429 . S
C681 C675 1.429 . S
C681 C682 1.523 . S
C682 C663 1.368 . S
C682 C676 1.368 . S
C682 C681 1.523 . S
C683 C667 1.429 1_655 S
C683 C679 1.429 1_556 S
C683 C684 1.523 . S
C684 C668 1.368 . S
C684 C680 1.368 . S
C684 C683 1.523 . S
H685 C660 0.950 . S
H686 C662 0.950 . S
H687 C663 0.949 . S
H688 C665 0.950 . S
H689 C667 0.950 . S
C690 C691 1.349 . S
C690 C692 1.327 . S
C690 H715 0.950 . S
C691 C690 1.349 . S
C691 C707 1.349 . S
C692 C690 1.327 . S
C692 C711 1.429 . S
C692 H716 0.950 . S
C693 C710 1.574 . S
C693 C712 1.368 . S
C693 H717 0.949 . S
H694 C698 0.949 1_554 S
C695 C696 1.350 . S
C695 C697 1.326 1_554 S
C695 H718 0.949 1_554 S
C696 C695 1.350 . S
C696 C708 1.349 . S
C697 C695 1.326 1_556 S
C697 C713 1.429 . S
C697 H719 0.950 . S
C698 H694 0.949 1_556 S
C698 C706 1.574 . S
C698 C714 1.368 . S
H699 C707 0.950 . S
H700 C705 0.950 . S
H701 C706 0.949 . S
H702 C708 0.950 . S
H703 C709 0.950 . S
H704 C710 0.949 . S
C705 H700 0.950 . S
C705 C707 1.327 . S
C705 C711 1.429 . S
C706 C698 1.574 . S
C706 H701 0.949 . S
C706 C712 1.368 . S
C707 C691 1.349 . S
C707 H699 0.950 . S
C707 C705 1.327 . S
C708 C696 1.349 . S
C708 H702 0.950 . S
C708 C709 1.327 . S
C709 H703 0.950 . S
C709 C708 1.327 . S
C709 C713 1.429 1_554 S
C710 C693 1.574 . S
C710 H704 0.949 . S
C710 C714 1.368 . S
C711 C692 1.429 . S
C711 C705 1.429 . S
C711 C712 1.523 . S
C712 C693 1.368 . S
C712 C706 1.368 . S
C712 C711 1.523 . S
C713 C697 1.429 . S
C713 C709 1.429 1_556 S
C713 C714 1.523 . S
C714 C698 1.368 . S
C714 C710 1.368 . S
C714 C713 1.523 . S
H715 C690 0.950 . S
H716 C692 0.950 . S
H717 C693 0.949 . S
H718 C695 0.949 1_556 S
H719 C697 0.950 . S
C720 C721 1.349 . S
C720 C722 1.327 . S
C720 H745 0.950 . S
C721 C720 1.349 . S
C721 C737 1.349 . S
C722 C720 1.327 . S
C722 C741 1.429 . S
C722 H746 0.950 . S
C723 C740 1.574 . S
C723 C742 1.368 1_455 S
C723 H747 0.949 . S
H724 C728 0.949 1_554 S
C725 C726 1.349 . S
C725 C727 1.327 . S
C725 H748 0.950 . S
C726 C725 1.349 . S
C726 C738 1.349 1_556 S
C727 C725 1.327 . S
C727 C743 1.429 . S
C727 H749 0.950 . S
C728 H724 0.949 1_556 S
C728 C736 1.574 1_455 S
C728 C744 1.368 . S
H729 C737 0.950 . S
H730 C735 0.950 . S
H731 C736 0.949 . S
H732 C738 0.950 . S
H733 C739 0.950 . S
H734 C740 0.949 . S
C735 H730 0.950 . S
C735 C737 1.327 . S
C735 C741 1.429 . S
C736 C728 1.574 1_655 S
C736 H731 0.949 . S
C736 C742 1.368 . S
C737 C721 1.349 . S
C737 H729 0.950 . S
C737 C735 1.327 . S
C738 C726 1.349 1_554 S
C738 H732 0.950 . S
C738 C739 1.327 . S
C739 H733 0.950 . S
C739 C738 1.327 . S
C739 C743 1.429 1_554 S
C740 C723 1.574 . S
C740 H734 0.949 . S
C740 C744 1.368 . S
C741 C722 1.429 . S
C741 C735 1.429 . S
C741 C742 1.523 . S
C742 C723 1.368 1_655 S
C742 C736 1.368 . S
C742 C741 1.523 . S
C743 C727 1.429 . S
C743 C739 1.429 1_556 S
C743 C744 1.523 . S
C744 C728 1.368 . S
C744 C740 1.368 . S
C744 C743 1.523 . S
H745 C720 0.950 . S
H746 C722 0.950 . S
H747 C723 0.949 . S
H748 C725 0.950 . S
H749 C727 0.950 . S
C750 C751 1.349 1_556 S
C750 C752 1.327 . S
C750 H775 0.950 . S
C751 C750 1.349 1_554 S
C751 C767 1.349 . S
C752 C750 1.327 . S
C752 C771 1.429 . S
C752 H776 0.950 . S
C753 C770 1.574 . S
C753 C772 1.368 . S
C753 H777 0.949 1_556 S
H754 C758 0.949 . S
C755 C756 1.349 . S
C755 C757 1.327 . S
C755 H778 0.950 . S
C756 C755 1.349 . S
C756 C768 1.349 . S
C757 C755 1.327 . S
C757 C773 1.429 . S
C757 H779 0.950 . S
C758 H754 0.949 . S
C758 C766 1.574 . S
C758 C774 1.368 . S
H759 C767 0.950 . S
H760 C765 0.950 . S
H761 C766 0.949 . S
H762 C768 0.950 . S
H763 C769 0.950 . S
H764 C770 0.949 . S
C765 H760 0.950 . S
C765 C767 1.327 . S
C765 C771 1.429 1_554 S
C766 C758 1.574 . S
C766 H761 0.949 . S
C766 C772 1.368 . S
C767 C751 1.349 . S
C767 H759 0.950 . S
C767 C765 1.327 . S
C768 C756 1.349 . S
C768 H762 0.950 . S
C768 C769 1.327 . S
C769 H763 0.950 . S
C769 C768 1.327 . S
C769 C773 1.429 . S
C770 C753 1.574 . S
C770 H764 0.949 . S
C770 C774 1.368 . S
C771 C752 1.429 . S
C771 C765 1.429 1_556 S
C771 C772 1.523 . S
C772 C753 1.368 . S
C772 C766 1.368 . S
C772 C771 1.523 . S
C773 C757 1.429 . S
C773 C769 1.429 . S
C773 C774 1.523 . S
C774 C758 1.368 . S
C774 C770 1.368 . S
C774 C773 1.523 . S
H775 C750 0.950 . S
H776 C752 0.950 . S
H777 C753 0.949 1_554 S
H778 C755 0.950 . S
H779 C757 0.950 . S
C780 C781 1.349 . S
C780 C782 1.327 . S
C780 H805 0.950 . S
C781 C780 1.349 . S
C781 C797 1.349 . S
C782 C780 1.327 . S
C782 C801 1.429 . S
C782 H806 0.950 . S
C783 C800 1.574 1_556 S
C783 C802 1.368 . S
C783 H807 0.949 . S
H784 C788 0.949 . S
C785 C786 1.349 . S
C785 C787 1.327 . S
C785 H808 0.950 . S
C786 C785 1.349 . S
C786 C798 1.349 . S
C787 C785 1.327 . S
C787 C803 1.429 . S
C787 H809 0.950 . S
C788 H784 0.949 . S
C788 C796 1.574 . S
C788 C804 1.368 . S
H789 C797 0.950 . S
H790 C795 0.950 . S
H791 C796 0.949 . S
H792 C798 0.950 . S
H793 C799 0.950 . S
H794 C800 0.949 . S
C795 H790 0.950 . S
C795 C797 1.327 . S
C795 C801 1.429 . S
C796 C788 1.574 . S
C796 H791 0.949 . S
C796 C802 1.368 . S
C797 C781 1.349 . S
C797 H789 0.950 . S
C797 C795 1.327 . S
C798 C786 1.349 . S
C798 H792 0.950 . S
C798 C799 1.327 . S
C799 H793 0.950 . S
C799 C798 1.327 . S
C799 C803 1.429 . S
C800 C783 1.574 1_554 S
C800 H794 0.949 . S
C800 C804 1.368 1_554 S
C801 C782 1.429 . S
C801 C795 1.429 . S
C801 C802 1.523 . S
C802 C783 1.368 . S
C802 C796 1.368 . S
C802 C801 1.523 . S
C803 C787 1.429 . S
C803 C799 1.429 . S
C803 C804 1.523 1_554 S
C804 C788 1.368 . S
C804 C800 1.368 1_556 S
C804 C803 1.523 1_556 S
H805 C780 0.950 . S
H806 C782 0.950 . S
H807 C783 0.949 . S
H808 C785 0.950 . S
H809 C787 0.950 . S
C810 C811 1.349 . S
C810 C812 1.327 . S
C810 H835 0.950 . S
C811 C810 1.349 . S
C811 C827 1.349 . S
C812 C810 1.327 . S
C812 C831 1.429 . S
C812 H836 0.950 . S
C813 C830 1.574 . S
C813 C832 1.368 . S
C813 H837 0.949 . S
H814 C818 0.949 . S
C815 C816 1.349 . S
C815 C817 1.327 . S
C815 H838 0.950 . S
C816 C815 1.349 . S
C816 C828 1.349 . S
C817 C815 1.327 . S
C817 C833 1.429 . S
C817 H839 0.950 . S
C818 H814 0.949 . S
C818 C826 1.574 . S
C818 C834 1.368 . S
H819 C827 0.950 . S
H820 C825 0.950 . S
H821 C826 0.949 . S
H822 C828 0.950 . S
H823 C829 0.950 . S
H824 C830 0.949 . S
C825 H820 0.950 . S
C825 C827 1.327 . S
C825 C831 1.429 . S
C826 C818 1.574 . S
C826 H821 0.949 . S
C826 C832 1.368 . S
C827 C811 1.349 . S
C827 H819 0.950 . S
C827 C825 1.327 . S
C828 C816 1.349 . S
C828 H822 0.950 . S
C828 C829 1.327 . S
C829 H823 0.950 . S
C829 C828 1.327 . S
C829 C833 1.429 . S
C830 C813 1.574 . S
C830 H824 0.949 . S
C830 C834 1.368 . S
C831 C812 1.429 . S
C831 C825 1.429 . S
C831 C832 1.523 . S
C832 C813 1.368 . S
C832 C826 1.368 . S
C832 C831 1.523 . S
C833 C817 1.429 . S
C833 C829 1.429 . S
C833 C834 1.523 . S
C834 C818 1.368 . S
C834 C830 1.368 . S
C834 C833 1.523 . S
H835 C810 0.950 . S
H836 C812 0.950 . S
H837 C813 0.949 . S
H838 C815 0.950 . S
H839 C817 0.950 . S
C840 C841 1.349 . S
C840 C842 1.327 . S
C840 H865 0.950 . S
C841 C840 1.349 . S
C841 C857 1.349 . S
C842 C840 1.327 . S
C842 C861 1.429 . S
C842 H866 0.950 . S
C843 C860 1.574 . S
C843 C862 1.368 . S
C843 H867 0.949 . S
H844 C848 0.949 . S
C845 C846 1.349 . S
C845 C847 1.327 . S
C845 H868 0.950 . S
C846 C845 1.349 . S
C846 C858 1.349 . S
C847 C845 1.327 . S
C847 C863 1.429 . S
C847 H869 0.950 . S
C848 H844 0.949 . S
C848 C856 1.574 . S
C848 C864 1.368 . S
H849 C857 0.950 . S
H850 C855 0.950 . S
H851 C856 0.949 . S
H852 C858 0.950 . S
H853 C859 0.950 . S
H854 C860 0.949 . S
C855 H850 0.950 . S
C855 C857 1.327 . S
C855 C861 1.429 . S
C856 C848 1.574 . S
C856 H851 0.949 . S
C856 C862 1.368 . S
C857 C841 1.349 . S
C857 H849 0.950 . S
C857 C855 1.327 . S
C858 C846 1.349 . S
C858 H852 0.950 . S
C858 C859 1.327 . S
C859 H853 0.950 . S
C859 C858 1.327 . S
C859 C863 1.429 . S
C860 C843 1.574 . S
C860 H854 0.949 . S
C860 C864 1.368 . S
C861 C842 1.429 . S
C861 C855 1.429 . S
C861 C862 1.523 . S
C862 C843 1.368 . S
C862 C856 1.368 . S
C862 C861 1.523 . S
C863 C847 1.429 . S
C863 C859 1.429 . S
C863 C864 1.523 . S
C864 C848 1.368 . S
C864 C860 1.368 . S
C864 C863 1.523 . S
H865 C840 0.950 . S
H866 C842 0.950 . S
H867 C843 0.949 . S
H868 C845 0.950 . S
H869 C847 0.950 . S
C870 C871 1.349 . S
C870 C872 1.327 . S
C870 H895 0.950 . S
C871 C870 1.349 . S
C871 C887 1.349 . S
C872 C870 1.327 . S
C872 C891 1.429 . S
C872 H896 0.950 . S
C873 C890 1.574 . S
C873 C892 1.368 . S
C873 H897 0.949 . S
H874 C878 0.949 . S
C875 C876 1.349 . S
C875 C877 1.327 . S
C875 H898 0.950 . S
C876 C875 1.349 . S
C876 C888 1.349 . S
C877 C875 1.327 . S
C877 C893 1.429 . S
C877 H899 0.950 . S
C878 H874 0.949 . S
C878 C886 1.574 . S
C878 C894 1.368 . S
H879 C887 0.950 . S
H880 C885 0.950 . S
H881 C886 0.949 . S
H882 C888 0.950 . S
H883 C889 0.950 . S
H884 C890 0.949 . S
C885 H880 0.950 . S
C885 C887 1.327 . S
C885 C891 1.429 . S
C886 C878 1.574 . S
C886 H881 0.949 . S
C886 C892 1.368 . S
C887 C871 1.349 . S
C887 H879 0.950 . S
C887 C885 1.327 . S
C888 C876 1.349 . S
C888 H882 0.950 . S
C888 C889 1.327 . S
C889 H883 0.950 . S
C889 C888 1.327 . S
C889 C893 1.429 . S
C890 C873 1.574 . S
C890 H884 0.949 . S
C890 C894 1.368 . S
C891 C872 1.429 . S
C891 C885 1.429 . S
C891 C892 1.523 . S
C892 C873 1.368 . S
C892 C886 1.368 . S
C892 C891 1.523 . S
C893 C877 1.429 . S
C893 C889 1.429 . S
C893 C894 1.523 . S
C894 C878 1.368 . S
C894 C890 1.368 . S
C894 C893 1.523 . S
H895 C870 0.950 . S
H896 C872 0.950 . S
H897 C873 0.949 . S
H898 C875 0.950 . S
H899 C877 0.950 . S
C900 C901 1.349 . S
C900 C902 1.327 . S
C900 H925 0.950 . S
C901 C900 1.349 . S
C901 C917 1.349 . S
C902 C900 1.327 . S
C902 C921 1.429 . S
C902 H926 0.950 . S
C903 C920 1.574 . S
C903 C922 1.368 . S
C903 H927 0.949 . S
H904 C908 0.949 . S
C905 C906 1.349 . S
C905 C907 1.327 . S
C905 H928 0.950 . S
C906 C905 1.349 . S
C906 C918 1.349 . S
C907 C905 1.327 . S
C907 C923 1.429 . S
C907 H929 0.950 . S
C908 H904 0.949 . S
C908 C916 1.574 . S
C908 C924 1.368 . S
H909 C917 0.950 . S
H910 C915 0.950 . S
H911 C916 0.949 . S
H912 C918 0.950 . S
H913 C919 0.950 . S
H914 C920 0.949 . S
C915 H910 0.950 . S
C915 C917 1.327 . S
C915 C921 1.429 . S
C916 C908 1.574 . S
C916 H911 0.949 . S
C916 C922 1.368 . S
C917 C901 1.349 . S
C917 H909 0.950 . S
C917 C915 1.327 . S
C918 C906 1.349 . S
C918 H912 0.950 . S
C918 C919 1.327 . S
C919 H913 0.950 . S
C919 C918 1.327 . S
C919 C923 1.429 . S
C920 C903 1.574 . S
C920 H914 0.949 . S
C920 C924 1.368 . S
C921 C902 1.429 . S
C921 C915 1.429 . S
C921 C922 1.523 . S
C922 C903 1.368 . S
C922 C916 1.368 . S
C922 C921 1.523 . S
C923 C907 1.429 . S
C923 C919 1.429 . S
C923 C924 1.523 . S
C924 C908 1.368 . S
C924 C920 1.368 . S
C924 C923 1.523 . S
H925 C900 0.950 . S
H926 C902 0.950 . S
H927 C903 0.949 . S
H928 C905 0.950 . S
H929 C907 0.950 . S
C930 C931 1.349 . S
C930 C932 1.327 . S
C930 H955 0.950 . S
C931 C930 1.349 . S
C931 C947 1.349 . S
C932 C930 1.327 . S
C932 C951 1.429 . S
C932 H956 0.950 . S
C933 C950 1.574 . S
C933 C952 1.368 . S
C933 H957 0.949 . S
H934 C938 0.949 . S
C935 C936 1.349 1_545 S
C935 C937 1.327 . S
C935 H958 0.950 . S
C936 C935 1.349 1_565 S
C936 C948 1.349 . S
C937 C935 1.327 . S
C937 C953 1.429 . S
C937 H959 0.950 . S
C938 H934 0.949 . S
C938 C946 1.574 . S
C938 C954 1.368 . S
H939 C947 0.950 . S
H940 C945 0.950 . S
H941 C946 0.949 . S
H942 C948 0.950 . S
H943 C949 0.950 . S
H944 C950 0.949 . S
C945 H940 0.950 . S
C945 C947 1.327 . S
C945 C951 1.429 . S
C946 C938 1.574 . S
C946 H941 0.949 . S
C946 C952 1.368 . S
C947 C931 1.349 . S
C947 H939 0.950 . S
C947 C945 1.327 . S
C948 C936 1.349 . S
C948 H942 0.950 . S
C948 C949 1.327 1_565 S
C949 H943 0.950 . S
C949 C948 1.327 1_545 S
C949 C953 1.429 . S
C950 C933 1.574 . S
C950 H944 0.949 . S
C950 C954 1.368 . S
C951 C932 1.429 . S
C951 C945 1.429 . S
C951 C952 1.523 . S
C952 C933 1.368 . S
C952 C946 1.368 . S
C952 C951 1.523 . S
C953 C937 1.429 . S
C953 C949 1.429 . S
C953 C954 1.523 . S
C954 C938 1.368 . S
C954 C950 1.368 . S
C954 C953 1.523 . S
H955 C930 0.950 . S
H956 C932 0.950 . S
H957 C933 0.949 . S
H958 C935 0.950 . S
H959 C937 0.950 . S
C960 C961 1.349 . S
C960 C962 1.327 . S
C960 H985 0.950 . S
C961 C960 1.349 . S
C961 C977 1.349 . S
C962 C960 1.327 . S
C962 C981 1.429 . S
C962 H986 0.950 . S
C963 C980 1.574 . S
C963 C982 1.368 . S
C963 H987 0.949 . S
H964 C968 0.949 . S
C965 C966 1.349 . S
C965 C967 1.327 . S
C965 H988 0.950 . S
C966 C965 1.349 . S
C966 C978 1.349 . S
C967 C965 1.327 . S
C967 C983 1.429 . S
C967 H989 0.950 . S
C968 H964 0.949 . S
C968 C976 1.574 . S
C968 C984 1.368 . S
H969 C977 0.950 . S
H970 C975 0.950 . S
H971 C976 0.949 . S
H972 C978 0.950 . S
H973 C979 0.950 . S
H974 C980 0.949 . S
C975 H970 0.950 . S
C975 C977 1.327 . S
C975 C981 1.429 . S
C976 C968 1.574 . S
C976 H971 0.949 . S
C976 C982 1.368 . S
C977 C961 1.349 . S
C977 H969 0.950 . S
C977 C975 1.327 . S
C978 C966 1.349 . S
C978 H972 0.950 . S
C978 C979 1.327 . S
C979 H973 0.950 . S
C979 C978 1.327 . S
C979 C983 1.429 . S
C980 C963 1.574 . S
C980 H974 0.949 . S
C980 C984 1.368 . S
C981 C962 1.429 . S
C981 C975 1.429 . S
C981 C982 1.523 . S
C982 C963 1.368 . S
C982 C976 1.368 . S
C982 C981 1.523 . S
C983 C967 1.429 . S
C983 C979 1.429 . S
C983 C984 1.523 . S
C984 C968 1.368 . S
C984 C980 1.368 . S
C984 C983 1.523 . S
H985 C960 0.950 . S
H986 C962 0.950 . S
H987 C963 0.949 . S
H988 C965 0.950 . S
H989 C967 0.950 . S
C990 C991 1.349 . S
C990 C992 1.327 . S
C990 H1015 0.950 . S
C991 C990 1.349 . S
C991 C1007 1.349 . S
C992 C990 1.327 . S
C992 C1011 1.429 . S
C992 H1016 0.950 . S
C993 C1010 1.574 . S
C993 C1012 1.368 . S
C993 H1017 0.949 . S
H994 C998 0.949 . S
C995 C996 1.349 . S
C995 C997 1.327 . S
C995 H1018 0.950 . S
C996 C995 1.349 . S
C996 C1008 1.349 . S
C997 C995 1.327 . S
C997 C1013 1.429 . S
C997 H1019 0.950 . S
C998 H994 0.949 . S
C998 C1006 1.574 . S
C998 C1014 1.368 . S
H999 C1007 0.950 . S
H1000 C1005 0.950 . S
H1001 C1006 0.949 . S
H1002 C1008 0.950 . S
H1003 C1009 0.950 . S
H1004 C1010 0.949 . S
C1005 H1000 0.950 . S
C1005 C1007 1.327 . S
C1005 C1011 1.429 . S
C1006 C998 1.574 . S
C1006 H1001 0.949 . S
C1006 C1012 1.368 . S
C1007 C991 1.349 . S
C1007 H999 0.950 . S
C1007 C1005 1.327 . S
C1008 C996 1.349 . S
C1008 H1002 0.950 . S
C1008 C1009 1.327 . S
C1009 H1003 0.950 . S
C1009 C1008 1.327 . S
C1009 C1013 1.429 . S
C1010 C993 1.574 . S
C1010 H1004 0.949 . S
C1010 C1014 1.368 . S
C1011 C992 1.429 . S
C1011 C1005 1.429 . S
C1011 C1012 1.523 . S
C1012 C993 1.368 . S
C1012 C1006 1.368 . S
C1012 C1011 1.523 . S
C1013 C997 1.429 . S
C1013 C1009 1.429 . S
C1013 C1014 1.523 . S
C1014 C998 1.368 . S
C1014 C1010 1.368 . S
C1014 C1013 1.523 . S
H1015 C990 0.950 . S
H1016 C992 0.950 . S
H1017 C993 0.949 . S
H1018 C995 0.950 . S
H1019 C997 0.950 . S
C1020 C1021 1.349 . S
C1020 C1022 1.327 1_565 S
C1020 H1045 0.950 . S
C1021 C1020 1.349 . S
C1021 C1037 1.349 . S
C1022 C1020 1.327 1_545 S
C1022 C1041 1.429 . S
C1022 H1046 0.950 . S
C1023 C1040 1.574 . S
C1023 C1042 1.368 . S
C1023 H1047 0.949 . S
H1024 C1028 0.949 . S
C1025 C1026 1.349 . S
C1025 C1027 1.327 . S
C1025 H1048 0.950 . S
C1026 C1025 1.349 . S
C1026 C1038 1.349 . S
C1027 C1025 1.327 . S
C1027 C1043 1.429 . S
C1027 H1049 0.950 . S
C1028 H1024 0.949 . S
C1028 C1036 1.574 . S
C1028 C1044 1.368 . S
H1029 C1037 0.950 . S
H1030 C1035 0.950 . S
H1031 C1036 0.949 . S
H1032 C1038 0.950 . S
H1033 C1039 0.950 . S
H1034 C1040 0.949 . S
C1035 H1030 0.950 . S
C1035 C1037 1.327 1_545 S
C1035 C1041 1.429 . S
C1036 C1028 1.574 . S
C1036 H1031 0.949 . S
C1036 C1042 1.368 . S
C1037 C1021 1.349 . S
C1037 H1029 0.950 . S
C1037 C1035 1.327 1_565 S
C1038 C1026 1.349 . S
C1038 H1032 0.950 . S
C1038 C1039 1.327 . S
C1039 H1033 0.950 . S
C1039 C1038 1.327 . S
C1039 C1043 1.429 . S
C1040 C1023 1.574 . S
C1040 H1034 0.949 . S
C1040 C1044 1.368 . S
C1041 C1022 1.429 . S
C1041 C1035 1.429 . S
C1041 C1042 1.523 . S
C1042 C1023 1.368 . S
C1042 C1036 1.368 . S
C1042 C1041 1.523 . S
C1043 C1027 1.429 . S
C1043 C1039 1.429 . S
C1043 C1044 1.523 . S
C1044 C1028 1.368 . S
C1044 C1040 1.368 . S
C1044 C1043 1.523 . S
H1045 C1020 0.950 . S
H1046 C1022 0.950 . S
H1047 C1023 0.949 . S
H1048 C1025 0.950 . S
H1049 C1027 0.950 . S
C1050 C1051 1.349 . S
C1050 C1052 1.327 . S
C1050 H1075 0.950 . S
C1051 C1050 1.349 . S
C1051 C1067 1.349 . S
C1052 C1050 1.327 . S
C1052 C1071 1.429 . S
C1052 H1076 0.950 . S
C1053 C1070 1.574 . S
C1053 C1072 1.368 . S
C1053 H1077 0.949 . S
H1054 C1058 0.949 . S
C1055 C1056 1.349 . S
C1055 C1057 1.327 . S
C1055 H1078 0.950 . S
C1056 C1055 1.349 . S
C1056 C1068 1.349 . S
C1057 C1055 1.327 . S
C1057 C1073 1.429 . S
C1057 H1079 0.950 . S
C1058 H1054 0.949 . S
C1058 C1066 1.574 . S
C1058 C1074 1.368 . S
H1059 C1067 0.950 . S
H1060 C1065 0.950 . S
H1061 C1066 0.949 . S
H1062 C1068 0.950 . S
H1063 C1069 0.950 . S
H1064 C1070 0.949 . S
C1065 H1060 0.950 . S
C1065 C1067 1.327 . S
C1065 C1071 1.429 . S
C1066 C1058 1.574 . S
C1066 H1061 0.949 . S
C1066 C1072 1.368 . S
C1067 C1051 1.349 . S
C1067 H1059 0.950 . S
C1067 C1065 1.327 . S
C1068 C1056 1.349 . S
C1068 H1062 0.950 . S
C1068 C1069 1.327 . S
C1069 H1063 0.950 . S
C1069 C1068 1.327 . S
C1069 C1073 1.429 . S
C1070 C1053 1.574 . S
C1070 H1064 0.949 . S
C1070 C1074 1.368 . S
C1071 C1052 1.429 . S
C1071 C1065 1.429 . S
C1071 C1072 1.523 . S
C1072 C1053 1.368 . S
C1072 C1066 1.368 . S
C1072 C1071 1.523 . S
C1073 C1057 1.429 . S
C1073 C1069 1.429 . S
C1073 C1074 1.523 . S
C1074 C1058 1.368 . S
C1074 C1070 1.368 . S
C1074 C1073 1.523 . S
H1075 C1050 0.950 . S
H1076 C1052 0.950 . S
H1077 C1053 0.949 . S
H1078 C1055 0.950 . S
H1079 C1057 0.950 . S
C271 C10 0.872 . S
C276 C1 0.872 . S
C301 C31 0.886 . S
C306 C40 0.886 . S
C331 C70 0.915 . S
C336 C61 0.905 . S
C361 C91 0.872 . S
C366 C100 0.872 . S
C391 C130 0.886 . S
C396 C121 0.886 . S
C421 C151 0.905 . S
C426 C160 0.905 . S
C451 C207 0.901 . S
C456 C196 0.901 . S
C481 C226 0.881 . S
C486 C237 0.881 . S
C511 C267 0.865 . S
C516 C256 0.865 . S
C541 N164 1.334 . S
C546 C27 1.386 . S
C571 N44 0.955 . S
C576 N104 0.954 . S
C601 C87 1.822 . S
C606 C147 1.842 . S
C631 N74 0.669 . S
C636 N186 0.657 . S
C661 C211 1.310 . S
C666 N14 1.233 . S
C691 N246 1.278 . S
C696 C57 1.290 . S
C721 C250 1.759 . S
C726 C16 1.725 1_556 S
C751 N36 0.825 . S
C756 C190 0.846 . S
C781 N224 0.997 . S
C786 C76 1.023 . S
C811 N66 1.334 . S
C816 C106 1.386 . S
C841 N126 0.955 . S
C846 N6 0.954 . S
C871 C46 1.842 . S
C876 C166 1.822 . S
C901 C241 1.759 . S
C906 C117 1.725 . S
C931 C181 0.846 . S
C936 N134 0.825 . S
C961 N216 0.997 . S
C966 C177 1.023 . S
C991 N194 0.657 . S
C996 N156 0.669 . S
C1021 N96 1.233 . S
C1026 C220 1.310 . S
C1051 N254 1.278 . S
C1056 C136 1.290 . S
