# Generated by pormake.
# Topology tzs, (4)-cn, num edge types: 1
# Building blocks:
#     Node 0, Type 0, BuildingBlock: GALJAG_clean_sbu_0, # of connection points: 4
#     Node 1, Type 0, BuildingBlock: GALJAG_clean_sbu_0, # of connection points: 4
#     Node 2, Type 0, BuildingBlock: GALJAG_clean_sbu_0, # of connection points: 4
#     Node 3, Type 0, BuildingBlock: GALJAG_clean_sbu_0, # of connection points: 4
#     Node 4, Type 0, BuildingBlock: GALJAG_clean_sbu_0, # of connection points: 4
#     Node 5, Type 0, BuildingBlock: GALJAG_clean_sbu_0, # of connection points: 4
#     Node 6, Type 0, BuildingBlock: GALJAG_clean_sbu_0, # of connection points: 4
#     Node 7, Type 0, BuildingBlock: GALJAG_clean_sbu_0, # of connection points: 4
#     Node 8, Type 0, BuildingBlock: GALJAG_clean_sbu_0, # of connection points: 4
#     Node 9, Type 0, BuildingBlock: GALJAG_clean_sbu_0, # of connection points: 4
#     Node 10, Type 0, BuildingBlock: GALJAG_clean_sbu_0, # of connection points: 4
#     Node 11, Type 0, BuildingBlock: GALJAG_clean_sbu_0, # of connection points: 4
#     Node 12, Type 0, BuildingBlock: GALJAG_clean_sbu_0, # of connection points: 4
#     Node 13, Type 0, BuildingBlock: GALJAG_clean_sbu_0, # of connection points: 4
#     Node 14, Type 0, BuildingBlock: GALJAG_clean_sbu_0, # of connection points: 4
#     Node 15, Type 0, BuildingBlock: GALJAG_clean_sbu_0, # of connection points: 4
#     Edge 16, Type (0, 0), BuildingBlock: MIFKUJ_clean_linker_0, # of connection points: 2
#     Edge 17, Type (0, 0), BuildingBlock: MIFKUJ_clean_linker_0, # of connection points: 2
#     Edge 18, Type (0, 0), BuildingBlock: MIFKUJ_clean_linker_0, # of connection points: 2
#     Edge 19, Type (0, 0), BuildingBlock: MIFKUJ_clean_linker_0, # of connection points: 2
#     Edge 20, Type (0, 0), BuildingBlock: MIFKUJ_clean_linker_0, # of connection points: 2
#     Edge 21, Type (0, 0), BuildingBlock: MIFKUJ_clean_linker_0, # of connection points: 2
#     Edge 22, Type (0, 0), BuildingBlock: MIFKUJ_clean_linker_0, # of connection points: 2
#     Edge 23, Type (0, 0), BuildingBlock: MIFKUJ_clean_linker_0, # of connection points: 2
#     Edge 24, Type (0, 0), BuildingBlock: MIFKUJ_clean_linker_0, # of connection points: 2
#     Edge 25, Type (0, 0), BuildingBlock: MIFKUJ_clean_linker_0, # of connection points: 2
#     Edge 26, Type (0, 0), BuildingBlock: MIFKUJ_clean_linker_0, # of connection points: 2
#     Edge 27, Type (0, 0), BuildingBlock: MIFKUJ_clean_linker_0, # of connection points: 2
#     Edge 28, Type (0, 0), BuildingBlock: MIFKUJ_clean_linker_0, # of connection points: 2
#     Edge 29, Type (0, 0), BuildingBlock: MIFKUJ_clean_linker_0, # of connection points: 2
#     Edge 30, Type (0, 0), BuildingBlock: MIFKUJ_clean_linker_0, # of connection points: 2
#     Edge 31, Type (0, 0), BuildingBlock: MIFKUJ_clean_linker_0, # of connection points: 2
#     Edge 32, Type (0, 0), BuildingBlock: MIFKUJ_clean_linker_0, # of connection points: 2
#     Edge 33, Type (0, 0), BuildingBlock: MIFKUJ_clean_linker_0, # of connection points: 2
#     Edge 34, Type (0, 0), BuildingBlock: MIFKUJ_clean_linker_0, # of connection points: 2
#     Edge 35, Type (0, 0), BuildingBlock: MIFKUJ_clean_linker_0, # of connection points: 2
#     Edge 36, Type (0, 0), BuildingBlock: MIFKUJ_clean_linker_0, # of connection points: 2
#     Edge 37, Type (0, 0), BuildingBlock: MIFKUJ_clean_linker_0, # of connection points: 2
#     Edge 38, Type (0, 0), BuildingBlock: MIFKUJ_clean_linker_0, # of connection points: 2
#     Edge 39, Type (0, 0), BuildingBlock: MIFKUJ_clean_linker_0, # of connection points: 2
#     Edge 40, Type (0, 0), BuildingBlock: MIFKUJ_clean_linker_0, # of connection points: 2
#     Edge 41, Type (0, 0), BuildingBlock: MIFKUJ_clean_linker_0, # of connection points: 2
#     Edge 42, Type (0, 0), BuildingBlock: MIFKUJ_clean_linker_0, # of connection points: 2
#     Edge 43, Type (0, 0), BuildingBlock: MIFKUJ_clean_linker_0, # of connection points: 2
#     Edge 44, Type (0, 0), BuildingBlock: MIFKUJ_clean_linker_0, # of connection points: 2
#     Edge 45, Type (0, 0), BuildingBlock: MIFKUJ_clean_linker_0, # of connection points: 2
#     Edge 46, Type (0, 0), BuildingBlock: MIFKUJ_clean_linker_0, # of connection points: 2
#     Edge 47, Type (0, 0), BuildingBlock: MIFKUJ_clean_linker_0, # of connection points: 2
# Relax obj value: 0.153
# Max RMSD: 0.154
# Mean RMSD: 0.154
data_MOF--net-tzs--node1-GALJAG_clean_sbu_0--edge1-MIFKUJ_clean_linker_0
_symmetry_space_group_name_H-M    P1
_symmetry_Int_Tables_number       1
_symmetry_cell_setting            triclinic
loop_
_symmetry_equiv_pos_as_xyz
'x, y, z'
_cell_length_a     63.410754
_cell_length_b     63.422053
_cell_length_c     52.270003
_cell_angle_alpha  90.007305
_cell_angle_beta   89.997781
_cell_angle_gamma 89.9918
loop_
_atom_site_label
_atom_site_type_symbol
_atom_site_fract_x
_atom_site_fract_y
_atom_site_fract_z
_atom_type_partial_charge
In0 In 0.14426 0.35333 0.18602 0.0
O1 O 0.17691 0.34494 0.20112 0.0
O2 O 0.15534 0.31987 0.1945 0.0
C3 C 0.15378 0.3923 0.20358 0.0
C4 C 0.14394 0.35241 0.13445 0.0
C5 C 0.10528 0.34329 0.20315 0.0
O6 O 0.14297 0.37927 0.21616 0.0
O7 O 0.15994 0.38568 0.18211 0.0
O8 O 0.10888 0.34839 0.18027 0.0
O9 O 0.12136 0.34294 0.2173 0.0
C10 C 0.17348 0.32535 0.20186 0.0
O11 O 0.13369 0.36583 0.14722 0.0
O12 O 0.15437 0.33944 0.1477 0.0
In13 In 0.64358 0.14577 0.18909 0.0
O14 O 0.63652 0.13118 0.15018 0.0
O15 O 0.65103 0.16138 0.1508 0.0
C16 C 0.65269 0.10761 0.2094 0.0
C17 C 0.67327 0.17351 0.20435 0.0
C18 C 0.60402 0.15544 0.20451 0.0
O19 O 0.65884 0.11311 0.18746 0.0
O20 O 0.6422 0.12141 0.22117 0.0
O21 O 0.61995 0.15774 0.21864 0.0
O22 O 0.60802 0.14841 0.18249 0.0
C23 C 0.6439 0.1464 0.13748 0.0
O24 O 0.65457 0.17887 0.19931 0.0
O25 O 0.67709 0.15412 0.20152 0.0
In26 In 0.85412 0.64502 0.18556 0.0
O27 O 0.86407 0.66034 0.14795 0.0
O28 O 0.83879 0.6384 0.14695 0.0
C29 C 0.89418 0.65064 0.20142 0.0
C30 C 0.82502 0.67313 0.20164 0.0
C31 C 0.84845 0.60564 0.20403 0.0
O32 O 0.88966 0.64113 0.18093 0.0
O33 O 0.87851 0.65736 0.21385 0.0
O34 O 0.84788 0.62179 0.21808 0.0
O35 O 0.85166 0.60936 0.18066 0.0
C36 C 0.85052 0.6508 0.1346 0.0
O37 O 0.82046 0.6543 0.19627 0.0
O38 O 0.84423 0.67773 0.19903 0.0
In39 In 0.35286 0.85459 0.18924 0.0
O40 O 0.33694 0.86189 0.15111 0.0
O41 O 0.36189 0.83963 0.15104 0.0
C42 C 0.34568 0.89364 0.20754 0.0
C43 C 0.32417 0.82641 0.20594 0.0
C44 C 0.39301 0.8503 0.20575 0.0
O45 O 0.3518 0.8902 0.18497 0.0
O46 O 0.34308 0.87733 0.22101 0.0
O47 O 0.37784 0.84058 0.21595 0.0
O48 O 0.38794 0.86199 0.18726 0.0
C49 C 0.3483 0.84955 0.1382 0.0
O50 O 0.34275 0.82126 0.19998 0.0
O51 O 0.3201 0.84578 0.20356 0.0
In52 In 0.14644 0.64363 0.30941 0.0
O53 O 0.13418 0.63397 0.34866 0.0
O54 O 0.16145 0.65338 0.34734 0.0
C55 C 0.10764 0.65207 0.29037 0.0
C56 C 0.17388 0.67314 0.29311 0.0
C57 C 0.15682 0.60433 0.2939 0.0
O58 O 0.11371 0.65876 0.31184 0.0
O59 O 0.1212 0.64143 0.2784 0.0
O60 O 0.15903 0.62031 0.27982 0.0
O61 O 0.14961 0.60819 0.31588 0.0
C62 C 0.14824 0.64369 0.36101 0.0
O63 O 0.17927 0.65437 0.2977 0.0
O64 O 0.15462 0.67711 0.29688 0.0
In65 In 0.35289 0.14647 0.31142 0.0
O66 O 0.36652 0.13663 0.34989 0.0
O67 O 0.33812 0.15454 0.34994 0.0
C68 C 0.34505 0.10657 0.29561 0.0
C69 C 0.32507 0.17524 0.29375 0.0
C70 C 0.39162 0.15774 0.29481 0.0
O71 O 0.33746 0.11398 0.31598 0.0
O72 O 0.35644 0.11924 0.28327 0.0
O73 O 0.37687 0.15268 0.27984 0.0
O74 O 0.38675 0.15748 0.3182 0.0
C75 C 0.35212 0.14525 0.36291 0.0
O76 O 0.3423 0.18034 0.30404 0.0
O77 O 0.32183 0.15567 0.29247 0.0
In78 In 0.85341 0.35234 0.31257 0.0
O79 O 0.86039 0.33776 0.35146 0.0
O80 O 0.83628 0.36098 0.3495 0.0
C81 C 0.89317 0.34544 0.29615 0.0
C82 C 0.82538 0.32368 0.29507 0.0
C83 C 0.84965 0.39276 0.29698 0.0
O84 O 0.88876 0.34879 0.31932 0.0
O85 O 0.87753 0.34553 0.28126 0.0
O86 O 0.84453 0.37733 0.28308 0.0
O87 O 0.85658 0.38782 0.31879 0.0
C88 C 0.84672 0.34843 0.3633 0.0
O89 O 0.82062 0.34272 0.29884 0.0
O90 O 0.84426 0.31909 0.30011 0.0
In91 In 0.64716 0.85417 0.30901 0.0
O92 O 0.63252 0.85842 0.34849 0.0
O93 O 0.66298 0.84467 0.3466 0.0
C94 C 0.65752 0.89423 0.29688 0.0
C95 C 0.67415 0.82569 0.28901 0.0
C96 C 0.60811 0.84774 0.28992 0.0
O97 O 0.65108 0.88898 0.31878 0.0
O98 O 0.65903 0.87923 0.28115 0.0
O99 O 0.61578 0.83637 0.30741 0.0
O100 O 0.62027 0.86196 0.2818 0.0
C101 C 0.64793 0.85075 0.36053 0.0
O102 O 0.65453 0.82254 0.29006 0.0
O103 O 0.68009 0.84316 0.29799 0.0
In104 In 0.8517 0.64692 0.80995 0.0
O105 O 0.83618 0.63978 0.8484 0.0
O106 O 0.86024 0.66308 0.84744 0.0
C107 C 0.84715 0.60611 0.79621 0.0
C108 C 0.82315 0.6751 0.79245 0.0
C109 C 0.89106 0.65275 0.79148 0.0
O110 O 0.85545 0.61162 0.8171 0.0
O111 O 0.84098 0.62117 0.78236 0.0
O112 O 0.875 0.65235 0.77725 0.0
O113 O 0.88725 0.65034 0.81497 0.0
C114 C 0.84715 0.65289 0.86075 0.0
O115 O 0.84239 0.67953 0.79523 0.0
O116 O 0.81831 0.65648 0.79843 0.0
In117 In 0.35444 0.8487 0.813 0.0
O118 O 0.32888 0.83879 0.78465 0.0
O119 O 0.34104 0.81538 0.80956 0.0
C120 C 0.349 0.88964 0.80051 0.0
C121 C 0.34816 0.84578 0.86407 0.0
C122 C 0.39366 0.84112 0.79506 0.0
O123 O 0.33409 0.87647 0.80005 0.0
O124 O 0.36649 0.88222 0.80766 0.0
O125 O 0.38989 0.84564 0.81808 0.0
O126 O 0.37756 0.84028 0.78088 0.0
C127 C 0.32828 0.81986 0.7919 0.0
O128 O 0.36061 0.83396 0.85197 0.0
O129 O 0.33861 0.85908 0.8504 0.0
In130 In 0.14921 0.35319 0.80834 0.0
O131 O 0.13431 0.36224 0.84645 0.0
O132 O 0.15923 0.33983 0.847 0.0
C133 C 0.16111 0.39287 0.79592 0.0
C134 C 0.17825 0.32482 0.79296 0.0
C135 C 0.11102 0.34556 0.78721 0.0
O136 O 0.15403 0.38799 0.81763 0.0
O137 O 0.16261 0.37765 0.78052 0.0
O138 O 0.1245 0.35752 0.77708 0.0
O139 O 0.1169 0.33709 0.80783 0.0
C140 C 0.14601 0.35041 0.85968 0.0
O141 O 0.15886 0.32279 0.78811 0.0
O142 O 0.18298 0.34117 0.80546 0.0
In143 In 0.64241 0.14944 0.811 0.0
O144 O 0.67418 0.15674 0.79231 0.0
O145 O 0.65469 0.18252 0.80288 0.0
C146 C 0.64853 0.11054 0.7912 0.0
C147 C 0.64464 0.14804 0.86259 0.0
C148 C 0.60325 0.162 0.79745 0.0
O149 O 0.65965 0.11775 0.80921 0.0
O150 O 0.6346 0.12303 0.78304 0.0
O151 O 0.60783 0.15624 0.81985 0.0
O152 O 0.61847 0.16164 0.78192 0.0
C153 C 0.67182 0.17647 0.7931 0.0
O154 O 0.63574 0.1339 0.84951 0.0
O155 O 0.6525 0.16286 0.84965 0.0
In156 In 0.85572 0.35287 0.68778 0.0
O157 O 0.83793 0.36061 0.65104 0.0
O158 O 0.864 0.33969 0.64848 0.0
C159 C 0.85088 0.39219 0.70674 0.0
C160 C 0.8274 0.32455 0.70557 0.0
C161 C 0.89654 0.34695 0.7005 0.0
O162 O 0.84993 0.38816 0.68314 0.0
O163 O 0.85411 0.37637 0.72083 0.0
O164 O 0.88155 0.33918 0.71326 0.0
O165 O 0.89094 0.35758 0.68126 0.0
C166 C 0.8494 0.34926 0.63693 0.0
O167 O 0.8446 0.31921 0.6954 0.0
O168 O 0.82452 0.34418 0.70695 0.0
In169 In 0.64439 0.85635 0.68658 0.0
O170 O 0.6775 0.84613 0.69794 0.0
O171 O 0.65308 0.82317 0.69967 0.0
C172 C 0.65034 0.89681 0.70163 0.0
C173 C 0.64758 0.85559 0.635 0.0
C174 C 0.60644 0.84471 0.70532 0.0
O175 O 0.65761 0.88135 0.71394 0.0
O176 O 0.64032 0.89188 0.68173 0.0
O177 O 0.61225 0.84066 0.6828 0.0
O178 O 0.61997 0.85425 0.71871 0.0
C179 C 0.67236 0.82736 0.70298 0.0
O180 O 0.63125 0.86167 0.64657 0.0
O181 O 0.66252 0.85004 0.64942 0.0
In182 In 0.14424 0.64383 0.68721 0.0
O183 O 0.13639 0.62987 0.64819 0.0
O184 O 0.15571 0.65725 0.6492 0.0
C185 C 0.15341 0.60547 0.7069 0.0
C186 C 0.17316 0.67199 0.70344 0.0
C187 C 0.10423 0.65367 0.70098 0.0
O188 O 0.15954 0.6112 0.68504 0.0
O189 O 0.14279 0.61909 0.71883 0.0
O190 O 0.11963 0.65539 0.71605 0.0
O191 O 0.10904 0.64737 0.67889 0.0
C192 C 0.14665 0.64346 0.6357 0.0
O193 O 0.15568 0.67748 0.69401 0.0
O194 O 0.17602 0.65233 0.70468 0.0
In195 In 0.35505 0.14107 0.68915 0.0
O196 O 0.36983 0.13836 0.64955 0.0
O197 O 0.33652 0.14059 0.6515 0.0
C198 C 0.39428 0.15386 0.70173 0.0
C199 C 0.32836 0.17023 0.70812 0.0
C200 C 0.34788 0.10247 0.70954 0.0
O201 O 0.39061 0.13711 0.68952 0.0
O202 O 0.37811 0.16452 0.70732 0.0
O203 O 0.33683 0.10977 0.69155 0.0
O204 O 0.36207 0.11471 0.7174 0.0
C205 C 0.35264 0.13903 0.63753 0.0
O206 O 0.33813 0.17268 0.6873 0.0
O207 O 0.33218 0.15311 0.71954 0.0
H208 H 0.28694 0.16774 0.27146 0.0
H209 H 0.26179 0.19371 0.25523 0.0
H210 H 0.30383 0.244 0.27737 0.0
H211 H 0.32894 0.21809 0.29399 0.0
H212 H 0.2639 0.25251 0.29108 0.0
H213 H 0.2993 0.22961 0.2151 0.0
H214 H 0.31294 0.20386 0.18387 0.0
H215 H 0.24997 0.18207 0.16923 0.0
H216 H 0.23598 0.20751 0.20066 0.0
H217 H 0.21255 0.33375 0.22115 0.0
H218 H 0.23875 0.30836 0.23637 0.0
H219 H 0.19661 0.25717 0.2179 0.0
H220 H 0.17036 0.28247 0.20251 0.0
H221 H 0.23714 0.24962 0.20193 0.0
H222 H 0.202 0.27234 0.27863 0.0
H223 H 0.18859 0.29834 0.30971 0.0
H224 H 0.25157 0.32081 0.32266 0.0
H225 H 0.26533 0.29512 0.29136 0.0
C226 C 0.29083 0.18433 0.27285 0.0
C227 C 0.30991 0.19091 0.28393 0.0
C228 C 0.27649 0.19914 0.26347 0.0
C229 C 0.28106 0.22077 0.26482 0.0
C230 C 0.30003 0.22738 0.2761 0.0
C231 C 0.31436 0.21257 0.28552 0.0
C232 C 0.2659 0.23649 0.2548 0.0
C233 C 0.25829 0.25207 0.27148 0.0
C234 C 0.25826 0.23563 0.22938 0.0
C235 C 0.26662 0.22033 0.21043 0.0
C236 C 0.28838 0.21921 0.20538 0.0
C237 C 0.29617 0.20469 0.18761 0.0
C238 C 0.28233 0.1913 0.17462 0.0
C239 C 0.26067 0.19244 0.17933 0.0
C240 C 0.2528 0.20692 0.19711 0.0
C241 C 0.20888 0.31708 0.22031 0.0
C242 C 0.1894 0.31007 0.21074 0.0
C243 C 0.22383 0.30262 0.22908 0.0
C244 C 0.21952 0.28092 0.22846 0.0
C245 C 0.20021 0.27386 0.21855 0.0
C246 C 0.18522 0.28832 0.20985 0.0
C247 C 0.23513 0.26556 0.23823 0.0
C248 C 0.24281 0.25006 0.22151 0.0
C249 C 0.24288 0.26654 0.26358 0.0
C250 C 0.23466 0.28196 0.28246 0.0
C251 C 0.21297 0.28295 0.28794 0.0
C252 C 0.20531 0.2976 0.30563 0.0
C253 C 0.21922 0.31126 0.3181 0.0
C254 C 0.24082 0.31024 0.31295 0.0
C255 C 0.24855 0.29563 0.29526 0.0
H256 H 0.21326 0.32259 0.33179 0.0
H257 H 0.2884 0.18007 0.16087 0.0
H258 H 0.78412 0.33015 0.28267 0.0
H259 H 0.75873 0.3041 0.26716 0.0
H260 H 0.80658 0.25581 0.27077 0.0
H261 H 0.83215 0.28187 0.28596 0.0
H262 H 0.78435 0.25339 0.22686 0.0
H263 H 0.76886 0.25869 0.31634 0.0
H264 H 0.76044 0.27695 0.35671 0.0
H265 H 0.7031 0.30068 0.32383 0.0
H266 H 0.71133 0.28279 0.28311 0.0
H267 H 0.71454 0.16578 0.21597 0.0
H268 H 0.74086 0.19109 0.23114 0.0
H269 H 0.69454 0.24085 0.22754 0.0
H270 H 0.66812 0.2156 0.21263 0.0
H271 H 0.71644 0.24189 0.27192 0.0
H272 H 0.73232 0.23678 0.1822 0.0
H273 H 0.74087 0.21838 0.14195 0.0
H274 H 0.79761 0.19397 0.1756 0.0
H275 H 0.78925 0.21201 0.21619 0.0
C276 C 0.78922 0.31398 0.28016 0.0
C277 C 0.81008 0.308 0.2856 0.0
C278 C 0.77469 0.2991 0.27139 0.0
C279 C 0.78072 0.27797 0.2681 0.0
C280 C 0.80161 0.27203 0.27322 0.0
C281 C 0.81617 0.28691 0.28196 0.0
C282 C 0.76522 0.2621 0.25924 0.0
C283 C 0.76963 0.25065 0.2369 0.0
C284 C 0.74585 0.25885 0.2721 0.0
C285 C 0.74081 0.26956 0.2966 0.0
C286 C 0.75453 0.26793 0.31765 0.0
C287 C 0.74979 0.2782 0.34061 0.0
C288 C 0.73128 0.29001 0.34282 0.0
C289 C 0.71745 0.29155 0.32208 0.0
C290 C 0.72214 0.28133 0.29907 0.0
C291 C 0.71 0.18212 0.21835 0.0
C292 C 0.68931 0.18874 0.21308 0.0
C293 C 0.72506 0.19657 0.22694 0.0
C294 C 0.71968 0.21787 0.23026 0.0
C295 C 0.699 0.22448 0.2251 0.0
C296 C 0.68395 0.21006 0.21651 0.0
C297 C 0.73552 0.23327 0.23946 0.0
C298 C 0.73118 0.24461 0.2619 0.0
C299 C 0.75496 0.23638 0.22672 0.0
C300 C 0.76005 0.22557 0.20231 0.0
C301 C 0.74653 0.22735 0.18108 0.0
C302 C 0.75136 0.21701 0.1582 0.0
C303 C 0.76974 0.20496 0.15624 0.0
C304 C 0.78336 0.20328 0.17716 0.0
C305 C 0.7786 0.21357 0.2001 0.0
H306 H 0.77345 0.19697 0.13851 0.0
H307 H 0.72763 0.29795 0.36061 0.0
H308 H 0.78226 0.66838 0.20287 0.0
H309 H 0.75602 0.69431 0.21679 0.0
H310 H 0.80574 0.73861 0.23364 0.0
H311 H 0.83204 0.71281 0.21968 0.0
H312 H 0.7761 0.73539 0.2725 0.0
H313 H 0.7778 0.7453 0.18143 0.0
H314 H 0.77595 0.73403 0.13635 0.0
H315 H 0.71238 0.71266 0.1476 0.0
H316 H 0.71396 0.72351 0.19291 0.0
H317 H 0.71694 0.82875 0.2867 0.0
H318 H 0.74185 0.80237 0.27095 0.0
H319 H 0.69018 0.76084 0.25242 0.0
H320 H 0.66509 0.7873 0.26798 0.0
H321 H 0.72006 0.76183 0.21448 0.0
H322 H 0.71807 0.75209 0.30525 0.0
H323 H 0.71983 0.76301 0.35047 0.0
H324 H 0.78378 0.78351 0.33998 0.0
H325 H 0.7823 0.773 0.29456 0.0
C326 C 0.78758 0.68365 0.20955 0.0
C327 C 0.80917 0.68862 0.21018 0.0
C328 C 0.77259 0.69844 0.21739 0.0
C329 C 0.77898 0.71839 0.22607 0.0
C330 C 0.80053 0.72329 0.22698 0.0
C331 C 0.81551 0.70858 0.21894 0.0
C332 C 0.76319 0.73411 0.23443 0.0
C333 C 0.764 0.74138 0.25975 0.0
C334 C 0.74711 0.74145 0.21791 0.0
C335 C 0.74608 0.73501 0.19064 0.0
C336 C 0.76348 0.73803 0.17436 0.0
C337 C 0.76248 0.73174 0.14875 0.0
C338 C 0.74408 0.72257 0.13913 0.0
C339 C 0.72663 0.71973 0.15509 0.0
C340 C 0.72757 0.72596 0.18074 0.0
C341 C 0.71087 0.81403 0.2792 0.0
C342 C 0.68909 0.81001 0.2787 0.0
C343 C 0.72512 0.79896 0.27028 0.0
C344 C 0.71786 0.77957 0.26082 0.0
C345 C 0.69609 0.7757 0.25971 0.0
C346 C 0.6818 0.79078 0.26867 0.0
C347 C 0.73306 0.76323 0.25252 0.0
C348 C 0.73213 0.75581 0.22725 0.0
C349 C 0.74902 0.75569 0.2691 0.0
C350 C 0.75 0.76194 0.29643 0.0
C351 C 0.73245 0.75909 0.31253 0.0
C352 C 0.73341 0.76517 0.33821 0.0
C353 C 0.75188 0.774 0.34808 0.0
C354 C 0.76946 0.7767 0.3323 0.0
C355 C 0.76858 0.77066 0.30659 0.0
H356 H 0.75259 0.77869 0.36796 0.0
H357 H 0.74333 0.71772 0.1193 0.0
H358 H 0.32906 0.78391 0.21117 0.0
H359 H 0.30277 0.75834 0.22563 0.0
H360 H 0.25738 0.80843 0.23509 0.0
H361 H 0.28368 0.83413 0.22088 0.0
H362 H 0.25722 0.78176 0.27553 0.0
H363 H 0.25408 0.77613 0.18439 0.0
H364 H 0.26819 0.77151 0.14079 0.0
H365 H 0.29094 0.70991 0.16075 0.0
H366 H 0.27724 0.71428 0.20462 0.0
H367 H 0.16695 0.71527 0.28636 0.0
H368 H 0.19218 0.74177 0.2714 0.0
H369 H 0.24 0.69372 0.26437 0.0
H370 H 0.21488 0.66715 0.27931 0.0
H371 H 0.23806 0.71992 0.22217 0.0
H372 H 0.24152 0.72622 0.31379 0.0
H373 H 0.22703 0.73111 0.35716 0.0
H374 H 0.203 0.7919 0.33573 0.0
H375 H 0.21709 0.78723 0.29209 0.0
C376 C 0.31348 0.78947 0.21634 0.0
C377 C 0.30838 0.81099 0.21484 0.0
C378 C 0.29846 0.77485 0.22449 0.0
C379 C 0.27807 0.78148 0.23116 0.0
C380 C 0.27302 0.803 0.22999 0.0
C381 C 0.28804 0.81763 0.22181 0.0
C382 C 0.26205 0.76595 0.23951 0.0
C383 C 0.25279 0.7684 0.26371 0.0
C384 C 0.25659 0.74834 0.22426 0.0
C385 C 0.26482 0.74563 0.19787 0.0
C386 C 0.26225 0.76167 0.17955 0.0
C387 C 0.27014 0.75908 0.15478 0.0
C388 C 0.2805 0.74045 0.14803 0.0
C389 C 0.28294 0.72434 0.16602 0.0
C390 C 0.2751 0.72686 0.19084 0.0
C391 C 0.18284 0.71037 0.28163 0.0
C392 C 0.18899 0.68918 0.28406 0.0
C393 C 0.19723 0.72551 0.27317 0.0
C394 C 0.21797 0.71969 0.26696 0.0
C395 C 0.22406 0.69851 0.26908 0.0
C396 C 0.20973 0.68338 0.27769 0.0
C397 C 0.23335 0.73569 0.25821 0.0
C398 C 0.24247 0.73332 0.23394 0.0
C399 C 0.2386 0.75341 0.27335 0.0
C400 C 0.23016 0.75627 0.29959 0.0
C401 C 0.23298 0.74055 0.31825 0.0
C402 C 0.22487 0.7433 0.3429 0.0
C403 C 0.21405 0.76178 0.34918 0.0
C404 C 0.21136 0.77757 0.33083 0.0
C405 C 0.21941 0.77489 0.30614 0.0
H406 H 0.20779 0.76388 0.36827 0.0
H407 H 0.2866 0.73848 0.12883 0.0
H408 H 0.66497 0.78613 0.71498 0.0
H409 H 0.69052 0.75999 0.72998 0.0
H410 H 0.73988 0.80672 0.7265 0.0
H411 H 0.71447 0.83285 0.71118 0.0
H412 H 0.75253 0.76973 0.70616 0.0
H413 H 0.7184 0.79262 0.7834 0.0
H414 H 0.6881 0.79997 0.8116 0.0
H415 H 0.67011 0.73474 0.8089 0.0
H416 H 0.70015 0.72705 0.78038 0.0
H417 H 0.82994 0.71617 0.77931 0.0
H418 H 0.80402 0.74168 0.76376 0.0
H419 H 0.75531 0.69434 0.76842 0.0
H420 H 0.78111 0.66882 0.78436 0.0
H421 H 0.74206 0.73125 0.78783 0.0
H422 H 0.77635 0.70823 0.71099 0.0
H423 H 0.80659 0.70082 0.68273 0.0
H424 H 0.82421 0.76618 0.68455 0.0
H425 H 0.79422 0.77393 0.71313 0.0
C426 C 0.68126 0.79082 0.71742 0.0
C427 C 0.68773 0.81153 0.71199 0.0
C428 C 0.69582 0.77591 0.72607 0.0
C429 C 0.71705 0.78149 0.72961 0.0
C430 C 0.72357 0.8021 0.72392 0.0
C431 C 0.70903 0.81702 0.71525 0.0
C432 C 0.73251 0.76581 0.73911 0.0
C433 C 0.75039 0.76151 0.72418 0.0
C434 C 0.72943 0.75473 0.76231 0.0
C435 C 0.7114 0.7593 0.77955 0.0
C436 C 0.70789 0.77987 0.78865 0.0
C437 C 0.69078 0.7841 0.80472 0.0
C438 C 0.67716 0.76785 0.81198 0.0
C439 C 0.68066 0.74732 0.80323 0.0
C440 C 0.69773 0.74301 0.78713 0.0
C441 C 0.81371 0.7112 0.77699 0.0
C442 C 0.80755 0.6905 0.78296 0.0
C443 C 0.79894 0.72576 0.76801 0.0
C444 C 0.77779 0.71983 0.76465 0.0
C445 C 0.77156 0.69922 0.77084 0.0
C446 C 0.78632 0.68466 0.77987 0.0
C447 C 0.76211 0.73521 0.75492 0.0
C448 C 0.74419 0.73945 0.7698 0.0
C449 C 0.76515 0.74622 0.73166 0.0
C450 C 0.78315 0.74162 0.7144 0.0
C451 C 0.78677 0.721 0.70552 0.0
C452 C 0.80385 0.71674 0.68942 0.0
C453 C 0.81735 0.73301 0.6819 0.0
C454 C 0.81376 0.75358 0.69042 0.0
C455 C 0.79671 0.75792 0.70655 0.0
H456 H 0.83056 0.72968 0.66943 0.0
H457 H 0.66392 0.77115 0.82443 0.0
H458 H 0.20919 0.66388 0.73007 0.0
H459 H 0.23573 0.68927 0.74443 0.0
H460 H 0.19995 0.73992 0.71055 0.0
H461 H 0.17322 0.71461 0.69623 0.0
H462 H 0.24351 0.74123 0.69926 0.0
H463 H 0.1978 0.73453 0.77223 0.0
H464 H 0.17818 0.71521 0.80552 0.0
H465 H 0.23615 0.68967 0.83457 0.0
H466 H 0.2561 0.70861 0.80119 0.0
H467 H 0.29631 0.82715 0.75816 0.0
H468 H 0.27041 0.80183 0.7422 0.0
H469 H 0.30071 0.75229 0.78527 0.0
H470 H 0.32631 0.7777 0.80185 0.0
H471 H 0.25974 0.75027 0.79147 0.0
H472 H 0.30579 0.7564 0.71931 0.0
H473 H 0.326 0.7748 0.68577 0.0
H474 H 0.26865 0.80017 0.65479 0.0
H475 H 0.2481 0.78215 0.68838 0.0
C476 C 0.20697 0.68043 0.72569 0.0
C477 C 0.18913 0.68731 0.71211 0.0
C478 C 0.2221 0.6949 0.73395 0.0
C479 C 0.2197 0.71645 0.72865 0.0
C480 C 0.20204 0.72334 0.71481 0.0
C481 C 0.18678 0.70889 0.70675 0.0
C482 C 0.23563 0.73178 0.73763 0.0
C483 C 0.24691 0.74345 0.71942 0.0
C484 C 0.24037 0.73418 0.7639 0.0
C485 C 0.22842 0.72282 0.78404 0.0
C486 C 0.20635 0.72465 0.78557 0.0
C487 C 0.19517 0.71379 0.80449 0.0
C488 C 0.2059 0.70117 0.82211 0.0
C489 C 0.22785 0.69943 0.82088 0.0
C490 C 0.2391 0.71023 0.80198 0.0
C491 C 0.29752 0.81083 0.76409 0.0
C492 C 0.31333 0.80437 0.78121 0.0
C493 C 0.28277 0.79635 0.75487 0.0
C494 C 0.28375 0.7751 0.7623 0.0
C495 C 0.29965 0.76861 0.77927 0.0
C496 C 0.3143 0.78311 0.78866 0.0
C497 C 0.26779 0.75977 0.75309 0.0
C498 C 0.25644 0.74808 0.77128 0.0
C499 C 0.26312 0.75725 0.72677 0.0
C500 C 0.27543 0.76809 0.70652 0.0
C501 C 0.2975 0.76604 0.70547 0.0
C502 C 0.30901 0.77638 0.68643 0.0
C503 C 0.29862 0.78869 0.6682 0.0
C504 C 0.27668 0.79065 0.66894 0.0
C505 C 0.26509 0.78036 0.68797 0.0
H506 H 0.30756 0.79668 0.65346 0.0
H507 H 0.19722 0.69279 0.83675 0.0
H508 H 0.17322 0.29225 0.75945 0.0
H509 H 0.19954 0.26608 0.74672 0.0
H510 H 0.24514 0.29533 0.79675 0.0
H511 H 0.2191 0.32198 0.80876 0.0
H512 H 0.26346 0.28572 0.75448 0.0
H513 H 0.21918 0.2484 0.8127 0.0
H514 H 0.18574 0.23501 0.83047 0.0
H515 H 0.17418 0.20045 0.76123 0.0
H516 H 0.20743 0.21386 0.74291 0.0
H517 H 0.30908 0.17068 0.75482 0.0
H518 H 0.28468 0.19725 0.77149 0.0
H519 H 0.28931 0.23175 0.70054 0.0
H520 H 0.31416 0.20561 0.68412 0.0
H521 H 0.24725 0.20922 0.75735 0.0
H522 H 0.28426 0.28382 0.71072 0.0
H523 H 0.31935 0.29696 0.69803 0.0
H524 H 0.34856 0.25652 0.75357 0.0
H525 H 0.31365 0.24335 0.76683 0.0
C526 C 0.18887 0.29309 0.76769 0.0
C527 C 0.19412 0.30909 0.78513 0.0
C528 C 0.20387 0.27807 0.76053 0.0
C529 C 0.22424 0.27851 0.77109 0.0
C530 C 0.22953 0.29464 0.78835 0.0
C531 C 0.21463 0.30983 0.79524 0.0
C532 C 0.24009 0.26232 0.76396 0.0
C533 C 0.25991 0.269 0.75515 0.0
C534 C 0.23568 0.24045 0.76537 0.0
C535 C 0.21571 0.23228 0.77636 0.0
C536 C 0.20944 0.23806 0.8012 0.0
C537 C 0.19053 0.23045 0.81138 0.0
C538 C 0.17782 0.21692 0.79697 0.0
C539 C 0.18403 0.21094 0.77236 0.0
C540 C 0.20292 0.21852 0.76208 0.0
C541 C 0.30496 0.18399 0.74284 0.0
C542 C 0.31359 0.18616 0.71823 0.0
C543 C 0.29097 0.19912 0.75235 0.0
C544 C 0.28535 0.21663 0.73739 0.0
C545 C 0.29375 0.21862 0.71265 0.0
C546 C 0.30787 0.20362 0.70323 0.0
C547 C 0.27046 0.23266 0.74747 0.0
C548 C 0.25081 0.22595 0.75677 0.0
C549 C 0.27526 0.25446 0.74725 0.0
C550 C 0.29633 0.26246 0.73959 0.0
C551 C 0.29817 0.2778 0.72029 0.0
C552 C 0.31803 0.28524 0.71299 0.0
C553 C 0.33618 0.27754 0.72493 0.0
C554 C 0.3345 0.26242 0.74426 0.0
C555 C 0.31468 0.25494 0.75166 0.0
H556 H 0.35153 0.28331 0.71923 0.0
H557 H 0.16318 0.21105 0.80488 0.0
H558 H 0.70901 0.16717 0.76928 0.0
H559 H 0.73567 0.192 0.75382 0.0
H560 H 0.69771 0.24408 0.78033 0.0
H561 H 0.67084 0.21938 0.79536 0.0
H562 H 0.71301 0.25177 0.73367 0.0
H563 H 0.74105 0.22723 0.8139 0.0
H564 H 0.75262 0.20045 0.84508 0.0
H565 H 0.79916 0.17801 0.79197 0.0
H566 H 0.78767 0.20449 0.76032 0.0
H567 H 0.78997 0.33249 0.72944 0.0
H568 H 0.76379 0.3068 0.74388 0.0
H569 H 0.8031 0.25608 0.71642 0.0
H570 H 0.82953 0.28168 0.70234 0.0
H571 H 0.78737 0.24714 0.76269 0.0
H572 H 0.75985 0.27201 0.68274 0.0
H573 H 0.7483 0.29872 0.65145 0.0
H574 H 0.70082 0.32039 0.70379 0.0
H575 H 0.71228 0.29399 0.73556 0.0
C576 C 0.70636 0.18392 0.77179 0.0
C577 C 0.6879 0.19136 0.78359 0.0
C578 C 0.72163 0.19807 0.76305 0.0
C579 C 0.71878 0.21988 0.76621 0.0
C580 C 0.70023 0.22732 0.77772 0.0
C581 C 0.68492 0.21319 0.78636 0.0
C582 C 0.73509 0.235 0.75747 0.0
C583 C 0.72922 0.25092 0.74026 0.0
C584 C 0.75634 0.23355 0.76558 0.0
C585 C 0.76336 0.21771 0.78465 0.0
C586 C 0.75365 0.21648 0.8088 0.0
C587 C 0.76021 0.20137 0.82657 0.0
C588 C 0.77658 0.1875 0.82049 0.0
C589 C 0.78647 0.18875 0.79664 0.0
C590 C 0.77995 0.20382 0.77879 0.0
C591 C 0.79304 0.31586 0.72651 0.0
C592 C 0.81175 0.30907 0.71469 0.0
C593 C 0.77804 0.30121 0.73467 0.0
C594 C 0.78138 0.27954 0.7309 0.0
C595 C 0.8002 0.27272 0.71945 0.0
C596 C 0.81525 0.28736 0.71138 0.0
C597 C 0.76526 0.26398 0.739 0.0
C598 C 0.77118 0.24796 0.75607 0.0
C599 C 0.74405 0.26533 0.73074 0.0
C600 C 0.73706 0.28115 0.71162 0.0
C601 C 0.74705 0.28258 0.68766 0.0
C602 C 0.7405 0.29764 0.66982 0.0
C603 C 0.72387 0.31127 0.67565 0.0
C604 C 0.71372 0.30983 0.69931 0.0
C605 C 0.72022 0.29481 0.71723 0.0
H606 H 0.71883 0.32293 0.66182 0.0
H607 H 0.78164 0.17581 0.83427 0.0
H608 H 0.12 0.373 0.89092 0.0
H609 H 0.11904 0.37266 0.93769 0.0
H610 H 0.16841 0.32585 0.93885 0.0
H611 H 0.16933 0.32596 0.89202 0.0
H612 H 0.13697 0.31682 0.97293 0.0
H613 H 0.18 0.37647 0.95065 0.0
H614 H 0.18822 0.40983 0.92858 0.0
H615 H 0.13575 0.43983 0.96564 0.0
H616 H 0.12703 0.40654 0.98767 0.0
H617 H 0.16692 0.32688 0.10304 0.0
H618 H 0.16657 0.32607 0.05628 0.0
H619 H 0.11985 0.37555 0.05542 0.0
H620 H 0.12049 0.37676 0.1022 0.0
H621 H 0.14961 0.3831 0.02102 0.0
H622 H 0.10658 0.32377 0.04363 0.0
H623 H 0.09802 0.29044 0.06558 0.0
H624 H 0.14988 0.25987 0.02794 0.0
H625 H 0.15893 0.29311 0.00602 0.0
C626 C 0.13059 0.36256 0.90113 0.0
C627 C 0.14481 0.34957 0.88785 0.0
C628 C 0.13007 0.36245 0.92784 0.0
C629 C 0.14383 0.34941 0.94171 0.0
C630 C 0.15769 0.33605 0.92848 0.0
C631 C 0.15823 0.33617 0.90176 0.0
C632 C 0.14398 0.34996 0.97003 0.0
C633 C 0.13999 0.33124 0.98348 0.0
C634 C 0.14745 0.36889 0.98372 0.0
C635 C 0.15274 0.38896 0.97061 0.0
C636 C 0.17011 0.39014 0.95394 0.0
C637 C 0.17488 0.40904 0.94147 0.0
C638 C 0.16248 0.42693 0.94565 0.0
C639 C 0.14532 0.42596 0.96239 0.0
C640 C 0.14047 0.40708 0.97489 0.0
C641 C 0.15656 0.33756 0.09287 0.0
C642 C 0.14369 0.35184 0.10623 0.0
C643 C 0.1563 0.33702 0.06617 0.0
C644 C 0.14297 0.35056 0.05236 0.0
C645 C 0.13022 0.36494 0.06569 0.0
C646 C 0.13057 0.36558 0.0924 0.0
C647 C 0.14255 0.34996 0.02401 0.0
C648 C 0.14654 0.36866 0.01052 0.0
C649 C 0.13901 0.33102 0.0103 0.0
C650 C 0.13355 0.31099 0.02337 0.0
C651 C 0.11626 0.30998 0.04018 0.0
C652 C 0.1113 0.2911 0.05259 0.0
C653 C 0.12343 0.27306 0.0482 0.0
C654 C 0.14051 0.27386 0.03134 0.0
C655 C 0.14555 0.29271 0.0189 0.0
H656 H 0.11957 0.25845 0.05783 0.0
H657 H 0.1662 0.44155 0.93598 0.0
H658 H 0.66164 0.17741 0.89469 0.0
H659 H 0.66203 0.17686 0.94147 0.0
H660 H 0.62992 0.11687 0.94094 0.0
H661 H 0.62917 0.1175 0.89415 0.0
H662 H 0.61248 0.14315 0.9749 0.0
H663 H 0.68253 0.12017 0.95436 0.0
H664 H 0.71737 0.12221 0.93355 0.0
H665 H 0.72996 0.18067 0.97207 0.0
H666 H 0.69506 0.17913 0.99285 0.0
H667 H 0.62892 0.11622 0.10506 0.0
H668 H 0.6295 0.11657 0.05828 0.0
H669 H 0.66005 0.17735 0.05934 0.0
H670 H 0.65972 0.177 0.10618 0.0
H671 H 0.6784 0.15077 0.0252 0.0
H672 H 0.60823 0.17364 0.04568 0.0
H673 H 0.57343 0.17142 0.06654 0.0
H674 H 0.56111 0.11288 0.02809 0.0
H675 H 0.59599 0.11459 0.00726 0.0
C676 C 0.65473 0.16407 0.90455 0.0
C677 C 0.6454 0.14748 0.8908 0.0
C678 C 0.65504 0.16373 0.93127 0.0
C679 C 0.64619 0.14672 0.94469 0.0
C680 C 0.63684 0.13015 0.93097 0.0
C681 C 0.63649 0.1305 0.90425 0.0
C682 C 0.64626 0.1464 0.97305 0.0
C683 C 0.62693 0.14451 0.9859 0.0
C684 C 0.66507 0.1487 0.98738 0.0
C685 C 0.68609 0.14963 0.97497 0.0
C686 C 0.69266 0.13355 0.95824 0.0
C687 C 0.71243 0.1346 0.94647 0.0
C688 C 0.72585 0.15159 0.95143 0.0
C689 C 0.71954 0.16754 0.96822 0.0
C690 C 0.69977 0.16657 0.98002 0.0
C691 C 0.63574 0.12967 0.09532 0.0
C692 C 0.6442 0.14663 0.10924 0.0
C693 C 0.636 0.12987 0.06861 0.0
C694 C 0.64462 0.14709 0.05535 0.0
C695 C 0.6533 0.16393 0.06922 0.0
C696 C 0.65303 0.16374 0.09595 0.0
C697 C 0.64463 0.14747 0.02701 0.0
C698 C 0.66397 0.14939 0.01418 0.0
C699 C 0.62583 0.14518 0.01269 0.0
C700 C 0.60481 0.14415 0.02511 0.0
C701 C 0.59818 0.16021 0.04183 0.0
C702 C 0.57842 0.15906 0.05362 0.0
C703 C 0.56509 0.14199 0.0487 0.0
C704 C 0.57147 0.12607 0.03191 0.0
C705 C 0.59122 0.12713 0.02009 0.0
H706 H 0.5498 0.14113 0.05784 0.0
H707 H 0.74115 0.15238 0.9423 0.0
H708 H 0.87131 0.67784 0.89146 0.0
H709 H 0.87035 0.68017 0.93815 0.0
H710 H 0.81864 0.63602 0.94003 0.0
H711 H 0.81945 0.63364 0.89325 0.0
H712 H 0.8134 0.66942 0.97416 0.0
H713 H 0.86652 0.61853 0.9515 0.0
H714 H 0.89825 0.6058 0.929 0.0
H715 H 0.93535 0.6541 0.96488 0.0
H716 H 0.90375 0.66732 0.98732 0.0
H717 H 0.82174 0.63299 0.10241 0.0
H718 H 0.81987 0.63643 0.05587 0.0
H719 H 0.87358 0.67817 0.05709 0.0
H720 H 0.87564 0.67468 0.10366 0.0
H721 H 0.87777 0.6477 0.02133 0.0
H722 H 0.82506 0.69751 0.04599 0.0
H723 H 0.79341 0.7101 0.06875 0.0
H724 H 0.75557 0.66417 0.02958 0.0
H725 H 0.78706 0.65107 0.00687 0.0
C726 C 0.85962 0.66876 0.9018 0.0
C727 C 0.84555 0.65543 0.88875 0.0
C728 C 0.85912 0.67009 0.92845 0.0
C729 C 0.84457 0.6581 0.94251 0.0
C730 C 0.82999 0.64538 0.9295 0.0
C731 C 0.83053 0.64398 0.90282 0.0
C732 C 0.84528 0.65805 0.97082 0.0
C733 C 0.82737 0.66448 0.98453 0.0
C734 C 0.8637 0.65203 0.98425 0.0
C735 C 0.88273 0.64405 0.97087 0.0
C736 C 0.88141 0.62655 0.95442 0.0
C737 C 0.89937 0.61922 0.94171 0.0
C738 C 0.91879 0.62918 0.94545 0.0
C739 C 0.92029 0.64644 0.96197 0.0
C740 C 0.90236 0.65384 0.9747 0.0
C741 C 0.83307 0.643 0.09278 0.0
C742 C 0.84885 0.65355 0.10664 0.0
C743 C 0.83192 0.64503 0.06621 0.0
C744 C 0.84648 0.6577 0.05306 0.0
C745 C 0.86218 0.66835 0.06689 0.0
C746 C 0.86331 0.66637 0.09347 0.0
C747 C 0.84588 0.65907 0.02478 0.0
C748 C 0.86381 0.65281 0.01103 0.0
C749 C 0.82749 0.66526 0.01138 0.0
C750 C 0.80848 0.67317 0.0249 0.0
C751 C 0.81002 0.68997 0.04238 0.0
C752 C 0.7921 0.69722 0.05525 0.0
C753 C 0.7725 0.68791 0.05066 0.0
C754 C 0.77077 0.67136 0.03314 0.0
C755 C 0.78865 0.66402 0.02024 0.0
H756 H 0.75865 0.69354 0.06065 0.0
H757 H 0.93268 0.62348 0.9356 0.0
H758 H 0.32204 0.87132 0.10642 0.0
H759 H 0.32011 0.8691 0.05979 0.0
H760 H 0.36798 0.82072 0.06015 0.0
H761 H 0.37027 0.82317 0.10678 0.0
H762 H 0.3766 0.84997 0.02544 0.0
H763 H 0.31591 0.80908 0.04833 0.0
H764 H 0.28219 0.8018 0.0701 0.0
H765 H 0.25334 0.85382 0.03089 0.0
H766 H 0.28698 0.86161 0.00915 0.0
H767 H 0.36785 0.81876 0.89668 0.0
H768 H 0.36576 0.81816 0.94333 0.0
H769 H 0.32124 0.86958 0.9416 0.0
H770 H 0.32312 0.87016 0.89474 0.0
H771 H 0.31035 0.83872 0.97678 0.0
H772 H 0.37134 0.87979 0.95459 0.0
H773 H 0.40509 0.88686 0.93277 0.0
H774 H 0.43336 0.834 0.97096 0.0
H775 H 0.39967 0.82643 0.99274 0.0
C776 C 0.33204 0.8601 0.09657 0.0
C777 C 0.34632 0.84742 0.1102 0.0
C778 C 0.33085 0.85878 0.06993 0.0
C779 C 0.34376 0.8446 0.05651 0.0
C780 C 0.35787 0.83176 0.07014 0.0
C781 C 0.35913 0.83314 0.09676 0.0
C782 C 0.34326 0.84381 0.02817 0.0
C783 C 0.36216 0.84717 0.01483 0.0
C784 C 0.32431 0.84074 0.01432 0.0
C785 C 0.30403 0.83605 0.02729 0.0
C786 C 0.30243 0.81907 0.0445 0.0
C787 C 0.28332 0.81483 0.05681 0.0
C788 C 0.26565 0.82737 0.05192 0.0
C789 C 0.26704 0.84414 0.03467 0.0
C790 C 0.28612 0.84846 0.02233 0.0
C791 C 0.3575 0.82985 0.9062 0.0
C792 C 0.34576 0.84462 0.89211 0.0
C793 C 0.35636 0.82952 0.93285 0.0
C794 C 0.34356 0.84401 0.94589 0.0
C795 C 0.33124 0.8583 0.93185 0.0
C796 C 0.33238 0.85866 0.90514 0.0
C797 C 0.3437 0.84472 0.9742 0.0
C798 C 0.32476 0.84143 0.98747 0.0
C799 C 0.36261 0.84782 0.98805 0.0
C800 C 0.38293 0.85243 0.97511 0.0
C801 C 0.38471 0.86958 0.95819 0.0
C802 C 0.40383 0.87369 0.94585 0.0
C803 C 0.42134 0.86085 0.95042 0.0
C804 C 0.41978 0.84391 0.96741 0.0
C805 C 0.40068 0.83971 0.97977 0.0
H806 H 0.43613 0.86406 0.94085 0.0
H807 H 0.25087 0.82406 0.06147 0.0
H808 H 0.16989 0.66937 0.60502 0.0
H809 H 0.17143 0.66938 0.55827 0.0
H810 H 0.12722 0.61768 0.556 0.0
H811 H 0.126 0.61729 0.60277 0.0
H812 H 0.15822 0.61127 0.52292 0.0
H813 H 0.11185 0.66868 0.54329 0.0
H814 H 0.10117 0.70177 0.56441 0.0
H815 H 0.15238 0.73443 0.52811 0.0
H816 H 0.16354 0.70145 0.50703 0.0
H817 H 0.12454 0.62019 0.39382 0.0
H818 H 0.1259 0.62019 0.44059 0.0
H819 H 0.17506 0.66717 0.43868 0.0
H820 H 0.17384 0.6672 0.39181 0.0
H821 H 0.14295 0.67633 0.47356 0.0
H822 H 0.18822 0.61843 0.45187 0.0
H823 H 0.19781 0.58519 0.43036 0.0
H824 H 0.14725 0.55326 0.46888 0.0
H825 H 0.13715 0.5864 0.49036 0.0
C826 C 0.16052 0.658 0.59454 0.0
C827 C 0.14776 0.64338 0.60751 0.0
C828 C 0.16135 0.65807 0.56784 0.0
C829 C 0.14922 0.64371 0.55363 0.0
C830 C 0.13669 0.62892 0.56658 0.0
C831 C 0.13596 0.62875 0.59328 0.0
C832 C 0.14958 0.64407 0.52526 0.0
C833 C 0.15463 0.62543 0.51214 0.0
C834 C 0.14536 0.66268 0.51119 0.0
C835 C 0.13866 0.68254 0.5238 0.0
C836 C 0.12093 0.68288 0.53997 0.0
C837 C 0.11477 0.70162 0.55191 0.0
C838 C 0.12612 0.72018 0.54767 0.0
C839 C 0.14362 0.72004 0.53142 0.0
C840 C 0.14986 0.70133 0.51945 0.0
C841 C 0.13566 0.63049 0.40336 0.0
C842 C 0.14912 0.64366 0.38921 0.0
C843 C 0.13646 0.63043 0.43005 0.0
C844 C 0.15069 0.64356 0.44303 0.0
C845 C 0.164 0.65689 0.42897 0.0
C846 C 0.16333 0.65684 0.40224 0.0
C847 C 0.15145 0.64352 0.47132 0.0
C848 C 0.14661 0.66221 0.4844 0.0
C849 C 0.15572 0.62493 0.48534 0.0
C850 C 0.1618 0.60495 0.47254 0.0
C851 C 0.17903 0.60436 0.45559 0.0
C852 C 0.18458 0.58553 0.44344 0.0
C853 C 0.17311 0.56713 0.4482 0.0
C854 C 0.1561 0.56752 0.46519 0.0
C855 C 0.15047 0.58633 0.47738 0.0
H856 H 0.17744 0.55257 0.43877 0.0
H857 H 0.12133 0.73467 0.55692 0.0
H858 H 0.3846 0.13038 0.60442 0.0
H859 H 0.3835 0.13102 0.55774 0.0
H860 H 0.31763 0.14808 0.56022 0.0
H861 H 0.3185 0.1468 0.60706 0.0
H862 H 0.32404 0.12015 0.52377 0.0
H863 H 0.3565 0.18508 0.54823 0.0
H864 H 0.38196 0.208 0.57052 0.0
H865 H 0.43312 0.17798 0.53089 0.0
H866 H 0.40797 0.15466 0.50861 0.0
H867 H 0.32015 0.15743 0.39458 0.0
H868 H 0.31943 0.15584 0.4414 0.0
H869 H 0.38227 0.1298 0.44163 0.0
H870 H 0.38306 0.13121 0.39483 0.0
H871 H 0.37649 0.16315 0.47641 0.0
H872 H 0.34274 0.09802 0.45216 0.0
H873 H 0.3164 0.07632 0.42958 0.0
H874 H 0.26641 0.10877 0.46858 0.0
H875 H 0.29246 0.13089 0.49114 0.0
C876 C 0.36986 0.13419 0.59502 0.0
C877 C 0.35166 0.13867 0.60934 0.0
C878 C 0.36927 0.13466 0.56834 0.0
C879 C 0.35058 0.14001 0.55547 0.0
C880 C 0.33224 0.144 0.56974 0.0
C881 C 0.33277 0.1433 0.59647 0.0
C882 C 0.35028 0.14157 0.52715 0.0
C883 C 0.33532 0.1298 0.51345 0.0
C884 C 0.36518 0.15394 0.51363 0.0
C885 C 0.38036 0.16799 0.52693 0.0
C886 C 0.37319 0.18326 0.54441 0.0
C887 C 0.38756 0.19634 0.55702 0.0
C888 C 0.40915 0.19441 0.55218 0.0
C889 C 0.4164 0.17944 0.53465 0.0
C890 C 0.40209 0.16629 0.522 0.0
C891 C 0.3338 0.15136 0.40462 0.0
C892 C 0.35166 0.14441 0.3911 0.0
C893 C 0.33333 0.1504 0.43132 0.0
C894 C 0.35075 0.14259 0.44489 0.0
C895 C 0.36868 0.13586 0.43145 0.0
C896 C 0.36908 0.13662 0.40476 0.0
C897 C 0.3504 0.14163 0.47316 0.0
C898 C 0.36521 0.15356 0.48681 0.0
C899 C 0.33522 0.12962 0.4866 0.0
C900 C 0.31955 0.11626 0.47314 0.0
C901 C 0.32613 0.10066 0.45576 0.0
C902 C 0.31125 0.08825 0.44299 0.0
C903 C 0.28975 0.0912 0.44759 0.0
C904 C 0.28307 0.10652 0.46501 0.0
C905 C 0.29789 0.11899 0.47781 0.0
H906 H 0.27825 0.08158 0.43769 0.0
H907 H 0.42025 0.20456 0.56196 0.0
H908 H 0.86773 0.32289 0.39661 0.0
H909 H 0.86436 0.32186 0.44315 0.0
H910 H 0.81582 0.36947 0.43974 0.0
H911 H 0.81931 0.37077 0.39311 0.0
H912 H 0.84479 0.37886 0.4752 0.0
H913 H 0.8034 0.31865 0.45372 0.0
H914 H 0.79528 0.28483 0.43267 0.0
H915 H 0.84676 0.25532 0.47223 0.0
H916 H 0.8554 0.28906 0.49325 0.0
H917 H 0.8207 0.37034 0.60759 0.0
H918 H 0.81683 0.36897 0.56102 0.0
H919 H 0.86739 0.32358 0.55667 0.0
H920 H 0.87125 0.32477 0.60323 0.0
H921 H 0.83417 0.31323 0.52524 0.0
H922 H 0.87699 0.37422 0.54384 0.0
H923 H 0.88516 0.40812 0.56472 0.0
H924 H 0.83046 0.43613 0.5302 0.0
H925 H 0.8218 0.40228 0.5094 0.0
C926 C 0.85621 0.33302 0.40575 0.0
C927 C 0.84378 0.34692 0.39125 0.0
C928 C 0.85423 0.33234 0.43234 0.0
C929 C 0.83969 0.34544 0.44489 0.0
C930 C 0.8271 0.35919 0.43042 0.0
C931 C 0.82908 0.35988 0.4038 0.0
C932 C 0.83845 0.34552 0.47321 0.0
C933 C 0.84206 0.36458 0.48613 0.0
C934 C 0.83532 0.3268 0.48745 0.0
C935 C 0.83015 0.30645 0.4749 0.0
C936 C 0.8131 0.305 0.45778 0.0
C937 C 0.80838 0.28583 0.44588 0.0
C938 C 0.82053 0.26795 0.45107 0.0
C939 C 0.83738 0.26919 0.46822 0.0
C940 C 0.84218 0.28833 0.48016 0.0
C941 C 0.8309 0.35998 0.59671 0.0
C942 C 0.84636 0.34775 0.60899 0.0
C943 C 0.8287 0.35925 0.57013 0.0
C944 C 0.84196 0.34633 0.55541 0.0
C945 C 0.857 0.33366 0.5677 0.0
C946 C 0.85925 0.33442 0.59427 0.0
C947 C 0.84069 0.34651 0.52712 0.0
C948 C 0.83666 0.32752 0.51425 0.0
C949 C 0.84339 0.36529 0.51289 0.0
C950 C 0.84862 0.38566 0.52531 0.0
C951 C 0.86661 0.38756 0.54088 0.0
C952 C 0.87134 0.40677 0.55267 0.0
C953 C 0.8583 0.42425 0.54885 0.0
C954 C 0.84053 0.42257 0.53318 0.0
C955 C 0.8357 0.40338 0.52138 0.0
H956 H 0.862 0.43911 0.55799 0.0
H957 H 0.81685 0.25312 0.44184 0.0
H958 H 0.67957 0.8397 0.6057 0.0
H959 H 0.68082 0.83718 0.55896 0.0
H960 H 0.61975 0.86698 0.55416 0.0
H961 H 0.61823 0.86912 0.60078 0.0
H962 H 0.62156 0.83368 0.52349 0.0
H963 H 0.6658 0.89391 0.54072 0.0
H964 H 0.69552 0.91278 0.56076 0.0
H965 H 0.73925 0.86976 0.52596 0.0
H966 H 0.70975 0.85046 0.50597 0.0
H967 H 0.61814 0.86472 0.39401 0.0
H968 H 0.61936 0.86361 0.44068 0.0
H969 H 0.67999 0.83281 0.43748 0.0
H970 H 0.67903 0.83422 0.39065 0.0
H971 H 0.67994 0.86403 0.47215 0.0
H972 H 0.63569 0.80507 0.45279 0.0
H973 H 0.60591 0.78648 0.4325 0.0
H974 H 0.56214 0.82712 0.4712 0.0
H975 H 0.59167 0.84616 0.49146 0.0
C976 C 0.66646 0.84578 0.59464 0.0
C977 C 0.64882 0.85464 0.60684 0.0
C978 C 0.66722 0.84439 0.56796 0.0
C979 C 0.65045 0.85206 0.55306 0.0
C980 C 0.63285 0.86093 0.56527 0.0
C981 C 0.63203 0.86221 0.5919 0.0
C982 C 0.65098 0.85062 0.52476 0.0
C983 C 0.63421 0.84051 0.51225 0.0
C984 C 0.66781 0.85898 0.51014 0.0
C985 C 0.68555 0.87061 0.52208 0.0
C986 C 0.68174 0.88838 0.53751 0.0
C987 C 0.69855 0.89917 0.54882 0.0
C988 C 0.71926 0.89244 0.54469 0.0
C989 C 0.7232 0.87494 0.52917 0.0
C990 C 0.70644 0.86407 0.51783 0.0
C991 C 0.63169 0.85762 0.40323 0.0
C992 C 0.64847 0.8495 0.38871 0.0
C993 C 0.63233 0.85692 0.4299 0.0
C994 C 0.64964 0.84789 0.44255 0.0
C995 C 0.66646 0.83981 0.42809 0.0
C996 C 0.66586 0.84057 0.40137 0.0
C997 C 0.65034 0.84737 0.47089 0.0
C998 C 0.66735 0.85707 0.4834 0.0
C999 C 0.63373 0.83865 0.48552 0.0
C1000 C 0.61591 0.82715 0.47348 0.0
C1001 C 0.61972 0.81014 0.45683 0.0
C1002 C 0.60288 0.79951 0.44536 0.0
C1003 C 0.58215 0.80564 0.45052 0.0
C1004 C 0.57821 0.8224 0.46721 0.0
C1005 C 0.59499 0.8331 0.47872 0.0
H1006 H 0.56913 0.79739 0.44162 0.0
H1007 H 0.73225 0.90082 0.55347 0.0
H1008 H 0.15034 0.56757 0.31972 0.0
H1009 H 0.15489 0.53171 0.30365 0.0
H1010 H 0.17783 0.5563 0.23187 0.0
H1011 H 0.17287 0.59229 0.24769 0.0
H1012 H 0.1488 0.52727 0.22389 0.0
H1013 H 0.21116 0.53154 0.27447 0.0
H1014 H 0.23246 0.5387 0.31295 0.0
H1015 H 0.19804 0.4915 0.35447 0.0
H1016 H 0.17631 0.48425 0.31633 0.0
H1017 H 0.17299 0.42449 0.17786 0.0
H1018 H 0.17831 0.46074 0.19276 0.0
H1019 H 0.14987 0.44479 0.26519 0.0
H1020 H 0.14454 0.40858 0.25047 0.0
H1021 H 0.18547 0.46987 0.27059 0.0
H1022 H 0.12104 0.46861 0.22114 0.0
H1023 H 0.09962 0.4616 0.1827 0.0
H1024 H 0.13862 0.50358 0.13893 0.0
H1025 H 0.16047 0.51061 0.17708 0.0
C1026 C 0.15657 0.56534 0.30061 0.0
C1027 C 0.16122 0.58271 0.28493 0.0
C1028 C 0.15928 0.54483 0.2915 0.0
C1029 C 0.16692 0.54131 0.26664 0.0
C1030 C 0.17195 0.55866 0.25112 0.0
C1031 C 0.16915 0.57919 0.2602 0.0
C1032 C 0.16829 0.51956 0.25635 0.0
C1033 C 0.15721 0.51483 0.23383 0.0
C1034 C 0.1789 0.50322 0.26959 0.0
C1035 C 0.19199 0.50747 0.29257 0.0
C1036 C 0.20802 0.52279 0.29186 0.0
C1037 C 0.22019 0.52685 0.3136 0.0
C1038 C 0.21658 0.51559 0.33616 0.0
C1039 C 0.20081 0.50022 0.33699 0.0
C1040 C 0.18858 0.49611 0.3153 0.0
C1041 C 0.16803 0.42869 0.19702 0.0
C1042 C 0.15822 0.41378 0.21296 0.0
C1043 C 0.17106 0.44937 0.20548 0.0
C1044 C 0.16433 0.45544 0.22999 0.0
C1045 C 0.15519 0.44039 0.24622 0.0
C1046 C 0.15206 0.41976 0.23774 0.0
C1047 C 0.16583 0.47768 0.23836 0.0
C1048 C 0.17737 0.48244 0.26051 0.0
C1049 C 0.15569 0.49409 0.22478 0.0
C1050 C 0.14253 0.48993 0.20187 0.0
C1051 C 0.12516 0.4762 0.20327 0.0
C1052 C 0.11292 0.47225 0.18154 0.0
C1053 C 0.1178 0.48209 0.15837 0.0
C1054 C 0.13489 0.49594 0.15689 0.0
C1055 C 0.1472 0.49992 0.17855 0.0
H1056 H 0.1083 0.47901 0.14157 0.0
H1057 H 0.22602 0.51876 0.35298 0.0
H1058 H 0.59178 0.16861 0.2519 0.0
H1059 H 0.55576 0.17331 0.26764 0.0
H1060 H 0.53137 0.1564 0.19337 0.0
H1061 H 0.5674 0.15182 0.17742 0.0
H1062 H 0.50982 0.18983 0.21492 0.0
H1063 H 0.53295 0.12029 0.23941 0.0
H1064 H 0.55693 0.09455 0.2595 0.0
H1065 H 0.54778 0.12422 0.33251 0.0
H1066 H 0.52396 0.15035 0.31276 0.0
H1067 H 0.40606 0.15659 0.24572 0.0
H1068 H 0.4424 0.1608 0.23111 0.0
H1069 H 0.46227 0.17324 0.30862 0.0
H1070 H 0.42594 0.16865 0.32344 0.0
H1071 H 0.48677 0.14451 0.28707 0.0
H1072 H 0.46129 0.21255 0.26317 0.0
H1073 H 0.43724 0.23817 0.24299 0.0
H1074 H 0.45051 0.21165 0.16913 0.0
H1075 H 0.47442 0.18566 0.18891 0.0
C1076 C 0.57875 0.16607 0.23886 0.0
C1077 C 0.58237 0.1597 0.21349 0.0
C1078 C 0.5582 0.16872 0.24789 0.0
C1079 C 0.54092 0.16497 0.23174 0.0
C1080 C 0.54451 0.15936 0.20613 0.0
C1081 C 0.56507 0.15667 0.19709 0.0
C1082 C 0.51913 0.16589 0.24184 0.0
C1083 C 0.50468 0.17982 0.23055 0.0
C1084 C 0.51264 0.15317 0.26263 0.0
C1085 C 0.52686 0.13741 0.27455 0.0
C1086 C 0.53619 0.12143 0.25971 0.0
C1087 C 0.54973 0.10675 0.27104 0.0
C1088 C 0.55393 0.10779 0.29725 0.0
C1089 C 0.54454 0.12347 0.3122 0.0
C1090 C 0.53102 0.13821 0.30095 0.0
C1091 C 0.41813 0.16048 0.25961 0.0
C1092 C 0.41319 0.16225 0.28573 0.0
C1093 C 0.43888 0.16299 0.25122 0.0
C1094 C 0.45504 0.16752 0.26874 0.0
C1095 C 0.45004 0.16977 0.29477 0.0
C1096 C 0.42929 0.1672 0.3032 0.0
C1097 C 0.47731 0.16843 0.26012 0.0
C1098 C 0.49188 0.15475 0.27163 0.0
C1099 C 0.48387 0.1814 0.23955 0.0
C1100 C 0.46952 0.19703 0.22757 0.0
C1101 C 0.45896 0.21207 0.24265 0.0
C1102 C 0.44537 0.22668 0.23127 0.0
C1103 C 0.44232 0.22651 0.2048 0.0
C1104 C 0.45288 0.21175 0.18964 0.0
C1105 C 0.46647 0.19709 0.20092 0.0
H1106 H 0.43179 0.23784 0.19603 0.0
H1107 H 0.56441 0.09641 0.30599 0.0
H1108 H 0.84768 0.59348 0.25408 0.0
H1109 H 0.84613 0.55745 0.27085 0.0
H1110 H 0.84286 0.53312 0.19389 0.0
H1111 H 0.84454 0.56909 0.17697 0.0
H1112 H 0.81419 0.51387 0.22815 0.0
H1113 H 0.88811 0.53158 0.22296 0.0
H1114 H 0.91943 0.5535 0.23156 0.0
H1115 H 0.91063 0.54517 0.31238 0.0
H1116 H 0.87905 0.52344 0.30426 0.0
H1117 H 0.84058 0.40686 0.24896 0.0
H1118 H 0.83867 0.4434 0.23433 0.0
H1119 H 0.85243 0.46503 0.31083 0.0
H1120 H 0.85502 0.42845 0.32537 0.0
H1121 H 0.8748 0.48638 0.27809 0.0
H1122 H 0.80194 0.46798 0.28443 0.0
H1123 H 0.76999 0.4467 0.27697 0.0
H1124 H 0.77559 0.45691 0.19605 0.0
H1125 H 0.80776 0.47803 0.203 0.0
C1126 C 0.8465 0.58045 0.24075 0.0
C1127 C 0.84633 0.58405 0.21422 0.0
C1128 C 0.84566 0.55991 0.25034 0.0
C1129 C 0.84453 0.54267 0.23357 0.0
C1130 C 0.84373 0.54625 0.20711 0.0
C1131 C 0.84476 0.56677 0.19749 0.0
C1132 C 0.84486 0.52085 0.24358 0.0
C1133 C 0.8275 0.50773 0.23885 0.0
C1134 C 0.86202 0.51314 0.25811 0.0
C1135 C 0.88109 0.52608 0.26301 0.0
C1136 C 0.89275 0.53457 0.24257 0.0
C1137 C 0.91057 0.54693 0.24736 0.0
C1138 C 0.91698 0.55078 0.2725 0.0
C1139 C 0.90562 0.54221 0.29291 0.0
C1140 C 0.88777 0.52986 0.28823 0.0
C1141 C 0.84311 0.41941 0.26267 0.0
C1142 C 0.8479 0.41483 0.28831 0.0
C1143 C 0.84191 0.4403 0.25432 0.0
C1144 C 0.8451 0.457 0.27156 0.0
C1145 C 0.84988 0.45242 0.29719 0.0
C1146 C 0.8513 0.43152 0.30549 0.0
C1147 C 0.84409 0.47921 0.26266 0.0
C1148 C 0.86137 0.49246 0.26755 0.0
C1149 C 0.82675 0.48709 0.24849 0.0
C1150 C 0.80737 0.47443 0.24423 0.0
C1151 C 0.79645 0.46556 0.26503 0.0
C1152 C 0.77829 0.45355 0.26089 0.0
C1153 C 0.7708 0.45041 0.23605 0.0
C1154 C 0.78143 0.45933 0.21528 0.0
C1155 C 0.79961 0.47134 0.21931 0.0
H1156 H 0.75673 0.4411 0.23288 0.0
H1157 H 0.93078 0.56035 0.27617 0.0
H1158 H 0.58784 0.8726 0.25539 0.0
H1159 H 0.55092 0.87074 0.24235 0.0
H1160 H 0.54184 0.81629 0.29055 0.0
H1161 H 0.57896 0.81801 0.3037 0.0
H1162 H 0.52228 0.81243 0.24282 0.0
H1163 H 0.52515 0.86172 0.31183 0.0
H1164 H 0.53886 0.89236 0.33561 0.0
H1165 H 0.52204 0.93316 0.27332 0.0
H1166 H 0.50848 0.90269 0.249 0.0
H1167 H 0.40914 0.82174 0.23971 0.0
H1168 H 0.44568 0.81921 0.25488 0.0
H1169 H 0.46269 0.87243 0.20786 0.0
H1170 H 0.42637 0.87493 0.19246 0.0
H1171 H 0.47746 0.87534 0.25825 0.0
H1172 H 0.47623 0.82566 0.18859 0.0
H1173 H 0.46315 0.79487 0.16456 0.0
H1174 H 0.47691 0.75467 0.22852 0.0
H1175 H 0.4898 0.78531 0.25309 0.0
C1176 C 0.57805 0.86011 0.26307 0.0
C1177 C 0.58623 0.84551 0.28067 0.0
C1178 C 0.55695 0.85912 0.25567 0.0
C1179 C 0.54362 0.84355 0.26576 0.0
C1180 C 0.55189 0.82846 0.28263 0.0
C1181 C 0.57305 0.8295 0.29015 0.0
C1182 C 0.52091 0.84357 0.25917 0.0
C1183 C 0.51235 0.82602 0.24657 0.0
C1184 C 0.50811 0.86145 0.2638 0.0
C1185 C 0.51596 0.87988 0.2785 0.0
C1186 C 0.5245 0.8772 0.30313 0.0
C1187 C 0.53223 0.89455 0.31671 0.0
C1188 C 0.53137 0.91469 0.30595 0.0
C1189 C 0.52271 0.91754 0.28161 0.0
C1190 C 0.51497 0.90024 0.26793 0.0
C1191 C 0.42071 0.83286 0.2326 0.0
C1192 C 0.41496 0.84851 0.21489 0.0
C1193 C 0.44154 0.83136 0.24122 0.0
C1194 C 0.45685 0.8456 0.23241 0.0
C1195 C 0.45108 0.86132 0.21488 0.0
C1196 C 0.43036 0.86267 0.20604 0.0
C1197 C 0.4789 0.84433 0.24155 0.0
C1198 C 0.48732 0.86167 0.2547 0.0
C1199 C 0.49152 0.82624 0.2375 0.0
C1200 C 0.48372 0.80782 0.2228 0.0
C1201 C 0.47626 0.81029 0.19764 0.0
C1202 C 0.46893 0.79286 0.18389 0.0
C1203 C 0.46913 0.77284 0.19504 0.0
C1204 C 0.47672 0.7702 0.21993 0.0
C1205 C 0.48405 0.78759 0.23377 0.0
H1206 H 0.46347 0.75936 0.18436 0.0
H1207 H 0.53739 0.9281 0.31648 0.0
H1208 H 0.85789 0.57116 0.8237 0.0
H1209 H 0.85666 0.53439 0.80969 0.0
H1210 H 0.83181 0.554 0.73662 0.0
H1211 H 0.83261 0.59079 0.75072 0.0
H1212 H 0.8121 0.51932 0.75298 0.0
H1213 H 0.88346 0.54191 0.74351 0.0
H1214 H 0.91711 0.55762 0.75723 0.0
H1215 H 0.92452 0.50916 0.81389 0.0
H1216 H 0.8906 0.49338 0.80085 0.0
H1217 H 0.83933 0.42771 0.68088 0.0
H1218 H 0.83686 0.46367 0.69765 0.0
H1219 H 0.85557 0.44146 0.77227 0.0
H1220 H 0.85798 0.40542 0.75566 0.0
H1221 H 0.8779 0.477 0.7559 0.0
H1222 H 0.80583 0.454 0.76287 0.0
H1223 H 0.77247 0.43891 0.747 0.0
H1224 H 0.76737 0.48875 0.69175 0.0
H1225 H 0.80087 0.50398 0.70706 0.0
C1226 C 0.85205 0.56762 0.80471 0.0
C1227 C 0.84547 0.58384 0.78824 0.0
C1228 C 0.85142 0.54662 0.7967 0.0
C1229 C 0.84443 0.54148 0.77198 0.0
C1230 C 0.83729 0.55761 0.75576 0.0
C1231 C 0.83782 0.57862 0.76381 0.0
C1232 C 0.84511 0.51936 0.76278 0.0
C1233 C 0.82654 0.51014 0.75337 0.0
C1234 C 0.86388 0.50728 0.76361 0.0
C1235 C 0.88437 0.5166 0.77139 0.0
C1236 C 0.89217 0.53469 0.75904 0.0
C1237 C 0.91132 0.5436 0.76667 0.0
C1238 C 0.92296 0.53442 0.78644 0.0
C1239 C 0.91547 0.51628 0.7986 0.0
C1240 C 0.89628 0.50734 0.7911 0.0
C1241 C 0.84282 0.43048 0.70089 0.0
C1242 C 0.84882 0.41378 0.71699 0.0
C1243 C 0.84134 0.45099 0.71045 0.0
C1244 C 0.8459 0.45516 0.73623 0.0
C1245 C 0.85195 0.43853 0.75233 0.0
C1246 C 0.85325 0.41797 0.74284 0.0
C1247 C 0.8449 0.47699 0.7462 0.0
C1248 C 0.86344 0.48616 0.75568 0.0
C1249 C 0.82618 0.48909 0.74511 0.0
C1250 C 0.80597 0.48001 0.73596 0.0
C1251 C 0.79769 0.46165 0.7472 0.0
C1252 C 0.77873 0.45309 0.73833 0.0
C1253 C 0.76783 0.46284 0.71834 0.0
C1254 C 0.77584 0.4812 0.70722 0.0
C1255 C 0.7948 0.48981 0.716 0.0
H1256 H 0.75316 0.45619 0.7115 0.0
H1257 H 0.93779 0.54135 0.7923 0.0
H1258 H 0.59189 0.84647 0.75447 0.0
H1259 H 0.55547 0.84151 0.76905 0.0
H1260 H 0.53613 0.82811 0.69164 0.0
H1261 H 0.57251 0.83269 0.67699 0.0
H1262 H 0.51258 0.86043 0.71714 0.0
H1263 H 0.53622 0.7893 0.7304 0.0
H1264 H 0.55983 0.76168 0.74718 0.0
H1265 H 0.54641 0.78144 0.82405 0.0
H1266 H 0.52295 0.80941 0.80771 0.0
H1267 H 0.40632 0.83529 0.74556 0.0
H1268 H 0.44256 0.83241 0.72968 0.0
H1269 H 0.46605 0.83736 0.80691 0.0
H1270 H 0.42993 0.84012 0.8229 0.0
H1271 H 0.48741 0.80768 0.78024 0.0
H1272 H 0.46677 0.87945 0.76927 0.0
H1273 H 0.44512 0.90946 0.75482 0.0
H1274 H 0.45452 0.89108 0.67658 0.0
H1275 H 0.47598 0.86074 0.6906 0.0
C1276 C 0.57991 0.84219 0.74064 0.0
C1277 C 0.58499 0.83999 0.71461 0.0
C1278 C 0.55917 0.83932 0.74899 0.0
C1279 C 0.54319 0.83442 0.73139 0.0
C1280 C 0.54829 0.83185 0.70547 0.0
C1281 C 0.56906 0.83442 0.69718 0.0
C1282 C 0.52095 0.83334 0.73976 0.0
C1283 C 0.50693 0.84865 0.73055 0.0
C1284 C 0.51391 0.81841 0.75792 0.0
C1285 C 0.52799 0.80159 0.76781 0.0
C1286 C 0.53846 0.78789 0.75087 0.0
C1287 C 0.55178 0.77214 0.76031 0.0
C1288 C 0.55466 0.76984 0.78666 0.0
C1289 C 0.54418 0.78326 0.80364 0.0
C1290 C 0.53085 0.79905 0.7943 0.0
C1291 C 0.41921 0.8356 0.75914 0.0
C1292 C 0.41533 0.83805 0.78543 0.0
C1293 C 0.43988 0.83401 0.75006 0.0
C1294 C 0.45698 0.83488 0.76712 0.0
C1295 C 0.45308 0.83665 0.79344 0.0
C1296 C 0.43244 0.83831 0.80252 0.0
C1297 C 0.47896 0.83474 0.7575 0.0
C1298 C 0.49297 0.8193 0.76658 0.0
C1299 C 0.48613 0.84978 0.7395 0.0
C1300 C 0.47277 0.86767 0.731 0.0
C1301 C 0.464 0.88164 0.749 0.0
C1302 C 0.45182 0.89875 0.74089 0.0
C1303 C 0.44843 0.90215 0.71481 0.0
C1304 C 0.45714 0.8884 0.69678 0.0
C1305 C 0.46932 0.87125 0.7048 0.0
H1306 H 0.43918 0.91551 0.70857 0.0
H1307 H 0.56497 0.75764 0.79393 0.0
H1308 H 0.1573 0.42799 0.82557 0.0
H1309 H 0.16014 0.46473 0.8119 0.0
H1310 H 0.17705 0.44439 0.73587 0.0
H1311 H 0.17438 0.40751 0.74947 0.0
H1312 H 0.19987 0.47976 0.75207 0.0
H1313 H 0.12757 0.45648 0.7474 0.0
H1314 H 0.09493 0.44068 0.76442 0.0
H1315 H 0.09167 0.48875 0.82214 0.0
H1316 H 0.12449 0.50467 0.80567 0.0
H1317 H 0.17075 0.57172 0.68225 0.0
H1318 H 0.17585 0.5361 0.69909 0.0
H1319 H 0.15136 0.55606 0.77225 0.0
H1320 H 0.14566 0.59151 0.75526 0.0
H1321 H 0.13351 0.5209 0.75849 0.0
H1322 H 0.20485 0.54545 0.76222 0.0
H1323 H 0.23767 0.56121 0.74564 0.0
H1324 H 0.24313 0.51134 0.69048 0.0
H1325 H 0.21018 0.49542 0.7065 0.0
C1326 C 0.16193 0.43133 0.80604 0.0
C1327 C 0.16542 0.4149 0.7885 0.0
C1328 C 0.16351 0.45231 0.79826 0.0
C1329 C 0.16851 0.45723 0.7728 0.0
C1330 C 0.17313 0.44089 0.75559 0.0
C1331 C 0.17154 0.41986 0.76336 0.0
C1332 C 0.16731 0.4793 0.7637 0.0
C1333 C 0.18535 0.48875 0.75323 0.0
C1334 C 0.14844 0.49107 0.7657 0.0
C1335 C 0.1286 0.48164 0.77547 0.0
C1336 C 0.11998 0.46359 0.76384 0.0
C1337 C 0.10143 0.45463 0.77336 0.0
C1338 C 0.09126 0.46367 0.79439 0.0
C1339 C 0.09959 0.48174 0.80588 0.0
C1340 C 0.11815 0.49075 0.79645 0.0
C1341 C 0.16663 0.56853 0.70198 0.0
C1342 C 0.15777 0.58434 0.71744 0.0
C1343 C 0.16966 0.54821 0.71164 0.0
C1344 C 0.16419 0.54344 0.73703 0.0
C1345 C 0.15569 0.55936 0.7526 0.0
C1346 C 0.15247 0.57961 0.74289 0.0
C1347 C 0.16614 0.5216 0.74696 0.0
C1348 C 0.14815 0.51208 0.75748 0.0
C1349 C 0.18508 0.50985 0.74505 0.0
C1350 C 0.20494 0.51935 0.73541 0.0
C1351 C 0.21296 0.53793 0.74642 0.0
C1352 C 0.2316 0.54688 0.73715 0.0
C1353 C 0.24245 0.53731 0.71698 0.0
C1354 C 0.2347 0.51874 0.70608 0.0
C1355 C 0.21606 0.50974 0.71527 0.0
H1356 H 0.25688 0.54426 0.70983 0.0
H1357 H 0.07691 0.45671 0.80174 0.0
H1358 H 0.43059 0.13226 0.69299 0.0
H1359 H 0.4654 0.13931 0.71098 0.0
H1360 H 0.44136 0.19508 0.74813 0.0
H1361 H 0.4063 0.18815 0.73007 0.0
H1362 H 0.4824 0.20028 0.7271 0.0
H1363 H 0.445 0.15367 0.78295 0.0
H1364 H 0.42349 0.12249 0.79359 0.0
H1365 H 0.4726 0.08179 0.766 0.0
H1366 H 0.49428 0.11275 0.75482 0.0
H1367 H 0.56814 0.16345 0.82752 0.0
H1368 H 0.53164 0.16854 0.81372 0.0
H1369 H 0.55273 0.17677 0.73586 0.0
H1370 H 0.58926 0.17204 0.74961 0.0
H1371 H 0.51066 0.14354 0.7828 0.0
H1372 H 0.51778 0.2071 0.70292 0.0
H1373 H 0.53834 0.23926 0.69394 0.0
H1374 H 0.54851 0.24848 0.77438 0.0
H1375 H 0.52777 0.21655 0.78388 0.0
C1376 C 0.43273 0.14618 0.70473 0.0
C1377 C 0.41569 0.15956 0.71034 0.0
C1378 C 0.45262 0.15016 0.715 0.0
C1379 C 0.45583 0.16755 0.73111 0.0
C1380 C 0.43914 0.18156 0.73575 0.0
C1381 C 0.41915 0.17755 0.7255 0.0
C1382 C 0.47628 0.17009 0.74437 0.0
C1383 C 0.48862 0.18797 0.73936 0.0
C1384 C 0.48406 0.15422 0.76085 0.0
C1385 C 0.4712 0.13554 0.76788 0.0
C1386 C 0.45116 0.13807 0.779 0.0
C1387 C 0.43894 0.12044 0.78514 0.0
C1388 C 0.44666 0.10017 0.78043 0.0
C1389 C 0.46664 0.0975 0.76963 0.0
C1390 C 0.47891 0.11508 0.76341 0.0
C1391 C 0.56501 0.16669 0.80753 0.0
C1392 C 0.58152 0.16724 0.78961 0.0
C1393 C 0.54416 0.16957 0.79967 0.0
C1394 C 0.53945 0.17313 0.77379 0.0
C1395 C 0.556 0.17438 0.75599 0.0
C1396 C 0.57686 0.17155 0.76385 0.0
C1397 C 0.51722 0.1735 0.76501 0.0
C1398 C 0.50448 0.15606 0.7708 0.0
C1399 C 0.50903 0.18994 0.7496 0.0
C1400 C 0.52135 0.20931 0.74409 0.0
C1401 C 0.52432 0.21604 0.71871 0.0
C1402 C 0.53602 0.23422 0.71352 0.0
C1403 C 0.54478 0.24587 0.73357 0.0
C1404 C 0.54179 0.2394 0.75886 0.0
C1405 C 0.53009 0.22123 0.76415 0.0
H1406 H 0.55384 0.25994 0.72951 0.0
H1407 H 0.43717 0.08654 0.78519 0.0
H1408 H 0.67639 0.08021 0.80675 0.0
H1409 H 0.67885 0.04379 0.79141 0.0
H1410 H 0.62863 0.05575 0.73762 0.0
H1411 H 0.62592 0.09201 0.75307 0.0
H1412 H 0.62194 0.01995 0.76321 0.0
H1413 H 0.67972 0.05156 0.71795 0.0
H1414 H 0.71276 0.07171 0.71338 0.0
H1415 H 0.74511 0.02663 0.76047 0.0
H1416 H 0.71216 0.00636 0.76561 0.0
H1417 H 0.63064 0.93144 0.68234 0.0
H1418 H 0.63255 0.96766 0.69818 0.0
H1419 H 0.67684 0.94833 0.75623 0.0
H1420 H 0.67486 0.91187 0.74061 0.0
H1421 H 0.68759 0.98695 0.73047 0.0
H1422 H 0.62957 0.95499 0.77464 0.0
H1423 H 0.59649 0.93478 0.77822 0.0
H1424 H 0.56452 0.98087 0.73222 0.0
H1425 H 0.59752 0.0012 0.72802 0.0
C1426 C 0.66599 0.0751 0.79153 0.0
C1427 C 0.65095 0.08893 0.7811 0.0
C1428 C 0.66745 0.05432 0.78273 0.0
C1429 C 0.65399 0.04709 0.76327 0.0
C1430 C 0.63914 0.06098 0.75268 0.0
C1431 C 0.63766 0.08171 0.76147 0.0
C1432 C 0.65479 0.02487 0.75449 0.0
C1433 C 0.63625 0.01284 0.75577 0.0
C1434 C 0.6736 0.01541 0.74544 0.0
C1435 C 0.69342 0.02757 0.7424 0.0
C1436 C 0.69383 0.04604 0.72752 0.0
C1437 C 0.71255 0.05747 0.72479 0.0
C1438 C 0.731 0.05049 0.73669 0.0
C1439 C 0.73079 0.03204 0.7513 0.0
C1440 C 0.7121 0.02057 0.75411 0.0
C1441 C 0.6409 0.9349 0.69837 0.0
C1442 C 0.65253 0.91884 0.71034 0.0
C1443 C 0.64193 0.95558 0.70741 0.0
C1444 C 0.65471 0.96058 0.72846 0.0
C1445 C 0.66688 0.94473 0.73996 0.0
C1446 C 0.66568 0.92395 0.73109 0.0
C1447 C 0.65469 0.98227 0.73889 0.0
C1448 C 0.67335 0.99412 0.738 0.0
C1449 C 0.63598 0.99164 0.74823 0.0
C1450 C 0.61607 0.97951 0.75081 0.0
C1451 C 0.61553 0.96072 0.76509 0.0
C1452 C 0.59679 0.94926 0.76727 0.0
C1453 C 0.57843 0.95651 0.7554 0.0
C1454 C 0.57877 0.97526 0.74138 0.0
C1455 C 0.59748 0.98677 0.73911 0.0
H1456 H 0.56393 0.94762 0.75711 0.0
H1457 H 0.74548 0.05935 0.73454 0.0
H1458 H 0.90359 0.65289 0.74153 0.0
H1459 H 0.93964 0.65566 0.72506 0.0
H1460 H 0.96328 0.66116 0.80215 0.0
H1461 H 0.92728 0.65834 0.81877 0.0
H1462 H 0.98185 0.68982 0.7683 0.0
H1463 H 0.96761 0.61545 0.77364 0.0
H1464 H 0.9477 0.58274 0.76565 0.0
H1465 H 0.95481 0.59143 0.68462 0.0
H1466 H 0.97463 0.62434 0.69217 0.0
H1467 H 0.08982 0.66374 0.74865 0.0
H1468 H 0.05312 0.66663 0.76256 0.0
H1469 H 0.0322 0.65478 0.68532 0.0
H1470 H 0.06887 0.65147 0.67141 0.0
H1471 H 0.01163 0.63051 0.71802 0.0
H1472 H 0.02797 0.70402 0.71281 0.0
H1473 H 0.04832 0.73642 0.72114 0.0
H1474 H 0.03744 0.72961 0.8018 0.0
H1475 H 0.01725 0.69699 0.79398 0.0
C1476 C 0.91646 0.6548 0.75495 0.0
C1477 C 0.91266 0.65531 0.78143 0.0
C1478 C 0.93702 0.65633 0.74553 0.0
C1479 C 0.9541 0.65847 0.76242 0.0
C1480 C 0.95029 0.65953 0.78883 0.0
C1481 C 0.92975 0.65783 0.79827 0.0
C1482 C 0.97599 0.659 0.7526 0.0
C1483 C 0.98848 0.6768 0.75751 0.0
C1484 C 0.9844 0.64218 0.73806 0.0
C1485 C 0.97239 0.62247 0.73346 0.0
C1486 C 0.96475 0.61049 0.75412 0.0
C1487 C 0.95352 0.59189 0.74967 0.0
C1488 C 0.94991 0.58504 0.72463 0.0
C1489 C 0.95758 0.59677 0.704 0.0
C1490 C 0.96884 0.61539 0.70835 0.0
C1491 C 0.0774 0.662 0.73459 0.0
C1492 C 0.08219 0.65734 0.70896 0.0
C1493 C 0.05643 0.66374 0.74254 0.0
C1494 C 0.0399 0.66108 0.72494 0.0
C1495 C 0.0447 0.65689 0.69922 0.0
C1496 C 0.06565 0.65506 0.69129 0.0
C1497 C 0.01762 0.66139 0.73364 0.0
C1498 C 0.00503 0.64367 0.7286 0.0
C1499 C 0.00915 0.67831 0.74804 0.0
C1500 C 0.02126 0.69795 0.75281 0.0
C1501 C 0.03006 0.70933 0.73234 0.0
C1502 C 0.04154 0.72776 0.73697 0.0
C1503 C 0.04421 0.73504 0.76199 0.0
C1504 C 0.03537 0.72394 0.78243 0.0
C1505 C 0.02389 0.70549 0.77791 0.0
H1506 H 0.05311 0.74932 0.76553 0.0
H1507 H 0.94125 0.57062 0.7212 0.0
H1508 H 0.31462 0.07546 0.70282 0.0
H1509 H 0.31165 0.03904 0.71858 0.0
H1510 H 0.37278 0.04446 0.7541 0.0
H1511 H 0.37567 0.08082 0.73902 0.0
H1512 H 0.36567 0.00769 0.72016 0.0
H1513 H 0.33491 0.04613 0.79163 0.0
H1514 H 0.30925 0.07057 0.81106 0.0
H1515 H 0.25821 0.0315 0.78523 0.0
H1516 H 0.28359 0.00698 0.76531 0.0
H1517 H 0.37922 0.92008 0.79902 0.0
H1518 H 0.37579 0.95607 0.78303 0.0
H1519 H 0.30996 0.94521 0.7669 0.0
H1520 H 0.31323 0.90909 0.7832 0.0
H1521 H 0.31601 0.98391 0.78766 0.0
H1522 H 0.34371 0.94483 0.71856 0.0
H1523 H 0.3669 0.92 0.69567 0.0
H1524 H 0.42047 0.95908 0.71221 0.0
H1525 H 0.39761 0.98408 0.73551 0.0
C1526 C 0.32732 0.06889 0.71416 0.0
C1527 C 0.34536 0.08092 0.71973 0.0
C1528 C 0.3256 0.04817 0.72314 0.0
C1529 C 0.34202 0.03917 0.73744 0.0
C1530 C 0.35997 0.05119 0.74307 0.0
C1531 C 0.36155 0.07195 0.73451 0.0
C1532 C 0.34095 0.01701 0.74601 0.0
C1533 C 0.35497 0.00249 0.73508 0.0
C1534 C 0.32635 0.01017 0.76467 0.0
C1535 C 0.31113 0.02487 0.77671 0.0
C1536 C 0.31821 0.04287 0.78986 0.0
C1537 C 0.30372 0.05671 0.80102 0.0
C1538 C 0.28211 0.05263 0.79931 0.0
C1539 C 0.27495 0.03467 0.7865 0.0
C1540 C 0.28938 0.02079 0.77529 0.0
C1541 C 0.36397 0.92537 0.79222 0.0
C1542 C 0.34651 0.91175 0.79222 0.0
C1543 C 0.36206 0.94591 0.78299 0.0
C1544 C 0.34269 0.9532 0.77343 0.0
C1545 C 0.32505 0.93986 0.77412 0.0
C1546 C 0.32696 0.91925 0.78337 0.0
C1547 C 0.34118 0.97465 0.76231 0.0
C1548 C 0.32664 0.98902 0.77262 0.0
C1549 C 0.35501 0.9813 0.74264 0.0
C1550 C 0.36896 0.96624 0.72896 0.0
C1551 C 0.36046 0.94805 0.71753 0.0
C1552 C 0.37354 0.93397 0.70444 0.0
C1553 C 0.39513 0.93797 0.70249 0.0
C1554 C 0.40372 0.95603 0.71372 0.0
C1555 C 0.39071 0.97017 0.72685 0.0
H1556 H 0.40517 0.92711 0.69217 0.0
H1557 H 0.27092 0.06336 0.80797 0.0
H1558 H 0.07761 0.32504 0.80883 0.0
H1559 H 0.04153 0.32294 0.79246 0.0
H1560 H 0.06025 0.35737 0.72497 0.0
H1561 H 0.0962 0.35997 0.74154 0.0
H1562 H 0.02556 0.37353 0.74433 0.0
H1563 H 0.04919 0.30361 0.72359 0.0
H1564 H 0.0648 0.26873 0.73233 0.0
H1565 H 0.0159 0.25575 0.78692 0.0
H1566 H 0.00014 0.29067 0.77876 0.0
H1567 H 0.93128 0.36056 0.67459 0.0
H1568 H 0.96814 0.35786 0.68786 0.0
H1569 H 0.94909 0.32532 0.75657 0.0
H1570 H 0.91217 0.3276 0.74313 0.0
H1571 H 0.98393 0.30764 0.7362 0.0
H1572 H 0.96095 0.37758 0.75797 0.0
H1573 H 0.94521 0.41248 0.74972 0.0
H1574 H 0.99306 0.42544 0.69376 0.0
H1575 H 0.00891 0.39047 0.70142 0.0
C1576 C 0.07407 0.33196 0.79038 0.0
C1577 C 0.08969 0.34269 0.77646 0.0
C1578 C 0.05347 0.33067 0.78099 0.0
C1579 C 0.04821 0.33984 0.75737 0.0
C1580 C 0.06394 0.35019 0.74324 0.0
C1581 C 0.08448 0.35162 0.75269 0.0
C1582 C 0.02612 0.33969 0.748 0.0
C1583 C 0.01659 0.35907 0.74215 0.0
C1584 C 0.0142 0.32089 0.74588 0.0
C1585 C 0.02359 0.29984 0.75072 0.0
C1586 C 0.04185 0.29338 0.7376 0.0
C1587 C 0.05071 0.27359 0.74242 0.0
C1588 C 0.04137 0.26005 0.76021 0.0
C1589 C 0.02312 0.26626 0.77317 0.0
C1590 C 0.01421 0.28604 0.76843 0.0
C1591 C 0.93495 0.35273 0.69245 0.0
C1592 C 0.91886 0.34442 0.70792 0.0
C1593 C 0.95601 0.35125 0.70005 0.0
C1594 C 0.96133 0.34167 0.72339 0.0
C1595 C 0.94532 0.33281 0.73851 0.0
C1596 C 0.92425 0.33419 0.73086 0.0
C1597 C 0.98351 0.34145 0.73237 0.0
C1598 C 0.99299 0.32205 0.73826 0.0
C1599 C 0.99541 0.36023 0.7346 0.0
C1600 C 0.98599 0.38132 0.73009 0.0
C1601 C 0.96802 0.38781 0.74377 0.0
C1602 C 0.9591 0.40761 0.73922 0.0
C1603 C 0.9681 0.42115 0.72118 0.0
C1604 C 0.98609 0.41493 0.7077 0.0
C1605 C 0.99506 0.39512 0.71215 0.0
H1606 H 0.96117 0.43648 0.71768 0.0
H1607 H 0.04826 0.24474 0.76393 0.0
H1608 H 0.32309 0.07558 0.32037 0.0
H1609 H 0.31845 0.03889 0.30674 0.0
H1610 H 0.35425 0.0516 0.23826 0.0
H1611 H 0.3588 0.08822 0.25163 0.0
H1612 H 0.31896 0.0279 0.22859 0.0
H1613 H 0.37721 0.02817 0.2891 0.0
H1614 H 0.39353 0.03522 0.33107 0.0
H1615 H 0.34795 0.99517 0.36753 0.0
H1616 H 0.33119 0.9881 0.32578 0.0
H1617 H 0.35633 0.93058 0.18458 0.0
H1618 H 0.35159 0.9662 0.20112 0.0
H1619 H 0.32201 0.94109 0.26897 0.0
H1620 H 0.3274 0.90521 0.2528 0.0
H1621 H 0.34881 0.97038 0.28178 0.0
H1622 H 0.29296 0.96644 0.22127 0.0
H1623 H 0.27604 0.95922 0.17971 0.0
H1624 H 0.31522 0.00583 0.14381 0.0
H1625 H 0.3326 0.01313 0.18508 0.0
C1626 C 0.32985 0.07055 0.30235 0.0
C1627 C 0.3414 0.0847 0.28711 0.0
C1628 C 0.32723 0.04961 0.29463 0.0
C1629 C 0.33616 0.04252 0.2716 0.0
C1630 C 0.34722 0.05677 0.25609 0.0
C1631 C 0.34988 0.07766 0.2638 0.0
C1632 C 0.33466 0.02012 0.26385 0.0
C1633 C 0.32557 0.01529 0.24011 0.0
C1634 C 0.34264 0.00367 0.27934 0.0
C1635 C 0.35281 0.0078 0.30438 0.0
C1636 C 0.37058 0.021 0.3061 0.0
C1637 C 0.37992 0.02497 0.32984 0.0
C1638 C 0.37174 0.0157 0.35197 0.0
C1639 C 0.35424 0.00237 0.35038 0.0
C1640 C 0.34483 0.99837 0.32669 0.0
C1641 C 0.34871 0.93264 0.20297 0.0
C1642 C 0.34218 0.91515 0.21739 0.0
C1643 C 0.34588 0.95303 0.21233 0.0
C1644 C 0.33606 0.95637 0.23608 0.0
C1645 C 0.32952 0.93889 0.25054 0.0
C1646 C 0.33258 0.91843 0.24129 0.0
C1647 C 0.33355 0.97811 0.24613 0.0
C1648 C 0.34186 0.98285 0.27035 0.0
C1649 C 0.32468 0.99447 0.23114 0.0
C1650 C 0.31418 0.99023 0.20627 0.0
C1651 C 0.29806 0.97506 0.20449 0.0
C1652 C 0.28838 0.97097 0.18098 0.0
C1653 C 0.29457 0.98204 0.15913 0.0
C1654 C 0.31044 0.99726 0.16075 0.0
C1655 C 0.32019 0.00141 0.18421 0.0
H1656 H 0.28706 0.97884 0.14095 0.0
H1657 H 0.37899 0.0188 0.37033 0.0
H1658 H 0.92852 0.34008 0.32512 0.0
H1659 H 0.96482 0.33603 0.31012 0.0
H1660 H 0.94339 0.33995 0.23189 0.0
H1661 H 0.90697 0.34338 0.2468 0.0
H1662 H 0.97294 0.31062 0.2362 0.0
H1663 H 0.96523 0.38276 0.2629 0.0
H1664 H 0.95643 0.41155 0.29278 0.0
H1665 H 0.00326 0.38913 0.34553 0.0
H1666 H 0.01214 0.36002 0.31609 0.0
H1667 H 0.06851 0.34292 0.17608 0.0
H1668 H 0.0327 0.33939 0.19294 0.0
H1669 H 0.05772 0.33149 0.2691 0.0
H1670 H 0.09359 0.33515 0.25238 0.0
H1671 H 0.02693 0.36112 0.2673 0.0
H1672 H 0.03616 0.2901 0.23804 0.0
H1673 H 0.04495 0.26222 0.20694 0.0
H1674 H 0.99532 0.28361 0.15744 0.0
H1675 H 0.98642 0.31182 0.18809 0.0
C1676 C 0.93155 0.33997 0.30473 0.0
C1677 C 0.91497 0.3422 0.28711 0.0
C1678 C 0.95229 0.33773 0.29618 0.0
C1679 C 0.95686 0.33804 0.26989 0.0
C1680 C 0.94024 0.3397 0.25226 0.0
C1681 C 0.91946 0.34174 0.2608 0.0
C1682 C 0.97899 0.33724 0.26075 0.0
C1683 C 0.98471 0.32179 0.2428 0.0
C1684 C 0.99444 0.35155 0.26975 0.0
C1685 C 0.98919 0.36909 0.28742 0.0
C1686 C 0.97354 0.38388 0.28096 0.0
C1687 C 0.96856 0.40027 0.2978 0.0
C1688 C 0.97924 0.40213 0.32107 0.0
C1689 C 0.99497 0.38764 0.32752 0.0
C1690 C -0.0 0.37121 0.31076 0.0
C1691 C 0.06638 0.34018 0.19637 0.0
C1692 C 0.08381 0.33935 0.21294 0.0
C1693 C 0.04593 0.33808 0.20596 0.0
C1694 C 0.04258 0.33505 0.23225 0.0
C1695 C 0.05999 0.3338 0.24875 0.0
C1696 C 0.08045 0.33584 0.23916 0.0
C1697 C 0.02087 0.33454 0.24271 0.0
C1698 C 0.01522 0.34983 0.26085 0.0
C1699 C 0.00548 0.3202 0.23372 0.0
C1700 C 0.01075 0.30319 0.21528 0.0
C1701 C 0.02723 0.28897 0.22044 0.0
C1702 C 0.03221 0.27308 0.2029 0.0
C1703 C 0.02073 0.27117 0.1802 0.0
C1704 C 0.00421 0.28511 0.17502 0.0
C1705 C 0.99918 0.30104 0.19248 0.0
H1706 H 0.02461 0.25886 0.16665 0.0
H1707 H 0.97536 0.41483 0.33408 0.0
H1708 H 0.65238 0.92914 0.32664 0.0
H1709 H 0.65516 0.96602 0.31341 0.0
H1710 H 0.67378 0.94634 0.23771 0.0
H1711 H 0.67112 0.90936 0.25084 0.0
H1712 H 0.69652 0.98123 0.2554 0.0
H1713 H 0.62426 0.95867 0.24756 0.0
H1714 H 0.59105 0.94295 0.26304 0.0
H1715 H 0.58647 0.99062 0.32112 0.0
H1716 H 0.61984 0.00644 0.30621 0.0
H1717 H 0.67021 0.07372 0.18524 0.0
H1718 H 0.67437 0.03798 0.20205 0.0
H1719 H 0.64851 0.05804 0.27446 0.0
H1720 H 0.64379 0.09366 0.2575 0.0
H1721 H 0.63044 0.02303 0.25972 0.0
H1722 H 0.70192 0.0468 0.26646 0.0
H1723 H 0.73533 0.06231 0.25133 0.0
H1724 H 0.74171 0.01275 0.1959 0.0
H1725 H 0.70819 0.99709 0.21046 0.0
C1726 C 0.65732 0.93267 0.30727 0.0
C1727 C 0.66136 0.9164 0.28968 0.0
C1728 C 0.65887 0.95372 0.29974 0.0
C1729 C 0.66442 0.95885 0.27451 0.0
C1730 C 0.66945 0.94267 0.25726 0.0
C1731 C 0.66785 0.92158 0.26476 0.0
C1732 C 0.66365 0.98101 0.2657 0.0
C1733 C 0.68206 0.99037 0.2561 0.0
C1734 C 0.64485 0.99296 0.26712 0.0
C1735 C 0.62466 0.98361 0.27593 0.0
C1736 C 0.61625 0.9657 0.26375 0.0
C1737 C 0.59739 0.95679 0.2724 0.0
C1738 C 0.58669 0.96574 0.29309 0.0
C1739 C 0.5948 0.98368 0.30512 0.0
C1740 C 0.61368 0.99263 0.29656 0.0
C1741 C 0.6656 0.07054 0.20482 0.0
C1742 C 0.65665 0.08644 0.22006 0.0
C1743 C 0.66808 0.05014 0.21445 0.0
C1744 C 0.66195 0.04536 0.23962 0.0
C1745 C 0.65335 0.06136 0.255 0.0
C1746 C 0.65071 0.0817 0.2453 0.0
C1747 C 0.66338 0.02346 0.24947 0.0
C1748 C 0.64501 0.01405 0.25918 0.0
C1749 C 0.68224 0.01153 0.24817 0.0
C1750 C 0.70244 0.02088 0.23941 0.0
C1751 C 0.71036 0.0393 0.25091 0.0
C1752 C 0.72934 0.0481 0.24246 0.0
C1753 C 0.74061 0.03855 0.22262 0.0
C1754 C 0.73296 0.02015 0.21124 0.0
C1755 C 0.71398 0.01129 0.21961 0.0
H1756 H 0.75529 0.04539 0.21611 0.0
H1757 H 0.57209 0.95881 0.29976 0.0
H1758 H 0.0749 0.67194 0.3143 0.0
H1759 H 0.03851 0.67518 0.29912 0.0
H1760 H 0.05529 0.64282 0.22942 0.0
H1761 H 0.0917 0.63968 0.24436 0.0
H1762 H 0.02919 0.67633 0.22038 0.0
H1763 H 0.0319 0.61641 0.2771 0.0
H1764 H 0.03943 0.59811 0.3177 0.0
H1765 H 0.9967 0.63934 0.35721 0.0
H1766 H 0.98914 0.65808 0.31686 0.0
H1767 H 0.93031 0.63835 0.17733 0.0
H1768 H 0.96654 0.64221 0.19265 0.0
H1769 H 0.94381 0.67314 0.26081 0.0
H1770 H 0.90749 0.66915 0.2457 0.0
H1771 H 0.97249 0.64312 0.27195 0.0
H1772 H 0.96771 0.70145 0.2145 0.0
H1773 H 0.96005 0.71953 0.1738 0.0
H1774 H 0.0064 0.68152 0.13559 0.0
H1775 H 0.01413 0.66297 0.176 0.0
C1776 C 0.07086 0.66569 0.29564 0.0
C1777 C 0.08608 0.65544 0.28057 0.0
C1778 C 0.05007 0.66749 0.28704 0.0
C1779 C 0.04417 0.65902 0.26328 0.0
C1780 C 0.05952 0.64945 0.24782 0.0
C1781 C 0.08029 0.64761 0.25642 0.0
C1782 C 0.02186 0.65932 0.2549 0.0
C1783 C 0.0168 0.66893 0.23152 0.0
C1784 C 0.00566 0.65009 0.26978 0.0
C1785 C 0.01014 0.63879 0.29403 0.0
C1786 C 0.02424 0.62168 0.29448 0.0
C1787 C 0.02849 0.61121 0.31744 0.0
C1788 C 0.0186 0.6176 0.34004 0.0
C1789 C 0.00438 0.63443 0.3397 0.0
C1790 C 0.0001 0.64498 0.31679 0.0
C1791 C 0.93304 0.64606 0.19552 0.0
C1792 C 0.91609 0.65346 0.21032 0.0
C1793 C 0.95374 0.64835 0.20419 0.0
C1794 C 0.95787 0.65816 0.22774 0.0
C1795 C 0.94096 0.66557 0.24256 0.0
C1796 C 0.92024 0.66331 0.23388 0.0
C1797 C 0.9798 0.65999 0.23729 0.0
C1798 C 0.98481 0.65073 0.26089 0.0
C1799 C 0.99593 0.66955 0.2226 0.0
C1800 C 0.99136 0.68069 0.19825 0.0
C1801 C 0.97615 0.69682 0.19738 0.0
C1802 C 0.97182 0.70718 0.17436 0.0
C1803 C 0.9827 0.70164 0.15211 0.0
C1804 C 0.99797 0.68577 0.15284 0.0
C1805 C 0.00235 0.67535 0.1758 0.0
H1806 H 0.97932 0.70968 0.13431 0.0
H1807 H 0.02191 0.60947 0.3578 0.0
loop_
_geom_bond_atom_site_label_1
_geom_bond_atom_site_label_2
_geom_bond_distance
_geom_bond_site_symmetry_2
_ccdc_geom_bond_type
In0 O1 2.294 . S
In0 O2 2.326 . S
In0 O6 2.266 . S
In0 O7 2.326 . S
In0 O8 2.266 . S
In0 O9 2.326 . S
In0 O11 2.294 . S
In0 O12 2.326 . S
O1 In0 2.294 . S
O1 C10 1.240 . S
O2 In0 2.326 . S
O2 C10 1.252 . S
C3 O6 1.252 . S
C3 O7 1.260 . S
C4 O11 1.240 . S
C4 O12 1.252 . S
C5 O8 1.252 . S
C5 O9 1.260 . S
O6 In0 2.266 . S
O6 C3 1.252 . S
O7 In0 2.326 . S
O7 C3 1.260 . S
O8 In0 2.266 . S
O8 C5 1.252 . S
O9 In0 2.326 . S
O9 C5 1.260 . S
C10 O1 1.240 . S
C10 O2 1.252 . S
O11 In0 2.294 . S
O11 C4 1.240 . S
O12 In0 2.326 . S
O12 C4 1.252 . S
In13 O14 2.294 . S
In13 O15 2.326 . S
In13 O19 2.266 . S
In13 O20 2.326 . S
In13 O21 2.266 . S
In13 O22 2.326 . S
In13 O24 2.294 . S
In13 O25 2.326 . S
O14 In13 2.294 . S
O14 C23 1.240 . S
O15 In13 2.326 . S
O15 C23 1.252 . S
C16 O19 1.252 . S
C16 O20 1.260 . S
C17 O24 1.240 . S
C17 O25 1.252 . S
C18 O21 1.252 . S
C18 O22 1.260 . S
O19 In13 2.266 . S
O19 C16 1.252 . S
O20 In13 2.326 . S
O20 C16 1.260 . S
O21 In13 2.266 . S
O21 C18 1.252 . S
O22 In13 2.326 . S
O22 C18 1.260 . S
C23 O14 1.240 . S
C23 O15 1.252 . S
O24 In13 2.294 . S
O24 C17 1.240 . S
O25 In13 2.326 . S
O25 C17 1.252 . S
In26 O27 2.294 . S
In26 O28 2.326 . S
In26 O32 2.266 . S
In26 O33 2.326 . S
In26 O34 2.266 . S
In26 O35 2.326 . S
In26 O37 2.294 . S
In26 O38 2.326 . S
O27 In26 2.294 . S
O27 C36 1.240 . S
O28 In26 2.326 . S
O28 C36 1.252 . S
C29 O32 1.252 . S
C29 O33 1.260 . S
C30 O37 1.240 . S
C30 O38 1.252 . S
C31 O34 1.252 . S
C31 O35 1.260 . S
O32 In26 2.266 . S
O32 C29 1.252 . S
O33 In26 2.326 . S
O33 C29 1.260 . S
O34 In26 2.266 . S
O34 C31 1.252 . S
O35 In26 2.326 . S
O35 C31 1.260 . S
C36 O27 1.240 . S
C36 O28 1.252 . S
O37 In26 2.294 . S
O37 C30 1.240 . S
O38 In26 2.326 . S
O38 C30 1.252 . S
In39 O40 2.294 . S
In39 O41 2.326 . S
In39 O45 2.266 . S
In39 O46 2.326 . S
In39 O47 2.266 . S
In39 O48 2.326 . S
In39 O50 2.294 . S
In39 O51 2.326 . S
O40 In39 2.294 . S
O40 C49 1.240 . S
O41 In39 2.326 . S
O41 C49 1.252 . S
C42 O45 1.252 . S
C42 O46 1.260 . S
C43 O50 1.240 . S
C43 O51 1.252 . S
C44 O47 1.252 . S
C44 O48 1.260 . S
O45 In39 2.266 . S
O45 C42 1.252 . S
O46 In39 2.326 . S
O46 C42 1.260 . S
O47 In39 2.266 . S
O47 C44 1.252 . S
O48 In39 2.326 . S
O48 C44 1.260 . S
C49 O40 1.240 . S
C49 O41 1.252 . S
O50 In39 2.294 . S
O50 C43 1.240 . S
O51 In39 2.326 . S
O51 C43 1.252 . S
In52 O53 2.294 . S
In52 O54 2.326 . S
In52 O58 2.266 . S
In52 O59 2.326 . S
In52 O60 2.266 . S
In52 O61 2.326 . S
In52 O63 2.294 . S
In52 O64 2.326 . S
O53 In52 2.294 . S
O53 C62 1.240 . S
O54 In52 2.326 . S
O54 C62 1.252 . S
C55 O58 1.252 . S
C55 O59 1.260 . S
C56 O63 1.240 . S
C56 O64 1.252 . S
C57 O60 1.252 . S
C57 O61 1.260 . S
O58 In52 2.266 . S
O58 C55 1.252 . S
O59 In52 2.326 . S
O59 C55 1.260 . S
O60 In52 2.266 . S
O60 C57 1.252 . S
O61 In52 2.326 . S
O61 C57 1.260 . S
C62 O53 1.240 . S
C62 O54 1.252 . S
O63 In52 2.294 . S
O63 C56 1.240 . S
O64 In52 2.326 . S
O64 C56 1.252 . S
In65 O66 2.294 . S
In65 O67 2.326 . S
In65 O71 2.266 . S
In65 O72 2.326 . S
In65 O73 2.266 . S
In65 O74 2.326 . S
In65 O76 2.294 . S
In65 O77 2.326 . S
O66 In65 2.294 . S
O66 C75 1.240 . S
O67 In65 2.326 . S
O67 C75 1.252 . S
C68 O71 1.252 . S
C68 O72 1.260 . S
C69 O76 1.240 . S
C69 O77 1.252 . S
C70 O73 1.252 . S
C70 O74 1.260 . S
O71 In65 2.266 . S
O71 C68 1.252 . S
O72 In65 2.326 . S
O72 C68 1.260 . S
O73 In65 2.266 . S
O73 C70 1.252 . S
O74 In65 2.326 . S
O74 C70 1.260 . S
C75 O66 1.240 . S
C75 O67 1.252 . S
O76 In65 2.294 . S
O76 C69 1.240 . S
O77 In65 2.326 . S
O77 C69 1.252 . S
In78 O79 2.294 . S
In78 O80 2.326 . S
In78 O84 2.266 . S
In78 O85 2.326 . S
In78 O86 2.266 . S
In78 O87 2.326 . S
In78 O89 2.294 . S
In78 O90 2.326 . S
O79 In78 2.294 . S
O79 C88 1.240 . S
O80 In78 2.326 . S
O80 C88 1.252 . S
C81 O84 1.252 . S
C81 O85 1.260 . S
C82 O89 1.240 . S
C82 O90 1.252 . S
C83 O86 1.252 . S
C83 O87 1.260 . S
O84 In78 2.266 . S
O84 C81 1.252 . S
O85 In78 2.326 . S
O85 C81 1.260 . S
O86 In78 2.266 . S
O86 C83 1.252 . S
O87 In78 2.326 . S
O87 C83 1.260 . S
C88 O79 1.240 . S
C88 O80 1.252 . S
O89 In78 2.294 . S
O89 C82 1.240 . S
O90 In78 2.326 . S
O90 C82 1.252 . S
In91 O92 2.294 . S
In91 O93 2.326 . S
In91 O97 2.266 . S
In91 O98 2.326 . S
In91 O99 2.266 . S
In91 O100 2.326 . S
In91 O102 2.294 . S
In91 O103 2.326 . S
O92 In91 2.294 . S
O92 C101 1.240 . S
O93 In91 2.326 . S
O93 C101 1.252 . S
C94 O97 1.252 . S
C94 O98 1.260 . S
C95 O102 1.240 . S
C95 O103 1.252 . S
C96 O99 1.252 . S
C96 O100 1.260 . S
O97 In91 2.266 . S
O97 C94 1.252 . S
O98 In91 2.326 . S
O98 C94 1.260 . S
O99 In91 2.266 . S
O99 C96 1.252 . S
O100 In91 2.326 . S
O100 C96 1.260 . S
C101 O92 1.240 . S
C101 O93 1.252 . S
O102 In91 2.294 . S
O102 C95 1.240 . S
O103 In91 2.326 . S
O103 C95 1.252 . S
In104 O105 2.294 . S
In104 O106 2.326 . S
In104 O110 2.266 . S
In104 O111 2.326 . S
In104 O112 2.266 . S
In104 O113 2.326 . S
In104 O115 2.294 . S
In104 O116 2.326 . S
O105 In104 2.294 . S
O105 C114 1.240 . S
O106 In104 2.326 . S
O106 C114 1.252 . S
C107 O110 1.252 . S
C107 O111 1.260 . S
C108 O115 1.240 . S
C108 O116 1.252 . S
C109 O112 1.252 . S
C109 O113 1.260 . S
O110 In104 2.266 . S
O110 C107 1.252 . S
O111 In104 2.326 . S
O111 C107 1.260 . S
O112 In104 2.266 . S
O112 C109 1.252 . S
O113 In104 2.326 . S
O113 C109 1.260 . S
C114 O105 1.240 . S
C114 O106 1.252 . S
O115 In104 2.294 . S
O115 C108 1.240 . S
O116 In104 2.326 . S
O116 C108 1.252 . S
In117 O118 2.294 . S
In117 O119 2.326 . S
In117 O123 2.266 . S
In117 O124 2.326 . S
In117 O125 2.266 . S
In117 O126 2.326 . S
In117 O128 2.294 . S
In117 O129 2.326 . S
O118 In117 2.294 . S
O118 C127 1.240 . S
O119 In117 2.326 . S
O119 C127 1.252 . S
C120 O123 1.252 . S
C120 O124 1.260 . S
C121 O128 1.240 . S
C121 O129 1.252 . S
C122 O125 1.252 . S
C122 O126 1.260 . S
O123 In117 2.266 . S
O123 C120 1.252 . S
O124 In117 2.326 . S
O124 C120 1.260 . S
O125 In117 2.266 . S
O125 C122 1.252 . S
O126 In117 2.326 . S
O126 C122 1.260 . S
C127 O118 1.240 . S
C127 O119 1.252 . S
O128 In117 2.294 . S
O128 C121 1.240 . S
O129 In117 2.326 . S
O129 C121 1.252 . S
In130 O131 2.294 . S
In130 O132 2.326 . S
In130 O136 2.266 . S
In130 O137 2.326 . S
In130 O138 2.266 . S
In130 O139 2.326 . S
In130 O141 2.294 . S
In130 O142 2.326 . S
O131 In130 2.294 . S
O131 C140 1.240 . S
O132 In130 2.326 . S
O132 C140 1.252 . S
C133 O136 1.252 . S
C133 O137 1.260 . S
C134 O141 1.240 . S
C134 O142 1.252 . S
C135 O138 1.252 . S
C135 O139 1.260 . S
O136 In130 2.266 . S
O136 C133 1.252 . S
O137 In130 2.326 . S
O137 C133 1.260 . S
O138 In130 2.266 . S
O138 C135 1.252 . S
O139 In130 2.326 . S
O139 C135 1.260 . S
C140 O131 1.240 . S
C140 O132 1.252 . S
O141 In130 2.294 . S
O141 C134 1.240 . S
O142 In130 2.326 . S
O142 C134 1.252 . S
In143 O144 2.294 . S
In143 O145 2.326 . S
In143 O149 2.266 . S
In143 O150 2.326 . S
In143 O151 2.266 . S
In143 O152 2.326 . S
In143 O154 2.294 . S
In143 O155 2.326 . S
O144 In143 2.294 . S
O144 C153 1.240 . S
O145 In143 2.326 . S
O145 C153 1.252 . S
C146 O149 1.252 . S
C146 O150 1.260 . S
C147 O154 1.240 . S
C147 O155 1.252 . S
C148 O151 1.252 . S
C148 O152 1.260 . S
O149 In143 2.266 . S
O149 C146 1.252 . S
O150 In143 2.326 . S
O150 C146 1.260 . S
O151 In143 2.266 . S
O151 C148 1.252 . S
O152 In143 2.326 . S
O152 C148 1.260 . S
C153 O144 1.240 . S
C153 O145 1.252 . S
O154 In143 2.294 . S
O154 C147 1.240 . S
O155 In143 2.326 . S
O155 C147 1.252 . S
In156 O157 2.294 . S
In156 O158 2.326 . S
In156 O162 2.266 . S
In156 O163 2.326 . S
In156 O164 2.266 . S
In156 O165 2.326 . S
In156 O167 2.294 . S
In156 O168 2.326 . S
O157 In156 2.294 . S
O157 C166 1.240 . S
O158 In156 2.326 . S
O158 C166 1.252 . S
C159 O162 1.252 . S
C159 O163 1.260 . S
C160 O167 1.240 . S
C160 O168 1.252 . S
C161 O164 1.252 . S
C161 O165 1.260 . S
O162 In156 2.266 . S
O162 C159 1.252 . S
O163 In156 2.326 . S
O163 C159 1.260 . S
O164 In156 2.266 . S
O164 C161 1.252 . S
O165 In156 2.326 . S
O165 C161 1.260 . S
C166 O157 1.240 . S
C166 O158 1.252 . S
O167 In156 2.294 . S
O167 C160 1.240 . S
O168 In156 2.326 . S
O168 C160 1.252 . S
In169 O170 2.294 . S
In169 O171 2.326 . S
In169 O175 2.266 . S
In169 O176 2.326 . S
In169 O177 2.266 . S
In169 O178 2.326 . S
In169 O180 2.294 . S
In169 O181 2.326 . S
O170 In169 2.294 . S
O170 C179 1.240 . S
O171 In169 2.326 . S
O171 C179 1.252 . S
C172 O175 1.252 . S
C172 O176 1.260 . S
C173 O180 1.240 . S
C173 O181 1.252 . S
C174 O177 1.252 . S
C174 O178 1.260 . S
O175 In169 2.266 . S
O175 C172 1.252 . S
O176 In169 2.326 . S
O176 C172 1.260 . S
O177 In169 2.266 . S
O177 C174 1.252 . S
O178 In169 2.326 . S
O178 C174 1.260 . S
C179 O170 1.240 . S
C179 O171 1.252 . S
O180 In169 2.294 . S
O180 C173 1.240 . S
O181 In169 2.326 . S
O181 C173 1.252 . S
In182 O183 2.294 . S
In182 O184 2.326 . S
In182 O188 2.266 . S
In182 O189 2.326 . S
In182 O190 2.266 . S
In182 O191 2.326 . S
In182 O193 2.294 . S
In182 O194 2.326 . S
O183 In182 2.294 . S
O183 C192 1.240 . S
O184 In182 2.326 . S
O184 C192 1.252 . S
C185 O188 1.252 . S
C185 O189 1.260 . S
C186 O193 1.240 . S
C186 O194 1.252 . S
C187 O190 1.252 . S
C187 O191 1.260 . S
O188 In182 2.266 . S
O188 C185 1.252 . S
O189 In182 2.326 . S
O189 C185 1.260 . S
O190 In182 2.266 . S
O190 C187 1.252 . S
O191 In182 2.326 . S
O191 C187 1.260 . S
C192 O183 1.240 . S
C192 O184 1.252 . S
O193 In182 2.294 . S
O193 C186 1.240 . S
O194 In182 2.326 . S
O194 C186 1.252 . S
In195 O196 2.294 . S
In195 O197 2.326 . S
In195 O201 2.266 . S
In195 O202 2.326 . S
In195 O203 2.266 . S
In195 O204 2.326 . S
In195 O206 2.294 . S
In195 O207 2.326 . S
O196 In195 2.294 . S
O196 C205 1.240 . S
O197 In195 2.326 . S
O197 C205 1.252 . S
C198 O201 1.252 . S
C198 O202 1.260 . S
C199 O206 1.240 . S
C199 O207 1.252 . S
C200 O203 1.252 . S
C200 O204 1.260 . S
O201 In195 2.266 . S
O201 C198 1.252 . S
O202 In195 2.326 . S
O202 C198 1.260 . S
O203 In195 2.266 . S
O203 C200 1.252 . S
O204 In195 2.326 . S
O204 C200 1.260 . S
C205 O196 1.240 . S
C205 O197 1.252 . S
O206 In195 2.294 . S
O206 C199 1.240 . S
O207 In195 2.326 . S
O207 C199 1.252 . S
H208 C226 0.951 . S
H209 C228 0.951 . S
H210 C230 0.950 . S
H211 C231 0.950 . S
H212 C233 0.950 . S
H213 C236 0.950 . S
H214 C237 0.950 . S
H215 C239 0.950 . S
H216 C240 0.950 . S
H217 C241 0.951 . S
H218 C243 0.951 . S
H219 C245 0.950 . S
H220 C246 0.950 . S
H221 C248 0.950 . S
H222 C251 0.950 . S
H223 C252 0.950 . S
H224 C254 0.950 . S
H225 C255 0.950 . S
C226 H208 0.951 . S
C226 C227 1.366 . S
C226 C228 1.388 . S
C227 C226 1.366 . S
C227 C231 1.385 . S
C228 H209 0.951 . S
C228 C226 1.388 . S
C228 C229 1.366 . S
C229 C228 1.366 . S
C229 C230 1.414 . S
C229 C232 1.499 . S
C230 H210 0.950 . S
C230 C229 1.414 . S
C230 C231 1.374 . S
C231 H211 0.950 . S
C231 C227 1.385 . S
C231 C230 1.374 . S
C232 C229 1.499 . S
C232 C233 1.373 . S
C232 C234 1.389 . S
C233 H212 0.950 . S
C233 C232 1.373 . S
C233 C249 1.377 . S
C234 C232 1.389 . S
C234 C235 1.524 . S
C234 C248 1.377 . S
C235 C234 1.524 . S
C235 C236 1.397 . S
C235 C240 1.363 . S
C236 H213 0.950 . S
C236 C235 1.397 . S
C236 C237 1.334 . S
C237 H214 0.950 . S
C237 C236 1.334 . S
C237 C238 1.287 . S
C238 C237 1.287 . S
C238 C239 1.524 . S
C238 H257 0.913 . S
C239 H215 0.950 . S
C239 C238 1.524 . S
C239 C240 1.415 . S
C240 H216 0.950 . S
C240 C235 1.363 . S
C240 C239 1.415 . S
C241 H217 0.951 . S
C241 C242 1.366 . S
C241 C243 1.388 . S
C242 C241 1.366 . S
C242 C246 1.385 . S
C243 H218 0.951 . S
C243 C241 1.388 . S
C243 C244 1.366 . S
C244 C243 1.366 . S
C244 C245 1.414 . S
C244 C247 1.499 . S
C245 H219 0.950 . S
C245 C244 1.414 . S
C245 C246 1.374 . S
C246 H220 0.950 . S
C246 C242 1.385 . S
C246 C245 1.374 . S
C247 C244 1.499 . S
C247 C248 1.373 . S
C247 C249 1.389 . S
C248 H221 0.950 . S
C248 C234 1.377 . S
C248 C247 1.373 . S
C249 C233 1.377 . S
C249 C247 1.389 . S
C249 C250 1.524 . S
C250 C249 1.524 . S
C250 C251 1.397 . S
C250 C255 1.363 . S
C251 H222 0.950 . S
C251 C250 1.397 . S
C251 C252 1.334 . S
C252 H223 0.950 . S
C252 C251 1.334 . S
C252 C253 1.287 . S
C253 C252 1.287 . S
C253 C254 1.524 . S
C253 H256 0.999 . S
C254 H224 0.950 . S
C254 C253 1.524 . S
C254 C255 1.415 . S
C255 H225 0.950 . S
C255 C250 1.363 . S
C255 C254 1.415 . S
H256 C253 0.999 . S
H257 C238 0.913 . S
H258 C276 0.951 . S
H259 C278 0.951 . S
H260 C280 0.950 . S
H261 C281 0.950 . S
H262 C283 0.950 . S
H263 C286 0.950 . S
H264 C287 0.950 . S
H265 C289 0.950 . S
H266 C290 0.950 . S
H267 C291 0.951 . S
H268 C293 0.951 . S
H269 C295 0.950 . S
H270 C296 0.950 . S
H271 C298 0.950 . S
H272 C301 0.950 . S
H273 C302 0.950 . S
H274 C304 0.950 . S
H275 C305 0.950 . S
C276 H258 0.951 . S
C276 C277 1.366 . S
C276 C278 1.388 . S
C277 C276 1.366 . S
C277 C281 1.385 . S
C278 H259 0.951 . S
C278 C276 1.388 . S
C278 C279 1.366 . S
C279 C278 1.366 . S
C279 C280 1.414 . S
C279 C282 1.499 . S
C280 H260 0.950 . S
C280 C279 1.414 . S
C280 C281 1.374 . S
C281 H261 0.950 . S
C281 C277 1.385 . S
C281 C280 1.374 . S
C282 C279 1.499 . S
C282 C283 1.373 . S
C282 C284 1.389 . S
C283 H262 0.950 . S
C283 C282 1.373 . S
C283 C299 1.377 . S
C284 C282 1.389 . S
C284 C285 1.524 . S
C284 C298 1.377 . S
C285 C284 1.524 . S
C285 C286 1.397 . S
C285 C290 1.363 . S
C286 H263 0.950 . S
C286 C285 1.397 . S
C286 C287 1.334 . S
C287 H264 0.950 . S
C287 C286 1.334 . S
C287 C288 1.287 . S
C288 C287 1.287 . S
C288 C289 1.524 . S
C288 H307 0.913 . S
C289 H265 0.950 . S
C289 C288 1.524 . S
C289 C290 1.415 . S
C290 H266 0.950 . S
C290 C285 1.363 . S
C290 C289 1.415 . S
C291 H267 0.951 . S
C291 C292 1.366 . S
C291 C293 1.388 . S
C292 C291 1.366 . S
C292 C296 1.385 . S
C293 H268 0.951 . S
C293 C291 1.388 . S
C293 C294 1.366 . S
C294 C293 1.366 . S
C294 C295 1.414 . S
C294 C297 1.499 . S
C295 H269 0.950 . S
C295 C294 1.414 . S
C295 C296 1.374 . S
C296 H270 0.950 . S
C296 C292 1.385 . S
C296 C295 1.374 . S
C297 C294 1.499 . S
C297 C298 1.373 . S
C297 C299 1.389 . S
C298 H271 0.950 . S
C298 C284 1.377 . S
C298 C297 1.373 . S
C299 C283 1.377 . S
C299 C297 1.389 . S
C299 C300 1.524 . S
C300 C299 1.524 . S
C300 C301 1.397 . S
C300 C305 1.363 . S
C301 H272 0.950 . S
C301 C300 1.397 . S
C301 C302 1.334 . S
C302 H273 0.950 . S
C302 C301 1.334 . S
C302 C303 1.287 . S
C303 C302 1.287 . S
C303 C304 1.524 . S
C303 H306 0.999 . S
C304 H274 0.950 . S
C304 C303 1.524 . S
C304 C305 1.415 . S
C305 H275 0.950 . S
C305 C300 1.363 . S
C305 C304 1.415 . S
H306 C303 0.999 . S
H307 C288 0.913 . S
H308 C326 0.951 . S
H309 C328 0.951 . S
H310 C330 0.950 . S
H311 C331 0.950 . S
H312 C333 0.950 . S
H313 C336 0.950 . S
H314 C337 0.950 . S
H315 C339 0.950 . S
H316 C340 0.950 . S
H317 C341 0.951 . S
H318 C343 0.951 . S
H319 C345 0.950 . S
H320 C346 0.950 . S
H321 C348 0.950 . S
H322 C351 0.950 . S
H323 C352 0.950 . S
H324 C354 0.950 . S
H325 C355 0.950 . S
C326 H308 0.951 . S
C326 C327 1.366 . S
C326 C328 1.388 . S
C327 C326 1.366 . S
C327 C331 1.385 . S
C328 H309 0.951 . S
C328 C326 1.388 . S
C328 C329 1.366 . S
C329 C328 1.366 . S
C329 C330 1.414 . S
C329 C332 1.499 . S
C330 H310 0.950 . S
C330 C329 1.414 . S
C330 C331 1.374 . S
C331 H311 0.950 . S
C331 C327 1.385 . S
C331 C330 1.374 . S
C332 C329 1.499 . S
C332 C333 1.373 . S
C332 C334 1.389 . S
C333 H312 0.950 . S
C333 C332 1.373 . S
C333 C349 1.377 . S
C334 C332 1.389 . S
C334 C335 1.524 . S
C334 C348 1.377 . S
C335 C334 1.524 . S
C335 C336 1.397 . S
C335 C340 1.363 . S
C336 H313 0.950 . S
C336 C335 1.397 . S
C336 C337 1.334 . S
C337 H314 0.950 . S
C337 C336 1.334 . S
C337 C338 1.287 . S
C338 C337 1.287 . S
C338 C339 1.524 . S
C338 H357 0.913 . S
C339 H315 0.950 . S
C339 C338 1.524 . S
C339 C340 1.415 . S
C340 H316 0.950 . S
C340 C335 1.363 . S
C340 C339 1.415 . S
C341 H317 0.951 . S
C341 C342 1.366 . S
C341 C343 1.388 . S
C342 C341 1.366 . S
C342 C346 1.385 . S
C343 H318 0.951 . S
C343 C341 1.388 . S
C343 C344 1.366 . S
C344 C343 1.366 . S
C344 C345 1.414 . S
C344 C347 1.499 . S
C345 H319 0.950 . S
C345 C344 1.414 . S
C345 C346 1.374 . S
C346 H320 0.950 . S
C346 C342 1.385 . S
C346 C345 1.374 . S
C347 C344 1.499 . S
C347 C348 1.373 . S
C347 C349 1.389 . S
C348 H321 0.950 . S
C348 C334 1.377 . S
C348 C347 1.373 . S
C349 C333 1.377 . S
C349 C347 1.389 . S
C349 C350 1.524 . S
C350 C349 1.524 . S
C350 C351 1.397 . S
C350 C355 1.363 . S
C351 H322 0.950 . S
C351 C350 1.397 . S
C351 C352 1.334 . S
C352 H323 0.950 . S
C352 C351 1.334 . S
C352 C353 1.287 . S
C353 C352 1.287 . S
C353 C354 1.524 . S
C353 H356 0.999 . S
C354 H324 0.950 . S
C354 C353 1.524 . S
C354 C355 1.415 . S
C355 H325 0.950 . S
C355 C350 1.363 . S
C355 C354 1.415 . S
H356 C353 0.999 . S
H357 C338 0.913 . S
H358 C376 0.951 . S
H359 C378 0.951 . S
H360 C380 0.950 . S
H361 C381 0.950 . S
H362 C383 0.950 . S
H363 C386 0.950 . S
H364 C387 0.950 . S
H365 C389 0.950 . S
H366 C390 0.950 . S
H367 C391 0.951 . S
H368 C393 0.951 . S
H369 C395 0.950 . S
H370 C396 0.950 . S
H371 C398 0.950 . S
H372 C401 0.950 . S
H373 C402 0.950 . S
H374 C404 0.950 . S
H375 C405 0.950 . S
C376 H358 0.951 . S
C376 C377 1.366 . S
C376 C378 1.388 . S
C377 C376 1.366 . S
C377 C381 1.385 . S
C378 H359 0.951 . S
C378 C376 1.388 . S
C378 C379 1.366 . S
C379 C378 1.366 . S
C379 C380 1.414 . S
C379 C382 1.499 . S
C380 H360 0.950 . S
C380 C379 1.414 . S
C380 C381 1.374 . S
C381 H361 0.950 . S
C381 C377 1.385 . S
C381 C380 1.374 . S
C382 C379 1.499 . S
C382 C383 1.373 . S
C382 C384 1.389 . S
C383 H362 0.950 . S
C383 C382 1.373 . S
C383 C399 1.377 . S
C384 C382 1.389 . S
C384 C385 1.524 . S
C384 C398 1.377 . S
C385 C384 1.524 . S
C385 C386 1.397 . S
C385 C390 1.363 . S
C386 H363 0.950 . S
C386 C385 1.397 . S
C386 C387 1.334 . S
C387 H364 0.950 . S
C387 C386 1.334 . S
C387 C388 1.287 . S
C388 C387 1.287 . S
C388 C389 1.524 . S
C388 H407 0.913 . S
C389 H365 0.950 . S
C389 C388 1.524 . S
C389 C390 1.415 . S
C390 H366 0.950 . S
C390 C385 1.363 . S
C390 C389 1.415 . S
C391 H367 0.951 . S
C391 C392 1.366 . S
C391 C393 1.388 . S
C392 C391 1.366 . S
C392 C396 1.385 . S
C393 H368 0.951 . S
C393 C391 1.388 . S
C393 C394 1.366 . S
C394 C393 1.366 . S
C394 C395 1.414 . S
C394 C397 1.499 . S
C395 H369 0.950 . S
C395 C394 1.414 . S
C395 C396 1.374 . S
C396 H370 0.950 . S
C396 C392 1.385 . S
C396 C395 1.374 . S
C397 C394 1.499 . S
C397 C398 1.373 . S
C397 C399 1.389 . S
C398 H371 0.950 . S
C398 C384 1.377 . S
C398 C397 1.373 . S
C399 C383 1.377 . S
C399 C397 1.389 . S
C399 C400 1.524 . S
C400 C399 1.524 . S
C400 C401 1.397 . S
C400 C405 1.363 . S
C401 H372 0.950 . S
C401 C400 1.397 . S
C401 C402 1.334 . S
C402 H373 0.950 . S
C402 C401 1.334 . S
C402 C403 1.287 . S
C403 C402 1.287 . S
C403 C404 1.524 . S
C403 H406 0.999 . S
C404 H374 0.950 . S
C404 C403 1.524 . S
C404 C405 1.415 . S
C405 H375 0.950 . S
C405 C400 1.363 . S
C405 C404 1.415 . S
H406 C403 0.999 . S
H407 C388 0.913 . S
H408 C426 0.951 . S
H409 C428 0.951 . S
H410 C430 0.950 . S
H411 C431 0.950 . S
H412 C433 0.950 . S
H413 C436 0.950 . S
H414 C437 0.950 . S
H415 C439 0.950 . S
H416 C440 0.950 . S
H417 C441 0.951 . S
H418 C443 0.951 . S
H419 C445 0.950 . S
H420 C446 0.950 . S
H421 C448 0.950 . S
H422 C451 0.950 . S
H423 C452 0.950 . S
H424 C454 0.950 . S
H425 C455 0.950 . S
C426 H408 0.951 . S
C426 C427 1.366 . S
C426 C428 1.388 . S
C427 C426 1.366 . S
C427 C431 1.385 . S
C428 H409 0.951 . S
C428 C426 1.388 . S
C428 C429 1.366 . S
C429 C428 1.366 . S
C429 C430 1.414 . S
C429 C432 1.499 . S
C430 H410 0.950 . S
C430 C429 1.414 . S
C430 C431 1.374 . S
C431 H411 0.950 . S
C431 C427 1.385 . S
C431 C430 1.374 . S
C432 C429 1.499 . S
C432 C433 1.373 . S
C432 C434 1.389 . S
C433 H412 0.950 . S
C433 C432 1.373 . S
C433 C449 1.377 . S
C434 C432 1.389 . S
C434 C435 1.524 . S
C434 C448 1.377 . S
C435 C434 1.524 . S
C435 C436 1.397 . S
C435 C440 1.363 . S
C436 H413 0.950 . S
C436 C435 1.397 . S
C436 C437 1.334 . S
C437 H414 0.950 . S
C437 C436 1.334 . S
C437 C438 1.287 . S
C438 C437 1.287 . S
C438 C439 1.524 . S
C438 H457 0.913 . S
C439 H415 0.950 . S
C439 C438 1.524 . S
C439 C440 1.415 . S
C440 H416 0.950 . S
C440 C435 1.363 . S
C440 C439 1.415 . S
C441 H417 0.951 . S
C441 C442 1.366 . S
C441 C443 1.388 . S
C442 C441 1.366 . S
C442 C446 1.385 . S
C443 H418 0.951 . S
C443 C441 1.388 . S
C443 C444 1.366 . S
C444 C443 1.366 . S
C444 C445 1.414 . S
C444 C447 1.499 . S
C445 H419 0.950 . S
C445 C444 1.414 . S
C445 C446 1.374 . S
C446 H420 0.950 . S
C446 C442 1.385 . S
C446 C445 1.374 . S
C447 C444 1.499 . S
C447 C448 1.373 . S
C447 C449 1.389 . S
C448 H421 0.950 . S
C448 C434 1.377 . S
C448 C447 1.373 . S
C449 C433 1.377 . S
C449 C447 1.389 . S
C449 C450 1.524 . S
C450 C449 1.524 . S
C450 C451 1.397 . S
C450 C455 1.363 . S
C451 H422 0.950 . S
C451 C450 1.397 . S
C451 C452 1.334 . S
C452 H423 0.950 . S
C452 C451 1.334 . S
C452 C453 1.287 . S
C453 C452 1.287 . S
C453 C454 1.524 . S
C453 H456 0.999 . S
C454 H424 0.950 . S
C454 C453 1.524 . S
C454 C455 1.415 . S
C455 H425 0.950 . S
C455 C450 1.363 . S
C455 C454 1.415 . S
H456 C453 0.999 . S
H457 C438 0.913 . S
H458 C476 0.951 . S
H459 C478 0.951 . S
H460 C480 0.950 . S
H461 C481 0.950 . S
H462 C483 0.950 . S
H463 C486 0.950 . S
H464 C487 0.950 . S
H465 C489 0.950 . S
H466 C490 0.950 . S
H467 C491 0.951 . S
H468 C493 0.951 . S
H469 C495 0.950 . S
H470 C496 0.950 . S
H471 C498 0.950 . S
H472 C501 0.950 . S
H473 C502 0.950 . S
H474 C504 0.950 . S
H475 C505 0.950 . S
C476 H458 0.951 . S
C476 C477 1.366 . S
C476 C478 1.388 . S
C477 C476 1.366 . S
C477 C481 1.385 . S
C478 H459 0.951 . S
C478 C476 1.388 . S
C478 C479 1.366 . S
C479 C478 1.366 . S
C479 C480 1.414 . S
C479 C482 1.499 . S
C480 H460 0.950 . S
C480 C479 1.414 . S
C480 C481 1.374 . S
C481 H461 0.950 . S
C481 C477 1.385 . S
C481 C480 1.374 . S
C482 C479 1.499 . S
C482 C483 1.373 . S
C482 C484 1.389 . S
C483 H462 0.950 . S
C483 C482 1.373 . S
C483 C499 1.377 . S
C484 C482 1.389 . S
C484 C485 1.524 . S
C484 C498 1.377 . S
C485 C484 1.524 . S
C485 C486 1.397 . S
C485 C490 1.363 . S
C486 H463 0.950 . S
C486 C485 1.397 . S
C486 C487 1.334 . S
C487 H464 0.950 . S
C487 C486 1.334 . S
C487 C488 1.287 . S
C488 C487 1.287 . S
C488 C489 1.524 . S
C488 H507 0.913 . S
C489 H465 0.950 . S
C489 C488 1.524 . S
C489 C490 1.415 . S
C490 H466 0.950 . S
C490 C485 1.363 . S
C490 C489 1.415 . S
C491 H467 0.951 . S
C491 C492 1.366 . S
C491 C493 1.388 . S
C492 C491 1.366 . S
C492 C496 1.385 . S
C493 H468 0.951 . S
C493 C491 1.388 . S
C493 C494 1.366 . S
C494 C493 1.366 . S
C494 C495 1.414 . S
C494 C497 1.499 . S
C495 H469 0.950 . S
C495 C494 1.414 . S
C495 C496 1.374 . S
C496 H470 0.950 . S
C496 C492 1.385 . S
C496 C495 1.374 . S
C497 C494 1.499 . S
C497 C498 1.373 . S
C497 C499 1.389 . S
C498 H471 0.950 . S
C498 C484 1.377 . S
C498 C497 1.373 . S
C499 C483 1.377 . S
C499 C497 1.389 . S
C499 C500 1.524 . S
C500 C499 1.524 . S
C500 C501 1.397 . S
C500 C505 1.363 . S
C501 H472 0.950 . S
C501 C500 1.397 . S
C501 C502 1.334 . S
C502 H473 0.950 . S
C502 C501 1.334 . S
C502 C503 1.287 . S
C503 C502 1.287 . S
C503 C504 1.524 . S
C503 H506 0.999 . S
C504 H474 0.950 . S
C504 C503 1.524 . S
C504 C505 1.415 . S
C505 H475 0.950 . S
C505 C500 1.363 . S
C505 C504 1.415 . S
H506 C503 0.999 . S
H507 C488 0.913 . S
H508 C526 0.951 . S
H509 C528 0.951 . S
H510 C530 0.950 . S
H511 C531 0.950 . S
H512 C533 0.950 . S
H513 C536 0.950 . S
H514 C537 0.950 . S
H515 C539 0.950 . S
H516 C540 0.950 . S
H517 C541 0.951 . S
H518 C543 0.951 . S
H519 C545 0.950 . S
H520 C546 0.950 . S
H521 C548 0.950 . S
H522 C551 0.950 . S
H523 C552 0.950 . S
H524 C554 0.950 . S
H525 C555 0.950 . S
C526 H508 0.951 . S
C526 C527 1.366 . S
C526 C528 1.388 . S
C527 C526 1.366 . S
C527 C531 1.385 . S
C528 H509 0.951 . S
C528 C526 1.388 . S
C528 C529 1.366 . S
C529 C528 1.366 . S
C529 C530 1.414 . S
C529 C532 1.499 . S
C530 H510 0.950 . S
C530 C529 1.414 . S
C530 C531 1.374 . S
C531 H511 0.950 . S
C531 C527 1.385 . S
C531 C530 1.374 . S
C532 C529 1.499 . S
C532 C533 1.373 . S
C532 C534 1.389 . S
C533 H512 0.950 . S
C533 C532 1.373 . S
C533 C549 1.377 . S
C534 C532 1.389 . S
C534 C535 1.524 . S
C534 C548 1.377 . S
C535 C534 1.524 . S
C535 C536 1.397 . S
C535 C540 1.363 . S
C536 H513 0.950 . S
C536 C535 1.397 . S
C536 C537 1.334 . S
C537 H514 0.950 . S
C537 C536 1.334 . S
C537 C538 1.287 . S
C538 C537 1.287 . S
C538 C539 1.524 . S
C538 H557 0.913 . S
C539 H515 0.950 . S
C539 C538 1.524 . S
C539 C540 1.415 . S
C540 H516 0.950 . S
C540 C535 1.363 . S
C540 C539 1.415 . S
C541 H517 0.951 . S
C541 C542 1.366 . S
C541 C543 1.388 . S
C542 C541 1.366 . S
C542 C546 1.385 . S
C543 H518 0.951 . S
C543 C541 1.388 . S
C543 C544 1.366 . S
C544 C543 1.366 . S
C544 C545 1.414 . S
C544 C547 1.499 . S
C545 H519 0.950 . S
C545 C544 1.414 . S
C545 C546 1.374 . S
C546 H520 0.950 . S
C546 C542 1.385 . S
C546 C545 1.374 . S
C547 C544 1.499 . S
C547 C548 1.373 . S
C547 C549 1.389 . S
C548 H521 0.950 . S
C548 C534 1.377 . S
C548 C547 1.373 . S
C549 C533 1.377 . S
C549 C547 1.389 . S
C549 C550 1.524 . S
C550 C549 1.524 . S
C550 C551 1.397 . S
C550 C555 1.363 . S
C551 H522 0.950 . S
C551 C550 1.397 . S
C551 C552 1.334 . S
C552 H523 0.950 . S
C552 C551 1.334 . S
C552 C553 1.287 . S
C553 C552 1.287 . S
C553 C554 1.524 . S
C553 H556 0.999 . S
C554 H524 0.950 . S
C554 C553 1.524 . S
C554 C555 1.415 . S
C555 H525 0.950 . S
C555 C550 1.363 . S
C555 C554 1.415 . S
H556 C553 0.999 . S
H557 C538 0.913 . S
H558 C576 0.951 . S
H559 C578 0.951 . S
H560 C580 0.950 . S
H561 C581 0.950 . S
H562 C583 0.950 . S
H563 C586 0.950 . S
H564 C587 0.950 . S
H565 C589 0.950 . S
H566 C590 0.950 . S
H567 C591 0.951 . S
H568 C593 0.951 . S
H569 C595 0.950 . S
H570 C596 0.950 . S
H571 C598 0.950 . S
H572 C601 0.950 . S
H573 C602 0.950 . S
H574 C604 0.950 . S
H575 C605 0.950 . S
C576 H558 0.951 . S
C576 C577 1.366 . S
C576 C578 1.388 . S
C577 C576 1.366 . S
C577 C581 1.385 . S
C578 H559 0.951 . S
C578 C576 1.388 . S
C578 C579 1.366 . S
C579 C578 1.366 . S
C579 C580 1.414 . S
C579 C582 1.499 . S
C580 H560 0.950 . S
C580 C579 1.414 . S
C580 C581 1.374 . S
C581 H561 0.950 . S
C581 C577 1.385 . S
C581 C580 1.374 . S
C582 C579 1.499 . S
C582 C583 1.373 . S
C582 C584 1.389 . S
C583 H562 0.950 . S
C583 C582 1.373 . S
C583 C599 1.377 . S
C584 C582 1.389 . S
C584 C585 1.524 . S
C584 C598 1.377 . S
C585 C584 1.524 . S
C585 C586 1.397 . S
C585 C590 1.363 . S
C586 H563 0.950 . S
C586 C585 1.397 . S
C586 C587 1.334 . S
C587 H564 0.950 . S
C587 C586 1.334 . S
C587 C588 1.287 . S
C588 C587 1.287 . S
C588 C589 1.524 . S
C588 H607 0.913 . S
C589 H565 0.950 . S
C589 C588 1.524 . S
C589 C590 1.415 . S
C590 H566 0.950 . S
C590 C585 1.363 . S
C590 C589 1.415 . S
C591 H567 0.951 . S
C591 C592 1.366 . S
C591 C593 1.388 . S
C592 C591 1.366 . S
C592 C596 1.385 . S
C593 H568 0.951 . S
C593 C591 1.388 . S
C593 C594 1.366 . S
C594 C593 1.366 . S
C594 C595 1.414 . S
C594 C597 1.499 . S
C595 H569 0.950 . S
C595 C594 1.414 . S
C595 C596 1.374 . S
C596 H570 0.950 . S
C596 C592 1.385 . S
C596 C595 1.374 . S
C597 C594 1.499 . S
C597 C598 1.373 . S
C597 C599 1.389 . S
C598 H571 0.950 . S
C598 C584 1.377 . S
C598 C597 1.373 . S
C599 C583 1.377 . S
C599 C597 1.389 . S
C599 C600 1.524 . S
C600 C599 1.524 . S
C600 C601 1.397 . S
C600 C605 1.363 . S
C601 H572 0.950 . S
C601 C600 1.397 . S
C601 C602 1.334 . S
C602 H573 0.950 . S
C602 C601 1.334 . S
C602 C603 1.287 . S
C603 C602 1.287 . S
C603 C604 1.524 . S
C603 H606 0.999 . S
C604 H574 0.950 . S
C604 C603 1.524 . S
C604 C605 1.415 . S
C605 H575 0.950 . S
C605 C600 1.363 . S
C605 C604 1.415 . S
H606 C603 0.999 . S
H607 C588 0.913 . S
H608 C626 0.951 . S
H609 C628 0.951 . S
H610 C630 0.950 . S
H611 C631 0.950 . S
H612 C633 0.950 . S
H613 C636 0.950 . S
H614 C637 0.950 . S
H615 C639 0.950 . S
H616 C640 0.950 . S
H617 C641 0.951 . S
H618 C643 0.951 . S
H619 C645 0.950 . S
H620 C646 0.950 . S
H621 C648 0.950 . S
H622 C651 0.950 . S
H623 C652 0.950 . S
H624 C654 0.950 . S
H625 C655 0.950 . S
C626 H608 0.951 . S
C626 C627 1.366 . S
C626 C628 1.388 . S
C627 C626 1.366 . S
C627 C631 1.385 . S
C628 H609 0.951 . S
C628 C626 1.388 . S
C628 C629 1.366 . S
C629 C628 1.366 . S
C629 C630 1.414 . S
C629 C632 1.499 . S
C630 H610 0.950 . S
C630 C629 1.414 . S
C630 C631 1.374 . S
C631 H611 0.950 . S
C631 C627 1.385 . S
C631 C630 1.374 . S
C632 C629 1.499 . S
C632 C633 1.373 . S
C632 C634 1.389 . S
C633 H612 0.950 . S
C633 C632 1.373 . S
C633 C649 1.377 1_556 S
C634 C632 1.389 . S
C634 C635 1.524 . S
C634 C648 1.377 1_556 S
C635 C634 1.524 . S
C635 C636 1.397 . S
C635 C640 1.363 . S
C636 H613 0.950 . S
C636 C635 1.397 . S
C636 C637 1.334 . S
C637 H614 0.950 . S
C637 C636 1.334 . S
C637 C638 1.287 . S
C638 C637 1.287 . S
C638 C639 1.524 . S
C638 H657 0.913 . S
C639 H615 0.950 . S
C639 C638 1.524 . S
C639 C640 1.415 . S
C640 H616 0.950 . S
C640 C635 1.363 . S
C640 C639 1.415 . S
C641 H617 0.951 . S
C641 C642 1.366 . S
C641 C643 1.388 . S
C642 C641 1.366 . S
C642 C646 1.385 . S
C643 H618 0.951 . S
C643 C641 1.388 . S
C643 C644 1.366 . S
C644 C643 1.366 . S
C644 C645 1.414 . S
C644 C647 1.499 . S
C645 H619 0.950 . S
C645 C644 1.414 . S
C645 C646 1.374 . S
C646 H620 0.950 . S
C646 C642 1.385 . S
C646 C645 1.374 . S
C647 C644 1.499 . S
C647 C648 1.373 . S
C647 C649 1.389 . S
C648 H621 0.950 . S
C648 C634 1.377 1_554 S
C648 C647 1.373 . S
C649 C633 1.377 1_554 S
C649 C647 1.389 . S
C649 C650 1.524 . S
C650 C649 1.524 . S
C650 C651 1.397 . S
C650 C655 1.363 . S
C651 H622 0.950 . S
C651 C650 1.397 . S
C651 C652 1.334 . S
C652 H623 0.950 . S
C652 C651 1.334 . S
C652 C653 1.287 . S
C653 C652 1.287 . S
C653 C654 1.524 . S
C653 H656 0.999 . S
C654 H624 0.950 . S
C654 C653 1.524 . S
C654 C655 1.415 . S
C655 H625 0.950 . S
C655 C650 1.363 . S
C655 C654 1.415 . S
H656 C653 0.999 . S
H657 C638 0.913 . S
H658 C676 0.951 . S
H659 C678 0.951 . S
H660 C680 0.950 . S
H661 C681 0.950 . S
H662 C683 0.950 . S
H663 C686 0.950 . S
H664 C687 0.950 . S
H665 C689 0.950 . S
H666 C690 0.950 . S
H667 C691 0.951 . S
H668 C693 0.951 . S
H669 C695 0.950 . S
H670 C696 0.950 . S
H671 C698 0.950 . S
H672 C701 0.950 . S
H673 C702 0.950 . S
H674 C704 0.950 . S
H675 C705 0.950 . S
C676 H658 0.951 . S
C676 C677 1.366 . S
C676 C678 1.388 . S
C677 C676 1.366 . S
C677 C681 1.385 . S
C678 H659 0.951 . S
C678 C676 1.388 . S
C678 C679 1.366 . S
C679 C678 1.366 . S
C679 C680 1.414 . S
C679 C682 1.499 . S
C680 H660 0.950 . S
C680 C679 1.414 . S
C680 C681 1.374 . S
C681 H661 0.950 . S
C681 C677 1.385 . S
C681 C680 1.374 . S
C682 C679 1.499 . S
C682 C683 1.373 . S
C682 C684 1.389 . S
C683 H662 0.950 . S
C683 C682 1.373 . S
C683 C699 1.377 1_556 S
C684 C682 1.389 . S
C684 C685 1.524 . S
C684 C698 1.377 1_556 S
C685 C684 1.524 . S
C685 C686 1.397 . S
C685 C690 1.363 . S
C686 H663 0.950 . S
C686 C685 1.397 . S
C686 C687 1.334 . S
C687 H664 0.950 . S
C687 C686 1.334 . S
C687 C688 1.287 . S
C688 C687 1.287 . S
C688 C689 1.524 . S
C688 H707 0.913 . S
C689 H665 0.950 . S
C689 C688 1.524 . S
C689 C690 1.415 . S
C690 H666 0.950 . S
C690 C685 1.363 . S
C690 C689 1.415 . S
C691 H667 0.951 . S
C691 C692 1.366 . S
C691 C693 1.388 . S
C692 C691 1.366 . S
C692 C696 1.385 . S
C693 H668 0.951 . S
C693 C691 1.388 . S
C693 C694 1.366 . S
C694 C693 1.366 . S
C694 C695 1.414 . S
C694 C697 1.499 . S
C695 H669 0.950 . S
C695 C694 1.414 . S
C695 C696 1.374 . S
C696 H670 0.950 . S
C696 C692 1.385 . S
C696 C695 1.374 . S
C697 C694 1.499 . S
C697 C698 1.373 . S
C697 C699 1.389 . S
C698 H671 0.950 . S
C698 C684 1.377 1_554 S
C698 C697 1.373 . S
C699 C683 1.377 1_554 S
C699 C697 1.389 . S
C699 C700 1.524 . S
C700 C699 1.524 . S
C700 C701 1.397 . S
C700 C705 1.363 . S
C701 H672 0.950 . S
C701 C700 1.397 . S
C701 C702 1.334 . S
C702 H673 0.950 . S
C702 C701 1.334 . S
C702 C703 1.287 . S
C703 C702 1.287 . S
C703 C704 1.524 . S
C703 H706 0.999 . S
C704 H674 0.950 . S
C704 C703 1.524 . S
C704 C705 1.415 . S
C705 H675 0.950 . S
C705 C700 1.363 . S
C705 C704 1.415 . S
H706 C703 0.999 . S
H707 C688 0.913 . S
H708 C726 0.951 . S
H709 C728 0.951 . S
H710 C730 0.950 . S
H711 C731 0.950 . S
H712 C733 0.950 . S
H713 C736 0.950 . S
H714 C737 0.950 . S
H715 C739 0.950 . S
H716 C740 0.950 . S
H717 C741 0.951 . S
H718 C743 0.951 . S
H719 C745 0.950 . S
H720 C746 0.950 . S
H721 C748 0.950 . S
H722 C751 0.950 . S
H723 C752 0.950 . S
H724 C754 0.950 . S
H725 C755 0.950 . S
C726 H708 0.951 . S
C726 C727 1.366 . S
C726 C728 1.388 . S
C727 C726 1.366 . S
C727 C731 1.385 . S
C728 H709 0.951 . S
C728 C726 1.388 . S
C728 C729 1.366 . S
C729 C728 1.366 . S
C729 C730 1.414 . S
C729 C732 1.499 . S
C730 H710 0.950 . S
C730 C729 1.414 . S
C730 C731 1.374 . S
C731 H711 0.950 . S
C731 C727 1.385 . S
C731 C730 1.374 . S
C732 C729 1.499 . S
C732 C733 1.373 . S
C732 C734 1.389 . S
C733 H712 0.950 . S
C733 C732 1.373 . S
C733 C749 1.377 1_556 S
C734 C732 1.389 . S
C734 C735 1.524 . S
C734 C748 1.377 1_556 S
C735 C734 1.524 . S
C735 C736 1.397 . S
C735 C740 1.363 . S
C736 H713 0.950 . S
C736 C735 1.397 . S
C736 C737 1.334 . S
C737 H714 0.950 . S
C737 C736 1.334 . S
C737 C738 1.287 . S
C738 C737 1.287 . S
C738 C739 1.524 . S
C738 H757 0.913 . S
C739 H715 0.950 . S
C739 C738 1.524 . S
C739 C740 1.415 . S
C740 H716 0.950 . S
C740 C735 1.363 . S
C740 C739 1.415 . S
C741 H717 0.951 . S
C741 C742 1.366 . S
C741 C743 1.388 . S
C742 C741 1.366 . S
C742 C746 1.385 . S
C743 H718 0.951 . S
C743 C741 1.388 . S
C743 C744 1.366 . S
C744 C743 1.366 . S
C744 C745 1.414 . S
C744 C747 1.499 . S
C745 H719 0.950 . S
C745 C744 1.414 . S
C745 C746 1.374 . S
C746 H720 0.950 . S
C746 C742 1.385 . S
C746 C745 1.374 . S
C747 C744 1.499 . S
C747 C748 1.373 . S
C747 C749 1.389 . S
C748 H721 0.950 . S
C748 C734 1.377 1_554 S
C748 C747 1.373 . S
C749 C733 1.377 1_554 S
C749 C747 1.389 . S
C749 C750 1.524 . S
C750 C749 1.524 . S
C750 C751 1.397 . S
C750 C755 1.363 . S
C751 H722 0.950 . S
C751 C750 1.397 . S
C751 C752 1.334 . S
C752 H723 0.950 . S
C752 C751 1.334 . S
C752 C753 1.287 . S
C753 C752 1.287 . S
C753 C754 1.524 . S
C753 H756 0.999 . S
C754 H724 0.950 . S
C754 C753 1.524 . S
C754 C755 1.415 . S
C755 H725 0.950 . S
C755 C750 1.363 . S
C755 C754 1.415 . S
H756 C753 0.999 . S
H757 C738 0.913 . S
H758 C776 0.951 . S
H759 C778 0.951 . S
H760 C780 0.950 . S
H761 C781 0.950 . S
H762 C783 0.950 . S
H763 C786 0.950 . S
H764 C787 0.950 . S
H765 C789 0.950 . S
H766 C790 0.950 . S
H767 C791 0.951 . S
H768 C793 0.951 . S
H769 C795 0.950 . S
H770 C796 0.950 . S
H771 C798 0.950 . S
H772 C801 0.950 . S
H773 C802 0.950 . S
H774 C804 0.950 . S
H775 C805 0.950 . S
C776 H758 0.951 . S
C776 C777 1.366 . S
C776 C778 1.388 . S
C777 C776 1.366 . S
C777 C781 1.385 . S
C778 H759 0.951 . S
C778 C776 1.388 . S
C778 C779 1.366 . S
C779 C778 1.366 . S
C779 C780 1.414 . S
C779 C782 1.499 . S
C780 H760 0.950 . S
C780 C779 1.414 . S
C780 C781 1.374 . S
C781 H761 0.950 . S
C781 C777 1.385 . S
C781 C780 1.374 . S
C782 C779 1.499 . S
C782 C783 1.373 . S
C782 C784 1.389 . S
C783 H762 0.950 . S
C783 C782 1.373 . S
C783 C799 1.377 1_554 S
C784 C782 1.389 . S
C784 C785 1.524 . S
C784 C798 1.377 1_554 S
C785 C784 1.524 . S
C785 C786 1.397 . S
C785 C790 1.363 . S
C786 H763 0.950 . S
C786 C785 1.397 . S
C786 C787 1.334 . S
C787 H764 0.950 . S
C787 C786 1.334 . S
C787 C788 1.287 . S
C788 C787 1.287 . S
C788 C789 1.524 . S
C788 H807 0.913 . S
C789 H765 0.950 . S
C789 C788 1.524 . S
C789 C790 1.415 . S
C790 H766 0.950 . S
C790 C785 1.363 . S
C790 C789 1.415 . S
C791 H767 0.951 . S
C791 C792 1.366 . S
C791 C793 1.388 . S
C792 C791 1.366 . S
C792 C796 1.385 . S
C793 H768 0.951 . S
C793 C791 1.388 . S
C793 C794 1.366 . S
C794 C793 1.366 . S
C794 C795 1.414 . S
C794 C797 1.499 . S
C795 H769 0.950 . S
C795 C794 1.414 . S
C795 C796 1.374 . S
C796 H770 0.950 . S
C796 C792 1.385 . S
C796 C795 1.374 . S
C797 C794 1.499 . S
C797 C798 1.373 . S
C797 C799 1.389 . S
C798 H771 0.950 . S
C798 C784 1.377 1_556 S
C798 C797 1.373 . S
C799 C783 1.377 1_556 S
C799 C797 1.389 . S
C799 C800 1.524 . S
C800 C799 1.524 . S
C800 C801 1.397 . S
C800 C805 1.363 . S
C801 H772 0.950 . S
C801 C800 1.397 . S
C801 C802 1.334 . S
C802 H773 0.950 . S
C802 C801 1.334 . S
C802 C803 1.287 . S
C803 C802 1.287 . S
C803 C804 1.524 . S
C803 H806 0.999 . S
C804 H774 0.950 . S
C804 C803 1.524 . S
C804 C805 1.415 . S
C805 H775 0.950 . S
C805 C800 1.363 . S
C805 C804 1.415 . S
H806 C803 0.999 . S
H807 C788 0.913 . S
H808 C826 0.951 . S
H809 C828 0.951 . S
H810 C830 0.950 . S
H811 C831 0.950 . S
H812 C833 0.950 . S
H813 C836 0.950 . S
H814 C837 0.950 . S
H815 C839 0.950 . S
H816 C840 0.950 . S
H817 C841 0.951 . S
H818 C843 0.951 . S
H819 C845 0.950 . S
H820 C846 0.950 . S
H821 C848 0.950 . S
H822 C851 0.950 . S
H823 C852 0.950 . S
H824 C854 0.950 . S
H825 C855 0.950 . S
C826 H808 0.951 . S
C826 C827 1.366 . S
C826 C828 1.388 . S
C827 C826 1.366 . S
C827 C831 1.385 . S
C828 H809 0.951 . S
C828 C826 1.388 . S
C828 C829 1.366 . S
C829 C828 1.366 . S
C829 C830 1.414 . S
C829 C832 1.499 . S
C830 H810 0.950 . S
C830 C829 1.414 . S
C830 C831 1.374 . S
C831 H811 0.950 . S
C831 C827 1.385 . S
C831 C830 1.374 . S
C832 C829 1.499 . S
C832 C833 1.373 . S
C832 C834 1.389 . S
C833 H812 0.950 . S
C833 C832 1.373 . S
C833 C849 1.377 . S
C834 C832 1.389 . S
C834 C835 1.524 . S
C834 C848 1.377 . S
C835 C834 1.524 . S
C835 C836 1.397 . S
C835 C840 1.363 . S
C836 H813 0.950 . S
C836 C835 1.397 . S
C836 C837 1.334 . S
C837 H814 0.950 . S
C837 C836 1.334 . S
C837 C838 1.287 . S
C838 C837 1.287 . S
C838 C839 1.524 . S
C838 H857 0.913 . S
C839 H815 0.950 . S
C839 C838 1.524 . S
C839 C840 1.415 . S
C840 H816 0.950 . S
C840 C835 1.363 . S
C840 C839 1.415 . S
C841 H817 0.951 . S
C841 C842 1.366 . S
C841 C843 1.388 . S
C842 C841 1.366 . S
C842 C846 1.385 . S
C843 H818 0.951 . S
C843 C841 1.388 . S
C843 C844 1.366 . S
C844 C843 1.366 . S
C844 C845 1.414 . S
C844 C847 1.499 . S
C845 H819 0.950 . S
C845 C844 1.414 . S
C845 C846 1.374 . S
C846 H820 0.950 . S
C846 C842 1.385 . S
C846 C845 1.374 . S
C847 C844 1.499 . S
C847 C848 1.373 . S
C847 C849 1.389 . S
C848 H821 0.950 . S
C848 C834 1.377 . S
C848 C847 1.373 . S
C849 C833 1.377 . S
C849 C847 1.389 . S
C849 C850 1.524 . S
C850 C849 1.524 . S
C850 C851 1.397 . S
C850 C855 1.363 . S
C851 H822 0.950 . S
C851 C850 1.397 . S
C851 C852 1.334 . S
C852 H823 0.950 . S
C852 C851 1.334 . S
C852 C853 1.287 . S
C853 C852 1.287 . S
C853 C854 1.524 . S
C853 H856 0.999 . S
C854 H824 0.950 . S
C854 C853 1.524 . S
C854 C855 1.415 . S
C855 H825 0.950 . S
C855 C850 1.363 . S
C855 C854 1.415 . S
H856 C853 0.999 . S
H857 C838 0.913 . S
H858 C876 0.951 . S
H859 C878 0.951 . S
H860 C880 0.950 . S
H861 C881 0.950 . S
H862 C883 0.950 . S
H863 C886 0.950 . S
H864 C887 0.950 . S
H865 C889 0.950 . S
H866 C890 0.950 . S
H867 C891 0.951 . S
H868 C893 0.951 . S
H869 C895 0.950 . S
H870 C896 0.950 . S
H871 C898 0.950 . S
H872 C901 0.950 . S
H873 C902 0.950 . S
H874 C904 0.950 . S
H875 C905 0.950 . S
C876 H858 0.951 . S
C876 C877 1.366 . S
C876 C878 1.388 . S
C877 C876 1.366 . S
C877 C881 1.385 . S
C878 H859 0.951 . S
C878 C876 1.388 . S
C878 C879 1.366 . S
C879 C878 1.366 . S
C879 C880 1.414 . S
C879 C882 1.499 . S
C880 H860 0.950 . S
C880 C879 1.414 . S
C880 C881 1.374 . S
C881 H861 0.950 . S
C881 C877 1.385 . S
C881 C880 1.374 . S
C882 C879 1.499 . S
C882 C883 1.373 . S
C882 C884 1.389 . S
C883 H862 0.950 . S
C883 C882 1.373 . S
C883 C899 1.377 . S
C884 C882 1.389 . S
C884 C885 1.524 . S
C884 C898 1.377 . S
C885 C884 1.524 . S
C885 C886 1.397 . S
C885 C890 1.363 . S
C886 H863 0.950 . S
C886 C885 1.397 . S
C886 C887 1.334 . S
C887 H864 0.950 . S
C887 C886 1.334 . S
C887 C888 1.287 . S
C888 C887 1.287 . S
C888 C889 1.524 . S
C888 H907 0.913 . S
C889 H865 0.950 . S
C889 C888 1.524 . S
C889 C890 1.415 . S
C890 H866 0.950 . S
C890 C885 1.363 . S
C890 C889 1.415 . S
C891 H867 0.951 . S
C891 C892 1.366 . S
C891 C893 1.388 . S
C892 C891 1.366 . S
C892 C896 1.385 . S
C893 H868 0.951 . S
C893 C891 1.388 . S
C893 C894 1.366 . S
C894 C893 1.366 . S
C894 C895 1.414 . S
C894 C897 1.499 . S
C895 H869 0.950 . S
C895 C894 1.414 . S
C895 C896 1.374 . S
C896 H870 0.950 . S
C896 C892 1.385 . S
C896 C895 1.374 . S
C897 C894 1.499 . S
C897 C898 1.373 . S
C897 C899 1.389 . S
C898 H871 0.950 . S
C898 C884 1.377 . S
C898 C897 1.373 . S
C899 C883 1.377 . S
C899 C897 1.389 . S
C899 C900 1.524 . S
C900 C899 1.524 . S
C900 C901 1.397 . S
C900 C905 1.363 . S
C901 H872 0.950 . S
C901 C900 1.397 . S
C901 C902 1.334 . S
C902 H873 0.950 . S
C902 C901 1.334 . S
C902 C903 1.287 . S
C903 C902 1.287 . S
C903 C904 1.524 . S
C903 H906 0.999 . S
C904 H874 0.950 . S
C904 C903 1.524 . S
C904 C905 1.415 . S
C905 H875 0.950 . S
C905 C900 1.363 . S
C905 C904 1.415 . S
H906 C903 0.999 . S
H907 C888 0.913 . S
H908 C926 0.951 . S
H909 C928 0.951 . S
H910 C930 0.950 . S
H911 C931 0.950 . S
H912 C933 0.950 . S
H913 C936 0.950 . S
H914 C937 0.950 . S
H915 C939 0.950 . S
H916 C940 0.950 . S
H917 C941 0.951 . S
H918 C943 0.951 . S
H919 C945 0.950 . S
H920 C946 0.950 . S
H921 C948 0.950 . S
H922 C951 0.950 . S
H923 C952 0.950 . S
H924 C954 0.950 . S
H925 C955 0.950 . S
C926 H908 0.951 . S
C926 C927 1.366 . S
C926 C928 1.388 . S
C927 C926 1.366 . S
C927 C931 1.385 . S
C928 H909 0.951 . S
C928 C926 1.388 . S
C928 C929 1.366 . S
C929 C928 1.366 . S
C929 C930 1.414 . S
C929 C932 1.499 . S
C930 H910 0.950 . S
C930 C929 1.414 . S
C930 C931 1.374 . S
C931 H911 0.950 . S
C931 C927 1.385 . S
C931 C930 1.374 . S
C932 C929 1.499 . S
C932 C933 1.373 . S
C932 C934 1.389 . S
C933 H912 0.950 . S
C933 C932 1.373 . S
C933 C949 1.377 . S
C934 C932 1.389 . S
C934 C935 1.524 . S
C934 C948 1.377 . S
C935 C934 1.524 . S
C935 C936 1.397 . S
C935 C940 1.363 . S
C936 H913 0.950 . S
C936 C935 1.397 . S
C936 C937 1.334 . S
C937 H914 0.950 . S
C937 C936 1.334 . S
C937 C938 1.287 . S
C938 C937 1.287 . S
C938 C939 1.524 . S
C938 H957 0.913 . S
C939 H915 0.950 . S
C939 C938 1.524 . S
C939 C940 1.415 . S
C940 H916 0.950 . S
C940 C935 1.363 . S
C940 C939 1.415 . S
C941 H917 0.951 . S
C941 C942 1.366 . S
C941 C943 1.388 . S
C942 C941 1.366 . S
C942 C946 1.385 . S
C943 H918 0.951 . S
C943 C941 1.388 . S
C943 C944 1.366 . S
C944 C943 1.366 . S
C944 C945 1.414 . S
C944 C947 1.499 . S
C945 H919 0.950 . S
C945 C944 1.414 . S
C945 C946 1.374 . S
C946 H920 0.950 . S
C946 C942 1.385 . S
C946 C945 1.374 . S
C947 C944 1.499 . S
C947 C948 1.373 . S
C947 C949 1.389 . S
C948 H921 0.950 . S
C948 C934 1.377 . S
C948 C947 1.373 . S
C949 C933 1.377 . S
C949 C947 1.389 . S
C949 C950 1.524 . S
C950 C949 1.524 . S
C950 C951 1.397 . S
C950 C955 1.363 . S
C951 H922 0.950 . S
C951 C950 1.397 . S
C951 C952 1.334 . S
C952 H923 0.950 . S
C952 C951 1.334 . S
C952 C953 1.287 . S
C953 C952 1.287 . S
C953 C954 1.524 . S
C953 H956 0.999 . S
C954 H924 0.950 . S
C954 C953 1.524 . S
C954 C955 1.415 . S
C955 H925 0.950 . S
C955 C950 1.363 . S
C955 C954 1.415 . S
H956 C953 0.999 . S
H957 C938 0.913 . S
H958 C976 0.951 . S
H959 C978 0.951 . S
H960 C980 0.950 . S
H961 C981 0.950 . S
H962 C983 0.950 . S
H963 C986 0.950 . S
H964 C987 0.950 . S
H965 C989 0.950 . S
H966 C990 0.950 . S
H967 C991 0.951 . S
H968 C993 0.951 . S
H969 C995 0.950 . S
H970 C996 0.950 . S
H971 C998 0.950 . S
H972 C1001 0.950 . S
H973 C1002 0.950 . S
H974 C1004 0.950 . S
H975 C1005 0.950 . S
C976 H958 0.951 . S
C976 C977 1.366 . S
C976 C978 1.388 . S
C977 C976 1.366 . S
C977 C981 1.385 . S
C978 H959 0.951 . S
C978 C976 1.388 . S
C978 C979 1.366 . S
C979 C978 1.366 . S
C979 C980 1.414 . S
C979 C982 1.499 . S
C980 H960 0.950 . S
C980 C979 1.414 . S
C980 C981 1.374 . S
C981 H961 0.950 . S
C981 C977 1.385 . S
C981 C980 1.374 . S
C982 C979 1.499 . S
C982 C983 1.373 . S
C982 C984 1.389 . S
C983 H962 0.950 . S
C983 C982 1.373 . S
C983 C999 1.377 . S
C984 C982 1.389 . S
C984 C985 1.524 . S
C984 C998 1.377 . S
C985 C984 1.524 . S
C985 C986 1.397 . S
C985 C990 1.363 . S
C986 H963 0.950 . S
C986 C985 1.397 . S
C986 C987 1.334 . S
C987 H964 0.950 . S
C987 C986 1.334 . S
C987 C988 1.287 . S
C988 C987 1.287 . S
C988 C989 1.524 . S
C988 H1007 0.913 . S
C989 H965 0.950 . S
C989 C988 1.524 . S
C989 C990 1.415 . S
C990 H966 0.950 . S
C990 C985 1.363 . S
C990 C989 1.415 . S
C991 H967 0.951 . S
C991 C992 1.366 . S
C991 C993 1.388 . S
C992 C991 1.366 . S
C992 C996 1.385 . S
C993 H968 0.951 . S
C993 C991 1.388 . S
C993 C994 1.366 . S
C994 C993 1.366 . S
C994 C995 1.414 . S
C994 C997 1.499 . S
C995 H969 0.950 . S
C995 C994 1.414 . S
C995 C996 1.374 . S
C996 H970 0.950 . S
C996 C992 1.385 . S
C996 C995 1.374 . S
C997 C994 1.499 . S
C997 C998 1.373 . S
C997 C999 1.389 . S
C998 H971 0.950 . S
C998 C984 1.377 . S
C998 C997 1.373 . S
C999 C983 1.377 . S
C999 C997 1.389 . S
C999 C1000 1.524 . S
C1000 C999 1.524 . S
C1000 C1001 1.397 . S
C1000 C1005 1.363 . S
C1001 H972 0.950 . S
C1001 C1000 1.397 . S
C1001 C1002 1.334 . S
C1002 H973 0.950 . S
C1002 C1001 1.334 . S
C1002 C1003 1.287 . S
C1003 C1002 1.287 . S
C1003 C1004 1.524 . S
C1003 H1006 0.999 . S
C1004 H974 0.950 . S
C1004 C1003 1.524 . S
C1004 C1005 1.415 . S
C1005 H975 0.950 . S
C1005 C1000 1.363 . S
C1005 C1004 1.415 . S
H1006 C1003 0.999 . S
H1007 C988 0.913 . S
H1008 C1026 0.951 . S
H1009 C1028 0.951 . S
H1010 C1030 0.950 . S
H1011 C1031 0.950 . S
H1012 C1033 0.950 . S
H1013 C1036 0.950 . S
H1014 C1037 0.950 . S
H1015 C1039 0.950 . S
H1016 C1040 0.950 . S
H1017 C1041 0.951 . S
H1018 C1043 0.951 . S
H1019 C1045 0.950 . S
H1020 C1046 0.950 . S
H1021 C1048 0.950 . S
H1022 C1051 0.950 . S
H1023 C1052 0.950 . S
H1024 C1054 0.950 . S
H1025 C1055 0.950 . S
C1026 H1008 0.951 . S
C1026 C1027 1.366 . S
C1026 C1028 1.388 . S
C1027 C1026 1.366 . S
C1027 C1031 1.385 . S
C1028 H1009 0.951 . S
C1028 C1026 1.388 . S
C1028 C1029 1.366 . S
C1029 C1028 1.366 . S
C1029 C1030 1.414 . S
C1029 C1032 1.499 . S
C1030 H1010 0.950 . S
C1030 C1029 1.414 . S
C1030 C1031 1.374 . S
C1031 H1011 0.950 . S
C1031 C1027 1.385 . S
C1031 C1030 1.374 . S
C1032 C1029 1.499 . S
C1032 C1033 1.373 . S
C1032 C1034 1.389 . S
C1033 H1012 0.950 . S
C1033 C1032 1.373 . S
C1033 C1049 1.377 . S
C1034 C1032 1.389 . S
C1034 C1035 1.524 . S
C1034 C1048 1.377 . S
C1035 C1034 1.524 . S
C1035 C1036 1.397 . S
C1035 C1040 1.363 . S
C1036 H1013 0.950 . S
C1036 C1035 1.397 . S
C1036 C1037 1.334 . S
C1037 H1014 0.950 . S
C1037 C1036 1.334 . S
C1037 C1038 1.287 . S
C1038 C1037 1.287 . S
C1038 C1039 1.524 . S
C1038 H1057 0.913 . S
C1039 H1015 0.950 . S
C1039 C1038 1.524 . S
C1039 C1040 1.415 . S
C1040 H1016 0.950 . S
C1040 C1035 1.363 . S
C1040 C1039 1.415 . S
C1041 H1017 0.951 . S
C1041 C1042 1.366 . S
C1041 C1043 1.388 . S
C1042 C1041 1.366 . S
C1042 C1046 1.385 . S
C1043 H1018 0.951 . S
C1043 C1041 1.388 . S
C1043 C1044 1.366 . S
C1044 C1043 1.366 . S
C1044 C1045 1.414 . S
C1044 C1047 1.499 . S
C1045 H1019 0.950 . S
C1045 C1044 1.414 . S
C1045 C1046 1.374 . S
C1046 H1020 0.950 . S
C1046 C1042 1.385 . S
C1046 C1045 1.374 . S
C1047 C1044 1.499 . S
C1047 C1048 1.373 . S
C1047 C1049 1.389 . S
C1048 H1021 0.950 . S
C1048 C1034 1.377 . S
C1048 C1047 1.373 . S
C1049 C1033 1.377 . S
C1049 C1047 1.389 . S
C1049 C1050 1.524 . S
C1050 C1049 1.524 . S
C1050 C1051 1.397 . S
C1050 C1055 1.363 . S
C1051 H1022 0.950 . S
C1051 C1050 1.397 . S
C1051 C1052 1.334 . S
C1052 H1023 0.950 . S
C1052 C1051 1.334 . S
C1052 C1053 1.287 . S
C1053 C1052 1.287 . S
C1053 C1054 1.524 . S
C1053 H1056 0.999 . S
C1054 H1024 0.950 . S
C1054 C1053 1.524 . S
C1054 C1055 1.415 . S
C1055 H1025 0.950 . S
C1055 C1050 1.363 . S
C1055 C1054 1.415 . S
H1056 C1053 0.999 . S
H1057 C1038 0.913 . S
H1058 C1076 0.951 . S
H1059 C1078 0.951 . S
H1060 C1080 0.950 . S
H1061 C1081 0.950 . S
H1062 C1083 0.950 . S
H1063 C1086 0.950 . S
H1064 C1087 0.950 . S
H1065 C1089 0.950 . S
H1066 C1090 0.950 . S
H1067 C1091 0.951 . S
H1068 C1093 0.951 . S
H1069 C1095 0.950 . S
H1070 C1096 0.950 . S
H1071 C1098 0.950 . S
H1072 C1101 0.950 . S
H1073 C1102 0.950 . S
H1074 C1104 0.950 . S
H1075 C1105 0.950 . S
C1076 H1058 0.951 . S
C1076 C1077 1.366 . S
C1076 C1078 1.388 . S
C1077 C1076 1.366 . S
C1077 C1081 1.385 . S
C1078 H1059 0.951 . S
C1078 C1076 1.388 . S
C1078 C1079 1.366 . S
C1079 C1078 1.366 . S
C1079 C1080 1.414 . S
C1079 C1082 1.499 . S
C1080 H1060 0.950 . S
C1080 C1079 1.414 . S
C1080 C1081 1.374 . S
C1081 H1061 0.950 . S
C1081 C1077 1.385 . S
C1081 C1080 1.374 . S
C1082 C1079 1.499 . S
C1082 C1083 1.373 . S
C1082 C1084 1.389 . S
C1083 H1062 0.950 . S
C1083 C1082 1.373 . S
C1083 C1099 1.377 . S
C1084 C1082 1.389 . S
C1084 C1085 1.524 . S
C1084 C1098 1.377 . S
C1085 C1084 1.524 . S
C1085 C1086 1.397 . S
C1085 C1090 1.363 . S
C1086 H1063 0.950 . S
C1086 C1085 1.397 . S
C1086 C1087 1.334 . S
C1087 H1064 0.950 . S
C1087 C1086 1.334 . S
C1087 C1088 1.287 . S
C1088 C1087 1.287 . S
C1088 C1089 1.524 . S
C1088 H1107 0.913 . S
C1089 H1065 0.950 . S
C1089 C1088 1.524 . S
C1089 C1090 1.415 . S
C1090 H1066 0.950 . S
C1090 C1085 1.363 . S
C1090 C1089 1.415 . S
C1091 H1067 0.951 . S
C1091 C1092 1.366 . S
C1091 C1093 1.388 . S
C1092 C1091 1.366 . S
C1092 C1096 1.385 . S
C1093 H1068 0.951 . S
C1093 C1091 1.388 . S
C1093 C1094 1.366 . S
C1094 C1093 1.366 . S
C1094 C1095 1.414 . S
C1094 C1097 1.499 . S
C1095 H1069 0.950 . S
C1095 C1094 1.414 . S
C1095 C1096 1.374 . S
C1096 H1070 0.950 . S
C1096 C1092 1.385 . S
C1096 C1095 1.374 . S
C1097 C1094 1.499 . S
C1097 C1098 1.373 . S
C1097 C1099 1.389 . S
C1098 H1071 0.950 . S
C1098 C1084 1.377 . S
C1098 C1097 1.373 . S
C1099 C1083 1.377 . S
C1099 C1097 1.389 . S
C1099 C1100 1.524 . S
C1100 C1099 1.524 . S
C1100 C1101 1.397 . S
C1100 C1105 1.363 . S
C1101 H1072 0.950 . S
C1101 C1100 1.397 . S
C1101 C1102 1.334 . S
C1102 H1073 0.950 . S
C1102 C1101 1.334 . S
C1102 C1103 1.287 . S
C1103 C1102 1.287 . S
C1103 C1104 1.524 . S
C1103 H1106 0.999 . S
C1104 H1074 0.950 . S
C1104 C1103 1.524 . S
C1104 C1105 1.415 . S
C1105 H1075 0.950 . S
C1105 C1100 1.363 . S
C1105 C1104 1.415 . S
H1106 C1103 0.999 . S
H1107 C1088 0.913 . S
H1108 C1126 0.951 . S
H1109 C1128 0.951 . S
H1110 C1130 0.950 . S
H1111 C1131 0.950 . S
H1112 C1133 0.950 . S
H1113 C1136 0.950 . S
H1114 C1137 0.950 . S
H1115 C1139 0.950 . S
H1116 C1140 0.950 . S
H1117 C1141 0.951 . S
H1118 C1143 0.951 . S
H1119 C1145 0.950 . S
H1120 C1146 0.950 . S
H1121 C1148 0.950 . S
H1122 C1151 0.950 . S
H1123 C1152 0.950 . S
H1124 C1154 0.950 . S
H1125 C1155 0.950 . S
C1126 H1108 0.951 . S
C1126 C1127 1.366 . S
C1126 C1128 1.388 . S
C1127 C1126 1.366 . S
C1127 C1131 1.385 . S
C1128 H1109 0.951 . S
C1128 C1126 1.388 . S
C1128 C1129 1.366 . S
C1129 C1128 1.366 . S
C1129 C1130 1.414 . S
C1129 C1132 1.499 . S
C1130 H1110 0.950 . S
C1130 C1129 1.414 . S
C1130 C1131 1.374 . S
C1131 H1111 0.950 . S
C1131 C1127 1.385 . S
C1131 C1130 1.374 . S
C1132 C1129 1.499 . S
C1132 C1133 1.373 . S
C1132 C1134 1.389 . S
C1133 H1112 0.950 . S
C1133 C1132 1.373 . S
C1133 C1149 1.377 . S
C1134 C1132 1.389 . S
C1134 C1135 1.524 . S
C1134 C1148 1.377 . S
C1135 C1134 1.524 . S
C1135 C1136 1.397 . S
C1135 C1140 1.363 . S
C1136 H1113 0.950 . S
C1136 C1135 1.397 . S
C1136 C1137 1.334 . S
C1137 H1114 0.950 . S
C1137 C1136 1.334 . S
C1137 C1138 1.287 . S
C1138 C1137 1.287 . S
C1138 C1139 1.524 . S
C1138 H1157 0.913 . S
C1139 H1115 0.950 . S
C1139 C1138 1.524 . S
C1139 C1140 1.415 . S
C1140 H1116 0.950 . S
C1140 C1135 1.363 . S
C1140 C1139 1.415 . S
C1141 H1117 0.951 . S
C1141 C1142 1.366 . S
C1141 C1143 1.388 . S
C1142 C1141 1.366 . S
C1142 C1146 1.385 . S
C1143 H1118 0.951 . S
C1143 C1141 1.388 . S
C1143 C1144 1.366 . S
C1144 C1143 1.366 . S
C1144 C1145 1.414 . S
C1144 C1147 1.499 . S
C1145 H1119 0.950 . S
C1145 C1144 1.414 . S
C1145 C1146 1.374 . S
C1146 H1120 0.950 . S
C1146 C1142 1.385 . S
C1146 C1145 1.374 . S
C1147 C1144 1.499 . S
C1147 C1148 1.373 . S
C1147 C1149 1.389 . S
C1148 H1121 0.950 . S
C1148 C1134 1.377 . S
C1148 C1147 1.373 . S
C1149 C1133 1.377 . S
C1149 C1147 1.389 . S
C1149 C1150 1.524 . S
C1150 C1149 1.524 . S
C1150 C1151 1.397 . S
C1150 C1155 1.363 . S
C1151 H1122 0.950 . S
C1151 C1150 1.397 . S
C1151 C1152 1.334 . S
C1152 H1123 0.950 . S
C1152 C1151 1.334 . S
C1152 C1153 1.287 . S
C1153 C1152 1.287 . S
C1153 C1154 1.524 . S
C1153 H1156 0.999 . S
C1154 H1124 0.950 . S
C1154 C1153 1.524 . S
C1154 C1155 1.415 . S
C1155 H1125 0.950 . S
C1155 C1150 1.363 . S
C1155 C1154 1.415 . S
H1156 C1153 0.999 . S
H1157 C1138 0.913 . S
H1158 C1176 0.951 . S
H1159 C1178 0.951 . S
H1160 C1180 0.950 . S
H1161 C1181 0.950 . S
H1162 C1183 0.950 . S
H1163 C1186 0.950 . S
H1164 C1187 0.950 . S
H1165 C1189 0.950 . S
H1166 C1190 0.950 . S
H1167 C1191 0.951 . S
H1168 C1193 0.951 . S
H1169 C1195 0.950 . S
H1170 C1196 0.950 . S
H1171 C1198 0.950 . S
H1172 C1201 0.950 . S
H1173 C1202 0.950 . S
H1174 C1204 0.950 . S
H1175 C1205 0.950 . S
C1176 H1158 0.951 . S
C1176 C1177 1.366 . S
C1176 C1178 1.388 . S
C1177 C1176 1.366 . S
C1177 C1181 1.385 . S
C1178 H1159 0.951 . S
C1178 C1176 1.388 . S
C1178 C1179 1.366 . S
C1179 C1178 1.366 . S
C1179 C1180 1.414 . S
C1179 C1182 1.499 . S
C1180 H1160 0.950 . S
C1180 C1179 1.414 . S
C1180 C1181 1.374 . S
C1181 H1161 0.950 . S
C1181 C1177 1.385 . S
C1181 C1180 1.374 . S
C1182 C1179 1.499 . S
C1182 C1183 1.373 . S
C1182 C1184 1.389 . S
C1183 H1162 0.950 . S
C1183 C1182 1.373 . S
C1183 C1199 1.377 . S
C1184 C1182 1.389 . S
C1184 C1185 1.524 . S
C1184 C1198 1.377 . S
C1185 C1184 1.524 . S
C1185 C1186 1.397 . S
C1185 C1190 1.363 . S
C1186 H1163 0.950 . S
C1186 C1185 1.397 . S
C1186 C1187 1.334 . S
C1187 H1164 0.950 . S
C1187 C1186 1.334 . S
C1187 C1188 1.287 . S
C1188 C1187 1.287 . S
C1188 C1189 1.524 . S
C1188 H1207 0.913 . S
C1189 H1165 0.950 . S
C1189 C1188 1.524 . S
C1189 C1190 1.415 . S
C1190 H1166 0.950 . S
C1190 C1185 1.363 . S
C1190 C1189 1.415 . S
C1191 H1167 0.951 . S
C1191 C1192 1.366 . S
C1191 C1193 1.388 . S
C1192 C1191 1.366 . S
C1192 C1196 1.385 . S
C1193 H1168 0.951 . S
C1193 C1191 1.388 . S
C1193 C1194 1.366 . S
C1194 C1193 1.366 . S
C1194 C1195 1.414 . S
C1194 C1197 1.499 . S
C1195 H1169 0.950 . S
C1195 C1194 1.414 . S
C1195 C1196 1.374 . S
C1196 H1170 0.950 . S
C1196 C1192 1.385 . S
C1196 C1195 1.374 . S
C1197 C1194 1.499 . S
C1197 C1198 1.373 . S
C1197 C1199 1.389 . S
C1198 H1171 0.950 . S
C1198 C1184 1.377 . S
C1198 C1197 1.373 . S
C1199 C1183 1.377 . S
C1199 C1197 1.389 . S
C1199 C1200 1.524 . S
C1200 C1199 1.524 . S
C1200 C1201 1.397 . S
C1200 C1205 1.363 . S
C1201 H1172 0.950 . S
C1201 C1200 1.397 . S
C1201 C1202 1.334 . S
C1202 H1173 0.950 . S
C1202 C1201 1.334 . S
C1202 C1203 1.287 . S
C1203 C1202 1.287 . S
C1203 C1204 1.524 . S
C1203 H1206 0.999 . S
C1204 H1174 0.950 . S
C1204 C1203 1.524 . S
C1204 C1205 1.415 . S
C1205 H1175 0.950 . S
C1205 C1200 1.363 . S
C1205 C1204 1.415 . S
H1206 C1203 0.999 . S
H1207 C1188 0.913 . S
H1208 C1226 0.951 . S
H1209 C1228 0.951 . S
H1210 C1230 0.950 . S
H1211 C1231 0.950 . S
H1212 C1233 0.950 . S
H1213 C1236 0.950 . S
H1214 C1237 0.950 . S
H1215 C1239 0.950 . S
H1216 C1240 0.950 . S
H1217 C1241 0.951 . S
H1218 C1243 0.951 . S
H1219 C1245 0.950 . S
H1220 C1246 0.950 . S
H1221 C1248 0.950 . S
H1222 C1251 0.950 . S
H1223 C1252 0.950 . S
H1224 C1254 0.950 . S
H1225 C1255 0.950 . S
C1226 H1208 0.951 . S
C1226 C1227 1.366 . S
C1226 C1228 1.388 . S
C1227 C1226 1.366 . S
C1227 C1231 1.385 . S
C1228 H1209 0.951 . S
C1228 C1226 1.388 . S
C1228 C1229 1.366 . S
C1229 C1228 1.366 . S
C1229 C1230 1.414 . S
C1229 C1232 1.499 . S
C1230 H1210 0.950 . S
C1230 C1229 1.414 . S
C1230 C1231 1.374 . S
C1231 H1211 0.950 . S
C1231 C1227 1.385 . S
C1231 C1230 1.374 . S
C1232 C1229 1.499 . S
C1232 C1233 1.373 . S
C1232 C1234 1.389 . S
C1233 H1212 0.950 . S
C1233 C1232 1.373 . S
C1233 C1249 1.377 . S
C1234 C1232 1.389 . S
C1234 C1235 1.524 . S
C1234 C1248 1.377 . S
C1235 C1234 1.524 . S
C1235 C1236 1.397 . S
C1235 C1240 1.363 . S
C1236 H1213 0.950 . S
C1236 C1235 1.397 . S
C1236 C1237 1.334 . S
C1237 H1214 0.950 . S
C1237 C1236 1.334 . S
C1237 C1238 1.287 . S
C1238 C1237 1.287 . S
C1238 C1239 1.524 . S
C1238 H1257 0.913 . S
C1239 H1215 0.950 . S
C1239 C1238 1.524 . S
C1239 C1240 1.415 . S
C1240 H1216 0.950 . S
C1240 C1235 1.363 . S
C1240 C1239 1.415 . S
C1241 H1217 0.951 . S
C1241 C1242 1.366 . S
C1241 C1243 1.388 . S
C1242 C1241 1.366 . S
C1242 C1246 1.385 . S
C1243 H1218 0.951 . S
C1243 C1241 1.388 . S
C1243 C1244 1.366 . S
C1244 C1243 1.366 . S
C1244 C1245 1.414 . S
C1244 C1247 1.499 . S
C1245 H1219 0.950 . S
C1245 C1244 1.414 . S
C1245 C1246 1.374 . S
C1246 H1220 0.950 . S
C1246 C1242 1.385 . S
C1246 C1245 1.374 . S
C1247 C1244 1.499 . S
C1247 C1248 1.373 . S
C1247 C1249 1.389 . S
C1248 H1221 0.950 . S
C1248 C1234 1.377 . S
C1248 C1247 1.373 . S
C1249 C1233 1.377 . S
C1249 C1247 1.389 . S
C1249 C1250 1.524 . S
C1250 C1249 1.524 . S
C1250 C1251 1.397 . S
C1250 C1255 1.363 . S
C1251 H1222 0.950 . S
C1251 C1250 1.397 . S
C1251 C1252 1.334 . S
C1252 H1223 0.950 . S
C1252 C1251 1.334 . S
C1252 C1253 1.287 . S
C1253 C1252 1.287 . S
C1253 C1254 1.524 . S
C1253 H1256 0.999 . S
C1254 H1224 0.950 . S
C1254 C1253 1.524 . S
C1254 C1255 1.415 . S
C1255 H1225 0.950 . S
C1255 C1250 1.363 . S
C1255 C1254 1.415 . S
H1256 C1253 0.999 . S
H1257 C1238 0.913 . S
H1258 C1276 0.951 . S
H1259 C1278 0.951 . S
H1260 C1280 0.950 . S
H1261 C1281 0.950 . S
H1262 C1283 0.950 . S
H1263 C1286 0.950 . S
H1264 C1287 0.950 . S
H1265 C1289 0.950 . S
H1266 C1290 0.950 . S
H1267 C1291 0.951 . S
H1268 C1293 0.951 . S
H1269 C1295 0.950 . S
H1270 C1296 0.950 . S
H1271 C1298 0.950 . S
H1272 C1301 0.950 . S
H1273 C1302 0.950 . S
H1274 C1304 0.950 . S
H1275 C1305 0.950 . S
C1276 H1258 0.951 . S
C1276 C1277 1.366 . S
C1276 C1278 1.388 . S
C1277 C1276 1.366 . S
C1277 C1281 1.385 . S
C1278 H1259 0.951 . S
C1278 C1276 1.388 . S
C1278 C1279 1.366 . S
C1279 C1278 1.366 . S
C1279 C1280 1.414 . S
C1279 C1282 1.499 . S
C1280 H1260 0.950 . S
C1280 C1279 1.414 . S
C1280 C1281 1.374 . S
C1281 H1261 0.950 . S
C1281 C1277 1.385 . S
C1281 C1280 1.374 . S
C1282 C1279 1.499 . S
C1282 C1283 1.373 . S
C1282 C1284 1.389 . S
C1283 H1262 0.950 . S
C1283 C1282 1.373 . S
C1283 C1299 1.377 . S
C1284 C1282 1.389 . S
C1284 C1285 1.524 . S
C1284 C1298 1.377 . S
C1285 C1284 1.524 . S
C1285 C1286 1.397 . S
C1285 C1290 1.363 . S
C1286 H1263 0.950 . S
C1286 C1285 1.397 . S
C1286 C1287 1.334 . S
C1287 H1264 0.950 . S
C1287 C1286 1.334 . S
C1287 C1288 1.287 . S
C1288 C1287 1.287 . S
C1288 C1289 1.524 . S
C1288 H1307 0.913 . S
C1289 H1265 0.950 . S
C1289 C1288 1.524 . S
C1289 C1290 1.415 . S
C1290 H1266 0.950 . S
C1290 C1285 1.363 . S
C1290 C1289 1.415 . S
C1291 H1267 0.951 . S
C1291 C1292 1.366 . S
C1291 C1293 1.388 . S
C1292 C1291 1.366 . S
C1292 C1296 1.385 . S
C1293 H1268 0.951 . S
C1293 C1291 1.388 . S
C1293 C1294 1.366 . S
C1294 C1293 1.366 . S
C1294 C1295 1.414 . S
C1294 C1297 1.499 . S
C1295 H1269 0.950 . S
C1295 C1294 1.414 . S
C1295 C1296 1.374 . S
C1296 H1270 0.950 . S
C1296 C1292 1.385 . S
C1296 C1295 1.374 . S
C1297 C1294 1.499 . S
C1297 C1298 1.373 . S
C1297 C1299 1.389 . S
C1298 H1271 0.950 . S
C1298 C1284 1.377 . S
C1298 C1297 1.373 . S
C1299 C1283 1.377 . S
C1299 C1297 1.389 . S
C1299 C1300 1.524 . S
C1300 C1299 1.524 . S
C1300 C1301 1.397 . S
C1300 C1305 1.363 . S
C1301 H1272 0.950 . S
C1301 C1300 1.397 . S
C1301 C1302 1.334 . S
C1302 H1273 0.950 . S
C1302 C1301 1.334 . S
C1302 C1303 1.287 . S
C1303 C1302 1.287 . S
C1303 C1304 1.524 . S
C1303 H1306 0.999 . S
C1304 H1274 0.950 . S
C1304 C1303 1.524 . S
C1304 C1305 1.415 . S
C1305 H1275 0.950 . S
C1305 C1300 1.363 . S
C1305 C1304 1.415 . S
H1306 C1303 0.999 . S
H1307 C1288 0.913 . S
H1308 C1326 0.951 . S
H1309 C1328 0.951 . S
H1310 C1330 0.950 . S
H1311 C1331 0.950 . S
H1312 C1333 0.950 . S
H1313 C1336 0.950 . S
H1314 C1337 0.950 . S
H1315 C1339 0.950 . S
H1316 C1340 0.950 . S
H1317 C1341 0.951 . S
H1318 C1343 0.951 . S
H1319 C1345 0.950 . S
H1320 C1346 0.950 . S
H1321 C1348 0.950 . S
H1322 C1351 0.950 . S
H1323 C1352 0.950 . S
H1324 C1354 0.950 . S
H1325 C1355 0.950 . S
C1326 H1308 0.951 . S
C1326 C1327 1.366 . S
C1326 C1328 1.388 . S
C1327 C1326 1.366 . S
C1327 C1331 1.385 . S
C1328 H1309 0.951 . S
C1328 C1326 1.388 . S
C1328 C1329 1.366 . S
C1329 C1328 1.366 . S
C1329 C1330 1.414 . S
C1329 C1332 1.499 . S
C1330 H1310 0.950 . S
C1330 C1329 1.414 . S
C1330 C1331 1.374 . S
C1331 H1311 0.950 . S
C1331 C1327 1.385 . S
C1331 C1330 1.374 . S
C1332 C1329 1.499 . S
C1332 C1333 1.373 . S
C1332 C1334 1.389 . S
C1333 H1312 0.950 . S
C1333 C1332 1.373 . S
C1333 C1349 1.377 . S
C1334 C1332 1.389 . S
C1334 C1335 1.524 . S
C1334 C1348 1.377 . S
C1335 C1334 1.524 . S
C1335 C1336 1.397 . S
C1335 C1340 1.363 . S
C1336 H1313 0.950 . S
C1336 C1335 1.397 . S
C1336 C1337 1.334 . S
C1337 H1314 0.950 . S
C1337 C1336 1.334 . S
C1337 C1338 1.287 . S
C1338 C1337 1.287 . S
C1338 C1339 1.524 . S
C1338 H1357 0.913 . S
C1339 H1315 0.950 . S
C1339 C1338 1.524 . S
C1339 C1340 1.415 . S
C1340 H1316 0.950 . S
C1340 C1335 1.363 . S
C1340 C1339 1.415 . S
C1341 H1317 0.951 . S
C1341 C1342 1.366 . S
C1341 C1343 1.388 . S
C1342 C1341 1.366 . S
C1342 C1346 1.385 . S
C1343 H1318 0.951 . S
C1343 C1341 1.388 . S
C1343 C1344 1.366 . S
C1344 C1343 1.366 . S
C1344 C1345 1.414 . S
C1344 C1347 1.499 . S
C1345 H1319 0.950 . S
C1345 C1344 1.414 . S
C1345 C1346 1.374 . S
C1346 H1320 0.950 . S
C1346 C1342 1.385 . S
C1346 C1345 1.374 . S
C1347 C1344 1.499 . S
C1347 C1348 1.373 . S
C1347 C1349 1.389 . S
C1348 H1321 0.950 . S
C1348 C1334 1.377 . S
C1348 C1347 1.373 . S
C1349 C1333 1.377 . S
C1349 C1347 1.389 . S
C1349 C1350 1.524 . S
C1350 C1349 1.524 . S
C1350 C1351 1.397 . S
C1350 C1355 1.363 . S
C1351 H1322 0.950 . S
C1351 C1350 1.397 . S
C1351 C1352 1.334 . S
C1352 H1323 0.950 . S
C1352 C1351 1.334 . S
C1352 C1353 1.287 . S
C1353 C1352 1.287 . S
C1353 C1354 1.524 . S
C1353 H1356 0.999 . S
C1354 H1324 0.950 . S
C1354 C1353 1.524 . S
C1354 C1355 1.415 . S
C1355 H1325 0.950 . S
C1355 C1350 1.363 . S
C1355 C1354 1.415 . S
H1356 C1353 0.999 . S
H1357 C1338 0.913 . S
H1358 C1376 0.951 . S
H1359 C1378 0.951 . S
H1360 C1380 0.950 . S
H1361 C1381 0.950 . S
H1362 C1383 0.950 . S
H1363 C1386 0.950 . S
H1364 C1387 0.950 . S
H1365 C1389 0.950 . S
H1366 C1390 0.950 . S
H1367 C1391 0.951 . S
H1368 C1393 0.951 . S
H1369 C1395 0.950 . S
H1370 C1396 0.950 . S
H1371 C1398 0.950 . S
H1372 C1401 0.950 . S
H1373 C1402 0.950 . S
H1374 C1404 0.950 . S
H1375 C1405 0.950 . S
C1376 H1358 0.951 . S
C1376 C1377 1.366 . S
C1376 C1378 1.388 . S
C1377 C1376 1.366 . S
C1377 C1381 1.385 . S
C1378 H1359 0.951 . S
C1378 C1376 1.388 . S
C1378 C1379 1.366 . S
C1379 C1378 1.366 . S
C1379 C1380 1.414 . S
C1379 C1382 1.499 . S
C1380 H1360 0.950 . S
C1380 C1379 1.414 . S
C1380 C1381 1.374 . S
C1381 H1361 0.950 . S
C1381 C1377 1.385 . S
C1381 C1380 1.374 . S
C1382 C1379 1.499 . S
C1382 C1383 1.373 . S
C1382 C1384 1.389 . S
C1383 H1362 0.950 . S
C1383 C1382 1.373 . S
C1383 C1399 1.377 . S
C1384 C1382 1.389 . S
C1384 C1385 1.524 . S
C1384 C1398 1.377 . S
C1385 C1384 1.524 . S
C1385 C1386 1.397 . S
C1385 C1390 1.363 . S
C1386 H1363 0.950 . S
C1386 C1385 1.397 . S
C1386 C1387 1.334 . S
C1387 H1364 0.950 . S
C1387 C1386 1.334 . S
C1387 C1388 1.287 . S
C1388 C1387 1.287 . S
C1388 C1389 1.524 . S
C1388 H1407 0.913 . S
C1389 H1365 0.950 . S
C1389 C1388 1.524 . S
C1389 C1390 1.415 . S
C1390 H1366 0.950 . S
C1390 C1385 1.363 . S
C1390 C1389 1.415 . S
C1391 H1367 0.951 . S
C1391 C1392 1.366 . S
C1391 C1393 1.388 . S
C1392 C1391 1.366 . S
C1392 C1396 1.385 . S
C1393 H1368 0.951 . S
C1393 C1391 1.388 . S
C1393 C1394 1.366 . S
C1394 C1393 1.366 . S
C1394 C1395 1.414 . S
C1394 C1397 1.499 . S
C1395 H1369 0.950 . S
C1395 C1394 1.414 . S
C1395 C1396 1.374 . S
C1396 H1370 0.950 . S
C1396 C1392 1.385 . S
C1396 C1395 1.374 . S
C1397 C1394 1.499 . S
C1397 C1398 1.373 . S
C1397 C1399 1.389 . S
C1398 H1371 0.950 . S
C1398 C1384 1.377 . S
C1398 C1397 1.373 . S
C1399 C1383 1.377 . S
C1399 C1397 1.389 . S
C1399 C1400 1.524 . S
C1400 C1399 1.524 . S
C1400 C1401 1.397 . S
C1400 C1405 1.363 . S
C1401 H1372 0.950 . S
C1401 C1400 1.397 . S
C1401 C1402 1.334 . S
C1402 H1373 0.950 . S
C1402 C1401 1.334 . S
C1402 C1403 1.287 . S
C1403 C1402 1.287 . S
C1403 C1404 1.524 . S
C1403 H1406 0.999 . S
C1404 H1374 0.950 . S
C1404 C1403 1.524 . S
C1404 C1405 1.415 . S
C1405 H1375 0.950 . S
C1405 C1400 1.363 . S
C1405 C1404 1.415 . S
H1406 C1403 0.999 . S
H1407 C1388 0.913 . S
H1408 C1426 0.951 . S
H1409 C1428 0.951 . S
H1410 C1430 0.950 . S
H1411 C1431 0.950 . S
H1412 C1433 0.950 . S
H1413 C1436 0.950 . S
H1414 C1437 0.950 . S
H1415 C1439 0.950 . S
H1416 C1440 0.950 . S
H1417 C1441 0.951 . S
H1418 C1443 0.951 . S
H1419 C1445 0.950 . S
H1420 C1446 0.950 . S
H1421 C1448 0.950 . S
H1422 C1451 0.950 . S
H1423 C1452 0.950 . S
H1424 C1454 0.950 . S
H1425 C1455 0.950 . S
C1426 H1408 0.951 . S
C1426 C1427 1.366 . S
C1426 C1428 1.388 . S
C1427 C1426 1.366 . S
C1427 C1431 1.385 . S
C1428 H1409 0.951 . S
C1428 C1426 1.388 . S
C1428 C1429 1.366 . S
C1429 C1428 1.366 . S
C1429 C1430 1.414 . S
C1429 C1432 1.499 . S
C1430 H1410 0.950 . S
C1430 C1429 1.414 . S
C1430 C1431 1.374 . S
C1431 H1411 0.950 . S
C1431 C1427 1.385 . S
C1431 C1430 1.374 . S
C1432 C1429 1.499 . S
C1432 C1433 1.373 . S
C1432 C1434 1.389 . S
C1433 H1412 0.950 . S
C1433 C1432 1.373 . S
C1433 C1449 1.377 1_545 S
C1434 C1432 1.389 . S
C1434 C1435 1.524 . S
C1434 C1448 1.377 1_545 S
C1435 C1434 1.524 . S
C1435 C1436 1.397 . S
C1435 C1440 1.363 . S
C1436 H1413 0.950 . S
C1436 C1435 1.397 . S
C1436 C1437 1.334 . S
C1437 H1414 0.950 . S
C1437 C1436 1.334 . S
C1437 C1438 1.287 . S
C1438 C1437 1.287 . S
C1438 C1439 1.524 . S
C1438 H1457 0.913 . S
C1439 H1415 0.950 . S
C1439 C1438 1.524 . S
C1439 C1440 1.415 . S
C1440 H1416 0.950 . S
C1440 C1435 1.363 . S
C1440 C1439 1.415 . S
C1441 H1417 0.951 . S
C1441 C1442 1.366 . S
C1441 C1443 1.388 . S
C1442 C1441 1.366 . S
C1442 C1446 1.385 . S
C1443 H1418 0.951 . S
C1443 C1441 1.388 . S
C1443 C1444 1.366 . S
C1444 C1443 1.366 . S
C1444 C1445 1.414 . S
C1444 C1447 1.499 . S
C1445 H1419 0.950 . S
C1445 C1444 1.414 . S
C1445 C1446 1.374 . S
C1446 H1420 0.950 . S
C1446 C1442 1.385 . S
C1446 C1445 1.374 . S
C1447 C1444 1.499 . S
C1447 C1448 1.373 . S
C1447 C1449 1.389 . S
C1448 H1421 0.950 . S
C1448 C1434 1.377 1_565 S
C1448 C1447 1.373 . S
C1449 C1433 1.377 1_565 S
C1449 C1447 1.389 . S
C1449 C1450 1.524 . S
C1450 C1449 1.524 . S
C1450 C1451 1.397 . S
C1450 C1455 1.363 . S
C1451 H1422 0.950 . S
C1451 C1450 1.397 . S
C1451 C1452 1.334 . S
C1452 H1423 0.950 . S
C1452 C1451 1.334 . S
C1452 C1453 1.287 . S
C1453 C1452 1.287 . S
C1453 C1454 1.524 . S
C1453 H1456 0.999 . S
C1454 H1424 0.950 . S
C1454 C1453 1.524 . S
C1454 C1455 1.415 . S
C1455 H1425 0.950 . S
C1455 C1450 1.363 . S
C1455 C1454 1.415 . S
H1456 C1453 0.999 . S
H1457 C1438 0.913 . S
H1458 C1476 0.951 . S
H1459 C1478 0.951 . S
H1460 C1480 0.950 . S
H1461 C1481 0.950 . S
H1462 C1483 0.950 . S
H1463 C1486 0.950 . S
H1464 C1487 0.950 . S
H1465 C1489 0.950 . S
H1466 C1490 0.950 . S
H1467 C1491 0.951 . S
H1468 C1493 0.951 . S
H1469 C1495 0.950 . S
H1470 C1496 0.950 . S
H1471 C1498 0.950 . S
H1472 C1501 0.950 . S
H1473 C1502 0.950 . S
H1474 C1504 0.950 . S
H1475 C1505 0.950 . S
C1476 H1458 0.951 . S
C1476 C1477 1.366 . S
C1476 C1478 1.388 . S
C1477 C1476 1.366 . S
C1477 C1481 1.385 . S
C1478 H1459 0.951 . S
C1478 C1476 1.388 . S
C1478 C1479 1.366 . S
C1479 C1478 1.366 . S
C1479 C1480 1.414 . S
C1479 C1482 1.499 . S
C1480 H1460 0.950 . S
C1480 C1479 1.414 . S
C1480 C1481 1.374 . S
C1481 H1461 0.950 . S
C1481 C1477 1.385 . S
C1481 C1480 1.374 . S
C1482 C1479 1.499 . S
C1482 C1483 1.373 . S
C1482 C1484 1.389 . S
C1483 H1462 0.950 . S
C1483 C1482 1.373 . S
C1483 C1499 1.377 1_655 S
C1484 C1482 1.389 . S
C1484 C1485 1.524 . S
C1484 C1498 1.377 1_655 S
C1485 C1484 1.524 . S
C1485 C1486 1.397 . S
C1485 C1490 1.363 . S
C1486 H1463 0.950 . S
C1486 C1485 1.397 . S
C1486 C1487 1.334 . S
C1487 H1464 0.950 . S
C1487 C1486 1.334 . S
C1487 C1488 1.287 . S
C1488 C1487 1.287 . S
C1488 C1489 1.524 . S
C1488 H1507 0.913 . S
C1489 H1465 0.950 . S
C1489 C1488 1.524 . S
C1489 C1490 1.415 . S
C1490 H1466 0.950 . S
C1490 C1485 1.363 . S
C1490 C1489 1.415 . S
C1491 H1467 0.951 . S
C1491 C1492 1.366 . S
C1491 C1493 1.388 . S
C1492 C1491 1.366 . S
C1492 C1496 1.385 . S
C1493 H1468 0.951 . S
C1493 C1491 1.388 . S
C1493 C1494 1.366 . S
C1494 C1493 1.366 . S
C1494 C1495 1.414 . S
C1494 C1497 1.499 . S
C1495 H1469 0.950 . S
C1495 C1494 1.414 . S
C1495 C1496 1.374 . S
C1496 H1470 0.950 . S
C1496 C1492 1.385 . S
C1496 C1495 1.374 . S
C1497 C1494 1.499 . S
C1497 C1498 1.373 . S
C1497 C1499 1.389 . S
C1498 H1471 0.950 . S
C1498 C1484 1.377 1_455 S
C1498 C1497 1.373 . S
C1499 C1483 1.377 1_455 S
C1499 C1497 1.389 . S
C1499 C1500 1.524 . S
C1500 C1499 1.524 . S
C1500 C1501 1.397 . S
C1500 C1505 1.363 . S
C1501 H1472 0.950 . S
C1501 C1500 1.397 . S
C1501 C1502 1.334 . S
C1502 H1473 0.950 . S
C1502 C1501 1.334 . S
C1502 C1503 1.287 . S
C1503 C1502 1.287 . S
C1503 C1504 1.524 . S
C1503 H1506 0.999 . S
C1504 H1474 0.950 . S
C1504 C1503 1.524 . S
C1504 C1505 1.415 . S
C1505 H1475 0.950 . S
C1505 C1500 1.363 . S
C1505 C1504 1.415 . S
H1506 C1503 0.999 . S
H1507 C1488 0.913 . S
H1508 C1526 0.951 . S
H1509 C1528 0.951 . S
H1510 C1530 0.950 . S
H1511 C1531 0.950 . S
H1512 C1533 0.950 . S
H1513 C1536 0.950 . S
H1514 C1537 0.950 . S
H1515 C1539 0.950 . S
H1516 C1540 0.950 . S
H1517 C1541 0.951 . S
H1518 C1543 0.951 . S
H1519 C1545 0.950 . S
H1520 C1546 0.950 . S
H1521 C1548 0.950 . S
H1522 C1551 0.950 . S
H1523 C1552 0.950 . S
H1524 C1554 0.950 . S
H1525 C1555 0.950 . S
C1526 H1508 0.951 . S
C1526 C1527 1.366 . S
C1526 C1528 1.388 . S
C1527 C1526 1.366 . S
C1527 C1531 1.385 . S
C1528 H1509 0.951 . S
C1528 C1526 1.388 . S
C1528 C1529 1.366 . S
C1529 C1528 1.366 . S
C1529 C1530 1.414 . S
C1529 C1532 1.499 . S
C1530 H1510 0.950 . S
C1530 C1529 1.414 . S
C1530 C1531 1.374 . S
C1531 H1511 0.950 . S
C1531 C1527 1.385 . S
C1531 C1530 1.374 . S
C1532 C1529 1.499 . S
C1532 C1533 1.373 . S
C1532 C1534 1.389 . S
C1533 H1512 0.950 . S
C1533 C1532 1.373 . S
C1533 C1549 1.377 1_545 S
C1534 C1532 1.389 . S
C1534 C1535 1.524 . S
C1534 C1548 1.377 1_545 S
C1535 C1534 1.524 . S
C1535 C1536 1.397 . S
C1535 C1540 1.363 . S
C1536 H1513 0.950 . S
C1536 C1535 1.397 . S
C1536 C1537 1.334 . S
C1537 H1514 0.950 . S
C1537 C1536 1.334 . S
C1537 C1538 1.287 . S
C1538 C1537 1.287 . S
C1538 C1539 1.524 . S
C1538 H1557 0.913 . S
C1539 H1515 0.950 . S
C1539 C1538 1.524 . S
C1539 C1540 1.415 . S
C1540 H1516 0.950 . S
C1540 C1535 1.363 . S
C1540 C1539 1.415 . S
C1541 H1517 0.951 . S
C1541 C1542 1.366 . S
C1541 C1543 1.388 . S
C1542 C1541 1.366 . S
C1542 C1546 1.385 . S
C1543 H1518 0.951 . S
C1543 C1541 1.388 . S
C1543 C1544 1.366 . S
C1544 C1543 1.366 . S
C1544 C1545 1.414 . S
C1544 C1547 1.499 . S
C1545 H1519 0.950 . S
C1545 C1544 1.414 . S
C1545 C1546 1.374 . S
C1546 H1520 0.950 . S
C1546 C1542 1.385 . S
C1546 C1545 1.374 . S
C1547 C1544 1.499 . S
C1547 C1548 1.373 . S
C1547 C1549 1.389 . S
C1548 H1521 0.950 . S
C1548 C1534 1.377 1_565 S
C1548 C1547 1.373 . S
C1549 C1533 1.377 1_565 S
C1549 C1547 1.389 . S
C1549 C1550 1.524 . S
C1550 C1549 1.524 . S
C1550 C1551 1.397 . S
C1550 C1555 1.363 . S
C1551 H1522 0.950 . S
C1551 C1550 1.397 . S
C1551 C1552 1.334 . S
C1552 H1523 0.950 . S
C1552 C1551 1.334 . S
C1552 C1553 1.287 . S
C1553 C1552 1.287 . S
C1553 C1554 1.524 . S
C1553 H1556 0.999 . S
C1554 H1524 0.950 . S
C1554 C1553 1.524 . S
C1554 C1555 1.415 . S
C1555 H1525 0.950 . S
C1555 C1550 1.363 . S
C1555 C1554 1.415 . S
H1556 C1553 0.999 . S
H1557 C1538 0.913 . S
H1558 C1576 0.951 . S
H1559 C1578 0.951 . S
H1560 C1580 0.950 . S
H1561 C1581 0.950 . S
H1562 C1583 0.950 . S
H1563 C1586 0.950 . S
H1564 C1587 0.950 . S
H1565 C1589 0.950 1_655 S
H1566 C1590 0.950 . S
H1567 C1591 0.951 . S
H1568 C1593 0.951 . S
H1569 C1595 0.950 . S
H1570 C1596 0.950 . S
H1571 C1598 0.950 . S
H1572 C1601 0.950 . S
H1573 C1602 0.950 . S
H1574 C1604 0.950 1_455 S
H1575 C1605 0.950 . S
C1576 H1558 0.951 . S
C1576 C1577 1.366 . S
C1576 C1578 1.388 . S
C1577 C1576 1.366 . S
C1577 C1581 1.385 . S
C1578 H1559 0.951 . S
C1578 C1576 1.388 . S
C1578 C1579 1.366 . S
C1579 C1578 1.366 . S
C1579 C1580 1.414 . S
C1579 C1582 1.499 . S
C1580 H1560 0.950 . S
C1580 C1579 1.414 . S
C1580 C1581 1.374 . S
C1581 H1561 0.950 . S
C1581 C1577 1.385 . S
C1581 C1580 1.374 . S
C1582 C1579 1.499 . S
C1582 C1583 1.373 . S
C1582 C1584 1.389 . S
C1583 H1562 0.950 . S
C1583 C1582 1.373 . S
C1583 C1599 1.377 1_455 S
C1584 C1582 1.389 . S
C1584 C1585 1.524 . S
C1584 C1598 1.377 1_455 S
C1585 C1584 1.524 . S
C1585 C1586 1.397 . S
C1585 C1590 1.363 1_455 S
C1586 H1563 0.950 . S
C1586 C1585 1.397 . S
C1586 C1587 1.334 . S
C1587 H1564 0.950 . S
C1587 C1586 1.334 . S
C1587 C1588 1.287 . S
C1588 C1587 1.287 . S
C1588 C1589 1.524 . S
C1588 H1607 0.913 . S
C1589 H1565 0.950 1_455 S
C1589 C1588 1.524 . S
C1589 C1590 1.415 1_455 S
C1590 H1566 0.950 . S
C1590 C1585 1.363 1_655 S
C1590 C1589 1.415 1_655 S
C1591 H1567 0.951 . S
C1591 C1592 1.366 . S
C1591 C1593 1.388 . S
C1592 C1591 1.366 . S
C1592 C1596 1.385 . S
C1593 H1568 0.951 . S
C1593 C1591 1.388 . S
C1593 C1594 1.366 . S
C1594 C1593 1.366 . S
C1594 C1595 1.414 . S
C1594 C1597 1.499 . S
C1595 H1569 0.950 . S
C1595 C1594 1.414 . S
C1595 C1596 1.374 . S
C1596 H1570 0.950 . S
C1596 C1592 1.385 . S
C1596 C1595 1.374 . S
C1597 C1594 1.499 . S
C1597 C1598 1.373 . S
C1597 C1599 1.389 . S
C1598 H1571 0.950 . S
C1598 C1584 1.377 1_655 S
C1598 C1597 1.373 . S
C1599 C1583 1.377 1_655 S
C1599 C1597 1.389 . S
C1599 C1600 1.524 . S
C1600 C1599 1.524 . S
C1600 C1601 1.397 . S
C1600 C1605 1.363 1_655 S
C1601 H1572 0.950 . S
C1601 C1600 1.397 . S
C1601 C1602 1.334 . S
C1602 H1573 0.950 . S
C1602 C1601 1.334 . S
C1602 C1603 1.287 . S
C1603 C1602 1.287 . S
C1603 C1604 1.524 . S
C1603 H1606 0.999 . S
C1604 H1574 0.950 1_655 S
C1604 C1603 1.524 . S
C1604 C1605 1.415 1_655 S
C1605 H1575 0.950 . S
C1605 C1600 1.363 1_455 S
C1605 C1604 1.415 1_455 S
H1606 C1603 0.999 . S
H1607 C1588 0.913 . S
H1608 C1626 0.951 . S
H1609 C1628 0.951 . S
H1610 C1630 0.950 . S
H1611 C1631 0.950 . S
H1612 C1633 0.950 . S
H1613 C1636 0.950 . S
H1614 C1637 0.950 . S
H1615 C1639 0.948 1_565 S
H1616 C1640 0.950 1_565 S
H1617 C1641 0.951 . S
H1618 C1643 0.951 . S
H1619 C1645 0.950 . S
H1620 C1646 0.950 . S
H1621 C1648 0.950 . S
H1622 C1651 0.950 . S
H1623 C1652 0.950 . S
H1624 C1654 0.948 1_545 S
H1625 C1655 0.950 1_545 S
C1626 H1608 0.951 . S
C1626 C1627 1.366 . S
C1626 C1628 1.388 . S
C1627 C1626 1.366 . S
C1627 C1631 1.385 . S
C1628 H1609 0.951 . S
C1628 C1626 1.388 . S
C1628 C1629 1.366 . S
C1629 C1628 1.366 . S
C1629 C1630 1.414 . S
C1629 C1632 1.499 . S
C1630 H1610 0.950 . S
C1630 C1629 1.414 . S
C1630 C1631 1.374 . S
C1631 H1611 0.950 . S
C1631 C1627 1.385 . S
C1631 C1630 1.374 . S
C1632 C1629 1.499 . S
C1632 C1633 1.373 . S
C1632 C1634 1.389 . S
C1633 H1612 0.950 . S
C1633 C1632 1.373 . S
C1633 C1649 1.377 1_545 S
C1634 C1632 1.389 . S
C1634 C1635 1.524 . S
C1634 C1648 1.377 1_545 S
C1635 C1634 1.524 . S
C1635 C1636 1.397 . S
C1635 C1640 1.363 . S
C1636 H1613 0.950 . S
C1636 C1635 1.397 . S
C1636 C1637 1.334 . S
C1637 H1614 0.950 . S
C1637 C1636 1.334 . S
C1637 C1638 1.287 . S
C1638 C1637 1.287 . S
C1638 C1639 1.524 . S
C1638 H1657 0.913 . S
C1639 H1615 0.948 1_545 S
C1639 C1638 1.524 . S
C1639 C1640 1.415 . S
C1640 H1616 0.950 1_545 S
C1640 C1635 1.363 . S
C1640 C1639 1.415 . S
C1641 H1617 0.951 . S
C1641 C1642 1.366 . S
C1641 C1643 1.388 . S
C1642 C1641 1.366 . S
C1642 C1646 1.385 . S
C1643 H1618 0.951 . S
C1643 C1641 1.388 . S
C1643 C1644 1.366 . S
C1644 C1643 1.366 . S
C1644 C1645 1.414 . S
C1644 C1647 1.499 . S
C1645 H1619 0.950 . S
C1645 C1644 1.414 . S
C1645 C1646 1.374 . S
C1646 H1620 0.950 . S
C1646 C1642 1.385 . S
C1646 C1645 1.374 . S
C1647 C1644 1.499 . S
C1647 C1648 1.373 . S
C1647 C1649 1.389 . S
C1648 H1621 0.950 . S
C1648 C1634 1.377 1_565 S
C1648 C1647 1.373 . S
C1649 C1633 1.377 1_565 S
C1649 C1647 1.389 . S
C1649 C1650 1.524 . S
C1650 C1649 1.524 . S
C1650 C1651 1.397 . S
C1650 C1655 1.363 . S
C1651 H1622 0.950 . S
C1651 C1650 1.397 . S
C1651 C1652 1.334 . S
C1652 H1623 0.950 . S
C1652 C1651 1.334 . S
C1652 C1653 1.287 . S
C1653 C1652 1.287 . S
C1653 C1654 1.524 . S
C1653 H1656 0.999 . S
C1654 H1624 0.948 1_565 S
C1654 C1653 1.524 . S
C1654 C1655 1.415 . S
C1655 H1625 0.950 1_565 S
C1655 C1650 1.363 . S
C1655 C1654 1.415 . S
H1656 C1653 0.999 . S
H1657 C1638 0.913 . S
H1658 C1676 0.951 . S
H1659 C1678 0.951 . S
H1660 C1680 0.950 . S
H1661 C1681 0.950 . S
H1662 C1683 0.950 . S
H1663 C1686 0.950 . S
H1664 C1687 0.950 . S
H1665 C1689 0.950 1_455 S
H1666 C1690 0.925 1_455 S
H1667 C1691 0.951 . S
H1668 C1693 0.951 . S
H1669 C1695 0.950 . S
H1670 C1696 0.950 . S
H1671 C1698 0.950 . S
H1672 C1701 0.950 . S
H1673 C1702 0.950 . S
H1674 C1704 0.950 1_655 S
H1675 C1705 0.925 1_655 S
C1676 H1658 0.951 . S
C1676 C1677 1.366 . S
C1676 C1678 1.388 . S
C1677 C1676 1.366 . S
C1677 C1681 1.385 . S
C1678 H1659 0.951 . S
C1678 C1676 1.388 . S
C1678 C1679 1.366 . S
C1679 C1678 1.366 . S
C1679 C1680 1.414 . S
C1679 C1682 1.499 . S
C1680 H1660 0.950 . S
C1680 C1679 1.414 . S
C1680 C1681 1.374 . S
C1681 H1661 0.950 . S
C1681 C1677 1.385 . S
C1681 C1680 1.374 . S
C1682 C1679 1.499 . S
C1682 C1683 1.373 . S
C1682 C1684 1.389 . S
C1683 H1662 0.950 . S
C1683 C1682 1.373 . S
C1683 C1699 1.377 1_655 S
C1684 C1682 1.389 . S
C1684 C1685 1.524 . S
C1684 C1698 1.377 1_655 S
C1685 C1684 1.524 . S
C1685 C1686 1.397 . S
C1685 C1690 1.381 . S
C1686 H1663 0.950 . S
C1686 C1685 1.397 . S
C1686 C1687 1.334 . S
C1687 H1664 0.950 . S
C1687 C1686 1.334 . S
C1687 C1688 1.287 . S
C1688 C1687 1.287 . S
C1688 C1689 1.524 . S
C1688 H1707 0.913 . S
C1689 H1665 0.950 1_655 S
C1689 C1688 1.524 . S
C1689 C1690 1.422 . S
C1690 H1666 0.925 1_655 S
C1690 C1685 1.381 . S
C1690 C1689 1.422 . S
C1691 H1667 0.951 . S
C1691 C1692 1.366 . S
C1691 C1693 1.388 . S
C1692 C1691 1.366 . S
C1692 C1696 1.385 . S
C1693 H1668 0.951 . S
C1693 C1691 1.388 . S
C1693 C1694 1.366 . S
C1694 C1693 1.366 . S
C1694 C1695 1.414 . S
C1694 C1697 1.499 . S
C1695 H1669 0.950 . S
C1695 C1694 1.414 . S
C1695 C1696 1.374 . S
C1696 H1670 0.950 . S
C1696 C1692 1.385 . S
C1696 C1695 1.374 . S
C1697 C1694 1.499 . S
C1697 C1698 1.373 . S
C1697 C1699 1.389 . S
C1698 H1671 0.950 . S
C1698 C1684 1.377 1_455 S
C1698 C1697 1.373 . S
C1699 C1683 1.377 1_455 S
C1699 C1697 1.389 . S
C1699 C1700 1.524 . S
C1700 C1699 1.524 . S
C1700 C1701 1.397 . S
C1700 C1705 1.381 . S
C1701 H1672 0.950 . S
C1701 C1700 1.397 . S
C1701 C1702 1.334 . S
C1702 H1673 0.950 . S
C1702 C1701 1.334 . S
C1702 C1703 1.287 . S
C1703 C1702 1.287 . S
C1703 C1704 1.524 . S
C1703 H1706 0.999 . S
C1704 H1674 0.950 1_455 S
C1704 C1703 1.524 . S
C1704 C1705 1.422 . S
C1705 H1675 0.925 1_455 S
C1705 C1700 1.381 . S
C1705 C1704 1.422 . S
H1706 C1703 0.999 . S
H1707 C1688 0.913 . S
H1708 C1726 0.951 . S
H1709 C1728 0.951 . S
H1710 C1730 0.950 . S
H1711 C1731 0.950 . S
H1712 C1733 0.950 . S
H1713 C1736 0.950 . S
H1714 C1737 0.950 . S
H1715 C1739 0.950 . S
H1716 C1740 0.950 1_545 S
H1717 C1741 0.951 . S
H1718 C1743 0.951 . S
H1719 C1745 0.950 . S
H1720 C1746 0.950 . S
H1721 C1748 0.950 . S
H1722 C1751 0.950 . S
H1723 C1752 0.950 . S
H1724 C1754 0.950 . S
H1725 C1755 0.950 1_565 S
C1726 H1708 0.951 . S
C1726 C1727 1.366 . S
C1726 C1728 1.388 . S
C1727 C1726 1.366 . S
C1727 C1731 1.385 . S
C1728 H1709 0.951 . S
C1728 C1726 1.388 . S
C1728 C1729 1.366 . S
C1729 C1728 1.366 . S
C1729 C1730 1.414 . S
C1729 C1732 1.499 . S
C1730 H1710 0.950 . S
C1730 C1729 1.414 . S
C1730 C1731 1.374 . S
C1731 H1711 0.950 . S
C1731 C1727 1.385 . S
C1731 C1730 1.374 . S
C1732 C1729 1.499 . S
C1732 C1733 1.373 . S
C1732 C1734 1.389 . S
C1733 H1712 0.950 . S
C1733 C1732 1.373 . S
C1733 C1749 1.377 1_565 S
C1734 C1732 1.389 . S
C1734 C1735 1.524 . S
C1734 C1748 1.377 1_565 S
C1735 C1734 1.524 . S
C1735 C1736 1.397 . S
C1735 C1740 1.363 . S
C1736 H1713 0.950 . S
C1736 C1735 1.397 . S
C1736 C1737 1.334 . S
C1737 H1714 0.950 . S
C1737 C1736 1.334 . S
C1737 C1738 1.287 . S
C1738 C1737 1.287 . S
C1738 C1739 1.524 . S
C1738 H1757 0.913 . S
C1739 H1715 0.950 . S
C1739 C1738 1.524 . S
C1739 C1740 1.415 . S
C1740 H1716 0.950 1_565 S
C1740 C1735 1.363 . S
C1740 C1739 1.415 . S
C1741 H1717 0.951 . S
C1741 C1742 1.366 . S
C1741 C1743 1.388 . S
C1742 C1741 1.366 . S
C1742 C1746 1.385 . S
C1743 H1718 0.951 . S
C1743 C1741 1.388 . S
C1743 C1744 1.366 . S
C1744 C1743 1.366 . S
C1744 C1745 1.414 . S
C1744 C1747 1.499 . S
C1745 H1719 0.950 . S
C1745 C1744 1.414 . S
C1745 C1746 1.374 . S
C1746 H1720 0.950 . S
C1746 C1742 1.385 . S
C1746 C1745 1.374 . S
C1747 C1744 1.499 . S
C1747 C1748 1.373 . S
C1747 C1749 1.389 . S
C1748 H1721 0.950 . S
C1748 C1734 1.377 1_545 S
C1748 C1747 1.373 . S
C1749 C1733 1.377 1_545 S
C1749 C1747 1.389 . S
C1749 C1750 1.524 . S
C1750 C1749 1.524 . S
C1750 C1751 1.397 . S
C1750 C1755 1.363 . S
C1751 H1722 0.950 . S
C1751 C1750 1.397 . S
C1751 C1752 1.334 . S
C1752 H1723 0.950 . S
C1752 C1751 1.334 . S
C1752 C1753 1.287 . S
C1753 C1752 1.287 . S
C1753 C1754 1.524 . S
C1753 H1756 0.999 . S
C1754 H1724 0.950 . S
C1754 C1753 1.524 . S
C1754 C1755 1.415 . S
C1755 H1725 0.950 1_545 S
C1755 C1750 1.363 . S
C1755 C1754 1.415 . S
H1756 C1753 0.999 . S
H1757 C1738 0.913 . S
H1758 C1776 0.951 . S
H1759 C1778 0.951 . S
H1760 C1780 0.950 . S
H1761 C1781 0.950 . S
H1762 C1783 0.950 . S
H1763 C1786 0.950 . S
H1764 C1787 0.950 . S
H1765 C1789 0.950 1_655 S
H1766 C1790 0.928 1_655 S
H1767 C1791 0.951 . S
H1768 C1793 0.951 . S
H1769 C1795 0.950 . S
H1770 C1796 0.950 . S
H1771 C1798 0.950 . S
H1772 C1801 0.950 . S
H1773 C1802 0.950 . S
H1774 C1804 0.950 1_455 S
H1775 C1805 0.928 1_455 S
C1776 H1758 0.951 . S
C1776 C1777 1.366 . S
C1776 C1778 1.388 . S
C1777 C1776 1.366 . S
C1777 C1781 1.385 . S
C1778 H1759 0.951 . S
C1778 C1776 1.388 . S
C1778 C1779 1.366 . S
C1779 C1778 1.366 . S
C1779 C1780 1.414 . S
C1779 C1782 1.499 . S
C1780 H1760 0.950 . S
C1780 C1779 1.414 . S
C1780 C1781 1.374 . S
C1781 H1761 0.950 . S
C1781 C1777 1.385 . S
C1781 C1780 1.374 . S
C1782 C1779 1.499 . S
C1782 C1783 1.373 . S
C1782 C1784 1.389 . S
C1783 H1762 0.950 . S
C1783 C1782 1.373 . S
C1783 C1799 1.377 1_455 S
C1784 C1782 1.389 . S
C1784 C1785 1.524 . S
C1784 C1798 1.377 1_455 S
C1785 C1784 1.524 . S
C1785 C1786 1.397 . S
C1785 C1790 1.379 . S
C1786 H1763 0.950 . S
C1786 C1785 1.397 . S
C1786 C1787 1.334 . S
C1787 H1764 0.950 . S
C1787 C1786 1.334 . S
C1787 C1788 1.287 . S
C1788 C1787 1.287 . S
C1788 C1789 1.524 . S
C1788 H1807 0.913 . S
C1789 H1765 0.950 1_455 S
C1789 C1788 1.524 . S
C1789 C1790 1.421 . S
C1790 H1766 0.928 1_455 S
C1790 C1785 1.379 . S
C1790 C1789 1.421 . S
C1791 H1767 0.951 . S
C1791 C1792 1.366 . S
C1791 C1793 1.388 . S
C1792 C1791 1.366 . S
C1792 C1796 1.385 . S
C1793 H1768 0.951 . S
C1793 C1791 1.388 . S
C1793 C1794 1.366 . S
C1794 C1793 1.366 . S
C1794 C1795 1.414 . S
C1794 C1797 1.499 . S
C1795 H1769 0.950 . S
C1795 C1794 1.414 . S
C1795 C1796 1.374 . S
C1796 H1770 0.950 . S
C1796 C1792 1.385 . S
C1796 C1795 1.374 . S
C1797 C1794 1.499 . S
C1797 C1798 1.373 . S
C1797 C1799 1.389 . S
C1798 H1771 0.950 . S
C1798 C1784 1.377 1_655 S
C1798 C1797 1.373 . S
C1799 C1783 1.377 1_655 S
C1799 C1797 1.389 . S
C1799 C1800 1.524 . S
C1800 C1799 1.524 . S
C1800 C1801 1.397 . S
C1800 C1805 1.379 . S
C1801 H1772 0.950 . S
C1801 C1800 1.397 . S
C1801 C1802 1.334 . S
C1802 H1773 0.950 . S
C1802 C1801 1.334 . S
C1802 C1803 1.287 . S
C1803 C1802 1.287 . S
C1803 C1804 1.524 . S
C1803 H1806 0.999 . S
C1804 H1774 0.950 1_655 S
C1804 C1803 1.524 . S
C1804 C1805 1.421 . S
C1805 H1775 0.928 1_655 S
C1805 C1800 1.379 . S
C1805 C1804 1.421 . S
H1806 C1803 0.999 . S
H1807 C1788 0.913 . S
C227 C69 1.593 . S
C242 C10 1.593 . S
C277 C82 1.593 . S
C292 C17 1.593 . S
C327 C30 1.593 . S
C342 C95 1.593 . S
C377 C43 1.593 . S
C392 C56 1.593 . S
C427 C179 1.593 . S
C442 C108 1.593 . S
C477 C186 1.594 . S
C492 C127 1.593 . S
C527 C134 1.593 . S
C542 C199 1.593 . S
C577 C153 1.593 . S
C592 C160 1.593 . S
C627 C140 1.633 . S
C642 C4 1.633 . S
C677 C147 1.633 . S
C692 C23 1.633 . S
C727 C114 1.633 . S
C742 C36 1.633 . S
C777 C49 1.633 . S
C792 C121 1.633 . S
C827 C192 1.633 . S
C842 C62 1.633 . S
C877 C205 1.633 . S
C892 C75 1.633 . S
C927 C88 1.633 . S
C942 C166 1.633 . S
C977 C173 1.633 . S
C992 C101 1.633 . S
C1027 C57 2.042 . S
C1042 C3 2.042 . S
C1077 C18 2.042 . S
C1092 C70 2.042 . S
C1127 C31 2.042 . S
C1142 C83 2.042 . S
C1177 C96 2.042 . S
C1192 C44 2.042 . S
C1227 C107 0.983 . S
C1242 C159 0.983 . S
C1277 C174 0.983 . S
C1292 C122 0.983 . S
C1327 C133 0.983 . S
C1342 C185 0.983 . S
C1377 C198 0.983 . S
C1392 C148 0.983 . S
C1427 C146 2.042 . S
C1442 C172 2.042 . S
C1477 C109 2.042 . S
C1492 C187 2.042 . S
C1527 C200 2.042 . S
C1542 C120 2.042 . S
C1577 C135 2.042 . S
C1592 C161 2.042 . S
C1627 C68 0.984 . S
C1642 C42 0.984 . S
C1677 C81 0.984 . S
C1692 C5 0.983 . S
C1727 C94 0.983 . S
C1742 C16 0.983 . S
C1777 C55 0.984 . S
C1792 C29 0.983 . S
