# Generated by pormake.
# Topology lcs, (4)-cn, num edge types: 1
# Building blocks:
#     Node 0, Type 0, BuildingBlock: NAHDIM_clean_sbu_0, # of connection points: 4
#     Node 1, Type 0, BuildingBlock: NAHDIM_clean_sbu_0, # of connection points: 4
#     Node 2, Type 0, BuildingBlock: NAHDIM_clean_sbu_0, # of connection points: 4
#     Node 3, Type 0, BuildingBlock: NAHDIM_clean_sbu_0, # of connection points: 4
#     Node 4, Type 0, BuildingBlock: NAHDIM_clean_sbu_0, # of connection points: 4
#     Node 5, Type 0, BuildingBlock: NAHDIM_clean_sbu_0, # of connection points: 4
#     Node 6, Type 0, BuildingBlock: NAHDIM_clean_sbu_0, # of connection points: 4
#     Node 7, Type 0, BuildingBlock: NAHDIM_clean_sbu_0, # of connection points: 4
#     Node 8, Type 0, BuildingBlock: NAHDIM_clean_sbu_0, # of connection points: 4
#     Node 9, Type 0, BuildingBlock: NAHDIM_clean_sbu_0, # of connection points: 4
#     Node 10, Type 0, BuildingBlock: NAHDIM_clean_sbu_0, # of connection points: 4
#     Node 11, Type 0, BuildingBlock: NAHDIM_clean_sbu_0, # of connection points: 4
#     Node 12, Type 0, BuildingBlock: NAHDIM_clean_sbu_0, # of connection points: 4
#     Node 13, Type 0, BuildingBlock: NAHDIM_clean_sbu_0, # of connection points: 4
#     Node 14, Type 0, BuildingBlock: NAHDIM_clean_sbu_0, # of connection points: 4
#     Node 15, Type 0, BuildingBlock: NAHDIM_clean_sbu_0, # of connection points: 4
#     Node 16, Type 0, BuildingBlock: NAHDIM_clean_sbu_0, # of connection points: 4
#     Node 17, Type 0, BuildingBlock: NAHDIM_clean_sbu_0, # of connection points: 4
#     Node 18, Type 0, BuildingBlock: NAHDIM_clean_sbu_0, # of connection points: 4
#     Node 19, Type 0, BuildingBlock: NAHDIM_clean_sbu_0, # of connection points: 4
#     Node 20, Type 0, BuildingBlock: NAHDIM_clean_sbu_0, # of connection points: 4
#     Node 21, Type 0, BuildingBlock: NAHDIM_clean_sbu_0, # of connection points: 4
#     Node 22, Type 0, BuildingBlock: NAHDIM_clean_sbu_0, # of connection points: 4
#     Node 23, Type 0, BuildingBlock: NAHDIM_clean_sbu_0, # of connection points: 4
#     Edge 24, Type (0, 0), BuildingBlock: UVAHIK_clean_linker_0, # of connection points: 2
#     Edge 25, Type (0, 0), BuildingBlock: UVAHIK_clean_linker_0, # of connection points: 2
#     Edge 26, Type (0, 0), BuildingBlock: UVAHIK_clean_linker_0, # of connection points: 2
#     Edge 27, Type (0, 0), BuildingBlock: UVAHIK_clean_linker_0, # of connection points: 2
#     Edge 28, Type (0, 0), BuildingBlock: UVAHIK_clean_linker_0, # of connection points: 2
#     Edge 29, Type (0, 0), BuildingBlock: UVAHIK_clean_linker_0, # of connection points: 2
#     Edge 30, Type (0, 0), BuildingBlock: UVAHIK_clean_linker_0, # of connection points: 2
#     Edge 31, Type (0, 0), BuildingBlock: UVAHIK_clean_linker_0, # of connection points: 2
#     Edge 32, Type (0, 0), BuildingBlock: UVAHIK_clean_linker_0, # of connection points: 2
#     Edge 33, Type (0, 0), BuildingBlock: UVAHIK_clean_linker_0, # of connection points: 2
#     Edge 34, Type (0, 0), BuildingBlock: UVAHIK_clean_linker_0, # of connection points: 2
#     Edge 35, Type (0, 0), BuildingBlock: UVAHIK_clean_linker_0, # of connection points: 2
#     Edge 36, Type (0, 0), BuildingBlock: UVAHIK_clean_linker_0, # of connection points: 2
#     Edge 37, Type (0, 0), BuildingBlock: UVAHIK_clean_linker_0, # of connection points: 2
#     Edge 38, Type (0, 0), BuildingBlock: UVAHIK_clean_linker_0, # of connection points: 2
#     Edge 39, Type (0, 0), BuildingBlock: UVAHIK_clean_linker_0, # of connection points: 2
#     Edge 40, Type (0, 0), BuildingBlock: UVAHIK_clean_linker_0, # of connection points: 2
#     Edge 41, Type (0, 0), BuildingBlock: UVAHIK_clean_linker_0, # of connection points: 2
#     Edge 42, Type (0, 0), BuildingBlock: UVAHIK_clean_linker_0, # of connection points: 2
#     Edge 43, Type (0, 0), BuildingBlock: UVAHIK_clean_linker_0, # of connection points: 2
#     Edge 44, Type (0, 0), BuildingBlock: UVAHIK_clean_linker_0, # of connection points: 2
#     Edge 45, Type (0, 0), BuildingBlock: UVAHIK_clean_linker_0, # of connection points: 2
#     Edge 46, Type (0, 0), BuildingBlock: UVAHIK_clean_linker_0, # of connection points: 2
#     Edge 47, Type (0, 0), BuildingBlock: UVAHIK_clean_linker_0, # of connection points: 2
#     Edge 48, Type (0, 0), BuildingBlock: UVAHIK_clean_linker_0, # of connection points: 2
#     Edge 49, Type (0, 0), BuildingBlock: UVAHIK_clean_linker_0, # of connection points: 2
#     Edge 50, Type (0, 0), BuildingBlock: UVAHIK_clean_linker_0, # of connection points: 2
#     Edge 51, Type (0, 0), BuildingBlock: UVAHIK_clean_linker_0, # of connection points: 2
#     Edge 52, Type (0, 0), BuildingBlock: UVAHIK_clean_linker_0, # of connection points: 2
#     Edge 53, Type (0, 0), BuildingBlock: UVAHIK_clean_linker_0, # of connection points: 2
#     Edge 54, Type (0, 0), BuildingBlock: UVAHIK_clean_linker_0, # of connection points: 2
#     Edge 55, Type (0, 0), BuildingBlock: UVAHIK_clean_linker_0, # of connection points: 2
#     Edge 56, Type (0, 0), BuildingBlock: UVAHIK_clean_linker_0, # of connection points: 2
#     Edge 57, Type (0, 0), BuildingBlock: UVAHIK_clean_linker_0, # of connection points: 2
#     Edge 58, Type (0, 0), BuildingBlock: UVAHIK_clean_linker_0, # of connection points: 2
#     Edge 59, Type (0, 0), BuildingBlock: UVAHIK_clean_linker_0, # of connection points: 2
#     Edge 60, Type (0, 0), BuildingBlock: UVAHIK_clean_linker_0, # of connection points: 2
#     Edge 61, Type (0, 0), BuildingBlock: UVAHIK_clean_linker_0, # of connection points: 2
#     Edge 62, Type (0, 0), BuildingBlock: UVAHIK_clean_linker_0, # of connection points: 2
#     Edge 63, Type (0, 0), BuildingBlock: UVAHIK_clean_linker_0, # of connection points: 2
#     Edge 64, Type (0, 0), BuildingBlock: UVAHIK_clean_linker_0, # of connection points: 2
#     Edge 65, Type (0, 0), BuildingBlock: UVAHIK_clean_linker_0, # of connection points: 2
#     Edge 66, Type (0, 0), BuildingBlock: UVAHIK_clean_linker_0, # of connection points: 2
#     Edge 67, Type (0, 0), BuildingBlock: UVAHIK_clean_linker_0, # of connection points: 2
#     Edge 68, Type (0, 0), BuildingBlock: UVAHIK_clean_linker_0, # of connection points: 2
#     Edge 69, Type (0, 0), BuildingBlock: UVAHIK_clean_linker_0, # of connection points: 2
#     Edge 70, Type (0, 0), BuildingBlock: UVAHIK_clean_linker_0, # of connection points: 2
#     Edge 71, Type (0, 0), BuildingBlock: UVAHIK_clean_linker_0, # of connection points: 2
# Relax obj value: 0.090
# Max RMSD: 0.160
# Mean RMSD: 0.151
data_MOF--net-lcs--node1-NAHDIM_clean_sbu_0--edge1-UVAHIK_clean_linker_0
_symmetry_space_group_name_H-M    P1
_symmetry_Int_Tables_number       1
_symmetry_cell_setting            triclinic
loop_
_symmetry_equiv_pos_as_xyz
'x, y, z'
_cell_length_a     64.301092
_cell_length_b     62.273352
_cell_length_c     62.28185
_cell_angle_alpha  91.446921
_cell_angle_beta   90.563909
_cell_angle_gamma 91.116712
loop_
_atom_site_label
_atom_site_type_symbol
_atom_site_fract_x
_atom_site_fract_y
_atom_site_fract_z
_atom_type_partial_charge
C0 C 0.97311 0.27946 0.40028 0.0
O1 O 0.98789 0.29134 0.39187 0.0
O2 O 0.97391 0.22195 0.35885 0.0
Zn3 Zn 0.99043 0.24605 0.37333 0.0
O4 O -0.00112 0.26844 0.35221 0.0
C5 C 0.02476 0.21799 0.38188 0.0
O6 O 0.01734 0.2074 0.3649 0.0
O7 O 0.97163 0.25964 0.39504 0.0
C8 C 0.01542 0.26745 0.34127 0.0
O9 O 0.02745 0.25078 0.34309 0.0
C10 C 0.97632 0.21504 0.33969 0.0
O11 O 0.99076 0.22375 0.32774 0.0
O12 O 0.01575 0.23488 0.38844 0.0
C13 C 0.0416 0.75575 0.61527 0.0
O14 O 0.04253 0.77631 0.62055 0.0
O15 O -0.00104 0.73217 0.66477 0.0
Zn16 Zn 0.00709 0.75525 0.64454 0.0
O17 O 0.01892 0.7809 0.66068 0.0
C18 C 0.96804 0.75099 0.62176 0.0
O19 O 0.9698 0.73061 0.62629 0.0
O20 O 0.02782 0.7438 0.62364 0.0
C21 C 0.01357 0.78594 0.6797 0.0
O22 O 0.00016 0.77362 0.68967 0.0
C23 C 0.01231 0.7195 0.67223 0.0
O24 O 0.03192 0.72186 0.66687 0.0
O25 O 0.9821 0.76435 0.62808 0.0
C26 C 0.47603 0.78333 0.89156 0.0
O27 O 0.49247 0.79566 0.88836 0.0
O28 O 0.48578 0.72832 0.84657 0.0
Zn29 Zn 0.49652 0.7551 0.86169 0.0
O30 O 0.50281 0.77828 0.8408 0.0
C31 C 0.5204 0.73455 0.89326 0.0
O32 O 0.50193 0.72633 0.89736 0.0
O33 O 0.47452 0.76516 0.8819 0.0
C34 C 0.51221 0.77474 0.82326 0.0
O35 O 0.51815 0.75516 0.81839 0.0
C36 C 0.47274 0.72864 0.83114 0.0
O37 O 0.46643 0.74719 0.82421 0.0
O38 O 0.52218 0.74797 0.87834 0.0
C39 C 0.54388 0.25827 0.1093 0.0
O40 O 0.55009 0.262 0.12922 0.0
O41 O 0.50156 0.22897 0.14229 0.0
Zn42 Zn 0.5046 0.2582 0.12975 0.0
O43 O 0.51535 0.28095 0.15064 0.0
C44 C 0.46113 0.26661 0.13071 0.0
O45 O 0.46312 0.25958 0.15032 0.0
O46 O 0.52454 0.25613 0.10527 0.0
C47 C 0.5128 0.28261 0.17081 0.0
O48 O 0.50195 0.26787 0.18076 0.0
C49 C 0.51301 0.22118 0.15676 0.0
O50 O 0.52824 0.23288 0.16546 0.0
O51 O 0.47695 0.26726 0.11868 0.0
C52 C 0.04303 0.75136 0.10006 0.0
O53 O 0.04182 0.73278 0.10954 0.0
O54 O 0.0085 0.73651 0.1419 0.0
Zn55 Zn 0.00359 0.76019 0.12126 0.0
O56 O -0.00164 0.78808 0.13712 0.0
C57 C 0.96114 0.75056 0.11361 0.0
O58 O 0.96133 0.75325 0.1346 0.0
O59 O 0.02847 0.7647 0.10246 0.0
C60 C 0.99287 0.78957 0.15664 0.0
O61 O 0.99072 0.77206 0.16779 0.0
C62 C 0.02311 0.73741 0.1558 0.0
O63 O 0.03556 0.7544 0.15684 0.0
O64 O 0.97812 0.75258 0.10351 0.0
C65 C 0.47012 0.70385 0.41836 0.0
O66 O 0.48716 0.69259 0.41921 0.0
O67 O 0.50314 0.70252 0.37139 0.0
Zn68 Zn 0.49417 0.72819 0.38882 0.0
O69 O 0.48624 0.75198 0.36933 0.0
C70 C 0.53207 0.72661 0.4143 0.0
O71 O 0.53243 0.70658 0.40721 0.0
O72 O 0.46952 0.71998 0.40631 0.0
C73 C 0.49905 0.76699 0.36492 0.0
O74 O 0.51795 0.76683 0.37311 0.0
C75 C 0.51608 0.7044 0.35625 0.0
O76 O 0.52343 0.72357 0.35172 0.0
O77 O 0.51724 0.73849 0.40866 0.0
C78 C 0.52873 0.2864 0.58461 0.0
O79 O 0.51183 0.29783 0.58318 0.0
O80 O 0.51244 0.24323 0.63792 0.0
Zn81 Zn 0.5053 0.26652 0.61761 0.0
O82 O 0.49925 0.29426 0.63334 0.0
C83 C 0.46234 0.25835 0.60942 0.0
O84 O 0.46143 0.2655 0.6294 0.0
O85 O 0.52942 0.27153 0.59816 0.0
C86 C 0.49475 0.2957 0.65314 0.0
O87 O 0.49446 0.27831 0.66464 0.0
C88 C 0.52868 0.24462 0.64967 0.0
O89 O 0.54067 0.26191 0.64887 0.0
O90 O 0.47995 0.25724 0.60043 0.0
C91 C 0.96001 0.21891 0.91042 0.0
O92 O 0.96149 0.21922 0.8894 0.0
O93 O 0.01069 0.20751 0.8878 0.0
Zn94 Zn 0.00152 0.23269 0.90602 0.0
O95 O 0.99507 0.25723 0.88691 0.0
C96 C 0.04296 0.242 0.91878 0.0
O97 O 0.04563 0.23599 0.89864 0.0
O98 O 0.97581 0.2243 0.92186 0.0
C99 C -0.00104 0.27677 0.89206 0.0
O100 O 0.00727 0.28158 0.91097 0.0
C101 C 0.00942 0.20746 0.86741 0.0
O102 O 0.00142 0.22401 0.85789 0.0
O103 O 0.02469 0.24169 0.92636 0.0
C104 C 0.41683 0.9516 0.26493 0.0
O105 O 0.39663 0.95171 0.26157 0.0
O106 O 0.39141 0.98869 0.2323 0.0
Zn107 Zn 0.41194 0.99564 0.25625 0.0
O108 O 0.39639 0.00553 0.28235 0.0
C109 C 0.44065 0.01758 0.22917 0.0
O110 O 0.43671 0.00078 0.21648 0.0
O111 O 0.42725 0.96902 0.26336 0.0
C112 C 0.38626 0.02283 0.28212 0.0
O113 O 0.3864 0.03433 0.26474 0.0
C114 C 0.38524 0.0024 0.21899 0.0
O115 O 0.39251 0.02225 0.22051 0.0
O116 O 0.43204 0.01874 0.24741 0.0
C117 C 0.20836 0.1389 0.48469 0.0
O118 O 0.20678 0.12155 0.49614 0.0
O119 O 0.24637 0.1141 0.51646 0.0
Zn120 Zn 0.25222 0.1316 0.49037 0.0
O121 O 0.26323 0.11396 0.46565 0.0
C122 C 0.28905 0.14581 0.51097 0.0
O123 O 0.28856 0.12529 0.51537 0.0
O124 O 0.22633 0.14649 0.48048 0.0
C125 C 0.27444 0.09748 0.46728 0.0
O126 O 0.27887 0.09026 0.48639 0.0
C127 C 0.23971 0.09486 0.51791 0.0
O128 O 0.23494 0.08353 0.5004 0.0
O129 O 0.2745 0.15325 0.49953 0.0
C130 C 0.17982 0.02862 0.72675 0.0
O131 O 0.18284 0.04143 0.74362 0.0
O132 O 0.13285 0.03601 0.75964 0.0
Zn133 Zn 0.14873 0.00915 0.75345 0.0
O134 O 0.12901 0.98455 0.74673 0.0
C135 C 0.16019 0.00854 0.79784 0.0
O136 O 0.14338 0.02009 0.79945 0.0
O137 O 0.16638 0.01348 0.72762 0.0
C138 C 0.11723 0.97603 0.76054 0.0
O139 O 0.1177 0.98347 0.78047 0.0
C140 C 0.11385 0.03819 0.75449 0.0
O141 O 0.10397 0.02262 0.74377 0.0
O142 O 0.16605 0.00216 0.77935 0.0
C143 C 0.30068 0.87181 7e-05 0.0
O144 O 0.30116 0.89268 0.00377 0.0
O145 O 0.26687 0.89638 0.03804 0.0
Zn146 Zn 0.25916 0.87896 0.01135 0.0
O147 O 0.25215 0.89796 0.98693 0.0
C148 C 0.23478 0.84211 0.02576 0.0
O149 O 0.25284 0.83431 0.03129 0.0
O150 O 0.28368 0.86146 0.00251 0.0
C151 C 0.23588 0.9092 0.98702 0.0
O152 O 0.2236 0.90875 0.00375 0.0
C153 C 0.27076 0.91647 0.03805 0.0
O154 O 0.26936 0.92681 0.01999 0.0
O155 O 0.23416 0.86035 0.01713 0.0
C156 C 0.27362 0.35885 0.05047 0.0
O157 O 0.25679 0.36146 0.06197 0.0
O158 O 0.24191 0.40541 0.03884 0.0
Zn159 Zn 0.25097 0.38208 0.01843 0.0
O160 O 0.26157 0.39479 0.99135 0.0
C161 C 0.21272 0.35625 0.02304 0.0
O162 O 0.21192 0.36476 0.04252 0.0
O163 O 0.27433 0.36623 0.03167 0.0
C164 C 0.24945 0.40005 0.97622 0.0
O165 O 0.22926 0.39766 0.97851 0.0
C166 C 0.22471 0.41487 0.03671 0.0
O167 O 0.21227 0.40933 0.02057 0.0
O168 O 0.22762 0.36136 0.01082 0.0
C169 C 0.69555 0.15634 0.98949 0.0
O170 O 0.69457 0.14756 0.9701 0.0
O171 O 0.73087 0.10829 0.02419 0.0
Zn172 Zn 0.7265 0.12416 -0.00308 0.0
O173 O 0.71308 0.10474 0.97436 0.0
C174 C 0.76759 0.14302 -0.00059 0.0
O175 O 0.76389 0.14318 0.02012 0.0
O176 O 0.70805 0.14898 0.00328 0.0
C177 C 0.72389 0.09464 0.9606 0.0
O178 O 0.74426 0.09669 0.96139 0.0
C179 C 0.73447 0.08831 0.0245 0.0
O180 O 0.73538 0.07727 0.0063 0.0
O181 O 0.75378 0.13555 0.9864 0.0
C182 C 0.09293 0.54855 0.25306 0.0
O183 O 0.11266 0.54989 0.25875 0.0
O184 O 0.11912 0.50236 0.22437 0.0
Zn185 Zn 0.10334 0.5048 0.25194 0.0
O186 O 0.12316 0.51041 0.27663 0.0
C187 C 0.09403 0.45979 0.24899 0.0
O188 O 0.11109 0.46015 0.23757 0.0
O189 O 0.08461 0.53009 0.24956 0.0
C190 C 0.13589 0.49701 0.28398 0.0
O191 O 0.13639 0.47751 0.2755 0.0
C192 C 0.13757 0.50957 0.22215 0.0
O193 O 0.1472 0.5192 0.23853 0.0
O194 O 0.08719 0.47735 0.25672 0.0
C195 C 0.79054 0.84488 0.52377 0.0
O196 O 0.7921 0.86542 0.51957 0.0
O197 O 0.74365 0.87529 0.53341 0.0
Zn198 Zn 0.74961 0.85287 0.51063 0.0
O199 O 0.75877 0.86636 0.48328 0.0
C200 C 0.70621 0.8406 0.50771 0.0
O201 O 0.70362 0.86058 0.51426 0.0
O202 O 0.77307 0.83527 0.52115 0.0
C203 C 0.74651 0.87243 0.46862 0.0
O204 O 0.72632 0.87028 0.47113 0.0
C205 C 0.7392 0.89464 0.52964 0.0
O206 O 0.7383 0.90096 0.5097 0.0
O207 O 0.72453 0.83377 0.50512 0.0
C208 C 0.8128 0.01184 0.22215 0.0
O209 O 0.81374 0.02518 0.23883 0.0
O210 O 0.86631 0.97026 0.23338 0.0
Zn211 Zn 0.84475 0.99015 0.24537 0.0
O212 O 0.8579 0.01835 0.2553 0.0
C213 C 0.83905 0.96255 0.28117 0.0
O214 O 0.85831 0.95755 0.27672 0.0
O215 O 0.82442 0.99558 0.22171 0.0
C216 C 0.86633 0.02075 0.27376 0.0
O217 O 0.86654 0.00445 0.28672 0.0
C218 C 0.88575 0.97193 0.23715 0.0
O219 O 0.89299 0.98769 0.24966 0.0
O220 O 0.82988 0.9762 0.2698 0.0
C221 C 0.19479 0.63404 0.50787 0.0
O222 O 0.18983 0.61381 0.50355 0.0
O223 O 0.23595 0.59858 0.52913 0.0
Zn224 Zn 0.23536 0.61746 0.50351 0.0
O225 O 0.22839 0.60079 0.47639 0.0
C226 C 0.27992 0.6229 0.50516 0.0
O227 O 0.27908 0.60369 0.51339 0.0
O228 O 0.21385 0.63976 0.50847 0.0
C229 C 0.23736 0.58366 0.47049 0.0
O230 O 0.25184 0.57569 0.48281 0.0
C231 C 0.22641 0.58061 0.53057 0.0
O232 O 0.21524 0.57294 0.51425 0.0
O233 O 0.26313 0.63198 0.50005 0.0
C234 C 0.31344 0.49011 0.71201 0.0
O235 O 0.31714 0.4699 0.71596 0.0
O236 O 0.36574 0.47721 0.73054 0.0
Zn237 Zn 0.34602 0.49856 0.7435 0.0
O238 O 0.3609 0.52643 0.75145 0.0
C239 C 0.34146 0.4728 0.78106 0.0
O240 O 0.36041 0.46697 0.77624 0.0
O241 O 0.32394 0.50483 0.72189 0.0
C242 C 0.37002 0.52968 0.76946 0.0
O243 O 0.36994 0.51436 0.78357 0.0
C244 C 0.3853 0.47807 0.73378 0.0
O245 O 0.39342 0.49371 0.74586 0.0
O246 O 0.3323 0.48617 0.76934 0.0
C247 C 0.60168 0.04845 0.73276 0.0
O248 O 0.62102 0.04707 0.73954 0.0
O249 O 0.62596 -0.00056 0.7081 0.0
Zn250 Zn 0.60624 0.00361 0.73256 0.0
O251 O 0.62263 0.00602 0.76004 0.0
C252 C 0.58679 0.96205 0.72198 0.0
O253 O 0.59977 0.96198 0.70584 0.0
O254 O 0.59129 0.03126 0.72854 0.0
C255 C 0.61327 0.00898 0.77769 0.0
O256 O 0.59288 0.01008 0.77759 0.0
C257 C 0.64218 0.98838 0.71043 0.0
O258 O 0.64585 0.97963 0.72904 0.0
O259 O 0.58637 0.97836 0.73467 0.0
C260 C 0.70401 0.64883 0.98936 0.0
O261 O 0.70256 0.63243 0.00214 0.0
O262 O 0.74269 0.62118 0.0173 0.0
Zn263 Zn 0.74793 0.64016 0.99214 0.0
O264 O 0.75844 0.62236 0.96747 0.0
C265 C 0.77072 0.67028 0.01933 0.0
O266 O 0.75552 0.66597 0.0326 0.0
O267 O 0.72186 0.65513 0.9832 0.0
C268 C 0.77521 0.61228 0.97016 0.0
O269 O 0.7848 0.61385 0.98888 0.0
C270 C 0.7382 0.60127 0.01522 0.0
O271 O 0.73646 0.59247 0.99587 0.0
O272 O 0.77037 0.66159 0.00066 0.0
C273 C 0.92628 0.44838 0.76552 0.0
O274 O 0.91788 0.44628 0.74625 0.0
O275 O 0.88919 0.48295 0.74114 0.0
Zn276 Zn 0.90648 0.49033 0.76741 0.0
O277 O 0.88835 0.49897 0.79219 0.0
C278 C 0.91652 0.53292 0.7565 0.0
O279 O 0.89612 0.53352 0.75616 0.0
O280 O 0.92356 0.4655 0.77657 0.0
C281 C 0.86994 0.50581 0.79032 0.0
O282 O 0.86149 0.50714 0.77112 0.0
C283 C 0.87423 0.46932 0.74093 0.0
O284 O 0.86987 0.459 0.75853 0.0
O285 O 0.92524 0.51542 0.76091 0.0
C286 C 0.79784 0.38532 0.48982 0.0
O287 O 0.79657 0.4058 0.48555 0.0
O288 O 0.76328 0.40831 0.53506 0.0
Zn289 Zn 0.75766 0.39354 0.50644 0.0
O290 O 0.75308 0.41425 0.48265 0.0
C291 C 0.71442 0.38101 0.50486 0.0
O292 O 0.71253 0.40073 0.49823 0.0
O293 O 0.78263 0.37598 0.49884 0.0
C294 C 0.74679 0.43343 0.4843 0.0
O295 O 0.74234 0.44163 0.5033 0.0
C296 C 0.7759 0.42412 0.53775 0.0
O297 O 0.78513 0.43227 0.52101 0.0
O298 O 0.73244 0.37415 0.50916 0.0
C299 C 0.67471 0.49733 0.20605 0.0
O300 O 0.66797 0.47732 0.20686 0.0
O301 O 0.63445 0.5253 0.25424 0.0
Zn302 Zn 0.65434 0.50174 0.24719 0.0
O303 O 0.63767 0.47472 0.24045 0.0
C304 C 0.67711 0.51312 0.28588 0.0
O305 O 0.66941 0.5321 0.28232 0.0
O306 O 0.67098 0.51029 0.22156 0.0
C307 C 0.63451 0.46005 0.25394 0.0
O308 O 0.64281 0.46206 0.27326 0.0
C309 C 0.61969 0.52206 0.26725 0.0
O310 O 0.61743 0.50306 0.27569 0.0
O311 O 0.67315 0.49767 0.27264 0.0
C312 C 0.09305 0.41962 0.24778 0.0
C313 C 0.08392 0.43906 0.25416 0.0
C314 C 0.08448 0.40001 0.25402 0.0
C315 C 0.037 0.37405 0.27483 0.0
H316 H 0.07563 0.33442 0.29982 0.0
C317 C 0.01061 0.3048 0.32848 0.0
C318 C 0.02164 0.28554 0.32766 0.0
C319 C 0.01731 0.32245 0.31682 0.0
C320 C 0.06464 0.34507 0.29253 0.0
H321 H 0.0582 0.45313 0.27146 0.0
H322 H 0.04324 0.41884 0.28238 0.0
H323 H 0.0888 0.36726 0.28404 0.0
H324 H 0.04783 0.26938 0.31326 0.0
H325 H 0.0593 0.30006 0.29256 0.0
H326 H 0.0128 0.35192 0.28348 0.0
C327 C 0.05699 0.4188 0.27247 0.0
C328 C 0.0722 0.36393 0.28352 0.0
C329 C 0.06563 0.43844 0.26631 0.0
C330 C 0.03911 0.28406 0.31438 0.0
C331 C 0.04574 0.30168 0.3026 0.0
C332 C 0.02942 0.35509 0.28373 0.0
C333 C 0.06653 0.39941 0.26668 0.0
C334 C 0.05845 0.37874 0.27483 0.0
C335 C 0.03511 0.3212 0.30395 0.0
C336 C 0.04314 0.34051 0.29295 0.0
H337 H 0.1071 0.41952 0.23833 0.0
H338 H 0.09202 0.3853 0.24912 0.0
H339 H 0.02607 0.38506 0.26799 0.0
H340 H -0.00289 0.30649 0.3386 0.0
H341 H 0.00892 0.33729 0.31849 0.0
C342 C 0.94925 0.77988 0.60295 0.0
C343 C 0.94992 0.75847 0.60949 0.0
C344 C 0.93208 0.78719 0.59164 0.0
C345 C 0.87657 0.77665 0.58268 0.0
H346 H 0.88418 0.81494 0.53509 0.0
C347 C 0.80725 0.81125 0.53601 0.0
C348 C 0.80879 0.83325 0.53162 0.0
C349 C 0.82448 0.80041 0.54377 0.0
C350 C 0.88181 0.80437 0.54844 0.0
H351 H 0.93317 0.72788 0.60915 0.0
H352 H 0.90303 0.74076 0.58936 0.0
H353 H 0.91441 0.79887 0.55177 0.0
H354 H 0.82961 0.86109 0.53176 0.0
H355 H 0.85953 0.84228 0.54555 0.0
H356 H 0.84401 0.78254 0.57969 0.0
C357 C 0.91582 0.75184 0.59311 0.0
C358 C 0.8991 0.79515 0.55795 0.0
C359 C 0.93309 0.74447 0.60435 0.0
C360 C 0.82792 0.84413 0.53495 0.0
C361 C 0.84512 0.83331 0.54271 0.0
C362 C 0.85926 0.78592 0.57319 0.0
C363 C 0.91516 0.77329 0.58667 0.0
C364 C 0.89669 0.78149 0.57539 0.0
C365 C 0.84358 0.81135 0.54727 0.0
C366 C 0.86174 0.80016 0.5562 0.0
H367 H 0.96195 0.79108 0.60665 0.0
H368 H 0.93188 0.80388 0.58716 0.0
H369 H 0.87427 0.76634 0.59624 0.0
H370 H 0.79273 0.80239 0.53353 0.0
H371 H 0.82287 0.78344 0.54693 0.0
C372 C 0.37896 0.56771 0.76051 0.0
C373 C 0.38116 0.55025 0.77418 0.0
C374 C 0.38954 0.58714 0.76497 0.0
C375 C 0.43499 0.6102 0.79384 0.0
H376 H 0.4049 0.66353 0.79273 0.0
C377 C 0.46823 0.68873 0.83186 0.0
C378 C 0.46386 0.70826 0.8221 0.0
C379 C 0.45899 0.66955 0.8242 0.0
C380 C 0.41365 0.64885 0.79274 0.0
H381 H 0.39628 0.53944 0.80316 0.0
H382 H 0.41484 0.57335 0.81084 0.0
H383 H 0.38702 0.6298 0.78276 0.0
H384 H 0.44682 0.72289 0.79624 0.0
H385 H 0.431 0.68927 0.78254 0.0
H386 H 0.46164 0.62913 0.80371 0.0
C387 C 0.40497 0.57194 0.79666 0.0
C388 C 0.40337 0.62953 0.7871 0.0
C389 C 0.39423 0.55259 0.79233 0.0
C390 C 0.45041 0.70812 0.80419 0.0
C391 C 0.44125 0.68888 0.79642 0.0
C392 C 0.44532 0.62952 0.79929 0.0
C393 C 0.4027 0.58941 0.78304 0.0
C394 C 0.41387 0.61 0.78789 0.0
C395 C 0.44527 0.66939 0.80648 0.0
C396 C 0.4347 0.64905 0.79912 0.0
H397 H 0.36899 0.56641 0.74639 0.0
H398 H 0.38763 0.60032 0.75414 0.0
H399 H 0.44354 0.59539 0.79424 0.0
H400 H 0.47846 0.68827 0.84576 0.0
H401 H 0.46219 0.65493 0.83258 0.0
C402 C 0.58062 0.25539 0.09707 0.0
C403 C 0.55926 0.255 0.09211 0.0
C404 C 0.59513 0.25032 0.08133 0.0
C405 C 0.59892 0.21828 0.03159 0.0
H406 H 0.65518 0.24193 0.03218 0.0
C407 C 0.66382 0.17812 0.9831 0.0
C408 C 0.68121 0.17353 0.99591 0.0
C409 C 0.64909 0.19274 0.99045 0.0
C410 C 0.63948 0.23527 0.03173 0.0
H411 H 0.53643 0.25017 0.06646 0.0
H412 H 0.56186 0.2415 0.0389 0.0
H413 H 0.62836 0.25971 0.05324 0.0
H414 H 0.6975 0.1816 0.0258 0.0
H415 H 0.67187 0.20697 0.03857 0.0
H416 H 0.6102 0.19343 0.01073 0.0
C417 C 0.56733 0.24538 0.05506 0.0
C418 C 0.62416 0.24539 0.04382 0.0
C419 C 0.55278 0.25041 0.07084 0.0
C420 C 0.68418 0.18467 0.01563 0.0
C421 C 0.66959 0.19938 0.02286 0.0
C422 C 0.61422 0.20823 0.01944 0.0
C423 C 0.58864 0.24482 0.06025 0.0
C424 C 0.60388 0.23657 0.04448 0.0
C425 C 0.65164 0.20318 0.0106 0.0
C426 C 0.63481 0.21619 0.01999 0.0
H427 H 0.58613 0.25892 0.11329 0.0
H428 H 0.61138 0.24975 0.08598 0.0
H429 H 0.58354 0.21091 0.0319 0.0
H430 H 0.66116 0.16985 0.96778 0.0
H431 H 0.63545 0.19549 0.98062 0.0
C432 C 0.06121 0.56712 0.23982 0.0
C433 C 0.0814 0.56828 0.24867 0.0
C434 C 0.05136 0.58576 0.23343 0.0
C435 C 0.05417 0.64542 0.23726 0.0
H436 H 0.03069 0.64141 0.17969 0.0
C437 C 0.04387 0.71879 0.18375 0.0
C438 C 0.02648 0.71907 0.16994 0.0
C439 C 0.04769 0.70082 0.19608 0.0
C440 C 0.03682 0.64278 0.19594 0.0
H441 H 0.10663 0.58999 0.25883 0.0
H442 H 0.08959 0.62236 0.24748 0.0
H443 H 0.04201 0.60904 0.19699 0.0
H444 H -0.00105 0.70112 0.15894 0.0
H445 H 0.00553 0.66991 0.18059 0.0
H446 H 0.04948 0.67932 0.23588 0.0
C447 C 0.08126 0.60713 0.24561 0.0
C448 C 0.04328 0.6242 0.20588 0.0
C449 C 0.0911 0.58852 0.25197 0.0
C450 C 0.01262 0.70133 0.16926 0.0
C451 C 0.01641 0.6834 0.18161 0.0
C452 C 0.04769 0.66404 0.2273 0.0
C453 C 0.06149 0.60591 0.23581 0.0
C454 C 0.05238 0.62534 0.22649 0.0
C455 C 0.03416 0.6828 0.19489 0.0
C456 C 0.03927 0.66296 0.20638 0.0
H457 H 0.05325 0.55177 0.23721 0.0
H458 H 0.03599 0.58435 0.2262 0.0
H459 H 0.06087 0.64677 0.25327 0.0
H460 H 0.05483 0.73221 0.18465 0.0
H461 H 0.06164 0.70076 0.20597 0.0
C462 C 0.54825 0.75678 0.43626 0.0
C463 C 0.54926 0.73569 0.42781 0.0
C464 C 0.56494 0.76587 0.44798 0.0
C465 C 0.62126 0.7622 0.45359 0.0
H466 H 0.61362 0.79908 0.50389 0.0
C467 C 0.69074 0.80485 0.49645 0.0
C468 C 0.68805 0.82657 0.5022 0.0
C469 C 0.67372 0.79189 0.49004 0.0
C470 C 0.61599 0.78893 0.48979 0.0
H471 H 0.56833 0.70737 0.42556 0.0
H472 H 0.59756 0.72335 0.44605 0.0
H473 H 0.58378 0.77957 0.48789 0.0
H474 H 0.66534 0.85162 0.50625 0.0
H475 H 0.63572 0.82916 0.49467 0.0
H476 H 0.65328 0.77199 0.45499 0.0
C477 C 0.58387 0.73285 0.44344 0.0
C478 C 0.59892 0.77773 0.48067 0.0
C479 C 0.56711 0.72369 0.43179 0.0
C480 C 0.66793 0.83494 0.50194 0.0
C481 C 0.65091 0.82201 0.49543 0.0
C482 C 0.6383 0.77345 0.46264 0.0
C483 C 0.58303 0.75411 0.45145 0.0
C484 C 0.60134 0.76449 0.46231 0.0
C485 C 0.65365 0.8004 0.48916 0.0
C486 C 0.63581 0.78718 0.48066 0.0
H487 H 0.5347 0.76645 0.43351 0.0
H488 H 0.56394 0.78238 0.45374 0.0
H489 H 0.62356 0.75235 0.43926 0.0
H490 H 0.70604 0.79787 0.49666 0.0
H491 H 0.6763 0.77523 0.48564 0.0
C492 C 0.48014 0.31769 0.68345 0.0
C493 C 0.48772 0.31638 0.66238 0.0
C494 C 0.4716 0.33674 0.69138 0.0
C495 C 0.44574 0.38461 0.67213 0.0
H496 H 0.45261 0.40526 0.73108 0.0
C497 C 0.38998 0.44459 0.71147 0.0
C498 C 0.3986 0.46102 0.72484 0.0
C499 C 0.40238 0.42811 0.70353 0.0
C500 C 0.45071 0.39981 0.71451 0.0
H501 H 0.49326 0.33435 0.6335 0.0
H502 H 0.47854 0.36756 0.64742 0.0
H503 H 0.47265 0.37467 0.71818 0.0
H504 H 0.42706 0.47316 0.74021 0.0
H505 H 0.44873 0.44435 0.72624 0.0
H506 H 0.42382 0.40968 0.66843 0.0
C507 C 0.47885 0.35377 0.65766 0.0
C508 C 0.46202 0.38219 0.7072 0.0
C509 C 0.48738 0.33476 0.64974 0.0
C510 C 0.41994 0.46072 0.72996 0.0
C511 C 0.43233 0.44417 0.72207 0.0
C512 C 0.4344 0.40216 0.67945 0.0
C513 C 0.47049 0.35484 0.67841 0.0
C514 C 0.45952 0.3743 0.68597 0.0
C515 C 0.42366 0.42767 0.70882 0.0
C516 C 0.4366 0.4098 0.70078 0.0
H517 H 0.4802 0.30384 0.69361 0.0
H518 H 0.46513 0.33701 0.70738 0.0
H519 H 0.44328 0.37878 0.65575 0.0
H520 H 0.37359 0.44432 0.70726 0.0
H521 H 0.39519 0.41547 0.69358 0.0
C522 C 0.92315 0.2056 0.90766 0.0
C523 C 0.9403 0.21221 0.9205 0.0
C524 C 0.90454 0.19911 0.91705 0.0
C525 C 0.88294 0.17873 0.96733 0.0
H526 H 0.83049 0.19537 0.94204 0.0
C527 C 0.80321 0.15925 0.00544 0.0
C528 C 0.78749 0.15159 0.99122 0.0
C529 C 0.82196 0.16744 -0.00243 0.0
C530 C 0.84502 0.19046 0.94918 0.0
H531 H 0.95134 0.2173 0.95331 0.0
H532 H 0.91869 0.20614 0.96973 0.0
H533 H 0.86305 0.20846 0.92698 0.0
H534 H 0.77916 0.14643 0.95759 0.0
H535 H 0.81185 0.16059 0.94393 0.0
H536 H 0.86483 0.16066 0.98948 0.0
C537 C 0.91976 0.20575 0.95238 0.0
C538 C 0.86366 0.19794 0.94055 0.0
C539 C 0.93842 0.21224 0.94297 0.0
C540 C 0.79092 0.15226 0.96899 0.0
C541 C 0.8096 0.1605 0.96115 0.0
C542 C 0.86427 0.17128 0.97599 0.0
C543 C 0.90262 0.19911 0.93951 0.0
C544 C 0.88283 0.19197 0.94938 0.0
C545 C 0.82531 0.16821 0.97534 0.0
C546 C 0.84512 0.17689 0.96685 0.0
H547 H 0.92411 0.20531 0.8903 0.0
H548 H 0.89173 0.19376 0.9067 0.0
H549 H 0.89746 0.17364 0.97433 0.0
H550 H 0.80104 0.15897 0.02265 0.0
H551 H 0.83373 0.17342 0.00888 0.0
C552 C 0.29678 0.06991 0.44937 0.0
C553 C 0.28386 0.08778 0.44787 0.0
C554 C 0.30693 0.06186 0.43122 0.0
C555 C 0.32612 0.07912 0.3791 0.0
H556 H 0.33011 0.01817 0.36588 0.0
C557 C 0.36148 0.04779 0.30011 0.0
C558 C 0.37424 0.02978 0.30108 0.0
C559 C 0.35001 0.05432 0.31794 0.0
C560 C 0.32934 0.03523 0.3695 0.0
H561 H 0.2709 0.11073 0.426 0.0
H562 H 0.28857 0.09664 0.39442 0.0
H563 H 0.31051 0.03021 0.3972 0.0
H564 H 0.38502 0.00451 0.32155 0.0
H565 H 0.3653 0.01616 0.35281 0.0
H566 H 0.34513 0.08424 0.35169 0.0
C567 C 0.29105 0.08904 0.40966 0.0
C568 C 0.31808 0.04211 0.3874 0.0
C569 C 0.28084 0.09702 0.42775 0.0
C570 C 0.37529 0.01843 0.32027 0.0
C571 C 0.36387 0.02502 0.33815 0.0
C572 C 0.33744 0.07226 0.36131 0.0
C573 C 0.30443 0.07159 0.41127 0.0
C574 C 0.3163 0.06413 0.39232 0.0
C575 C 0.35111 0.04305 0.33719 0.0
C576 C 0.33914 0.05025 0.35624 0.0
H577 H 0.29941 0.06241 0.46464 0.0
H578 H 0.31725 0.04845 0.43294 0.0
H579 H 0.32533 0.09618 0.38273 0.0
H580 H 0.36022 0.0568 0.28552 0.0
H581 H 0.34008 0.06808 0.31656 0.0
C582 C 0.18597 0.01989 0.68793 0.0
C583 C 0.19033 0.03293 0.70625 0.0
C584 C 0.19421 0.02511 0.66804 0.0
C585 C 0.21292 0.07201 0.6391 0.0
H586 H 0.23068 0.02969 0.5967 0.0
C587 C 0.24435 0.09736 0.55769 0.0
C588 C 0.23684 0.08585 0.53942 0.0
C589 C 0.24082 0.08972 0.57819 0.0
C590 C 0.22562 0.04165 0.60834 0.0
H591 H 0.20761 0.06106 0.71826 0.0
H592 H 0.22217 0.07006 0.68353 0.0
H593 H 0.22139 0.01834 0.63272 0.0
H594 H 0.22028 0.05693 0.52832 0.0
H595 H 0.21381 0.04369 0.56434 0.0
H596 H 0.21676 0.09526 0.61477 0.0
C597 C 0.21208 0.056 0.68452 0.0
C598 C 0.22035 0.03517 0.62895 0.0
C599 C 0.20382 0.05078 0.70443 0.0
C600 C 0.22623 0.06618 0.54209 0.0
C601 C 0.22262 0.05855 0.5627 0.0
C602 C 0.21817 0.07846 0.61855 0.0
C603 C 0.20701 0.04347 0.66603 0.0
C604 C 0.21385 0.05029 0.64453 0.0
C605 C 0.22961 0.07044 0.58097 0.0
C606 C 0.22452 0.06337 0.60291 0.0
H607 H 0.17567 0.00597 0.68879 0.0
H608 H 0.18985 0.01523 0.65409 0.0
H609 H 0.20755 0.08399 0.65056 0.0
H610 H 0.25284 0.11244 0.55621 0.0
H611 H 0.24677 0.09904 0.59192 0.0
C612 C 0.16262 0.00596 0.83774 0.0
C613 C 0.17106 0.00159 0.81741 0.0
C614 C 0.1719 -0.00198 0.85619 0.0
C615 C 0.2059 0.95461 0.87325 0.0
H616 H 0.20629 0.98622 0.92773 0.0
C617 C 0.2428 0.9209 0.9496 0.0
C618 C 0.2306 0.92208 0.96819 0.0
C619 C 0.23729 0.93219 0.93139 0.0
C620 C 0.2062 0.97719 0.91263 0.0
H621 H 0.19632 0.9862 0.80054 0.0
H622 H 0.21276 0.97267 0.83282 0.0
H623 H 0.19407 0.00351 0.89532 0.0
H624 H 0.20339 0.93649 0.98245 0.0
H625 H 0.19378 0.95621 0.95058 0.0
H626 H 0.21792 0.92828 0.89058 0.0
C627 C 0.19871 0.98186 0.83446 0.0
C628 C 0.19919 0.98706 0.89408 0.0
C629 C 0.18936 0.98971 0.81597 0.0
C630 C 0.21308 0.93521 0.96837 0.0
C631 C 0.20765 0.94661 0.95017 0.0
C632 C 0.21302 0.94481 0.89176 0.0
C633 C 0.18989 0.98563 0.85475 0.0
C634 C 0.19874 0.97579 0.87422 0.0
C635 C 0.21956 0.94499 0.93142 0.0
C636 C 0.21303 0.95591 0.91167 0.0
H637 H 0.14851 0.01504 0.83941 0.0
H638 H 0.16452 0.001 0.87151 0.0
H639 H 0.20542 0.94532 0.85832 0.0
H640 H 0.25645 0.911 0.94896 0.0
H641 H 0.2469 0.93084 0.91725 0.0
C642 C 0.28339 0.94979 0.05788 0.0
C643 C 0.27841 0.92772 0.05786 0.0
C644 C 0.29209 0.96004 0.07615 0.0
C645 C 0.30111 0.95382 0.13461 0.0
H646 H 0.34901 0.99111 0.12525 0.0
C647 C 0.36212 0.97483 0.20045 0.0
C648 C 0.37045 0.99586 0.2016 0.0
C649 C 0.34867 0.9684 0.18366 0.0
C650 C 0.33546 0.98102 0.12815 0.0
H651 H 0.27804 0.89923 0.07724 0.0
H652 H 0.29345 0.91702 0.10894 0.0
H653 H 0.3291 0.9766 0.09456 0.0
H654 H 0.37089 0.02677 0.18627 0.0
H655 H 0.34737 0.0155 0.15694 0.0
H656 H 0.30787 0.95783 0.16822 0.0
C657 C 0.29042 0.9265 0.09495 0.0
C658 C 0.32402 0.97272 0.11056 0.0
C659 C 0.2817 0.91626 0.07671 0.0
C660 C 0.36479 0.01043 0.1858 0.0
C661 C 0.35139 0.00396 0.16895 0.0
C662 C 0.31259 0.96208 0.1522 0.0
C663 C 0.29599 0.94843 0.09478 0.0
C664 C 0.30691 0.95876 0.11357 0.0
C665 C 0.34331 0.98283 0.16763 0.0
C666 C 0.33007 0.97551 0.14914 0.0
H667 H 0.28092 0.95911 0.04366 0.0
H668 H 0.29594 0.97703 0.07562 0.0
H669 H 0.2878 0.94339 0.13747 0.0
H670 H 0.36615 0.96321 0.21238 0.0
H671 H 0.34292 0.95193 0.18294 0.0
C672 C 0.29188 0.34039 0.08043 0.0
C673 C 0.29194 0.34809 0.05941 0.0
C674 C 0.30959 0.3309 0.08894 0.0
C675 C 0.36626 0.3295 0.08182 0.0
H676 H 0.36305 0.27723 0.11428 0.0
C677 C 0.43908 0.28223 0.10202 0.0
C678 C 0.44097 0.27456 0.12295 0.0
C679 C 0.42037 0.29064 0.09491 0.0
C680 C 0.36414 0.29196 0.10544 0.0
H681 H 0.31045 0.35141 0.03066 0.0
H682 H 0.34113 0.33479 0.04542 0.0
H683 H 0.33111 0.2931 0.10081 0.0
H684 H 0.42458 0.26928 0.15271 0.0
H685 H 0.39187 0.28417 0.14028 0.0
H686 H 0.39919 0.32843 0.08634 0.0
C687 C 0.32755 0.33637 0.05546 0.0
C688 C 0.34589 0.30104 0.09775 0.0
C689 C 0.30991 0.34579 0.04697 0.0
C690 C 0.42362 0.27508 0.13649 0.0
C691 C 0.40486 0.28351 0.12935 0.0
C692 C 0.38445 0.32046 0.08948 0.0
C693 C 0.32767 0.32902 0.07659 0.0
C694 C 0.34681 0.31977 0.08565 0.0
C695 C 0.40313 0.29161 0.10856 0.0
C696 C 0.38363 0.30147 0.10116 0.0
H697 H 0.27826 0.34191 0.09041 0.0
H698 H 0.30929 0.32547 0.10532 0.0
H699 H 0.36743 0.3442 0.07293 0.0
H700 H 0.45211 0.28193 0.09113 0.0
H701 H 0.41941 0.2964 0.07867 0.0
C702 C 0.97868 0.81218 0.18669 0.0
C703 C 0.98713 0.81065 0.166 0.0
C704 C 0.97136 0.83176 0.19466 0.0
C705 C 0.94993 0.88169 0.17513 0.0
H706 H 0.95365 0.89996 0.23506 0.0
C707 C 0.89225 0.93981 0.21353 0.0
C708 C 0.89988 0.95566 0.22818 0.0
C709 C 0.90531 0.92397 0.2055 0.0
C710 C 0.9527 0.89522 0.21822 0.0
H711 H 0.99559 0.82871 0.13792 0.0
H712 H 0.98294 0.86286 0.15192 0.0
H713 H 0.97339 0.86905 0.22239 0.0
H714 H 0.92727 0.96745 0.24574 0.0
H715 H 0.95014 0.93963 0.23167 0.0
H716 H 0.9291 0.90765 0.17097 0.0
C717 C 0.98166 0.84885 0.16182 0.0
C718 C 0.96383 0.87741 0.21102 0.0
C719 C 0.98897 0.82929 0.15384 0.0
C720 C 0.92093 0.95545 0.23447 0.0
C721 C 0.934 0.93948 0.22651 0.0
C722 C 0.93878 0.8994 0.18233 0.0
C723 C 0.97236 0.8502 0.18211 0.0
C724 C 0.96229 0.87026 0.18947 0.0
C725 C 0.92628 0.92356 0.21199 0.0
C726 C 0.93974 0.90611 0.20402 0.0
H727 H 0.9771 0.79813 0.19648 0.0
H728 H 0.9641 0.83223 0.21028 0.0
H729 H 0.94824 0.87647 0.15847 0.0
H730 H 0.87611 0.9395 0.20836 0.0
H731 H 0.89884 0.91174 0.19457 0.0
C732 C 0.18374 0.67134 0.51759 0.0
C733 C 0.17855 0.64957 0.51356 0.0
C734 C 0.16866 0.68566 0.52465 0.0
C735 C 0.1116 0.69184 0.53086 0.0
H736 H 0.12801 0.72913 0.57917 0.0
C737 C 0.05384 0.72512 0.59237 0.0
C738 C 0.05663 0.74639 0.60008 0.0
C739 C 0.06837 0.71589 0.57865 0.0
C740 C 0.12325 0.7191 0.56545 0.0
H741 H 0.15332 0.62591 0.51303 0.0
H742 H 0.12716 0.65072 0.52575 0.0
H743 H 0.15419 0.70824 0.5605 0.0
H744 H 0.07661 0.77482 0.59912 0.0
H745 H 0.10218 0.75852 0.57524 0.0
H746 H 0.08049 0.70213 0.53647 0.0
C747 C 0.14278 0.65686 0.52315 0.0
C748 C 0.13826 0.70715 0.55471 0.0
C749 C 0.15783 0.64258 0.516 0.0
C750 C 0.07407 0.75838 0.59348 0.0
C751 C 0.08872 0.74905 0.57988 0.0
C752 C 0.09658 0.70371 0.54169 0.0
C753 C 0.14809 0.67849 0.5279 0.0
C754 C 0.13254 0.69303 0.53758 0.0
C755 C 0.08607 0.72767 0.57246 0.0
C756 C 0.10221 0.71711 0.55936 0.0
H757 H 0.19955 0.67727 0.51568 0.0
H758 H 0.17318 0.70229 0.52785 0.0
H759 H 0.10675 0.68144 0.51747 0.0
H760 H 0.04054 0.71547 0.59709 0.0
H761 H 0.06606 0.69928 0.57342 0.0
C762 C 0.01946 0.68553 0.69153 0.0
C763 C 0.00551 0.70153 0.6857 0.0
C764 C 0.01252 0.66776 0.70292 0.0
C765 C 0.96885 0.64767 0.73569 0.0
H766 H 0.98392 0.59172 0.71266 0.0
C767 C 0.91908 0.57186 0.7482 0.0
C768 C 0.929 0.55235 0.75171 0.0
C769 C 0.93065 0.59021 0.74326 0.0
C770 C 0.97985 0.6072 0.71956 0.0
H771 H 0.97352 0.71182 0.68788 0.0
H772 H 0.96145 0.68086 0.70756 0.0
H773 H 0.00051 0.624 0.69879 0.0
H774 H 0.95889 0.53682 0.75309 0.0
H775 H 0.97915 0.56902 0.74439 0.0
H776 H 0.94774 0.63091 0.756 0.0
C777 C 0.97777 0.68208 0.70352 0.0
C778 C 0.98937 0.62569 0.71162 0.0
C779 C 0.98467 0.69976 0.69208 0.0
C780 C 0.95079 0.55162 0.75041 0.0
C781 C 0.96238 0.57002 0.74537 0.0
C782 C 0.95934 0.62921 0.74361 0.0
C783 C 0.99154 0.66574 0.70881 0.0
C784 C 0.98357 0.64614 0.71923 0.0
C785 C 0.9524 0.58948 0.74168 0.0
C786 C 0.96436 0.60881 0.73524 0.0
H787 H 0.03564 0.68648 0.68689 0.0
H788 H 0.02351 0.65549 0.70695 0.0
H789 H 0.96435 0.6632 0.74214 0.0
H790 H 0.90232 0.57297 0.74908 0.0
H791 H 0.92247 0.60488 0.74016 0.0
C792 C 0.19091 0.16612 0.46199 0.0
C793 C 0.18945 0.14866 0.4758 0.0
C794 C 0.17301 0.17444 0.45267 0.0
C795 C 0.11899 0.15893 0.43826 0.0
H796 H 0.11217 0.22011 0.43139 0.0
C797 C 0.05405 0.19239 0.38516 0.0
C798 C 0.04361 0.21053 0.39301 0.0
C799 C 0.07187 0.1853 0.39559 0.0
C800 C 0.11378 0.20299 0.43334 0.0
H801 H 0.16801 0.12666 0.49115 0.0
H802 H 0.13686 0.14131 0.47512 0.0
H803 H 0.14304 0.20721 0.44979 0.0
H804 H 0.0437 0.23549 0.41796 0.0
H805 H 0.07469 0.22294 0.43632 0.0
H806 H 0.08963 0.15468 0.42216 0.0
C807 C 0.15184 0.14834 0.47118 0.0
C808 C 0.13156 0.19559 0.44367 0.0
C809 C 0.1697 0.14003 0.48047 0.0
C810 C 0.05141 0.22147 0.41149 0.0
C811 C 0.06924 0.21436 0.42194 0.0
C812 C 0.10125 0.16631 0.42794 0.0
C813 C 0.1533 0.16547 0.45697 0.0
C814 C 0.13436 0.17347 0.44624 0.0
C815 C 0.07964 0.19617 0.41412 0.0
C816 C 0.09845 0.18842 0.42531 0.0
H817 H 0.2059 0.17313 0.45804 0.0
H818 H 0.17467 0.18752 0.44164 0.0
H819 H 0.12079 0.14177 0.43974 0.0
H820 H 0.04852 0.18365 0.3709 0.0
H821 H 0.0797 0.17142 0.38898 0.0
C822 C 0.61199 0.4395 0.22741 0.0
C823 C 0.62068 0.44151 0.24816 0.0
C824 C 0.59839 0.42247 0.222 0.0
C825 C 0.58268 0.36791 0.23717 0.0
H826 H 0.53556 0.37894 0.19995 0.0
C827 C 0.52502 0.30103 0.20516 0.0
C828 C 0.52232 0.30115 0.18274 0.0
C829 C 0.535 0.3184 0.21598 0.0
C830 C 0.54863 0.37564 0.2104 0.0
H831 H 0.62202 0.42708 0.27948 0.0
H832 H 0.59809 0.39728 0.26999 0.0
H833 H 0.55716 0.40889 0.21371 0.0
H834 H 0.52743 0.31973 0.15416 0.0
H835 H 0.54453 0.34989 0.17299 0.0
H836 H 0.57423 0.33453 0.23344 0.0
C837 C 0.60196 0.40887 0.2579 0.0
C838 C 0.56104 0.39275 0.2182 0.0
C839 C 0.61561 0.42596 0.26334 0.0
C840 C 0.52932 0.3191 0.17144 0.0
C841 C 0.53899 0.33647 0.18223 0.0
C842 C 0.57016 0.35075 0.22941 0.0
C843 C 0.59309 0.40705 0.2372 0.0
C844 C 0.57856 0.38904 0.23115 0.0
C845 C 0.54206 0.33626 0.20457 0.0
C846 C 0.55338 0.35444 0.21546 0.0
H847 H 0.61565 0.45111 0.21528 0.0
H848 H 0.59219 0.42128 0.20577 0.0
H849 H 0.59612 0.36453 0.24704 0.0
H850 H 0.51982 0.28738 0.21426 0.0
H851 H 0.53717 0.31789 0.23323 0.0
C852 C 0.31868 0.83891 0.98636 0.0
C853 C 0.3194 0.86088 0.99211 0.0
C854 C 0.33613 0.829 0.97769 0.0
C855 C 0.39313 0.83535 0.97175 0.0
H856 H 0.3843 0.79901 0.92088 0.0
C857 C 0.45953 0.81164 0.91465 0.0
C858 C 0.45902 0.79078 0.90552 0.0
C859 C 0.44294 0.81896 0.92699 0.0
C860 C 0.38704 0.80884 0.93526 0.0
H861 H 0.33917 0.88955 0.99381 0.0
H862 H 0.36948 0.87231 0.97857 0.0
H863 H 0.3545 0.81372 0.93957 0.0
H864 H 0.44098 0.76099 0.90272 0.0
H865 H 0.41221 0.77368 0.92443 0.0
H866 H 0.42571 0.83067 0.96725 0.0
C867 C 0.35551 0.86268 0.98092 0.0
C868 C 0.36994 0.81726 0.94598 0.0
C869 C 0.33808 0.87259 0.98952 0.0
C870 C 0.44179 0.77722 0.90939 0.0
C871 C 0.42525 0.78452 0.92175 0.0
C872 C 0.41024 0.82689 0.96104 0.0
C873 C 0.35467 0.84084 0.97468 0.0
C874 C 0.3728 0.83078 0.96421 0.0
C875 C 0.42552 0.80555 0.93049 0.0
C876 C 0.40739 0.8137 0.94256 0.0
H877 H 0.30454 0.82943 0.98824 0.0
H878 H 0.33509 0.81208 0.97327 0.0
H879 H 0.39581 0.84549 0.98593 0.0
H880 H 0.47256 0.82249 0.91195 0.0
H881 H 0.44353 0.83533 0.9333 0.0
C882 C 0.93701 0.40988 0.76528 0.0
C883 C 0.93755 0.43046 0.7751 0.0
C884 C 0.94619 0.39261 0.77543 0.0
C885 C 0.98342 0.37884 0.8184 0.0
H886 H 0.94888 0.32745 0.82291 0.0
C887 C -0.00253 0.31557 0.88261 0.0
C888 C 0.99408 0.29382 0.87683 0.0
C889 C 0.99245 0.33165 0.86831 0.0
C890 C 0.95889 0.34152 0.82152 0.0
H891 H 0.94889 0.44925 0.80277 0.0
H892 H 0.9648 0.4192 0.8204 0.0
H893 H 0.93734 0.35655 0.80057 0.0
H894 H 0.98321 0.27187 0.85132 0.0
H895 H 0.97466 0.29991 0.82635 0.0
H896 H 0.00482 0.36394 0.83964 0.0
C897 C 0.95738 0.41638 0.80487 0.0
C898 C 0.95228 0.35819 0.8087 0.0
C899 C 0.94812 0.43358 0.79482 0.0
C900 C 0.98587 0.28849 0.85634 0.0
C901 C 0.9809 0.30455 0.84204 0.0
C902 C 0.99006 0.36214 0.83119 0.0
C903 C 0.95622 0.39565 0.79547 0.0
C904 C 0.96431 0.37716 0.80728 0.0
C905 C 0.98398 0.32632 0.84792 0.0
C906 C 0.97771 0.34344 0.83316 0.0
H907 H 0.92903 0.40697 0.75006 0.0
H908 H 0.94523 0.37683 0.76772 0.0
H909 H 0.99314 0.39318 0.81738 0.0
H910 H 0.00377 0.32021 0.89828 0.0
H911 H 0.99476 0.34828 0.87345 0.0
C912 C 0.30763 0.18164 0.51475 0.0
C913 C 0.30594 0.15984 0.51996 0.0
C914 C 0.32354 0.19471 0.52382 0.0
C915 C 0.3589 0.19828 0.57055 0.0
H916 H 0.39307 0.23543 0.5357 0.0
C917 C 0.42389 0.25165 0.6083 0.0
C918 C 0.44321 0.25079 0.598 0.0
C919 C 0.40596 0.24329 0.59814 0.0
C920 C 0.38363 0.22513 0.54561 0.0
H921 H 0.31971 0.13463 0.53858 0.0
H922 H 0.34726 0.15734 0.55426 0.0
H923 H 0.36384 0.21513 0.51914 0.0
H924 H 0.45874 0.24117 0.56862 0.0
H925 H 0.42742 0.22633 0.55095 0.0
H926 H 0.3789 0.20765 0.59686 0.0
C927 C 0.33623 0.1644 0.54338 0.0
C928 C 0.36682 0.21369 0.53619 0.0
C929 C 0.3205 0.15137 0.53426 0.0
C930 C 0.44409 0.24202 0.57701 0.0
C931 C 0.42613 0.23366 0.56683 0.0
C932 C 0.37559 0.20975 0.57997 0.0
C933 C 0.33786 0.18622 0.53838 0.0
C934 C 0.35454 0.19986 0.54852 0.0
C935 C 0.40694 0.23388 0.57744 0.0
C936 C 0.38832 0.22308 0.56756 0.0
H937 H 0.29665 0.18861 0.50376 0.0
H938 H 0.32443 0.21151 0.51976 0.0
H939 H 0.34954 0.18792 0.58049 0.0
H940 H 0.42263 0.25846 0.6244 0.0
H941 H 0.39134 0.24396 0.6066 0.0
C942 C 0.53844 0.68701 0.32839 0.0
C943 C 0.52364 0.6851 0.34472 0.0
C944 C 0.54644 0.66869 0.31834 0.0
C945 C 0.55521 0.61173 0.32799 0.0
H946 H 0.56657 0.60871 0.26696 0.0
C947 C 0.58968 0.53626 0.28815 0.0
C948 C 0.60605 0.53983 0.27381 0.0
C949 C 0.57756 0.5533 0.29536 0.0
C950 C 0.5636 0.60939 0.28405 0.0
H951 H 0.50516 0.66249 0.36286 0.0
H952 H 0.51905 0.63056 0.34521 0.0
H953 H 0.54902 0.63993 0.2822 0.0
H954 H 0.62219 0.56396 0.25534 0.0
H955 H 0.60123 0.59371 0.26814 0.0
H956 H 0.57011 0.58147 0.33 0.0
C957 C 0.52465 0.64622 0.34039 0.0
C958 C 0.55355 0.62724 0.29276 0.0
C959 C 0.51663 0.66452 0.35042 0.0
C960 C 0.60969 0.56068 0.26639 0.0
C961 C 0.59759 0.57772 0.27362 0.0
C962 C 0.56527 0.59392 0.31931 0.0
C963 C 0.53982 0.6481 0.32443 0.0
C964 C 0.54941 0.62868 0.31486 0.0
C965 C 0.58156 0.57426 0.2884 0.0
C966 C 0.56974 0.59263 0.29728 0.0
H967 H 0.54415 0.70263 0.32362 0.0
H968 H 0.55827 0.67066 0.30625 0.0
H969 H 0.55254 0.61253 0.34514 0.0
H970 H 0.58638 0.52036 0.29406 0.0
H971 H 0.56512 0.55007 0.30649 0.0
C972 C 0.06236 0.77647 0.0764 0.0
C973 C 0.06206 0.75776 0.08853 0.0
C974 C 0.08082 0.78386 0.06731 0.0
C975 C 0.13484 0.7689 0.05371 0.0
H976 H 0.14477 0.83039 0.05979 0.0
C977 C 0.21525 0.81087 0.0412 0.0
C978 C 0.21514 0.83046 0.03046 0.0
C979 C 0.19652 0.80065 0.04667 0.0
C980 C 0.14214 0.81323 0.05772 0.0
H981 H 0.08071 0.73164 0.09994 0.0
H982 H 0.11308 0.74481 0.08441 0.0
H983 H 0.11212 0.81489 0.07188 0.0
H984 H 0.1953 0.85427 0.01635 0.0
H985 H 0.16281 0.83645 0.0258 0.0
H986 H 0.16521 0.76738 0.03987 0.0
C987 C 0.09898 0.75361 0.08168 0.0
C988 C 0.12339 0.80432 0.0646 0.0
C989 C 0.08044 0.74611 0.09066 0.0
C990 C 0.19597 0.83929 0.02478 0.0
C991 C 0.17732 0.82913 0.03027 0.0
C992 C 0.15371 0.77785 0.04688 0.0
C993 C 0.09946 0.77284 0.0703 0.0
C994 C 0.11944 0.78208 0.06261 0.0
C995 C 0.17738 0.80989 0.04156 0.0
C996 C 0.15749 0.80012 0.04874 0.0
H997 H 0.04841 0.78567 0.07424 0.0
H998 H 0.08054 0.79844 0.05821 0.0
H999 H 0.13221 0.75173 0.0518 0.0
H1000 H 0.22976 0.80363 0.04576 0.0
H1001 H 0.19704 0.78589 0.05548 0.0
C1002 C 0.72412 0.929 0.54359 0.0
C1003 C 0.73367 0.90936 0.54756 0.0
C1004 C 0.71727 0.94196 0.56065 0.0
C1005 C 0.72189 0.95145 0.61938 0.0
H1006 H 0.66414 0.96774 0.61509 0.0
C1007 C 0.67169 0.96898 0.69336 0.0
C1008 C 0.65589 0.98416 0.69197 0.0
C1009 C 0.68358 0.96375 0.67541 0.0
C1010 C 0.68041 0.96378 0.61646 0.0
H1011 H 0.74444 0.8884 0.57249 0.0
H1012 H 0.7325 0.91099 0.60217 0.0
H1013 H 0.68113 0.95194 0.58395 0.0
H1014 H 0.64087 0.00657 0.67099 0.0
H1015 H 0.66188 -0.00229 0.63976 0.0
H1016 H 0.72105 0.9629 0.65204 0.0
C1017 C 0.73035 0.91641 0.58592 0.0
C1018 C 0.69014 0.95469 0.59858 0.0
C1019 C 0.73703 0.90339 0.5689 0.0
C1020 C 0.65279 0.99463 0.67251 0.0
C1021 C 0.66477 0.9895 0.65459 0.0
C1022 C 0.7122 0.96067 0.63724 0.0
C1023 C 0.72005 0.93562 0.58197 0.0
C1024 C 0.71081 0.94795 0.60001 0.0
C1025 C 0.68004 0.9737 0.65571 0.0
C1026 C 0.69119 0.96645 0.63614 0.0
H1027 H 0.72137 0.93407 0.52732 0.0
H1028 H 0.7095 0.95677 0.55717 0.0
H1029 H 0.73794 0.94666 0.62083 0.0
H1030 H 0.67447 0.96063 0.70813 0.0
H1031 H 0.695 0.9513 0.67679 0.0
C1032 C 0.83988 0.941 0.31444 0.0
C1033 C 0.82857 0.95315 0.29983 0.0
C1034 C 0.83023 0.93269 0.33249 0.0
C1035 C 0.77971 0.91689 0.35423 0.0
H1036 H 0.80801 0.92413 0.40928 0.0
C1037 C 0.74199 0.89159 0.434 0.0
C1038 C 0.75507 0.88201 0.44905 0.0
C1039 C 0.75031 0.90084 0.41566 0.0
C1040 C 0.8 0.92174 0.39401 0.0
H1041 H 0.79818 0.9658 0.29244 0.0
H1042 H 0.78129 0.95108 0.32399 0.0
H1043 H 0.82379 0.93883 0.3773 0.0
H1044 H 0.78707 0.87427 0.45651 0.0
H1045 H 0.80145 0.88989 0.42442 0.0
H1046 H 0.75611 0.89942 0.37084 0.0
C1047 C 0.79762 0.94804 0.32142 0.0
C1048 C 0.80903 0.93021 0.37571 0.0
C1049 C 0.80732 0.95653 0.30344 0.0
C1050 C 0.77657 0.88168 0.44531 0.0
C1051 C 0.78485 0.89077 0.42696 0.0
C1052 C 0.77074 0.90825 0.37253 0.0
C1053 C 0.80905 0.93621 0.33621 0.0
C1054 C 0.79906 0.92773 0.35563 0.0
C1055 C 0.77185 0.90058 0.41197 0.0
C1056 C 0.78088 0.91043 0.3926 0.0
H1057 H 0.85626 0.93808 0.31211 0.0
H1058 H 0.83934 0.92341 0.34351 0.0
H1059 H 0.77178 0.91463 0.33889 0.0
H1060 H 0.72536 0.89215 0.43648 0.0
H1061 H 0.7399 0.90846 0.40455 0.0
C1062 C 0.73754 0.0898 0.06458 0.0
C1063 C 0.73838 0.07787 0.04516 0.0
C1064 C 0.74226 0.08028 0.08403 0.0
C1065 C 0.77244 0.03642 0.10559 0.0
H1066 H 0.74311 0.04986 0.15822 0.0
C1067 C 0.79829 0.00182 0.1858 0.0
C1068 C 0.79985 0.01661 0.20319 0.0
C1069 C 0.78778 0.00709 0.16701 0.0
C1070 C 0.75149 0.04604 0.14366 0.0
H1071 H 0.74419 0.04639 0.03099 0.0
H1072 H 0.75237 0.02975 0.06502 0.0
H1073 H 0.73014 0.06312 0.12411 0.0
H1074 H 0.79085 0.04816 0.21487 0.0
H1075 H 0.77279 0.05751 0.18191 0.0
H1076 H 0.7941 0.01988 0.12507 0.0
C1077 C 0.74828 0.04654 0.06513 0.0
C1078 C 0.74407 0.05361 0.12415 0.0
C1079 C 0.74352 0.05606 0.04566 0.0
C1080 C 0.78994 0.03642 0.20174 0.0
C1081 C 0.77948 0.04174 0.18289 0.0
C1082 C 0.77987 0.0289 0.12506 0.0
C1083 C 0.74793 0.05863 0.08449 0.0
C1084 C 0.75464 0.04912 0.10495 0.0
C1085 C 0.77866 0.02729 0.16516 0.0
C1086 C 0.76964 0.03385 0.14436 0.0
H1087 H 0.73361 0.10664 0.06476 0.0
H1088 H 0.7421 0.09009 0.09864 0.0
H1089 H 0.78112 0.03298 0.09113 0.0
H1090 H 0.80557 0.98631 0.1865 0.0
H1091 H 0.78709 0.99546 0.15378 0.0
C1092 C 0.61533 0.01895 0.81684 0.0
C1093 C 0.62532 0.01267 0.7978 0.0
C1094 C 0.62692 0.02409 0.83541 0.0
C1095 C 0.67922 0.04308 0.85186 0.0
H1096 H 0.65978 0.0308 0.90908 0.0
C1097 C 0.72534 0.07122 0.92742 0.0
C1098 C 0.71357 0.08138 0.94346 0.0
C1099 C 0.71549 0.05973 0.91053 0.0
C1100 C 0.66536 0.03438 0.89319 0.0
H1101 H 0.65523 0.00584 0.78357 0.0
H1102 H 0.6754 0.01452 0.81605 0.0
H1103 H 0.64079 0.01588 0.87779 0.0
H1104 H 0.68225 0.0869 0.95476 0.0
H1105 H 0.66509 0.06703 0.92521 0.0
H1106 H 0.70353 0.06189 0.86718 0.0
C1107 C 0.65865 0.0159 0.81651 0.0
C1108 C 0.65449 0.02587 0.87529 0.0
C1109 C 0.64707 0.01084 0.79793 0.0
C1110 C 0.69177 0.07929 0.94262 0.0
C1111 C 0.68193 0.06777 0.92577 0.0
C1112 C 0.6901 0.05153 0.86973 0.0
C1113 C 0.64874 0.02296 0.83535 0.0
C1114 C 0.66114 0.03039 0.85442 0.0
C1115 C 0.69367 0.05812 0.90939 0.0
C1116 C 0.68311 0.04754 0.89058 0.0
H1117 H 0.59859 0.02051 0.81726 0.0
H1118 H 0.61882 0.0297 0.84958 0.0
H1119 H 0.68458 0.04718 0.83602 0.0
H1120 H 0.74217 0.07242 0.92767 0.0
H1121 H 0.72494 0.05225 0.89825 0.0
C1122 C 0.53704 0.71195 0.92103 0.0
C1123 C 0.53896 0.72749 0.90516 0.0
C1124 C 0.55465 0.7045 0.93158 0.0
C1125 C 0.60996 0.71743 0.94356 0.0
H1126 H 0.61368 0.65597 0.95093 0.0
C1127 C 0.68636 0.67623 0.96711 0.0
C1128 C 0.68501 0.65925 0.98151 0.0
C1129 C 0.66834 0.68542 0.95902 0.0
C1130 C 0.61277 0.6732 0.94927 0.0
H1131 H 0.56085 0.74772 0.88822 0.0
H1132 H 0.5916 0.73458 0.90652 0.0
H1133 H 0.58255 0.67054 0.93471 0.0
H1134 H 0.6637 0.63892 -0.00092 0.0
H1135 H 0.63231 0.65508 0.9851 0.0
H1136 H 0.6403 0.72003 0.95798 0.0
C1137 C 0.57645 0.72831 0.91095 0.0
C1138 C 0.59493 0.68155 0.93997 0.0
C1139 C 0.55884 0.73574 0.90037 0.0
C1140 C 0.66528 0.65191 0.98793 0.0
C1141 C 0.64728 0.66108 0.97983 0.0
C1142 C 0.62783 0.70907 0.95288 0.0
C1143 C 0.57457 0.71245 0.92651 0.0
C1144 C 0.59334 0.70374 0.93695 0.0
C1145 C 0.6486 0.67781 0.96514 0.0
C1146 C 0.62945 0.68685 0.95577 0.0
H1147 H 0.52195 0.70534 0.92517 0.0
H1148 H 0.55266 0.6925 0.94371 0.0
H1149 H 0.60909 0.73464 0.94169 0.0
H1150 H 0.70132 0.68225 0.96183 0.0
H1151 H 0.66988 0.69812 0.94755 0.0
C1152 C 0.08076 0.0576 0.7615 0.0
C1153 C 0.10258 0.05716 0.76251 0.0
C1154 C 0.07008 0.07456 0.77118 0.0
C1155 C 0.07711 0.11562 0.81429 0.0
H1156 H 0.02664 0.13904 0.79063 0.0
C1157 C 0.02581 0.17143 0.86464 0.0
C1158 C 0.01807 0.18958 0.85454 0.0
C1159 C 0.03513 0.15511 0.85261 0.0
C1160 C 0.04079 0.13276 0.79737 0.0
H1161 H 0.13038 0.0747 0.77338 0.0
H1162 H 0.1118 0.10443 0.78982 0.0
H1163 H 0.04552 0.11199 0.76998 0.0
H1164 H 0.0136 0.20462 0.82382 0.0
H1165 H 0.03019 0.17629 0.80287 0.0
H1166 H 0.07275 0.13664 0.84142 0.0
C1167 C 0.10289 0.09143 0.78207 0.0
C1168 C 0.05149 0.11713 0.78564 0.0
C1169 C 0.11354 0.07445 0.77253 0.0
C1170 C 0.0194 0.19083 0.83209 0.0
C1171 C 0.02881 0.17453 0.82006 0.0
C1172 C 0.06648 0.13125 0.82596 0.0
C1173 C 0.08103 0.09143 0.78195 0.0
C1174 C 0.06978 0.10839 0.79399 0.0
C1175 C 0.03701 0.15663 0.83023 0.0
C1176 C 0.04816 0.13995 0.81769 0.0
H1177 H 0.07187 0.0445 0.75391 0.0
H1178 H 0.05323 0.074 0.77093 0.0
H1179 H 0.09097 0.109 0.82135 0.0
H1180 H 0.02488 0.1699 0.88189 0.0
H1181 H 0.04094 0.14132 0.86088 0.0
C1182 C 0.95639 0.31176 0.41685 0.0
C1183 C 0.95718 0.28933 0.41412 0.0
C1184 C 0.94017 0.32115 0.42825 0.0
C1185 C 0.88608 0.3098 0.44382 0.0
H1186 H 0.89364 0.36189 0.47868 0.0
C1187 C 0.81766 0.3511 0.48657 0.0
C1188 C 0.81674 0.37343 0.48404 0.0
C1189 C 0.83543 0.33995 0.48054 0.0
C1190 C 0.89131 0.34737 0.46893 0.0
H1191 H 0.94214 0.2591 0.42211 0.0
H1192 H 0.91407 0.27548 0.4423 0.0
H1193 H 0.92398 0.34386 0.46411 0.0
H1194 H 0.83386 0.40161 0.47358 0.0
H1195 H 0.86473 0.38215 0.46302 0.0
H1196 H 0.8534 0.31347 0.44842 0.0
C1197 C 0.92572 0.28584 0.43523 0.0
C1198 C 0.90866 0.33707 0.46057 0.0
C1199 C 0.94188 0.27645 0.42375 0.0
C1200 C 0.83405 0.38441 0.47571 0.0
C1201 C 0.85182 0.37329 0.46981 0.0
C1202 C 0.86875 0.32005 0.45226 0.0
C1203 C 0.92445 0.3083 0.43726 0.0
C1204 C 0.90623 0.31834 0.44765 0.0
C1205 C 0.85265 0.35093 0.47202 0.0
C1206 C 0.87116 0.33912 0.46462 0.0
H1207 H 0.96793 0.32212 0.4096 0.0
H1208 H 0.93955 0.33851 0.4293 0.0
H1209 H 0.88361 0.29559 0.43366 0.0
H1210 H 0.8046 0.3422 0.493 0.0
H1211 H 0.83571 0.32273 0.48257 0.0
C1212 C 0.56079 0.94246 0.74427 0.0
C1213 C 0.57468 0.9424 0.72699 0.0
C1214 C 0.5512 0.92338 0.75063 0.0
C1215 C 0.56029 0.86572 0.75049 0.0
H1216 H 0.50401 0.86258 0.77216 0.0
C1217 C 0.52752 0.7892 0.78952 0.0
C1218 C 0.51678 0.79268 0.80881 0.0
C1219 C 0.53248 0.8064 0.77637 0.0
C1220 C 0.51979 0.86323 0.76623 0.0
H1221 H 0.58859 0.92244 0.70216 0.0
H1222 H 0.57178 0.88911 0.71331 0.0
H1223 H 0.51609 0.89491 0.75432 0.0
H1224 H 0.50245 0.8169 0.82918 0.0
H1225 H 0.51136 0.8468 0.80648 0.0
H1226 H 0.56427 0.83439 0.76301 0.0
C1227 C 0.56851 0.90391 0.72204 0.0
C1228 C 0.52667 0.88172 0.75599 0.0
C1229 C 0.57804 0.92302 0.7156 0.0
C1230 C 0.51074 0.81363 0.81443 0.0
C1231 C 0.5157 0.83079 0.80131 0.0
C1232 C 0.55343 0.84726 0.76079 0.0
C1233 C 0.55532 0.90383 0.7399 0.0
C1234 C 0.54713 0.88333 0.7484 0.0
C1235 C 0.52678 0.82741 0.78222 0.0
C1236 C 0.53324 0.84599 0.76918 0.0
H1237 H 0.55782 0.95712 0.75335 0.0
H1238 H 0.54127 0.92382 0.76458 0.0
H1239 H 0.57623 0.86658 0.74507 0.0
H1240 H 0.5323 0.77323 0.78468 0.0
H1241 H 0.54084 0.80324 0.76165 0.0
C1242 C 0.96959 0.1848 0.31309 0.0
C1243 C 0.9636 0.19656 0.33147 0.0
C1244 C 0.95815 0.16655 0.30618 0.0
C1245 C 0.92068 0.1261 0.3264 0.0
H1246 H 0.91408 0.11069 0.266 0.0
C1247 C 0.87368 0.05981 0.26806 0.0
C1248 C 0.87658 0.04137 0.2802 0.0
C1249 C 0.8836 0.07923 0.27407 0.0
C1250 C 0.91556 0.11487 0.28293 0.0
H1251 H 0.94049 0.199 0.3565 0.0
H1252 H 0.92022 0.16765 0.34411 0.0
H1253 H 0.93184 0.14427 0.27652 0.0
H1254 H 0.89228 0.02876 0.30802 0.0
H1255 H 0.91 0.0624 0.31816 0.0
H1256 H 0.90386 0.09711 0.33284 0.0
C1257 C 0.93408 0.17205 0.33538 0.0
C1258 C 0.92601 0.134 0.28898 0.0
C1259 C 0.94563 0.19012 0.34241 0.0
C1260 C 0.8896 0.04273 0.29843 0.0
C1261 C 0.89967 0.06208 0.30431 0.0
C1262 C 0.91009 0.10711 0.32036 0.0
C1263 C 0.94037 0.15982 0.31739 0.0
C1264 C 0.92879 0.1398 0.3108 0.0
C1265 C 0.89677 0.08059 0.29223 0.0
C1266 C 0.90753 0.10116 0.29856 0.0
H1267 H 0.98341 0.18935 0.30437 0.0
H1268 H 0.96361 0.15739 0.29242 0.0
H1269 H 0.92278 0.12986 0.34336 0.0
H1270 H 0.86363 0.05929 0.25399 0.0
H1271 H 0.88075 0.09324 0.26459 0.0
C1272 C 0.60434 0.08856 0.73397 0.0
C1273 C 0.5927 0.06972 0.72899 0.0
C1274 C 0.59657 0.10865 0.72909 0.0
C1275 C 0.54867 0.13711 0.7143 0.0
H1276 H 0.58724 0.17559 0.68611 0.0
C1277 C 0.52239 0.20743 0.6628 0.0
C1278 C 0.53463 0.22639 0.66303 0.0
C1279 C 0.52878 0.18958 0.67405 0.0
C1280 C 0.57634 0.16525 0.69431 0.0
H1281 H 0.56347 0.05722 0.71568 0.0
H1282 H 0.55002 0.09233 0.7069 0.0
H1283 H 0.59959 0.14196 0.70001 0.0
H1284 H 0.56273 0.24178 0.67605 0.0
H1285 H 0.5738 0.21063 0.69589 0.0
H1286 H 0.52531 0.1603 0.70816 0.0
C1287 C 0.56507 0.09156 0.71478 0.0
C1288 C 0.58342 0.14594 0.70227 0.0
C1289 C 0.57283 0.07144 0.71968 0.0
C1290 C 0.55303 0.22736 0.6754 0.0
C1291 C 0.55942 0.20949 0.68669 0.0
C1292 C 0.54157 0.15647 0.70634 0.0
C1293 C 0.57701 0.11036 0.71911 0.0
C1294 C 0.56963 0.13153 0.71211 0.0
C1295 C 0.54754 0.19028 0.68584 0.0
C1296 C 0.55528 0.17062 0.696 0.0
H1297 H 0.61963 0.08781 0.74133 0.0
H1298 H 0.606 0.12285 0.73294 0.0
H1299 H 0.53773 0.12647 0.72208 0.0
H1300 H 0.50809 0.20616 0.65346 0.0
H1301 H 0.51938 0.17496 0.67285 0.0
C1302 C 0.19837 0.33052 0.99509 0.0
C1303 C 0.19591 0.34172 0.01473 0.0
C1304 C 0.18213 0.31791 0.9863 0.0
C1305 C 0.13177 0.29132 -0.00169 0.0
H1306 H 0.12278 0.29683 0.93704 0.0
C1307 C 0.05776 0.25976 0.95232 0.0
C1308 C 0.06076 0.25049 0.93179 0.0
C1309 C 0.07448 0.26933 0.96376 0.0
C1310 C 0.12523 0.29488 0.95411 0.0
H1311 H 0.17469 0.34797 0.0409 0.0
H1312 H 0.14606 0.32618 0.02529 0.0
H1313 H 0.15142 0.31646 0.95466 0.0
H1314 H 0.08379 0.24309 0.9076 0.0
H1315 H 0.11288 0.25959 0.92759 0.0
H1316 H 0.10523 0.26989 -0.00237 0.0
C1317 C 0.16069 0.32697 0.01684 0.0
C1318 C 0.14166 0.30613 0.96422 0.0
C1319 C 0.17705 0.33952 0.02573 0.0
C1320 C 0.08091 0.25029 0.92328 0.0
C1321 C 0.09757 0.25982 0.93469 0.0
C1322 C 0.11522 0.28007 0.98816 0.0
C1323 C 0.16296 0.31633 -0.00317 0.0
C1324 C 0.14524 0.30438 0.9864 0.0
C1325 C 0.09447 0.26982 0.95485 0.0
C1326 C 0.11189 0.28164 0.96591 0.0
H1327 H 0.21281 0.33166 0.98632 0.0
H1328 H 0.18455 0.30954 0.9711 0.0
H1329 H 0.13421 0.28954 0.0154 0.0
H1330 H 0.04242 0.26015 0.95932 0.0
H1331 H 0.0716 0.27701 0.97921 0.0
C1332 C 0.45119 0.67828 0.44208 0.0
C1333 C 0.45152 0.69739 0.43055 0.0
C1334 C 0.43316 0.67166 0.45259 0.0
C1335 C 0.37655 0.67822 0.45034 0.0
H1336 H 0.37739 0.65132 0.50583 0.0
C1337 C 0.30092 0.65394 0.49188 0.0
C1338 C 0.30016 0.63324 0.50035 0.0
C1339 C 0.31981 0.66307 0.48563 0.0
C1340 C 0.37696 0.6587 0.49027 0.0
H1341 H 0.43348 0.72497 0.4217 0.0
H1342 H 0.40218 0.71355 0.44021 0.0
H1343 H 0.40985 0.66498 0.49065 0.0
H1344 H 0.31873 0.60623 0.50969 0.0
H1345 H 0.35174 0.62212 0.49849 0.0
H1346 H 0.34382 0.67175 0.44973 0.0
C1347 C 0.4157 0.70347 0.4408 0.0
C1348 C 0.39552 0.66649 0.48159 0.0
C1349 C 0.43368 0.71006 0.43026 0.0
C1350 C 0.3188 0.62219 0.50318 0.0
C1351 C 0.33773 0.63134 0.49688 0.0
C1352 C 0.35806 0.67046 0.459 0.0
C1353 C 0.41513 0.68404 0.45179 0.0
C1354 C 0.39549 0.67629 0.46149 0.0
C1355 C 0.33836 0.6517 0.48765 0.0
C1356 C 0.35805 0.66057 0.47902 0.0
H1357 H 0.4647 0.66819 0.44261 0.0
H1358 H 0.43314 0.65652 0.46076 0.0
H1359 H 0.37606 0.68528 0.43463 0.0
H1360 H 0.28686 0.66297 0.48969 0.0
H1361 H 0.31986 0.67896 0.47894 0.0
C1362 C 0.868 0.51248 0.83 0.0
C1363 C 0.85878 0.51364 0.80952 0.0
C1364 C 0.85816 0.52118 0.848 0.0
C1365 C 0.80767 0.54011 0.86812 0.0
H1366 H 0.84227 0.57463 0.90755 0.0
C1367 C 0.77399 0.59794 0.93224 0.0
C1368 C 0.78392 0.59916 0.95245 0.0
C1369 C 0.78257 0.58602 0.91535 0.0
C1370 C 0.83243 0.5648 0.89688 0.0
H1371 H 0.83171 0.52426 0.79195 0.0
H1372 H 0.81463 0.53964 0.8234 0.0
H1373 H 0.8581 0.55618 0.87712 0.0
H1374 H 0.8104 0.58847 0.97092 0.0
H1375 H 0.82525 0.56754 0.94148 0.0
H1376 H 0.78195 0.54897 0.88783 0.0
C1377 C 0.82939 0.53183 0.82554 0.0
C1378 C 0.8415 0.55422 0.87944 0.0
C1379 C 0.83923 0.52312 0.80751 0.0
C1380 C 0.80243 0.58796 0.95551 0.0
C1381 C 0.811 0.57604 0.93862 0.0
C1382 C 0.79858 0.5507 0.8856 0.0
C1383 C 0.8389 0.53123 0.84593 0.0
C1384 C 0.82922 0.54182 0.86482 0.0
C1385 C 0.80125 0.57508 0.91831 0.0
C1386 C 0.81087 0.56324 0.90011 0.0
H1387 H 0.88299 0.50514 0.83213 0.0
H1388 H 0.86572 0.52015 0.86355 0.0
H1389 H 0.79784 0.53046 0.85728 0.0
H1390 H 0.75971 0.60639 0.92937 0.0
H1391 H 0.77482 0.58579 0.89982 0.0
C1392 C 0.69304 0.5264 0.1862 0.0
C1393 C 0.6852 0.50519 0.18666 0.0
C1394 C 0.70161 0.5344 0.16745 0.0
C1395 C 0.69892 0.52665 0.10911 0.0
H1396 H 0.74681 0.56551 0.11025 0.0
C1397 C 0.72961 0.56626 0.0324 0.0
C1398 C 0.73458 0.5883 0.03443 0.0
C1399 C 0.72576 0.55418 0.0506 0.0
C1400 C 0.73335 0.55477 0.10969 0.0
H1401 H 0.6808 0.47554 0.16798 0.0
H1402 H 0.69582 0.48957 0.13518 0.0
H1403 H 0.73653 0.54757 0.14297 0.0
H1404 H 0.73965 0.61489 0.0572 0.0
H1405 H 0.73268 0.59395 0.08885 0.0
H1406 H 0.69538 0.53427 0.07599 0.0
C1407 C 0.69515 0.50002 0.14932 0.0
C1408 C 0.72749 0.54448 0.12842 0.0
C1409 C 0.68665 0.49197 0.16813 0.0
C1410 C 0.73588 0.59795 0.05506 0.0
C1411 C 0.73204 0.58589 0.07323 0.0
C1412 C 0.70475 0.53698 0.09039 0.0
C1413 C 0.70249 0.5214 0.14872 0.0
C1414 C 0.70999 0.53061 0.12841 0.0
C1415 C 0.72684 0.5639 0.07122 0.0
C1416 C 0.72181 0.55145 0.09057 0.0
H1417 H 0.6922 0.537 0.20021 0.0
H1418 H 0.70691 0.55101 0.16744 0.0
H1419 H 0.68521 0.51625 0.10866 0.0
H1420 H 0.72858 0.55833 0.01673 0.0
H1421 H 0.722 0.53723 0.04855 0.0
C1422 C 0.74759 0.43637 0.44442 0.0
C1423 C 0.74359 0.44584 0.46464 0.0
C1424 C 0.74366 0.44742 0.42569 0.0
C1425 C 0.71136 0.49035 0.40499 0.0
H1426 H 0.74534 0.48205 0.35443 0.0
C1427 C 0.68907 0.52468 0.32283 0.0
C1428 C 0.68879 0.50929 0.30591 0.0
C1429 C 0.69856 0.52025 0.34247 0.0
C1430 C 0.73574 0.48454 0.36844 0.0
H1431 H 0.73292 0.47464 0.48107 0.0
H1432 H 0.72622 0.49411 0.44819 0.0
H1433 H 0.75716 0.4687 0.38888 0.0
H1434 H 0.69897 0.47758 0.29599 0.0
H1435 H 0.71564 0.46993 0.33019 0.0
H1436 H 0.68978 0.50586 0.3844 0.0
C1437 C 0.73214 0.47798 0.4469 0.0
C1438 C 0.74246 0.47686 0.38815 0.0
C1439 C 0.73605 0.46686 0.46572 0.0
C1440 C 0.69887 0.48974 0.30873 0.0
C1441 C 0.70854 0.48541 0.32827 0.0
C1442 C 0.70472 0.49816 0.3853 0.0
C1443 C 0.73571 0.46827 0.42666 0.0
C1444 C 0.73006 0.47913 0.40652 0.0
C1445 C 0.70817 0.50047 0.34544 0.0
C1446 C 0.71659 0.49482 0.36674 0.0
H1447 H 0.75341 0.42019 0.44298 0.0
H1448 H 0.74623 0.43928 0.4104 0.0
H1449 H 0.70132 0.49217 0.41875 0.0
H1450 H 0.68144 0.53991 0.32115 0.0
H1451 H 0.69819 0.53218 0.35541 0.0
C1452 C 0.8664 0.47689 0.7025 0.0
C1453 C 0.86159 0.46567 0.72117 0.0
C1454 C 0.85451 0.47363 0.68381 0.0
C1455 C 0.81943 0.43422 0.65659 0.0
H1456 H 0.80704 0.48201 0.62012 0.0
C1457 C 0.77299 0.42191 0.5777 0.0
C1458 C 0.78173 0.43174 0.55971 0.0
C1459 C 0.78007 0.42751 0.59839 0.0
C1460 C 0.81045 0.46851 0.63011 0.0
H1461 H 0.8404 0.44235 0.73491 0.0
H1462 H 0.81953 0.43673 0.70221 0.0
H1463 H 0.82456 0.48875 0.65465 0.0
H1464 H 0.80407 0.45582 0.54943 0.0
H1465 H 0.81652 0.46546 0.58553 0.0
H1466 H 0.80568 0.41393 0.63192 0.0
C1467 C 0.83265 0.4479 0.70202 0.0
C1468 C 0.8205 0.47235 0.64985 0.0
C1469 C 0.84457 0.45117 0.72076 0.0
C1470 C 0.79705 0.44792 0.56293 0.0
C1471 C 0.80411 0.45353 0.58364 0.0
C1472 C 0.80937 0.43038 0.63686 0.0
C1473 C 0.83752 0.45909 0.68333 0.0
C1474 C 0.82539 0.45521 0.66316 0.0
C1475 C 0.79599 0.44307 0.60156 0.0
C1476 C 0.80504 0.44745 0.62327 0.0
H1477 H 0.87943 0.48816 0.70225 0.0
H1478 H 0.85889 0.48223 0.66959 0.0
H1479 H 0.82321 0.42064 0.66633 0.0
H1480 H 0.76105 0.40949 0.57579 0.0
H1481 H 0.7733 0.41941 0.61191 0.0
C1482 C 0.45574 0.03863 0.19926 0.0
C1483 C 0.45282 0.03609 0.22138 0.0
C1484 C 0.46508 0.05737 0.19171 0.0
C1485 C 0.49844 0.10383 0.20574 0.0
H1486 H 0.46385 0.13404 0.1656 0.0
C1487 C 0.51471 0.19246 0.18413 0.0
C1488 C 0.50907 0.19896 0.1635 0.0
C1489 C 0.50973 0.17169 0.19072 0.0
C1490 C 0.474 0.12571 0.17642 0.0
H1491 H 0.45843 0.05056 0.25301 0.0
H1492 H 0.47518 0.08317 0.23974 0.0
H1493 H 0.45286 0.0988 0.17748 0.0
H1494 H 0.49487 0.18863 0.13317 0.0
H1495 H 0.48711 0.15225 0.14418 0.0
H1496 H 0.51982 0.13052 0.20443 0.0
C1497 C 0.47006 0.07072 0.22831 0.0
C1498 C 0.4676 0.10553 0.1833 0.0
C1499 C 0.46039 0.05214 0.23586 0.0
C1500 C 0.4991 0.18414 0.14931 0.0
C1501 C 0.49453 0.1633 0.15571 0.0
C1502 C 0.50508 0.12392 0.19856 0.0
C1503 C 0.47201 0.0737 0.20616 0.0
C1504 C 0.47967 0.09448 0.1981 0.0
C1505 C 0.49936 0.1569 0.17665 0.0
C1506 C 0.49285 0.13519 0.1839 0.0
H1507 H 0.45005 0.02655 0.18771 0.0
H1508 H 0.46653 0.0593 0.17454 0.0
H1509 H 0.50802 0.09554 0.21715 0.0
H1510 H 0.52237 0.20363 0.19539 0.0
H1511 H 0.51349 0.16748 0.20705 0.0
C1512 C 0.03374 0.82048 0.67807 0.0
C1513 C 0.02176 0.80603 0.69 0.0
C1514 C 0.04111 0.83974 0.68742 0.0
C1515 C 0.05521 0.86572 0.73871 0.0
H1516 H 0.0528 0.91762 0.70568 0.0
C1517 C 0.09118 0.9471 0.76927 0.0
C1518 C 0.10328 0.95784 0.75406 0.0
C1519 C 0.07846 0.92953 0.76299 0.0
C1520 C 0.05363 0.90325 0.71508 0.0
H1521 H 0.00827 0.80037 0.72121 0.0
H1522 H 0.02143 0.83415 0.73766 0.0
H1523 H 0.0357 0.88475 0.6919 0.0
H1524 H 0.1113 0.95877 0.72031 0.0
H1525 H 0.08938 0.92816 0.70947 0.0
H1526 H 0.07373 0.8841 0.76157 0.0
C1527 C 0.02501 0.83046 0.72103 0.0
C1528 C 0.04384 0.88446 0.7072 0.0
C1529 C 0.01746 0.81119 0.7116 0.0
C1530 C 0.10218 0.95087 0.73245 0.0
C1531 C 0.08947 0.93341 0.72619 0.0
C1532 C 0.06509 0.88455 0.74658 0.0
C1533 C 0.03678 0.84497 0.70896 0.0
C1534 C 0.04498 0.86539 0.71866 0.0
C1535 C 0.07752 0.92249 0.74138 0.0
C1536 C 0.06485 0.90335 0.73455 0.0
H1537 H 0.03736 0.817 0.6614 0.0
H1538 H 0.05045 0.85046 0.67784 0.0
H1539 H 0.0564 0.8512 0.74782 0.0
H1540 H 0.09166 0.95213 0.78605 0.0
H1541 H 0.06932 0.92149 0.77502 0.0
C1542 C 0.50646 0.80171 0.34682 0.0
C1543 C 0.49251 0.78482 0.35134 0.0
C1544 C 0.49998 0.81906 0.33484 0.0
C1545 C 0.45857 0.83653 0.29779 0.0
H1546 H 0.47392 0.89351 0.31983 0.0
C1547 C 0.41539 0.91272 0.27404 0.0
C1548 C 0.4271 0.93175 0.2715 0.0
C1549 C 0.42484 0.89427 0.28141 0.0
C1550 C 0.46977 0.87772 0.31324 0.0
H1551 H 0.46093 0.77262 0.34637 0.0
H1552 H 0.44957 0.80299 0.3257 0.0
H1553 H 0.48788 0.86211 0.33697 0.0
H1554 H 0.45806 0.94617 0.27406 0.0
H1555 H 0.47457 0.91389 0.28681 0.0
H1556 H 0.44011 0.85221 0.27431 0.0
C1557 C 0.46559 0.80273 0.33121 0.0
C1558 C 0.47777 0.85972 0.32306 0.0
C1559 C 0.47207 0.78539 0.34319 0.0
C1560 C 0.44857 0.9318 0.27597 0.0
C1561 C 0.45802 0.91334 0.28336 0.0
C1562 C 0.45055 0.85455 0.28796 0.0
C1563 C 0.47941 0.81986 0.3271 0.0
C1564 C 0.47206 0.83892 0.31562 0.0
C1565 C 0.44621 0.89446 0.28641 0.0
C1566 C 0.45586 0.87533 0.29575 0.0
H1567 H 0.52236 0.8017 0.35276 0.0
H1568 H 0.51105 0.8319 0.33169 0.0
H1569 H 0.45414 0.82071 0.29149 0.0
H1570 H 0.39882 0.91215 0.27072 0.0
H1571 H 0.41526 0.88005 0.28383 0.0
C1572 C 0.79067 0.69076 0.04815 0.0
C1573 C 0.78911 0.68314 0.02675 0.0
C1574 C 0.80892 0.70101 0.05573 0.0
C1575 C 0.8649 0.70353 0.04476 0.0
H1576 H 0.86493 0.75073 0.08657 0.0
C1577 C 0.94104 0.74153 0.07974 0.0
C1578 C 0.94142 0.74522 0.1021 0.0
C1579 C 0.92236 0.73612 0.06906 0.0
C1580 C 0.86515 0.73748 0.07498 0.0
H1581 H 0.80513 0.6812 0.99626 0.0
H1582 H 0.83685 0.69931 0.00947 0.0
H1583 H 0.83213 0.73792 0.07034 0.0
H1584 H 0.92247 0.74638 0.13074 0.0
H1585 H 0.89004 0.73675 0.11218 0.0
H1586 H 0.89785 0.70281 0.04967 0.0
C1587 C 0.82411 0.69702 0.02047 0.0
C1588 C 0.84638 0.73015 0.06568 0.0
C1589 C 0.80587 0.68675 0.01289 0.0
C1590 C 0.92273 0.74364 0.1135 0.0
C1591 C 0.90409 0.73829 0.10284 0.0
C1592 C 0.88366 0.71086 0.05404 0.0
C1593 C 0.82598 0.7039 0.04208 0.0
C1594 C 0.84601 0.7129 0.05069 0.0
C1595 C 0.90369 0.73436 0.08052 0.0
C1596 C 0.88397 0.72771 0.06947 0.0
H1597 H 0.77805 0.68824 0.05924 0.0
H1598 H 0.80992 0.70593 0.07252 0.0
H1599 H 0.86513 0.68999 0.03351 0.0
H1600 H 0.95516 0.7427 0.07048 0.0
H1601 H 0.92251 0.73338 0.05182 0.0
C1602 C 0.54747 0.30988 0.55877 0.0
C1603 C 0.54735 0.29193 0.572 0.0
C1604 C 0.56564 0.31622 0.54837 0.0
C1605 C 0.62231 0.31284 0.554 0.0
H1606 H 0.62234 0.33781 0.49758 0.0
C1607 C 0.69743 0.34704 0.51737 0.0
C1608 C 0.69569 0.36752 0.50862 0.0
C1609 C 0.67962 0.33504 0.52241 0.0
C1610 C 0.62255 0.33092 0.51338 0.0
H1611 H 0.56595 0.26595 0.58385 0.0
H1612 H 0.59758 0.27691 0.56551 0.0
H1613 H 0.59036 0.32154 0.51118 0.0
H1614 H 0.67391 0.39112 0.49755 0.0
H1615 H 0.64292 0.37033 0.50653 0.0
H1616 H 0.6543 0.32264 0.55646 0.0
C1617 C 0.58372 0.2863 0.56349 0.0
C1618 C 0.60425 0.32162 0.52116 0.0
C1619 C 0.56556 0.27997 0.57392 0.0
C1620 C 0.6758 0.37542 0.50432 0.0
C1621 C 0.65801 0.36343 0.50933 0.0
C1622 C 0.64058 0.32211 0.54622 0.0
C1623 C 0.58407 0.30473 0.55093 0.0
C1624 C 0.60385 0.31279 0.54171 0.0
C1625 C 0.65972 0.34326 0.51875 0.0
C1626 C 0.64083 0.33157 0.52598 0.0
H1627 H 0.5337 0.31943 0.55694 0.0
H1628 H 0.56544 0.33063 0.53899 0.0
H1629 H 0.62247 0.30649 0.57003 0.0
H1630 H 0.71253 0.34043 0.52075 0.0
H1631 H 0.68143 0.31943 0.5294 0.0
C1632 C 0.19733 0.43694 0.05433 0.0
C1633 C 0.21815 0.43067 0.05323 0.0
C1634 C 0.19074 0.45029 0.07117 0.0
C1635 C 0.20536 0.46562 0.12686 0.0
H1636 H 0.15966 0.50486 0.12114 0.0
C1637 C 0.17001 0.50908 0.20023 0.0
C1638 C 0.14834 0.50613 0.20157 0.0
C1639 C 0.18029 0.50414 0.18112 0.0
C1640 C 0.17249 0.49401 0.12293 0.0
H1641 H 0.24868 0.43448 0.06814 0.0
H1642 H 0.2373 0.45822 0.09721 0.0
H1643 H 0.17495 0.4887 0.08898 0.0
H1644 H 0.12035 0.49668 0.18371 0.0
H1645 H 0.13829 0.48817 0.15041 0.0
H1646 H 0.20266 0.47069 0.1608 0.0
C1647 C 0.22592 0.45235 0.08543 0.0
C1648 C 0.18119 0.48469 0.10455 0.0
C1649 C 0.23246 0.43882 0.06872 0.0
C1650 C 0.13708 0.49901 0.18321 0.0
C1651 C 0.14732 0.4943 0.16408 0.0
C1652 C 0.19679 0.47509 0.14518 0.0
C1653 C 0.20488 0.45784 0.08715 0.0
C1654 C 0.19738 0.46995 0.10633 0.0
C1655 C 0.16906 0.49644 0.16296 0.0
C1656 C 0.17994 0.48895 0.14342 0.0
H1657 H 0.18593 0.43089 0.04265 0.0
H1658 H 0.17437 0.45393 0.07212 0.0
H1659 H 0.21758 0.4541 0.1289 0.0
H1660 H 0.1791 0.5146 0.2141 0.0
H1661 H 0.19707 0.50603 0.18062 0.0
C1662 C 0.30999 0.4683 0.80393 0.0
C1663 C 0.33115 0.4645 0.80031 0.0
C1664 C 0.30034 0.46079 0.82235 0.0
C1665 C 0.30665 0.42197 0.86601 0.0
H1666 H 0.2674 0.45847 0.89567 0.0
C1667 C 0.27959 0.40669 0.9521 0.0
C1668 C 0.25813 0.40783 0.95591 0.0
C1669 C 0.2878 0.41333 0.93266 0.0
C1670 C 0.27818 0.44804 0.88742 0.0
H1671 H 0.35881 0.44986 0.81315 0.0
H1672 H 0.34214 0.43722 0.84551 0.0
H1673 H 0.28317 0.47045 0.86247 0.0
H1674 H 0.22848 0.41712 0.94246 0.0
H1675 H 0.24294 0.42897 0.90848 0.0
H1676 H 0.30198 0.39981 0.89131 0.0
C1677 C 0.33284 0.44559 0.83392 0.0
C1678 C 0.28717 0.45485 0.86838 0.0
C1679 C 0.34244 0.45295 0.81542 0.0
C1680 C 0.24508 0.41603 0.93998 0.0
C1681 C 0.25334 0.42288 0.92059 0.0
C1682 C 0.2978 0.41527 0.88513 0.0
C1683 C 0.31168 0.44945 0.83763 0.0
C1684 C 0.30161 0.44194 0.85751 0.0
C1685 C 0.27475 0.42142 0.9167 0.0
C1686 C 0.28357 0.42829 0.89608 0.0
H1687 H 0.30083 0.47703 0.7925 0.0
H1688 H 0.28394 0.46374 0.82452 0.0
H1689 H 0.31738 0.41144 0.85784 0.0
H1690 H 0.29007 0.40044 0.96404 0.0
H1691 H 0.3044 0.41228 0.93017 0.0
C1692 C 0.23591 0.57874 0.56933 0.0
C1693 C 0.22838 0.56839 0.55045 0.0
C1694 C 0.23894 0.5672 0.58792 0.0
C1695 C 0.25249 0.51435 0.60517 0.0
H1696 H 0.2409 0.53868 0.66164 0.0
C1697 C 0.28825 0.48004 0.68222 0.0
C1698 C 0.29789 0.49586 0.69562 0.0
C1699 C 0.27465 0.48588 0.66578 0.0
C1700 C 0.24418 0.53163 0.64599 0.0
H1701 H 0.21766 0.53791 0.53633 0.0
H1702 H 0.22342 0.51753 0.56896 0.0
H1703 H 0.22585 0.5547 0.62983 0.0
H1704 H 0.30021 0.53011 0.70284 0.0
H1705 H 0.27683 0.54024 0.67422 0.0
H1706 H 0.27178 0.49205 0.6212 0.0
C1707 C 0.2268 0.53464 0.56928 0.0
C1708 C 0.23553 0.54076 0.62782 0.0
C1709 C 0.22349 0.5463 0.55067 0.0
C1710 C 0.29311 0.51752 0.69276 0.0
C1711 C 0.27951 0.52332 0.67646 0.0
C1712 C 0.26124 0.50527 0.62336 0.0
C1713 C 0.23471 0.54499 0.58802 0.0
C1714 C 0.24024 0.53271 0.60721 0.0
C1715 C 0.27035 0.50762 0.66258 0.0
C1716 C 0.25782 0.51435 0.64389 0.0
H1717 H 0.23973 0.59577 0.56969 0.0
H1718 H 0.24535 0.57554 0.60204 0.0
H1719 H 0.25647 0.50791 0.58946 0.0
H1720 H 0.29157 0.4632 0.68408 0.0
H1721 H 0.26772 0.47343 0.6554 0.0
C1722 C 0.16341 0.48899 0.31139 0.0
C1723 C 0.15029 0.50377 0.30161 0.0
C1724 C 0.17681 0.49566 0.32822 0.0
C1725 C 0.2015 0.54447 0.35309 0.0
H1726 H 0.20137 0.51235 0.40564 0.0
C1727 C 0.21891 0.58366 0.43512 0.0
C1728 C 0.23132 0.5729 0.44991 0.0
C1729 C 0.21281 0.57362 0.41578 0.0
C1730 C 0.20189 0.52127 0.39094 0.0
H1731 H 0.14112 0.53715 0.30166 0.0
H1732 H 0.16423 0.54864 0.33091 0.0
H1733 H 0.18366 0.49735 0.37355 0.0
H1734 H 0.24715 0.54318 0.45601 0.0
H1735 H 0.23612 0.52543 0.42208 0.0
H1736 H 0.21897 0.56876 0.37067 0.0
C1737 C 0.16441 0.53198 0.32548 0.0
C1738 C 0.19177 0.51269 0.37259 0.0
C1739 C 0.151 0.52533 0.30883 0.0
C1740 C 0.2376 0.55187 0.4449 0.0
C1741 C 0.23127 0.5417 0.42556 0.0
C1742 C 0.21153 0.55304 0.3714 0.0
C1743 C 0.17744 0.51725 0.33539 0.0
C1744 C 0.19091 0.52455 0.3537 0.0
C1745 C 0.21883 0.55253 0.41083 0.0
C1746 C 0.21124 0.54184 0.39068 0.0
H1747 H 0.16323 0.47227 0.30616 0.0
H1748 H 0.18674 0.48399 0.33554 0.0
H1749 H 0.20148 0.55375 0.33861 0.0
H1750 H 0.21384 0.59987 0.43848 0.0
H1751 H 0.20295 0.58223 0.40487 0.0
loop_
_geom_bond_atom_site_label_1
_geom_bond_atom_site_label_2
_geom_bond_distance
_geom_bond_site_symmetry_2
_ccdc_geom_bond_type
C0 O1 1.160 . S
C0 O7 1.185 . S
O1 C0 1.160 . S
O2 Zn3 1.901 . S
O2 C10 1.284 . S
Zn3 O2 1.901 . S
Zn3 O4 2.031 1_655 S
Zn3 O7 2.089 . S
Zn3 O12 1.974 1_655 S
O4 Zn3 2.031 1_455 S
O4 C8 1.278 . S
C5 O6 1.203 . S
C5 O12 1.267 . S
O6 C5 1.203 . S
O7 C0 1.185 . S
O7 Zn3 2.089 . S
C8 O4 1.278 . S
C8 O9 1.211 . S
O9 C8 1.211 . S
C10 O2 1.284 . S
C10 O11 1.273 1_655 S
O11 C10 1.273 1_455 S
O12 Zn3 1.974 1_455 S
O12 C5 1.267 . S
C13 O14 1.160 . S
C13 O20 1.185 . S
O14 C13 1.160 . S
O15 Zn16 1.899 1_655 S
O15 C23 1.284 . S
Zn16 O15 1.899 1_455 S
Zn16 O17 2.032 . S
Zn16 O20 2.086 . S
Zn16 O25 1.977 1_455 S
O17 Zn16 2.032 . S
O17 C21 1.278 . S
C18 O19 1.203 . S
C18 O25 1.267 . S
O19 C18 1.203 . S
O20 C13 1.185 . S
O20 Zn16 2.086 . S
C21 O17 1.278 . S
C21 O22 1.252 . S
O22 C21 1.252 . S
C23 O15 1.284 . S
C23 O24 1.273 . S
O24 C23 1.273 . S
O25 Zn16 1.977 1_655 S
O25 C18 1.267 . S
C26 O27 1.160 . S
C26 O33 1.185 . S
O27 C26 1.160 . S
O28 Zn29 1.899 . S
O28 C36 1.284 . S
Zn29 O28 1.899 . S
Zn29 O30 2.032 . S
Zn29 O33 2.086 . S
Zn29 O38 1.977 . S
O30 Zn29 2.032 . S
O30 C34 1.278 . S
C31 O32 1.203 . S
C31 O38 1.267 . S
O32 C31 1.203 . S
O33 C26 1.185 . S
O33 Zn29 2.086 . S
C34 O30 1.278 . S
C34 O35 1.211 . S
O35 C34 1.211 . S
C36 O28 1.284 . S
C36 O37 1.273 . S
O37 C36 1.273 . S
O38 Zn29 1.977 . S
O38 C31 1.267 . S
C39 O40 1.160 . S
C39 O46 1.185 . S
O40 C39 1.160 . S
O41 Zn42 1.899 . S
O41 C49 1.284 . S
Zn42 O41 1.899 . S
Zn42 O43 2.032 . S
Zn42 O46 2.086 . S
Zn42 O51 1.977 . S
O43 Zn42 2.032 . S
O43 C47 1.278 . S
C44 O45 1.203 . S
C44 O51 1.267 . S
O45 C44 1.203 . S
O46 C39 1.185 . S
O46 Zn42 2.086 . S
C47 O43 1.278 . S
C47 O48 1.211 . S
O48 C47 1.211 . S
C49 O41 1.284 . S
C49 O50 1.273 . S
O50 C49 1.273 . S
O51 Zn42 1.977 . S
O51 C44 1.267 . S
C52 O53 1.160 . S
C52 O59 1.185 . S
O53 C52 1.160 . S
O54 Zn55 1.899 . S
O54 C62 1.284 . S
Zn55 O54 1.899 . S
Zn55 O56 2.032 . S
Zn55 O59 2.086 . S
Zn55 O64 1.977 1_455 S
O56 Zn55 2.032 . S
O56 C60 1.278 1_455 S
C57 O58 1.203 . S
C57 O64 1.267 . S
O58 C57 1.203 . S
O59 C52 1.185 . S
O59 Zn55 2.086 . S
C60 O56 1.278 1_655 S
C60 O61 1.211 . S
O61 C60 1.211 . S
C62 O54 1.284 . S
C62 O63 1.273 . S
O63 C62 1.273 . S
O64 Zn55 1.977 1_655 S
O64 C57 1.267 . S
C65 O66 1.160 . S
C65 O72 1.185 . S
O66 C65 1.160 . S
O67 Zn68 1.899 . S
O67 C75 1.284 . S
Zn68 O67 1.899 . S
Zn68 O69 2.032 . S
Zn68 O72 2.086 . S
Zn68 O77 1.977 . S
O69 Zn68 2.032 . S
O69 C73 1.278 . S
C70 O71 1.203 . S
C70 O77 1.267 . S
O71 C70 1.203 . S
O72 C65 1.185 . S
O72 Zn68 2.086 . S
C73 O69 1.278 . S
C73 O74 1.211 . S
O74 C73 1.211 . S
C75 O67 1.284 . S
C75 O76 1.273 . S
O76 C75 1.273 . S
O77 Zn68 1.977 . S
O77 C70 1.267 . S
C78 O79 1.160 . S
C78 O85 1.185 . S
O79 C78 1.160 . S
O80 Zn81 1.899 . S
O80 C88 1.284 . S
Zn81 O80 1.899 . S
Zn81 O82 2.032 . S
Zn81 O85 2.086 . S
Zn81 O90 1.977 . S
O82 Zn81 2.032 . S
O82 C86 1.278 . S
C83 O84 1.203 . S
C83 O90 1.267 . S
O84 C83 1.203 . S
O85 C78 1.185 . S
O85 Zn81 2.086 . S
C86 O82 1.278 . S
C86 O87 1.211 . S
O87 C86 1.211 . S
C88 O80 1.284 . S
C88 O89 1.273 . S
O89 C88 1.273 . S
O90 Zn81 1.977 . S
O90 C83 1.267 . S
C91 O92 1.160 . S
C91 O98 1.185 . S
O92 C91 1.160 . S
O93 Zn94 1.899 . S
O93 C101 1.284 . S
Zn94 O93 1.899 . S
Zn94 O95 2.032 1_455 S
Zn94 O98 2.086 1_455 S
Zn94 O103 1.977 . S
O95 Zn94 2.032 1_655 S
O95 C99 1.278 . S
C96 O97 1.203 . S
C96 O103 1.267 . S
O97 C96 1.203 . S
O98 C91 1.185 . S
O98 Zn94 2.086 1_655 S
C99 O95 1.278 . S
C99 O100 1.211 1_655 S
O100 C99 1.211 1_455 S
C101 O93 1.284 . S
C101 O102 1.273 . S
O102 C101 1.273 . S
O103 Zn94 1.977 . S
O103 C96 1.267 . S
C104 O105 1.160 . S
C104 O111 1.185 . S
O105 C104 1.160 . S
O106 Zn107 1.899 1_565 S
O106 C114 1.284 . S
Zn107 O106 1.899 1_545 S
Zn107 O108 2.032 . S
Zn107 O111 2.086 1_545 S
Zn107 O116 1.977 . S
O108 Zn107 2.032 . S
O108 C112 1.278 . S
C109 O110 1.203 . S
C109 O116 1.267 . S
O110 C109 1.203 . S
O111 C104 1.185 . S
O111 Zn107 2.086 1_565 S
C112 O108 1.278 . S
C112 O113 1.211 . S
O113 C112 1.211 . S
C114 O106 1.284 . S
C114 O115 1.273 1_565 S
O115 C114 1.273 1_545 S
O116 Zn107 1.977 . S
O116 C109 1.267 . S
C117 O118 1.160 . S
C117 O124 1.185 . S
O118 C117 1.160 . S
O119 Zn120 1.899 . S
O119 C127 1.284 . S
Zn120 O119 1.899 . S
Zn120 O121 2.032 . S
Zn120 O124 2.086 . S
Zn120 O129 1.977 . S
O121 Zn120 2.032 . S
O121 C125 1.278 . S
C122 O123 1.203 . S
C122 O129 1.267 . S
O123 C122 1.203 . S
O124 C117 1.185 . S
O124 Zn120 2.086 . S
C125 O121 1.278 . S
C125 O126 1.211 . S
O126 C125 1.211 . S
C127 O119 1.284 . S
C127 O128 1.273 . S
O128 C127 1.273 . S
O129 Zn120 1.977 . S
O129 C122 1.267 . S
C130 O131 1.160 . S
C130 O137 1.185 . S
O131 C130 1.160 . S
O132 Zn133 1.899 . S
O132 C140 1.284 . S
Zn133 O132 1.899 . S
Zn133 O134 2.032 1_545 S
Zn133 O137 2.086 . S
Zn133 O142 1.977 1_545 S
O134 Zn133 2.032 1_565 S
O134 C138 1.278 . S
C135 O136 1.203 . S
C135 O142 1.267 . S
O136 C135 1.203 . S
O137 C130 1.185 . S
O137 Zn133 2.086 . S
C138 O134 1.278 . S
C138 O139 1.211 . S
O139 C138 1.211 . S
C140 O132 1.284 . S
C140 O141 1.273 . S
O141 C140 1.273 . S
O142 Zn133 1.977 1_565 S
O142 C135 1.267 . S
C143 O144 1.160 . S
C143 O150 1.185 . S
O144 C143 1.160 . S
O145 Zn146 1.899 . S
O145 C153 1.284 . S
Zn146 O145 1.899 . S
Zn146 O147 2.032 1_554 S
Zn146 O150 2.086 1_554 S
Zn146 O155 1.977 . S
O147 Zn146 2.032 1_556 S
O147 C151 1.278 . S
C148 O149 1.203 . S
C148 O155 1.267 . S
O149 C148 1.203 . S
O150 C143 1.185 . S
O150 Zn146 2.086 1_556 S
C151 O147 1.278 . S
C151 O152 1.211 . S
O152 C151 1.211 . S
C153 O145 1.284 . S
C153 O154 1.273 . S
O154 C153 1.273 . S
O155 Zn146 1.977 . S
O155 C148 1.267 . S
C156 O157 1.160 . S
C156 O163 1.185 . S
O157 C156 1.160 . S
O158 Zn159 1.899 . S
O158 C166 1.284 . S
Zn159 O158 1.899 . S
Zn159 O160 2.032 1_554 S
Zn159 O163 2.086 . S
Zn159 O168 1.952 1_554 S
O160 Zn159 2.032 1_556 S
O160 C164 1.278 . S
C161 O162 1.203 1_556 S
C161 O168 1.276 . S
O162 C161 1.203 1_554 S
O163 C156 1.185 . S
O163 Zn159 2.086 . S
C164 O160 1.278 . S
C164 O165 1.211 . S
O165 C164 1.211 . S
C166 O158 1.284 . S
C166 O167 1.273 . S
O167 C166 1.273 . S
O168 Zn159 1.952 1_556 S
O168 C161 1.276 . S
C169 O170 1.160 . S
C169 O176 1.185 . S
O170 C169 1.160 . S
O171 Zn172 1.899 . S
O171 C179 1.284 . S
Zn172 O171 1.899 . S
Zn172 O173 2.032 1_554 S
Zn172 O176 2.086 . S
Zn172 O181 1.977 1_554 S
O173 Zn172 2.032 1_556 S
O173 C177 1.278 . S
C174 O175 1.203 . S
C174 O181 1.267 . S
O175 C174 1.203 . S
O176 C169 1.185 . S
O176 Zn172 2.086 . S
C177 O173 1.278 . S
C177 O178 1.211 . S
O178 C177 1.211 . S
C179 O171 1.284 . S
C179 O180 1.273 . S
O180 C179 1.273 . S
O181 Zn172 1.977 1_556 S
O181 C174 1.267 . S
C182 O183 1.160 . S
C182 O189 1.185 . S
O183 C182 1.160 . S
O184 Zn185 1.899 . S
O184 C192 1.284 . S
Zn185 O184 1.899 . S
Zn185 O186 2.032 . S
Zn185 O189 2.086 . S
Zn185 O194 1.977 . S
O186 Zn185 2.032 . S
O186 C190 1.278 . S
C187 O188 1.203 . S
C187 O194 1.267 . S
O188 C187 1.203 . S
O189 C182 1.185 . S
O189 Zn185 2.086 . S
C190 O186 1.278 . S
C190 O191 1.211 . S
O191 C190 1.211 . S
C192 O184 1.284 . S
C192 O193 1.273 . S
O193 C192 1.273 . S
O194 Zn185 1.977 . S
O194 C187 1.267 . S
C195 O196 1.160 . S
C195 O202 1.185 . S
O196 C195 1.160 . S
O197 Zn198 1.899 . S
O197 C205 1.284 . S
Zn198 O197 1.899 . S
Zn198 O199 2.032 . S
Zn198 O202 2.086 . S
Zn198 O207 1.977 . S
O199 Zn198 2.032 . S
O199 C203 1.278 . S
C200 O201 1.203 . S
C200 O207 1.267 . S
O201 C200 1.203 . S
O202 C195 1.185 . S
O202 Zn198 2.086 . S
C203 O199 1.278 . S
C203 O204 1.211 . S
O204 C203 1.211 . S
C205 O197 1.284 . S
C205 O206 1.273 . S
O206 C205 1.273 . S
O207 Zn198 1.977 . S
O207 C200 1.267 . S
C208 O209 1.160 . S
C208 O215 1.185 . S
O209 C208 1.160 . S
O210 Zn211 1.899 . S
O210 C218 1.284 . S
Zn211 O210 1.899 . S
Zn211 O212 2.032 1_565 S
Zn211 O215 2.086 1_565 S
Zn211 O220 1.977 . S
O212 Zn211 2.032 1_545 S
O212 C216 1.278 . S
C213 O214 1.203 . S
C213 O220 1.267 . S
O214 C213 1.203 . S
O215 C208 1.185 . S
O215 Zn211 2.086 1_545 S
C216 O212 1.278 . S
C216 O217 1.211 . S
O217 C216 1.211 . S
C218 O210 1.284 . S
C218 O219 1.273 . S
O219 C218 1.273 . S
O220 Zn211 1.977 . S
O220 C213 1.267 . S
C221 O222 1.160 . S
C221 O228 1.185 . S
O222 C221 1.160 . S
O223 Zn224 1.899 . S
O223 C231 1.284 . S
Zn224 O223 1.899 . S
Zn224 O225 2.032 . S
Zn224 O228 2.086 . S
Zn224 O233 1.977 . S
O225 Zn224 2.032 . S
O225 C229 1.278 . S
C226 O227 1.203 . S
C226 O233 1.267 . S
O227 C226 1.203 . S
O228 C221 1.185 . S
O228 Zn224 2.086 . S
C229 O225 1.278 . S
C229 O230 1.211 . S
O230 C229 1.211 . S
C231 O223 1.284 . S
C231 O232 1.273 . S
O232 C231 1.273 . S
O233 Zn224 1.977 . S
O233 C226 1.267 . S
C234 O235 1.160 . S
C234 O241 1.185 . S
O235 C234 1.160 . S
O236 Zn237 1.899 . S
O236 C244 1.284 . S
Zn237 O236 1.899 . S
Zn237 O238 2.032 . S
Zn237 O241 2.086 . S
Zn237 O246 1.977 . S
O238 Zn237 2.032 . S
O238 C242 1.278 . S
C239 O240 1.203 . S
C239 O246 1.267 . S
O240 C239 1.203 . S
O241 C234 1.185 . S
O241 Zn237 2.086 . S
C242 O238 1.278 . S
C242 O243 1.211 . S
O243 C242 1.211 . S
C244 O236 1.284 . S
C244 O245 1.273 . S
O245 C244 1.273 . S
O246 Zn237 1.977 . S
O246 C239 1.267 . S
C247 O248 1.160 . S
C247 O254 1.185 . S
O248 C247 1.160 . S
O249 Zn250 1.899 1_565 S
O249 C257 1.284 . S
Zn250 O249 1.899 1_545 S
Zn250 O251 2.032 . S
Zn250 O254 2.086 . S
Zn250 O259 1.977 1_545 S
O251 Zn250 2.032 . S
O251 C255 1.278 . S
C252 O253 1.203 . S
C252 O259 1.267 . S
O253 C252 1.203 . S
O254 C247 1.185 . S
O254 Zn250 2.086 . S
C255 O251 1.278 . S
C255 O256 1.211 1_545 S
O256 C255 1.211 1_565 S
C257 O249 1.284 . S
C257 O258 1.273 . S
O258 C257 1.273 . S
O259 Zn250 1.977 1_565 S
O259 C252 1.267 . S
C260 O261 1.160 . S
C260 O267 1.185 . S
O261 C260 1.160 . S
O262 Zn263 1.899 . S
O262 C270 1.284 . S
Zn263 O262 1.899 . S
Zn263 O264 2.032 1_554 S
Zn263 O267 2.086 1_554 S
Zn263 O272 1.977 . S
O264 Zn263 2.032 1_556 S
O264 C268 1.278 . S
C265 O266 1.203 . S
C265 O272 1.267 . S
O266 C265 1.203 . S
O267 C260 1.185 . S
O267 Zn263 2.086 1_556 S
C268 O264 1.278 . S
C268 O269 1.211 . S
O269 C268 1.211 . S
C270 O262 1.284 . S
C270 O271 1.273 . S
O271 C270 1.273 . S
O272 Zn263 1.977 . S
O272 C265 1.267 . S
C273 O274 1.160 . S
C273 O280 1.185 . S
O274 C273 1.160 . S
O275 Zn276 1.899 . S
O275 C283 1.284 . S
Zn276 O275 1.899 . S
Zn276 O277 2.032 . S
Zn276 O280 2.086 . S
Zn276 O285 1.977 . S
O277 Zn276 2.032 . S
O277 C281 1.278 . S
C278 O279 1.203 . S
C278 O285 1.267 . S
O279 C278 1.203 . S
O280 C273 1.185 . S
O280 Zn276 2.086 . S
C281 O277 1.278 . S
C281 O282 1.211 . S
O282 C281 1.211 . S
C283 O275 1.284 . S
C283 O284 1.273 . S
O284 C283 1.273 . S
O285 Zn276 1.977 . S
O285 C278 1.267 . S
C286 O287 1.160 . S
C286 O293 1.185 . S
O287 C286 1.160 . S
O288 Zn289 1.899 . S
O288 C296 1.284 . S
Zn289 O288 1.899 . S
Zn289 O290 2.032 . S
Zn289 O293 2.086 . S
Zn289 O298 1.977 . S
O290 Zn289 2.032 . S
O290 C294 1.278 . S
C291 O292 1.203 . S
C291 O298 1.267 . S
O292 C291 1.203 . S
O293 C286 1.185 . S
O293 Zn289 2.086 . S
C294 O290 1.278 . S
C294 O295 1.211 . S
O295 C294 1.211 . S
C296 O288 1.284 . S
C296 O297 1.273 . S
O297 C296 1.273 . S
O298 Zn289 1.977 . S
O298 C291 1.267 . S
C299 O300 1.160 . S
C299 O306 1.185 . S
O300 C299 1.160 . S
O301 Zn302 1.899 . S
O301 C309 1.284 . S
Zn302 O301 1.899 . S
Zn302 O303 2.032 . S
Zn302 O306 2.086 . S
Zn302 O311 1.977 . S
O303 Zn302 2.032 . S
O303 C307 1.278 . S
C304 O305 1.203 . S
C304 O311 1.267 . S
O305 C304 1.203 . S
O306 C299 1.185 . S
O306 Zn302 2.086 . S
C307 O303 1.278 . S
C307 O308 1.211 . S
O308 C307 1.211 . S
C309 O301 1.284 . S
C309 O310 1.273 . S
O310 C309 1.273 . S
O311 Zn302 1.977 . S
O311 C304 1.267 . S
C312 C313 1.349 . S
C312 C314 1.327 . S
C312 H337 0.950 . S
C313 C312 1.349 . S
C313 C329 1.349 . S
C314 C312 1.327 . S
C314 C333 1.429 . S
C314 H338 0.950 . S
C315 C332 1.574 . S
C315 C334 1.368 . S
C315 H339 0.949 . S
H316 C320 0.949 . S
C317 C318 1.349 . S
C317 C319 1.327 . S
C317 H340 0.950 . S
C318 C317 1.349 . S
C318 C330 1.349 . S
C319 C317 1.327 . S
C319 C335 1.429 . S
C319 H341 0.950 . S
C320 H316 0.949 . S
C320 C328 1.574 . S
C320 C336 1.368 . S
H321 C329 0.950 . S
H322 C327 0.950 . S
H323 C328 0.949 . S
H324 C330 0.950 . S
H325 C331 0.950 . S
H326 C332 0.949 . S
C327 H322 0.950 . S
C327 C329 1.327 . S
C327 C333 1.429 . S
C328 C320 1.574 . S
C328 H323 0.949 . S
C328 C334 1.368 . S
C329 C313 1.349 . S
C329 H321 0.950 . S
C329 C327 1.327 . S
C330 C318 1.349 . S
C330 H324 0.950 . S
C330 C331 1.327 . S
C331 H325 0.950 . S
C331 C330 1.327 . S
C331 C335 1.429 . S
C332 C315 1.574 . S
C332 H326 0.949 . S
C332 C336 1.368 . S
C333 C314 1.429 . S
C333 C327 1.429 . S
C333 C334 1.523 . S
C334 C315 1.368 . S
C334 C328 1.368 . S
C334 C333 1.523 . S
C335 C319 1.429 . S
C335 C331 1.429 . S
C335 C336 1.523 . S
C336 C320 1.368 . S
C336 C332 1.368 . S
C336 C335 1.523 . S
H337 C312 0.950 . S
H338 C314 0.950 . S
H339 C315 0.949 . S
H340 C317 0.950 . S
H341 C319 0.950 . S
C342 C343 1.349 . S
C342 C344 1.327 . S
C342 H367 0.950 . S
C343 C342 1.349 . S
C343 C359 1.349 . S
C344 C342 1.327 . S
C344 C363 1.429 . S
C344 H368 0.950 . S
C345 C362 1.574 . S
C345 C364 1.368 . S
C345 H369 0.949 . S
H346 C350 0.949 . S
C347 C348 1.349 . S
C347 C349 1.327 . S
C347 H370 0.950 . S
C348 C347 1.349 . S
C348 C360 1.349 . S
C349 C347 1.327 . S
C349 C365 1.429 . S
C349 H371 0.950 . S
C350 H346 0.949 . S
C350 C358 1.574 . S
C350 C366 1.368 . S
H351 C359 0.950 . S
H352 C357 0.950 . S
H353 C358 0.949 . S
H354 C360 0.950 . S
H355 C361 0.950 . S
H356 C362 0.949 . S
C357 H352 0.950 . S
C357 C359 1.327 . S
C357 C363 1.429 . S
C358 C350 1.574 . S
C358 H353 0.949 . S
C358 C364 1.368 . S
C359 C343 1.349 . S
C359 H351 0.950 . S
C359 C357 1.327 . S
C360 C348 1.349 . S
C360 H354 0.950 . S
C360 C361 1.327 . S
C361 H355 0.950 . S
C361 C360 1.327 . S
C361 C365 1.429 . S
C362 C345 1.574 . S
C362 H356 0.949 . S
C362 C366 1.368 . S
C363 C344 1.429 . S
C363 C357 1.429 . S
C363 C364 1.523 . S
C364 C345 1.368 . S
C364 C358 1.368 . S
C364 C363 1.523 . S
C365 C349 1.429 . S
C365 C361 1.429 . S
C365 C366 1.523 . S
C366 C350 1.368 . S
C366 C362 1.368 . S
C366 C365 1.523 . S
H367 C342 0.950 . S
H368 C344 0.950 . S
H369 C345 0.949 . S
H370 C347 0.950 . S
H371 C349 0.950 . S
C372 C373 1.349 . S
C372 C374 1.327 . S
C372 H397 0.950 . S
C373 C372 1.349 . S
C373 C389 1.349 . S
C374 C372 1.327 . S
C374 C393 1.429 . S
C374 H398 0.950 . S
C375 C392 1.574 . S
C375 C394 1.368 . S
C375 H399 0.949 . S
H376 C380 0.949 . S
C377 C378 1.349 . S
C377 C379 1.327 . S
C377 H400 0.950 . S
C378 C377 1.349 . S
C378 C390 1.349 . S
C379 C377 1.327 . S
C379 C395 1.429 . S
C379 H401 0.950 . S
C380 H376 0.949 . S
C380 C388 1.574 . S
C380 C396 1.368 . S
H381 C389 0.950 . S
H382 C387 0.950 . S
H383 C388 0.949 . S
H384 C390 0.950 . S
H385 C391 0.950 . S
H386 C392 0.949 . S
C387 H382 0.950 . S
C387 C389 1.327 . S
C387 C393 1.429 . S
C388 C380 1.574 . S
C388 H383 0.949 . S
C388 C394 1.368 . S
C389 C373 1.349 . S
C389 H381 0.950 . S
C389 C387 1.327 . S
C390 C378 1.349 . S
C390 H384 0.950 . S
C390 C391 1.327 . S
C391 H385 0.950 . S
C391 C390 1.327 . S
C391 C395 1.429 . S
C392 C375 1.574 . S
C392 H386 0.949 . S
C392 C396 1.368 . S
C393 C374 1.429 . S
C393 C387 1.429 . S
C393 C394 1.523 . S
C394 C375 1.368 . S
C394 C388 1.368 . S
C394 C393 1.523 . S
C395 C379 1.429 . S
C395 C391 1.429 . S
C395 C396 1.523 . S
C396 C380 1.368 . S
C396 C392 1.368 . S
C396 C395 1.523 . S
H397 C372 0.950 . S
H398 C374 0.950 . S
H399 C375 0.949 . S
H400 C377 0.950 . S
H401 C379 0.950 . S
C402 C403 1.349 . S
C402 C404 1.327 . S
C402 H427 0.950 . S
C403 C402 1.349 . S
C403 C419 1.349 . S
C404 C402 1.327 . S
C404 C423 1.429 . S
C404 H428 0.950 . S
C405 C422 1.574 . S
C405 C424 1.368 . S
C405 H429 0.949 . S
H406 C410 0.949 . S
C407 C408 1.349 . S
C407 C409 1.327 . S
C407 H430 0.950 . S
C408 C407 1.349 . S
C408 C420 1.349 . S
C409 C407 1.327 . S
C409 C425 1.429 . S
C409 H431 0.950 . S
C410 H406 0.949 . S
C410 C418 1.574 . S
C410 C426 1.368 . S
H411 C419 0.950 . S
H412 C417 0.950 . S
H413 C418 0.949 . S
H414 C420 0.950 . S
H415 C421 0.950 . S
H416 C422 0.949 . S
C417 H412 0.950 . S
C417 C419 1.327 . S
C417 C423 1.429 . S
C418 C410 1.574 . S
C418 H413 0.949 . S
C418 C424 1.368 . S
C419 C403 1.349 . S
C419 H411 0.950 . S
C419 C417 1.327 . S
C420 C408 1.349 . S
C420 H414 0.950 . S
C420 C421 1.327 . S
C421 H415 0.950 . S
C421 C420 1.327 . S
C421 C425 1.429 . S
C422 C405 1.574 . S
C422 H416 0.949 . S
C422 C426 1.368 . S
C423 C404 1.429 . S
C423 C417 1.429 . S
C423 C424 1.523 . S
C424 C405 1.368 . S
C424 C418 1.368 . S
C424 C423 1.523 . S
C425 C409 1.429 . S
C425 C421 1.429 . S
C425 C426 1.523 . S
C426 C410 1.368 . S
C426 C422 1.368 . S
C426 C425 1.523 . S
H427 C402 0.950 . S
H428 C404 0.950 . S
H429 C405 0.949 . S
H430 C407 0.950 . S
H431 C409 0.950 . S
C432 C433 1.349 . S
C432 C434 1.327 . S
C432 H457 0.950 . S
C433 C432 1.349 . S
C433 C449 1.349 . S
C434 C432 1.327 . S
C434 C453 1.429 . S
C434 H458 0.950 . S
C435 C452 1.574 . S
C435 C454 1.368 . S
C435 H459 0.949 . S
H436 C440 0.949 . S
C437 C438 1.349 . S
C437 C439 1.327 . S
C437 H460 0.950 . S
C438 C437 1.349 . S
C438 C450 1.349 . S
C439 C437 1.327 . S
C439 C455 1.429 . S
C439 H461 0.950 . S
C440 H436 0.949 . S
C440 C448 1.574 . S
C440 C456 1.368 . S
H441 C449 0.950 . S
H442 C447 0.950 . S
H443 C448 0.949 . S
H444 C450 0.950 . S
H445 C451 0.950 . S
H446 C452 0.949 . S
C447 H442 0.950 . S
C447 C449 1.327 . S
C447 C453 1.429 . S
C448 C440 1.574 . S
C448 H443 0.949 . S
C448 C454 1.368 . S
C449 C433 1.349 . S
C449 H441 0.950 . S
C449 C447 1.327 . S
C450 C438 1.349 . S
C450 H444 0.950 . S
C450 C451 1.327 . S
C451 H445 0.950 . S
C451 C450 1.327 . S
C451 C455 1.429 . S
C452 C435 1.574 . S
C452 H446 0.949 . S
C452 C456 1.368 . S
C453 C434 1.429 . S
C453 C447 1.429 . S
C453 C454 1.523 . S
C454 C435 1.368 . S
C454 C448 1.368 . S
C454 C453 1.523 . S
C455 C439 1.429 . S
C455 C451 1.429 . S
C455 C456 1.523 . S
C456 C440 1.368 . S
C456 C452 1.368 . S
C456 C455 1.523 . S
H457 C432 0.950 . S
H458 C434 0.950 . S
H459 C435 0.949 . S
H460 C437 0.950 . S
H461 C439 0.950 . S
C462 C463 1.349 . S
C462 C464 1.327 . S
C462 H487 0.950 . S
C463 C462 1.349 . S
C463 C479 1.349 . S
C464 C462 1.327 . S
C464 C483 1.429 . S
C464 H488 0.950 . S
C465 C482 1.574 . S
C465 C484 1.368 . S
C465 H489 0.949 . S
H466 C470 0.949 . S
C467 C468 1.349 . S
C467 C469 1.327 . S
C467 H490 0.950 . S
C468 C467 1.349 . S
C468 C480 1.349 . S
C469 C467 1.327 . S
C469 C485 1.429 . S
C469 H491 0.950 . S
C470 H466 0.949 . S
C470 C478 1.574 . S
C470 C486 1.368 . S
H471 C479 0.950 . S
H472 C477 0.950 . S
H473 C478 0.949 . S
H474 C480 0.950 . S
H475 C481 0.950 . S
H476 C482 0.949 . S
C477 H472 0.950 . S
C477 C479 1.327 . S
C477 C483 1.429 . S
C478 C470 1.574 . S
C478 H473 0.949 . S
C478 C484 1.368 . S
C479 C463 1.349 . S
C479 H471 0.950 . S
C479 C477 1.327 . S
C480 C468 1.349 . S
C480 H474 0.950 . S
C480 C481 1.327 . S
C481 H475 0.950 . S
C481 C480 1.327 . S
C481 C485 1.429 . S
C482 C465 1.574 . S
C482 H476 0.949 . S
C482 C486 1.368 . S
C483 C464 1.429 . S
C483 C477 1.429 . S
C483 C484 1.523 . S
C484 C465 1.368 . S
C484 C478 1.368 . S
C484 C483 1.523 . S
C485 C469 1.429 . S
C485 C481 1.429 . S
C485 C486 1.523 . S
C486 C470 1.368 . S
C486 C482 1.368 . S
C486 C485 1.523 . S
H487 C462 0.950 . S
H488 C464 0.950 . S
H489 C465 0.949 . S
H490 C467 0.950 . S
H491 C469 0.950 . S
C492 C493 1.349 . S
C492 C494 1.327 . S
C492 H517 0.950 . S
C493 C492 1.349 . S
C493 C509 1.349 . S
C494 C492 1.327 . S
C494 C513 1.429 . S
C494 H518 0.950 . S
C495 C512 1.574 . S
C495 C514 1.368 . S
C495 H519 0.949 . S
H496 C500 0.949 . S
C497 C498 1.349 . S
C497 C499 1.327 . S
C497 H520 0.950 . S
C498 C497 1.349 . S
C498 C510 1.349 . S
C499 C497 1.327 . S
C499 C515 1.429 . S
C499 H521 0.950 . S
C500 H496 0.949 . S
C500 C508 1.574 . S
C500 C516 1.368 . S
H501 C509 0.950 . S
H502 C507 0.950 . S
H503 C508 0.949 . S
H504 C510 0.950 . S
H505 C511 0.950 . S
H506 C512 0.949 . S
C507 H502 0.950 . S
C507 C509 1.327 . S
C507 C513 1.429 . S
C508 C500 1.574 . S
C508 H503 0.949 . S
C508 C514 1.368 . S
C509 C493 1.349 . S
C509 H501 0.950 . S
C509 C507 1.327 . S
C510 C498 1.349 . S
C510 H504 0.950 . S
C510 C511 1.327 . S
C511 H505 0.950 . S
C511 C510 1.327 . S
C511 C515 1.429 . S
C512 C495 1.574 . S
C512 H506 0.949 . S
C512 C516 1.368 . S
C513 C494 1.429 . S
C513 C507 1.429 . S
C513 C514 1.523 . S
C514 C495 1.368 . S
C514 C508 1.368 . S
C514 C513 1.523 . S
C515 C499 1.429 . S
C515 C511 1.429 . S
C515 C516 1.523 . S
C516 C500 1.368 . S
C516 C512 1.368 . S
C516 C515 1.523 . S
H517 C492 0.950 . S
H518 C494 0.950 . S
H519 C495 0.949 . S
H520 C497 0.950 . S
H521 C499 0.950 . S
C522 C523 1.349 . S
C522 C524 1.327 . S
C522 H547 0.950 . S
C523 C522 1.349 . S
C523 C539 1.349 . S
C524 C522 1.327 . S
C524 C543 1.429 . S
C524 H548 0.950 . S
C525 C542 1.574 . S
C525 C544 1.368 . S
C525 H549 0.949 . S
H526 C530 0.949 . S
C527 C528 1.349 . S
C527 C529 1.327 . S
C527 H550 0.950 . S
C528 C527 1.349 . S
C528 C540 1.349 . S
C529 C527 1.327 . S
C529 C545 1.429 . S
C529 H551 0.950 . S
C530 H526 0.949 . S
C530 C538 1.574 . S
C530 C546 1.368 . S
H531 C539 0.950 . S
H532 C537 0.950 . S
H533 C538 0.949 . S
H534 C540 0.950 . S
H535 C541 0.950 . S
H536 C542 0.949 . S
C537 H532 0.950 . S
C537 C539 1.327 . S
C537 C543 1.429 . S
C538 C530 1.574 . S
C538 H533 0.949 . S
C538 C544 1.368 . S
C539 C523 1.349 . S
C539 H531 0.950 . S
C539 C537 1.327 . S
C540 C528 1.349 . S
C540 H534 0.950 . S
C540 C541 1.327 . S
C541 H535 0.950 . S
C541 C540 1.327 . S
C541 C545 1.429 . S
C542 C525 1.574 . S
C542 H536 0.949 . S
C542 C546 1.368 . S
C543 C524 1.429 . S
C543 C537 1.429 . S
C543 C544 1.523 . S
C544 C525 1.368 . S
C544 C538 1.368 . S
C544 C543 1.523 . S
C545 C529 1.429 . S
C545 C541 1.429 . S
C545 C546 1.523 . S
C546 C530 1.368 . S
C546 C542 1.368 . S
C546 C545 1.523 . S
H547 C522 0.950 . S
H548 C524 0.950 . S
H549 C525 0.949 . S
H550 C527 0.950 . S
H551 C529 0.950 . S
C552 C553 1.349 . S
C552 C554 1.327 . S
C552 H577 0.950 . S
C553 C552 1.349 . S
C553 C569 1.349 . S
C554 C552 1.327 . S
C554 C573 1.429 . S
C554 H578 0.950 . S
C555 C572 1.574 . S
C555 C574 1.368 . S
C555 H579 0.949 . S
H556 C560 0.949 . S
C557 C558 1.349 . S
C557 C559 1.327 . S
C557 H580 0.950 . S
C558 C557 1.349 . S
C558 C570 1.349 . S
C559 C557 1.327 . S
C559 C575 1.429 . S
C559 H581 0.950 . S
C560 H556 0.949 . S
C560 C568 1.574 . S
C560 C576 1.368 . S
H561 C569 0.950 . S
H562 C567 0.950 . S
H563 C568 0.949 . S
H564 C570 0.950 1_565 S
H565 C571 0.950 . S
H566 C572 0.949 . S
C567 H562 0.950 . S
C567 C569 1.327 . S
C567 C573 1.429 . S
C568 C560 1.574 . S
C568 H563 0.949 . S
C568 C574 1.368 . S
C569 C553 1.349 . S
C569 H561 0.950 . S
C569 C567 1.327 . S
C570 C558 1.349 . S
C570 H564 0.950 1_545 S
C570 C571 1.327 . S
C571 H565 0.950 . S
C571 C570 1.327 . S
C571 C575 1.429 . S
C572 C555 1.574 . S
C572 H566 0.949 . S
C572 C576 1.368 . S
C573 C554 1.429 . S
C573 C567 1.429 . S
C573 C574 1.523 . S
C574 C555 1.368 . S
C574 C568 1.368 . S
C574 C573 1.523 . S
C575 C559 1.429 . S
C575 C571 1.429 . S
C575 C576 1.523 . S
C576 C560 1.368 . S
C576 C572 1.368 . S
C576 C575 1.523 . S
H577 C552 0.950 . S
H578 C554 0.950 . S
H579 C555 0.949 . S
H580 C557 0.950 . S
H581 C559 0.950 . S
C582 C583 1.349 . S
C582 C584 1.327 . S
C582 H607 0.950 . S
C583 C582 1.349 . S
C583 C599 1.349 . S
C584 C582 1.327 . S
C584 C603 1.429 . S
C584 H608 0.950 . S
C585 C602 1.574 . S
C585 C604 1.368 . S
C585 H609 0.949 . S
H586 C590 0.949 . S
C587 C588 1.349 . S
C587 C589 1.327 . S
C587 H610 0.950 . S
C588 C587 1.349 . S
C588 C600 1.349 . S
C589 C587 1.327 . S
C589 C605 1.429 . S
C589 H611 0.950 . S
C590 H586 0.949 . S
C590 C598 1.574 . S
C590 C606 1.368 . S
H591 C599 0.950 . S
H592 C597 0.950 . S
H593 C598 0.949 . S
H594 C600 0.950 . S
H595 C601 0.950 . S
H596 C602 0.949 . S
C597 H592 0.950 . S
C597 C599 1.327 . S
C597 C603 1.429 . S
C598 C590 1.574 . S
C598 H593 0.949 . S
C598 C604 1.368 . S
C599 C583 1.349 . S
C599 H591 0.950 . S
C599 C597 1.327 . S
C600 C588 1.349 . S
C600 H594 0.950 . S
C600 C601 1.327 . S
C601 H595 0.950 . S
C601 C600 1.327 . S
C601 C605 1.429 . S
C602 C585 1.574 . S
C602 H596 0.949 . S
C602 C606 1.368 . S
C603 C584 1.429 . S
C603 C597 1.429 . S
C603 C604 1.523 . S
C604 C585 1.368 . S
C604 C598 1.368 . S
C604 C603 1.523 . S
C605 C589 1.429 . S
C605 C601 1.429 . S
C605 C606 1.523 . S
C606 C590 1.368 . S
C606 C602 1.368 . S
C606 C605 1.523 . S
H607 C582 0.950 . S
H608 C584 0.950 . S
H609 C585 0.949 . S
H610 C587 0.950 . S
H611 C589 0.950 . S
C612 C613 1.349 . S
C612 C614 1.327 . S
C612 H637 0.950 1_565 S
C613 C612 1.349 . S
C613 C629 1.349 . S
C614 C612 1.327 . S
C614 C633 1.429 . S
C614 H638 0.950 1_565 S
C615 C632 1.574 . S
C615 C634 1.368 . S
C615 H639 0.949 . S
H616 C620 0.949 . S
C617 C618 1.349 . S
C617 C619 1.327 . S
C617 H640 0.950 . S
C618 C617 1.349 . S
C618 C630 1.349 . S
C619 C617 1.327 . S
C619 C635 1.429 . S
C619 H641 0.950 . S
C620 H616 0.949 . S
C620 C628 1.574 . S
C620 C636 1.368 . S
H621 C629 0.950 . S
H622 C627 0.950 . S
H623 C628 0.949 . S
H624 C630 0.950 . S
H625 C631 0.950 . S
H626 C632 0.949 . S
C627 H622 0.950 . S
C627 C629 1.327 . S
C627 C633 1.429 . S
C628 C620 1.574 . S
C628 H623 0.949 . S
C628 C634 1.368 . S
C629 C613 1.349 . S
C629 H621 0.950 . S
C629 C627 1.327 . S
C630 C618 1.349 . S
C630 H624 0.950 . S
C630 C631 1.327 . S
C631 H625 0.950 . S
C631 C630 1.327 . S
C631 C635 1.429 . S
C632 C615 1.574 . S
C632 H626 0.949 . S
C632 C636 1.368 . S
C633 C614 1.429 . S
C633 C627 1.429 . S
C633 C634 1.523 . S
C634 C615 1.368 . S
C634 C628 1.368 . S
C634 C633 1.523 . S
C635 C619 1.429 . S
C635 C631 1.429 . S
C635 C636 1.523 . S
C636 C620 1.368 . S
C636 C632 1.368 . S
C636 C635 1.523 . S
H637 C612 0.950 1_545 S
H638 C614 0.950 1_545 S
H639 C615 0.949 . S
H640 C617 0.950 . S
H641 C619 0.950 . S
C642 C643 1.349 . S
C642 C644 1.327 . S
C642 H667 0.950 . S
C643 C642 1.349 . S
C643 C659 1.349 . S
C644 C642 1.327 . S
C644 C663 1.429 . S
C644 H668 0.950 . S
C645 C662 1.574 . S
C645 C664 1.368 . S
C645 H669 0.949 . S
H646 C650 0.949 . S
C647 C648 1.349 . S
C647 C649 1.327 . S
C647 H670 0.950 . S
C648 C647 1.349 . S
C648 C660 1.349 . S
C649 C647 1.327 . S
C649 C665 1.429 . S
C649 H671 0.950 . S
C650 H646 0.949 . S
C650 C658 1.574 . S
C650 C666 1.368 . S
H651 C659 0.950 . S
H652 C657 0.950 . S
H653 C658 0.949 . S
H654 C660 0.950 1_545 S
H655 C661 0.967 . S
H656 C662 0.949 . S
C657 H652 0.950 . S
C657 C659 1.327 . S
C657 C663 1.429 . S
C658 C650 1.574 . S
C658 H653 0.949 . S
C658 C664 1.368 . S
C659 C643 1.349 . S
C659 H651 0.950 . S
C659 C657 1.327 . S
C660 C648 1.349 . S
C660 H654 0.950 1_565 S
C660 C661 1.327 . S
C661 H655 0.967 . S
C661 C660 1.327 . S
C661 C665 1.429 . S
C662 C645 1.574 . S
C662 H656 0.949 . S
C662 C666 1.368 . S
C663 C644 1.429 . S
C663 C657 1.429 . S
C663 C664 1.523 . S
C664 C645 1.368 . S
C664 C658 1.368 . S
C664 C663 1.523 . S
C665 C649 1.429 . S
C665 C661 1.429 . S
C665 C666 1.523 . S
C666 C650 1.368 . S
C666 C662 1.368 . S
C666 C665 1.523 . S
H667 C642 0.950 . S
H668 C644 0.950 . S
H669 C645 0.949 . S
H670 C647 0.950 . S
H671 C649 0.950 . S
C672 C673 1.349 . S
C672 C674 1.327 . S
C672 H697 0.950 . S
C673 C672 1.349 . S
C673 C689 1.349 . S
C674 C672 1.327 . S
C674 C693 1.429 . S
C674 H698 0.950 . S
C675 C692 1.574 . S
C675 C694 1.368 . S
C675 H699 0.949 . S
H676 C680 0.949 . S
C677 C678 1.349 . S
C677 C679 1.327 . S
C677 H700 0.950 . S
C678 C677 1.349 . S
C678 C690 1.349 . S
C679 C677 1.327 . S
C679 C695 1.429 . S
C679 H701 0.950 . S
C680 H676 0.949 . S
C680 C688 1.574 . S
C680 C696 1.368 . S
H681 C689 0.950 . S
H682 C687 0.950 . S
H683 C688 0.949 . S
H684 C690 0.950 . S
H685 C691 0.950 . S
H686 C692 0.949 . S
C687 H682 0.950 . S
C687 C689 1.327 . S
C687 C693 1.429 . S
C688 C680 1.574 . S
C688 H683 0.949 . S
C688 C694 1.368 . S
C689 C673 1.349 . S
C689 H681 0.950 . S
C689 C687 1.327 . S
C690 C678 1.349 . S
C690 H684 0.950 . S
C690 C691 1.327 . S
C691 H685 0.950 . S
C691 C690 1.327 . S
C691 C695 1.429 . S
C692 C675 1.574 . S
C692 H686 0.949 . S
C692 C696 1.368 . S
C693 C674 1.429 . S
C693 C687 1.429 . S
C693 C694 1.523 . S
C694 C675 1.368 . S
C694 C688 1.368 . S
C694 C693 1.523 . S
C695 C679 1.429 . S
C695 C691 1.429 . S
C695 C696 1.523 . S
C696 C680 1.368 . S
C696 C692 1.368 . S
C696 C695 1.523 . S
H697 C672 0.950 . S
H698 C674 0.950 . S
H699 C675 0.949 . S
H700 C677 0.950 . S
H701 C679 0.950 . S
C702 C703 1.349 . S
C702 C704 1.327 . S
C702 H727 0.950 . S
C703 C702 1.349 . S
C703 C719 1.349 . S
C704 C702 1.327 . S
C704 C723 1.429 . S
C704 H728 0.950 . S
C705 C722 1.574 . S
C705 C724 1.368 . S
C705 H729 0.949 . S
H706 C710 0.949 . S
C707 C708 1.349 . S
C707 C709 1.327 . S
C707 H730 0.950 . S
C708 C707 1.349 . S
C708 C720 1.349 . S
C709 C707 1.327 . S
C709 C725 1.429 . S
C709 H731 0.950 . S
C710 H706 0.949 . S
C710 C718 1.574 . S
C710 C726 1.368 . S
H711 C719 0.950 . S
H712 C717 0.950 . S
H713 C718 0.949 . S
H714 C720 0.950 . S
H715 C721 0.950 . S
H716 C722 0.949 . S
C717 H712 0.950 . S
C717 C719 1.327 . S
C717 C723 1.429 . S
C718 C710 1.574 . S
C718 H713 0.949 . S
C718 C724 1.368 . S
C719 C703 1.349 . S
C719 H711 0.950 . S
C719 C717 1.327 . S
C720 C708 1.349 . S
C720 H714 0.950 . S
C720 C721 1.327 . S
C721 H715 0.950 . S
C721 C720 1.327 . S
C721 C725 1.429 . S
C722 C705 1.574 . S
C722 H716 0.949 . S
C722 C726 1.368 . S
C723 C704 1.429 . S
C723 C717 1.429 . S
C723 C724 1.523 . S
C724 C705 1.368 . S
C724 C718 1.368 . S
C724 C723 1.523 . S
C725 C709 1.429 . S
C725 C721 1.429 . S
C725 C726 1.523 . S
C726 C710 1.368 . S
C726 C722 1.368 . S
C726 C725 1.523 . S
H727 C702 0.950 . S
H728 C704 0.950 . S
H729 C705 0.949 . S
H730 C707 0.950 . S
H731 C709 0.950 . S
C732 C733 1.349 . S
C732 C734 1.327 . S
C732 H757 0.950 . S
C733 C732 1.349 . S
C733 C749 1.349 . S
C734 C732 1.327 . S
C734 C753 1.429 . S
C734 H758 0.950 . S
C735 C752 1.574 . S
C735 C754 1.368 . S
C735 H759 0.949 . S
H736 C740 0.949 . S
C737 C738 1.349 . S
C737 C739 1.327 . S
C737 H760 0.950 . S
C738 C737 1.349 . S
C738 C750 1.349 . S
C739 C737 1.327 . S
C739 C755 1.429 . S
C739 H761 0.950 . S
C740 H736 0.949 . S
C740 C748 1.574 . S
C740 C756 1.368 . S
H741 C749 0.950 . S
H742 C747 0.950 . S
H743 C748 0.949 . S
H744 C750 0.950 . S
H745 C751 0.950 . S
H746 C752 0.949 . S
C747 H742 0.950 . S
C747 C749 1.327 . S
C747 C753 1.429 . S
C748 C740 1.574 . S
C748 H743 0.949 . S
C748 C754 1.368 . S
C749 C733 1.349 . S
C749 H741 0.950 . S
C749 C747 1.327 . S
C750 C738 1.349 . S
C750 H744 0.950 . S
C750 C751 1.327 . S
C751 H745 0.950 . S
C751 C750 1.327 . S
C751 C755 1.429 . S
C752 C735 1.574 . S
C752 H746 0.949 . S
C752 C756 1.368 . S
C753 C734 1.429 . S
C753 C747 1.429 . S
C753 C754 1.523 . S
C754 C735 1.368 . S
C754 C748 1.368 . S
C754 C753 1.523 . S
C755 C739 1.429 . S
C755 C751 1.429 . S
C755 C756 1.523 . S
C756 C740 1.368 . S
C756 C752 1.368 . S
C756 C755 1.523 . S
H757 C732 0.950 . S
H758 C734 0.950 . S
H759 C735 0.949 . S
H760 C737 0.950 . S
H761 C739 0.950 . S
C762 C763 1.349 . S
C762 C764 1.327 . S
C762 H787 0.950 1_655 S
C763 C762 1.349 . S
C763 C779 1.349 . S
C764 C762 1.327 . S
C764 C783 1.429 . S
C764 H788 0.950 . S
C765 C782 1.574 . S
C765 C784 1.368 . S
C765 H789 0.949 . S
H766 C770 0.949 . S
C767 C768 1.349 . S
C767 C769 1.327 . S
C767 H790 0.950 . S
C768 C767 1.349 . S
C768 C780 1.349 . S
C769 C767 1.327 . S
C769 C785 1.429 . S
C769 H791 0.950 . S
C770 H766 0.949 . S
C770 C778 1.574 . S
C770 C786 1.368 . S
H771 C779 0.950 . S
H772 C777 0.950 . S
H773 C778 0.949 . S
H774 C780 0.950 . S
H775 C781 0.950 . S
H776 C782 0.949 . S
C777 H772 0.950 . S
C777 C779 1.327 . S
C777 C783 1.429 . S
C778 C770 1.574 . S
C778 H773 0.949 . S
C778 C784 1.368 . S
C779 C763 1.349 . S
C779 H771 0.950 . S
C779 C777 1.327 . S
C780 C768 1.349 . S
C780 H774 0.950 . S
C780 C781 1.327 . S
C781 H775 0.950 . S
C781 C780 1.327 . S
C781 C785 1.429 . S
C782 C765 1.574 . S
C782 H776 0.949 . S
C782 C786 1.368 . S
C783 C764 1.429 . S
C783 C777 1.429 . S
C783 C784 1.523 . S
C784 C765 1.368 . S
C784 C778 1.368 . S
C784 C783 1.523 . S
C785 C769 1.429 . S
C785 C781 1.429 . S
C785 C786 1.523 . S
C786 C770 1.368 . S
C786 C782 1.368 . S
C786 C785 1.523 . S
H787 C762 0.950 1_455 S
H788 C764 0.950 . S
H789 C765 0.949 . S
H790 C767 0.950 . S
H791 C769 0.950 . S
C792 C793 1.349 . S
C792 C794 1.327 . S
C792 H817 0.950 . S
C793 C792 1.349 . S
C793 C809 1.349 . S
C794 C792 1.327 . S
C794 C813 1.429 . S
C794 H818 0.950 . S
C795 C812 1.574 . S
C795 C814 1.368 . S
C795 H819 0.949 . S
H796 C800 0.949 . S
C797 C798 1.349 . S
C797 C799 1.327 . S
C797 H820 0.950 . S
C798 C797 1.349 . S
C798 C810 1.349 . S
C799 C797 1.327 . S
C799 C815 1.429 . S
C799 H821 0.950 . S
C800 H796 0.949 . S
C800 C808 1.574 . S
C800 C816 1.368 . S
H801 C809 0.950 . S
H802 C807 0.950 . S
H803 C808 0.949 . S
H804 C810 0.950 . S
H805 C811 0.950 . S
H806 C812 0.949 . S
C807 H802 0.950 . S
C807 C809 1.327 . S
C807 C813 1.429 . S
C808 C800 1.574 . S
C808 H803 0.949 . S
C808 C814 1.368 . S
C809 C793 1.349 . S
C809 H801 0.950 . S
C809 C807 1.327 . S
C810 C798 1.349 . S
C810 H804 0.950 . S
C810 C811 1.327 . S
C811 H805 0.950 . S
C811 C810 1.327 . S
C811 C815 1.429 . S
C812 C795 1.574 . S
C812 H806 0.949 . S
C812 C816 1.368 . S
C813 C794 1.429 . S
C813 C807 1.429 . S
C813 C814 1.523 . S
C814 C795 1.368 . S
C814 C808 1.368 . S
C814 C813 1.523 . S
C815 C799 1.429 . S
C815 C811 1.429 . S
C815 C816 1.523 . S
C816 C800 1.368 . S
C816 C812 1.368 . S
C816 C815 1.523 . S
H817 C792 0.950 . S
H818 C794 0.950 . S
H819 C795 0.949 . S
H820 C797 0.950 . S
H821 C799 0.950 . S
C822 C823 1.349 . S
C822 C824 1.327 . S
C822 H847 0.950 . S
C823 C822 1.349 . S
C823 C839 1.349 . S
C824 C822 1.327 . S
C824 C843 1.429 . S
C824 H848 0.950 . S
C825 C842 1.574 . S
C825 C844 1.368 . S
C825 H849 0.949 . S
H826 C830 0.949 . S
C827 C828 1.349 . S
C827 C829 1.327 . S
C827 H850 0.950 . S
C828 C827 1.349 . S
C828 C840 1.349 . S
C829 C827 1.327 . S
C829 C845 1.429 . S
C829 H851 0.950 . S
C830 H826 0.949 . S
C830 C838 1.574 . S
C830 C846 1.368 . S
H831 C839 0.950 . S
H832 C837 0.950 . S
H833 C838 0.949 . S
H834 C840 0.950 . S
H835 C841 0.950 . S
H836 C842 0.949 . S
C837 H832 0.950 . S
C837 C839 1.327 . S
C837 C843 1.429 . S
C838 C830 1.574 . S
C838 H833 0.949 . S
C838 C844 1.368 . S
C839 C823 1.349 . S
C839 H831 0.950 . S
C839 C837 1.327 . S
C840 C828 1.349 . S
C840 H834 0.950 . S
C840 C841 1.327 . S
C841 H835 0.950 . S
C841 C840 1.327 . S
C841 C845 1.429 . S
C842 C825 1.574 . S
C842 H836 0.949 . S
C842 C846 1.368 . S
C843 C824 1.429 . S
C843 C837 1.429 . S
C843 C844 1.523 . S
C844 C825 1.368 . S
C844 C838 1.368 . S
C844 C843 1.523 . S
C845 C829 1.429 . S
C845 C841 1.429 . S
C845 C846 1.523 . S
C846 C830 1.368 . S
C846 C842 1.368 . S
C846 C845 1.523 . S
H847 C822 0.950 . S
H848 C824 0.950 . S
H849 C825 0.949 . S
H850 C827 0.950 . S
H851 C829 0.950 . S
C852 C853 1.349 . S
C852 C854 1.327 . S
C852 H877 0.965 . S
C853 C852 1.349 . S
C853 C869 1.349 . S
C854 C852 1.327 . S
C854 C873 1.429 . S
C854 H878 0.950 . S
C855 C872 1.574 . S
C855 C874 1.368 . S
C855 H879 0.949 . S
H856 C860 0.949 . S
C857 C858 1.349 . S
C857 C859 1.327 . S
C857 H880 0.950 . S
C858 C857 1.349 . S
C858 C870 1.349 . S
C859 C857 1.327 . S
C859 C875 1.429 . S
C859 H881 0.950 . S
C860 H856 0.949 . S
C860 C868 1.574 . S
C860 C876 1.368 . S
H861 C869 0.950 . S
H862 C867 0.950 . S
H863 C868 0.949 . S
H864 C870 0.950 . S
H865 C871 0.950 . S
H866 C872 0.949 . S
C867 H862 0.950 . S
C867 C869 1.327 . S
C867 C873 1.429 . S
C868 C860 1.574 . S
C868 H863 0.949 . S
C868 C874 1.368 . S
C869 C853 1.349 . S
C869 H861 0.950 . S
C869 C867 1.327 . S
C870 C858 1.349 . S
C870 H864 0.950 . S
C870 C871 1.327 . S
C871 H865 0.950 . S
C871 C870 1.327 . S
C871 C875 1.429 . S
C872 C855 1.574 . S
C872 H866 0.949 . S
C872 C876 1.368 . S
C873 C854 1.429 . S
C873 C867 1.429 . S
C873 C874 1.523 . S
C874 C855 1.368 . S
C874 C868 1.368 . S
C874 C873 1.523 . S
C875 C859 1.429 . S
C875 C871 1.429 . S
C875 C876 1.523 . S
C876 C860 1.368 . S
C876 C872 1.368 . S
C876 C875 1.523 . S
H877 C852 0.965 . S
H878 C854 0.950 . S
H879 C855 0.949 . S
H880 C857 0.950 . S
H881 C859 0.950 . S
C882 C883 1.349 . S
C882 C884 1.327 . S
C882 H907 0.950 . S
C883 C882 1.349 . S
C883 C899 1.349 . S
C884 C882 1.327 . S
C884 C903 1.429 . S
C884 H908 0.950 . S
C885 C902 1.574 . S
C885 C904 1.368 . S
C885 H909 0.949 . S
H886 C890 0.949 . S
C887 C888 1.349 . S
C887 C889 1.327 . S
C887 H910 0.950 1_655 S
C888 C887 1.349 . S
C888 C900 1.349 . S
C889 C887 1.327 . S
C889 C905 1.429 . S
C889 H911 0.950 . S
C890 H886 0.949 . S
C890 C898 1.574 . S
C890 C906 1.368 . S
H891 C899 0.950 . S
H892 C897 0.950 . S
H893 C898 0.949 . S
H894 C900 0.950 . S
H895 C901 0.950 . S
H896 C902 0.949 . S
C897 H892 0.950 . S
C897 C899 1.327 . S
C897 C903 1.429 . S
C898 C890 1.574 . S
C898 H893 0.949 . S
C898 C904 1.368 . S
C899 C883 1.349 . S
C899 H891 0.950 . S
C899 C897 1.327 . S
C900 C888 1.349 . S
C900 H894 0.950 . S
C900 C901 1.327 . S
C901 H895 0.950 . S
C901 C900 1.327 . S
C901 C905 1.429 . S
C902 C885 1.574 . S
C902 H896 0.949 . S
C902 C906 1.368 . S
C903 C884 1.429 . S
C903 C897 1.429 . S
C903 C904 1.523 . S
C904 C885 1.368 . S
C904 C898 1.368 . S
C904 C903 1.523 . S
C905 C889 1.429 . S
C905 C901 1.429 . S
C905 C906 1.523 . S
C906 C890 1.368 . S
C906 C902 1.368 . S
C906 C905 1.523 . S
H907 C882 0.950 . S
H908 C884 0.950 . S
H909 C885 0.949 . S
H910 C887 0.950 1_455 S
H911 C889 0.950 . S
C912 C913 1.349 . S
C912 C914 1.327 . S
C912 H937 0.950 . S
C913 C912 1.349 . S
C913 C929 1.349 . S
C914 C912 1.327 . S
C914 C933 1.429 . S
C914 H938 0.950 . S
C915 C932 1.574 . S
C915 C934 1.368 . S
C915 H939 0.949 . S
H916 C920 0.949 . S
C917 C918 1.349 . S
C917 C919 1.327 . S
C917 H940 0.950 . S
C918 C917 1.349 . S
C918 C930 1.349 . S
C919 C917 1.327 . S
C919 C935 1.429 . S
C919 H941 0.950 . S
C920 H916 0.949 . S
C920 C928 1.574 . S
C920 C936 1.368 . S
H921 C929 0.950 . S
H922 C927 0.950 . S
H923 C928 0.949 . S
H924 C930 0.950 . S
H925 C931 0.950 . S
H926 C932 0.949 . S
C927 H922 0.950 . S
C927 C929 1.327 . S
C927 C933 1.429 . S
C928 C920 1.574 . S
C928 H923 0.949 . S
C928 C934 1.368 . S
C929 C913 1.349 . S
C929 H921 0.950 . S
C929 C927 1.327 . S
C930 C918 1.349 . S
C930 H924 0.950 . S
C930 C931 1.327 . S
C931 H925 0.950 . S
C931 C930 1.327 . S
C931 C935 1.429 . S
C932 C915 1.574 . S
C932 H926 0.949 . S
C932 C936 1.368 . S
C933 C914 1.429 . S
C933 C927 1.429 . S
C933 C934 1.523 . S
C934 C915 1.368 . S
C934 C928 1.368 . S
C934 C933 1.523 . S
C935 C919 1.429 . S
C935 C931 1.429 . S
C935 C936 1.523 . S
C936 C920 1.368 . S
C936 C932 1.368 . S
C936 C935 1.523 . S
H937 C912 0.950 . S
H938 C914 0.950 . S
H939 C915 0.949 . S
H940 C917 0.950 . S
H941 C919 0.950 . S
C942 C943 1.349 . S
C942 C944 1.327 . S
C942 H967 0.950 . S
C943 C942 1.349 . S
C943 C959 1.349 . S
C944 C942 1.327 . S
C944 C963 1.429 . S
C944 H968 0.950 . S
C945 C962 1.574 . S
C945 C964 1.368 . S
C945 H969 0.949 . S
H946 C950 0.949 . S
C947 C948 1.349 . S
C947 C949 1.327 . S
C947 H970 0.950 . S
C948 C947 1.349 . S
C948 C960 1.349 . S
C949 C947 1.327 . S
C949 C965 1.429 . S
C949 H971 0.950 . S
C950 H946 0.949 . S
C950 C958 1.574 . S
C950 C966 1.368 . S
H951 C959 0.950 . S
H952 C957 0.950 . S
H953 C958 0.949 . S
H954 C960 0.950 . S
H955 C961 0.950 . S
H956 C962 0.949 . S
C957 H952 0.950 . S
C957 C959 1.327 . S
C957 C963 1.429 . S
C958 C950 1.574 . S
C958 H953 0.949 . S
C958 C964 1.368 . S
C959 C943 1.349 . S
C959 H951 0.950 . S
C959 C957 1.327 . S
C960 C948 1.349 . S
C960 H954 0.950 . S
C960 C961 1.327 . S
C961 H955 0.950 . S
C961 C960 1.327 . S
C961 C965 1.429 . S
C962 C945 1.574 . S
C962 H956 0.949 . S
C962 C966 1.368 . S
C963 C944 1.429 . S
C963 C957 1.429 . S
C963 C964 1.523 . S
C964 C945 1.368 . S
C964 C958 1.368 . S
C964 C963 1.523 . S
C965 C949 1.429 . S
C965 C961 1.429 . S
C965 C966 1.523 . S
C966 C950 1.368 . S
C966 C962 1.368 . S
C966 C965 1.523 . S
H967 C942 0.950 . S
H968 C944 0.950 . S
H969 C945 0.949 . S
H970 C947 0.950 . S
H971 C949 0.950 . S
C972 C973 1.349 . S
C972 C974 1.327 . S
C972 H997 0.950 . S
C973 C972 1.349 . S
C973 C989 1.349 . S
C974 C972 1.327 . S
C974 C993 1.429 . S
C974 H998 0.950 . S
C975 C992 1.574 . S
C975 C994 1.368 . S
C975 H999 0.949 . S
H976 C980 0.949 . S
C977 C978 1.349 . S
C977 C979 1.327 . S
C977 H1000 0.950 . S
C978 C977 1.349 . S
C978 C990 1.349 . S
C979 C977 1.327 . S
C979 C995 1.429 . S
C979 H1001 0.950 . S
C980 H976 0.949 . S
C980 C988 1.574 . S
C980 C996 1.368 . S
H981 C989 0.950 . S
H982 C987 0.950 . S
H983 C988 0.949 . S
H984 C990 0.950 . S
H985 C991 0.950 . S
H986 C992 0.949 . S
C987 H982 0.950 . S
C987 C989 1.327 . S
C987 C993 1.429 . S
C988 C980 1.574 . S
C988 H983 0.949 . S
C988 C994 1.368 . S
C989 C973 1.349 . S
C989 H981 0.950 . S
C989 C987 1.327 . S
C990 C978 1.349 . S
C990 H984 0.950 . S
C990 C991 1.327 . S
C991 H985 0.950 . S
C991 C990 1.327 . S
C991 C995 1.429 . S
C992 C975 1.574 . S
C992 H986 0.949 . S
C992 C996 1.368 . S
C993 C974 1.429 . S
C993 C987 1.429 . S
C993 C994 1.523 . S
C994 C975 1.368 . S
C994 C988 1.368 . S
C994 C993 1.523 . S
C995 C979 1.429 . S
C995 C991 1.429 . S
C995 C996 1.523 . S
C996 C980 1.368 . S
C996 C992 1.368 . S
C996 C995 1.523 . S
H997 C972 0.950 . S
H998 C974 0.950 . S
H999 C975 0.949 . S
H1000 C977 0.950 . S
H1001 C979 0.950 . S
C1002 C1003 1.349 . S
C1002 C1004 1.327 . S
C1002 H1027 0.950 . S
C1003 C1002 1.349 . S
C1003 C1019 1.349 . S
C1004 C1002 1.327 . S
C1004 C1023 1.429 . S
C1004 H1028 0.950 . S
C1005 C1022 1.574 . S
C1005 C1024 1.368 . S
C1005 H1029 0.949 . S
H1006 C1010 0.949 . S
C1007 C1008 1.349 . S
C1007 C1009 1.327 . S
C1007 H1030 0.950 . S
C1008 C1007 1.349 . S
C1008 C1020 1.349 . S
C1009 C1007 1.327 . S
C1009 C1025 1.429 . S
C1009 H1031 0.950 . S
C1010 H1006 0.949 . S
C1010 C1018 1.574 . S
C1010 C1026 1.368 . S
H1011 C1019 0.950 . S
H1012 C1017 0.950 . S
H1013 C1018 0.949 . S
H1014 C1020 0.950 . S
H1015 C1021 0.950 . S
H1016 C1022 0.949 . S
C1017 H1012 0.950 . S
C1017 C1019 1.327 . S
C1017 C1023 1.429 . S
C1018 C1010 1.574 . S
C1018 H1013 0.949 . S
C1018 C1024 1.368 . S
C1019 C1003 1.349 . S
C1019 H1011 0.950 . S
C1019 C1017 1.327 . S
C1020 C1008 1.349 . S
C1020 H1014 0.950 . S
C1020 C1021 1.327 . S
C1021 H1015 0.950 . S
C1021 C1020 1.327 . S
C1021 C1025 1.429 . S
C1022 C1005 1.574 . S
C1022 H1016 0.949 . S
C1022 C1026 1.368 . S
C1023 C1004 1.429 . S
C1023 C1017 1.429 . S
C1023 C1024 1.523 . S
C1024 C1005 1.368 . S
C1024 C1018 1.368 . S
C1024 C1023 1.523 . S
C1025 C1009 1.429 . S
C1025 C1021 1.429 . S
C1025 C1026 1.523 . S
C1026 C1010 1.368 . S
C1026 C1022 1.368 . S
C1026 C1025 1.523 . S
H1027 C1002 0.950 . S
H1028 C1004 0.950 . S
H1029 C1005 0.949 . S
H1030 C1007 0.950 . S
H1031 C1009 0.950 . S
C1032 C1033 1.349 . S
C1032 C1034 1.327 . S
C1032 H1057 0.950 . S
C1033 C1032 1.349 . S
C1033 C1049 1.349 . S
C1034 C1032 1.327 . S
C1034 C1053 1.429 . S
C1034 H1058 0.950 . S
C1035 C1052 1.574 . S
C1035 C1054 1.368 . S
C1035 H1059 0.949 . S
H1036 C1040 0.949 . S
C1037 C1038 1.349 . S
C1037 C1039 1.327 . S
C1037 H1060 0.950 . S
C1038 C1037 1.349 . S
C1038 C1050 1.349 . S
C1039 C1037 1.327 . S
C1039 C1055 1.429 . S
C1039 H1061 0.950 . S
C1040 H1036 0.949 . S
C1040 C1048 1.574 . S
C1040 C1056 1.368 . S
H1041 C1049 0.950 . S
H1042 C1047 0.950 . S
H1043 C1048 0.949 . S
H1044 C1050 0.950 . S
H1045 C1051 0.950 . S
H1046 C1052 0.949 . S
C1047 H1042 0.950 . S
C1047 C1049 1.327 . S
C1047 C1053 1.429 . S
C1048 C1040 1.574 . S
C1048 H1043 0.949 . S
C1048 C1054 1.368 . S
C1049 C1033 1.349 . S
C1049 H1041 0.950 . S
C1049 C1047 1.327 . S
C1050 C1038 1.349 . S
C1050 H1044 0.950 . S
C1050 C1051 1.327 . S
C1051 H1045 0.950 . S
C1051 C1050 1.327 . S
C1051 C1055 1.429 . S
C1052 C1035 1.574 . S
C1052 H1046 0.949 . S
C1052 C1056 1.368 . S
C1053 C1034 1.429 . S
C1053 C1047 1.429 . S
C1053 C1054 1.523 . S
C1054 C1035 1.368 . S
C1054 C1048 1.368 . S
C1054 C1053 1.523 . S
C1055 C1039 1.429 . S
C1055 C1051 1.429 . S
C1055 C1056 1.523 . S
C1056 C1040 1.368 . S
C1056 C1052 1.368 . S
C1056 C1055 1.523 . S
H1057 C1032 0.950 . S
H1058 C1034 0.950 . S
H1059 C1035 0.949 . S
H1060 C1037 0.950 . S
H1061 C1039 0.950 . S
C1062 C1063 1.349 . S
C1062 C1064 1.327 . S
C1062 H1087 0.950 . S
C1063 C1062 1.349 . S
C1063 C1079 1.349 . S
C1064 C1062 1.327 . S
C1064 C1083 1.429 . S
C1064 H1088 0.950 . S
C1065 C1082 1.574 . S
C1065 C1084 1.368 . S
C1065 H1089 0.949 . S
H1066 C1070 0.949 . S
C1067 C1068 1.349 . S
C1067 C1069 1.327 . S
C1067 H1090 0.957 . S
C1068 C1067 1.349 . S
C1068 C1080 1.349 . S
C1069 C1067 1.327 . S
C1069 C1085 1.429 . S
C1069 H1091 0.950 . S
C1070 H1066 0.949 . S
C1070 C1078 1.574 . S
C1070 C1086 1.368 . S
H1071 C1079 0.950 . S
H1072 C1077 0.950 . S
H1073 C1078 0.949 . S
H1074 C1080 0.950 . S
H1075 C1081 0.950 . S
H1076 C1082 0.949 . S
C1077 H1072 0.950 . S
C1077 C1079 1.327 . S
C1077 C1083 1.429 . S
C1078 C1070 1.574 . S
C1078 H1073 0.949 . S
C1078 C1084 1.368 . S
C1079 C1063 1.349 . S
C1079 H1071 0.950 . S
C1079 C1077 1.327 . S
C1080 C1068 1.349 . S
C1080 H1074 0.950 . S
C1080 C1081 1.327 . S
C1081 H1075 0.950 . S
C1081 C1080 1.327 . S
C1081 C1085 1.429 . S
C1082 C1065 1.574 . S
C1082 H1076 0.949 . S
C1082 C1086 1.368 . S
C1083 C1064 1.429 . S
C1083 C1077 1.429 . S
C1083 C1084 1.523 . S
C1084 C1065 1.368 . S
C1084 C1078 1.368 . S
C1084 C1083 1.523 . S
C1085 C1069 1.429 . S
C1085 C1081 1.429 . S
C1085 C1086 1.523 . S
C1086 C1070 1.368 . S
C1086 C1082 1.368 . S
C1086 C1085 1.523 . S
H1087 C1062 0.950 . S
H1088 C1064 0.950 . S
H1089 C1065 0.949 . S
H1090 C1067 0.957 . S
H1091 C1069 0.950 . S
C1092 C1093 1.349 . S
C1092 C1094 1.327 . S
C1092 H1117 0.950 . S
C1093 C1092 1.349 . S
C1093 C1109 1.349 . S
C1094 C1092 1.327 . S
C1094 C1113 1.429 . S
C1094 H1118 0.950 . S
C1095 C1112 1.574 . S
C1095 C1114 1.368 . S
C1095 H1119 0.949 . S
H1096 C1100 0.949 . S
C1097 C1098 1.349 . S
C1097 C1099 1.327 . S
C1097 H1120 0.950 . S
C1098 C1097 1.349 . S
C1098 C1110 1.349 . S
C1099 C1097 1.327 . S
C1099 C1115 1.429 . S
C1099 H1121 0.950 . S
C1100 H1096 0.949 . S
C1100 C1108 1.574 . S
C1100 C1116 1.368 . S
H1101 C1109 0.950 . S
H1102 C1107 0.950 . S
H1103 C1108 0.949 . S
H1104 C1110 0.950 . S
H1105 C1111 0.950 . S
H1106 C1112 0.949 . S
C1107 H1102 0.950 . S
C1107 C1109 1.327 . S
C1107 C1113 1.429 . S
C1108 C1100 1.574 . S
C1108 H1103 0.949 . S
C1108 C1114 1.368 . S
C1109 C1093 1.349 . S
C1109 H1101 0.950 . S
C1109 C1107 1.327 . S
C1110 C1098 1.349 . S
C1110 H1104 0.950 . S
C1110 C1111 1.327 . S
C1111 H1105 0.950 . S
C1111 C1110 1.327 . S
C1111 C1115 1.429 . S
C1112 C1095 1.574 . S
C1112 H1106 0.949 . S
C1112 C1116 1.368 . S
C1113 C1094 1.429 . S
C1113 C1107 1.429 . S
C1113 C1114 1.523 . S
C1114 C1095 1.368 . S
C1114 C1108 1.368 . S
C1114 C1113 1.523 . S
C1115 C1099 1.429 . S
C1115 C1111 1.429 . S
C1115 C1116 1.523 . S
C1116 C1100 1.368 . S
C1116 C1112 1.368 . S
C1116 C1115 1.523 . S
H1117 C1092 0.950 . S
H1118 C1094 0.950 . S
H1119 C1095 0.949 . S
H1120 C1097 0.950 . S
H1121 C1099 0.950 . S
C1122 C1123 1.349 . S
C1122 C1124 1.327 . S
C1122 H1147 0.950 . S
C1123 C1122 1.349 . S
C1123 C1139 1.349 . S
C1124 C1122 1.327 . S
C1124 C1143 1.429 . S
C1124 H1148 0.950 . S
C1125 C1142 1.574 . S
C1125 C1144 1.368 . S
C1125 H1149 0.949 . S
H1126 C1130 0.949 . S
C1127 C1128 1.349 . S
C1127 C1129 1.327 . S
C1127 H1150 0.950 . S
C1128 C1127 1.349 . S
C1128 C1140 1.349 . S
C1129 C1127 1.327 . S
C1129 C1145 1.429 . S
C1129 H1151 0.950 . S
C1130 H1126 0.949 . S
C1130 C1138 1.574 . S
C1130 C1146 1.368 . S
H1131 C1139 0.950 . S
H1132 C1137 0.950 . S
H1133 C1138 0.949 . S
H1134 C1140 0.950 . S
H1135 C1141 0.950 . S
H1136 C1142 0.949 . S
C1137 H1132 0.950 . S
C1137 C1139 1.327 . S
C1137 C1143 1.429 . S
C1138 C1130 1.574 . S
C1138 H1133 0.949 . S
C1138 C1144 1.368 . S
C1139 C1123 1.349 . S
C1139 H1131 0.950 . S
C1139 C1137 1.327 . S
C1140 C1128 1.349 . S
C1140 H1134 0.950 . S
C1140 C1141 1.327 . S
C1141 H1135 0.950 . S
C1141 C1140 1.327 . S
C1141 C1145 1.429 . S
C1142 C1125 1.574 . S
C1142 H1136 0.949 . S
C1142 C1146 1.368 . S
C1143 C1124 1.429 . S
C1143 C1137 1.429 . S
C1143 C1144 1.523 . S
C1144 C1125 1.368 . S
C1144 C1138 1.368 . S
C1144 C1143 1.523 . S
C1145 C1129 1.429 . S
C1145 C1141 1.429 . S
C1145 C1146 1.523 . S
C1146 C1130 1.368 . S
C1146 C1142 1.368 . S
C1146 C1145 1.523 . S
H1147 C1122 0.950 . S
H1148 C1124 0.950 . S
H1149 C1125 0.949 . S
H1150 C1127 0.950 . S
H1151 C1129 0.950 . S
C1152 C1153 1.349 . S
C1152 C1154 1.327 . S
C1152 H1177 0.950 . S
C1153 C1152 1.349 . S
C1153 C1169 1.349 . S
C1154 C1152 1.327 . S
C1154 C1173 1.429 . S
C1154 H1178 0.950 . S
C1155 C1172 1.574 . S
C1155 C1174 1.368 . S
C1155 H1179 0.949 . S
H1156 C1160 0.949 . S
C1157 C1158 1.349 . S
C1157 C1159 1.327 . S
C1157 H1180 0.950 . S
C1158 C1157 1.349 . S
C1158 C1170 1.349 . S
C1159 C1157 1.327 . S
C1159 C1175 1.429 . S
C1159 H1181 0.950 . S
C1160 H1156 0.949 . S
C1160 C1168 1.574 . S
C1160 C1176 1.368 . S
H1161 C1169 0.950 . S
H1162 C1167 0.950 . S
H1163 C1168 0.949 . S
H1164 C1170 0.950 . S
H1165 C1171 0.950 . S
H1166 C1172 0.949 . S
C1167 H1162 0.950 . S
C1167 C1169 1.327 . S
C1167 C1173 1.429 . S
C1168 C1160 1.574 . S
C1168 H1163 0.949 . S
C1168 C1174 1.368 . S
C1169 C1153 1.349 . S
C1169 H1161 0.950 . S
C1169 C1167 1.327 . S
C1170 C1158 1.349 . S
C1170 H1164 0.950 . S
C1170 C1171 1.327 . S
C1171 H1165 0.950 . S
C1171 C1170 1.327 . S
C1171 C1175 1.429 . S
C1172 C1155 1.574 . S
C1172 H1166 0.949 . S
C1172 C1176 1.368 . S
C1173 C1154 1.429 . S
C1173 C1167 1.429 . S
C1173 C1174 1.523 . S
C1174 C1155 1.368 . S
C1174 C1168 1.368 . S
C1174 C1173 1.523 . S
C1175 C1159 1.429 . S
C1175 C1171 1.429 . S
C1175 C1176 1.523 . S
C1176 C1160 1.368 . S
C1176 C1172 1.368 . S
C1176 C1175 1.523 . S
H1177 C1152 0.950 . S
H1178 C1154 0.950 . S
H1179 C1155 0.949 . S
H1180 C1157 0.950 . S
H1181 C1159 0.950 . S
C1182 C1183 1.349 . S
C1182 C1184 1.327 . S
C1182 H1207 0.950 . S
C1183 C1182 1.349 . S
C1183 C1199 1.349 . S
C1184 C1182 1.327 . S
C1184 C1203 1.429 . S
C1184 H1208 0.950 . S
C1185 C1202 1.574 . S
C1185 C1204 1.368 . S
C1185 H1209 0.949 . S
H1186 C1190 0.949 . S
C1187 C1188 1.349 . S
C1187 C1189 1.327 . S
C1187 H1210 0.950 . S
C1188 C1187 1.349 . S
C1188 C1200 1.349 . S
C1189 C1187 1.327 . S
C1189 C1205 1.429 . S
C1189 H1211 0.950 . S
C1190 H1186 0.949 . S
C1190 C1198 1.574 . S
C1190 C1206 1.368 . S
H1191 C1199 0.950 . S
H1192 C1197 0.950 . S
H1193 C1198 0.949 . S
H1194 C1200 0.950 . S
H1195 C1201 0.950 . S
H1196 C1202 0.949 . S
C1197 H1192 0.950 . S
C1197 C1199 1.327 . S
C1197 C1203 1.429 . S
C1198 C1190 1.574 . S
C1198 H1193 0.949 . S
C1198 C1204 1.368 . S
C1199 C1183 1.349 . S
C1199 H1191 0.950 . S
C1199 C1197 1.327 . S
C1200 C1188 1.349 . S
C1200 H1194 0.950 . S
C1200 C1201 1.327 . S
C1201 H1195 0.950 . S
C1201 C1200 1.327 . S
C1201 C1205 1.429 . S
C1202 C1185 1.574 . S
C1202 H1196 0.949 . S
C1202 C1206 1.368 . S
C1203 C1184 1.429 . S
C1203 C1197 1.429 . S
C1203 C1204 1.523 . S
C1204 C1185 1.368 . S
C1204 C1198 1.368 . S
C1204 C1203 1.523 . S
C1205 C1189 1.429 . S
C1205 C1201 1.429 . S
C1205 C1206 1.523 . S
C1206 C1190 1.368 . S
C1206 C1202 1.368 . S
C1206 C1205 1.523 . S
H1207 C1182 0.950 . S
H1208 C1184 0.950 . S
H1209 C1185 0.949 . S
H1210 C1187 0.950 . S
H1211 C1189 0.950 . S
C1212 C1213 1.349 . S
C1212 C1214 1.327 . S
C1212 H1237 0.950 . S
C1213 C1212 1.349 . S
C1213 C1229 1.349 . S
C1214 C1212 1.327 . S
C1214 C1233 1.429 . S
C1214 H1238 0.950 . S
C1215 C1232 1.574 . S
C1215 C1234 1.368 . S
C1215 H1239 0.949 . S
H1216 C1220 0.949 . S
C1217 C1218 1.349 . S
C1217 C1219 1.327 . S
C1217 H1240 0.950 . S
C1218 C1217 1.349 . S
C1218 C1230 1.349 . S
C1219 C1217 1.327 . S
C1219 C1235 1.429 . S
C1219 H1241 0.950 . S
C1220 H1216 0.949 . S
C1220 C1228 1.574 . S
C1220 C1236 1.368 . S
H1221 C1229 0.950 . S
H1222 C1227 0.950 . S
H1223 C1228 0.949 . S
H1224 C1230 0.950 . S
H1225 C1231 0.950 . S
H1226 C1232 0.949 . S
C1227 H1222 0.950 . S
C1227 C1229 1.327 . S
C1227 C1233 1.429 . S
C1228 C1220 1.574 . S
C1228 H1223 0.949 . S
C1228 C1234 1.368 . S
C1229 C1213 1.349 . S
C1229 H1221 0.950 . S
C1229 C1227 1.327 . S
C1230 C1218 1.349 . S
C1230 H1224 0.950 . S
C1230 C1231 1.327 . S
C1231 H1225 0.950 . S
C1231 C1230 1.327 . S
C1231 C1235 1.429 . S
C1232 C1215 1.574 . S
C1232 H1226 0.949 . S
C1232 C1236 1.368 . S
C1233 C1214 1.429 . S
C1233 C1227 1.429 . S
C1233 C1234 1.523 . S
C1234 C1215 1.368 . S
C1234 C1228 1.368 . S
C1234 C1233 1.523 . S
C1235 C1219 1.429 . S
C1235 C1231 1.429 . S
C1235 C1236 1.523 . S
C1236 C1220 1.368 . S
C1236 C1232 1.368 . S
C1236 C1235 1.523 . S
H1237 C1212 0.950 . S
H1238 C1214 0.950 . S
H1239 C1215 0.949 . S
H1240 C1217 0.950 . S
H1241 C1219 0.950 . S
C1242 C1243 1.349 . S
C1242 C1244 1.327 . S
C1242 H1267 0.950 1_655 S
C1243 C1242 1.349 . S
C1243 C1259 1.349 . S
C1244 C1242 1.327 . S
C1244 C1263 1.429 . S
C1244 H1268 0.950 . S
C1245 C1262 1.574 . S
C1245 C1264 1.368 . S
C1245 H1269 0.949 . S
H1246 C1250 0.949 . S
C1247 C1248 1.349 . S
C1247 C1249 1.327 . S
C1247 H1270 0.950 . S
C1248 C1247 1.349 . S
C1248 C1260 1.349 . S
C1249 C1247 1.327 . S
C1249 C1265 1.429 . S
C1249 H1271 0.950 . S
C1250 H1246 0.949 . S
C1250 C1258 1.574 . S
C1250 C1266 1.368 . S
H1251 C1259 0.950 . S
H1252 C1257 0.950 . S
H1253 C1258 0.949 . S
H1254 C1260 0.950 . S
H1255 C1261 0.950 . S
H1256 C1262 0.949 . S
C1257 H1252 0.950 . S
C1257 C1259 1.327 . S
C1257 C1263 1.429 . S
C1258 C1250 1.574 . S
C1258 H1253 0.949 . S
C1258 C1264 1.368 . S
C1259 C1243 1.349 . S
C1259 H1251 0.950 . S
C1259 C1257 1.327 . S
C1260 C1248 1.349 . S
C1260 H1254 0.950 . S
C1260 C1261 1.327 . S
C1261 H1255 0.950 . S
C1261 C1260 1.327 . S
C1261 C1265 1.429 . S
C1262 C1245 1.574 . S
C1262 H1256 0.949 . S
C1262 C1266 1.368 . S
C1263 C1244 1.429 . S
C1263 C1257 1.429 . S
C1263 C1264 1.523 . S
C1264 C1245 1.368 . S
C1264 C1258 1.368 . S
C1264 C1263 1.523 . S
C1265 C1249 1.429 . S
C1265 C1261 1.429 . S
C1265 C1266 1.523 . S
C1266 C1250 1.368 . S
C1266 C1262 1.368 . S
C1266 C1265 1.523 . S
H1267 C1242 0.950 1_455 S
H1268 C1244 0.950 . S
H1269 C1245 0.949 . S
H1270 C1247 0.950 . S
H1271 C1249 0.950 . S
C1272 C1273 1.349 . S
C1272 C1274 1.327 . S
C1272 H1297 0.950 . S
C1273 C1272 1.349 . S
C1273 C1289 1.349 . S
C1274 C1272 1.327 . S
C1274 C1293 1.429 . S
C1274 H1298 0.950 . S
C1275 C1292 1.574 . S
C1275 C1294 1.368 . S
C1275 H1299 0.949 . S
H1276 C1280 0.949 . S
C1277 C1278 1.349 . S
C1277 C1279 1.327 . S
C1277 H1300 0.950 . S
C1278 C1277 1.349 . S
C1278 C1290 1.349 . S
C1279 C1277 1.327 . S
C1279 C1295 1.429 . S
C1279 H1301 0.950 . S
C1280 H1276 0.949 . S
C1280 C1288 1.574 . S
C1280 C1296 1.368 . S
H1281 C1289 0.950 . S
H1282 C1287 0.950 . S
H1283 C1288 0.949 . S
H1284 C1290 0.950 . S
H1285 C1291 0.950 . S
H1286 C1292 0.949 . S
C1287 H1282 0.950 . S
C1287 C1289 1.327 . S
C1287 C1293 1.429 . S
C1288 C1280 1.574 . S
C1288 H1283 0.949 . S
C1288 C1294 1.368 . S
C1289 C1273 1.349 . S
C1289 H1281 0.950 . S
C1289 C1287 1.327 . S
C1290 C1278 1.349 . S
C1290 H1284 0.950 . S
C1290 C1291 1.327 . S
C1291 H1285 0.950 . S
C1291 C1290 1.327 . S
C1291 C1295 1.429 . S
C1292 C1275 1.574 . S
C1292 H1286 0.949 . S
C1292 C1296 1.368 . S
C1293 C1274 1.429 . S
C1293 C1287 1.429 . S
C1293 C1294 1.523 . S
C1294 C1275 1.368 . S
C1294 C1288 1.368 . S
C1294 C1293 1.523 . S
C1295 C1279 1.429 . S
C1295 C1291 1.429 . S
C1295 C1296 1.523 . S
C1296 C1280 1.368 . S
C1296 C1292 1.368 . S
C1296 C1295 1.523 . S
H1297 C1272 0.950 . S
H1298 C1274 0.950 . S
H1299 C1275 0.949 . S
H1300 C1277 0.950 . S
H1301 C1279 0.950 . S
C1302 C1303 1.349 . S
C1302 C1304 1.327 . S
C1302 H1327 0.950 1_556 S
C1303 C1302 1.349 . S
C1303 C1319 1.349 . S
C1304 C1302 1.327 . S
C1304 C1323 1.429 . S
C1304 H1328 0.950 . S
C1305 C1322 1.574 . S
C1305 C1324 1.368 . S
C1305 H1329 0.949 . S
H1306 C1310 0.949 . S
C1307 C1308 1.349 . S
C1307 C1309 1.327 . S
C1307 H1330 0.950 . S
C1308 C1307 1.349 . S
C1308 C1320 1.349 . S
C1309 C1307 1.327 . S
C1309 C1325 1.429 . S
C1309 H1331 0.950 . S
C1310 H1306 0.949 . S
C1310 C1318 1.574 . S
C1310 C1326 1.368 . S
H1311 C1319 0.950 . S
H1312 C1317 0.950 . S
H1313 C1318 0.949 . S
H1314 C1320 0.950 . S
H1315 C1321 0.950 . S
H1316 C1322 0.949 . S
C1317 H1312 0.950 . S
C1317 C1319 1.327 . S
C1317 C1323 1.429 . S
C1318 C1310 1.574 . S
C1318 H1313 0.949 . S
C1318 C1324 1.368 . S
C1319 C1303 1.349 . S
C1319 H1311 0.950 . S
C1319 C1317 1.327 . S
C1320 C1308 1.349 . S
C1320 H1314 0.950 . S
C1320 C1321 1.327 . S
C1321 H1315 0.950 . S
C1321 C1320 1.327 . S
C1321 C1325 1.429 . S
C1322 C1305 1.574 . S
C1322 H1316 0.949 . S
C1322 C1326 1.368 . S
C1323 C1304 1.429 . S
C1323 C1317 1.429 . S
C1323 C1324 1.523 . S
C1324 C1305 1.368 . S
C1324 C1318 1.368 . S
C1324 C1323 1.523 . S
C1325 C1309 1.429 . S
C1325 C1321 1.429 . S
C1325 C1326 1.523 . S
C1326 C1310 1.368 . S
C1326 C1322 1.368 . S
C1326 C1325 1.523 . S
H1327 C1302 0.950 1_554 S
H1328 C1304 0.950 . S
H1329 C1305 0.949 . S
H1330 C1307 0.950 . S
H1331 C1309 0.950 . S
C1332 C1333 1.349 . S
C1332 C1334 1.327 . S
C1332 H1357 0.950 . S
C1333 C1332 1.349 . S
C1333 C1349 1.349 . S
C1334 C1332 1.327 . S
C1334 C1353 1.429 . S
C1334 H1358 0.950 . S
C1335 C1352 1.574 . S
C1335 C1354 1.368 . S
C1335 H1359 0.949 . S
H1336 C1340 0.949 . S
C1337 C1338 1.349 . S
C1337 C1339 1.327 . S
C1337 H1360 0.950 . S
C1338 C1337 1.349 . S
C1338 C1350 1.349 . S
C1339 C1337 1.327 . S
C1339 C1355 1.429 . S
C1339 H1361 0.950 . S
C1340 H1336 0.949 . S
C1340 C1348 1.574 . S
C1340 C1356 1.368 . S
H1341 C1349 0.950 . S
H1342 C1347 0.950 . S
H1343 C1348 0.949 . S
H1344 C1350 0.950 . S
H1345 C1351 0.950 . S
H1346 C1352 0.949 . S
C1347 H1342 0.950 . S
C1347 C1349 1.327 . S
C1347 C1353 1.429 . S
C1348 C1340 1.574 . S
C1348 H1343 0.949 . S
C1348 C1354 1.368 . S
C1349 C1333 1.349 . S
C1349 H1341 0.950 . S
C1349 C1347 1.327 . S
C1350 C1338 1.349 . S
C1350 H1344 0.950 . S
C1350 C1351 1.327 . S
C1351 H1345 0.950 . S
C1351 C1350 1.327 . S
C1351 C1355 1.429 . S
C1352 C1335 1.574 . S
C1352 H1346 0.949 . S
C1352 C1356 1.368 . S
C1353 C1334 1.429 . S
C1353 C1347 1.429 . S
C1353 C1354 1.523 . S
C1354 C1335 1.368 . S
C1354 C1348 1.368 . S
C1354 C1353 1.523 . S
C1355 C1339 1.429 . S
C1355 C1351 1.429 . S
C1355 C1356 1.523 . S
C1356 C1340 1.368 . S
C1356 C1352 1.368 . S
C1356 C1355 1.523 . S
H1357 C1332 0.950 . S
H1358 C1334 0.950 . S
H1359 C1335 0.949 . S
H1360 C1337 0.950 . S
H1361 C1339 0.950 . S
C1362 C1363 1.349 . S
C1362 C1364 1.327 . S
C1362 H1387 0.950 . S
C1363 C1362 1.349 . S
C1363 C1379 1.349 . S
C1364 C1362 1.327 . S
C1364 C1383 1.429 . S
C1364 H1388 0.950 . S
C1365 C1382 1.574 . S
C1365 C1384 1.368 . S
C1365 H1389 0.949 . S
H1366 C1370 0.949 . S
C1367 C1368 1.349 . S
C1367 C1369 1.327 . S
C1367 H1390 0.950 . S
C1368 C1367 1.349 . S
C1368 C1380 1.349 . S
C1369 C1367 1.327 . S
C1369 C1385 1.429 . S
C1369 H1391 0.950 . S
C1370 H1366 0.949 . S
C1370 C1378 1.574 . S
C1370 C1386 1.368 . S
H1371 C1379 0.950 . S
H1372 C1377 0.950 . S
H1373 C1378 0.949 . S
H1374 C1380 0.950 . S
H1375 C1381 0.950 . S
H1376 C1382 0.949 . S
C1377 H1372 0.950 . S
C1377 C1379 1.327 . S
C1377 C1383 1.429 . S
C1378 C1370 1.574 . S
C1378 H1373 0.949 . S
C1378 C1384 1.368 . S
C1379 C1363 1.349 . S
C1379 H1371 0.950 . S
C1379 C1377 1.327 . S
C1380 C1368 1.349 . S
C1380 H1374 0.950 . S
C1380 C1381 1.327 . S
C1381 H1375 0.950 . S
C1381 C1380 1.327 . S
C1381 C1385 1.429 . S
C1382 C1365 1.574 . S
C1382 H1376 0.949 . S
C1382 C1386 1.368 . S
C1383 C1364 1.429 . S
C1383 C1377 1.429 . S
C1383 C1384 1.523 . S
C1384 C1365 1.368 . S
C1384 C1378 1.368 . S
C1384 C1383 1.523 . S
C1385 C1369 1.429 . S
C1385 C1381 1.429 . S
C1385 C1386 1.523 . S
C1386 C1370 1.368 . S
C1386 C1382 1.368 . S
C1386 C1385 1.523 . S
H1387 C1362 0.950 . S
H1388 C1364 0.950 . S
H1389 C1365 0.949 . S
H1390 C1367 0.950 . S
H1391 C1369 0.950 . S
C1392 C1393 1.349 . S
C1392 C1394 1.327 . S
C1392 H1417 0.950 . S
C1393 C1392 1.349 . S
C1393 C1409 1.349 . S
C1394 C1392 1.327 . S
C1394 C1413 1.429 . S
C1394 H1418 0.950 . S
C1395 C1412 1.574 . S
C1395 C1414 1.368 . S
C1395 H1419 0.949 . S
H1396 C1400 0.949 . S
C1397 C1398 1.349 . S
C1397 C1399 1.327 . S
C1397 H1420 0.950 . S
C1398 C1397 1.349 . S
C1398 C1410 1.349 . S
C1399 C1397 1.327 . S
C1399 C1415 1.429 . S
C1399 H1421 0.950 . S
C1400 H1396 0.949 . S
C1400 C1408 1.574 . S
C1400 C1416 1.368 . S
H1401 C1409 0.950 . S
H1402 C1407 0.950 . S
H1403 C1408 0.949 . S
H1404 C1410 0.950 . S
H1405 C1411 0.950 . S
H1406 C1412 0.949 . S
C1407 H1402 0.950 . S
C1407 C1409 1.327 . S
C1407 C1413 1.429 . S
C1408 C1400 1.574 . S
C1408 H1403 0.949 . S
C1408 C1414 1.368 . S
C1409 C1393 1.349 . S
C1409 H1401 0.950 . S
C1409 C1407 1.327 . S
C1410 C1398 1.349 . S
C1410 H1404 0.950 . S
C1410 C1411 1.327 . S
C1411 H1405 0.950 . S
C1411 C1410 1.327 . S
C1411 C1415 1.429 . S
C1412 C1395 1.574 . S
C1412 H1406 0.949 . S
C1412 C1416 1.368 . S
C1413 C1394 1.429 . S
C1413 C1407 1.429 . S
C1413 C1414 1.523 . S
C1414 C1395 1.368 . S
C1414 C1408 1.368 . S
C1414 C1413 1.523 . S
C1415 C1399 1.429 . S
C1415 C1411 1.429 . S
C1415 C1416 1.523 . S
C1416 C1400 1.368 . S
C1416 C1412 1.368 . S
C1416 C1415 1.523 . S
H1417 C1392 0.950 . S
H1418 C1394 0.950 . S
H1419 C1395 0.949 . S
H1420 C1397 0.950 . S
H1421 C1399 0.950 . S
C1422 C1423 1.349 . S
C1422 C1424 1.327 . S
C1422 H1447 0.950 . S
C1423 C1422 1.349 . S
C1423 C1439 1.349 . S
C1424 C1422 1.327 . S
C1424 C1443 1.429 . S
C1424 H1448 0.950 . S
C1425 C1442 1.574 . S
C1425 C1444 1.368 . S
C1425 H1449 0.949 . S
H1426 C1430 0.949 . S
C1427 C1428 1.349 . S
C1427 C1429 1.327 . S
C1427 H1450 0.950 . S
C1428 C1427 1.349 . S
C1428 C1440 1.349 . S
C1429 C1427 1.327 . S
C1429 C1445 1.429 . S
C1429 H1451 0.950 . S
C1430 H1426 0.949 . S
C1430 C1438 1.574 . S
C1430 C1446 1.368 . S
H1431 C1439 0.950 . S
H1432 C1437 0.950 . S
H1433 C1438 0.949 . S
H1434 C1440 0.950 . S
H1435 C1441 0.950 . S
H1436 C1442 0.949 . S
C1437 H1432 0.950 . S
C1437 C1439 1.327 . S
C1437 C1443 1.429 . S
C1438 C1430 1.574 . S
C1438 H1433 0.949 . S
C1438 C1444 1.368 . S
C1439 C1423 1.349 . S
C1439 H1431 0.950 . S
C1439 C1437 1.327 . S
C1440 C1428 1.349 . S
C1440 H1434 0.950 . S
C1440 C1441 1.327 . S
C1441 H1435 0.950 . S
C1441 C1440 1.327 . S
C1441 C1445 1.429 . S
C1442 C1425 1.574 . S
C1442 H1436 0.949 . S
C1442 C1446 1.368 . S
C1443 C1424 1.429 . S
C1443 C1437 1.429 . S
C1443 C1444 1.523 . S
C1444 C1425 1.368 . S
C1444 C1438 1.368 . S
C1444 C1443 1.523 . S
C1445 C1429 1.429 . S
C1445 C1441 1.429 . S
C1445 C1446 1.523 . S
C1446 C1430 1.368 . S
C1446 C1442 1.368 . S
C1446 C1445 1.523 . S
H1447 C1422 0.950 . S
H1448 C1424 0.950 . S
H1449 C1425 0.949 . S
H1450 C1427 0.950 . S
H1451 C1429 0.950 . S
C1452 C1453 1.349 . S
C1452 C1454 1.327 . S
C1452 H1477 0.950 . S
C1453 C1452 1.349 . S
C1453 C1469 1.349 . S
C1454 C1452 1.327 . S
C1454 C1473 1.429 . S
C1454 H1478 0.950 . S
C1455 C1472 1.574 . S
C1455 C1474 1.368 . S
C1455 H1479 0.949 . S
H1456 C1460 0.949 . S
C1457 C1458 1.349 . S
C1457 C1459 1.327 . S
C1457 H1480 0.950 . S
C1458 C1457 1.349 . S
C1458 C1470 1.349 . S
C1459 C1457 1.327 . S
C1459 C1475 1.429 . S
C1459 H1481 0.950 . S
C1460 H1456 0.949 . S
C1460 C1468 1.574 . S
C1460 C1476 1.368 . S
H1461 C1469 0.950 . S
H1462 C1467 0.950 . S
H1463 C1468 0.949 . S
H1464 C1470 0.950 . S
H1465 C1471 0.950 . S
H1466 C1472 0.949 . S
C1467 H1462 0.950 . S
C1467 C1469 1.327 . S
C1467 C1473 1.429 . S
C1468 C1460 1.574 . S
C1468 H1463 0.949 . S
C1468 C1474 1.368 . S
C1469 C1453 1.349 . S
C1469 H1461 0.950 . S
C1469 C1467 1.327 . S
C1470 C1458 1.349 . S
C1470 H1464 0.950 . S
C1470 C1471 1.327 . S
C1471 H1465 0.950 . S
C1471 C1470 1.327 . S
C1471 C1475 1.429 . S
C1472 C1455 1.574 . S
C1472 H1466 0.949 . S
C1472 C1476 1.368 . S
C1473 C1454 1.429 . S
C1473 C1467 1.429 . S
C1473 C1474 1.523 . S
C1474 C1455 1.368 . S
C1474 C1468 1.368 . S
C1474 C1473 1.523 . S
C1475 C1459 1.429 . S
C1475 C1471 1.429 . S
C1475 C1476 1.523 . S
C1476 C1460 1.368 . S
C1476 C1472 1.368 . S
C1476 C1475 1.523 . S
H1477 C1452 0.950 . S
H1478 C1454 0.950 . S
H1479 C1455 0.949 . S
H1480 C1457 0.950 . S
H1481 C1459 0.950 . S
C1482 C1483 1.349 . S
C1482 C1484 1.327 . S
C1482 H1507 0.950 . S
C1483 C1482 1.349 . S
C1483 C1499 1.349 . S
C1484 C1482 1.327 . S
C1484 C1503 1.429 . S
C1484 H1508 0.950 . S
C1485 C1502 1.574 . S
C1485 C1504 1.368 . S
C1485 H1509 0.949 . S
H1486 C1490 0.949 . S
C1487 C1488 1.349 . S
C1487 C1489 1.327 . S
C1487 H1510 0.950 . S
C1488 C1487 1.349 . S
C1488 C1500 1.349 . S
C1489 C1487 1.327 . S
C1489 C1505 1.429 . S
C1489 H1511 0.950 . S
C1490 H1486 0.949 . S
C1490 C1498 1.574 . S
C1490 C1506 1.368 . S
H1491 C1499 0.950 . S
H1492 C1497 0.950 . S
H1493 C1498 0.949 . S
H1494 C1500 0.950 . S
H1495 C1501 0.950 . S
H1496 C1502 0.949 . S
C1497 H1492 0.950 . S
C1497 C1499 1.327 . S
C1497 C1503 1.429 . S
C1498 C1490 1.574 . S
C1498 H1493 0.949 . S
C1498 C1504 1.368 . S
C1499 C1483 1.349 . S
C1499 H1491 0.950 . S
C1499 C1497 1.327 . S
C1500 C1488 1.349 . S
C1500 H1494 0.950 . S
C1500 C1501 1.327 . S
C1501 H1495 0.950 . S
C1501 C1500 1.327 . S
C1501 C1505 1.429 . S
C1502 C1485 1.574 . S
C1502 H1496 0.949 . S
C1502 C1506 1.368 . S
C1503 C1484 1.429 . S
C1503 C1497 1.429 . S
C1503 C1504 1.523 . S
C1504 C1485 1.368 . S
C1504 C1498 1.368 . S
C1504 C1503 1.523 . S
C1505 C1489 1.429 . S
C1505 C1501 1.429 . S
C1505 C1506 1.523 . S
C1506 C1490 1.368 . S
C1506 C1502 1.368 . S
C1506 C1505 1.523 . S
H1507 C1482 0.950 . S
H1508 C1484 0.950 . S
H1509 C1485 0.949 . S
H1510 C1487 0.950 . S
H1511 C1489 0.950 . S
C1512 C1513 1.349 . S
C1512 C1514 1.327 . S
C1512 H1537 0.950 . S
C1513 C1512 1.349 . S
C1513 C1529 1.349 . S
C1514 C1512 1.327 . S
C1514 C1533 1.429 . S
C1514 H1538 0.950 . S
C1515 C1532 1.574 . S
C1515 C1534 1.368 . S
C1515 H1539 0.949 . S
H1516 C1520 0.949 . S
C1517 C1518 1.349 . S
C1517 C1519 1.327 . S
C1517 H1540 0.950 . S
C1518 C1517 1.349 . S
C1518 C1530 1.349 . S
C1519 C1517 1.327 . S
C1519 C1535 1.429 . S
C1519 H1541 0.950 . S
C1520 H1516 0.949 . S
C1520 C1528 1.574 . S
C1520 C1536 1.368 . S
H1521 C1529 0.950 . S
H1522 C1527 0.950 . S
H1523 C1528 0.949 . S
H1524 C1530 0.950 . S
H1525 C1531 0.950 . S
H1526 C1532 0.949 . S
C1527 H1522 0.950 . S
C1527 C1529 1.327 . S
C1527 C1533 1.429 . S
C1528 C1520 1.574 . S
C1528 H1523 0.949 . S
C1528 C1534 1.368 . S
C1529 C1513 1.349 . S
C1529 H1521 0.950 . S
C1529 C1527 1.327 . S
C1530 C1518 1.349 . S
C1530 H1524 0.950 . S
C1530 C1531 1.327 . S
C1531 H1525 0.950 . S
C1531 C1530 1.327 . S
C1531 C1535 1.429 . S
C1532 C1515 1.574 . S
C1532 H1526 0.949 . S
C1532 C1536 1.368 . S
C1533 C1514 1.429 . S
C1533 C1527 1.429 . S
C1533 C1534 1.523 . S
C1534 C1515 1.368 . S
C1534 C1528 1.368 . S
C1534 C1533 1.523 . S
C1535 C1519 1.429 . S
C1535 C1531 1.429 . S
C1535 C1536 1.523 . S
C1536 C1520 1.368 . S
C1536 C1532 1.368 . S
C1536 C1535 1.523 . S
H1537 C1512 0.950 . S
H1538 C1514 0.950 . S
H1539 C1515 0.949 . S
H1540 C1517 0.950 . S
H1541 C1519 0.950 . S
C1542 C1543 1.349 . S
C1542 C1544 1.327 . S
C1542 H1567 0.950 . S
C1543 C1542 1.349 . S
C1543 C1559 1.349 . S
C1544 C1542 1.327 . S
C1544 C1563 1.429 . S
C1544 H1568 0.950 . S
C1545 C1562 1.574 . S
C1545 C1564 1.368 . S
C1545 H1569 0.949 . S
H1546 C1550 0.949 . S
C1547 C1548 1.349 . S
C1547 C1549 1.327 . S
C1547 H1570 0.950 . S
C1548 C1547 1.349 . S
C1548 C1560 1.349 . S
C1549 C1547 1.327 . S
C1549 C1565 1.429 . S
C1549 H1571 0.950 . S
C1550 H1546 0.949 . S
C1550 C1558 1.574 . S
C1550 C1566 1.368 . S
H1551 C1559 0.950 . S
H1552 C1557 0.950 . S
H1553 C1558 0.949 . S
H1554 C1560 0.950 . S
H1555 C1561 0.950 . S
H1556 C1562 0.949 . S
C1557 H1552 0.950 . S
C1557 C1559 1.327 . S
C1557 C1563 1.429 . S
C1558 C1550 1.574 . S
C1558 H1553 0.949 . S
C1558 C1564 1.368 . S
C1559 C1543 1.349 . S
C1559 H1551 0.950 . S
C1559 C1557 1.327 . S
C1560 C1548 1.349 . S
C1560 H1554 0.950 . S
C1560 C1561 1.327 . S
C1561 H1555 0.950 . S
C1561 C1560 1.327 . S
C1561 C1565 1.429 . S
C1562 C1545 1.574 . S
C1562 H1556 0.949 . S
C1562 C1566 1.368 . S
C1563 C1544 1.429 . S
C1563 C1557 1.429 . S
C1563 C1564 1.523 . S
C1564 C1545 1.368 . S
C1564 C1558 1.368 . S
C1564 C1563 1.523 . S
C1565 C1549 1.429 . S
C1565 C1561 1.429 . S
C1565 C1566 1.523 . S
C1566 C1550 1.368 . S
C1566 C1562 1.368 . S
C1566 C1565 1.523 . S
H1567 C1542 0.950 . S
H1568 C1544 0.950 . S
H1569 C1545 0.949 . S
H1570 C1547 0.950 . S
H1571 C1549 0.950 . S
C1572 C1573 1.349 . S
C1572 C1574 1.327 . S
C1572 H1597 0.950 . S
C1573 C1572 1.349 . S
C1573 C1589 1.349 . S
C1574 C1572 1.327 . S
C1574 C1593 1.429 . S
C1574 H1598 0.950 . S
C1575 C1592 1.574 . S
C1575 C1594 1.368 . S
C1575 H1599 0.949 . S
H1576 C1580 0.949 . S
C1577 C1578 1.349 . S
C1577 C1579 1.327 . S
C1577 H1600 0.950 . S
C1578 C1577 1.349 . S
C1578 C1590 1.349 . S
C1579 C1577 1.327 . S
C1579 C1595 1.429 . S
C1579 H1601 0.950 . S
C1580 H1576 0.949 . S
C1580 C1588 1.574 . S
C1580 C1596 1.368 . S
H1581 C1589 0.950 . S
H1582 C1587 0.950 . S
H1583 C1588 0.949 . S
H1584 C1590 0.950 . S
H1585 C1591 0.950 . S
H1586 C1592 0.949 . S
C1587 H1582 0.950 . S
C1587 C1589 1.327 . S
C1587 C1593 1.429 . S
C1588 C1580 1.574 . S
C1588 H1583 0.949 . S
C1588 C1594 1.368 . S
C1589 C1573 1.349 . S
C1589 H1581 0.950 . S
C1589 C1587 1.327 . S
C1590 C1578 1.349 . S
C1590 H1584 0.950 . S
C1590 C1591 1.327 . S
C1591 H1585 0.950 . S
C1591 C1590 1.327 . S
C1591 C1595 1.429 . S
C1592 C1575 1.574 . S
C1592 H1586 0.949 . S
C1592 C1596 1.368 . S
C1593 C1574 1.429 . S
C1593 C1587 1.429 . S
C1593 C1594 1.523 . S
C1594 C1575 1.368 . S
C1594 C1588 1.368 . S
C1594 C1593 1.523 . S
C1595 C1579 1.429 . S
C1595 C1591 1.429 . S
C1595 C1596 1.523 . S
C1596 C1580 1.368 . S
C1596 C1592 1.368 . S
C1596 C1595 1.523 . S
H1597 C1572 0.950 . S
H1598 C1574 0.950 . S
H1599 C1575 0.949 . S
H1600 C1577 0.950 . S
H1601 C1579 0.950 . S
C1602 C1603 1.349 . S
C1602 C1604 1.327 . S
C1602 H1627 0.950 . S
C1603 C1602 1.349 . S
C1603 C1619 1.349 . S
C1604 C1602 1.327 . S
C1604 C1623 1.429 . S
C1604 H1628 0.950 . S
C1605 C1622 1.574 . S
C1605 C1624 1.368 . S
C1605 H1629 0.949 . S
H1606 C1610 0.949 . S
C1607 C1608 1.349 . S
C1607 C1609 1.327 . S
C1607 H1630 0.950 . S
C1608 C1607 1.349 . S
C1608 C1620 1.349 . S
C1609 C1607 1.327 . S
C1609 C1625 1.429 . S
C1609 H1631 0.950 . S
C1610 H1606 0.949 . S
C1610 C1618 1.574 . S
C1610 C1626 1.368 . S
H1611 C1619 0.950 . S
H1612 C1617 0.950 . S
H1613 C1618 0.949 . S
H1614 C1620 0.950 . S
H1615 C1621 0.950 . S
H1616 C1622 0.949 . S
C1617 H1612 0.950 . S
C1617 C1619 1.327 . S
C1617 C1623 1.429 . S
C1618 C1610 1.574 . S
C1618 H1613 0.949 . S
C1618 C1624 1.368 . S
C1619 C1603 1.349 . S
C1619 H1611 0.950 . S
C1619 C1617 1.327 . S
C1620 C1608 1.349 . S
C1620 H1614 0.950 . S
C1620 C1621 1.327 . S
C1621 H1615 0.950 . S
C1621 C1620 1.327 . S
C1621 C1625 1.429 . S
C1622 C1605 1.574 . S
C1622 H1616 0.949 . S
C1622 C1626 1.368 . S
C1623 C1604 1.429 . S
C1623 C1617 1.429 . S
C1623 C1624 1.523 . S
C1624 C1605 1.368 . S
C1624 C1618 1.368 . S
C1624 C1623 1.523 . S
C1625 C1609 1.429 . S
C1625 C1621 1.429 . S
C1625 C1626 1.523 . S
C1626 C1610 1.368 . S
C1626 C1622 1.368 . S
C1626 C1625 1.523 . S
H1627 C1602 0.950 . S
H1628 C1604 0.950 . S
H1629 C1605 0.949 . S
H1630 C1607 0.950 . S
H1631 C1609 0.950 . S
C1632 C1633 1.349 . S
C1632 C1634 1.327 . S
C1632 H1657 0.950 . S
C1633 C1632 1.349 . S
C1633 C1649 1.349 . S
C1634 C1632 1.327 . S
C1634 C1653 1.429 . S
C1634 H1658 0.950 . S
C1635 C1652 1.574 . S
C1635 C1654 1.368 . S
C1635 H1659 0.949 . S
H1636 C1640 0.949 . S
C1637 C1638 1.349 . S
C1637 C1639 1.327 . S
C1637 H1660 0.950 . S
C1638 C1637 1.349 . S
C1638 C1650 1.349 . S
C1639 C1637 1.327 . S
C1639 C1655 1.429 . S
C1639 H1661 0.950 . S
C1640 H1636 0.949 . S
C1640 C1648 1.574 . S
C1640 C1656 1.368 . S
H1641 C1649 0.950 . S
H1642 C1647 0.950 . S
H1643 C1648 0.949 . S
H1644 C1650 0.950 . S
H1645 C1651 0.950 . S
H1646 C1652 0.949 . S
C1647 H1642 0.950 . S
C1647 C1649 1.327 . S
C1647 C1653 1.429 . S
C1648 C1640 1.574 . S
C1648 H1643 0.949 . S
C1648 C1654 1.368 . S
C1649 C1633 1.349 . S
C1649 H1641 0.950 . S
C1649 C1647 1.327 . S
C1650 C1638 1.349 . S
C1650 H1644 0.950 . S
C1650 C1651 1.327 . S
C1651 H1645 0.950 . S
C1651 C1650 1.327 . S
C1651 C1655 1.429 . S
C1652 C1635 1.574 . S
C1652 H1646 0.949 . S
C1652 C1656 1.368 . S
C1653 C1634 1.429 . S
C1653 C1647 1.429 . S
C1653 C1654 1.523 . S
C1654 C1635 1.368 . S
C1654 C1648 1.368 . S
C1654 C1653 1.523 . S
C1655 C1639 1.429 . S
C1655 C1651 1.429 . S
C1655 C1656 1.523 . S
C1656 C1640 1.368 . S
C1656 C1652 1.368 . S
C1656 C1655 1.523 . S
H1657 C1632 0.950 . S
H1658 C1634 0.950 . S
H1659 C1635 0.949 . S
H1660 C1637 0.950 . S
H1661 C1639 0.950 . S
C1662 C1663 1.349 . S
C1662 C1664 1.327 . S
C1662 H1687 0.950 . S
C1663 C1662 1.349 . S
C1663 C1679 1.349 . S
C1664 C1662 1.327 . S
C1664 C1683 1.429 . S
C1664 H1688 0.950 . S
C1665 C1682 1.574 . S
C1665 C1684 1.368 . S
C1665 H1689 0.949 . S
H1666 C1670 0.949 . S
C1667 C1668 1.349 . S
C1667 C1669 1.327 . S
C1667 H1690 0.950 . S
C1668 C1667 1.349 . S
C1668 C1680 1.349 . S
C1669 C1667 1.327 . S
C1669 C1685 1.429 . S
C1669 H1691 0.950 . S
C1670 H1666 0.949 . S
C1670 C1678 1.574 . S
C1670 C1686 1.368 . S
H1671 C1679 0.950 . S
H1672 C1677 0.950 . S
H1673 C1678 0.949 . S
H1674 C1680 0.950 . S
H1675 C1681 0.950 . S
H1676 C1682 0.949 . S
C1677 H1672 0.950 . S
C1677 C1679 1.327 . S
C1677 C1683 1.429 . S
C1678 C1670 1.574 . S
C1678 H1673 0.949 . S
C1678 C1684 1.368 . S
C1679 C1663 1.349 . S
C1679 H1671 0.950 . S
C1679 C1677 1.327 . S
C1680 C1668 1.349 . S
C1680 H1674 0.950 . S
C1680 C1681 1.327 . S
C1681 H1675 0.950 . S
C1681 C1680 1.327 . S
C1681 C1685 1.429 . S
C1682 C1665 1.574 . S
C1682 H1676 0.949 . S
C1682 C1686 1.368 . S
C1683 C1664 1.429 . S
C1683 C1677 1.429 . S
C1683 C1684 1.523 . S
C1684 C1665 1.368 . S
C1684 C1678 1.368 . S
C1684 C1683 1.523 . S
C1685 C1669 1.429 . S
C1685 C1681 1.429 . S
C1685 C1686 1.523 . S
C1686 C1670 1.368 . S
C1686 C1682 1.368 . S
C1686 C1685 1.523 . S
H1687 C1662 0.950 . S
H1688 C1664 0.950 . S
H1689 C1665 0.949 . S
H1690 C1667 0.950 . S
H1691 C1669 0.950 . S
C1692 C1693 1.349 . S
C1692 C1694 1.327 . S
C1692 H1717 0.950 . S
C1693 C1692 1.349 . S
C1693 C1709 1.349 . S
C1694 C1692 1.327 . S
C1694 C1713 1.429 . S
C1694 H1718 0.950 . S
C1695 C1712 1.574 . S
C1695 C1714 1.368 . S
C1695 H1719 0.949 . S
H1696 C1700 0.949 . S
C1697 C1698 1.349 . S
C1697 C1699 1.327 . S
C1697 H1720 0.950 . S
C1698 C1697 1.349 . S
C1698 C1710 1.349 . S
C1699 C1697 1.327 . S
C1699 C1715 1.429 . S
C1699 H1721 0.950 . S
C1700 H1696 0.949 . S
C1700 C1708 1.574 . S
C1700 C1716 1.368 . S
H1701 C1709 0.950 . S
H1702 C1707 0.950 . S
H1703 C1708 0.949 . S
H1704 C1710 0.950 . S
H1705 C1711 0.950 . S
H1706 C1712 0.949 . S
C1707 H1702 0.950 . S
C1707 C1709 1.327 . S
C1707 C1713 1.429 . S
C1708 C1700 1.574 . S
C1708 H1703 0.949 . S
C1708 C1714 1.368 . S
C1709 C1693 1.349 . S
C1709 H1701 0.950 . S
C1709 C1707 1.327 . S
C1710 C1698 1.349 . S
C1710 H1704 0.950 . S
C1710 C1711 1.327 . S
C1711 H1705 0.950 . S
C1711 C1710 1.327 . S
C1711 C1715 1.429 . S
C1712 C1695 1.574 . S
C1712 H1706 0.949 . S
C1712 C1716 1.368 . S
C1713 C1694 1.429 . S
C1713 C1707 1.429 . S
C1713 C1714 1.523 . S
C1714 C1695 1.368 . S
C1714 C1708 1.368 . S
C1714 C1713 1.523 . S
C1715 C1699 1.429 . S
C1715 C1711 1.429 . S
C1715 C1716 1.523 . S
C1716 C1700 1.368 . S
C1716 C1712 1.368 . S
C1716 C1715 1.523 . S
H1717 C1692 0.950 . S
H1718 C1694 0.950 . S
H1719 C1695 0.949 . S
H1720 C1697 0.950 . S
H1721 C1699 0.950 . S
C1722 C1723 1.349 . S
C1722 C1724 1.327 . S
C1722 H1747 0.950 . S
C1723 C1722 1.349 . S
C1723 C1739 1.349 . S
C1724 C1722 1.327 . S
C1724 C1743 1.429 . S
C1724 H1748 0.950 . S
C1725 C1742 1.574 . S
C1725 C1744 1.368 . S
C1725 H1749 0.949 . S
H1726 C1730 0.949 . S
C1727 C1728 1.349 . S
C1727 C1729 1.327 . S
C1727 H1750 0.950 . S
C1728 C1727 1.349 . S
C1728 C1740 1.349 . S
C1729 C1727 1.327 . S
C1729 C1745 1.429 . S
C1729 H1751 0.950 . S
C1730 H1726 0.949 . S
C1730 C1738 1.574 . S
C1730 C1746 1.368 . S
H1731 C1739 0.950 . S
H1732 C1737 0.950 . S
H1733 C1738 0.949 . S
H1734 C1740 0.950 . S
H1735 C1741 0.950 . S
H1736 C1742 0.949 . S
C1737 H1732 0.950 . S
C1737 C1739 1.327 . S
C1737 C1743 1.429 . S
C1738 C1730 1.574 . S
C1738 H1733 0.949 . S
C1738 C1744 1.368 . S
C1739 C1723 1.349 . S
C1739 H1731 0.950 . S
C1739 C1737 1.327 . S
C1740 C1728 1.349 . S
C1740 H1734 0.950 . S
C1740 C1741 1.327 . S
C1741 H1735 0.950 . S
C1741 C1740 1.327 . S
C1741 C1745 1.429 . S
C1742 C1725 1.574 . S
C1742 H1736 0.949 . S
C1742 C1746 1.368 . S
C1743 C1724 1.429 . S
C1743 C1737 1.429 . S
C1743 C1744 1.523 . S
C1744 C1725 1.368 . S
C1744 C1738 1.368 . S
C1744 C1743 1.523 . S
C1745 C1729 1.429 . S
C1745 C1741 1.429 . S
C1745 C1746 1.523 . S
C1746 C1730 1.368 . S
C1746 C1742 1.368 . S
C1746 C1745 1.523 . S
H1747 C1722 0.950 . S
H1748 C1724 0.950 . S
H1749 C1725 0.949 . S
H1750 C1727 0.950 . S
H1751 C1729 0.950 . S
C313 C187 1.188 . S
C318 C8 1.196 . S
C343 C18 1.133 . S
C348 C195 1.138 . S
C373 C242 1.196 . S
C378 C36 1.220 . S
C403 C39 1.101 . S
C408 C169 1.100 . S
C433 C182 1.217 . S
C438 C62 1.247 . S
C463 C70 1.145 . S
C468 C200 1.146 . S
C493 C86 1.138 . S
C498 C244 1.171 . S
C523 C91 1.117 . S
C528 C174 1.110 . S
C553 C125 1.156 . S
C558 C112 1.163 . S
C583 C130 1.222 . S
C588 C127 1.252 . S
C613 C135 1.186 . S
C618 C151 1.192 . S
C643 C153 1.202 . S
C648 C114 1.201 . S
C673 C156 1.138 . S
C678 C44 1.133 . S
C703 C60 1.139 . S
C708 C218 1.176 . S
C733 C221 1.100 . S
C738 C13 1.101 . S
C763 C23 1.406 . S
C768 C278 1.365 . S
C793 C117 1.329 . S
C798 C5 1.340 . S
C823 C307 1.379 . S
C828 C47 1.378 . S
C853 C143 1.330 . S
C858 C26 1.330 . S
C883 C273 1.446 . S
C888 C99 1.447 . S
C913 C122 1.339 . S
C918 C83 1.342 . S
C943 C75 1.400 . S
C948 C309 1.398 . S
C973 C52 1.325 . S
C978 C148 1.335 . S
C1003 C205 1.402 . S
C1008 C257 1.400 . S
C1033 C213 1.495 . S
C1038 C203 1.487 . S
C1063 C179 1.367 . S
C1068 C208 1.319 . S
C1093 C255 1.374 . S
C1098 C177 1.374 . S
C1123 C31 1.340 . S
C1128 C260 1.329 . S
C1153 C140 1.398 . S
C1158 C101 1.400 . S
C1183 C0 1.330 . S
C1188 C286 1.330 . S
C1213 C252 1.189 . S
C1218 C34 1.196 . S
C1243 C10 1.220 . S
C1248 C216 1.191 . S
C1273 C247 1.217 . S
C1278 C88 1.247 . S
C1303 C161 1.146 . S
C1308 C96 1.145 . S
C1333 C65 1.117 . S
C1338 C226 1.110 . S
C1363 C281 1.163 . S
C1368 C268 1.155 . S
C1393 C299 1.222 . S
C1398 C270 1.253 . S
C1423 C294 1.192 . S
C1428 C304 1.186 . S
C1453 C283 1.201 . S
C1458 C296 1.202 . S
C1483 C109 1.365 . S
C1488 C49 1.406 . S
C1513 C21 1.378 . S
C1518 C138 1.379 . S
C1543 C73 1.447 . S
C1548 C104 1.446 . S
C1573 C265 1.339 . S
C1578 C57 1.342 . S
C1603 C78 1.325 . S
C1608 C291 1.335 . S
C1633 C166 1.402 . S
C1638 C192 1.400 . S
C1663 C239 1.495 . S
C1668 C164 1.484 . S
C1693 C231 1.367 . S
C1698 C234 1.322 . S
C1723 C190 1.374 . S
C1728 C229 1.374 . S
