# Generated by pormake.
# Topology vbk, (5)-cn, num edge types: 1
# Building blocks:
#     Node 0, Type 0, BuildingBlock: BEQFEK_clean_sbu_0, # of connection points: 5
#     Node 1, Type 0, BuildingBlock: BEQFEK_clean_sbu_0, # of connection points: 5
#     Node 2, Type 0, BuildingBlock: BEQFEK_clean_sbu_0, # of connection points: 5
#     Node 3, Type 0, BuildingBlock: BEQFEK_clean_sbu_0, # of connection points: 5
#     Node 4, Type 0, BuildingBlock: BEQFEK_clean_sbu_0, # of connection points: 5
#     Node 5, Type 0, BuildingBlock: BEQFEK_clean_sbu_0, # of connection points: 5
#     Node 6, Type 0, BuildingBlock: BEQFEK_clean_sbu_0, # of connection points: 5
#     Node 7, Type 0, BuildingBlock: BEQFEK_clean_sbu_0, # of connection points: 5
#     Node 8, Type 0, BuildingBlock: BEQFEK_clean_sbu_0, # of connection points: 5
#     Node 9, Type 0, BuildingBlock: BEQFEK_clean_sbu_0, # of connection points: 5
#     Node 10, Type 0, BuildingBlock: BEQFEK_clean_sbu_0, # of connection points: 5
#     Node 11, Type 0, BuildingBlock: BEQFEK_clean_sbu_0, # of connection points: 5
#     Node 12, Type 0, BuildingBlock: BEQFEK_clean_sbu_0, # of connection points: 5
#     Node 13, Type 0, BuildingBlock: BEQFEK_clean_sbu_0, # of connection points: 5
#     Node 14, Type 0, BuildingBlock: BEQFEK_clean_sbu_0, # of connection points: 5
#     Node 15, Type 0, BuildingBlock: BEQFEK_clean_sbu_0, # of connection points: 5
#     Edge 16, Type (0, 0), BuildingBlock: AJUNOK_clean_linker_0, # of connection points: 2
#     Edge 17, Type (0, 0), BuildingBlock: AJUNOK_clean_linker_0, # of connection points: 2
#     Edge 18, Type (0, 0), BuildingBlock: AJUNOK_clean_linker_0, # of connection points: 2
#     Edge 19, Type (0, 0), BuildingBlock: AJUNOK_clean_linker_0, # of connection points: 2
#     Edge 20, Type (0, 0), BuildingBlock: AJUNOK_clean_linker_0, # of connection points: 2
#     Edge 21, Type (0, 0), BuildingBlock: AJUNOK_clean_linker_0, # of connection points: 2
#     Edge 22, Type (0, 0), BuildingBlock: AJUNOK_clean_linker_0, # of connection points: 2
#     Edge 23, Type (0, 0), BuildingBlock: AJUNOK_clean_linker_0, # of connection points: 2
#     Edge 24, Type (0, 0), BuildingBlock: AJUNOK_clean_linker_0, # of connection points: 2
#     Edge 25, Type (0, 0), BuildingBlock: AJUNOK_clean_linker_0, # of connection points: 2
#     Edge 26, Type (0, 0), BuildingBlock: AJUNOK_clean_linker_0, # of connection points: 2
#     Edge 27, Type (0, 0), BuildingBlock: AJUNOK_clean_linker_0, # of connection points: 2
#     Edge 28, Type (0, 0), BuildingBlock: AJUNOK_clean_linker_0, # of connection points: 2
#     Edge 29, Type (0, 0), BuildingBlock: AJUNOK_clean_linker_0, # of connection points: 2
#     Edge 30, Type (0, 0), BuildingBlock: AJUNOK_clean_linker_0, # of connection points: 2
#     Edge 31, Type (0, 0), BuildingBlock: AJUNOK_clean_linker_0, # of connection points: 2
#     Edge 32, Type (0, 0), BuildingBlock: AJUNOK_clean_linker_0, # of connection points: 2
#     Edge 33, Type (0, 0), BuildingBlock: AJUNOK_clean_linker_0, # of connection points: 2
#     Edge 34, Type (0, 0), BuildingBlock: AJUNOK_clean_linker_0, # of connection points: 2
#     Edge 35, Type (0, 0), BuildingBlock: AJUNOK_clean_linker_0, # of connection points: 2
#     Edge 36, Type (0, 0), BuildingBlock: AJUNOK_clean_linker_0, # of connection points: 2
#     Edge 37, Type (0, 0), BuildingBlock: AJUNOK_clean_linker_0, # of connection points: 2
#     Edge 38, Type (0, 0), BuildingBlock: AJUNOK_clean_linker_0, # of connection points: 2
#     Edge 39, Type (0, 0), BuildingBlock: AJUNOK_clean_linker_0, # of connection points: 2
#     Edge 40, Type (0, 0), BuildingBlock: AJUNOK_clean_linker_0, # of connection points: 2
#     Edge 41, Type (0, 0), BuildingBlock: AJUNOK_clean_linker_0, # of connection points: 2
#     Edge 42, Type (0, 0), BuildingBlock: AJUNOK_clean_linker_0, # of connection points: 2
#     Edge 43, Type (0, 0), BuildingBlock: AJUNOK_clean_linker_0, # of connection points: 2
#     Edge 44, Type (0, 0), BuildingBlock: AJUNOK_clean_linker_0, # of connection points: 2
#     Edge 45, Type (0, 0), BuildingBlock: AJUNOK_clean_linker_0, # of connection points: 2
#     Edge 46, Type (0, 0), BuildingBlock: AJUNOK_clean_linker_0, # of connection points: 2
#     Edge 47, Type (0, 0), BuildingBlock: AJUNOK_clean_linker_0, # of connection points: 2
#     Edge 48, Type (0, 0), BuildingBlock: AJUNOK_clean_linker_0, # of connection points: 2
#     Edge 49, Type (0, 0), BuildingBlock: AJUNOK_clean_linker_0, # of connection points: 2
#     Edge 50, Type (0, 0), BuildingBlock: AJUNOK_clean_linker_0, # of connection points: 2
#     Edge 51, Type (0, 0), BuildingBlock: AJUNOK_clean_linker_0, # of connection points: 2
#     Edge 52, Type (0, 0), BuildingBlock: AJUNOK_clean_linker_0, # of connection points: 2
#     Edge 53, Type (0, 0), BuildingBlock: AJUNOK_clean_linker_0, # of connection points: 2
#     Edge 54, Type (0, 0), BuildingBlock: AJUNOK_clean_linker_0, # of connection points: 2
#     Edge 55, Type (0, 0), BuildingBlock: AJUNOK_clean_linker_0, # of connection points: 2
# Relax obj value: 0.033
# Max RMSD: 0.062
# Mean RMSD: 0.062
data_MOF--net-vbk--node1-BEQFEK_clean_sbu_0--edge1-AJUNOK_clean_linker_0
_symmetry_space_group_name_H-M    P1
_symmetry_Int_Tables_number       1
_symmetry_cell_setting            triclinic
loop_
_symmetry_equiv_pos_as_xyz
'x, y, z'
_cell_length_a     60.490772
_cell_length_b     31.630684
_cell_length_c     20.286405
_cell_angle_alpha  90.026719
_cell_angle_beta   89.992324
_cell_angle_gamma 90.016862
loop_
_atom_site_label
_atom_site_type_symbol
_atom_site_fract_x
_atom_site_fract_y
_atom_site_fract_z
_atom_type_partial_charge
Co0 Co 0.10351 0.1398 0.13175 0.0
Co1 Co 0.15536 0.14782 0.12789 0.0
C2 C 0.13162 0.06922 0.08289 0.0
O3 O 0.11302 0.0853 0.09743 0.0
O4 O 0.14954 0.08959 0.09241 0.0
C5 C 0.05938 0.12316 0.09816 0.0
O6 O 0.06943 0.10998 0.04451 0.0
C7 C 0.19988 0.1319 0.18099 0.0
C8 C 0.21941 0.18201 0.13234 0.0
C9 C 0.22094 0.14938 0.17762 0.0
N10 N 0.18652 0.15376 0.1404 0.0
N11 N 0.19836 0.18334 0.11094 0.0
C12 C 0.19262 0.09401 0.21952 0.0
H13 H 0.18162 0.07407 0.18868 0.0
H14 H 0.18288 0.10429 0.26294 0.0
H15 H 0.20702 0.07514 0.23639 0.0
C16 C 0.11077 0.16428 0.26988 0.0
N17 N 0.11853 0.15288 0.21037 0.0
N18 N 0.14 0.15936 0.20815 0.0
C19 C 0.14639 0.17749 0.26526 0.0
C20 C 0.12815 0.18035 0.30692 0.0
C21 C 0.08695 0.16142 0.28927 0.0
H22 H 0.07985 0.13124 0.27116 0.0
H23 H 0.08493 0.16322 0.34357 0.0
H24 H 0.0777 0.18776 0.26595 0.0
O25 O 0.1094 0.1828 0.06301 0.0
O26 O 0.14602 0.18929 0.06071 0.0
H27 H 0.16659 0.2266 0.30877 0.0
H28 H 0.18023 0.17695 0.2956 0.0
C29 C 0.16814 0.19941 0.27451 0.0
H30 H 0.17449 0.21105 0.22663 0.0
H31 H 0.19197 0.20506 0.07727 0.0
O32 O 0.07104 0.13773 0.14507 0.0
C33 C 0.12691 0.19938 0.03962 0.0
Co34 Co 0.41915 0.84541 0.63243 0.0
Co35 Co 0.36706 0.83818 0.62964 0.0
C36 C 0.39143 0.91585 0.58201 0.0
O37 O 0.41002 0.89963 0.5964 0.0
O38 O 0.37341 0.89604 0.59302 0.0
C39 C 0.46279 0.87858 0.65936 0.0
O40 O 0.45227 0.91449 0.66784 0.0
C41 C 0.32177 0.85265 0.68158 0.0
C42 C 0.30285 0.80507 0.62526 0.0
C43 C 0.30066 0.83599 0.67319 0.0
N44 N 0.33571 0.83226 0.64068 0.0
N45 N 0.32421 0.80411 0.60689 0.0
C46 C 0.32844 0.88868 0.72504 0.0
H47 H 0.34454 0.90193 0.7088 0.0
H48 H 0.33019 0.87755 0.77653 0.0
H49 H 0.31551 0.91359 0.72434 0.0
C50 C 0.41203 0.82151 0.77031 0.0
N51 N 0.404 0.83321 0.71132 0.0
N52 N 0.38251 0.82663 0.70981 0.0
C53 C 0.37642 0.80819 0.76702 0.0
C54 C 0.39491 0.80464 0.80736 0.0
C55 C 0.43578 0.8258 0.78988 0.0
H56 H 0.44152 0.85831 0.77877 0.0
H57 H 0.43819 0.81959 0.84323 0.0
H58 H 0.44597 0.80344 0.76066 0.0
O59 O 0.41286 0.80222 0.56441 0.0
O60 O 0.37623 0.79638 0.56269 0.0
H61 H 0.34683 0.77813 0.73092 0.0
H62 H 0.35628 0.75887 0.80961 0.0
C63 C 0.35448 0.78744 0.77834 0.0
H64 H 0.34337 0.80972 0.80438 0.0
H65 H 0.331 0.78375 0.57184 0.0
O66 O 0.45174 0.84555 0.64551 0.0
C67 C 0.39523 0.78591 0.54136 0.0
Co68 Co 0.10215 0.84503 0.87438 0.0
Co69 Co 0.15442 0.83704 0.87641 0.0
C70 C 0.13081 0.91328 0.92994 0.0
O71 O 0.11218 0.8977 0.91434 0.0
O72 O 0.14879 0.89414 0.91619 0.0
C73 C 0.05913 0.88293 0.85925 0.0
O74 O 0.07066 0.91809 0.86138 0.0
C75 C 0.19928 0.85261 0.82339 0.0
C76 C 0.21845 0.80209 0.87213 0.0
C77 C 0.22028 0.83482 0.82712 0.0
N78 N 0.18568 0.83086 0.86355 0.0
N79 N 0.19734 0.80102 0.89302 0.0
C80 C 0.19233 0.89085 0.78523 0.0
H81 H 0.18111 0.91053 0.81578 0.0
H82 H 0.18292 0.88097 0.74095 0.0
H83 H 0.20687 0.90979 0.76967 0.0
C84 C 0.10912 0.82238 0.73579 0.0
N85 N 0.11721 0.83386 0.79487 0.0
N86 N 0.13869 0.82717 0.79616 0.0
C87 C 0.14472 0.80893 0.73874 0.0
C88 C 0.12623 0.80568 0.69833 0.0
C89 C 0.08527 0.82613 0.71714 0.0
H90 H 0.07914 0.85804 0.73057 0.0
H91 H 0.08279 0.82095 0.66352 0.0
H92 H 0.07545 0.80265 0.74537 0.0
O93 O 0.10826 0.80016 0.94003 0.0
O94 O 0.14496 0.79449 0.94194 0.0
H95 H 0.17374 0.77702 0.77484 0.0
H96 H 0.1647 0.75971 0.69477 0.0
C97 C 0.16652 0.7876 0.72752 0.0
H98 H 0.17799 0.81004 0.70338 0.0
H99 H 0.19078 0.77932 0.92646 0.0
O100 O 0.06932 0.84777 0.86179 0.0
C101 C 0.12591 0.78363 0.96269 0.0
Co102 Co 0.41906 0.14243 0.37344 0.0
Co103 Co 0.36692 0.145 0.37567 0.0
C104 C 0.39173 0.07029 0.42531 0.0
O105 O 0.41002 0.08849 0.41296 0.0
O106 O 0.37337 0.08735 0.4098 0.0
C107 C 0.46302 0.10889 0.35144 0.0
O108 O 0.45291 0.07212 0.35099 0.0
C109 C 0.32169 0.13037 0.32535 0.0
C110 C 0.30286 0.17815 0.38154 0.0
C111 C 0.30063 0.14711 0.33382 0.0
N112 N 0.33566 0.15087 0.36591 0.0
N113 N 0.32423 0.1791 0.39975 0.0
C114 C 0.32831 0.09425 0.28199 0.0
H115 H 0.34408 0.08022 0.29941 0.0
H116 H 0.33075 0.10556 0.23085 0.0
H117 H 0.31509 0.0699 0.28123 0.0
C118 C 0.41154 0.16669 0.23601 0.0
N119 N 0.4037 0.15343 0.29442 0.0
N120 N 0.38211 0.15847 0.29598 0.0
C121 C 0.37569 0.17739 0.23948 0.0
C122 C 0.39412 0.18295 0.19946 0.0
C123 C 0.43545 0.16499 0.21702 0.0
H124 H 0.44211 0.13312 0.22809 0.0
H125 H 0.43781 0.17177 0.16381 0.0
H126 H 0.44488 0.18826 0.24678 0.0
O127 O 0.41282 0.18714 0.43947 0.0
O128 O 0.3761 0.18442 0.44543 0.0
H129 H 0.35465 0.22567 0.1977 0.0
H130 H 0.34248 0.17416 0.20363 0.0
C131 C 0.35342 0.19703 0.22906 0.0
H132 H 0.34591 0.20602 0.2768 0.0
H133 H 0.33109 0.19956 0.43454 0.0
O134 O 0.45163 0.1423 0.35924 0.0
C135 C 0.3946 0.1989 0.46494 0.0
Co136 Co 0.9194 0.84519 0.87464 0.0
Co137 Co 0.86711 0.8391 0.87513 0.0
C138 C 0.89054 0.91549 0.92548 0.0
O139 O 0.90934 0.89895 0.91404 0.0
O140 O 0.87274 0.89656 0.90977 0.0
C141 C 0.96245 0.88304 0.85854 0.0
O142 O 0.95094 0.91821 0.86003 0.0
C143 C 0.82199 0.85418 0.82421 0.0
C144 C 0.80295 0.80549 0.87772 0.0
C145 C 0.80085 0.83756 0.83164 0.0
N146 N 0.83586 0.8327 0.86381 0.0
N147 N 0.82431 0.80387 0.89599 0.0
C148 C 0.82876 0.89115 0.78289 0.0
H149 H 0.84456 0.90464 0.8011 0.0
H150 H 0.8312 0.88087 0.73118 0.0
H151 H 0.81562 0.91565 0.78334 0.0
C152 C 0.91236 0.82042 0.73629 0.0
N153 N 0.90434 0.83303 0.79493 0.0
N154 N 0.8828 0.82711 0.79602 0.0
C155 C 0.8766 0.80853 0.73907 0.0
C156 C 0.89509 0.80396 0.69905 0.0
C157 C 0.93628 0.823 0.7178 0.0
H158 H 0.94271 0.85489 0.73009 0.0
H159 H 0.93878 0.8169 0.66444 0.0
H160 H 0.94581 0.79965 0.74709 0.0
O161 O 0.91341 0.80019 0.9408 0.0
O162 O 0.87658 0.79985 0.94465 0.0
H163 H 0.85576 0.76065 0.6949 0.0
H164 H 0.8432 0.81163 0.70472 0.0
C165 C 0.85446 0.78843 0.72807 0.0
H166 H 0.84724 0.77796 0.77548 0.0
H167 H 0.83106 0.78273 0.92993 0.0
O168 O 0.95223 0.8479 0.86177 0.0
C169 C 0.89527 0.78684 0.96505 0.0
Co170 Co 0.6026 0.14705 0.37333 0.0
Co171 Co 0.65474 0.14431 0.37273 0.0
C172 C 0.62944 0.07217 0.42423 0.0
O173 O 0.61152 0.0921 0.41311 0.0
O174 O 0.64808 0.08774 0.40797 0.0
C175 C 0.55945 0.1129 0.34532 0.0
O176 O 0.57044 0.07745 0.33721 0.0
C177 C 0.70084 0.12577 0.33181 0.0
C178 C 0.71747 0.18511 0.36079 0.0
C179 C 0.72104 0.14667 0.33003 0.0
N180 N 0.68597 0.15109 0.36153 0.0
N181 N 0.69616 0.18619 0.37964 0.0
C182 C 0.69579 0.08209 0.30776 0.0
H183 H 0.67803 0.07927 0.29473 0.0
H184 H 0.70633 0.07339 0.26516 0.0
H185 H 0.69926 0.05938 0.34813 0.0
C186 C 0.61036 0.1754 0.23707 0.0
N187 N 0.61768 0.15854 0.29398 0.0
N188 N 0.63938 0.15587 0.29241 0.0
C189 C 0.6465 0.16989 0.23335 0.0
C190 C 0.62843 0.1834 0.19673 0.0
C191 C 0.58694 0.18896 0.22617 0.0
H192 H 0.58063 0.20506 0.27099 0.0
H193 H 0.57657 0.16053 0.21766 0.0
H194 H 0.58533 0.21052 0.18336 0.0
O195 O 0.60927 0.19172 0.43749 0.0
O196 O 0.64589 0.18586 0.44165 0.0
H197 H 0.67962 0.19266 0.24504 0.0
H198 H 0.67209 0.18122 0.16048 0.0
C199 C 0.67019 0.17102 0.21248 0.0
H200 H 0.67715 0.13887 0.21701 0.0
H201 H 0.68837 0.21156 0.40291 0.0
O202 O 0.57004 0.14637 0.35971 0.0
C203 C 0.62787 0.20248 0.46137 0.0
Co204 Co 0.91887 0.14026 0.13318 0.0
Co205 Co 0.86695 0.14631 0.13229 0.0
C206 C 0.8905 0.0694 0.08364 0.0
O207 O 0.90926 0.0859 0.09554 0.0
O208 O 0.87268 0.08865 0.0981 0.0
C209 C 0.96295 0.1237 0.09876 0.0
O210 O 0.95282 0.11131 0.0448 0.0
C211 C 0.82217 0.13109 0.18439 0.0
C212 C 0.80273 0.17865 0.1297 0.0
C213 C 0.80096 0.14718 0.1769 0.0
N214 N 0.8358 0.15229 0.14371 0.0
N215 N 0.82403 0.18044 0.11084 0.0
C216 C 0.82922 0.09484 0.22679 0.0
H217 H 0.84559 0.08276 0.21084 0.0
H218 H 0.8305 0.10528 0.27878 0.0
H219 H 0.8167 0.0692 0.22453 0.0
C220 C 0.91206 0.16522 0.27125 0.0
N221 N 0.90398 0.15269 0.21269 0.0
N222 N 0.88246 0.15871 0.21161 0.0
C223 C 0.87631 0.17731 0.26862 0.0
C224 C 0.89484 0.18177 0.30856 0.0
C225 C 0.93598 0.16252 0.28955 0.0
H226 H 0.94253 0.13097 0.27574 0.0
H227 H 0.93847 0.16771 0.34315 0.0
H228 H 0.94542 0.18655 0.26136 0.0
O229 O 0.91304 0.18486 0.06639 0.0
O230 O 0.87624 0.18562 0.06246 0.0
H231 H 0.85563 0.22551 0.31235 0.0
H232 H 0.84308 0.1744 0.30438 0.0
C233 C 0.85419 0.19739 0.27991 0.0
H234 H 0.84675 0.20731 0.23253 0.0
H235 H 0.83059 0.20126 0.07606 0.0
O236 O 0.95137 0.13772 0.14625 0.0
C237 C 0.89498 0.1984 0.04202 0.0
Co238 Co 0.60265 0.84433 0.63315 0.0
Co239 Co 0.65478 0.84264 0.62943 0.0
C240 C 0.62909 0.9171 0.58025 0.0
O241 O 0.61092 0.8986 0.59288 0.0
O242 O 0.64756 0.89996 0.59466 0.0
C243 C 0.55919 0.8776 0.65886 0.0
O244 O 0.56982 0.91367 0.66392 0.0
C245 C 0.69961 0.85915 0.68205 0.0
C246 C 0.71914 0.81063 0.62966 0.0
C247 C 0.72075 0.84206 0.67699 0.0
N248 N 0.68617 0.83814 0.64048 0.0
N249 N 0.69804 0.80957 0.60878 0.0
C250 C 0.69237 0.89602 0.72295 0.0
H251 H 0.68116 0.91644 0.69362 0.0
H252 H 0.68285 0.88467 0.76614 0.0
H253 H 0.70677 0.91472 0.74032 0.0
C254 C 0.61092 0.82228 0.77197 0.0
N255 N 0.61827 0.8345 0.71237 0.0
N256 N 0.63984 0.82946 0.70964 0.0
C257 C 0.64671 0.81126 0.76619 0.0
C258 C 0.62868 0.80698 0.80829 0.0
C259 C 0.58712 0.82347 0.79208 0.0
H260 H 0.57984 0.85427 0.77778 0.0
H261 H 0.58517 0.81927 0.84605 0.0
H262 H 0.57797 0.79814 0.76582 0.0
O263 O 0.60923 0.7991 0.56786 0.0
O264 O 0.64593 0.802 0.56082 0.0
H265 H 0.67516 0.77979 0.72547 0.0
H266 H 0.66743 0.76192 0.80656 0.0
C267 C 0.66869 0.79001 0.774 0.0
H268 H 0.68053 0.81234 0.79662 0.0
H269 H 0.69162 0.78855 0.57405 0.0
O270 O 0.57012 0.84404 0.64759 0.0
C271 C 0.62741 0.78697 0.5424 0.0
Co272 Co 0.60234 0.64508 0.13034 0.0
Co273 Co 0.6547 0.64579 0.13264 0.0
C274 C 0.62975 0.57185 0.08057 0.0
O275 O 0.61153 0.5902 0.0933 0.0
O276 O 0.6482 0.58922 0.09447 0.0
C277 C 0.55997 0.6102 0.16264 0.0
O278 O 0.572 0.57722 0.17875 0.0
C279 C 0.70093 0.62751 0.17586 0.0
C280 C 0.71765 0.68614 0.14415 0.0
C281 C 0.72123 0.64812 0.17615 0.0
N282 N 0.686 0.65253 0.1456 0.0
N283 N 0.69626 0.68726 0.12617 0.0
C284 C 0.69596 0.5843 0.20189 0.0
H285 H 0.67799 0.57746 0.19861 0.0
H286 H 0.7015 0.58145 0.25377 0.0
H287 H 0.70526 0.56057 0.17264 0.0
C288 C 0.60924 0.67326 0.26726 0.0
N289 N 0.61705 0.6575 0.21016 0.0
N290 N 0.63879 0.65592 0.21257 0.0
C291 C 0.64544 0.66965 0.2723 0.0
C292 C 0.62698 0.68139 0.30886 0.0
C293 C 0.58566 0.68628 0.27705 0.0
H294 H 0.57903 0.69996 0.23077 0.0
H295 H 0.57568 0.65794 0.2894 0.0
H296 H 0.58393 0.70986 0.3172 0.0
O297 O 0.60924 0.68806 0.06376 0.0
O298 O 0.64602 0.68895 0.0655 0.0
H299 H 0.67783 0.69612 0.26113 0.0
H300 H 0.67077 0.68288 0.34544 0.0
C301 C 0.6691 0.67313 0.29318 0.0
H302 H 0.67709 0.64192 0.28788 0.0
H303 H 0.68852 0.71229 0.10193 0.0
O304 O 0.56967 0.64339 0.14225 0.0
C305 C 0.62763 0.70224 0.04283 0.0
Co306 Co 0.92105 0.34303 0.63293 0.0
Co307 Co 0.8686 0.34115 0.63364 0.0
C308 C 0.89337 0.41532 0.58174 0.0
O309 O 0.91165 0.39757 0.59562 0.0
O310 O 0.87499 0.39773 0.59559 0.0
C311 C 0.96376 0.37807 0.66257 0.0
O312 O 0.952 0.41191 0.67585 0.0
C313 C 0.82298 0.36055 0.67919 0.0
C314 C 0.8051 0.30349 0.64616 0.0
C315 C 0.80238 0.34108 0.68013 0.0
N316 N 0.83725 0.33531 0.64671 0.0
N317 N 0.82631 0.30156 0.62633 0.0
C318 C 0.82892 0.40281 0.70719 0.0
H319 H 0.84711 0.40564 0.71303 0.0
H320 H 0.82054 0.4081 0.7551 0.0
H321 H 0.82322 0.42776 0.67273 0.0
C322 C 0.91399 0.3138 0.76882 0.0
N323 N 0.90622 0.33011 0.71208 0.0
N324 N 0.88445 0.33071 0.7137 0.0
C325 C 0.87776 0.3155 0.77248 0.0
C326 C 0.89619 0.30373 0.80894 0.0
C327 C 0.93775 0.30258 0.77971 0.0
H328 H 0.94428 0.28597 0.73564 0.0
H329 H 0.94745 0.33207 0.78618 0.0
H330 H 0.94002 0.28227 0.82373 0.0
O331 O 0.91426 0.30036 0.56598 0.0
O332 O 0.87745 0.29834 0.5659 0.0
H333 H 0.84537 0.28973 0.7575 0.0
H334 H 0.85245 0.2979 0.84334 0.0
C335 C 0.85411 0.31071 0.7927 0.0
H336 H 0.8462 0.34217 0.79193 0.0
H337 H 0.83349 0.27655 0.6005 0.0
O338 O 0.95378 0.34454 0.64485 0.0
C339 C 0.89609 0.28599 0.54366 0.0
Co340 Co 0.6028 0.342 0.87374 0.0
Co341 Co 0.65514 0.34548 0.87096 0.0
C342 C 0.62974 0.41724 0.92345 0.0
O343 O 0.61183 0.39704 0.91303 0.0
O344 O 0.64837 0.40203 0.90626 0.0
C345 C 0.56005 0.37398 0.83491 0.0
O346 O 0.57179 0.40596 0.81298 0.0
C347 C 0.70161 0.36329 0.82919 0.0
C348 C 0.71799 0.30462 0.86214 0.0
C349 C 0.72183 0.34244 0.82986 0.0
N350 N 0.68647 0.33859 0.85918 0.0
N351 N 0.69653 0.30384 0.87941 0.0
C352 C 0.69693 0.40649 0.80264 0.0
H353 H 0.67893 0.41325 0.80394 0.0
H354 H 0.70315 0.40941 0.75144 0.0
H355 H 0.7058 0.43023 0.83301 0.0
C356 C 0.61024 0.31461 0.73653 0.0
N357 N 0.61773 0.33075 0.79375 0.0
N358 N 0.63944 0.33372 0.79138 0.0
C359 C 0.64635 0.32061 0.73158 0.0
C360 C 0.62814 0.30781 0.69492 0.0
C361 C 0.58692 0.30002 0.72646 0.0
H362 H 0.58022 0.28705 0.77315 0.0
H363 H 0.5766 0.32745 0.71187 0.0
H364 H 0.58581 0.27546 0.68757 0.0
O365 O 0.60983 0.29773 0.93837 0.0
O366 O 0.64644 0.30448 0.94094 0.0
H367 H 0.67924 0.29643 0.74207 0.0
H368 H 0.67187 0.3098 0.65809 0.0
C369 C 0.67006 0.31903 0.71053 0.0
H370 H 0.67742 0.35076 0.71639 0.0
H371 H 0.6886 0.27902 0.90366 0.0
O372 O 0.57004 0.34301 0.8616 0.0
C373 C 0.62859 0.28785 0.96205 0.0
Co374 Co 0.92018 0.64217 0.3744 0.0
Co375 Co 0.86779 0.64437 0.37419 0.0
C376 C 0.89268 0.56923 0.42328 0.0
O377 O 0.91096 0.58715 0.40988 0.0
O378 O 0.87429 0.58725 0.41081 0.0
C379 C 0.96344 0.60863 0.34514 0.0
O380 O 0.95248 0.57358 0.3332 0.0
C381 C 0.82208 0.62604 0.32764 0.0
C382 C 0.80438 0.68271 0.36298 0.0
C383 C 0.80155 0.6458 0.32734 0.0
N384 N 0.83641 0.65049 0.36136 0.0
N385 N 0.82557 0.68399 0.3831 0.0
C386 C 0.82788 0.58421 0.29787 0.0
H387 H 0.84608 0.58098 0.29291 0.0
H388 H 0.81978 0.58017 0.24925 0.0
H389 H 0.82173 0.55872 0.33068 0.0
C390 C 0.91323 0.67194 0.23898 0.0
N391 N 0.90537 0.65575 0.29569 0.0
N392 N 0.8836 0.65557 0.2942 0.0
C393 C 0.87698 0.67111 0.23555 0.0
C394 C 0.89549 0.68242 0.19898 0.0
C395 C 0.93706 0.68262 0.22793 0.0
H396 H 0.9436 0.6998 0.27146 0.0
H397 H 0.94664 0.65291 0.22264 0.0
H398 H 0.93948 0.70227 0.18326 0.0
O399 O 0.91347 0.68421 0.44236 0.0
O400 O 0.87669 0.68673 0.44267 0.0
H401 H 0.84469 0.69701 0.25156 0.0
H402 H 0.85175 0.69021 0.1654 0.0
C403 C 0.85336 0.67655 0.2155 0.0
H404 H 0.84536 0.64517 0.21493 0.0
H405 H 0.83281 0.70846 0.41004 0.0
O406 O 0.95279 0.64153 0.36208 0.0
C407 C 0.89539 0.6987 0.465 0.0
Co408 Co 0.42032 0.34422 0.87452 0.0
Co409 Co 0.36791 0.34152 0.87438 0.0
C410 C 0.39229 0.41759 0.92054 0.0
O411 O 0.4107 0.39974 0.90808 0.0
O412 O 0.37399 0.39907 0.90886 0.0
C413 C 0.46333 0.37588 0.83567 0.0
O414 O 0.45188 0.40819 0.81361 0.0
C415 C 0.32162 0.35905 0.83349 0.0
C416 C 0.30554 0.29874 0.86031 0.0
C417 C 0.3016 0.33746 0.83083 0.0
N418 N 0.33673 0.33379 0.86222 0.0
N419 N 0.32687 0.2981 0.87904 0.0
C420 C 0.32628 0.40336 0.81163 0.0
H421 H 0.33026 0.42282 0.8556 0.0
H422 H 0.34107 0.40397 0.77934 0.0
H423 H 0.3119 0.41755 0.78595 0.0
C424 C 0.4131 0.31307 0.73923 0.0
N425 N 0.40543 0.32953 0.79603 0.0
N426 N 0.38365 0.32997 0.79475 0.0
C427 C 0.37684 0.31451 0.73626 0.0
C428 C 0.39522 0.30283 0.69953 0.0
C429 C 0.43686 0.30218 0.72746 0.0
H430 H 0.44402 0.28785 0.77255 0.0
H431 H 0.44615 0.33158 0.71654 0.0
H432 H 0.43886 0.27993 0.68561 0.0
O433 O 0.41373 0.3028 0.94377 0.0
O434 O 0.37696 0.30024 0.94333 0.0
H435 H 0.3449 0.28666 0.75043 0.0
H436 H 0.35142 0.29806 0.66514 0.0
C437 C 0.35314 0.3093 0.71669 0.0
H438 H 0.34471 0.34015 0.72061 0.0
H439 H 0.33489 0.27269 0.90148 0.0
O440 O 0.45308 0.3452 0.86229 0.0
C441 C 0.39558 0.28847 0.96621 0.0
Co442 Co 0.10383 0.63921 0.37425 0.0
Co443 Co 0.15576 0.64964 0.37618 0.0
C444 C 0.13261 0.57088 0.42567 0.0
O445 O 0.11364 0.58531 0.41069 0.0
O446 O 0.15013 0.59207 0.41408 0.0
C447 C 0.05986 0.60492 0.35299 0.0
O448 O 0.07001 0.56822 0.3515 0.0
C449 C 0.20044 0.63413 0.32238 0.0
C450 C 0.21985 0.68422 0.37151 0.0
C451 C 0.2215 0.65168 0.32606 0.0
N452 N 0.18698 0.65584 0.363 0.0
N453 N 0.19877 0.68543 0.39269 0.0
C454 C 0.1933 0.59617 0.28381 0.0
H455 H 0.18211 0.5764 0.3143 0.0
H456 H 0.18382 0.60639 0.23988 0.0
H457 H 0.20775 0.57718 0.26767 0.0
C458 C 0.11041 0.66305 0.23586 0.0
N459 N 0.11865 0.65198 0.29494 0.0
N460 N 0.14002 0.65976 0.29622 0.0
C461 C 0.14582 0.67822 0.23879 0.0
C462 C 0.12728 0.68061 0.19844 0.0
C463 C 0.08668 0.65765 0.2167 0.0
H464 H 0.07636 0.6804 0.24475 0.0
H465 H 0.08116 0.62529 0.22976 0.0
H466 H 0.08423 0.66268 0.16306 0.0
O467 O 0.10984 0.68301 0.44183 0.0
O468 O 0.14634 0.69171 0.44251 0.0
H469 H 0.17488 0.71028 0.2744 0.0
H470 H 0.16539 0.72797 0.19488 0.0
C471 C 0.16749 0.69994 0.22716 0.0
H472 H 0.17894 0.67781 0.20221 0.0
H473 H 0.19233 0.70701 0.42652 0.0
O474 O 0.07123 0.63833 0.36119 0.0
C475 C 0.12717 0.70083 0.46424 0.0
Co476 Co 0.42032 0.64157 0.13281 0.0
Co477 Co 0.36811 0.64812 0.12873 0.0
C478 C 0.39281 0.57243 0.07641 0.0
O479 O 0.41126 0.58838 0.0929 0.0
O480 O 0.37465 0.59126 0.0892 0.0
C481 C 0.46343 0.60606 0.1571 0.0
O482 O 0.45226 0.57053 0.16077 0.0
C483 C 0.32274 0.63312 0.17949 0.0
C484 C 0.3039 0.68095 0.12361 0.0
C485 C 0.30165 0.64984 0.17117 0.0
N486 N 0.33673 0.65369 0.13897 0.0
N487 N 0.32527 0.68197 0.10538 0.0
C488 C 0.32937 0.59691 0.2226 0.0
H489 H 0.34533 0.58337 0.20571 0.0
H490 H 0.33142 0.60797 0.27405 0.0
H491 H 0.3163 0.57226 0.2223 0.0
C492 C 0.41256 0.66416 0.27097 0.0
N493 N 0.40478 0.65233 0.21171 0.0
N494 N 0.38328 0.65867 0.2096 0.0
C495 C 0.37693 0.67712 0.26656 0.0
C496 C 0.39526 0.68088 0.30751 0.0
C497 C 0.43633 0.66072 0.29081 0.0
H498 H 0.44631 0.68363 0.262 0.0
H499 H 0.44246 0.62853 0.27919 0.0
H500 H 0.43857 0.6668 0.34428 0.0
O501 O 0.41418 0.68597 0.06642 0.0
O502 O 0.37747 0.69081 0.06375 0.0
H503 H 0.34774 0.70773 0.22884 0.0
H504 H 0.35677 0.72687 0.30798 0.0
C505 C 0.35503 0.69829 0.27667 0.0
H506 H 0.34363 0.67625 0.30209 0.0
H507 H 0.33211 0.70251 0.07069 0.0
O508 O 0.45295 0.64032 0.14699 0.0
C509 C 0.39648 0.70206 0.04337 0.0
Co510 Co 0.10356 0.34569 0.62944 0.0
Co511 Co 0.15565 0.33733 0.63008 0.0
C512 C 0.13235 0.4149 0.57886 0.0
O513 O 0.11341 0.39968 0.59223 0.0
O514 O 0.14996 0.39452 0.59219 0.0
C515 C 0.06039 0.3812 0.65489 0.0
O516 O 0.07168 0.41633 0.6625 0.0
C517 C 0.2001 0.35283 0.6858 0.0
C518 C 0.22038 0.3079 0.62846 0.0
C519 C 0.22155 0.33805 0.67787 0.0
N520 N 0.18688 0.33219 0.64314 0.0
N521 N 0.19917 0.30559 0.60878 0.0
C522 C 0.19248 0.38762 0.73027 0.0
H523 H 0.17496 0.39578 0.72006 0.0
H524 H 0.19411 0.37781 0.78246 0.0
H525 H 0.20311 0.41586 0.72312 0.0
C526 C 0.1099 0.32136 0.76832 0.0
N527 N 0.11821 0.33341 0.70973 0.0
N528 N 0.13969 0.32674 0.70922 0.0
C529 C 0.14552 0.30805 0.76638 0.0
C530 C 0.12687 0.30435 0.80598 0.0
C531 C 0.08603 0.32525 0.78677 0.0
H532 H 0.07609 0.30297 0.75667 0.0
H533 H 0.08025 0.35775 0.77581 0.0
H534 H 0.08335 0.31867 0.8399 0.0
O535 O 0.11005 0.30123 0.56276 0.0
O536 O 0.1467 0.29498 0.56406 0.0
H537 H 0.17493 0.27725 0.73063 0.0
H538 H 0.16545 0.25854 0.80952 0.0
C539 C 0.16736 0.28695 0.77796 0.0
H540 H 0.17859 0.30921 0.80362 0.0
H541 H 0.19305 0.28554 0.57222 0.0
O542 O 0.07079 0.34729 0.6415 0.0
C543 C 0.12783 0.28416 0.54194 0.0
C544 C 0.26163 0.1391 0.18828 0.0
C545 C 0.24071 0.14067 0.21841 0.0
C546 C 0.28107 0.13818 0.226 0.0
C547 C 0.28024 0.13939 0.29526 0.0
H548 H 0.26301 0.1402 0.13505 0.0
H549 H 0.29677 0.13936 0.20054 0.0
S550 S 0.22963 0.14305 0.39825 0.0
N551 N 0.22037 0.1427 0.32171 0.0
N552 N 0.25684 0.14087 0.39252 0.0
C553 C 0.25942 0.1396 0.32598 0.0
C554 C 0.23965 0.14019 0.28761 0.0
C555 C 0.26112 0.84441 0.81773 0.0
C556 C 0.24028 0.84333 0.787 0.0
C557 C 0.28072 0.84506 0.7806 0.0
C558 C 0.28016 0.84401 0.71131 0.0
H559 H 0.26231 0.84315 0.87099 0.0
H560 H 0.29633 0.84354 0.80652 0.0
S561 S 0.22986 0.84158 0.60684 0.0
N562 N 0.22032 0.84193 0.68309 0.0
N563 N 0.25705 0.84321 0.61339 0.0
C564 C 0.25942 0.84427 0.68 0.0
C565 C 0.23949 0.84399 0.71778 0.0
C566 C 0.76155 0.8511 0.68761 0.0
C567 C 0.74065 0.84947 0.71801 0.0
C568 C 0.78108 0.85015 0.72493 0.0
C569 C 0.78042 0.84691 0.79404 0.0
H570 H 0.76281 0.85142 0.63433 0.0
H571 H 0.79671 0.84913 0.69905 0.0
S572 S 0.72999 0.84252 0.89781 0.0
N573 N 0.72056 0.84543 0.82159 0.0
N574 N 0.75721 0.84367 0.8916 0.0
C575 C 0.75965 0.8467 0.82516 0.0
C576 C 0.73978 0.84807 0.78723 0.0
C577 C 0.76183 0.13732 0.32184 0.0
C578 C 0.74102 0.13692 0.29107 0.0
C579 C 0.78139 0.13743 0.28456 0.0
C580 C 0.78073 0.13792 0.21524 0.0
H581 H 0.76297 0.13957 0.37503 0.0
H582 H 0.797 0.1402 0.31026 0.0
S583 S 0.73039 0.13651 0.11108 0.0
N584 N 0.72094 0.13622 0.18742 0.0
N585 N 0.75761 0.13648 0.11741 0.0
C586 C 0.76003 0.13605 0.18403 0.0
C587 C 0.74017 0.13551 0.22193 0.0
C588 C 0.74141 0.63192 0.28075 0.0
C589 C 0.74181 0.63752 0.21195 0.0
C590 C 0.76107 0.63174 0.31771 0.0
C591 C 0.78177 0.63646 0.287 0.0
H592 H 0.72579 0.63083 0.30679 0.0
H593 H 0.76003 0.62993 0.37095 0.0
S594 S 0.79171 0.6512 0.10815 0.0
N595 N 0.76458 0.64695 0.11457 0.0
N596 N 0.80144 0.64628 0.18381 0.0
C597 C 0.78241 0.64028 0.21805 0.0
C598 C 0.76243 0.64094 0.18059 0.0
C599 C 0.76197 0.35602 0.68846 0.0
C600 C 0.78258 0.3515 0.7197 0.0
C601 C 0.74224 0.35681 0.7251 0.0
C602 C 0.7425 0.3524 0.79411 0.0
H603 H 0.76103 0.35688 0.63515 0.0
H604 H 0.72667 0.35769 0.69879 0.0
S605 S 0.79214 0.33992 0.89927 0.0
N606 N 0.80204 0.34333 0.82359 0.0
N607 N 0.76504 0.34442 0.89225 0.0
C608 C 0.76304 0.34927 0.82595 0.0
C609 C 0.78309 0.34897 0.78881 0.0
C610 C 0.24095 0.34234 0.7865 0.0
C611 C 0.24151 0.34711 0.7176 0.0
C612 C 0.26053 0.3421 0.82366 0.0
C613 C 0.28127 0.34738 0.79339 0.0
H614 H 0.22549 0.33572 0.81135 0.0
H615 H 0.25953 0.33579 0.87607 0.0
S616 S 0.29148 0.36275 0.61476 0.0
N617 N 0.26433 0.3587 0.62087 0.0
N618 N 0.30108 0.3586 0.69068 0.0
C619 C 0.28193 0.35417 0.72497 0.0
C620 C 0.26205 0.35387 0.68709 0.0
C621 C 0.26228 0.64149 0.31608 0.0
C622 C 0.2414 0.64305 0.28561 0.0
C623 C 0.28182 0.64064 0.2787 0.0
C624 C 0.28117 0.64195 0.20942 0.0
H625 H 0.26354 0.64253 0.36934 0.0
H626 H 0.29747 0.6418 0.30445 0.0
S627 S 0.23074 0.64566 0.10561 0.0
N628 N 0.2213 0.64521 0.18197 0.0
N629 N 0.25794 0.64351 0.1118 0.0
C630 C 0.26038 0.64217 0.17837 0.0
C631 C 0.24051 0.64267 0.21639 0.0
C632 C 0.99954 0.10474 0.04986 0.0
C633 C 0.98748 0.12249 0.10237 0.0
C634 C 0.02267 0.1046 0.04972 0.0
C635 C 0.03485 0.12222 0.10206 0.0
H636 H 0.99109 0.09106 0.00789 0.0
H637 H 0.03102 0.09082 0.00764 0.0
S638 S 0.01135 0.17136 0.25298 0.0
N639 N 0.98954 0.15715 0.20938 0.0
N640 N 0.03306 0.15691 0.20911 0.0
C641 C 0.02306 0.13935 0.1557 0.0
C642 C 0.9994 0.13947 0.15586 0.0
C643 C 0.52267 0.91469 0.6646 0.0
C644 C 0.53466 0.87655 0.66313 0.0
C645 C 0.4995 0.91494 0.66472 0.0
C646 C 0.4873 0.87706 0.66329 0.0
H647 H 0.53121 0.9448 0.66437 0.0
H648 H 0.49114 0.94521 0.66455 0.0
S649 S 0.51064 0.76843 0.66467 0.0
N650 N 0.53249 0.79969 0.66416 0.0
N651 N 0.48899 0.80017 0.6643 0.0
C652 C 0.49905 0.83861 0.66374 0.0
C653 C 0.52268 0.83835 0.66369 0.0
C654 C 0.99917 0.847 0.8443 0.0
C655 C 0.98706 0.88426 0.85619 0.0
C656 C 0.0224 0.84697 0.84449 0.0
C657 C 0.03453 0.88419 0.85662 0.0
H658 H 0.99067 0.81744 0.835 0.0
H659 H 0.03089 0.81739 0.83533 0.0
S660 S 1.01082 0.99022 0.89202 0.0
N661 N 0.98908 0.95947 0.88108 0.0
N662 N 0.03254 0.9594 0.88153 0.0
C663 C 0.02262 0.92178 0.86814 0.0
C664 C 0.99898 0.92181 0.8679 0.0
C665 C 0.52322 0.07458 0.34278 0.0
C666 C 0.53489 0.11308 0.34248 0.0
C667 C 0.50005 0.07363 0.34447 0.0
C668 C 0.48752 0.11113 0.34576 0.0
H669 H 0.53201 0.04476 0.34319 0.0
H670 H 0.49196 0.04309 0.34593 0.0
S671 S 0.51002 0.22043 0.34003 0.0
N672 N 0.5321 0.18981 0.33971 0.0
N673 N 0.48863 0.18808 0.34271 0.0
C674 C 0.49897 0.14993 0.34341 0.0
C675 C 0.5226 0.15089 0.34183 0.0
C676 C 0.49973 0.64439 0.15436 0.0
C677 C 0.48799 0.60627 0.16225 0.0
C678 C 0.52291 0.64538 0.1556 0.0
C679 C 0.53541 0.60833 0.16508 0.0
H680 H 0.491 0.67382 0.14623 0.0
H681 H 0.53107 0.67553 0.14852 0.0
S682 S 0.5128 0.5003 0.19028 0.0
N683 N 0.49075 0.53048 0.18154 0.0
N684 N 0.53421 0.53238 0.18397 0.0
C685 C 0.5239 0.57007 0.1744 0.0
C686 C 0.50026 0.56902 0.17294 0.0
C687 C 0.02388 0.34391 0.64591 0.0
C688 C 0.03582 0.38098 0.66043 0.0
C689 C 1.00069 0.34314 0.64787 0.0
C690 C 0.98838 0.37938 0.66458 0.0
H691 H 0.03245 0.31521 0.63192 0.0
H692 H 0.99239 0.31388 0.63531 0.0
S693 S 0.01163 0.48409 0.71062 0.0
N694 N 0.0335 0.45459 0.69484 0.0
N695 N 0.99004 0.45314 0.69857 0.0
C696 C 1.00012 0.41646 0.68077 0.0
C697 C 0.02376 0.41726 0.67867 0.0
C698 C 0.49994 0.34248 0.86165 0.0
C699 C 0.48795 0.3755 0.83183 0.0
C700 C 0.52313 0.342 0.86143 0.0
C701 C 0.53543 0.37452 0.83136 0.0
H702 H 0.49139 0.31689 0.88632 0.0
H703 H 0.53144 0.31607 0.88594 0.0
S704 S 0.51213 0.46712 0.74269 0.0
N705 N 0.49025 0.4408 0.76876 0.0
N706 N 0.53375 0.43989 0.76829 0.0
C707 C 0.52368 0.4073 0.8 0.0
C708 C 0.50001 0.40779 0.80025 0.0
C709 C 0.99971 0.57055 0.34091 0.0
C710 C 0.988 0.60896 0.34309 0.0
C711 C 0.02288 0.56966 0.34308 0.0
C712 C 0.03536 0.60715 0.34729 0.0
H713 H 0.99095 0.54071 0.33895 0.0
H714 H 0.03101 0.53916 0.34244 0.0
S715 S 0.01273 0.7164 0.34908 0.0
N716 N 0.99069 0.6857 0.34601 0.0
N717 N 0.03415 0.68411 0.34988 0.0
C718 C 0.02387 0.64592 0.34753 0.0
C719 C 1.00024 0.6468 0.3455 0.0
C720 C 0.15086 0.01385 0.01464 0.0
C721 C 0.13189 0.02765 0.04879 0.0
C722 C 0.15051 0.97684 0.97623 0.0
C723 C 0.13114 0.95247 0.97022 0.0
H724 H 0.16596 0.03225 0.0162 0.0
H725 H 0.1654 0.96769 0.95024 0.0
S726 S 0.07762 0.97251 0.05512 0.0
N727 N 0.09368 0.01201 0.0779 0.0
N728 N 0.09294 0.94324 0.00582 0.0
C729 C 0.11227 0.96528 0.00582 0.0
C730 C 0.11268 0.00259 0.0451 0.0
C731 C 0.37223 0.97009 0.51181 0.0
C732 C 0.39125 0.95674 0.54599 0.0
C733 C 0.37254 0.00646 0.4721 0.0
C734 C 0.3919 0.03076 0.46478 0.0
H735 H 0.35709 0.9519 0.51459 0.0
H736 H 0.35751 0.01539 0.44665 0.0
S737 S 0.44577 0.01119 0.54782 0.0
N738 N 0.42966 0.9723 0.5727 0.0
N739 N 0.43033 0.03988 0.49806 0.0
C740 C 0.41092 0.01814 0.49973 0.0
C741 C 0.41056 0.98143 0.54038 0.0
C742 C 0.90946 0.97564 0.98184 0.0
C743 C 0.88962 0.95553 0.96368 0.0
C744 C 0.9095 0.01154 0.02197 0.0
C745 C 0.88968 0.02922 0.04578 0.0
H746 H 0.92526 0.96348 0.96537 0.0
H747 H 0.92532 0.02574 0.03371 0.0
S748 S 0.83306 0.98864 0.01341 0.0
N749 N 0.84946 0.9559 0.97315 0.0
N750 N 0.84954 0.0236 0.04855 0.0
C751 C 0.86964 0.00949 0.02821 0.0
C752 C 0.8696 0.97274 0.98713 0.0
C753 C 0.64862 0.01192 0.48071 0.0
C754 C 0.62877 0.03194 0.46212 0.0
C755 C 0.64858 0.97554 0.52014 0.0
C756 C 0.6287 0.95747 0.54265 0.0
H757 H 0.66443 0.02456 0.46517 0.0
H758 H 0.66434 0.96132 0.53246 0.0
S759 S 0.57204 -0.00248 0.50808 0.0
N760 N 0.58857 0.03077 0.46948 0.0
N761 N 0.58849 0.96266 0.54333 0.0
C762 C 0.60868 0.97718 0.52448 0.0
C763 C 0.60872 0.01422 0.48427 0.0
C764 C 0.64903 0.51505 0.01626 0.0
C765 C 0.62936 0.53143 0.04314 0.0
C766 C 0.6489 0.47882 0.97647 0.0
C767 C 0.6291 0.45729 0.96187 0.0
H768 H 0.6647 0.53059 0.02522 0.0
H769 H 0.66455 0.46756 0.95733 0.0
S770 S 0.57298 0.48653 0.0214 0.0
N771 N 0.58947 0.5227 0.05323 0.0
N772 N 0.58921 0.45494 0.97844 0.0
C773 C 0.60928 0.47322 0.98867 0.0
C774 C 0.60942 0.51008 0.02934 0.0
C775 C 0.87373 0.47622 0.52805 0.0
C776 C 0.89362 0.45507 0.54264 0.0
C777 C 0.87345 0.51232 0.48786 0.0
C778 C 0.89305 0.52873 0.46044 0.0
H779 H 0.85818 0.46488 0.54777 0.0
H780 H 0.85775 0.52776 0.4791 0.0
S781 S 0.94954 0.48418 0.48108 0.0
N782 N 0.93347 0.45282 0.52484 0.0
N783 N 0.93291 0.52006 0.44933 0.0
C784 C 0.91304 0.50752 0.47392 0.0
C785 C 0.91334 0.47097 0.51506 0.0
C786 C 0.37292 0.47421 0.98538 0.0
C787 C 0.39239 0.45877 0.95575 0.0
C788 C 0.37315 0.51074 0.02471 0.0
C789 C 0.39287 0.53316 0.0362 0.0
H790 H 0.35741 0.45752 0.97939 0.0
H791 H 0.35778 0.52118 0.04676 0.0
S792 S 0.44812 0.50796 0.96546 0.0
N793 N 0.43171 0.4704 0.93745 0.0
N794 N 0.43224 0.53847 0.01128 0.0
C795 C 0.41238 0.51859 0.0055 0.0
C796 C 0.4121 0.48164 0.96526 0.0
C797 C 0.11381 0.51027 0.48063 0.0
C798 C 0.13368 0.5304 0.46271 0.0
C799 C 0.1137 0.4738 0.51926 0.0
C800 C 0.13347 0.4553 0.54165 0.0
H801 H 0.09798 0.52292 0.46533 0.0
H802 H 0.09782 0.45987 0.53101 0.0
S803 S 0.1902 0.49513 0.5086 0.0
N804 N 0.17385 0.52901 0.47047 0.0
N805 N 0.17367 0.45992 0.54295 0.0
C806 C 0.15358 0.47486 0.5241 0.0
C807 C 0.15368 0.5124 0.48466 0.0
C808 C 0.13999 0.28759 0.91961 0.0
C809 C 0.12511 0.27978 0.8678 0.0
C810 C 0.14017 0.26204 0.97605 0.0
C811 C 0.1252 0.22831 0.98293 0.0
H812 H 0.15189 0.31308 0.9158 0.0
H813 H 0.15223 0.26845 0.01426 0.0
S814 S 0.0838 0.19322 0.85971 0.0
N815 N 0.09594 0.23443 0.82533 0.0
N816 N 0.09544 0.18787 0.93281 0.0
C817 C 0.10998 0.22065 0.93198 0.0
C818 C 0.11014 0.24603 0.87398 0.0
C819 C 0.38169 0.72354 0.47738 0.0
C820 C 0.39671 0.75719 0.48432 0.0
C821 C 0.38179 0.69808 0.42076 0.0
C822 C 0.39666 0.70592 0.36894 0.0
H823 H 0.3697 0.71705 0.51576 0.0
H824 H 0.36993 0.67252 0.41697 0.0
S825 S 0.43774 0.79286 0.3604 0.0
N826 N 0.42625 0.79799 0.43377 0.0
N827 N 0.42561 0.75161 0.32609 0.0
C828 C 0.41153 0.73983 0.37496 0.0
C829 C 0.41177 0.7651 0.43306 0.0
C830 C 0.13998 0.72194 0.02721 0.0
C831 C 0.12447 0.7547 0.01953 0.0
C832 C 0.14027 0.69706 0.08441 0.0
C833 C 0.12531 0.70458 0.13612 0.0
H834 H 0.15214 0.71588 0.98914 0.0
H835 H 0.15257 0.67232 0.08884 0.0
S836 S 0.08274 0.78889 0.14246 0.0
N837 N 0.0942 0.79406 0.06907 0.0
N838 N 0.09552 0.74874 0.1777 0.0
C839 C 0.10983 0.73737 0.12916 0.0
C840 C 0.10921 0.76207 0.07049 0.0
C841 C 0.4072 0.28841 0.58348 0.0
C842 C 0.39542 0.27597 0.64001 0.0
C843 C 0.40712 0.26322 0.52643 0.0
C844 C 0.3949 0.22545 0.52428 0.0
H845 H 0.41637 0.31783 0.58334 0.0
H846 H 0.41631 0.27362 0.48355 0.0
S847 S 0.36364 0.1767 0.66174 0.0
N848 N 0.37332 0.22133 0.69251 0.0
N849 N 0.37216 0.1753 0.58446 0.0
C850 C 0.38349 0.21237 0.5809 0.0
C851 C 0.38402 0.23732 0.63911 0.0
C852 C 0.90746 0.69677 0.08285 0.0
C853 C 0.89593 0.7095 0.13972 0.0
C854 C 0.90754 0.72214 0.02599 0.0
C855 C 0.89574 0.76038 0.02442 0.0
H856 H 0.91628 0.66697 0.08226 0.0
H857 H 0.91647 0.71148 0.98278 0.0
S858 S 0.86521 0.80983 0.16273 0.0
N859 N 0.87449 0.76478 0.19303 0.0
N860 N 0.87363 0.81118 0.08535 0.0
C861 C 0.88461 0.77374 0.08137 0.0
C862 C 0.88498 0.7486 0.13937 0.0
C863 C 0.64276 0.22304 0.57065 0.0
C864 C 0.62843 0.23166 0.51788 0.0
C865 C 0.64248 0.24787 0.62763 0.0
C866 C 0.62838 0.28302 0.63307 0.0
H867 H 0.65372 0.19597 0.56892 0.0
H868 H 0.65315 0.23899 0.66821 0.0
S869 S 0.58871 0.32057 0.50689 0.0
N870 N 0.60003 0.27804 0.47375 0.0
N871 N 0.60042 0.32632 0.57993 0.0
C872 C 0.61435 0.29264 0.58004 0.0
C873 C 0.6142 0.26662 0.52256 0.0
C874 C 0.90791 0.26281 0.98151 0.0
C875 C 0.89562 0.22511 0.9829 0.0
C876 C 0.90812 0.28837 0.92485 0.0
C877 C 0.89642 0.27635 0.86794 0.0
H878 H 0.91701 0.27293 0.02473 0.0
H879 H 0.9173 0.31778 0.92564 0.0
S880 S 0.86448 0.1774 0.84432 0.0
N881 N 0.87289 0.17548 0.92168 0.0
N882 N 0.87432 0.22212 0.81431 0.0
C883 C 0.88499 0.2377 0.86807 0.0
C884 C 0.88431 0.21242 0.9259 0.0
C885 C 0.64073 0.76789 0.43094 0.0
C886 C 0.62705 0.75855 0.48496 0.0
C887 C 0.64034 0.74297 0.37414 0.0
C888 C 0.62682 0.70692 0.37002 0.0
H889 H 0.65141 0.79539 0.43188 0.0
H890 H 0.65061 0.75224 0.33285 0.0
S891 S 0.58848 0.66799 0.49896 0.0
N892 N 0.5995 0.71114 0.53114 0.0
N893 N 0.59973 0.66256 0.42519 0.0
C894 C 0.6132 0.69691 0.42392 0.0
C895 C 0.61313 0.7231 0.48129 0.0
C896 C 0.61166 0.72607 0.93634 0.0
C897 C 0.62754 0.73151 0.98625 0.0
C898 C 0.61203 0.7509 0.87934 0.0
C899 C 0.6279 0.78291 0.87091 0.0
H900 H 0.59934 0.70133 0.94015 0.0
H901 H 0.60015 0.74411 0.84086 0.0
S902 S 0.67201 0.81211 0.98941 0.0
N903 N 0.65917 0.77197 0.02473 0.0
N904 N 0.65912 0.82033 0.91879 0.0
C905 C 0.64346 0.78958 0.92133 0.0
C906 C 0.64344 0.76352 0.97877 0.0
C907 C 0.88168 0.19885 0.42243 0.0
C908 C 0.89633 0.20684 0.37002 0.0
C909 C 0.88175 0.22426 0.4792 0.0
C910 C 0.89676 0.25793 0.48566 0.0
H911 H 0.86991 0.17312 0.41907 0.0
H912 H 0.87002 0.21754 0.5182 0.0
S913 S 0.93701 0.29437 0.35997 0.0
N914 N 0.92487 0.25301 0.32605 0.0
N915 N 0.92586 0.29923 0.43383 0.0
C916 C 0.91149 0.26616 0.43363 0.0
C917 C 0.91107 0.24097 0.37547 0.0
C918 C 0.61593 0.19879 0.08145 0.0
C919 C 0.62892 0.20963 0.13638 0.0
C920 C 0.61602 0.22396 0.02443 0.0
C921 C 0.62947 0.26015 0.0203 0.0
H922 H 0.60559 0.17083 0.08276 0.0
H923 H 0.60561 0.21501 0.98329 0.0
S924 S 0.66486 0.3041 0.15283 0.0
N925 N 0.65401 0.26093 0.1851 0.0
N926 N 0.65517 0.30673 0.07688 0.0
C927 C 0.64245 0.2713 0.07497 0.0
C928 C 0.6419 0.24642 0.13337 0.0
C929 C 0.88144 0.76086 0.52919 0.0
C930 C 0.89625 0.72687 0.52286 0.0
C931 C 0.88168 0.78664 0.58554 0.0
C932 C 0.89645 0.77873 0.6377 0.0
H933 H 0.86964 0.76755 0.4904 0.0
H934 H 0.87003 0.81255 0.58885 0.0
S935 S 0.93679 0.69069 0.64785 0.0
N936 N 0.92536 0.6855 0.57442 0.0
N937 N 0.92494 0.73244 0.6815 0.0
C938 C 0.91102 0.74435 0.63233 0.0
C939 C 0.91112 0.71877 0.57456 0.0
C940 C 0.38127 0.22643 0.02952 0.0
C941 C 0.39611 0.26047 0.02411 0.0
C942 C 0.38107 0.20079 0.08594 0.0
C943 C 0.39541 0.20891 0.13899 0.0
H944 H 0.36982 0.21955 0.98987 0.0
H945 H 0.3695 0.17468 0.08839 0.0
S946 S 0.4354 0.29746 0.15198 0.0
N947 N 0.42462 0.30234 0.07764 0.0
N948 N 0.42336 0.25568 0.18492 0.0
C949 C 0.4099 0.24352 0.13472 0.0
C950 C 0.41047 0.26893 0.07688 0.0
C951 C 0.13966 0.78929 0.58476 0.0
C952 C 0.12466 0.7813 0.63623 0.0
C953 C 0.14005 0.76377 0.52821 0.0
C954 C 0.12521 0.72985 0.52091 0.0
H955 H 0.15149 0.81486 0.58897 0.0
H956 H 0.1522 0.77033 0.49032 0.0
S957 S 0.08362 0.69424 0.6433 0.0
N958 N 0.09553 0.73561 0.67794 0.0
N959 N 0.09547 0.68904 0.57045 0.0
C960 C 0.10989 0.72202 0.57156 0.0
C961 C 0.10981 0.7474 0.6296 0.0
C962 C 0.38204 0.78841 0.92156 0.0
C963 C 0.39665 0.78023 0.86925 0.0
C964 C 0.38248 0.76377 0.979 0.0
C965 C 0.3978 0.73067 0.98625 0.0
H966 H 0.36998 0.81359 0.91757 0.0
H967 H 0.37061 0.77035 0.01767 0.0
S968 S 0.43838 0.69443 0.86143 0.0
N969 N 0.42574 0.73482 0.82642 0.0
N970 N 0.42736 0.69001 0.93554 0.0
C971 C 0.41264 0.72249 0.93453 0.0
C972 C 0.41185 0.74689 0.87563 0.0
C973 C 0.1108 0.23456 0.38015 0.0
C974 C 0.12692 0.20314 0.37057 0.0
C975 C 0.11057 0.25924 0.43745 0.0
C976 C 0.12676 0.254 0.4865 0.0
H977 H 0.09877 0.2413 0.34208 0.0
H978 H 0.09825 0.28394 0.44182 0.0
S979 S 0.17133 0.17346 0.4876 0.0
N980 N 0.15825 0.16558 0.41719 0.0
N981 N 0.15849 0.21329 0.52379 0.0
C982 C 0.14259 0.22186 0.47841 0.0
C983 C 0.14251 0.19615 0.42065 0.0
loop_
_geom_bond_atom_site_label_1
_geom_bond_atom_site_label_2
_geom_bond_distance
_geom_bond_site_symmetry_2
_ccdc_geom_bond_type
Co0 O3 1.970 . S
Co0 N17 1.989 . S
Co0 O25 1.967 . S
Co0 O32 1.920 . S
Co1 O4 1.966 . S
Co1 N10 2.022 . S
Co1 N18 1.993 . S
Co1 O26 1.941 . S
C2 O3 1.258 . S
C2 O4 1.263 . S
O3 Co0 1.970 . S
O3 C2 1.258 . S
O4 Co1 1.966 . S
O4 C2 1.263 . S
C5 O6 1.235 . S
C5 O32 1.289 . S
O6 C5 1.235 . S
C7 C9 1.400 . S
C7 N10 1.351 . S
C7 C12 1.501 . S
C8 C9 1.387 . S
C8 N11 1.341 . S
C9 C7 1.400 . S
C9 C8 1.387 . S
N10 Co1 2.022 . S
N10 C7 1.351 . S
N10 N11 1.365 . S
N11 C8 1.341 . S
N11 N10 1.365 . S
N11 H31 0.862 . S
C12 C7 1.501 . S
C12 H13 0.961 . S
C12 H14 0.961 . S
C12 H15 0.960 . S
H13 C12 0.961 . S
H14 C12 0.961 . S
H15 C12 0.960 . S
C16 N17 1.342 . S
C16 C20 1.401 . S
C16 C21 1.499 . S
N17 Co0 1.989 . S
N17 C16 1.342 . S
N17 N18 1.388 . S
N18 Co1 1.993 . S
N18 N17 1.388 . S
N18 C19 1.346 . S
C19 N18 1.346 . S
C19 C20 1.396 . S
C19 C29 1.510 . S
C20 C16 1.401 . S
C20 C19 1.396 . S
C21 C16 1.499 . S
C21 H22 0.959 . S
C21 H23 0.960 . S
C21 H24 0.961 . S
H22 C21 0.959 . S
H23 C21 0.960 . S
H24 C21 0.961 . S
O25 Co0 1.967 . S
O25 C33 1.258 . S
O26 Co1 1.941 . S
O26 C33 1.266 . S
H27 C29 0.959 . S
H28 C29 0.961 . S
C29 C19 1.510 . S
C29 H27 0.959 . S
C29 H28 0.961 . S
C29 H30 0.960 . S
H30 C29 0.960 . S
H31 N11 0.862 . S
O32 Co0 1.920 . S
O32 C5 1.289 . S
C33 O25 1.258 . S
C33 O26 1.266 . S
Co34 O37 1.970 . S
Co34 N51 1.989 . S
Co34 O59 1.967 . S
Co34 O66 1.920 . S
Co35 O38 1.966 . S
Co35 N44 2.022 . S
Co35 N52 1.993 . S
Co35 O60 1.941 . S
C36 O37 1.258 . S
C36 O38 1.263 . S
O37 Co34 1.970 . S
O37 C36 1.258 . S
O38 Co35 1.966 . S
O38 C36 1.263 . S
C39 O40 1.235 . S
C39 O66 1.289 . S
O40 C39 1.235 . S
C41 C43 1.400 . S
C41 N44 1.351 . S
C41 C46 1.501 . S
C42 C43 1.387 . S
C42 N45 1.341 . S
C43 C41 1.400 . S
C43 C42 1.387 . S
N44 Co35 2.022 . S
N44 C41 1.351 . S
N44 N45 1.365 . S
N45 C42 1.341 . S
N45 N44 1.365 . S
N45 H65 0.862 . S
C46 C41 1.501 . S
C46 H47 0.961 . S
C46 H48 0.961 . S
C46 H49 0.960 . S
H47 C46 0.961 . S
H48 C46 0.961 . S
H49 C46 0.960 . S
C50 N51 1.342 . S
C50 C54 1.401 . S
C50 C55 1.499 . S
N51 Co34 1.989 . S
N51 C50 1.342 . S
N51 N52 1.388 . S
N52 Co35 1.993 . S
N52 N51 1.388 . S
N52 C53 1.346 . S
C53 N52 1.346 . S
C53 C54 1.396 . S
C53 C63 1.510 . S
C54 C50 1.401 . S
C54 C53 1.396 . S
C55 C50 1.499 . S
C55 H56 0.959 . S
C55 H57 0.960 . S
C55 H58 0.961 . S
H56 C55 0.959 . S
H57 C55 0.960 . S
H58 C55 0.961 . S
O59 Co34 1.967 . S
O59 C67 1.258 . S
O60 Co35 1.941 . S
O60 C67 1.266 . S
H61 C63 0.959 . S
H62 C63 0.961 . S
C63 C53 1.510 . S
C63 H61 0.959 . S
C63 H62 0.961 . S
C63 H64 0.960 . S
H64 C63 0.960 . S
H65 N45 0.862 . S
O66 Co34 1.920 . S
O66 C39 1.289 . S
C67 O59 1.258 . S
C67 O60 1.266 . S
Co68 O71 1.970 . S
Co68 N85 1.989 . S
Co68 O93 1.967 . S
Co68 O100 1.920 . S
Co69 O72 1.966 . S
Co69 N78 2.022 . S
Co69 N86 1.993 . S
Co69 O94 1.941 . S
C70 O71 1.258 . S
C70 O72 1.263 . S
O71 Co68 1.970 . S
O71 C70 1.258 . S
O72 Co69 1.966 . S
O72 C70 1.263 . S
C73 O74 1.235 . S
C73 O100 1.289 . S
O74 C73 1.235 . S
C75 C77 1.400 . S
C75 N78 1.351 . S
C75 C80 1.501 . S
C76 C77 1.387 . S
C76 N79 1.341 . S
C77 C75 1.400 . S
C77 C76 1.387 . S
N78 Co69 2.022 . S
N78 C75 1.351 . S
N78 N79 1.365 . S
N79 C76 1.341 . S
N79 N78 1.365 . S
N79 H99 0.862 . S
C80 C75 1.501 . S
C80 H81 0.961 . S
C80 H82 0.961 . S
C80 H83 0.960 . S
H81 C80 0.961 . S
H82 C80 0.961 . S
H83 C80 0.960 . S
C84 N85 1.342 . S
C84 C88 1.401 . S
C84 C89 1.499 . S
N85 Co68 1.989 . S
N85 C84 1.342 . S
N85 N86 1.388 . S
N86 Co69 1.993 . S
N86 N85 1.388 . S
N86 C87 1.346 . S
C87 N86 1.346 . S
C87 C88 1.396 . S
C87 C97 1.510 . S
C88 C84 1.401 . S
C88 C87 1.396 . S
C89 C84 1.499 . S
C89 H90 0.959 . S
C89 H91 0.960 . S
C89 H92 0.961 . S
H90 C89 0.959 . S
H91 C89 0.960 . S
H92 C89 0.961 . S
O93 Co68 1.967 . S
O93 C101 1.258 . S
O94 Co69 1.941 . S
O94 C101 1.266 . S
H95 C97 0.959 . S
H96 C97 0.961 . S
C97 C87 1.510 . S
C97 H95 0.959 . S
C97 H96 0.961 . S
C97 H98 0.960 . S
H98 C97 0.960 . S
H99 N79 0.862 . S
O100 Co68 1.920 . S
O100 C73 1.289 . S
C101 O93 1.258 . S
C101 O94 1.266 . S
Co102 O105 1.970 . S
Co102 N119 1.989 . S
Co102 O127 1.967 . S
Co102 O134 1.920 . S
Co103 O106 1.966 . S
Co103 N112 2.022 . S
Co103 N120 1.993 . S
Co103 O128 1.941 . S
C104 O105 1.258 . S
C104 O106 1.263 . S
O105 Co102 1.970 . S
O105 C104 1.258 . S
O106 Co103 1.966 . S
O106 C104 1.263 . S
C107 O108 1.235 . S
C107 O134 1.289 . S
O108 C107 1.235 . S
C109 C111 1.400 . S
C109 N112 1.351 . S
C109 C114 1.501 . S
C110 C111 1.387 . S
C110 N113 1.341 . S
C111 C109 1.400 . S
C111 C110 1.387 . S
N112 Co103 2.022 . S
N112 C109 1.351 . S
N112 N113 1.365 . S
N113 C110 1.341 . S
N113 N112 1.365 . S
N113 H133 0.862 . S
C114 C109 1.501 . S
C114 H115 0.961 . S
C114 H116 0.961 . S
C114 H117 0.960 . S
H115 C114 0.961 . S
H116 C114 0.961 . S
H117 C114 0.960 . S
C118 N119 1.342 . S
C118 C122 1.401 . S
C118 C123 1.499 . S
N119 Co102 1.989 . S
N119 C118 1.342 . S
N119 N120 1.388 . S
N120 Co103 1.993 . S
N120 N119 1.388 . S
N120 C121 1.346 . S
C121 N120 1.346 . S
C121 C122 1.396 . S
C121 C131 1.510 . S
C122 C118 1.401 . S
C122 C121 1.396 . S
C123 C118 1.499 . S
C123 H124 0.959 . S
C123 H125 0.960 . S
C123 H126 0.961 . S
H124 C123 0.959 . S
H125 C123 0.960 . S
H126 C123 0.961 . S
O127 Co102 1.967 . S
O127 C135 1.258 . S
O128 Co103 1.941 . S
O128 C135 1.266 . S
H129 C131 0.959 . S
H130 C131 0.961 . S
C131 C121 1.510 . S
C131 H129 0.959 . S
C131 H130 0.961 . S
C131 H132 0.960 . S
H132 C131 0.960 . S
H133 N113 0.862 . S
O134 Co102 1.920 . S
O134 C107 1.289 . S
C135 O127 1.258 . S
C135 O128 1.266 . S
Co136 O139 1.970 . S
Co136 N153 1.989 . S
Co136 O161 1.967 . S
Co136 O168 1.920 . S
Co137 O140 1.966 . S
Co137 N146 2.022 . S
Co137 N154 1.993 . S
Co137 O162 1.941 . S
C138 O139 1.258 . S
C138 O140 1.263 . S
O139 Co136 1.970 . S
O139 C138 1.258 . S
O140 Co137 1.966 . S
O140 C138 1.263 . S
C141 O142 1.235 . S
C141 O168 1.289 . S
O142 C141 1.235 . S
C143 C145 1.400 . S
C143 N146 1.351 . S
C143 C148 1.501 . S
C144 C145 1.387 . S
C144 N147 1.341 . S
C145 C143 1.400 . S
C145 C144 1.387 . S
N146 Co137 2.022 . S
N146 C143 1.351 . S
N146 N147 1.365 . S
N147 C144 1.341 . S
N147 N146 1.365 . S
N147 H167 0.862 . S
C148 C143 1.501 . S
C148 H149 0.961 . S
C148 H150 0.961 . S
C148 H151 0.960 . S
H149 C148 0.961 . S
H150 C148 0.961 . S
H151 C148 0.960 . S
C152 N153 1.342 . S
C152 C156 1.401 . S
C152 C157 1.499 . S
N153 Co136 1.989 . S
N153 C152 1.342 . S
N153 N154 1.388 . S
N154 Co137 1.993 . S
N154 N153 1.388 . S
N154 C155 1.346 . S
C155 N154 1.346 . S
C155 C156 1.396 . S
C155 C165 1.510 . S
C156 C152 1.401 . S
C156 C155 1.396 . S
C157 C152 1.499 . S
C157 H158 0.959 . S
C157 H159 0.960 . S
C157 H160 0.961 . S
H158 C157 0.959 . S
H159 C157 0.960 . S
H160 C157 0.961 . S
O161 Co136 1.967 . S
O161 C169 1.258 . S
O162 Co137 1.941 . S
O162 C169 1.266 . S
H163 C165 0.959 . S
H164 C165 0.961 . S
C165 C155 1.510 . S
C165 H163 0.959 . S
C165 H164 0.961 . S
C165 H166 0.960 . S
H166 C165 0.960 . S
H167 N147 0.862 . S
O168 Co136 1.920 . S
O168 C141 1.289 . S
C169 O161 1.258 . S
C169 O162 1.266 . S
Co170 O173 1.970 . S
Co170 N187 1.989 . S
Co170 O195 1.967 . S
Co170 O202 1.920 . S
Co171 O174 1.966 . S
Co171 N180 2.022 . S
Co171 N188 1.993 . S
Co171 O196 1.941 . S
C172 O173 1.258 . S
C172 O174 1.263 . S
O173 Co170 1.970 . S
O173 C172 1.258 . S
O174 Co171 1.966 . S
O174 C172 1.263 . S
C175 O176 1.235 . S
C175 O202 1.289 . S
O176 C175 1.235 . S
C177 C179 1.400 . S
C177 N180 1.351 . S
C177 C182 1.501 . S
C178 C179 1.387 . S
C178 N181 1.341 . S
C179 C177 1.400 . S
C179 C178 1.387 . S
N180 Co171 2.022 . S
N180 C177 1.351 . S
N180 N181 1.365 . S
N181 C178 1.341 . S
N181 N180 1.365 . S
N181 H201 0.862 . S
C182 C177 1.501 . S
C182 H183 0.961 . S
C182 H184 0.961 . S
C182 H185 0.960 . S
H183 C182 0.961 . S
H184 C182 0.961 . S
H185 C182 0.960 . S
C186 N187 1.342 . S
C186 C190 1.401 . S
C186 C191 1.499 . S
N187 Co170 1.989 . S
N187 C186 1.342 . S
N187 N188 1.388 . S
N188 Co171 1.993 . S
N188 N187 1.388 . S
N188 C189 1.346 . S
C189 N188 1.346 . S
C189 C190 1.396 . S
C189 C199 1.510 . S
C190 C186 1.401 . S
C190 C189 1.396 . S
C191 C186 1.499 . S
C191 H192 0.959 . S
C191 H193 0.960 . S
C191 H194 0.961 . S
H192 C191 0.959 . S
H193 C191 0.960 . S
H194 C191 0.961 . S
O195 Co170 1.967 . S
O195 C203 1.258 . S
O196 Co171 1.941 . S
O196 C203 1.266 . S
H197 C199 0.959 . S
H198 C199 0.961 . S
C199 C189 1.510 . S
C199 H197 0.959 . S
C199 H198 0.961 . S
C199 H200 0.960 . S
H200 C199 0.960 . S
H201 N181 0.862 . S
O202 Co170 1.920 . S
O202 C175 1.289 . S
C203 O195 1.258 . S
C203 O196 1.266 . S
Co204 O207 1.970 . S
Co204 N221 1.989 . S
Co204 O229 1.967 . S
Co204 O236 1.920 . S
Co205 O208 1.966 . S
Co205 N214 2.022 . S
Co205 N222 1.993 . S
Co205 O230 1.941 . S
C206 O207 1.258 . S
C206 O208 1.263 . S
O207 Co204 1.970 . S
O207 C206 1.258 . S
O208 Co205 1.966 . S
O208 C206 1.263 . S
C209 O210 1.235 . S
C209 O236 1.289 . S
O210 C209 1.235 . S
C211 C213 1.400 . S
C211 N214 1.351 . S
C211 C216 1.501 . S
C212 C213 1.387 . S
C212 N215 1.341 . S
C213 C211 1.400 . S
C213 C212 1.387 . S
N214 Co205 2.022 . S
N214 C211 1.351 . S
N214 N215 1.365 . S
N215 C212 1.341 . S
N215 N214 1.365 . S
N215 H235 0.862 . S
C216 C211 1.501 . S
C216 H217 0.961 . S
C216 H218 0.961 . S
C216 H219 0.960 . S
H217 C216 0.961 . S
H218 C216 0.961 . S
H219 C216 0.960 . S
C220 N221 1.342 . S
C220 C224 1.401 . S
C220 C225 1.499 . S
N221 Co204 1.989 . S
N221 C220 1.342 . S
N221 N222 1.388 . S
N222 Co205 1.993 . S
N222 N221 1.388 . S
N222 C223 1.346 . S
C223 N222 1.346 . S
C223 C224 1.396 . S
C223 C233 1.510 . S
C224 C220 1.401 . S
C224 C223 1.396 . S
C225 C220 1.499 . S
C225 H226 0.959 . S
C225 H227 0.960 . S
C225 H228 0.961 . S
H226 C225 0.959 . S
H227 C225 0.960 . S
H228 C225 0.961 . S
O229 Co204 1.967 . S
O229 C237 1.258 . S
O230 Co205 1.941 . S
O230 C237 1.266 . S
H231 C233 0.959 . S
H232 C233 0.961 . S
C233 C223 1.510 . S
C233 H231 0.959 . S
C233 H232 0.961 . S
C233 H234 0.960 . S
H234 C233 0.960 . S
H235 N215 0.862 . S
O236 Co204 1.920 . S
O236 C209 1.289 . S
C237 O229 1.258 . S
C237 O230 1.266 . S
Co238 O241 1.970 . S
Co238 N255 1.989 . S
Co238 O263 1.967 . S
Co238 O270 1.920 . S
Co239 O242 1.966 . S
Co239 N248 2.022 . S
Co239 N256 1.993 . S
Co239 O264 1.941 . S
C240 O241 1.258 . S
C240 O242 1.263 . S
O241 Co238 1.970 . S
O241 C240 1.258 . S
O242 Co239 1.966 . S
O242 C240 1.263 . S
C243 O244 1.235 . S
C243 O270 1.289 . S
O244 C243 1.235 . S
C245 C247 1.400 . S
C245 N248 1.351 . S
C245 C250 1.501 . S
C246 C247 1.387 . S
C246 N249 1.341 . S
C247 C245 1.400 . S
C247 C246 1.387 . S
N248 Co239 2.022 . S
N248 C245 1.351 . S
N248 N249 1.365 . S
N249 C246 1.341 . S
N249 N248 1.365 . S
N249 H269 0.862 . S
C250 C245 1.501 . S
C250 H251 0.961 . S
C250 H252 0.961 . S
C250 H253 0.960 . S
H251 C250 0.961 . S
H252 C250 0.961 . S
H253 C250 0.960 . S
C254 N255 1.342 . S
C254 C258 1.401 . S
C254 C259 1.499 . S
N255 Co238 1.989 . S
N255 C254 1.342 . S
N255 N256 1.388 . S
N256 Co239 1.993 . S
N256 N255 1.388 . S
N256 C257 1.346 . S
C257 N256 1.346 . S
C257 C258 1.396 . S
C257 C267 1.510 . S
C258 C254 1.401 . S
C258 C257 1.396 . S
C259 C254 1.499 . S
C259 H260 0.959 . S
C259 H261 0.960 . S
C259 H262 0.961 . S
H260 C259 0.959 . S
H261 C259 0.960 . S
H262 C259 0.961 . S
O263 Co238 1.967 . S
O263 C271 1.258 . S
O264 Co239 1.941 . S
O264 C271 1.266 . S
H265 C267 0.959 . S
H266 C267 0.961 . S
C267 C257 1.510 . S
C267 H265 0.959 . S
C267 H266 0.961 . S
C267 H268 0.960 . S
H268 C267 0.960 . S
H269 N249 0.862 . S
O270 Co238 1.920 . S
O270 C243 1.289 . S
C271 O263 1.258 . S
C271 O264 1.266 . S
Co272 O275 1.970 . S
Co272 N289 1.989 . S
Co272 O297 1.967 . S
Co272 O304 1.920 . S
Co273 O276 1.966 . S
Co273 N282 2.022 . S
Co273 N290 1.993 . S
Co273 O298 1.941 . S
C274 O275 1.258 . S
C274 O276 1.263 . S
O275 Co272 1.970 . S
O275 C274 1.258 . S
O276 Co273 1.966 . S
O276 C274 1.263 . S
C277 O278 1.235 . S
C277 O304 1.289 . S
O278 C277 1.235 . S
C279 C281 1.400 . S
C279 N282 1.351 . S
C279 C284 1.501 . S
C280 C281 1.387 . S
C280 N283 1.341 . S
C281 C279 1.400 . S
C281 C280 1.387 . S
N282 Co273 2.022 . S
N282 C279 1.351 . S
N282 N283 1.365 . S
N283 C280 1.341 . S
N283 N282 1.365 . S
N283 H303 0.862 . S
C284 C279 1.501 . S
C284 H285 0.961 . S
C284 H286 0.961 . S
C284 H287 0.960 . S
H285 C284 0.961 . S
H286 C284 0.961 . S
H287 C284 0.960 . S
C288 N289 1.342 . S
C288 C292 1.401 . S
C288 C293 1.499 . S
N289 Co272 1.989 . S
N289 C288 1.342 . S
N289 N290 1.388 . S
N290 Co273 1.993 . S
N290 N289 1.388 . S
N290 C291 1.346 . S
C291 N290 1.346 . S
C291 C292 1.396 . S
C291 C301 1.510 . S
C292 C288 1.401 . S
C292 C291 1.396 . S
C293 C288 1.499 . S
C293 H294 0.959 . S
C293 H295 0.960 . S
C293 H296 0.961 . S
H294 C293 0.959 . S
H295 C293 0.960 . S
H296 C293 0.961 . S
O297 Co272 1.967 . S
O297 C305 1.258 . S
O298 Co273 1.941 . S
O298 C305 1.266 . S
H299 C301 0.959 . S
H300 C301 0.961 . S
C301 C291 1.510 . S
C301 H299 0.959 . S
C301 H300 0.961 . S
C301 H302 0.960 . S
H302 C301 0.960 . S
H303 N283 0.862 . S
O304 Co272 1.920 . S
O304 C277 1.289 . S
C305 O297 1.258 . S
C305 O298 1.266 . S
Co306 O309 1.970 . S
Co306 N323 1.989 . S
Co306 O331 1.967 . S
Co306 O338 1.920 . S
Co307 O310 1.966 . S
Co307 N316 2.022 . S
Co307 N324 1.993 . S
Co307 O332 1.941 . S
C308 O309 1.258 . S
C308 O310 1.263 . S
O309 Co306 1.970 . S
O309 C308 1.258 . S
O310 Co307 1.966 . S
O310 C308 1.263 . S
C311 O312 1.235 . S
C311 O338 1.289 . S
O312 C311 1.235 . S
C313 C315 1.400 . S
C313 N316 1.351 . S
C313 C318 1.501 . S
C314 C315 1.387 . S
C314 N317 1.341 . S
C315 C313 1.400 . S
C315 C314 1.387 . S
N316 Co307 2.022 . S
N316 C313 1.351 . S
N316 N317 1.365 . S
N317 C314 1.341 . S
N317 N316 1.365 . S
N317 H337 0.862 . S
C318 C313 1.501 . S
C318 H319 0.961 . S
C318 H320 0.961 . S
C318 H321 0.960 . S
H319 C318 0.961 . S
H320 C318 0.961 . S
H321 C318 0.960 . S
C322 N323 1.342 . S
C322 C326 1.401 . S
C322 C327 1.499 . S
N323 Co306 1.989 . S
N323 C322 1.342 . S
N323 N324 1.388 . S
N324 Co307 1.993 . S
N324 N323 1.388 . S
N324 C325 1.346 . S
C325 N324 1.346 . S
C325 C326 1.396 . S
C325 C335 1.510 . S
C326 C322 1.401 . S
C326 C325 1.396 . S
C327 C322 1.499 . S
C327 H328 0.959 . S
C327 H329 0.960 . S
C327 H330 0.961 . S
H328 C327 0.959 . S
H329 C327 0.960 . S
H330 C327 0.961 . S
O331 Co306 1.967 . S
O331 C339 1.258 . S
O332 Co307 1.941 . S
O332 C339 1.266 . S
H333 C335 0.959 . S
H334 C335 0.961 . S
C335 C325 1.510 . S
C335 H333 0.959 . S
C335 H334 0.961 . S
C335 H336 0.960 . S
H336 C335 0.960 . S
H337 N317 0.862 . S
O338 Co306 1.920 . S
O338 C311 1.289 . S
C339 O331 1.258 . S
C339 O332 1.266 . S
Co340 O343 1.970 . S
Co340 N357 1.989 . S
Co340 O365 1.967 . S
Co340 O372 1.920 . S
Co341 O344 1.966 . S
Co341 N350 2.022 . S
Co341 N358 1.993 . S
Co341 O366 1.941 . S
C342 O343 1.258 . S
C342 O344 1.263 . S
O343 Co340 1.970 . S
O343 C342 1.258 . S
O344 Co341 1.966 . S
O344 C342 1.263 . S
C345 O346 1.235 . S
C345 O372 1.289 . S
O346 C345 1.235 . S
C347 C349 1.400 . S
C347 N350 1.351 . S
C347 C352 1.501 . S
C348 C349 1.387 . S
C348 N351 1.341 . S
C349 C347 1.400 . S
C349 C348 1.387 . S
N350 Co341 2.022 . S
N350 C347 1.351 . S
N350 N351 1.365 . S
N351 C348 1.341 . S
N351 N350 1.365 . S
N351 H371 0.862 . S
C352 C347 1.501 . S
C352 H353 0.961 . S
C352 H354 0.961 . S
C352 H355 0.960 . S
H353 C352 0.961 . S
H354 C352 0.961 . S
H355 C352 0.960 . S
C356 N357 1.342 . S
C356 C360 1.401 . S
C356 C361 1.499 . S
N357 Co340 1.989 . S
N357 C356 1.342 . S
N357 N358 1.388 . S
N358 Co341 1.993 . S
N358 N357 1.388 . S
N358 C359 1.346 . S
C359 N358 1.346 . S
C359 C360 1.396 . S
C359 C369 1.510 . S
C360 C356 1.401 . S
C360 C359 1.396 . S
C361 C356 1.499 . S
C361 H362 0.959 . S
C361 H363 0.960 . S
C361 H364 0.961 . S
H362 C361 0.959 . S
H363 C361 0.960 . S
H364 C361 0.961 . S
O365 Co340 1.967 . S
O365 C373 1.258 . S
O366 Co341 1.941 . S
O366 C373 1.266 . S
H367 C369 0.959 . S
H368 C369 0.961 . S
C369 C359 1.510 . S
C369 H367 0.959 . S
C369 H368 0.961 . S
C369 H370 0.960 . S
H370 C369 0.960 . S
H371 N351 0.862 . S
O372 Co340 1.920 . S
O372 C345 1.289 . S
C373 O365 1.258 . S
C373 O366 1.266 . S
Co374 O377 1.970 . S
Co374 N391 1.989 . S
Co374 O399 1.967 . S
Co374 O406 1.920 . S
Co375 O378 1.966 . S
Co375 N384 2.022 . S
Co375 N392 1.993 . S
Co375 O400 1.941 . S
C376 O377 1.258 . S
C376 O378 1.263 . S
O377 Co374 1.970 . S
O377 C376 1.258 . S
O378 Co375 1.966 . S
O378 C376 1.263 . S
C379 O380 1.235 . S
C379 O406 1.289 . S
O380 C379 1.235 . S
C381 C383 1.400 . S
C381 N384 1.351 . S
C381 C386 1.501 . S
C382 C383 1.387 . S
C382 N385 1.341 . S
C383 C381 1.400 . S
C383 C382 1.387 . S
N384 Co375 2.022 . S
N384 C381 1.351 . S
N384 N385 1.365 . S
N385 C382 1.341 . S
N385 N384 1.365 . S
N385 H405 0.862 . S
C386 C381 1.501 . S
C386 H387 0.961 . S
C386 H388 0.961 . S
C386 H389 0.960 . S
H387 C386 0.961 . S
H388 C386 0.961 . S
H389 C386 0.960 . S
C390 N391 1.342 . S
C390 C394 1.401 . S
C390 C395 1.499 . S
N391 Co374 1.989 . S
N391 C390 1.342 . S
N391 N392 1.388 . S
N392 Co375 1.993 . S
N392 N391 1.388 . S
N392 C393 1.346 . S
C393 N392 1.346 . S
C393 C394 1.396 . S
C393 C403 1.510 . S
C394 C390 1.401 . S
C394 C393 1.396 . S
C395 C390 1.499 . S
C395 H396 0.959 . S
C395 H397 0.960 . S
C395 H398 0.961 . S
H396 C395 0.959 . S
H397 C395 0.960 . S
H398 C395 0.961 . S
O399 Co374 1.967 . S
O399 C407 1.258 . S
O400 Co375 1.941 . S
O400 C407 1.266 . S
H401 C403 0.959 . S
H402 C403 0.961 . S
C403 C393 1.510 . S
C403 H401 0.959 . S
C403 H402 0.961 . S
C403 H404 0.960 . S
H404 C403 0.960 . S
H405 N385 0.862 . S
O406 Co374 1.920 . S
O406 C379 1.289 . S
C407 O399 1.258 . S
C407 O400 1.266 . S
Co408 O411 1.970 . S
Co408 N425 1.989 . S
Co408 O433 1.967 . S
Co408 O440 1.920 . S
Co409 O412 1.966 . S
Co409 N418 2.022 . S
Co409 N426 1.993 . S
Co409 O434 1.941 . S
C410 O411 1.258 . S
C410 O412 1.263 . S
O411 Co408 1.970 . S
O411 C410 1.258 . S
O412 Co409 1.966 . S
O412 C410 1.263 . S
C413 O414 1.235 . S
C413 O440 1.289 . S
O414 C413 1.235 . S
C415 C417 1.400 . S
C415 N418 1.351 . S
C415 C420 1.501 . S
C416 C417 1.387 . S
C416 N419 1.341 . S
C417 C415 1.400 . S
C417 C416 1.387 . S
N418 Co409 2.022 . S
N418 C415 1.351 . S
N418 N419 1.365 . S
N419 C416 1.341 . S
N419 N418 1.365 . S
N419 H439 0.862 . S
C420 C415 1.501 . S
C420 H421 0.961 . S
C420 H422 0.961 . S
C420 H423 0.960 . S
H421 C420 0.961 . S
H422 C420 0.961 . S
H423 C420 0.960 . S
C424 N425 1.342 . S
C424 C428 1.401 . S
C424 C429 1.499 . S
N425 Co408 1.989 . S
N425 C424 1.342 . S
N425 N426 1.388 . S
N426 Co409 1.993 . S
N426 N425 1.388 . S
N426 C427 1.346 . S
C427 N426 1.346 . S
C427 C428 1.396 . S
C427 C437 1.510 . S
C428 C424 1.401 . S
C428 C427 1.396 . S
C429 C424 1.499 . S
C429 H430 0.959 . S
C429 H431 0.960 . S
C429 H432 0.961 . S
H430 C429 0.959 . S
H431 C429 0.960 . S
H432 C429 0.961 . S
O433 Co408 1.967 . S
O433 C441 1.258 . S
O434 Co409 1.941 . S
O434 C441 1.266 . S
H435 C437 0.959 . S
H436 C437 0.961 . S
C437 C427 1.510 . S
C437 H435 0.959 . S
C437 H436 0.961 . S
C437 H438 0.960 . S
H438 C437 0.960 . S
H439 N419 0.862 . S
O440 Co408 1.920 . S
O440 C413 1.289 . S
C441 O433 1.258 . S
C441 O434 1.266 . S
Co442 O445 1.970 . S
Co442 N459 1.989 . S
Co442 O467 1.967 . S
Co442 O474 1.920 . S
Co443 O446 1.966 . S
Co443 N452 2.022 . S
Co443 N460 1.993 . S
Co443 O468 1.941 . S
C444 O445 1.258 . S
C444 O446 1.263 . S
O445 Co442 1.970 . S
O445 C444 1.258 . S
O446 Co443 1.966 . S
O446 C444 1.263 . S
C447 O448 1.235 . S
C447 O474 1.289 . S
O448 C447 1.235 . S
C449 C451 1.400 . S
C449 N452 1.351 . S
C449 C454 1.501 . S
C450 C451 1.387 . S
C450 N453 1.341 . S
C451 C449 1.400 . S
C451 C450 1.387 . S
N452 Co443 2.022 . S
N452 C449 1.351 . S
N452 N453 1.365 . S
N453 C450 1.341 . S
N453 N452 1.365 . S
N453 H473 0.862 . S
C454 C449 1.501 . S
C454 H455 0.961 . S
C454 H456 0.961 . S
C454 H457 0.960 . S
H455 C454 0.961 . S
H456 C454 0.961 . S
H457 C454 0.960 . S
C458 N459 1.342 . S
C458 C462 1.401 . S
C458 C463 1.499 . S
N459 Co442 1.989 . S
N459 C458 1.342 . S
N459 N460 1.388 . S
N460 Co443 1.993 . S
N460 N459 1.388 . S
N460 C461 1.346 . S
C461 N460 1.346 . S
C461 C462 1.396 . S
C461 C471 1.510 . S
C462 C458 1.401 . S
C462 C461 1.396 . S
C463 C458 1.499 . S
C463 H464 0.959 . S
C463 H465 0.960 . S
C463 H466 0.961 . S
H464 C463 0.959 . S
H465 C463 0.960 . S
H466 C463 0.961 . S
O467 Co442 1.967 . S
O467 C475 1.258 . S
O468 Co443 1.941 . S
O468 C475 1.266 . S
H469 C471 0.959 . S
H470 C471 0.961 . S
C471 C461 1.510 . S
C471 H469 0.959 . S
C471 H470 0.961 . S
C471 H472 0.960 . S
H472 C471 0.960 . S
H473 N453 0.862 . S
O474 Co442 1.920 . S
O474 C447 1.289 . S
C475 O467 1.258 . S
C475 O468 1.266 . S
Co476 O479 1.970 . S
Co476 N493 1.989 . S
Co476 O501 1.967 . S
Co476 O508 1.920 . S
Co477 O480 1.966 . S
Co477 N486 2.022 . S
Co477 N494 1.993 . S
Co477 O502 1.941 . S
C478 O479 1.258 . S
C478 O480 1.263 . S
O479 Co476 1.970 . S
O479 C478 1.258 . S
O480 Co477 1.966 . S
O480 C478 1.263 . S
C481 O482 1.235 . S
C481 O508 1.289 . S
O482 C481 1.235 . S
C483 C485 1.400 . S
C483 N486 1.351 . S
C483 C488 1.501 . S
C484 C485 1.387 . S
C484 N487 1.341 . S
C485 C483 1.400 . S
C485 C484 1.387 . S
N486 Co477 2.022 . S
N486 C483 1.351 . S
N486 N487 1.365 . S
N487 C484 1.341 . S
N487 N486 1.365 . S
N487 H507 0.862 . S
C488 C483 1.501 . S
C488 H489 0.961 . S
C488 H490 0.961 . S
C488 H491 0.960 . S
H489 C488 0.961 . S
H490 C488 0.961 . S
H491 C488 0.960 . S
C492 N493 1.342 . S
C492 C496 1.401 . S
C492 C497 1.499 . S
N493 Co476 1.989 . S
N493 C492 1.342 . S
N493 N494 1.388 . S
N494 Co477 1.993 . S
N494 N493 1.388 . S
N494 C495 1.346 . S
C495 N494 1.346 . S
C495 C496 1.396 . S
C495 C505 1.510 . S
C496 C492 1.401 . S
C496 C495 1.396 . S
C497 C492 1.499 . S
C497 H498 0.959 . S
C497 H499 0.960 . S
C497 H500 0.961 . S
H498 C497 0.959 . S
H499 C497 0.960 . S
H500 C497 0.961 . S
O501 Co476 1.967 . S
O501 C509 1.258 . S
O502 Co477 1.941 . S
O502 C509 1.266 . S
H503 C505 0.959 . S
H504 C505 0.961 . S
C505 C495 1.510 . S
C505 H503 0.959 . S
C505 H504 0.961 . S
C505 H506 0.960 . S
H506 C505 0.960 . S
H507 N487 0.862 . S
O508 Co476 1.920 . S
O508 C481 1.289 . S
C509 O501 1.258 . S
C509 O502 1.266 . S
Co510 O513 1.970 . S
Co510 N527 1.989 . S
Co510 O535 1.967 . S
Co510 O542 1.920 . S
Co511 O514 1.966 . S
Co511 N520 2.022 . S
Co511 N528 1.993 . S
Co511 O536 1.941 . S
C512 O513 1.258 . S
C512 O514 1.263 . S
O513 Co510 1.970 . S
O513 C512 1.258 . S
O514 Co511 1.966 . S
O514 C512 1.263 . S
C515 O516 1.235 . S
C515 O542 1.289 . S
O516 C515 1.235 . S
C517 C519 1.400 . S
C517 N520 1.351 . S
C517 C522 1.501 . S
C518 C519 1.387 . S
C518 N521 1.341 . S
C519 C517 1.400 . S
C519 C518 1.387 . S
N520 Co511 2.022 . S
N520 C517 1.351 . S
N520 N521 1.365 . S
N521 C518 1.341 . S
N521 N520 1.365 . S
N521 H541 0.862 . S
C522 C517 1.501 . S
C522 H523 0.961 . S
C522 H524 0.961 . S
C522 H525 0.960 . S
H523 C522 0.961 . S
H524 C522 0.961 . S
H525 C522 0.960 . S
C526 N527 1.342 . S
C526 C530 1.401 . S
C526 C531 1.499 . S
N527 Co510 1.989 . S
N527 C526 1.342 . S
N527 N528 1.388 . S
N528 Co511 1.993 . S
N528 N527 1.388 . S
N528 C529 1.346 . S
C529 N528 1.346 . S
C529 C530 1.396 . S
C529 C539 1.510 . S
C530 C526 1.401 . S
C530 C529 1.396 . S
C531 C526 1.499 . S
C531 H532 0.959 . S
C531 H533 0.960 . S
C531 H534 0.961 . S
H532 C531 0.959 . S
H533 C531 0.960 . S
H534 C531 0.961 . S
O535 Co510 1.967 . S
O535 C543 1.258 . S
O536 Co511 1.941 . S
O536 C543 1.266 . S
H537 C539 0.959 . S
H538 C539 0.961 . S
C539 C529 1.510 . S
C539 H537 0.959 . S
C539 H538 0.961 . S
C539 H540 0.960 . S
H540 C539 0.960 . S
H541 N521 0.862 . S
O542 Co510 1.920 . S
O542 C515 1.289 . S
C543 O535 1.258 . S
C543 O536 1.266 . S
C544 C545 1.369 . S
C544 C546 1.419 . S
C544 H548 0.930 . S
C545 C544 1.369 . S
C545 C554 1.429 . S
C546 C544 1.419 . S
C546 C547 1.363 . S
C546 H549 0.929 . S
C547 C546 1.363 . S
C547 C553 1.428 . S
H548 C544 0.930 . S
H549 C546 0.929 . S
S550 N551 1.613 . S
S550 N552 1.610 . S
N551 S550 1.613 . S
N551 C554 1.350 . S
N552 S550 1.610 . S
N552 C553 1.351 . S
C553 C547 1.428 . S
C553 N552 1.351 . S
C553 C554 1.434 . S
C554 C545 1.429 . S
C554 N551 1.350 . S
C554 C553 1.434 . S
C555 C556 1.369 . S
C555 C557 1.419 . S
C555 H559 0.930 . S
C556 C555 1.369 . S
C556 C565 1.429 . S
C557 C555 1.419 . S
C557 C558 1.363 . S
C557 H560 0.929 . S
C558 C557 1.363 . S
C558 C564 1.428 . S
H559 C555 0.930 . S
H560 C557 0.929 . S
S561 N562 1.613 . S
S561 N563 1.610 . S
N562 S561 1.613 . S
N562 C565 1.350 . S
N563 S561 1.610 . S
N563 C564 1.351 . S
C564 C558 1.428 . S
C564 N563 1.351 . S
C564 C565 1.434 . S
C565 C556 1.429 . S
C565 N562 1.350 . S
C565 C564 1.434 . S
C566 C567 1.369 . S
C566 C568 1.419 . S
C566 H570 0.930 . S
C567 C566 1.369 . S
C567 C576 1.429 . S
C568 C566 1.419 . S
C568 C569 1.363 . S
C568 H571 0.929 . S
C569 C568 1.363 . S
C569 C575 1.428 . S
H570 C566 0.930 . S
H571 C568 0.929 . S
S572 N573 1.613 . S
S572 N574 1.610 . S
N573 S572 1.613 . S
N573 C576 1.350 . S
N574 S572 1.610 . S
N574 C575 1.351 . S
C575 C569 1.428 . S
C575 N574 1.351 . S
C575 C576 1.434 . S
C576 C567 1.429 . S
C576 N573 1.350 . S
C576 C575 1.434 . S
C577 C578 1.369 . S
C577 C579 1.419 . S
C577 H581 0.930 . S
C578 C577 1.369 . S
C578 C587 1.429 . S
C579 C577 1.419 . S
C579 C580 1.363 . S
C579 H582 0.929 . S
C580 C579 1.363 . S
C580 C586 1.428 . S
H581 C577 0.930 . S
H582 C579 0.929 . S
S583 N584 1.613 . S
S583 N585 1.610 . S
N584 S583 1.613 . S
N584 C587 1.350 . S
N585 S583 1.610 . S
N585 C586 1.351 . S
C586 C580 1.428 . S
C586 N585 1.351 . S
C586 C587 1.434 . S
C587 C578 1.429 . S
C587 N584 1.350 . S
C587 C586 1.434 . S
C588 C589 1.369 . S
C588 C590 1.419 . S
C588 H592 0.930 . S
C589 C588 1.369 . S
C589 C598 1.429 . S
C590 C588 1.419 . S
C590 C591 1.363 . S
C590 H593 0.929 . S
C591 C590 1.363 . S
C591 C597 1.428 . S
H592 C588 0.930 . S
H593 C590 0.929 . S
S594 N595 1.613 . S
S594 N596 1.610 . S
N595 S594 1.613 . S
N595 C598 1.350 . S
N596 S594 1.610 . S
N596 C597 1.351 . S
C597 C591 1.428 . S
C597 N596 1.351 . S
C597 C598 1.434 . S
C598 C589 1.429 . S
C598 N595 1.350 . S
C598 C597 1.434 . S
C599 C600 1.369 . S
C599 C601 1.419 . S
C599 H603 0.930 . S
C600 C599 1.369 . S
C600 C609 1.429 . S
C601 C599 1.419 . S
C601 C602 1.363 . S
C601 H604 0.929 . S
C602 C601 1.363 . S
C602 C608 1.428 . S
H603 C599 0.930 . S
H604 C601 0.929 . S
S605 N606 1.613 . S
S605 N607 1.610 . S
N606 S605 1.613 . S
N606 C609 1.350 . S
N607 S605 1.610 . S
N607 C608 1.351 . S
C608 C602 1.428 . S
C608 N607 1.351 . S
C608 C609 1.434 . S
C609 C600 1.429 . S
C609 N606 1.350 . S
C609 C608 1.434 . S
C610 C611 1.369 . S
C610 C612 1.419 . S
C610 H614 0.930 . S
C611 C610 1.369 . S
C611 C620 1.429 . S
C612 C610 1.419 . S
C612 C613 1.363 . S
C612 H615 0.929 . S
C613 C612 1.363 . S
C613 C619 1.428 . S
H614 C610 0.930 . S
H615 C612 0.929 . S
S616 N617 1.613 . S
S616 N618 1.610 . S
N617 S616 1.613 . S
N617 C620 1.350 . S
N618 S616 1.610 . S
N618 C619 1.351 . S
C619 C613 1.428 . S
C619 N618 1.351 . S
C619 C620 1.434 . S
C620 C611 1.429 . S
C620 N617 1.350 . S
C620 C619 1.434 . S
C621 C622 1.369 . S
C621 C623 1.419 . S
C621 H625 0.930 . S
C622 C621 1.369 . S
C622 C631 1.429 . S
C623 C621 1.419 . S
C623 C624 1.363 . S
C623 H626 0.929 . S
C624 C623 1.363 . S
C624 C630 1.428 . S
H625 C621 0.930 . S
H626 C623 0.929 . S
S627 N628 1.613 . S
S627 N629 1.610 . S
N628 S627 1.613 . S
N628 C631 1.350 . S
N629 S627 1.610 . S
N629 C630 1.351 . S
C630 C624 1.428 . S
C630 N629 1.351 . S
C630 C631 1.434 . S
C631 C622 1.429 . S
C631 N628 1.350 . S
C631 C630 1.434 . S
C632 C633 1.369 . S
C632 C634 1.419 1_655 S
C632 H636 0.930 . S
C633 C632 1.369 . S
C633 C642 1.429 . S
C634 C632 1.419 1_455 S
C634 C635 1.363 . S
C634 H637 0.929 . S
C635 C634 1.363 . S
C635 C641 1.428 . S
H636 C632 0.930 . S
H637 C634 0.929 . S
S638 N639 1.617 1_455 S
S638 N640 1.606 . S
N639 S638 1.617 1_655 S
N639 C642 1.350 . S
N640 S638 1.606 . S
N640 C641 1.351 . S
C641 C635 1.428 . S
C641 N640 1.351 . S
C641 C642 1.434 1_455 S
C642 C633 1.429 . S
C642 N639 1.350 . S
C642 C641 1.434 1_655 S
C643 C644 1.369 . S
C643 C645 1.419 . S
C643 H647 0.930 . S
C644 C643 1.369 . S
C644 C653 1.429 . S
C645 C643 1.419 . S
C645 C646 1.363 . S
C645 H648 0.929 . S
C646 C645 1.363 . S
C646 C652 1.428 . S
H647 C643 0.930 . S
H648 C645 0.929 . S
S649 N650 1.613 . S
S649 N651 1.610 . S
N650 S649 1.613 . S
N650 C653 1.350 . S
N651 S649 1.610 . S
N651 C652 1.351 . S
C652 C646 1.428 . S
C652 N651 1.351 . S
C652 C653 1.434 . S
C653 C644 1.429 . S
C653 N650 1.350 . S
C653 C652 1.434 . S
C654 C655 1.369 . S
C654 C656 1.419 1_655 S
C654 H658 0.930 . S
C655 C654 1.369 . S
C655 C664 1.429 . S
C656 C654 1.419 1_455 S
C656 C657 1.363 . S
C656 H659 0.929 . S
C657 C656 1.363 . S
C657 C663 1.428 . S
H658 C654 0.930 . S
H659 C656 0.929 . S
S660 N661 1.617 1_455 S
S660 N662 1.606 . S
N661 S660 1.617 1_655 S
N661 C664 1.350 . S
N662 S660 1.606 . S
N662 C663 1.351 . S
C663 C657 1.428 . S
C663 N662 1.351 . S
C663 C664 1.434 1_455 S
C664 C655 1.429 . S
C664 N661 1.350 . S
C664 C663 1.434 1_655 S
C665 C666 1.369 . S
C665 C667 1.419 . S
C665 H669 0.930 . S
C666 C665 1.369 . S
C666 C675 1.429 . S
C667 C665 1.419 . S
C667 C668 1.363 . S
C667 H670 0.929 . S
C668 C667 1.363 . S
C668 C674 1.428 . S
H669 C665 0.930 . S
H670 C667 0.929 . S
S671 N672 1.613 . S
S671 N673 1.610 . S
N672 S671 1.613 . S
N672 C675 1.350 . S
N673 S671 1.610 . S
N673 C674 1.351 . S
C674 C668 1.428 . S
C674 N673 1.351 . S
C674 C675 1.434 . S
C675 C666 1.429 . S
C675 N672 1.350 . S
C675 C674 1.434 . S
C676 C677 1.369 . S
C676 C678 1.419 . S
C676 H680 0.930 . S
C677 C676 1.369 . S
C677 C686 1.429 . S
C678 C676 1.419 . S
C678 C679 1.363 . S
C678 H681 0.929 . S
C679 C678 1.363 . S
C679 C685 1.428 . S
H680 C676 0.930 . S
H681 C678 0.929 . S
S682 N683 1.613 . S
S682 N684 1.610 . S
N683 S682 1.613 . S
N683 C686 1.350 . S
N684 S682 1.610 . S
N684 C685 1.351 . S
C685 C679 1.428 . S
C685 N684 1.351 . S
C685 C686 1.434 . S
C686 C677 1.429 . S
C686 N683 1.350 . S
C686 C685 1.434 . S
C687 C688 1.369 . S
C687 C689 1.419 1_455 S
C687 H691 0.930 . S
C688 C687 1.369 . S
C688 C697 1.429 . S
C689 C687 1.419 1_655 S
C689 C690 1.363 . S
C689 H692 0.929 . S
C690 C689 1.363 . S
C690 C696 1.428 . S
H691 C687 0.930 . S
H692 C689 0.929 . S
S693 N694 1.617 1_655 S
S693 N695 1.606 . S
N694 S693 1.617 1_455 S
N694 C697 1.350 . S
N695 S693 1.606 . S
N695 C696 1.351 . S
C696 C690 1.428 . S
C696 N695 1.351 . S
C696 C697 1.434 1_655 S
C697 C688 1.429 . S
C697 N694 1.350 . S
C697 C696 1.434 1_455 S
C698 C699 1.369 . S
C698 C700 1.419 . S
C698 H702 0.930 . S
C699 C698 1.369 . S
C699 C708 1.429 . S
C700 C698 1.419 . S
C700 C701 1.363 . S
C700 H703 0.929 . S
C701 C700 1.363 . S
C701 C707 1.428 . S
H702 C698 0.930 . S
H703 C700 0.929 . S
S704 N705 1.613 . S
S704 N706 1.610 . S
N705 S704 1.613 . S
N705 C708 1.350 . S
N706 S704 1.610 . S
N706 C707 1.351 . S
C707 C701 1.428 . S
C707 N706 1.351 . S
C707 C708 1.434 . S
C708 C699 1.429 . S
C708 N705 1.350 . S
C708 C707 1.434 . S
C709 C710 1.369 . S
C709 C711 1.419 1_655 S
C709 H713 0.930 . S
C710 C709 1.369 . S
C710 C719 1.429 . S
C711 C709 1.419 1_455 S
C711 C712 1.363 . S
C711 H714 0.929 . S
C712 C711 1.363 . S
C712 C718 1.428 . S
H713 C709 0.930 . S
H714 C711 0.929 . S
S715 N716 1.617 1_455 S
S715 N717 1.606 . S
N716 S715 1.617 1_655 S
N716 C719 1.350 . S
N717 S715 1.606 . S
N717 C718 1.351 . S
C718 C712 1.428 . S
C718 N717 1.351 . S
C718 C719 1.434 1_455 S
C719 C710 1.429 . S
C719 N716 1.350 . S
C719 C718 1.434 1_655 S
C720 C721 1.378 . S
C720 C722 1.410 1_544 S
C720 H724 0.930 1_554 S
C721 C720 1.378 . S
C721 C730 1.416 1_545 S
C722 C720 1.410 1_566 S
C722 C723 1.363 . S
C722 H725 0.930 . S
C723 C722 1.363 . S
C723 C729 1.428 1_556 S
H724 C720 0.930 1_556 S
H725 C722 0.930 . S
S726 N727 1.613 . S
S726 N728 1.610 . S
N727 S726 1.613 . S
N727 C730 1.352 . S
N728 S726 1.610 . S
N728 C729 1.351 . S
C729 C723 1.428 1_554 S
C729 N728 1.351 . S
C729 C730 1.446 . S
C730 C721 1.416 1_565 S
C730 N727 1.352 . S
C730 C729 1.446 . S
C731 C732 1.369 . S
C731 C733 1.419 . S
C731 H735 0.930 . S
C732 C731 1.369 . S
C732 C741 1.429 1_565 S
C733 C731 1.419 . S
C733 C734 1.363 1_565 S
C733 H736 0.929 . S
C734 C733 1.363 1_545 S
C734 C740 1.428 . S
H735 C731 0.930 . S
H736 C733 0.929 . S
S737 N738 1.613 . S
S737 N739 1.610 . S
N738 S737 1.613 . S
N738 C741 1.350 . S
N739 S737 1.610 . S
N739 C740 1.351 . S
C740 C734 1.428 . S
C740 N739 1.351 . S
C740 C741 1.434 . S
C741 C732 1.429 1_545 S
C741 N738 1.350 . S
C741 C740 1.434 . S
C742 C743 1.369 1_545 S
C742 C744 1.419 . S
C742 H746 0.930 . S
C743 C742 1.369 1_565 S
C743 C752 1.429 1_556 S
C744 C742 1.419 . S
C744 C745 1.363 1_556 S
C744 H747 0.929 . S
C745 C744 1.363 1_554 S
C745 C751 1.428 1_545 S
H746 C742 0.930 . S
H747 C744 0.929 . S
S748 N749 1.613 . S
S748 N750 1.610 . S
N749 S748 1.613 . S
N749 C752 1.350 . S
N750 S748 1.610 . S
N750 C751 1.351 . S
C751 C745 1.428 1_565 S
C751 N750 1.351 . S
C751 C752 1.434 . S
C752 C743 1.429 1_554 S
C752 N749 1.350 . S
C752 C751 1.434 . S
C753 C754 1.369 1_565 S
C753 C755 1.419 . S
C753 H757 0.930 . S
C754 C753 1.369 1_545 S
C754 C763 1.429 . S
C755 C753 1.419 . S
C755 C756 1.363 . S
C755 H758 0.929 . S
C756 C755 1.363 . S
C756 C762 1.428 1_565 S
H757 C753 0.930 . S
H758 C755 0.929 . S
S759 N760 1.613 . S
S759 N761 1.610 . S
N760 S759 1.613 . S
N760 C763 1.350 . S
N761 S759 1.610 . S
N761 C762 1.351 . S
C762 C756 1.428 1_545 S
C762 N761 1.351 . S
C762 C763 1.434 . S
C763 C754 1.429 . S
C763 N760 1.350 . S
C763 C762 1.434 . S
C764 C765 1.369 1_556 S
C764 C766 1.419 . S
C764 H768 0.930 . S
C765 C764 1.369 1_554 S
C765 C774 1.429 . S
C766 C764 1.419 . S
C766 C767 1.363 . S
C766 H769 0.929 . S
C767 C766 1.363 . S
C767 C773 1.428 1_556 S
H768 C764 0.930 . S
H769 C766 0.929 . S
S770 N771 1.613 . S
S770 N772 1.610 . S
N771 S770 1.613 . S
N771 C774 1.350 . S
N772 S770 1.610 . S
N772 C773 1.351 . S
C773 C767 1.428 1_554 S
C773 N772 1.351 . S
C773 C774 1.434 . S
C774 C765 1.429 . S
C774 N771 1.350 . S
C774 C773 1.434 . S
C775 C776 1.369 . S
C775 C777 1.419 . S
C775 H779 0.930 . S
C776 C775 1.369 . S
C776 C785 1.429 . S
C777 C775 1.419 . S
C777 C778 1.363 . S
C777 H780 0.929 . S
C778 C777 1.363 . S
C778 C784 1.428 . S
H779 C775 0.930 . S
H780 C777 0.929 . S
S781 N782 1.613 . S
S781 N783 1.610 . S
N782 S781 1.613 . S
N782 C785 1.350 . S
N783 S781 1.610 . S
N783 C784 1.351 . S
C784 C778 1.428 . S
C784 N783 1.351 . S
C784 C785 1.434 . S
C785 C776 1.429 . S
C785 N782 1.350 . S
C785 C784 1.434 . S
C786 C787 1.369 1_554 S
C786 C788 1.419 . S
C786 H790 0.930 . S
C787 C786 1.369 1_556 S
C787 C796 1.429 . S
C788 C786 1.419 . S
C788 C789 1.363 . S
C788 H791 0.929 . S
C789 C788 1.363 . S
C789 C795 1.428 1_554 S
H790 C786 0.930 . S
H791 C788 0.929 . S
S792 N793 1.613 . S
S792 N794 1.610 . S
N793 S792 1.613 . S
N793 C796 1.350 . S
N794 S792 1.610 . S
N794 C795 1.351 . S
C795 C789 1.428 1_556 S
C795 N794 1.351 . S
C795 C796 1.434 . S
C796 C787 1.429 . S
C796 N793 1.350 . S
C796 C795 1.434 . S
C797 C798 1.369 . S
C797 C799 1.419 . S
C797 H801 0.930 . S
C798 C797 1.369 . S
C798 C807 1.429 . S
C799 C797 1.419 . S
C799 C800 1.363 . S
C799 H802 0.929 . S
C800 C799 1.363 . S
C800 C806 1.428 . S
H801 C797 0.930 . S
H802 C799 0.929 . S
S803 N804 1.613 . S
S803 N805 1.610 . S
N804 S803 1.613 . S
N804 C807 1.350 . S
N805 S803 1.610 . S
N805 C806 1.351 . S
C806 C800 1.428 . S
C806 N805 1.351 . S
C806 C807 1.434 . S
C807 C798 1.429 . S
C807 N804 1.350 . S
C807 C806 1.434 . S
C808 C809 1.369 . S
C808 C810 1.419 . S
C808 H812 0.930 . S
C809 C808 1.369 . S
C809 C818 1.429 . S
C810 C808 1.419 . S
C810 C811 1.363 . S
C810 H813 0.929 1_556 S
C811 C810 1.363 . S
C811 C817 1.428 . S
H812 C808 0.930 . S
H813 C810 0.929 1_554 S
S814 N815 1.613 . S
S814 N816 1.610 . S
N815 S814 1.613 . S
N815 C818 1.350 . S
N816 S814 1.610 . S
N816 C817 1.351 . S
C817 C811 1.428 . S
C817 N816 1.351 . S
C817 C818 1.434 . S
C818 C809 1.429 . S
C818 N815 1.350 . S
C818 C817 1.434 . S
C819 C820 1.369 . S
C819 C821 1.419 . S
C819 H823 0.930 . S
C820 C819 1.369 . S
C820 C829 1.429 . S
C821 C819 1.419 . S
C821 C822 1.363 . S
C821 H824 0.929 . S
C822 C821 1.363 . S
C822 C828 1.428 . S
H823 C819 0.930 . S
H824 C821 0.929 . S
S825 N826 1.613 . S
S825 N827 1.610 . S
N826 S825 1.613 . S
N826 C829 1.350 . S
N827 S825 1.610 . S
N827 C828 1.351 . S
C828 C822 1.428 . S
C828 N827 1.351 . S
C828 C829 1.434 . S
C829 C820 1.429 . S
C829 N826 1.350 . S
C829 C828 1.434 . S
C830 C831 1.369 . S
C830 C832 1.419 . S
C830 H834 0.930 1_554 S
C831 C830 1.369 . S
C831 C840 1.429 . S
C832 C830 1.419 . S
C832 C833 1.363 . S
C832 H835 0.929 . S
C833 C832 1.363 . S
C833 C839 1.428 . S
H834 C830 0.930 1_556 S
H835 C832 0.929 . S
S836 N837 1.613 . S
S836 N838 1.610 . S
N837 S836 1.613 . S
N837 C840 1.350 . S
N838 S836 1.610 . S
N838 C839 1.351 . S
C839 C833 1.428 . S
C839 N838 1.351 . S
C839 C840 1.434 . S
C840 C831 1.429 . S
C840 N837 1.350 . S
C840 C839 1.434 . S
C841 C842 1.369 . S
C841 C843 1.419 . S
C841 H845 0.930 . S
C842 C841 1.369 . S
C842 C851 1.429 . S
C843 C841 1.419 . S
C843 C844 1.363 . S
C843 H846 0.929 . S
C844 C843 1.363 . S
C844 C850 1.428 . S
H845 C841 0.930 . S
H846 C843 0.929 . S
S847 N848 1.613 . S
S847 N849 1.610 . S
N848 S847 1.613 . S
N848 C851 1.350 . S
N849 S847 1.610 . S
N849 C850 1.351 . S
C850 C844 1.428 . S
C850 N849 1.351 . S
C850 C851 1.434 . S
C851 C842 1.429 . S
C851 N848 1.350 . S
C851 C850 1.434 . S
C852 C853 1.369 . S
C852 C854 1.419 . S
C852 H856 0.930 . S
C853 C852 1.369 . S
C853 C862 1.429 . S
C854 C852 1.419 . S
C854 C855 1.363 . S
C854 H857 0.929 1_554 S
C855 C854 1.363 . S
C855 C861 1.428 . S
H856 C852 0.930 . S
H857 C854 0.929 1_556 S
S858 N859 1.613 . S
S858 N860 1.610 . S
N859 S858 1.613 . S
N859 C862 1.350 . S
N860 S858 1.610 . S
N860 C861 1.351 . S
C861 C855 1.428 . S
C861 N860 1.351 . S
C861 C862 1.434 . S
C862 C853 1.429 . S
C862 N859 1.350 . S
C862 C861 1.434 . S
C863 C864 1.369 . S
C863 C865 1.419 . S
C863 H867 0.930 . S
C864 C863 1.369 . S
C864 C873 1.429 . S
C865 C863 1.419 . S
C865 C866 1.363 . S
C865 H868 0.929 . S
C866 C865 1.363 . S
C866 C872 1.428 . S
H867 C863 0.930 . S
H868 C865 0.929 . S
S869 N870 1.613 . S
S869 N871 1.610 . S
N870 S869 1.613 . S
N870 C873 1.350 . S
N871 S869 1.610 . S
N871 C872 1.351 . S
C872 C866 1.428 . S
C872 N871 1.351 . S
C872 C873 1.434 . S
C873 C864 1.429 . S
C873 N870 1.350 . S
C873 C872 1.434 . S
C874 C875 1.369 . S
C874 C876 1.419 . S
C874 H878 0.930 1_556 S
C875 C874 1.369 . S
C875 C884 1.429 . S
C876 C874 1.419 . S
C876 C877 1.363 . S
C876 H879 0.929 . S
C877 C876 1.363 . S
C877 C883 1.428 . S
H878 C874 0.930 1_554 S
H879 C876 0.929 . S
S880 N881 1.613 . S
S880 N882 1.610 . S
N881 S880 1.613 . S
N881 C884 1.350 . S
N882 S880 1.610 . S
N882 C883 1.351 . S
C883 C877 1.428 . S
C883 N882 1.351 . S
C883 C884 1.434 . S
C884 C875 1.429 . S
C884 N881 1.350 . S
C884 C883 1.434 . S
C885 C886 1.369 . S
C885 C887 1.419 . S
C885 H889 0.930 . S
C886 C885 1.369 . S
C886 C895 1.429 . S
C887 C885 1.419 . S
C887 C888 1.363 . S
C887 H890 0.929 . S
C888 C887 1.363 . S
C888 C894 1.428 . S
H889 C885 0.930 . S
H890 C887 0.929 . S
S891 N892 1.613 . S
S891 N893 1.610 . S
N892 S891 1.613 . S
N892 C895 1.350 . S
N893 S891 1.610 . S
N893 C894 1.351 . S
C894 C888 1.428 . S
C894 N893 1.351 . S
C894 C895 1.434 . S
C895 C886 1.429 . S
C895 N892 1.350 . S
C895 C894 1.434 . S
C896 C897 1.369 . S
C896 C898 1.419 . S
C896 H900 0.930 . S
C897 C896 1.369 . S
C897 C906 1.429 . S
C898 C896 1.419 . S
C898 C899 1.363 . S
C898 H901 0.929 . S
C899 C898 1.363 . S
C899 C905 1.428 . S
H900 C896 0.930 . S
H901 C898 0.929 . S
S902 N903 1.613 . S
S902 N904 1.610 1_554 S
N903 S902 1.613 . S
N903 C906 1.350 1_554 S
N904 S902 1.610 1_556 S
N904 C905 1.351 . S
C905 C899 1.428 . S
C905 N904 1.351 . S
C905 C906 1.434 . S
C906 C897 1.429 . S
C906 N903 1.350 1_556 S
C906 C905 1.434 . S
C907 C908 1.369 . S
C907 C909 1.419 . S
C907 H911 0.930 . S
C908 C907 1.369 . S
C908 C917 1.429 . S
C909 C907 1.419 . S
C909 C910 1.363 . S
C909 H912 0.929 . S
C910 C909 1.363 . S
C910 C916 1.428 . S
H911 C907 0.930 . S
H912 C909 0.929 . S
S913 N914 1.613 . S
S913 N915 1.610 . S
N914 S913 1.613 . S
N914 C917 1.350 . S
N915 S913 1.610 . S
N915 C916 1.351 . S
C916 C910 1.428 . S
C916 N915 1.351 . S
C916 C917 1.434 . S
C917 C908 1.429 . S
C917 N914 1.350 . S
C917 C916 1.434 . S
C918 C919 1.369 . S
C918 C920 1.419 . S
C918 H922 0.930 . S
C919 C918 1.369 . S
C919 C928 1.429 . S
C920 C918 1.419 . S
C920 C921 1.363 . S
C920 H923 0.929 1_554 S
C921 C920 1.363 . S
C921 C927 1.428 . S
H922 C918 0.930 . S
H923 C920 0.929 1_556 S
S924 N925 1.613 . S
S924 N926 1.610 . S
N925 S924 1.613 . S
N925 C928 1.350 . S
N926 S924 1.610 . S
N926 C927 1.351 . S
C927 C921 1.428 . S
C927 N926 1.351 . S
C927 C928 1.434 . S
C928 C919 1.429 . S
C928 N925 1.350 . S
C928 C927 1.434 . S
C929 C930 1.369 . S
C929 C931 1.419 . S
C929 H933 0.930 . S
C930 C929 1.369 . S
C930 C939 1.429 . S
C931 C929 1.419 . S
C931 C932 1.363 . S
C931 H934 0.929 . S
C932 C931 1.363 . S
C932 C938 1.428 . S
H933 C929 0.930 . S
H934 C931 0.929 . S
S935 N936 1.613 . S
S935 N937 1.610 . S
N936 S935 1.613 . S
N936 C939 1.350 . S
N937 S935 1.610 . S
N937 C938 1.351 . S
C938 C932 1.428 . S
C938 N937 1.351 . S
C938 C939 1.434 . S
C939 C930 1.429 . S
C939 N936 1.350 . S
C939 C938 1.434 . S
C940 C941 1.369 . S
C940 C942 1.419 . S
C940 H944 0.930 . S
C941 C940 1.369 . S
C941 C950 1.429 . S
C942 C940 1.419 . S
C942 C943 1.363 . S
C942 H945 0.929 . S
C943 C942 1.363 . S
C943 C949 1.428 . S
H944 C940 0.930 . S
H945 C942 0.929 . S
S946 N947 1.613 . S
S946 N948 1.610 . S
N947 S946 1.613 . S
N947 C950 1.350 . S
N948 S946 1.610 . S
N948 C949 1.351 . S
C949 C943 1.428 . S
C949 N948 1.351 . S
C949 C950 1.434 . S
C950 C941 1.429 . S
C950 N947 1.350 . S
C950 C949 1.434 . S
C951 C952 1.369 . S
C951 C953 1.419 . S
C951 H955 0.930 . S
C952 C951 1.369 . S
C952 C961 1.429 . S
C953 C951 1.419 . S
C953 C954 1.363 . S
C953 H956 0.929 . S
C954 C953 1.363 . S
C954 C960 1.428 . S
H955 C951 0.930 . S
H956 C953 0.929 . S
S957 N958 1.613 . S
S957 N959 1.610 . S
N958 S957 1.613 . S
N958 C961 1.350 . S
N959 S957 1.610 . S
N959 C960 1.351 . S
C960 C954 1.428 . S
C960 N959 1.351 . S
C960 C961 1.434 . S
C961 C952 1.429 . S
C961 N958 1.350 . S
C961 C960 1.434 . S
C962 C963 1.369 . S
C962 C964 1.419 . S
C962 H966 0.930 . S
C963 C962 1.369 . S
C963 C972 1.429 . S
C964 C962 1.419 . S
C964 C965 1.363 . S
C964 H967 0.929 1_556 S
C965 C964 1.363 . S
C965 C971 1.428 . S
H966 C962 0.930 . S
H967 C964 0.929 1_554 S
S968 N969 1.613 . S
S968 N970 1.610 . S
N969 S968 1.613 . S
N969 C972 1.350 . S
N970 S968 1.610 . S
N970 C971 1.351 . S
C971 C965 1.428 . S
C971 N970 1.351 . S
C971 C972 1.434 . S
C972 C963 1.429 . S
C972 N969 1.350 . S
C972 C971 1.434 . S
C973 C974 1.369 . S
C973 C975 1.419 . S
C973 H977 0.930 . S
C974 C973 1.369 . S
C974 C983 1.429 . S
C975 C973 1.419 . S
C975 C976 1.363 . S
C975 H978 0.929 . S
C976 C975 1.363 . S
C976 C982 1.428 . S
H977 C973 0.930 . S
H978 C975 0.929 . S
S979 N980 1.613 . S
S979 N981 1.610 . S
N980 S979 1.613 . S
N980 C983 1.350 . S
N981 S979 1.610 . S
N981 C982 1.351 . S
C982 C976 1.428 . S
C982 N981 1.351 . S
C982 C983 1.434 . S
C983 C974 1.429 . S
C983 N980 1.350 . S
C983 C982 1.434 . S
C545 C9 1.477 . S
C547 C111 1.476 . S
C556 C77 1.477 . S
C558 C43 1.476 . S
C567 C247 1.484 . S
C569 C145 1.482 . S
C578 C179 1.482 . S
C580 C213 1.479 . S
C589 C281 1.476 . S
C591 C383 1.478 . S
C600 C315 1.480 . S
C602 C349 1.479 . S
C611 C519 1.480 . S
C613 C417 1.482 . S
C622 C451 1.481 . S
C624 C485 1.479 . S
C633 C209 1.496 . S
C635 C5 1.495 . S
C644 C243 1.497 . S
C646 C39 1.496 . S
C655 C141 1.495 . S
C657 C73 1.495 . S
C666 C175 1.497 . S
C668 C107 1.497 . S
C677 C481 1.493 . S
C679 C277 1.494 . S
C688 C515 1.493 . S
C690 C311 1.494 . S
C699 C413 1.494 . S
C701 C345 1.494 . S
C710 C379 1.496 . S
C712 C447 1.496 . S
C721 C2 1.546 . S
C723 C70 1.542 . S
C732 C36 1.547 . S
C734 C104 1.542 . S
C743 C138 1.542 . S
C745 C206 1.546 . S
C754 C172 1.541 . S
C756 C240 1.546 . S
C765 C274 1.547 . S
C767 C342 1.542 . S
C776 C308 1.541 . S
C778 C376 1.546 . S
C787 C410 1.544 . S
C789 C478 1.543 . S
C798 C444 1.544 . S
C800 C512 1.545 . S
C809 C530 1.403 . S
C811 C33 1.406 1_556 S
C820 C67 1.405 . S
C822 C496 1.403 . S
C831 C101 1.406 1_554 S
C833 C462 1.403 . S
C842 C428 1.403 . S
C844 C135 1.406 . S
C853 C394 1.403 . S
C855 C169 1.405 1_554 S
C864 C203 1.405 . S
C866 C360 1.404 . S
C875 C237 1.405 1_556 S
C877 C326 1.403 . S
C886 C271 1.405 . S
C888 C292 1.404 . S
C897 C305 1.405 1_556 S
C899 C258 1.404 . S
C908 C224 1.404 . S
C910 C339 1.406 . S
C919 C190 1.402 . S
C921 C373 1.406 1_554 S
C930 C407 1.406 . S
C932 C156 1.403 . S
C941 C441 1.406 1_554 S
C943 C122 1.404 . S
C952 C88 1.402 . S
C954 C475 1.406 . S
C963 C54 1.403 . S
C965 C509 1.406 1_556 S
C974 C20 1.404 . S
C976 C543 1.405 . S
